0:0:0
     RDKit          3D

 87 94  0  0  1  0  0  0  0  0999 V2000
  -28.5360  -22.5460   19.9790 C   0  0  0  0  0  0  0  0  0  0  0  0
  -28.2630  -22.6790   18.4970 C   0  0  0  0  0  1  0  0  0  0  0  0
  -28.9380  -21.2460   20.4710 N   0  0  0  0  0  0  0  0  0  0  0  0
  -29.4160  -19.7440   18.3460 C   0  0  0  0  0  1  0  0  0  0  0  0
  -28.9980  -19.6480   19.8250 C   0  0  0  0  0  3  0  0  0  0  0  0
  -30.3820  -15.4210   20.2540 C   0  0  0  0  0  0  0  0  0  0  0  0
  -30.4000  -12.9510   19.3660 C   0  0  0  0  0  2  0  0  0  0  0  0
  -29.4810  -12.6570   18.1520 C   0  0  0  0  0  2  0  0  0  0  0  0
  -28.0470  -12.3510   18.6150 C   0  0  0  0  0  2  0  0  0  0  0  0
  -27.5730  -13.3370   19.7100 C   0  0  0  0  0  3  0  0  0  0  0  0
  -28.6220  -13.5560   20.8190 C   0  0  0  0  0  2  0  0  0  0  0  0
  -29.8170  -14.1050   20.1530 N   0  0  0  0  0  0  0  0  0  0  0  0
  -31.6190  -15.3750   20.1470 O   0  0  0  0  0  0  0  0  0  0  0  0
  -29.8730  -18.1930   20.4020 C   0  0  0  0  0  0  0  0  0  0  0  0
  -29.6180  -16.7210   20.2150 N   0  0  0  0  0  0  0  0  0  0  0  0
  -30.9010  -18.4830   21.0170 O   0  0  0  0  0  0  0  0  0  0  0  0
  -28.6600  -16.5610   19.9460 H   0  0  0  0  0  0  0  0  0  0  0  0
  -25.2050  -13.8740   20.4760 C   0  0  0  0  0  0  0  0  0  0  0  0
  -24.1500  -13.0900   20.8460 C   0  0  0  0  0  0  0  0  0  0  0  0
  -24.6280  -11.7440   20.8190 C   0  0  0  0  0  0  0  0  0  0  0  0
  -26.2540  -13.0070   20.2330 N   0  0  0  0  0  0  0  0  0  0  0  0
  -25.9210  -11.7200   20.5080 N   0  0  0  0  0  0  0  0  0  0  0  0
  -23.9110  -10.4770   21.0090 C   0  0  0  0  0  0  0  0  0  0  0  0
  -24.3400   -9.5170   21.9530 C   0  0  0  0  0  3  0  0  0  0  0  0
  -23.6180   -8.3160   22.1320 C   0  0  0  0  0  3  0  0  0  0  0  0
  -22.4530   -8.0680   21.3690 C   0  0  0  0  0  0  0  0  0  0  0  0
  -22.0430   -9.0160   20.4150 C   0  0  0  0  0  3  0  0  0  0  0  0
  -22.7650  -10.2080   20.2340 C   0  0  0  0  0  3  0  0  0  0  0  0
  -21.7030   -6.9200   21.4580 O   0  0  0  0  0  0  0  0  0  0  0  0
  -21.6420   -6.1880   22.6170 C   0  0  0  0  0  0  0  0  0  0  0  0
  -21.1840   -6.7490   23.8300 C   0  0  0  0  0  3  0  0  0  0  0  0
  -21.0730   -5.9430   24.9800 C   0  0  0  0  0  3  0  0  0  0  0  0
  -21.4090   -4.5770   24.9190 C   0  0  0  0  0  0  0  0  0  0  0  0
  -21.8610   -4.0170   23.7120 C   0  0  0  0  0  3  0  0  0  0  0  0
  -21.9740   -4.8190   22.5630 C   0  0  0  0  0  0  0  0  0  0  0  0
  -22.3890   -4.2690   21.3970 F   0  0  0  0  0  0  0  0  0  0  0  0
  -21.2950   -3.8000   26.0220 F   0  0  0  0  0  0  0  0  0  0  0  0
  -22.7490  -13.5570   21.1070 C   0  0  0  0  0  0  0  0  0  0  0  0
  -22.0200  -12.8570   21.9690 N   0  0  0  0  0  0  0  0  0  0  0  0
  -22.3090  -14.5800   20.5830 O   0  0  0  0  0  0  0  0  0  0  0  0
  -22.3900  -12.0300   22.4140 H   0  0  0  0  0  0  0  0  0  0  0  0
  -21.0800  -13.1540   22.1890 H   0  0  0  0  0  0  0  0  0  0  0  0
  -25.3540  -15.2470   20.2930 N   0  0  0  0  0  0  0  0  0  0  0  0
  -24.5780  -15.8900   20.4050 H   0  0  0  0  0  0  0  0  0  0  0  0
  -26.1900  -15.6940   19.9430 H   0  0  0  0  0  0  0  0  0  0  0  0
  -28.0970  -24.1720   20.6920 C   0  0  0  0  0  2  0  0  0  0  0  0
  -28.2250  -25.7840   20.2240 O   0  0  0  0  0  0  0  0  0  0  0  0
  -24.6160  -31.8430   23.1940 C   0  0  0  0  0  0  0  0  0  0  0  0
  -27.2040  -26.8960   20.2470 C   0  0  0  0  0  0  0  0  0  0  0  0
  -23.4430  -30.4330   21.5540 C   0  0  0  0  0  3  0  0  0  0  0  0
  -24.9060  -28.8080   20.1650 C   0  0  0  0  0  0  0  0  0  0  0  0
  -26.0130  -30.6340   21.4340 C   0  0  0  0  0  2  0  0  0  0  0  0
  -26.0930  -29.2110   20.7920 C   0  0  0  0  0  0  0  0  0  0  0  0
  -27.2380  -28.2810   20.7980 C   0  0  0  0  0  3  0  0  0  0  0  0
  -25.9830  -26.6570   19.5780 C   0  0  0  0  0  3  0  0  0  0  0  0
  -24.8800  -27.5520   19.5360 C   0  0  0  0  0  3  0  0  0  0  0  0
  -23.6900  -29.7370   20.1880 C   0  0  0  0  0  2  0  0  0  0  0  0
  -24.7120  -31.0000   22.1140 N   0  0  0  0  0  0  0  0  0  0  0  0
  -23.5200  -32.1350   23.7010 O   0  0  0  0  0  0  0  0  0  0  0  0
  -22.7370  -29.4450   22.5220 C   0  0  0  0  0  0  0  0  0  0  0  0
  -21.4060  -29.2870   22.3930 N   0  0  0  0  0  0  0  0  0  0  0  0
  -23.3960  -28.8210   23.3580 O   0  0  0  0  0  0  0  0  0  0  0  0
  -20.9260  -29.8410   21.6990 H   0  0  0  0  0  0  0  0  0  0  0  0
  -18.0170  -28.0890   22.9030 C   0  0  0  0  0  0  0  0  0  0  0  0
  -20.5790  -28.3520   23.1650 C   0  0  0  0  0  3  0  0  0  0  0  0
  -20.6760  -26.9190   22.5910 C   0  0  0  0  0  2  0  0  0  0  0  0
  -19.5730  -26.5990   21.5770 C   0  0  0  0  0  2  0  0  0  0  0  0
  -18.1920  -26.7420   22.2220 C   0  0  0  0  0  2  0  0  0  0  0  0
  -19.1370  -28.8520   23.3310 C   0  0  0  0  0  0  0  0  0  0  0  0
  -18.9160  -30.1110   23.9320 C   0  0  0  0  0  3  0  0  0  0  0  0
  -17.6100  -30.6070   24.1060 C   0  0  0  0  0  3  0  0  0  0  0  0
  -16.5060  -29.8430   23.6910 C   0  0  0  0  0  3  0  0  0  0  0  0
  -16.7110  -28.5850   23.0950 C   0  0  0  0  0  3  0  0  0  0  0  0
  -25.8770  -32.4960   23.8370 C   0  0  0  0  0  3  0  0  0  0  0  0
  -25.5520  -33.8990   24.1530 N   0  0  0  0  0  0  0  0  0  0  0  0
  -25.8990  -34.9560   23.4070 C   0  0  0  0  0  0  0  0  0  0  0  0
  -26.5870  -34.8530   22.3880 O   0  0  0  0  0  0  0  0  0  0  0  0
  -24.9430  -34.0530   24.9420 H   0  0  0  0  0  0  0  0  0  0  0  0
  -24.1880  -36.7650   23.0260 C   0  0  0  0  0  1  0  0  0  0  0  0
  -25.4110  -36.3490   23.8590 C   0  0  0  0  0  3  0  0  0  0  0  0
  -27.5300  -37.2280   24.7370 C   0  0  0  0  0  1  0  0  0  0  0  0
  -26.4520  -37.3970   23.7670 N   0  0  0  0  0  0  0  0  0  0  0  0
  -26.0470  -38.3200   23.9010 H   0  0  0  0  0  0  0  0  0  0  0  0
  -26.3650  -31.7480   25.1390 C   0  0  1  0  0  0  0  0  0  0  0  0
  -25.2500  -31.5320   26.1900 C   0  0  0  0  0  1  0  0  0  0  0  0
  -26.9530  -30.3610   24.7920 C   0  0  0  0  0  1  0  0  0  0  0  0
  -27.5040  -32.5520   25.8090 C   0  0  0  0  0  1  0  0  0  0  0  0
  1  3  2  0
  1 46  1  0
  2  1  1  0
  5  4  1  0
  5 14  1  0
  5  3  1  0
  7 12  1  0
  8  9  1  0
  8  7  1  0
 10  9  1  0
 10 21  1  0
 10 11  1  0
 12  6  1  0
 12 11  1  0
 13  6  2  0
 14 16  2  0
 15  6  1  0
 15 14  1  0
 17 15  1  0
 18 19  2  0
 19 38  1  0
 20 19  1  0
 20 23  1  0
 21 18  1  0
 21 22  1  0
 22 20  2  0
 23 24  1  0
 24 25  2  0
 26 29  1  0
 26 25  1  0
 27 26  2  0
 28 27  1  0
 28 23  2  0
 29 30  1  0
 30 31  1  0
 31 32  2  0
 33 32  1  0
 33 37  1  0
 34 33  2  0
 35 30  2  0
 35 34  1  0
 36 35  1  0
 38 39  1  0
 39 42  1  0
 39 41  1  0
 40 38  2  0
 43 44  1  0
 43 18  1  0
 45 43  1  0
 47 49  1  0
 47 46  1  0
 48 59  2  0
 49 54  1  0
 50 58  1  0
 50 60  1  0
 51 57  1  0
 51 53  1  0
 52 58  1  0
 53 54  2  0
 53 52  1  0
 55 49  2  0
 56 55  1  0
 56 51  2  0
 57 50  1  0
 58 48  1  0
 60 62  2  0
 61 60  1  0
 63 61  1  0
 64 73  2  0
 64 69  1  0
 65 61  1  0
 65 69  1  0
 66 65  1  0
 67 68  1  0
 67 66  1  0
 68 64  1  0
 69 70  2  0
 70 71  1  0
 72 71  2  0
 73 72  1  0
 74 48  1  0
 74 75  1  0
 74 84  1  0
 75 78  1  0
 76 80  1  0
 76 75  1  0
 77 76  2  0
 80 79  1  0
 82 80  1  0
 82 83  1  0
 82 81  1  0
 84 87  1  1
 84 85  1  0
 86 84  1  0
M  ISO  4   6 100  15 100  46 101  47 101
M  END
>  <TORSDO>  (1) 
F 18

>  <SCORE>  (1) 
-16.590

>  <name>  (1) 
0

>  <ligand_id>  (1) 
0

>  <original_smiles>  (1) 
[H]c1c([H])c([H])c2c(c1[H])C([H])([H])C([H])([H])C([H])([H])C2([H])N([H])C(=O)C1([H])N(C(=O)C([H])(N([H])C(=O)C([H])(N([H])C([H])([H])[H])C([H])([H])[H])C(C([H])([H])[H])(C([H])([H])[H])C([H])([H])[H])C([H])([H])c2c([H])c(OC([H])([H])C(=NC([H])(C(=O)N([H])C(=O)N3C([H])([H])C([H])([H])C([H])([H])C([H])(n4nc(-c5c([H])c([H])c(Oc6c([H])c([H])c(F)c([H])c6F)c([H])c5[H])c(C(=O)N([H])[H])c4N([H])[H])C3([H])[H])C([H])([H])[H])C([H])([H])[H])c([H])c([H])c2C1([H])[H]

>  <smiles>  (1) 
[H]c1c([H])c([H])c2c(c1[H])C([H])([H])C([H])([H])C([H])([H])C2([H])N([H])C(=O)C1([H])N(C(=O)C([H])(N([H])C(=O)C([H])(N([H])C([H])([H])[H])C([H])([H])[H])C(C([H])([H])[H])(C([H])([H])[H])C([H])([H])[H])C([H])([H])c2c([H])c(OC([H])([H])C(=NC([H])(C(=O)N([H])C(=O)N3C([H])([H])C([H])([H])C([H])([H])C([H])(n4nc(-c5c([H])c([H])c(Oc6c([H])c([H])c(F)c([H])c6F)c([H])c5[H])c(C(=O)N([H])[H])c4N([H])[H])C3([H])[H])C([H])([H])[H])C([H])([H])[H])c([H])c([H])c2C1([H])[H]

$$$$
1:0:0
     RDKit          3D

 91 99  0  0  1  0  0  0  0  0999 V2000
  -29.0520  -19.3420   19.9390 C   0  0  0  0  0  3  0  0  0  0  0  0
  -29.4380  -20.5610   20.6990 C   0  0  0  0  0  0  0  0  0  0  0  0
  -29.6910  -18.1250   20.3810 C   0  0  0  0  0  0  0  0  0  0  0  0
  -30.3110  -19.9380   21.5740 C   0  0  0  0  0  0  0  0  0  0  0  0
  -30.4800  -18.5560   21.4190 O   0  0  0  0  0  0  0  0  0  0  0  0
  -28.7450  -23.1420   20.1170 C   0  0  0  0  0  0  0  0  0  0  0  0
  -29.0250  -23.1560   18.6150 C   0  0  0  0  0  1  0  0  0  0  0  0
  -28.9400  -22.0030   20.8560 N   0  0  0  0  0  0  0  0  0  0  0  0
  -28.0240  -24.6090   20.6590 C   0  0  0  0  0  2  0  0  0  0  0  0
  -28.3450  -26.1390   20.3230 O   0  0  0  0  0  0  0  0  0  0  0  0
  -24.6430  -31.9440   23.2370 C   0  0  0  0  0  0  0  0  0  0  0  0
  -27.3100  -27.1720   20.2810 C   0  0  0  0  0  0  0  0  0  0  0  0
  -23.4790  -30.5050   21.6020 C   0  0  0  0  0  3  0  0  0  0  0  0
  -24.9660  -28.9320   20.2040 C   0  0  0  0  0  0  0  0  0  0  0  0
  -26.0360  -30.7880   21.4730 C   0  0  0  0  0  2  0  0  0  0  0  0
  -26.1340  -29.3850   20.8320 C   0  0  0  0  0  0  0  0  0  0  0  0
  -27.3060  -28.5220   20.8550 C   0  0  0  0  0  3  0  0  0  0  0  0
  -26.1260  -26.8570   19.5830 C   0  0  0  0  0  3  0  0  0  0  0  0
  -24.9820  -27.6850   19.5570 C   0  0  0  0  0  3  0  0  0  0  0  0
  -23.7260  -29.8130   20.2350 C   0  0  0  0  0  2  0  0  0  0  0  0
  -24.7380  -31.1050   22.1570 N   0  0  0  0  0  0  0  0  0  0  0  0
  -23.5450  -32.2250   23.7450 O   0  0  0  0  0  0  0  0  0  0  0  0
  -22.8030  -29.5020   22.5730 C   0  0  0  0  0  0  0  0  0  0  0  0
  -21.4780  -29.3130   22.4480 N   0  0  0  0  0  0  0  0  0  0  0  0
  -23.4800  -28.8960   23.4100 O   0  0  0  0  0  0  0  0  0  0  0  0
  -20.9800  -29.8830   21.7790 H   0  0  0  0  0  0  0  0  0  0  0  0
  -18.1080  -28.0450   22.9320 C   0  0  0  0  0  0  0  0  0  0  0  0
  -20.6630  -28.3640   23.2130 C   0  0  0  0  0  3  0  0  0  0  0  0
  -20.7930  -26.9280   22.6540 C   0  0  0  0  0  2  0  0  0  0  0  0
  -19.7060  -26.5770   21.6350 C   0  0  0  0  0  2  0  0  0  0  0  0
  -18.3150  -26.6960   22.2650 C   0  0  0  0  0  2  0  0  0  0  0  0
  -19.2110  -28.8380   23.3540 C   0  0  0  0  0  0  0  0  0  0  0  0
  -18.9600  -30.1000   23.9350 C   0  0  0  0  0  3  0  0  0  0  0  0
  -17.6450  -30.5750   24.0860 C   0  0  0  0  0  3  0  0  0  0  0  0
  -16.5600  -29.7840   23.6730 C   0  0  0  0  0  3  0  0  0  0  0  0
  -16.7920  -28.5200   23.1070 C   0  0  0  0  0  3  0  0  0  0  0  0
  -25.9040  -32.6090   23.8680 C   0  0  0  0  0  3  0  0  0  0  0  0
  -26.4150  -31.8700   25.1650 C   0  0  1  0  0  0  0  0  0  0  0  0
  -25.3120  -31.6310   26.2240 C   0  0  0  0  0  1  0  0  0  0  0  0
  -27.0320  -30.4950   24.8170 C   0  0  0  0  0  1  0  0  0  0  0  0
  -27.5440  -32.6970   25.8320 C   0  0  0  0  0  1  0  0  0  0  0  0
  -25.5690  -34.0080   24.1810 N   0  0  0  0  0  0  0  0  0  0  0  0
  -25.8790  -35.0620   23.4110 C   0  0  0  0  0  0  0  0  0  0  0  0
  -26.5450  -34.9580   22.3760 O   0  0  0  0  0  0  0  0  0  0  0  0
  -24.9820  -34.1640   24.9880 H   0  0  0  0  0  0  0  0  0  0  0  0
  -24.1310  -36.8380   23.0420 C   0  0  0  0  0  1  0  0  0  0  0  0
  -25.3720  -36.4480   23.8600 C   0  0  0  0  0  3  0  0  0  0  0  0
  -27.4860  -37.3710   24.7050 C   0  0  0  0  0  1  0  0  0  0  0  0
  -26.3920  -37.5120   23.7460 N   0  0  0  0  0  0  0  0  0  0  0  0
  -25.9730  -38.4280   23.8770 H   0  0  0  0  0  0  0  0  0  0  0  0
  -30.9410  -20.5610   22.6360 N   0  0  0  0  0  0  0  0  0  0  0  0
  -30.6720  -21.5030   22.8980 H   0  0  0  0  0  0  0  0  0  0  0  0
  -31.3950  -20.0450   23.3850 H   0  0  0  0  0  0  0  0  0  0  0  0
  -28.9460  -16.4390   18.6340 C   0  0  0  0  0  1  0  0  0  0  0  0
  -29.4910  -16.4890   20.0820 C   0  0  0  0  0  3  0  0  0  0  0  0
  -30.4740  -15.1130   20.2290 C   0  0  0  0  0  0  0  0  0  0  0  0
  -30.4510  -12.7440   19.2830 C   0  0  0  0  0  2  0  0  0  0  0  0
  -29.4850  -12.7070   18.0710 C   0  0  0  0  0  2  0  0  0  0  0  0
  -28.0120  -12.5280   18.5090 C   0  0  0  0  0  2  0  0  0  0  0  0
  -27.6360  -13.3800   19.7520 C   0  0  0  0  0  3  0  0  0  0  0  0
  -28.7240  -13.3080   20.8360 C   0  0  0  0  0  2  0  0  0  0  0  0
  -29.9740  -13.7980   20.2300 N   0  0  0  0  0  0  0  0  0  0  0  0
  -31.6940  -15.2140   20.0390 O   0  0  0  0  0  0  0  0  0  0  0  0
  -25.2670  -13.9570   20.5290 C   0  0  0  0  0  0  0  0  0  0  0  0
  -24.2070  -13.1820   20.8930 C   0  0  0  0  0  0  0  0  0  0  0  0
  -24.6650  -11.8280   20.8350 C   0  0  0  0  0  0  0  0  0  0  0  0
  -26.3060  -13.0790   20.2610 N   0  0  0  0  0  0  0  0  0  0  0  0
  -25.9520  -11.7940   20.5080 N   0  0  0  0  0  0  0  0  0  0  0  0
  -23.9370  -10.5680   21.0110 C   0  0  0  0  0  0  0  0  0  0  0  0
  -24.3730   -9.5920   21.9360 C   0  0  0  0  0  3  0  0  0  0  0  0
  -23.6500   -8.3910   22.1020 C   0  0  0  0  0  3  0  0  0  0  0  0
  -22.4780   -8.1600   21.3430 C   0  0  0  0  0  0  0  0  0  0  0  0
  -22.0600   -9.1250   20.4120 C   0  0  0  0  0  3  0  0  0  0  0  0
  -22.7810  -10.3180   20.2430 C   0  0  0  0  0  3  0  0  0  0  0  0
  -21.7190   -7.0160   21.4200 O   0  0  0  0  0  0  0  0  0  0  0  0
  -21.6570   -6.2770   22.5730 C   0  0  0  0  0  0  0  0  0  0  0  0
  -21.1610   -6.8150   23.7810 C   0  0  0  0  0  3  0  0  0  0  0  0
  -21.0490   -5.9950   24.9220 C   0  0  0  0  0  3  0  0  0  0  0  0
  -21.4190   -4.6390   24.8570 C   0  0  0  0  0  0  0  0  0  0  0  0
  -21.9070   -4.1020   23.6530 C   0  0  0  0  0  3  0  0  0  0  0  0
  -22.0230   -4.9170   22.5150 C   0  0  0  0  0  0  0  0  0  0  0  0
  -22.4720   -4.3880   21.3530 F   0  0  0  0  0  0  0  0  0  0  0  0
  -21.3050   -3.8510   25.9510 F   0  0  0  0  0  0  0  0  0  0  0  0
  -22.8110  -13.6560   21.1850 C   0  0  0  0  0  0  0  0  0  0  0  0
  -22.0890  -12.9560   22.0480 N   0  0  0  0  0  0  0  0  0  0  0  0
  -22.3710  -14.6890   20.6800 O   0  0  0  0  0  0  0  0  0  0  0  0
  -22.4570  -12.1240   22.4860 H   0  0  0  0  0  0  0  0  0  0  0  0
  -21.1480  -13.2550   22.2610 H   0  0  0  0  0  0  0  0  0  0  0  0
  -25.4350  -15.3320   20.3700 N   0  0  0  0  0  0  0  0  0  0  0  0
  -24.6830  -15.9930   20.5250 H   0  0  0  0  0  0  0  0  0  0  0  0
  -26.2710  -15.7680   20.0060 H   0  0  0  0  0  0  0  0  0  0  0  0
  1  3  2  0
  1  2  1  0
  2  8  1  0
  2  4  2  0
  3  5  1  0
  4 51  1  0
  5  4  1  0
  6  9  1  0
  6  8  2  0
  7  6  1  0
 10  9  1  0
 11 22  2  0
 12 10  1  0
 12 17  1  0
 13 21  1  0
 13 23  1  0
 14 20  1  0
 14 16  1  0
 15 21  1  0
 16 17  2  0
 16 15  1  0
 18 12  2  0
 19 18  1  0
 19 14  2  0
 20 13  1  0
 21 11  1  0
 23 25  2  0
 24 23  1  0
 26 24  1  0
 27 36  2  0
 27 32  1  0
 28 24  1  0
 28 32  1  0
 29 28  1  0
 30 31  1  0
 30 29  1  0
 31 27  1  0
 32 33  2  0
 33 34  1  0
 35 34  2  0
 36 35  1  0
 37 11  1  0
 37 42  1  0
 37 38  1  0
 38 41  1  1
 38 39  1  0
 40 38  1  0
 42 45  1  0
 43 47  1  0
 43 42  1  0
 44 43  2  0
 47 46  1  0
 49 47  1  0
 49 50  1  0
 49 48  1  0
 51 52  1  0
 51 53  1  0
 55 54  1  0
 55 56  1  0
 55  3  1  0
 56 62  1  0
 57 62  1  0
 58 59  1  0
 58 57  1  0
 60 59  1  0
 60 67  1  0
 60 61  1  0
 62 61  1  0
 63 56  2  0
 64 65  2  0
 65 84  1  0
 66 65  1  0
 66 69  1  0
 67 68  1  0
 67 64  1  0
 68 66  2  0
 69 70  1  0
 70 71  2  0
 72 75  1  0
 72 71  1  0
 73 72  2  0
 74 73  1  0
 74 69  2  0
 75 76  1  0
 76 77  1  0
 77 78  2  0
 79 78  1  0
 79 83  1  0
 80 79  2  0
 81 76  2  0
 81 80  1  0
 82 81  1  0
 84 85  1  0
 85 88  1  0
 85 87  1  0
 86 84  2  0
 89 90  1  0
 89 64  1  0
 91 89  1  0
M  ISO  4   9 101  10 101  55 100  56 100
M  END
>  <TORSDO>  (2) 
F 20

>  <SCORE>  (2) 
-15.054

>  <name>  (2) 
1

>  <ligand_id>  (2) 
1

>  <original_smiles>  (2) 
[H]c1c([H])c([H])c2c(c1[H])C([H])([H])C([H])([H])C([H])([H])C2([H])N([H])C(=O)C1([H])N(C(=O)C([H])(N([H])C(=O)C([H])(N([H])C([H])([H])[H])C([H])([H])[H])C(C([H])([H])[H])(C([H])([H])[H])C([H])([H])[H])C([H])([H])c2c([H])c(OC([H])([H])C(=Nc3c(N([H])[H])oc(C([H])(C(=O)N4C([H])([H])C([H])([H])C([H])([H])C([H])(n5nc(-c6c([H])c([H])c(Oc7c([H])c([H])c(F)c([H])c7F)c([H])c6[H])c(C(=O)N([H])[H])c5N([H])[H])C4([H])[H])C([H])([H])[H])c3[H])C([H])([H])[H])c([H])c([H])c2C1([H])[H]

>  <smiles>  (2) 
[H]c1c([H])c([H])c2c(c1[H])C([H])([H])C([H])([H])C([H])([H])C2([H])N([H])C(=O)C1([H])N(C(=O)C([H])(N([H])C(=O)C([H])(N([H])C([H])([H])[H])C([H])([H])[H])C(C([H])([H])[H])(C([H])([H])[H])C([H])([H])[H])C([H])([H])c2c([H])c(OC([H])([H])C(=Nc3c(N([H])[H])oc(C([H])(C(=O)N4C([H])([H])C([H])([H])C([H])([H])C([H])(n5nc(-c6c([H])c([H])c(Oc7c([H])c([H])c(F)c([H])c7F)c([H])c6[H])c(C(=O)N([H])[H])c5N([H])[H])C4([H])[H])C([H])([H])[H])c3[H])C([H])([H])[H])c([H])c([H])c2C1([H])[H]

$$$$
2:0:0
     RDKit          3D

 98106  0  0  1  0  0  0  0  0999 V2000
  -30.5480  -20.6300   19.9670 C   0  0  0  0  0  3  0  0  0  0  0  0
  -29.9640  -21.9050   19.8010 C   0  0  0  0  0  3  0  0  0  0  0  0
  -30.7120  -21.0140   22.3660 C   0  0  0  0  0  3  0  0  0  0  0  0
  -30.9360  -20.1840   21.2490 C   0  0  0  0  0  0  0  0  0  0  0  0
  -29.7540  -22.7480   20.9170 C   0  0  0  0  0  0  0  0  0  0  0  0
  -30.1200  -22.2820   22.2040 C   0  0  0  0  0  0  0  0  0  0  0  0
  -29.8800  -23.0840   23.3200 N   0  0  0  0  0  0  0  0  0  0  0  0
  -29.9120  -22.6210   24.2210 H   0  0  0  0  0  0  0  0  0  0  0  0
  -29.0500  -23.6610   23.2390 H   0  0  0  0  0  0  0  0  0  0  0  0
  -29.2380  -24.0520   20.8280 N   0  0  0  0  0  0  0  0  0  0  0  0
  -29.3470  -24.6400   21.6500 H   0  0  0  0  0  0  0  0  0  0  0  0
  -28.3970  -24.5400   19.7360 C   0  0  0  0  0  2  0  0  0  0  0  0
  -28.8610  -25.9180   19.2180 C   0  0  0  0  0  2  0  0  0  0  0  0
  -28.6110  -26.9720   20.1560 O   0  0  0  0  0  0  0  0  0  0  0  0
  -24.5900  -31.9720   23.2360 C   0  0  0  0  0  0  0  0  0  0  0  0
  -27.3890  -27.6190   20.1480 C   0  0  0  0  0  0  0  0  0  0  0  0
  -23.4400  -30.5520   21.5700 C   0  0  0  0  0  3  0  0  0  0  0  0
  -24.9490  -29.0590   20.1550 C   0  0  0  0  0  0  0  0  0  0  0  0
  -25.9580  -30.9690   21.4110 C   0  0  0  0  0  2  0  0  0  0  0  0
  -26.0830  -29.6030   20.7680 C   0  0  0  0  0  0  0  0  0  0  0  0
  -27.2980  -28.8850   20.7720 C   0  0  0  0  0  3  0  0  0  0  0  0
  -26.2290  -27.0790   19.5460 C   0  0  0  0  0  3  0  0  0  0  0  0
  -25.0150  -27.7940   19.5460 C   0  0  0  0  0  3  0  0  0  0  0  0
  -23.6840  -29.8870   20.1880 C   0  0  0  0  0  2  0  0  0  0  0  0
  -24.6800  -31.1790   22.1310 N   0  0  0  0  0  0  0  0  0  0  0  0
  -23.4950  -32.2160   23.7610 O   0  0  0  0  0  0  0  0  0  0  0  0
  -22.8020  -29.5080   22.5130 C   0  0  0  0  0  0  0  0  0  0  0  0
  -21.4800  -29.3120   22.3790 N   0  0  0  0  0  0  0  0  0  0  0  0
  -23.4910  -28.8770   23.3170 O   0  0  0  0  0  0  0  0  0  0  0  0
  -20.9870  -29.8720   21.6980 H   0  0  0  0  0  0  0  0  0  0  0  0
  -18.1120  -28.1040   22.8790 C   0  0  0  0  0  0  0  0  0  0  0  0
  -20.6720  -28.3540   23.1330 C   0  0  0  0  0  3  0  0  0  0  0  0
  -20.7700  -26.9400   22.5150 C   0  0  0  0  0  2  0  0  0  0  0  0
  -19.6560  -26.6440   21.5060 C   0  0  0  0  0  2  0  0  0  0  0  0
  -18.2820  -26.7720   22.1690 C   0  0  0  0  0  2  0  0  0  0  0  0
  -19.2350  -28.8540   23.3180 C   0  0  0  0  0  0  0  0  0  0  0  0
  -19.0240  -30.1040   23.9410 C   0  0  0  0  0  3  0  0  0  0  0  0
  -17.7230  -30.6010   24.1330 C   0  0  0  0  0  3  0  0  0  0  0  0
  -16.6140  -29.8470   23.7130 C   0  0  0  0  0  3  0  0  0  0  0  0
  -16.8090  -28.6020   23.0900 C   0  0  0  0  0  3  0  0  0  0  0  0
  -25.8530  -32.6280   23.8780 C   0  0  0  0  0  3  0  0  0  0  0  0
  -25.5150  -34.0210   24.1940 N   0  0  0  0  0  0  0  0  0  0  0  0
  -25.8430  -35.0740   23.4340 C   0  0  0  0  0  0  0  0  0  0  0  0
  -26.5350  -34.9780   22.4160 O   0  0  0  0  0  0  0  0  0  0  0  0
  -24.9050  -34.1720   24.9840 H   0  0  0  0  0  0  0  0  0  0  0  0
  -24.0860  -36.8280   23.0400 C   0  0  0  0  0  1  0  0  0  0  0  0
  -25.3210  -36.4540   23.8740 C   0  0  0  0  0  3  0  0  0  0  0  0
  -27.4230  -37.3850   24.7370 C   0  0  0  0  0  1  0  0  0  0  0  0
  -26.3340  -37.5270   23.7730 N   0  0  0  0  0  0  0  0  0  0  0  0
  -25.9070  -38.4390   23.9110 H   0  0  0  0  0  0  0  0  0  0  0  0
  -26.3600  -31.8700   25.1660 C   0  0  1  0  0  0  0  0  0  0  0  0
  -25.2480  -31.6060   26.2080 C   0  0  0  0  0  1  0  0  0  0  0  0
  -26.9850  -30.5080   24.7830 C   0  0  0  0  0  1  0  0  0  0  0  0
  -27.4790  -32.6910   25.8500 C   0  0  0  0  0  1  0  0  0  0  0  0
  -31.6070  -18.8310   21.4320 C   0  0  0  0  0  2  0  0  0  0  0  0
  -30.7400  -16.4850   21.8420 C   0  0  0  0  0  0  0  0  0  0  0  0
  -31.6820  -16.2000   22.7690 N   0  0  0  0  0  4  0  0  0  0  0  0
  -30.6810  -17.7010   21.2510 N   0  0  0  0  0  0  0  0  0  0  0  0
  -31.7150  -15.2940   23.2190 H   0  0  0  0  0  0  0  0  0  0  0  0
  -32.4020  -16.8490   23.0520 H   0  0  0  0  0  0  0  0  0  0  0  0
  -29.9300  -17.8830   20.5990 H   0  0  0  0  0  0  0  0  0  0  0  0
  -29.6930  -15.4460   21.5010 C   0  0  0  0  0  2  0  0  0  0  0  0
  -30.1640  -14.5010   20.3780 C   0  0  0  0  0  0  0  0  0  0  0  0
  -29.8660  -12.4230   19.0630 C   0  0  0  0  0  2  0  0  0  0  0  0
  -28.8390  -12.6020   17.9280 C   0  0  0  0  0  2  0  0  0  0  0  0
  -27.4060  -12.3630   18.4400 C   0  0  0  0  0  2  0  0  0  0  0  0
  -27.1000  -13.1490   19.7410 C   0  0  0  0  0  3  0  0  0  0  0  0
  -28.2250  -12.9480   20.7830 C   0  0  0  0  0  2  0  0  0  0  0  0
  -29.5040  -13.3310   20.1620 N   0  0  0  0  0  0  0  0  0  0  0  0
  -31.1370  -14.8400   19.6980 O   0  0  0  0  0  0  0  0  0  0  0  0
  -24.7120  -13.6090   20.5930 C   0  0  0  0  0  0  0  0  0  0  0  0
  -23.7070  -12.7700   20.9940 C   0  0  0  0  0  0  0  0  0  0  0  0
  -24.2360  -11.4470   20.8980 C   0  0  0  0  0  0  0  0  0  0  0  0
  -25.7890  -12.7930   20.2830 N   0  0  0  0  0  0  0  0  0  0  0  0
  -25.5090  -11.4860   20.5210 N   0  0  0  0  0  0  0  0  0  0  0  0
  -23.5900  -10.1420   21.0870 C   0  0  0  0  0  0  0  0  0  0  0  0
  -24.1090   -9.1840   21.9870 C   0  0  0  0  0  3  0  0  0  0  0  0
  -23.4600   -7.9430   22.1640 C   0  0  0  0  0  3  0  0  0  0  0  0
  -22.2780   -7.6520   21.4430 C   0  0  0  0  0  0  0  0  0  0  0  0
  -21.7770   -8.5990   20.5330 C   0  0  0  0  0  3  0  0  0  0  0  0
  -22.4280   -9.8310   20.3530 C   0  0  0  0  0  3  0  0  0  0  0  0
  -21.5930   -6.4640   21.5330 O   0  0  0  0  0  0  0  0  0  0  0  0
  -21.6200   -5.7020   22.6730 C   0  0  0  0  0  0  0  0  0  0  0  0
  -21.1900   -6.2100   23.9190 C   0  0  0  0  0  3  0  0  0  0  0  0
  -21.1680   -5.3730   25.0510 C   0  0  0  0  0  3  0  0  0  0  0  0
  -21.5640   -4.0270   24.9400 C   0  0  0  0  0  0  0  0  0  0  0  0
  -21.9870   -3.5170   23.7010 C   0  0  0  0  0  3  0  0  0  0  0  0
  -22.0110   -4.3520   22.5690 C   0  0  0  0  0  0  0  0  0  0  0  0
  -22.3990   -3.8500   21.3720 F   0  0  0  0  0  0  0  0  0  0  0  0
  -21.5360   -3.2200   26.0270 F   0  0  0  0  0  0  0  0  0  0  0  0
  -22.3030  -13.1620   21.3560 C   0  0  0  0  0  0  0  0  0  0  0  0
  -21.6610  -12.4000   22.2350 N   0  0  0  0  0  0  0  0  0  0  0  0
  -21.7840  -14.1790   20.8960 O   0  0  0  0  0  0  0  0  0  0  0  0
  -22.0940  -11.5770   22.6280 H   0  0  0  0  0  0  0  0  0  0  0  0
  -20.7220  -12.6420   22.5170 H   0  0  0  0  0  0  0  0  0  0  0  0
  -24.7950  -14.9910   20.4480 N   0  0  0  0  0  0  0  0  0  0  0  0
  -24.0010  -15.6000   20.6110 H   0  0  0  0  0  0  0  0  0  0  0  0
  -25.5990  -15.4830   20.0800 H   0  0  0  0  0  0  0  0  0  0  0  0
  1  4  1  0
  2  1  2  0
  2  5  1  0
  4 55  1  0
  4  3  2  0
  5  6  2  0
  6  3  1  0
  6  7  1  0
  7  8  1  0
  9  7  1  0
 10  5  1  0
 10 11  1  0
 12 10  1  0
 13 12  1  0
 13 14  1  0
 15 26  2  0
 16 14  1  0
 16 21  1  0
 17 25  1  0
 17 27  1  0
 18 24  1  0
 18 20  1  0
 19 25  1  0
 20 21  2  0
 20 19  1  0
 22 16  2  0
 23 22  1  0
 23 18  2  0
 24 17  1  0
 25 15  1  0
 27 29  2  0
 28 27  1  0
 30 28  1  0
 31 40  2  0
 31 36  1  0
 32 28  1  0
 32 36  1  0
 33 32  1  0
 34 35  1  0
 34 33  1  0
 35 31  1  0
 36 37  2  0
 37 38  1  0
 39 38  2  0
 40 39  1  0
 41 15  1  0
 41 42  1  0
 41 51  1  0
 42 45  1  0
 43 47  1  0
 43 42  1  0
 44 43  2  0
 47 46  1  0
 49 47  1  0
 49 50  1  0
 49 48  1  0
 51 54  1  1
 51 52  1  0
 53 51  1  0
 56 57  2  0
 57 60  1  0
 57 59  1  0
 58 55  1  0
 58 56  1  0
 61 58  1  0
 62 56  1  0
 63 62  1  0
 64 69  1  0
 65 66  1  0
 65 64  1  0
 67 66  1  0
 67 74  1  0
 67 68  1  0
 69 63  1  0
 69 68  1  0
 70 63  2  0
 71 72  2  0
 72 91  1  0
 73 72  1  0
 73 76  1  0
 74 75  1  0
 74 71  1  0
 75 73  2  0
 76 77  1  0
 77 78  2  0
 79 82  1  0
 79 78  1  0
 80 79  2  0
 81 80  1  0
 81 76  2  0
 82 83  1  0
 83 84  1  0
 84 85  2  0
 86 85  1  0
 86 90  1  0
 87 86  2  0
 88 83  2  0
 88 87  1  0
 89 88  1  0
 91 92  1  0
 92 95  1  0
 92 94  1  0
 93 91  2  0
 96 71  1  0
 96 97  1  0
 98 96  1  0
M  ISO  4  13 101  14 101  62 100  63 100
M  END
>  <TORSDO>  (3) 
F 23

>  <SCORE>  (3) 
-11.958

>  <name>  (3) 
2

>  <ligand_id>  (3) 
2

>  <original_smiles>  (3) 
[H]c1c([H])c([H])c2c(c1[H])C([H])([H])C([H])([H])C([H])([H])C2([H])N([H])C(=O)C1([H])N(C(=O)C([H])(N([H])C(=O)C([H])(N([H])C([H])([H])[H])C([H])([H])[H])C(C([H])([H])[H])(C([H])([H])[H])C([H])([H])[H])C([H])([H])c2c([H])c(OC([H])([H])C([H])([H])N([H])c3c([H])c([H])c(C([H])([H])[N+]([H])=C(N([H])[H])C([H])([H])C(=O)N4C([H])([H])C([H])([H])C([H])([H])C([H])(n5nc(-c6c([H])c([H])c(Oc7c([H])c([H])c(F)c([H])c7F)c([H])c6[H])c(C(=O)N([H])[H])c5N([H])[H])C4([H])[H])c([H])c3N([H])[H])c([H])c([H])c2C1([H])[H]

>  <smiles>  (3) 
[H]c1c([H])c([H])c2c(c1[H])C([H])([H])C([H])([H])C([H])([H])C2([H])N([H])C(=O)C1([H])N(C(=O)C([H])(N([H])C(=O)C([H])(N([H])C([H])([H])[H])C([H])([H])[H])C(C([H])([H])[H])(C([H])([H])[H])C([H])([H])[H])C([H])([H])c2c([H])c(OC([H])([H])C([H])([H])N([H])c3c([H])c([H])c(C([H])([H])[N+]([H])=C(N([H])[H])C([H])([H])C(=O)N4C([H])([H])C([H])([H])C([H])([H])C([H])(n5nc(-c6c([H])c([H])c(Oc7c([H])c([H])c(F)c([H])c7F)c([H])c6[H])c(C(=O)N([H])[H])c5N([H])[H])C4([H])[H])c([H])c3N([H])[H])c([H])c([H])c2C1([H])[H]

$$$$
3:0:0
     RDKit          3D

 97106  0  0  1  0  0  0  0  0999 V2000
  -28.4370  -22.6360   17.7120 C   0  0  0  0  0  0  0  0  0  0  0  0
  -27.4910  -23.2760   18.7420 C   0  0  0  0  0  2  0  0  0  0  0  0
  -29.7470  -22.0620   18.2790 C   0  0  0  0  0  2  0  0  0  0  0  0
  -29.2090  -22.6970   20.5560 C   0  0  0  0  0  2  0  0  0  0  0  0
  -28.2790  -23.8720   19.9400 C   0  0  0  0  0  3  0  0  0  0  0  0
  -29.5400  -21.5390   19.6380 N   0  0  0  0  0  0  0  0  0  0  0  0
  -28.1660  -22.5970   16.5100 O   0  0  0  0  0  0  0  0  0  0  0  0
  -30.2700  -18.1350   21.3990 C   0  0  0  0  0  3  0  0  0  0  0  0
  -29.7210  -17.6850   19.1300 C   0  0  0  0  0  3  0  0  0  0  0  0
  -29.7180  -20.1010   19.9130 C   0  0  0  0  0  0  0  0  0  0  0  0
  -30.1020  -17.1510   20.3820 C   0  0  0  0  0  0  0  0  0  0  0  0
  -30.1090  -19.5500   21.1810 C   0  0  0  0  0  0  0  0  0  0  0  0
  -29.5130  -19.0830   18.9090 C   0  0  0  0  0  0  0  0  0  0  0  0
  -29.0640  -19.4070   17.6720 F   0  0  0  0  0  0  0  0  0  0  0  0
  -30.8290  -14.6650   20.0300 C   0  0  0  0  0  0  0  0  0  0  0  0
  -30.5590  -12.4390   18.9400 C   0  0  0  0  0  2  0  0  0  0  0  0
  -29.5540  -12.5860   17.7760 C   0  0  0  0  0  2  0  0  0  0  0  0
  -28.1070  -12.4110   18.2780 C   0  0  0  0  0  2  0  0  0  0  0  0
  -27.8200  -13.2520   19.5510 C   0  0  0  0  0  3  0  0  0  0  0  0
  -28.9340  -13.0710   20.6040 C   0  0  0  0  0  2  0  0  0  0  0  0
  -30.2130  -13.4380   19.9770 N   0  0  0  0  0  0  0  0  0  0  0  0
  -31.9200  -14.8420   19.4780 O   0  0  0  0  0  0  0  0  0  0  0  0
  -30.1630  -15.6970   20.6580 N   0  0  0  0  0  0  0  0  0  0  0  0
  -29.4850  -15.3730   21.3350 H   0  0  0  0  0  0  0  0  0  0  0  0
  -25.4900  -13.8620   20.4420 C   0  0  0  0  0  0  0  0  0  0  0  0
  -24.4370  -13.0940   20.8580 C   0  0  0  0  0  0  0  0  0  0  0  0
  -24.8690  -11.7380   20.7440 C   0  0  0  0  0  0  0  0  0  0  0  0
  -26.4980  -12.9720   20.1050 N   0  0  0  0  0  0  0  0  0  0  0  0
  -26.1340  -11.6860   20.3460 N   0  0  0  0  0  0  0  0  0  0  0  0
  -24.1290  -10.4830   20.9350 C   0  0  0  0  0  0  0  0  0  0  0  0
  -24.5530   -9.5150   21.8720 C   0  0  0  0  0  3  0  0  0  0  0  0
  -23.8190   -8.3230   22.0510 C   0  0  0  0  0  3  0  0  0  0  0  0
  -22.6440   -8.0930   21.2960 C   0  0  0  0  0  0  0  0  0  0  0  0
  -22.2400   -9.0490   20.3470 C   0  0  0  0  0  3  0  0  0  0  0  0
  -22.9740  -10.2320   20.1660 C   0  0  0  0  0  3  0  0  0  0  0  0
  -21.8820   -6.9540   21.3830 O   0  0  0  0  0  0  0  0  0  0  0  0
  -21.7460   -6.2660   22.5620 C   0  0  0  0  0  0  0  0  0  0  0  0
  -21.2060   -6.8690   23.7200 C   0  0  0  0  0  3  0  0  0  0  0  0
  -21.0210   -6.1060   24.8900 C   0  0  0  0  0  3  0  0  0  0  0  0
  -21.3640   -4.7410   24.9030 C   0  0  0  0  0  0  0  0  0  0  0  0
  -21.8970   -4.1370   23.7500 C   0  0  0  0  0  3  0  0  0  0  0  0
  -22.0840   -4.8980   22.5830 C   0  0  0  0  0  0  0  0  0  0  0  0
  -22.5760   -4.3050   21.4680 F   0  0  0  0  0  0  0  0  0  0  0  0
  -21.1790   -4.0070   26.0250 F   0  0  0  0  0  0  0  0  0  0  0  0
  -23.0720  -13.5850   21.2430 C   0  0  0  0  0  0  0  0  0  0  0  0
  -22.3960  -12.8810   22.1430 N   0  0  0  0  0  0  0  0  0  0  0  0
  -22.6170  -14.6320   20.7830 O   0  0  0  0  0  0  0  0  0  0  0  0
  -22.7760  -12.0370   22.5460 H   0  0  0  0  0  0  0  0  0  0  0  0
  -21.4810  -13.1910   22.4350 H   0  0  0  0  0  0  0  0  0  0  0  0
  -25.6700  -15.2360   20.2980 N   0  0  0  0  0  0  0  0  0  0  0  0
  -24.9150  -15.8950   20.4460 H   0  0  0  0  0  0  0  0  0  0  0  0
  -26.4910  -15.6620   19.8870 H   0  0  0  0  0  0  0  0  0  0  0  0
  -30.3500  -20.3960   22.2690 N   0  0  0  0  0  0  0  0  0  0  0  0
  -30.6980  -20.0400   23.1530 H   0  0  0  0  0  0  0  0  0  0  0  0
  -30.5820  -21.3640   22.0770 H   0  0  0  0  0  0  0  0  0  0  0  0
  -28.8950  -25.2980   19.5170 C   0  0  0  0  0  2  0  0  0  0  0  0
  -28.6520  -26.5630   20.2400 O   0  0  0  0  0  0  0  0  0  0  0  0
  -24.6210  -31.7640   23.1420 C   0  0  0  0  0  0  0  0  0  0  0  0
  -27.4810  -27.3240   20.1230 C   0  0  0  0  0  0  0  0  0  0  0  0
  -23.5110  -30.3330   21.4600 C   0  0  0  0  0  3  0  0  0  0  0  0
  -25.0510  -28.8360   20.0660 C   0  0  0  0  0  0  0  0  0  0  0  0
  -26.0380  -30.7400   21.3500 C   0  0  0  0  0  2  0  0  0  0  0  0
  -26.1800  -29.3680   20.7000 C   0  0  0  0  0  0  0  0  0  0  0  0
  -27.3910  -28.6150   20.7280 C   0  0  0  0  0  3  0  0  0  0  0  0
  -26.3270  -26.8370   19.4710 C   0  0  0  0  0  3  0  0  0  0  0  0
  -25.1240  -27.5730   19.4500 C   0  0  0  0  0  3  0  0  0  0  0  0
  -23.7850  -29.6720   20.0800 C   0  0  0  0  0  2  0  0  0  0  0  0
  -24.7410  -30.9640   22.0430 N   0  0  0  0  0  0  0  0  0  0  0  0
  -23.5150  -32.0010   23.6470 O   0  0  0  0  0  0  0  0  0  0  0  0
  -22.8570  -29.2910   22.3970 C   0  0  0  0  0  0  0  0  0  0  0  0
  -21.5370  -29.0860   22.2470 N   0  0  0  0  0  0  0  0  0  0  0  0
  -23.5380  -28.6690   23.2170 O   0  0  0  0  0  0  0  0  0  0  0  0
  -21.0470  -29.6460   21.5640 H   0  0  0  0  0  0  0  0  0  0  0  0
  -18.1780  -27.8320   22.7030 C   0  0  0  0  0  0  0  0  0  0  0  0
  -20.7290  -28.1200   22.9920 C   0  0  0  0  0  3  0  0  0  0  0  0
  -20.8550  -26.7040   22.3870 C   0  0  0  0  0  2  0  0  0  0  0  0
  -19.7640  -26.3870   21.3590 C   0  0  0  0  0  2  0  0  0  0  0  0
  -18.3780  -26.5000   21.9980 C   0  0  0  0  0  2  0  0  0  0  0  0
  -19.2840  -28.5990   23.1550 C   0  0  0  0  0  0  0  0  0  0  0  0
  -19.0460  -29.8460   23.7750 C   0  0  0  0  0  3  0  0  0  0  0  0
  -17.7330  -30.3250   23.9440 C   0  0  0  0  0  3  0  0  0  0  0  0
  -16.6410  -29.5550   23.5070 C   0  0  0  0  0  3  0  0  0  0  0  0
  -16.8650  -28.3090   22.8930 C   0  0  0  0  0  3  0  0  0  0  0  0
  -25.8620  -32.4370   23.8020 C   0  0  0  0  0  3  0  0  0  0  0  0
  -26.3700  -31.6800   25.0910 C   0  0  1  0  0  0  0  0  0  0  0  0
  -25.2550  -31.4010   26.1280 C   0  0  0  0  0  1  0  0  0  0  0  0
  -27.0110  -30.3240   24.7140 C   0  0  0  0  0  1  0  0  0  0  0  0
  -27.4710  -32.5120   25.7880 C   0  0  0  0  0  1  0  0  0  0  0  0
  -25.4970  -33.8220   24.1280 N   0  0  0  0  0  0  0  0  0  0  0  0
  -25.7930  -34.8880   23.3730 C   0  0  0  0  0  0  0  0  0  0  0  0
  -26.4720  -34.8110   22.3460 O   0  0  0  0  0  0  0  0  0  0  0  0
  -24.8890  -33.9550   24.9230 H   0  0  0  0  0  0  0  0  0  0  0  0
  -23.9910  -36.6080   23.0230 C   0  0  0  0  0  1  0  0  0  0  0  0
  -25.2520  -36.2570   23.8300 C   0  0  0  0  0  3  0  0  0  0  0  0
  -27.3490  -37.2340   24.6510 C   0  0  0  0  0  1  0  0  0  0  0  0
  -26.2400  -37.3510   23.7090 N   0  0  0  0  0  0  0  0  0  0  0  0
  -25.7990  -38.2560   23.8510 H   0  0  0  0  0  0  0  0  0  0  0  0
  1  3  1  0
  1  2  1  0
  2  5  1  0
  3  6  1  0
  5 56  1  0
  5  4  1  0
  6 10  1  0
  6  4  1  0
  7  1  2  0
  9 11  1  0
 10 12  2  0
 11 23  1  0
 11  8  2  0
 12  8  1  0
 12 53  1  0
 13  9  2  0
 13 10  1  0
 14 13  1  0
 15 23  1  0
 16 21  1  0
 17 18  1  0
 17 16  1  0
 19 18  1  0
 19 28  1  0
 19 20  1  0
 21 15  1  0
 21 20  1  0
 22 15  2  0
 23 24  1  0
 25 26  2  0
 26 45  1  0
 27 26  1  0
 27 30  1  0
 28 29  1  0
 28 25  1  0
 29 27  2  0
 30 31  1  0
 31 32  2  0
 33 36  1  0
 33 32  1  0
 34 33  2  0
 35 34  1  0
 35 30  2  0
 36 37  1  0
 37 42  2  0
 37 38  1  0
 38 39  2  0
 39 40  1  0
 40 44  1  0
 41 40  2  0
 42 41  1  0
 43 42  1  0
 45 46  1  0
 46 49  1  0
 46 48  1  0
 47 45  2  0
 50 25  1  0
 50 51  1  0
 52 50  1  0
 53 54  1  0
 55 53  1  0
 56 57  1  0
 58 69  2  0
 59 57  1  0
 59 64  1  0
 60 68  1  0
 60 70  1  0
 61 67  1  0
 61 63  1  0
 62 68  1  0
 63 64  2  0
 63 62  1  0
 65 59  2  0
 66 65  1  0
 66 61  2  0
 67 60  1  0
 68 58  1  0
 70 72  2  0
 71 70  1  0
 73 71  1  0
 74 83  2  0
 74 79  1  0
 75 71  1  0
 75 79  1  0
 76 75  1  0
 77 78  1  0
 77 76  1  0
 78 74  1  0
 79 80  2  0
 80 81  1  0
 82 81  2  0
 83 82  1  0
 84 58  1  0
 84 89  1  0
 84 85  1  0
 85 88  1  1
 85 86  1  0
 87 85  1  0
 89 92  1  0
 90 94  1  0
 90 89  1  0
 91 90  2  0
 94 93  1  0
 96 94  1  0
 96 97  1  0
 96 95  1  0
M  ISO  4  15 100  23 100  56 101  57 101
M  END
>  <TORSDO>  (4) 
F 19

>  <SCORE>  (4) 
-14.051

>  <name>  (4) 
3

>  <ligand_id>  (4) 
3

>  <original_smiles>  (4) 
[H]c1c([H])c([H])c2c(c1[H])C([H])([H])C([H])([H])C([H])([H])C2([H])N([H])C(=O)C1([H])N(C(=O)C([H])(N([H])C(=O)C([H])(N([H])C([H])([H])[H])C([H])([H])[H])C(C([H])([H])[H])(C([H])([H])[H])C([H])([H])[H])C([H])([H])c2c([H])c(OC([H])([H])C3([H])C([H])([H])C(=O)C([H])([H])N(c4c(F)c([H])c(N([H])C(=O)N5C([H])([H])C([H])([H])C([H])([H])C([H])(n6nc(-c7c([H])c([H])c(Oc8c([H])c([H])c(F)c([H])c8F)c([H])c7[H])c(C(=O)N([H])[H])c6N([H])[H])C5([H])[H])c([H])c4N([H])[H])C3([H])[H])c([H])c([H])c2C1([H])[H]

>  <smiles>  (4) 
[H]c1c([H])c([H])c2c(c1[H])C([H])([H])C([H])([H])C([H])([H])C2([H])N([H])C(=O)C1([H])N(C(=O)C([H])(N([H])C(=O)C([H])(N([H])C([H])([H])[H])C([H])([H])[H])C(C([H])([H])[H])(C([H])([H])[H])C([H])([H])[H])C([H])([H])c2c([H])c(OC([H])([H])C3([H])C([H])([H])C(=O)C([H])([H])N(c4c(F)c([H])c(N([H])C(=O)N5C([H])([H])C([H])([H])C([H])([H])C([H])(n6nc(-c7c([H])c([H])c(Oc8c([H])c([H])c(F)c([H])c8F)c([H])c7[H])c(C(=O)N([H])[H])c6N([H])[H])C5([H])[H])c([H])c4N([H])[H])C3([H])[H])c([H])c([H])c2C1([H])[H]

$$$$
4:0:0
     RDKit          3D

 95103  0  0  1  0  0  0  0  0999 V2000
  -28.8710  -22.7090   20.4180 C   0  0  0  0  0  0  0  0  0  0  0  0
  -29.3720  -21.6870   19.6400 N   0  0  0  0  0  0  0  0  0  0  0  0
  -28.3760  -22.4780   21.5230 O   0  0  0  0  0  0  0  0  0  0  0  0
  -29.6260  -21.9820   18.7060 H   0  0  0  0  0  0  0  0  0  0  0  0
  -30.0580  -18.3640   21.4700 C   0  0  0  0  0  3  0  0  0  0  0  0
  -29.7880  -19.7390   21.2280 C   0  0  0  0  0  3  0  0  0  0  0  0
  -29.9730  -17.8980   19.1350 C   0  0  0  0  0  3  0  0  0  0  0  0
  -30.1740  -17.3680   20.4470 C   0  0  0  0  0  0  0  0  0  0  0  0
  -29.5970  -20.2530   19.9240 C   0  0  0  0  0  0  0  0  0  0  0  0
  -29.6890  -19.2910   18.8670 C   0  0  0  0  0  0  0  0  0  0  0  0
  -30.5090  -15.8800   20.7940 C   0  0  0  0  0  0  0  0  0  0  0  0
  -30.7340  -15.4030   22.3950 S   0  0  0  0  0  0  0  0  0  0  0  0
  -30.8760  -14.7130   19.7200 C   0  0  0  0  0  0  0  0  0  0  0  0
  -30.4370  -12.5670   18.5090 C   0  0  0  0  0  2  0  0  0  0  0  0
  -29.3730  -12.7510   17.4070 C   0  0  0  0  0  2  0  0  0  0  0  0
  -27.9550  -12.5770   17.9820 C   0  0  0  0  0  2  0  0  0  0  0  0
  -27.7410  -13.3900   19.2850 C   0  0  0  0  0  3  0  0  0  0  0  0
  -28.9040  -13.1710   20.2730 C   0  0  0  0  0  2  0  0  0  0  0  0
  -30.1580  -13.5410   19.5940 N   0  0  0  0  0  0  0  0  0  0  0  0
  -31.8850  -14.8950   19.0280 O   0  0  0  0  0  0  0  0  0  0  0  0
  -25.4460  -13.9860   20.2690 C   0  0  0  0  0  0  0  0  0  0  0  0
  -24.4120  -13.2100   20.7230 C   0  0  0  0  0  0  0  0  0  0  0  0
  -24.8510  -11.8570   20.6000 C   0  0  0  0  0  0  0  0  0  0  0  0
  -26.4470  -13.1030   19.8970 N   0  0  0  0  0  0  0  0  0  0  0  0
  -26.1020  -11.8160   20.1580 N   0  0  0  0  0  0  0  0  0  0  0  0
  -24.1320  -10.5970   20.8280 C   0  0  0  0  0  0  0  0  0  0  0  0
  -24.5910   -9.6420   21.7610 C   0  0  0  0  0  3  0  0  0  0  0  0
  -23.8730   -8.4450   21.9730 C   0  0  0  0  0  3  0  0  0  0  0  0
  -22.6830   -8.1940   21.2500 C   0  0  0  0  0  0  0  0  0  0  0  0
  -22.2440   -9.1370   20.3040 C   0  0  0  0  0  3  0  0  0  0  0  0
  -22.9610  -10.3260   20.0910 C   0  0  0  0  0  3  0  0  0  0  0  0
  -21.9320   -7.0500   21.3710 O   0  0  0  0  0  0  0  0  0  0  0  0
  -21.8350   -6.3770   22.5630 C   0  0  0  0  0  0  0  0  0  0  0  0
  -21.3570   -7.0010   23.7350 C   0  0  0  0  0  3  0  0  0  0  0  0
  -21.2080   -6.2520   24.9190 C   0  0  0  0  0  3  0  0  0  0  0  0
  -21.5250   -4.8800   24.9320 C   0  0  0  0  0  0  0  0  0  0  0  0
  -21.9960   -4.2560   23.7640 C   0  0  0  0  0  3  0  0  0  0  0  0
  -22.1490   -5.0030   22.5820 C   0  0  0  0  0  0  0  0  0  0  0  0
  -22.5820   -4.3900   21.4540 F   0  0  0  0  0  0  0  0  0  0  0  0
  -21.3750   -4.1590   26.0680 F   0  0  0  0  0  0  0  0  0  0  0  0
  -23.0570  -13.6920   21.1540 C   0  0  0  0  0  0  0  0  0  0  0  0
  -22.4250  -12.9870   22.0870 N   0  0  0  0  0  0  0  0  0  0  0  0
  -22.5720  -14.7280   20.7010 O   0  0  0  0  0  0  0  0  0  0  0  0
  -22.8330  -12.1490   22.4720 H   0  0  0  0  0  0  0  0  0  0  0  0
  -21.5200  -13.2890   22.4160 H   0  0  0  0  0  0  0  0  0  0  0  0
  -25.6090  -15.3590   20.1190 N   0  0  0  0  0  0  0  0  0  0  0  0
  -24.8750  -16.0240   20.3410 H   0  0  0  0  0  0  0  0  0  0  0  0
  -26.4310  -15.7980   19.7230 H   0  0  0  0  0  0  0  0  0  0  0  0
  -29.4230  -18.8630   16.5060 C   0  0  0  0  0  1  0  0  0  0  0  0
  -29.4910  -19.7830   17.5910 O   0  0  0  0  0  0  0  0  0  0  0  0
  -28.4430  -25.1950   20.5190 C   0  0  0  0  0  3  0  0  0  0  0  0
  -28.9520  -24.0990   19.8540 C   0  0  0  0  0  0  0  0  0  0  0  0
  -29.5560  -24.2850   18.6710 O   0  0  0  0  0  0  0  0  0  0  0  0
  -29.5140  -25.2160   18.4900 H   0  0  0  0  0  0  0  0  0  0  0  0
  -28.5440  -26.5520   20.1340 O   0  0  0  0  0  0  0  0  0  0  0  0
  -24.6870  -31.8650   23.2230 C   0  0  0  0  0  0  0  0  0  0  0  0
  -27.4070  -27.3680   20.1690 C   0  0  0  0  0  0  0  0  0  0  0  0
  -23.5170  -30.4400   21.5800 C   0  0  0  0  0  3  0  0  0  0  0  0
  -25.0060  -28.9160   20.1620 C   0  0  0  0  0  0  0  0  0  0  0  0
  -26.0500  -30.8160   21.4000 C   0  0  0  0  0  2  0  0  0  0  0  0
  -26.1610  -29.4370   20.7580 C   0  0  0  0  0  0  0  0  0  0  0  0
  -27.3680  -28.6740   20.7510 C   0  0  0  0  0  3  0  0  0  0  0  0
  -26.2290  -26.8930   19.5590 C   0  0  0  0  0  3  0  0  0  0  0  0
  -25.0390  -27.6480   19.5580 C   0  0  0  0  0  3  0  0  0  0  0  0
  -23.7490  -29.7610   20.2050 C   0  0  0  0  0  2  0  0  0  0  0  0
  -24.7710  -31.0600   22.1240 N   0  0  0  0  0  0  0  0  0  0  0  0
  -23.5980  -32.1170   23.7590 O   0  0  0  0  0  0  0  0  0  0  0  0
  -22.8770  -29.4100   22.5410 C   0  0  0  0  0  0  0  0  0  0  0  0
  -21.5640  -29.1800   22.3900 N   0  0  0  0  0  0  0  0  0  0  0  0
  -23.5630  -28.8200   23.3790 O   0  0  0  0  0  0  0  0  0  0  0  0
  -21.0710  -29.7060   21.6820 H   0  0  0  0  0  0  0  0  0  0  0  0
  -18.2450  -27.7910   22.7740 C   0  0  0  0  0  0  0  0  0  0  0  0
  -20.7660  -28.2180   23.1540 C   0  0  0  0  0  3  0  0  0  0  0  0
  -20.9830  -26.7780   22.6360 C   0  0  0  0  0  2  0  0  0  0  0  0
  -19.9540  -26.3540   21.5830 C   0  0  0  0  0  2  0  0  0  0  0  0
  -18.5350  -26.4350   22.1530 C   0  0  0  0  0  2  0  0  0  0  0  0
  -19.2930  -28.6350   23.2280 C   0  0  0  0  0  0  0  0  0  0  0  0
  -18.9680  -29.9010   23.7620 C   0  0  0  0  0  3  0  0  0  0  0  0
  -17.6280  -30.3270   23.8440 C   0  0  0  0  0  3  0  0  0  0  0  0
  -16.5950  -29.4810   23.4060 C   0  0  0  0  0  3  0  0  0  0  0  0
  -16.9040  -28.2140   22.8790 C   0  0  0  0  0  3  0  0  0  0  0  0
  -25.9550  -32.5230   23.8510 C   0  0  0  0  0  3  0  0  0  0  0  0
  -25.6200  -33.9180   24.1760 N   0  0  0  0  0  0  0  0  0  0  0  0
  -25.9500  -34.9750   23.4220 C   0  0  0  0  0  0  0  0  0  0  0  0
  -26.6400  -34.8810   22.4040 O   0  0  0  0  0  0  0  0  0  0  0  0
  -25.0150  -34.0670   24.9690 H   0  0  0  0  0  0  0  0  0  0  0  0
  -24.2030  -36.7410   23.0330 C   0  0  0  0  0  1  0  0  0  0  0  0
  -25.4330  -36.3540   23.8710 C   0  0  0  0  0  3  0  0  0  0  0  0
  -27.5400  -37.2680   24.7400 C   0  0  0  0  0  1  0  0  0  0  0  0
  -26.4520  -37.4230   23.7800 N   0  0  0  0  0  0  0  0  0  0  0  0
  -26.0300  -38.3380   23.9180 H   0  0  0  0  0  0  0  0  0  0  0  0
  -26.4800  -31.7650   25.1310 C   0  0  1  0  0  0  0  0  0  0  0  0
  -25.3850  -31.5010   26.1930 C   0  0  0  0  0  1  0  0  0  0  0  0
  -27.0990  -30.4020   24.7480 C   0  0  0  0  0  1  0  0  0  0  0  0
  -27.6100  -32.5880   25.7960 C   0  0  0  0  0  1  0  0  0  0  0  0
  1  3  2  0
  2  9  1  0
  2  1  1  0
  4  2  1  0
  6  5  1  0
  7  8  1  0
  8 11  1  0
  8  5  2  0
  9  6  2  0
 10  7  2  0
 10  9  1  0
 11 12  2  0
 13 11  1  0
 14 19  1  0
 15 16  1  0
 15 14  1  0
 17 16  1  0
 17 24  1  0
 17 18  1  0
 19 13  1  0
 19 18  1  0
 20 13  2  0
 21 22  2  0
 22 41  1  0
 23 22  1  0
 23 26  1  0
 24 25  1  0
 24 21  1  0
 25 23  2  0
 26 27  1  0
 27 28  2  0
 29 32  1  0
 29 28  1  0
 30 29  2  0
 31 30  1  0
 31 26  2  0
 32 33  1  0
 33 38  2  0
 33 34  1  0
 34 35  2  0
 35 36  1  0
 36 40  1  0
 37 36  2  0
 38 37  1  0
 39 38  1  0
 41 42  1  0
 42 45  1  0
 42 44  1  0
 43 41  2  0
 46 21  1  0
 46 47  1  0
 48 46  1  0
 49 50  1  0
 50 10  1  0
 52  1  1  0
 52 51  2  0
 53 52  1  0
 54 53  1  0
 55 57  1  0
 55 51  1  0
 56 67  2  0
 57 62  1  0
 58 66  1  0
 58 68  1  0
 59 65  1  0
 59 61  1  0
 60 66  1  0
 61 60  1  0
 62 61  2  0
 63 57  2  0
 64 63  1  0
 64 59  2  0
 65 58  1  0
 66 56  1  0
 68 70  2  0
 69 68  1  0
 71 69  1  0
 72 81  2  0
 72 77  1  0
 73 69  1  0
 73 77  1  0
 74 73  1  0
 75 76  1  0
 75 74  1  0
 76 72  1  0
 77 78  2  0
 78 79  1  0
 80 79  2  0
 81 80  1  0
 82 56  1  0
 82 83  1  0
 82 92  1  0
 83 86  1  0
 84 88  1  0
 84 83  1  0
 85 84  2  0
 88 87  1  0
 90 88  1  0
 90 91  1  0
 90 89  1  0
 92 95  1  1
 92 93  1  0
 94 92  1  0
M  ISO  4  11 100  13 100  51 101  55 101
M  END
>  <TORSDO>  (5) 
F 21

>  <SCORE>  (5) 
-11.958

>  <name>  (5) 
4

>  <ligand_id>  (5) 
4

>  <original_smiles>  (5) 
[H]OC(C(=O)N([H])c1c([H])c([H])c(C(=S)C(=O)N2C([H])([H])C([H])([H])C([H])([H])C([H])(n3nc(-c4c([H])c([H])c(Oc5c([H])c([H])c(F)c([H])c5F)c([H])c4[H])c(C(=O)N([H])[H])c3N([H])[H])C2([H])[H])c([H])c1OC([H])([H])[H])=C([H])Oc1c([H])c([H])c2c(c1[H])C([H])([H])N(C(=O)C([H])(N([H])C(=O)C([H])(N([H])C([H])([H])[H])C([H])([H])[H])C(C([H])([H])[H])(C([H])([H])[H])C([H])([H])[H])C([H])(C(=O)N([H])C1([H])c3c([H])c([H])c([H])c([H])c3C([H])([H])C([H])([H])C1([H])[H])C2([H])[H]

>  <smiles>  (5) 
[H]OC(C(=O)N([H])c1c([H])c([H])c(C(=S)C(=O)N2C([H])([H])C([H])([H])C([H])([H])C([H])(n3nc(-c4c([H])c([H])c(Oc5c([H])c([H])c(F)c([H])c5F)c([H])c4[H])c(C(=O)N([H])[H])c3N([H])[H])C2([H])[H])c([H])c1OC([H])([H])[H])=C([H])Oc1c([H])c([H])c2c(c1[H])C([H])([H])N(C(=O)C([H])(N([H])C(=O)C([H])(N([H])C([H])([H])[H])C([H])([H])[H])C(C([H])([H])[H])(C([H])([H])[H])C([H])([H])[H])C([H])(C(=O)N([H])C1([H])c3c([H])c([H])c([H])c([H])c3C([H])([H])C([H])([H])C1([H])[H])C2([H])[H]

$$$$
5:0:0
     RDKit          3D

 97106  0  0  1  0  0  0  0  0999 V2000
  -27.9290  -23.1500   21.0460 C   0  0  0  0  0  3  0  0  0  0  0  0
  -28.5550  -23.7250   19.8950 C   0  0  0  0  0  0  0  0  0  0  0  0
  -28.2630  -21.8170   21.1390 C   0  0  0  0  0  0  0  0  0  0  0  0
  -29.2460  -22.6210   19.3570 C   0  0  0  0  0  0  0  0  0  0  0  0
  -29.0830  -21.4000   20.0940 N   0  0  0  0  0  0  0  0  0  0  0  0
  -30.8340  -19.6670   19.4300 C   0  0  0  0  0  3  0  0  0  0  0  0
  -31.1900  -18.2510   19.5130 C   0  0  0  0  0  0  0  0  0  0  0  0
  -29.5860  -20.0060   19.9220 C   0  0  0  0  0  0  0  0  0  0  0  0
  -30.2250  -17.4050   20.0570 C   0  0  0  0  0  0  0  0  0  0  0  0
  -28.8200  -18.4640   20.4050 S   0  0  0  0  0  0  0  0  0  0  0  0
  -30.8270  -14.9340   19.8380 C   0  0  0  0  0  0  0  0  0  0  0  0
  -30.4790  -12.7220   18.7290 C   0  0  0  0  0  2  0  0  0  0  0  0
  -29.4260  -12.7990   17.6000 C   0  0  0  0  0  2  0  0  0  0  0  0
  -28.0020  -12.5900   18.1490 C   0  0  0  0  0  2  0  0  0  0  0  0
  -27.7370  -13.4560   19.4030 C   0  0  0  0  0  3  0  0  0  0  0  0
  -28.8800  -13.3250   20.4250 C   0  0  0  0  0  2  0  0  0  0  0  0
  -30.1360  -13.7340   19.7600 N   0  0  0  0  0  0  0  0  0  0  0  0
  -31.9270  -15.0270   19.2820 O   0  0  0  0  0  0  0  0  0  0  0  0
  -29.9900  -15.9030   21.9030 C   0  0  0  0  0  1  0  0  0  0  0  0
  -30.2560  -16.0520   20.4660 N   0  0  0  0  0  0  0  0  0  0  0  0
  -25.4230  -14.0380   20.3480 C   0  0  0  0  0  0  0  0  0  0  0  0
  -24.3800  -13.2580   20.7690 C   0  0  0  0  0  0  0  0  0  0  0  0
  -24.8300  -11.9090   20.6590 C   0  0  0  0  0  0  0  0  0  0  0  0
  -26.4360  -13.1610   19.9960 N   0  0  0  0  0  0  0  0  0  0  0  0
  -26.0910  -11.8740   20.2520 N   0  0  0  0  0  0  0  0  0  0  0  0
  -24.1080  -10.6450   20.8610 C   0  0  0  0  0  0  0  0  0  0  0  0
  -24.5640   -9.6750   21.7850 C   0  0  0  0  0  3  0  0  0  0  0  0
  -23.8470   -8.4750   21.9770 C   0  0  0  0  0  3  0  0  0  0  0  0
  -22.6590   -8.2360   21.2430 C   0  0  0  0  0  0  0  0  0  0  0  0
  -22.2220   -9.1910   20.3090 C   0  0  0  0  0  3  0  0  0  0  0  0
  -22.9410  -10.3830   20.1140 C   0  0  0  0  0  3  0  0  0  0  0  0
  -21.9100   -7.0870   21.3440 O   0  0  0  0  0  0  0  0  0  0  0  0
  -21.8280   -6.3810   22.5190 C   0  0  0  0  0  0  0  0  0  0  0  0
  -21.3630   -6.9730   23.7140 C   0  0  0  0  0  3  0  0  0  0  0  0
  -21.2310   -6.1940   24.8810 C   0  0  0  0  0  3  0  0  0  0  0  0
  -21.5480   -4.8230   24.8510 C   0  0  0  0  0  0  0  0  0  0  0  0
  -22.0050   -4.2300   23.6620 C   0  0  0  0  0  3  0  0  0  0  0  0
  -22.1400   -5.0060   22.4980 C   0  0  0  0  0  0  0  0  0  0  0  0
  -22.5610   -4.4240   21.3490 F   0  0  0  0  0  0  0  0  0  0  0  0
  -21.4140   -4.0750   25.9690 F   0  0  0  0  0  0  0  0  0  0  0  0
  -23.0120  -13.7360   21.1650 C   0  0  0  0  0  0  0  0  0  0  0  0
  -22.3600  -13.0280   22.0800 N   0  0  0  0  0  0  0  0  0  0  0  0
  -22.5370  -14.7740   20.7060 O   0  0  0  0  0  0  0  0  0  0  0  0
  -22.7580  -12.1810   22.4580 H   0  0  0  0  0  0  0  0  0  0  0  0
  -21.4520  -13.3320   22.4010 H   0  0  0  0  0  0  0  0  0  0  0  0
  -25.5890  -15.4120   20.2060 N   0  0  0  0  0  0  0  0  0  0  0  0
  -24.8600  -16.0800   20.4290 H   0  0  0  0  0  0  0  0  0  0  0  0
  -26.4400  -15.8470   19.8690 H   0  0  0  0  0  0  0  0  0  0  0  0
  -32.4820  -17.8550   19.1320 N   0  0  0  0  0  0  0  0  0  0  0  0
  -32.7820  -16.8990   19.3360 H   0  0  0  0  0  0  0  0  0  0  0  0
  -33.2410  -18.5240   19.0380 H   0  0  0  0  0  0  0  0  0  0  0  0
  -27.8700  -20.9290   22.0910 O   0  0  0  0  0  0  0  0  0  0  0  0
  -27.2110  -21.3520   22.6290 H   0  0  0  0  0  0  0  0  0  0  0  0
  -29.9790  -22.6250   18.2110 O   0  0  0  0  0  0  0  0  0  0  0  0
  -30.2200  -21.7300   18.0070 H   0  0  0  0  0  0  0  0  0  0  0  0
  -28.3520  -25.1920   19.2800 C   0  0  0  0  0  2  0  0  0  0  0  0
  -28.2620  -26.4760   20.0740 O   0  0  0  0  0  0  0  0  0  0  0  0
  -24.5600  -31.9250   23.1300 C   0  0  0  0  0  0  0  0  0  0  0  0
  -27.1580  -27.3700   20.0020 C   0  0  0  0  0  0  0  0  0  0  0  0
  -23.3540  -30.5460   21.4820 C   0  0  0  0  0  3  0  0  0  0  0  0
  -24.8000  -29.0350   20.0150 C   0  0  0  0  0  0  0  0  0  0  0  0
  -25.9000  -30.8640   21.2990 C   0  0  0  0  0  2  0  0  0  0  0  0
  -25.9780  -29.5030   20.6110 C   0  0  0  0  0  0  0  0  0  0  0  0
  -27.1550  -28.6830   20.5980 C   0  0  0  0  0  3  0  0  0  0  0  0
  -25.9430  -26.9730   19.3960 C   0  0  0  0  0  3  0  0  0  0  0  0
  -24.7890  -27.7770   19.4020 C   0  0  0  0  0  3  0  0  0  0  0  0
  -23.5650  -29.9110   20.0870 C   0  0  0  0  0  2  0  0  0  0  0  0
  -24.6230  -31.1300   22.0240 N   0  0  0  0  0  0  0  0  0  0  0  0
  -23.4790  -32.1850   23.6810 O   0  0  0  0  0  0  0  0  0  0  0  0
  -22.7100  -29.5000   22.4270 C   0  0  0  0  0  0  0  0  0  0  0  0
  -21.3930  -29.2770   22.2740 N   0  0  0  0  0  0  0  0  0  0  0  0
  -23.3950  -28.9020   23.2600 O   0  0  0  0  0  0  0  0  0  0  0  0
  -20.9010  -29.8130   21.5730 H   0  0  0  0  0  0  0  0  0  0  0  0
  -18.0600  -27.9400   22.7040 C   0  0  0  0  0  0  0  0  0  0  0  0
  -20.5970  -28.3170   23.0380 C   0  0  0  0  0  3  0  0  0  0  0  0
  -20.7830  -26.8840   22.4890 C   0  0  0  0  0  2  0  0  0  0  0  0
  -19.7230  -26.4930   21.4510 C   0  0  0  0  0  2  0  0  0  0  0  0
  -18.3190  -26.5890   22.0560 C   0  0  0  0  0  2  0  0  0  0  0  0
  -19.1320  -28.7570   23.1500 C   0  0  0  0  0  0  0  0  0  0  0  0
  -18.8400  -30.0190   23.7140 C   0  0  0  0  0  3  0  0  0  0  0  0
  -17.5100  -30.4610   23.8400 C   0  0  0  0  0  3  0  0  0  0  0  0
  -16.4550  -29.6420   23.4070 C   0  0  0  0  0  3  0  0  0  0  0  0
  -16.7280  -28.3840   22.8430 C   0  0  0  0  0  3  0  0  0  0  0  0
  -25.8410  -32.5640   23.7470 C   0  0  0  0  0  3  0  0  0  0  0  0
  -25.5150  -33.9530   24.0980 N   0  0  0  0  0  0  0  0  0  0  0  0
  -25.8280  -35.0250   23.3580 C   0  0  0  0  0  0  0  0  0  0  0  0
  -26.4860  -34.9480   22.3180 O   0  0  0  0  0  0  0  0  0  0  0  0
  -24.9300  -34.0850   24.9100 H   0  0  0  0  0  0  0  0  0  0  0  0
  -24.0770  -36.8050   23.0430 C   0  0  0  0  0  1  0  0  0  0  0  0
  -25.3230  -36.3960   23.8450 C   0  0  0  0  0  3  0  0  0  0  0  0
  -27.4450  -37.2910   24.6980 C   0  0  0  0  0  1  0  0  0  0  0  0
  -26.3420  -37.4630   23.7560 N   0  0  0  0  0  0  0  0  0  0  0  0
  -25.9260  -38.3760   23.9180 H   0  0  0  0  0  0  0  0  0  0  0  0
  -26.3780  -31.7870   25.0120 C   0  0  1  0  0  0  0  0  0  0  0  0
  -25.2930  -31.5150   26.0830 C   0  0  0  0  0  1  0  0  0  0  0  0
  -26.9880  -30.4240   24.6110 C   0  0  0  0  0  1  0  0  0  0  0  0
  -27.5120  -32.5970   25.6820 C   0  0  0  0  0  1  0  0  0  0  0  0
  1  3  2  0
  2  1  1  0
  3 52  1  0
  4  2  2  0
  4  5  1  0
  5  3  1  0
  6  7  1  0
  6  8  2  0
  7  9  2  0
  8  5  1  0
  8 10  1  0
  9 10  1  0
  9 20  1  0
 11 20  1  0
 12 17  1  0
 13 14  1  0
 13 12  1  0
 15 14  1  0
 15 24  1  0
 15 16  1  0
 17 11  1  0
 17 16  1  0
 18 11  2  0
 20 19  1  0
 21 22  2  0
 22 41  1  0
 23 22  1  0
 23 26  1  0
 24 25  1  0
 24 21  1  0
 25 23  2  0
 26 27  1  0
 27 28  2  0
 29 32  1  0
 29 28  1  0
 30 29  2  0
 31 30  1  0
 31 26  2  0
 32 33  1  0
 33 34  1  0
 34 35  2  0
 36 35  1  0
 36 40  1  0
 37 36  2  0
 38 33  2  0
 38 37  1  0
 39 38  1  0
 41 42  1  0
 42 45  1  0
 42 44  1  0
 43 41  2  0
 46 21  1  0
 46 47  1  0
 48 46  1  0
 49 50  1  0
 49  7  1  0
 51 49  1  0
 52 53  1  0
 54  4  1  0
 55 54  1  0
 56  2  1  0
 56 57  1  0
 58 69  2  0
 59 57  1  0
 59 64  1  0
 60 68  1  0
 60 70  1  0
 61 67  1  0
 61 63  1  0
 62 68  1  0
 63 62  1  0
 64 63  2  0
 65 66  1  0
 65 59  2  0
 66 61  2  0
 67 60  1  0
 68 58  1  0
 70 72  2  0
 71 70  1  0
 73 71  1  0
 74 83  2  0
 74 79  1  0
 75 71  1  0
 75 79  1  0
 76 75  1  0
 77 78  1  0
 77 76  1  0
 78 74  1  0
 79 80  2  0
 80 81  1  0
 82 81  2  0
 83 82  1  0
 84 58  1  0
 84 85  1  0
 84 94  1  0
 85 88  1  0
 86 90  1  0
 86 85  1  0
 87 86  2  0
 90 89  1  0
 92 90  1  0
 92 93  1  0
 92 91  1  0
 94 97  1  1
 94 95  1  0
 96 94  1  0
M  ISO  4  11 100  20 100  56 101  57 101
M  END
>  <TORSDO>  (6) 
F 21

>  <SCORE>  (6) 
-13.097

>  <name>  (6) 
5

>  <ligand_id>  (6) 
5

>  <original_smiles>  (6) 
[H]Oc1c([H])c(C([H])([H])Oc2c([H])c([H])c3c(c2[H])C([H])([H])N(C(=O)C([H])(N([H])C(=O)C([H])(N([H])C([H])([H])[H])C([H])([H])[H])C(C([H])([H])[H])(C([H])([H])[H])C([H])([H])[H])C([H])(C(=O)N([H])C2([H])c4c([H])c([H])c([H])c([H])c4C([H])([H])C([H])([H])C2([H])[H])C3([H])[H])c(O[H])n1-c1sc(N(C(=O)N2C([H])([H])C([H])([H])C([H])([H])C([H])(n3nc(-c4c([H])c([H])c(Oc5c([H])c([H])c(F)c([H])c5F)c([H])c4[H])c(C(=O)N([H])[H])c3N([H])[H])C2([H])[H])C([H])([H])[H])c(N([H])[H])c1[H]

>  <smiles>  (6) 
[H]Oc1c([H])c(C([H])([H])Oc2c([H])c([H])c3c(c2[H])C([H])([H])N(C(=O)C([H])(N([H])C(=O)C([H])(N([H])C([H])([H])[H])C([H])([H])[H])C(C([H])([H])[H])(C([H])([H])[H])C([H])([H])[H])C([H])(C(=O)N([H])C2([H])c4c([H])c([H])c([H])c([H])c4C([H])([H])C([H])([H])C2([H])[H])C3([H])[H])c(O[H])n1-c1sc(N(C(=O)N2C([H])([H])C([H])([H])C([H])([H])C([H])(n3nc(-c4c([H])c([H])c(Oc5c([H])c([H])c(F)c([H])c5F)c([H])c4[H])c(C(=O)N([H])[H])c3N([H])[H])C2([H])[H])C([H])([H])[H])c(N([H])[H])c1[H]

$$$$
6:0:0
     RDKit          3D

 97106  0  0  1  0  0  0  0  0999 V2000
  -30.6800  -23.9210   19.9510 C   0  0  0  0  0  3  0  0  0  0  0  0
  -29.2500  -23.9140   19.8590 C   0  0  0  0  0  0  0  0  0  0  0  0
  -31.1330  -22.6210   20.0190 C   0  0  0  0  0  0  0  0  0  0  0  0
  -28.9310  -22.5540   19.9150 C   0  0  0  0  0  0  0  0  0  0  0  0
  -30.0670  -21.7120   20.0150 N   0  0  0  0  0  0  0  0  0  0  0  0
  -29.7910  -19.3080   19.1140 C   0  0  0  0  0  3  0  0  0  0  0  0
  -30.5290  -18.2290   21.5460 C   0  0  0  0  0  3  0  0  0  0  0  0
  -29.8350  -17.8700   19.2860 C   0  0  0  0  0  0  0  0  0  0  0  0
  -30.1380  -20.2400   20.1400 C   0  0  0  0  0  0  0  0  0  0  0  0
  -30.2290  -17.2610   20.5250 C   0  0  0  0  0  0  0  0  0  0  0  0
  -30.5200  -19.6410   21.3600 C   0  0  0  0  0  0  0  0  0  0  0  0
  -29.3580  -17.0120   18.1240 C   0  0  0  0  0  1  0  0  0  0  0  0
  -30.8540  -20.4430   22.4060 F   0  0  0  0  0  0  0  0  0  0  0  0
  -30.7370  -14.7510   20.0420 C   0  0  0  0  0  0  0  0  0  0  0  0
  -30.3750  -12.5420   18.9100 C   0  0  0  0  0  2  0  0  0  0  0  0
  -29.3540  -12.7060   17.7590 C   0  0  0  0  0  2  0  0  0  0  0  0
  -27.9080  -12.5430   18.2760 C   0  0  0  0  0  2  0  0  0  0  0  0
  -27.6400  -13.3430   19.5810 C   0  0  0  0  0  3  0  0  0  0  0  0
  -28.7810  -13.1560   20.6040 C   0  0  0  0  0  2  0  0  0  0  0  0
  -30.0470  -13.5510   19.9470 N   0  0  0  0  0  0  0  0  0  0  0  0
  -31.7950  -14.9000   19.4160 O   0  0  0  0  0  0  0  0  0  0  0  0
  -30.3050  -15.4390   22.2780 C   0  0  0  0  0  1  0  0  0  0  0  0
  -30.2540  -15.7840   20.8390 N   0  0  0  0  0  0  0  0  0  0  0  0
  -25.3010  -13.8960   20.4850 C   0  0  0  0  0  0  0  0  0  0  0  0
  -24.2660  -13.1080   20.9010 C   0  0  0  0  0  0  0  0  0  0  0  0
  -24.7250  -11.7610   20.7870 C   0  0  0  0  0  0  0  0  0  0  0  0
  -26.3290  -13.0330   20.1420 N   0  0  0  0  0  0  0  0  0  0  0  0
  -25.9930  -11.7400   20.3840 N   0  0  0  0  0  0  0  0  0  0  0  0
  -24.0090  -10.4940   20.9880 C   0  0  0  0  0  0  0  0  0  0  0  0
  -24.4700   -9.5210   21.9030 C   0  0  0  0  0  3  0  0  0  0  0  0
  -23.7550   -8.3160   22.0920 C   0  0  0  0  0  3  0  0  0  0  0  0
  -22.5650   -8.0760   21.3680 C   0  0  0  0  0  0  0  0  0  0  0  0
  -22.1240   -9.0330   20.4380 C   0  0  0  0  0  3  0  0  0  0  0  0
  -22.8390  -10.2300   20.2460 C   0  0  0  0  0  3  0  0  0  0  0  0
  -21.8180   -6.9270   21.4670 O   0  0  0  0  0  0  0  0  0  0  0  0
  -21.7540   -6.2100   22.6380 C   0  0  0  0  0  0  0  0  0  0  0  0
  -21.3120   -6.7890   23.8510 C   0  0  0  0  0  3  0  0  0  0  0  0
  -21.2000   -5.9930   25.0090 C   0  0  0  0  0  3  0  0  0  0  0  0
  -21.5170   -4.6220   24.9570 C   0  0  0  0  0  0  0  0  0  0  0  0
  -21.9480   -4.0440   23.7500 C   0  0  0  0  0  3  0  0  0  0  0  0
  -22.0690   -4.8360   22.5970 C   0  0  0  0  0  0  0  0  0  0  0  0
  -22.4640   -4.2660   21.4310 F   0  0  0  0  0  0  0  0  0  0  0  0
  -21.3980   -3.8600   26.0680 F   0  0  0  0  0  0  0  0  0  0  0  0
  -22.8940  -13.5710   21.2880 C   0  0  0  0  0  0  0  0  0  0  0  0
  -22.2260  -12.8600   22.1870 N   0  0  0  0  0  0  0  0  0  0  0  0
  -22.4230  -14.6080   20.8230 O   0  0  0  0  0  0  0  0  0  0  0  0
  -22.6260  -12.0260   22.5990 H   0  0  0  0  0  0  0  0  0  0  0  0
  -21.3040  -13.1620   22.4760 H   0  0  0  0  0  0  0  0  0  0  0  0
  -25.4300  -15.2770   20.3600 N   0  0  0  0  0  0  0  0  0  0  0  0
  -24.6380  -15.8800   20.5620 H   0  0  0  0  0  0  0  0  0  0  0  0
  -26.2370  -15.7830   20.0120 H   0  0  0  0  0  0  0  0  0  0  0  0
  -32.4250  -22.1840   20.0830 O   0  0  0  0  0  0  0  0  0  0  0  0
  -32.9950  -22.9390   20.1820 H   0  0  0  0  0  0  0  0  0  0  0  0
  -27.6960  -21.9620   19.8320 O   0  0  0  0  0  0  0  0  0  0  0  0
  -27.0150  -22.6120   19.9750 H   0  0  0  0  0  0  0  0  0  0  0  0
  -28.2700  -25.1270   19.5920 C   0  0  0  0  0  2  0  0  0  0  0  0
  -28.4040  -26.4970   20.1660 O   0  0  0  0  0  0  0  0  0  0  0  0
  -24.6060  -31.8720   23.2340 C   0  0  0  0  0  0  0  0  0  0  0  0
  -27.2770  -27.3540   20.1150 C   0  0  0  0  0  0  0  0  0  0  0  0
  -23.4120  -30.4750   21.5770 C   0  0  0  0  0  3  0  0  0  0  0  0
  -24.8840  -28.9380   20.1550 C   0  0  0  0  0  0  0  0  0  0  0  0
  -25.9520  -30.7990   21.4170 C   0  0  0  0  0  2  0  0  0  0  0  0
  -26.0450  -29.4250   20.7640 C   0  0  0  0  0  0  0  0  0  0  0  0
  -27.2390  -28.6380   20.7530 C   0  0  0  0  0  3  0  0  0  0  0  0
  -26.0970  -26.9520   19.4430 C   0  0  0  0  0  3  0  0  0  0  0  0
  -24.9100  -27.7080   19.4900 C   0  0  0  0  0  3  0  0  0  0  0  0
  -23.6380  -29.7940   20.1990 C   0  0  0  0  0  2  0  0  0  0  0  0
  -24.6720  -31.0690   22.1330 N   0  0  0  0  0  0  0  0  0  0  0  0
  -23.5240  -32.1440   23.7680 O   0  0  0  0  0  0  0  0  0  0  0  0
  -22.7390  -29.4620   22.5330 C   0  0  0  0  0  0  0  0  0  0  0  0
  -21.4100  -29.2900   22.4090 N   0  0  0  0  0  0  0  0  0  0  0  0
  -23.4140  -28.8280   23.3480 O   0  0  0  0  0  0  0  0  0  0  0  0
  -20.9220  -29.8480   21.7210 H   0  0  0  0  0  0  0  0  0  0  0  0
  -18.0400  -28.0890   22.9060 C   0  0  0  0  0  0  0  0  0  0  0  0
  -20.5960  -28.3480   23.1770 C   0  0  0  0  0  3  0  0  0  0  0  0
  -20.7010  -26.9220   22.5900 C   0  0  0  0  0  2  0  0  0  0  0  0
  -19.5980  -26.6050   21.5710 C   0  0  0  0  0  2  0  0  0  0  0  0
  -18.2150  -26.7440   22.2210 C   0  0  0  0  0  2  0  0  0  0  0  0
  -19.1570  -28.8500   23.3420 C   0  0  0  0  0  0  0  0  0  0  0  0
  -18.9360  -30.1050   23.9480 C   0  0  0  0  0  3  0  0  0  0  0  0
  -17.6330  -30.6060   24.1210 C   0  0  0  0  0  3  0  0  0  0  0  0
  -16.5310  -29.8430   23.7020 C   0  0  0  0  0  3  0  0  0  0  0  0
  -16.7350  -28.5880   23.1000 C   0  0  0  0  0  3  0  0  0  0  0  0
  -25.8900  -32.4960   23.8630 C   0  0  0  0  0  3  0  0  0  0  0  0
  -26.4040  -31.7210   25.1380 C   0  0  1  0  0  0  0  0  0  0  0  0
  -25.3030  -31.4730   26.1960 C   0  0  0  0  0  1  0  0  0  0  0  0
  -26.9930  -30.3440   24.7480 C   0  0  0  0  0  1  0  0  0  0  0  0
  -27.5560  -32.5100   25.8060 C   0  0  0  0  0  1  0  0  0  0  0  0
  -25.5830  -33.8930   24.1960 N   0  0  0  0  0  0  0  0  0  0  0  0
  -25.9120  -34.9480   23.4390 C   0  0  0  0  0  0  0  0  0  0  0  0
  -26.5730  -34.8490   22.4000 O   0  0  0  0  0  0  0  0  0  0  0  0
  -24.9940  -34.0500   25.0000 H   0  0  0  0  0  0  0  0  0  0  0  0
  -24.1700  -36.7350   23.1230 C   0  0  0  0  0  1  0  0  0  0  0  0
  -25.4290  -36.3340   23.9070 C   0  0  0  0  0  3  0  0  0  0  0  0
  -27.5730  -37.2300   24.6960 C   0  0  0  0  0  1  0  0  0  0  0  0
  -26.4530  -37.3920   23.7750 N   0  0  0  0  0  0  0  0  0  0  0  0
  -26.0450  -38.3060   23.9420 H   0  0  0  0  0  0  0  0  0  0  0  0
  1  3  2  0
  2  4  2  0
  2  1  1  0
  3 52  1  0
  4  5  1  0
  5  3  1  0
  5  9  1  0
  6  8  2  0
  6  9  1  0
  8 10  1  0
  9 11  2  0
 10 23  1  0
 10  7  2  0
 11  7  1  0
 11 13  1  0
 12  8  1  0
 14 23  1  0
 15 20  1  0
 16 17  1  0
 16 15  1  0
 18 17  1  0
 18 27  1  0
 18 19  1  0
 20 14  1  0
 20 19  1  0
 21 14  2  0
 23 22  1  0
 24 25  2  0
 25 44  1  0
 26 25  1  0
 26 29  1  0
 27 28  1  0
 27 24  1  0
 28 26  2  0
 29 30  1  0
 30 31  2  0
 32 35  1  0
 32 31  1  0
 33 32  2  0
 34 33  1  0
 34 29  2  0
 35 36  1  0
 36 37  1  0
 37 38  2  0
 39 38  1  0
 39 43  1  0
 40 39  2  0
 41 36  2  0
 41 40  1  0
 42 41  1  0
 44 45  1  0
 45 48  1  0
 45 47  1  0
 46 44  2  0
 49 24  1  0
 49 50  1  0
 51 49  1  0
 52 53  1  0
 54  4  1  0
 54 55  1  0
 56  2  1  0
 56 57  1  0
 58 69  2  0
 59 57  1  0
 59 64  1  0
 60 68  1  0
 60 70  1  0
 61 67  1  0
 61 63  1  0
 62 68  1  0
 63 62  1  0
 64 63  2  0
 65 66  1  0
 65 59  2  0
 66 61  2  0
 67 60  1  0
 68 58  1  0
 70 72  2  0
 71 70  1  0
 73 71  1  0
 74 83  2  0
 74 79  1  0
 75 71  1  0
 75 79  1  0
 76 75  1  0
 77 78  1  0
 77 76  1  0
 78 74  1  0
 79 80  2  0
 80 81  1  0
 82 81  2  0
 83 82  1  0
 84 58  1  0
 84 89  1  0
 84 85  1  0
 85 88  1  1
 85 86  1  0
 87 85  1  0
 89 92  1  0
 90 94  1  0
 90 89  1  0
 91 90  2  0
 94 93  1  0
 96 94  1  0
 96 97  1  0
 96 95  1  0
M  ISO  4  14 100  23 100  56 101  57 101
M  END
>  <TORSDO>  (7) 
F 20

>  <SCORE>  (7) 
-13.353

>  <name>  (7) 
6

>  <ligand_id>  (7) 
6

>  <original_smiles>  (7) 
[H]Oc1c([H])c(C([H])([H])Oc2c([H])c([H])c3c(c2[H])C([H])([H])N(C(=O)C([H])(N([H])C(=O)C([H])(N([H])C([H])([H])[H])C([H])([H])[H])C(C([H])([H])[H])(C([H])([H])[H])C([H])([H])[H])C([H])(C(=O)N([H])C2([H])c4c([H])c([H])c([H])c([H])c4C([H])([H])C([H])([H])C2([H])[H])C3([H])[H])c(O[H])n1-c1c([H])c(C([H])([H])[H])c(N(C(=O)N2C([H])([H])C([H])([H])C([H])([H])C([H])(n3nc(-c4c([H])c([H])c(Oc5c([H])c([H])c(F)c([H])c5F)c([H])c4[H])c(C(=O)N([H])[H])c3N([H])[H])C2([H])[H])C([H])([H])[H])c([H])c1F

>  <smiles>  (7) 
[H]Oc1c([H])c(C([H])([H])Oc2c([H])c([H])c3c(c2[H])C([H])([H])N(C(=O)C([H])(N([H])C(=O)C([H])(N([H])C([H])([H])[H])C([H])([H])[H])C(C([H])([H])[H])(C([H])([H])[H])C([H])([H])[H])C([H])(C(=O)N([H])C2([H])c4c([H])c([H])c([H])c([H])c4C([H])([H])C([H])([H])C2([H])[H])C3([H])[H])c(O[H])n1-c1c([H])c(C([H])([H])[H])c(N(C(=O)N2C([H])([H])C([H])([H])C([H])([H])C([H])(n3nc(-c4c([H])c([H])c(Oc5c([H])c([H])c(F)c([H])c5F)c([H])c4[H])c(C(=O)N([H])[H])c3N([H])[H])C2([H])[H])C([H])([H])[H])c([H])c1F

$$$$
7:0:0
     RDKit          3D

 96104  0  0  1  0  0  0  0  0999 V2000
  -36.2230  -18.5830   14.2700 C   0  0  0  0  0  3  0  0  0  0  0  0
  -37.0650  -16.5540   13.2320 C   0  0  0  0  0  3  0  0  0  0  0  0
  -37.3420  -17.7870   13.9710 C   0  0  0  0  0  0  0  0  0  0  0  0
  -34.9270  -18.1830   13.8890 C   0  0  0  0  0  0  0  0  0  0  0  0
  -34.6830  -16.9850   13.1660 C   0  0  0  0  0  0  0  0  0  0  0  0
  -35.7470  -16.1040   12.8030 C   0  0  0  0  0  0  0  0  0  0  0  0
  -38.8960  -18.8220   15.7900 C   0  0  0  0  0  0  0  0  0  0  0  0
  -40.9560  -18.6010   17.2000 C   0  0  0  0  0  2  0  0  0  0  0  0
  -42.0020  -17.6680   16.5500 C   0  0  0  0  0  2  0  0  0  0  0  0
  -41.6880  -16.1750   16.7920 C   0  0  0  0  0  2  0  0  0  0  0  0
  -40.1840  -15.8150   16.6600 C   0  0  0  0  0  3  0  0  0  0  0  0
  -39.2940  -16.8590   17.3570 C   0  0  0  0  0  2  0  0  0  0  0  0
  -39.6230  -18.1540   16.7530 N   0  0  0  0  0  0  0  0  0  0  0  0
  -38.9060  -20.0570   15.7860 O   0  0  0  0  0  0  0  0  0  0  0  0
  -39.7010  -17.9450   13.7510 C   0  0  0  0  0  3  0  0  0  0  0  0
  -38.6510  -18.1620   14.5750 N   0  0  0  0  0  0  0  0  0  0  0  0
  -40.6840  -18.6820   13.6180 O   0  0  0  0  0  0  0  0  0  0  0  0
  -39.8760  -13.2850   16.3690 C   0  0  0  0  0  0  0  0  0  0  0  0
  -39.6870  -12.2790   17.2740 C   0  0  0  0  0  0  0  0  0  0  0  0
  -39.6230  -12.9040   18.5580 C   0  0  0  0  0  0  0  0  0  0  0  0
  -39.9130  -14.4570   17.1120 N   0  0  0  0  0  0  0  0  0  0  0  0
  -39.6970  -14.2230   18.4310 N   0  0  0  0  0  0  0  0  0  0  0  0
  -39.5620  -12.3220   19.9030 C   0  0  0  0  0  0  0  0  0  0  0  0
  -38.3410  -11.8920   20.4680 C   0  0  0  0  0  3  0  0  0  0  0  0
  -38.3100  -11.3170   21.7560 C   0  0  0  0  0  3  0  0  0  0  0  0
  -39.5080  -11.1630   22.4920 C   0  0  0  0  0  0  0  0  0  0  0  0
  -40.7180  -11.6170   21.9370 C   0  0  0  0  0  3  0  0  0  0  0  0
  -40.7450  -12.1960   20.6570 C   0  0  0  0  0  3  0  0  0  0  0  0
  -39.5720  -10.6380   23.7610 O   0  0  0  0  0  0  0  0  0  0  0  0
  -39.3300   -9.3100   23.9990 C   0  0  0  0  0  0  0  0  0  0  0  0
  -40.3160   -8.3210   23.7910 C   0  0  0  0  0  3  0  0  0  0  0  0
  -40.0450   -6.9760   24.1180 C   0  0  0  0  0  3  0  0  0  0  0  0
  -38.7960   -6.6200   24.6590 C   0  0  0  0  0  0  0  0  0  0  0  0
  -37.8150   -7.6040   24.8720 C   0  0  0  0  0  3  0  0  0  0  0  0
  -38.0840   -8.9460   24.5460 C   0  0  0  0  0  0  0  0  0  0  0  0
  -37.1430   -9.8920   24.7740 F   0  0  0  0  0  0  0  0  0  0  0  0
  -38.5380   -5.3300   24.9820 F   0  0  0  0  0  0  0  0  0  0  0  0
  -39.6760  -10.8050   16.9800 C   0  0  0  0  0  0  0  0  0  0  0  0
  -38.9610  -10.0260   17.7820 N   0  0  0  0  0  0  0  0  0  0  0  0
  -40.2620  -10.3450   16.0010 O   0  0  0  0  0  0  0  0  0  0  0  0
  -38.4600  -10.4030   18.5730 H   0  0  0  0  0  0  0  0  0  0  0  0
  -38.9100   -9.0350   17.6010 H   0  0  0  0  0  0  0  0  0  0  0  0
  -40.0470  -13.3030   14.9870 N   0  0  0  0  0  0  0  0  0  0  0  0
  -40.1400  -12.4390   14.4620 H   0  0  0  0  0  0  0  0  0  0  0  0
  -40.2730  -14.1210   14.4390 H   0  0  0  0  0  0  0  0  0  0  0  0
  -33.8420  -18.9720   14.2770 N   0  0  0  0  0  0  0  0  0  0  0  0
  -34.0340  -19.6220   15.0330 H   0  0  0  0  0  0  0  0  0  0  0  0
  -33.0340  -18.4100   14.5120 H   0  0  0  0  0  0  0  0  0  0  0  0
  -33.3440  -16.7600   12.8430 N   0  0  0  0  0  0  0  0  0  0  0  0
  -32.8130  -17.6160   12.9720 H   0  0  0  0  0  0  0  0  0  0  0  0
  -33.1990  -16.4020   11.9070 H   0  0  0  0  0  0  0  0  0  0  0  0
  -35.5860  -14.8740   12.0790 O   0  0  0  0  0  0  0  0  0  0  0  0
  -34.7930  -14.6970   10.8180 C   0  0  0  0  0  2  0  0  0  0  0  0
  -33.4770  -13.7500   10.7670 C   0  0  0  0  0  2  0  0  0  0  0  0
  -33.5400  -12.3720    9.9300 C   0  0  0  0  0  2  0  0  0  0  0  0
  -33.5980  -11.0110   10.5780 O   0  0  0  0  0  0  0  0  0  0  0  0
  -39.4630   -7.2190    8.5860 C   0  0  0  0  0  0  0  0  0  0  0  0
  -34.8700  -10.4880   10.8980 C   0  0  0  0  0  0  0  0  0  0  0  0
  -39.0300   -7.4410   11.0030 C   0  0  0  0  0  3  0  0  0  0  0  0
  -37.3230   -9.2230   11.6770 C   0  0  0  0  0  0  0  0  0  0  0  0
  -38.2750   -9.2790    9.3760 C   0  0  0  0  0  2  0  0  0  0  0  0
  -37.1400   -9.6090   10.3430 C   0  0  0  0  0  0  0  0  0  0  0  0
  -35.9250  -10.2560    9.9500 C   0  0  0  0  0  3  0  0  0  0  0  0
  -35.1430  -10.1490   12.2410 C   0  0  0  0  0  3  0  0  0  0  0  0
  -36.3330   -9.5060   12.6260 C   0  0  0  0  0  3  0  0  0  0  0  0
  -38.6100   -8.5080   12.0430 C   0  0  0  0  0  2  0  0  0  0  0  0
  -38.9220   -7.9550    9.6000 N   0  0  0  0  0  0  0  0  0  0  0  0
  -40.0620   -6.1570    8.8080 O   0  0  0  0  0  0  0  0  0  0  0  0
  -38.2150   -6.1460   11.2470 C   0  0  0  0  0  0  0  0  0  0  0  0
  -38.4450   -5.4920   12.4000 N   0  0  0  0  0  0  0  0  0  0  0  0
  -37.3870   -5.7590   10.4200 O   0  0  0  0  0  0  0  0  0  0  0  0
  -39.1460   -5.8690   13.0230 H   0  0  0  0  0  0  0  0  0  0  0  0
  -38.4590   -2.9060   14.9280 C   0  0  0  0  0  0  0  0  0  0  0  0
  -37.7670   -4.2750   12.8480 C   0  0  0  0  0  3  0  0  0  0  0  0
  -36.4760   -4.6150   13.6270 C   0  0  0  0  0  2  0  0  0  0  0  0
  -36.6910   -4.7040   15.1420 C   0  0  0  0  0  2  0  0  0  0  0  0
  -37.2310   -3.3780   15.6880 C   0  0  0  0  0  2  0  0  0  0  0  0
  -38.7200   -3.3380   13.6020 C   0  0  0  0  0  0  0  0  0  0  0  0
  -39.8950   -2.8950   12.9550 C   0  0  0  0  0  3  0  0  0  0  0  0
  -40.7980   -2.0370   13.6120 C   0  0  0  0  0  3  0  0  0  0  0  0
  -40.5280   -1.6020   14.9200 C   0  0  0  0  0  3  0  0  0  0  0  0
  -39.3580   -2.0310   15.5730 C   0  0  0  0  0  3  0  0  0  0  0  0
  -39.3740   -7.6880    7.1020 C   0  0  0  0  0  3  0  0  0  0  0  0
  -40.5200   -7.1070    6.3860 N   0  0  0  0  0  0  0  0  0  0  0  0
  -41.6110   -7.7900    6.0160 C   0  0  0  0  0  0  0  0  0  0  0  0
  -41.7310   -9.0070    6.1850 O   0  0  0  0  0  0  0  0  0  0  0  0
  -40.5180   -6.1060    6.2690 H   0  0  0  0  0  0  0  0  0  0  0  0
  -43.8780   -6.7590    6.3690 C   0  0  0  0  0  1  0  0  0  0  0  0
  -42.7520   -6.9960    5.3500 C   0  0  0  0  0  3  0  0  0  0  0  0
  -42.4260   -7.5590    2.9810 C   0  0  0  0  0  1  0  0  0  0  0  0
  -43.3030   -7.6560    4.1460 N   0  0  0  0  0  0  0  0  0  0  0  0
  -44.2040   -7.2570    3.8970 H   0  0  0  0  0  0  0  0  0  0  0  0
  -38.0190   -7.2830    6.4030 C   0  0  1  0  0  0  0  0  0  0  0  0
  -37.6080   -5.8140    6.6530 C   0  0  0  0  0  1  0  0  0  0  0  0
  -36.8610   -8.1880    6.8820 C   0  0  0  0  0  1  0  0  0  0  0  0
  -38.1390   -7.4930    4.8740 C   0  0  0  0  0  1  0  0  0  0  0  0
  2  3  2  0
  3  1  1  0
  3 16  1  0
  4  1  2  0
  4 46  1  0
  5  4  1  0
  6  5  2  0
  6  2  1  0
  7 13  1  0
  9 10  1  0
  9  8  1  0
 11 10  1  0
 11 21  1  0
 11 12  1  0
 13  8  1  0
 13 12  1  0
 14  7  2  0
 15 16  1  0
 16  7  1  0
 17 15  2  0
 18 21  1  0
 18 19  2  0
 19 20  1  0
 20 23  1  0
 21 22  1  0
 22 20  2  0
 23 24  2  0
 23 28  1  0
 24 25  1  0
 25 26  2  0
 26 29  1  0
 27 26  1  0
 28 27  2  0
 29 30  1  0
 30 35  1  0
 31 30  2  0
 31 32  1  0
 32 33  2  0
 33 34  1  0
 33 37  1  0
 35 36  1  0
 35 34  2  0
 38 19  1  0
 38 39  1  0
 39 41  1  0
 40 38  2  0
 42 39  1  0
 43 18  1  0
 44 43  1  0
 45 43  1  0
 46 48  1  0
 46 47  1  0
 49 50  1  0
 49  5  1  0
 51 49  1  0
 52  6  1  0
 53 52  1  0
 54 53  1  0
 55 56  1  0
 55 54  1  0
 56 58  1  0
 57 68  2  0
 57 67  1  0
 58 64  1  0
 59 69  1  0
 59 66  1  0
 60 66  1  0
 60 65  1  0
 61 67  1  0
 61 62  1  0
 62 60  2  0
 63 62  1  0
 63 58  2  0
 64 65  2  0
 67 59  1  0
 69 70  1  0
 70 72  1  0
 71 69  2  0
 73 82  1  0
 73 77  1  0
 74 70  1  0
 74 78  1  0
 74 75  1  0
 75 76  1  0
 76 77  1  0
 78 73  2  0
 79 78  1  0
 79 80  2  0
 80 81  1  0
 81 82  2  0
 83 57  1  0
 84 83  1  0
 85 86  2  0
 85 84  1  0
 87 84  1  0
 89 85  1  0
 89 88  1  0
 90 91  1  0
 91 89  1  0
 92 91  1  0
 93 94  1  6
 93 95  1  0
 93 83  1  0
 96 93  1  0
M  ISO  4   7 100  16 100  55 101  56 101
M  END
>  <TORSDO>  (8) 
F 22

>  <SCORE>  (8) 
-1.364

>  <name>  (8) 
7

>  <ligand_id>  (8) 
7

>  <original_smiles>  (8) 
[H]C(=O)N(C(=O)N1C([H])([H])C([H])([H])C([H])([H])C([H])(n2nc(-c3c([H])c([H])c(Oc4c([H])c([H])c(F)c([H])c4F)c([H])c3[H])c(C(=O)N([H])[H])c2N([H])[H])C1([H])[H])c1c([H])c(OC([H])([H])C([H])([H])C([H])([H])Oc2c([H])c([H])c3c(c2[H])C([H])([H])N(C(=O)C([H])(N([H])C(=O)C([H])(N([H])C([H])([H])[H])C([H])([H])[H])C(C([H])([H])[H])(C([H])([H])[H])C([H])([H])[H])C([H])(C(=O)N([H])C2([H])c4c([H])c([H])c([H])c([H])c4C([H])([H])C([H])([H])C2([H])[H])C3([H])[H])c(N([H])[H])c(N([H])[H])c1[H]

>  <smiles>  (8) 
[H]C(=O)N(C(=O)N1C([H])([H])C([H])([H])C([H])([H])C([H])(n2nc(-c3c([H])c([H])c(Oc4c([H])c([H])c(F)c([H])c4F)c([H])c3[H])c(C(=O)N([H])[H])c2N([H])[H])C1([H])[H])c1c([H])c(OC([H])([H])C([H])([H])C([H])([H])Oc2c([H])c([H])c3c(c2[H])C([H])([H])N(C(=O)C([H])(N([H])C(=O)C([H])(N([H])C([H])([H])[H])C([H])([H])[H])C(C([H])([H])[H])(C([H])([H])[H])C([H])([H])[H])C([H])(C(=O)N([H])C2([H])c4c([H])c([H])c([H])c([H])c4C([H])([H])C([H])([H])C2([H])[H])C3([H])[H])c(N([H])[H])c(N([H])[H])c1[H]

$$$$
8:0:0
     RDKit          3D

 95104  0  0  1  0  0  0  0  0999 V2000
  -27.9640  -21.5030   20.7210 C   0  0  0  0  0  0  0  0  0  0  0  0
  -27.5740  -22.9700   21.0010 C   0  0  0  0  0  2  0  0  0  0  0  0
  -29.7150  -22.7920   20.0260 C   0  0  0  0  0  2  0  0  0  0  0  0
  -28.5290  -23.8600   20.1810 C   0  0  0  0  0  3  0  0  0  0  0  0
  -29.1900  -21.3650   20.1780 N   0  0  0  0  0  0  0  0  0  0  0  0
  -27.1880  -20.5770   20.9750 O   0  0  0  0  0  0  0  0  0  0  0  0
  -31.0770  -17.6440   18.7300 C   0  0  0  0  0  3  0  0  0  0  0  0
  -31.1290  -18.8540   18.0240 C   0  0  0  0  0  3  0  0  0  0  0  0
  -29.7380  -18.7570   20.4230 C   0  0  0  0  0  3  0  0  0  0  0  0
  -29.8030  -20.0570   19.7240 C   0  0  0  0  0  0  0  0  0  0  0  0
  -30.3600  -17.5150   19.9370 C   0  0  0  0  0  0  0  0  0  0  0  0
  -30.4700  -20.0150   18.4680 C   0  0  0  0  0  0  0  0  0  0  0  0
  -30.9710  -14.9740   20.2240 C   0  0  0  0  0  0  0  0  0  0  0  0
  -30.7270  -12.6910   19.2450 C   0  0  0  0  0  2  0  0  0  0  0  0
  -29.8110  -12.8090   18.0080 C   0  0  0  0  0  2  0  0  0  0  0  0
  -28.3300  -12.6660   18.4170 C   0  0  0  0  0  2  0  0  0  0  0  0
  -27.9640  -13.5290   19.6610 C   0  0  0  0  0  3  0  0  0  0  0  0
  -29.0200  -13.4370   20.7840 C   0  0  0  0  0  2  0  0  0  0  0  0
  -30.3240  -13.7570   20.1940 N   0  0  0  0  0  0  0  0  0  0  0  0
  -32.1460  -15.0330   19.8550 O   0  0  0  0  0  0  0  0  0  0  0  0
  -30.2430  -16.1340   20.5140 N   0  0  0  0  0  0  0  0  0  0  0  0
  -29.3930  -15.9580   21.0300 H   0  0  0  0  0  0  0  0  0  0  0  0
  -25.6000  -14.1350   20.4450 C   0  0  0  0  0  0  0  0  0  0  0  0
  -24.5260  -13.3690   20.8120 C   0  0  0  0  0  0  0  0  0  0  0  0
  -24.9640  -12.0110   20.7450 C   0  0  0  0  0  0  0  0  0  0  0  0
  -26.6210  -13.2440   20.1610 N   0  0  0  0  0  0  0  0  0  0  0  0
  -26.2490  -11.9590   20.4050 N   0  0  0  0  0  0  0  0  0  0  0  0
  -24.2150  -10.7600   20.9240 C   0  0  0  0  0  0  0  0  0  0  0  0
  -24.5900   -9.8070   21.8960 C   0  0  0  0  0  3  0  0  0  0  0  0
  -23.8460   -8.6160   22.0520 C   0  0  0  0  0  3  0  0  0  0  0  0
  -22.7160   -8.3700   21.2370 C   0  0  0  0  0  0  0  0  0  0  0  0
  -22.3660   -9.3100   20.2540 C   0  0  0  0  0  3  0  0  0  0  0  0
  -23.1090  -10.4920   20.0940 C   0  0  0  0  0  3  0  0  0  0  0  0
  -21.9470   -7.2340   21.3050 O   0  0  0  0  0  0  0  0  0  0  0  0
  -21.7500   -6.5670   22.4880 C   0  0  0  0  0  0  0  0  0  0  0  0
  -21.1020   -7.1710   23.5880 C   0  0  0  0  0  3  0  0  0  0  0  0
  -20.8580   -6.4240   24.7580 C   0  0  0  0  0  3  0  0  0  0  0  0
  -21.2510   -5.0740   24.8280 C   0  0  0  0  0  0  0  0  0  0  0  0
  -21.8940   -4.4700   23.7340 C   0  0  0  0  0  3  0  0  0  0  0  0
  -22.1410   -5.2150   22.5680 C   0  0  0  0  0  0  0  0  0  0  0  0
  -22.7400   -4.6180   21.5080 F   0  0  0  0  0  0  0  0  0  0  0  0
  -21.0120   -4.3590   25.9520 F   0  0  0  0  0  0  0  0  0  0  0  0
  -23.1460  -13.8710   21.1250 C   0  0  0  0  0  0  0  0  0  0  0  0
  -22.4270  -13.1710   22.0000 N   0  0  0  0  0  0  0  0  0  0  0  0
  -22.7150  -14.9140   20.6360 O   0  0  0  0  0  0  0  0  0  0  0  0
  -22.8010  -12.3340   22.4230 H   0  0  0  0  0  0  0  0  0  0  0  0
  -21.4960  -13.4760   22.2530 H   0  0  0  0  0  0  0  0  0  0  0  0
  -25.7830  -15.5060   20.3080 N   0  0  0  0  0  0  0  0  0  0  0  0
  -25.0180  -16.1590   20.4460 H   0  0  0  0  0  0  0  0  0  0  0  0
  -26.6140  -15.9600   19.9510 H   0  0  0  0  0  0  0  0  0  0  0  0
  -30.4320  -21.0700   17.5590 N   0  0  0  0  0  0  0  0  0  0  0  0
  -30.6030  -20.8570   16.5800 H   0  0  0  0  0  0  0  0  0  0  0  0
  -29.6660  -21.7270   17.6640 H   0  0  0  0  0  0  0  0  0  0  0  0
  -28.7460  -25.3360   20.8350 C   0  0  0  0  0  2  0  0  0  0  0  0
  -28.7100  -26.6600   20.1410 O   0  0  0  0  0  0  0  0  0  0  0  0
  -24.7350  -31.9200   23.2460 C   0  0  0  0  0  0  0  0  0  0  0  0
  -27.5550  -27.4640   20.1870 C   0  0  0  0  0  0  0  0  0  0  0  0
  -23.6130  -30.5060   21.5640 C   0  0  0  0  0  3  0  0  0  0  0  0
  -25.1370  -29.0030   20.1620 C   0  0  0  0  0  0  0  0  0  0  0  0
  -26.1410  -30.9070   21.4240 C   0  0  0  0  0  2  0  0  0  0  0  0
  -26.2810  -29.5280   20.7800 C   0  0  0  0  0  0  0  0  0  0  0  0
  -27.4950  -28.7690   20.7800 C   0  0  0  0  0  3  0  0  0  0  0  0
  -26.3880  -26.9930   19.5580 C   0  0  0  0  0  3  0  0  0  0  0  0
  -25.1930  -27.7430   19.5440 C   0  0  0  0  0  3  0  0  0  0  0  0
  -23.8760  -29.8440   20.1840 C   0  0  0  0  0  2  0  0  0  0  0  0
  -24.8510  -31.1270   22.1400 N   0  0  0  0  0  0  0  0  0  0  0  0
  -23.6300  -32.1540   23.7570 O   0  0  0  0  0  0  0  0  0  0  0  0
  -22.9640  -29.4600   22.5040 C   0  0  0  0  0  0  0  0  0  0  0  0
  -21.6390  -29.2720   22.3730 N   0  0  0  0  0  0  0  0  0  0  0  0
  -23.6510  -28.8210   23.3050 O   0  0  0  0  0  0  0  0  0  0  0  0
  -21.1390  -29.8520   21.7150 H   0  0  0  0  0  0  0  0  0  0  0  0
  -18.2700  -28.0450   22.8620 C   0  0  0  0  0  0  0  0  0  0  0  0
  -20.8300  -28.2980   23.1100 C   0  0  0  0  0  3  0  0  0  0  0  0
  -20.9280  -26.8950   22.4670 C   0  0  0  0  0  2  0  0  0  0  0  0
  -19.8090  -26.6110   21.4580 C   0  0  0  0  0  2  0  0  0  0  0  0
  -18.4390  -26.7240   22.1290 C   0  0  0  0  0  2  0  0  0  0  0  0
  -19.3930  -28.7910   23.3090 C   0  0  0  0  0  0  0  0  0  0  0  0
  -19.1750  -30.0270   23.9540 C   0  0  0  0  0  3  0  0  0  0  0  0
  -17.8720  -30.5180   24.1530 C   0  0  0  0  0  3  0  0  0  0  0  0
  -16.7620  -29.7720   23.7150 C   0  0  0  0  0  3  0  0  0  0  0  0
  -16.9660  -28.5370   23.0730 C   0  0  0  0  0  3  0  0  0  0  0  0
  -25.9810  -32.5860   23.9060 C   0  0  0  0  0  3  0  0  0  0  0  0
  -26.4730  -31.8240   25.1980 C   0  0  1  0  0  0  0  0  0  0  0  0
  -25.3530  -31.5430   26.2270 C   0  0  0  0  0  1  0  0  0  0  0  0
  -27.1130  -30.4700   24.8150 C   0  0  0  0  0  1  0  0  0  0  0  0
  -27.5720  -32.6500   25.9080 C   0  0  0  0  0  1  0  0  0  0  0  0
  -25.6270  -33.9750   24.2320 N   0  0  0  0  0  0  0  0  0  0  0  0
  -25.9380  -35.0360   23.4790 C   0  0  0  0  0  0  0  0  0  0  0  0
  -26.6200  -34.9520   22.4520 O   0  0  0  0  0  0  0  0  0  0  0  0
  -25.0210  -34.1100   25.0270 H   0  0  0  0  0  0  0  0  0  0  0  0
  -24.1640  -36.7860   23.1020 C   0  0  0  0  0  1  0  0  0  0  0  0
  -25.4080  -36.4130   23.9270 C   0  0  0  0  0  3  0  0  0  0  0  0
  -27.4990  -37.3690   24.7930 C   0  0  0  0  0  1  0  0  0  0  0  0
  -26.4130  -37.4930   23.8260 N   0  0  0  0  0  0  0  0  0  0  0  0
  -25.9770  -38.4010   23.9550 H   0  0  0  0  0  0  0  0  0  0  0  0
  1  6  2  0
  1  2  1  0
  3  5  1  0
  3  4  1  0
  4 54  1  0
  4  2  1  0
  5  1  1  0
  7 11  1  0
  8 12  1  0
  8  7  2  0
 10  5  1  0
 10  9  1  0
 11  9  2  0
 11 21  1  0
 12 10  2  0
 13 21  1  0
 14 19  1  0
 15 16  1  0
 15 14  1  0
 17 16  1  0
 17 26  1  0
 17 18  1  0
 19 13  1  0
 19 18  1  0
 20 13  2  0
 21 22  1  0
 23 24  2  0
 24 43  1  0
 25 24  1  0
 25 28  1  0
 26 27  1  0
 26 23  1  0
 27 25  2  0
 28 29  1  0
 29 30  2  0
 31 34  1  0
 31 30  1  0
 32 31  2  0
 33 32  1  0
 33 28  2  0
 34 35  1  0
 35 40  2  0
 35 36  1  0
 36 37  2  0
 37 38  1  0
 38 42  1  0
 39 38  2  0
 40 39  1  0
 41 40  1  0
 43 44  1  0
 44 47  1  0
 44 46  1  0
 45 43  2  0
 48 23  1  0
 48 49  1  0
 50 48  1  0
 51 53  1  0
 51 12  1  0
 52 51  1  0
 55 57  1  0
 55 54  1  0
 56 67  2  0
 57 62  1  0
 58 66  1  0
 58 68  1  0
 59 65  1  0
 59 61  1  0
 60 66  1  0
 61 62  2  0
 61 60  1  0
 63 57  2  0
 64 63  1  0
 64 59  2  0
 65 58  1  0
 66 56  1  0
 68 70  2  0
 69 68  1  0
 71 69  1  0
 72 81  2  0
 72 77  1  0
 73 69  1  0
 73 77  1  0
 74 73  1  0
 75 76  1  0
 75 74  1  0
 76 72  1  0
 77 78  2  0
 78 79  1  0
 80 79  2  0
 81 80  1  0
 82 56  1  0
 82 87  1  0
 82 83  1  0
 83 86  1  1
 83 84  1  0
 85 83  1  0
 87 90  1  0
 88 92  1  0
 88 87  1  0
 89 88  2  0
 92 91  1  0
 94 92  1  0
 94 95  1  0
 94 93  1  0
M  ISO  4  13 100  21 100  54 101  55 101
M  END
>  <TORSDO>  (9) 
F 19

>  <SCORE>  (9) 
-13.403

>  <name>  (9) 
8

>  <ligand_id>  (9) 
8

>  <original_smiles>  (9) 
[H]c1c([H])c([H])c2c(c1[H])C([H])([H])C([H])([H])C([H])([H])C2([H])N([H])C(=O)C1([H])N(C(=O)C([H])(N([H])C(=O)C([H])(N([H])C([H])([H])[H])C([H])([H])[H])C(C([H])([H])[H])(C([H])([H])[H])C([H])([H])[H])C([H])([H])c2c([H])c(OC([H])([H])C3([H])C([H])([H])C(=O)N(c4c([H])c(N([H])C(=O)N5C([H])([H])C([H])([H])C([H])([H])C([H])(n6nc(-c7c([H])c([H])c(Oc8c([H])c([H])c(F)c([H])c8F)c([H])c7[H])c(C(=O)N([H])[H])c6N([H])[H])C5([H])[H])c([H])c([H])c4N([H])[H])C3([H])[H])c([H])c([H])c2C1([H])[H]

>  <smiles>  (9) 
[H]c1c([H])c([H])c2c(c1[H])C([H])([H])C([H])([H])C([H])([H])C2([H])N([H])C(=O)C1([H])N(C(=O)C([H])(N([H])C(=O)C([H])(N([H])C([H])([H])[H])C([H])([H])[H])C(C([H])([H])[H])(C([H])([H])[H])C([H])([H])[H])C([H])([H])c2c([H])c(OC([H])([H])C3([H])C([H])([H])C(=O)N(c4c([H])c(N([H])C(=O)N5C([H])([H])C([H])([H])C([H])([H])C([H])(n6nc(-c7c([H])c([H])c(Oc8c([H])c([H])c(F)c([H])c8F)c([H])c7[H])c(C(=O)N([H])[H])c6N([H])[H])C5([H])[H])c([H])c([H])c4N([H])[H])C3([H])[H])c([H])c([H])c2C1([H])[H]

$$$$
9:0:0
     RDKit          3D

103112  0  0  1  0  0  0  0  0999 V2000
  -28.4810  -20.8510   20.9510 C   0  0  0  0  0  2  0  0  0  0  0  0
  -31.0790  -17.8870   20.6600 C   0  0  0  0  0  3  0  0  0  0  0  0
  -28.3250  -18.2510   20.8170 C   0  0  0  0  0  3  0  0  0  0  0  0
  -30.2830  -16.7190   20.8030 C   0  0  0  0  0  0  0  0  0  0  0  0
  -29.1310  -19.4260   20.7340 C   0  0  0  0  0  0  0  0  0  0  0  0
  -30.5300  -19.2040   20.6000 C   0  0  0  0  0  0  0  0  0  0  0  0
  -28.8740  -16.9350   20.8410 C   0  0  0  0  0  0  0  0  0  0  0  0
  -28.0060  -15.8390   20.9460 N   0  0  0  0  0  0  0  0  0  0  0  0
  -27.0120  -15.9540   21.1150 H   0  0  0  0  0  0  0  0  0  0  0  0
  -28.3570  -14.9230   21.2180 H   0  0  0  0  0  0  0  0  0  0  0  0
  -31.4020  -20.2850   20.4590 N   0  0  0  0  0  0  0  0  0  0  0  0
  -32.3670  -20.1210   20.2010 H   0  0  0  0  0  0  0  0  0  0  0  0
  -31.0380  -21.1450   20.0520 H   0  0  0  0  0  0  0  0  0  0  0  0
  -30.8910  -15.3370   21.0430 C   0  0  0  0  0  0  0  0  0  0  0  0
  -31.1370  -14.9160   22.2200 N   0  0  0  0  0  0  0  0  0  0  0  0
  -30.8800  -15.5850   22.9350 H   0  0  0  0  0  0  0  0  0  0  0  0
  -31.1990  -14.4180   19.8500 C   0  0  0  0  0  0  0  0  0  0  0  0
  -30.7870  -12.2560   18.6860 C   0  0  0  0  0  2  0  0  0  0  0  0
  -29.7660  -12.4420   17.5490 C   0  0  0  0  0  2  0  0  0  0  0  0
  -28.3220  -12.3350   18.0760 C   0  0  0  0  0  2  0  0  0  0  0  0
  -28.0830  -13.1790   19.3560 C   0  0  0  0  0  3  0  0  0  0  0  0
  -29.2040  -12.9340   20.3860 C   0  0  0  0  0  2  0  0  0  0  0  0
  -30.4940  -13.2440   19.7440 N   0  0  0  0  0  0  0  0  0  0  0  0
  -32.1550  -14.6860   19.1150 O   0  0  0  0  0  0  0  0  0  0  0  0
  -25.7500  -13.8270   20.2270 C   0  0  0  0  0  0  0  0  0  0  0  0
  -24.6930  -13.0680   20.6640 C   0  0  0  0  0  0  0  0  0  0  0  0
  -25.1240  -11.7100   20.5880 C   0  0  0  0  0  0  0  0  0  0  0  0
  -26.7610  -12.9260   19.9250 N   0  0  0  0  0  0  0  0  0  0  0  0
  -26.3900  -11.6480   20.1910 N   0  0  0  0  0  0  0  0  0  0  0  0
  -24.3880  -10.4600   20.8200 C   0  0  0  0  0  0  0  0  0  0  0  0
  -24.8000   -9.5250   21.7950 C   0  0  0  0  0  3  0  0  0  0  0  0
  -24.0590   -8.3430   22.0120 C   0  0  0  0  0  3  0  0  0  0  0  0
  -22.8920   -8.0870   21.2540 C   0  0  0  0  0  0  0  0  0  0  0  0
  -22.4990   -9.0110   20.2690 C   0  0  0  0  0  3  0  0  0  0  0  0
  -23.2400  -10.1840   20.0490 C   0  0  0  0  0  3  0  0  0  0  0  0
  -22.1250   -6.9530   21.3780 O   0  0  0  0  0  0  0  0  0  0  0  0
  -21.9700   -6.3180   22.5830 C   0  0  0  0  0  0  0  0  0  0  0  0
  -21.4400   -6.9790   23.7120 C   0  0  0  0  0  3  0  0  0  0  0  0
  -21.2280   -6.2690   24.9090 C   0  0  0  0  0  3  0  0  0  0  0  0
  -21.5430   -4.8980   24.9810 C   0  0  0  0  0  0  0  0  0  0  0  0
  -22.0680   -4.2370   23.8580 C   0  0  0  0  0  3  0  0  0  0  0  0
  -22.2790   -4.9440   22.6610 C   0  0  0  0  0  0  0  0  0  0  0  0
  -22.7660   -4.2970   21.5750 F   0  0  0  0  0  0  0  0  0  0  0  0
  -21.3340   -4.2130   26.1290 F   0  0  0  0  0  0  0  0  0  0  0  0
  -23.3320  -13.5750   21.0440 C   0  0  0  0  0  0  0  0  0  0  0  0
  -22.6680  -12.8990   21.9750 N   0  0  0  0  0  0  0  0  0  0  0  0
  -22.8690  -14.5990   20.5510 O   0  0  0  0  0  0  0  0  0  0  0  0
  -23.0560  -12.0680   22.3950 H   0  0  0  0  0  0  0  0  0  0  0  0
  -21.7590  -13.2180   22.2700 H   0  0  0  0  0  0  0  0  0  0  0  0
  -25.9310  -15.1940   20.0520 N   0  0  0  0  0  0  0  0  0  0  0  0
  -25.2280  -15.8560   20.3590 H   0  0  0  0  0  0  0  0  0  0  0  0
  -26.8680  -15.5840   20.1040 H   0  0  0  0  0  0  0  0  0  0  0  0
  -28.5330  -23.2090   18.0810 C   0  0  0  0  0  3  0  0  0  0  0  0
  -28.8410  -24.1360   19.1270 C   0  0  0  0  0  0  0  0  0  0  0  0
  -28.3820  -21.9560   18.6140 C   0  0  0  0  0  0  0  0  0  0  0  0
  -28.9400  -23.3310   20.2500 C   0  0  0  0  0  0  0  0  0  0  0  0
  -28.6460  -21.9750   19.9720 N   0  0  0  0  0  0  0  0  0  0  0  0
  -29.2400  -23.7160   21.5230 O   0  0  0  0  0  0  0  0  0  0  0  0
  -29.4080  -24.6580   21.5130 H   0  0  0  0  0  0  0  0  0  0  0  0
  -27.9970  -20.8050   17.9990 O   0  0  0  0  0  0  0  0  0  0  0  0
  -27.7390  -21.0230   17.1090 H   0  0  0  0  0  0  0  0  0  0  0  0
  -29.0730  -25.6580   18.8950 C   0  0  0  0  0  2  0  0  0  0  0  0
  -28.7470  -26.6110   19.9460 O   0  0  0  0  0  0  0  0  0  0  0  0
  -24.8090  -31.6940   23.1010 C   0  0  0  0  0  0  0  0  0  0  0  0
  -27.5570  -27.3300   19.9240 C   0  0  0  0  0  0  0  0  0  0  0  0
  -23.6360  -30.2890   21.4390 C   0  0  0  0  0  3  0  0  0  0  0  0
  -25.1240  -28.8060   19.9840 C   0  0  0  0  0  0  0  0  0  0  0  0
  -26.1560  -30.6970   21.2490 C   0  0  0  0  0  2  0  0  0  0  0  0
  -26.2740  -29.3380   20.5810 C   0  0  0  0  0  0  0  0  0  0  0  0
  -27.4870  -28.6020   20.5520 C   0  0  0  0  0  3  0  0  0  0  0  0
  -26.3790  -26.8150   19.3380 C   0  0  0  0  0  3  0  0  0  0  0  0
  -25.1730  -27.5450   19.3630 C   0  0  0  0  0  3  0  0  0  0  0  0
  -23.8590  -29.6330   20.0530 C   0  0  0  0  0  2  0  0  0  0  0  0
  -24.8850  -30.9110   21.9870 N   0  0  0  0  0  0  0  0  0  0  0  0
  -23.7190  -31.9390   23.6390 O   0  0  0  0  0  0  0  0  0  0  0  0
  -23.0030  -29.2430   22.3850 C   0  0  0  0  0  0  0  0  0  0  0  0
  -21.6850  -29.0150   22.2400 N   0  0  0  0  0  0  0  0  0  0  0  0
  -23.6960  -28.6320   23.2020 O   0  0  0  0  0  0  0  0  0  0  0  0
  -21.1780  -29.5540   21.5530 H   0  0  0  0  0  0  0  0  0  0  0  0
  -18.3530  -27.7010   22.7010 C   0  0  0  0  0  0  0  0  0  0  0  0
  -20.8980  -28.0430   22.9970 C   0  0  0  0  0  3  0  0  0  0  0  0
  -21.0550  -26.6220   22.4050 C   0  0  0  0  0  2  0  0  0  0  0  0
  -19.9730  -26.2720   21.3790 C   0  0  0  0  0  2  0  0  0  0  0  0
  -18.5800  -26.3690   22.0090 C   0  0  0  0  0  2  0  0  0  0  0  0
  -19.4420  -28.4980   23.1470 C   0  0  0  0  0  0  0  0  0  0  0  0
  -19.1740  -29.7470   23.7480 C   0  0  0  0  0  3  0  0  0  0  0  0
  -17.8530  -30.1990   23.9140 C   0  0  0  0  0  3  0  0  0  0  0  0
  -16.7780  -29.4020   23.4820 C   0  0  0  0  0  3  0  0  0  0  0  0
  -17.0290  -28.1550   22.8810 C   0  0  0  0  0  3  0  0  0  0  0  0
  -26.0790  -32.3490   23.7310 C   0  0  0  0  0  3  0  0  0  0  0  0
  -25.7250  -33.7220   24.1220 N   0  0  0  0  0  0  0  0  0  0  0  0
  -25.9960  -34.8120   23.3920 C   0  0  0  0  0  0  0  0  0  0  0  0
  -26.6380  -34.7740   22.3380 O   0  0  0  0  0  0  0  0  0  0  0  0
  -25.1550  -33.8300   24.9490 H   0  0  0  0  0  0  0  0  0  0  0  0
  -24.1890  -36.5450   23.1610 C   0  0  0  0  0  1  0  0  0  0  0  0
  -25.4700  -36.1610   23.9170 C   0  0  0  0  0  3  0  0  0  0  0  0
  -27.5950  -37.0970   24.7170 C   0  0  0  0  0  1  0  0  0  0  0  0
  -26.4570  -37.2580   23.8140 N   0  0  0  0  0  0  0  0  0  0  0  0
  -26.0180  -38.1510   24.0200 H   0  0  0  0  0  0  0  0  0  0  0  0
  -26.6450  -31.5500   24.9660 C   0  0  1  0  0  0  0  0  0  0  0  0
  -25.5690  -31.1850   26.0140 C   0  0  0  0  0  1  0  0  0  0  0  0
  -27.3230  -30.2390   24.5080 C   0  0  0  0  0  1  0  0  0  0  0  0
  -27.7450  -32.3850   25.6680 C   0  0  0  0  0  1  0  0  0  0  0  0
  2  4  1  0
  3  7  1  0
  4  7  2  0
  4 14  1  0
  5  3  2  0
  5  1  1  0
  6  2  2  0
  6  5  1  0
  7  8  1  0
  8  9  1  0
  8 10  1  0
 11  6  1  0
 12 11  1  0
 13 11  1  0
 14 15  2  0
 15 16  1  0
 17 14  1  0
 18 23  1  0
 19 20  1  0
 19 18  1  0
 21 20  1  0
 21 28  1  0
 21 22  1  0
 23 17  1  0
 23 22  1  0
 24 17  2  0
 25 26  2  0
 26 45  1  0
 27 26  1  0
 27 30  1  0
 28 29  1  0
 28 25  1  0
 29 27  2  0
 30 31  1  0
 31 32  2  0
 33 36  1  0
 33 32  1  0
 34 33  2  0
 35 34  1  0
 35 30  2  0
 36 37  1  0
 37 42  2  0
 37 38  1  0
 38 39  2  0
 39 40  1  0
 40 44  1  0
 41 40  2  0
 42 41  1  0
 43 42  1  0
 45 46  1  0
 46 49  1  0
 46 48  1  0
 47 45  2  0
 50 52  1  0
 50 25  1  0
 50 51  1  0
 53 55  2  0
 53 54  1  0
 54 56  2  0
 55 57  1  0
 56 58  1  0
 57 56  1  0
 57  1  1  0
 59 58  1  0
 60 55  1  0
 61 60  1  0
 62 54  1  0
 62 63  1  0
 64 75  2  0
 65 63  1  0
 65 70  1  0
 66 74  1  0
 66 76  1  0
 67 73  1  0
 67 69  1  0
 68 74  1  0
 69 68  1  0
 70 69  2  0
 71 72  1  0
 71 65  2  0
 72 67  2  0
 73 66  1  0
 74 64  1  0
 76 78  2  0
 77 76  1  0
 79 77  1  0
 80 89  2  0
 80 85  1  0
 81 77  1  0
 81 85  1  0
 82 81  1  0
 83 84  1  0
 83 82  1  0
 84 80  1  0
 85 86  2  0
 86 87  1  0
 88 87  2  0
 89 88  1  0
 90 64  1  0
 90 91  1  0
 90100  1  0
 91 94  1  0
 92 96  1  0
 92 91  1  0
 93 92  2  0
 96 95  1  0
 98 96  1  0
 98 99  1  0
 98 97  1  0
100103  1  1
100101  1  0
102100  1  0
M  ISO  4  14 100  17 100  62 101  63 101
M  END
>  <TORSDO>  (10) 
F 24

>  <SCORE>  (10) 
-11.918

>  <name>  (10) 
9

>  <ligand_id>  (10) 
9

>  <original_smiles>  (10) 
[H]N=C(C(=O)N1C([H])([H])C([H])([H])C([H])([H])C([H])(n2nc(-c3c([H])c([H])c(Oc4c([H])c([H])c(F)c([H])c4F)c([H])c3[H])c(C(=O)N([H])[H])c2N([H])[H])C1([H])[H])c1c([H])c(N([H])[H])c(C([H])([H])n2c(O[H])c([H])c(C([H])([H])Oc3c([H])c([H])c4c(c3[H])C([H])([H])N(C(=O)C([H])(N([H])C(=O)C([H])(N([H])C([H])([H])[H])C([H])([H])[H])C(C([H])([H])[H])(C([H])([H])[H])C([H])([H])[H])C([H])(C(=O)N([H])C3([H])c5c([H])c([H])c([H])c([H])c5C([H])([H])C([H])([H])C3([H])[H])C4([H])[H])c2O[H])c([H])c1N([H])[H]

>  <smiles>  (10) 
[H]N=C(C(=O)N1C([H])([H])C([H])([H])C([H])([H])C([H])(n2nc(-c3c([H])c([H])c(Oc4c([H])c([H])c(F)c([H])c4F)c([H])c3[H])c(C(=O)N([H])[H])c2N([H])[H])C1([H])[H])c1c([H])c(N([H])[H])c(C([H])([H])n2c(O[H])c([H])c(C([H])([H])Oc3c([H])c([H])c4c(c3[H])C([H])([H])N(C(=O)C([H])(N([H])C(=O)C([H])(N([H])C([H])([H])[H])C([H])([H])[H])C(C([H])([H])[H])(C([H])([H])[H])C([H])([H])[H])C([H])(C(=O)N([H])C3([H])c5c([H])c([H])c([H])c([H])c5C([H])([H])C([H])([H])C3([H])[H])C4([H])[H])c2O[H])c([H])c1N([H])[H]

$$$$
10:0:0
     RDKit          3D

 94102  0  0  1  0  0  0  0  0999 V2000
  -27.5890  -21.8160   20.5000 C   0  0  0  0  0  0  0  0  0  0  0  0
  -28.3510  -20.8580   21.0890 N   0  0  0  0  0  0  0  0  0  0  0  0
  -26.4100  -21.9490   20.8270 O   0  0  0  0  0  0  0  0  0  0  0  0
  -28.2300  -20.8830   22.0900 H   0  0  0  0  0  0  0  0  0  0  0  0
  -29.5770  -18.7890   21.5120 C   0  0  0  0  0  3  0  0  0  0  0  0
  -30.0910  -17.5260   21.1460 C   0  0  0  0  0  3  0  0  0  0  0  0
  -28.3280  -18.9180   19.4450 C   0  0  0  0  0  3  0  0  0  0  0  0
  -28.7440  -19.5420   20.6460 C   0  0  0  0  0  0  0  0  0  0  0  0
  -29.7850  -16.9510   19.8900 C   0  0  0  0  0  0  0  0  0  0  0  0
  -28.8210  -17.6360   19.0810 C   0  0  0  0  0  0  0  0  0  0  0  0
  -28.4350  -17.1100   17.8890 F   0  0  0  0  0  0  0  0  0  0  0  0
  -31.0960  -14.8200   20.0800 C   0  0  0  0  0  0  0  0  0  0  0  0
  -30.7270  -12.5910   19.1190 C   0  0  0  0  0  2  0  0  0  0  0  0
  -29.7860  -12.7700   17.9070 C   0  0  0  0  0  2  0  0  0  0  0  0
  -28.3230  -12.6770   18.3750 C   0  0  0  0  0  2  0  0  0  0  0  0
  -28.0070  -13.5600   19.6160 C   0  0  0  0  0  3  0  0  0  0  0  0
  -29.0870  -13.4130   20.7060 C   0  0  0  0  0  2  0  0  0  0  0  0
  -30.3850  -13.6580   20.0680 N   0  0  0  0  0  0  0  0  0  0  0  0
  -32.3210  -14.8270   20.1950 O   0  0  0  0  0  0  0  0  0  0  0  0
  -30.5460  -15.8410   19.3420 N   0  0  0  0  0  0  0  0  0  0  0  0
  -25.6240  -14.1490   20.3750 C   0  0  0  0  0  0  0  0  0  0  0  0
  -24.5610  -13.3780   20.7440 C   0  0  0  0  0  0  0  0  0  0  0  0
  -25.0180  -12.0250   20.7000 C   0  0  0  0  0  0  0  0  0  0  0  0
  -26.6680  -13.2740   20.1260 N   0  0  0  0  0  0  0  0  0  0  0  0
  -26.3070  -11.9870   20.3790 N   0  0  0  0  0  0  0  0  0  0  0  0
  -24.2810  -10.7690   20.8830 C   0  0  0  0  0  0  0  0  0  0  0  0
  -24.6650   -9.8270   21.8610 C   0  0  0  0  0  3  0  0  0  0  0  0
  -23.9400   -8.6270   22.0210 C   0  0  0  0  0  3  0  0  0  0  0  0
  -22.8060   -8.3690   21.2160 C   0  0  0  0  0  0  0  0  0  0  0  0
  -22.4330   -9.3060   20.2330 C   0  0  0  0  0  3  0  0  0  0  0  0
  -23.1610  -10.4960   20.0720 C   0  0  0  0  0  3  0  0  0  0  0  0
  -22.0460   -7.2290   21.2980 O   0  0  0  0  0  0  0  0  0  0  0  0
  -21.8750   -6.5670   22.4850 C   0  0  0  0  0  0  0  0  0  0  0  0
  -21.2990   -7.1940   23.6130 C   0  0  0  0  0  3  0  0  0  0  0  0
  -21.0760   -6.4520   24.7910 C   0  0  0  0  0  3  0  0  0  0  0  0
  -21.4150   -5.0880   24.8360 C   0  0  0  0  0  0  0  0  0  0  0  0
  -21.9810   -4.4610   23.7150 C   0  0  0  0  0  3  0  0  0  0  0  0
  -22.2120   -5.1990   22.5410 C   0  0  0  0  0  0  0  0  0  0  0  0
  -22.7410   -4.5850   21.4540 F   0  0  0  0  0  0  0  0  0  0  0  0
  -21.1910   -4.3750   25.9660 F   0  0  0  0  0  0  0  0  0  0  0  0
  -23.1670  -13.8610   21.0190 C   0  0  0  0  0  0  0  0  0  0  0  0
  -22.4450  -13.1820   21.8980 N   0  0  0  0  0  0  0  0  0  0  0  0
  -22.7320  -14.8820   20.4860 O   0  0  0  0  0  0  0  0  0  0  0  0
  -22.8160  -12.3590   22.3540 H   0  0  0  0  0  0  0  0  0  0  0  0
  -21.5070  -13.4870   22.1240 H   0  0  0  0  0  0  0  0  0  0  0  0
  -25.7720  -15.5210   20.2070 N   0  0  0  0  0  0  0  0  0  0  0  0
  -24.9790  -16.1380   20.3410 H   0  0  0  0  0  0  0  0  0  0  0  0
  -26.6040  -15.9910   19.8850 H   0  0  0  0  0  0  0  0  0  0  0  0
  -31.9830  -15.4360   17.3320 C   0  0  0  0  0  2  0  0  0  0  0  0
  -31.1940  -16.1950   18.1200 C   0  0  0  0  0  3  0  0  0  0  0  0
  -28.2000  -22.8750   19.5370 C   0  0  0  0  0  2  0  0  0  0  0  0
  -28.2210  -24.3480   20.1040 C   0  0  0  0  0  3  0  0  0  0  0  0
  -28.5880  -25.5240   19.1240 C   0  0  0  0  0  3  0  0  0  0  0  0
  -28.4860  -26.8830   19.6390 O   0  0  0  0  0  0  0  0  0  0  0  0
  -24.5670  -31.8050   23.0550 C   0  0  0  0  0  0  0  0  0  0  0  0
  -27.2840  -27.5820   19.6660 C   0  0  0  0  0  0  0  0  0  0  0  0
  -23.3710  -30.4290   21.3860 C   0  0  0  0  0  3  0  0  0  0  0  0
  -24.8400  -29.0320   19.8250 C   0  0  0  0  0  0  0  0  0  0  0  0
  -25.8740  -30.8980   21.1220 C   0  0  0  0  0  2  0  0  0  0  0  0
  -25.9940  -29.5600   20.4090 C   0  0  0  0  0  0  0  0  0  0  0  0
  -27.2170  -28.8440   20.3230 C   0  0  0  0  0  3  0  0  0  0  0  0
  -26.1040  -27.0840   19.0680 C   0  0  0  0  0  3  0  0  0  0  0  0
  -24.8910  -27.8000   19.1480 C   0  0  0  0  0  3  0  0  0  0  0  0
  -23.5620  -29.8270   19.9690 C   0  0  0  0  0  2  0  0  0  0  0  0
  -24.6250  -31.0570   21.9130 N   0  0  0  0  0  0  0  0  0  0  0  0
  -23.4910  -32.0040   23.6350 O   0  0  0  0  0  0  0  0  0  0  0  0
  -22.7860  -29.3400   22.3160 C   0  0  0  0  0  0  0  0  0  0  0  0
  -21.4690  -29.1020   22.2100 N   0  0  0  0  0  0  0  0  0  0  0  0
  -23.5150  -28.7130   23.0930 O   0  0  0  0  0  0  0  0  0  0  0  0
  -20.9430  -29.6450   21.5420 H   0  0  0  0  0  0  0  0  0  0  0  0
  -18.1710  -27.7040   22.6800 C   0  0  0  0  0  0  0  0  0  0  0  0
  -20.7110  -28.0860   22.9410 C   0  0  0  0  0  3  0  0  0  0  0  0
  -20.8890  -26.6930   22.2930 C   0  0  0  0  0  2  0  0  0  0  0  0
  -19.7890  -26.3500   21.2870 C   0  0  0  0  0  2  0  0  0  0  0  0
  -18.4100  -26.3930   21.9550 C   0  0  0  0  0  2  0  0  0  0  0  0
  -19.2510  -28.5100   23.1310 C   0  0  0  0  0  0  0  0  0  0  0  0
  -18.9690  -29.7350   23.7740 C   0  0  0  0  0  3  0  0  0  0  0  0
  -17.6390  -30.1510   23.9720 C   0  0  0  0  0  3  0  0  0  0  0  0
  -16.5760  -29.3400   23.5450 C   0  0  0  0  0  3  0  0  0  0  0  0
  -16.8420  -28.1200   22.9020 C   0  0  0  0  0  3  0  0  0  0  0  0
  -25.8400  -32.4590   23.6720 C   0  0  0  0  0  3  0  0  0  0  0  0
  -25.4840  -33.8250   24.0860 N   0  0  0  0  0  0  0  0  0  0  0  0
  -25.7710  -34.9290   23.3830 C   0  0  0  0  0  0  0  0  0  0  0  0
  -26.4270  -34.9070   22.3370 O   0  0  0  0  0  0  0  0  0  0  0  0
  -24.8980  -33.9140   24.9040 H   0  0  0  0  0  0  0  0  0  0  0  0
  -23.9790  -36.6750   23.1530 C   0  0  0  0  0  1  0  0  0  0  0  0
  -25.2440  -36.2710   23.9250 C   0  0  0  0  0  3  0  0  0  0  0  0
  -27.3560  -37.1800   24.7870 C   0  0  0  0  0  1  0  0  0  0  0  0
  -26.2400  -37.3640   23.8610 N   0  0  0  0  0  0  0  0  0  0  0  0
  -25.8030  -38.2590   24.0690 H   0  0  0  0  0  0  0  0  0  0  0  0
  -26.4270  -31.6480   24.8910 C   0  0  1  0  0  0  0  0  0  0  0  0
  -25.3770  -31.3170   25.9780 C   0  0  0  0  0  1  0  0  0  0  0  0
  -27.0470  -30.3160   24.4120 C   0  0  0  0  0  1  0  0  0  0  0  0
  -27.5660  -32.4560   25.5600 C   0  0  0  0  0  1  0  0  0  0  0  0
  1  3  2  0
  1  2  1  0
  2  4  1  0
  6  5  1  0
  7  8  1  0
  8  2  1  0
  8  5  2  0
  9  6  2  0
 10  7  2  0
 10  9  1  0
 11 10  1  0
 12 19  2  0
 13 18  1  0
 14 15  1  0
 14 13  1  0
 16 15  1  0
 16 24  1  0
 16 17  1  0
 18 12  1  0
 18 17  1  0
 20  9  1  0
 20 12  1  0
 21 22  2  0
 22 41  1  0
 23 22  1  0
 23 26  1  0
 24 21  1  0
 24 25  1  0
 25 23  2  0
 26 27  1  0
 27 28  2  0
 29 32  1  0
 29 28  1  0
 30 29  2  0
 31 30  1  0
 31 26  2  0
 32 33  1  0
 33 38  2  0
 33 34  1  0
 34 35  2  0
 35 36  1  0
 36 40  1  0
 37 36  2  0
 38 37  1  0
 39 38  1  0
 41 42  1  0
 42 45  1  0
 42 44  1  0
 43 41  2  0
 46 47  1  0
 46 21  1  0
 48 46  1  0
 49 50  2  0
 50 20  1  0
 51 52  1  0
 51  1  1  0
 53 54  1  0
 53 52  2  0
 54 56  1  0
 55 66  2  0
 56 61  1  0
 57 65  1  0
 57 67  1  0
 58 64  1  0
 58 60  1  0
 59 65  1  0
 60 59  1  0
 61 60  2  0
 62 63  1  0
 62 56  2  0
 63 58  2  0
 64 57  1  0
 65 55  1  0
 67 69  2  0
 68 67  1  0
 70 68  1  0
 71 80  2  0
 71 76  1  0
 72 68  1  0
 72 76  1  0
 73 72  1  0
 74 75  1  0
 74 73  1  0
 75 71  1  0
 76 77  2  0
 77 78  1  0
 79 78  2  0
 80 79  1  0
 81 55  1  0
 81 82  1  0
 81 91  1  0
 82 85  1  0
 83 87  1  0
 83 82  1  0
 84 83  2  0
 87 86  1  0
 89 87  1  0
 89 90  1  0
 89 88  1  0
 91 94  1  1
 91 92  1  0
 93 91  1  0
M  ISO  4  12 100  20 100  53 101  54 101
M  END
>  <TORSDO>  (11) 
F 21

>  <SCORE>  (11) 
-11.888

>  <name>  (11) 
10

>  <ligand_id>  (11) 
10

>  <original_smiles>  (11) 
[H]C([H])=C([H])N(C(=O)N1C([H])([H])C([H])([H])C([H])([H])C([H])(n2nc(-c3c([H])c([H])c(Oc4c([H])c([H])c(F)c([H])c4F)c([H])c3[H])c(C(=O)N([H])[H])c2N([H])[H])C1([H])[H])c1c([H])c([H])c(N([H])C(=O)C([H])([H])C([H])([H])C([H])([H])Oc2c([H])c([H])c3c(c2[H])C([H])([H])N(C(=O)C([H])(N([H])C(=O)C([H])(N([H])C([H])([H])[H])C([H])([H])[H])C(C([H])([H])[H])(C([H])([H])[H])C([H])([H])[H])C([H])(C(=O)N([H])C2([H])c4c([H])c([H])c([H])c([H])c4C([H])([H])C([H])([H])C2([H])[H])C3([H])[H])c([H])c1F

>  <smiles>  (11) 
[H]C([H])=C([H])N(C(=O)N1C([H])([H])C([H])([H])C([H])([H])C([H])(n2nc(-c3c([H])c([H])c(Oc4c([H])c([H])c(F)c([H])c4F)c([H])c3[H])c(C(=O)N([H])[H])c2N([H])[H])C1([H])[H])c1c([H])c([H])c(N([H])C(=O)C([H])([H])C([H])([H])C([H])([H])Oc2c([H])c([H])c3c(c2[H])C([H])([H])N(C(=O)C([H])(N([H])C(=O)C([H])(N([H])C([H])([H])[H])C([H])([H])[H])C(C([H])([H])[H])(C([H])([H])[H])C([H])([H])[H])C([H])(C(=O)N([H])C2([H])c4c([H])c([H])c([H])c([H])c4C([H])([H])C([H])([H])C2([H])[H])C3([H])[H])c([H])c1F

$$$$
11:0:0
     RDKit          3D

 93101  0  0  1  0  0  0  0  0999 V2000
  -31.1620  -17.9970   19.8450 C   0  0  0  0  0  3  0  0  0  0  0  0
  -31.0440  -19.3960   19.5880 C   0  0  0  0  0  3  0  0  0  0  0  0
  -28.9090  -17.9940   20.6510 C   0  0  0  0  0  3  0  0  0  0  0  0
  -30.0980  -17.2440   20.4070 C   0  0  0  0  0  0  0  0  0  0  0  0
  -28.7800  -19.3910   20.3910 C   0  0  0  0  0  0  0  0  0  0  0  0
  -29.8720  -20.1500   19.8670 C   0  0  0  0  0  0  0  0  0  0  0  0
  -30.1790  -15.7740   20.8680 C   0  0  0  0  0  0  0  0  0  0  0  0
  -29.8420  -15.5190   22.0650 N   0  0  0  0  0  0  0  0  0  0  0  0
  -29.5590  -16.3640   22.5470 H   0  0  0  0  0  0  0  0  0  0  0  0
  -30.7070  -14.6270   19.9270 C   0  0  0  0  0  0  0  0  0  0  0  0
  -30.3470  -12.4200   18.8240 C   0  0  0  0  0  2  0  0  0  0  0  0
  -29.3210  -12.5720   17.6800 C   0  0  0  0  0  2  0  0  0  0  0  0
  -27.8800  -12.4170   18.2060 C   0  0  0  0  0  2  0  0  0  0  0  0
  -27.6250  -13.2690   19.4760 C   0  0  0  0  0  3  0  0  0  0  0  0
  -28.7530  -13.0610   20.5070 C   0  0  0  0  0  2  0  0  0  0  0  0
  -30.0330  -13.4240   19.8680 N   0  0  0  0  0  0  0  0  0  0  0  0
  -31.7370  -14.8060   19.2680 O   0  0  0  0  0  0  0  0  0  0  0  0
  -25.3080  -13.8990   20.3970 C   0  0  0  0  0  0  0  0  0  0  0  0
  -24.2580  -13.1380   20.8340 C   0  0  0  0  0  0  0  0  0  0  0  0
  -24.6850  -11.7790   20.7320 C   0  0  0  0  0  0  0  0  0  0  0  0
  -26.3110  -13.0040   20.0560 N   0  0  0  0  0  0  0  0  0  0  0  0
  -25.9450  -11.7220   20.3150 N   0  0  0  0  0  0  0  0  0  0  0  0
  -23.9500  -10.5270   20.9500 C   0  0  0  0  0  0  0  0  0  0  0  0
  -24.4220   -9.5390   21.8430 C   0  0  0  0  0  3  0  0  0  0  0  0
  -23.6870   -8.3520   22.0490 C   0  0  0  0  0  3  0  0  0  0  0  0
  -22.4660   -8.1440   21.3640 C   0  0  0  0  0  0  0  0  0  0  0  0
  -22.0120   -9.1220   20.4600 C   0  0  0  0  0  3  0  0  0  0  0  0
  -22.7470  -10.3000   20.2520 C   0  0  0  0  0  3  0  0  0  0  0  0
  -21.6970   -7.0110   21.4820 O   0  0  0  0  0  0  0  0  0  0  0  0
  -21.6880   -6.2660   22.6340 C   0  0  0  0  0  0  0  0  0  0  0  0
  -21.3160   -6.8200   23.8790 C   0  0  0  0  0  3  0  0  0  0  0  0
  -21.2520   -6.0010   25.0230 C   0  0  0  0  0  3  0  0  0  0  0  0
  -21.5490   -4.6290   24.9260 C   0  0  0  0  0  0  0  0  0  0  0  0
  -21.9150   -4.0740   23.6870 C   0  0  0  0  0  3  0  0  0  0  0  0
  -21.9800   -4.8900   22.5430 C   0  0  0  0  0  0  0  0  0  0  0  0
  -22.3120   -4.3450   21.3480 F   0  0  0  0  0  0  0  0  0  0  0  0
  -21.4810   -3.8400   26.0240 F   0  0  0  0  0  0  0  0  0  0  0  0
  -22.8980  -13.6360   21.2330 C   0  0  0  0  0  0  0  0  0  0  0  0
  -22.2310  -12.9360   22.1440 N   0  0  0  0  0  0  0  0  0  0  0  0
  -22.4380  -14.6790   20.7710 O   0  0  0  0  0  0  0  0  0  0  0  0
  -22.6170  -12.0920   22.5400 H   0  0  0  0  0  0  0  0  0  0  0  0
  -21.3230  -13.2510   22.4520 H   0  0  0  0  0  0  0  0  0  0  0  0
  -25.4880  -15.2710   20.2420 N   0  0  0  0  0  0  0  0  0  0  0  0
  -24.7480  -15.9380   20.4330 H   0  0  0  0  0  0  0  0  0  0  0  0
  -26.3230  -15.7020   19.8650 H   0  0  0  0  0  0  0  0  0  0  0  0
  -27.5450  -19.9750   20.6670 N   0  0  0  0  0  0  0  0  0  0  0  0
  -26.7380  -19.3640   20.7380 H   0  0  0  0  0  0  0  0  0  0  0  0
  -27.3290  -20.8400   20.1870 H   0  0  0  0  0  0  0  0  0  0  0  0
  -29.9220  -21.5380   19.5910 O   0  0  0  0  0  0  0  0  0  0  0  0
  -28.9280  -22.5250   20.0100 C   0  0  0  0  0  3  0  0  0  0  0  0
  -29.2320  -24.0340   19.6100 C   0  0  0  0  0  3  0  0  0  0  0  0
  -28.1880  -25.1240   20.0980 C   0  0  0  0  0  2  0  0  0  0  0  0
  -28.3490  -26.5270   19.6640 O   0  0  0  0  0  0  0  0  0  0  0  0
  -24.6670  -31.7090   23.0720 C   0  0  0  0  0  0  0  0  0  0  0  0
  -27.2150  -27.3450   19.7190 C   0  0  0  0  0  0  0  0  0  0  0  0
  -23.4170  -30.3780   21.4070 C   0  0  0  0  0  3  0  0  0  0  0  0
  -24.8310  -28.9100   19.8650 C   0  0  0  0  0  0  0  0  0  0  0  0
  -25.9440  -30.7350   21.1530 C   0  0  0  0  0  2  0  0  0  0  0  0
  -26.0130  -29.3900   20.4420 C   0  0  0  0  0  0  0  0  0  0  0  0
  -27.2100  -28.6210   20.3580 C   0  0  0  0  0  3  0  0  0  0  0  0
  -26.0120  -26.9190   19.1120 C   0  0  0  0  0  3  0  0  0  0  0  0
  -24.8310  -27.6800   19.1900 C   0  0  0  0  0  3  0  0  0  0  0  0
  -23.5880  -29.7660   19.9920 C   0  0  0  0  0  2  0  0  0  0  0  0
  -24.6960  -30.9540   21.9350 N   0  0  0  0  0  0  0  0  0  0  0  0
  -23.6010  -31.9520   23.6560 O   0  0  0  0  0  0  0  0  0  0  0  0
  -22.7950  -29.3120   22.3410 C   0  0  0  0  0  0  0  0  0  0  0  0
  -21.4670  -29.1330   22.2510 N   0  0  0  0  0  0  0  0  0  0  0  0
  -23.5050  -28.6530   23.1050 O   0  0  0  0  0  0  0  0  0  0  0  0
  -20.9530  -29.7180   21.6070 H   0  0  0  0  0  0  0  0  0  0  0  0
  -18.1110  -27.9080   22.8210 C   0  0  0  0  0  0  0  0  0  0  0  0
  -20.6790  -28.1560   23.0040 C   0  0  0  0  0  3  0  0  0  0  0  0
  -20.7560  -26.7550   22.3510 C   0  0  0  0  0  2  0  0  0  0  0  0
  -19.6140  -26.4850   21.3670 C   0  0  0  0  0  2  0  0  0  0  0  0
  -18.2590  -26.5960   22.0710 C   0  0  0  0  0  2  0  0  0  0  0  0
  -19.2470  -28.6480   23.2460 C   0  0  0  0  0  0  0  0  0  0  0  0
  -19.0530  -29.8790   23.9090 C   0  0  0  0  0  3  0  0  0  0  0  0
  -17.7560  -30.3690   24.1530 C   0  0  0  0  0  3  0  0  0  0  0  0
  -16.6350  -29.6260   23.7440 C   0  0  0  0  0  3  0  0  0  0  0  0
  -16.8150  -28.3970   23.0850 C   0  0  0  0  0  3  0  0  0  0  0  0
  -25.9670  -32.3210   23.6790 C   0  0  0  0  0  3  0  0  0  0  0  0
  -25.6620  -33.7010   24.0810 N   0  0  0  0  0  0  0  0  0  0  0  0
  -25.9530  -34.7880   23.3530 C   0  0  0  0  0  0  0  0  0  0  0  0
  -26.5760  -34.7330   22.2890 O   0  0  0  0  0  0  0  0  0  0  0  0
  -25.1040  -33.8170   24.9140 H   0  0  0  0  0  0  0  0  0  0  0  0
  -24.1880  -36.5700   23.1630 C   0  0  0  0  0  1  0  0  0  0  0  0
  -25.4760  -36.1510   23.8890 C   0  0  0  0  0  3  0  0  0  0  0  0
  -27.6420  -37.0340   24.6370 C   0  0  0  0  0  1  0  0  0  0  0  0
  -26.4890  -37.2210   23.7600 N   0  0  0  0  0  0  0  0  0  0  0  0
  -26.0820  -38.1300   23.9620 H   0  0  0  0  0  0  0  0  0  0  0  0
  -26.5280  -31.4960   24.9030 C   0  0  1  0  0  0  0  0  0  0  0  0
  -25.4720  -31.2110   25.9970 C   0  0  0  0  0  1  0  0  0  0  0  0
  -27.0980  -30.1380   24.4320 C   0  0  0  0  0  1  0  0  0  0  0  0
  -27.7010  -32.2640   25.5570 C   0  0  0  0  0  1  0  0  0  0  0  0
  1  4  1  0
  2  1  2  0
  2  6  1  0
  4  3  2  0
  4  7  1  0
  5  3  1  0
  5 46  1  0
  6  5  2  0
  7  8  2  0
  8  9  1  0
 10  7  1  0
 11 16  1  0
 12 13  1  0
 12 11  1  0
 14 13  1  0
 14 21  1  0
 14 15  1  0
 16 10  1  0
 16 15  1  0
 17 10  2  0
 18 19  2  0
 19 38  1  0
 20 19  1  0
 20 23  1  0
 21 22  1  0
 21 18  1  0
 22 20  2  0
 23 24  1  0
 24 25  2  0
 26 29  1  0
 26 25  1  0
 27 26  2  0
 28 27  1  0
 28 23  2  0
 29 30  1  0
 30 31  1  0
 31 32  2  0
 33 32  1  0
 33 37  1  0
 34 33  2  0
 35 30  2  0
 35 34  1  0
 36 35  1  0
 38 39  1  0
 39 42  1  0
 39 41  1  0
 40 38  2  0
 43 18  1  0
 43 44  1  0
 45 43  1  0
 46 47  1  0
 48 46  1  0
 49  6  1  0
 49 50  1  0
 51 50  2  0
 51 52  1  0
 53 55  1  0
 53 52  1  0
 54 65  2  0
 55 60  1  0
 56 64  1  0
 56 66  1  0
 57 63  1  0
 57 59  1  0
 58 64  1  0
 59 58  1  0
 60 59  2  0
 61 62  1  0
 61 55  2  0
 62 57  2  0
 63 56  1  0
 64 54  1  0
 66 68  2  0
 67 66  1  0
 69 67  1  0
 70 79  2  0
 70 75  1  0
 71 67  1  0
 71 75  1  0
 72 71  1  0
 73 74  1  0
 73 72  1  0
 74 70  1  0
 75 76  2  0
 76 77  1  0
 78 77  2  0
 79 78  1  0
 80 54  1  0
 80 81  1  0
 80 90  1  0
 81 84  1  0
 82 86  1  0
 82 81  1  0
 83 82  2  0
 86 85  1  0
 88 86  1  0
 88 89  1  0
 88 87  1  0
 90 93  1  1
 90 91  1  0
 92 90  1  0
M  ISO  4   7 100  10 100  52 101  53 101
M  END
>  <TORSDO>  (12) 
F 22

>  <SCORE>  (12) 
-12.601

>  <name>  (12) 
11

>  <ligand_id>  (12) 
11

>  <original_smiles>  (12) 
[H]N=C(C(=O)N1C([H])([H])C([H])([H])C([H])([H])C([H])(n2nc(-c3c([H])c([H])c(Oc4c([H])c([H])c(F)c([H])c4F)c([H])c3[H])c(C(=O)N([H])[H])c2N([H])[H])C1([H])[H])c1c([H])c([H])c(OC([H])([H])C([H])([H])C([H])([H])Oc2c([H])c([H])c3c(c2[H])C([H])([H])N(C(=O)C([H])(N([H])C(=O)C([H])(N([H])C([H])([H])[H])C([H])([H])[H])C(C([H])([H])[H])(C([H])([H])[H])C([H])([H])[H])C([H])(C(=O)N([H])C2([H])c4c([H])c([H])c([H])c([H])c4C([H])([H])C([H])([H])C2([H])[H])C3([H])[H])c(N([H])[H])c1[H]

>  <smiles>  (12) 
[H]N=C(C(=O)N1C([H])([H])C([H])([H])C([H])([H])C([H])(n2nc(-c3c([H])c([H])c(Oc4c([H])c([H])c(F)c([H])c4F)c([H])c3[H])c(C(=O)N([H])[H])c2N([H])[H])C1([H])[H])c1c([H])c([H])c(OC([H])([H])C([H])([H])C([H])([H])Oc2c([H])c([H])c3c(c2[H])C([H])([H])N(C(=O)C([H])(N([H])C(=O)C([H])(N([H])C([H])([H])[H])C([H])([H])[H])C(C([H])([H])[H])(C([H])([H])[H])C([H])([H])[H])C([H])(C(=O)N([H])C2([H])c4c([H])c([H])c([H])c([H])c4C([H])([H])C([H])([H])C2([H])[H])C3([H])[H])c(N([H])[H])c1[H]

$$$$
12:0:0
     RDKit          3D

 96104  0  0  1  0  0  0  0  0999 V2000
  -28.0770  -17.4230   20.0020 C   0  0  0  0  0  3  0  0  0  0  0  0
  -29.6620  -19.2520   19.9130 C   0  0  0  0  0  3  0  0  0  0  0  0
  -29.4340  -17.7730   20.1770 C   0  0  0  0  0  0  0  0  0  0  0  0
  -27.0770  -18.3810   19.6570 C   0  0  0  0  0  0  0  0  0  0  0  0
  -27.3570  -19.7640   19.4480 C   0  0  0  0  0  0  0  0  0  0  0  0
  -28.6590  -20.3150   19.5710 C   0  0  0  0  0  0  0  0  0  0  0  0
  -30.7770  -15.2870   20.6730 C   0  0  0  0  0  0  0  0  0  0  0  0
  -30.6060  -12.7840   20.1650 C   0  0  0  0  0  2  0  0  0  0  0  0
  -29.8610  -12.4210   18.8650 C   0  0  0  0  0  2  0  0  0  0  0  0
  -28.3930  -12.1630   19.2220 C   0  0  0  0  0  2  0  0  0  0  0  0
  -27.8060  -13.3140   20.0870 C   0  0  0  0  0  3  0  0  0  0  0  0
  -28.7180  -13.7350   21.2710 C   0  0  0  0  0  2  0  0  0  0  0  0
  -30.0350  -14.0780   20.7090 N   0  0  0  0  0  0  0  0  0  0  0  0
  -31.9700  -15.0460   20.4250 O   0  0  0  0  0  0  0  0  0  0  0  0
  -31.4220  -17.4020   21.4260 C   0  0  0  0  0  0  0  0  0  0  0  0
  -31.5790  -17.3020   22.9420 C   0  0  0  0  0  1  0  0  0  0  0  0
  -30.4160  -16.7140   20.8090 N   0  0  0  0  0  0  0  0  0  0  0  0
  -32.2830  -18.0480   20.8040 O   0  0  0  0  0  0  0  0  0  0  0  0
  -25.3830  -13.9230   20.6060 C   0  0  0  0  0  0  0  0  0  0  0  0
  -24.2910  -13.1720   20.9260 C   0  0  0  0  0  0  0  0  0  0  0  0
  -24.7410  -11.8170   20.9810 C   0  0  0  0  0  0  0  0  0  0  0  0
  -26.4390  -13.0340   20.5020 N   0  0  0  0  0  0  0  0  0  0  0  0
  -26.0530  -11.7600   20.7920 N   0  0  0  0  0  0  0  0  0  0  0  0
  -23.9790  -10.5670   21.1440 C   0  0  0  0  0  0  0  0  0  0  0  0
  -24.3560   -9.5920   22.0930 C   0  0  0  0  0  3  0  0  0  0  0  0
  -23.5930   -8.4140   22.2490 C   0  0  0  0  0  3  0  0  0  0  0  0
  -22.4390   -8.2050   21.4580 C   0  0  0  0  0  0  0  0  0  0  0  0
  -22.0790   -9.1710   20.5030 C   0  0  0  0  0  3  0  0  0  0  0  0
  -22.8410  -10.3390   20.3420 C   0  0  0  0  0  3  0  0  0  0  0  0
  -21.6470   -7.0860   21.5270 O   0  0  0  0  0  0  0  0  0  0  0  0
  -21.6010   -6.3080   22.6560 C   0  0  0  0  0  0  0  0  0  0  0  0
  -21.1910   -6.8280   23.9030 C   0  0  0  0  0  3  0  0  0  0  0  0
  -21.0890   -5.9730   25.0210 C   0  0  0  0  0  3  0  0  0  0  0  0
  -21.3920   -4.6030   24.8910 C   0  0  0  0  0  0  0  0  0  0  0  0
  -21.8000   -4.0860   23.6490 C   0  0  0  0  0  3  0  0  0  0  0  0
  -21.9010   -4.9370   22.5350 C   0  0  0  0  0  0  0  0  0  0  0  0
  -22.2740   -4.4290   21.3330 F   0  0  0  0  0  0  0  0  0  0  0  0
  -21.2850   -3.7820   25.9620 F   0  0  0  0  0  0  0  0  0  0  0  0
  -22.8860  -13.6760   21.0530 C   0  0  0  0  0  0  0  0  0  0  0  0
  -22.0820  -13.0440   21.8970 N   0  0  0  0  0  0  0  0  0  0  0  0
  -22.5110  -14.6750   20.4400 O   0  0  0  0  0  0  0  0  0  0  0  0
  -22.3950  -12.2430   22.4250 H   0  0  0  0  0  0  0  0  0  0  0  0
  -21.1350  -13.3760   22.0260 H   0  0  0  0  0  0  0  0  0  0  0  0
  -25.5350  -15.2790   20.3350 N   0  0  0  0  0  0  0  0  0  0  0  0
  -24.6760  -15.7230   20.0180 H   0  0  0  0  0  0  0  0  0  0  0  0
  -26.3240  -15.6150   19.7940 H   0  0  0  0  0  0  0  0  0  0  0  0
  -25.7490  -17.9620   19.5060 N   0  0  0  0  0  0  0  0  0  0  0  0
  -25.5310  -16.9870   19.7190 H   0  0  0  0  0  0  0  0  0  0  0  0
  -25.0720  -18.5770   19.9470 H   0  0  0  0  0  0  0  0  0  0  0  0
  -26.2860  -20.5310   18.9870 N   0  0  0  0  0  0  0  0  0  0  0  0
  -26.5370  -21.2470   18.3170 H   0  0  0  0  0  0  0  0  0  0  0  0
  -25.5910  -19.9000   18.5930 H   0  0  0  0  0  0  0  0  0  0  0  0
  -28.9320  -21.7390   19.2340 O   0  0  0  0  0  0  0  0  0  0  0  0
  -28.3200  -23.0860   19.7870 C   0  0  0  0  0  2  0  0  0  0  0  0
  -28.0350  -24.5710   18.9660 C   0  0  0  0  0  2  0  0  0  0  0  0
  -28.1830  -26.1000   19.3820 O   0  0  0  0  0  0  0  0  0  0  0  0
  -24.6450  -31.5790   22.8980 C   0  0  0  0  0  0  0  0  0  0  0  0
  -27.1360  -27.1120   19.3990 C   0  0  0  0  0  0  0  0  0  0  0  0
  -23.3940  -30.3080   21.1980 C   0  0  0  0  0  3  0  0  0  0  0  0
  -24.8040  -28.8730   19.5910 C   0  0  0  0  0  0  0  0  0  0  0  0
  -25.9430  -30.5980   20.9670 C   0  0  0  0  0  2  0  0  0  0  0  0
  -26.0040  -29.2640   20.1970 C   0  0  0  0  0  0  0  0  0  0  0  0
  -27.1650  -28.3990   20.0920 C   0  0  0  0  0  3  0  0  0  0  0  0
  -25.9110  -26.8540   18.7470 C   0  0  0  0  0  3  0  0  0  0  0  0
  -24.7730  -27.6810   18.8520 C   0  0  0  0  0  3  0  0  0  0  0  0
  -23.5730  -29.7590   19.7580 C   0  0  0  0  0  2  0  0  0  0  0  0
  -24.6830  -30.8470   21.7430 N   0  0  0  0  0  0  0  0  0  0  0  0
  -23.5780  -31.8020   23.4890 O   0  0  0  0  0  0  0  0  0  0  0  0
  -22.7660  -29.2120   22.0970 C   0  0  0  0  0  0  0  0  0  0  0  0
  -21.4320  -29.0450   22.0270 N   0  0  0  0  0  0  0  0  0  0  0  0
  -23.4770  -28.5160   22.8270 O   0  0  0  0  0  0  0  0  0  0  0  0
  -20.9040  -29.6520   21.4150 H   0  0  0  0  0  0  0  0  0  0  0  0
  -18.0850  -27.8010   22.6180 C   0  0  0  0  0  0  0  0  0  0  0  0
  -20.6580  -28.0360   22.7530 C   0  0  0  0  0  3  0  0  0  0  0  0
  -20.7160  -26.6680   22.0360 C   0  0  0  0  0  2  0  0  0  0  0  0
  -19.5550  -26.4450   21.0660 C   0  0  0  0  0  2  0  0  0  0  0  0
  -18.2130  -26.5250   21.8050 C   0  0  0  0  0  2  0  0  0  0  0  0
  -19.2320  -28.5180   23.0510 C   0  0  0  0  0  0  0  0  0  0  0  0
  -19.0590  -29.7130   23.7810 C   0  0  0  0  0  3  0  0  0  0  0  0
  -17.7710  -30.1950   24.0780 C   0  0  0  0  0  3  0  0  0  0  0  0
  -16.6380  -29.4730   23.6600 C   0  0  0  0  0  3  0  0  0  0  0  0
  -16.7960  -28.2760   22.9370 C   0  0  0  0  0  3  0  0  0  0  0  0
  -25.9360  -32.1840   23.5260 C   0  0  0  0  0  3  0  0  0  0  0  0
  -25.6150  -33.5360   24.0030 N   0  0  0  0  0  0  0  0  0  0  0  0
  -25.9230  -34.6690   23.3570 C   0  0  0  0  0  0  0  0  0  0  0  0
  -26.5790  -34.6870   22.3120 O   0  0  0  0  0  0  0  0  0  0  0  0
  -25.0360  -33.6030   24.8290 H   0  0  0  0  0  0  0  0  0  0  0  0
  -24.1840  -36.4800   23.1940 C   0  0  0  0  0  1  0  0  0  0  0  0
  -25.4270  -35.9970   23.9620 C   0  0  0  0  0  3  0  0  0  0  0  0
  -27.5510  -36.8050   24.8970 C   0  0  0  0  0  1  0  0  0  0  0  0
  -26.4540  -37.0630   23.9670 N   0  0  0  0  0  0  0  0  0  0  0  0
  -26.0420  -37.9610   24.2010 H   0  0  0  0  0  0  0  0  0  0  0  0
  -26.5160  -31.3130   24.7090 C   0  0  1  0  0  0  0  0  0  0  0  0
  -25.4730  -30.9710   25.7990 C   0  0  0  0  0  1  0  0  0  0  0  0
  -27.0950  -29.9800   24.1820 C   0  0  0  0  0  1  0  0  0  0  0  0
  -27.6870  -32.0620   25.3830 C   0  0  0  0  0  1  0  0  0  0  0  0
  1  3  1  0
  2  3  2  0
  3 17  1  0
  4  1  2  0
  5  6  2  0
  5  4  1  0
  6  2  1  0
  7 13  1  0
  7 17  1  0
  8 13  1  0
  9 10  1  0
  9  8  1  0
 11 10  1  0
 11 22  1  0
 11 12  1  0
 13 12  1  0
 14  7  2  0
 15 16  1  0
 17 15  1  0
 18 15  2  0
 19 20  2  0
 20 21  1  0
 20 39  1  0
 21 24  1  0
 22 19  1  0
 22 23  1  0
 23 21  2  0
 24 25  1  0
 25 26  2  0
 27 30  1  0
 27 26  1  0
 28 27  2  0
 29 28  1  0
 29 24  2  0
 30 31  1  0
 31 32  1  0
 32 33  2  0
 34 33  1  0
 34 38  1  0
 35 34  2  0
 36 31  2  0
 36 35  1  0
 37 36  1  0
 39 40  1  0
 40 43  1  0
 40 42  1  0
 41 39  2  0
 44 19  1  0
 45 44  1  0
 46 44  1  0
 47  4  1  0
 47 48  1  0
 47 49  1  0
 50  5  1  0
 51 50  1  0
 52 50  1  0
 53  6  1  0
 53 54  1  0
 55 56  1  0
 55 54  1  0
 56 58  1  0
 57 68  2  0
 58 63  1  0
 59 67  1  0
 59 69  1  0
 60 66  1  0
 60 62  1  0
 61 67  1  0
 62 61  1  0
 63 62  2  0
 64 65  1  0
 64 58  2  0
 65 60  2  0
 66 59  1  0
 67 57  1  0
 69 71  2  0
 70 69  1  0
 72 70  1  0
 73 82  2  0
 73 78  1  0
 74 70  1  0
 74 78  1  0
 75 74  1  0
 76 77  1  0
 76 75  1  0
 77 73  1  0
 78 79  2  0
 79 80  1  0
 81 80  2  0
 82 81  1  0
 83 57  1  0
 83 84  1  0
 83 93  1  0
 84 87  1  0
 85 89  1  0
 85 84  1  0
 86 85  2  0
 89 88  1  0
 89 91  1  0
 91 92  1  0
 91 90  1  0
 93 96  1  1
 93 94  1  0
 95 93  1  0
M  ISO  4   7 100  17 100  55 101  56 101
M  END
>  <TORSDO>  (13) 
F 21

>  <SCORE>  (13) 
-12.754

>  <name>  (13) 
12

>  <ligand_id>  (13) 
12

>  <original_smiles>  (13) 
[H]c1c([H])c([H])c2c(c1[H])C([H])([H])C([H])([H])C([H])([H])C2([H])N([H])C(=O)C1([H])N(C(=O)C([H])(N([H])C(=O)C([H])(N([H])C([H])([H])[H])C([H])([H])[H])C(C([H])([H])[H])(C([H])([H])[H])C([H])([H])[H])C([H])([H])c2c([H])c(OC([H])([H])C([H])([H])Oc3c([H])c(N(C(=O)N4C([H])([H])C([H])([H])C([H])([H])C([H])(n5nc(-c6c([H])c([H])c(Oc7c([H])c([H])c(F)c([H])c7F)c([H])c6[H])c(C(=O)N([H])[H])c5N([H])[H])C4([H])[H])C(=O)C([H])([H])[H])c([H])c(N([H])[H])c3N([H])[H])c([H])c([H])c2C1([H])[H]

>  <smiles>  (13) 
[H]c1c([H])c([H])c2c(c1[H])C([H])([H])C([H])([H])C([H])([H])C2([H])N([H])C(=O)C1([H])N(C(=O)C([H])(N([H])C(=O)C([H])(N([H])C([H])([H])[H])C([H])([H])[H])C(C([H])([H])[H])(C([H])([H])[H])C([H])([H])[H])C([H])([H])c2c([H])c(OC([H])([H])C([H])([H])Oc3c([H])c(N(C(=O)N4C([H])([H])C([H])([H])C([H])([H])C([H])(n5nc(-c6c([H])c([H])c(Oc7c([H])c([H])c(F)c([H])c7F)c([H])c6[H])c(C(=O)N([H])[H])c5N([H])[H])C4([H])[H])C(=O)C([H])([H])[H])c([H])c(N([H])[H])c3N([H])[H])c([H])c([H])c2C1([H])[H]

$$$$
13:0:0
     RDKit          3D

 94103  0  0  1  0  0  0  0  0999 V2000
  -27.8470  -23.4860   21.0380 C   0  0  0  0  0  3  0  0  0  0  0  0
  -28.5570  -23.8900   19.8700 C   0  0  0  0  0  0  0  0  0  0  0  0
  -29.1780  -22.7040   19.4330 C   0  0  0  0  0  0  0  0  0  0  0  0
  -28.0550  -22.1450   21.2500 C   0  0  0  0  0  0  0  0  0  0  0  0
  -30.0550  -22.4960   18.2390 C   0  0  0  0  0  1  0  0  0  0  0  0
  -28.8880  -21.5960   20.2800 N   0  0  0  0  0  0  0  0  0  0  0  0
  -30.1460  -19.6760   21.3030 C   0  0  0  0  0  3  0  0  0  0  0  0
  -28.9610  -19.2030   19.2850 C   0  0  0  0  0  3  0  0  0  0  0  0
  -30.4990  -18.2980   21.4140 C   0  0  0  0  0  3  0  0  0  0  0  0
  -29.3230  -17.8080   19.3920 C   0  0  0  0  0  3  0  0  0  0  0  0
  -29.3410  -20.1840   20.2520 C   0  0  0  0  0  0  0  0  0  0  0  0
  -30.0880  -17.2920   20.4840 C   0  0  0  0  0  0  0  0  0  0  0  0
  -30.8360  -14.8640   19.9040 C   0  0  0  0  0  0  0  0  0  0  0  0
  -30.5190  -12.6340   18.7920 C   0  0  0  0  0  2  0  0  0  0  0  0
  -29.4630  -12.7250   17.6690 C   0  0  0  0  0  2  0  0  0  0  0  0
  -28.0460  -12.5200   18.2350 C   0  0  0  0  0  2  0  0  0  0  0  0
  -27.7890  -13.3840   19.4960 C   0  0  0  0  0  3  0  0  0  0  0  0
  -28.9420  -13.2600   20.5090 C   0  0  0  0  0  2  0  0  0  0  0  0
  -30.1880  -13.6460   19.8250 N   0  0  0  0  0  0  0  0  0  0  0  0
  -31.8630  -15.0570   19.2430 O   0  0  0  0  0  0  0  0  0  0  0  0
  -30.5970  -15.5180   22.1800 C   0  0  0  0  0  1  0  0  0  0  0  0
  -30.3500  -15.8430   20.7620 N   0  0  0  0  0  0  0  0  0  0  0  0
  -25.5250  -13.9560   20.5580 C   0  0  0  0  0  0  0  0  0  0  0  0
  -24.4840  -13.1730   20.9790 C   0  0  0  0  0  0  0  0  0  0  0  0
  -24.8950  -11.8220   20.7630 C   0  0  0  0  0  0  0  0  0  0  0  0
  -26.5000  -13.0810   20.1110 N   0  0  0  0  0  0  0  0  0  0  0  0
  -26.1350  -11.7860   20.2950 N   0  0  0  0  0  0  0  0  0  0  0  0
  -24.1540  -10.5630   20.9200 C   0  0  0  0  0  0  0  0  0  0  0  0
  -24.6080   -9.5400   21.7810 C   0  0  0  0  0  3  0  0  0  0  0  0
  -23.8700   -8.3470   21.9280 C   0  0  0  0  0  3  0  0  0  0  0  0
  -22.6610   -8.1680   21.2110 C   0  0  0  0  0  0  0  0  0  0  0  0
  -22.2250   -9.1800   20.3390 C   0  0  0  0  0  3  0  0  0  0  0  0
  -22.9650  -10.3660   20.1900 C   0  0  0  0  0  3  0  0  0  0  0  0
  -21.8900   -7.0330   21.2710 O   0  0  0  0  0  0  0  0  0  0  0  0
  -21.8060   -6.2790   22.4140 C   0  0  0  0  0  0  0  0  0  0  0  0
  -21.3480   -6.8230   23.6340 C   0  0  0  0  0  3  0  0  0  0  0  0
  -21.2120   -5.9950   24.7680 C   0  0  0  0  0  3  0  0  0  0  0  0
  -21.5220   -4.6250   24.6810 C   0  0  0  0  0  0  0  0  0  0  0  0
  -21.9710   -4.0800   23.4640 C   0  0  0  0  0  3  0  0  0  0  0  0
  -22.1100   -4.9050   22.3340 C   0  0  0  0  0  0  0  0  0  0  0  0
  -22.5220   -4.3700   21.1590 F   0  0  0  0  0  0  0  0  0  0  0  0
  -21.3850   -3.8280   25.7660 F   0  0  0  0  0  0  0  0  0  0  0  0
  -23.1460  -13.6510   21.4660 C   0  0  0  0  0  0  0  0  0  0  0  0
  -22.5210  -12.9050   22.3700 N   0  0  0  0  0  0  0  0  0  0  0  0
  -22.6700  -14.7180   21.0810 O   0  0  0  0  0  0  0  0  0  0  0  0
  -22.9220  -12.0400   22.7000 H   0  0  0  0  0  0  0  0  0  0  0  0
  -21.6290  -13.2040   22.7380 H   0  0  0  0  0  0  0  0  0  0  0  0
  -25.7160  -15.3340   20.4970 N   0  0  0  0  0  0  0  0  0  0  0  0
  -25.0020  -15.9950   20.7800 H   0  0  0  0  0  0  0  0  0  0  0  0
  -26.5510  -15.7790   20.1400 H   0  0  0  0  0  0  0  0  0  0  0  0
  -27.5440  -21.3670   22.2410 O   0  0  0  0  0  0  0  0  0  0  0  0
  -26.9220  -21.8960   22.7310 H   0  0  0  0  0  0  0  0  0  0  0  0
  -28.5440  -25.3290   19.1880 C   0  0  0  0  0  2  0  0  0  0  0  0
  -28.4080  -26.5940   19.9680 O   0  0  0  0  0  0  0  0  0  0  0  0
  -24.6940  -31.9310   23.1310 C   0  0  0  0  0  0  0  0  0  0  0  0
  -27.2680  -27.4220   19.9340 C   0  0  0  0  0  0  0  0  0  0  0  0
  -23.4590  -30.5350   21.5120 C   0  0  0  0  0  3  0  0  0  0  0  0
  -24.8840  -29.0210   20.0180 C   0  0  0  0  0  0  0  0  0  0  0  0
  -25.9890  -30.8850   21.2540 C   0  0  0  0  0  2  0  0  0  0  0  0
  -26.0640  -29.5140   20.5880 C   0  0  0  0  0  0  0  0  0  0  0  0
  -27.2540  -28.7230   20.5380 C   0  0  0  0  0  3  0  0  0  0  0  0
  -26.0560  -26.9840   19.3530 C   0  0  0  0  0  3  0  0  0  0  0  0
  -24.8840  -27.7640   19.3940 C   0  0  0  0  0  3  0  0  0  0  0  0
  -23.6380  -29.8780   20.1170 C   0  0  0  0  0  2  0  0  0  0  0  0
  -24.7350  -31.1350   22.0210 N   0  0  0  0  0  0  0  0  0  0  0  0
  -23.6230  -32.1870   23.7010 O   0  0  0  0  0  0  0  0  0  0  0  0
  -22.8390  -29.4990   22.4800 C   0  0  0  0  0  0  0  0  0  0  0  0
  -21.5180  -29.2800   22.3690 N   0  0  0  0  0  0  0  0  0  0  0  0
  -23.5470  -28.8950   23.2910 O   0  0  0  0  0  0  0  0  0  0  0  0
  -21.0040  -29.8210   21.6880 H   0  0  0  0  0  0  0  0  0  0  0  0
  -18.1940  -27.9430   22.8770 C   0  0  0  0  0  0  0  0  0  0  0  0
  -20.7380  -28.3170   23.1500 C   0  0  0  0  0  3  0  0  0  0  0  0
  -20.9040  -26.8840   22.5920 C   0  0  0  0  0  2  0  0  0  0  0  0
  -19.8200  -26.5030   21.5790 C   0  0  0  0  0  2  0  0  0  0  0  0
  -18.4310  -26.5960   22.2160 C   0  0  0  0  0  2  0  0  0  0  0  0
  -19.2770  -28.7590   23.3010 C   0  0  0  0  0  0  0  0  0  0  0  0
  -19.0040  -30.0180   23.8790 C   0  0  0  0  0  3  0  0  0  0  0  0
  -17.6780  -30.4650   24.0350 C   0  0  0  0  0  3  0  0  0  0  0  0
  -16.6090  -29.6470   23.6280 C   0  0  0  0  0  3  0  0  0  0  0  0
  -16.8680  -28.3890   23.0570 C   0  0  0  0  0  3  0  0  0  0  0  0
  -25.9850  -32.5760   23.7210 C   0  0  0  0  0  3  0  0  0  0  0  0
  -26.5640  -31.7830   24.9560 C   0  0  1  0  0  0  0  0  0  0  0  0
  -25.5120  -31.4750   26.0480 C   0  0  0  0  0  1  0  0  0  0  0  0
  -27.1800  -30.4380   24.5060 C   0  0  0  0  0  1  0  0  0  0  0  0
  -27.7090  -32.5930   25.6090 C   0  0  0  0  0  1  0  0  0  0  0  0
  -25.6580  -33.9580   24.1030 N   0  0  0  0  0  0  0  0  0  0  0  0
  -25.9340  -35.0390   23.3630 C   0  0  0  0  0  0  0  0  0  0  0  0
  -26.5630  -34.9810   22.3020 O   0  0  0  0  0  0  0  0  0  0  0  0
  -25.0960  -34.0760   24.9330 H   0  0  0  0  0  0  0  0  0  0  0  0
  -24.1570  -36.8050   23.1270 C   0  0  0  0  0  1  0  0  0  0  0  0
  -25.4350  -36.4020   23.8800 C   0  0  0  0  0  3  0  0  0  0  0  0
  -27.5810  -37.3050   24.6600 C   0  0  0  0  0  1  0  0  0  0  0  0
  -26.4400  -37.4830   23.7680 N   0  0  0  0  0  0  0  0  0  0  0  0
  -26.0180  -38.3850   23.9690 H   0  0  0  0  0  0  0  0  0  0  0  0
  1  4  2  0
  2  1  1  0
  3  2  2  0
  3  6  1  0
  4 51  1  0
  5  3  1  0
  6  4  1  0
  7  9  1  0
  8 10  2  0
  8 11  1  0
 10 12  1  0
 11  6  1  0
 11  7  2  0
 12 22  1  0
 12  9  2  0
 13 22  1  0
 14 19  1  0
 15 16  1  0
 15 14  1  0
 17 16  1  0
 17 26  1  0
 17 18  1  0
 19 13  1  0
 19 18  1  0
 20 13  2  0
 22 21  1  0
 23 24  2  0
 24 43  1  0
 25 28  1  0
 25 24  1  0
 26 27  1  0
 26 23  1  0
 27 25  2  0
 28 29  1  0
 29 30  2  0
 31 34  1  0
 31 30  1  0
 32 31  2  0
 33 32  1  0
 33 28  2  0
 34 35  1  0
 35 36  1  0
 36 37  2  0
 38 37  1  0
 38 42  1  0
 39 38  2  0
 40 35  2  0
 40 39  1  0
 41 40  1  0
 43 44  1  0
 44 46  1  0
 44 47  1  0
 45 43  2  0
 48 23  1  0
 48 49  1  0
 50 48  1  0
 51 52  1  0
 53  2  1  0
 53 54  1  0
 55 66  2  0
 56 54  1  0
 56 61  1  0
 57 65  1  0
 57 67  1  0
 58 64  1  0
 58 60  1  0
 59 65  1  0
 60 59  1  0
 61 60  2  0
 62 63  1  0
 62 56  2  0
 63 58  2  0
 64 57  1  0
 65 55  1  0
 67 69  2  0
 68 67  1  0
 70 68  1  0
 71 80  2  0
 71 76  1  0
 72 68  1  0
 72 76  1  0
 73 72  1  0
 74 75  1  0
 74 73  1  0
 75 71  1  0
 76 77  2  0
 77 78  1  0
 79 78  2  0
 80 79  1  0
 81 55  1  0
 81 86  1  0
 81 82  1  0
 82 85  1  1
 82 83  1  0
 84 82  1  0
 86 89  1  0
 87 91  1  0
 87 86  1  0
 88 87  2  0
 91 90  1  0
 93 91  1  0
 93 94  1  0
 93 92  1  0
M  ISO  4  13 100  22 100  53 101  54 101
M  END
>  <TORSDO>  (14) 
F 19

>  <SCORE>  (14) 
-13.141

>  <name>  (14) 
13

>  <ligand_id>  (14) 
13

>  <original_smiles>  (14) 
[H]Oc1c([H])c(C([H])([H])Oc2c([H])c([H])c3c(c2[H])C([H])([H])N(C(=O)C([H])(N([H])C(=O)C([H])(N([H])C([H])([H])[H])C([H])([H])[H])C(C([H])([H])[H])(C([H])([H])[H])C([H])([H])[H])C([H])(C(=O)N([H])C2([H])c4c([H])c([H])c([H])c([H])c4C([H])([H])C([H])([H])C2([H])[H])C3([H])[H])c(C([H])([H])[H])n1-c1c([H])c([H])c(N(C(=O)N2C([H])([H])C([H])([H])C([H])([H])C([H])(n3nc(-c4c([H])c([H])c(Oc5c([H])c([H])c(F)c([H])c5F)c([H])c4[H])c(C(=O)N([H])[H])c3N([H])[H])C2([H])[H])C([H])([H])[H])c([H])c1[H]

>  <smiles>  (14) 
[H]Oc1c([H])c(C([H])([H])Oc2c([H])c([H])c3c(c2[H])C([H])([H])N(C(=O)C([H])(N([H])C(=O)C([H])(N([H])C([H])([H])[H])C([H])([H])[H])C(C([H])([H])[H])(C([H])([H])[H])C([H])([H])[H])C([H])(C(=O)N([H])C2([H])c4c([H])c([H])c([H])c([H])c4C([H])([H])C([H])([H])C2([H])[H])C3([H])[H])c(C([H])([H])[H])n1-c1c([H])c([H])c(N(C(=O)N2C([H])([H])C([H])([H])C([H])([H])C([H])(n3nc(-c4c([H])c([H])c(Oc5c([H])c([H])c(F)c([H])c5F)c([H])c4[H])c(C(=O)N([H])[H])c3N([H])[H])C2([H])[H])C([H])([H])[H])c([H])c1[H]

$$$$
14:0:0
     RDKit          3D

 98106  0  0  1  0  0  0  0  0999 V2000
  -28.3470  -17.0450   20.5770 C   0  0  0  0  0  3  0  0  0  0  0  0
  -30.3320  -18.4340   20.4330 C   0  0  0  0  0  3  0  0  0  0  0  0
  -29.7510  -17.1150   20.6740 C   0  0  0  0  0  0  0  0  0  0  0  0
  -27.5570  -18.1870   20.3520 C   0  0  0  0  0  0  0  0  0  0  0  0
  -29.5570  -19.6340   20.1200 C   0  0  0  0  0  0  0  0  0  0  0  0
  -28.1450  -19.4550   20.1340 C   0  0  0  0  0  0  0  0  0  0  0  0
  -26.1670  -18.0820   20.4550 N   0  0  0  0  0  0  0  0  0  0  0  0
  -25.7130  -17.2070   20.7000 H   0  0  0  0  0  0  0  0  0  0  0  0
  -25.5590  -18.8740   20.2880 H   0  0  0  0  0  0  0  0  0  0  0  0
  -27.2950  -20.5600   20.0960 N   0  0  0  0  0  0  0  0  0  0  0  0
  -26.4860  -20.4340   20.6900 H   0  0  0  0  0  0  0  0  0  0  0  0
  -27.8220  -21.3830   20.3680 H   0  0  0  0  0  0  0  0  0  0  0  0
  -30.4160  -15.8790   21.3490 C   0  0  0  0  0  0  0  0  0  0  0  0
  -30.5700  -15.9370   22.6060 N   0  0  0  0  0  0  0  0  0  0  0  0
  -30.2070  -16.8070   22.9760 H   0  0  0  0  0  0  0  0  0  0  0  0
  -30.9500  -14.5760   20.6050 C   0  0  0  0  0  0  0  0  0  0  0  0
  -30.7860  -12.1800   19.8860 C   0  0  0  0  0  2  0  0  0  0  0  0
  -29.9600  -12.0580   18.5880 C   0  0  0  0  0  2  0  0  0  0  0  0
  -28.4690  -11.8950   18.9210 C   0  0  0  0  0  2  0  0  0  0  0  0
  -27.9870  -12.9500   19.9530 C   0  0  0  0  0  3  0  0  0  0  0  0
  -28.9460  -13.0660   21.1640 C   0  0  0  0  0  2  0  0  0  0  0  0
  -30.2920  -13.3560   20.6490 N   0  0  0  0  0  0  0  0  0  0  0  0
  -32.0680  -14.6440   20.0830 O   0  0  0  0  0  0  0  0  0  0  0  0
  -25.5540  -13.5920   20.4540 C   0  0  0  0  0  0  0  0  0  0  0  0
  -24.4640  -12.8550   20.8220 C   0  0  0  0  0  0  0  0  0  0  0  0
  -24.9190  -11.5060   20.9180 C   0  0  0  0  0  0  0  0  0  0  0  0
  -26.6110  -12.7010   20.3690 N   0  0  0  0  0  0  0  0  0  0  0  0
  -26.2290  -11.4410   20.7040 N   0  0  0  0  0  0  0  0  0  0  0  0
  -24.1700  -10.2650   21.1470 C   0  0  0  0  0  0  0  0  0  0  0  0
  -24.5580   -9.3400   22.1390 C   0  0  0  0  0  3  0  0  0  0  0  0
  -23.8070   -8.1630   22.3500 C   0  0  0  0  0  3  0  0  0  0  0  0
  -22.6550   -7.9070   21.5690 C   0  0  0  0  0  0  0  0  0  0  0  0
  -22.2880   -8.8210   20.5670 C   0  0  0  0  0  3  0  0  0  0  0  0
  -23.0400   -9.9880   20.3530 C   0  0  0  0  0  3  0  0  0  0  0  0
  -21.8810   -6.7780   21.6880 O   0  0  0  0  0  0  0  0  0  0  0  0
  -21.8170   -6.0710   22.8620 C   0  0  0  0  0  0  0  0  0  0  0  0
  -21.4090   -6.6720   24.0730 C   0  0  0  0  0  3  0  0  0  0  0  0
  -21.2900   -5.8920   25.2410 C   0  0  0  0  0  3  0  0  0  0  0  0
  -21.5690   -4.5120   25.1970 C   0  0  0  0  0  0  0  0  0  0  0  0
  -21.9720   -3.9120   23.9900 C   0  0  0  0  0  3  0  0  0  0  0  0
  -22.0930   -4.6900   22.8260 C   0  0  0  0  0  0  0  0  0  0  0  0
  -22.4600   -4.1040   21.6610 F   0  0  0  0  0  0  0  0  0  0  0  0
  -21.4490   -3.7600   26.3150 F   0  0  0  0  0  0  0  0  0  0  0  0
  -23.0590  -13.3620   20.9720 C   0  0  0  0  0  0  0  0  0  0  0  0
  -22.2750  -12.7440   21.8480 N   0  0  0  0  0  0  0  0  0  0  0  0
  -22.6650  -14.3470   20.3480 O   0  0  0  0  0  0  0  0  0  0  0  0
  -22.6050  -11.9470   22.3740 H   0  0  0  0  0  0  0  0  0  0  0  0
  -21.3340  -13.0760   22.0000 H   0  0  0  0  0  0  0  0  0  0  0  0
  -25.7190  -14.9350   20.1580 N   0  0  0  0  0  0  0  0  0  0  0  0
  -24.9250  -15.5600   20.0570 H   0  0  0  0  0  0  0  0  0  0  0  0
  -26.5810  -15.3630   19.8480 H   0  0  0  0  0  0  0  0  0  0  0  0
  -30.1100  -20.9790   19.9630 N   0  0  0  0  0  0  0  0  0  0  0  0
  -31.1180  -21.0520   20.0660 H   0  0  0  0  0  0  0  0  0  0  0  0
  -29.5130  -22.1380   19.1650 C   0  0  0  0  0  2  0  0  0  0  0  0
  -29.6930  -23.6700   19.6200 C   0  0  0  0  0  0  0  0  0  0  0  0
  -30.5890  -23.9720   20.4180 O   0  0  0  0  0  0  0  0  0  0  0  0
  -28.7110  -24.7980   19.0430 C   0  0  0  0  0  2  0  0  0  0  0  0
  -28.9170  -26.2440   19.4080 O   0  0  0  0  0  0  0  0  0  0  0  0
  -24.9610  -31.1680   22.9800 C   0  0  0  0  0  0  0  0  0  0  0  0
  -27.7900  -27.1010   19.4210 C   0  0  0  0  0  0  0  0  0  0  0  0
  -23.8360  -29.9460   21.1570 C   0  0  0  0  0  3  0  0  0  0  0  0
  -25.3650  -28.6410   19.5700 C   0  0  0  0  0  0  0  0  0  0  0  0
  -26.3660  -30.3640   21.0690 C   0  0  0  0  0  2  0  0  0  0  0  0
  -26.5070  -29.0800   20.2530 C   0  0  0  0  0  0  0  0  0  0  0  0
  -27.7170  -28.3180   20.1780 C   0  0  0  0  0  3  0  0  0  0  0  0
  -26.6270  -26.7480   18.6960 C   0  0  0  0  0  3  0  0  0  0  0  0
  -25.4300  -27.4850   18.7810 C   0  0  0  0  0  3  0  0  0  0  0  0
  -24.0970  -29.4600   19.7080 C   0  0  0  0  0  2  0  0  0  0  0  0
  -25.0730  -30.5040   21.7940 N   0  0  0  0  0  0  0  0  0  0  0  0
  -23.8610  -31.3350   23.5260 O   0  0  0  0  0  0  0  0  0  0  0  0
  -23.1980  -28.7930   21.9690 C   0  0  0  0  0  0  0  0  0  0  0  0
  -21.8770  -28.5990   21.8150 N   0  0  0  0  0  0  0  0  0  0  0  0
  -23.8920  -28.0830   22.7020 O   0  0  0  0  0  0  0  0  0  0  0  0
  -21.3710  -29.2370   21.2160 H   0  0  0  0  0  0  0  0  0  0  0  0
  -18.5360  -27.2460   22.1560 C   0  0  0  0  0  0  0  0  0  0  0  0
  -21.0890  -27.5420   22.4520 C   0  0  0  0  0  3  0  0  0  0  0  0
  -21.2270  -26.2040   21.6930 C   0  0  0  0  0  2  0  0  0  0  0  0
  -20.1310  -25.9890   20.6430 C   0  0  0  0  0  2  0  0  0  0  0  0
  -18.7480  -26.0060   21.3020 C   0  0  0  0  0  2  0  0  0  0  0  0
  -19.6350  -27.9740   22.6840 C   0  0  0  0  0  0  0  0  0  0  0  0
  -19.3840  -29.1360   23.4450 C   0  0  0  0  0  3  0  0  0  0  0  0
  -18.0670  -29.5740   23.6770 C   0  0  0  0  0  3  0  0  0  0  0  0
  -16.9830  -28.8420   23.1620 C   0  0  0  0  0  3  0  0  0  0  0  0
  -17.2170  -27.6790   22.4080 C   0  0  0  0  0  3  0  0  0  0  0  0
  -26.2090  -31.7680   23.6980 C   0  0  0  0  0  3  0  0  0  0  0  0
  -25.8290  -33.0880   24.2220 N   0  0  0  0  0  0  0  0  0  0  0  0
  -26.1350  -34.2560   23.6400 C   0  0  0  0  0  0  0  0  0  0  0  0
  -26.8330  -34.3340   22.6250 O   0  0  0  0  0  0  0  0  0  0  0  0
  -25.2030  -33.0940   25.0120 H   0  0  0  0  0  0  0  0  0  0  0  0
  -24.3400  -36.0160   23.5080 C   0  0  0  0  0  1  0  0  0  0  0  0
  -25.5810  -35.5420   24.2820 C   0  0  0  0  0  3  0  0  0  0  0  0
  -27.6590  -36.3780   25.2920 C   0  0  0  0  0  1  0  0  0  0  0  0
  -26.5700  -36.6410   24.3540 N   0  0  0  0  0  0  0  0  0  0  0  0
  -26.1230  -37.5120   24.6230 H   0  0  0  0  0  0  0  0  0  0  0  0
  -26.7600  -30.8490   24.8580 C   0  0  1  0  0  0  0  0  0  0  0  0
  -25.6750  -30.4110   25.8710 C   0  0  0  0  0  1  0  0  0  0  0  0
  -27.4030  -29.5640   24.2850 C   0  0  0  0  0  1  0  0  0  0  0  0
  -27.8770  -31.5900   25.6290 C   0  0  0  0  0  1  0  0  0  0  0  0
  1  3  1  0
  2  3  2  0
  3 13  1  0
  4  7  1  0
  4  1  2  0
  5  6  2  0
  5  2  1  0
  6  4  1  0
  7  8  1  0
  9  7  1  0
 10  6  1  0
 10 12  1  0
 10 11  1  0
 13 14  2  0
 14 15  1  0
 16 22  1  0
 16 13  1  0
 17 22  1  0
 18 19  1  0
 18 17  1  0
 20 19  1  0
 20 27  1  0
 20 21  1  0
 22 21  1  0
 23 16  2  0
 24 25  2  0
 25 26  1  0
 25 44  1  0
 26 29  1  0
 27 24  1  0
 27 28  1  0
 28 26  2  0
 29 30  1  0
 30 31  2  0
 32 35  1  0
 32 31  1  0
 33 32  2  0
 34 33  1  0
 34 29  2  0
 35 36  1  0
 36 37  1  0
 37 38  2  0
 39 38  1  0
 39 43  1  0
 40 39  2  0
 41 36  2  0
 41 40  1  0
 42 41  1  0
 44 45  1  0
 45 48  1  0
 45 47  1  0
 46 44  2  0
 49 24  1  0
 50 49  1  0
 51 49  1  0
 52 53  1  0
 52  5  1  0
 54 55  1  0
 54 52  1  0
 55 56  2  0
 57 58  1  0
 57 55  1  0
 58 60  1  0
 59 70  2  0
 60 65  1  0
 61 69  1  0
 61 71  1  0
 62 68  1  0
 62 64  1  0
 63 69  1  0
 64 63  1  0
 65 64  2  0
 66 67  1  0
 66 60  2  0
 67 62  2  0
 68 61  1  0
 69 59  1  0
 71 73  2  0
 72 71  1  0
 74 72  1  0
 75 84  2  0
 75 80  1  0
 76 72  1  0
 76 80  1  0
 77 76  1  0
 78 79  1  0
 78 77  1  0
 79 75  1  0
 80 81  2  0
 81 82  1  0
 83 82  2  0
 84 83  1  0
 85 59  1  0
 85 86  1  0
 85 95  1  0
 86 89  1  0
 87 86  1  0
 87 91  1  0
 88 87  2  0
 91 90  1  0
 91 93  1  0
 93 94  1  0
 93 92  1  0
 95 98  1  1
 95 96  1  0
 97 95  1  0
M  ISO  4  13 100  16 100  57 101  58 101
M  END
>  <TORSDO>  (15) 
F 23

>  <SCORE>  (15) 
-10.826

>  <name>  (15) 
14

>  <ligand_id>  (15) 
14

>  <original_smiles>  (15) 
[H]N=C(C(=O)N1C([H])([H])C([H])([H])C([H])([H])C([H])(n2nc(-c3c([H])c([H])c(Oc4c([H])c([H])c(F)c([H])c4F)c([H])c3[H])c(C(=O)N([H])[H])c2N([H])[H])C1([H])[H])c1c([H])c(N([H])[H])c(N([H])[H])c(N([H])C([H])([H])C(=O)C([H])([H])Oc2c([H])c([H])c3c(c2[H])C([H])([H])N(C(=O)C([H])(N([H])C(=O)C([H])(N([H])C([H])([H])[H])C([H])([H])[H])C(C([H])([H])[H])(C([H])([H])[H])C([H])([H])[H])C([H])(C(=O)N([H])C2([H])c4c([H])c([H])c([H])c([H])c4C([H])([H])C([H])([H])C2([H])[H])C3([H])[H])c1[H]

>  <smiles>  (15) 
[H]N=C(C(=O)N1C([H])([H])C([H])([H])C([H])([H])C([H])(n2nc(-c3c([H])c([H])c(Oc4c([H])c([H])c(F)c([H])c4F)c([H])c3[H])c(C(=O)N([H])[H])c2N([H])[H])C1([H])[H])c1c([H])c(N([H])[H])c(N([H])[H])c(N([H])C([H])([H])C(=O)C([H])([H])Oc2c([H])c([H])c3c(c2[H])C([H])([H])N(C(=O)C([H])(N([H])C(=O)C([H])(N([H])C([H])([H])[H])C([H])([H])[H])C(C([H])([H])[H])(C([H])([H])[H])C([H])([H])[H])C([H])(C(=O)N([H])C2([H])c4c([H])c([H])c([H])c([H])c4C([H])([H])C([H])([H])C2([H])[H])C3([H])[H])c1[H]

$$$$
15:0:0
     RDKit          3D

 91 99  0  0  1  0  0  0  0  0999 V2000
  -29.6290  -21.6270   19.6520 C   0  0  0  0  0  0  0  0  0  0  0  0
  -30.2760  -21.9040   18.6370 O   0  0  0  0  0  0  0  0  0  0  0  0
  -28.5220  -19.3590   20.3320 C   0  0  0  0  0  3  0  0  0  0  0  0
  -28.5790  -17.9440   20.5350 C   0  0  0  0  0  3  0  0  0  0  0  0
  -30.9580  -17.9700   20.2390 C   0  0  0  0  0  3  0  0  0  0  0  0
  -29.6850  -20.1320   20.0700 C   0  0  0  0  0  0  0  0  0  0  0  0
  -29.7900  -17.1930   20.4700 C   0  0  0  0  0  0  0  0  0  0  0  0
  -30.9090  -19.3900   20.0500 C   0  0  0  0  0  0  0  0  0  0  0  0
  -32.0770  -20.0350   19.8110 F   0  0  0  0  0  0  0  0  0  0  0  0
  -30.5690  -14.6860   20.3130 C   0  0  0  0  0  0  0  0  0  0  0  0
  -30.3790  -12.4400   19.2500 C   0  0  0  0  0  2  0  0  0  0  0  0
  -29.4190  -12.5630   18.0460 C   0  0  0  0  0  2  0  0  0  0  0  0
  -27.9500  -12.3970   18.4880 C   0  0  0  0  0  2  0  0  0  0  0  0
  -27.6020  -13.2490   19.7370 C   0  0  0  0  0  3  0  0  0  0  0  0
  -28.6740  -13.0900   20.8390 C   0  0  0  0  0  2  0  0  0  0  0  0
  -29.9730  -13.4510   20.2490 N   0  0  0  0  0  0  0  0  0  0  0  0
  -31.7310  -14.8510   19.9280 O   0  0  0  0  0  0  0  0  0  0  0  0
  -29.7390  -15.7300   20.6560 N   0  0  0  0  0  0  0  0  0  0  0  0
  -28.8400  -15.3930   20.9590 H   0  0  0  0  0  0  0  0  0  0  0  0
  -25.2150  -13.8450   20.4760 C   0  0  0  0  0  0  0  0  0  0  0  0
  -24.1530  -13.0690   20.8590 C   0  0  0  0  0  0  0  0  0  0  0  0
  -24.6190  -11.7200   20.8270 C   0  0  0  0  0  0  0  0  0  0  0  0
  -26.2590  -12.9650   20.2340 N   0  0  0  0  0  0  0  0  0  0  0  0
  -25.9060  -11.6830   20.5060 N   0  0  0  0  0  0  0  0  0  0  0  0
  -23.8970  -10.4560   21.0270 C   0  0  0  0  0  0  0  0  0  0  0  0
  -24.3450   -9.4900   21.9550 C   0  0  0  0  0  3  0  0  0  0  0  0
  -23.6230   -8.2900   22.1420 C   0  0  0  0  0  3  0  0  0  0  0  0
  -22.4420   -8.0490   21.4020 C   0  0  0  0  0  0  0  0  0  0  0  0
  -22.0140   -9.0040   20.4640 C   0  0  0  0  0  3  0  0  0  0  0  0
  -22.7350  -10.1950   20.2730 C   0  0  0  0  0  3  0  0  0  0  0  0
  -21.6920   -6.9020   21.5000 O   0  0  0  0  0  0  0  0  0  0  0  0
  -21.6670   -6.1540   22.6490 C   0  0  0  0  0  0  0  0  0  0  0  0
  -21.2630   -6.7040   23.8860 C   0  0  0  0  0  3  0  0  0  0  0  0
  -21.1830   -5.8820   25.0280 C   0  0  0  0  0  3  0  0  0  0  0  0
  -21.4970   -4.5130   24.9350 C   0  0  0  0  0  0  0  0  0  0  0  0
  -21.8950   -3.9630   23.7030 C   0  0  0  0  0  3  0  0  0  0  0  0
  -21.9750   -4.7820   22.5630 C   0  0  0  0  0  0  0  0  0  0  0  0
  -22.3380   -4.2430   21.3730 F   0  0  0  0  0  0  0  0  0  0  0  0
  -21.4150   -3.7210   26.0300 F   0  0  0  0  0  0  0  0  0  0  0  0
  -22.7570  -13.5440   21.1410 C   0  0  0  0  0  0  0  0  0  0  0  0
  -22.0380  -12.8490   22.0160 N   0  0  0  0  0  0  0  0  0  0  0  0
  -22.3110  -14.5650   20.6200 O   0  0  0  0  0  0  0  0  0  0  0  0
  -22.4120  -12.0230   22.4600 H   0  0  0  0  0  0  0  0  0  0  0  0
  -21.1020  -13.1500   22.2470 H   0  0  0  0  0  0  0  0  0  0  0  0
  -25.3730  -15.2150   20.2920 N   0  0  0  0  0  0  0  0  0  0  0  0
  -24.5980  -15.8600   20.3960 H   0  0  0  0  0  0  0  0  0  0  0  0
  -26.1940  -15.6470   19.8880 H   0  0  0  0  0  0  0  0  0  0  0  0
  -28.9260  -23.8610   20.0320 C   0  0  0  0  0  3  0  0  0  0  0  0
  -28.9090  -22.5980   20.4090 N   0  0  0  0  0  0  0  0  0  0  0  0
  -28.1360  -25.0580   20.7030 C   0  0  0  0  0  2  0  0  0  0  0  0
  -28.3470  -26.4520   20.2140 O   0  0  0  0  0  0  0  0  0  0  0  0
  -24.6040  -31.8680   23.2360 C   0  0  0  0  0  0  0  0  0  0  0  0
  -27.2320  -27.3080   20.1960 C   0  0  0  0  0  0  0  0  0  0  0  0
  -23.4060  -30.4620   21.5960 C   0  0  0  0  0  3  0  0  0  0  0  0
  -24.8630  -28.9120   20.1770 C   0  0  0  0  0  0  0  0  0  0  0  0
  -25.9440  -30.7880   21.4150 C   0  0  0  0  0  2  0  0  0  0  0  0
  -26.0300  -29.4070   20.7730 C   0  0  0  0  0  0  0  0  0  0  0  0
  -27.2210  -28.6170   20.7700 C   0  0  0  0  0  3  0  0  0  0  0  0
  -26.0460  -26.8680   19.5700 C   0  0  0  0  0  3  0  0  0  0  0  0
  -24.8730  -27.6480   19.5660 C   0  0  0  0  0  3  0  0  0  0  0  0
  -23.6230  -29.7830   20.2190 C   0  0  0  0  0  2  0  0  0  0  0  0
  -24.6700  -31.0580   22.1390 N   0  0  0  0  0  0  0  0  0  0  0  0
  -23.5190  -32.1440   23.7690 O   0  0  0  0  0  0  0  0  0  0  0  0
  -22.7440  -29.4480   22.5580 C   0  0  0  0  0  0  0  0  0  0  0  0
  -21.4170  -29.2730   22.4350 N   0  0  0  0  0  0  0  0  0  0  0  0
  -23.4230  -28.8200   23.3760 O   0  0  0  0  0  0  0  0  0  0  0  0
  -20.9290  -29.8300   21.7470 H   0  0  0  0  0  0  0  0  0  0  0  0
  -18.0390  -28.0820   22.9410 C   0  0  0  0  0  0  0  0  0  0  0  0
  -20.5980  -28.3360   23.2060 C   0  0  0  0  0  3  0  0  0  0  0  0
  -20.6960  -26.9050   22.6280 C   0  0  0  0  0  2  0  0  0  0  0  0
  -19.5900  -26.5840   21.6170 C   0  0  0  0  0  2  0  0  0  0  0  0
  -18.2100  -26.7320   22.2660 C   0  0  0  0  0  2  0  0  0  0  0  0
  -19.1590  -28.8420   23.3690 C   0  0  0  0  0  0  0  0  0  0  0  0
  -18.9440  -30.1040   23.9630 C   0  0  0  0  0  3  0  0  0  0  0  0
  -17.6400  -30.6080   24.1320 C   0  0  0  0  0  3  0  0  0  0  0  0
  -16.5340  -29.8450   23.7200 C   0  0  0  0  0  3  0  0  0  0  0  0
  -16.7340  -28.5840   23.1300 C   0  0  0  0  0  3  0  0  0  0  0  0
  -25.8840  -32.5040   23.8600 C   0  0  0  0  0  3  0  0  0  0  0  0
  -26.3990  -31.7360   25.1400 C   0  0  1  0  0  0  0  0  0  0  0  0
  -25.3040  -31.5030   26.2070 C   0  0  0  0  0  1  0  0  0  0  0  0
  -26.9810  -30.3580   24.7530 C   0  0  0  0  0  1  0  0  0  0  0  0
  -27.5500  -32.5330   25.8000 C   0  0  0  0  0  1  0  0  0  0  0  0
  -25.5710  -33.9030   24.1860 N   0  0  0  0  0  0  0  0  0  0  0  0
  -25.9030  -34.9550   23.4280 C   0  0  0  0  0  0  0  0  0  0  0  0
  -26.5740  -34.8510   22.3960 O   0  0  0  0  0  0  0  0  0  0  0  0
  -24.9750  -34.0570   24.9870 H   0  0  0  0  0  0  0  0  0  0  0  0
  -24.1740  -36.7470   23.0690 C   0  0  0  0  0  1  0  0  0  0  0  0
  -25.4140  -36.3440   23.8830 C   0  0  0  0  0  3  0  0  0  0  0  0
  -27.5460  -37.2320   24.7150 C   0  0  0  0  0  1  0  0  0  0  0  0
  -26.4470  -37.3960   23.7680 N   0  0  0  0  0  0  0  0  0  0  0  0
  -26.0400  -38.3170   23.9100 H   0  0  0  0  0  0  0  0  0  0  0  0
  1  6  1  0
  1 49  1  0
  2  1  2  0
  3  4  1  0
  5  7  1  0
  6  3  2  0
  7  4  2  0
  7 18  1  0
  8  6  1  0
  8  5  2  0
  9  8  1  0
 10 18  1  0
 11 16  1  0
 12 13  1  0
 12 11  1  0
 14 13  1  0
 14 23  1  0
 14 15  1  0
 16 10  1  0
 16 15  1  0
 17 10  2  0
 18 19  1  0
 20 21  2  0
 21 40  1  0
 22 21  1  0
 22 25  1  0
 23 20  1  0
 23 24  1  0
 24 22  2  0
 25 26  1  0
 26 27  2  0
 28 31  1  0
 28 27  1  0
 29 28  2  0
 30 29  1  0
 30 25  2  0
 31 32  1  0
 32 33  1  0
 33 34  2  0
 35 34  1  0
 35 39  1  0
 36 35  2  0
 37 32  2  0
 37 36  1  0
 38 37  1  0
 40 41  1  0
 41 44  1  0
 41 43  1  0
 42 40  2  0
 45 46  1  0
 45 20  1  0
 47 45  1  0
 48 49  2  0
 48 50  1  0
 51 50  1  0
 52 63  2  0
 53 51  1  0
 53 58  1  0
 54 62  1  0
 54 64  1  0
 55 61  1  0
 55 57  1  0
 56 62  1  0
 57 56  1  0
 58 57  2  0
 59 53  2  0
 60 59  1  0
 60 55  2  0
 61 54  1  0
 62 52  1  0
 64 66  2  0
 65 64  1  0
 67 65  1  0
 68 77  2  0
 68 73  1  0
 69 65  1  0
 69 73  1  0
 70 69  1  0
 71 72  1  0
 71 70  1  0
 72 68  1  0
 73 74  2  0
 74 75  1  0
 76 75  2  0
 77 76  1  0
 78 52  1  0
 78 83  1  0
 78 79  1  0
 79 82  1  1
 79 80  1  0
 81 79  1  0
 83 86  1  0
 84 88  1  0
 84 83  1  0
 85 84  2  0
 88 87  1  0
 90 88  1  0
 90 91  1  0
 90 89  1  0
M  ISO  4  10 100  18 100  50 101  51 101
M  END
>  <TORSDO>  (16) 
F 19

>  <SCORE>  (16) 
-14.371

>  <name>  (16) 
15

>  <ligand_id>  (16) 
15

>  <original_smiles>  (16) 
[H]C(=NC(=O)c1c([H])c([H])c(N([H])C(=O)N2C([H])([H])C([H])([H])C([H])([H])C([H])(n3nc(-c4c([H])c([H])c(Oc5c([H])c([H])c(F)c([H])c5F)c([H])c4[H])c(C(=O)N([H])[H])c3N([H])[H])C2([H])[H])c([H])c1F)C([H])([H])Oc1c([H])c([H])c2c(c1[H])C([H])([H])N(C(=O)C([H])(N([H])C(=O)C([H])(N([H])C([H])([H])[H])C([H])([H])[H])C(C([H])([H])[H])(C([H])([H])[H])C([H])([H])[H])C([H])(C(=O)N([H])C1([H])c3c([H])c([H])c([H])c([H])c3C([H])([H])C([H])([H])C1([H])[H])C2([H])[H]

>  <smiles>  (16) 
[H]C(=NC(=O)c1c([H])c([H])c(N([H])C(=O)N2C([H])([H])C([H])([H])C([H])([H])C([H])(n3nc(-c4c([H])c([H])c(Oc5c([H])c([H])c(F)c([H])c5F)c([H])c4[H])c(C(=O)N([H])[H])c3N([H])[H])C2([H])[H])c([H])c1F)C([H])([H])Oc1c([H])c([H])c2c(c1[H])C([H])([H])N(C(=O)C([H])(N([H])C(=O)C([H])(N([H])C([H])([H])[H])C([H])([H])[H])C(C([H])([H])[H])(C([H])([H])[H])C([H])([H])[H])C([H])(C(=O)N([H])C1([H])c3c([H])c([H])c([H])c([H])c3C([H])([H])C([H])([H])C1([H])[H])C2([H])[H]

$$$$
16:0:0
     RDKit          3D

 97105  0  0  1  0  0  0  0  0999 V2000
  -29.9720  -21.0820   21.1590 C   0  0  0  0  0  3  0  0  0  0  0  0
  -29.9450  -19.9540   18.8420 C   0  0  0  0  0  3  0  0  0  0  0  0
  -29.8690  -18.5100   20.8090 C   0  0  0  0  0  3  0  0  0  0  0  0
  -29.7980  -17.5310   18.5840 C   0  0  0  0  0  3  0  0  0  0  0  0
  -29.9410  -19.8230   20.2520 C   0  0  0  0  0  0  0  0  0  0  0  0
  -29.8650  -18.8160   18.0170 C   0  0  0  0  0  0  0  0  0  0  0  0
  -29.8280  -17.3470   19.9890 C   0  0  0  0  0  0  0  0  0  0  0  0
  -30.5630  -14.9720   20.3160 C   0  0  0  0  0  0  0  0  0  0  0  0
  -30.4420  -12.6980   19.4060 C   0  0  0  0  0  2  0  0  0  0  0  0
  -29.5200  -12.7270   18.1680 C   0  0  0  0  0  2  0  0  0  0  0  0
  -28.0460  -12.5400   18.5780 C   0  0  0  0  0  2  0  0  0  0  0  0
  -27.6260  -13.4560   19.7590 C   0  0  0  0  0  3  0  0  0  0  0  0
  -28.6640  -13.4100   20.9000 C   0  0  0  0  0  2  0  0  0  0  0  0
  -29.9780  -13.7450   20.3290 N   0  0  0  0  0  0  0  0  0  0  0  0
  -31.7290  -15.1350   19.9380 O   0  0  0  0  0  0  0  0  0  0  0  0
  -29.7490  -16.0280   20.5710 N   0  0  0  0  0  0  0  0  0  0  0  0
  -28.8880  -15.8130   21.0540 H   0  0  0  0  0  0  0  0  0  0  0  0
  -25.2180  -13.9860   20.4880 C   0  0  0  0  0  0  0  0  0  0  0  0
  -24.1670  -13.1840   20.8400 C   0  0  0  0  0  0  0  0  0  0  0  0
  -24.6610  -11.8440   20.7810 C   0  0  0  0  0  0  0  0  0  0  0  0
  -26.2800  -13.1360   20.2340 N   0  0  0  0  0  0  0  0  0  0  0  0
  -25.9510  -11.8400   20.4700 N   0  0  0  0  0  0  0  0  0  0  0  0
  -23.9680  -10.5610   20.9470 C   0  0  0  0  0  0  0  0  0  0  0  0
  -24.3590   -9.6280   21.9320 C   0  0  0  0  0  3  0  0  0  0  0  0
  -23.6630   -8.4090   22.0820 C   0  0  0  0  0  3  0  0  0  0  0  0
  -22.5550   -8.1130   21.2480 C   0  0  0  0  0  0  0  0  0  0  0  0
  -22.1820   -9.0370   20.2570 C   0  0  0  0  0  3  0  0  0  0  0  0
  -22.8820  -10.2470   20.1060 C   0  0  0  0  0  3  0  0  0  0  0  0
  -21.8340   -6.9460   21.3090 O   0  0  0  0  0  0  0  0  0  0  0  0
  -21.6680   -6.2650   22.4880 C   0  0  0  0  0  0  0  0  0  0  0  0
  -21.0170   -6.8440   23.6000 C   0  0  0  0  0  3  0  0  0  0  0  0
  -20.8100   -6.0820   24.7660 C   0  0  0  0  0  3  0  0  0  0  0  0
  -21.2370   -4.7430   24.8210 C   0  0  0  0  0  0  0  0  0  0  0  0
  -21.8780   -4.1640   23.7110 C   0  0  0  0  0  3  0  0  0  0  0  0
  -22.0900   -4.9240   22.5490 C   0  0  0  0  0  0  0  0  0  0  0  0
  -22.6930   -4.3570   21.4750 F   0  0  0  0  0  0  0  0  0  0  0  0
  -21.0280   -4.0060   25.9370 F   0  0  0  0  0  0  0  0  0  0  0  0
  -22.7600  -13.6250   21.1240 C   0  0  0  0  0  0  0  0  0  0  0  0
  -22.0450  -12.8940   21.9740 N   0  0  0  0  0  0  0  0  0  0  0  0
  -22.3010  -14.6550   20.6320 O   0  0  0  0  0  0  0  0  0  0  0  0
  -22.4290  -12.0630   22.3950 H   0  0  0  0  0  0  0  0  0  0  0  0
  -21.1010  -13.1660   22.2090 H   0  0  0  0  0  0  0  0  0  0  0  0
  -25.3600  -15.3610   20.3460 N   0  0  0  0  0  0  0  0  0  0  0  0
  -24.5920  -16.0070   20.4980 H   0  0  0  0  0  0  0  0  0  0  0  0
  -26.2170  -15.8190   20.0580 H   0  0  0  0  0  0  0  0  0  0  0  0
  -29.8340  -18.9500   16.6330 N   0  0  0  0  0  0  0  0  0  0  0  0
  -30.3030  -19.7450   16.2090 H   0  0  0  0  0  0  0  0  0  0  0  0
  -29.9110  -18.0980   16.0820 H   0  0  0  0  0  0  0  0  0  0  0  0
  -28.7960  -23.2520   20.6220 C   0  0  0  0  0  0  0  0  0  0  0  0
  -29.8210  -22.3850   20.4740 N   0  0  0  0  0  0  0  0  0  0  0  0
  -27.7080  -22.8980   21.0740 O   0  0  0  0  0  0  0  0  0  0  0  0
  -30.6670  -22.7590   20.0650 H   0  0  0  0  0  0  0  0  0  0  0  0
  -29.0500  -24.7450   20.2880 C   0  0  0  0  0  2  0  0  0  0  0  0
  -27.9210  -25.4900   19.5160 C   0  0  0  0  0  2  0  0  0  0  0  0
  -27.8960  -26.9030   19.8300 O   0  0  0  0  0  0  0  0  0  0  0  0
  -24.4490  -32.0710   23.3320 C   0  0  0  0  0  0  0  0  0  0  0  0
  -26.7170  -27.6280   19.9260 C   0  0  0  0  0  0  0  0  0  0  0  0
  -23.0790  -30.7570   21.7460 C   0  0  0  0  0  3  0  0  0  0  0  0
  -24.3710  -29.2190   20.1740 C   0  0  0  0  0  0  0  0  0  0  0  0
  -25.5960  -31.0370   21.3730 C   0  0  0  0  0  2  0  0  0  0  0  0
  -25.5880  -29.6820   20.6910 C   0  0  0  0  0  0  0  0  0  0  0  0
  -26.7560  -28.8930   20.5650 C   0  0  0  0  0  3  0  0  0  0  0  0
  -25.4710  -27.1840   19.4170 C   0  0  0  0  0  3  0  0  0  0  0  0
  -24.3110  -27.9690   19.5390 C   0  0  0  0  0  3  0  0  0  0  0  0
  -23.1650  -30.1160   20.3350 C   0  0  0  0  0  2  0  0  0  0  0  0
  -24.3970  -31.3040   22.2060 N   0  0  0  0  0  0  0  0  0  0  0  0
  -23.4180  -32.3570   23.9580 O   0  0  0  0  0  0  0  0  0  0  0  0
  -22.4710  -29.7240   22.7220 C   0  0  0  0  0  0  0  0  0  0  0  0
  -21.1610  -29.4720   22.5820 N   0  0  0  0  0  0  0  0  0  0  0  0
  -23.1760  -29.1520   23.5580 O   0  0  0  0  0  0  0  0  0  0  0  0
  -20.6560  -29.9910   21.8760 H   0  0  0  0  0  0  0  0  0  0  0  0
  -17.8770  -28.0020   22.9480 C   0  0  0  0  0  0  0  0  0  0  0  0
  -20.3780  -28.5120   23.3590 C   0  0  0  0  0  3  0  0  0  0  0  0
  -20.6450  -27.0640   22.8870 C   0  0  0  0  0  2  0  0  0  0  0  0
  -19.6460  -26.5790   21.8320 C   0  0  0  0  0  2  0  0  0  0  0  0
  -18.2170  -26.6360   22.3780 C   0  0  0  0  0  2  0  0  0  0  0  0
  -18.8940  -28.8900   23.3930 C   0  0  0  0  0  0  0  0  0  0  0  0
  -18.5260  -30.1630   23.8800 C   0  0  0  0  0  3  0  0  0  0  0  0
  -17.1740  -30.5500   23.9320 C   0  0  0  0  0  3  0  0  0  0  0  0
  -16.1710  -29.6610   23.5030 C   0  0  0  0  0  3  0  0  0  0  0  0
  -16.5240  -28.3900   23.0170 C   0  0  0  0  0  3  0  0  0  0  0  0
  -25.7960  -32.6420   23.8750 C   0  0  0  0  0  3  0  0  0  0  0  0
  -25.5670  -34.0490   24.2260 N   0  0  0  0  0  0  0  0  0  0  0  0
  -25.9330  -35.0910   23.4680 C   0  0  0  0  0  0  0  0  0  0  0  0
  -26.5720  -34.9660   22.4200 O   0  0  0  0  0  0  0  0  0  0  0  0
  -25.0030  -34.2230   25.0460 H   0  0  0  0  0  0  0  0  0  0  0  0
  -24.2930  -36.9750   23.1690 C   0  0  0  0  0  1  0  0  0  0  0  0
  -25.5280  -36.4980   23.9500 C   0  0  0  0  0  3  0  0  0  0  0  0
  -27.7170  -37.2670   24.7550 C   0  0  0  0  0  1  0  0  0  0  0  0
  -26.6110  -37.4980   23.8280 N   0  0  0  0  0  0  0  0  0  0  0  0
  -26.2550  -38.4370   23.9840 H   0  0  0  0  0  0  0  0  0  0  0  0
  -26.3570  -31.8400   25.1130 C   0  0  1  0  0  0  0  0  0  0  0  0
  -25.3230  -31.6360   26.2440 C   0  0  0  0  0  1  0  0  0  0  0  0
  -26.8620  -30.4460   24.6750 C   0  0  0  0  0  1  0  0  0  0  0  0
  -27.5740  -32.5850   25.7070 C   0  0  0  0  0  1  0  0  0  0  0  0
  -31.0500  -20.9230   23.5260 C   0  0  0  0  0  1  0  0  0  0  0  0
  -31.2630  -21.1630   22.0190 C   0  0  0  0  0  2  0  0  0  0  0  0
  1 97  1  0
  2  5  1  0
  4  7  2  0
  5  3  2  0
  5  1  1  0
  6  4  1  0
  6  2  2  0
  7 16  1  0
  7  3  1  0
  8 14  1  0
  8 16  1  0
  9 14  1  0
 10 11  1  0
 10  9  1  0
 12 11  1  0
 12 21  1  0
 12 13  1  0
 14 13  1  0
 15  8  2  0
 16 17  1  0
 18 19  2  0
 19 38  1  0
 20 19  1  0
 20 23  1  0
 21 22  1  0
 21 18  1  0
 22 20  2  0
 23 24  1  0
 24 25  2  0
 26 29  1  0
 26 25  1  0
 27 26  2  0
 28 27  1  0
 28 23  2  0
 29 30  1  0
 30 35  2  0
 30 31  1  0
 31 32  2  0
 32 33  1  0
 33 37  1  0
 34 33  2  0
 35 34  1  0
 36 35  1  0
 38 39  1  0
 39 42  1  0
 39 41  1  0
 40 38  2  0
 43 18  1  0
 43 44  1  0
 45 43  1  0
 46  6  1  0
 47 46  1  0
 48 46  1  0
 49 51  2  0
 50 49  1  0
 50  1  1  0
 52 50  1  0
 53 49  1  0
 54 55  1  0
 54 53  1  0
 55 57  1  0
 56 67  2  0
 57 62  1  0
 58 66  1  0
 58 68  1  0
 59 65  1  0
 59 61  1  0
 60 66  1  0
 61 60  1  0
 62 61  2  0
 63 64  1  0
 63 57  2  0
 64 59  2  0
 65 58  1  0
 66 56  1  0
 68 70  2  0
 69 68  1  0
 71 69  1  0
 72 81  2  0
 72 77  1  0
 73 69  1  0
 73 77  1  0
 74 73  1  0
 75 76  1  0
 75 74  1  0
 76 72  1  0
 77 78  2  0
 78 79  1  0
 80 79  2  0
 81 80  1  0
 82 56  1  0
 82 83  1  0
 82 92  1  0
 83 86  1  0
 84 88  1  0
 84 83  1  0
 85 84  2  0
 88 87  1  0
 90 88  1  0
 90 91  1  0
 90 89  1  0
 92 95  1  1
 92 93  1  0
 94 92  1  0
 97 96  1  0
M  ISO  4   8 100  16 100  54 101  55 101
M  END
>  <TORSDO>  (17) 
F 22

>  <SCORE>  (17) 
-13.296

>  <name>  (17) 
16

>  <ligand_id>  (17) 
16

>  <original_smiles>  (17) 
[H]c1c([H])c([H])c2c(c1[H])C([H])([H])C([H])([H])C([H])([H])C2([H])N([H])C(=O)C1([H])N(C(=O)C([H])(N([H])C(=O)C([H])(N([H])C([H])([H])[H])C([H])([H])[H])C(C([H])([H])[H])(C([H])([H])[H])C([H])([H])[H])C([H])([H])c2c([H])c(OC([H])([H])C([H])([H])C(=O)N([H])C([H])(c3c([H])c(N([H])[H])c([H])c(N([H])C(=O)N4C([H])([H])C([H])([H])C([H])([H])C([H])(n5nc(-c6c([H])c([H])c(Oc7c([H])c([H])c(F)c([H])c7F)c([H])c6[H])c(C(=O)N([H])[H])c5N([H])[H])C4([H])[H])c3[H])C([H])([H])C([H])([H])[H])c([H])c([H])c2C1([H])[H]

>  <smiles>  (17) 
[H]c1c([H])c([H])c2c(c1[H])C([H])([H])C([H])([H])C([H])([H])C2([H])N([H])C(=O)C1([H])N(C(=O)C([H])(N([H])C(=O)C([H])(N([H])C([H])([H])[H])C([H])([H])[H])C(C([H])([H])[H])(C([H])([H])[H])C([H])([H])[H])C([H])([H])c2c([H])c(OC([H])([H])C([H])([H])C(=O)N([H])C([H])(c3c([H])c(N([H])[H])c([H])c(N([H])C(=O)N4C([H])([H])C([H])([H])C([H])([H])C([H])(n5nc(-c6c([H])c([H])c(Oc7c([H])c([H])c(F)c([H])c7F)c([H])c6[H])c(C(=O)N([H])[H])c5N([H])[H])C4([H])[H])c3[H])C([H])([H])C([H])([H])[H])c([H])c([H])c2C1([H])[H]

$$$$
17:0:0
     RDKit          3D

 99108  0  0  1  0  0  0  0  0999 V2000
  -27.2090  -23.5130   20.2140 C   0  0  0  0  0  3  0  0  0  0  0  0
  -28.4480  -24.0900   20.6150 C   0  0  0  0  0  0  0  0  0  0  0  0
  -27.3430  -22.1510   20.1270 C   0  0  0  0  0  0  0  0  0  0  0  0
  -29.3000  -22.9760   20.6950 C   0  0  0  0  0  0  0  0  0  0  0  0
  -28.6520  -21.7390   20.4030 N   0  0  0  0  0  0  0  0  0  0  0  0
  -28.4970  -19.3900   19.5130 C   0  0  0  0  0  3  0  0  0  0  0  0
  -30.1820  -19.7630   21.1500 C   0  0  0  0  0  3  0  0  0  0  0  0
  -28.8430  -18.0100   19.4380 C   0  0  0  0  0  0  0  0  0  0  0  0
  -29.1330  -20.3290   20.3610 C   0  0  0  0  0  0  0  0  0  0  0  0
  -30.5860  -18.3770   21.0570 C   0  0  0  0  0  0  0  0  0  0  0  0
  -29.9370  -17.4420   20.1790 C   0  0  0  0  0  0  0  0  0  0  0  0
  -27.9770  -17.1890   18.4930 C   0  0  0  0  0  1  0  0  0  0  0  0
  -30.9700  -15.0540   20.6450 C   0  0  0  0  0  0  0  0  0  0  0  0
  -30.8120  -12.7280   19.7740 C   0  0  0  0  0  2  0  0  0  0  0  0
  -29.9420  -12.6890   18.4990 C   0  0  0  0  0  2  0  0  0  0  0  0
  -28.4450  -12.5880   18.8510 C   0  0  0  0  0  2  0  0  0  0  0  0
  -28.0040  -13.5370   19.9990 C   0  0  0  0  0  3  0  0  0  0  0  0
  -29.0040  -13.5350   21.1710 C   0  0  0  0  0  2  0  0  0  0  0  0
  -30.3180  -13.8450   20.6010 N   0  0  0  0  0  0  0  0  0  0  0  0
  -32.2000  -15.0640   20.7660 O   0  0  0  0  0  0  0  0  0  0  0  0
  -30.9970  -16.0310   18.4840 C   0  0  0  0  0  1  0  0  0  0  0  0
  -30.4240  -16.0650   19.8530 N   0  0  0  0  0  0  0  0  0  0  0  0
  -25.5850  -14.1640   20.5810 C   0  0  0  0  0  0  0  0  0  0  0  0
  -24.4920  -13.4020   20.8910 C   0  0  0  0  0  0  0  0  0  0  0  0
  -24.9460  -12.0480   20.9150 C   0  0  0  0  0  0  0  0  0  0  0  0
  -26.6350  -13.2730   20.4270 N   0  0  0  0  0  0  0  0  0  0  0  0
  -26.2530  -11.9980   20.6960 N   0  0  0  0  0  0  0  0  0  0  0  0
  -24.2020  -10.7930   21.0770 C   0  0  0  0  0  0  0  0  0  0  0  0
  -24.5760   -9.8320   22.0400 C   0  0  0  0  0  3  0  0  0  0  0  0
  -23.8330   -8.6410   22.1900 C   0  0  0  0  0  3  0  0  0  0  0  0
  -22.7020   -8.4020   21.3730 C   0  0  0  0  0  0  0  0  0  0  0  0
  -22.3490   -9.3520   20.3990 C   0  0  0  0  0  3  0  0  0  0  0  0
  -23.0920  -10.5340   20.2480 C   0  0  0  0  0  3  0  0  0  0  0  0
  -21.9360   -7.2640   21.4310 O   0  0  0  0  0  0  0  0  0  0  0  0
  -21.7940   -6.5500   22.5940 C   0  0  0  0  0  0  0  0  0  0  0  0
  -21.2310   -7.1230   23.7560 C   0  0  0  0  0  3  0  0  0  0  0  0
  -21.0400   -6.3330   24.9070 C   0  0  0  0  0  3  0  0  0  0  0  0
  -21.4000   -4.9730   24.8980 C   0  0  0  0  0  0  0  0  0  0  0  0
  -21.9560   -4.4000   23.7400 C   0  0  0  0  0  3  0  0  0  0  0  0
  -22.1490   -5.1860   22.5900 C   0  0  0  0  0  0  0  0  0  0  0  0
  -22.6650   -4.6250   21.4710 F   0  0  0  0  0  0  0  0  0  0  0  0
  -21.2100   -4.2120   26.0010 F   0  0  0  0  0  0  0  0  0  0  0  0
  -23.0820  -13.8910   21.0590 C   0  0  0  0  0  0  0  0  0  0  0  0
  -22.3050  -13.2350   21.9140 N   0  0  0  0  0  0  0  0  0  0  0  0
  -22.6770  -14.8910   20.4690 O   0  0  0  0  0  0  0  0  0  0  0  0
  -22.6450  -12.4270   22.4150 H   0  0  0  0  0  0  0  0  0  0  0  0
  -21.3560  -13.5450   22.0710 H   0  0  0  0  0  0  0  0  0  0  0  0
  -25.7720  -15.5300   20.3930 N   0  0  0  0  0  0  0  0  0  0  0  0
  -25.0090  -16.1940   20.4580 H   0  0  0  0  0  0  0  0  0  0  0  0
  -26.6580  -15.9640   20.1660 H   0  0  0  0  0  0  0  0  0  0  0  0
  -31.6810  -17.9650   21.8180 N   0  0  0  0  0  0  0  0  0  0  0  0
  -32.2680  -18.6880   22.2210 H   0  0  0  0  0  0  0  0  0  0  0  0
  -32.2350  -17.1970   21.4460 H   0  0  0  0  0  0  0  0  0  0  0  0
  -26.3580  -21.2520   19.8510 O   0  0  0  0  0  0  0  0  0  0  0  0
  -25.5450  -21.7350   19.7410 H   0  0  0  0  0  0  0  0  0  0  0  0
  -30.6160  -22.9760   21.0440 O   0  0  0  0  0  0  0  0  0  0  0  0
  -30.9640  -22.1070   20.8740 H   0  0  0  0  0  0  0  0  0  0  0  0
  -28.6520  -25.6060   21.0380 C   0  0  0  0  0  2  0  0  0  0  0  0
  -28.4490  -26.7480   20.1150 O   0  0  0  0  0  0  0  0  0  0  0  0
  -24.6160  -32.0020   23.3600 C   0  0  0  0  0  0  0  0  0  0  0  0
  -27.3080  -27.5560   20.2110 C   0  0  0  0  0  0  0  0  0  0  0  0
  -23.4380  -30.6230   21.6840 C   0  0  0  0  0  3  0  0  0  0  0  0
  -24.9170  -29.1240   20.2300 C   0  0  0  0  0  0  0  0  0  0  0  0
  -25.9700  -30.9890   21.5100 C   0  0  0  0  0  2  0  0  0  0  0  0
  -26.0760  -29.6220   20.8420 C   0  0  0  0  0  0  0  0  0  0  0  0
  -27.2770  -28.8500   20.8210 C   0  0  0  0  0  3  0  0  0  0  0  0
  -26.1320  -27.1070   19.5840 C   0  0  0  0  0  3  0  0  0  0  0  0
  -24.9470  -27.8710   19.5940 C   0  0  0  0  0  3  0  0  0  0  0  0
  -23.6650  -29.9780   20.2900 C   0  0  0  0  0  2  0  0  0  0  0  0
  -24.6930  -31.2210   22.2420 N   0  0  0  0  0  0  0  0  0  0  0  0
  -23.5280  -32.2490   23.9010 O   0  0  0  0  0  0  0  0  0  0  0  0
  -22.7910  -29.5740   22.6200 C   0  0  0  0  0  0  0  0  0  0  0  0
  -21.4750  -29.3530   22.4640 N   0  0  0  0  0  0  0  0  0  0  0  0
  -23.4750  -28.9610   23.4450 O   0  0  0  0  0  0  0  0  0  0  0  0
  -20.9800  -29.9020   21.7740 H   0  0  0  0  0  0  0  0  0  0  0  0
  -18.1320  -28.0340   22.8800 C   0  0  0  0  0  0  0  0  0  0  0  0
  -20.6730  -28.3780   23.2060 C   0  0  0  0  0  3  0  0  0  0  0  0
  -20.8370  -26.9580   22.6150 C   0  0  0  0  0  2  0  0  0  0  0  0
  -19.7680  -26.6110   21.5740 C   0  0  0  0  0  2  0  0  0  0  0  0
  -18.3690  -26.7000   22.1920 C   0  0  0  0  0  2  0  0  0  0  0  0
  -19.2150  -28.8290   23.3420 C   0  0  0  0  0  0  0  0  0  0  0  0
  -18.9400  -30.0750   23.9450 C   0  0  0  0  0  3  0  0  0  0  0  0
  -17.6140  -30.5290   24.0900 C   0  0  0  0  0  3  0  0  0  0  0  0
  -16.5470  -29.7310   23.6440 C   0  0  0  0  0  3  0  0  0  0  0  0
  -16.8060  -28.4860   23.0440 C   0  0  0  0  0  3  0  0  0  0  0  0
  -25.8890  -32.6400   24.0000 C   0  0  0  0  0  3  0  0  0  0  0  0
  -25.5820  -34.0480   24.2900 N   0  0  0  0  0  0  0  0  0  0  0  0
  -25.9680  -35.0840   23.5320 C   0  0  0  0  0  0  0  0  0  0  0  0
  -26.6880  -34.9550   22.5390 O   0  0  0  0  0  0  0  0  0  0  0  0
  -24.9520  -34.2240   25.0590 H   0  0  0  0  0  0  0  0  0  0  0  0
  -24.3110  -36.9110   23.0350 C   0  0  0  0  0  1  0  0  0  0  0  0
  -25.4770  -36.4870   23.9430 C   0  0  0  0  0  3  0  0  0  0  0  0
  -27.5590  -37.3350   24.9320 C   0  0  0  0  0  1  0  0  0  0  0  0
  -26.5390  -37.5170   23.9020 N   0  0  0  0  0  0  0  0  0  0  0  0
  -26.1430  -38.4460   24.0080 H   0  0  0  0  0  0  0  0  0  0  0  0
  -26.3660  -31.8970   25.3060 C   0  0  1  0  0  0  0  0  0  0  0  0
  -25.2410  -31.6800   26.3450 C   0  0  0  0  0  1  0  0  0  0  0  0
  -26.9610  -30.5120   24.9610 C   0  0  0  0  0  1  0  0  0  0  0  0
  -27.4960  -32.7050   25.9870 C   0  0  0  0  0  1  0  0  0  0  0  0
  1  2  1  0
  2  4  2  0
  2 58  1  0
  3  1  2  0
  3  5  1  0
  4 56  1  0
  5  4  1  0
  6  9  1  0
  8  6  2  0
  8 11  1  0
  9  5  1  0
  9  7  2  0
 10  7  1  0
 10 51  1  0
 11 10  2  0
 12  8  1  0
 13 20  2  0
 14 19  1  0
 15 16  1  0
 15 14  1  0
 17 16  1  0
 17 26  1  0
 17 18  1  0
 19 13  1  0
 19 18  1  0
 21 22  1  0
 22 11  1  0
 22 13  1  0
 23 24  2  0
 24 25  1  0
 24 43  1  0
 25 28  1  0
 26 23  1  0
 26 27  1  0
 27 25  2  0
 28 29  1  0
 29 30  2  0
 31 34  1  0
 31 30  1  0
 32 31  2  0
 33 32  1  0
 33 28  2  0
 34 35  1  0
 35 36  1  0
 36 37  2  0
 38 37  1  0
 38 42  1  0
 39 38  2  0
 40 35  2  0
 40 39  1  0
 41 40  1  0
 43 44  1  0
 44 47  1  0
 44 46  1  0
 45 43  2  0
 48 49  1  0
 48 23  1  0
 50 48  1  0
 51 52  1  0
 53 51  1  0
 54  3  1  0
 55 54  1  0
 57 56  1  0
 59 61  1  0
 59 58  1  0
 60 71  2  0
 61 66  1  0
 62 70  1  0
 62 72  1  0
 63 69  1  0
 63 65  1  0
 64 70  1  0
 65 64  1  0
 66 65  2  0
 67 68  1  0
 67 61  2  0
 68 63  2  0
 69 62  1  0
 70 60  1  0
 72 74  2  0
 73 72  1  0
 75 73  1  0
 76 85  2  0
 76 81  1  0
 77 73  1  0
 77 81  1  0
 78 77  1  0
 79 80  1  0
 79 78  1  0
 80 76  1  0
 81 82  2  0
 82 83  1  0
 84 83  2  0
 85 84  1  0
 86 60  1  0
 86 87  1  0
 86 96  1  0
 87 90  1  0
 88 92  1  0
 88 87  1  0
 89 88  2  0
 92 91  1  0
 94 92  1  0
 94 95  1  0
 94 93  1  0
 96 99  1  1
 96 97  1  0
 98 96  1  0
M  ISO  4  13 100  22 100  58 101  59 101
M  END
>  <TORSDO>  (18) 
F 21

>  <SCORE>  (18) 
-13.623

>  <name>  (18) 
17

>  <ligand_id>  (18) 
17

>  <original_smiles>  (18) 
[H]Oc1c([H])c(C([H])([H])Oc2c([H])c([H])c3c(c2[H])C([H])([H])N(C(=O)C([H])(N([H])C(=O)C([H])(N([H])C([H])([H])[H])C([H])([H])[H])C(C([H])([H])[H])(C([H])([H])[H])C([H])([H])[H])C([H])(C(=O)N([H])C2([H])c4c([H])c([H])c([H])c([H])c4C([H])([H])C([H])([H])C2([H])[H])C3([H])[H])c(O[H])n1-c1c([H])c(N([H])[H])c(N(C(=O)N2C([H])([H])C([H])([H])C([H])([H])C([H])(n3nc(-c4c([H])c([H])c(Oc5c([H])c([H])c(F)c([H])c5F)c([H])c4[H])c(C(=O)N([H])[H])c3N([H])[H])C2([H])[H])C([H])([H])[H])c(C([H])([H])[H])c1[H]

>  <smiles>  (18) 
[H]Oc1c([H])c(C([H])([H])Oc2c([H])c([H])c3c(c2[H])C([H])([H])N(C(=O)C([H])(N([H])C(=O)C([H])(N([H])C([H])([H])[H])C([H])([H])[H])C(C([H])([H])[H])(C([H])([H])[H])C([H])([H])[H])C([H])(C(=O)N([H])C2([H])c4c([H])c([H])c([H])c([H])c4C([H])([H])C([H])([H])C2([H])[H])C3([H])[H])c(O[H])n1-c1c([H])c(N([H])[H])c(N(C(=O)N2C([H])([H])C([H])([H])C([H])([H])C([H])(n3nc(-c4c([H])c([H])c(Oc5c([H])c([H])c(F)c([H])c5F)c([H])c4[H])c(C(=O)N([H])[H])c3N([H])[H])C2([H])[H])C([H])([H])[H])c(C([H])([H])[H])c1[H]

$$$$
18:0:0
     RDKit          3D

 93101  0  0  1  0  0  0  0  0999 V2000
  -28.5660  -18.7980   20.6730 C   0  0  0  0  0  3  0  0  0  0  0  0
  -28.0970  -20.1470   20.5530 C   0  0  0  0  0  3  0  0  0  0  0  0
  -30.7550  -19.5690   20.0670 C   0  0  0  0  0  3  0  0  0  0  0  0
  -29.9280  -18.4750   20.4480 C   0  0  0  0  0  0  0  0  0  0  0  0
  -30.2920  -20.9090   19.9400 C   0  0  0  0  0  0  0  0  0  0  0  0
  -28.9370  -21.2510   20.2130 C   0  0  0  0  0  0  0  0  0  0  0  0
  -30.6820  -14.6950   20.3160 C   0  0  0  0  0  0  0  0  0  0  0  0
  -30.3650  -12.4590   19.2760 C   0  0  0  0  0  2  0  0  0  0  0  0
  -29.4190  -12.5640   18.0650 C   0  0  0  0  0  2  0  0  0  0  0  0
  -27.9540  -12.4120   18.5200 C   0  0  0  0  0  2  0  0  0  0  0  0
  -27.6090  -13.3080   19.7410 C   0  0  0  0  0  3  0  0  0  0  0  0
  -28.6810  -13.2120   20.8450 C   0  0  0  0  0  2  0  0  0  0  0  0
  -29.9720  -13.5250   20.2230 N   0  0  0  0  0  0  0  0  0  0  0  0
  -31.8720  -14.6900   19.9950 O   0  0  0  0  0  0  0  0  0  0  0  0
  -30.5950  -17.1080   20.7280 C   0  0  0  0  0  0  0  0  0  0  0  0
  -30.0030  -15.8830   20.5080 N   0  0  0  0  0  0  0  0  0  0  0  0
  -31.7560  -17.1870   21.1490 O   0  0  0  0  0  0  0  0  0  0  0  0
  -29.0030  -15.8660   20.4070 H   0  0  0  0  0  0  0  0  0  0  0  0
  -25.2360  -13.9170   20.5070 C   0  0  0  0  0  0  0  0  0  0  0  0
  -24.1680  -13.1500   20.8820 C   0  0  0  0  0  0  0  0  0  0  0  0
  -24.6190  -11.7950   20.8350 C   0  0  0  0  0  0  0  0  0  0  0  0
  -26.2690  -13.0320   20.2500 N   0  0  0  0  0  0  0  0  0  0  0  0
  -25.9060  -11.7490   20.5120 N   0  0  0  0  0  0  0  0  0  0  0  0
  -23.8860  -10.5370   21.0210 C   0  0  0  0  0  0  0  0  0  0  0  0
  -24.3120   -9.5640   21.9520 C   0  0  0  0  0  3  0  0  0  0  0  0
  -23.5770   -8.3700   22.1260 C   0  0  0  0  0  3  0  0  0  0  0  0
  -22.4030   -8.1430   21.3700 C   0  0  0  0  0  0  0  0  0  0  0  0
  -21.9970   -9.1050   20.4290 C   0  0  0  0  0  3  0  0  0  0  0  0
  -22.7310  -10.2890   20.2520 C   0  0  0  0  0  3  0  0  0  0  0  0
  -21.6410   -7.0020   21.4540 O   0  0  0  0  0  0  0  0  0  0  0  0
  -21.5730   -6.2650   22.6090 C   0  0  0  0  0  0  0  0  0  0  0  0
  -21.0970   -6.8170   23.8180 C   0  0  0  0  0  3  0  0  0  0  0  0
  -20.9780   -6.0060   24.9640 C   0  0  0  0  0  3  0  0  0  0  0  0
  -21.3270   -4.6430   24.9010 C   0  0  0  0  0  0  0  0  0  0  0  0
  -21.7970   -4.0910   23.6970 C   0  0  0  0  0  3  0  0  0  0  0  0
  -21.9160   -4.9000   22.5530 C   0  0  0  0  0  0  0  0  0  0  0  0
  -22.3480   -4.3580   21.3900 F   0  0  0  0  0  0  0  0  0  0  0  0
  -21.2070   -3.8600   25.9990 F   0  0  0  0  0  0  0  0  0  0  0  0
  -22.7780  -13.6360   21.1700 C   0  0  0  0  0  0  0  0  0  0  0  0
  -22.0570  -12.9460   22.0470 N   0  0  0  0  0  0  0  0  0  0  0  0
  -22.3400  -14.6640   20.6550 O   0  0  0  0  0  0  0  0  0  0  0  0
  -22.4280  -12.1160   22.4880 H   0  0  0  0  0  0  0  0  0  0  0  0
  -21.1240  -13.2530   22.2820 H   0  0  0  0  0  0  0  0  0  0  0  0
  -25.4120  -15.2880   20.3340 N   0  0  0  0  0  0  0  0  0  0  0  0
  -24.6530  -15.9490   20.4510 H   0  0  0  0  0  0  0  0  0  0  0  0
  -26.2490  -15.7130   19.9570 H   0  0  0  0  0  0  0  0  0  0  0  0
  -31.2060  -21.8600   19.4940 N   0  0  0  0  0  0  0  0  0  0  0  0
  -32.0480  -21.5180   19.0460 H   0  0  0  0  0  0  0  0  0  0  0  0
  -30.8130  -22.6530   19.0000 H   0  0  0  0  0  0  0  0  0  0  0  0
  -28.3400  -22.5330   20.1130 O   0  0  0  0  0  0  0  0  0  0  0  0
  -28.9970  -23.8400   20.3100 C   0  0  0  0  0  2  0  0  0  0  0  0
  -27.9910  -25.0420   20.0380 C   0  0  0  0  0  2  0  0  0  0  0  0
  -28.3030  -26.4810   20.2700 O   0  0  0  0  0  0  0  0  0  0  0  0
  -24.6270  -31.9270   23.2850 C   0  0  0  0  0  0  0  0  0  0  0  0
  -27.2120  -27.3710   20.2070 C   0  0  0  0  0  0  0  0  0  0  0  0
  -23.4230  -30.5480   21.6320 C   0  0  0  0  0  3  0  0  0  0  0  0
  -24.8680  -29.0130   20.1970 C   0  0  0  0  0  0  0  0  0  0  0  0
  -25.9670  -30.8560   21.4580 C   0  0  0  0  0  2  0  0  0  0  0  0
  -26.0410  -29.4840   20.8000 C   0  0  0  0  0  0  0  0  0  0  0  0
  -27.2190  -28.6770   20.7940 C   0  0  0  0  0  3  0  0  0  0  0  0
  -26.0100  -26.9660   19.5770 C   0  0  0  0  0  3  0  0  0  0  0  0
  -24.8550  -27.7600   19.5790 C   0  0  0  0  0  3  0  0  0  0  0  0
  -23.6370  -29.8920   20.2460 C   0  0  0  0  0  2  0  0  0  0  0  0
  -24.6910  -31.1280   22.1820 N   0  0  0  0  0  0  0  0  0  0  0  0
  -23.5410  -32.2040   23.8160 O   0  0  0  0  0  0  0  0  0  0  0  0
  -22.7530  -29.5220   22.5790 C   0  0  0  0  0  0  0  0  0  0  0  0
  -21.4270  -29.3500   22.4420 N   0  0  0  0  0  0  0  0  0  0  0  0
  -23.4250  -28.8860   23.3950 O   0  0  0  0  0  0  0  0  0  0  0  0
  -20.9460  -29.9150   21.7570 H   0  0  0  0  0  0  0  0  0  0  0  0
  -18.0370  -28.1830   22.9260 C   0  0  0  0  0  0  0  0  0  0  0  0
  -20.5970  -28.4110   23.2010 C   0  0  0  0  0  3  0  0  0  0  0  0
  -20.6860  -26.9860   22.6090 C   0  0  0  0  0  2  0  0  0  0  0  0
  -19.5810  -26.6860   21.5920 C   0  0  0  0  0  2  0  0  0  0  0  0
  -18.1990  -26.8380   22.2360 C   0  0  0  0  0  2  0  0  0  0  0  0
  -19.1640  -28.9280   23.3650 C   0  0  0  0  0  0  0  0  0  0  0  0
  -18.9580  -30.1860   23.9710 C   0  0  0  0  0  3  0  0  0  0  0  0
  -17.6570  -30.6990   24.1420 C   0  0  0  0  0  3  0  0  0  0  0  0
  -16.5450  -29.9490   23.7220 C   0  0  0  0  0  3  0  0  0  0  0  0
  -16.7360  -28.6930   23.1190 C   0  0  0  0  0  3  0  0  0  0  0  0
  -25.9080  -32.5500   23.9170 C   0  0  0  0  0  3  0  0  0  0  0  0
  -26.4010  -31.7790   25.2030 C   0  0  1  0  0  0  0  0  0  0  0  0
  -25.2910  -31.5540   26.2560 C   0  0  0  0  0  1  0  0  0  0  0  0
  -26.9800  -30.3970   24.8230 C   0  0  0  0  0  1  0  0  0  0  0  0
  -27.5480  -32.5660   25.8770 C   0  0  0  0  0  1  0  0  0  0  0  0
  -25.6070  -33.9510   24.2390 N   0  0  0  0  0  0  0  0  0  0  0  0
  -25.9250  -34.9970   23.4630 C   0  0  0  0  0  0  0  0  0  0  0  0
  -26.5740  -34.8810   22.4190 O   0  0  0  0  0  0  0  0  0  0  0  0
  -25.0290  -34.1160   25.0500 H   0  0  0  0  0  0  0  0  0  0  0  0
  -24.1820  -36.7810   23.1410 C   0  0  0  0  0  1  0  0  0  0  0  0
  -25.4480  -36.3910   23.9170 C   0  0  0  0  0  3  0  0  0  0  0  0
  -27.6020  -37.2940   24.6730 C   0  0  0  0  0  1  0  0  0  0  0  0
  -26.4750  -37.4440   23.7580 N   0  0  0  0  0  0  0  0  0  0  0  0
  -26.0690  -38.3660   23.9020 H   0  0  0  0  0  0  0  0  0  0  0  0
  2  1  1  0
  3  4  1  0
  4  1  2  0
  4 15  1  0
  5  3  2  0
  5  6  1  0
  6  2  2  0
  7 16  1  0
  8 13  1  0
  9 10  1  0
  9  8  1  0
 11 10  1  0
 11 22  1  0
 11 12  1  0
 13  7  1  0
 13 12  1  0
 14  7  2  0
 15 17  2  0
 16 15  1  0
 18 16  1  0
 19 20  2  0
 20 39  1  0
 21 20  1  0
 21 24  1  0
 22 19  1  0
 22 23  1  0
 23 21  2  0
 24 25  1  0
 25 26  2  0
 27 30  1  0
 27 26  1  0
 28 27  2  0
 29 28  1  0
 29 24  2  0
 30 31  1  0
 31 32  1  0
 32 33  2  0
 34 33  1  0
 34 38  1  0
 35 34  2  0
 36 31  2  0
 36 35  1  0
 37 36  1  0
 39 40  1  0
 40 43  1  0
 40 42  1  0
 41 39  2  0
 44 45  1  0
 44 19  1  0
 46 44  1  0
 47  5  1  0
 48 47  1  0
 49 47  1  0
 50  6  1  0
 50 51  1  0
 52 53  1  0
 52 51  1  0
 54 65  2  0
 55 53  1  0
 55 60  1  0
 56 64  1  0
 56 66  1  0
 57 63  1  0
 57 59  1  0
 58 64  1  0
 59 58  1  0
 60 59  2  0
 61 62  1  0
 61 55  2  0
 62 57  2  0
 63 56  1  0
 64 54  1  0
 66 68  2  0
 67 66  1  0
 69 67  1  0
 70 79  2  0
 70 75  1  0
 71 67  1  0
 71 75  1  0
 72 71  1  0
 73 74  1  0
 73 72  1  0
 74 70  1  0
 75 76  2  0
 76 77  1  0
 78 77  2  0
 79 78  1  0
 80 54  1  0
 80 85  1  0
 80 81  1  0
 81 84  1  1
 81 82  1  0
 83 81  1  0
 85 88  1  0
 86 90  1  0
 86 85  1  0
 87 86  2  0
 90 89  1  0
 92 93  1  0
 92 90  1  0
 92 91  1  0
M  ISO  4   7 100  16 100  52 101  53 101
M  END
>  <TORSDO>  (19) 
F 20

>  <SCORE>  (19) 
-14.023

>  <name>  (19) 
18

>  <ligand_id>  (19) 
18

>  <original_smiles>  (19) 
[H]c1c([H])c([H])c2c(c1[H])C([H])([H])C([H])([H])C([H])([H])C2([H])N([H])C(=O)C1([H])N(C(=O)C([H])(N([H])C(=O)C([H])(N([H])C([H])([H])[H])C([H])([H])[H])C(C([H])([H])[H])(C([H])([H])[H])C([H])([H])[H])C([H])([H])c2c([H])c(OC([H])([H])C([H])([H])Oc3c([H])c([H])c(C(=O)N([H])C(=O)N4C([H])([H])C([H])([H])C([H])([H])C([H])(n5nc(-c6c([H])c([H])c(Oc7c([H])c([H])c(F)c([H])c7F)c([H])c6[H])c(C(=O)N([H])[H])c5N([H])[H])C4([H])[H])c([H])c3N([H])[H])c([H])c([H])c2C1([H])[H]

>  <smiles>  (19) 
[H]c1c([H])c([H])c2c(c1[H])C([H])([H])C([H])([H])C([H])([H])C2([H])N([H])C(=O)C1([H])N(C(=O)C([H])(N([H])C(=O)C([H])(N([H])C([H])([H])[H])C([H])([H])[H])C(C([H])([H])[H])(C([H])([H])[H])C([H])([H])[H])C([H])([H])c2c([H])c(OC([H])([H])C([H])([H])Oc3c([H])c([H])c(C(=O)N([H])C(=O)N4C([H])([H])C([H])([H])C([H])([H])C([H])(n5nc(-c6c([H])c([H])c(Oc7c([H])c([H])c(F)c([H])c7F)c([H])c6[H])c(C(=O)N([H])[H])c5N([H])[H])C4([H])[H])c([H])c3N([H])[H])c([H])c([H])c2C1([H])[H]

$$$$
19:0:0
     RDKit          3D

 95104  0  0  1  0  0  0  0  0999 V2000
  -29.1910  -22.5220   20.0300 C   0  0  0  0  0  3  0  0  0  0  0  0
  -29.2510  -23.9040   20.1110 C   0  0  0  0  0  0  0  0  0  0  0  0
  -31.4340  -22.1490   20.7970 C   0  0  0  0  0  0  0  0  0  0  0  0
  -30.5310  -24.5560   20.5890 C   0  0  0  0  0  2  0  0  0  0  0  0
  -31.7390  -23.6160   20.4530 C   0  0  0  0  0  2  0  0  0  0  0  0
  -30.2630  -21.6040   20.3540 N   0  0  0  0  0  0  0  0  0  0  0  0
  -32.2810  -21.5320   21.4550 O   0  0  0  0  0  0  0  0  0  0  0  0
  -31.3030  -19.2790   20.3300 C   0  0  0  0  0  3  0  0  0  0  0  0
  -31.2430  -17.8570   20.4040 C   0  0  0  0  0  3  0  0  0  0  0  0
  -28.9100  -19.4160   20.2960 C   0  0  0  0  0  3  0  0  0  0  0  0
  -30.1460  -20.1200   20.3020 C   0  0  0  0  0  0  0  0  0  0  0  0
  -30.0070  -17.1630   20.4450 C   0  0  0  0  0  0  0  0  0  0  0  0
  -28.8350  -17.9760   20.3720 C   0  0  0  0  0  0  0  0  0  0  0  0
  -30.5970  -14.6350   20.0720 C   0  0  0  0  0  0  0  0  0  0  0  0
  -30.2890  -12.4260   18.9600 C   0  0  0  0  0  2  0  0  0  0  0  0
  -29.2840  -12.5960   17.7980 C   0  0  0  0  0  2  0  0  0  0  0  0
  -27.8340  -12.4480   18.2990 C   0  0  0  0  0  2  0  0  0  0  0  0
  -27.5570  -13.2840   19.5780 C   0  0  0  0  0  3  0  0  0  0  0  0
  -28.6690  -13.0860   20.6330 C   0  0  0  0  0  2  0  0  0  0  0  0
  -29.9510  -13.4260   19.9970 N   0  0  0  0  0  0  0  0  0  0  0  0
  -31.7380  -14.7680   19.6190 O   0  0  0  0  0  0  0  0  0  0  0  0
  -29.8550  -15.7000   20.5270 N   0  0  0  0  0  0  0  0  0  0  0  0
  -28.9720  -15.4200   20.9300 H   0  0  0  0  0  0  0  0  0  0  0  0
  -25.2110  -13.9040   20.4210 C   0  0  0  0  0  0  0  0  0  0  0  0
  -24.1520  -13.1410   20.8290 C   0  0  0  0  0  0  0  0  0  0  0  0
  -24.5910  -11.7830   20.7550 C   0  0  0  0  0  0  0  0  0  0  0  0
  -26.2300  -13.0130   20.1240 N   0  0  0  0  0  0  0  0  0  0  0  0
  -25.8650  -11.7310   20.3850 N   0  0  0  0  0  0  0  0  0  0  0  0
  -23.8550  -10.5290   20.9620 C   0  0  0  0  0  0  0  0  0  0  0  0
  -24.3040   -9.5510   21.8760 C   0  0  0  0  0  3  0  0  0  0  0  0
  -23.5700   -8.3610   22.0700 C   0  0  0  0  0  3  0  0  0  0  0  0
  -22.3720   -8.1420   21.3510 C   0  0  0  0  0  0  0  0  0  0  0  0
  -21.9400   -9.1090   20.4250 C   0  0  0  0  0  3  0  0  0  0  0  0
  -22.6750  -10.2900   20.2290 C   0  0  0  0  0  3  0  0  0  0  0  0
  -21.6050   -7.0050   21.4560 O   0  0  0  0  0  0  0  0  0  0  0  0
  -21.5620   -6.2710   22.6140 C   0  0  0  0  0  0  0  0  0  0  0  0
  -21.1810   -6.8460   23.8470 C   0  0  0  0  0  3  0  0  0  0  0  0
  -21.0840   -6.0390   24.9980 C   0  0  0  0  0  3  0  0  0  0  0  0
  -21.3560   -4.6600   24.9180 C   0  0  0  0  0  0  0  0  0  0  0  0
  -21.7300   -4.0860   23.6900 C   0  0  0  0  0  3  0  0  0  0  0  0
  -21.8300   -4.8890   22.5410 C   0  0  0  0  0  0  0  0  0  0  0  0
  -22.1710   -4.3280   21.3570 F   0  0  0  0  0  0  0  0  0  0  0  0
  -21.2550   -3.8830   26.0220 F   0  0  0  0  0  0  0  0  0  0  0  0
  -22.7780  -13.6340   21.1770 C   0  0  0  0  0  0  0  0  0  0  0  0
  -22.0910  -12.9480   22.0850 N   0  0  0  0  0  0  0  0  0  0  0  0
  -22.3220  -14.6630   20.6780 O   0  0  0  0  0  0  0  0  0  0  0  0
  -22.4740  -12.1160   22.5090 H   0  0  0  0  0  0  0  0  0  0  0  0
  -21.1700  -13.2590   22.3600 H   0  0  0  0  0  0  0  0  0  0  0  0
  -25.3860  -15.2750   20.2570 N   0  0  0  0  0  0  0  0  0  0  0  0
  -24.6330  -15.9340   20.4180 H   0  0  0  0  0  0  0  0  0  0  0  0
  -26.2340  -15.7160   19.9240 H   0  0  0  0  0  0  0  0  0  0  0  0
  -26.4520  -17.9760   20.0220 C   0  0  0  0  0  1  0  0  0  0  0  0
  -27.6400  -17.2850   20.3900 O   0  0  0  0  0  0  0  0  0  0  0  0
  -28.0980  -24.9080   19.7430 C   0  0  0  0  0  2  0  0  0  0  0  0
  -28.2980  -26.3690   19.9600 O   0  0  0  0  0  0  0  0  0  0  0  0
  -24.4780  -31.6600   23.0790 C   0  0  0  0  0  0  0  0  0  0  0  0
  -27.1630  -27.2030   19.9260 C   0  0  0  0  0  0  0  0  0  0  0  0
  -23.2900  -30.2580   21.4290 C   0  0  0  0  0  3  0  0  0  0  0  0
  -24.7610  -28.7680   19.9640 C   0  0  0  0  0  0  0  0  0  0  0  0
  -25.8210  -30.6380   21.2270 C   0  0  0  0  0  2  0  0  0  0  0  0
  -25.9260  -29.2720   20.5560 C   0  0  0  0  0  0  0  0  0  0  0  0
  -27.1290  -28.5020   20.5270 C   0  0  0  0  0  3  0  0  0  0  0  0
  -25.9690  -26.7580   19.3090 C   0  0  0  0  0  3  0  0  0  0  0  0
  -24.7840  -27.5170   19.3320 C   0  0  0  0  0  3  0  0  0  0  0  0
  -23.5050  -29.6110   20.0370 C   0  0  0  0  0  2  0  0  0  0  0  0
  -24.5490  -30.8680   21.9680 N   0  0  0  0  0  0  0  0  0  0  0  0
  -23.3920  -31.9020   23.6270 O   0  0  0  0  0  0  0  0  0  0  0  0
  -22.6610  -29.2110   22.3790 C   0  0  0  0  0  0  0  0  0  0  0  0
  -21.3410  -28.9940   22.2520 N   0  0  0  0  0  0  0  0  0  0  0  0
  -23.3600  -28.5990   23.1900 O   0  0  0  0  0  0  0  0  0  0  0  0
  -20.8350  -29.5450   21.5720 H   0  0  0  0  0  0  0  0  0  0  0  0
  -18.0030  -27.6840   22.7360 C   0  0  0  0  0  0  0  0  0  0  0  0
  -20.5510  -28.0260   23.0140 C   0  0  0  0  0  3  0  0  0  0  0  0
  -20.7020  -26.6020   22.4290 C   0  0  0  0  0  2  0  0  0  0  0  0
  -19.6130  -26.2500   21.4110 C   0  0  0  0  0  2  0  0  0  0  0  0
  -18.2250  -26.3470   22.0510 C   0  0  0  0  0  2  0  0  0  0  0  0
  -19.0950  -28.4800   23.1720 C   0  0  0  0  0  0  0  0  0  0  0  0
  -18.8330  -29.7310   23.7720 C   0  0  0  0  0  3  0  0  0  0  0  0
  -17.5120  -30.1890   23.9370 C   0  0  0  0  0  3  0  0  0  0  0  0
  -16.4350  -29.3900   23.5160 C   0  0  0  0  0  3  0  0  0  0  0  0
  -16.6810  -28.1400   22.9210 C   0  0  0  0  0  3  0  0  0  0  0  0
  -25.7510  -32.3120   23.6980 C   0  0  0  0  0  3  0  0  0  0  0  0
  -26.3040  -31.5270   24.9510 C   0  0  1  0  0  0  0  0  0  0  0  0
  -25.2310  -31.2350   26.0250 C   0  0  0  0  0  1  0  0  0  0  0  0
  -26.9210  -30.1760   24.5210 C   0  0  0  0  0  1  0  0  0  0  0  0
  -27.4400  -32.3400   25.6190 C   0  0  0  0  0  1  0  0  0  0  0  0
  -25.4090  -33.6930   24.0640 N   0  0  0  0  0  0  0  0  0  0  0  0
  -25.6960  -34.7720   23.3220 C   0  0  0  0  0  0  0  0  0  0  0  0
  -26.3450  -34.7080   22.2740 O   0  0  0  0  0  0  0  0  0  0  0  0
  -24.8310  -33.8150   24.8840 H   0  0  0  0  0  0  0  0  0  0  0  0
  -23.9070  -36.5170   23.0470 C   0  0  0  0  0  1  0  0  0  0  0  0
  -25.1800  -36.1350   23.8190 C   0  0  0  0  0  3  0  0  0  0  0  0
  -27.3080  -37.0650   24.6170 C   0  0  0  0  0  1  0  0  0  0  0  0
  -26.1780  -37.2200   23.7040 N   0  0  0  0  0  0  0  0  0  0  0  0
  -25.7490  -38.1250   23.8830 H   0  0  0  0  0  0  0  0  0  0  0  0
  1  2  2  0
  1  6  1  0
  2  4  1  0
  3  7  2  0
  5  4  1  0
  5  3  1  0
  6  3  1  0
  8  9  1  0
  9 12  2  0
 10 11  1  0
 10 13  2  0
 11  8  2  0
 11  6  1  0
 12 22  1  0
 13 53  1  0
 13 12  1  0
 14 22  1  0
 15 20  1  0
 16 17  1  0
 16 15  1  0
 18 17  1  0
 18 27  1  0
 18 19  1  0
 20 14  1  0
 20 19  1  0
 21 14  2  0
 22 23  1  0
 24 25  2  0
 25 44  1  0
 26 25  1  0
 26 29  1  0
 27 28  1  0
 27 24  1  0
 28 26  2  0
 29 30  1  0
 30 31  2  0
 32 35  1  0
 32 31  1  0
 33 32  2  0
 34 33  1  0
 34 29  2  0
 35 36  1  0
 36 37  1  0
 37 38  2  0
 39 38  1  0
 39 43  1  0
 40 39  2  0
 41 36  2  0
 41 40  1  0
 42 41  1  0
 44 45  1  0
 45 48  1  0
 45 47  1  0
 46 44  2  0
 49 50  1  0
 49 24  1  0
 51 49  1  0
 52 53  1  0
 54 55  1  0
 54  2  1  0
 56 67  2  0
 57 55  1  0
 57 62  1  0
 58 66  1  0
 58 68  1  0
 59 65  1  0
 59 61  1  0
 60 66  1  0
 61 60  1  0
 62 61  2  0
 63 64  1  0
 63 57  2  0
 64 59  2  0
 65 58  1  0
 66 56  1  0
 68 70  2  0
 69 68  1  0
 71 69  1  0
 72 81  2  0
 72 77  1  0
 73 69  1  0
 73 77  1  0
 74 73  1  0
 75 76  1  0
 75 74  1  0
 76 72  1  0
 77 78  2  0
 78 79  1  0
 80 79  2  0
 81 80  1  0
 82 56  1  0
 82 87  1  0
 82 83  1  0
 83 86  1  1
 83 84  1  0
 85 83  1  0
 87 90  1  0
 88 92  1  0
 88 87  1  0
 89 88  2  0
 92 91  1  0
 94 92  1  0
 94 95  1  0
 94 93  1  0
M  ISO  4  14 100  22 100  54 101  55 101
M  END
>  <TORSDO>  (20) 
F 19

>  <SCORE>  (20) 
-14.197

>  <name>  (20) 
19

>  <ligand_id>  (20) 
19

>  <original_smiles>  (20) 
[H]C1=C(C([H])([H])Oc2c([H])c([H])c3c(c2[H])C([H])([H])N(C(=O)C([H])(N([H])C(=O)C([H])(N([H])C([H])([H])[H])C([H])([H])[H])C(C([H])([H])[H])(C([H])([H])[H])C([H])([H])[H])C([H])(C(=O)N([H])C2([H])c4c([H])c([H])c([H])c([H])c4C([H])([H])C([H])([H])C2([H])[H])C3([H])[H])C([H])([H])C([H])([H])C(=O)N1c1c([H])c([H])c(N([H])C(=O)N2C([H])([H])C([H])([H])C([H])([H])C([H])(n3nc(-c4c([H])c([H])c(Oc5c([H])c([H])c(F)c([H])c5F)c([H])c4[H])c(C(=O)N([H])[H])c3N([H])[H])C2([H])[H])c(OC([H])([H])[H])c1[H]

>  <smiles>  (20) 
[H]C1=C(C([H])([H])Oc2c([H])c([H])c3c(c2[H])C([H])([H])N(C(=O)C([H])(N([H])C(=O)C([H])(N([H])C([H])([H])[H])C([H])([H])[H])C(C([H])([H])[H])(C([H])([H])[H])C([H])([H])[H])C([H])(C(=O)N([H])C2([H])c4c([H])c([H])c([H])c([H])c4C([H])([H])C([H])([H])C2([H])[H])C3([H])[H])C([H])([H])C([H])([H])C(=O)N1c1c([H])c([H])c(N([H])C(=O)N2C([H])([H])C([H])([H])C([H])([H])C([H])(n3nc(-c4c([H])c([H])c(Oc5c([H])c([H])c(F)c([H])c5F)c([H])c4[H])c(C(=O)N([H])[H])c3N([H])[H])C2([H])[H])c(OC([H])([H])[H])c1[H]

$$$$
20:0:0
     RDKit          3D

 93102  0  0  1  0  0  0  0  0999 V2000
  -29.5440  -20.7390   19.5220 C   0  0  0  0  0  0  0  0  0  0  0  0
  -27.8290  -23.0740   21.8530 C   0  0  0  0  0  2  0  0  0  0  0  0
  -28.3530  -21.6810   21.4860 C   0  0  0  0  0  2  0  0  0  0  0  0
  -28.9310  -23.2070   19.7080 C   0  0  0  0  0  2  0  0  0  0  0  0
  -27.9400  -23.9900   20.6160 C   0  0  0  0  0  3  0  0  0  0  0  0
  -29.0260  -21.8050   20.2000 N   0  0  0  0  0  0  0  0  0  0  0  0
  -29.7290  -20.7640   18.3030 O   0  0  0  0  0  0  0  0  0  0  0  0
  -31.6860  -18.6690   21.9250 C   0  0  0  0  0  3  0  0  0  0  0  0
  -31.0800  -19.7520   21.2610 C   0  0  0  0  0  3  0  0  0  0  0  0
  -31.2880  -17.3480   21.6490 C   0  0  0  0  0  3  0  0  0  0  0  0
  -29.6520  -18.1920   20.0430 C   0  0  0  0  0  3  0  0  0  0  0  0
  -30.0580  -19.5390   20.3100 C   0  0  0  0  0  0  0  0  0  0  0  0
  -30.2650  -17.0830   20.7080 C   0  0  0  0  0  0  0  0  0  0  0  0
  -30.6070  -14.6140   20.3210 C   0  0  0  0  0  0  0  0  0  0  0  0
  -30.3360  -12.4130   19.2380 C   0  0  0  0  0  2  0  0  0  0  0  0
  -29.3830  -12.5590   18.0350 C   0  0  0  0  0  2  0  0  0  0  0  0
  -27.9120  -12.4080   18.4800 C   0  0  0  0  0  2  0  0  0  0  0  0
  -27.5640  -13.2640   19.7280 C   0  0  0  0  0  3  0  0  0  0  0  0
  -28.6370  -13.1180   20.8310 C   0  0  0  0  0  2  0  0  0  0  0  0
  -29.9420  -13.4280   20.2280 N   0  0  0  0  0  0  0  0  0  0  0  0
  -31.7940  -14.7240   20.0040 O   0  0  0  0  0  0  0  0  0  0  0  0
  -29.8330  -15.7210   20.4930 N   0  0  0  0  0  0  0  0  0  0  0  0
  -28.8370  -15.5650   20.4480 H   0  0  0  0  0  0  0  0  0  0  0  0
  -25.1730  -13.8390   20.4750 C   0  0  0  0  0  0  0  0  0  0  0  0
  -24.1200  -13.0540   20.8570 C   0  0  0  0  0  0  0  0  0  0  0  0
  -24.5960  -11.7090   20.8240 C   0  0  0  0  0  0  0  0  0  0  0  0
  -26.2260  -12.9710   20.2300 N   0  0  0  0  0  0  0  0  0  0  0  0
  -25.8840  -11.6850   20.5030 N   0  0  0  0  0  0  0  0  0  0  0  0
  -23.8860  -10.4380   21.0170 C   0  0  0  0  0  0  0  0  0  0  0  0
  -24.3350   -9.4760   21.9500 C   0  0  0  0  0  3  0  0  0  0  0  0
  -23.6240   -8.2700   22.1310 C   0  0  0  0  0  3  0  0  0  0  0  0
  -22.4500   -8.0190   21.3810 C   0  0  0  0  0  0  0  0  0  0  0  0
  -22.0210   -8.9690   20.4390 C   0  0  0  0  0  3  0  0  0  0  0  0
  -22.7330  -10.1670   20.2540 C   0  0  0  0  0  3  0  0  0  0  0  0
  -21.7080   -6.8660   21.4740 O   0  0  0  0  0  0  0  0  0  0  0  0
  -21.6770   -6.1200   22.6240 C   0  0  0  0  0  0  0  0  0  0  0  0
  -21.2540   -6.6660   23.8560 C   0  0  0  0  0  3  0  0  0  0  0  0
  -21.1710   -5.8460   24.9990 C   0  0  0  0  0  3  0  0  0  0  0  0
  -21.5030   -4.4790   24.9110 C   0  0  0  0  0  0  0  0  0  0  0  0
  -21.9200   -3.9330   23.6830 C   0  0  0  0  0  3  0  0  0  0  0  0
  -22.0050   -4.7510   22.5430 C   0  0  0  0  0  0  0  0  0  0  0  0
  -22.3860   -4.2150   21.3580 F   0  0  0  0  0  0  0  0  0  0  0  0
  -21.4170   -3.6880   26.0060 F   0  0  0  0  0  0  0  0  0  0  0  0
  -22.7190  -13.5160   21.1380 C   0  0  0  0  0  0  0  0  0  0  0  0
  -22.0000  -12.8110   22.0050 N   0  0  0  0  0  0  0  0  0  0  0  0
  -22.2680  -14.5380   20.6230 O   0  0  0  0  0  0  0  0  0  0  0  0
  -22.3750  -11.9830   22.4440 H   0  0  0  0  0  0  0  0  0  0  0  0
  -21.0570  -13.1020   22.2270 H   0  0  0  0  0  0  0  0  0  0  0  0
  -25.3120  -15.2110   20.2960 N   0  0  0  0  0  0  0  0  0  0  0  0
  -24.5210  -15.8380   20.4050 H   0  0  0  0  0  0  0  0  0  0  0  0
  -26.1350  -15.6760   19.9340 H   0  0  0  0  0  0  0  0  0  0  0  0
  -28.2900  -25.4650   21.0650 C   0  0  0  0  0  2  0  0  0  0  0  0
  -28.3200  -26.5910   20.1410 O   0  0  0  0  0  0  0  0  0  0  0  0
  -24.6030  -31.8930   23.2430 C   0  0  0  0  0  0  0  0  0  0  0  0
  -27.2020  -27.4040   20.1560 C   0  0  0  0  0  0  0  0  0  0  0  0
  -23.3920  -30.4990   21.6020 C   0  0  0  0  0  3  0  0  0  0  0  0
  -24.8330  -28.9580   20.1670 C   0  0  0  0  0  0  0  0  0  0  0  0
  -25.9220  -30.8400   21.3970 C   0  0  0  0  0  2  0  0  0  0  0  0
  -25.9990  -29.4650   20.7580 C   0  0  0  0  0  0  0  0  0  0  0  0
  -27.1920  -28.6950   20.7510 C   0  0  0  0  0  3  0  0  0  0  0  0
  -26.0230  -26.9270   19.5510 C   0  0  0  0  0  3  0  0  0  0  0  0
  -24.8430  -27.6900   19.5580 C   0  0  0  0  0  3  0  0  0  0  0  0
  -23.5960  -29.8270   20.2190 C   0  0  0  0  0  2  0  0  0  0  0  0
  -24.6590  -31.0950   22.1380 N   0  0  0  0  0  0  0  0  0  0  0  0
  -23.5230  -32.1600   23.7900 O   0  0  0  0  0  0  0  0  0  0  0  0
  -22.7400  -29.4760   22.5640 C   0  0  0  0  0  0  0  0  0  0  0  0
  -21.4150  -29.2900   22.4410 N   0  0  0  0  0  0  0  0  0  0  0  0
  -23.4260  -28.8530   23.3780 O   0  0  0  0  0  0  0  0  0  0  0  0
  -20.9160  -29.8520   21.7670 H   0  0  0  0  0  0  0  0  0  0  0  0
  -18.0490  -28.0740   22.9520 C   0  0  0  0  0  0  0  0  0  0  0  0
  -20.6060  -28.3450   23.2120 C   0  0  0  0  0  3  0  0  0  0  0  0
  -20.7160  -26.9150   22.6340 C   0  0  0  0  0  2  0  0  0  0  0  0
  -19.6110  -26.5850   21.6260 C   0  0  0  0  0  2  0  0  0  0  0  0
  -18.2300  -26.7270   22.2740 C   0  0  0  0  0  2  0  0  0  0  0  0
  -19.1650  -28.8410   23.3780 C   0  0  0  0  0  0  0  0  0  0  0  0
  -18.9390  -30.1040   23.9680 C   0  0  0  0  0  3  0  0  0  0  0  0
  -17.6330  -30.5960   24.1400 C   0  0  0  0  0  3  0  0  0  0  0  0
  -16.5320  -29.8250   23.7290 C   0  0  0  0  0  3  0  0  0  0  0  0
  -16.7410  -28.5670   23.1370 C   0  0  0  0  0  3  0  0  0  0  0  0
  -25.8890  -32.5280   23.8600 C   0  0  0  0  0  3  0  0  0  0  0  0
  -25.5810  -33.9270   24.1890 N   0  0  0  0  0  0  0  0  0  0  0  0
  -25.9100  -34.9800   23.4260 C   0  0  0  0  0  0  0  0  0  0  0  0
  -26.5740  -34.8760   22.3930 O   0  0  0  0  0  0  0  0  0  0  0  0
  -25.0050  -34.0870   25.0030 H   0  0  0  0  0  0  0  0  0  0  0  0
  -24.1840  -36.7750   23.0710 C   0  0  0  0  0  1  0  0  0  0  0  0
  -25.4230  -36.3690   23.8850 C   0  0  0  0  0  3  0  0  0  0  0  0
  -27.5570  -37.2530   24.7170 C   0  0  0  0  0  1  0  0  0  0  0  0
  -26.4560  -37.4220   23.7710 N   0  0  0  0  0  0  0  0  0  0  0  0
  -26.0480  -38.3400   23.9210 H   0  0  0  0  0  0  0  0  0  0  0  0
  -26.4120  -31.7590   25.1340 C   0  0  1  0  0  0  0  0  0  0  0  0
  -25.3270  -31.5170   26.2060 C   0  0  0  0  0  1  0  0  0  0  0  0
  -26.9960  -30.3850   24.7350 C   0  0  0  0  0  1  0  0  0  0  0  0
  -27.5650  -32.5560   25.7910 C   0  0  0  0  0  1  0  0  0  0  0  0
  1  6  1  0
  1 12  1  0
  3  2  1  0
  4  6  1  0
  4  5  1  0
  5 52  1  0
  5  2  1  0
  6  3  1  0
  7  1  2  0
  9  8  2  0
 10  8  1  0
 11 12  2  0
 11 13  1  0
 12  9  1  0
 13 10  2  0
 14 22  1  0
 15 20  1  0
 16 17  1  0
 16 15  1  0
 18 17  1  0
 18 27  1  0
 18 19  1  0
 20 14  1  0
 20 19  1  0
 21 14  2  0
 22 13  1  0
 23 22  1  0
 24 25  2  0
 25 44  1  0
 26 25  1  0
 26 29  1  0
 27 24  1  0
 27 28  1  0
 28 26  2  0
 29 30  1  0
 30 31  2  0
 32 35  1  0
 32 31  1  0
 33 32  2  0
 34 33  1  0
 34 29  2  0
 35 36  1  0
 36 37  1  0
 37 38  2  0
 39 38  1  0
 39 43  1  0
 40 39  2  0
 41 36  2  0
 41 40  1  0
 42 41  1  0
 44 45  1  0
 45 48  1  0
 45 47  1  0
 46 44  2  0
 49 50  1  0
 49 24  1  0
 51 49  1  0
 53 55  1  0
 53 52  1  0
 54 65  2  0
 55 60  1  0
 56 64  1  0
 56 66  1  0
 57 63  1  0
 57 59  1  0
 58 64  1  0
 59 58  1  0
 60 59  2  0
 61 62  1  0
 61 55  2  0
 62 57  2  0
 63 56  1  0
 64 54  1  0
 66 68  2  0
 67 66  1  0
 69 67  1  0
 70 79  2  0
 70 75  1  0
 71 67  1  0
 71 75  1  0
 72 71  1  0
 73 74  1  0
 73 72  1  0
 74 70  1  0
 75 76  2  0
 76 77  1  0
 78 77  2  0
 79 78  1  0
 80 54  1  0
 80 81  1  0
 80 90  1  0
 81 84  1  0
 82 86  1  0
 82 81  1  0
 83 82  2  0
 86 85  1  0
 88 86  1  0
 88 89  1  0
 88 87  1  0
 90 93  1  1
 90 91  1  0
 92 90  1  0
M  ISO  4  14 100  22 100  52 101  53 101
M  END
>  <TORSDO>  (21) 
F 18

>  <SCORE>  (21) 
-14.841

>  <name>  (21) 
20

>  <ligand_id>  (21) 
20

>  <original_smiles>  (21) 
[H]c1c([H])c(C(=O)N2C([H])([H])C([H])([H])C([H])(C([H])([H])Oc3c([H])c([H])c4c(c3[H])C([H])([H])N(C(=O)C([H])(N([H])C(=O)C([H])(N([H])C([H])([H])[H])C([H])([H])[H])C(C([H])([H])[H])(C([H])([H])[H])C([H])([H])[H])C([H])(C(=O)N([H])C3([H])c5c([H])c([H])c([H])c([H])c5C([H])([H])C([H])([H])C3([H])[H])C4([H])[H])C2([H])[H])c([H])c(N([H])C(=O)N2C([H])([H])C([H])([H])C([H])([H])C([H])(n3nc(-c4c([H])c([H])c(Oc5c([H])c([H])c(F)c([H])c5F)c([H])c4[H])c(C(=O)N([H])[H])c3N([H])[H])C2([H])[H])c1[H]

>  <smiles>  (21) 
[H]c1c([H])c(C(=O)N2C([H])([H])C([H])([H])C([H])(C([H])([H])Oc3c([H])c([H])c4c(c3[H])C([H])([H])N(C(=O)C([H])(N([H])C(=O)C([H])(N([H])C([H])([H])[H])C([H])([H])[H])C(C([H])([H])[H])(C([H])([H])[H])C([H])([H])[H])C([H])(C(=O)N([H])C3([H])c5c([H])c([H])c([H])c([H])c5C([H])([H])C([H])([H])C3([H])[H])C4([H])[H])C2([H])[H])c([H])c(N([H])C(=O)N2C([H])([H])C([H])([H])C([H])([H])C([H])(n3nc(-c4c([H])c([H])c(Oc5c([H])c([H])c(F)c([H])c5F)c([H])c4[H])c(C(=O)N([H])[H])c3N([H])[H])C2([H])[H])c1[H]

$$$$
21:0:0
     RDKit          3D

 95103  0  0  1  0  0  0  0  0999 V2000
  -30.1120  -18.7890   21.3420 C   0  0  0  0  0  3  0  0  0  0  0  0
  -29.7410  -20.1420   21.1750 C   0  0  0  0  0  3  0  0  0  0  0  0
  -28.2650  -19.5030   19.3550 C   0  0  0  0  0  3  0  0  0  0  0  0
  -29.5750  -17.7770   20.5100 C   0  0  0  0  0  0  0  0  0  0  0  0
  -28.8220  -20.5140   20.1660 C   0  0  0  0  0  0  0  0  0  0  0  0
  -28.6390  -18.1570   19.5220 C   0  0  0  0  0  0  0  0  0  0  0  0
  -28.1370  -17.2320   18.6730 F   0  0  0  0  0  0  0  0  0  0  0  0
  -28.7530  -23.0080   20.4860 C   0  0  0  0  0  0  0  0  0  0  0  0
  -28.4870  -21.8610   19.8380 N   0  0  0  0  0  0  0  0  0  0  0  0
  -29.1780  -23.0620   21.6420 O   0  0  0  0  0  0  0  0  0  0  0  0
  -28.0200  -21.9790   18.9500 H   0  0  0  0  0  0  0  0  0  0  0  0
  -28.4690  -24.2940   19.6910 C   0  0  0  0  0  2  0  0  0  0  0  0
  -28.4300  -25.5860   20.5310 C   0  0  0  0  0  2  0  0  0  0  0  0
  -28.3800  -26.7450   19.6920 O   0  0  0  0  0  0  0  0  0  0  0  0
  -24.6240  -31.7560   23.0370 C   0  0  0  0  0  0  0  0  0  0  0  0
  -27.2040  -27.4470   19.7560 C   0  0  0  0  0  0  0  0  0  0  0  0
  -23.3740  -30.3820   21.4010 C   0  0  0  0  0  3  0  0  0  0  0  0
  -24.7920  -28.8990   19.8880 C   0  0  0  0  0  0  0  0  0  0  0  0
  -25.8820  -30.7860   21.1190 C   0  0  0  0  0  2  0  0  0  0  0  0
  -25.9620  -29.4330   20.4440 C   0  0  0  0  0  0  0  0  0  0  0  0
  -27.1730  -28.7140   20.3730 C   0  0  0  0  0  3  0  0  0  0  0  0
  -26.0240  -26.9170   19.1940 C   0  0  0  0  0  3  0  0  0  0  0  0
  -24.8160  -27.6390   19.2600 C   0  0  0  0  0  3  0  0  0  0  0  0
  -23.5400  -29.7350   19.9980 C   0  0  0  0  0  2  0  0  0  0  0  0
  -24.6470  -30.9880   21.9100 N   0  0  0  0  0  0  0  0  0  0  0  0
  -23.5610  -32.0020   23.6230 O   0  0  0  0  0  0  0  0  0  0  0  0
  -22.7710  -29.3310   22.3600 C   0  0  0  0  0  0  0  0  0  0  0  0
  -21.4440  -29.1400   22.2770 N   0  0  0  0  0  0  0  0  0  0  0  0
  -23.4920  -28.6890   23.1290 O   0  0  0  0  0  0  0  0  0  0  0  0
  -20.9260  -29.7120   21.6240 H   0  0  0  0  0  0  0  0  0  0  0  0
  -18.1020  -27.9020   22.8590 C   0  0  0  0  0  0  0  0  0  0  0  0
  -20.6640  -28.1710   23.0460 C   0  0  0  0  0  3  0  0  0  0  0  0
  -20.7560  -26.7600   22.4200 C   0  0  0  0  0  2  0  0  0  0  0  0
  -19.6220  -26.4680   21.4320 C   0  0  0  0  0  2  0  0  0  0  0  0
  -18.2630  -26.5780   22.1310 C   0  0  0  0  0  2  0  0  0  0  0  0
  -19.2300  -28.6590   23.2730 C   0  0  0  0  0  0  0  0  0  0  0  0
  -19.0250  -29.9030   23.9090 C   0  0  0  0  0  3  0  0  0  0  0  0
  -17.7250  -30.3890   24.1380 C   0  0  0  0  0  3  0  0  0  0  0  0
  -16.6120  -29.6270   23.7420 C   0  0  0  0  0  3  0  0  0  0  0  0
  -16.8010  -28.3860   23.1080 C   0  0  0  0  0  3  0  0  0  0  0  0
  -25.9270  -32.3840   23.6270 C   0  0  0  0  0  3  0  0  0  0  0  0
  -25.6010  -33.7490   24.0610 N   0  0  0  0  0  0  0  0  0  0  0  0
  -25.8660  -34.8540   23.3510 C   0  0  0  0  0  0  0  0  0  0  0  0
  -26.4830  -34.8340   22.2820 O   0  0  0  0  0  0  0  0  0  0  0  0
  -25.0500  -33.8380   24.9010 H   0  0  0  0  0  0  0  0  0  0  0  0
  -24.0790  -36.6160   23.1920 C   0  0  0  0  0  1  0  0  0  0  0  0
  -25.3680  -36.1970   23.9180 C   0  0  0  0  0  3  0  0  0  0  0  0
  -27.5200  -37.0860   24.7000 C   0  0  0  0  0  1  0  0  0  0  0  0
  -26.3690  -37.2820   23.8210 N   0  0  0  0  0  0  0  0  0  0  0  0
  -25.9480  -38.1800   24.0430 H   0  0  0  0  0  0  0  0  0  0  0  0
  -26.5360  -31.5470   24.8180 C   0  0  1  0  0  0  0  0  0  0  0  0
  -25.5050  -31.1840   25.9110 C   0  0  0  0  0  1  0  0  0  0  0  0
  -27.1600  -30.2330   24.2980 C   0  0  0  0  0  1  0  0  0  0  0  0
  -27.6800  -32.3470   25.4870 C   0  0  0  0  0  1  0  0  0  0  0  0
  -30.0160  -16.3020   20.6320 C   0  0  0  0  0  3  0  0  0  0  0  0
  -31.2880  -14.5440   19.3180 C   0  0  0  0  0  0  0  0  0  0  0  0
  -30.7130  -12.4350   18.1920 C   0  0  0  0  0  2  0  0  0  0  0  0
  -29.6060  -12.7160   17.1560 C   0  0  0  0  0  2  0  0  0  0  0  0
  -28.2110  -12.6320   17.8100 C   0  0  0  0  0  2  0  0  0  0  0  0
  -28.1110  -13.4350   19.1360 C   0  0  0  0  0  3  0  0  0  0  0  0
  -29.3180  -13.1290   20.0480 C   0  0  0  0  0  2  0  0  0  0  0  0
  -30.5380  -13.4080   19.2800 N   0  0  0  0  0  0  0  0  0  0  0  0
  -32.4180  -14.5860   18.8160 O   0  0  0  0  0  0  0  0  0  0  0  0
  -30.7320  -16.6170   18.2310 C   0  0  0  0  0  1  0  0  0  0  0  0
  -30.5800  -15.7060   19.3850 N   0  0  0  0  0  0  0  0  0  0  0  0
  -25.9070  -14.1020   20.2880 C   0  0  0  0  0  0  0  0  0  0  0  0
  -24.8650  -13.3600   20.7680 C   0  0  0  0  0  0  0  0  0  0  0  0
  -25.2240  -11.9950   20.5560 C   0  0  0  0  0  0  0  0  0  0  0  0
  -26.8420  -13.1930   19.8160 N   0  0  0  0  0  0  0  0  0  0  0  0
  -26.4430  -11.9140   20.0360 N   0  0  0  0  0  0  0  0  0  0  0  0
  -24.4550  -10.7630   20.7640 C   0  0  0  0  0  0  0  0  0  0  0  0
  -24.8890   -9.7620   21.6610 C   0  0  0  0  0  3  0  0  0  0  0  0
  -24.1170   -8.5970   21.8590 C   0  0  0  0  0  3  0  0  0  0  0  0
  -22.8980   -8.4260   21.1610 C   0  0  0  0  0  0  0  0  0  0  0  0
  -22.4830   -9.4150   20.2530 C   0  0  0  0  0  3  0  0  0  0  0  0
  -23.2550  -10.5720   20.0520 C   0  0  0  0  0  3  0  0  0  0  0  0
  -22.0970   -7.3150   21.2720 O   0  0  0  0  0  0  0  0  0  0  0  0
  -21.9580   -6.6440   22.4610 C   0  0  0  0  0  0  0  0  0  0  0  0
  -21.4890   -7.2840   23.6280 C   0  0  0  0  0  3  0  0  0  0  0  0
  -21.2950   -6.5410   24.8100 C   0  0  0  0  0  3  0  0  0  0  0  0
  -21.5600   -5.1590   24.8240 C   0  0  0  0  0  0  0  0  0  0  0  0
  -22.0260   -4.5180   23.6620 C   0  0  0  0  0  3  0  0  0  0  0  0
  -22.2210   -5.2590   22.4820 C   0  0  0  0  0  0  0  0  0  0  0  0
  -22.6480   -4.6330   21.3580 F   0  0  0  0  0  0  0  0  0  0  0  0
  -21.3680   -4.4430   25.9560 F   0  0  0  0  0  0  0  0  0  0  0  0
  -23.5640  -13.8880   21.3040 C   0  0  0  0  0  0  0  0  0  0  0  0
  -22.9630  -13.1910   22.2610 N   0  0  0  0  0  0  0  0  0  0  0  0
  -23.0950  -14.9550   20.9080 O   0  0  0  0  0  0  0  0  0  0  0  0
  -23.3560  -12.3260   22.6050 H   0  0  0  0  0  0  0  0  0  0  0  0
  -22.1000  -13.5300   22.6620 H   0  0  0  0  0  0  0  0  0  0  0  0
  -26.1140  -15.4710   20.1980 N   0  0  0  0  0  0  0  0  0  0  0  0
  -25.4010  -16.1280   20.4920 H   0  0  0  0  0  0  0  0  0  0  0  0
  -26.9080  -15.9360   19.7680 H   0  0  0  0  0  0  0  0  0  0  0  0
  -30.5790  -15.3990   22.9450 C   0  0  0  0  0  2  0  0  0  0  0  0
  -30.9230  -16.0850   21.8420 C   0  0  0  0  0  3  0  0  0  0  0  0
  2  1  1  0
  3  6  2  0
  3  5  1  0
  4 55  1  0
  4  1  2  0
  5  2  2  0
  6  4  1  0
  7  6  1  0
  8 10  2  0
  9  5  1  0
  9  8  1  0
 11  9  1  0
 12  8  1  0
 12 13  1  0
 14 16  1  0
 14 13  1  0
 15 26  2  0
 16 21  1  0
 17 25  1  0
 17 27  1  0
 18 24  1  0
 18 20  1  0
 19 25  1  0
 20 19  1  0
 21 20  2  0
 22 23  1  0
 22 16  2  0
 23 18  2  0
 24 17  1  0
 25 15  1  0
 27 29  2  0
 28 27  1  0
 30 28  1  0
 31 40  2  0
 31 36  1  0
 32 28  1  0
 32 36  1  0
 33 32  1  0
 34 35  1  0
 34 33  1  0
 35 31  1  0
 36 37  2  0
 37 38  1  0
 39 38  2  0
 40 39  1  0
 41 15  1  0
 41 42  1  0
 41 51  1  0
 42 45  1  0
 43 47  1  0
 43 42  1  0
 44 43  2  0
 47 46  1  0
 49 47  1  0
 49 50  1  0
 49 48  1  0
 51 54  1  1
 51 52  1  0
 53 51  1  0
 55 95  1  0
 56 65  1  0
 57 62  1  0
 58 59  1  0
 58 57  1  0
 60 59  1  0
 60 69  1  0
 60 61  1  0
 62 56  1  0
 62 61  1  0
 63 56  2  0
 64 65  1  0
 65 55  1  0
 66 67  2  0
 67 86  1  0
 68 71  1  0
 68 67  1  0
 69 70  1  0
 69 66  1  0
 70 68  2  0
 71 72  1  0
 72 73  2  0
 74 77  1  0
 74 73  1  0
 75 74  2  0
 76 75  1  0
 76 71  2  0
 77 78  1  0
 78 83  2  0
 78 79  1  0
 79 80  2  0
 80 81  1  0
 81 85  1  0
 82 81  2  0
 83 82  1  0
 84 83  1  0
 86 87  1  0
 87 89  1  0
 87 90  1  0
 88 86  2  0
 91 66  1  0
 91 92  1  0
 93 91  1  0
 95 94  2  0
M  ISO  4  13 101  14 101  56 100  65 100
M  END
>  <TORSDO>  (22) 
F 21

>  <SCORE>  (22) 
-10.013

>  <name>  (22) 
21

>  <ligand_id>  (22) 
21

>  <original_smiles>  (22) 
[H]C([H])=C([H])C([H])(c1c([H])c([H])c(N([H])C(=O)C([H])([H])C([H])([H])Oc2c([H])c([H])c3c(c2[H])C([H])([H])N(C(=O)C([H])(N([H])C(=O)C([H])(N([H])C([H])([H])[H])C([H])([H])[H])C(C([H])([H])[H])(C([H])([H])[H])C([H])([H])[H])C([H])(C(=O)N([H])C2([H])c4c([H])c([H])c([H])c([H])c4C([H])([H])C([H])([H])C2([H])[H])C3([H])[H])c([H])c1F)N(C(=O)N1C([H])([H])C([H])([H])C([H])([H])C([H])(n2nc(-c3c([H])c([H])c(Oc4c([H])c([H])c(F)c([H])c4F)c([H])c3[H])c(C(=O)N([H])[H])c2N([H])[H])C1([H])[H])C([H])([H])[H]

>  <smiles>  (22) 
[H]C([H])=C([H])C([H])(c1c([H])c([H])c(N([H])C(=O)C([H])([H])C([H])([H])Oc2c([H])c([H])c3c(c2[H])C([H])([H])N(C(=O)C([H])(N([H])C(=O)C([H])(N([H])C([H])([H])[H])C([H])([H])[H])C(C([H])([H])[H])(C([H])([H])[H])C([H])([H])[H])C([H])(C(=O)N([H])C2([H])c4c([H])c([H])c([H])c([H])c4C([H])([H])C([H])([H])C2([H])[H])C3([H])[H])c([H])c1F)N(C(=O)N1C([H])([H])C([H])([H])C([H])([H])C([H])(n2nc(-c3c([H])c([H])c(Oc4c([H])c([H])c(F)c([H])c4F)c([H])c3[H])c(C(=O)N([H])[H])c2N([H])[H])C1([H])[H])C([H])([H])[H]

$$$$
22:0:0
     RDKit          3D

 94103  0  0  1  0  0  0  0  0999 V2000
  -28.3310  -19.3670   20.7170 C   0  0  0  0  0  3  0  0  0  0  0  0
  -28.4510  -17.9390   20.6970 C   0  0  0  0  0  3  0  0  0  0  0  0
  -30.8380  -18.1070   20.6680 C   0  0  0  0  0  3  0  0  0  0  0  0
  -29.4600  -20.2280   20.7410 C   0  0  0  0  0  0  0  0  0  0  0  0
  -29.7000  -17.2480   20.6830 C   0  0  0  0  0  0  0  0  0  0  0  0
  -30.7170  -19.5440   20.7070 C   0  0  0  0  0  0  0  0  0  0  0  0
  -30.5670  -14.7300   20.4850 C   0  0  0  0  0  0  0  0  0  0  0  0
  -30.4520  -12.4500   19.4600 C   0  0  0  0  0  2  0  0  0  0  0  0
  -29.5150  -12.5130   18.2310 C   0  0  0  0  0  2  0  0  0  0  0  0
  -28.0390  -12.3320   18.6430 C   0  0  0  0  0  2  0  0  0  0  0  0
  -27.6480  -13.2160   19.8560 C   0  0  0  0  0  3  0  0  0  0  0  0
  -28.6950  -13.1010   20.9880 C   0  0  0  0  0  2  0  0  0  0  0  0
  -29.9990  -13.4780   20.4210 N   0  0  0  0  0  0  0  0  0  0  0  0
  -31.7410  -14.9070   20.1420 O   0  0  0  0  0  0  0  0  0  0  0  0
  -29.6880  -15.7650   20.7580 N   0  0  0  0  0  0  0  0  0  0  0  0
  -28.7770  -15.3900   20.9720 H   0  0  0  0  0  0  0  0  0  0  0  0
  -25.2540  -13.8160   20.5670 C   0  0  0  0  0  0  0  0  0  0  0  0
  -24.1810  -13.0430   20.9220 C   0  0  0  0  0  0  0  0  0  0  0  0
  -24.6390  -11.6900   20.8750 C   0  0  0  0  0  0  0  0  0  0  0  0
  -26.2960  -12.9330   20.3280 N   0  0  0  0  0  0  0  0  0  0  0  0
  -25.9310  -11.6490   20.5740 N   0  0  0  0  0  0  0  0  0  0  0  0
  -23.9050  -10.4290   21.0410 C   0  0  0  0  0  0  0  0  0  0  0  0
  -24.3600   -9.4200   21.9180 C   0  0  0  0  0  3  0  0  0  0  0  0
  -23.6280   -8.2240   22.0750 C   0  0  0  0  0  3  0  0  0  0  0  0
  -22.4260   -8.0270   21.3540 C   0  0  0  0  0  0  0  0  0  0  0  0
  -21.9890   -9.0250   20.4650 C   0  0  0  0  0  3  0  0  0  0  0  0
  -22.7220  -10.2130   20.3060 C   0  0  0  0  0  3  0  0  0  0  0  0
  -21.6630   -6.8860   21.4240 O   0  0  0  0  0  0  0  0  0  0  0  0
  -21.6850   -6.0720   22.5270 C   0  0  0  0  0  0  0  0  0  0  0  0
  -21.4010   -6.5620   23.8210 C   0  0  0  0  0  3  0  0  0  0  0  0
  -21.3660   -5.6780   24.9180 C   0  0  0  0  0  3  0  0  0  0  0  0
  -21.6050   -4.3050   24.7230 C   0  0  0  0  0  0  0  0  0  0  0  0
  -21.8820   -3.8130   23.4350 C   0  0  0  0  0  3  0  0  0  0  0  0
  -21.9200   -4.6950   22.3400 C   0  0  0  0  0  0  0  0  0  0  0  0
  -22.1660   -4.2130   21.0980 F   0  0  0  0  0  0  0  0  0  0  0  0
  -21.5640   -3.4530   25.7740 F   0  0  0  0  0  0  0  0  0  0  0  0
  -22.7840  -13.5240   21.1870 C   0  0  0  0  0  0  0  0  0  0  0  0
  -22.0470  -12.8230   22.0430 N   0  0  0  0  0  0  0  0  0  0  0  0
  -22.3530  -14.5540   20.6720 O   0  0  0  0  0  0  0  0  0  0  0  0
  -22.4060  -11.9900   22.4840 H   0  0  0  0  0  0  0  0  0  0  0  0
  -21.1080  -13.1270   22.2610 H   0  0  0  0  0  0  0  0  0  0  0  0
  -25.4240  -15.1870   20.4000 N   0  0  0  0  0  0  0  0  0  0  0  0
  -24.6450  -15.8320   20.4760 H   0  0  0  0  0  0  0  0  0  0  0  0
  -26.2380  -15.6050   19.9690 H   0  0  0  0  0  0  0  0  0  0  0  0
  -28.3810  -23.9410   21.1220 C   0  0  0  0  0  0  0  0  0  0  0  0
  -28.1200  -25.3070   21.0860 C   0  0  0  0  0  3  0  0  0  0  0  0
  -28.0900  -23.1770   22.3960 C   0  0  0  0  0  2  0  0  0  0  0  0
  -28.9570  -22.8300   20.1790 C   0  0  0  0  0  2  0  0  0  0  0  0
  -29.0270  -21.9590   22.4120 C   0  0  0  0  0  2  0  0  0  0  0  0
  -29.3730  -21.6520   21.0270 N   0  0  0  0  0  0  0  0  0  0  0  0
  -28.2740  -26.3570   20.1560 O   0  0  0  0  0  0  0  0  0  0  0  0
  -24.6300  -31.8560   23.2000 C   0  0  0  0  0  0  0  0  0  0  0  0
  -27.2230  -27.2910   20.1210 C   0  0  0  0  0  0  0  0  0  0  0  0
  -23.4270  -30.4780   21.5420 C   0  0  0  0  0  3  0  0  0  0  0  0
  -24.8760  -28.9280   20.1090 C   0  0  0  0  0  0  0  0  0  0  0  0
  -25.9710  -30.7770   21.3760 C   0  0  0  0  0  2  0  0  0  0  0  0
  -26.0470  -29.4020   20.7180 C   0  0  0  0  0  0  0  0  0  0  0  0
  -27.2270  -28.5930   20.7170 C   0  0  0  0  0  3  0  0  0  0  0  0
  -26.0350  -26.8750   19.4900 C   0  0  0  0  0  3  0  0  0  0  0  0
  -24.8730  -27.6710   19.4840 C   0  0  0  0  0  3  0  0  0  0  0  0
  -23.6440  -29.8110   20.1580 C   0  0  0  0  0  2  0  0  0  0  0  0
  -24.6950  -31.0550   22.0960 N   0  0  0  0  0  0  0  0  0  0  0  0
  -23.5460  -32.1360   23.7310 O   0  0  0  0  0  0  0  0  0  0  0  0
  -22.7510  -29.4590   22.4920 C   0  0  0  0  0  0  0  0  0  0  0  0
  -21.4220  -29.3030   22.3660 N   0  0  0  0  0  0  0  0  0  0  0  0
  -23.4220  -28.8120   23.3000 O   0  0  0  0  0  0  0  0  0  0  0  0
  -20.9410  -29.8770   21.6880 H   0  0  0  0  0  0  0  0  0  0  0  0
  -18.0300  -28.1380   22.8480 C   0  0  0  0  0  0  0  0  0  0  0  0
  -20.5900  -28.3690   23.1280 C   0  0  0  0  0  3  0  0  0  0  0  0
  -20.6780  -26.9400   22.5410 C   0  0  0  0  0  2  0  0  0  0  0  0
  -19.5760  -26.6380   21.5210 C   0  0  0  0  0  2  0  0  0  0  0  0
  -18.1940  -26.7930   22.1620 C   0  0  0  0  0  2  0  0  0  0  0  0
  -19.1550  -28.8850   23.2880 C   0  0  0  0  0  0  0  0  0  0  0  0
  -18.9470  -30.1460   23.8890 C   0  0  0  0  0  3  0  0  0  0  0  0
  -17.6460  -30.6570   24.0560 C   0  0  0  0  0  3  0  0  0  0  0  0
  -16.5360  -29.9070   23.6320 C   0  0  0  0  0  3  0  0  0  0  0  0
  -16.7290  -28.6490   23.0340 C   0  0  0  0  0  3  0  0  0  0  0  0
  -25.9130  -32.4760   23.8330 C   0  0  0  0  0  3  0  0  0  0  0  0
  -25.5940  -33.8550   24.2270 N   0  0  0  0  0  0  0  0  0  0  0  0
  -25.9050  -34.9440   23.5100 C   0  0  0  0  0  0  0  0  0  0  0  0
  -26.5620  -34.8910   22.4660 O   0  0  0  0  0  0  0  0  0  0  0  0
  -25.0100  -33.9690   25.0430 H   0  0  0  0  0  0  0  0  0  0  0  0
  -24.1500  -36.7290   23.2640 C   0  0  0  0  0  1  0  0  0  0  0  0
  -25.4120  -36.3070   24.0330 C   0  0  0  0  0  3  0  0  0  0  0  0
  -27.5590  -37.1790   24.8460 C   0  0  0  0  0  1  0  0  0  0  0  0
  -26.4290  -37.3770   23.9410 N   0  0  0  0  0  0  0  0  0  0  0  0
  -26.0170  -38.2840   24.1410 H   0  0  0  0  0  0  0  0  0  0  0  0
  -26.4500  -31.6570   25.0720 C   0  0  1  0  0  0  0  0  0  0  0  0
  -25.3730  -31.3740   26.1450 C   0  0  0  0  0  1  0  0  0  0  0  0
  -27.0330  -30.2990   24.6190 C   0  0  0  0  0  1  0  0  0  0  0  0
  -27.6070  -32.4300   25.7480 C   0  0  0  0  0  1  0  0  0  0  0  0
  -31.8660  -20.3310   20.7810 N   0  0  0  0  0  0  0  0  0  0  0  0
  -32.6280  -19.9600   21.3380 H   0  0  0  0  0  0  0  0  0  0  0  0
  -31.6310  -21.2830   21.0530 H   0  0  0  0  0  0  0  0  0  0  0  0
  1  4  1  0
  2  1  2  0
  3  5  2  0
  3  6  1  0
  4 50  1  0
  5  2  1  0
  5 15  1  0
  6  4  2  0
  6 92  1  0
  7 15  1  0
  8 13  1  0
  9 10  1  0
  9  8  1  0
 11 10  1  0
 11 20  1  0
 11 12  1  0
 13  7  1  0
 13 12  1  0
 14  7  2  0
 15 16  1  0
 17 18  2  0
 18 37  1  0
 19 18  1  0
 19 22  1  0
 20 17  1  0
 20 21  1  0
 21 19  2  0
 22 23  1  0
 23 24  2  0
 25 28  1  0
 25 24  1  0
 26 25  2  0
 27 26  1  0
 27 22  2  0
 28 29  1  0
 29 30  1  0
 30 31  2  0
 32 31  1  0
 32 36  1  0
 33 32  2  0
 34 29  2  0
 34 33  1  0
 35 34  1  0
 37 38  1  0
 38 41  1  0
 38 40  1  0
 39 37  2  0
 42 43  1  0
 42 17  1  0
 44 42  1  0
 45 47  1  0
 46 45  2  0
 47 49  1  0
 48 50  1  0
 48 45  1  0
 50 49  1  0
 51 46  1  0
 52 63  2  0
 53 51  1  0
 53 58  1  0
 54 62  1  0
 54 64  1  0
 55 61  1  0
 55 57  1  0
 56 62  1  0
 57 56  1  0
 58 57  2  0
 59 53  2  0
 60 59  1  0
 60 55  2  0
 61 54  1  0
 62 52  1  0
 64 66  2  0
 65 64  1  0
 67 65  1  0
 68 77  2  0
 68 73  1  0
 69 65  1  0
 69 73  1  0
 70 69  1  0
 71 72  1  0
 71 70  1  0
 72 68  1  0
 73 74  2  0
 74 75  1  0
 76 75  2  0
 77 76  1  0
 78 52  1  0
 78 79  1  0
 78 88  1  0
 79 82  1  0
 80 84  1  0
 80 79  1  0
 81 80  2  0
 84 83  1  0
 86 84  1  0
 86 87  1  0
 86 85  1  0
 88 91  1  1
 88 89  1  0
 90 88  1  0
 92 94  1  0
 92 93  1  0
M  ISO  4   7 100  15 100  46 101  51 101
M  END
>  <TORSDO>  (23) 
F 18

>  <SCORE>  (23) 
-14.449

>  <name>  (23) 
22

>  <ligand_id>  (23) 
22

>  <original_smiles>  (23) 
[H]C(Oc1c([H])c([H])c2c(c1[H])C([H])([H])N(C(=O)C([H])(N([H])C(=O)C([H])(N([H])C([H])([H])[H])C([H])([H])[H])C(C([H])([H])[H])(C([H])([H])[H])C([H])([H])[H])C([H])(C(=O)N([H])C1([H])c3c([H])c([H])c([H])c([H])c3C([H])([H])C([H])([H])C1([H])[H])C2([H])[H])=C1C([H])([H])N(c2c([H])c([H])c(N([H])C(=O)N3C([H])([H])C([H])([H])C([H])([H])C([H])(n4nc(-c5c([H])c([H])c(Oc6c([H])c([H])c(F)c([H])c6F)c([H])c5[H])c(C(=O)N([H])[H])c4N([H])[H])C3([H])[H])c([H])c2N([H])[H])C([H])([H])C1([H])[H]

>  <smiles>  (23) 
[H]C(Oc1c([H])c([H])c2c(c1[H])C([H])([H])N(C(=O)C([H])(N([H])C(=O)C([H])(N([H])C([H])([H])[H])C([H])([H])[H])C(C([H])([H])[H])(C([H])([H])[H])C([H])([H])[H])C([H])(C(=O)N([H])C1([H])c3c([H])c([H])c([H])c([H])c3C([H])([H])C([H])([H])C1([H])[H])C2([H])[H])=C1C([H])([H])N(c2c([H])c([H])c(N([H])C(=O)N3C([H])([H])C([H])([H])C([H])([H])C([H])(n4nc(-c5c([H])c([H])c(Oc6c([H])c([H])c(F)c([H])c6F)c([H])c5[H])c(C(=O)N([H])[H])c4N([H])[H])C3([H])[H])c([H])c2N([H])[H])C([H])([H])C1([H])[H]

$$$$
23:0:0
     RDKit          3D

 94103  0  0  1  0  0  0  0  0999 V2000
  -28.8770  -24.9180   21.1990 C   0  0  0  0  0  0  0  0  0  0  0  0
  -28.9330  -26.2690   21.1330 C   0  0  0  0  0  3  0  0  0  0  0  0
  -29.2020  -24.1560   22.4790 C   0  0  0  0  0  2  0  0  0  0  0  0
  -28.4030  -24.0390   20.0510 C   0  0  0  0  0  2  0  0  0  0  0  0
  -29.9730  -22.8310   22.2490 C   0  0  0  0  0  2  0  0  0  0  0  0
  -29.2550  -22.7660   19.8850 C   0  0  0  0  0  2  0  0  0  0  0  0
  -29.4250  -22.0340   21.1430 N   0  0  0  0  0  0  0  0  0  0  0  0
  -30.4130  -18.4960   21.9570 C   0  0  0  0  0  3  0  0  0  0  0  0
  -29.8320  -19.7860   22.0520 C   0  0  0  0  0  3  0  0  0  0  0  0
  -30.7720  -20.3640   19.8950 C   0  0  0  0  0  3  0  0  0  0  0  0
  -31.1910  -18.1310   20.8320 C   0  0  0  0  0  0  0  0  0  0  0  0
  -30.0040  -20.7430   21.0230 C   0  0  0  0  0  0  0  0  0  0  0  0
  -31.3600  -19.0820   19.8020 C   0  0  0  0  0  0  0  0  0  0  0  0
  -32.1170  -18.7820   18.7210 F   0  0  0  0  0  0  0  0  0  0  0  0
  -31.9470  -16.7930   20.7830 C   0  0  0  0  0  2  0  0  0  0  0  0
  -31.6320  -14.5650   19.6520 C   0  0  0  0  0  0  0  0  0  0  0  0
  -31.1890  -12.2660   18.8310 C   0  0  0  0  0  2  0  0  0  0  0  0
  -30.1860  -12.2610   17.6590 C   0  0  0  0  0  2  0  0  0  0  0  0
  -28.7350  -12.2480   18.1740 C   0  0  0  0  0  2  0  0  0  0  0  0
  -28.4860  -13.3080   19.2770 C   0  0  0  0  0  3  0  0  0  0  0  0
  -29.5860  -13.2560   20.3580 C   0  0  0  0  0  2  0  0  0  0  0  0
  -30.8890  -13.4230   19.6910 N   0  0  0  0  0  0  0  0  0  0  0  0
  -32.6660  -14.6590   18.9830 O   0  0  0  0  0  0  0  0  0  0  0  0
  -31.1830  -15.5890   20.4080 N   0  0  0  0  0  0  0  0  0  0  0  0
  -30.3120  -15.4380   20.8950 H   0  0  0  0  0  0  0  0  0  0  0  0
  -26.2400  -14.1610   20.1970 C   0  0  0  0  0  0  0  0  0  0  0  0
  -25.1230  -13.5020   20.6380 C   0  0  0  0  0  0  0  0  0  0  0  0
  -25.4190  -12.1090   20.5320 C   0  0  0  0  0  0  0  0  0  0  0  0
  -27.1520  -13.1730   19.8590 N   0  0  0  0  0  0  0  0  0  0  0  0
  -26.6660  -11.9310   20.1160 N   0  0  0  0  0  0  0  0  0  0  0  0
  -24.5710  -10.9300   20.7510 C   0  0  0  0  0  0  0  0  0  0  0  0
  -24.9270   -9.9260   21.6790 C   0  0  0  0  0  3  0  0  0  0  0  0
  -24.0830   -8.8140   21.8880 C   0  0  0  0  0  3  0  0  0  0  0  0
  -22.8680   -8.6990   21.1690 C   0  0  0  0  0  0  0  0  0  0  0  0
  -22.5300   -9.6910   20.2320 C   0  0  0  0  0  3  0  0  0  0  0  0
  -23.3720  -10.7970   20.0230 C   0  0  0  0  0  3  0  0  0  0  0  0
  -21.9990   -7.6420   21.2870 O   0  0  0  0  0  0  0  0  0  0  0  0
  -21.8410   -6.9670   22.4710 C   0  0  0  0  0  0  0  0  0  0  0  0
  -21.4430   -7.6240   23.6550 C   0  0  0  0  0  3  0  0  0  0  0  0
  -21.2250   -6.8830   24.8330 C   0  0  0  0  0  3  0  0  0  0  0  0
  -21.3950   -5.4860   24.8270 C   0  0  0  0  0  0  0  0  0  0  0  0
  -21.7880   -4.8300   23.6480 C   0  0  0  0  0  3  0  0  0  0  0  0
  -22.0080   -5.5680   22.4720 C   0  0  0  0  0  0  0  0  0  0  0  0
  -22.3630   -4.9290   21.3310 F   0  0  0  0  0  0  0  0  0  0  0  0
  -21.1810   -4.7710   25.9570 F   0  0  0  0  0  0  0  0  0  0  0  0
  -23.8170  -14.1270   21.0410 C   0  0  0  0  0  0  0  0  0  0  0  0
  -23.0940  -13.4960   21.9600 N   0  0  0  0  0  0  0  0  0  0  0  0
  -23.4510  -15.2050   20.5740 O   0  0  0  0  0  0  0  0  0  0  0  0
  -23.4020  -12.6220   22.3570 H   0  0  0  0  0  0  0  0  0  0  0  0
  -22.2190  -13.8940   22.2690 H   0  0  0  0  0  0  0  0  0  0  0  0
  -26.5460  -15.5100   20.0420 N   0  0  0  0  0  0  0  0  0  0  0  0
  -25.8760  -16.2470   20.2310 H   0  0  0  0  0  0  0  0  0  0  0  0
  -27.4190  -15.8580   19.6670 H   0  0  0  0  0  0  0  0  0  0  0  0
  -28.5890  -27.0010   20.0260 O   0  0  0  0  0  0  0  0  0  0  0  0
  -24.7050  -31.9380   23.4190 C   0  0  0  0  0  0  0  0  0  0  0  0
  -27.4210  -27.7190   20.1150 C   0  0  0  0  0  0  0  0  0  0  0  0
  -23.5030  -30.5560   21.7540 C   0  0  0  0  0  3  0  0  0  0  0  0
  -24.9730  -29.1270   20.2360 C   0  0  0  0  0  0  0  0  0  0  0  0
  -26.0060  -31.0170   21.5070 C   0  0  0  0  0  2  0  0  0  0  0  0
  -26.1260  -29.6730   20.8190 C   0  0  0  0  0  0  0  0  0  0  0  0
  -27.3530  -28.9760   20.7600 C   0  0  0  0  0  3  0  0  0  0  0  0
  -26.2570  -27.1850   19.5300 C   0  0  0  0  0  3  0  0  0  0  0  0
  -25.0340  -27.8800   19.5890 C   0  0  0  0  0  3  0  0  0  0  0  0
  -23.6980  -29.9330   20.3450 C   0  0  0  0  0  2  0  0  0  0  0  0
  -24.7580  -31.1820   22.2860 N   0  0  0  0  0  0  0  0  0  0  0  0
  -23.6310  -32.1510   23.9970 O   0  0  0  0  0  0  0  0  0  0  0  0
  -22.9120  -29.4790   22.6900 C   0  0  0  0  0  0  0  0  0  0  0  0
  -21.6160  -29.1760   22.5080 N   0  0  0  0  0  0  0  0  0  0  0  0
  -23.6150  -28.9200   23.5360 O   0  0  0  0  0  0  0  0  0  0  0  0
  -21.1050  -29.6820   21.7970 H   0  0  0  0  0  0  0  0  0  0  0  0
  -18.3910  -27.5710   22.7630 C   0  0  0  0  0  0  0  0  0  0  0  0
  -20.8600  -28.1660   23.2480 C   0  0  0  0  0  3  0  0  0  0  0  0
  -21.1980  -26.7430   22.7470 C   0  0  0  0  0  2  0  0  0  0  0  0
  -20.2430  -26.2490   21.6550 C   0  0  0  0  0  2  0  0  0  0  0  0
  -18.7990  -26.2360   22.1620 C   0  0  0  0  0  2  0  0  0  0  0  0
  -19.3600  -28.4850   23.2570 C   0  0  0  0  0  0  0  0  0  0  0  0
  -18.9290  -29.7300   23.7660 C   0  0  0  0  0  3  0  0  0  0  0  0
  -17.5620  -30.0610   23.7960 C   0  0  0  0  0  3  0  0  0  0  0  0
  -16.6070  -29.1440   23.3250 C   0  0  0  0  0  3  0  0  0  0  0  0
  -17.0220  -27.9030   22.8110 C   0  0  0  0  0  3  0  0  0  0  0  0
  -25.9870  -32.5890   24.0300 C   0  0  0  0  0  3  0  0  0  0  0  0
  -25.6790  -33.9970   24.3080 N   0  0  0  0  0  0  0  0  0  0  0  0
  -26.0010  -35.0190   23.5030 C   0  0  0  0  0  0  0  0  0  0  0  0
  -26.6640  -34.8780   22.4720 O   0  0  0  0  0  0  0  0  0  0  0  0
  -25.0920  -34.1840   25.1080 H   0  0  0  0  0  0  0  0  0  0  0  0
  -24.2590  -36.7840   23.0910 C   0  0  0  0  0  1  0  0  0  0  0  0
  -25.5100  -36.4210   23.9080 C   0  0  0  0  0  3  0  0  0  0  0  0
  -27.6470  -37.3470   24.6860 C   0  0  0  0  0  1  0  0  0  0  0  0
  -26.5340  -37.4770   23.7490 N   0  0  0  0  0  0  0  0  0  0  0  0
  -26.1210  -38.3970   23.8790 H   0  0  0  0  0  0  0  0  0  0  0  0
  -26.4920  -31.8590   25.3350 C   0  0  1  0  0  0  0  0  0  0  0  0
  -25.3850  -31.6450   26.3940 C   0  0  0  0  0  1  0  0  0  0  0  0
  -27.0870  -30.4740   24.9930 C   0  0  0  0  0  1  0  0  0  0  0  0
  -27.6310  -32.6780   25.9850 C   0  0  0  0  0  1  0  0  0  0  0  0
  1  3  1  0
  2  1  2  0
  4  1  1  0
  5  3  1  0
  6  4  1  0
  6  7  1  0
  7  5  1  0
  8  9  1  0
 10 12  1  0
 11  8  2  0
 12  7  1  0
 12  9  2  0
 13 10  2  0
 13 11  1  0
 14 13  1  0
 15 11  1  0
 16 22  1  0
 16 24  1  0
 17 22  1  0
 18 19  1  0
 18 17  1  0
 20 19  1  0
 20 29  1  0
 20 21  1  0
 22 21  1  0
 23 16  2  0
 24 15  1  0
 24 25  1  0
 26 27  2  0
 27 46  1  0
 28 27  1  0
 28 31  1  0
 29 30  1  0
 29 26  1  0
 30 28  2  0
 31 32  1  0
 32 33  2  0
 34 37  1  0
 34 33  1  0
 35 34  2  0
 36 35  1  0
 36 31  2  0
 37 38  1  0
 38 43  2  0
 38 39  1  0
 39 40  2  0
 41 40  1  0
 41 45  1  0
 42 41  2  0
 43 42  1  0
 44 43  1  0
 46 47  1  0
 47 50  1  0
 47 49  1  0
 48 46  2  0
 51 26  1  0
 51 52  1  0
 53 51  1  0
 54 56  1  0
 54  2  1  0
 55 66  2  0
 56 61  1  0
 57 65  1  0
 57 67  1  0
 58 64  1  0
 58 60  1  0
 59 65  1  0
 60 59  1  0
 61 60  2  0
 62 63  1  0
 62 56  2  0
 63 58  2  0
 64 57  1  0
 65 55  1  0
 67 69  2  0
 68 67  1  0
 70 68  1  0
 71 80  2  0
 71 76  1  0
 72 68  1  0
 72 76  1  0
 73 72  1  0
 74 75  1  0
 74 73  1  0
 75 71  1  0
 76 77  2  0
 77 78  1  0
 79 78  2  0
 80 79  1  0
 81 55  1  0
 81 82  1  0
 81 91  1  0
 82 85  1  0
 83 87  1  0
 83 82  1  0
 84 83  2  0
 87 86  1  0
 89 90  1  0
 89 87  1  0
 89 88  1  0
 91 94  1  1
 91 92  1  0
 93 91  1  0
M  ISO  4   2 101  16 100  24 100  54 101
M  END
>  <TORSDO>  (24) 
F 18

>  <SCORE>  (24) 
-12.797

>  <name>  (24) 
23

>  <ligand_id>  (24) 
23

>  <original_smiles>  (24) 
[H]C(Oc1c([H])c([H])c2c(c1[H])C([H])([H])N(C(=O)C([H])(N([H])C(=O)C([H])(N([H])C([H])([H])[H])C([H])([H])[H])C(C([H])([H])[H])(C([H])([H])[H])C([H])([H])[H])C([H])(C(=O)N([H])C1([H])c3c([H])c([H])c([H])c([H])c3C([H])([H])C([H])([H])C1([H])[H])C2([H])[H])=C1C([H])([H])C([H])([H])N(c2c([H])c([H])c(C([H])([H])N([H])C(=O)N3C([H])([H])C([H])([H])C([H])([H])C([H])(n4nc(-c5c([H])c([H])c(Oc6c([H])c([H])c(F)c([H])c6F)c([H])c5[H])c(C(=O)N([H])[H])c4N([H])[H])C3([H])[H])c(F)c2[H])C([H])([H])C1([H])[H]

>  <smiles>  (24) 
[H]C(Oc1c([H])c([H])c2c(c1[H])C([H])([H])N(C(=O)C([H])(N([H])C(=O)C([H])(N([H])C([H])([H])[H])C([H])([H])[H])C(C([H])([H])[H])(C([H])([H])[H])C([H])([H])[H])C([H])(C(=O)N([H])C1([H])c3c([H])c([H])c([H])c([H])c3C([H])([H])C([H])([H])C1([H])[H])C2([H])[H])=C1C([H])([H])C([H])([H])N(c2c([H])c([H])c(C([H])([H])N([H])C(=O)N3C([H])([H])C([H])([H])C([H])([H])C([H])(n4nc(-c5c([H])c([H])c(Oc6c([H])c([H])c(F)c([H])c6F)c([H])c5[H])c(C(=O)N([H])[H])c4N([H])[H])C3([H])[H])c(F)c2[H])C([H])([H])C1([H])[H]

$$$$
24:0:0
     RDKit          3D

 92100  0  0  1  0  0  0  0  0999 V2000
  -30.7340  -18.5160   19.8030 C   0  0  0  0  0  3  0  0  0  0  0  0
  -30.4690  -19.9520   19.6500 C   0  0  0  0  0  3  0  0  0  0  0  0
  -28.4140  -18.1030   19.7460 C   0  0  0  0  0  3  0  0  0  0  0  0
  -29.7090  -17.5010   19.8430 C   0  0  0  0  0  0  0  0  0  0  0  0
  -29.1520  -20.5310   19.5350 C   0  0  0  0  0  0  0  0  0  0  0  0
  -28.1350  -19.5240   19.6210 C   0  0  0  0  0  0  0  0  0  0  0  0
  -30.6060  -14.8670   19.6150 C   0  0  0  0  0  0  0  0  0  0  0  0
  -30.4150  -12.5040   18.7150 C   0  0  0  0  0  2  0  0  0  0  0  0
  -29.3660  -12.4690   17.5790 C   0  0  0  0  0  2  0  0  0  0  0  0
  -27.9430  -12.2790   18.1450 C   0  0  0  0  0  2  0  0  0  0  0  0
  -27.6590  -13.2160   19.3480 C   0  0  0  0  0  3  0  0  0  0  0  0
  -28.8160  -13.2030   20.3720 C   0  0  0  0  0  2  0  0  0  0  0  0
  -30.0390  -13.5970   19.6550 N   0  0  0  0  0  0  0  0  0  0  0  0
  -31.7540  -14.9810   19.1690 O   0  0  0  0  0  0  0  0  0  0  0  0
  -29.7790  -15.9700   19.9400 N   0  0  0  0  0  0  0  0  0  0  0  0
  -28.9250  -15.5960   20.3210 H   0  0  0  0  0  0  0  0  0  0  0  0
  -25.3860  -13.8430   20.3510 C   0  0  0  0  0  0  0  0  0  0  0  0
  -24.3400  -13.0870   20.8060 C   0  0  0  0  0  0  0  0  0  0  0  0
  -24.7530  -11.7250   20.6770 C   0  0  0  0  0  0  0  0  0  0  0  0
  -26.3680  -12.9420   19.9690 N   0  0  0  0  0  0  0  0  0  0  0  0
  -26.0010  -11.6600   20.2300 N   0  0  0  0  0  0  0  0  0  0  0  0
  -24.0070  -10.4780   20.8990 C   0  0  0  0  0  0  0  0  0  0  0  0
  -24.4760   -9.4830   21.7850 C   0  0  0  0  0  3  0  0  0  0  0  0
  -23.7300   -8.3030   21.9960 C   0  0  0  0  0  3  0  0  0  0  0  0
  -22.5020   -8.1090   21.3220 C   0  0  0  0  0  0  0  0  0  0  0  0
  -22.0490   -9.0920   20.4260 C   0  0  0  0  0  3  0  0  0  0  0  0
  -22.7940  -10.2640   20.2120 C   0  0  0  0  0  3  0  0  0  0  0  0
  -21.7250   -6.9820   21.4440 O   0  0  0  0  0  0  0  0  0  0  0  0
  -21.6950   -6.2500   22.6040 C   0  0  0  0  0  0  0  0  0  0  0  0
  -21.3230   -6.8260   23.8380 C   0  0  0  0  0  3  0  0  0  0  0  0
  -21.2370   -6.0240   24.9930 C   0  0  0  0  0  3  0  0  0  0  0  0
  -21.5140   -4.6460   24.9160 C   0  0  0  0  0  0  0  0  0  0  0  0
  -21.8790   -4.0690   23.6870 C   0  0  0  0  0  3  0  0  0  0  0  0
  -21.9660   -4.8690   22.5330 C   0  0  0  0  0  0  0  0  0  0  0  0
  -22.2980   -4.3030   21.3480 F   0  0  0  0  0  0  0  0  0  0  0  0
  -21.4240   -3.8730   26.0240 F   0  0  0  0  0  0  0  0  0  0  0  0
  -22.9950  -13.5960   21.2360 C   0  0  0  0  0  0  0  0  0  0  0  0
  -22.3450  -12.9080   22.1650 N   0  0  0  0  0  0  0  0  0  0  0  0
  -22.5340  -14.6410   20.7800 O   0  0  0  0  0  0  0  0  0  0  0  0
  -22.7290  -12.0610   22.5570 H   0  0  0  0  0  0  0  0  0  0  0  0
  -21.4460  -13.2340   22.4920 H   0  0  0  0  0  0  0  0  0  0  0  0
  -25.5760  -15.2140   20.2020 N   0  0  0  0  0  0  0  0  0  0  0  0
  -24.8310  -15.8740   20.3970 H   0  0  0  0  0  0  0  0  0  0  0  0
  -26.3520  -15.6310   19.7060 H   0  0  0  0  0  0  0  0  0  0  0  0
  -29.1790  -23.3010   19.2400 C   0  0  0  0  0  0  0  0  0  0  0  0
  -28.6920  -21.9710   19.2750 N   0  0  0  0  0  0  0  0  0  0  0  0
  -30.3500  -23.5420   19.5440 O   0  0  0  0  0  0  0  0  0  0  0  0
  -27.6980  -21.9800   19.0880 H   0  0  0  0  0  0  0  0  0  0  0  0
  -28.2070  -24.5600   18.7690 C   0  0  0  0  0  2  0  0  0  0  0  0
  -28.5080  -26.0750   18.9780 O   0  0  0  0  0  0  0  0  0  0  0  0
  -24.6520  -31.1640   22.6840 C   0  0  0  0  0  0  0  0  0  0  0  0
  -27.4120  -27.0160   19.0490 C   0  0  0  0  0  0  0  0  0  0  0  0
  -23.4980  -29.9350   20.8880 C   0  0  0  0  0  3  0  0  0  0  0  0
  -25.0020  -28.6360   19.2590 C   0  0  0  0  0  0  0  0  0  0  0  0
  -26.0340  -30.3420   20.7410 C   0  0  0  0  0  2  0  0  0  0  0  0
  -26.1670  -29.0520   19.9160 C   0  0  0  0  0  0  0  0  0  0  0  0
  -27.3700  -28.2580   19.8010 C   0  0  0  0  0  3  0  0  0  0  0  0
  -26.2160  -26.7150   18.3570 C   0  0  0  0  0  3  0  0  0  0  0  0
  -25.0390  -27.4830   18.4640 C   0  0  0  0  0  3  0  0  0  0  0  0
  -23.7320  -29.4550   19.4300 C   0  0  0  0  0  2  0  0  0  0  0  0
  -24.7480  -30.4950   21.4940 N   0  0  0  0  0  0  0  0  0  0  0  0
  -23.5610  -31.3270   23.2500 O   0  0  0  0  0  0  0  0  0  0  0  0
  -22.8810  -28.7770   21.7130 C   0  0  0  0  0  0  0  0  0  0  0  0
  -21.5530  -28.5930   21.6130 N   0  0  0  0  0  0  0  0  0  0  0  0
  -23.6000  -28.0540   22.4080 O   0  0  0  0  0  0  0  0  0  0  0  0
  -21.0280  -29.2330   21.0340 H   0  0  0  0  0  0  0  0  0  0  0  0
  -18.2090  -27.2980   22.1330 C   0  0  0  0  0  0  0  0  0  0  0  0
  -20.7820  -27.5340   22.2690 C   0  0  0  0  0  3  0  0  0  0  0  0
  -20.8390  -26.2180   21.4560 C   0  0  0  0  0  2  0  0  0  0  0  0
  -19.6700  -26.0610   20.4790 C   0  0  0  0  0  2  0  0  0  0  0  0
  -18.3350  -26.0830   21.2280 C   0  0  0  0  0  2  0  0  0  0  0  0
  -19.3560  -27.9890   22.6070 C   0  0  0  0  0  0  0  0  0  0  0  0
  -19.1790  -29.1310   23.4170 C   0  0  0  0  0  3  0  0  0  0  0  0
  -17.8900  -29.5830   23.7540 C   0  0  0  0  0  3  0  0  0  0  0  0
  -16.7580  -28.8870   23.2910 C   0  0  0  0  0  3  0  0  0  0  0  0
  -16.9200  -27.7470   22.4860 C   0  0  0  0  0  3  0  0  0  0  0  0
  -25.9080  -31.7740   23.3780 C   0  0  0  0  0  3  0  0  0  0  0  0
  -26.4920  -30.8540   24.5210 C   0  0  1  0  0  0  0  0  0  0  0  0
  -25.4360  -30.4050   25.5580 C   0  0  0  0  0  1  0  0  0  0  0  0
  -27.1370  -29.5800   23.9260 C   0  0  0  0  0  1  0  0  0  0  0  0
  -27.6140  -31.6050   25.2750 C   0  0  0  0  0  1  0  0  0  0  0  0
  -25.5260  -33.0870   23.9210 N   0  0  0  0  0  0  0  0  0  0  0  0
  -25.7770  -34.2620   23.3280 C   0  0  0  0  0  0  0  0  0  0  0  0
  -26.4220  -34.3560   22.2810 O   0  0  0  0  0  0  0  0  0  0  0  0
  -24.9490  -33.0830   24.7500 H   0  0  0  0  0  0  0  0  0  0  0  0
  -23.9330  -35.9760   23.2940 C   0  0  0  0  0  1  0  0  0  0  0  0
  -25.2250  -35.5340   24.0010 C   0  0  0  0  0  3  0  0  0  0  0  0
  -27.3320  -36.4250   24.8980 C   0  0  0  0  0  1  0  0  0  0  0  0
  -26.1890  -36.6570   24.0180 N   0  0  0  0  0  0  0  0  0  0  0  0
  -25.7340  -37.5170   24.3090 H   0  0  0  0  0  0  0  0  0  0  0  0
  -25.7570  -19.0970   19.6560 C   0  0  0  0  0  1  0  0  0  0  0  0
  -26.8430  -20.0140   19.5750 O   0  0  0  0  0  0  0  0  0  0  0  0
  1  4  1  0
  2  1  2  0
  3  4  2  0
  4 15  1  0
  5  6  2  0
  5  2  1  0
  6  3  1  0
  7 13  1  0
  7 15  1  0
  8 13  1  0
  9 10  1  0
  9  8  1  0
 11 10  1  0
 11 20  1  0
 11 12  1  0
 13 12  1  0
 14  7  2  0
 15 16  1  0
 17 18  2  0
 18 37  1  0
 19 18  1  0
 19 22  1  0
 20 21  1  0
 20 17  1  0
 21 19  2  0
 22 23  1  0
 23 24  2  0
 25 28  1  0
 25 24  1  0
 26 25  2  0
 27 26  1  0
 27 22  2  0
 28 29  1  0
 29 30  1  0
 30 31  2  0
 32 31  1  0
 32 36  1  0
 33 32  2  0
 34 29  2  0
 34 33  1  0
 35 34  1  0
 37 38  1  0
 38 41  1  0
 38 40  1  0
 39 37  2  0
 42 17  1  0
 42 43  1  0
 44 42  1  0
 45 46  1  0
 45 47  2  0
 46  5  1  0
 48 46  1  0
 49 50  1  0
 49 45  1  0
 50 52  1  0
 51 62  2  0
 52 57  1  0
 53 61  1  0
 53 63  1  0
 54 60  1  0
 54 56  1  0
 55 61  1  0
 56 55  1  0
 57 56  2  0
 58 59  1  0
 58 52  2  0
 59 54  2  0
 60 53  1  0
 61 51  1  0
 63 65  2  0
 64 63  1  0
 66 64  1  0
 67 76  2  0
 67 72  1  0
 68 64  1  0
 68 72  1  0
 69 68  1  0
 70 71  1  0
 70 69  1  0
 71 67  1  0
 72 73  2  0
 73 74  1  0
 75 74  2  0
 76 75  1  0
 77 51  1  0
 77 82  1  0
 77 78  1  0
 78 81  1  1
 78 79  1  0
 80 78  1  0
 82 85  1  0
 83 82  1  0
 83 87  1  0
 84 83  2  0
 87 86  1  0
 87 89  1  0
 89 90  1  0
 89 88  1  0
 92  6  1  0
 92 91  1  0
M  ISO  4   7 100  15 100  49 101  50 101
M  END
>  <TORSDO>  (25) 
F 19

>  <SCORE>  (25) 
-10.675

>  <name>  (25) 
24

>  <ligand_id>  (25) 
24

>  <original_smiles>  (25) 
[H]c1c([H])c([H])c2c(c1[H])C([H])([H])C([H])([H])C([H])([H])C2([H])N([H])C(=O)C1([H])N(C(=O)C([H])(N([H])C(=O)C([H])(N([H])C([H])([H])[H])C([H])([H])[H])C(C([H])([H])[H])(C([H])([H])[H])C([H])([H])[H])C([H])([H])c2c([H])c(OC([H])([H])C(=O)N([H])c3c([H])c([H])c(N([H])C(=O)N4C([H])([H])C([H])([H])C([H])([H])C([H])(n5nc(-c6c([H])c([H])c(Oc7c([H])c([H])c(F)c([H])c7F)c([H])c6[H])c(C(=O)N([H])[H])c5N([H])[H])C4([H])[H])c([H])c3OC([H])([H])[H])c([H])c([H])c2C1([H])[H]

>  <smiles>  (25) 
[H]c1c([H])c([H])c2c(c1[H])C([H])([H])C([H])([H])C([H])([H])C2([H])N([H])C(=O)C1([H])N(C(=O)C([H])(N([H])C(=O)C([H])(N([H])C([H])([H])[H])C([H])([H])[H])C(C([H])([H])[H])(C([H])([H])[H])C([H])([H])[H])C([H])([H])c2c([H])c(OC([H])([H])C(=O)N([H])c3c([H])c([H])c(N([H])C(=O)N4C([H])([H])C([H])([H])C([H])([H])C([H])(n5nc(-c6c([H])c([H])c(Oc7c([H])c([H])c(F)c([H])c7F)c([H])c6[H])c(C(=O)N([H])[H])c5N([H])[H])C4([H])[H])c([H])c3OC([H])([H])[H])c([H])c([H])c2C1([H])[H]

$$$$
25:0:0
     RDKit          3D

 96105  0  0  1  0  0  0  0  0999 V2000
  -29.7080  -21.0060   19.0600 C   0  0  0  0  0  2  0  0  0  0  0  0
  -29.1600  -24.3320   20.3950 C   0  0  0  0  0  0  0  0  0  0  0  0
  -28.2070  -25.2810   20.5260 C   0  0  0  0  0  3  0  0  0  0  0  0
  -30.5600  -24.5410   19.9010 C   0  0  0  0  0  2  0  0  0  0  0  0
  -28.9710  -22.8400   20.6430 C   0  0  0  0  0  2  0  0  0  0  0  0
  -30.8770  -23.2040   19.2260 C   0  0  0  0  0  2  0  0  0  0  0  0
  -30.0910  -22.1560   19.9330 N   0  0  2  0  0  4  0  0  0  0  0  0
  -30.7000  -21.7840   20.6450 H   0  0  0  0  0  0  0  0  0  0  0  0
  -28.3710  -26.6220   20.2300 O   0  0  0  0  0  0  0  0  0  0  0  0
  -24.5480  -31.8640   23.2000 C   0  0  0  0  0  0  0  0  0  0  0  0
  -27.2230  -27.3910   20.1870 C   0  0  0  0  0  0  0  0  0  0  0  0
  -23.3560  -30.4370   21.5700 C   0  0  0  0  0  3  0  0  0  0  0  0
  -24.8250  -28.8950   20.1630 C   0  0  0  0  0  0  0  0  0  0  0  0
  -25.8820  -30.8050   21.3800 C   0  0  0  0  0  2  0  0  0  0  0  0
  -25.9780  -29.4280   20.7540 C   0  0  0  0  0  0  0  0  0  0  0  0
  -27.1820  -28.6820   20.7650 C   0  0  0  0  0  3  0  0  0  0  0  0
  -26.0560  -26.8870   19.5700 C   0  0  0  0  0  3  0  0  0  0  0  0
  -24.8580  -27.6240   19.5670 C   0  0  0  0  0  3  0  0  0  0  0  0
  -23.5740  -29.7450   20.1980 C   0  0  0  0  0  2  0  0  0  0  0  0
  -24.6130  -31.0510   22.1080 N   0  0  0  0  0  0  0  0  0  0  0  0
  -23.4620  -32.1370   23.7330 O   0  0  0  0  0  0  0  0  0  0  0  0
  -22.7070  -29.4230   22.5390 C   0  0  0  0  0  0  0  0  0  0  0  0
  -21.3810  -29.2400   22.4160 N   0  0  0  0  0  0  0  0  0  0  0  0
  -23.3920  -28.8040   23.3580 O   0  0  0  0  0  0  0  0  0  0  0  0
  -20.8900  -29.7900   21.7260 H   0  0  0  0  0  0  0  0  0  0  0  0
  -18.0020  -28.0790   22.9530 C   0  0  0  0  0  0  0  0  0  0  0  0
  -20.5650  -28.3090   23.1950 C   0  0  0  0  0  3  0  0  0  0  0  0
  -20.6460  -26.8790   22.6130 C   0  0  0  0  0  2  0  0  0  0  0  0
  -19.5280  -26.5710   21.6110 C   0  0  0  0  0  2  0  0  0  0  0  0
  -18.1560  -26.7290   22.2730 C   0  0  0  0  0  2  0  0  0  0  0  0
  -19.1340  -28.8270   23.3720 C   0  0  0  0  0  0  0  0  0  0  0  0
  -18.9360  -30.0920   23.9670 C   0  0  0  0  0  3  0  0  0  0  0  0
  -17.6390  -30.6080   24.1490 C   0  0  0  0  0  3  0  0  0  0  0  0
  -16.5220  -29.8560   23.7480 C   0  0  0  0  0  3  0  0  0  0  0  0
  -16.7040  -28.5930   23.1560 C   0  0  0  0  0  3  0  0  0  0  0  0
  -25.8270  -32.5090   23.8170 C   0  0  0  0  0  3  0  0  0  0  0  0
  -26.3580  -31.7420   25.0910 C   0  0  1  0  0  0  0  0  0  0  0  0
  -25.2700  -31.4850   26.1600 C   0  0  0  0  0  1  0  0  0  0  0  0
  -26.9600  -30.3740   24.6920 C   0  0  0  0  0  1  0  0  0  0  0  0
  -27.4990  -32.5520   25.7520 C   0  0  0  0  0  1  0  0  0  0  0  0
  -25.5040  -33.9030   24.1470 N   0  0  0  0  0  0  0  0  0  0  0  0
  -25.8260  -34.9580   23.3860 C   0  0  0  0  0  0  0  0  0  0  0  0
  -26.4960  -34.8620   22.3550 O   0  0  0  0  0  0  0  0  0  0  0  0
  -24.9070  -34.0520   24.9470 H   0  0  0  0  0  0  0  0  0  0  0  0
  -24.0800  -36.7330   23.0250 C   0  0  0  0  0  1  0  0  0  0  0  0
  -25.3210  -36.3410   23.8430 C   0  0  0  0  0  3  0  0  0  0  0  0
  -27.4440  -37.2410   24.6870 C   0  0  0  0  0  1  0  0  0  0  0  0
  -26.3410  -37.4070   23.7440 N   0  0  0  0  0  0  0  0  0  0  0  0
  -25.9230  -38.3190   23.9080 H   0  0  0  0  0  0  0  0  0  0  0  0
  -31.1100  -18.9530   19.6780 C   0  0  0  0  0  3  0  0  0  0  0  0
  -31.2200  -17.5980   20.0630 C   0  0  0  0  0  3  0  0  0  0  0  0
  -28.7270  -18.8970   20.1410 C   0  0  0  0  0  3  0  0  0  0  0  0
  -29.8560  -19.6090   19.6800 C   0  0  0  0  0  0  0  0  0  0  0  0
  -30.0740  -16.8620   20.4550 C   0  0  0  0  0  0  0  0  0  0  0  0
  -28.8380  -17.5420   20.5340 C   0  0  0  0  0  0  0  0  0  0  0  0
  -30.7040  -14.4700   20.0930 C   0  0  0  0  0  0  0  0  0  0  0  0
  -30.2990  -12.3590   18.8840 C   0  0  0  0  0  2  0  0  0  0  0  0
  -29.2850  -12.6290   17.7530 C   0  0  0  0  0  2  0  0  0  0  0  0
  -27.8400  -12.4930   18.2710 C   0  0  0  0  0  2  0  0  0  0  0  0
  -27.5980  -13.2770   19.5900 C   0  0  0  0  0  3  0  0  0  0  0  0
  -28.7200  -12.9930   20.6150 C   0  0  0  0  0  2  0  0  0  0  0  0
  -30.0120  -13.3030   19.9760 N   0  0  0  0  0  0  0  0  0  0  0  0
  -31.8020  -14.6420   19.5560 O   0  0  0  0  0  0  0  0  0  0  0  0
  -30.0640  -15.4590   20.7460 N   0  0  0  0  0  0  0  0  0  0  0  0
  -29.2010  -15.1610   21.1750 H   0  0  0  0  0  0  0  0  0  0  0  0
  -25.2480  -13.8750   20.4530 C   0  0  0  0  0  0  0  0  0  0  0  0
  -24.1970  -13.0970   20.8600 C   0  0  0  0  0  0  0  0  0  0  0  0
  -24.6480  -11.7450   20.7670 C   0  0  0  0  0  0  0  0  0  0  0  0
  -26.2740  -12.9970   20.1430 N   0  0  0  0  0  0  0  0  0  0  0  0
  -25.9180  -11.7080   20.3850 N   0  0  0  0  0  0  0  0  0  0  0  0
  -23.9250  -10.4820   20.9670 C   0  0  0  0  0  0  0  0  0  0  0  0
  -24.3760   -9.5090   21.8860 C   0  0  0  0  0  3  0  0  0  0  0  0
  -23.6520   -8.3110   22.0740 C   0  0  0  0  0  3  0  0  0  0  0  0
  -22.4640   -8.0780   21.3410 C   0  0  0  0  0  0  0  0  0  0  0  0
  -22.0310   -9.0410   20.4110 C   0  0  0  0  0  3  0  0  0  0  0  0
  -22.7550  -10.2290   20.2220 C   0  0  0  0  0  3  0  0  0  0  0  0
  -21.7100   -6.9330   21.4380 O   0  0  0  0  0  0  0  0  0  0  0  0
  -21.6460   -6.2100   22.6020 C   0  0  0  0  0  0  0  0  0  0  0  0
  -21.1770   -6.7780   23.8060 C   0  0  0  0  0  3  0  0  0  0  0  0
  -21.0630   -5.9790   24.9620 C   0  0  0  0  0  3  0  0  0  0  0  0
  -21.4070   -4.6160   24.9130 C   0  0  0  0  0  0  0  0  0  0  0  0
  -21.8680   -4.0470   23.7120 C   0  0  0  0  0  3  0  0  0  0  0  0
  -21.9840   -4.8430   22.5590 C   0  0  0  0  0  0  0  0  0  0  0  0
  -22.4090   -4.2860   21.4000 F   0  0  0  0  0  0  0  0  0  0  0  0
  -21.2890   -3.8460   26.0200 F   0  0  0  0  0  0  0  0  0  0  0  0
  -22.8240  -13.5750   21.2350 C   0  0  0  0  0  0  0  0  0  0  0  0
  -22.1490  -12.8580   22.1270 N   0  0  0  0  0  0  0  0  0  0  0  0
  -22.3610  -14.6170   20.7750 O   0  0  0  0  0  0  0  0  0  0  0  0
  -22.5380  -12.0140   22.5200 H   0  0  0  0  0  0  0  0  0  0  0  0
  -21.2290  -13.1580   22.4190 H   0  0  0  0  0  0  0  0  0  0  0  0
  -25.4090  -15.2480   20.3120 N   0  0  0  0  0  0  0  0  0  0  0  0
  -24.6720  -15.8980   20.5580 H   0  0  0  0  0  0  0  0  0  0  0  0
  -26.3190  -15.7050   20.2510 H   0  0  0  0  0  0  0  0  0  0  0  0
  -27.7060  -16.8600   20.9770 N   0  0  0  0  0  0  0  0  0  0  0  0
  -26.8940  -17.4450   21.1400 H   0  0  0  0  0  0  0  0  0  0  0  0
  -27.8540  -16.2650   21.7830 H   0  0  0  0  0  0  0  0  0  0  0  0
  1 53  1  0
  1  7  1  0
  2  3  2  0
  2  5  1  0
  4  2  1  0
  6  4  1  0
  6  7  1  0
  7  5  1  0
  7  8  1  1
  9  3  1  0
 10 21  2  0
 11  9  1  0
 11 16  1  0
 12 20  1  0
 12 22  1  0
 13 19  1  0
 13 15  1  0
 14 20  1  0
 15 16  2  0
 15 14  1  0
 17 11  2  0
 18 17  1  0
 18 13  2  0
 19 12  1  0
 20 10  1  0
 22 24  2  0
 23 22  1  0
 25 23  1  0
 26 35  2  0
 26 31  1  0
 27 23  1  0
 27 31  1  0
 28 27  1  0
 29 30  1  0
 29 28  1  0
 30 26  1  0
 31 32  2  0
 32 33  1  0
 34 33  2  0
 35 34  1  0
 36 10  1  0
 36 41  1  0
 36 37  1  0
 37 40  1  1
 37 38  1  0
 39 37  1  0
 41 44  1  0
 42 46  1  0
 42 41  1  0
 43 42  2  0
 46 45  1  0
 48 46  1  0
 48 49  1  0
 48 47  1  0
 50 53  2  0
 50 51  1  0
 51 54  2  0
 52 55  2  0
 53 52  1  0
 54 55  1  0
 54 64  1  0
 55 94  1  0
 56 64  1  0
 57 62  1  0
 58 59  1  0
 58 57  1  0
 60 59  1  0
 60 69  1  0
 60 61  1  0
 62 56  1  0
 62 61  1  0
 63 56  2  0
 64 65  1  0
 66 67  2  0
 67 86  1  0
 68 67  1  0
 68 71  1  0
 69 70  1  0
 69 66  1  0
 70 68  2  0
 71 72  1  0
 72 73  2  0
 74 77  1  0
 74 73  1  0
 75 74  2  0
 76 75  1  0
 76 71  2  0
 77 78  1  0
 78 79  1  0
 79 80  2  0
 81 80  1  0
 81 85  1  0
 82 81  2  0
 83 78  2  0
 83 82  1  0
 84 83  1  0
 86 87  1  0
 87 90  1  0
 87 89  1  0
 88 86  2  0
 91 66  1  0
 91 92  1  0
 93 91  1  0
 94 95  1  0
 94 96  1  0
M  ISO  4   3 101   9 101  56 100  64 100
M  END
>  <TORSDO>  (26) 
F 19

>  <SCORE>  (26) 
-14.106

>  <name>  (26) 
25

>  <ligand_id>  (26) 
25

>  <original_smiles>  (26) 
[H]C(Oc1c([H])c([H])c2c(c1[H])C([H])([H])N(C(=O)C([H])(N([H])C(=O)C([H])(N([H])C([H])([H])[H])C([H])([H])[H])C(C([H])([H])[H])(C([H])([H])[H])C([H])([H])[H])C([H])(C(=O)N([H])C1([H])c3c([H])c([H])c([H])c([H])c3C([H])([H])C([H])([H])C1([H])[H])C2([H])[H])=C1C([H])([H])C([H])([H])[N+]([H])(C([H])([H])c2c([H])c([H])c(N([H])C(=O)N3C([H])([H])C([H])([H])C([H])([H])C([H])(n4nc(-c5c([H])c([H])c(Oc6c([H])c([H])c(F)c([H])c6F)c([H])c5[H])c(C(=O)N([H])[H])c4N([H])[H])C3([H])[H])c(N([H])[H])c2[H])C1([H])[H]

>  <smiles>  (26) 
[H]C(Oc1c([H])c([H])c2c(c1[H])C([H])([H])N(C(=O)C([H])(N([H])C(=O)C([H])(N([H])C([H])([H])[H])C([H])([H])[H])C(C([H])([H])[H])(C([H])([H])[H])C([H])([H])[H])C([H])(C(=O)N([H])C1([H])c3c([H])c([H])c([H])c([H])c3C([H])([H])C([H])([H])C1([H])[H])C2([H])[H])=C1C([H])([H])C([H])([H])[N+]([H])(C([H])([H])c2c([H])c([H])c(N([H])C(=O)N3C([H])([H])C([H])([H])C([H])([H])C([H])(n4nc(-c5c([H])c([H])c(Oc6c([H])c([H])c(F)c([H])c6F)c([H])c5[H])c(C(=O)N([H])[H])c4N([H])[H])C3([H])[H])c(N([H])[H])c2[H])C1([H])[H]

$$$$
26:0:0
     RDKit          3D

 95104  0  0  1  0  0  0  0  0999 V2000
  -29.1570  -22.6120   20.0080 C   0  0  0  0  0  0  0  0  0  0  0  0
  -30.7460  -20.8050   19.2280 C   0  0  0  0  0  0  0  0  0  0  0  0
  -30.1560  -24.4760   18.8970 C   0  0  0  0  0  2  0  0  0  0  0  0
  -30.7870  -23.1420   18.4760 C   0  0  0  0  0  2  0  0  0  0  0  0
  -28.8380  -24.0800   19.5520 C   0  0  0  0  0  3  0  0  0  0  0  0
  -30.2210  -22.0850   19.3340 N   0  0  0  0  0  0  0  0  0  0  0  0
  -28.4510  -22.0270   20.8330 O   0  0  0  0  0  0  0  0  0  0  0  0
  -31.4550  -20.5390   18.2500 O   0  0  0  0  0  0  0  0  0  0  0  0
  -30.7470  -19.8820   21.6200 C   0  0  0  0  0  3  0  0  0  0  0  0
  -30.8000  -18.8050   22.5270 C   0  0  0  0  0  3  0  0  0  0  0  0
  -30.5580  -18.2790   19.7910 C   0  0  0  0  0  3  0  0  0  0  0  0
  -30.6090  -19.6540   20.2330 C   0  0  0  0  0  0  0  0  0  0  0  0
  -30.6400  -17.1750   20.7020 C   0  0  0  0  0  0  0  0  0  0  0  0
  -30.7440  -17.4710   22.0770 C   0  0  0  0  0  0  0  0  0  0  0  0
  -30.7720  -16.4610   22.9810 F   0  0  0  0  0  0  0  0  0  0  0  0
  -31.2220  -14.7450   20.0360 C   0  0  0  0  0  0  0  0  0  0  0  0
  -30.9170  -12.5230   18.9630 C   0  0  0  0  0  2  0  0  0  0  0  0
  -29.9450  -12.7000   17.7740 C   0  0  0  0  0  2  0  0  0  0  0  0
  -28.4740  -12.6130   18.2360 C   0  0  0  0  0  2  0  0  0  0  0  0
  -28.1880  -13.4860   19.4860 C   0  0  0  0  0  3  0  0  0  0  0  0
  -29.2620  -13.2520   20.5730 C   0  0  0  0  0  2  0  0  0  0  0  0
  -30.5740  -13.5420   19.9700 N   0  0  0  0  0  0  0  0  0  0  0  0
  -32.3750  -14.8950   19.6200 O   0  0  0  0  0  0  0  0  0  0  0  0
  -30.4060  -15.7850   20.3680 N   0  0  0  0  0  0  0  0  0  0  0  0
  -29.5170  -15.4490   20.7040 H   0  0  0  0  0  0  0  0  0  0  0  0
  -25.8490  -14.2210   20.2640 C   0  0  0  0  0  0  0  0  0  0  0  0
  -24.7490  -13.5080   20.6580 C   0  0  0  0  0  0  0  0  0  0  0  0
  -25.1330  -12.1330   20.6070 C   0  0  0  0  0  0  0  0  0  0  0  0
  -26.8360  -13.2830   19.9980 N   0  0  0  0  0  0  0  0  0  0  0  0
  -26.4100  -12.0210   20.2620 N   0  0  0  0  0  0  0  0  0  0  0  0
  -24.3420  -10.9120   20.8070 C   0  0  0  0  0  0  0  0  0  0  0  0
  -24.7180   -9.9360   21.7580 C   0  0  0  0  0  3  0  0  0  0  0  0
  -23.9310   -8.7800   21.9450 C   0  0  0  0  0  3  0  0  0  0  0  0
  -22.7550   -8.5900   21.1810 C   0  0  0  0  0  0  0  0  0  0  0  0
  -22.3980   -9.5540   20.2210 C   0  0  0  0  0  3  0  0  0  0  0  0
  -23.1840  -10.7020   20.0320 C   0  0  0  0  0  3  0  0  0  0  0  0
  -21.9430   -7.4860   21.2790 O   0  0  0  0  0  0  0  0  0  0  0  0
  -21.8020   -6.7970   22.4560 C   0  0  0  0  0  0  0  0  0  0  0  0
  -21.3630   -7.4280   23.6410 C   0  0  0  0  0  3  0  0  0  0  0  0
  -21.1660   -6.6680   24.8110 C   0  0  0  0  0  3  0  0  0  0  0  0
  -21.3960   -5.2790   24.7970 C   0  0  0  0  0  0  0  0  0  0  0  0
  -21.8270   -4.6490   23.6170 C   0  0  0  0  0  3  0  0  0  0  0  0
  -22.0270   -5.4060   22.4500 C   0  0  0  0  0  0  0  0  0  0  0  0
  -22.4230   -4.7890   21.3090 F   0  0  0  0  0  0  0  0  0  0  0  0
  -21.1990   -4.5480   25.9190 F   0  0  0  0  0  0  0  0  0  0  0  0
  -23.3890  -14.0610   20.9690 C   0  0  0  0  0  0  0  0  0  0  0  0
  -22.6500  -13.4100   21.8600 N   0  0  0  0  0  0  0  0  0  0  0  0
  -22.9910  -15.1070   20.4560 O   0  0  0  0  0  0  0  0  0  0  0  0
  -22.9820  -12.5650   22.2990 H   0  0  0  0  0  0  0  0  0  0  0  0
  -21.7370  -13.7640   22.1080 H   0  0  0  0  0  0  0  0  0  0  0  0
  -26.0850  -15.5820   20.0890 N   0  0  0  0  0  0  0  0  0  0  0  0
  -25.3510  -16.2710   20.2150 H   0  0  0  0  0  0  0  0  0  0  0  0
  -26.9330  -15.9770   19.7020 H   0  0  0  0  0  0  0  0  0  0  0  0
  -28.2840  -25.1370   20.5890 C   0  0  0  0  0  2  0  0  0  0  0  0
  -28.3980  -26.5540   20.2140 O   0  0  0  0  0  0  0  0  0  0  0  0
  -24.6130  -31.8650   23.2360 C   0  0  0  0  0  0  0  0  0  0  0  0
  -27.2470  -27.3390   20.2110 C   0  0  0  0  0  0  0  0  0  0  0  0
  -23.4090  -30.4600   21.5970 C   0  0  0  0  0  3  0  0  0  0  0  0
  -24.8650  -28.9010   20.1870 C   0  0  0  0  0  0  0  0  0  0  0  0
  -25.9430  -30.7960   21.4090 C   0  0  0  0  0  2  0  0  0  0  0  0
  -26.0280  -29.4140   20.7760 C   0  0  0  0  0  0  0  0  0  0  0  0
  -27.2230  -28.6460   20.7740 C   0  0  0  0  0  3  0  0  0  0  0  0
  -26.0650  -26.8590   19.6070 C   0  0  0  0  0  3  0  0  0  0  0  0
  -24.8850  -27.6260   19.5930 C   0  0  0  0  0  3  0  0  0  0  0  0
  -23.6260  -29.7690   20.2230 C   0  0  0  0  0  2  0  0  0  0  0  0
  -24.6740  -31.0560   22.1390 N   0  0  0  0  0  0  0  0  0  0  0  0
  -23.5310  -32.1450   23.7710 O   0  0  0  0  0  0  0  0  0  0  0  0
  -22.7460  -29.4510   22.5630 C   0  0  0  0  0  0  0  0  0  0  0  0
  -21.4210  -29.2690   22.4260 N   0  0  0  0  0  0  0  0  0  0  0  0
  -23.4190  -28.8330   23.3900 O   0  0  0  0  0  0  0  0  0  0  0  0
  -20.9360  -29.8180   21.7300 H   0  0  0  0  0  0  0  0  0  0  0  0
  -18.0510  -28.0380   22.8700 C   0  0  0  0  0  0  0  0  0  0  0  0
  -20.5980  -28.3350   23.1970 C   0  0  0  0  0  3  0  0  0  0  0  0
  -20.7330  -26.8950   22.6510 C   0  0  0  0  0  2  0  0  0  0  0  0
  -19.6590  -26.5380   21.6190 C   0  0  0  0  0  2  0  0  0  0  0  0
  -18.2600  -26.6780   22.2260 C   0  0  0  0  0  2  0  0  0  0  0  0
  -19.1490  -28.8230   23.3110 C   0  0  0  0  0  0  0  0  0  0  0  0
  -18.9000  -30.0950   23.8720 C   0  0  0  0  0  3  0  0  0  0  0  0
  -17.5860  -30.5820   23.9970 C   0  0  0  0  0  3  0  0  0  0  0  0
  -16.5010  -29.7950   23.5720 C   0  0  0  0  0  3  0  0  0  0  0  0
  -16.7350  -28.5260   23.0140 C   0  0  0  0  0  3  0  0  0  0  0  0
  -25.8990  -32.4960   23.8580 C   0  0  0  0  0  3  0  0  0  0  0  0
  -25.5910  -33.8930   24.1920 N   0  0  0  0  0  0  0  0  0  0  0  0
  -25.9200  -34.9480   23.4340 C   0  0  0  0  0  0  0  0  0  0  0  0
  -26.5830  -34.8450   22.3970 O   0  0  0  0  0  0  0  0  0  0  0  0
  -25.0060  -34.0460   25.0000 H   0  0  0  0  0  0  0  0  0  0  0  0
  -24.1820  -36.7320   23.0980 C   0  0  0  0  0  1  0  0  0  0  0  0
  -25.4350  -36.3340   23.8950 C   0  0  0  0  0  3  0  0  0  0  0  0
  -27.5780  -37.2220   24.6980 C   0  0  0  0  0  1  0  0  0  0  0  0
  -26.4630  -37.3900   23.7690 N   0  0  0  0  0  0  0  0  0  0  0  0
  -26.0570  -38.3100   23.9230 H   0  0  0  0  0  0  0  0  0  0  0  0
  -26.4160  -31.7210   25.1320 C   0  0  1  0  0  0  0  0  0  0  0  0
  -25.3210  -31.4800   26.1980 C   0  0  0  0  0  1  0  0  0  0  0  0
  -26.9990  -30.3470   24.7350 C   0  0  0  0  0  1  0  0  0  0  0  0
  -27.5650  -32.5140   25.7990 C   0  0  0  0  0  1  0  0  0  0  0  0
  1  7  2  0
  2  6  1  0
  2 12  1  0
  3  5  1  0
  4  3  1  0
  4  6  1  0
  5  1  1  0
  5 54  1  0
  6  1  1  0
  8  2  2  0
  9 10  1  0
 11 12  1  0
 11 13  2  0
 12  9  2  0
 13 14  1  0
 14 10  2  0
 14 15  1  0
 16 24  1  0
 17 22  1  0
 18 19  1  0
 18 17  1  0
 20 19  1  0
 20 29  1  0
 20 21  1  0
 22 16  1  0
 22 21  1  0
 23 16  2  0
 24 13  1  0
 24 25  1  0
 26 27  2  0
 27 46  1  0
 28 27  1  0
 28 31  1  0
 29 30  1  0
 29 26  1  0
 30 28  2  0
 31 32  1  0
 32 33  2  0
 34 37  1  0
 34 33  1  0
 35 34  2  0
 36 35  1  0
 36 31  2  0
 37 38  1  0
 38 39  1  0
 39 40  2  0
 41 40  1  0
 41 45  1  0
 42 41  2  0
 43 38  2  0
 43 42  1  0
 44 43  1  0
 46 47  1  0
 47 50  1  0
 47 49  1  0
 48 46  2  0
 51 52  1  0
 51 26  1  0
 53 51  1  0
 55 54  1  0
 56 67  2  0
 57 55  1  0
 57 62  1  0
 58 66  1  0
 58 68  1  0
 59 65  1  0
 59 61  1  0
 60 66  1  0
 61 60  1  0
 62 61  2  0
 63 57  2  0
 64 63  1  0
 64 59  2  0
 65 58  1  0
 66 56  1  0
 68 70  2  0
 69 68  1  0
 71 69  1  0
 72 81  2  0
 72 77  1  0
 73 69  1  0
 73 77  1  0
 74 73  1  0
 75 76  1  0
 75 74  1  0
 76 72  1  0
 77 78  2  0
 78 79  1  0
 80 79  2  0
 81 80  1  0
 82 56  1  0
 82 83  1  0
 82 92  1  0
 83 86  1  0
 84 88  1  0
 84 83  1  0
 85 84  2  0
 88 87  1  0
 90 88  1  0
 90 91  1  0
 90 89  1  0
 92 95  1  1
 92 93  1  0
 94 92  1  0
M  ISO  4  16 100  24 100  54 101  55 101
M  END
>  <TORSDO>  (27) 
F 18

>  <SCORE>  (27) 
-14.201

>  <name>  (27) 
26

>  <ligand_id>  (27) 
26

>  <original_smiles>  (27) 
[H]c1c([H])c([H])c2c(c1[H])C([H])([H])C([H])([H])C([H])([H])C2([H])N([H])C(=O)C1([H])N(C(=O)C([H])(N([H])C(=O)C([H])(N([H])C([H])([H])[H])C([H])([H])[H])C(C([H])([H])[H])(C([H])([H])[H])C([H])([H])[H])C([H])([H])c2c([H])c(OC([H])([H])C3([H])C(=O)N(C(=O)c4c([H])c([H])c(F)c(N([H])C(=O)N5C([H])([H])C([H])([H])C([H])([H])C([H])(n6nc(-c7c([H])c([H])c(Oc8c([H])c([H])c(F)c([H])c8F)c([H])c7[H])c(C(=O)N([H])[H])c6N([H])[H])C5([H])[H])c4[H])C([H])([H])C3([H])[H])c([H])c([H])c2C1([H])[H]

>  <smiles>  (27) 
[H]c1c([H])c([H])c2c(c1[H])C([H])([H])C([H])([H])C([H])([H])C2([H])N([H])C(=O)C1([H])N(C(=O)C([H])(N([H])C(=O)C([H])(N([H])C([H])([H])[H])C([H])([H])[H])C(C([H])([H])[H])(C([H])([H])[H])C([H])([H])[H])C([H])([H])c2c([H])c(OC([H])([H])C3([H])C(=O)N(C(=O)c4c([H])c([H])c(F)c(N([H])C(=O)N5C([H])([H])C([H])([H])C([H])([H])C([H])(n6nc(-c7c([H])c([H])c(Oc8c([H])c([H])c(F)c([H])c8F)c([H])c7[H])c(C(=O)N([H])[H])c6N([H])[H])C5([H])[H])c4[H])C([H])([H])C3([H])[H])c([H])c([H])c2C1([H])[H]

$$$$
27:0:0
     RDKit          3D

 93102  0  0  1  0  0  0  0  0999 V2000
  -29.0440  -22.3530   19.4290 C   0  0  0  0  0  0  0  0  0  0  0  0
  -31.7220  -22.8910   20.4100 C   0  0  0  0  0  2  0  0  0  0  0  0
  -30.6110  -23.9620   20.5700 C   0  0  0  0  0  2  0  0  0  0  0  0
  -31.3590  -21.6800   19.5040 C   0  0  0  0  0  2  0  0  0  0  0  0
  -29.5400  -23.8900   19.4690 C   0  0  0  0  0  3  0  0  0  0  0  0
  -29.9470  -21.2890   19.5890 N   0  0  0  0  0  0  0  0  0  0  0  0
  -27.8460  -22.1480   19.2220 O   0  0  0  0  0  0  0  0  0  0  0  0
  -30.4880  -18.6310   19.6060 C   0  0  0  0  0  3  0  0  0  0  0  0
  -29.6420  -19.8400   19.8570 C   0  0  0  0  0  0  0  0  0  0  0  0
  -28.5020  -19.4840   20.5430 C   0  0  0  0  0  0  0  0  0  0  0  0
  -29.9460  -17.3930   20.0380 C   0  0  0  0  0  0  0  0  0  0  0  0
  -27.4230  -20.3380   21.1360 C   0  0  0  0  0  1  0  0  0  0  0  0
  -28.4000  -17.7560   20.7760 S   0  0  0  0  0  0  0  0  0  0  0  0
  -31.1100  -15.0430   19.5990 C   0  0  0  0  0  0  0  0  0  0  0  0
  -31.0530  -12.6890   18.7100 C   0  0  0  0  0  2  0  0  0  0  0  0
  -29.9860  -12.6150   17.5900 C   0  0  0  0  0  2  0  0  0  0  0  0
  -28.5760  -12.3780   18.1700 C   0  0  0  0  0  2  0  0  0  0  0  0
  -28.2650  -13.3080   19.3710 C   0  0  0  0  0  3  0  0  0  0  0  0
  -29.4310  -13.3090   20.3850 C   0  0  0  0  0  2  0  0  0  0  0  0
  -30.6400  -13.7450   19.6630 N   0  0  0  0  0  0  0  0  0  0  0  0
  -32.2090  -15.2880   19.0890 O   0  0  0  0  0  0  0  0  0  0  0  0
  -30.1990  -16.0030   20.0140 N   0  0  0  0  0  0  0  0  0  0  0  0
  -29.4420  -15.5060   20.4590 H   0  0  0  0  0  0  0  0  0  0  0  0
  -25.9900  -13.8390   20.4390 C   0  0  0  0  0  0  0  0  0  0  0  0
  -24.9720  -13.0360   20.8770 C   0  0  0  0  0  0  0  0  0  0  0  0
  -25.4160  -11.6920   20.6760 C   0  0  0  0  0  0  0  0  0  0  0  0
  -26.9870  -12.9830   20.0000 N   0  0  0  0  0  0  0  0  0  0  0  0
  -26.6550  -11.6830   20.2020 N   0  0  0  0  0  0  0  0  0  0  0  0
  -24.7090  -10.4180   20.8520 C   0  0  0  0  0  0  0  0  0  0  0  0
  -25.1200   -9.4720   21.8180 C   0  0  0  0  0  3  0  0  0  0  0  0
  -24.4120   -8.2620   21.9810 C   0  0  0  0  0  3  0  0  0  0  0  0
  -23.2800   -7.9870   21.1770 C   0  0  0  0  0  0  0  0  0  0  0  0
  -22.8890   -8.9220   20.2030 C   0  0  0  0  0  3  0  0  0  0  0  0
  -23.5970  -10.1240   20.0380 C   0  0  0  0  0  3  0  0  0  0  0  0
  -22.5480   -6.8270   21.2490 O   0  0  0  0  0  0  0  0  0  0  0  0
  -22.2610   -6.2300   22.4500 C   0  0  0  0  0  0  0  0  0  0  0  0
  -21.5530   -6.9050   23.4690 C   0  0  0  0  0  3  0  0  0  0  0  0
  -21.2200   -6.2300   24.6600 C   0  0  0  0  0  3  0  0  0  0  0  0
  -21.5830   -4.8800   24.8310 C   0  0  0  0  0  0  0  0  0  0  0  0
  -22.2840   -4.2050   23.8160 C   0  0  0  0  0  3  0  0  0  0  0  0
  -22.6180   -4.8780   22.6280 C   0  0  0  0  0  0  0  0  0  0  0  0
  -23.2740   -4.2160   21.6440 F   0  0  0  0  0  0  0  0  0  0  0  0
  -21.2560   -4.2280   25.9710 F   0  0  0  0  0  0  0  0  0  0  0  0
  -23.6250  -13.4860   21.3630 C   0  0  0  0  0  0  0  0  0  0  0  0
  -23.0190  -12.7320   22.2730 N   0  0  0  0  0  0  0  0  0  0  0  0
  -23.1230  -14.5380   20.9720 O   0  0  0  0  0  0  0  0  0  0  0  0
  -23.4390  -11.8790   22.6090 H   0  0  0  0  0  0  0  0  0  0  0  0
  -22.1210  -13.0130   22.6410 H   0  0  0  0  0  0  0  0  0  0  0  0
  -26.1410  -15.2200   20.3540 N   0  0  0  0  0  0  0  0  0  0  0  0
  -25.3960  -15.8570   20.6150 H   0  0  0  0  0  0  0  0  0  0  0  0
  -26.9290  -15.6900   19.9270 H   0  0  0  0  0  0  0  0  0  0  0  0
  -28.4280  -25.0850   19.5810 C   0  0  0  0  0  2  0  0  0  0  0  0
  -28.7260  -26.5700   19.6960 O   0  0  0  0  0  0  0  0  0  0  0  0
  -25.1020  -31.7100   23.3950 C   0  0  0  0  0  0  0  0  0  0  0  0
  -27.6450  -27.4950   19.7660 C   0  0  0  0  0  0  0  0  0  0  0  0
  -23.8880  -30.5710   21.5750 C   0  0  0  0  0  3  0  0  0  0  0  0
  -25.3220  -29.1940   19.9610 C   0  0  0  0  0  0  0  0  0  0  0  0
  -26.4420  -30.8400   21.4570 C   0  0  0  0  0  2  0  0  0  0  0  0
  -26.5000  -29.5570   20.6260 C   0  0  0  0  0  0  0  0  0  0  0  0
  -27.6650  -28.7250   20.5140 C   0  0  0  0  0  3  0  0  0  0  0  0
  -26.4370  -27.2110   19.0840 C   0  0  0  0  0  3  0  0  0  0  0  0
  -25.2980  -28.0310   19.1810 C   0  0  0  0  0  3  0  0  0  0  0  0
  -24.1050  -30.0860   20.1180 C   0  0  0  0  0  2  0  0  0  0  0  0
  -25.1640  -31.0510   22.2000 N   0  0  0  0  0  0  0  0  0  0  0  0
  -24.0180  -31.9370   23.9530 O   0  0  0  0  0  0  0  0  0  0  0  0
  -23.1930  -29.4500   22.3850 C   0  0  0  0  0  0  0  0  0  0  0  0
  -21.8690  -29.2990   22.2030 N   0  0  0  0  0  0  0  0  0  0  0  0
  -23.8460  -28.7240   23.1390 O   0  0  0  0  0  0  0  0  0  0  0  0
  -21.4020  -29.9380   21.5760 H   0  0  0  0  0  0  0  0  0  0  0  0
  -18.4720  -28.0820   22.4850 C   0  0  0  0  0  0  0  0  0  0  0  0
  -21.0260  -28.2790   22.8320 C   0  0  0  0  0  3  0  0  0  0  0  0
  -21.1280  -26.9320   22.0780 C   0  0  0  0  0  2  0  0  0  0  0  0
  -20.0430  -26.7540   21.0120 C   0  0  0  0  0  2  0  0  0  0  0  0
  -18.6500  -26.8290   21.6440 C   0  0  0  0  0  2  0  0  0  0  0  0
  -19.5880  -28.7710   23.0290 C   0  0  0  0  0  0  0  0  0  0  0  0
  -19.3670  -29.9490   23.7760 C   0  0  0  0  0  3  0  0  0  0  0  0
  -18.0630  -30.4360   23.9830 C   0  0  0  0  0  3  0  0  0  0  0  0
  -16.9610  -29.7430   23.4540 C   0  0  0  0  0  3  0  0  0  0  0  0
  -17.1660  -28.5670   22.7110 C   0  0  0  0  0  3  0  0  0  0  0  0
  -26.3890  -32.2290   24.1060 C   0  0  0  0  0  3  0  0  0  0  0  0
  -26.1110  -33.5910   24.5900 N   0  0  0  0  0  0  0  0  0  0  0  0
  -26.4470  -34.7130   23.9430 C   0  0  0  0  0  0  0  0  0  0  0  0
  -27.0920  -34.7100   22.8900 O   0  0  0  0  0  0  0  0  0  0  0  0
  -25.5370  -33.6670   25.4170 H   0  0  0  0  0  0  0  0  0  0  0  0
  -24.7320  -36.5530   23.8450 C   0  0  0  0  0  1  0  0  0  0  0  0
  -25.9990  -36.0530   24.5590 C   0  0  0  0  0  3  0  0  0  0  0  0
  -28.1700  -36.8350   25.3990 C   0  0  0  0  0  1  0  0  0  0  0  0
  -27.0410  -37.1010   24.5120 N   0  0  0  0  0  0  0  0  0  0  0  0
  -26.6520  -38.0080   24.7590 H   0  0  0  0  0  0  0  0  0  0  0  0
  -26.8560  -31.3040   25.2970 C   0  0  1  0  0  0  0  0  0  0  0  0
  -25.7350  -30.9800   26.3110 C   0  0  0  0  0  1  0  0  0  0  0  0
  -27.4100  -29.9620   24.7640 C   0  0  0  0  0  1  0  0  0  0  0  0
  -28.0130  -31.9850   26.0650 C   0  0  0  0  0  1  0  0  0  0  0  0
  1  5  1  0
  1  6  1  0
  2  3  1  0
  4  6  1  0
  4  2  1  0
  5 52  1  0
  5  3  1  0
  6  9  1  0
  7  1  2  0
  8  9  1  0
  8 11  2  0
  9 10  2  0
 10 13  1  0
 10 12  1  0
 11 13  1  0
 14 20  1  0
 14 22  1  0
 15 20  1  0
 16 17  1  0
 16 15  1  0
 18 17  1  0
 18 27  1  0
 18 19  1  0
 20 19  1  0
 21 14  2  0
 22 11  1  0
 22 23  1  0
 24 25  2  0
 25 44  1  0
 26 29  1  0
 26 25  1  0
 27 28  1  0
 27 24  1  0
 28 26  2  0
 29 30  1  0
 30 31  2  0
 32 35  1  0
 32 31  1  0
 33 32  2  0
 34 33  1  0
 34 29  2  0
 35 36  1  0
 36 41  2  0
 36 37  1  0
 37 38  2  0
 38 39  1  0
 39 43  1  0
 40 39  2  0
 41 40  1  0
 42 41  1  0
 44 45  1  0
 45 47  1  0
 45 48  1  0
 46 44  2  0
 49 24  1  0
 49 50  1  0
 51 49  1  0
 52 53  1  0
 53 55  1  0
 54 65  2  0
 55 60  1  0
 56 64  1  0
 56 66  1  0
 57 63  1  0
 57 59  1  0
 58 64  1  0
 59 58  1  0
 60 59  2  0
 61 62  1  0
 61 55  2  0
 62 57  2  0
 63 56  1  0
 64 54  1  0
 66 68  2  0
 67 66  1  0
 69 67  1  0
 70 79  2  0
 70 75  1  0
 71 67  1  0
 71 75  1  0
 72 71  1  0
 73 74  1  0
 73 72  1  0
 74 70  1  0
 75 76  2  0
 76 77  1  0
 78 77  2  0
 79 78  1  0
 80 54  1  0
 80 81  1  0
 80 90  1  0
 81 84  1  0
 82 86  1  0
 82 81  1  0
 83 82  2  0
 86 85  1  0
 88 86  1  0
 88 89  1  0
 88 87  1  0
 90 93  1  1
 90 91  1  0
 92 90  1  0
M  ISO  4  14 100  22 100  52 101  53 101
M  END
>  <TORSDO>  (28) 
F 18

>  <SCORE>  (28) 
-10.221

>  <name>  (28) 
27

>  <ligand_id>  (28) 
27

>  <original_smiles>  (28) 
[H]c1c([H])c([H])c2c(c1[H])C([H])([H])C([H])([H])C([H])([H])C2([H])N([H])C(=O)C1([H])N(C(=O)C([H])(N([H])C(=O)C([H])(N([H])C([H])([H])[H])C([H])([H])[H])C(C([H])([H])[H])(C([H])([H])[H])C([H])([H])[H])C([H])([H])c2c([H])c(OC([H])([H])C3([H])C(=O)N(c4c(C([H])([H])[H])sc(N([H])C(=O)N5C([H])([H])C([H])([H])C([H])([H])C([H])(n6nc(-c7c([H])c([H])c(Oc8c([H])c([H])c(F)c([H])c8F)c([H])c7[H])c(C(=O)N([H])[H])c6N([H])[H])C5([H])[H])c4[H])C([H])([H])C([H])([H])C3([H])[H])c([H])c([H])c2C1([H])[H]

>  <smiles>  (28) 
[H]c1c([H])c([H])c2c(c1[H])C([H])([H])C([H])([H])C([H])([H])C2([H])N([H])C(=O)C1([H])N(C(=O)C([H])(N([H])C(=O)C([H])(N([H])C([H])([H])[H])C([H])([H])[H])C(C([H])([H])[H])(C([H])([H])[H])C([H])([H])[H])C([H])([H])c2c([H])c(OC([H])([H])C3([H])C(=O)N(c4c(C([H])([H])[H])sc(N([H])C(=O)N5C([H])([H])C([H])([H])C([H])([H])C([H])(n6nc(-c7c([H])c([H])c(Oc8c([H])c([H])c(F)c([H])c8F)c([H])c7[H])c(C(=O)N([H])[H])c6N([H])[H])C5([H])[H])c4[H])C([H])([H])C([H])([H])C3([H])[H])c([H])c([H])c2C1([H])[H]

$$$$
28:0:0
     RDKit          3D

 95103  0  0  1  0  0  0  0  0999 V2000
  -28.0040  -20.8750   20.6710 C   0  0  0  0  0  3  0  0  0  0  0  0
  -27.5510  -19.5530   20.8390 C   0  0  0  0  0  3  0  0  0  0  0  0
  -29.9680  -19.9890   19.5620 C   0  0  0  0  0  3  0  0  0  0  0  0
  -29.5480  -18.5950   19.7400 C   0  0  0  0  0  0  0  0  0  0  0  0
  -29.2200  -21.1570   20.0110 C   0  0  0  0  0  0  0  0  0  0  0  0
  -28.2750  -18.4330   20.3680 C   0  0  0  0  0  0  0  0  0  0  0  0
  -30.9230  -14.8840   19.4260 C   0  0  0  0  0  0  0  0  0  0  0  0
  -30.6480  -12.5530   18.5790 C   0  0  0  0  0  2  0  0  0  0  0  0
  -29.5920  -12.5590   17.4520 C   0  0  0  0  0  2  0  0  0  0  0  0
  -28.1780  -12.3920   18.0400 C   0  0  0  0  0  2  0  0  0  0  0  0
  -27.9200  -13.3270   19.2530 C   0  0  0  0  0  3  0  0  0  0  0  0
  -29.0880  -13.3140   20.2640 C   0  0  0  0  0  2  0  0  0  0  0  0
  -30.3090  -13.6510   19.5200 N   0  0  0  0  0  0  0  0  0  0  0  0
  -32.0740  -14.9130   18.9730 O   0  0  0  0  0  0  0  0  0  0  0  0
  -30.4720  -17.3810   19.3470 C   0  0  0  0  0  0  0  0  0  0  0  0
  -30.1820  -16.0480   19.6560 N   0  0  0  0  0  0  0  0  0  0  0  0
  -31.4880  -17.6770   18.7070 O   0  0  0  0  0  0  0  0  0  0  0  0
  -29.2860  -15.9520   20.1110 H   0  0  0  0  0  0  0  0  0  0  0  0
  -25.6640  -13.9410   20.3060 C   0  0  0  0  0  0  0  0  0  0  0  0
  -24.6340  -13.1790   20.7840 C   0  0  0  0  0  0  0  0  0  0  0  0
  -25.0350  -11.8200   20.6100 C   0  0  0  0  0  0  0  0  0  0  0  0
  -26.6390  -13.0500   19.8900 N   0  0  0  0  0  0  0  0  0  0  0  0
  -26.2750  -11.7640   20.1340 N   0  0  0  0  0  0  0  0  0  0  0  0
  -24.2850  -10.5730   20.8150 C   0  0  0  0  0  0  0  0  0  0  0  0
  -24.7000   -9.6110   21.7620 C   0  0  0  0  0  3  0  0  0  0  0  0
  -23.9570   -8.4270   21.9520 C   0  0  0  0  0  3  0  0  0  0  0  0
  -22.7820   -8.1980   21.1970 C   0  0  0  0  0  0  0  0  0  0  0  0
  -22.3860   -9.1470   20.2380 C   0  0  0  0  0  3  0  0  0  0  0  0
  -23.1300  -10.3230   20.0460 C   0  0  0  0  0  3  0  0  0  0  0  0
  -22.0110   -7.0650   21.2980 O   0  0  0  0  0  0  0  0  0  0  0  0
  -21.8050   -6.4390   22.5020 C   0  0  0  0  0  0  0  0  0  0  0  0
  -21.2190   -7.1080   23.5980 C   0  0  0  0  0  3  0  0  0  0  0  0
  -20.9590   -6.4070   24.7930 C   0  0  0  0  0  3  0  0  0  0  0  0
  -21.2780   -5.0390   24.8930 C   0  0  0  0  0  0  0  0  0  0  0  0
  -21.8580   -4.3710   23.8000 C   0  0  0  0  0  3  0  0  0  0  0  0
  -22.1180   -5.0680   22.6080 C   0  0  0  0  0  0  0  0  0  0  0  0
  -22.6560   -4.4150   21.5500 F   0  0  0  0  0  0  0  0  0  0  0  0
  -21.0250   -4.3630   26.0380 F   0  0  0  0  0  0  0  0  0  0  0  0
  -23.3040  -13.6830   21.2630 C   0  0  0  0  0  0  0  0  0  0  0  0
  -22.6690  -12.9660   22.1830 N   0  0  0  0  0  0  0  0  0  0  0  0
  -22.8420  -14.7470   20.8510 O   0  0  0  0  0  0  0  0  0  0  0  0
  -23.0610  -12.1070   22.5350 H   0  0  0  0  0  0  0  0  0  0  0  0
  -21.7820  -13.2880   22.5460 H   0  0  0  0  0  0  0  0  0  0  0  0
  -25.8370  -15.3120   20.1420 N   0  0  0  0  0  0  0  0  0  0  0  0
  -24.9720  -15.8310   20.2530 H   0  0  0  0  0  0  0  0  0  0  0  0
  -26.2830  -15.5410   19.2600 H   0  0  0  0  0  0  0  0  0  0  0  0
  -29.1270  -23.7720   20.3070 C   0  0  0  0  0  0  0  0  0  0  0  0
  -29.5530  -22.5800   19.7120 N   0  0  0  0  0  0  0  0  0  0  0  0
  -28.8260  -23.7920   21.5050 O   0  0  0  0  0  0  0  0  0  0  0  0
  -30.0750  -22.7120   18.8580 H   0  0  0  0  0  0  0  0  0  0  0  0
  -29.0020  -25.1430   19.4770 C   0  0  0  0  0  2  0  0  0  0  0  0
  -28.8640  -26.4630   20.2180 O   0  0  0  0  0  0  0  0  0  0  0  0
  -24.6280  -31.5940   23.1920 C   0  0  0  0  0  0  0  0  0  0  0  0
  -27.7160  -27.2950   20.1010 C   0  0  0  0  0  0  0  0  0  0  0  0
  -23.6240  -30.1800   21.4440 C   0  0  0  0  0  3  0  0  0  0  0  0
  -25.2540  -28.8010   20.0340 C   0  0  0  0  0  0  0  0  0  0  0  0
  -26.1480  -30.6620   21.4230 C   0  0  0  0  0  2  0  0  0  0  0  0
  -26.3570  -29.3140   20.7300 C   0  0  0  0  0  0  0  0  0  0  0  0
  -27.5820  -28.5660   20.7670 C   0  0  0  0  0  3  0  0  0  0  0  0
  -26.5910  -26.8890   19.3430 C   0  0  0  0  0  3  0  0  0  0  0  0
  -25.3800  -27.5980   19.3330 C   0  0  0  0  0  3  0  0  0  0  0  0
  -23.9620  -29.5890   20.0520 C   0  0  0  0  0  2  0  0  0  0  0  0
  -24.8170  -30.8310   22.0770 N   0  0  0  0  0  0  0  0  0  0  0  0
  -23.4990  -31.7740   23.6720 O   0  0  0  0  0  0  0  0  0  0  0  0
  -22.9910  -29.0760   22.3250 C   0  0  0  0  0  0  0  0  0  0  0  0
  -21.6900  -28.8050   22.1170 N   0  0  0  0  0  0  0  0  0  0  0  0
  -23.6660  -28.4720   23.1600 O   0  0  0  0  0  0  0  0  0  0  0  0
  -21.1980  -29.3550   21.4280 H   0  0  0  0  0  0  0  0  0  0  0  0
  -18.3820  -27.3700   22.4070 C   0  0  0  0  0  0  0  0  0  0  0  0
  -20.9040  -27.7820   22.8140 C   0  0  0  0  0  3  0  0  0  0  0  0
  -21.1240  -26.3870   22.1840 C   0  0  0  0  0  2  0  0  0  0  0  0
  -20.0970  -26.0430   21.1030 C   0  0  0  0  0  2  0  0  0  0  0  0
  -18.6790  -26.0690   21.6800 C   0  0  0  0  0  2  0  0  0  0  0  0
  -19.4300  -28.1820   22.9220 C   0  0  0  0  0  0  0  0  0  0  0  0
  -19.1010  -29.3970   23.5660 C   0  0  0  0  0  3  0  0  0  0  0  0
  -17.7640  -29.8050   23.6930 C   0  0  0  0  0  3  0  0  0  0  0  0
  -16.7290  -28.9920   23.1990 C   0  0  0  0  0  3  0  0  0  0  0  0
  -17.0390  -27.7760   22.5590 C   0  0  0  0  0  3  0  0  0  0  0  0
  -25.8240  -32.2960   23.9050 C   0  0  0  0  0  3  0  0  0  0  0  0
  -26.2840  -31.5560   25.2220 C   0  0  1  0  0  0  0  0  0  0  0  0
  -25.1220  -31.2400   26.1950 C   0  0  0  0  0  1  0  0  0  0  0  0
  -26.9900  -30.2230   24.8860 C   0  0  0  0  0  1  0  0  0  0  0  0
  -27.3180  -32.4220   25.9780 C   0  0  0  0  0  1  0  0  0  0  0  0
  -25.4140  -33.6770   24.2060 N   0  0  0  0  0  0  0  0  0  0  0  0
  -25.7320  -34.7450   23.4630 C   0  0  0  0  0  0  0  0  0  0  0  0
  -26.4700  -34.6780   22.4760 O   0  0  0  0  0  0  0  0  0  0  0  0
  -24.7640  -33.7970   24.9670 H   0  0  0  0  0  0  0  0  0  0  0  0
  -23.9290  -36.4370   22.9920 C   0  0  0  0  0  1  0  0  0  0  0  0
  -25.1370  -36.1040   23.8810 C   0  0  0  0  0  3  0  0  0  0  0  0
  -27.1580  -37.1160   24.8460 C   0  0  0  0  0  1  0  0  0  0  0  0
  -26.1130  -37.2140   23.8290 N   0  0  0  0  0  0  0  0  0  0  0  0
  -25.6470  -38.1100   23.9390 H   0  0  0  0  0  0  0  0  0  0  0  0
  -27.6570  -17.1950   20.5710 N   0  0  0  0  0  0  0  0  0  0  0  0
  -27.0700  -16.9070   19.7910 H   0  0  0  0  0  0  0  0  0  0  0  0
  -27.0150  -17.2210   21.3640 H   0  0  0  0  0  0  0  0  0  0  0  0
  1  2  1  0
  3  4  2  0
  3  5  1  0
  4  6  1  0
  5  1  2  0
  6 93  1  0
  6  2  2  0
  7 13  1  0
  7 16  1  0
  8 13  1  0
  9 10  1  0
  9  8  1  0
 11 10  1  0
 11 22  1  0
 11 12  1  0
 13 12  1  0
 14  7  2  0
 15 16  1  0
 15  4  1  0
 16 18  1  0
 17 15  2  0
 19 20  2  0
 20 39  1  0
 21 20  1  0
 21 24  1  0
 22 23  1  0
 22 19  1  0
 23 21  2  0
 24 25  1  0
 25 26  2  0
 27 30  1  0
 27 26  1  0
 28 27  2  0
 29 28  1  0
 29 24  2  0
 30 31  1  0
 31 36  2  0
 31 32  1  0
 32 33  2  0
 33 34  1  0
 34 38  1  0
 35 34  2  0
 36 35  1  0
 37 36  1  0
 39 40  1  0
 40 42  1  0
 40 43  1  0
 41 39  2  0
 44 45  1  0
 44 19  1  0
 46 44  1  0
 47 49  2  0
 48  5  1  0
 48 47  1  0
 50 48  1  0
 51 52  1  0
 51 47  1  0
 53 64  2  0
 54 52  1  0
 54 59  1  0
 55 63  1  0
 55 65  1  0
 56 62  1  0
 56 58  1  0
 57 63  1  0
 58 59  2  0
 58 57  1  0
 60 54  2  0
 61 60  1  0
 61 56  2  0
 62 55  1  0
 63 53  1  0
 65 67  2  0
 66 65  1  0
 68 66  1  0
 69 78  2  0
 69 74  1  0
 70 66  1  0
 70 74  1  0
 71 70  1  0
 72 73  1  0
 72 71  1  0
 73 69  1  0
 74 75  2  0
 75 76  1  0
 77 76  2  0
 78 77  1  0
 79 53  1  0
 79 84  1  0
 79 80  1  0
 80 83  1  1
 80 81  1  0
 82 80  1  0
 84 87  1  0
 85 89  1  0
 85 84  1  0
 86 85  2  0
 89 88  1  0
 91 89  1  0
 91 92  1  0
 91 90  1  0
 93 95  1  0
 94 93  1  0
M  ISO  4   7 100  16 100  51 101  52 101
M  END
>  <TORSDO>  (29) 
F 19

>  <SCORE>  (29) 
-12.232

>  <name>  (29) 
28

>  <ligand_id>  (29) 
28

>  <original_smiles>  (29) 
[H]c1c([H])c([H])c2c(c1[H])C([H])([H])C([H])([H])C([H])([H])C2([H])N([H])C(=O)C1([H])N(C(=O)C([H])(N([H])C(=O)C([H])(N([H])C([H])([H])[H])C([H])([H])[H])C(C([H])([H])[H])(C([H])([H])[H])C([H])([H])[H])C([H])([H])c2c([H])c(OC([H])([H])C(=O)N([H])c3c([H])c([H])c(N([H])[H])c(C(=O)N([H])C(=O)N4C([H])([H])C([H])([H])C([H])([H])C([H])(n5nc(-c6c([H])c([H])c(Oc7c([H])c([H])c(F)c([H])c7F)c([H])c6[H])c(C(=O)N([H])[H])c5N([H])[H])C4([H])[H])c3[H])c([H])c([H])c2C1([H])[H]

>  <smiles>  (29) 
[H]c1c([H])c([H])c2c(c1[H])C([H])([H])C([H])([H])C([H])([H])C2([H])N([H])C(=O)C1([H])N(C(=O)C([H])(N([H])C(=O)C([H])(N([H])C([H])([H])[H])C([H])([H])[H])C(C([H])([H])[H])(C([H])([H])[H])C([H])([H])[H])C([H])([H])c2c([H])c(OC([H])([H])C(=O)N([H])c3c([H])c([H])c(N([H])[H])c(C(=O)N([H])C(=O)N4C([H])([H])C([H])([H])C([H])([H])C([H])(n5nc(-c6c([H])c([H])c(Oc7c([H])c([H])c(F)c([H])c7F)c([H])c6[H])c(C(=O)N([H])[H])c5N([H])[H])C4([H])[H])c3[H])c([H])c([H])c2C1([H])[H]

$$$$
29:0:0
     RDKit          3D

 95103  0  0  1  0  0  0  0  0999 V2000
  -29.3720  -18.8880   19.4060 C   0  0  0  0  0  3  0  0  0  0  0  0
  -29.9170  -20.9110   21.2710 C   0  0  0  0  0  3  0  0  0  0  0  0
  -30.0850  -18.5120   20.5720 C   0  0  0  0  0  0  0  0  0  0  0  0
  -28.9660  -20.2400   19.1620 C   0  0  0  0  0  0  0  0  0  0  0  0
  -29.2490  -21.2990   20.0800 C   0  0  0  0  0  0  0  0  0  0  0  0
  -30.3290  -19.5640   21.5060 C   0  0  0  0  0  0  0  0  0  0  0  0
  -28.2650  -20.5420   17.8470 C   0  0  0  0  0  1  0  0  0  0  0  0
  -30.9970  -19.3010   22.6570 F   0  0  0  0  0  0  0  0  0  0  0  0
  -30.8270  -14.7400   20.1570 C   0  0  0  0  0  0  0  0  0  0  0  0
  -30.4500  -12.5320   19.0700 C   0  0  0  0  0  2  0  0  0  0  0  0
  -29.4800  -12.6750   17.8830 C   0  0  0  0  0  2  0  0  0  0  0  0
  -28.0250  -12.5260   18.3650 C   0  0  0  0  0  2  0  0  0  0  0  0
  -27.7150  -13.3890   19.6200 C   0  0  0  0  0  3  0  0  0  0  0  0
  -28.8160  -13.2720   20.6960 C   0  0  0  0  0  2  0  0  0  0  0  0
  -30.0950  -13.5830   20.0470 N   0  0  0  0  0  0  0  0  0  0  0  0
  -32.0060  -14.7300   19.7960 O   0  0  0  0  0  0  0  0  0  0  0  0
  -30.7880  -17.1390   20.7050 C   0  0  0  0  0  0  0  0  0  0  0  0
  -30.1790  -15.9320   20.4250 N   0  0  0  0  0  0  0  0  0  0  0  0
  -31.9630  -17.1880   21.0890 O   0  0  0  0  0  0  0  0  0  0  0  0
  -29.1750  -15.9350   20.3730 H   0  0  0  0  0  0  0  0  0  0  0  0
  -25.3620  -13.9840   20.4430 C   0  0  0  0  0  0  0  0  0  0  0  0
  -24.3030  -13.2120   20.8360 C   0  0  0  0  0  0  0  0  0  0  0  0
  -24.7550  -11.8580   20.7710 C   0  0  0  0  0  0  0  0  0  0  0  0
  -26.3900  -13.1020   20.1570 N   0  0  0  0  0  0  0  0  0  0  0  0
  -26.0350  -11.8170   20.4180 N   0  0  0  0  0  0  0  0  0  0  0  0
  -24.0260  -10.5980   20.9660 C   0  0  0  0  0  0  0  0  0  0  0  0
  -24.4690   -9.6210   21.8840 C   0  0  0  0  0  3  0  0  0  0  0  0
  -23.7380   -8.4280   22.0700 C   0  0  0  0  0  3  0  0  0  0  0  0
  -22.5490   -8.2020   21.3380 C   0  0  0  0  0  0  0  0  0  0  0  0
  -22.1230   -9.1670   20.4090 C   0  0  0  0  0  3  0  0  0  0  0  0
  -22.8540  -10.3530   20.2210 C   0  0  0  0  0  3  0  0  0  0  0  0
  -21.7890   -7.0620   21.4320 O   0  0  0  0  0  0  0  0  0  0  0  0
  -21.7430   -6.3220   22.5860 C   0  0  0  0  0  0  0  0  0  0  0  0
  -21.2980   -6.8730   23.8080 C   0  0  0  0  0  3  0  0  0  0  0  0
  -21.2000   -6.0590   24.9530 C   0  0  0  0  0  3  0  0  0  0  0  0
  -21.5360   -4.6940   24.8800 C   0  0  0  0  0  0  0  0  0  0  0  0
  -21.9750   -4.1420   23.6620 C   0  0  0  0  0  3  0  0  0  0  0  0
  -22.0750   -4.9530   22.5190 C   0  0  0  0  0  0  0  0  0  0  0  0
  -22.4770   -4.4120   21.3440 F   0  0  0  0  0  0  0  0  0  0  0  0
  -21.4350   -3.9090   25.9780 F   0  0  0  0  0  0  0  0  0  0  0  0
  -22.9190  -13.6950   21.1590 C   0  0  0  0  0  0  0  0  0  0  0  0
  -22.2170  -12.9930   22.0410 N   0  0  0  0  0  0  0  0  0  0  0  0
  -22.4730  -14.7300   20.6670 O   0  0  0  0  0  0  0  0  0  0  0  0
  -22.5940  -12.1560   22.4610 H   0  0  0  0  0  0  0  0  0  0  0  0
  -21.2900  -13.2980   22.3010 H   0  0  0  0  0  0  0  0  0  0  0  0
  -25.5280  -15.3560   20.2800 N   0  0  0  0  0  0  0  0  0  0  0  0
  -24.7650  -16.0080   20.4230 H   0  0  0  0  0  0  0  0  0  0  0  0
  -26.3580  -15.7960   19.9040 H   0  0  0  0  0  0  0  0  0  0  0  0
  -29.0810  -23.9150   20.2880 C   0  0  0  0  0  0  0  0  0  0  0  0
  -28.8190  -22.6690   19.7660 N   0  0  0  0  0  0  0  0  0  0  0  0
  -29.8230  -24.0960   21.2570 O   0  0  0  0  0  0  0  0  0  0  0  0
  -28.2260  -22.7210   18.9500 H   0  0  0  0  0  0  0  0  0  0  0  0
  -28.8560  -25.3130   18.1450 C   0  0  0  0  0  1  0  0  0  0  0  0
  -28.3560  -25.1420   19.5900 C   0  0  0  0  0  3  0  0  0  0  0  0
  -28.4370  -26.4890   20.2300 O   0  0  0  0  0  0  0  0  0  0  0  0
  -24.6650  -31.8830   23.2370 C   0  0  0  0  0  0  0  0  0  0  0  0
  -27.3320  -27.3660   20.1410 C   0  0  0  0  0  0  0  0  0  0  0  0
  -23.4910  -30.4980   21.5680 C   0  0  0  0  0  3  0  0  0  0  0  0
  -24.9680  -28.9910   20.1310 C   0  0  0  0  0  0  0  0  0  0  0  0
  -26.0340  -30.8270   21.4270 C   0  0  0  0  0  2  0  0  0  0  0  0
  -26.1270  -29.4580   20.7630 C   0  0  0  0  0  0  0  0  0  0  0  0
  -27.3080  -28.6530   20.7710 C   0  0  0  0  0  3  0  0  0  0  0  0
  -26.1540  -26.9870   19.4500 C   0  0  0  0  0  3  0  0  0  0  0  0
  -24.9860  -27.7610   19.4690 C   0  0  0  0  0  3  0  0  0  0  0  0
  -23.7270  -29.8550   20.1790 C   0  0  0  0  0  2  0  0  0  0  0  0
  -24.7490  -31.0860   22.1330 N   0  0  0  0  0  0  0  0  0  0  0  0
  -23.5730  -32.1470   23.7610 O   0  0  0  0  0  0  0  0  0  0  0  0
  -22.8280  -29.4570   22.5030 C   0  0  0  0  0  0  0  0  0  0  0  0
  -21.5020  -29.2870   22.3770 N   0  0  0  0  0  0  0  0  0  0  0  0
  -23.5080  -28.8090   23.3040 O   0  0  0  0  0  0  0  0  0  0  0  0
  -21.0120  -29.8630   21.7060 H   0  0  0  0  0  0  0  0  0  0  0  0
  -18.1180  -28.1160   22.8870 C   0  0  0  0  0  0  0  0  0  0  0  0
  -20.6820  -28.3380   23.1330 C   0  0  0  0  0  3  0  0  0  0  0  0
  -20.7600  -26.9210   22.5180 C   0  0  0  0  0  2  0  0  0  0  0  0
  -19.6420  -26.6380   21.5100 C   0  0  0  0  0  2  0  0  0  0  0  0
  -18.2690  -26.7830   22.1730 C   0  0  0  0  0  2  0  0  0  0  0  0
  -19.2490  -28.8530   23.3240 C   0  0  0  0  0  0  0  0  0  0  0  0
  -19.0520  -30.1030   23.9520 C   0  0  0  0  0  3  0  0  0  0  0  0
  -17.7560  -30.6150   24.1460 C   0  0  0  0  0  3  0  0  0  0  0  0
  -16.6370  -29.8740   23.7250 C   0  0  0  0  0  3  0  0  0  0  0  0
  -16.8190  -28.6260   23.1020 C   0  0  0  0  0  3  0  0  0  0  0  0
  -25.9370  -32.5190   23.8790 C   0  0  0  0  0  3  0  0  0  0  0  0
  -25.6160  -33.9150   24.2100 N   0  0  0  0  0  0  0  0  0  0  0  0
  -25.9270  -34.9710   23.4460 C   0  0  0  0  0  0  0  0  0  0  0  0
  -26.5860  -34.8730   22.4070 O   0  0  0  0  0  0  0  0  0  0  0  0
  -25.0350  -34.0660   25.0220 H   0  0  0  0  0  0  0  0  0  0  0  0
  -24.1670  -36.7370   23.1140 C   0  0  0  0  0  1  0  0  0  0  0  0
  -25.4270  -36.3540   23.9060 C   0  0  0  0  0  3  0  0  0  0  0  0
  -27.5580  -37.2750   24.7050 C   0  0  0  0  0  1  0  0  0  0  0  0
  -26.4420  -37.4210   23.7730 N   0  0  0  0  0  0  0  0  0  0  0  0
  -26.0250  -38.3350   23.9220 H   0  0  0  0  0  0  0  0  0  0  0  0
  -26.4390  -31.7450   25.1590 C   0  0  1  0  0  0  0  0  0  0  0  0
  -25.3310  -31.4970   26.2100 C   0  0  0  0  0  1  0  0  0  0  0  0
  -27.0360  -30.3720   24.7730 C   0  0  0  0  0  1  0  0  0  0  0  0
  -27.5740  -32.5440   25.8420 C   0  0  0  0  0  1  0  0  0  0  0  0
  1  3  1  0
  2  6  1  0
  3 17  1  0
  3  6  2  0
  4  1  2  0
  4  5  1  0
  5  2  2  0
  6  8  1  0
  7  4  1  0
  9 18  1  0
 10 15  1  0
 11 12  1  0
 11 10  1  0
 13 12  1  0
 13 24  1  0
 13 14  1  0
 15  9  1  0
 15 14  1  0
 16  9  2  0
 17 19  2  0
 18 17  1  0
 20 18  1  0
 21 22  2  0
 22 41  1  0
 23 22  1  0
 23 26  1  0
 24 25  1  0
 24 21  1  0
 25 23  2  0
 26 27  1  0
 27 28  2  0
 29 32  1  0
 29 28  1  0
 30 29  2  0
 31 30  1  0
 31 26  2  0
 32 33  1  0
 33 34  1  0
 34 35  2  0
 36 35  1  0
 36 40  1  0
 37 36  2  0
 38 33  2  0
 38 37  1  0
 39 38  1  0
 41 42  1  0
 42 45  1  0
 42 44  1  0
 43 41  2  0
 46 47  1  0
 46 21  1  0
 48 46  1  0
 49 51  2  0
 50  5  1  0
 50 49  1  0
 52 50  1  0
 54 53  1  0
 54 55  1  0
 54 49  1  0
 56 67  2  0
 57 55  1  0
 57 62  1  0
 58 66  1  0
 58 68  1  0
 59 65  1  0
 59 61  1  0
 60 66  1  0
 61 62  2  0
 61 60  1  0
 63 64  1  0
 63 57  2  0
 64 59  2  0
 65 58  1  0
 66 56  1  0
 68 70  2  0
 69 68  1  0
 71 69  1  0
 72 81  2  0
 72 77  1  0
 73 69  1  0
 73 77  1  0
 74 73  1  0
 75 76  1  0
 75 74  1  0
 76 72  1  0
 77 78  2  0
 78 79  1  0
 80 79  2  0
 81 80  1  0
 82 56  1  0
 82 83  1  0
 82 92  1  0
 83 86  1  0
 84 88  1  0
 84 83  1  0
 85 84  2  0
 88 87  1  0
 90 88  1  0
 90 91  1  0
 90 89  1  0
 92 95  1  1
 92 93  1  0
 94 92  1  0
M  ISO  4   9 100  18 100  54 101  55 101
M  END
>  <TORSDO>  (30) 
F 18

>  <SCORE>  (30) 
-15.030

>  <name>  (30) 
29

>  <ligand_id>  (30) 
29

>  <original_smiles>  (30) 
[H]c1c([H])c([H])c2c(c1[H])C([H])([H])C([H])([H])C([H])([H])C2([H])N([H])C(=O)C1([H])N(C(=O)C([H])(N([H])C(=O)C([H])(N([H])C([H])([H])[H])C([H])([H])[H])C(C([H])([H])[H])(C([H])([H])[H])C([H])([H])[H])C([H])([H])c2c([H])c(OC([H])(C(=O)N([H])c3c([H])c(F)c(C(=O)N([H])C(=O)N4C([H])([H])C([H])([H])C([H])([H])C([H])(n5nc(-c6c([H])c([H])c(Oc7c([H])c([H])c(F)c([H])c7F)c([H])c6[H])c(C(=O)N([H])[H])c5N([H])[H])C4([H])[H])c([H])c3C([H])([H])[H])C([H])([H])[H])c([H])c([H])c2C1([H])[H]

>  <smiles>  (30) 
[H]c1c([H])c([H])c2c(c1[H])C([H])([H])C([H])([H])C([H])([H])C2([H])N([H])C(=O)C1([H])N(C(=O)C([H])(N([H])C(=O)C([H])(N([H])C([H])([H])[H])C([H])([H])[H])C(C([H])([H])[H])(C([H])([H])[H])C([H])([H])[H])C([H])([H])c2c([H])c(OC([H])(C(=O)N([H])c3c([H])c(F)c(C(=O)N([H])C(=O)N4C([H])([H])C([H])([H])C([H])([H])C([H])(n5nc(-c6c([H])c([H])c(Oc7c([H])c([H])c(F)c([H])c7F)c([H])c6[H])c(C(=O)N([H])[H])c5N([H])[H])C4([H])[H])c([H])c3C([H])([H])[H])C([H])([H])[H])c([H])c([H])c2C1([H])[H]

$$$$
30:0:0
     RDKit          3D

 92101  0  0  1  0  0  0  0  0999 V2000
  -28.8460  -22.5690   20.8160 C   0  0  0  0  0  0  0  0  0  0  0  0
  -29.7250  -22.5920   18.9420 C   0  0  0  0  0  2  0  0  0  0  0  0
  -29.3730  -23.7770   19.9330 C   0  0  0  0  0  3  0  0  0  0  0  0
  -29.6120  -21.6530   20.0670 N   0  0  0  0  0  0  0  0  0  0  0  0
  -28.0590  -22.4000   21.7250 O   0  0  0  0  0  0  0  0  0  0  0  0
  -30.7310  -19.4720   19.1380 C   0  0  0  0  0  3  0  0  0  0  0  0
  -30.9750  -18.0500   19.1850 C   0  0  0  0  0  3  0  0  0  0  0  0
  -29.1350  -19.2740   20.8480 C   0  0  0  0  0  3  0  0  0  0  0  0
  -29.8210  -20.1810   19.9890 C   0  0  0  0  0  0  0  0  0  0  0  0
  -30.3180  -17.1780   20.1060 C   0  0  0  0  0  0  0  0  0  0  0  0
  -29.3490  -17.8630   20.9060 C   0  0  0  0  0  0  0  0  0  0  0  0
  -28.5800  -17.1690   21.7800 F   0  0  0  0  0  0  0  0  0  0  0  0
  -30.9920  -14.7500   19.4020 C   0  0  0  0  0  0  0  0  0  0  0  0
  -30.5190  -12.5560   18.2730 C   0  0  0  0  0  2  0  0  0  0  0  0
  -29.3800  -12.7030   17.2410 C   0  0  0  0  0  2  0  0  0  0  0  0
  -28.0050  -12.5280   17.9130 C   0  0  0  0  0  2  0  0  0  0  0  0
  -27.8760  -13.3630   19.2130 C   0  0  0  0  0  3  0  0  0  0  0  0
  -29.1040  -13.1800   20.1240 C   0  0  0  0  0  2  0  0  0  0  0  0
  -30.3030  -13.5510   19.3530 N   0  0  0  0  0  0  0  0  0  0  0  0
  -31.9650  -14.9260   18.6620 O   0  0  0  0  0  0  0  0  0  0  0  0
  -30.9800  -15.3530   21.7000 C   0  0  0  0  0  1  0  0  0  0  0  0
  -30.6120  -15.7210   20.3190 N   0  0  0  0  0  0  0  0  0  0  0  0
  -25.7130  -13.9690   20.4570 C   0  0  0  0  0  0  0  0  0  0  0  0
  -24.6860  -13.2030   20.9400 C   0  0  0  0  0  0  0  0  0  0  0  0
  -25.0420  -11.8460   20.6640 C   0  0  0  0  0  0  0  0  0  0  0  0
  -26.6290  -13.0790   19.9200 N   0  0  0  0  0  0  0  0  0  0  0  0
  -26.2430  -11.7900   20.1020 N   0  0  0  0  0  0  0  0  0  0  0  0
  -24.2800  -10.6050   20.8500 C   0  0  0  0  0  0  0  0  0  0  0  0
  -24.7230   -9.5900   21.7280 C   0  0  0  0  0  3  0  0  0  0  0  0
  -23.9640   -8.4130   21.9030 C   0  0  0  0  0  3  0  0  0  0  0  0
  -22.7470   -8.2420   21.2020 C   0  0  0  0  0  0  0  0  0  0  0  0
  -22.3220   -9.2450   20.3120 C   0  0  0  0  0  3  0  0  0  0  0  0
  -23.0820  -10.4130   20.1340 C   0  0  0  0  0  3  0  0  0  0  0  0
  -21.9570   -7.1210   21.2890 O   0  0  0  0  0  0  0  0  0  0  0  0
  -21.8110   -6.4350   22.4680 C   0  0  0  0  0  0  0  0  0  0  0  0
  -21.3430   -7.0610   23.6430 C   0  0  0  0  0  3  0  0  0  0  0  0
  -21.1410   -6.3030   24.8140 C   0  0  0  0  0  3  0  0  0  0  0  0
  -21.3970   -4.9190   24.8090 C   0  0  0  0  0  0  0  0  0  0  0  0
  -21.8580   -4.2920   23.6380 C   0  0  0  0  0  3  0  0  0  0  0  0
  -22.0610   -5.0480   22.4700 C   0  0  0  0  0  0  0  0  0  0  0  0
  -22.4850   -4.4340   21.3380 F   0  0  0  0  0  0  0  0  0  0  0  0
  -21.1960   -4.1880   25.9300 F   0  0  0  0  0  0  0  0  0  0  0  0
  -23.4030  -13.7050   21.5360 C   0  0  0  0  0  0  0  0  0  0  0  0
  -22.8470  -12.9740   22.4970 N   0  0  0  0  0  0  0  0  0  0  0  0
  -22.9120  -14.7760   21.1870 O   0  0  0  0  0  0  0  0  0  0  0  0
  -23.2620  -12.1050   22.7980 H   0  0  0  0  0  0  0  0  0  0  0  0
  -21.9940  -13.2880   22.9370 H   0  0  0  0  0  0  0  0  0  0  0  0
  -25.9340  -15.3410   20.4100 N   0  0  0  0  0  0  0  0  0  0  0  0
  -25.2590  -16.0130   20.7600 H   0  0  0  0  0  0  0  0  0  0  0  0
  -26.7520  -15.7770   20.0020 H   0  0  0  0  0  0  0  0  0  0  0  0
  -28.3270  -24.9580   19.5890 C   0  0  0  0  0  2  0  0  0  0  0  0
  -28.5030  -26.3980   19.9950 O   0  0  0  0  0  0  0  0  0  0  0  0
  -24.6550  -31.6390   23.2300 C   0  0  0  0  0  0  0  0  0  0  0  0
  -27.3790  -27.2620   19.9640 C   0  0  0  0  0  0  0  0  0  0  0  0
  -23.4870  -30.2810   21.5340 C   0  0  0  0  0  3  0  0  0  0  0  0
  -24.9760  -28.8400   20.0320 C   0  0  0  0  0  0  0  0  0  0  0  0
  -26.0210  -30.6690   21.3620 C   0  0  0  0  0  2  0  0  0  0  0  0
  -26.1360  -29.3220   20.6510 C   0  0  0  0  0  0  0  0  0  0  0  0
  -27.3390  -28.5450   20.6080 C   0  0  0  0  0  3  0  0  0  0  0  0
  -26.1920  -26.8560   19.3110 C   0  0  0  0  0  3  0  0  0  0  0  0
  -25.0080  -27.6150   19.3530 C   0  0  0  0  0  3  0  0  0  0  0  0
  -23.7160  -29.6780   20.1240 C   0  0  0  0  0  2  0  0  0  0  0  0
  -24.7400  -30.8790   22.0990 N   0  0  0  0  0  0  0  0  0  0  0  0
  -23.5660  -31.8620   23.7790 O   0  0  0  0  0  0  0  0  0  0  0  0
  -22.8560  -29.2040   22.4490 C   0  0  0  0  0  0  0  0  0  0  0  0
  -21.5470  -28.9520   22.2780 N   0  0  0  0  0  0  0  0  0  0  0  0
  -23.5460  -28.5980   23.2740 O   0  0  0  0  0  0  0  0  0  0  0  0
  -21.0460  -29.4950   21.5890 H   0  0  0  0  0  0  0  0  0  0  0  0
  -18.2400  -27.5250   22.6270 C   0  0  0  0  0  0  0  0  0  0  0  0
  -20.7630  -27.9500   23.0030 C   0  0  0  0  0  3  0  0  0  0  0  0
  -20.9830  -26.5380   22.4140 C   0  0  0  0  0  2  0  0  0  0  0  0
  -19.9460  -26.1580   21.3520 C   0  0  0  0  0  2  0  0  0  0  0  0
  -18.5340  -26.2010   21.9420 C   0  0  0  0  0  2  0  0  0  0  0  0
  -19.2870  -28.3530   23.1120 C   0  0  0  0  0  0  0  0  0  0  0  0
  -18.9600  -29.5880   23.7110 C   0  0  0  0  0  3  0  0  0  0  0  0
  -17.6190  -29.9980   23.8320 C   0  0  0  0  0  3  0  0  0  0  0  0
  -16.5860  -29.1670   23.3630 C   0  0  0  0  0  3  0  0  0  0  0  0
  -16.8970  -27.9320   22.7670 C   0  0  0  0  0  3  0  0  0  0  0  0
  -25.9210  -32.2830   23.8760 C   0  0  0  0  0  3  0  0  0  0  0  0
  -25.5700  -33.6550   24.2690 N   0  0  0  0  0  0  0  0  0  0  0  0
  -25.8400  -34.7480   23.5430 C   0  0  0  0  0  0  0  0  0  0  0  0
  -26.4790  -34.7100   22.4890 O   0  0  0  0  0  0  0  0  0  0  0  0
  -24.9970  -33.7560   25.0940 H   0  0  0  0  0  0  0  0  0  0  0  0
  -24.0370  -36.4880   23.3150 C   0  0  0  0  0  1  0  0  0  0  0  0
  -25.3180  -36.0990   24.0710 C   0  0  0  0  0  3  0  0  0  0  0  0
  -27.4380  -37.0380   24.8780 C   0  0  0  0  0  1  0  0  0  0  0  0
  -26.3080  -37.1940   23.9670 N   0  0  0  0  0  0  0  0  0  0  0  0
  -25.8720  -38.0930   24.1540 H   0  0  0  0  0  0  0  0  0  0  0  0
  -26.4640  -31.4720   25.1170 C   0  0  1  0  0  0  0  0  0  0  0  0
  -25.3750  -31.1300   26.1600 C   0  0  0  0  0  1  0  0  0  0  0  0
  -27.1150  -30.1450   24.6650 C   0  0  0  0  0  1  0  0  0  0  0  0
  -27.5690  -32.2850   25.8300 C   0  0  0  0  0  1  0  0  0  0  0  0
  1  5  2  0
  2  3  1  0
  2  4  1  0
  3 51  1  0
  3  1  1  0
  4  1  1  0
  6  7  2  0
  6  9  1  0
  7 10  1  0
  8 11  1  0
  9  4  1  0
  9  8  2  0
 10 22  1  0
 10 11  2  0
 11 12  1  0
 13 22  1  0
 14 19  1  0
 15 16  1  0
 15 14  1  0
 17 16  1  0
 17 26  1  0
 17 18  1  0
 19 13  1  0
 19 18  1  0
 20 13  2  0
 22 21  1  0
 23 24  2  0
 24 43  1  0
 25 28  1  0
 25 24  1  0
 26 27  1  0
 26 23  1  0
 27 25  2  0
 28 29  1  0
 29 30  2  0
 31 34  1  0
 31 30  1  0
 32 31  2  0
 33 32  1  0
 33 28  2  0
 34 35  1  0
 35 40  2  0
 35 36  1  0
 36 37  2  0
 38 37  1  0
 38 42  1  0
 39 38  2  0
 40 39  1  0
 41 40  1  0
 43 44  1  0
 44 46  1  0
 44 47  1  0
 45 43  2  0
 48 23  1  0
 48 49  1  0
 50 48  1  0
 51 52  1  0
 53 64  2  0
 54 52  1  0
 54 59  1  0
 55 63  1  0
 55 65  1  0
 56 62  1  0
 56 58  1  0
 57 63  1  0
 58 57  1  0
 59 58  2  0
 60 61  1  0
 60 54  2  0
 61 56  2  0
 62 55  1  0
 63 53  1  0
 65 67  2  0
 66 65  1  0
 68 66  1  0
 69 78  2  0
 69 74  1  0
 70 66  1  0
 70 74  1  0
 71 70  1  0
 72 73  1  0
 72 71  1  0
 73 69  1  0
 74 75  2  0
 75 76  1  0
 77 76  2  0
 78 77  1  0
 79 53  1  0
 79 80  1  0
 79 89  1  0
 80 83  1  0
 81 85  1  0
 81 80  1  0
 82 81  2  0
 85 84  1  0
 87 85  1  0
 87 88  1  0
 87 86  1  0
 89 92  1  1
 89 90  1  0
 91 89  1  0
M  ISO  4  13 100  22 100  51 101  52 101
M  END
>  <TORSDO>  (31) 
F 18

>  <SCORE>  (31) 
-12.105

>  <name>  (31) 
30

>  <ligand_id>  (31) 
30

>  <original_smiles>  (31) 
[H]c1c([H])c([H])c2c(c1[H])C([H])([H])C([H])([H])C([H])([H])C2([H])N([H])C(=O)C1([H])N(C(=O)C([H])(N([H])C(=O)C([H])(N([H])C([H])([H])[H])C([H])([H])[H])C(C([H])([H])[H])(C([H])([H])[H])C([H])([H])[H])C([H])([H])c2c([H])c(OC([H])([H])C3([H])C(=O)N(c4c([H])c([H])c(N(C(=O)N5C([H])([H])C([H])([H])C([H])([H])C([H])(n6nc(-c7c([H])c([H])c(Oc8c([H])c([H])c(F)c([H])c8F)c([H])c7[H])c(C(=O)N([H])[H])c6N([H])[H])C5([H])[H])C([H])([H])[H])c(F)c4[H])C3([H])[H])c([H])c([H])c2C1([H])[H]

>  <smiles>  (31) 
[H]c1c([H])c([H])c2c(c1[H])C([H])([H])C([H])([H])C([H])([H])C2([H])N([H])C(=O)C1([H])N(C(=O)C([H])(N([H])C(=O)C([H])(N([H])C([H])([H])[H])C([H])([H])[H])C(C([H])([H])[H])(C([H])([H])[H])C([H])([H])[H])C([H])([H])c2c([H])c(OC([H])([H])C3([H])C(=O)N(c4c([H])c([H])c(N(C(=O)N5C([H])([H])C([H])([H])C([H])([H])C([H])(n6nc(-c7c([H])c([H])c(Oc8c([H])c([H])c(F)c([H])c8F)c([H])c7[H])c(C(=O)N([H])[H])c6N([H])[H])C5([H])[H])C([H])([H])[H])c(F)c4[H])C3([H])[H])c([H])c([H])c2C1([H])[H]

$$$$
31:0:0
     RDKit          3D

 94103  0  0  1  0  0  0  0  0999 V2000
  -29.2470  -22.3680   22.4820 C   0  0  0  0  0  0  0  0  0  0  0  0
  -29.8250  -23.7420   22.8380 C   0  0  0  0  0  3  0  0  0  0  0  0
  -29.5120  -24.8810   21.8470 C   0  0  0  0  0  3  0  0  0  0  0  0
  -29.2330  -23.0610   20.1170 C   0  0  0  0  0  2  0  0  0  0  0  0
  -28.7220  -24.4640   20.5950 C   0  0  0  0  0  3  0  0  0  0  0  0
  -29.2050  -22.0150   21.1780 N   0  0  0  0  0  0  0  0  0  0  0  0
  -28.9110  -21.6120   23.3990 O   0  0  0  0  0  0  0  0  0  0  0  0
  -28.8850  -20.6180   20.7780 C   0  0  0  0  0  2  0  0  0  0  0  0
  -31.8730  -18.4720   22.1010 C   0  0  0  0  0  3  0  0  0  0  0  0
  -31.0590  -19.5970   21.8410 C   0  0  0  0  0  3  0  0  0  0  0  0
  -31.5940  -17.2240   21.5100 C   0  0  0  0  0  3  0  0  0  0  0  0
  -29.6460  -18.2110   20.4480 C   0  0  0  0  0  3  0  0  0  0  0  0
  -29.9070  -19.4750   21.0300 C   0  0  0  0  0  0  0  0  0  0  0  0
  -30.5010  -17.0810   20.6240 C   0  0  0  0  0  0  0  0  0  0  0  0
  -31.0330  -14.7360   19.9390 C   0  0  0  0  0  0  0  0  0  0  0  0
  -30.6890  -12.4730   19.0160 C   0  0  0  0  0  2  0  0  0  0  0  0
  -29.7020  -12.5150   17.8300 C   0  0  0  0  0  2  0  0  0  0  0  0
  -28.2340  -12.5000   18.3120 C   0  0  0  0  0  2  0  0  0  0  0  0
  -27.9480  -13.4160   19.5350 C   0  0  0  0  0  3  0  0  0  0  0  0
  -29.0540  -13.3170   20.6060 C   0  0  0  0  0  2  0  0  0  0  0  0
  -30.3400  -13.5610   19.9420 N   0  0  0  0  0  0  0  0  0  0  0  0
  -32.2220  -14.7920   19.6120 O   0  0  0  0  0  0  0  0  0  0  0  0
  -29.7330  -16.1480   18.5060 C   0  0  0  0  0  1  0  0  0  0  0  0
  -30.2760  -15.8770   19.8490 N   0  0  0  0  0  0  0  0  0  0  0  0
  -25.6190  -14.0910   20.3840 C   0  0  0  0  0  0  0  0  0  0  0  0
  -24.5450  -13.3440   20.7890 C   0  0  0  0  0  0  0  0  0  0  0  0
  -24.9650  -11.9810   20.7190 C   0  0  0  0  0  0  0  0  0  0  0  0
  -26.6200  -13.1790   20.0870 N   0  0  0  0  0  0  0  0  0  0  0  0
  -26.2360  -11.9060   20.3540 N   0  0  0  0  0  0  0  0  0  0  0  0
  -24.2110  -10.7370   20.9190 C   0  0  0  0  0  0  0  0  0  0  0  0
  -24.6100   -9.7800   21.8780 C   0  0  0  0  0  3  0  0  0  0  0  0
  -23.8580   -8.6000   22.0650 C   0  0  0  0  0  3  0  0  0  0  0  0
  -22.6960   -8.3700   21.2910 C   0  0  0  0  0  0  0  0  0  0  0  0
  -22.3200   -9.3140   20.3190 C   0  0  0  0  0  3  0  0  0  0  0  0
  -23.0720  -10.4840   20.1300 C   0  0  0  0  0  3  0  0  0  0  0  0
  -21.9200   -7.2420   21.3860 O   0  0  0  0  0  0  0  0  0  0  0  0
  -21.7740   -6.5660   22.5710 C   0  0  0  0  0  0  0  0  0  0  0  0
  -21.2490   -7.1880   23.7250 C   0  0  0  0  0  3  0  0  0  0  0  0
  -21.0490   -6.4360   24.9010 C   0  0  0  0  0  3  0  0  0  0  0  0
  -21.3690   -5.0670   24.9240 C   0  0  0  0  0  0  0  0  0  0  0  0
  -21.8910   -4.4450   23.7760 C   0  0  0  0  0  3  0  0  0  0  0  0
  -22.0900   -5.1930   22.6020 C   0  0  0  0  0  0  0  0  0  0  0  0
  -22.5700   -4.5840   21.4910 F   0  0  0  0  0  0  0  0  0  0  0  0
  -21.1710   -4.3430   26.0500 F   0  0  0  0  0  0  0  0  0  0  0  0
  -23.1780  -13.8590   21.1320 C   0  0  0  0  0  0  0  0  0  0  0  0
  -22.4750  -13.1700   22.0250 N   0  0  0  0  0  0  0  0  0  0  0  0
  -22.7430  -14.9020   20.6500 O   0  0  0  0  0  0  0  0  0  0  0  0
  -22.8450  -12.3250   22.4370 H   0  0  0  0  0  0  0  0  0  0  0  0
  -21.5570  -13.4890   22.3000 H   0  0  0  0  0  0  0  0  0  0  0  0
  -25.8200  -15.4590   20.2270 N   0  0  0  0  0  0  0  0  0  0  0  0
  -25.0920  -16.1440   20.3940 H   0  0  0  0  0  0  0  0  0  0  0  0
  -26.6910  -15.8740   19.9210 H   0  0  0  0  0  0  0  0  0  0  0  0
  -28.7780  -25.5930   19.5170 C   0  0  0  0  0  2  0  0  0  0  0  0
  -28.6070  -26.9270   20.0580 O   0  0  0  0  0  0  0  0  0  0  0  0
  -24.6690  -31.9600   23.2350 C   0  0  0  0  0  0  0  0  0  0  0  0
  -27.3880  -27.5880   20.0750 C   0  0  0  0  0  0  0  0  0  0  0  0
  -23.4790  -30.5530   21.5820 C   0  0  0  0  0  3  0  0  0  0  0  0
  -24.9540  -29.0570   20.1350 C   0  0  0  0  0  0  0  0  0  0  0  0
  -25.9980  -30.9610   21.3740 C   0  0  0  0  0  2  0  0  0  0  0  0
  -26.1070  -29.5980   20.7140 C   0  0  0  0  0  0  0  0  0  0  0  0
  -27.3200  -28.8700   20.6810 C   0  0  0  0  0  3  0  0  0  0  0  0
  -26.2050  -27.0570   19.5100 C   0  0  0  0  0  3  0  0  0  0  0  0
  -24.9980  -27.7860   19.5370 C   0  0  0  0  0  3  0  0  0  0  0  0
  -23.6890  -29.8830   20.1980 C   0  0  0  0  0  2  0  0  0  0  0  0
  -24.7330  -31.1760   22.1210 N   0  0  0  0  0  0  0  0  0  0  0  0
  -23.5860  -32.2030   23.7880 O   0  0  0  0  0  0  0  0  0  0  0  0
  -22.8550  -29.5110   22.5380 C   0  0  0  0  0  0  0  0  0  0  0  0
  -21.5350  -29.2990   22.4140 N   0  0  0  0  0  0  0  0  0  0  0  0
  -23.5560  -28.8920   23.3420 O   0  0  0  0  0  0  0  0  0  0  0  0
  -21.0280  -29.8510   21.7350 H   0  0  0  0  0  0  0  0  0  0  0  0
  -18.1920  -28.0230   22.9110 C   0  0  0  0  0  0  0  0  0  0  0  0
  -20.7450  -28.3330   23.1760 C   0  0  0  0  0  3  0  0  0  0  0  0
  -20.8760  -26.9130   22.5780 C   0  0  0  0  0  2  0  0  0  0  0  0
  -19.7760  -26.5800   21.5650 C   0  0  0  0  0  2  0  0  0  0  0  0
  -18.3950  -26.6860   22.2180 C   0  0  0  0  0  2  0  0  0  0  0  0
  -19.2970  -28.8040   23.3450 C   0  0  0  0  0  0  0  0  0  0  0  0
  -19.0540  -30.0560   23.9510 C   0  0  0  0  0  3  0  0  0  0  0  0
  -17.7390  -30.5260   24.1300 C   0  0  0  0  0  3  0  0  0  0  0  0
  -16.6500  -29.7420   23.7150 C   0  0  0  0  0  3  0  0  0  0  0  0
  -16.8770  -28.4940   23.1090 C   0  0  0  0  0  3  0  0  0  0  0  0
  -25.9470  -32.6100   23.8520 C   0  0  0  0  0  3  0  0  0  0  0  0
  -26.4740  -31.8540   25.1340 C   0  0  1  0  0  0  0  0  0  0  0  0
  -25.3790  -31.6010   26.1950 C   0  0  0  0  0  1  0  0  0  0  0  0
  -27.0910  -30.4880   24.7540 C   0  0  0  0  0  1  0  0  0  0  0  0
  -27.5970  -32.6770   25.8080 C   0  0  0  0  0  1  0  0  0  0  0  0
  -25.6210  -34.0050   24.1730 N   0  0  0  0  0  0  0  0  0  0  0  0
  -25.9480  -35.0590   23.4130 C   0  0  0  0  0  0  0  0  0  0  0  0
  -26.6260  -34.9610   22.3870 O   0  0  0  0  0  0  0  0  0  0  0  0
  -25.0170  -34.1550   24.9660 H   0  0  0  0  0  0  0  0  0  0  0  0
  -24.2050  -36.8360   23.0400 C   0  0  0  0  0  1  0  0  0  0  0  0
  -25.4400  -36.4420   23.8650 C   0  0  0  0  0  3  0  0  0  0  0  0
  -27.5500  -37.3560   24.7270 C   0  0  0  0  0  1  0  0  0  0  0  0
  -26.4620  -37.5060   23.7650 N   0  0  0  0  0  0  0  0  0  0  0  0
  -26.0420  -38.4210   23.9040 H   0  0  0  0  0  0  0  0  0  0  0  0
  1  2  1  0
  1  7  2  0
  3  2  2  0
  4  5  1  0
  4  6  1  0
  5 53  1  0
  5  3  1  0
  6  1  1  0
  8 13  1  0
  8  6  1  0
 10  9  1  0
 11  9  2  0
 12 14  2  0
 12 13  1  0
 13 10  2  0
 14 11  1  0
 15 21  1  0
 16 21  1  0
 17 18  1  0
 17 16  1  0
 19 18  1  0
 19 28  1  0
 19 20  1  0
 21 20  1  0
 22 15  2  0
 23 24  1  0
 24 15  1  0
 24 14  1  0
 25 26  2  0
 26 45  1  0
 27 26  1  0
 27 30  1  0
 28 29  1  0
 28 25  1  0
 29 27  2  0
 30 31  1  0
 31 32  2  0
 33 36  1  0
 33 32  1  0
 34 33  2  0
 35 34  1  0
 35 30  2  0
 36 37  1  0
 37 42  2  0
 37 38  1  0
 38 39  2  0
 39 40  1  0
 40 44  1  0
 41 40  2  0
 42 41  1  0
 43 42  1  0
 45 46  1  0
 46 49  1  0
 46 48  1  0
 47 45  2  0
 50 25  1  0
 50 51  1  0
 52 50  1  0
 53 54  1  0
 54 56  1  0
 55 66  2  0
 56 61  1  0
 57 65  1  0
 57 67  1  0
 58 64  1  0
 58 60  1  0
 59 65  1  0
 60 59  1  0
 61 60  2  0
 62 63  1  0
 62 56  2  0
 63 58  2  0
 64 57  1  0
 65 55  1  0
 67 69  2  0
 68 67  1  0
 70 68  1  0
 71 80  2  0
 71 76  1  0
 72 68  1  0
 72 76  1  0
 73 72  1  0
 74 75  1  0
 74 73  1  0
 75 71  1  0
 76 77  2  0
 77 78  1  0
 79 78  2  0
 80 79  1  0
 81 55  1  0
 81 86  1  0
 81 82  1  0
 82 85  1  1
 82 83  1  0
 84 82  1  0
 86 89  1  0
 87 91  1  0
 87 86  1  0
 88 87  2  0
 91 90  1  0
 93 91  1  0
 93 94  1  0
 93 92  1  0
M  ISO  4  15 100  24 100  53 101  54 101
M  END
>  <TORSDO>  (32) 
F 19

>  <SCORE>  (32) 
-13.096

>  <name>  (32) 
31

>  <ligand_id>  (32) 
31

>  <original_smiles>  (32) 
[H]c1c([H])c(N(C(=O)N2C([H])([H])C([H])([H])C([H])([H])C([H])(n3nc(-c4c([H])c([H])c(Oc5c([H])c([H])c(F)c([H])c5F)c([H])c4[H])c(C(=O)N([H])[H])c3N([H])[H])C2([H])[H])C([H])([H])[H])c([H])c(C([H])([H])N2C(=O)C([H])([H])C([H])([H])C([H])(C([H])([H])Oc3c([H])c([H])c4c(c3[H])C([H])([H])N(C(=O)C([H])(N([H])C(=O)C([H])(N([H])C([H])([H])[H])C([H])([H])[H])C(C([H])([H])[H])(C([H])([H])[H])C([H])([H])[H])C([H])(C(=O)N([H])C3([H])c5c([H])c([H])c([H])c([H])c5C([H])([H])C([H])([H])C3([H])[H])C4([H])[H])C2([H])[H])c1[H]

>  <smiles>  (32) 
[H]c1c([H])c(N(C(=O)N2C([H])([H])C([H])([H])C([H])([H])C([H])(n3nc(-c4c([H])c([H])c(Oc5c([H])c([H])c(F)c([H])c5F)c([H])c4[H])c(C(=O)N([H])[H])c3N([H])[H])C2([H])[H])C([H])([H])[H])c([H])c(C([H])([H])N2C(=O)C([H])([H])C([H])([H])C([H])(C([H])([H])Oc3c([H])c([H])c4c(c3[H])C([H])([H])N(C(=O)C([H])(N([H])C(=O)C([H])(N([H])C([H])([H])[H])C([H])([H])[H])C(C([H])([H])[H])(C([H])([H])[H])C([H])([H])[H])C([H])(C(=O)N([H])C3([H])c5c([H])c([H])c([H])c([H])c5C([H])([H])C([H])([H])C3([H])[H])C4([H])[H])C2([H])[H])c1[H]

$$$$
32:0:0
     RDKit          3D

 91 99  0  0  1  0  0  0  0  0999 V2000
  -29.3360  -21.0780   20.5670 O   0  0  0  0  0  0  0  0  0  0  0  0
  -29.2380  -18.4010   17.9090 C   0  0  0  0  0  3  0  0  0  0  0  0
  -29.5870  -17.2250   18.6010 C   0  0  0  0  0  3  0  0  0  0  0  0
  -29.1450  -19.6500   18.5580 C   0  0  0  0  0  3  0  0  0  0  0  0
  -29.8670  -17.2350   19.9870 C   0  0  0  0  0  0  0  0  0  0  0  0
  -29.4150  -19.7890   19.9390 C   0  0  0  0  0  0  0  0  0  0  0  0
  -29.7760  -18.5540   20.6340 C   0  0  0  0  0  0  0  0  0  0  0  0
  -30.0430  -18.6610   21.9570 F   0  0  0  0  0  0  0  0  0  0  0  0
  -30.7430  -14.8020   20.0430 C   0  0  0  0  0  0  0  0  0  0  0  0
  -30.4030  -12.5800   18.9310 C   0  0  0  0  0  2  0  0  0  0  0  0
  -29.3910  -12.7010   17.7720 C   0  0  0  0  0  2  0  0  0  0  0  0
  -27.9530  -12.5170   18.2920 C   0  0  0  0  0  2  0  0  0  0  0  0
  -27.6680  -13.3710   19.5540 C   0  0  0  0  0  3  0  0  0  0  0  0
  -28.7920  -13.2400   20.6020 C   0  0  0  0  0  2  0  0  0  0  0  0
  -30.0580  -13.6040   19.9470 N   0  0  0  0  0  0  0  0  0  0  0  0
  -31.8530  -14.9040   19.5090 O   0  0  0  0  0  0  0  0  0  0  0  0
  -30.2560  -15.9170   22.1110 C   0  0  0  0  0  1  0  0  0  0  0  0
  -30.1600  -15.9190   20.6480 N   0  0  0  0  0  0  0  0  0  0  0  0
  -25.3370  -13.9560   20.4500 C   0  0  0  0  0  0  0  0  0  0  0  0
  -24.2900  -13.1800   20.8650 C   0  0  0  0  0  0  0  0  0  0  0  0
  -24.7390  -11.8260   20.7690 C   0  0  0  0  0  0  0  0  0  0  0  0
  -26.3550  -13.0770   20.1220 N   0  0  0  0  0  0  0  0  0  0  0  0
  -26.0080  -11.7890   20.3770 N   0  0  0  0  0  0  0  0  0  0  0  0
  -24.0150  -10.5650   20.9710 C   0  0  0  0  0  0  0  0  0  0  0  0
  -24.4770   -9.5830   21.8760 C   0  0  0  0  0  3  0  0  0  0  0  0
  -23.7520   -8.3870   22.0680 C   0  0  0  0  0  3  0  0  0  0  0  0
  -22.5500   -8.1640   21.3550 C   0  0  0  0  0  0  0  0  0  0  0  0
  -22.1050   -9.1340   20.4380 C   0  0  0  0  0  3  0  0  0  0  0  0
  -22.8320  -10.3210   20.2450 C   0  0  0  0  0  3  0  0  0  0  0  0
  -21.7940   -7.0210   21.4580 O   0  0  0  0  0  0  0  0  0  0  0  0
  -21.7530   -6.2850   22.6150 C   0  0  0  0  0  0  0  0  0  0  0  0
  -21.3550   -6.8530   23.8440 C   0  0  0  0  0  3  0  0  0  0  0  0
  -21.2610   -6.0460   24.9960 C   0  0  0  0  0  3  0  0  0  0  0  0
  -21.5550   -4.6710   24.9180 C   0  0  0  0  0  0  0  0  0  0  0  0
  -21.9460   -4.1030   23.6930 C   0  0  0  0  0  3  0  0  0  0  0  0
  -22.0420   -4.9080   22.5430 C   0  0  0  0  0  0  0  0  0  0  0  0
  -22.3990   -4.3510   21.3610 F   0  0  0  0  0  0  0  0  0  0  0  0
  -21.4570   -3.8930   26.0210 F   0  0  0  0  0  0  0  0  0  0  0  0
  -22.9170  -13.6590   21.2390 C   0  0  0  0  0  0  0  0  0  0  0  0
  -22.2440  -12.9500   22.1370 N   0  0  0  0  0  0  0  0  0  0  0  0
  -22.4540  -14.6980   20.7700 O   0  0  0  0  0  0  0  0  0  0  0  0
  -22.6340  -12.1100   22.5390 H   0  0  0  0  0  0  0  0  0  0  0  0
  -21.3260  -13.2510   22.4300 H   0  0  0  0  0  0  0  0  0  0  0  0
  -25.5030  -15.3300   20.3010 N   0  0  0  0  0  0  0  0  0  0  0  0
  -24.7520  -15.9880   20.4840 H   0  0  0  0  0  0  0  0  0  0  0  0
  -26.3450  -15.7730   19.9570 H   0  0  0  0  0  0  0  0  0  0  0  0
  -28.8150  -22.2830   19.8370 C   0  0  0  0  0  2  0  0  0  0  0  0
  -28.8690  -23.7250   20.5510 C   0  0  0  0  0  0  0  0  0  0  0  0
  -29.6030  -23.9050   21.5300 O   0  0  0  0  0  0  0  0  0  0  0  0
  -27.9660  -24.9280   19.9920 C   0  0  0  0  0  2  0  0  0  0  0  0
  -28.2190  -26.3610   20.4050 O   0  0  0  0  0  0  0  0  0  0  0  0
  -24.5670  -31.9340   23.3240 C   0  0  0  0  0  0  0  0  0  0  0  0
  -27.1490  -27.2880   20.3080 C   0  0  0  0  0  0  0  0  0  0  0  0
  -23.3650  -30.5410   21.6820 C   0  0  0  0  0  3  0  0  0  0  0  0
  -24.8130  -28.9730   20.2660 C   0  0  0  0  0  0  0  0  0  0  0  0
  -25.9150  -30.8180   21.5240 C   0  0  0  0  0  2  0  0  0  0  0  0
  -25.9870  -29.4340   20.8790 C   0  0  0  0  0  0  0  0  0  0  0  0
  -27.1560  -28.6040   20.8910 C   0  0  0  0  0  3  0  0  0  0  0  0
  -25.9540  -26.9120   19.6480 C   0  0  0  0  0  3  0  0  0  0  0  0
  -24.8040  -27.7210   19.6400 C   0  0  0  0  0  3  0  0  0  0  0  0
  -23.5840  -29.8610   20.3060 C   0  0  0  0  0  2  0  0  0  0  0  0
  -24.6340  -31.1160   22.2320 N   0  0  0  0  0  0  0  0  0  0  0  0
  -23.4800  -32.2250   23.8460 O   0  0  0  0  0  0  0  0  0  0  0  0
  -22.6840  -29.5330   22.6390 C   0  0  0  0  0  0  0  0  0  0  0  0
  -21.3570  -29.3610   22.4970 N   0  0  0  0  0  0  0  0  0  0  0  0
  -23.3470  -28.9100   23.4710 O   0  0  0  0  0  0  0  0  0  0  0  0
  -20.8820  -29.9140   21.7980 H   0  0  0  0  0  0  0  0  0  0  0  0
  -17.9700  -28.1670   22.9510 C   0  0  0  0  0  0  0  0  0  0  0  0
  -20.5240  -28.4320   23.2630 C   0  0  0  0  0  3  0  0  0  0  0  0
  -20.6360  -26.9940   22.7060 C   0  0  0  0  0  2  0  0  0  0  0  0
  -19.5530  -26.6580   21.6770 C   0  0  0  0  0  2  0  0  0  0  0  0
  -18.1600  -26.8100   22.2940 C   0  0  0  0  0  2  0  0  0  0  0  0
  -19.0810  -28.9350   23.3910 C   0  0  0  0  0  0  0  0  0  0  0  0
  -18.8510  -30.2040   23.9650 C   0  0  0  0  0  3  0  0  0  0  0  0
  -17.5430  -30.7060   24.1020 C   0  0  0  0  0  3  0  0  0  0  0  0
  -16.4470  -29.9350   23.6790 C   0  0  0  0  0  3  0  0  0  0  0  0
  -16.6610  -28.6660   23.1100 C   0  0  0  0  0  3  0  0  0  0  0  0
  -25.8480  -32.5600   23.9550 C   0  0  0  0  0  3  0  0  0  0  0  0
  -26.3320  -31.8060   25.2540 C   0  0  1  0  0  0  0  0  0  0  0  0
  -25.2180  -31.6030   26.3080 C   0  0  0  0  0  1  0  0  0  0  0  0
  -26.9030  -30.4130   24.9000 C   0  0  0  0  0  1  0  0  0  0  0  0
  -27.4830  -32.5970   25.9190 C   0  0  0  0  0  1  0  0  0  0  0  0
  -25.5500  -33.9680   24.2580 N   0  0  0  0  0  0  0  0  0  0  0  0
  -25.8960  -35.0040   23.4810 C   0  0  0  0  0  0  0  0  0  0  0  0
  -26.5690  -34.8740   22.4530 O   0  0  0  0  0  0  0  0  0  0  0  0
  -24.9540  -34.1430   25.0520 H   0  0  0  0  0  0  0  0  0  0  0  0
  -24.1830  -36.8070   23.1020 C   0  0  0  0  0  1  0  0  0  0  0  0
  -25.4270  -36.4060   23.9120 C   0  0  0  0  0  3  0  0  0  0  0  0
  -27.5760  -37.2870   24.7080 C   0  0  0  0  0  1  0  0  0  0  0  0
  -26.4680  -37.4470   23.7700 N   0  0  0  0  0  0  0  0  0  0  0  0
  -26.0720  -38.3730   23.9030 H   0  0  0  0  0  0  0  0  0  0  0  0
  2  4  2  0
  2  3  1  0
  3  5  2  0
  4  6  1  0
  5  7  1  0
  5 18  1  0
  6  1  1  0
  6  7  2  0
  7  8  1  0
  9 18  1  0
 10 15  1  0
 11 12  1  0
 11 10  1  0
 13 12  1  0
 13 22  1  0
 13 14  1  0
 15  9  1  0
 15 14  1  0
 16  9  2  0
 18 17  1  0
 19 20  2  0
 20 39  1  0
 21 20  1  0
 21 24  1  0
 22 23  1  0
 22 19  1  0
 23 21  2  0
 24 25  1  0
 25 26  2  0
 27 30  1  0
 27 26  1  0
 28 27  2  0
 29 28  1  0
 29 24  2  0
 30 31  1  0
 31 32  1  0
 32 33  2  0
 34 33  1  0
 34 38  1  0
 35 34  2  0
 36 31  2  0
 36 35  1  0
 37 36  1  0
 39 40  1  0
 40 43  1  0
 40 42  1  0
 41 39  2  0
 44 19  1  0
 44 45  1  0
 46 44  1  0
 47 48  1  0
 47  1  1  0
 48 49  2  0
 50 51  1  0
 50 48  1  0
 52 63  2  0
 53 51  1  0
 53 58  1  0
 54 62  1  0
 54 64  1  0
 55 61  1  0
 55 57  1  0
 56 62  1  0
 57 58  2  0
 57 56  1  0
 59 53  2  0
 60 59  1  0
 60 55  2  0
 61 54  1  0
 62 52  1  0
 64 66  2  0
 65 64  1  0
 67 65  1  0
 68 77  2  0
 68 73  1  0
 69 65  1  0
 69 73  1  0
 70 69  1  0
 71 72  1  0
 71 70  1  0
 72 68  1  0
 73 74  2  0
 74 75  1  0
 76 75  2  0
 77 76  1  0
 78 52  1  0
 78 83  1  0
 78 79  1  0
 79 82  1  1
 79 80  1  0
 81 79  1  0
 83 86  1  0
 84 88  1  0
 84 83  1  0
 85 84  2  0
 88 87  1  0
 90 91  1  0
 90 88  1  0
 90 89  1  0
M  ISO  4   9 100  18 100  50 101  51 101
M  END
>  <TORSDO>  (33) 
F 20

>  <SCORE>  (33) 
-13.339

>  <name>  (33) 
32

>  <ligand_id>  (33) 
32

>  <original_smiles>  (33) 
[H]c1c([H])c(OC([H])([H])C(=O)C([H])([H])Oc2c([H])c([H])c3c(c2[H])C([H])([H])N(C(=O)C([H])(N([H])C(=O)C([H])(N([H])C([H])([H])[H])C([H])([H])[H])C(C([H])([H])[H])(C([H])([H])[H])C([H])([H])[H])C([H])(C(=O)N([H])C2([H])c4c([H])c([H])c([H])c([H])c4C([H])([H])C([H])([H])C2([H])[H])C3([H])[H])c(F)c(N(C(=O)N2C([H])([H])C([H])([H])C([H])([H])C([H])(n3nc(-c4c([H])c([H])c(Oc5c([H])c([H])c(F)c([H])c5F)c([H])c4[H])c(C(=O)N([H])[H])c3N([H])[H])C2([H])[H])C([H])([H])[H])c1[H]

>  <smiles>  (33) 
[H]c1c([H])c(OC([H])([H])C(=O)C([H])([H])Oc2c([H])c([H])c3c(c2[H])C([H])([H])N(C(=O)C([H])(N([H])C(=O)C([H])(N([H])C([H])([H])[H])C([H])([H])[H])C(C([H])([H])[H])(C([H])([H])[H])C([H])([H])[H])C([H])(C(=O)N([H])C2([H])c4c([H])c([H])c([H])c([H])c4C([H])([H])C([H])([H])C2([H])[H])C3([H])[H])c(F)c(N(C(=O)N2C([H])([H])C([H])([H])C([H])([H])C([H])(n3nc(-c4c([H])c([H])c(Oc5c([H])c([H])c(F)c([H])c5F)c([H])c4[H])c(C(=O)N([H])[H])c3N([H])[H])C2([H])[H])C([H])([H])[H])c1[H]

$$$$
33:0:0
     RDKit          3D

 97105  0  0  1  0  0  0  0  0999 V2000
  -28.8080  -22.6820   20.1670 C   0  0  0  0  0  0  0  0  0  0  0  0
  -29.5030  -21.7190   20.8740 N   0  0  0  0  0  0  0  0  0  0  0  0
  -28.1030  -22.3570   19.2110 O   0  0  0  0  0  0  0  0  0  0  0  0
  -30.0900  -22.0480   21.6220 H   0  0  0  0  0  0  0  0  0  0  0  0
  -28.6780  -19.4640   19.9650 C   0  0  0  0  0  3  0  0  0  0  0  0
  -30.7520  -18.0890   21.2420 C   0  0  0  0  0  3  0  0  0  0  0  0
  -28.8080  -18.0480   19.8240 C   0  0  0  0  0  0  0  0  0  0  0  0
  -29.5860  -20.2520   20.7150 C   0  0  0  0  0  0  0  0  0  0  0  0
  -29.8880  -17.3040   20.4270 C   0  0  0  0  0  0  0  0  0  0  0  0
  -30.6120  -19.5130   21.3740 C   0  0  0  0  0  0  0  0  0  0  0  0
  -27.7370  -17.3960   18.9610 C   0  0  0  0  0  1  0  0  0  0  0  0
  -30.8280  -14.8730   20.7560 C   0  0  0  0  0  0  0  0  0  0  0  0
  -30.7190  -12.5220   19.9410 C   0  0  0  0  0  2  0  0  0  0  0  0
  -29.8740  -12.4290   18.6500 C   0  0  0  0  0  2  0  0  0  0  0  0
  -28.3620  -12.3780   18.9540 C   0  0  0  0  0  2  0  0  0  0  0  0
  -27.9020  -13.3430   20.0830 C   0  0  0  0  0  3  0  0  0  0  0  0
  -28.8730  -13.3460   21.2790 C   0  0  0  0  0  2  0  0  0  0  0  0
  -30.2020  -13.6480   20.7430 N   0  0  0  0  0  0  0  0  0  0  0  0
  -32.0610  -14.9270   20.7990 O   0  0  0  0  0  0  0  0  0  0  0  0
  -30.3550  -15.7400   18.6030 C   0  0  0  0  0  1  0  0  0  0  0  0
  -30.1630  -15.8850   20.0600 N   0  0  0  0  0  0  0  0  0  0  0  0
  -25.4690  -13.9640   20.6210 C   0  0  0  0  0  0  0  0  0  0  0  0
  -24.3740  -13.2000   20.9220 C   0  0  0  0  0  0  0  0  0  0  0  0
  -24.8380  -11.8490   20.9690 C   0  0  0  0  0  0  0  0  0  0  0  0
  -26.5260  -13.0780   20.4910 N   0  0  0  0  0  0  0  0  0  0  0  0
  -26.1490  -11.8040   20.7710 N   0  0  0  0  0  0  0  0  0  0  0  0
  -24.1020  -10.5910   21.1370 C   0  0  0  0  0  0  0  0  0  0  0  0
  -24.4940   -9.6280   22.0910 C   0  0  0  0  0  3  0  0  0  0  0  0
  -23.7570   -8.4340   22.2460 C   0  0  0  0  0  3  0  0  0  0  0  0
  -22.6130   -8.1970   21.4460 C   0  0  0  0  0  0  0  0  0  0  0  0
  -22.2430   -9.1500   20.4810 C   0  0  0  0  0  3  0  0  0  0  0  0
  -22.9820  -10.3330   20.3220 C   0  0  0  0  0  3  0  0  0  0  0  0
  -21.8500   -7.0560   21.5090 O   0  0  0  0  0  0  0  0  0  0  0  0
  -21.7790   -6.3020   22.6520 C   0  0  0  0  0  0  0  0  0  0  0  0
  -21.3110   -6.8380   23.8730 C   0  0  0  0  0  3  0  0  0  0  0  0
  -21.1880   -6.0100   25.0050 C   0  0  0  0  0  3  0  0  0  0  0  0
  -21.5250   -4.6450   24.9190 C   0  0  0  0  0  0  0  0  0  0  0  0
  -21.9870   -4.1090   23.7040 C   0  0  0  0  0  3  0  0  0  0  0  0
  -22.1110   -4.9350   22.5740 C   0  0  0  0  0  0  0  0  0  0  0  0
  -22.5380   -4.4080   21.4010 F   0  0  0  0  0  0  0  0  0  0  0  0
  -21.4000   -3.8460   26.0050 F   0  0  0  0  0  0  0  0  0  0  0  0
  -22.9610  -13.6810   21.0650 C   0  0  0  0  0  0  0  0  0  0  0  0
  -22.1740  -13.0160   21.9040 N   0  0  0  0  0  0  0  0  0  0  0  0
  -22.5600  -14.6790   20.4670 O   0  0  0  0  0  0  0  0  0  0  0  0
  -22.5150  -12.2100   22.4060 H   0  0  0  0  0  0  0  0  0  0  0  0
  -21.2200  -13.3180   22.0490 H   0  0  0  0  0  0  0  0  0  0  0  0
  -25.6530  -15.3300   20.4310 N   0  0  0  0  0  0  0  0  0  0  0  0
  -24.8950  -16.0000   20.5020 H   0  0  0  0  0  0  0  0  0  0  0  0
  -26.5530  -15.7610   20.2730 H   0  0  0  0  0  0  0  0  0  0  0  0
  -31.5400  -20.2110   22.1480 N   0  0  0  0  0  0  0  0  0  0  0  0
  -32.3010  -19.6550   22.5230 H   0  0  0  0  0  0  0  0  0  0  0  0
  -31.9130  -21.0510   21.7200 H   0  0  0  0  0  0  0  0  0  0  0  0
  -28.3430  -25.1490   19.8810 C   0  0  0  0  0  3  0  0  0  0  0  0
  -28.9440  -24.1260   20.5890 C   0  0  0  0  0  0  0  0  0  0  0  0
  -29.6680  -24.4400   21.6750 O   0  0  0  0  0  0  0  0  0  0  0  0
  -30.0900  -23.6520   21.9860 H   0  0  0  0  0  0  0  0  0  0  0  0
  -28.4000  -26.5430   20.1400 O   0  0  0  0  0  0  0  0  0  0  0  0
  -24.5720  -31.8680   23.1730 C   0  0  0  0  0  0  0  0  0  0  0  0
  -27.2570  -27.3650   20.0790 C   0  0  0  0  0  0  0  0  0  0  0  0
  -23.3910  -30.4610   21.5250 C   0  0  0  0  0  3  0  0  0  0  0  0
  -24.8640  -28.9480   20.0830 C   0  0  0  0  0  0  0  0  0  0  0  0
  -25.9250  -30.8230   21.3410 C   0  0  0  0  0  2  0  0  0  0  0  0
  -26.0250  -29.4480   20.6840 C   0  0  0  0  0  0  0  0  0  0  0  0
  -27.2220  -28.6680   20.6740 C   0  0  0  0  0  3  0  0  0  0  0  0
  -26.0640  -26.9220   19.4580 C   0  0  0  0  0  3  0  0  0  0  0  0
  -24.8850  -27.6910   19.4640 C   0  0  0  0  0  3  0  0  0  0  0  0
  -23.6130  -29.8040   20.1380 C   0  0  0  0  0  2  0  0  0  0  0  0
  -24.6480  -31.0680   22.0700 N   0  0  0  0  0  0  0  0  0  0  0  0
  -23.4850  -32.1220   23.7090 O   0  0  0  0  0  0  0  0  0  0  0  0
  -22.7470  -29.4240   22.4760 C   0  0  0  0  0  0  0  0  0  0  0  0
  -21.4210  -29.2390   22.3620 N   0  0  0  0  0  0  0  0  0  0  0  0
  -23.4370  -28.7910   23.2790 O   0  0  0  0  0  0  0  0  0  0  0  0
  -20.9210  -29.8050   21.6900 H   0  0  0  0  0  0  0  0  0  0  0  0
  -18.0540  -28.0280   22.8960 C   0  0  0  0  0  0  0  0  0  0  0  0
  -20.6160  -28.2860   23.1280 C   0  0  0  0  0  3  0  0  0  0  0  0
  -20.7100  -26.8660   22.5250 C   0  0  0  0  0  2  0  0  0  0  0  0
  -19.5920  -26.5600   21.5230 C   0  0  0  0  0  2  0  0  0  0  0  0
  -18.2210  -26.6900   22.1920 C   0  0  0  0  0  2  0  0  0  0  0  0
  -19.1780  -28.7830   23.3220 C   0  0  0  0  0  0  0  0  0  0  0  0
  -18.9690  -30.0340   23.9400 C   0  0  0  0  0  3  0  0  0  0  0  0
  -17.6670  -30.5300   24.1380 C   0  0  0  0  0  3  0  0  0  0  0  0
  -16.5570  -29.7710   23.7290 C   0  0  0  0  0  3  0  0  0  0  0  0
  -16.7510  -28.5220   23.1130 C   0  0  0  0  0  3  0  0  0  0  0  0
  -25.8450  -32.5170   23.7990 C   0  0  0  0  0  3  0  0  0  0  0  0
  -26.3830  -31.7380   25.0630 C   0  0  1  0  0  0  0  0  0  0  0  0
  -25.3020  -31.4660   26.1330 C   0  0  0  0  0  1  0  0  0  0  0  0
  -26.9870  -30.3760   24.6480 C   0  0  0  0  0  1  0  0  0  0  0  0
  -27.5220  -32.5440   25.7330 C   0  0  0  0  0  1  0  0  0  0  0  0
  -25.5100  -33.9040   24.1540 N   0  0  0  0  0  0  0  0  0  0  0  0
  -25.8620  -34.9820   23.4390 C   0  0  0  0  0  0  0  0  0  0  0  0
  -26.5770  -34.9130   22.4350 O   0  0  0  0  0  0  0  0  0  0  0  0
  -24.8830  -34.0330   24.9350 H   0  0  0  0  0  0  0  0  0  0  0  0
  -24.1620  -36.7890   23.0300 C   0  0  0  0  0  1  0  0  0  0  0  0
  -25.3400  -36.3530   23.9140 C   0  0  0  0  0  3  0  0  0  0  0  0
  -27.4020  -37.2050   24.9370 C   0  0  0  0  0  1  0  0  0  0  0  0
  -26.3760  -37.4090   23.9180 N   0  0  0  0  0  0  0  0  0  0  0  0
  -25.9580  -38.3220   24.0670 H   0  0  0  0  0  0  0  0  0  0  0  0
  1 54  1  0
  1  2  1  0
  2  4  1  0
  3  1  2  0
  5  8  1  0
  6 10  1  0
  7  5  2  0
  7  9  1  0
  8  2  1  0
  8 10  2  0
  9  6  2  0
 10 50  1  0
 11  7  1  0
 12 19  2  0
 13 18  1  0
 14 15  1  0
 14 13  1  0
 16 15  1  0
 16 25  1  0
 16 17  1  0
 18 12  1  0
 18 17  1  0
 20 21  1  0
 21  9  1  0
 21 12  1  0
 22 23  2  0
 23 24  1  0
 23 42  1  0
 24 27  1  0
 25 22  1  0
 25 26  1  0
 26 24  2  0
 27 28  1  0
 28 29  2  0
 30 33  1  0
 30 29  1  0
 31 30  2  0
 32 31  1  0
 32 27  2  0
 33 34  1  0
 34 35  1  0
 35 36  2  0
 37 36  1  0
 37 41  1  0
 38 37  2  0
 39 34  2  0
 39 38  1  0
 40 39  1  0
 42 43  1  0
 43 46  1  0
 43 45  1  0
 44 42  2  0
 47 48  1  0
 47 22  1  0
 49 47  1  0
 50 51  1  0
 52 50  1  0
 53 57  1  0
 53 54  2  0
 54 55  1  0
 55 56  1  0
 58 69  2  0
 59 57  1  0
 59 64  1  0
 60 68  1  0
 60 70  1  0
 61 67  1  0
 61 63  1  0
 62 68  1  0
 63 62  1  0
 64 63  2  0
 65 66  1  0
 65 59  2  0
 66 61  2  0
 67 60  1  0
 68 58  1  0
 70 72  2  0
 71 70  1  0
 73 71  1  0
 74 83  2  0
 74 79  1  0
 75 71  1  0
 75 79  1  0
 76 75  1  0
 77 78  1  0
 77 76  1  0
 78 74  1  0
 79 80  2  0
 80 81  1  0
 82 81  2  0
 83 82  1  0
 84 58  1  0
 84 89  1  0
 84 85  1  0
 85 88  1  1
 85 86  1  0
 87 85  1  0
 89 92  1  0
 90 94  1  0
 90 89  1  0
 91 90  2  0
 94 93  1  0
 94 96  1  0
 96 97  1  0
 96 95  1  0
M  ISO  4  12 100  21 100  53 101  57 101
M  END
>  <TORSDO>  (34) 
F 20

>  <SCORE>  (34) 
-14.393

>  <name>  (34) 
33

>  <ligand_id>  (34) 
33

>  <original_smiles>  (34) 
[H]OC(C(=O)N([H])c1c([H])c(C([H])([H])[H])c(N(C(=O)N2C([H])([H])C([H])([H])C([H])([H])C([H])(n3nc(-c4c([H])c([H])c(Oc5c([H])c([H])c(F)c([H])c5F)c([H])c4[H])c(C(=O)N([H])[H])c3N([H])[H])C2([H])[H])C([H])([H])[H])c([H])c1N([H])[H])=C([H])Oc1c([H])c([H])c2c(c1[H])C([H])([H])N(C(=O)C([H])(N([H])C(=O)C([H])(N([H])C([H])([H])[H])C([H])([H])[H])C(C([H])([H])[H])(C([H])([H])[H])C([H])([H])[H])C([H])(C(=O)N([H])C1([H])c3c([H])c([H])c([H])c([H])c3C([H])([H])C([H])([H])C1([H])[H])C2([H])[H]

>  <smiles>  (34) 
[H]OC(C(=O)N([H])c1c([H])c(C([H])([H])[H])c(N(C(=O)N2C([H])([H])C([H])([H])C([H])([H])C([H])(n3nc(-c4c([H])c([H])c(Oc5c([H])c([H])c(F)c([H])c5F)c([H])c4[H])c(C(=O)N([H])[H])c3N([H])[H])C2([H])[H])C([H])([H])[H])c([H])c1N([H])[H])=C([H])Oc1c([H])c([H])c2c(c1[H])C([H])([H])N(C(=O)C([H])(N([H])C(=O)C([H])(N([H])C([H])([H])[H])C([H])([H])[H])C(C([H])([H])[H])(C([H])([H])[H])C([H])([H])[H])C([H])(C(=O)N([H])C1([H])c3c([H])c([H])c([H])c([H])c3C([H])([H])C([H])([H])C1([H])[H])C2([H])[H]

$$$$
34:0:0
     RDKit          3D

 99108  0  0  1  0  0  0  0  0999 V2000
  -28.7320  -19.8140   18.9520 C   0  0  0  0  0  3  0  0  0  0  0  0
  -29.6450  -20.4790   21.0990 C   0  0  0  0  0  3  0  0  0  0  0  0
  -30.0790  -18.2050   20.2510 C   0  0  0  0  0  0  0  0  0  0  0  0
  -28.9340  -20.8180   19.9320 C   0  0  0  0  0  0  0  0  0  0  0  0
  -29.3050  -18.5200   19.0880 C   0  0  0  0  0  0  0  0  0  0  0  0
  -30.2100  -19.1980   21.2530 C   0  0  0  0  0  0  0  0  0  0  0  0
  -30.9340  -18.9570   22.3770 F   0  0  0  0  0  0  0  0  0  0  0  0
  -30.9610  -14.5830   20.0170 C   0  0  0  0  0  0  0  0  0  0  0  0
  -30.4940  -12.4450   18.9250 C   0  0  0  0  0  2  0  0  0  0  0  0
  -29.5080  -12.6890   17.7730 C   0  0  0  0  0  2  0  0  0  0  0  0
  -28.0630  -12.5390   18.2880 C   0  0  0  0  0  2  0  0  0  0  0  0
  -27.7890  -13.4020   19.5490 C   0  0  0  0  0  3  0  0  0  0  0  0
  -28.9030  -13.2390   20.6100 C   0  0  0  0  0  2  0  0  0  0  0  0
  -30.1980  -13.4620   19.9460 N   0  0  0  0  0  0  0  0  0  0  0  0
  -32.1270  -14.5780   19.6230 O   0  0  0  0  0  0  0  0  0  0  0  0
  -30.9080  -16.9470   20.4100 C   0  0  0  0  0  0  0  0  0  0  0  0
  -30.3130  -15.7420   20.2600 N   0  0  0  0  0  0  0  0  0  0  0  0
  -32.1110  -17.0870   20.6820 O   0  0  0  0  0  0  0  0  0  0  0  0
  -29.3090  -15.7180   20.2150 H   0  0  0  0  0  0  0  0  0  0  0  0
  -25.4470  -14.0170   20.4050 C   0  0  0  0  0  0  0  0  0  0  0  0
  -24.3880  -13.2510   20.8150 C   0  0  0  0  0  0  0  0  0  0  0  0
  -24.8250  -11.8950   20.7230 C   0  0  0  0  0  0  0  0  0  0  0  0
  -26.4640  -13.1280   20.0970 N   0  0  0  0  0  0  0  0  0  0  0  0
  -26.0980  -11.8440   20.3510 N   0  0  0  0  0  0  0  0  0  0  0  0
  -24.0910  -10.6370   20.9190 C   0  0  0  0  0  0  0  0  0  0  0  0
  -24.5320   -9.6580   21.8390 C   0  0  0  0  0  3  0  0  0  0  0  0
  -23.8000   -8.4640   22.0190 C   0  0  0  0  0  3  0  0  0  0  0  0
  -22.6110   -8.2400   21.2830 C   0  0  0  0  0  0  0  0  0  0  0  0
  -22.1920   -9.2060   20.3520 C   0  0  0  0  0  3  0  0  0  0  0  0
  -22.9240  -10.3920   20.1690 C   0  0  0  0  0  3  0  0  0  0  0  0
  -21.8490   -7.0990   21.3760 O   0  0  0  0  0  0  0  0  0  0  0  0
  -21.7750   -6.3800   22.5400 C   0  0  0  0  0  0  0  0  0  0  0  0
  -21.3070   -6.9490   23.7480 C   0  0  0  0  0  3  0  0  0  0  0  0
  -21.1800   -6.1490   24.8990 C   0  0  0  0  0  3  0  0  0  0  0  0
  -21.5100   -4.7830   24.8510 C   0  0  0  0  0  0  0  0  0  0  0  0
  -21.9670   -4.2120   23.6520 C   0  0  0  0  0  3  0  0  0  0  0  0
  -22.1010   -5.0080   22.5000 C   0  0  0  0  0  0  0  0  0  0  0  0
  -22.5230   -4.4480   21.3410 F   0  0  0  0  0  0  0  0  0  0  0  0
  -21.3780   -4.0140   25.9600 F   0  0  0  0  0  0  0  0  0  0  0  0
  -23.0110  -13.7410   21.1620 C   0  0  0  0  0  0  0  0  0  0  0  0
  -22.3120  -13.0430   22.0480 N   0  0  0  0  0  0  0  0  0  0  0  0
  -22.5690  -14.7790   20.6780 O   0  0  0  0  0  0  0  0  0  0  0  0
  -22.6780  -12.1980   22.4620 H   0  0  0  0  0  0  0  0  0  0  0  0
  -21.3950  -13.3700   22.3210 H   0  0  0  0  0  0  0  0  0  0  0  0
  -25.6260  -15.3870   20.2540 N   0  0  0  0  0  0  0  0  0  0  0  0
  -24.8680  -16.0390   20.4230 H   0  0  0  0  0  0  0  0  0  0  0  0
  -26.4400  -15.8310   19.8490 H   0  0  0  0  0  0  0  0  0  0  0  0
  -27.2460  -22.5920   20.1510 C   0  0  0  0  0  0  0  0  0  0  0  0
  -29.1790  -23.1600   19.1900 C   0  0  0  0  0  0  0  0  0  0  0  0
  -27.0670  -24.0770   19.8640 C   0  0  0  0  0  2  0  0  0  0  0  0
  -28.2900  -24.4060   18.9750 C   0  0  0  0  0  3  0  0  0  0  0  0
  -28.4560  -22.1630   19.7530 N   0  0  0  0  0  0  0  0  0  0  0  0
  -26.3430  -21.9080   20.6710 O   0  0  0  0  0  0  0  0  0  0  0  0
  -30.3700  -23.1040   18.8540 O   0  0  0  0  0  0  0  0  0  0  0  0
  -28.9310  -25.8490   18.9910 C   0  0  0  0  0  2  0  0  0  0  0  0
  -28.6560  -26.7940   20.0560 O   0  0  0  0  0  0  0  0  0  0  0  0
  -24.6490  -31.8270   23.1920 C   0  0  0  0  0  0  0  0  0  0  0  0
  -27.4880  -27.5430   20.0080 C   0  0  0  0  0  0  0  0  0  0  0  0
  -23.5230  -30.4420   21.4870 C   0  0  0  0  0  3  0  0  0  0  0  0
  -25.0550  -29.0060   20.0320 C   0  0  0  0  0  0  0  0  0  0  0  0
  -26.0440  -30.8650   21.3620 C   0  0  0  0  0  2  0  0  0  0  0  0
  -26.1790  -29.5120   20.6950 C   0  0  0  0  0  0  0  0  0  0  0  0
  -27.3830  -28.7690   20.7190 C   0  0  0  0  0  3  0  0  0  0  0  0
  -26.3580  -27.1040   19.2840 C   0  0  0  0  0  3  0  0  0  0  0  0
  -25.1380  -27.7970   19.3320 C   0  0  0  0  0  3  0  0  0  0  0  0
  -23.7820  -29.8180   20.0900 C   0  0  0  0  0  2  0  0  0  0  0  0
  -24.7560  -31.0600   22.0710 N   0  0  0  0  0  0  0  0  0  0  0  0
  -23.5520  -32.0510   23.7200 O   0  0  0  0  0  0  0  0  0  0  0  0
  -22.8910  -29.3630   22.3950 C   0  0  0  0  0  0  0  0  0  0  0  0
  -21.5740  -29.1500   22.2430 N   0  0  0  0  0  0  0  0  0  0  0  0
  -23.5820  -28.7300   23.1980 O   0  0  0  0  0  0  0  0  0  0  0  0
  -21.0780  -29.7100   21.5630 H   0  0  0  0  0  0  0  0  0  0  0  0
  -18.2270  -27.8670   22.6620 C   0  0  0  0  0  0  0  0  0  0  0  0
  -20.7750  -28.1630   22.9680 C   0  0  0  0  0  3  0  0  0  0  0  0
  -20.9120  -26.7610   22.3330 C   0  0  0  0  0  2  0  0  0  0  0  0
  -19.8250  -26.4610   21.2970 C   0  0  0  0  0  2  0  0  0  0  0  0
  -18.4360  -26.5510   21.9350 C   0  0  0  0  0  2  0  0  0  0  0  0
  -19.3260  -28.6340   23.1350 C   0  0  0  0  0  0  0  0  0  0  0  0
  -19.0770  -29.8690   23.7750 C   0  0  0  0  0  3  0  0  0  0  0  0
  -17.7630  -30.3400   23.9480 C   0  0  0  0  0  3  0  0  0  0  0  0
  -16.6780  -29.5700   23.4950 C   0  0  0  0  0  3  0  0  0  0  0  0
  -16.9110  -28.3350   22.8600 C   0  0  0  0  0  3  0  0  0  0  0  0
  -25.9030  -32.4780   23.8500 C   0  0  0  0  0  3  0  0  0  0  0  0
  -26.4060  -31.7020   25.1270 C   0  0  1  0  0  0  0  0  0  0  0  0
  -25.2920  -31.4290   26.1610 C   0  0  0  0  0  1  0  0  0  0  0  0
  -27.0320  -30.3430   24.7310 C   0  0  0  0  0  1  0  0  0  0  0  0
  -27.5200  -32.5150   25.8300 C   0  0  0  0  0  1  0  0  0  0  0  0
  -25.5540  -33.8650   24.1880 N   0  0  0  0  0  0  0  0  0  0  0  0
  -25.8680  -34.9310   23.4380 C   0  0  0  0  0  0  0  0  0  0  0  0
  -26.5530  -34.8530   22.4140 O   0  0  0  0  0  0  0  0  0  0  0  0
  -24.9350  -34.0000   24.9730 H   0  0  0  0  0  0  0  0  0  0  0  0
  -24.0870  -36.6680   23.0810 C   0  0  0  0  0  1  0  0  0  0  0  0
  -25.3370  -36.2990   23.8950 C   0  0  0  0  0  3  0  0  0  0  0  0
  -27.4380  -37.2480   24.7370 C   0  0  0  0  0  1  0  0  0  0  0  0
  -26.3340  -37.3850   23.7900 N   0  0  0  0  0  0  0  0  0  0  0  0
  -25.8970  -38.2890   23.9440 H   0  0  0  0  0  0  0  0  0  0  0  0
  -29.1180  -17.6290   18.0140 N   0  0  0  0  0  0  0  0  0  0  0  0
  -28.7790  -18.0190   17.1400 H   0  0  0  0  0  0  0  0  0  0  0  0
  -29.8140  -16.9070   17.8420 H   0  0  0  0  0  0  0  0  0  0  0  0
  1  5  2  0
  1  4  1  0
  2  6  1  0
  3 16  1  0
  3  6  2  0
  4  2  2  0
  5  3  1  0
  6  7  1  0
  8 17  1  0
  9 14  1  0
 10 11  1  0
 10  9  1  0
 12 11  1  0
 12 23  1  0
 12 13  1  0
 14  8  1  0
 14 13  1  0
 15  8  2  0
 16 18  2  0
 17 16  1  0
 19 17  1  0
 20 21  2  0
 21 40  1  0
 22 21  1  0
 22 25  1  0
 23 24  1  0
 23 20  1  0
 24 22  2  0
 25 26  1  0
 26 27  2  0
 28 31  1  0
 28 27  1  0
 29 28  2  0
 30 29  1  0
 30 25  2  0
 31 32  1  0
 32 33  1  0
 33 34  2  0
 35 34  1  0
 35 39  1  0
 36 35  2  0
 37 32  2  0
 37 36  1  0
 38 37  1  0
 40 41  1  0
 41 44  1  0
 41 43  1  0
 42 40  2  0
 45 20  1  0
 45 46  1  0
 47 45  1  0
 48 53  2  0
 49 52  1  0
 50 48  1  0
 51 55  1  0
 51 49  1  0
 51 50  1  0
 52  4  1  0
 52 48  1  0
 54 49  2  0
 55 56  1  0
 57 68  2  0
 58 56  1  0
 58 63  1  0
 59 67  1  0
 59 69  1  0
 60 66  1  0
 60 62  1  0
 61 67  1  0
 62 63  2  0
 62 61  1  0
 64 65  1  0
 64 58  2  0
 65 60  2  0
 66 59  1  0
 67 57  1  0
 69 71  2  0
 70 69  1  0
 72 70  1  0
 73 82  2  0
 73 78  1  0
 74 70  1  0
 74 78  1  0
 75 74  1  0
 76 77  1  0
 76 75  1  0
 77 73  1  0
 78 79  2  0
 79 80  1  0
 81 80  2  0
 82 81  1  0
 83 57  1  0
 83 88  1  0
 83 84  1  0
 84 87  1  1
 84 85  1  0
 86 84  1  0
 88 91  1  0
 89 93  1  0
 89 88  1  0
 90 89  2  0
 93 92  1  0
 95 93  1  0
 95 96  1  0
 95 94  1  0
 97  5  1  0
 98 97  1  0
 99 97  1  0
M  ISO  4   8 100  17 100  55 101  56 101
M  END
>  <TORSDO>  (35) 
F 19

>  <SCORE>  (35) 
-14.198

>  <name>  (35) 
34

>  <ligand_id>  (35) 
34

>  <original_smiles>  (35) 
[H]c1c([H])c([H])c2c(c1[H])C([H])([H])C([H])([H])C([H])([H])C2([H])N([H])C(=O)C1([H])N(C(=O)C([H])(N([H])C(=O)C([H])(N([H])C([H])([H])[H])C([H])([H])[H])C(C([H])([H])[H])(C([H])([H])[H])C([H])([H])[H])C([H])([H])c2c([H])c(OC([H])([H])C3([H])C(=O)N(c4c([H])c(F)c(C(=O)N([H])C(=O)N5C([H])([H])C([H])([H])C([H])([H])C([H])(n6nc(-c7c([H])c([H])c(Oc8c([H])c([H])c(F)c([H])c8F)c([H])c7[H])c(C(=O)N([H])[H])c6N([H])[H])C5([H])[H])c(N([H])[H])c4[H])C(=O)C3([H])[H])c([H])c([H])c2C1([H])[H]

>  <smiles>  (35) 
[H]c1c([H])c([H])c2c(c1[H])C([H])([H])C([H])([H])C([H])([H])C2([H])N([H])C(=O)C1([H])N(C(=O)C([H])(N([H])C(=O)C([H])(N([H])C([H])([H])[H])C([H])([H])[H])C(C([H])([H])[H])(C([H])([H])[H])C([H])([H])[H])C([H])([H])c2c([H])c(OC([H])([H])C3([H])C(=O)N(c4c([H])c(F)c(C(=O)N([H])C(=O)N5C([H])([H])C([H])([H])C([H])([H])C([H])(n6nc(-c7c([H])c([H])c(Oc8c([H])c([H])c(F)c([H])c8F)c([H])c7[H])c(C(=O)N([H])[H])c6N([H])[H])C5([H])[H])c(N([H])[H])c4[H])C(=O)C3([H])[H])c([H])c([H])c2C1([H])[H]

$$$$
35:0:0
     RDKit          3D

 97106  0  0  1  0  0  0  0  0999 V2000
  -29.1420  -23.9500   20.2050 C   0  0  0  0  0  0  0  0  0  0  0  0
  -28.9770  -22.5740   20.1520 C   0  0  0  0  0  0  0  0  0  0  0  0
  -31.2360  -22.0700   20.8980 C   0  0  0  0  0  0  0  0  0  0  0  0
  -30.4940  -24.5270   20.5560 C   0  0  0  0  0  2  0  0  0  0  0  0
  -31.3630  -23.5350   21.3390 C   0  0  0  0  0  2  0  0  0  0  0  0
  -27.6330  -21.9670   19.7510 C   0  0  0  0  0  1  0  0  0  0  0  0
  -30.0430  -21.6120   20.4180 N   0  0  0  0  0  0  0  0  0  0  0  0
  -32.2360  -21.3570   21.0430 O   0  0  0  0  0  0  0  0  0  0  0  0
  -29.2260  -19.4000   21.3160 C   0  0  0  0  0  3  0  0  0  0  0  0
  -29.2390  -17.9750   21.3620 C   0  0  0  0  0  3  0  0  0  0  0  0
  -30.6110  -17.9100   19.3920 C   0  0  0  0  0  3  0  0  0  0  0  0
  -29.9150  -20.1370   20.3160 C   0  0  0  0  0  0  0  0  0  0  0  0
  -29.9500  -17.1820   20.4220 C   0  0  0  0  0  0  0  0  0  0  0  0
  -30.5940  -19.3450   19.3320 C   0  0  0  0  0  0  0  0  0  0  0  0
  -30.6330  -14.6920   20.0050 C   0  0  0  0  0  0  0  0  0  0  0  0
  -30.3740  -12.4660   18.9180 C   0  0  0  0  0  2  0  0  0  0  0  0
  -29.3530  -12.6090   17.7680 C   0  0  0  0  0  2  0  0  0  0  0  0
  -27.9110  -12.4340   18.2840 C   0  0  0  0  0  2  0  0  0  0  0  0
  -27.6290  -13.2690   19.5620 C   0  0  0  0  0  3  0  0  0  0  0  0
  -28.7570  -13.0940   20.6040 C   0  0  0  0  0  2  0  0  0  0  0  0
  -30.0270  -13.4620   19.9550 N   0  0  0  0  0  0  0  0  0  0  0  0
  -31.7460  -14.8780   19.5030 O   0  0  0  0  0  0  0  0  0  0  0  0
  -29.8840  -15.7160   20.5290 N   0  0  0  0  0  0  0  0  0  0  0  0
  -29.0800  -15.3740   21.0320 H   0  0  0  0  0  0  0  0  0  0  0  0
  -25.2910  -13.8470   20.4610 C   0  0  0  0  0  0  0  0  0  0  0  0
  -24.2480  -13.0630   20.8730 C   0  0  0  0  0  0  0  0  0  0  0  0
  -24.7000  -11.7120   20.7590 C   0  0  0  0  0  0  0  0  0  0  0  0
  -26.3140  -12.9730   20.1230 N   0  0  0  0  0  0  0  0  0  0  0  0
  -25.9660  -11.6810   20.3610 N   0  0  0  0  0  0  0  0  0  0  0  0
  -23.9810  -10.4460   20.9500 C   0  0  0  0  0  0  0  0  0  0  0  0
  -24.4240   -9.4770   21.8780 C   0  0  0  0  0  3  0  0  0  0  0  0
  -23.7040   -8.2760   22.0560 C   0  0  0  0  0  3  0  0  0  0  0  0
  -22.5290   -8.0340   21.3070 C   0  0  0  0  0  0  0  0  0  0  0  0
  -22.1050   -8.9910   20.3690 C   0  0  0  0  0  3  0  0  0  0  0  0
  -22.8240  -10.1840   20.1880 C   0  0  0  0  0  3  0  0  0  0  0  0
  -21.7810   -6.8840   21.3960 O   0  0  0  0  0  0  0  0  0  0  0  0
  -21.6750   -6.1810   22.5690 C   0  0  0  0  0  0  0  0  0  0  0  0
  -21.1710   -6.7720   23.7490 C   0  0  0  0  0  3  0  0  0  0  0  0
  -21.0140   -5.9950   24.9130 C   0  0  0  0  0  3  0  0  0  0  0  0
  -21.3510   -4.6280   24.9000 C   0  0  0  0  0  0  0  0  0  0  0  0
  -21.8480   -4.0370   23.7250 C   0  0  0  0  0  3  0  0  0  0  0  0
  -22.0060   -4.8110   22.5620 C   0  0  0  0  0  0  0  0  0  0  0  0
  -22.4650   -4.2310   21.4260 F   0  0  0  0  0  0  0  0  0  0  0  0
  -21.1940   -3.8790   26.0160 F   0  0  0  0  0  0  0  0  0  0  0  0
  -22.8740  -13.5340   21.2580 C   0  0  0  0  0  0  0  0  0  0  0  0
  -22.2060  -12.8130   22.1530 N   0  0  0  0  0  0  0  0  0  0  0  0
  -22.4030  -14.5740   20.8010 O   0  0  0  0  0  0  0  0  0  0  0  0
  -22.6010  -11.9720   22.5460 H   0  0  0  0  0  0  0  0  0  0  0  0
  -21.2870  -13.1090   22.4500 H   0  0  0  0  0  0  0  0  0  0  0  0
  -25.4510  -15.2230   20.3260 N   0  0  0  0  0  0  0  0  0  0  0  0
  -24.6940  -15.8730   20.5070 H   0  0  0  0  0  0  0  0  0  0  0  0
  -26.2750  -15.6720   19.9460 H   0  0  0  0  0  0  0  0  0  0  0  0
  -31.2750  -19.9590   18.2780 N   0  0  0  0  0  0  0  0  0  0  0  0
  -31.5510  -20.9280   18.3800 H   0  0  0  0  0  0  0  0  0  0  0  0
  -31.9700  -19.4140   17.7780 H   0  0  0  0  0  0  0  0  0  0  0  0
  -28.0420  -25.0220   19.8660 C   0  0  0  0  0  2  0  0  0  0  0  0
  -28.2820  -26.4620   20.1570 O   0  0  0  0  0  0  0  0  0  0  0  0
  -24.5970  -31.8620   23.2420 C   0  0  0  0  0  0  0  0  0  0  0  0
  -27.1730  -27.3300   20.1080 C   0  0  0  0  0  0  0  0  0  0  0  0
  -23.3800  -30.4910   21.5900 C   0  0  0  0  0  3  0  0  0  0  0  0
  -24.8180  -28.9600   20.1310 C   0  0  0  0  0  0  0  0  0  0  0  0
  -25.9230  -30.7990   21.4020 C   0  0  0  0  0  2  0  0  0  0  0  0
  -25.9920  -29.4310   20.7330 C   0  0  0  0  0  0  0  0  0  0  0  0
  -27.1730  -28.6280   20.7110 C   0  0  0  0  0  3  0  0  0  0  0  0
  -25.9730  -26.9220   19.4790 C   0  0  0  0  0  3  0  0  0  0  0  0
  -24.8100  -27.7130   19.4960 C   0  0  0  0  0  3  0  0  0  0  0  0
  -23.5840  -29.8380   20.1980 C   0  0  0  0  0  2  0  0  0  0  0  0
  -24.6530  -31.0680   22.1340 N   0  0  0  0  0  0  0  0  0  0  0  0
  -23.5170  -32.1370   23.7850 O   0  0  0  0  0  0  0  0  0  0  0  0
  -22.7190  -29.4620   22.5380 C   0  0  0  0  0  0  0  0  0  0  0  0
  -21.3930  -29.2870   22.4120 N   0  0  0  0  0  0  0  0  0  0  0  0
  -23.3990  -28.8260   23.3490 O   0  0  0  0  0  0  0  0  0  0  0  0
  -20.9050  -29.8500   21.7300 H   0  0  0  0  0  0  0  0  0  0  0  0
  -18.0150  -28.0880   22.9020 C   0  0  0  0  0  0  0  0  0  0  0  0
  -20.5730  -28.3430   23.1740 C   0  0  0  0  0  3  0  0  0  0  0  0
  -20.6750  -26.9160   22.5850 C   0  0  0  0  0  2  0  0  0  0  0  0
  -19.5720  -26.6040   21.5700 C   0  0  0  0  0  2  0  0  0  0  0  0
  -18.1900  -26.7450   22.2140 C   0  0  0  0  0  2  0  0  0  0  0  0
  -19.1340  -28.8460   23.3380 C   0  0  0  0  0  0  0  0  0  0  0  0
  -18.9150  -30.1030   23.9400 C   0  0  0  0  0  3  0  0  0  0  0  0
  -17.6110  -30.6050   24.1110 C   0  0  0  0  0  3  0  0  0  0  0  0
  -16.5060  -29.8430   23.6890 C   0  0  0  0  0  3  0  0  0  0  0  0
  -16.7090  -28.5880   23.0910 C   0  0  0  0  0  3  0  0  0  0  0  0
  -25.8860  -32.4820   23.8650 C   0  0  0  0  0  3  0  0  0  0  0  0
  -26.4020  -31.6960   25.1320 C   0  0  1  0  0  0  0  0  0  0  0  0
  -25.3110  -31.4520   26.1990 C   0  0  0  0  0  1  0  0  0  0  0  0
  -26.9790  -30.3200   24.7260 C   0  0  0  0  0  1  0  0  0  0  0  0
  -27.5570  -32.4790   25.7990 C   0  0  0  0  0  1  0  0  0  0  0  0
  -25.5840  -33.8780   24.2100 N   0  0  0  0  0  0  0  0  0  0  0  0
  -25.8960  -34.9350   23.4480 C   0  0  0  0  0  0  0  0  0  0  0  0
  -26.5380  -34.8380   22.3990 O   0  0  0  0  0  0  0  0  0  0  0  0
  -25.0120  -34.0280   25.0280 H   0  0  0  0  0  0  0  0  0  0  0  0
  -24.1490  -36.7220   23.1630 C   0  0  0  0  0  1  0  0  0  0  0  0
  -25.4200  -36.3220   23.9260 C   0  0  0  0  0  3  0  0  0  0  0  0
  -27.5790  -37.2160   24.6830 C   0  0  0  0  0  1  0  0  0  0  0  0
  -26.4450  -37.3780   23.7770 N   0  0  0  0  0  0  0  0  0  0  0  0
  -26.0400  -38.2970   23.9380 H   0  0  0  0  0  0  0  0  0  0  0  0
  1  4  1  0
  2  1  2  0
  2  7  1  0
  3  8  2  0
  3  5  1  0
  4  5  1  0
  6  2  1  0
  7  3  1  0
  9 10  1  0
 11 13  1  0
 12  7  1  0
 12  9  2  0
 13 23  1  0
 13 10  2  0
 14 11  2  0
 14 12  1  0
 15 23  1  0
 16 21  1  0
 17 18  1  0
 17 16  1  0
 19 18  1  0
 19 28  1  0
 19 20  1  0
 21 15  1  0
 21 20  1  0
 22 15  2  0
 23 24  1  0
 25 26  2  0
 26 45  1  0
 27 26  1  0
 27 30  1  0
 28 29  1  0
 28 25  1  0
 29 27  2  0
 30 31  1  0
 31 32  2  0
 33 36  1  0
 33 32  1  0
 34 33  2  0
 35 34  1  0
 35 30  2  0
 36 37  1  0
 37 38  1  0
 38 39  2  0
 40 39  1  0
 40 44  1  0
 41 40  2  0
 42 37  2  0
 42 41  1  0
 43 42  1  0
 45 46  1  0
 46 49  1  0
 46 48  1  0
 47 45  2  0
 50 25  1  0
 50 51  1  0
 52 50  1  0
 53 54  1  0
 53 14  1  0
 55 53  1  0
 56 57  1  0
 56  1  1  0
 58 69  2  0
 59 57  1  0
 59 64  1  0
 60 68  1  0
 60 70  1  0
 61 67  1  0
 61 63  1  0
 62 68  1  0
 63 62  1  0
 64 63  2  0
 65 66  1  0
 65 59  2  0
 66 61  2  0
 67 60  1  0
 68 58  1  0
 70 72  2  0
 71 70  1  0
 73 71  1  0
 74 83  2  0
 74 79  1  0
 75 71  1  0
 75 79  1  0
 76 75  1  0
 77 78  1  0
 77 76  1  0
 78 74  1  0
 79 80  2  0
 80 81  1  0
 82 81  2  0
 83 82  1  0
 84 58  1  0
 84 89  1  0
 84 85  1  0
 85 88  1  1
 85 86  1  0
 87 85  1  0
 89 92  1  0
 90 94  1  0
 90 89  1  0
 91 90  2  0
 94 93  1  0
 96 94  1  0
 96 97  1  0
 96 95  1  0
M  ISO  4  15 100  23 100  56 101  57 101
M  END
>  <TORSDO>  (36) 
F 19

>  <SCORE>  (36) 
-13.579

>  <name>  (36) 
35

>  <ligand_id>  (36) 
35

>  <original_smiles>  (36) 
[H]c1c([H])c([H])c2c(c1[H])C([H])([H])C([H])([H])C([H])([H])C2([H])N([H])C(=O)C1([H])N(C(=O)C([H])(N([H])C(=O)C([H])(N([H])C([H])([H])[H])C([H])([H])[H])C(C([H])([H])[H])(C([H])([H])[H])C([H])([H])[H])C([H])([H])c2c([H])c(OC([H])([H])C3=C(C([H])([H])[H])N(c4c([H])c([H])c(N([H])C(=O)N5C([H])([H])C([H])([H])C([H])([H])C([H])(n6nc(-c7c([H])c([H])c(Oc8c([H])c([H])c(F)c([H])c8F)c([H])c7[H])c(C(=O)N([H])[H])c6N([H])[H])C5([H])[H])c([H])c4N([H])[H])C(=O)C([H])([H])C3([H])[H])c([H])c([H])c2C1([H])[H]

>  <smiles>  (36) 
[H]c1c([H])c([H])c2c(c1[H])C([H])([H])C([H])([H])C([H])([H])C2([H])N([H])C(=O)C1([H])N(C(=O)C([H])(N([H])C(=O)C([H])(N([H])C([H])([H])[H])C([H])([H])[H])C(C([H])([H])[H])(C([H])([H])[H])C([H])([H])[H])C([H])([H])c2c([H])c(OC([H])([H])C3=C(C([H])([H])[H])N(c4c([H])c([H])c(N([H])C(=O)N5C([H])([H])C([H])([H])C([H])([H])C([H])(n6nc(-c7c([H])c([H])c(Oc8c([H])c([H])c(F)c([H])c8F)c([H])c7[H])c(C(=O)N([H])[H])c6N([H])[H])C5([H])[H])c([H])c4N([H])[H])C(=O)C([H])([H])C3([H])[H])c([H])c([H])c2C1([H])[H]

$$$$
36:0:0
     RDKit          3D

 94102  0  0  1  0  0  0  0  0999 V2000
  -28.8380  -22.5430   20.8650 C   0  0  0  0  0  0  0  0  0  0  0  0
  -29.4370  -21.3880   20.3400 N   0  0  0  0  0  0  0  0  0  0  0  0
  -28.2610  -22.4680   21.9500 O   0  0  0  0  0  0  0  0  0  0  0  0
  -29.6420  -21.4270   19.3520 H   0  0  0  0  0  0  0  0  0  0  0  0
  -30.8320  -19.0200   23.0070 C   0  0  0  0  0  3  0  0  0  0  0  0
  -30.3500  -20.1690   22.3380 C   0  0  0  0  0  3  0  0  0  0  0  0
  -30.8270  -17.7410   22.4100 C   0  0  0  0  0  3  0  0  0  0  0  0
  -29.8680  -18.7690   20.4240 C   0  0  0  0  0  3  0  0  0  0  0  0
  -29.8430  -20.1070   21.0190 C   0  0  0  0  0  0  0  0  0  0  0  0
  -30.3510  -17.5450   21.0970 C   0  0  0  0  0  0  0  0  0  0  0  0
  -31.0560  -14.9990   20.9540 C   0  0  0  0  0  0  0  0  0  0  0  0
  -30.9850  -12.5980   20.2180 C   0  0  0  0  0  2  0  0  0  0  0  0
  -30.1930  -12.4460   18.9010 C   0  0  0  0  0  2  0  0  0  0  0  0
  -28.6830  -12.3160   19.1740 C   0  0  0  0  0  2  0  0  0  0  0  0
  -28.1570  -13.3380   20.2180 C   0  0  0  0  0  3  0  0  0  0  0  0
  -29.0860  -13.4480   21.4450 C   0  0  0  0  0  2  0  0  0  0  0  0
  -30.4280  -13.7650   20.9420 N   0  0  0  0  0  0  0  0  0  0  0  0
  -32.2910  -15.0250   20.9730 O   0  0  0  0  0  0  0  0  0  0  0  0
  -30.3510  -16.1510   20.5210 N   0  0  0  0  0  0  0  0  0  0  0  0
  -25.7230  -13.9870   20.6790 C   0  0  0  0  0  0  0  0  0  0  0  0
  -24.6130  -13.2390   20.9570 C   0  0  0  0  0  0  0  0  0  0  0  0
  -25.0560  -11.8820   21.0270 C   0  0  0  0  0  0  0  0  0  0  0  0
  -26.7710  -13.0850   20.5890 N   0  0  0  0  0  0  0  0  0  0  0  0
  -26.3720  -11.8180   20.8660 N   0  0  0  0  0  0  0  0  0  0  0  0
  -24.2960  -10.6350   21.1750 C   0  0  0  0  0  0  0  0  0  0  0  0
  -24.6380   -9.6740   22.1520 C   0  0  0  0  0  3  0  0  0  0  0  0
  -23.8800   -8.4910   22.2870 C   0  0  0  0  0  3  0  0  0  0  0  0
  -22.7670   -8.2630   21.4460 C   0  0  0  0  0  0  0  0  0  0  0  0
  -22.4450   -9.2110   20.4580 C   0  0  0  0  0  3  0  0  0  0  0  0
  -23.2040  -10.3840   20.3210 C   0  0  0  0  0  3  0  0  0  0  0  0
  -21.9870   -7.1330   21.4900 O   0  0  0  0  0  0  0  0  0  0  0  0
  -21.8500   -6.3980   22.6400 C   0  0  0  0  0  0  0  0  0  0  0  0
  -21.3620   -6.9670   23.8360 C   0  0  0  0  0  3  0  0  0  0  0  0
  -21.1730   -6.1600   24.9760 C   0  0  0  0  0  3  0  0  0  0  0  0
  -21.4620   -4.7830   24.9190 C   0  0  0  0  0  0  0  0  0  0  0  0
  -21.9430   -4.2120   23.7270 C   0  0  0  0  0  3  0  0  0  0  0  0
  -22.1340   -5.0180   22.5910 C   0  0  0  0  0  0  0  0  0  0  0  0
  -22.5780   -4.4600   21.4390 F   0  0  0  0  0  0  0  0  0  0  0  0
  -21.2730   -4.0050   26.0090 F   0  0  0  0  0  0  0  0  0  0  0  0
  -23.2010  -13.7400   21.0540 C   0  0  0  0  0  0  0  0  0  0  0  0
  -22.3750  -13.0950   21.8710 N   0  0  0  0  0  0  0  0  0  0  0  0
  -22.8350  -14.7420   20.4390 O   0  0  0  0  0  0  0  0  0  0  0  0
  -22.6810  -12.2870   22.3930 H   0  0  0  0  0  0  0  0  0  0  0  0
  -21.4230  -13.4150   21.9780 H   0  0  0  0  0  0  0  0  0  0  0  0
  -25.9240  -15.3460   20.4640 N   0  0  0  0  0  0  0  0  0  0  0  0
  -25.1550  -16.0060   20.4330 H   0  0  0  0  0  0  0  0  0  0  0  0
  -26.8120  -15.7600   20.2130 H   0  0  0  0  0  0  0  0  0  0  0  0
  -30.6520  -15.9350   18.1000 C   0  0  0  0  0  2  0  0  0  0  0  0
  -29.8970  -16.1610   19.1920 C   0  0  0  0  0  3  0  0  0  0  0  0
  -28.2460  -25.0380   20.5090 C   0  0  0  0  0  3  0  0  0  0  0  0
  -28.8890  -23.8650   20.0960 C   0  0  0  0  0  0  0  0  0  0  0  0
  -29.6440  -23.9100   18.9880 O   0  0  0  0  0  0  0  0  0  0  0  0
  -30.1690  -23.1200   18.9720 H   0  0  0  0  0  0  0  0  0  0  0  0
  -28.3270  -26.3640   19.9620 O   0  0  0  0  0  0  0  0  0  0  0  0
  -24.6280  -31.8210   23.1190 C   0  0  0  0  0  0  0  0  0  0  0  0
  -27.2220  -27.2490   20.0070 C   0  0  0  0  0  0  0  0  0  0  0  0
  -23.4090  -30.4180   21.4960 C   0  0  0  0  0  3  0  0  0  0  0  0
  -24.8500  -28.8800   20.0370 C   0  0  0  0  0  0  0  0  0  0  0  0
  -25.9450  -30.7490   21.2690 C   0  0  0  0  0  2  0  0  0  0  0  0
  -26.0280  -29.3680   20.6160 C   0  0  0  0  0  0  0  0  0  0  0  0
  -27.2200  -28.5690   20.5810 C   0  0  0  0  0  3  0  0  0  0  0  0
  -26.0190  -26.8270   19.4050 C   0  0  0  0  0  3  0  0  0  0  0  0
  -24.8510  -27.6190   19.4170 C   0  0  0  0  0  3  0  0  0  0  0  0
  -23.6060  -29.7490   20.1100 C   0  0  0  0  0  2  0  0  0  0  0  0
  -24.6800  -31.0150   22.0170 N   0  0  0  0  0  0  0  0  0  0  0  0
  -23.5490  -32.0860   23.6720 O   0  0  0  0  0  0  0  0  0  0  0  0
  -22.7700  -29.3930   22.4650 C   0  0  0  0  0  0  0  0  0  0  0  0
  -21.4420  -29.2120   22.3680 N   0  0  0  0  0  0  0  0  0  0  0  0
  -23.4700  -28.7640   23.2610 O   0  0  0  0  0  0  0  0  0  0  0  0
  -20.9350  -29.7690   21.6940 H   0  0  0  0  0  0  0  0  0  0  0  0
  -18.0840  -27.9810   22.9310 C   0  0  0  0  0  0  0  0  0  0  0  0
  -20.6440  -28.2650   23.1530 C   0  0  0  0  0  3  0  0  0  0  0  0
  -20.7480  -26.8370   22.5700 C   0  0  0  0  0  2  0  0  0  0  0  0
  -19.6300  -26.5080   21.5750 C   0  0  0  0  0  2  0  0  0  0  0  0
  -18.2600  -26.6370   22.2470 C   0  0  0  0  0  2  0  0  0  0  0  0
  -19.2020  -28.7530   23.3420 C   0  0  0  0  0  0  0  0  0  0  0  0
  -18.9810  -30.0120   23.9440 C   0  0  0  0  0  3  0  0  0  0  0  0
  -17.6730  -30.4960   24.1400 C   0  0  0  0  0  3  0  0  0  0  0  0
  -16.5700  -29.7200   23.7430 C   0  0  0  0  0  3  0  0  0  0  0  0
  -16.7770  -28.4640   23.1450 C   0  0  0  0  0  3  0  0  0  0  0  0
  -25.9120  -32.4650   23.7220 C   0  0  0  0  0  3  0  0  0  0  0  0
  -26.4750  -31.6780   24.9700 C   0  0  1  0  0  0  0  0  0  0  0  0
  -25.4150  -31.4020   26.0610 C   0  0  0  0  0  1  0  0  0  0  0  0
  -27.0670  -30.3180   24.5360 C   0  0  0  0  0  1  0  0  0  0  0  0
  -27.6340  -32.4760   25.6130 C   0  0  0  0  0  1  0  0  0  0  0  0
  -25.5830  -33.8510   24.0930 N   0  0  0  0  0  0  0  0  0  0  0  0
  -25.8950  -34.9290   23.3640 C   0  0  0  0  0  0  0  0  0  0  0  0
  -26.5570  -34.8660   22.3250 O   0  0  0  0  0  0  0  0  0  0  0  0
  -24.9920  -33.9740   24.9020 H   0  0  0  0  0  0  0  0  0  0  0  0
  -24.1420  -36.7110   23.0740 C   0  0  0  0  0  1  0  0  0  0  0  0
  -25.3940  -36.2980   23.8650 C   0  0  0  0  0  3  0  0  0  0  0  0
  -27.5230  -37.1830   24.7090 C   0  0  0  0  0  1  0  0  0  0  0  0
  -26.4130  -37.3670   23.7780 N   0  0  0  0  0  0  0  0  0  0  0  0
  -25.9970  -38.2780   23.9590 H   0  0  0  0  0  0  0  0  0  0  0  0
  1  3  2  0
  2  1  1  0
  2  9  1  0
  4  2  1  0
  6  5  2  0
  7  5  1  0
  8  9  2  0
  8 10  1  0
  9  6  1  0
 10  7  2  0
 11 18  2  0
 12 17  1  0
 13 14  1  0
 13 12  1  0
 15 14  1  0
 15 23  1  0
 15 16  1  0
 17 11  1  0
 17 16  1  0
 19 11  1  0
 19 10  1  0
 20 21  2  0
 21 22  1  0
 21 40  1  0
 22 25  1  0
 23 20  1  0
 23 24  1  0
 24 22  2  0
 25 26  1  0
 26 27  2  0
 28 31  1  0
 28 27  1  0
 29 28  2  0
 30 29  1  0
 30 25  2  0
 31 32  1  0
 32 33  1  0
 33 34  2  0
 35 34  1  0
 35 39  1  0
 36 35  2  0
 37 32  2  0
 37 36  1  0
 38 37  1  0
 40 41  1  0
 41 44  1  0
 41 43  1  0
 42 40  2  0
 45 20  1  0
 46 45  1  0
 47 45  1  0
 48 49  2  0
 49 19  1  0
 51 50  2  0
 51  1  1  0
 52 51  1  0
 53 52  1  0
 54 56  1  0
 54 50  1  0
 55 66  2  0
 56 61  1  0
 57 65  1  0
 57 67  1  0
 58 64  1  0
 58 60  1  0
 59 65  1  0
 60 59  1  0
 61 60  2  0
 62 63  1  0
 62 56  2  0
 63 58  2  0
 64 57  1  0
 65 55  1  0
 67 69  2  0
 68 67  1  0
 70 68  1  0
 71 80  2  0
 71 76  1  0
 72 68  1  0
 72 76  1  0
 73 72  1  0
 74 75  1  0
 74 73  1  0
 75 71  1  0
 76 77  2  0
 77 78  1  0
 79 78  2  0
 80 79  1  0
 81 55  1  0
 81 86  1  0
 81 82  1  0
 82 85  1  1
 82 83  1  0
 84 82  1  0
 86 89  1  0
 87 91  1  0
 87 86  1  0
 88 87  2  0
 91 90  1  0
 93 91  1  0
 93 94  1  0
 93 92  1  0
M  ISO  4  11 100  19 100  50 101  54 101
M  END
>  <TORSDO>  (37) 
F 20

>  <SCORE>  (37) 
-12.654

>  <name>  (37) 
36

>  <ligand_id>  (37) 
36

>  <original_smiles>  (37) 
[H]OC(C(=O)N([H])c1c([H])c([H])c([H])c(N(C(=O)N2C([H])([H])C([H])([H])C([H])([H])C([H])(n3nc(-c4c([H])c([H])c(Oc5c([H])c([H])c(F)c([H])c5F)c([H])c4[H])c(C(=O)N([H])[H])c3N([H])[H])C2([H])[H])C([H])=C([H])[H])c1[H])=C([H])Oc1c([H])c([H])c2c(c1[H])C([H])([H])N(C(=O)C([H])(N([H])C(=O)C([H])(N([H])C([H])([H])[H])C([H])([H])[H])C(C([H])([H])[H])(C([H])([H])[H])C([H])([H])[H])C([H])(C(=O)N([H])C1([H])c3c([H])c([H])c([H])c([H])c3C([H])([H])C([H])([H])C1([H])[H])C2([H])[H]

>  <smiles>  (37) 
[H]OC(C(=O)N([H])c1c([H])c([H])c([H])c(N(C(=O)N2C([H])([H])C([H])([H])C([H])([H])C([H])(n3nc(-c4c([H])c([H])c(Oc5c([H])c([H])c(F)c([H])c5F)c([H])c4[H])c(C(=O)N([H])[H])c3N([H])[H])C2([H])[H])C([H])=C([H])[H])c1[H])=C([H])Oc1c([H])c([H])c2c(c1[H])C([H])([H])N(C(=O)C([H])(N([H])C(=O)C([H])(N([H])C([H])([H])[H])C([H])([H])[H])C(C([H])([H])[H])(C([H])([H])[H])C([H])([H])[H])C([H])(C(=O)N([H])C1([H])c3c([H])c([H])c([H])c([H])c3C([H])([H])C([H])([H])C1([H])[H])C2([H])[H]

$$$$
37:0:0
     RDKit          3D

 94102  0  0  1  0  0  0  0  0999 V2000
  -29.3670  -21.2230   20.7800 C   0  0  0  0  0  0  0  0  0  0  0  0
  -28.9160  -23.7390   20.6240 C   0  0  0  0  0  0  0  0  0  0  0  0
  -28.8260  -22.3940   20.2350 N   0  0  0  0  0  0  0  0  0  0  0  0
  -30.0050  -21.2450   21.8390 O   0  0  0  0  0  0  0  0  0  0  0  0
  -29.6470  -24.0990   21.5550 O   0  0  0  0  0  0  0  0  0  0  0  0
  -28.2910  -22.2000   19.3960 H   0  0  0  0  0  0  0  0  0  0  0  0
  -29.0110  -17.2110   18.8240 C   0  0  0  0  0  3  0  0  0  0  0  0
  -28.5480  -18.3870   18.1980 C   0  0  0  0  0  3  0  0  0  0  0  0
  -29.6370  -18.5550   20.7410 C   0  0  0  0  0  3  0  0  0  0  0  0
  -29.1980  -19.8070   20.1110 C   0  0  0  0  0  0  0  0  0  0  0  0
  -29.5610  -17.2330   20.1220 C   0  0  0  0  0  0  0  0  0  0  0  0
  -28.6260  -19.6570   18.8150 C   0  0  0  0  0  0  0  0  0  0  0  0
  -30.5620  -14.8220   20.3340 C   0  0  0  0  0  0  0  0  0  0  0  0
  -30.3860  -12.5350   19.3390 C   0  0  0  0  0  2  0  0  0  0  0  0
  -29.4220  -12.6010   18.1310 C   0  0  0  0  0  2  0  0  0  0  0  0
  -27.9620  -12.4220   18.5870 C   0  0  0  0  0  2  0  0  0  0  0  0
  -27.6100  -13.2940   19.8240 C   0  0  0  0  0  3  0  0  0  0  0  0
  -28.6900  -13.2000   20.9250 C   0  0  0  0  0  2  0  0  0  0  0  0
  -29.9730  -13.5750   20.3150 N   0  0  0  0  0  0  0  0  0  0  0  0
  -31.7060  -14.9610   19.8850 O   0  0  0  0  0  0  0  0  0  0  0  0
  -29.8280  -15.9180   20.7740 N   0  0  0  0  0  0  0  0  0  0  0  0
  -29.0900  -15.6360   21.4010 H   0  0  0  0  0  0  0  0  0  0  0  0
  -25.2330  -13.8770   20.5910 C   0  0  0  0  0  0  0  0  0  0  0  0
  -24.1730  -13.0990   20.9690 C   0  0  0  0  0  0  0  0  0  0  0  0
  -24.6350  -11.7470   20.9180 C   0  0  0  0  0  0  0  0  0  0  0  0
  -26.2730  -13.0000   20.3310 N   0  0  0  0  0  0  0  0  0  0  0  0
  -25.9220  -11.7140   20.5870 N   0  0  0  0  0  0  0  0  0  0  0  0
  -23.9130  -10.4830   21.1080 C   0  0  0  0  0  0  0  0  0  0  0  0
  -24.3630   -9.5040   22.0200 C   0  0  0  0  0  3  0  0  0  0  0  0
  -23.6390   -8.3050   22.2000 C   0  0  0  0  0  3  0  0  0  0  0  0
  -22.4510   -8.0780   21.4660 C   0  0  0  0  0  0  0  0  0  0  0  0
  -22.0190   -9.0460   20.5430 C   0  0  0  0  0  3  0  0  0  0  0  0
  -22.7440  -10.2360   20.3620 C   0  0  0  0  0  3  0  0  0  0  0  0
  -21.6970   -6.9320   21.5560 O   0  0  0  0  0  0  0  0  0  0  0  0
  -21.6740   -6.1740   22.6990 C   0  0  0  0  0  0  0  0  0  0  0  0
  -21.2550   -6.7050   23.9390 C   0  0  0  0  0  3  0  0  0  0  0  0
  -21.1770   -5.8720   25.0720 C   0  0  0  0  0  3  0  0  0  0  0  0
  -21.5110   -4.5080   24.9690 C   0  0  0  0  0  0  0  0  0  0  0  0
  -21.9240   -3.9760   23.7350 C   0  0  0  0  0  3  0  0  0  0  0  0
  -22.0020   -4.8060   22.6020 C   0  0  0  0  0  0  0  0  0  0  0  0
  -22.3790   -4.2820   21.4110 F   0  0  0  0  0  0  0  0  0  0  0  0
  -21.4300   -3.7060   26.0560 F   0  0  0  0  0  0  0  0  0  0  0  0
  -22.7810  -13.5740   21.2670 C   0  0  0  0  0  0  0  0  0  0  0  0
  -22.0650  -12.8670   22.1340 N   0  0  0  0  0  0  0  0  0  0  0  0
  -22.3360  -14.6080   20.7690 O   0  0  0  0  0  0  0  0  0  0  0  0
  -22.4400  -12.0300   22.5570 H   0  0  0  0  0  0  0  0  0  0  0  0
  -21.1300  -13.1620   22.3730 H   0  0  0  0  0  0  0  0  0  0  0  0
  -25.3910  -15.2490   20.4250 N   0  0  0  0  0  0  0  0  0  0  0  0
  -24.6200  -15.8940   20.5590 H   0  0  0  0  0  0  0  0  0  0  0  0
  -26.2280  -15.6960   20.0720 H   0  0  0  0  0  0  0  0  0  0  0  0
  -28.1180  -20.7230   18.1220 O   0  0  0  0  0  0  0  0  0  0  0  0
  -27.7220  -20.4610   17.2940 H   0  0  0  0  0  0  0  0  0  0  0  0
  -28.0600  -24.9010   19.9060 C   0  0  0  0  0  2  0  0  0  0  0  0
  -28.2570  -26.3560   20.3100 O   0  0  0  0  0  0  0  0  0  0  0  0
  -24.5800  -31.9200   23.2660 C   0  0  0  0  0  0  0  0  0  0  0  0
  -27.1790  -27.2830   20.2220 C   0  0  0  0  0  0  0  0  0  0  0  0
  -23.3850  -30.5280   21.6170 C   0  0  0  0  0  3  0  0  0  0  0  0
  -24.8380  -28.9690   20.1920 C   0  0  0  0  0  0  0  0  0  0  0  0
  -25.9340  -30.8090   21.4620 C   0  0  0  0  0  2  0  0  0  0  0  0
  -26.0080  -29.4280   20.8100 C   0  0  0  0  0  0  0  0  0  0  0  0
  -27.1790  -28.5970   20.8160 C   0  0  0  0  0  3  0  0  0  0  0  0
  -25.9900  -26.9160   19.5500 C   0  0  0  0  0  3  0  0  0  0  0  0
  -24.8370  -27.7250   19.5480 C   0  0  0  0  0  3  0  0  0  0  0  0
  -23.6050  -29.8540   20.2370 C   0  0  0  0  0  2  0  0  0  0  0  0
  -24.6520  -31.1060   22.1700 N   0  0  0  0  0  0  0  0  0  0  0  0
  -23.4930  -32.2030   23.7890 O   0  0  0  0  0  0  0  0  0  0  0  0
  -22.7040  -29.5150   22.5730 C   0  0  0  0  0  0  0  0  0  0  0  0
  -21.3770  -29.3450   22.4410 N   0  0  0  0  0  0  0  0  0  0  0  0
  -23.3740  -28.8860   23.3960 O   0  0  0  0  0  0  0  0  0  0  0  0
  -20.8950  -29.9070   21.7530 H   0  0  0  0  0  0  0  0  0  0  0  0
  -17.9920  -28.1550   22.9250 C   0  0  0  0  0  0  0  0  0  0  0  0
  -20.5510  -28.4080   23.2060 C   0  0  0  0  0  3  0  0  0  0  0  0
  -20.6520  -26.9740   22.6320 C   0  0  0  0  0  2  0  0  0  0  0  0
  -19.5530  -26.6570   21.6100 C   0  0  0  0  0  2  0  0  0  0  0  0
  -18.1690  -26.8060   22.2460 C   0  0  0  0  0  2  0  0  0  0  0  0
  -19.1100  -28.9120   23.3610 C   0  0  0  0  0  0  0  0  0  0  0  0
  -18.8920  -30.1730   23.9580 C   0  0  0  0  0  3  0  0  0  0  0  0
  -17.5860  -30.6790   24.1170 C   0  0  0  0  0  3  0  0  0  0  0  0
  -16.4830  -29.9200   23.6920 C   0  0  0  0  0  3  0  0  0  0  0  0
  -16.6860  -28.6590   23.1030 C   0  0  0  0  0  3  0  0  0  0  0  0
  -25.8580  -32.5520   23.8970 C   0  0  0  0  0  3  0  0  0  0  0  0
  -26.3580  -31.7850   25.1830 C   0  0  1  0  0  0  0  0  0  0  0  0
  -25.2530  -31.5530   26.2410 C   0  0  0  0  0  1  0  0  0  0  0  0
  -26.9400  -30.4030   24.8060 C   0  0  0  0  0  1  0  0  0  0  0  0
  -27.5060  -32.5790   25.8510 C   0  0  0  0  0  1  0  0  0  0  0  0
  -25.5510  -33.9530   24.2200 N   0  0  0  0  0  0  0  0  0  0  0  0
  -25.8800  -35.0030   23.4560 C   0  0  0  0  0  0  0  0  0  0  0  0
  -26.5430  -34.8920   22.4210 O   0  0  0  0  0  0  0  0  0  0  0  0
  -24.9630  -34.1120   25.0260 H   0  0  0  0  0  0  0  0  0  0  0  0
  -24.1540  -36.7990   23.1050 C   0  0  0  0  0  1  0  0  0  0  0  0
  -25.4010  -36.3960   23.9090 C   0  0  0  0  0  3  0  0  0  0  0  0
  -27.5410  -37.2830   24.7210 C   0  0  0  0  0  1  0  0  0  0  0  0
  -26.4350  -37.4460   23.7800 N   0  0  0  0  0  0  0  0  0  0  0  0
  -26.0330  -38.3690   23.9180 H   0  0  0  0  0  0  0  0  0  0  0  0
  1  4  2  0
  2  5  2  0
  3  2  1  0
  3  1  1  0
  6  3  1  0
  7 11  1  0
  8 12  1  0
  8  7  2  0
 10  9  1  0
 10  1  1  0
 11  9  2  0
 11 21  1  0
 12 10  2  0
 13 21  1  0
 14 19  1  0
 15 16  1  0
 15 14  1  0
 17 16  1  0
 17 26  1  0
 17 18  1  0
 19 13  1  0
 19 18  1  0
 20 13  2  0
 21 22  1  0
 23 24  2  0
 24 43  1  0
 25 24  1  0
 25 28  1  0
 26 27  1  0
 26 23  1  0
 27 25  2  0
 28 29  1  0
 29 30  2  0
 31 34  1  0
 31 30  1  0
 32 31  2  0
 33 32  1  0
 33 28  2  0
 34 35  1  0
 35 36  1  0
 36 37  2  0
 38 37  1  0
 38 42  1  0
 39 38  2  0
 40 35  2  0
 40 39  1  0
 41 40  1  0
 43 44  1  0
 44 47  1  0
 44 46  1  0
 45 43  2  0
 48 49  1  0
 48 23  1  0
 50 48  1  0
 51 12  1  0
 52 51  1  0
 53 54  1  0
 53  2  1  0
 55 66  2  0
 56 54  1  0
 56 61  1  0
 57 65  1  0
 57 67  1  0
 58 64  1  0
 58 60  1  0
 59 65  1  0
 60 61  2  0
 60 59  1  0
 62 56  2  0
 63 62  1  0
 63 58  2  0
 64 57  1  0
 65 55  1  0
 67 69  2  0
 68 67  1  0
 70 68  1  0
 71 80  2  0
 71 76  1  0
 72 68  1  0
 72 76  1  0
 73 72  1  0
 74 75  1  0
 74 73  1  0
 75 71  1  0
 76 77  2  0
 77 78  1  0
 79 78  2  0
 80 79  1  0
 81 55  1  0
 81 86  1  0
 81 82  1  0
 82 85  1  1
 82 83  1  0
 84 82  1  0
 86 89  1  0
 87 91  1  0
 87 86  1  0
 88 87  2  0
 91 90  1  0
 93 91  1  0
 93 94  1  0
 93 92  1  0
M  ISO  4  13 100  21 100  53 101  54 101
M  END
>  <TORSDO>  (38) 
F 19

>  <SCORE>  (38) 
-14.788

>  <name>  (38) 
37

>  <ligand_id>  (38) 
37

>  <original_smiles>  (38) 
[H]Oc1c([H])c([H])c(N([H])C(=O)N2C([H])([H])C([H])([H])C([H])([H])C([H])(n3nc(-c4c([H])c([H])c(Oc5c([H])c([H])c(F)c([H])c5F)c([H])c4[H])c(C(=O)N([H])[H])c3N([H])[H])C2([H])[H])c([H])c1C(=O)N([H])C(=O)C([H])([H])Oc1c([H])c([H])c2c(c1[H])C([H])([H])N(C(=O)C([H])(N([H])C(=O)C([H])(N([H])C([H])([H])[H])C([H])([H])[H])C(C([H])([H])[H])(C([H])([H])[H])C([H])([H])[H])C([H])(C(=O)N([H])C1([H])c3c([H])c([H])c([H])c([H])c3C([H])([H])C([H])([H])C1([H])[H])C2([H])[H]

>  <smiles>  (38) 
[H]Oc1c([H])c([H])c(N([H])C(=O)N2C([H])([H])C([H])([H])C([H])([H])C([H])(n3nc(-c4c([H])c([H])c(Oc5c([H])c([H])c(F)c([H])c5F)c([H])c4[H])c(C(=O)N([H])[H])c3N([H])[H])C2([H])[H])c([H])c1C(=O)N([H])C(=O)C([H])([H])Oc1c([H])c([H])c2c(c1[H])C([H])([H])N(C(=O)C([H])(N([H])C(=O)C([H])(N([H])C([H])([H])[H])C([H])([H])[H])C(C([H])([H])[H])(C([H])([H])[H])C([H])([H])[H])C([H])(C(=O)N([H])C1([H])c3c([H])c([H])c([H])c([H])c3C([H])([H])C([H])([H])C1([H])[H])C2([H])[H]

$$$$
38:0:0
     RDKit          3D

100109  0  0  1  0  0  0  0  0999 V2000
  -29.5480  -23.6920   18.9510 C   0  0  0  0  0  3  0  0  0  0  0  0
  -28.7820  -23.8100   20.1490 C   0  0  0  0  0  0  0  0  0  0  0  0
  -29.9720  -22.3890   18.8140 C   0  0  0  0  0  0  0  0  0  0  0  0
  -28.7860  -22.5110   20.6660 C   0  0  0  0  0  0  0  0  0  0  0  0
  -29.5120  -21.5930   19.8680 N   0  0  0  0  0  0  0  0  0  0  0  0
  -28.7000  -19.2170   20.3110 C   0  0  0  0  0  3  0  0  0  0  0  0
  -31.0550  -19.5770   20.0110 C   0  0  0  0  0  3  0  0  0  0  0  0
  -30.2590  -17.2560   20.5300 C   0  0  0  0  0  0  0  0  0  0  0  0
  -29.7500  -20.1470   20.0680 C   0  0  0  0  0  0  0  0  0  0  0  0
  -28.9320  -17.8190   20.5270 C   0  0  0  0  0  0  0  0  0  0  0  0
  -31.3060  -18.1870   20.2390 C   0  0  0  0  0  0  0  0  0  0  0  0
  -32.6010  -17.7790   20.2360 F   0  0  0  0  0  0  0  0  0  0  0  0
  -30.5300  -15.7960   20.9900 C   0  0  0  0  0  0  0  0  0  0  0  0
  -30.4010  -15.5060   22.2230 N   0  0  0  0  0  0  0  0  0  0  0  0
  -30.1270  -16.3190   22.7570 H   0  0  0  0  0  0  0  0  0  0  0  0
  -31.0010  -14.6750   20.0040 C   0  0  0  0  0  0  0  0  0  0  0  0
  -30.6260  -12.4750   18.9010 C   0  0  0  0  0  2  0  0  0  0  0  0
  -29.6070  -12.6450   17.7530 C   0  0  0  0  0  2  0  0  0  0  0  0
  -28.1710  -12.4810   18.2760 C   0  0  0  0  0  2  0  0  0  0  0  0
  -27.9080  -13.3200   19.5530 C   0  0  0  0  0  3  0  0  0  0  0  0
  -29.0340  -13.1260   20.5910 C   0  0  0  0  0  2  0  0  0  0  0  0
  -30.3160  -13.4780   19.9470 N   0  0  0  0  0  0  0  0  0  0  0  0
  -32.0230  -14.8490   19.3330 O   0  0  0  0  0  0  0  0  0  0  0  0
  -25.5990  -13.9340   20.4950 C   0  0  0  0  0  0  0  0  0  0  0  0
  -24.5410  -13.1690   20.9050 C   0  0  0  0  0  0  0  0  0  0  0  0
  -24.9600  -11.8110   20.7680 C   0  0  0  0  0  0  0  0  0  0  0  0
  -26.5950  -13.0440   20.1290 N   0  0  0  0  0  0  0  0  0  0  0  0
  -26.2180  -11.7570   20.3470 N   0  0  0  0  0  0  0  0  0  0  0  0
  -24.2130  -10.5610   20.9550 C   0  0  0  0  0  0  0  0  0  0  0  0
  -24.6290   -9.5870   21.8890 C   0  0  0  0  0  3  0  0  0  0  0  0
  -23.8860   -8.4010   22.0660 C   0  0  0  0  0  3  0  0  0  0  0  0
  -22.7140   -8.1790   21.3070 C   0  0  0  0  0  0  0  0  0  0  0  0
  -22.3130   -9.1440   20.3650 C   0  0  0  0  0  3  0  0  0  0  0  0
  -23.0570  -10.3210   20.1870 C   0  0  0  0  0  3  0  0  0  0  0  0
  -21.9410   -7.0460   21.3910 O   0  0  0  0  0  0  0  0  0  0  0  0
  -21.8120   -6.3450   22.5640 C   0  0  0  0  0  0  0  0  0  0  0  0
  -21.3130   -6.9480   23.7380 C   0  0  0  0  0  3  0  0  0  0  0  0
  -21.1310   -6.1770   24.9040 C   0  0  0  0  0  3  0  0  0  0  0  0
  -21.4360   -4.8030   24.8940 C   0  0  0  0  0  0  0  0  0  0  0  0
  -21.9290   -4.1990   23.7240 C   0  0  0  0  0  3  0  0  0  0  0  0
  -22.1130   -4.9670   22.5610 C   0  0  0  0  0  0  0  0  0  0  0  0
  -22.5670   -4.3760   21.4300 F   0  0  0  0  0  0  0  0  0  0  0  0
  -21.2540   -4.0590   26.0110 F   0  0  0  0  0  0  0  0  0  0  0  0
  -23.1900  -13.6700   21.3250 C   0  0  0  0  0  0  0  0  0  0  0  0
  -22.5160  -12.9490   22.2130 N   0  0  0  0  0  0  0  0  0  0  0  0
  -22.7390  -14.7300   20.8960 O   0  0  0  0  0  0  0  0  0  0  0  0
  -22.8930  -12.0890   22.5840 H   0  0  0  0  0  0  0  0  0  0  0  0
  -21.6090  -13.2650   22.5250 H   0  0  0  0  0  0  0  0  0  0  0  0
  -25.7850  -15.3090   20.3840 N   0  0  0  0  0  0  0  0  0  0  0  0
  -25.0530  -15.9630   20.6320 H   0  0  0  0  0  0  0  0  0  0  0  0
  -26.6730  -15.7780   20.2270 H   0  0  0  0  0  0  0  0  0  0  0  0
  -27.7990  -17.0150   20.7560 N   0  0  0  0  0  0  0  0  0  0  0  0
  -26.8840  -17.4310   20.9060 H   0  0  0  0  0  0  0  0  0  0  0  0
  -27.8920  -16.0980   21.1880 H   0  0  0  0  0  0  0  0  0  0  0  0
  -30.7270  -21.8550   17.8140 O   0  0  0  0  0  0  0  0  0  0  0  0
  -30.9600  -22.5550   17.2110 H   0  0  0  0  0  0  0  0  0  0  0  0
  -28.2060  -22.0530   21.8160 O   0  0  0  0  0  0  0  0  0  0  0  0
  -27.7260  -22.7620   22.2260 H   0  0  0  0  0  0  0  0  0  0  0  0
  -28.1000  -25.1060   20.7240 C   0  0  0  0  0  2  0  0  0  0  0  0
  -28.3500  -26.4410   20.1280 O   0  0  0  0  0  0  0  0  0  0  0  0
  -24.6610  -31.8880   23.1410 C   0  0  0  0  0  0  0  0  0  0  0  0
  -27.2470  -27.3070   20.1050 C   0  0  0  0  0  0  0  0  0  0  0  0
  -23.4440  -30.4730   21.5220 C   0  0  0  0  0  3  0  0  0  0  0  0
  -24.8820  -28.9080   20.0980 C   0  0  0  0  0  0  0  0  0  0  0  0
  -25.9790  -30.7880   21.3150 C   0  0  0  0  0  2  0  0  0  0  0  0
  -26.0550  -29.4050   20.6820 C   0  0  0  0  0  0  0  0  0  0  0  0
  -27.2430  -28.6150   20.6780 C   0  0  0  0  0  3  0  0  0  0  0  0
  -26.0540  -26.8600   19.4980 C   0  0  0  0  0  3  0  0  0  0  0  0
  -24.8820  -27.6410   19.4950 C   0  0  0  0  0  3  0  0  0  0  0  0
  -23.6450  -29.7840   20.1480 C   0  0  0  0  0  2  0  0  0  0  0  0
  -24.7130  -31.0690   22.0500 N   0  0  0  0  0  0  0  0  0  0  0  0
  -23.5800  -32.1700   23.6810 O   0  0  0  0  0  0  0  0  0  0  0  0
  -22.7880  -29.4670   22.4980 C   0  0  0  0  0  0  0  0  0  0  0  0
  -21.4590  -29.3010   22.3910 N   0  0  0  0  0  0  0  0  0  0  0  0
  -23.4760  -28.8390   23.3090 O   0  0  0  0  0  0  0  0  0  0  0  0
  -20.9660  -29.8570   21.7050 H   0  0  0  0  0  0  0  0  0  0  0  0
  -18.0800  -28.1440   22.9590 C   0  0  0  0  0  0  0  0  0  0  0  0
  -20.6440  -28.3770   23.1800 C   0  0  0  0  0  3  0  0  0  0  0  0
  -20.7200  -26.9440   22.6080 C   0  0  0  0  0  2  0  0  0  0  0  0
  -19.5960  -26.6290   21.6160 C   0  0  0  0  0  2  0  0  0  0  0  0
  -18.2280  -26.7920   22.2820 C   0  0  0  0  0  2  0  0  0  0  0  0
  -19.2140  -28.8970   23.3630 C   0  0  0  0  0  0  0  0  0  0  0  0
  -19.0220  -30.1650   23.9530 C   0  0  0  0  0  3  0  0  0  0  0  0
  -17.7260  -30.6830   24.1420 C   0  0  0  0  0  3  0  0  0  0  0  0
  -16.6060  -29.9310   23.7510 C   0  0  0  0  0  3  0  0  0  0  0  0
  -16.7830  -28.6610   23.1690 C   0  0  0  0  0  3  0  0  0  0  0  0
  -25.9490  -32.5220   23.7460 C   0  0  0  0  0  3  0  0  0  0  0  0
  -25.6300  -33.9110   24.1100 N   0  0  0  0  0  0  0  0  0  0  0  0
  -25.9290  -34.9830   23.3640 C   0  0  0  0  0  0  0  0  0  0  0  0
  -26.5730  -34.9100   22.3150 O   0  0  0  0  0  0  0  0  0  0  0  0
  -25.0500  -34.0450   24.9230 H   0  0  0  0  0  0  0  0  0  0  0  0
  -24.1680  -36.7600   23.0900 C   0  0  0  0  0  1  0  0  0  0  0  0
  -25.4320  -36.3540   23.8640 C   0  0  0  0  0  3  0  0  0  0  0  0
  -27.5740  -37.2470   24.6660 C   0  0  0  0  0  1  0  0  0  0  0  0
  -26.4500  -37.4230   23.7500 N   0  0  0  0  0  0  0  0  0  0  0  0
  -26.0370  -38.3360   23.9250 H   0  0  0  0  0  0  0  0  0  0  0  0
  -26.5070  -31.7330   24.9930 C   0  0  1  0  0  0  0  0  0  0  0  0
  -25.4450  -31.4470   26.0790 C   0  0  0  0  0  1  0  0  0  0  0  0
  -27.1060  -30.3750   24.5590 C   0  0  0  0  0  1  0  0  0  0  0  0
  -27.6570  -32.5350   25.6440 C   0  0  0  0  0  1  0  0  0  0  0  0
  1  2  1  0
  2  4  2  0
  2 59  1  0
  3  1  2  0
  3  5  1  0
  4 57  1  0
  5  9  1  0
  5  4  1  0
  6 10  1  0
  7  9  1  0
  7 11  2  0
  8 13  1  0
  9  6  2  0
 10  8  2  0
 10 52  1  0
 11  8  1  0
 12 11  1  0
 13 14  2  0
 14 15  1  0
 16 13  1  0
 17 22  1  0
 18 19  1  0
 18 17  1  0
 20 19  1  0
 20 27  1  0
 20 21  1  0
 22 16  1  0
 22 21  1  0
 23 16  2  0
 24 25  2  0
 25 44  1  0
 26 25  1  0
 26 29  1  0
 27 28  1  0
 27 24  1  0
 28 26  2  0
 29 30  1  0
 30 31  2  0
 32 35  1  0
 32 31  1  0
 33 32  2  0
 34 33  1  0
 34 29  2  0
 35 36  1  0
 36 37  1  0
 37 38  2  0
 39 38  1  0
 39 43  1  0
 40 39  2  0
 41 36  2  0
 41 40  1  0
 42 41  1  0
 44 45  1  0
 45 48  1  0
 45 47  1  0
 46 44  2  0
 49 24  1  0
 49 50  1  0
 51 49  1  0
 52 53  1  0
 52 54  1  0
 55  3  1  0
 56 55  1  0
 57 58  1  0
 60 59  1  0
 61 72  2  0
 62 60  1  0
 62 67  1  0
 63 71  1  0
 63 73  1  0
 64 70  1  0
 64 66  1  0
 65 71  1  0
 66 65  1  0
 67 66  2  0
 68 62  2  0
 69 68  1  0
 69 64  2  0
 70 63  1  0
 71 61  1  0
 73 75  2  0
 74 73  1  0
 76 74  1  0
 77 86  2  0
 77 82  1  0
 78 74  1  0
 78 82  1  0
 79 78  1  0
 80 81  1  0
 80 79  1  0
 81 77  1  0
 82 83  2  0
 83 84  1  0
 85 84  2  0
 86 85  1  0
 87 61  1  0
 87 88  1  0
 87 97  1  0
 88 91  1  0
 89 93  1  0
 89 88  1  0
 90 89  2  0
 93 92  1  0
 95 93  1  0
 95 96  1  0
 95 94  1  0
 97100  1  1
 97 98  1  0
 99 97  1  0
M  ISO  4  13 100  16 100  59 101  60 101
M  END
>  <TORSDO>  (39) 
F 22

>  <SCORE>  (39) 
-13.525

>  <name>  (39) 
38

>  <ligand_id>  (39) 
38

>  <original_smiles>  (39) 
[H]N=C(C(=O)N1C([H])([H])C([H])([H])C([H])([H])C([H])(n2nc(-c3c([H])c([H])c(Oc4c([H])c([H])c(F)c([H])c4F)c([H])c3[H])c(C(=O)N([H])[H])c2N([H])[H])C1([H])[H])c1c(F)c([H])c(-n2c(O[H])c([H])c(C([H])([H])Oc3c([H])c([H])c4c(c3[H])C([H])([H])N(C(=O)C([H])(N([H])C(=O)C([H])(N([H])C([H])([H])[H])C([H])([H])[H])C(C([H])([H])[H])(C([H])([H])[H])C([H])([H])[H])C([H])(C(=O)N([H])C3([H])c5c([H])c([H])c([H])c([H])c5C([H])([H])C([H])([H])C3([H])[H])C4([H])[H])c2O[H])c([H])c1N([H])[H]

>  <smiles>  (39) 
[H]N=C(C(=O)N1C([H])([H])C([H])([H])C([H])([H])C([H])(n2nc(-c3c([H])c([H])c(Oc4c([H])c([H])c(F)c([H])c4F)c([H])c3[H])c(C(=O)N([H])[H])c2N([H])[H])C1([H])[H])c1c(F)c([H])c(-n2c(O[H])c([H])c(C([H])([H])Oc3c([H])c([H])c4c(c3[H])C([H])([H])N(C(=O)C([H])(N([H])C(=O)C([H])(N([H])C([H])([H])[H])C([H])([H])[H])C(C([H])([H])[H])(C([H])([H])[H])C([H])([H])[H])C([H])(C(=O)N([H])C3([H])c5c([H])c([H])c([H])c([H])c5C([H])([H])C([H])([H])C3([H])[H])C4([H])[H])c2O[H])c([H])c1N([H])[H]

$$$$
39:0:0
     RDKit          3D

 93102  0  0  1  0  0  0  0  0999 V2000
  -28.6760  -23.9930   20.6180 C   0  0  0  0  0  0  0  0  0  0  0  0
  -28.0990  -25.2370   20.7980 C   0  0  0  0  0  3  0  0  0  0  0  0
  -29.8000  -23.5970   19.6590 C   0  0  0  0  0  2  0  0  0  0  0  0
  -28.3200  -22.7990   21.5280 C   0  0  0  0  0  2  0  0  0  0  0  0
  -29.6850  -22.1400   19.0670 C   0  0  0  0  0  2  0  0  0  0  0  0
  -28.2830  -21.3660   20.8810 C   0  0  0  0  0  2  0  0  0  0  0  0
  -29.4470  -21.0410   20.0420 N   0  0  0  0  0  0  0  0  0  0  0  0
  -29.3750  -18.1120   17.6510 C   0  0  0  0  0  3  0  0  0  0  0  0
  -29.2960  -19.4080   18.1930 C   0  0  0  0  0  3  0  0  0  0  0  0
  -29.7010  -17.0040   18.4500 C   0  0  0  0  0  3  0  0  0  0  0  0
  -29.5310  -19.6640   19.5650 C   0  0  0  0  0  0  0  0  0  0  0  0
  -29.9620  -17.1410   19.8330 C   0  0  0  0  0  0  0  0  0  0  0  0
  -29.8520  -18.4970   20.3780 C   0  0  0  0  0  0  0  0  0  0  0  0
  -30.0850  -18.7050   21.6970 F   0  0  0  0  0  0  0  0  0  0  0  0
  -30.9080  -14.7880   20.0490 C   0  0  0  0  0  0  0  0  0  0  0  0
  -30.5770  -12.5770   18.9350 C   0  0  0  0  0  2  0  0  0  0  0  0
  -29.5730  -12.7090   17.7710 C   0  0  0  0  0  2  0  0  0  0  0  0
  -28.1270  -12.5470   18.2770 C   0  0  0  0  0  2  0  0  0  0  0  0
  -27.8390  -13.3940   19.5450 C   0  0  0  0  0  3  0  0  0  0  0  0
  -28.9550  -13.2430   20.5980 C   0  0  0  0  0  2  0  0  0  0  0  0
  -30.2260  -13.5950   19.9510 N   0  0  0  0  0  0  0  0  0  0  0  0
  -32.0270  -14.9030   19.5400 O   0  0  0  0  0  0  0  0  0  0  0  0
  -30.3580  -15.9870   22.0520 C   0  0  0  0  0  1  0  0  0  0  0  0
  -30.2790  -15.9000   20.5910 N   0  0  0  0  0  0  0  0  0  0  0  0
  -25.5010  -13.9820   20.4230 C   0  0  0  0  0  0  0  0  0  0  0  0
  -24.4510  -13.2050   20.8310 C   0  0  0  0  0  0  0  0  0  0  0  0
  -24.9010  -11.8520   20.7370 C   0  0  0  0  0  0  0  0  0  0  0  0
  -26.5220  -13.1030   20.1020 N   0  0  0  0  0  0  0  0  0  0  0  0
  -26.1720  -11.8150   20.3530 N   0  0  0  0  0  0  0  0  0  0  0  0
  -24.1770  -10.5900   20.9340 C   0  0  0  0  0  0  0  0  0  0  0  0
  -24.6080   -9.6290   21.8760 C   0  0  0  0  0  3  0  0  0  0  0  0
  -23.8830   -8.4320   22.0600 C   0  0  0  0  0  3  0  0  0  0  0  0
  -22.7130   -8.1870   21.3020 C   0  0  0  0  0  0  0  0  0  0  0  0
  -22.3020   -9.1360   20.3490 C   0  0  0  0  0  3  0  0  0  0  0  0
  -23.0270  -10.3240   20.1630 C   0  0  0  0  0  3  0  0  0  0  0  0
  -21.9590   -7.0410   21.3940 O   0  0  0  0  0  0  0  0  0  0  0  0
  -21.8380   -6.3530   22.5750 C   0  0  0  0  0  0  0  0  0  0  0  0
  -21.3270   -6.9600   23.7420 C   0  0  0  0  0  3  0  0  0  0  0  0
  -21.1550   -6.1990   24.9150 C   0  0  0  0  0  3  0  0  0  0  0  0
  -21.4830   -4.8290   24.9200 C   0  0  0  0  0  0  0  0  0  0  0  0
  -21.9870   -4.2210   23.7570 C   0  0  0  0  0  3  0  0  0  0  0  0
  -22.1610   -4.9810   22.5870 C   0  0  0  0  0  0  0  0  0  0  0  0
  -22.6270   -4.3860   21.4630 F   0  0  0  0  0  0  0  0  0  0  0  0
  -21.3100   -4.0940   26.0440 F   0  0  0  0  0  0  0  0  0  0  0  0
  -23.0760  -13.6830   21.1970 C   0  0  0  0  0  0  0  0  0  0  0  0
  -22.3970  -12.9720   22.0900 N   0  0  0  0  0  0  0  0  0  0  0  0
  -22.6140  -14.7220   20.7250 O   0  0  0  0  0  0  0  0  0  0  0  0
  -22.7840  -12.1320   22.4910 H   0  0  0  0  0  0  0  0  0  0  0  0
  -21.4760  -13.2730   22.3770 H   0  0  0  0  0  0  0  0  0  0  0  0
  -25.6670  -15.3560   20.2750 N   0  0  0  0  0  0  0  0  0  0  0  0
  -24.9200  -16.0160   20.4570 H   0  0  0  0  0  0  0  0  0  0  0  0
  -26.5100  -15.7970   19.9300 H   0  0  0  0  0  0  0  0  0  0  0  0
  -28.3510  -26.4980   20.2090 O   0  0  0  0  0  0  0  0  0  0  0  0
  -24.6050  -31.9180   23.2210 C   0  0  0  0  0  0  0  0  0  0  0  0
  -27.2680  -27.3890   20.1690 C   0  0  0  0  0  0  0  0  0  0  0  0
  -23.4180  -30.5060   21.5790 C   0  0  0  0  0  3  0  0  0  0  0  0
  -24.8890  -28.9740   20.1520 C   0  0  0  0  0  0  0  0  0  0  0  0
  -25.9550  -30.8540   21.3980 C   0  0  0  0  0  2  0  0  0  0  0  0
  -26.0530  -29.4770   20.7510 C   0  0  0  0  0  0  0  0  0  0  0  0
  -27.2490  -28.6950   20.7510 C   0  0  0  0  0  3  0  0  0  0  0  0
  -26.0860  -26.9420   19.5430 C   0  0  0  0  0  3  0  0  0  0  0  0
  -24.9080  -27.7120   19.5370 C   0  0  0  0  0  3  0  0  0  0  0  0
  -23.6420  -29.8340   20.2000 C   0  0  0  0  0  2  0  0  0  0  0  0
  -24.6780  -31.1110   22.1230 N   0  0  0  0  0  0  0  0  0  0  0  0
  -23.5180  -32.1840   23.7550 O   0  0  0  0  0  0  0  0  0  0  0  0
  -22.7660  -29.4830   22.5390 C   0  0  0  0  0  0  0  0  0  0  0  0
  -21.4400  -29.2990   22.4180 N   0  0  0  0  0  0  0  0  0  0  0  0
  -23.4510  -28.8570   23.3520 O   0  0  0  0  0  0  0  0  0  0  0  0
  -20.9460  -29.8560   21.7360 H   0  0  0  0  0  0  0  0  0  0  0  0
  -18.0700  -28.0860   22.9330 C   0  0  0  0  0  0  0  0  0  0  0  0
  -20.6290  -28.3550   23.1900 C   0  0  0  0  0  3  0  0  0  0  0  0
  -20.7340  -26.9260   22.6070 C   0  0  0  0  0  2  0  0  0  0  0  0
  -19.6270  -26.6040   21.5980 C   0  0  0  0  0  2  0  0  0  0  0  0
  -18.2480  -26.7410   22.2510 C   0  0  0  0  0  2  0  0  0  0  0  0
  -19.1890  -28.8510   23.3600 C   0  0  0  0  0  0  0  0  0  0  0  0
  -18.9680  -30.1110   23.9580 C   0  0  0  0  0  3  0  0  0  0  0  0
  -17.6610  -30.6050   24.1340 C   0  0  0  0  0  3  0  0  0  0  0  0
  -16.5590  -29.8380   23.7230 C   0  0  0  0  0  3  0  0  0  0  0  0
  -16.7640  -28.5800   23.1290 C   0  0  0  0  0  3  0  0  0  0  0  0
  -25.8800  -32.5650   23.8450 C   0  0  0  0  0  3  0  0  0  0  0  0
  -25.5570  -33.9620   24.1690 N   0  0  0  0  0  0  0  0  0  0  0  0
  -25.8940  -35.0160   23.4140 C   0  0  0  0  0  0  0  0  0  0  0  0
  -26.5800  -34.9160   22.3920 O   0  0  0  0  0  0  0  0  0  0  0  0
  -24.9510  -34.1140   24.9610 H   0  0  0  0  0  0  0  0  0  0  0  0
  -24.1710  -36.8060   23.0230 C   0  0  0  0  0  1  0  0  0  0  0  0
  -25.3930  -36.4020   23.8640 C   0  0  0  0  0  3  0  0  0  0  0  0
  -27.5040  -37.2910   24.7500 C   0  0  0  0  0  1  0  0  0  0  0  0
  -26.4250  -37.4580   23.7780 N   0  0  0  0  0  0  0  0  0  0  0  0
  -26.0130  -38.3780   23.9180 H   0  0  0  0  0  0  0  0  0  0  0  0
  -26.3980  -31.8050   25.1270 C   0  0  1  0  0  0  0  0  0  0  0  0
  -25.3030  -31.5600   26.1910 C   0  0  0  0  0  1  0  0  0  0  0  0
  -26.9970  -30.4310   24.7440 C   0  0  0  0  0  1  0  0  0  0  0  0
  -27.5370  -32.6140   25.7900 C   0  0  0  0  0  1  0  0  0  0  0  0
  1  2  2  0
  1  4  1  0
  3  1  1  0
  5  3  1  0
  5  7  1  0
  6  4  1  0
  7  6  1  0
  8  9  2  0
  8 10  1  0
  9 11  1  0
 10 12  2  0
 11  7  1  0
 11 13  2  0
 12 13  1  0
 12 24  1  0
 13 14  1  0
 15 24  1  0
 16 21  1  0
 17 18  1  0
 17 16  1  0
 19 18  1  0
 19 28  1  0
 19 20  1  0
 21 15  1  0
 21 20  1  0
 22 15  2  0
 24 23  1  0
 25 26  2  0
 26 45  1  0
 27 26  1  0
 27 30  1  0
 28 29  1  0
 28 25  1  0
 29 27  2  0
 30 31  1  0
 31 32  2  0
 33 36  1  0
 33 32  1  0
 34 33  2  0
 35 34  1  0
 35 30  2  0
 36 37  1  0
 37 42  2  0
 37 38  1  0
 38 39  2  0
 39 40  1  0
 40 44  1  0
 41 40  2  0
 42 41  1  0
 43 42  1  0
 45 46  1  0
 46 49  1  0
 46 48  1  0
 47 45  2  0
 50 25  1  0
 50 51  1  0
 52 50  1  0
 53  2  1  0
 54 65  2  0
 55 53  1  0
 55 60  1  0
 56 64  1  0
 56 66  1  0
 57 63  1  0
 57 59  1  0
 58 64  1  0
 59 60  2  0
 59 58  1  0
 61 55  2  0
 62 61  1  0
 62 57  2  0
 63 56  1  0
 64 54  1  0
 66 68  2  0
 67 66  1  0
 69 67  1  0
 70 79  2  0
 70 75  1  0
 71 67  1  0
 71 75  1  0
 72 71  1  0
 73 74  1  0
 73 72  1  0
 74 70  1  0
 75 76  2  0
 76 77  1  0
 78 77  2  0
 79 78  1  0
 80 54  1  0
 80 81  1  0
 80 90  1  0
 81 84  1  0
 82 86  1  0
 82 81  1  0
 83 82  2  0
 86 85  1  0
 88 86  1  0
 88 89  1  0
 88 87  1  0
 90 93  1  1
 90 91  1  0
 92 90  1  0
M  ISO  4   2 101  15 100  24 100  53 101
M  END
>  <TORSDO>  (40) 
F 17

>  <SCORE>  (40) 
-14.708

>  <name>  (40) 
39

>  <ligand_id>  (40) 
39

>  <original_smiles>  (40) 
[H]C(Oc1c([H])c([H])c2c(c1[H])C([H])([H])N(C(=O)C([H])(N([H])C(=O)C([H])(N([H])C([H])([H])[H])C([H])([H])[H])C(C([H])([H])[H])(C([H])([H])[H])C([H])([H])[H])C([H])(C(=O)N([H])C1([H])c3c([H])c([H])c([H])c([H])c3C([H])([H])C([H])([H])C1([H])[H])C2([H])[H])=C1C([H])([H])C([H])([H])N(c2c([H])c([H])c([H])c(N(C(=O)N3C([H])([H])C([H])([H])C([H])([H])C([H])(n4nc(-c5c([H])c([H])c(Oc6c([H])c([H])c(F)c([H])c6F)c([H])c5[H])c(C(=O)N([H])[H])c4N([H])[H])C3([H])[H])C([H])([H])[H])c2F)C([H])([H])C1([H])[H]

>  <smiles>  (40) 
[H]C(Oc1c([H])c([H])c2c(c1[H])C([H])([H])N(C(=O)C([H])(N([H])C(=O)C([H])(N([H])C([H])([H])[H])C([H])([H])[H])C(C([H])([H])[H])(C([H])([H])[H])C([H])([H])[H])C([H])(C(=O)N([H])C1([H])c3c([H])c([H])c([H])c([H])c3C([H])([H])C([H])([H])C1([H])[H])C2([H])[H])=C1C([H])([H])C([H])([H])N(c2c([H])c([H])c([H])c(N(C(=O)N3C([H])([H])C([H])([H])C([H])([H])C([H])(n4nc(-c5c([H])c([H])c(Oc6c([H])c([H])c(F)c([H])c6F)c([H])c5[H])c(C(=O)N([H])[H])c4N([H])[H])C3([H])[H])C([H])([H])[H])c2F)C([H])([H])C1([H])[H]

$$$$
40:0:0
     RDKit          3D

 98107  0  0  1  0  0  0  0  0999 V2000
  -28.6610  -24.7660   20.8190 C   0  0  0  0  0  0  0  0  0  0  0  0
  -29.2950  -23.5630   21.0260 C   0  0  0  0  0  0  0  0  0  0  0  0
  -27.2250  -22.2840   20.9790 C   0  0  0  0  0  0  0  0  0  0  0  0
  -27.1590  -24.7660   20.5900 C   0  0  0  0  0  2  0  0  0  0  0  0
  -26.4990  -23.5870   21.3010 C   0  0  0  0  0  2  0  0  0  0  0  0
  -30.7610  -23.4860   21.4550 C   0  0  0  0  0  1  0  0  0  0  0  0
  -28.5920  -22.2950   20.9920 N   0  0  0  0  0  0  0  0  0  0  0  0
  -26.5300  -21.2900   20.7330 O   0  0  0  0  0  0  0  0  0  0  0  0
  -30.4220  -19.3220   19.4990 C   0  0  0  0  0  3  0  0  0  0  0  0
  -29.7480  -20.5570   19.6140 C   0  0  0  0  0  3  0  0  0  0  0  0
  -29.5130  -20.1710   21.9930 C   0  0  0  0  0  3  0  0  0  0  0  0
  -30.6490  -18.4850   20.6160 C   0  0  0  0  0  0  0  0  0  0  0  0
  -29.2910  -21.0190   20.8680 C   0  0  0  0  0  0  0  0  0  0  0  0
  -30.1840  -18.9160   21.8850 C   0  0  0  0  0  0  0  0  0  0  0  0
  -31.5950  -14.9570   19.7540 C   0  0  0  0  0  0  0  0  0  0  0  0
  -31.1710  -12.7540   18.7090 C   0  0  0  0  0  2  0  0  0  0  0  0
  -30.0840  -12.8690   17.6220 C   0  0  0  0  0  2  0  0  0  0  0  0
  -28.6910  -12.6800   18.2470 C   0  0  0  0  0  2  0  0  0  0  0  0
  -28.4750  -13.5660   19.5030 C   0  0  0  0  0  3  0  0  0  0  0  0
  -29.6700  -13.4790   20.4790 C   0  0  0  0  0  2  0  0  0  0  0  0
  -30.8930  -13.7860   19.7270 N   0  0  0  0  0  0  0  0  0  0  0  0
  -32.6670  -15.0510   19.1500 O   0  0  0  0  0  0  0  0  0  0  0  0
  -31.5420  -17.2750   20.4290 C   0  0  0  0  0  0  0  0  0  0  0  0
  -30.9890  -16.0390   20.3060 N   0  0  0  0  0  0  0  0  0  0  0  0
  -32.7590  -17.5020   20.3670 O   0  0  0  0  0  0  0  0  0  0  0  0
  -30.0210  -15.9470   20.5620 H   0  0  0  0  0  0  0  0  0  0  0  0
  -26.2800  -14.1140   20.7190 C   0  0  0  0  0  0  0  0  0  0  0  0
  -25.2410  -13.3270   21.1350 C   0  0  0  0  0  0  0  0  0  0  0  0
  -25.6030  -11.9860   20.8000 C   0  0  0  0  0  0  0  0  0  0  0  0
  -27.2120  -13.2520   20.1640 N   0  0  0  0  0  0  0  0  0  0  0  0
  -26.8190  -11.9560   20.2690 N   0  0  0  0  0  0  0  0  0  0  0  0
  -24.8380  -10.7360   20.8990 C   0  0  0  0  0  0  0  0  0  0  0  0
  -25.2200   -9.7050   21.7850 C   0  0  0  0  0  3  0  0  0  0  0  0
  -24.4580   -8.5200   21.8750 C   0  0  0  0  0  3  0  0  0  0  0  0
  -23.2980   -8.3600   21.0800 C   0  0  0  0  0  0  0  0  0  0  0  0
  -22.9360   -9.3790   20.1820 C   0  0  0  0  0  3  0  0  0  0  0  0
  -23.6980  -10.5550   20.0900 C   0  0  0  0  0  3  0  0  0  0  0  0
  -22.5100   -7.2340   21.0840 O   0  0  0  0  0  0  0  0  0  0  0  0
  -22.1990   -6.5770   22.2450 C   0  0  0  0  0  0  0  0  0  0  0  0
  -21.6050   -7.2410   23.3400 C   0  0  0  0  0  3  0  0  0  0  0  0
  -21.2390   -6.5130   24.4910 C   0  0  0  0  0  3  0  0  0  0  0  0
  -21.4560   -5.1220   24.5430 C   0  0  0  0  0  0  0  0  0  0  0  0
  -22.0420   -4.4600   23.4510 C   0  0  0  0  0  3  0  0  0  0  0  0
  -22.4100   -5.1850   22.3040 C   0  0  0  0  0  0  0  0  0  0  0  0
  -22.9550   -4.5380   21.2470 F   0  0  0  0  0  0  0  0  0  0  0  0
  -21.0970   -4.4210   25.6440 F   0  0  0  0  0  0  0  0  0  0  0  0
  -23.9430  -13.7980   21.7240 C   0  0  0  0  0  0  0  0  0  0  0  0
  -23.3200  -12.9790   22.5630 N   0  0  0  0  0  0  0  0  0  0  0  0
  -23.4990  -14.9190   21.4790 O   0  0  0  0  0  0  0  0  0  0  0  0
  -23.6950  -12.0670   22.7780 H   0  0  0  0  0  0  0  0  0  0  0  0
  -22.4550  -13.2660   22.9980 H   0  0  0  0  0  0  0  0  0  0  0  0
  -26.5040  -15.4870   20.7450 N   0  0  0  0  0  0  0  0  0  0  0  0
  -25.8100  -16.1410   21.0870 H   0  0  0  0  0  0  0  0  0  0  0  0
  -27.3110  -15.9440   20.3400 H   0  0  0  0  0  0  0  0  0  0  0  0
  -30.8110  -18.7320   24.1970 C   0  0  0  0  0  1  0  0  0  0  0  0
  -30.4360  -18.1060   22.9750 O   0  0  0  0  0  0  0  0  0  0  0  0
  -29.2940  -26.1870   20.9270 C   0  0  0  0  0  2  0  0  0  0  0  0
  -29.0420  -27.1140   19.8390 O   0  0  0  0  0  0  0  0  0  0  0  0
  -25.2080  -31.7910   23.6900 C   0  0  0  0  0  0  0  0  0  0  0  0
  -27.9300  -27.9250   19.9560 C   0  0  0  0  0  0  0  0  0  0  0  0
  -24.0590  -30.7200   21.7820 C   0  0  0  0  0  3  0  0  0  0  0  0
  -25.5580  -29.4600   20.1470 C   0  0  0  0  0  0  0  0  0  0  0  0
  -26.5940  -31.0820   21.7360 C   0  0  0  0  0  2  0  0  0  0  0  0
  -26.6990  -29.8440   20.8650 C   0  0  0  0  0  0  0  0  0  0  0  0
  -27.8900  -29.0820   20.7750 C   0  0  0  0  0  3  0  0  0  0  0  0
  -26.7920  -27.5960   19.1950 C   0  0  0  0  0  3  0  0  0  0  0  0
  -25.6010  -28.3340   19.3080 C   0  0  0  0  0  3  0  0  0  0  0  0
  -24.3150  -30.3080   20.3090 C   0  0  0  0  0  2  0  0  0  0  0  0
  -25.3050  -31.2020   22.4640 N   0  0  0  0  0  0  0  0  0  0  0  0
  -24.1090  -31.9640   24.2350 O   0  0  0  0  0  0  0  0  0  0  0  0
  -23.3740  -29.5410   22.5150 C   0  0  0  0  0  0  0  0  0  0  0  0
  -22.0530  -29.3940   22.3160 N   0  0  0  0  0  0  0  0  0  0  0  0
  -24.0300  -28.7700   23.2220 O   0  0  0  0  0  0  0  0  0  0  0  0
  -21.5860  -30.0760   21.7340 H   0  0  0  0  0  0  0  0  0  0  0  0
  -18.6660  -28.1430   22.4770 C   0  0  0  0  0  0  0  0  0  0  0  0
  -21.2120  -28.3350   22.8750 C   0  0  0  0  0  3  0  0  0  0  0  0
  -21.3340  -27.0310   22.0530 C   0  0  0  0  0  2  0  0  0  0  0  0
  -20.2670  -26.9050   20.9620 C   0  0  0  0  0  2  0  0  0  0  0  0
  -18.8650  -26.9370   21.5750 C   0  0  0  0  0  2  0  0  0  0  0  0
  -19.7680  -28.8090   23.0750 C   0  0  0  0  0  0  0  0  0  0  0  0
  -19.5270  -29.9440   23.8780 C   0  0  0  0  0  3  0  0  0  0  0  0
  -18.2170  -30.4130   24.0880 C   0  0  0  0  0  3  0  0  0  0  0  0
  -17.1290  -29.7430   23.5040 C   0  0  0  0  0  3  0  0  0  0  0  0
  -17.3530  -28.6070   22.7040 C   0  0  0  0  0  3  0  0  0  0  0  0
  -26.4720  -32.2910   24.4550 C   0  0  0  0  0  3  0  0  0  0  0  0
  -26.9110  -31.3270   25.6240 C   0  0  1  0  0  0  0  0  0  0  0  0
  -25.7610  -30.9500   26.5870 C   0  0  0  0  0  1  0  0  0  0  0  0
  -27.4980  -30.0140   25.0570 C   0  0  0  0  0  1  0  0  0  0  0  0
  -28.0420  -31.9900   26.4480 C   0  0  0  0  0  1  0  0  0  0  0  0
  -26.1780  -33.6340   24.9720 N   0  0  0  0  0  0  0  0  0  0  0  0
  -26.5820  -34.7750   24.3980 C   0  0  0  0  0  0  0  0  0  0  0  0
  -27.3150  -34.8000   23.4050 O   0  0  0  0  0  0  0  0  0  0  0  0
  -25.5410  -33.6910   25.7520 H   0  0  0  0  0  0  0  0  0  0  0  0
  -24.9240  -36.6580   24.2010 C   0  0  0  0  0  1  0  0  0  0  0  0
  -26.0950  -36.0980   25.0230 C   0  0  0  0  0  3  0  0  0  0  0  0
  -28.1900  -36.7740   26.1100 C   0  0  0  0  0  1  0  0  0  0  0  0
  -27.1580  -37.1220   25.1360 N   0  0  0  0  0  0  0  0  0  0  0  0
  -26.7650  -38.0220   25.4010 H   0  0  0  0  0  0  0  0  0  0  0  0
  1 57  1  0
  1  2  2  0
  2  6  1  0
  3  7  1  0
  3  5  1  0
  4  1  1  0
  4  5  1  0
  7  2  1  0
  8  3  2  0
  9 10  2  0
  9 12  1  0
 10 13  1  0
 12 14  2  0
 13  7  1  0
 13 11  2  0
 14 11  1  0
 14 56  1  0
 15 24  1  0
 16 21  1  0
 17 18  1  0
 17 16  1  0
 19 18  1  0
 19 30  1  0
 19 20  1  0
 21 15  1  0
 21 20  1  0
 22 15  2  0
 23 12  1  0
 24 23  1  0
 24 26  1  0
 25 23  2  0
 27 52  1  0
 27 28  2  0
 28 47  1  0
 29 32  1  0
 29 28  1  0
 30 31  1  0
 30 27  1  0
 31 29  2  0
 32 33  1  0
 33 34  2  0
 35 38  1  0
 35 34  1  0
 36 35  2  0
 37 36  1  0
 37 32  2  0
 38 39  1  0
 39 44  2  0
 39 40  1  0
 40 41  2  0
 41 42  1  0
 42 46  1  0
 43 42  2  0
 44 43  1  0
 45 44  1  0
 47 48  1  0
 48 50  1  0
 48 51  1  0
 49 47  2  0
 52 53  1  0
 54 52  1  0
 56 55  1  0
 58 60  1  0
 58 57  1  0
 59 70  2  0
 60 65  1  0
 61 69  1  0
 61 71  1  0
 62 68  1  0
 62 64  1  0
 63 69  1  0
 64 63  1  0
 65 64  2  0
 66 67  1  0
 66 60  2  0
 67 62  2  0
 68 61  1  0
 69 59  1  0
 71 73  2  0
 72 71  1  0
 74 72  1  0
 75 84  2  0
 75 80  1  0
 76 72  1  0
 76 80  1  0
 77 76  1  0
 78 79  1  0
 78 77  1  0
 79 75  1  0
 80 81  2  0
 81 82  1  0
 83 82  2  0
 84 83  1  0
 85 59  1  0
 85 90  1  0
 85 86  1  0
 86 89  1  1
 86 87  1  0
 88 86  1  0
 90 93  1  0
 91 90  1  0
 91 95  1  0
 92 91  2  0
 95 94  1  0
 95 97  1  0
 97 98  1  0
 97 96  1  0
M  ISO  4  15 100  24 100  57 101  58 101
M  END
>  <TORSDO>  (41) 
F 19

>  <SCORE>  (41) 
-7.802

>  <name>  (41) 
40

>  <ligand_id>  (41) 
40

>  <original_smiles>  (41) 
[H]c1c([H])c([H])c2c(c1[H])C([H])([H])C([H])([H])C([H])([H])C2([H])N([H])C(=O)C1([H])N(C(=O)C([H])(N([H])C(=O)C([H])(N([H])C([H])([H])[H])C([H])([H])[H])C(C([H])([H])[H])(C([H])([H])[H])C([H])([H])[H])C([H])([H])c2c([H])c(OC([H])([H])C3=C(C([H])([H])[H])N(c4c([H])c([H])c(C(=O)N([H])C(=O)N5C([H])([H])C([H])([H])C([H])([H])C([H])(n6nc(-c7c([H])c([H])c(Oc8c([H])c([H])c(F)c([H])c8F)c([H])c7[H])c(C(=O)N([H])[H])c6N([H])[H])C5([H])[H])c(OC([H])([H])[H])c4[H])C(=O)C([H])([H])C3([H])[H])c([H])c([H])c2C1([H])[H]

>  <smiles>  (41) 
[H]c1c([H])c([H])c2c(c1[H])C([H])([H])C([H])([H])C([H])([H])C2([H])N([H])C(=O)C1([H])N(C(=O)C([H])(N([H])C(=O)C([H])(N([H])C([H])([H])[H])C([H])([H])[H])C(C([H])([H])[H])(C([H])([H])[H])C([H])([H])[H])C([H])([H])c2c([H])c(OC([H])([H])C3=C(C([H])([H])[H])N(c4c([H])c([H])c(C(=O)N([H])C(=O)N5C([H])([H])C([H])([H])C([H])([H])C([H])(n6nc(-c7c([H])c([H])c(Oc8c([H])c([H])c(F)c([H])c8F)c([H])c7[H])c(C(=O)N([H])[H])c6N([H])[H])C5([H])[H])c(OC([H])([H])[H])c4[H])C(=O)C([H])([H])C3([H])[H])c([H])c([H])c2C1([H])[H]

$$$$
41:0:0
     RDKit          3D

 97106  0  0  1  0  0  0  0  0999 V2000
  -26.5290  -24.5710   19.9210 C   0  0  0  0  0  0  0  0  0  0  0  0
  -28.3860  -21.3300   21.0000 C   0  0  0  0  0  3  0  0  0  0  0  0
  -26.4330  -24.4890   21.4090 C   0  0  0  0  0  2  0  0  0  0  0  0
  -27.3910  -23.4200   21.9450 C   0  0  0  0  0  2  0  0  0  0  0  0
  -28.8770  -23.7750   19.9330 C   0  0  0  0  0  2  0  0  0  0  0  0
  -27.9170  -24.9970   19.4060 C   0  0  0  0  0  3  0  0  0  0  0  0
  -28.2460  -22.7290   20.8890 N   0  0  0  0  0  0  0  0  0  0  0  0
  -27.6090  -20.7430   21.9240 N   0  0  0  0  0  0  0  0  0  0  0  0
  -25.5840  -24.2500   19.1900 O   0  0  0  0  0  0  0  0  0  0  0  0
  -27.5830  -19.7430   22.0040 H   0  0  0  0  0  0  0  0  0  0  0  0
  -27.0620  -21.2680   22.5890 H   0  0  0  0  0  0  0  0  0  0  0  0
  -30.4000  -19.8060   21.0700 C   0  0  0  0  0  3  0  0  0  0  0  0
  -30.8220  -18.4310   21.0490 C   0  0  0  0  0  3  0  0  0  0  0  0
  -29.0510  -17.9410   19.4870 C   0  0  0  0  0  3  0  0  0  0  0  0
  -29.2560  -20.2660   20.3630 C   0  0  0  0  0  0  0  0  0  0  0  0
  -30.1160  -17.4390   20.2860 C   0  0  0  0  0  0  0  0  0  0  0  0
  -28.6310  -19.2990   19.5210 C   0  0  0  0  0  0  0  0  0  0  0  0
  -27.4840  -19.6090   18.8760 F   0  0  0  0  0  0  0  0  0  0  0  0
  -30.9480  -14.9820   19.9650 C   0  0  0  0  0  0  0  0  0  0  0  0
  -30.7150  -12.7030   18.9450 C   0  0  0  0  0  2  0  0  0  0  0  0
  -29.7310  -12.8230   17.7620 C   0  0  0  0  0  2  0  0  0  0  0  0
  -28.2810  -12.6420   18.2520 C   0  0  0  0  0  2  0  0  0  0  0  0
  -27.9670  -13.5180   19.4970 C   0  0  0  0  0  3  0  0  0  0  0  0
  -29.0740  -13.3940   20.5670 C   0  0  0  0  0  2  0  0  0  0  0  0
  -30.3560  -13.7390   19.9360 N   0  0  0  0  0  0  0  0  0  0  0  0
  -32.0570  -15.1770   19.4510 O   0  0  0  0  0  0  0  0  0  0  0  0
  -30.2000  -15.9930   20.5210 N   0  0  0  0  0  0  0  0  0  0  0  0
  -29.3480  -15.6110   20.9080 H   0  0  0  0  0  0  0  0  0  0  0  0
  -25.6190  -14.1240   20.3650 C   0  0  0  0  0  0  0  0  0  0  0  0
  -24.5680  -13.3550   20.7690 C   0  0  0  0  0  0  0  0  0  0  0  0
  -25.0060  -11.9950   20.6760 C   0  0  0  0  0  0  0  0  0  0  0  0
  -26.6380  -13.2400   20.0450 N   0  0  0  0  0  0  0  0  0  0  0  0
  -26.2750  -11.9540   20.2900 N   0  0  0  0  0  0  0  0  0  0  0  0
  -24.2750  -10.7380   20.8690 C   0  0  0  0  0  0  0  0  0  0  0  0
  -24.6750   -9.7950   21.8420 C   0  0  0  0  0  3  0  0  0  0  0  0
  -23.9410   -8.6060   22.0300 C   0  0  0  0  0  3  0  0  0  0  0  0
  -22.7940   -8.3450   21.2410 C   0  0  0  0  0  0  0  0  0  0  0  0
  -22.4080   -9.2820   20.2670 C   0  0  0  0  0  3  0  0  0  0  0  0
  -23.1410  -10.4640   20.0770 C   0  0  0  0  0  3  0  0  0  0  0  0
  -22.0390   -7.2050   21.3270 O   0  0  0  0  0  0  0  0  0  0  0  0
  -21.8470   -6.5540   22.5210 C   0  0  0  0  0  0  0  0  0  0  0  0
  -21.2720   -7.2010   23.6350 C   0  0  0  0  0  3  0  0  0  0  0  0
  -21.0310   -6.4740   24.8210 C   0  0  0  0  0  3  0  0  0  0  0  0
  -21.3540   -5.1080   24.8870 C   0  0  0  0  0  0  0  0  0  0  0  0
  -21.9190   -4.4600   23.7750 C   0  0  0  0  0  3  0  0  0  0  0  0
  -22.1610   -5.1840   22.5910 C   0  0  0  0  0  0  0  0  0  0  0  0
  -22.6880   -4.5480   21.5180 F   0  0  0  0  0  0  0  0  0  0  0  0
  -21.1130   -4.4100   26.0240 F   0  0  0  0  0  0  0  0  0  0  0  0
  -23.1950  -13.8370   21.1450 C   0  0  0  0  0  0  0  0  0  0  0  0
  -22.5310  -13.1380   22.0520 N   0  0  0  0  0  0  0  0  0  0  0  0
  -22.7260  -14.8720   20.6700 O   0  0  0  0  0  0  0  0  0  0  0  0
  -22.9260  -12.3010   22.4540 H   0  0  0  0  0  0  0  0  0  0  0  0
  -21.6180  -13.4390   22.3640 H   0  0  0  0  0  0  0  0  0  0  0  0
  -25.7980  -15.5020   20.2210 N   0  0  0  0  0  0  0  0  0  0  0  0
  -25.0230  -16.1440   20.3520 H   0  0  0  0  0  0  0  0  0  0  0  0
  -26.6420  -15.9490   19.8940 H   0  0  0  0  0  0  0  0  0  0  0  0
  -28.2400  -26.4900   19.5650 O   0  0  0  0  0  0  0  0  0  0  0  0
  -24.6020  -31.7280   23.0340 C   0  0  0  0  0  0  0  0  0  0  0  0
  -27.2270  -27.4860   19.5150 C   0  0  0  0  0  0  0  0  0  0  0  0
  -23.3940  -30.4290   21.3220 C   0  0  0  0  0  3  0  0  0  0  0  0
  -24.8460  -29.0910   19.7000 C   0  0  0  0  0  0  0  0  0  0  0  0
  -25.9220  -30.8180   21.1180 C   0  0  0  0  0  2  0  0  0  0  0  0
  -26.0150  -29.5010   20.3560 C   0  0  0  0  0  0  0  0  0  0  0  0
  -27.2010  -28.6940   20.2870 C   0  0  0  0  0  3  0  0  0  0  0  0
  -26.1030  -27.2900   18.6850 C   0  0  0  0  0  3  0  0  0  0  0  0
  -24.9010  -27.9930   18.8380 C   0  0  0  0  0  3  0  0  0  0  0  0
  -23.5730  -29.9000   19.8790 C   0  0  0  0  0  2  0  0  0  0  0  0
  -24.6550  -31.0210   21.8710 N   0  0  0  0  0  0  0  0  0  0  0  0
  -23.5240  -31.9320   23.6110 O   0  0  0  0  0  0  0  0  0  0  0  0
  -22.8140  -29.2970   22.1990 C   0  0  0  0  0  0  0  0  0  0  0  0
  -21.4980  -29.0740   22.0930 N   0  0  0  0  0  0  0  0  0  0  0  0
  -23.5380  -28.6360   22.9440 O   0  0  0  0  0  0  0  0  0  0  0  0
  -20.9890  -29.6310   21.4230 H   0  0  0  0  0  0  0  0  0  0  0  0
  -18.1670  -27.7810   22.6300 C   0  0  0  0  0  0  0  0  0  0  0  0
  -20.7320  -28.0500   22.8120 C   0  0  0  0  0  3  0  0  0  0  0  0
  -20.8440  -26.6730   22.1030 C   0  0  0  0  0  2  0  0  0  0  0  0
  -19.6990  -26.4060   21.1180 C   0  0  0  0  0  2  0  0  0  0  0  0
  -18.3400  -26.5040   21.8190 C   0  0  0  0  0  2  0  0  0  0  0  0
  -19.2880  -28.5230   23.0760 C   0  0  0  0  0  0  0  0  0  0  0  0
  -19.0840  -29.7300   23.7790 C   0  0  0  0  0  3  0  0  0  0  0  0
  -17.7770  -30.1920   24.0230 C   0  0  0  0  0  3  0  0  0  0  0  0
  -16.6660  -29.4370   23.6120 C   0  0  0  0  0  3  0  0  0  0  0  0
  -16.8630  -28.2300   22.9190 C   0  0  0  0  0  3  0  0  0  0  0  0
  -25.8860  -32.3510   23.6680 C   0  0  0  0  0  3  0  0  0  0  0  0
  -25.5440  -33.7120   24.1150 N   0  0  0  0  0  0  0  0  0  0  0  0
  -25.8080  -34.8300   23.4290 C   0  0  0  0  0  0  0  0  0  0  0  0
  -26.4400  -34.8280   22.3700 O   0  0  0  0  0  0  0  0  0  0  0  0
  -24.9690  -33.7770   24.9410 H   0  0  0  0  0  0  0  0  0  0  0  0
  -24.0000  -36.5720   23.2770 C   0  0  0  0  0  1  0  0  0  0  0  0
  -25.2880  -36.1610   24.0070 C   0  0  0  0  0  3  0  0  0  0  0  0
  -27.4270  -37.0600   24.8150 C   0  0  0  0  0  1  0  0  0  0  0  0
  -26.2800  -37.2550   23.9320 N   0  0  0  0  0  0  0  0  0  0  0  0
  -25.8490  -38.1470   24.1530 H   0  0  0  0  0  0  0  0  0  0  0  0
  -26.4570  -31.5020   24.8680 C   0  0  1  0  0  0  0  0  0  0  0  0
  -25.4110  -31.1460   25.9500 C   0  0  0  0  0  1  0  0  0  0  0  0
  -27.0630  -30.1740   24.3590 C   0  0  0  0  0  1  0  0  0  0  0  0
  -27.6050  -32.2740   25.5530 C   0  0  0  0  0  1  0  0  0  0  0  0
  1  3  1  0
  2  8  1  0
  3  4  1  0
  5  7  1  0
  6 57  1  0
  6  1  1  0
  6  5  1  0
  7  2  1  0
  7  4  1  0
  8 10  1  0
  8 11  1  0
  9  1  2  0
 13 12  1  0
 14 17  2  0
 14 16  1  0
 15  2  1  0
 15 12  2  0
 16 27  1  0
 16 13  2  0
 17 15  1  0
 18 17  1  0
 19 27  1  0
 20 25  1  0
 21 22  1  0
 21 20  1  0
 23 22  1  0
 23 32  1  0
 23 24  1  0
 25 19  1  0
 25 24  1  0
 26 19  2  0
 27 28  1  0
 29 30  2  0
 30 49  1  0
 31 30  1  0
 31 34  1  0
 32 33  1  0
 32 29  1  0
 33 31  2  0
 34 35  1  0
 35 36  2  0
 37 40  1  0
 37 36  1  0
 38 37  2  0
 39 38  1  0
 39 34  2  0
 40 41  1  0
 41 46  2  0
 41 42  1  0
 42 43  2  0
 43 44  1  0
 44 48  1  0
 45 44  2  0
 46 45  1  0
 47 46  1  0
 49 50  1  0
 50 53  1  0
 50 52  1  0
 51 49  2  0
 54 55  1  0
 54 29  1  0
 56 54  1  0
 58 69  2  0
 59 57  1  0
 59 64  1  0
 60 68  1  0
 60 70  1  0
 61 67  1  0
 61 63  1  0
 62 68  1  0
 63 62  1  0
 64 63  2  0
 65 66  1  0
 65 59  2  0
 66 61  2  0
 67 60  1  0
 68 58  1  0
 70 72  2  0
 71 70  1  0
 73 71  1  0
 74 83  2  0
 74 79  1  0
 75 71  1  0
 75 79  1  0
 76 75  1  0
 77 78  1  0
 77 76  1  0
 78 74  1  0
 79 80  2  0
 80 81  1  0
 82 81  2  0
 83 82  1  0
 84 58  1  0
 84 85  1  0
 84 94  1  0
 85 88  1  0
 86 90  1  0
 86 85  1  0
 87 86  2  0
 90 89  1  0
 92 90  1  0
 92 93  1  0
 92 91  1  0
 94 97  1  1
 94 95  1  0
 96 94  1  0
M  ISO  4   6 101  19 100  27 100  57 101
M  END
>  <TORSDO>  (42) 
F 17

>  <SCORE>  (42) 
-13.414

>  <name>  (42) 
41

>  <ligand_id>  (42) 
41

>  <original_smiles>  (42) 
[H]c1c([H])c([H])c2c(c1[H])C([H])([H])C([H])([H])C([H])([H])C2([H])N([H])C(=O)C1([H])N(C(=O)C([H])(N([H])C(=O)C([H])(N([H])C([H])([H])[H])C([H])([H])[H])C(C([H])([H])[H])(C([H])([H])[H])C([H])([H])[H])C([H])([H])c2c([H])c(OC3([H])C(=O)C([H])([H])C([H])([H])N(C(c4c([H])c([H])c(N([H])C(=O)N5C([H])([H])C([H])([H])C([H])([H])C([H])(n6nc(-c7c([H])c([H])c(Oc8c([H])c([H])c(F)c([H])c8F)c([H])c7[H])c(C(=O)N([H])[H])c6N([H])[H])C5([H])[H])c([H])c4F)=[N+]([H])[H])C3([H])[H])c([H])c([H])c2C1([H])[H]

>  <smiles>  (42) 
[H]c1c([H])c([H])c2c(c1[H])C([H])([H])C([H])([H])C([H])([H])C2([H])N([H])C(=O)C1([H])N(C(=O)C([H])(N([H])C(=O)C([H])(N([H])C([H])([H])[H])C([H])([H])[H])C(C([H])([H])[H])(C([H])([H])[H])C([H])([H])[H])C([H])([H])c2c([H])c(OC3([H])C(=O)C([H])([H])C([H])([H])N(C(c4c([H])c([H])c(N([H])C(=O)N5C([H])([H])C([H])([H])C([H])([H])C([H])(n6nc(-c7c([H])c([H])c(Oc8c([H])c([H])c(F)c([H])c8F)c([H])c7[H])c(C(=O)N([H])[H])c6N([H])[H])C5([H])[H])c([H])c4F)=[N+]([H])[H])C3([H])[H])c([H])c([H])c2C1([H])[H]

$$$$
42:0:0
     RDKit          3D

 95103  0  0  1  0  0  0  0  0999 V2000
  -30.1480  -22.3050   21.0100 C   0  0  0  0  0  3  0  0  0  0  0  0
  -29.7200  -23.6430   20.7670 C   0  0  0  0  0  3  0  0  0  0  0  0
  -28.5810  -21.4850   19.3890 C   0  0  0  0  0  3  0  0  0  0  0  0
  -29.6440  -21.1930   20.2790 C   0  0  0  0  0  0  0  0  0  0  0  0
  -28.7440  -23.9480   19.7870 C   0  0  0  0  0  0  0  0  0  0  0  0
  -28.1430  -22.8220   19.1400 C   0  0  0  0  0  0  0  0  0  0  0  0
  -30.3820  -19.8480   20.2810 C   0  0  0  0  0  0  0  0  0  0  0  0
  -31.8300  -20.1000   19.8390 C   0  0  0  0  0  1  0  0  0  0  0  0
  -29.9050  -18.6410   20.5350 N   0  0  0  0  0  0  0  0  0  0  0  0
  -30.5710  -17.3950   20.5570 C   0  0  0  0  0  0  0  0  0  0  0  0
  -31.8460  -17.3470   20.3640 N   0  0  0  0  0  4  0  0  0  0  0  0
  -32.2960  -16.4310   20.2810 H   0  0  0  0  0  0  0  0  0  0  0  0
  -32.4080  -18.1660   20.1770 H   0  0  0  0  0  0  0  0  0  0  0  0
  -29.8790  -16.0080   20.8450 C   0  0  0  0  0  2  0  0  0  0  0  0
  -30.6210  -14.6530   20.4150 C   0  0  0  0  0  0  0  0  0  0  0  0
  -30.3550  -12.4290   19.3320 C   0  0  0  0  0  2  0  0  0  0  0  0
  -29.4190  -12.5860   18.1130 C   0  0  0  0  0  2  0  0  0  0  0  0
  -27.9460  -12.4320   18.5380 C   0  0  0  0  0  2  0  0  0  0  0  0
  -27.5900  -13.2870   19.7830 C   0  0  0  0  0  3  0  0  0  0  0  0
  -28.6490  -13.1420   20.8990 C   0  0  0  0  0  2  0  0  0  0  0  0
  -29.9630  -13.4520   20.3260 N   0  0  0  0  0  0  0  0  0  0  0  0
  -31.7970  -14.7150   20.0250 O   0  0  0  0  0  0  0  0  0  0  0  0
  -25.1980  -13.8830   20.5030 C   0  0  0  0  0  0  0  0  0  0  0  0
  -24.1340  -13.1080   20.8750 C   0  0  0  0  0  0  0  0  0  0  0  0
  -24.5990  -11.7580   20.8500 C   0  0  0  0  0  0  0  0  0  0  0  0
  -26.2440  -13.0040   20.2720 N   0  0  0  0  0  0  0  0  0  0  0  0
  -25.8900  -11.7210   20.5440 N   0  0  0  0  0  0  0  0  0  0  0  0
  -23.8750  -10.4940   21.0440 C   0  0  0  0  0  0  0  0  0  0  0  0
  -24.3120   -9.5280   21.9760 C   0  0  0  0  0  3  0  0  0  0  0  0
  -23.5880   -8.3290   22.1580 C   0  0  0  0  0  3  0  0  0  0  0  0
  -22.4130   -8.0900   21.4060 C   0  0  0  0  0  0  0  0  0  0  0  0
  -21.9950   -9.0450   20.4620 C   0  0  0  0  0  3  0  0  0  0  0  0
  -22.7200  -10.2350   20.2800 C   0  0  0  0  0  3  0  0  0  0  0  0
  -21.6600   -6.9440   21.4960 O   0  0  0  0  0  0  0  0  0  0  0  0
  -21.6210   -6.1980   22.6460 C   0  0  0  0  0  0  0  0  0  0  0  0
  -21.2080   -6.7480   23.8790 C   0  0  0  0  0  3  0  0  0  0  0  0
  -21.1170   -5.9280   25.0210 C   0  0  0  0  0  3  0  0  0  0  0  0
  -21.4280   -4.5590   24.9320 C   0  0  0  0  0  0  0  0  0  0  0  0
  -21.8330   -4.0070   23.7040 C   0  0  0  0  0  3  0  0  0  0  0  0
  -21.9270   -4.8240   22.5630 C   0  0  0  0  0  0  0  0  0  0  0  0
  -22.2980   -4.2830   21.3780 F   0  0  0  0  0  0  0  0  0  0  0  0
  -21.3320   -3.7680   26.0270 F   0  0  0  0  0  0  0  0  0  0  0  0
  -22.7340  -13.5830   21.1400 C   0  0  0  0  0  0  0  0  0  0  0  0
  -22.0040  -12.8870   22.0060 N   0  0  0  0  0  0  0  0  0  0  0  0
  -22.2970  -14.6060   20.6170 O   0  0  0  0  0  0  0  0  0  0  0  0
  -22.3720  -12.0600   22.4510 H   0  0  0  0  0  0  0  0  0  0  0  0
  -21.0660  -13.1880   22.2260 H   0  0  0  0  0  0  0  0  0  0  0  0
  -25.3590  -15.2530   20.3210 N   0  0  0  0  0  0  0  0  0  0  0  0
  -24.5830  -15.8990   20.4250 H   0  0  0  0  0  0  0  0  0  0  0  0
  -26.1940  -15.6960   19.9620 H   0  0  0  0  0  0  0  0  0  0  0  0
  -27.1480  -22.9930   18.1760 N   0  0  0  0  0  0  0  0  0  0  0  0
  -26.5900  -22.1890   17.9060 H   0  0  0  0  0  0  0  0  0  0  0  0
  -26.6170  -23.8570   18.1660 H   0  0  0  0  0  0  0  0  0  0  0  0
  -28.5460  -25.4250   19.2720 C   0  0  0  0  0  2  0  0  0  0  0  0
  -28.3620  -26.5500   20.1980 O   0  0  0  0  0  0  0  0  0  0  0  0
  -24.5970  -31.8800   23.2280 C   0  0  0  0  0  0  0  0  0  0  0  0
  -27.2150  -27.3540   20.1440 C   0  0  0  0  0  0  0  0  0  0  0  0
  -23.3900  -30.4830   21.5870 C   0  0  0  0  0  3  0  0  0  0  0  0
  -24.8380  -28.9400   20.1560 C   0  0  0  0  0  0  0  0  0  0  0  0
  -25.9250  -30.8120   21.3960 C   0  0  0  0  0  2  0  0  0  0  0  0
  -26.0050  -29.4360   20.7490 C   0  0  0  0  0  0  0  0  0  0  0  0
  -27.1920  -28.6510   20.7400 C   0  0  0  0  0  3  0  0  0  0  0  0
  -26.0130  -26.8920   19.5590 C   0  0  0  0  0  3  0  0  0  0  0  0
  -24.8420  -27.6700   19.5580 C   0  0  0  0  0  3  0  0  0  0  0  0
  -23.6000  -29.8100   20.2060 C   0  0  0  0  0  2  0  0  0  0  0  0
  -24.6570  -31.0760   22.1280 N   0  0  0  0  0  0  0  0  0  0  0  0
  -23.5140  -32.1550   23.7670 O   0  0  0  0  0  0  0  0  0  0  0  0
  -22.7320  -29.4630   22.5480 C   0  0  0  0  0  0  0  0  0  0  0  0
  -21.4070  -29.2840   22.4200 N   0  0  0  0  0  0  0  0  0  0  0  0
  -23.4120  -28.8380   23.3640 O   0  0  0  0  0  0  0  0  0  0  0  0
  -20.9170  -29.8400   21.7330 H   0  0  0  0  0  0  0  0  0  0  0  0
  -18.0330  -28.0810   22.9160 C   0  0  0  0  0  0  0  0  0  0  0  0
  -20.5890  -28.3450   23.1910 C   0  0  0  0  0  3  0  0  0  0  0  0
  -20.6960  -26.9140   22.6170 C   0  0  0  0  0  2  0  0  0  0  0  0
  -19.5970  -26.5880   21.6010 C   0  0  0  0  0  2  0  0  0  0  0  0
  -18.2120  -26.7310   22.2420 C   0  0  0  0  0  2  0  0  0  0  0  0
  -19.1490  -28.8460   23.3480 C   0  0  0  0  0  0  0  0  0  0  0  0
  -18.9260  -30.1080   23.9370 C   0  0  0  0  0  3  0  0  0  0  0  0
  -17.6200  -30.6080   24.0990 C   0  0  0  0  0  3  0  0  0  0  0  0
  -16.5180  -29.8400   23.6850 C   0  0  0  0  0  3  0  0  0  0  0  0
  -16.7250  -28.5790   23.0990 C   0  0  0  0  0  3  0  0  0  0  0  0
  -25.8810  -32.5110   23.8480 C   0  0  0  0  0  3  0  0  0  0  0  0
  -25.5740  -33.9090   24.1800 N   0  0  0  0  0  0  0  0  0  0  0  0
  -25.9060  -34.9630   23.4220 C   0  0  0  0  0  0  0  0  0  0  0  0
  -26.5760  -34.8590   22.3900 O   0  0  0  0  0  0  0  0  0  0  0  0
  -24.9800  -34.0640   24.9810 H   0  0  0  0  0  0  0  0  0  0  0  0
  -24.1820  -36.7590   23.0680 C   0  0  0  0  0  1  0  0  0  0  0  0
  -25.4210  -36.3520   23.8810 C   0  0  0  0  0  3  0  0  0  0  0  0
  -27.5550  -37.2300   24.7170 C   0  0  0  0  0  1  0  0  0  0  0  0
  -26.4560  -37.4030   23.7720 N   0  0  0  0  0  0  0  0  0  0  0  0
  -26.0510  -38.3240   23.9210 H   0  0  0  0  0  0  0  0  0  0  0  0
  -26.3990  -31.7400   25.1250 C   0  0  1  0  0  0  0  0  0  0  0  0
  -25.3070  -31.5040   26.1940 C   0  0  0  0  0  1  0  0  0  0  0  0
  -26.9790  -30.3610   24.7320 C   0  0  0  0  0  1  0  0  0  0  0  0
  -27.5520  -32.5320   25.7850 C   0  0  0  0  0  1  0  0  0  0  0  0
  2  1  1  0
  3  4  1  0
  4  7  1  0
  4  1  2  0
  5  2  2  0
  6  3  2  0
  6  5  1  0
  7  9  2  0
  8  7  1  0
  9 10  1  0
 10 14  1  0
 11 10  2  0
 12 11  1  0
 13 11  1  0
 15 14  1  0
 16 21  1  0
 17 18  1  0
 17 16  1  0
 19 18  1  0
 19 26  1  0
 19 20  1  0
 21 15  1  0
 21 20  1  0
 22 15  2  0
 23 24  2  0
 24 43  1  0
 25 24  1  0
 25 28  1  0
 26 23  1  0
 26 27  1  0
 27 25  2  0
 28 29  1  0
 29 30  2  0
 31 34  1  0
 31 30  1  0
 32 31  2  0
 33 32  1  0
 33 28  2  0
 34 35  1  0
 35 36  1  0
 36 37  2  0
 38 37  1  0
 38 42  1  0
 39 38  2  0
 40 35  2  0
 40 39  1  0
 41 40  1  0
 43 44  1  0
 44 47  1  0
 44 46  1  0
 45 43  2  0
 48 49  1  0
 48 23  1  0
 50 48  1  0
 51  6  1  0
 52 51  1  0
 53 51  1  0
 54  5  1  0
 54 55  1  0
 56 67  2  0
 57 55  1  0
 57 62  1  0
 58 66  1  0
 58 68  1  0
 59 65  1  0
 59 61  1  0
 60 66  1  0
 61 60  1  0
 62 61  2  0
 63 57  2  0
 64 63  1  0
 64 59  2  0
 65 58  1  0
 66 56  1  0
 68 70  2  0
 69 68  1  0
 71 69  1  0
 72 81  2  0
 72 77  1  0
 73 69  1  0
 73 77  1  0
 74 73  1  0
 75 76  1  0
 75 74  1  0
 76 72  1  0
 77 78  2  0
 78 79  1  0
 80 79  2  0
 81 80  1  0
 82 56  1  0
 82 83  1  0
 82 92  1  0
 83 86  1  0
 84 88  1  0
 84 83  1  0
 85 84  2  0
 88 87  1  0
 90 88  1  0
 90 91  1  0
 90 89  1  0
 92 95  1  1
 92 93  1  0
 94 92  1  0
M  ISO  4  14 100  15 100  54 101  55 101
M  END
>  <TORSDO>  (43) 
F 21

>  <SCORE>  (43) 
-13.810

>  <name>  (43) 
42

>  <ligand_id>  (43) 
42

>  <original_smiles>  (43) 
[H]c1c([H])c([H])c2c(c1[H])C([H])([H])C([H])([H])C([H])([H])C2([H])N([H])C(=O)C1([H])N(C(=O)C([H])(N([H])C(=O)C([H])(N([H])C([H])([H])[H])C([H])([H])[H])C(C([H])([H])[H])(C([H])([H])[H])C([H])([H])[H])C([H])([H])c2c([H])c(OC([H])([H])c3c([H])c([H])c(C(=NC(=[N+]([H])[H])C([H])([H])C(=O)N4C([H])([H])C([H])([H])C([H])([H])C([H])(n5nc(-c6c([H])c([H])c(Oc7c([H])c([H])c(F)c([H])c7F)c([H])c6[H])c(C(=O)N([H])[H])c5N([H])[H])C4([H])[H])C([H])([H])[H])c([H])c3N([H])[H])c([H])c([H])c2C1([H])[H]

>  <smiles>  (43) 
[H]c1c([H])c([H])c2c(c1[H])C([H])([H])C([H])([H])C([H])([H])C2([H])N([H])C(=O)C1([H])N(C(=O)C([H])(N([H])C(=O)C([H])(N([H])C([H])([H])[H])C([H])([H])[H])C(C([H])([H])[H])(C([H])([H])[H])C([H])([H])[H])C([H])([H])c2c([H])c(OC([H])([H])c3c([H])c([H])c(C(=NC(=[N+]([H])[H])C([H])([H])C(=O)N4C([H])([H])C([H])([H])C([H])([H])C([H])(n5nc(-c6c([H])c([H])c(Oc7c([H])c([H])c(F)c([H])c7F)c([H])c6[H])c(C(=O)N([H])[H])c5N([H])[H])C4([H])[H])C([H])([H])[H])c([H])c3N([H])[H])c([H])c([H])c2C1([H])[H]

$$$$
43:0:0
     RDKit          3D

 96105  0  0  1  0  0  0  0  0999 V2000
  -28.3100  -19.1540   19.4080 C   0  0  0  0  0  3  0  0  0  0  0  0
  -30.3540  -19.8240   20.4140 C   0  0  0  0  0  3  0  0  0  0  0  0
  -28.7100  -17.7850   19.4350 C   0  0  0  0  0  0  0  0  0  0  0  0
  -29.1070  -20.2510   19.8580 C   0  0  0  0  0  0  0  0  0  0  0  0
  -30.7500  -18.4310   20.5180 C   0  0  0  0  0  0  0  0  0  0  0  0
  -29.9200  -17.3510   20.0510 C   0  0  0  0  0  0  0  0  0  0  0  0
  -27.8310  -16.8400   18.6300 C   0  0  0  0  0  1  0  0  0  0  0  0
  -30.7890  -14.9550   20.7410 C   0  0  0  0  0  0  0  0  0  0  0  0
  -30.6180  -12.6280   19.8770 C   0  0  0  0  0  2  0  0  0  0  0  0
  -29.7490  -12.5280   18.6040 C   0  0  0  0  0  2  0  0  0  0  0  0
  -28.2550  -12.3980   18.9530 C   0  0  0  0  0  2  0  0  0  0  0  0
  -27.7860  -13.3430   20.0940 C   0  0  0  0  0  3  0  0  0  0  0  0
  -28.7920  -13.4260   21.2580 C   0  0  0  0  0  2  0  0  0  0  0  0
  -30.0990  -13.7630   20.6670 N   0  0  0  0  0  0  0  0  0  0  0  0
  -32.0000  -14.9150   20.9470 O   0  0  0  0  0  0  0  0  0  0  0  0
  -31.1600  -15.8990   18.5970 C   0  0  0  0  0  1  0  0  0  0  0  0
  -30.3810  -15.9510   19.8460 N   0  0  0  0  0  0  0  0  0  0  0  0
  -25.3540  -13.9210   20.6680 C   0  0  0  0  0  0  0  0  0  0  0  0
  -24.2680  -13.1440   20.9600 C   0  0  0  0  0  0  0  0  0  0  0  0
  -24.7500  -11.7970   20.9950 C   0  0  0  0  0  0  0  0  0  0  0  0
  -26.4210  -13.0510   20.5190 N   0  0  0  0  0  0  0  0  0  0  0  0
  -26.0600  -11.7710   20.7860 N   0  0  0  0  0  0  0  0  0  0  0  0
  -24.0270  -10.5290   21.1480 C   0  0  0  0  0  0  0  0  0  0  0  0
  -24.4060   -9.5770   22.1190 C   0  0  0  0  0  3  0  0  0  0  0  0
  -23.6800   -8.3760   22.2610 C   0  0  0  0  0  3  0  0  0  0  0  0
  -22.5640   -8.1170   21.4320 C   0  0  0  0  0  0  0  0  0  0  0  0
  -22.2060   -9.0570   20.4510 C   0  0  0  0  0  3  0  0  0  0  0  0
  -22.9330  -10.2500   20.3050 C   0  0  0  0  0  3  0  0  0  0  0  0
  -21.8190   -6.9630   21.4840 O   0  0  0  0  0  0  0  0  0  0  0  0
  -21.7090   -6.2310   22.6380 C   0  0  0  0  0  0  0  0  0  0  0  0
  -21.1760   -6.7850   23.8220 C   0  0  0  0  0  3  0  0  0  0  0  0
  -21.0120   -5.9780   24.9660 C   0  0  0  0  0  3  0  0  0  0  0  0
  -21.3740   -4.6180   24.9250 C   0  0  0  0  0  0  0  0  0  0  0  0
  -21.9020   -4.0630   23.7450 C   0  0  0  0  0  3  0  0  0  0  0  0
  -22.0650   -4.8680   22.6030 C   0  0  0  0  0  0  0  0  0  0  0  0
  -22.5550   -4.3240   21.4620 F   0  0  0  0  0  0  0  0  0  0  0  0
  -21.2090   -3.8400   26.0200 F   0  0  0  0  0  0  0  0  0  0  0  0
  -22.8500  -13.6110   21.1080 C   0  0  0  0  0  0  0  0  0  0  0  0
  -22.0610  -12.9250   21.9310 N   0  0  0  0  0  0  0  0  0  0  0  0
  -22.4430  -14.6180   20.5330 O   0  0  0  0  0  0  0  0  0  0  0  0
  -22.4070  -12.1170   22.4260 H   0  0  0  0  0  0  0  0  0  0  0  0
  -21.1050  -13.2210   22.0740 H   0  0  0  0  0  0  0  0  0  0  0  0
  -25.5210  -15.2920   20.4930 N   0  0  0  0  0  0  0  0  0  0  0  0
  -24.7520  -15.9510   20.5200 H   0  0  0  0  0  0  0  0  0  0  0  0
  -26.4110  -15.7290   20.2990 H   0  0  0  0  0  0  0  0  0  0  0  0
  -27.5070  -22.1150   19.0900 C   0  0  0  0  0  0  0  0  0  0  0  0
  -27.3430  -23.6340   19.0550 C   0  0  0  0  0  2  0  0  0  0  0  0
  -29.3970  -22.9590   20.1070 C   0  0  0  0  0  2  0  0  0  0  0  0
  -28.7530  -24.1360   19.2400 C   0  0  0  0  0  3  0  0  0  0  0  0
  -28.6670  -21.6910   19.6950 N   0  0  0  0  0  0  0  0  0  0  0  0
  -26.6160  -21.4300   18.5720 O   0  0  0  0  0  0  0  0  0  0  0  0
  -28.9040  -25.7400   19.3070 C   0  0  0  0  0  2  0  0  0  0  0  0
  -28.3440  -26.6610   20.2980 O   0  0  0  0  0  0  0  0  0  0  0  0
  -24.5330  -31.9450   23.2330 C   0  0  0  0  0  0  0  0  0  0  0  0
  -27.2040  -27.4670   20.1250 C   0  0  0  0  0  0  0  0  0  0  0  0
  -23.3260  -30.5480   21.5830 C   0  0  0  0  0  3  0  0  0  0  0  0
  -24.7950  -29.0230   20.1220 C   0  0  0  0  0  0  0  0  0  0  0  0
  -25.8560  -30.9030   21.3840 C   0  0  0  0  0  2  0  0  0  0  0  0
  -25.9480  -29.5280   20.7320 C   0  0  0  0  0  0  0  0  0  0  0  0
  -27.1410  -28.7530   20.7410 C   0  0  0  0  0  3  0  0  0  0  0  0
  -26.0320  -27.0040   19.4880 C   0  0  0  0  0  3  0  0  0  0  0  0
  -24.8380  -27.7630   19.4980 C   0  0  0  0  0  3  0  0  0  0  0  0
  -23.5370  -29.8740   20.1950 C   0  0  0  0  0  2  0  0  0  0  0  0
  -24.5890  -31.1500   22.1240 N   0  0  0  0  0  0  0  0  0  0  0  0
  -23.4530  -32.2120   23.7800 O   0  0  0  0  0  0  0  0  0  0  0  0
  -22.6740  -29.5250   22.5420 C   0  0  0  0  0  0  0  0  0  0  0  0
  -21.3470  -29.3430   22.4230 N   0  0  0  0  0  0  0  0  0  0  0  0
  -23.3620  -28.8970   23.3520 O   0  0  0  0  0  0  0  0  0  0  0  0
  -20.8500  -29.9040   21.7450 H   0  0  0  0  0  0  0  0  0  0  0  0
  -17.9790  -28.1340   22.9350 C   0  0  0  0  0  0  0  0  0  0  0  0
  -20.5380  -28.3970   23.1920 C   0  0  0  0  0  3  0  0  0  0  0  0
  -20.6400  -26.9700   22.6000 C   0  0  0  0  0  2  0  0  0  0  0  0
  -19.5320  -26.6570   21.5890 C   0  0  0  0  0  2  0  0  0  0  0  0
  -18.1530  -26.7930   22.2420 C   0  0  0  0  0  2  0  0  0  0  0  0
  -19.0980  -28.8940   23.3660 C   0  0  0  0  0  0  0  0  0  0  0  0
  -18.8820  -30.1490   23.9750 C   0  0  0  0  0  3  0  0  0  0  0  0
  -17.5770  -30.6460   24.1520 C   0  0  0  0  0  3  0  0  0  0  0  0
  -16.4720  -29.8820   23.7360 C   0  0  0  0  0  3  0  0  0  0  0  0
  -16.6720  -28.6260   23.1370 C   0  0  0  0  0  3  0  0  0  0  0  0
  -25.8180  -32.5780   23.8530 C   0  0  0  0  0  3  0  0  0  0  0  0
  -26.3280  -31.8140   25.1350 C   0  0  1  0  0  0  0  0  0  0  0  0
  -25.2310  -31.5910   26.2030 C   0  0  0  0  0  1  0  0  0  0  0  0
  -26.9050  -30.4320   24.7500 C   0  0  0  0  0  1  0  0  0  0  0  0
  -27.4830  -32.6050   25.7940 C   0  0  0  0  0  1  0  0  0  0  0  0
  -25.5160  -33.9800   24.1760 N   0  0  0  0  0  0  0  0  0  0  0  0
  -25.8700  -35.0270   23.4190 C   0  0  0  0  0  0  0  0  0  0  0  0
  -26.5560  -34.9130   22.3980 O   0  0  0  0  0  0  0  0  0  0  0  0
  -24.9070  -34.1410   24.9640 H   0  0  0  0  0  0  0  0  0  0  0  0
  -24.1810  -36.8460   23.0110 C   0  0  0  0  0  1  0  0  0  0  0  0
  -25.3880  -36.4210   23.8630 C   0  0  0  0  0  3  0  0  0  0  0  0
  -27.5030  -37.2770   24.7690 C   0  0  0  0  0  1  0  0  0  0  0  0
  -26.4380  -37.4610   23.7850 N   0  0  0  0  0  0  0  0  0  0  0  0
  -26.0410  -38.3860   23.9200 H   0  0  0  0  0  0  0  0  0  0  0  0
  -32.0240  -18.1500   21.0180 N   0  0  0  0  0  0  0  0  0  0  0  0
  -32.7150  -18.8980   21.0260 H   0  0  0  0  0  0  0  0  0  0  0  0
  -32.4260  -17.2290   20.8400 H   0  0  0  0  0  0  0  0  0  0  0  0
  1  3  2  0
  1  4  1  0
  2  5  1  0
  3  6  1  0
  4  2  2  0
  5 94  1  0
  6  5  2  0
  7  3  1  0
  8 15  2  0
  9 14  1  0
 10 11  1  0
 10  9  1  0
 12 11  1  0
 12 21  1  0
 12 13  1  0
 14  8  1  0
 14 13  1  0
 16 17  1  0
 17  6  1  0
 17  8  1  0
 18 19  2  0
 19 20  1  0
 19 38  1  0
 20 23  1  0
 21 18  1  0
 21 22  1  0
 22 20  2  0
 23 24  1  0
 24 25  2  0
 26 29  1  0
 26 25  1  0
 27 26  2  0
 28 27  1  0
 28 23  2  0
 29 30  1  0
 30 31  1  0
 31 32  2  0
 33 32  1  0
 33 37  1  0
 34 33  2  0
 35 30  2  0
 35 34  1  0
 36 35  1  0
 38 39  1  0
 39 42  1  0
 39 41  1  0
 40 38  2  0
 43 44  1  0
 43 18  1  0
 45 43  1  0
 46 50  1  0
 47 46  1  0
 47 49  1  0
 49 52  1  0
 49 48  1  0
 50  4  1  0
 50 48  1  0
 51 46  2  0
 52 53  1  0
 54 65  2  0
 55 53  1  0
 55 60  1  0
 56 64  1  0
 56 66  1  0
 57 63  1  0
 57 59  1  0
 58 64  1  0
 59 60  2  0
 59 58  1  0
 61 62  1  0
 61 55  2  0
 62 57  2  0
 63 56  1  0
 64 54  1  0
 66 68  2  0
 67 66  1  0
 69 67  1  0
 70 79  2  0
 70 75  1  0
 71 67  1  0
 71 75  1  0
 72 71  1  0
 73 74  1  0
 73 72  1  0
 74 70  1  0
 75 76  2  0
 76 77  1  0
 78 77  2  0
 79 78  1  0
 80 54  1  0
 80 85  1  0
 80 81  1  0
 81 84  1  1
 81 82  1  0
 83 81  1  0
 85 88  1  0
 86 90  1  0
 86 85  1  0
 87 86  2  0
 90 89  1  0
 92 90  1  0
 92 93  1  0
 92 91  1  0
 94 95  1  0
 96 94  1  0
M  ISO  4   8 100  17 100  52 101  53 101
M  END
>  <TORSDO>  (44) 
F 19

>  <SCORE>  (44) 
-14.680

>  <name>  (44) 
43

>  <ligand_id>  (44) 
43

>  <original_smiles>  (44) 
[H]c1c([H])c([H])c2c(c1[H])C([H])([H])C([H])([H])C([H])([H])C2([H])N([H])C(=O)C1([H])N(C(=O)C([H])(N([H])C(=O)C([H])(N([H])C([H])([H])[H])C([H])([H])[H])C(C([H])([H])[H])(C([H])([H])[H])C([H])([H])[H])C([H])([H])c2c([H])c(OC([H])([H])C3([H])C([H])([H])C(=O)N(c4c([H])c(N([H])[H])c(N(C(=O)N5C([H])([H])C([H])([H])C([H])([H])C([H])(n6nc(-c7c([H])c([H])c(Oc8c([H])c([H])c(F)c([H])c8F)c([H])c7[H])c(C(=O)N([H])[H])c6N([H])[H])C5([H])[H])C([H])([H])[H])c(C([H])([H])[H])c4[H])C3([H])[H])c([H])c([H])c2C1([H])[H]

>  <smiles>  (44) 
[H]c1c([H])c([H])c2c(c1[H])C([H])([H])C([H])([H])C([H])([H])C2([H])N([H])C(=O)C1([H])N(C(=O)C([H])(N([H])C(=O)C([H])(N([H])C([H])([H])[H])C([H])([H])[H])C(C([H])([H])[H])(C([H])([H])[H])C([H])([H])[H])C([H])([H])c2c([H])c(OC([H])([H])C3([H])C([H])([H])C(=O)N(c4c([H])c(N([H])[H])c(N(C(=O)N5C([H])([H])C([H])([H])C([H])([H])C([H])(n6nc(-c7c([H])c([H])c(Oc8c([H])c([H])c(F)c([H])c8F)c([H])c7[H])c(C(=O)N([H])[H])c6N([H])[H])C5([H])[H])C([H])([H])[H])c(C([H])([H])[H])c4[H])C3([H])[H])c([H])c([H])c2C1([H])[H]

$$$$
44:0:0
     RDKit          3D

 96104  0  0  1  0  0  0  0  0999 V2000
  -29.6460  -18.6840   21.1570 C   0  0  0  0  0  3  0  0  0  0  0  0
  -29.7790  -20.0480   21.5220 C   0  0  0  0  0  3  0  0  0  0  0  0
  -30.9370  -19.1150   19.1410 C   0  0  0  0  0  3  0  0  0  0  0  0
  -30.2180  -18.2080   19.9540 C   0  0  0  0  0  0  0  0  0  0  0  0
  -30.4950  -20.9480   20.6960 C   0  0  0  0  0  0  0  0  0  0  0  0
  -31.0740  -20.4700   19.5010 C   0  0  0  0  0  0  0  0  0  0  0  0
  -31.7490  -21.3520   18.6530 N   0  0  0  0  0  0  0  0  0  0  0  0
  -31.9360  -21.0140   17.7150 H   0  0  0  0  0  0  0  0  0  0  0  0
  -31.3860  -22.2970   18.6290 H   0  0  0  0  0  0  0  0  0  0  0  0
  -28.7130  -16.8070   18.5350 C   0  0  0  0  0  1  0  0  0  0  0  0
  -29.9800  -16.7970   19.4060 C   0  0  0  0  0  3  0  0  0  0  0  0
  -30.6860  -14.5820   20.2350 C   0  0  0  0  0  0  0  0  0  0  0  0
  -30.3500  -12.4100   19.1540 C   0  0  0  0  0  2  0  0  0  0  0  0
  -29.3760  -12.6400   17.9780 C   0  0  0  0  0  2  0  0  0  0  0  0
  -27.9130  -12.5140   18.4490 C   0  0  0  0  0  2  0  0  0  0  0  0
  -27.6170  -13.3180   19.7440 C   0  0  0  0  0  3  0  0  0  0  0  0
  -28.7160  -13.1070   20.8130 C   0  0  0  0  0  2  0  0  0  0  0  0
  -30.0190  -13.3960   20.1930 N   0  0  0  0  0  0  0  0  0  0  0  0
  -31.8490  -14.7070   19.8470 O   0  0  0  0  0  0  0  0  0  0  0  0
  -29.8990  -15.6710   20.3610 N   0  0  0  0  0  0  0  0  0  0  0  0
  -28.9900  -15.5010   20.7620 H   0  0  0  0  0  0  0  0  0  0  0  0
  -25.2410  -13.9000   20.5390 C   0  0  0  0  0  0  0  0  0  0  0  0
  -24.1910  -13.1140   20.9310 C   0  0  0  0  0  0  0  0  0  0  0  0
  -24.6570  -11.7660   20.8640 C   0  0  0  0  0  0  0  0  0  0  0  0
  -26.2840  -13.0270   20.2630 N   0  0  0  0  0  0  0  0  0  0  0  0
  -25.9370  -11.7390   20.5140 N   0  0  0  0  0  0  0  0  0  0  0  0
  -23.9450  -10.4960   21.0560 C   0  0  0  0  0  0  0  0  0  0  0  0
  -24.3970   -9.5280   21.9800 C   0  0  0  0  0  3  0  0  0  0  0  0
  -23.6850   -8.3230   22.1610 C   0  0  0  0  0  3  0  0  0  0  0  0
  -22.5060   -8.0780   21.4180 C   0  0  0  0  0  0  0  0  0  0  0  0
  -22.0730   -9.0350   20.4850 C   0  0  0  0  0  3  0  0  0  0  0  0
  -22.7860  -10.2310   20.3010 C   0  0  0  0  0  3  0  0  0  0  0  0
  -21.7620   -6.9270   21.5110 O   0  0  0  0  0  0  0  0  0  0  0  0
  -21.7160   -6.1890   22.6670 C   0  0  0  0  0  0  0  0  0  0  0  0
  -21.2520   -6.7390   23.8820 C   0  0  0  0  0  3  0  0  0  0  0  0
  -21.1560   -5.9290   25.0300 C   0  0  0  0  0  3  0  0  0  0  0  0
  -21.5150   -4.5680   24.9650 C   0  0  0  0  0  0  0  0  0  0  0  0
  -21.9720   -4.0170   23.7540 C   0  0  0  0  0  3  0  0  0  0  0  0
  -22.0700   -4.8260   22.6090 C   0  0  0  0  0  0  0  0  0  0  0  0
  -22.4910   -4.2860   21.4400 F   0  0  0  0  0  0  0  0  0  0  0  0
  -21.4160   -3.7870   26.0650 F   0  0  0  0  0  0  0  0  0  0  0  0
  -22.8000  -13.5780   21.2560 C   0  0  0  0  0  0  0  0  0  0  0  0
  -22.1010  -12.8570   22.1270 N   0  0  0  0  0  0  0  0  0  0  0  0
  -22.3410  -14.6120   20.7730 O   0  0  0  0  0  0  0  0  0  0  0  0
  -22.4820  -12.0140   22.5330 H   0  0  0  0  0  0  0  0  0  0  0  0
  -21.1710  -13.1480   22.3910 H   0  0  0  0  0  0  0  0  0  0  0  0
  -25.3930  -15.2740   20.3760 N   0  0  0  0  0  0  0  0  0  0  0  0
  -24.6280  -15.9240   20.5140 H   0  0  0  0  0  0  0  0  0  0  0  0
  -26.2270  -15.7170   20.0130 H   0  0  0  0  0  0  0  0  0  0  0  0
  -30.6810  -22.3010   21.0220 N   0  0  0  0  0  0  0  0  0  0  0  0
  -31.3230  -22.7550   20.3780 H   0  0  0  0  0  0  0  0  0  0  0  0
  -29.4850  -23.1160   21.2670 C   0  0  0  0  0  2  0  0  0  0  0  0
  -29.5970  -24.5480   20.6990 C   0  0  0  0  0  0  0  0  0  0  0  0
  -30.6180  -24.9180   20.1050 O   0  0  0  0  0  0  0  0  0  0  0  0
  -28.3780  -25.4680   20.8910 C   0  0  0  0  0  2  0  0  0  0  0  0
  -28.5590  -26.7700   20.3000 O   0  0  0  0  0  0  0  0  0  0  0  0
  -24.6310  -31.9280   23.2340 C   0  0  0  0  0  0  0  0  0  0  0  0
  -27.3950  -27.5050   20.2450 C   0  0  0  0  0  0  0  0  0  0  0  0
  -23.4770  -30.5020   21.5760 C   0  0  0  0  0  3  0  0  0  0  0  0
  -24.9800  -28.9770   20.1900 C   0  0  0  0  0  0  0  0  0  0  0  0
  -26.0000  -30.8960   21.4250 C   0  0  0  0  0  2  0  0  0  0  0  0
  -26.1190  -29.5240   20.7950 C   0  0  0  0  0  0  0  0  0  0  0  0
  -27.3320  -28.7970   20.8140 C   0  0  0  0  0  3  0  0  0  0  0  0
  -26.2400  -26.9760   19.6240 C   0  0  0  0  0  3  0  0  0  0  0  0
  -25.0360  -27.7030   19.5990 C   0  0  0  0  0  3  0  0  0  0  0  0
  -23.7220  -29.8160   20.2050 C   0  0  0  0  0  2  0  0  0  0  0  0
  -24.7200  -31.1240   22.1370 N   0  0  0  0  0  0  0  0  0  0  0  0
  -23.5350  -32.1880   23.7500 O   0  0  0  0  0  0  0  0  0  0  0  0
  -22.8180  -29.4780   22.5280 C   0  0  0  0  0  0  0  0  0  0  0  0
  -21.4980  -29.2820   22.3770 N   0  0  0  0  0  0  0  0  0  0  0  0
  -23.4930  -28.8620   23.3570 O   0  0  0  0  0  0  0  0  0  0  0  0
  -21.0160  -29.8320   21.6790 H   0  0  0  0  0  0  0  0  0  0  0  0
  -18.1210  -28.0870   22.8420 C   0  0  0  0  0  0  0  0  0  0  0  0
  -20.6750  -28.3400   23.1350 C   0  0  0  0  0  3  0  0  0  0  0  0
  -20.7800  -26.9130   22.5500 C   0  0  0  0  0  2  0  0  0  0  0  0
  -19.6860  -26.5980   21.5250 C   0  0  0  0  0  2  0  0  0  0  0  0
  -18.3000  -26.7420   22.1590 C   0  0  0  0  0  2  0  0  0  0  0  0
  -19.2360  -28.8460   23.2850 C   0  0  0  0  0  0  0  0  0  0  0  0
  -19.0150  -30.1060   23.8820 C   0  0  0  0  0  3  0  0  0  0  0  0
  -17.7110  -30.6080   24.0410 C   0  0  0  0  0  3  0  0  0  0  0  0
  -16.6080  -29.8470   23.6160 C   0  0  0  0  0  3  0  0  0  0  0  0
  -16.8140  -28.5890   23.0220 C   0  0  0  0  0  3  0  0  0  0  0  0
  -25.8960  -32.5760   23.8770 C   0  0  0  0  0  3  0  0  0  0  0  0
  -25.5670  -33.9740   24.1860 N   0  0  0  0  0  0  0  0  0  0  0  0
  -25.9170  -35.0220   23.4290 C   0  0  0  0  0  0  0  0  0  0  0  0
  -26.6190  -34.9140   22.4190 O   0  0  0  0  0  0  0  0  0  0  0  0
  -24.9470  -34.1310   24.9670 H   0  0  0  0  0  0  0  0  0  0  0  0
  -24.2020  -36.8060   22.9830 C   0  0  0  0  0  1  0  0  0  0  0  0
  -25.4030  -36.4100   23.8560 C   0  0  0  0  0  3  0  0  0  0  0  0
  -27.4920  -37.3080   24.7860 C   0  0  0  0  0  1  0  0  0  0  0  0
  -26.4370  -37.4670   23.7870 N   0  0  0  0  0  0  0  0  0  0  0  0
  -26.0220  -38.3860   23.9060 H   0  0  0  0  0  0  0  0  0  0  0  0
  -26.3950  -31.8200   25.1690 C   0  0  1  0  0  0  0  0  0  0  0  0
  -25.2830  -31.5730   26.2150 C   0  0  0  0  0  1  0  0  0  0  0  0
  -27.0060  -30.4490   24.7960 C   0  0  0  0  0  1  0  0  0  0  0  0
  -27.5200  -32.6340   25.8500 C   0  0  0  0  0  1  0  0  0  0  0  0
  1  2  1  0
  3  6  2  0
  3  4  1  0
  4  1  2  0
  5 50  1  0
  5  2  2  0
  6  5  1  0
  7  6  1  0
  8  7  1  0
  9  7  1  0
 11 10  1  0
 11  4  1  0
 11 20  1  0
 12 20  1  0
 13 18  1  0
 14 15  1  0
 14 13  1  0
 16 15  1  0
 16 25  1  0
 16 17  1  0
 18 12  1  0
 18 17  1  0
 19 12  2  0
 20 21  1  0
 22 23  2  0
 23 42  1  0
 24 23  1  0
 24 27  1  0
 25 26  1  0
 25 22  1  0
 26 24  2  0
 27 28  1  0
 28 29  2  0
 30 33  1  0
 30 29  1  0
 31 30  2  0
 32 31  1  0
 32 27  2  0
 33 34  1  0
 34 35  1  0
 35 36  2  0
 37 36  1  0
 37 41  1  0
 38 37  2  0
 39 34  2  0
 39 38  1  0
 40 39  1  0
 42 43  1  0
 43 46  1  0
 43 45  1  0
 44 42  2  0
 47 48  1  0
 47 22  1  0
 49 47  1  0
 50 52  1  0
 51 50  1  0
 53 55  1  0
 53 52  1  0
 54 53  2  0
 56 55  1  0
 57 68  2  0
 58 56  1  0
 58 63  1  0
 59 67  1  0
 59 69  1  0
 60 66  1  0
 60 62  1  0
 61 67  1  0
 62 63  2  0
 62 61  1  0
 64 58  2  0
 65 64  1  0
 65 60  2  0
 66 59  1  0
 67 57  1  0
 69 71  2  0
 70 69  1  0
 72 70  1  0
 73 82  2  0
 73 78  1  0
 74 70  1  0
 74 78  1  0
 75 74  1  0
 76 77  1  0
 76 75  1  0
 77 73  1  0
 78 79  2  0
 79 80  1  0
 81 80  2  0
 82 81  1  0
 83 57  1  0
 83 84  1  0
 83 93  1  0
 84 87  1  0
 85 89  1  0
 85 84  1  0
 86 85  2  0
 89 88  1  0
 91 89  1  0
 91 92  1  0
 91 90  1  0
 93 96  1  1
 93 94  1  0
 95 93  1  0
M  ISO  4  12 100  20 100  55 101  56 101
M  END
>  <TORSDO>  (45) 
F 22

>  <SCORE>  (45) 
-13.063

>  <name>  (45) 
44

>  <ligand_id>  (45) 
44

>  <original_smiles>  (45) 
[H]c1c([H])c([H])c2c(c1[H])C([H])([H])C([H])([H])C([H])([H])C2([H])N([H])C(=O)C1([H])N(C(=O)C([H])(N([H])C(=O)C([H])(N([H])C([H])([H])[H])C([H])([H])[H])C(C([H])([H])[H])(C([H])([H])[H])C([H])([H])[H])C([H])([H])c2c([H])c(OC([H])([H])C(=O)C([H])([H])N([H])c3c([H])c([H])c(C([H])(N([H])C(=O)N4C([H])([H])C([H])([H])C([H])([H])C([H])(n5nc(-c6c([H])c([H])c(Oc7c([H])c([H])c(F)c([H])c7F)c([H])c6[H])c(C(=O)N([H])[H])c5N([H])[H])C4([H])[H])C([H])([H])[H])c([H])c3N([H])[H])c([H])c([H])c2C1([H])[H]

>  <smiles>  (45) 
[H]c1c([H])c([H])c2c(c1[H])C([H])([H])C([H])([H])C([H])([H])C2([H])N([H])C(=O)C1([H])N(C(=O)C([H])(N([H])C(=O)C([H])(N([H])C([H])([H])[H])C([H])([H])[H])C(C([H])([H])[H])(C([H])([H])[H])C([H])([H])[H])C([H])([H])c2c([H])c(OC([H])([H])C(=O)C([H])([H])N([H])c3c([H])c([H])c(C([H])(N([H])C(=O)N4C([H])([H])C([H])([H])C([H])([H])C([H])(n5nc(-c6c([H])c([H])c(Oc7c([H])c([H])c(F)c([H])c7F)c([H])c6[H])c(C(=O)N([H])[H])c5N([H])[H])C4([H])[H])C([H])([H])[H])c([H])c3N([H])[H])c([H])c([H])c2C1([H])[H]

$$$$
45:0:0
     RDKit          3D

 97106  0  0  1  0  0  0  0  0999 V2000
  -30.3380  -23.8660   21.0460 C   0  0  0  0  0  3  0  0  0  0  0  0
  -29.0630  -23.8400   20.4020 C   0  0  0  0  0  0  0  0  0  0  0  0
  -30.8160  -22.5730   21.1180 C   0  0  0  0  0  0  0  0  0  0  0  0
  -28.8640  -22.4890   20.1260 C   0  0  0  0  0  0  0  0  0  0  0  0
  -29.9290  -21.6710   20.5360 N   0  0  0  0  0  0  0  0  0  0  0  0
  -29.8850  -19.6900   19.0500 C   0  0  0  0  0  3  0  0  0  0  0  0
  -30.0160  -18.3030   18.7950 C   0  0  0  0  0  3  0  0  0  0  0  0
  -30.4270  -19.2770   21.3390 C   0  0  0  0  0  3  0  0  0  0  0  0
  -30.5810  -17.8590   21.0890 C   0  0  0  0  0  0  0  0  0  0  0  0
  -30.0880  -20.2290   20.3320 C   0  0  0  0  0  0  0  0  0  0  0  0
  -30.4000  -17.3160   19.7660 C   0  0  0  0  0  0  0  0  0  0  0  0
  -31.0470  -14.7860   20.0050 C   0  0  0  0  0  0  0  0  0  0  0  0
  -30.6800  -12.5100   19.0570 C   0  0  0  0  0  2  0  0  0  0  0  0
  -29.6800  -12.4870   17.8730 C   0  0  0  0  0  2  0  0  0  0  0  0
  -28.2240  -12.4450   18.3610 C   0  0  0  0  0  2  0  0  0  0  0  0
  -27.9290  -13.3870   19.5620 C   0  0  0  0  0  3  0  0  0  0  0  0
  -29.0410  -13.3410   20.6290 C   0  0  0  0  0  2  0  0  0  0  0  0
  -30.3110  -13.6250   19.9500 N   0  0  0  0  0  0  0  0  0  0  0  0
  -32.2750  -14.7310   19.9900 O   0  0  0  0  0  0  0  0  0  0  0  0
  -30.8030  -15.7290   17.8920 C   0  0  0  0  0  1  0  0  0  0  0  0
  -30.5060  -15.8800   19.3390 N   0  0  0  0  0  0  0  0  0  0  0  0
  -25.5930  -14.0050   20.4390 C   0  0  0  0  0  0  0  0  0  0  0  0
  -24.5210  -13.2410   20.8100 C   0  0  0  0  0  0  0  0  0  0  0  0
  -24.9460  -11.8820   20.7040 C   0  0  0  0  0  0  0  0  0  0  0  0
  -26.6050  -13.1140   20.1220 N   0  0  0  0  0  0  0  0  0  0  0  0
  -26.2250  -11.8290   20.3520 N   0  0  0  0  0  0  0  0  0  0  0  0
  -24.1950  -10.6260   20.8580 C   0  0  0  0  0  0  0  0  0  0  0  0
  -24.5970   -9.6320   21.7780 C   0  0  0  0  0  3  0  0  0  0  0  0
  -23.8440   -8.4470   21.9200 C   0  0  0  0  0  3  0  0  0  0  0  0
  -22.6760   -8.2500   21.1460 C   0  0  0  0  0  0  0  0  0  0  0  0
  -22.2970   -9.2320   20.2130 C   0  0  0  0  0  3  0  0  0  0  0  0
  -23.0500  -10.4080   20.0670 C   0  0  0  0  0  3  0  0  0  0  0  0
  -21.8960   -7.1200   21.2020 O   0  0  0  0  0  0  0  0  0  0  0  0
  -21.7410   -6.4070   22.3650 C   0  0  0  0  0  0  0  0  0  0  0  0
  -21.2510   -7.0080   23.5440 C   0  0  0  0  0  3  0  0  0  0  0  0
  -21.0380   -6.2250   24.6970 C   0  0  0  0  0  3  0  0  0  0  0  0
  -21.3090   -4.8460   24.6710 C   0  0  0  0  0  0  0  0  0  0  0  0
  -21.7930   -4.2440   23.4960 C   0  0  0  0  0  3  0  0  0  0  0  0
  -22.0020   -5.0230   22.3440 C   0  0  0  0  0  0  0  0  0  0  0  0
  -22.4500   -4.4350   21.2090 F   0  0  0  0  0  0  0  0  0  0  0  0
  -21.0990   -4.0920   25.7770 F   0  0  0  0  0  0  0  0  0  0  0  0
  -23.1470  -13.7390   21.1510 C   0  0  0  0  0  0  0  0  0  0  0  0
  -22.4390  -13.0310   22.0250 N   0  0  0  0  0  0  0  0  0  0  0  0
  -22.7100  -14.7880   20.6770 O   0  0  0  0  0  0  0  0  0  0  0  0
  -22.8060  -12.1830   22.4280 H   0  0  0  0  0  0  0  0  0  0  0  0
  -21.5170  -13.3470   22.2950 H   0  0  0  0  0  0  0  0  0  0  0  0
  -25.7930  -15.3760   20.3170 N   0  0  0  0  0  0  0  0  0  0  0  0
  -25.0640  -16.0590   20.4920 H   0  0  0  0  0  0  0  0  0  0  0  0
  -26.6650  -15.7960   20.0220 H   0  0  0  0  0  0  0  0  0  0  0  0
  -30.6180  -17.2740   23.5380 C   0  0  0  0  0  2  0  0  0  0  0  0
  -30.8480  -16.9780   22.2470 C   0  0  0  0  0  3  0  0  0  0  0  0
  -31.9910  -22.1400   21.6520 O   0  0  0  0  0  0  0  0  0  0  0  0
  -32.4490  -22.9010   21.9960 H   0  0  0  0  0  0  0  0  0  0  0  0
  -27.7880  -21.8990   19.5370 O   0  0  0  0  0  0  0  0  0  0  0  0
  -27.0390  -22.4770   19.6440 H   0  0  0  0  0  0  0  0  0  0  0  0
  -28.0670  -25.0050   20.0840 C   0  0  0  0  0  2  0  0  0  0  0  0
  -28.3580  -26.4450   20.2940 O   0  0  0  0  0  0  0  0  0  0  0  0
  -24.5490  -31.8400   23.2010 C   0  0  0  0  0  0  0  0  0  0  0  0
  -27.2480  -27.3080   20.1890 C   0  0  0  0  0  0  0  0  0  0  0  0
  -23.3740  -30.4150   21.5660 C   0  0  0  0  0  3  0  0  0  0  0  0
  -24.8570  -28.8930   20.1480 C   0  0  0  0  0  0  0  0  0  0  0  0
  -25.9120  -30.7680   21.4000 C   0  0  0  0  0  2  0  0  0  0  0  0
  -26.0160  -29.3930   20.7570 C   0  0  0  0  0  0  0  0  0  0  0  0
  -27.2120  -28.6130   20.7720 C   0  0  0  0  0  3  0  0  0  0  0  0
  -26.0660  -26.8800   19.5310 C   0  0  0  0  0  3  0  0  0  0  0  0
  -24.8860  -27.6400   19.5250 C   0  0  0  0  0  3  0  0  0  0  0  0
  -23.6060  -29.7440   20.1870 C   0  0  0  0  0  2  0  0  0  0  0  0
  -24.6300  -31.0240   22.1120 N   0  0  0  0  0  0  0  0  0  0  0  0
  -23.4590  -32.1020   23.7290 O   0  0  0  0  0  0  0  0  0  0  0  0
  -22.7240  -29.3860   22.5240 C   0  0  0  0  0  0  0  0  0  0  0  0
  -21.4040  -29.1750   22.3810 N   0  0  0  0  0  0  0  0  0  0  0  0
  -23.4070  -28.7870   23.3580 O   0  0  0  0  0  0  0  0  0  0  0  0
  -20.9110  -29.7090   21.6790 H   0  0  0  0  0  0  0  0  0  0  0  0
  -18.0590  -27.8760   22.8250 C   0  0  0  0  0  0  0  0  0  0  0  0
  -20.5990  -28.2290   23.1560 C   0  0  0  0  0  3  0  0  0  0  0  0
  -20.7660  -26.7870   22.6220 C   0  0  0  0  0  2  0  0  0  0  0  0
  -19.7030  -26.4020   21.5880 C   0  0  0  0  0  2  0  0  0  0  0  0
  -18.2990  -26.5170   22.1890 C   0  0  0  0  0  2  0  0  0  0  0  0
  -19.1400  -28.6860   23.2660 C   0  0  0  0  0  0  0  0  0  0  0  0
  -18.8620  -29.9550   23.8180 C   0  0  0  0  0  3  0  0  0  0  0  0
  -17.5380  -30.4150   23.9380 C   0  0  0  0  0  3  0  0  0  0  0  0
  -16.4710  -29.6020   23.5160 C   0  0  0  0  0  3  0  0  0  0  0  0
  -16.7330  -28.3360   22.9640 C   0  0  0  0  0  3  0  0  0  0  0  0
  -25.8210  -32.4940   23.8210 C   0  0  0  0  0  3  0  0  0  0  0  0
  -25.4810  -33.8810   24.1620 N   0  0  0  0  0  0  0  0  0  0  0  0
  -25.7950  -34.9480   23.4150 C   0  0  0  0  0  0  0  0  0  0  0  0
  -26.4710  -34.8700   22.3860 O   0  0  0  0  0  0  0  0  0  0  0  0
  -24.8820  -34.0170   24.9630 H   0  0  0  0  0  0  0  0  0  0  0  0
  -24.0330  -36.7110   23.0690 C   0  0  0  0  0  1  0  0  0  0  0  0
  -25.2770  -36.3230   23.8840 C   0  0  0  0  0  3  0  0  0  0  0  0
  -27.3880  -37.2410   24.7330 C   0  0  0  0  0  1  0  0  0  0  0  0
  -26.2880  -37.3970   23.7870 N   0  0  0  0  0  0  0  0  0  0  0  0
  -25.8610  -38.3070   23.9460 H   0  0  0  0  0  0  0  0  0  0  0  0
  -26.3570  -31.7250   25.0910 C   0  0  1  0  0  0  0  0  0  0  0  0
  -25.2710  -31.4570   26.1600 C   0  0  0  0  0  1  0  0  0  0  0  0
  -26.9710  -30.3620   24.6940 C   0  0  0  0  0  1  0  0  0  0  0  0
  -27.4900  -32.5420   25.7570 C   0  0  0  0  0  1  0  0  0  0  0  0
  1  3  2  0
  2  1  1  0
  3 52  1  0
  4  2  2  0
  4  5  1  0
  5  3  1  0
  6 10  1  0
  7  6  2  0
  7 11  1  0
  9  8  1  0
  9 51  1  0
 10  5  1  0
 10  8  2  0
 11  9  2  0
 13 18  1  0
 14 15  1  0
 14 13  1  0
 16 15  1  0
 16 25  1  0
 16 17  1  0
 18 12  1  0
 18 17  1  0
 19 12  2  0
 20 21  1  0
 21 11  1  0
 21 12  1  0
 22 23  2  0
 23 42  1  0
 24 23  1  0
 24 27  1  0
 25 26  1  0
 25 22  1  0
 26 24  2  0
 27 28  1  0
 28 29  2  0
 30 33  1  0
 30 29  1  0
 31 30  2  0
 32 31  1  0
 32 27  2  0
 33 34  1  0
 34 35  1  0
 35 36  2  0
 37 36  1  0
 37 41  1  0
 38 37  2  0
 39 34  2  0
 39 38  1  0
 40 39  1  0
 42 43  1  0
 43 46  1  0
 43 45  1  0
 44 42  2  0
 47 22  1  0
 47 48  1  0
 49 47  1  0
 51 50  2  0
 52 53  1  0
 54 55  1  0
 54  4  1  0
 56 57  1  0
 56  2  1  0
 58 69  2  0
 59 57  1  0
 59 64  1  0
 60 68  1  0
 60 70  1  0
 61 67  1  0
 61 63  1  0
 62 68  1  0
 63 64  2  0
 63 62  1  0
 65 59  2  0
 66 65  1  0
 66 61  2  0
 67 60  1  0
 68 58  1  0
 70 72  2  0
 71 70  1  0
 73 71  1  0
 74 83  2  0
 74 79  1  0
 75 71  1  0
 75 79  1  0
 76 75  1  0
 77 78  1  0
 77 76  1  0
 78 74  1  0
 79 80  2  0
 80 81  1  0
 82 81  2  0
 83 82  1  0
 84 58  1  0
 84 85  1  0
 84 94  1  0
 85 88  1  0
 86 90  1  0
 86 85  1  0
 87 86  2  0
 90 89  1  0
 92 90  1  0
 92 93  1  0
 92 91  1  0
 94 97  1  1
 94 95  1  0
 96 94  1  0
M  ISO  4  12 100  21 100  56 101  57 101
M  END
>  <TORSDO>  (46) 
F 21

>  <SCORE>  (46) 
-12.997

>  <name>  (46) 
45

>  <ligand_id>  (46) 
45

>  <original_smiles>  (46) 
[H]Oc1c([H])c(C([H])([H])Oc2c([H])c([H])c3c(c2[H])C([H])([H])N(C(=O)C([H])(N([H])C(=O)C([H])(N([H])C([H])([H])[H])C([H])([H])[H])C(C([H])([H])[H])(C([H])([H])[H])C([H])([H])[H])C([H])(C(=O)N([H])C2([H])c4c([H])c([H])c([H])c([H])c4C([H])([H])C([H])([H])C2([H])[H])C3([H])[H])c(O[H])n1-c1c([H])c([H])c(N(C(=O)N2C([H])([H])C([H])([H])C([H])([H])C([H])(n3nc(-c4c([H])c([H])c(Oc5c([H])c([H])c(F)c([H])c5F)c([H])c4[H])c(C(=O)N([H])[H])c3N([H])[H])C2([H])[H])C([H])([H])[H])c(C([H])=C([H])[H])c1[H]

>  <smiles>  (46) 
[H]Oc1c([H])c(C([H])([H])Oc2c([H])c([H])c3c(c2[H])C([H])([H])N(C(=O)C([H])(N([H])C(=O)C([H])(N([H])C([H])([H])[H])C([H])([H])[H])C(C([H])([H])[H])(C([H])([H])[H])C([H])([H])[H])C([H])(C(=O)N([H])C2([H])c4c([H])c([H])c([H])c([H])c4C([H])([H])C([H])([H])C2([H])[H])C3([H])[H])c(O[H])n1-c1c([H])c([H])c(N(C(=O)N2C([H])([H])C([H])([H])C([H])([H])C([H])(n3nc(-c4c([H])c([H])c(Oc5c([H])c([H])c(F)c([H])c5F)c([H])c4[H])c(C(=O)N([H])[H])c3N([H])[H])C2([H])[H])C([H])([H])[H])c(C([H])=C([H])[H])c1[H]

$$$$
46:0:0
     RDKit          3D

 94103  0  0  1  0  0  0  0  0999 V2000
  -29.3630  -22.8000   19.6700 C   0  0  0  0  0  3  0  0  0  0  0  0
  -28.5920  -23.9620   19.7010 C   0  0  0  0  0  0  0  0  0  0  0  0
  -27.7170  -21.2890   20.5740 C   0  0  0  0  0  0  0  0  0  0  0  0
  -27.1190  -23.8150   19.9930 C   0  0  0  0  0  2  0  0  0  0  0  0
  -26.7220  -22.4700   20.6340 C   0  0  0  0  0  2  0  0  0  0  0  0
  -28.9460  -21.4270   19.9950 N   0  0  0  0  0  0  0  0  0  0  0  0
  -27.3480  -20.2560   21.1400 O   0  0  0  0  0  0  0  0  0  0  0  0
  -32.2230  -19.4800   20.2050 C   0  0  0  0  0  3  0  0  0  0  0  0
  -31.2630  -20.5090   20.1220 C   0  0  0  0  0  3  0  0  0  0  0  0
  -31.8550  -18.1210   20.1920 C   0  0  0  0  0  3  0  0  0  0  0  0
  -29.8820  -20.2360   19.9900 C   0  0  0  0  0  0  0  0  0  0  0  0
  -30.5090  -17.7120   20.0570 C   0  0  0  0  0  0  0  0  0  0  0  0
  -29.5350  -18.8000   19.9400 C   0  0  0  0  0  0  0  0  0  0  0  0
  -28.2440  -18.4300   19.7570 F   0  0  0  0  0  0  0  0  0  0  0  0
  -30.9440  -15.0970   19.9250 C   0  0  0  0  0  0  0  0  0  0  0  0
  -30.7160  -12.7780   18.9960 C   0  0  0  0  0  2  0  0  0  0  0  0
  -29.7550  -12.8310   17.7890 C   0  0  0  0  0  2  0  0  0  0  0  0
  -28.2960  -12.6660   18.2620 C   0  0  0  0  0  2  0  0  0  0  0  0
  -27.9530  -13.5830   19.4680 C   0  0  0  0  0  3  0  0  0  0  0  0
  -29.0390  -13.5420   20.5610 C   0  0  0  0  0  2  0  0  0  0  0  0
  -30.3130  -13.8710   19.9160 N   0  0  0  0  0  0  0  0  0  0  0  0
  -32.1310  -15.1480   19.5940 O   0  0  0  0  0  0  0  0  0  0  0  0
  -30.1670  -16.2530   20.0690 N   0  0  0  0  0  0  0  0  0  0  0  0
  -29.1820  -16.0650   20.1750 H   0  0  0  0  0  0  0  0  0  0  0  0
  -25.6060  -14.1880   20.2970 C   0  0  0  0  0  0  0  0  0  0  0  0
  -24.5440  -13.4210   20.6920 C   0  0  0  0  0  0  0  0  0  0  0  0
  -24.9900  -12.0670   20.6260 C   0  0  0  0  0  0  0  0  0  0  0  0
  -26.6280  -13.3000   20.0080 N   0  0  0  0  0  0  0  0  0  0  0  0
  -26.2680  -12.0180   20.2720 N   0  0  0  0  0  0  0  0  0  0  0  0
  -24.2560  -10.8110   20.8280 C   0  0  0  0  0  0  0  0  0  0  0  0
  -24.6510   -9.8710   21.8050 C   0  0  0  0  0  3  0  0  0  0  0  0
  -23.9140   -8.6810   21.9910 C   0  0  0  0  0  3  0  0  0  0  0  0
  -22.7700   -8.4210   21.2010 C   0  0  0  0  0  0  0  0  0  0  0  0
  -22.3970   -9.3490   20.2140 C   0  0  0  0  0  3  0  0  0  0  0  0
  -23.1320  -10.5310   20.0260 C   0  0  0  0  0  3  0  0  0  0  0  0
  -22.0110   -7.2790   21.2940 O   0  0  0  0  0  0  0  0  0  0  0  0
  -21.8530   -6.6150   22.4830 C   0  0  0  0  0  0  0  0  0  0  0  0
  -21.2730   -7.2350   23.6120 C   0  0  0  0  0  3  0  0  0  0  0  0
  -21.0680   -6.4940   24.7930 C   0  0  0  0  0  3  0  0  0  0  0  0
  -21.4290   -5.1340   24.8430 C   0  0  0  0  0  0  0  0  0  0  0  0
  -22.0020   -4.5160   23.7190 C   0  0  0  0  0  3  0  0  0  0  0  0
  -22.2110   -5.2530   22.5410 C   0  0  0  0  0  0  0  0  0  0  0  0
  -22.7440   -4.6460   21.4520 F   0  0  0  0  0  0  0  0  0  0  0  0
  -21.2250   -4.4210   25.9750 F   0  0  0  0  0  0  0  0  0  0  0  0
  -23.1640  -13.9130   21.0170 C   0  0  0  0  0  0  0  0  0  0  0  0
  -22.4660  -13.2230   21.9140 N   0  0  0  0  0  0  0  0  0  0  0  0
  -22.7150  -14.9410   20.5120 O   0  0  0  0  0  0  0  0  0  0  0  0
  -22.8430  -12.3890   22.3360 H   0  0  0  0  0  0  0  0  0  0  0  0
  -21.5450  -13.5400   22.1820 H   0  0  0  0  0  0  0  0  0  0  0  0
  -25.7800  -15.5560   20.1380 N   0  0  0  0  0  0  0  0  0  0  0  0
  -25.0370  -16.2210   20.3180 H   0  0  0  0  0  0  0  0  0  0  0  0
  -26.6200  -15.9990   19.7870 H   0  0  0  0  0  0  0  0  0  0  0  0
  -29.0100  -25.4380   19.2190 C   0  0  0  0  0  2  0  0  0  0  0  0
  -28.7590  -26.6960   20.0190 O   0  0  0  0  0  0  0  0  0  0  0  0
  -24.6710  -31.8220   23.1560 C   0  0  0  0  0  0  0  0  0  0  0  0
  -27.6080  -27.5210   19.9310 C   0  0  0  0  0  0  0  0  0  0  0  0
  -23.5930  -30.4440   21.4150 C   0  0  0  0  0  3  0  0  0  0  0  0
  -25.1660  -29.0430   19.9510 C   0  0  0  0  0  0  0  0  0  0  0  0
  -26.1210  -30.8960   21.3210 C   0  0  0  0  0  2  0  0  0  0  0  0
  -26.2920  -29.5510   20.6080 C   0  0  0  0  0  0  0  0  0  0  0  0
  -27.5100  -28.7970   20.5940 C   0  0  0  0  0  3  0  0  0  0  0  0
  -26.4560  -27.0860   19.2440 C   0  0  0  0  0  3  0  0  0  0  0  0
  -25.2540  -27.8220   19.2600 C   0  0  0  0  0  3  0  0  0  0  0  0
  -23.8830  -29.8510   20.0100 C   0  0  0  0  0  2  0  0  0  0  0  0
  -24.8130  -31.0700   22.0230 N   0  0  0  0  0  0  0  0  0  0  0  0
  -23.5590  -32.0100   23.6730 O   0  0  0  0  0  0  0  0  0  0  0  0
  -22.9620  -29.3500   22.3100 C   0  0  0  0  0  0  0  0  0  0  0  0
  -21.6430  -29.1270   22.1630 N   0  0  0  0  0  0  0  0  0  0  0  0
  -23.6590  -28.7040   23.0960 O   0  0  0  0  0  0  0  0  0  0  0  0
  -21.1390  -29.7020   21.5030 H   0  0  0  0  0  0  0  0  0  0  0  0
  -18.3110  -27.7900   22.6000 C   0  0  0  0  0  0  0  0  0  0  0  0
  -20.8640  -28.1100   22.8740 C   0  0  0  0  0  3  0  0  0  0  0  0
  -21.0050  -26.7270   22.1900 C   0  0  0  0  0  2  0  0  0  0  0  0
  -19.9040  -26.4440   21.1630 C   0  0  0  0  0  2  0  0  0  0  0  0
  -18.5250  -26.5000   21.8260 C   0  0  0  0  0  2  0  0  0  0  0  0
  -19.4090  -28.5520   23.0820 C   0  0  0  0  0  0  0  0  0  0  0  0
  -19.1530  -29.7560   23.7730 C   0  0  0  0  0  3  0  0  0  0  0  0
  -17.8340  -30.2020   23.9810 C   0  0  0  0  0  3  0  0  0  0  0  0
  -16.7510  -29.4360   23.5180 C   0  0  0  0  0  3  0  0  0  0  0  0
  -16.9910  -28.2320   22.8310 C   0  0  0  0  0  3  0  0  0  0  0  0
  -25.8950  -32.4970   23.8460 C   0  0  0  0  0  3  0  0  0  0  0  0
  -25.5160  -33.8790   24.1750 N   0  0  0  0  0  0  0  0  0  0  0  0
  -25.8330  -34.9530   23.4370 C   0  0  0  0  0  0  0  0  0  0  0  0
  -26.5410  -34.8800   22.4290 O   0  0  0  0  0  0  0  0  0  0  0  0
  -24.8790  -34.0000   24.9480 H   0  0  0  0  0  0  0  0  0  0  0  0
  -24.0410  -36.6750   23.0510 C   0  0  0  0  0  1  0  0  0  0  0  0
  -25.2790  -36.3200   23.8880 C   0  0  0  0  0  3  0  0  0  0  0  0
  -27.3530  -37.2920   24.7760 C   0  0  0  0  0  1  0  0  0  0  0  0
  -26.2720  -37.4140   23.8010 N   0  0  0  0  0  0  0  0  0  0  0  0
  -25.8290  -38.3200   23.9270 H   0  0  0  0  0  0  0  0  0  0  0  0
  -26.3750  -31.7340   25.1400 C   0  0  1  0  0  0  0  0  0  0  0  0
  -25.2350  -31.4350   26.1440 C   0  0  0  0  0  1  0  0  0  0  0  0
  -27.0290  -30.3870   24.7650 C   0  0  0  0  0  1  0  0  0  0  0  0
  -27.4680  -32.5570   25.8610 C   0  0  0  0  0  1  0  0  0  0  0  0
  1  2  2  0
  1  6  1  0
  2  4  1  0
  3  5  1  0
  3  7  2  0
  4  5  1  0
  6  3  1  0
  9  8  2  0
 10  8  1  0
 11  6  1  0
 11  9  1  0
 12 23  1  0
 12 10  2  0
 13 11  2  0
 13 12  1  0
 14 13  1  0
 15 23  1  0
 16 21  1  0
 17 18  1  0
 17 16  1  0
 19 18  1  0
 19 28  1  0
 19 20  1  0
 21 15  1  0
 21 20  1  0
 22 15  2  0
 23 24  1  0
 25 26  2  0
 26 45  1  0
 27 26  1  0
 27 30  1  0
 28 29  1  0
 28 25  1  0
 29 27  2  0
 30 31  1  0
 31 32  2  0
 33 36  1  0
 33 32  1  0
 34 33  2  0
 35 34  1  0
 35 30  2  0
 36 37  1  0
 37 42  2  0
 37 38  1  0
 38 39  2  0
 39 40  1  0
 40 44  1  0
 41 40  2  0
 42 41  1  0
 43 42  1  0
 45 46  1  0
 46 49  1  0
 46 48  1  0
 47 45  2  0
 50 25  1  0
 50 51  1  0
 52 50  1  0
 53  2  1  0
 53 54  1  0
 55 66  2  0
 56 54  1  0
 56 61  1  0
 57 65  1  0
 57 67  1  0
 58 64  1  0
 58 60  1  0
 59 65  1  0
 60 59  1  0
 61 60  2  0
 62 63  1  0
 62 56  2  0
 63 58  2  0
 64 57  1  0
 65 55  1  0
 67 69  2  0
 68 67  1  0
 70 68  1  0
 71 80  2  0
 71 76  1  0
 72 68  1  0
 72 76  1  0
 73 72  1  0
 74 75  1  0
 74 73  1  0
 75 71  1  0
 76 77  2  0
 77 78  1  0
 79 78  2  0
 80 79  1  0
 81 55  1  0
 81 82  1  0
 81 91  1  0
 82 85  1  0
 83 87  1  0
 83 82  1  0
 84 83  2  0
 87 86  1  0
 89 87  1  0
 89 90  1  0
 89 88  1  0
 91 94  1  1
 91 92  1  0
 93 91  1  0
M  ISO  4  15 100  23 100  53 101  54 101
M  END
>  <TORSDO>  (47) 
F 18

>  <SCORE>  (47) 
-12.977

>  <name>  (47) 
46

>  <ligand_id>  (47) 
46

>  <original_smiles>  (47) 
[H]C1=C(C([H])([H])Oc2c([H])c([H])c3c(c2[H])C([H])([H])N(C(=O)C([H])(N([H])C(=O)C([H])(N([H])C([H])([H])[H])C([H])([H])[H])C(C([H])([H])[H])(C([H])([H])[H])C([H])([H])[H])C([H])(C(=O)N([H])C2([H])c4c([H])c([H])c([H])c([H])c4C([H])([H])C([H])([H])C2([H])[H])C3([H])[H])C([H])([H])C([H])([H])C(=O)N1c1c([H])c([H])c([H])c(N([H])C(=O)N2C([H])([H])C([H])([H])C([H])([H])C([H])(n3nc(-c4c([H])c([H])c(Oc5c([H])c([H])c(F)c([H])c5F)c([H])c4[H])c(C(=O)N([H])[H])c3N([H])[H])C2([H])[H])c1F

>  <smiles>  (47) 
[H]C1=C(C([H])([H])Oc2c([H])c([H])c3c(c2[H])C([H])([H])N(C(=O)C([H])(N([H])C(=O)C([H])(N([H])C([H])([H])[H])C([H])([H])[H])C(C([H])([H])[H])(C([H])([H])[H])C([H])([H])[H])C([H])(C(=O)N([H])C2([H])c4c([H])c([H])c([H])c([H])c4C([H])([H])C([H])([H])C2([H])[H])C3([H])[H])C([H])([H])C([H])([H])C(=O)N1c1c([H])c([H])c([H])c(N([H])C(=O)N2C([H])([H])C([H])([H])C([H])([H])C([H])(n3nc(-c4c([H])c([H])c(Oc5c([H])c([H])c(F)c([H])c5F)c([H])c4[H])c(C(=O)N([H])[H])c3N([H])[H])C2([H])[H])c1F

$$$$
47:0:0
     RDKit          3D

 94102  0  0  1  0  0  0  0  0999 V2000
  -30.0850  -18.8620   21.3680 C   0  0  0  0  0  3  0  0  0  0  0  0
  -29.8280  -20.2850   21.2160 C   0  0  0  0  0  3  0  0  0  0  0  0
  -29.4930  -18.4720   19.1200 C   0  0  0  0  0  3  0  0  0  0  0  0
  -29.9130  -17.8620   20.3450 C   0  0  0  0  0  0  0  0  0  0  0  0
  -29.3460  -20.8700   20.0040 C   0  0  0  0  0  0  0  0  0  0  0  0
  -29.2240  -19.8910   18.9580 C   0  0  0  0  0  0  0  0  0  0  0  0
  -28.9890  -23.5650   20.3670 C   0  0  0  0  0  0  0  0  0  0  0  0
  -28.8650  -22.2950   19.7710 N   0  0  0  0  0  0  0  0  0  0  0  0
  -29.7640  -23.7370   21.3130 O   0  0  0  0  0  0  0  0  0  0  0  0
  -28.2660  -22.3350   18.9590 H   0  0  0  0  0  0  0  0  0  0  0  0
  -28.1050  -24.8440   19.8360 C   0  0  0  0  0  2  0  0  0  0  0  0
  -28.3370  -26.3070   20.2760 O   0  0  0  0  0  0  0  0  0  0  0  0
  -24.6360  -31.9150   23.2440 C   0  0  0  0  0  0  0  0  0  0  0  0
  -27.2700  -27.2670   20.1910 C   0  0  0  0  0  0  0  0  0  0  0  0
  -23.4500  -30.5170   21.5950 C   0  0  0  0  0  3  0  0  0  0  0  0
  -24.9170  -28.9690   20.1660 C   0  0  0  0  0  0  0  0  0  0  0  0
  -26.0010  -30.8110   21.4390 C   0  0  0  0  0  2  0  0  0  0  0  0
  -26.0890  -29.4270   20.7810 C   0  0  0  0  0  0  0  0  0  0  0  0
  -27.2640  -28.5890   20.7840 C   0  0  0  0  0  3  0  0  0  0  0  0
  -26.0720  -26.9130   19.5240 C   0  0  0  0  0  3  0  0  0  0  0  0
  -24.9190  -27.7240   19.5230 C   0  0  0  0  0  3  0  0  0  0  0  0
  -23.6800  -29.8500   20.2140 C   0  0  0  0  0  2  0  0  0  0  0  0
  -24.7150  -31.1020   22.1480 N   0  0  0  0  0  0  0  0  0  0  0  0
  -23.5460  -32.1890   23.7700 O   0  0  0  0  0  0  0  0  0  0  0  0
  -22.7800  -29.4980   22.5500 C   0  0  0  0  0  0  0  0  0  0  0  0
  -21.4550  -29.3130   22.4160 N   0  0  0  0  0  0  0  0  0  0  0  0
  -23.4550  -28.8770   23.3760 O   0  0  0  0  0  0  0  0  0  0  0  0
  -20.9680  -29.8670   21.7250 H   0  0  0  0  0  0  0  0  0  0  0  0
  -18.0800  -28.0940   22.9110 C   0  0  0  0  0  0  0  0  0  0  0  0
  -20.6380  -28.3670   23.1800 C   0  0  0  0  0  3  0  0  0  0  0  0
  -20.7480  -26.9390   22.5990 C   0  0  0  0  0  2  0  0  0  0  0  0
  -19.6480  -26.6150   21.5820 C   0  0  0  0  0  2  0  0  0  0  0  0
  -18.2650  -26.7500   22.2260 C   0  0  0  0  0  2  0  0  0  0  0  0
  -19.1950  -28.8600   23.3450 C   0  0  0  0  0  0  0  0  0  0  0  0
  -18.9680  -30.1160   23.9460 C   0  0  0  0  0  3  0  0  0  0  0  0
  -17.6600  -30.6080   24.1170 C   0  0  0  0  0  3  0  0  0  0  0  0
  -16.5610  -29.8390   23.6980 C   0  0  0  0  0  3  0  0  0  0  0  0
  -16.7720  -28.5840   23.1010 C   0  0  0  0  0  3  0  0  0  0  0  0
  -25.9080  -32.5580   23.8760 C   0  0  0  0  0  3  0  0  0  0  0  0
  -26.4150  -31.7950   25.1610 C   0  0  1  0  0  0  0  0  0  0  0  0
  -25.3090  -31.5520   26.2170 C   0  0  0  0  0  1  0  0  0  0  0  0
  -27.0150  -30.4200   24.7860 C   0  0  0  0  0  1  0  0  0  0  0  0
  -27.5490  -32.6020   25.8340 C   0  0  0  0  0  1  0  0  0  0  0  0
  -25.5870  -33.9550   24.2030 N   0  0  0  0  0  0  0  0  0  0  0  0
  -25.9000  -35.0100   23.4370 C   0  0  0  0  0  0  0  0  0  0  0  0
  -26.5560  -34.9090   22.3970 O   0  0  0  0  0  0  0  0  0  0  0  0
  -25.0020  -34.1080   25.0100 H   0  0  0  0  0  0  0  0  0  0  0  0
  -24.1460  -36.7860   23.1120 C   0  0  0  0  0  1  0  0  0  0  0  0
  -25.4080  -36.3970   23.8980 C   0  0  0  0  0  3  0  0  0  0  0  0
  -27.5450  -37.3150   24.6850 C   0  0  0  0  0  1  0  0  0  0  0  0
  -26.4280  -37.4600   23.7570 N   0  0  0  0  0  0  0  0  0  0  0  0
  -26.0130  -38.3780   23.9000 H   0  0  0  0  0  0  0  0  0  0  0  0
  -29.8200  -16.2960   20.6810 C   0  0  0  0  0  0  0  0  0  0  0  0
  -29.0100  -16.0820   21.6300 N   0  0  0  0  0  0  0  0  0  0  0  0
  -28.5970  -16.9510   21.9480 H   0  0  0  0  0  0  0  0  0  0  0  0
  -30.6270  -15.0100   20.0140 C   0  0  0  0  0  0  0  0  0  0  0  0
  -30.4630  -12.7250   18.9360 C   0  0  0  0  0  2  0  0  0  0  0  0
  -29.4370  -12.7800   17.7750 C   0  0  0  0  0  2  0  0  0  0  0  0
  -27.9950  -12.5670   18.2810 C   0  0  0  0  0  2  0  0  0  0  0  0
  -27.6940  -13.3980   19.5540 C   0  0  0  0  0  3  0  0  0  0  0  0
  -28.8220  -13.2290   20.5900 C   0  0  0  0  0  2  0  0  0  0  0  0
  -30.0610  -13.7280   19.9650 N   0  0  0  0  0  0  0  0  0  0  0  0
  -31.7450  -15.1610   19.5040 O   0  0  0  0  0  0  0  0  0  0  0  0
  -25.3560  -13.9700   20.4390 C   0  0  0  0  0  0  0  0  0  0  0  0
  -24.3090  -13.1870   20.8450 C   0  0  0  0  0  0  0  0  0  0  0  0
  -24.7650  -11.8370   20.7430 C   0  0  0  0  0  0  0  0  0  0  0  0
  -26.3790  -13.0960   20.1120 N   0  0  0  0  0  0  0  0  0  0  0  0
  -26.0330  -11.8050   20.3540 N   0  0  0  0  0  0  0  0  0  0  0  0
  -24.0450  -10.5710   20.9390 C   0  0  0  0  0  0  0  0  0  0  0  0
  -24.5020   -9.5950   21.8520 C   0  0  0  0  0  3  0  0  0  0  0  0
  -23.7820   -8.3950   22.0360 C   0  0  0  0  0  3  0  0  0  0  0  0
  -22.5910   -8.1630   21.3070 C   0  0  0  0  0  0  0  0  0  0  0  0
  -22.1540   -9.1280   20.3840 C   0  0  0  0  0  3  0  0  0  0  0  0
  -22.8740  -10.3200   20.1970 C   0  0  0  0  0  3  0  0  0  0  0  0
  -21.8410   -7.0160   21.4010 O   0  0  0  0  0  0  0  0  0  0  0  0
  -21.7820   -6.2890   22.5630 C   0  0  0  0  0  0  0  0  0  0  0  0
  -21.3110   -6.8490   23.7700 C   0  0  0  0  0  3  0  0  0  0  0  0
  -21.2010   -6.0470   24.9230 C   0  0  0  0  0  3  0  0  0  0  0  0
  -21.5500   -4.6850   24.8700 C   0  0  0  0  0  0  0  0  0  0  0  0
  -22.0140   -4.1230   23.6680 C   0  0  0  0  0  3  0  0  0  0  0  0
  -22.1260   -4.9220   22.5160 C   0  0  0  0  0  0  0  0  0  0  0  0
  -22.5540   -4.3710   21.3550 F   0  0  0  0  0  0  0  0  0  0  0  0
  -21.4370   -3.9110   25.9750 F   0  0  0  0  0  0  0  0  0  0  0  0
  -22.9350  -13.6600   21.2200 C   0  0  0  0  0  0  0  0  0  0  0  0
  -22.2600  -12.9400   22.1090 N   0  0  0  0  0  0  0  0  0  0  0  0
  -22.4700  -14.7030   20.7610 O   0  0  0  0  0  0  0  0  0  0  0  0
  -22.6500  -12.0950   22.5000 H   0  0  0  0  0  0  0  0  0  0  0  0
  -21.3420  -13.2390   22.4040 H   0  0  0  0  0  0  0  0  0  0  0  0
  -25.5170  -15.3460   20.3010 N   0  0  0  0  0  0  0  0  0  0  0  0
  -24.7810  -16.0070   20.5230 H   0  0  0  0  0  0  0  0  0  0  0  0
  -26.3940  -15.7900   20.0630 H   0  0  0  0  0  0  0  0  0  0  0  0
  -28.7810  -20.3350   17.7120 N   0  0  0  0  0  0  0  0  0  0  0  0
  -28.9000  -19.6940   16.9360 H   0  0  0  0  0  0  0  0  0  0  0  0
  -29.0570  -21.2740   17.4470 H   0  0  0  0  0  0  0  0  0  0  0  0
  2  1  1  0
  3  4  1  0
  4 53  1  0
  4  1  2  0
  5  2  2  0
  6  3  2  0
  6  5  1  0
  7  9  2  0
  8  5  1  0
  8  7  1  0
 10  8  1  0
 11 12  1  0
 11  7  1  0
 13 24  2  0
 14 12  1  0
 14 19  1  0
 15 23  1  0
 15 25  1  0
 16 22  1  0
 16 18  1  0
 17 23  1  0
 18 19  2  0
 18 17  1  0
 20 14  2  0
 21 20  1  0
 21 16  2  0
 22 15  1  0
 23 13  1  0
 25 27  2  0
 26 25  1  0
 28 26  1  0
 29 38  2  0
 29 34  1  0
 30 26  1  0
 30 34  1  0
 31 30  1  0
 32 33  1  0
 32 31  1  0
 33 29  1  0
 34 35  2  0
 35 36  1  0
 37 36  2  0
 38 37  1  0
 39 13  1  0
 39 44  1  0
 39 40  1  0
 40 43  1  1
 40 41  1  0
 42 40  1  0
 44 47  1  0
 45 49  1  0
 45 44  1  0
 46 45  2  0
 49 48  1  0
 51 49  1  0
 51 52  1  0
 51 50  1  0
 53 54  2  0
 54 55  1  0
 56 53  1  0
 57 62  1  0
 58 59  1  0
 58 57  1  0
 60 59  1  0
 60 67  1  0
 60 61  1  0
 62 56  1  0
 62 61  1  0
 63 56  2  0
 64 65  2  0
 65 84  1  0
 66 65  1  0
 66 69  1  0
 67 68  1  0
 67 64  1  0
 68 66  2  0
 69 70  1  0
 70 71  2  0
 72 75  1  0
 72 71  1  0
 73 72  2  0
 74 73  1  0
 74 69  2  0
 75 76  1  0
 76 77  1  0
 77 78  2  0
 79 78  1  0
 79 83  1  0
 80 79  2  0
 81 76  2  0
 81 80  1  0
 82 81  1  0
 84 85  1  0
 85 88  1  0
 85 87  1  0
 86 84  2  0
 89 64  1  0
 89 90  1  0
 91 89  1  0
 92  6  1  0
 93 92  1  0
 94 92  1  0
M  ISO  4  11 101  12 101  53 100  56 100
M  END
>  <TORSDO>  (48) 
F 20

>  <SCORE>  (48) 
-13.727

>  <name>  (48) 
47

>  <ligand_id>  (48) 
47

>  <original_smiles>  (48) 
[H]N=C(C(=O)N1C([H])([H])C([H])([H])C([H])([H])C([H])(n2nc(-c3c([H])c([H])c(Oc4c([H])c([H])c(F)c([H])c4F)c([H])c3[H])c(C(=O)N([H])[H])c2N([H])[H])C1([H])[H])c1c([H])c([H])c(N([H])C(=O)C([H])([H])Oc2c([H])c([H])c3c(c2[H])C([H])([H])N(C(=O)C([H])(N([H])C(=O)C([H])(N([H])C([H])([H])[H])C([H])([H])[H])C(C([H])([H])[H])(C([H])([H])[H])C([H])([H])[H])C([H])(C(=O)N([H])C2([H])c4c([H])c([H])c([H])c([H])c4C([H])([H])C([H])([H])C2([H])[H])C3([H])[H])c(N([H])[H])c1[H]

>  <smiles>  (48) 
[H]N=C(C(=O)N1C([H])([H])C([H])([H])C([H])([H])C([H])(n2nc(-c3c([H])c([H])c(Oc4c([H])c([H])c(F)c([H])c4F)c([H])c3[H])c(C(=O)N([H])[H])c2N([H])[H])C1([H])[H])c1c([H])c([H])c(N([H])C(=O)C([H])([H])Oc2c([H])c([H])c3c(c2[H])C([H])([H])N(C(=O)C([H])(N([H])C(=O)C([H])(N([H])C([H])([H])[H])C([H])([H])[H])C(C([H])([H])[H])(C([H])([H])[H])C([H])([H])[H])C([H])(C(=O)N([H])C2([H])c4c([H])c([H])c([H])c([H])c4C([H])([H])C([H])([H])C2([H])[H])C3([H])[H])c(N([H])[H])c1[H]

$$$$
48:0:0
     RDKit          3D

 96104  0  0  1  0  0  0  0  0999 V2000
  -30.9580  -20.3600   20.2880 C   0  0  0  0  0  3  0  0  0  0  0  0
  -29.1200  -19.6010   18.9070 C   0  0  0  0  0  3  0  0  0  0  0  0
  -30.5250  -21.7010   20.1350 C   0  0  0  0  0  3  0  0  0  0  0  0
  -28.6920  -20.9390   18.7510 C   0  0  0  0  0  3  0  0  0  0  0  0
  -30.2760  -19.2870   19.6620 C   0  0  0  0  0  0  0  0  0  0  0  0
  -29.3890  -22.0160   19.3440 C   0  0  0  0  0  0  0  0  0  0  0  0
  -29.2370  -24.3690   19.7100 C   0  0  0  0  0  3  0  0  0  0  0  0
  -28.9680  -23.3250   19.0160 N   0  0  0  0  0  0  0  0  0  0  0  0
  -28.9580  -25.7940   19.2030 C   0  0  0  0  0  2  0  0  0  0  0  0
  -28.5930  -26.7430   20.2270 O   0  0  0  0  0  0  0  0  0  0  0  0
  -24.5680  -31.8230   23.1990 C   0  0  0  0  0  0  0  0  0  0  0  0
  -27.3930  -27.4360   20.1630 C   0  0  0  0  0  0  0  0  0  0  0  0
  -23.4440  -30.4240   21.4980 C   0  0  0  0  0  3  0  0  0  0  0  0
  -24.9710  -28.9180   20.1140 C   0  0  0  0  0  0  0  0  0  0  0  0
  -25.9730  -30.8120   21.4020 C   0  0  0  0  0  2  0  0  0  0  0  0
  -26.0990  -29.4460   20.7510 C   0  0  0  0  0  0  0  0  0  0  0  0
  -27.3080  -28.7100   20.7770 C   0  0  0  0  0  3  0  0  0  0  0  0
  -26.2320  -26.9150   19.5440 C   0  0  0  0  0  3  0  0  0  0  0  0
  -25.0330  -27.6500   19.5130 C   0  0  0  0  0  3  0  0  0  0  0  0
  -23.7160  -29.7610   20.1210 C   0  0  0  0  0  2  0  0  0  0  0  0
  -24.6780  -31.0340   22.0920 N   0  0  0  0  0  0  0  0  0  0  0  0
  -23.4630  -32.0760   23.7000 O   0  0  0  0  0  0  0  0  0  0  0  0
  -22.7700  -29.3840   22.4230 C   0  0  0  0  0  0  0  0  0  0  0  0
  -21.4520  -29.1940   22.2500 N   0  0  0  0  0  0  0  0  0  0  0  0
  -23.4320  -28.7520   23.2500 O   0  0  0  0  0  0  0  0  0  0  0  0
  -20.9800  -29.7570   21.5570 H   0  0  0  0  0  0  0  0  0  0  0  0
  -18.0650  -27.9960   22.6470 C   0  0  0  0  0  0  0  0  0  0  0  0
  -20.6170  -28.2390   22.9790 C   0  0  0  0  0  3  0  0  0  0  0  0
  -20.7290  -26.8230   22.3700 C   0  0  0  0  0  2  0  0  0  0  0  0
  -19.6480  -26.5300   21.3250 C   0  0  0  0  0  2  0  0  0  0  0  0
  -18.2530  -26.6630   21.9430 C   0  0  0  0  0  2  0  0  0  0  0  0
  -19.1760  -28.7440   23.1200 C   0  0  0  0  0  0  0  0  0  0  0  0
  -18.9490  -29.9930   23.7370 C   0  0  0  0  0  3  0  0  0  0  0  0
  -17.6420  -30.4940   23.8870 C   0  0  0  0  0  3  0  0  0  0  0  0
  -16.5450  -29.7430   23.4310 C   0  0  0  0  0  3  0  0  0  0  0  0
  -16.7570  -28.4960   22.8170 C   0  0  0  0  0  3  0  0  0  0  0  0
  -25.8200  -32.4640   23.8740 C   0  0  0  0  0  3  0  0  0  0  0  0
  -25.4840  -33.8570   24.1980 N   0  0  0  0  0  0  0  0  0  0  0  0
  -25.8210  -34.9150   23.4490 C   0  0  0  0  0  0  0  0  0  0  0  0
  -26.5190  -34.8220   22.4350 O   0  0  0  0  0  0  0  0  0  0  0  0
  -24.8660  -34.0030   24.9840 H   0  0  0  0  0  0  0  0  0  0  0  0
  -24.0780  -36.6830   23.0480 C   0  0  0  0  0  1  0  0  0  0  0  0
  -25.3010  -36.2950   23.8940 C   0  0  0  0  0  3  0  0  0  0  0  0
  -27.3930  -37.2160   24.7940 C   0  0  0  0  0  1  0  0  0  0  0  0
  -26.3230  -37.3630   23.8110 N   0  0  0  0  0  0  0  0  0  0  0  0
  -25.8980  -38.2780   23.9380 H   0  0  0  0  0  0  0  0  0  0  0  0
  -26.2960  -31.6910   25.1650 C   0  0  1  0  0  0  0  0  0  0  0  0
  -25.1630  -31.4250   26.1830 C   0  0  0  0  0  1  0  0  0  0  0  0
  -26.9180  -30.3270   24.7860 C   0  0  0  0  0  1  0  0  0  0  0  0
  -27.4030  -32.4980   25.8820 C   0  0  0  0  0  1  0  0  0  0  0  0
  -30.8320  -17.8380   19.7460 C   0  0  0  0  0  3  0  0  0  0  0  0
  -30.7250  -17.1800   18.4390 N   0  0  0  0  0  4  0  0  0  0  0  0
  -29.7670  -17.0230   18.1880 H   0  0  0  0  0  0  0  0  0  0  0  0
  -31.2090  -16.2940   18.5100 H   0  0  0  0  0  0  0  0  0  0  0  0
  -31.1690  -17.7400   17.7340 H   0  0  0  0  0  0  0  0  0  0  0  0
  -29.0330  -17.4570   21.5820 C   0  0  0  0  0  1  0  0  0  0  0  0
  -31.4130  -16.9680   22.0740 C   0  0  0  0  0  1  0  0  0  0  0  0
  -30.3440  -16.9270   20.9590 C   0  0  2  0  0  0  0  0  0  0  0  0
  -30.8160  -14.5190   20.0810 C   0  0  0  0  0  0  0  0  0  0  0  0
  -30.5160  -12.3610   18.9170 C   0  0  0  0  0  2  0  0  0  0  0  0
  -29.4990  -12.5470   17.7690 C   0  0  0  0  0  2  0  0  0  0  0  0
  -28.0520  -12.3910   18.2780 C   0  0  0  0  0  2  0  0  0  0  0  0
  -27.7740  -13.2200   19.5610 C   0  0  0  0  0  3  0  0  0  0  0  0
  -28.8870  -12.9900   20.6070 C   0  0  0  0  0  2  0  0  0  0  0  0
  -30.1760  -13.3240   19.9750 N   0  0  0  0  0  0  0  0  0  0  0  0
  -31.8890  -14.7770   19.5290 O   0  0  0  0  0  0  0  0  0  0  0  0
  -30.0760  -15.4960   20.6450 N   0  0  0  0  0  0  0  0  0  0  0  0
  -29.1890  -15.1580   20.9870 H   0  0  0  0  0  0  0  0  0  0  0  0
  -25.4180  -13.8180   20.4130 C   0  0  0  0  0  0  0  0  0  0  0  0
  -24.3700  -13.0400   20.8250 C   0  0  0  0  0  0  0  0  0  0  0  0
  -24.8260  -11.6890   20.7380 C   0  0  0  0  0  0  0  0  0  0  0  0
  -26.4470  -12.9410   20.1050 N   0  0  0  0  0  0  0  0  0  0  0  0
  -26.0960  -11.6540   20.3570 N   0  0  0  0  0  0  0  0  0  0  0  0
  -24.1090  -10.4230   20.9410 C   0  0  0  0  0  0  0  0  0  0  0  0
  -24.5210   -9.4900   21.9170 C   0  0  0  0  0  3  0  0  0  0  0  0
  -23.8050   -8.2890   22.1060 C   0  0  0  0  0  3  0  0  0  0  0  0
  -22.6630   -8.0120   21.3170 C   0  0  0  0  0  0  0  0  0  0  0  0
  -22.2710   -8.9340   20.3310 C   0  0  0  0  0  3  0  0  0  0  0  0
  -22.9880  -10.1270   20.1410 C   0  0  0  0  0  3  0  0  0  0  0  0
  -21.9220   -6.8590   21.4120 O   0  0  0  0  0  0  0  0  0  0  0  0
  -21.7550   -6.2070   22.6080 C   0  0  0  0  0  0  0  0  0  0  0  0
  -21.1310   -6.8260   23.7130 C   0  0  0  0  0  3  0  0  0  0  0  0
  -20.9170   -6.0970   24.8990 C   0  0  0  0  0  3  0  0  0  0  0  0
  -21.3170   -4.7500   24.9810 C   0  0  0  0  0  0  0  0  0  0  0  0
  -21.9340   -4.1300   23.8800 C   0  0  0  0  0  3  0  0  0  0  0  0
  -22.1500   -4.8570   22.6960 C   0  0  0  0  0  0  0  0  0  0  0  0
  -22.7270   -4.2500   21.6310 F   0  0  0  0  0  0  0  0  0  0  0  0
  -21.1050   -4.0470   26.1180 F   0  0  0  0  0  0  0  0  0  0  0  0
  -22.9920  -13.5130   21.1850 C   0  0  0  0  0  0  0  0  0  0  0  0
  -22.3070  -12.7920   22.0660 N   0  0  0  0  0  0  0  0  0  0  0  0
  -22.5320  -14.5560   20.7220 O   0  0  0  0  0  0  0  0  0  0  0  0
  -22.6910  -11.9460   22.4610 H   0  0  0  0  0  0  0  0  0  0  0  0
  -21.3840  -13.0910   22.3490 H   0  0  0  0  0  0  0  0  0  0  0  0
  -25.5760  -15.1920   20.2540 N   0  0  0  0  0  0  0  0  0  0  0  0
  -24.8140  -15.8410   20.4190 H   0  0  0  0  0  0  0  0  0  0  0  0
  -26.3970  -15.6380   19.8670 H   0  0  0  0  0  0  0  0  0  0  0  0
  2  5  1  0
  3  1  1  0
  4  2  2  0
  4  6  1  0
  5 51  1  0
  5  1  2  0
  6  3  2  0
  8  6  1  0
  8  7  2  0
  9  7  1  0
  9 10  1  0
 11 22  2  0
 12 10  1  0
 12 17  1  0
 13 21  1  0
 13 23  1  0
 14 20  1  0
 14 16  1  0
 15 21  1  0
 16 17  2  0
 16 15  1  0
 18 12  2  0
 19 18  1  0
 19 14  2  0
 20 13  1  0
 21 11  1  0
 23 25  2  0
 24 23  1  0
 26 24  1  0
 27 36  2  0
 27 32  1  0
 28 24  1  0
 28 32  1  0
 29 28  1  0
 30 31  1  0
 30 29  1  0
 31 27  1  0
 32 33  2  0
 33 34  1  0
 35 34  2  0
 36 35  1  0
 37 11  1  0
 37 38  1  0
 37 47  1  0
 38 41  1  0
 39 43  1  0
 39 38  1  0
 40 39  2  0
 43 42  1  0
 45 43  1  0
 45 46  1  0
 45 44  1  0
 47 50  1  1
 47 48  1  0
 49 47  1  0
 51 58  1  0
 52 54  1  0
 52 51  1  0
 53 52  1  0
 55 52  1  0
 58 56  1  1
 58 57  1  0
 59 67  1  0
 60 65  1  0
 61 62  1  0
 61 60  1  0
 63 62  1  0
 63 72  1  0
 63 64  1  0
 65 59  1  0
 65 64  1  0
 66 59  2  0
 67 58  1  0
 67 68  1  0
 69 70  2  0
 70 89  1  0
 71 70  1  0
 71 74  1  0
 72 73  1  0
 72 69  1  0
 73 71  2  0
 74 75  1  0
 75 76  2  0
 77 80  1  0
 77 76  1  0
 78 77  2  0
 79 78  1  0
 79 74  2  0
 80 81  1  0
 81 86  2  0
 81 82  1  0
 82 83  2  0
 83 84  1  0
 84 88  1  0
 85 84  2  0
 86 85  1  0
 87 86  1  0
 89 90  1  0
 90 93  1  0
 90 92  1  0
 91 89  2  0
 94 69  1  0
 94 95  1  0
 96 94  1  0
M  ISO  4   9 101  10 101  59 100  67 100
M  END
>  <TORSDO>  (49) 
F 21

>  <SCORE>  (49) 
-12.684

>  <name>  (49) 
48

>  <ligand_id>  (49) 
48

>  <original_smiles>  (49) 
[H]C(=Nc1c([H])c([H])c(C([H])(C(N([H])C(=O)N2C([H])([H])C([H])([H])C([H])([H])C([H])(n3nc(-c4c([H])c([H])c(Oc5c([H])c([H])c(F)c([H])c5F)c([H])c4[H])c(C(=O)N([H])[H])c3N([H])[H])C2([H])[H])(C([H])([H])[H])C([H])([H])[H])[N+]([H])([H])[H])c([H])c1[H])C([H])([H])Oc1c([H])c([H])c2c(c1[H])C([H])([H])N(C(=O)C([H])(N([H])C(=O)C([H])(N([H])C([H])([H])[H])C([H])([H])[H])C(C([H])([H])[H])(C([H])([H])[H])C([H])([H])[H])C([H])(C(=O)N([H])C1([H])c3c([H])c([H])c([H])c([H])c3C([H])([H])C([H])([H])C1([H])[H])C2([H])[H]

>  <smiles>  (49) 
[H]C(=Nc1c([H])c([H])c(C([H])(C(N([H])C(=O)N2C([H])([H])C([H])([H])C([H])([H])C([H])(n3nc(-c4c([H])c([H])c(Oc5c([H])c([H])c(F)c([H])c5F)c([H])c4[H])c(C(=O)N([H])[H])c3N([H])[H])C2([H])[H])(C([H])([H])[H])C([H])([H])[H])[N+]([H])([H])[H])c([H])c1[H])C([H])([H])Oc1c([H])c([H])c2c(c1[H])C([H])([H])N(C(=O)C([H])(N([H])C(=O)C([H])(N([H])C([H])([H])[H])C([H])([H])[H])C(C([H])([H])[H])(C([H])([H])[H])C([H])([H])[H])C([H])(C(=O)N([H])C1([H])c3c([H])c([H])c([H])c([H])c3C([H])([H])C([H])([H])C1([H])[H])C2([H])[H]

$$$$
49:0:0
     RDKit          3D

 94103  0  0  1  0  0  0  0  0999 V2000
  -29.8870  -21.1270   19.7540 C   0  0  0  0  0  0  0  0  0  0  0  0
  -28.0730  -23.3750   22.0880 C   0  0  0  0  0  2  0  0  0  0  0  0
  -28.3230  -21.9410   21.5810 C   0  0  0  0  0  2  0  0  0  0  0  0
  -29.2000  -23.5070   19.9870 C   0  0  0  0  0  2  0  0  0  0  0  0
  -28.1900  -24.2810   20.8560 C   0  0  0  0  0  3  0  0  0  0  0  0
  -29.1440  -22.0830   20.3780 N   0  0  0  0  0  0  0  0  0  0  0  0
  -30.6250  -21.4150   18.8070 O   0  0  0  0  0  0  0  0  0  0  0  0
  -28.7010  -18.8980   20.2720 C   0  0  0  0  0  3  0  0  0  0  0  0
  -28.7700  -17.5080   20.5410 C   0  0  0  0  0  3  0  0  0  0  0  0
  -31.1140  -19.0380   20.4780 C   0  0  0  0  0  3  0  0  0  0  0  0
  -29.8810  -19.6810   20.2170 C   0  0  0  0  0  0  0  0  0  0  0  0
  -30.0130  -16.8610   20.7520 C   0  0  0  0  0  0  0  0  0  0  0  0
  -31.1840  -17.6580   20.7720 C   0  0  0  0  0  0  0  0  0  0  0  0
  -32.3850  -17.1220   21.0870 F   0  0  0  0  0  0  0  0  0  0  0  0
  -30.6900  -14.5170   20.2320 C   0  0  0  0  0  0  0  0  0  0  0  0
  -30.3750  -12.3930   19.0100 C   0  0  0  0  0  2  0  0  0  0  0  0
  -29.3800  -12.6150   17.8510 C   0  0  0  0  0  2  0  0  0  0  0  0
  -27.9210  -12.4770   18.3320 C   0  0  0  0  0  2  0  0  0  0  0  0
  -27.6380  -13.2740   19.6340 C   0  0  0  0  0  3  0  0  0  0  0  0
  -28.7310  -12.9940   20.6880 C   0  0  0  0  0  2  0  0  0  0  0  0
  -30.0370  -13.3300   20.0930 N   0  0  0  0  0  0  0  0  0  0  0  0
  -31.7630  -14.7430   19.6660 O   0  0  0  0  0  0  0  0  0  0  0  0
  -30.0260  -15.4430   20.9610 N   0  0  0  0  0  0  0  0  0  0  0  0
  -29.2040  -15.0650   21.4040 H   0  0  0  0  0  0  0  0  0  0  0  0
  -25.2630  -13.8720   20.4380 C   0  0  0  0  0  0  0  0  0  0  0  0
  -24.2100  -13.0940   20.8370 C   0  0  0  0  0  0  0  0  0  0  0  0
  -24.6700  -11.7440   20.7680 C   0  0  0  0  0  0  0  0  0  0  0  0
  -26.2990  -12.9950   20.1550 N   0  0  0  0  0  0  0  0  0  0  0  0
  -25.9470  -11.7090   20.4090 N   0  0  0  0  0  0  0  0  0  0  0  0
  -23.9530  -10.4790   20.9630 C   0  0  0  0  0  0  0  0  0  0  0  0
  -24.3890   -9.5180   21.9000 C   0  0  0  0  0  3  0  0  0  0  0  0
  -23.6730   -8.3160   22.0810 C   0  0  0  0  0  3  0  0  0  0  0  0
  -22.5040   -8.0660   21.3250 C   0  0  0  0  0  0  0  0  0  0  0  0
  -22.0870   -9.0150   20.3740 C   0  0  0  0  0  3  0  0  0  0  0  0
  -22.8050  -10.2080   20.1910 C   0  0  0  0  0  3  0  0  0  0  0  0
  -21.7550   -6.9190   21.4190 O   0  0  0  0  0  0  0  0  0  0  0  0
  -21.6740   -6.2030   22.5850 C   0  0  0  0  0  0  0  0  0  0  0  0
  -21.1620   -6.7710   23.7730 C   0  0  0  0  0  3  0  0  0  0  0  0
  -21.0320   -5.9800   24.9320 C   0  0  0  0  0  3  0  0  0  0  0  0
  -21.4030   -4.6220   24.9050 C   0  0  0  0  0  0  0  0  0  0  0  0
  -21.9100   -4.0550   23.7230 C   0  0  0  0  0  3  0  0  0  0  0  0
  -22.0420   -4.8420   22.5660 C   0  0  0  0  0  0  0  0  0  0  0  0
  -22.5090   -4.2840   21.4240 F   0  0  0  0  0  0  0  0  0  0  0  0
  -21.2710   -3.8610   26.0160 F   0  0  0  0  0  0  0  0  0  0  0  0
  -22.8250  -13.5670   21.1690 C   0  0  0  0  0  0  0  0  0  0  0  0
  -22.1240  -12.8500   22.0400 N   0  0  0  0  0  0  0  0  0  0  0  0
  -22.3730  -14.6080   20.6920 O   0  0  0  0  0  0  0  0  0  0  0  0
  -22.5020  -12.0090   22.4500 H   0  0  0  0  0  0  0  0  0  0  0  0
  -21.1940  -13.1460   22.3020 H   0  0  0  0  0  0  0  0  0  0  0  0
  -25.4190  -15.2450   20.2750 N   0  0  0  0  0  0  0  0  0  0  0  0
  -24.6470  -15.8870   20.4150 H   0  0  0  0  0  0  0  0  0  0  0  0
  -26.2300  -15.6830   19.8590 H   0  0  0  0  0  0  0  0  0  0  0  0
  -28.5580  -25.7610   21.1900 C   0  0  0  0  0  2  0  0  0  0  0  0
  -28.4310  -26.6990   20.1050 O   0  0  0  0  0  0  0  0  0  0  0  0
  -24.6010  -31.8920   23.1700 C   0  0  0  0  0  0  0  0  0  0  0  0
  -27.2790  -27.4540   20.1150 C   0  0  0  0  0  0  0  0  0  0  0  0
  -23.4100  -30.4870   21.5150 C   0  0  0  0  0  3  0  0  0  0  0  0
  -24.8810  -28.9530   20.1000 C   0  0  0  0  0  0  0  0  0  0  0  0
  -25.9350  -30.8550   21.3350 C   0  0  0  0  0  2  0  0  0  0  0  0
  -26.0320  -29.4820   20.7000 C   0  0  0  0  0  0  0  0  0  0  0  0
  -27.2360  -28.7390   20.7070 C   0  0  0  0  0  3  0  0  0  0  0  0
  -26.1180  -26.9420   19.5040 C   0  0  0  0  0  3  0  0  0  0  0  0
  -24.9190  -27.6820   19.4990 C   0  0  0  0  0  3  0  0  0  0  0  0
  -23.6330  -29.8070   20.1370 C   0  0  0  0  0  2  0  0  0  0  0  0
  -24.6650  -31.0940   22.0640 N   0  0  0  0  0  0  0  0  0  0  0  0
  -23.5150  -32.1570   23.7050 O   0  0  0  0  0  0  0  0  0  0  0  0
  -22.7580  -29.4630   22.4740 C   0  0  0  0  0  0  0  0  0  0  0  0
  -21.4320  -29.2880   22.3560 N   0  0  0  0  0  0  0  0  0  0  0  0
  -23.4440  -28.8260   23.2790 O   0  0  0  0  0  0  0  0  0  0  0  0
  -20.9400  -29.8540   21.6790 H   0  0  0  0  0  0  0  0  0  0  0  0
  -18.0510  -28.1380   22.8980 C   0  0  0  0  0  0  0  0  0  0  0  0
  -20.6170  -28.3470   23.1230 C   0  0  0  0  0  3  0  0  0  0  0  0
  -20.6830  -26.9280   22.5130 C   0  0  0  0  0  2  0  0  0  0  0  0
  -19.5550  -26.6470   21.5140 C   0  0  0  0  0  2  0  0  0  0  0  0
  -18.1900  -26.8010   22.1900 C   0  0  0  0  0  2  0  0  0  0  0  0
  -19.1910  -28.8710   23.3220 C   0  0  0  0  0  0  0  0  0  0  0  0
  -19.0070  -30.1250   23.9460 C   0  0  0  0  0  3  0  0  0  0  0  0
  -17.7160  -30.6450   24.1490 C   0  0  0  0  0  3  0  0  0  0  0  0
  -16.5900  -29.9090   23.7420 C   0  0  0  0  0  3  0  0  0  0  0  0
  -16.7580  -28.6570   23.1220 C   0  0  0  0  0  3  0  0  0  0  0  0
  -25.8800  -32.5300   23.7960 C   0  0  0  0  0  3  0  0  0  0  0  0
  -25.5590  -33.9210   24.1390 N   0  0  0  0  0  0  0  0  0  0  0  0
  -25.8900  -34.9830   23.3900 C   0  0  0  0  0  0  0  0  0  0  0  0
  -26.5680  -34.8950   22.3630 O   0  0  0  0  0  0  0  0  0  0  0  0
  -24.9620  -34.0650   24.9390 H   0  0  0  0  0  0  0  0  0  0  0  0
  -24.1630  -36.7730   23.0270 C   0  0  0  0  0  1  0  0  0  0  0  0
  -25.3890  -36.3630   23.8580 C   0  0  0  0  0  3  0  0  0  0  0  0
  -27.4980  -37.2480   24.7500 C   0  0  0  0  0  1  0  0  0  0  0  0
  -26.4190  -37.4210   23.7800 N   0  0  0  0  0  0  0  0  0  0  0  0
  -26.0050  -38.3380   23.9240 H   0  0  0  0  0  0  0  0  0  0  0  0
  -26.4050  -31.7510   25.0650 C   0  0  1  0  0  0  0  0  0  0  0  0
  -25.3170  -31.4880   26.1300 C   0  0  0  0  0  1  0  0  0  0  0  0
  -27.0070  -30.3860   24.6560 C   0  0  0  0  0  1  0  0  0  0  0  0
  -27.5440  -32.5530   25.7400 C   0  0  0  0  0  1  0  0  0  0  0  0
  1 11  1  0
  1  6  1  0
  3  2  1  0
  4  6  1  0
  4  5  1  0
  5 53  1  0
  5  2  1  0
  6  3  1  0
  7  1  2  0
  8  9  1  0
  9 12  2  0
 10 13  2  0
 11  8  2  0
 11 10  1  0
 12 13  1  0
 12 23  1  0
 13 14  1  0
 15 23  1  0
 16 21  1  0
 17 18  1  0
 17 16  1  0
 19 18  1  0
 19 28  1  0
 19 20  1  0
 21 15  1  0
 21 20  1  0
 22 15  2  0
 23 24  1  0
 25 26  2  0
 26 45  1  0
 27 26  1  0
 27 30  1  0
 28 29  1  0
 28 25  1  0
 29 27  2  0
 30 31  1  0
 31 32  2  0
 33 36  1  0
 33 32  1  0
 34 33  2  0
 35 34  1  0
 35 30  2  0
 36 37  1  0
 37 38  1  0
 38 39  2  0
 40 39  1  0
 40 44  1  0
 41 40  2  0
 42 37  2  0
 42 41  1  0
 43 42  1  0
 45 46  1  0
 46 49  1  0
 46 48  1  0
 47 45  2  0
 50 51  1  0
 50 25  1  0
 52 50  1  0
 54 56  1  0
 54 53  1  0
 55 66  2  0
 56 61  1  0
 57 65  1  0
 57 67  1  0
 58 64  1  0
 58 60  1  0
 59 65  1  0
 60 61  2  0
 60 59  1  0
 62 56  2  0
 63 62  1  0
 63 58  2  0
 64 57  1  0
 65 55  1  0
 67 69  2  0
 68 67  1  0
 70 68  1  0
 71 80  2  0
 71 76  1  0
 72 68  1  0
 72 76  1  0
 73 72  1  0
 74 75  1  0
 74 73  1  0
 75 71  1  0
 76 77  2  0
 77 78  1  0
 79 78  2  0
 80 79  1  0
 81 55  1  0
 81 82  1  0
 81 91  1  0
 82 85  1  0
 83 87  1  0
 83 82  1  0
 84 83  2  0
 87 86  1  0
 89 87  1  0
 89 90  1  0
 89 88  1  0
 91 94  1  1
 91 92  1  0
 93 91  1  0
M  ISO  4  15 100  23 100  53 101  54 101
M  END
>  <TORSDO>  (50) 
F 18

>  <SCORE>  (50) 
-14.940

>  <name>  (50) 
49

>  <ligand_id>  (50) 
49

>  <original_smiles>  (50) 
[H]c1c([H])c([H])c2c(c1[H])C([H])([H])C([H])([H])C([H])([H])C2([H])N([H])C(=O)C1([H])N(C(=O)C([H])(N([H])C(=O)C([H])(N([H])C([H])([H])[H])C([H])([H])[H])C(C([H])([H])[H])(C([H])([H])[H])C([H])([H])[H])C([H])([H])c2c([H])c(OC([H])([H])C3([H])C([H])([H])N(C(=O)c4c([H])c([H])c(N([H])C(=O)N5C([H])([H])C([H])([H])C([H])([H])C([H])(n6nc(-c7c([H])c([H])c(Oc8c([H])c([H])c(F)c([H])c8F)c([H])c7[H])c(C(=O)N([H])[H])c6N([H])[H])C5([H])[H])c(F)c4[H])C([H])([H])C3([H])[H])c([H])c([H])c2C1([H])[H]

>  <smiles>  (50) 
[H]c1c([H])c([H])c2c(c1[H])C([H])([H])C([H])([H])C([H])([H])C2([H])N([H])C(=O)C1([H])N(C(=O)C([H])(N([H])C(=O)C([H])(N([H])C([H])([H])[H])C([H])([H])[H])C(C([H])([H])[H])(C([H])([H])[H])C([H])([H])[H])C([H])([H])c2c([H])c(OC([H])([H])C3([H])C([H])([H])N(C(=O)c4c([H])c([H])c(N([H])C(=O)N5C([H])([H])C([H])([H])C([H])([H])C([H])(n6nc(-c7c([H])c([H])c(Oc8c([H])c([H])c(F)c([H])c8F)c([H])c7[H])c(C(=O)N([H])[H])c6N([H])[H])C5([H])[H])c(F)c4[H])C([H])([H])C3([H])[H])c([H])c([H])c2C1([H])[H]

$$$$
50:0:0
     RDKit          3D

 94102  0  0  1  0  0  0  0  0999 V2000
  -28.5400  -18.3190   20.4190 C   0  0  0  0  0  3  0  0  0  0  0  0
  -28.2890  -19.7430   20.2860 C   0  0  0  0  0  3  0  0  0  0  0  0
  -30.6850  -18.5920   19.4620 C   0  0  0  0  0  3  0  0  0  0  0  0
  -29.7580  -17.6430   20.0360 C   0  0  0  0  0  0  0  0  0  0  0  0
  -29.2210  -20.6940   19.7510 C   0  0  0  0  0  0  0  0  0  0  0  0
  -30.4290  -20.0270   19.3250 C   0  0  0  0  0  0  0  0  0  0  0  0
  -30.6490  -15.0530   19.7930 C   0  0  0  0  0  0  0  0  0  0  0  0
  -30.4340  -12.7360   18.7470 C   0  0  0  0  0  2  0  0  0  0  0  0
  -29.3920  -12.7730   17.6020 C   0  0  0  0  0  2  0  0  0  0  0  0
  -27.9640  -12.5570   18.1440 C   0  0  0  0  0  2  0  0  0  0  0  0
  -27.6860  -13.3910   19.4200 C   0  0  0  0  0  3  0  0  0  0  0  0
  -28.8430  -13.2920   20.4310 C   0  0  0  0  0  2  0  0  0  0  0  0
  -30.0580  -13.7780   19.7490 N   0  0  0  0  0  0  0  0  0  0  0  0
  -31.7360  -15.1730   19.2180 O   0  0  0  0  0  0  0  0  0  0  0  0
  -30.0150  -16.1710   20.4300 N   0  0  0  0  0  0  0  0  0  0  0  0
  -25.4000  -13.9360   20.4330 C   0  0  0  0  0  0  0  0  0  0  0  0
  -24.3720  -13.1490   20.8690 C   0  0  0  0  0  0  0  0  0  0  0  0
  -24.8140  -11.7970   20.7100 C   0  0  0  0  0  0  0  0  0  0  0  0
  -26.3980  -13.0670   20.0310 N   0  0  0  0  0  0  0  0  0  0  0  0
  -26.0650  -11.7710   20.2590 N   0  0  0  0  0  0  0  0  0  0  0  0
  -24.0930  -10.5340   20.9020 C   0  0  0  0  0  0  0  0  0  0  0  0
  -24.5430   -9.5600   21.8220 C   0  0  0  0  0  3  0  0  0  0  0  0
  -23.8200   -8.3610   22.0070 C   0  0  0  0  0  3  0  0  0  0  0  0
  -22.6320   -8.1270   21.2740 C   0  0  0  0  0  0  0  0  0  0  0  0
  -22.2030   -9.0890   20.3420 C   0  0  0  0  0  3  0  0  0  0  0  0
  -22.9260  -10.2790   20.1540 C   0  0  0  0  0  3  0  0  0  0  0  0
  -21.8800   -6.9820   21.3690 O   0  0  0  0  0  0  0  0  0  0  0  0
  -21.7570   -6.2970   22.5500 C   0  0  0  0  0  0  0  0  0  0  0  0
  -21.2330   -6.9040   23.7120 C   0  0  0  0  0  3  0  0  0  0  0  0
  -21.0540   -6.1440   24.8860 C   0  0  0  0  0  3  0  0  0  0  0  0
  -21.3930   -4.7780   24.8980 C   0  0  0  0  0  0  0  0  0  0  0  0
  -21.9070   -4.1680   23.7390 C   0  0  0  0  0  3  0  0  0  0  0  0
  -22.0870   -4.9260   22.5680 C   0  0  0  0  0  0  0  0  0  0  0  0
  -22.5650   -4.3280   21.4500 F   0  0  0  0  0  0  0  0  0  0  0  0
  -21.2150   -4.0440   26.0220 F   0  0  0  0  0  0  0  0  0  0  0  0
  -23.0170  -13.6210   21.3130 C   0  0  0  0  0  0  0  0  0  0  0  0
  -22.3830  -12.8930   22.2260 N   0  0  0  0  0  0  0  0  0  0  0  0
  -22.5330  -14.6690   20.8890 O   0  0  0  0  0  0  0  0  0  0  0  0
  -22.7840  -12.0420   22.5920 H   0  0  0  0  0  0  0  0  0  0  0  0
  -21.4780  -13.1890   22.5650 H   0  0  0  0  0  0  0  0  0  0  0  0
  -25.5610  -15.3130   20.3180 N   0  0  0  0  0  0  0  0  0  0  0  0
  -24.8090  -15.9640   20.5310 H   0  0  0  0  0  0  0  0  0  0  0  0
  -26.3600  -15.7620   19.8930 H   0  0  0  0  0  0  0  0  0  0  0  0
  -30.5760  -16.9370   22.7890 C   0  0  0  0  0  1  0  0  0  0  0  0
  -29.8040  -15.9580   21.8800 C   0  0  0  0  0  2  0  0  0  0  0  0
  -28.8900  -23.4150   20.0980 C   0  0  0  0  0  0  0  0  0  0  0  0
  -28.8310  -22.1490   19.4470 N   0  0  0  0  0  0  0  0  0  0  0  0
  -29.5110  -23.5210   21.1610 O   0  0  0  0  0  0  0  0  0  0  0  0
  -28.3290  -22.2290   18.5730 H   0  0  0  0  0  0  0  0  0  0  0  0
  -28.1500  -24.7810   19.5000 C   0  0  0  0  0  2  0  0  0  0  0  0
  -28.2470  -26.2100   20.1400 O   0  0  0  0  0  0  0  0  0  0  0  0
  -24.6230  -31.8890   23.2330 C   0  0  0  0  0  0  0  0  0  0  0  0
  -27.1870  -27.2000   20.0840 C   0  0  0  0  0  0  0  0  0  0  0  0
  -23.4130  -30.5000   21.6000 C   0  0  0  0  0  3  0  0  0  0  0  0
  -24.8480  -28.9430   20.1410 C   0  0  0  0  0  0  0  0  0  0  0  0
  -25.9690  -30.7670   21.4090 C   0  0  0  0  0  2  0  0  0  0  0  0
  -26.0380  -29.3810   20.7390 C   0  0  0  0  0  0  0  0  0  0  0  0
  -27.2040  -28.5200   20.7000 C   0  0  0  0  0  3  0  0  0  0  0  0
  -25.9730  -26.8880   19.4320 C   0  0  0  0  0  3  0  0  0  0  0  0
  -24.8280  -27.7080   19.4810 C   0  0  0  0  0  3  0  0  0  0  0  0
  -23.6220  -29.8400   20.2120 C   0  0  0  0  0  2  0  0  0  0  0  0
  -24.6900  -31.0740   22.1360 N   0  0  0  0  0  0  0  0  0  0  0  0
  -23.5410  -32.1660   23.7730 O   0  0  0  0  0  0  0  0  0  0  0  0
  -22.7470  -29.4820   22.5580 C   0  0  0  0  0  0  0  0  0  0  0  0
  -21.4250  -29.2830   22.4200 N   0  0  0  0  0  0  0  0  0  0  0  0
  -23.4220  -28.8750   23.3920 O   0  0  0  0  0  0  0  0  0  0  0  0
  -20.9360  -29.8260   21.7230 H   0  0  0  0  0  0  0  0  0  0  0  0
  -18.0730  -27.9680   22.8490 C   0  0  0  0  0  0  0  0  0  0  0  0
  -20.6130  -28.3310   23.1850 C   0  0  0  0  0  3  0  0  0  0  0  0
  -20.7830  -26.8920   22.6430 C   0  0  0  0  0  2  0  0  0  0  0  0
  -19.7220  -26.5070   21.6060 C   0  0  0  0  0  2  0  0  0  0  0  0
  -18.3170  -26.6140   22.2060 C   0  0  0  0  0  2  0  0  0  0  0  0
  -19.1500  -28.7810   23.2950 C   0  0  0  0  0  0  0  0  0  0  0  0
  -18.8640  -30.0450   23.8560 C   0  0  0  0  0  3  0  0  0  0  0  0
  -17.5360  -30.4980   23.9760 C   0  0  0  0  0  3  0  0  0  0  0  0
  -16.4750  -29.6830   23.5470 C   0  0  0  0  0  3  0  0  0  0  0  0
  -16.7440  -28.4200   22.9890 C   0  0  0  0  0  3  0  0  0  0  0  0
  -25.9040  -32.5230   23.8560 C   0  0  0  0  0  3  0  0  0  0  0  0
  -26.4040  -31.7660   25.1470 C   0  0  1  0  0  0  0  0  0  0  0  0
  -25.3010  -31.5480   26.2110 C   0  0  0  0  0  1  0  0  0  0  0  0
  -26.9800  -30.3800   24.7790 C   0  0  0  0  0  1  0  0  0  0  0  0
  -27.5550  -32.5600   25.8090 C   0  0  0  0  0  1  0  0  0  0  0  0
  -25.6030  -33.9280   24.1740 N   0  0  0  0  0  0  0  0  0  0  0  0
  -25.9230  -34.9710   23.3960 C   0  0  0  0  0  0  0  0  0  0  0  0
  -26.5700  -34.8530   22.3530 O   0  0  0  0  0  0  0  0  0  0  0  0
  -25.0320  -34.0970   24.9870 H   0  0  0  0  0  0  0  0  0  0  0  0
  -24.1860  -36.7650   23.0720 C   0  0  0  0  0  1  0  0  0  0  0  0
  -25.4530  -36.3690   23.8480 C   0  0  0  0  0  3  0  0  0  0  0  0
  -27.6120  -37.2680   24.5980 C   0  0  0  0  0  1  0  0  0  0  0  0
  -26.4830  -37.4170   23.6830 N   0  0  0  0  0  0  0  0  0  0  0  0
  -26.0840  -38.3420   23.8200 H   0  0  0  0  0  0  0  0  0  0  0  0
  -31.4250  -20.8150   18.7430 N   0  0  0  0  0  0  0  0  0  0  0  0
  -31.3290  -21.8150   18.8770 H   0  0  0  0  0  0  0  0  0  0  0  0
  -32.3860  -20.5090   18.8710 H   0  0  0  0  0  0  0  0  0  0  0  0
  2  1  1  0
  3  4  1  0
  4  1  2  0
  4 15  1  0
  5  2  2  0
  6  3  2  0
  6  5  1  0
  7 15  1  0
  8 13  1  0
  9 10  1  0
  9  8  1  0
 11 10  1  0
 11 19  1  0
 11 12  1  0
 13  7  1  0
 13 12  1  0
 14  7  2  0
 15 45  1  0
 16 17  2  0
 17 36  1  0
 18 17  1  0
 18 21  1  0
 19 20  1  0
 19 16  1  0
 20 18  2  0
 21 22  1  0
 22 23  2  0
 24 27  1  0
 24 23  1  0
 25 24  2  0
 26 25  1  0
 26 21  2  0
 27 28  1  0
 28 33  2  0
 28 29  1  0
 29 30  2  0
 30 31  1  0
 31 35  1  0
 32 31  2  0
 33 32  1  0
 34 33  1  0
 36 37  1  0
 37 40  1  0
 37 39  1  0
 38 36  2  0
 41 16  1  0
 41 42  1  0
 43 41  1  0
 45 44  1  0
 46 48  2  0
 47  5  1  0
 47 46  1  0
 49 47  1  0
 50 46  1  0
 50 51  1  0
 52 63  2  0
 53 51  1  0
 53 58  1  0
 54 62  1  0
 54 64  1  0
 55 61  1  0
 55 57  1  0
 56 62  1  0
 57 56  1  0
 58 57  2  0
 59 60  1  0
 59 53  2  0
 60 55  2  0
 61 54  1  0
 62 52  1  0
 64 66  2  0
 65 64  1  0
 67 65  1  0
 68 77  2  0
 68 73  1  0
 69 65  1  0
 69 73  1  0
 70 69  1  0
 71 72  1  0
 71 70  1  0
 72 68  1  0
 73 74  2  0
 74 75  1  0
 76 75  2  0
 77 76  1  0
 78 52  1  0
 78 83  1  0
 78 79  1  0
 79 82  1  1
 79 80  1  0
 81 79  1  0
 83 86  1  0
 84 88  1  0
 84 83  1  0
 85 84  2  0
 88 87  1  0
 90 91  1  0
 90 88  1  0
 90 89  1  0
 92 94  1  0
 92 93  1  0
 92  6  1  0
M  ISO  4   7 100  15 100  50 101  51 101
M  END
>  <TORSDO>  (51) 
F 20

>  <SCORE>  (51) 
-13.268

>  <name>  (51) 
50

>  <ligand_id>  (51) 
50

>  <original_smiles>  (51) 
[H]c1c([H])c([H])c2c(c1[H])C([H])([H])C([H])([H])C([H])([H])C2([H])N([H])C(=O)C1([H])N(C(=O)C([H])(N([H])C(=O)C([H])(N([H])C([H])([H])[H])C([H])([H])[H])C(C([H])([H])[H])(C([H])([H])[H])C([H])([H])[H])C([H])([H])c2c([H])c(OC([H])([H])C(=O)N([H])c3c([H])c([H])c(N(C(=O)N4C([H])([H])C([H])([H])C([H])([H])C([H])(n5nc(-c6c([H])c([H])c(Oc7c([H])c([H])c(F)c([H])c7F)c([H])c6[H])c(C(=O)N([H])[H])c5N([H])[H])C4([H])[H])C([H])([H])C([H])([H])[H])c([H])c3N([H])[H])c([H])c([H])c2C1([H])[H]

>  <smiles>  (51) 
[H]c1c([H])c([H])c2c(c1[H])C([H])([H])C([H])([H])C([H])([H])C2([H])N([H])C(=O)C1([H])N(C(=O)C([H])(N([H])C(=O)C([H])(N([H])C([H])([H])[H])C([H])([H])[H])C(C([H])([H])[H])(C([H])([H])[H])C([H])([H])[H])C([H])([H])c2c([H])c(OC([H])([H])C(=O)N([H])c3c([H])c([H])c(N(C(=O)N4C([H])([H])C([H])([H])C([H])([H])C([H])(n5nc(-c6c([H])c([H])c(Oc7c([H])c([H])c(F)c([H])c7F)c([H])c6[H])c(C(=O)N([H])[H])c5N([H])[H])C4([H])[H])C([H])([H])C([H])([H])[H])c([H])c3N([H])[H])c([H])c([H])c2C1([H])[H]

$$$$
51:0:0
     RDKit          3D

 94102  0  0  1  0  0  0  0  0999 V2000
  -29.6790  -18.4520   20.7810 C   0  0  0  0  0  3  0  0  0  0  0  0
  -30.2650  -18.5210   18.0630 C   0  0  0  0  0  3  0  0  0  0  0  0
  -29.6960  -19.7470   20.1200 C   0  0  0  0  0  0  0  0  0  0  0  0
  -29.9680  -17.1970   20.1090 C   0  0  0  0  0  0  0  0  0  0  0  0
  -30.0150  -19.7370   18.7360 C   0  0  0  0  0  0  0  0  0  0  0  0
  -30.2340  -17.2790   18.7220 C   0  0  0  0  0  0  0  0  0  0  0  0
  -30.4270  -16.1580   17.9820 F   0  0  0  0  0  0  0  0  0  0  0  0
  -30.6650  -14.7490   20.4700 C   0  0  0  0  0  0  0  0  0  0  0  0
  -30.4710  -12.4990   19.4380 C   0  0  0  0  0  2  0  0  0  0  0  0
  -29.5620  -12.6240   18.1940 C   0  0  0  0  0  2  0  0  0  0  0  0
  -28.0790  -12.4630   18.5850 C   0  0  0  0  0  2  0  0  0  0  0  0
  -27.6890  -13.3210   19.8170 C   0  0  0  0  0  3  0  0  0  0  0  0
  -28.7210  -13.1880   20.9580 C   0  0  0  0  0  2  0  0  0  0  0  0
  -30.0390  -13.5290   20.4080 N   0  0  0  0  0  0  0  0  0  0  0  0
  -31.8530  -14.8590   20.1520 O   0  0  0  0  0  0  0  0  0  0  0  0
  -29.9000  -15.8650   20.7440 N   0  0  0  0  0  0  0  0  0  0  0  0
  -29.0270  -15.6710   21.2090 H   0  0  0  0  0  0  0  0  0  0  0  0
  -25.2710  -13.9030   20.4630 C   0  0  0  0  0  0  0  0  0  0  0  0
  -24.2000  -13.1270   20.8160 C   0  0  0  0  0  0  0  0  0  0  0  0
  -24.6750  -11.7800   20.8210 C   0  0  0  0  0  0  0  0  0  0  0  0
  -26.3300  -13.0300   20.2710 N   0  0  0  0  0  0  0  0  0  0  0  0
  -25.9750  -11.7480   20.5510 N   0  0  0  0  0  0  0  0  0  0  0  0
  -23.9540  -10.5150   21.0160 C   0  0  0  0  0  0  0  0  0  0  0  0
  -24.3710   -9.5620   21.9700 C   0  0  0  0  0  3  0  0  0  0  0  0
  -23.6500   -8.3630   22.1490 C   0  0  0  0  0  3  0  0  0  0  0  0
  -22.4940   -8.1070   21.3710 C   0  0  0  0  0  0  0  0  0  0  0  0
  -22.0960   -9.0480   20.4070 C   0  0  0  0  0  3  0  0  0  0  0  0
  -22.8180  -10.2390   20.2280 C   0  0  0  0  0  3  0  0  0  0  0  0
  -21.7450   -6.9590   21.4580 O   0  0  0  0  0  0  0  0  0  0  0  0
  -21.6790   -6.2280   22.6170 C   0  0  0  0  0  0  0  0  0  0  0  0
  -21.2220   -6.7930   23.8270 C   0  0  0  0  0  3  0  0  0  0  0  0
  -21.1030   -5.9880   24.9780 C   0  0  0  0  0  3  0  0  0  0  0  0
  -21.4300   -4.6210   24.9210 C   0  0  0  0  0  0  0  0  0  0  0  0
  -21.8800   -4.0550   23.7140 C   0  0  0  0  0  3  0  0  0  0  0  0
  -22.0000   -4.8570   22.5650 C   0  0  0  0  0  0  0  0  0  0  0  0
  -22.4140   -4.3040   21.4000 F   0  0  0  0  0  0  0  0  0  0  0  0
  -21.3090   -3.8460   26.0250 F   0  0  0  0  0  0  0  0  0  0  0  0
  -22.7920  -13.5990   21.0390 C   0  0  0  0  0  0  0  0  0  0  0  0
  -22.0430  -12.9140   21.8950 N   0  0  0  0  0  0  0  0  0  0  0  0
  -22.3620  -14.6110   20.4860 O   0  0  0  0  0  0  0  0  0  0  0  0
  -22.4010  -12.0980   22.3690 H   0  0  0  0  0  0  0  0  0  0  0  0
  -21.0980  -13.2140   22.0860 H   0  0  0  0  0  0  0  0  0  0  0  0
  -25.4310  -15.2720   20.2660 N   0  0  0  0  0  0  0  0  0  0  0  0
  -24.6580  -15.9240   20.3470 H   0  0  0  0  0  0  0  0  0  0  0  0
  -26.2860  -15.7120   19.9540 H   0  0  0  0  0  0  0  0  0  0  0  0
  -30.1100  -20.9110   17.9870 N   0  0  0  0  0  0  0  0  0  0  0  0
  -30.1340  -20.8060   16.9780 H   0  0  0  0  0  0  0  0  0  0  0  0
  -29.4530  -21.6420   18.2470 H   0  0  0  0  0  0  0  0  0  0  0  0
  -29.5130  -21.1230   20.9060 C   0  0  0  0  0  2  0  0  0  0  0  0
  -28.6820  -22.3510   20.3180 C   0  0  0  0  0  0  0  0  0  0  0  0
  -27.7280  -22.1230   19.5700 O   0  0  0  0  0  0  0  0  0  0  0  0
  -29.0330  -23.8620   20.6710 C   0  0  0  0  0  3  0  0  0  0  0  0
  -28.0210  -24.9940   20.1550 C   0  0  0  0  0  3  0  0  0  0  0  0
  -28.2730  -26.4560   20.3400 O   0  0  0  0  0  0  0  0  0  0  0  0
  -24.5680  -31.9410   23.2390 C   0  0  0  0  0  0  0  0  0  0  0  0
  -27.1740  -27.3350   20.2440 C   0  0  0  0  0  0  0  0  0  0  0  0
  -23.3650  -30.5280   21.6110 C   0  0  0  0  0  3  0  0  0  0  0  0
  -24.8170  -28.9660   20.2010 C   0  0  0  0  0  0  0  0  0  0  0  0
  -25.9060  -30.8410   21.4300 C   0  0  0  0  0  2  0  0  0  0  0  0
  -25.9860  -29.4550   20.7990 C   0  0  0  0  0  0  0  0  0  0  0  0
  -27.1670  -28.6510   20.8120 C   0  0  0  0  0  3  0  0  0  0  0  0
  -25.9840  -26.9170   19.6020 C   0  0  0  0  0  3  0  0  0  0  0  0
  -24.8190  -27.7060   19.5920 C   0  0  0  0  0  3  0  0  0  0  0  0
  -23.5820  -29.8420   20.2370 C   0  0  0  0  0  2  0  0  0  0  0  0
  -24.6330  -31.1210   22.1500 N   0  0  0  0  0  0  0  0  0  0  0  0
  -23.4840  -32.2250   23.7690 O   0  0  0  0  0  0  0  0  0  0  0  0
  -22.7000  -29.5210   22.5790 C   0  0  0  0  0  0  0  0  0  0  0  0
  -21.3740  -29.3430   22.4510 N   0  0  0  0  0  0  0  0  0  0  0  0
  -23.3750  -28.9030   23.4060 O   0  0  0  0  0  0  0  0  0  0  0  0
  -20.8890  -29.8970   21.7600 H   0  0  0  0  0  0  0  0  0  0  0  0
  -17.9930  -28.1580   22.9540 C   0  0  0  0  0  0  0  0  0  0  0  0
  -20.5510  -28.4150   23.2300 C   0  0  0  0  0  3  0  0  0  0  0  0
  -20.6510  -26.9770   22.6710 C   0  0  0  0  0  2  0  0  0  0  0  0
  -19.5520  -26.6450   21.6570 C   0  0  0  0  0  2  0  0  0  0  0  0
  -18.1680  -26.8000   22.2950 C   0  0  0  0  0  2  0  0  0  0  0  0
  -19.1110  -28.9230   23.3780 C   0  0  0  0  0  0  0  0  0  0  0  0
  -18.8940  -30.1920   23.9570 C   0  0  0  0  0  3  0  0  0  0  0  0
  -17.5890  -30.6970   24.1140 C   0  0  0  0  0  3  0  0  0  0  0  0
  -16.4850  -29.9290   23.7040 C   0  0  0  0  0  3  0  0  0  0  0  0
  -16.6860  -28.6630   23.1310 C   0  0  0  0  0  3  0  0  0  0  0  0
  -25.8500  -32.5790   23.8580 C   0  0  0  0  0  3  0  0  0  0  0  0
  -25.5400  -33.9790   24.1750 N   0  0  0  0  0  0  0  0  0  0  0  0
  -25.8790  -35.0260   23.4110 C   0  0  0  0  0  0  0  0  0  0  0  0
  -26.5530  -34.9130   22.3830 O   0  0  0  0  0  0  0  0  0  0  0  0
  -24.9410  -34.1400   24.9710 H   0  0  0  0  0  0  0  0  0  0  0  0
  -24.1620  -36.8240   23.0300 C   0  0  0  0  0  1  0  0  0  0  0  0
  -25.3930  -36.4190   23.8550 C   0  0  0  0  0  3  0  0  0  0  0  0
  -27.5210  -37.3010   24.7040 C   0  0  0  0  0  1  0  0  0  0  0  0
  -26.4310  -37.4680   23.7470 N   0  0  0  0  0  0  0  0  0  0  0  0
  -26.0280  -38.3900   23.8830 H   0  0  0  0  0  0  0  0  0  0  0  0
  -26.3620  -31.8170   25.1410 C   0  0  1  0  0  0  0  0  0  0  0  0
  -25.2670  -31.5910   26.2090 C   0  0  0  0  0  1  0  0  0  0  0  0
  -26.9440  -30.4360   24.7620 C   0  0  0  0  0  1  0  0  0  0  0  0
  -27.5140  -32.6150   25.7970 C   0  0  0  0  0  1  0  0  0  0  0  0
  2  6  2  0
  2  5  1  0
  3  1  1  0
  3 49  1  0
  4 16  1  0
  4  1  2  0
  5  3  2  0
  6  4  1  0
  7  6  1  0
  8 16  1  0
  9 14  1  0
 10 11  1  0
 10  9  1  0
 12 11  1  0
 12 21  1  0
 12 13  1  0
 14  8  1  0
 14 13  1  0
 15  8  2  0
 16 17  1  0
 18 19  2  0
 19 20  1  0
 19 38  1  0
 20 23  1  0
 21 18  1  0
 21 22  1  0
 22 20  2  0
 23 24  1  0
 24 25  2  0
 26 29  1  0
 26 25  1  0
 27 26  2  0
 28 27  1  0
 28 23  2  0
 29 30  1  0
 30 31  1  0
 31 32  2  0
 33 32  1  0
 33 37  1  0
 34 33  2  0
 35 30  2  0
 35 34  1  0
 36 35  1  0
 38 39  1  0
 39 42  1  0
 39 41  1  0
 40 38  2  0
 43 44  1  0
 43 18  1  0
 45 43  1  0
 46 48  1  0
 46  5  1  0
 47 46  1  0
 50 52  1  0
 50 49  1  0
 51 50  2  0
 53 54  1  0
 53 52  2  0
 55 66  2  0
 56 54  1  0
 56 61  1  0
 57 65  1  0
 57 67  1  0
 58 64  1  0
 58 60  1  0
 59 65  1  0
 60 61  2  0
 60 59  1  0
 62 56  2  0
 63 62  1  0
 63 58  2  0
 64 57  1  0
 65 55  1  0
 67 69  2  0
 68 67  1  0
 70 68  1  0
 71 80  2  0
 71 76  1  0
 72 68  1  0
 72 76  1  0
 73 72  1  0
 74 75  1  0
 74 73  1  0
 75 71  1  0
 76 77  2  0
 77 78  1  0
 79 78  2  0
 80 79  1  0
 81 55  1  0
 81 82  1  0
 81 91  1  0
 82 85  1  0
 83 87  1  0
 83 82  1  0
 84 83  2  0
 87 86  1  0
 89 87  1  0
 89 90  1  0
 89 88  1  0
 91 94  1  1
 91 92  1  0
 93 91  1  0
M  ISO  4   8 100  16 100  53 101  54 101
M  END
>  <TORSDO>  (52) 
F 21

>  <SCORE>  (52) 
-13.518

>  <name>  (52) 
51

>  <ligand_id>  (52) 
51

>  <original_smiles>  (52) 
[H]c1c([H])c([H])c2c(c1[H])C([H])([H])C([H])([H])C([H])([H])C2([H])N([H])C(=O)C1([H])N(C(=O)C([H])(N([H])C(=O)C([H])(N([H])C([H])([H])[H])C([H])([H])[H])C(C([H])([H])[H])(C([H])([H])[H])C([H])([H])[H])C([H])([H])c2c([H])c(OC([H])([H])C([H])([H])C(=O)C([H])([H])c3c([H])c(N([H])C(=O)N4C([H])([H])C([H])([H])C([H])([H])C([H])(n5nc(-c6c([H])c([H])c(Oc7c([H])c([H])c(F)c([H])c7F)c([H])c6[H])c(C(=O)N([H])[H])c5N([H])[H])C4([H])[H])c(F)c([H])c3N([H])[H])c([H])c([H])c2C1([H])[H]

>  <smiles>  (52) 
[H]c1c([H])c([H])c2c(c1[H])C([H])([H])C([H])([H])C([H])([H])C2([H])N([H])C(=O)C1([H])N(C(=O)C([H])(N([H])C(=O)C([H])(N([H])C([H])([H])[H])C([H])([H])[H])C(C([H])([H])[H])(C([H])([H])[H])C([H])([H])[H])C([H])([H])c2c([H])c(OC([H])([H])C([H])([H])C(=O)C([H])([H])c3c([H])c(N([H])C(=O)N4C([H])([H])C([H])([H])C([H])([H])C([H])(n5nc(-c6c([H])c([H])c(Oc7c([H])c([H])c(F)c([H])c7F)c([H])c6[H])c(C(=O)N([H])[H])c5N([H])[H])C4([H])[H])c(F)c([H])c3N([H])[H])c([H])c([H])c2C1([H])[H]

$$$$
52:0:0
     RDKit          3D

 95104  0  0  1  0  0  0  0  0999 V2000
  -27.0800  -22.2950   20.2380 C   0  0  0  0  0  0  0  0  0  0  0  0
  -26.9010  -23.7580   19.8600 C   0  0  0  0  0  2  0  0  0  0  0  0
  -29.2000  -23.1740   20.1220 C   0  0  0  0  0  2  0  0  0  0  0  0
  -28.2520  -24.3870   20.2100 C   0  0  0  0  0  3  0  0  0  0  0  0
  -28.3860  -21.9730   20.3570 N   0  0  0  0  0  0  0  0  0  0  0  0
  -26.1020  -21.5630   20.4170 O   0  0  0  0  0  0  0  0  0  0  0  0
  -28.8740  -18.1930   20.6800 C   0  0  0  0  0  3  0  0  0  0  0  0
  -28.2360  -19.4490   20.5450 C   0  0  0  0  0  3  0  0  0  0  0  0
  -30.3820  -20.5560   20.6660 C   0  0  0  0  0  3  0  0  0  0  0  0
  -30.2820  -18.1060   20.7960 C   0  0  0  0  0  0  0  0  0  0  0  0
  -28.9780  -20.6620   20.5290 C   0  0  0  0  0  0  0  0  0  0  0  0
  -31.0240  -19.3130   20.7940 C   0  0  0  0  0  0  0  0  0  0  0  0
  -32.3760  -19.3100   20.8930 F   0  0  0  0  0  0  0  0  0  0  0  0
  -30.9910  -14.6020   19.9820 C   0  0  0  0  0  0  0  0  0  0  0  0
  -30.5500  -12.4570   18.8440 C   0  0  0  0  0  2  0  0  0  0  0  0
  -29.5230  -12.6550   17.7140 C   0  0  0  0  0  2  0  0  0  0  0  0
  -28.0920  -12.5190   18.2660 C   0  0  0  0  0  2  0  0  0  0  0  0
  -27.8530  -13.3680   19.5430 C   0  0  0  0  0  3  0  0  0  0  0  0
  -28.9940  -13.1780   20.5680 C   0  0  0  0  0  2  0  0  0  0  0  0
  -30.2580  -13.4630   19.8770 N   0  0  0  0  0  0  0  0  0  0  0  0
  -32.0950  -14.7080   19.4350 O   0  0  0  0  0  0  0  0  0  0  0  0
  -31.0040  -16.7860   20.9400 C   0  0  0  0  0  0  0  0  0  0  0  0
  -30.3720  -15.6660   20.5330 N   0  0  0  0  0  0  0  0  0  0  0  0
  -32.1610  -16.7740   21.3780 O   0  0  0  0  0  0  0  0  0  0  0  0
  -29.3650  -15.6590   20.5410 H   0  0  0  0  0  0  0  0  0  0  0  0
  -25.5430  -13.9720   20.4970 C   0  0  0  0  0  0  0  0  0  0  0  0
  -24.4940  -13.1980   20.9140 C   0  0  0  0  0  0  0  0  0  0  0  0
  -24.9190  -11.8430   20.7640 C   0  0  0  0  0  0  0  0  0  0  0  0
  -26.5450  -13.0870   20.1270 N   0  0  0  0  0  0  0  0  0  0  0  0
  -26.1770  -11.7980   20.3430 N   0  0  0  0  0  0  0  0  0  0  0  0
  -24.1800  -10.5850   20.9410 C   0  0  0  0  0  0  0  0  0  0  0  0
  -24.5730   -9.6290   21.9040 C   0  0  0  0  0  3  0  0  0  0  0  0
  -23.8380   -8.4360   22.0700 C   0  0  0  0  0  3  0  0  0  0  0  0
  -22.6970   -8.1890   21.2710 C   0  0  0  0  0  0  0  0  0  0  0  0
  -22.3220   -9.1330   20.3000 C   0  0  0  0  0  3  0  0  0  0  0  0
  -23.0570  -10.3190   20.1330 C   0  0  0  0  0  3  0  0  0  0  0  0
  -21.9380   -7.0460   21.3460 O   0  0  0  0  0  0  0  0  0  0  0  0
  -21.7300   -6.3960   22.5360 C   0  0  0  0  0  0  0  0  0  0  0  0
  -21.1210   -7.0330   23.6370 C   0  0  0  0  0  3  0  0  0  0  0  0
  -20.8650   -6.3080   24.8170 C   0  0  0  0  0  3  0  0  0  0  0  0
  -21.2060   -4.9450   24.8960 C   0  0  0  0  0  0  0  0  0  0  0  0
  -21.8090   -4.3060   23.7980 C   0  0  0  0  0  3  0  0  0  0  0  0
  -22.0680   -5.0290   22.6200 C   0  0  0  0  0  0  0  0  0  0  0  0
  -22.6290   -4.4040   21.5570 F   0  0  0  0  0  0  0  0  0  0  0  0
  -20.9530   -4.2450   26.0270 F   0  0  0  0  0  0  0  0  0  0  0  0
  -23.1370  -13.6830   21.3340 C   0  0  0  0  0  0  0  0  0  0  0  0
  -22.4740  -12.9520   22.2220 N   0  0  0  0  0  0  0  0  0  0  0  0
  -22.6770  -14.7400   20.9070 O   0  0  0  0  0  0  0  0  0  0  0  0
  -22.8580  -12.0910   22.5850 H   0  0  0  0  0  0  0  0  0  0  0  0
  -21.5680  -13.2590   22.5490 H   0  0  0  0  0  0  0  0  0  0  0  0
  -25.7220  -15.3480   20.3800 N   0  0  0  0  0  0  0  0  0  0  0  0
  -24.9690  -16.0010   20.5720 H   0  0  0  0  0  0  0  0  0  0  0  0
  -26.5180  -15.7860   19.9370 H   0  0  0  0  0  0  0  0  0  0  0  0
  -28.6980  -25.6030   19.3430 C   0  0  0  0  0  2  0  0  0  0  0  0
  -28.5440  -26.8920   19.9620 O   0  0  0  0  0  0  0  0  0  0  0  0
  -24.5510  -31.8340   23.1520 C   0  0  0  0  0  0  0  0  0  0  0  0
  -27.3330  -27.5550   19.9510 C   0  0  0  0  0  0  0  0  0  0  0  0
  -23.3900  -30.4400   21.4710 C   0  0  0  0  0  3  0  0  0  0  0  0
  -24.8900  -28.9910   20.0050 C   0  0  0  0  0  0  0  0  0  0  0  0
  -25.9040  -30.8840   21.2840 C   0  0  0  0  0  2  0  0  0  0  0  0
  -26.0310  -29.5320   20.6090 C   0  0  0  0  0  0  0  0  0  0  0  0
  -27.2490  -28.8180   20.5860 C   0  0  0  0  0  3  0  0  0  0  0  0
  -26.1720  -27.0330   19.3410 C   0  0  0  0  0  3  0  0  0  0  0  0
  -24.9560  -27.7370   19.3770 C   0  0  0  0  0  3  0  0  0  0  0  0
  -23.6210  -29.8090   20.0720 C   0  0  0  0  0  2  0  0  0  0  0  0
  -24.6320  -31.0680   22.0270 N   0  0  0  0  0  0  0  0  0  0  0  0
  -23.4610  -32.0550   23.7000 O   0  0  0  0  0  0  0  0  0  0  0  0
  -22.7770  -29.3710   22.4010 C   0  0  0  0  0  0  0  0  0  0  0  0
  -21.4620  -29.1340   22.2570 N   0  0  0  0  0  0  0  0  0  0  0  0
  -23.4810  -28.7570   23.2060 O   0  0  0  0  0  0  0  0  0  0  0  0
  -20.9500  -29.6840   21.5810 H   0  0  0  0  0  0  0  0  0  0  0  0
  -18.1410  -27.7850   22.7030 C   0  0  0  0  0  0  0  0  0  0  0  0
  -20.6840  -28.1430   22.9990 C   0  0  0  0  0  3  0  0  0  0  0  0
  -20.8510  -26.7330   22.3880 C   0  0  0  0  0  2  0  0  0  0  0  0
  -19.7700  -26.3860   21.3610 C   0  0  0  0  0  2  0  0  0  0  0  0
  -18.3810  -26.4590   21.9980 C   0  0  0  0  0  2  0  0  0  0  0  0
  -19.2230  -28.5830   23.1580 C   0  0  0  0  0  0  0  0  0  0  0  0
  -18.9480  -29.8220   23.7770 C   0  0  0  0  0  3  0  0  0  0  0  0
  -17.6230  -30.2630   23.9410 C   0  0  0  0  0  3  0  0  0  0  0  0
  -16.5550  -29.4640   23.5000 C   0  0  0  0  0  3  0  0  0  0  0  0
  -16.8150  -28.2250   22.8860 C   0  0  0  0  0  3  0  0  0  0  0  0
  -25.8150  -32.4880   23.7900 C   0  0  0  0  0  3  0  0  0  0  0  0
  -25.4670  -33.8740   24.1340 N   0  0  0  0  0  0  0  0  0  0  0  0
  -25.7810  -34.9440   23.3900 C   0  0  0  0  0  0  0  0  0  0  0  0
  -26.4650  -34.8710   22.3660 O   0  0  0  0  0  0  0  0  0  0  0  0
  -24.8560  -34.0040   24.9260 H   0  0  0  0  0  0  0  0  0  0  0  0
  -24.0170  -36.7010   23.0310 C   0  0  0  0  0  1  0  0  0  0  0  0
  -25.2520  -36.3140   23.8580 C   0  0  0  0  0  3  0  0  0  0  0  0
  -27.3460  -37.2440   24.7430 C   0  0  0  0  0  1  0  0  0  0  0  0
  -26.2620  -37.3930   23.7760 N   0  0  0  0  0  0  0  0  0  0  0  0
  -25.8310  -38.3010   23.9170 H   0  0  0  0  0  0  0  0  0  0  0  0
  -26.3460  -31.7160   25.0600 C   0  0  1  0  0  0  0  0  0  0  0  0
  -25.2540  -31.4310   26.1160 C   0  0  0  0  0  1  0  0  0  0  0  0
  -26.9720  -30.3620   24.6530 C   0  0  0  0  0  1  0  0  0  0  0  0
  -27.4670  -32.5350   25.7430 C   0  0  0  0  0  1  0  0  0  0  0  0
  1  5  1  0
  1  6  2  0
  2  4  1  0
  2  1  1  0
  3  4  1  0
  3  5  1  0
  4 54  1  0
  5 11  1  0
  7 10  1  0
  8  7  2  0
  9 12  1  0
 10 22  1  0
 11  8  1  0
 11  9  2  0
 12 10  2  0
 12 13  1  0
 14 23  1  0
 15 20  1  0
 16 17  1  0
 16 15  1  0
 18 17  1  0
 18 29  1  0
 18 19  1  0
 20 14  1  0
 20 19  1  0
 21 14  2  0
 22 24  2  0
 23 25  1  0
 23 22  1  0
 26 27  2  0
 27 46  1  0
 28 27  1  0
 28 31  1  0
 29 30  1  0
 29 26  1  0
 30 28  2  0
 31 32  1  0
 32 33  2  0
 34 37  1  0
 34 33  1  0
 35 34  2  0
 36 35  1  0
 36 31  2  0
 37 38  1  0
 38 43  2  0
 38 39  1  0
 39 40  2  0
 40 41  1  0
 41 45  1  0
 42 41  2  0
 43 42  1  0
 44 43  1  0
 46 47  1  0
 47 50  1  0
 47 49  1  0
 48 46  2  0
 51 26  1  0
 51 52  1  0
 53 51  1  0
 54 55  1  0
 56 67  2  0
 57 55  1  0
 57 62  1  0
 58 66  1  0
 58 68  1  0
 59 65  1  0
 59 61  1  0
 60 66  1  0
 61 60  1  0
 62 61  2  0
 63 64  1  0
 63 57  2  0
 64 59  2  0
 65 58  1  0
 66 56  1  0
 68 70  2  0
 69 68  1  0
 71 69  1  0
 72 81  2  0
 72 77  1  0
 73 69  1  0
 73 77  1  0
 74 73  1  0
 75 76  1  0
 75 74  1  0
 76 72  1  0
 77 78  2  0
 78 79  1  0
 80 79  2  0
 81 80  1  0
 82 56  1  0
 82 83  1  0
 82 92  1  0
 83 86  1  0
 84 88  1  0
 84 83  1  0
 85 84  2  0
 88 87  1  0
 90 88  1  0
 90 91  1  0
 90 89  1  0
 92 95  1  1
 92 93  1  0
 94 92  1  0
M  ISO  4  14 100  23 100  54 101  55 101
M  END
>  <TORSDO>  (53) 
F 18

>  <SCORE>  (53) 
-13.042

>  <name>  (53) 
52

>  <ligand_id>  (53) 
52

>  <original_smiles>  (53) 
[H]c1c([H])c([H])c2c(c1[H])C([H])([H])C([H])([H])C([H])([H])C2([H])N([H])C(=O)C1([H])N(C(=O)C([H])(N([H])C(=O)C([H])(N([H])C([H])([H])[H])C([H])([H])[H])C(C([H])([H])[H])(C([H])([H])[H])C([H])([H])[H])C([H])([H])c2c([H])c(OC([H])([H])C3([H])C([H])([H])C(=O)N(c4c([H])c([H])c(C(=O)N([H])C(=O)N5C([H])([H])C([H])([H])C([H])([H])C([H])(n6nc(-c7c([H])c([H])c(Oc8c([H])c([H])c(F)c([H])c8F)c([H])c7[H])c(C(=O)N([H])[H])c6N([H])[H])C5([H])[H])c(F)c4[H])C3([H])[H])c([H])c([H])c2C1([H])[H]

>  <smiles>  (53) 
[H]c1c([H])c([H])c2c(c1[H])C([H])([H])C([H])([H])C([H])([H])C2([H])N([H])C(=O)C1([H])N(C(=O)C([H])(N([H])C(=O)C([H])(N([H])C([H])([H])[H])C([H])([H])[H])C(C([H])([H])[H])(C([H])([H])[H])C([H])([H])[H])C([H])([H])c2c([H])c(OC([H])([H])C3([H])C([H])([H])C(=O)N(c4c([H])c([H])c(C(=O)N([H])C(=O)N5C([H])([H])C([H])([H])C([H])([H])C([H])(n6nc(-c7c([H])c([H])c(Oc8c([H])c([H])c(F)c([H])c8F)c([H])c7[H])c(C(=O)N([H])[H])c6N([H])[H])C5([H])[H])c(F)c4[H])C3([H])[H])c([H])c([H])c2C1([H])[H]

$$$$
53:0:0
     RDKit          3D

 95104  0  0  1  0  0  0  0  0999 V2000
  -28.6380  -19.4680   20.0310 C   0  0  0  0  0  3  0  0  0  0  0  0
  -30.7990  -18.0650   21.1450 C   0  0  0  0  0  3  0  0  0  0  0  0
  -29.6100  -20.2570   20.7110 C   0  0  0  0  0  0  0  0  0  0  0  0
  -28.7200  -18.0310   19.9560 C   0  0  0  0  0  0  0  0  0  0  0  0
  -29.7940  -17.2830   20.5210 C   0  0  0  0  0  0  0  0  0  0  0  0
  -30.7030  -19.4930   21.2450 C   0  0  0  0  0  0  0  0  0  0  0  0
  -31.6960  -20.1400   21.9060 F   0  0  0  0  0  0  0  0  0  0  0  0
  -30.5580  -14.7490   20.3740 C   0  0  0  0  0  0  0  0  0  0  0  0
  -30.3900  -12.4800   19.3370 C   0  0  0  0  0  2  0  0  0  0  0  0
  -29.4380  -12.5680   18.1230 C   0  0  0  0  0  2  0  0  0  0  0  0
  -27.9670  -12.4030   18.5570 C   0  0  0  0  0  2  0  0  0  0  0  0
  -27.6050  -13.2800   19.7830 C   0  0  0  0  0  3  0  0  0  0  0  0
  -28.6680  -13.1500   20.8970 C   0  0  0  0  0  2  0  0  0  0  0  0
  -29.9650  -13.5100   20.3080 N   0  0  0  0  0  0  0  0  0  0  0  0
  -31.7430  -14.9020   20.0600 O   0  0  0  0  0  0  0  0  0  0  0  0
  -29.6940  -15.8070   20.5690 N   0  0  0  0  0  0  0  0  0  0  0  0
  -28.7370  -15.5000   20.6390 H   0  0  0  0  0  0  0  0  0  0  0  0
  -25.2190  -13.8900   20.5120 C   0  0  0  0  0  0  0  0  0  0  0  0
  -24.1480  -13.1210   20.8780 C   0  0  0  0  0  0  0  0  0  0  0  0
  -24.6040  -11.7670   20.8440 C   0  0  0  0  0  0  0  0  0  0  0  0
  -26.2580  -13.0040   20.2730 N   0  0  0  0  0  0  0  0  0  0  0  0
  -25.8940  -11.7230   20.5360 N   0  0  0  0  0  0  0  0  0  0  0  0
  -23.8710  -10.5080   21.0310 C   0  0  0  0  0  0  0  0  0  0  0  0
  -24.2930   -9.5400   21.9680 C   0  0  0  0  0  3  0  0  0  0  0  0
  -23.5600   -8.3450   22.1430 C   0  0  0  0  0  3  0  0  0  0  0  0
  -22.3900   -8.1120   21.3810 C   0  0  0  0  0  0  0  0  0  0  0  0
  -21.9870   -9.0700   20.4340 C   0  0  0  0  0  3  0  0  0  0  0  0
  -22.7200  -10.2540   20.2570 C   0  0  0  0  0  3  0  0  0  0  0  0
  -21.6310   -6.9710   21.4660 O   0  0  0  0  0  0  0  0  0  0  0  0
  -21.5620   -6.2350   22.6220 C   0  0  0  0  0  0  0  0  0  0  0  0
  -21.1130   -6.7960   23.8370 C   0  0  0  0  0  3  0  0  0  0  0  0
  -20.9930   -5.9870   24.9850 C   0  0  0  0  0  3  0  0  0  0  0  0
  -21.3130   -4.6180   24.9180 C   0  0  0  0  0  0  0  0  0  0  0  0
  -21.7550   -4.0550   23.7080 C   0  0  0  0  0  3  0  0  0  0  0  0
  -21.8770   -4.8620   22.5620 C   0  0  0  0  0  0  0  0  0  0  0  0
  -22.2830   -4.3120   21.3930 F   0  0  0  0  0  0  0  0  0  0  0  0
  -21.1890   -3.8380   26.0180 F   0  0  0  0  0  0  0  0  0  0  0  0
  -22.7540  -13.6040   21.1510 C   0  0  0  0  0  0  0  0  0  0  0  0
  -22.0200  -12.9060   22.0110 N   0  0  0  0  0  0  0  0  0  0  0  0
  -22.3220  -14.6360   20.6380 O   0  0  0  0  0  0  0  0  0  0  0  0
  -22.3810  -12.0720   22.4490 H   0  0  0  0  0  0  0  0  0  0  0  0
  -21.0850  -13.2140   22.2390 H   0  0  0  0  0  0  0  0  0  0  0  0
  -25.3840  -15.2630   20.3440 N   0  0  0  0  0  0  0  0  0  0  0  0
  -24.6100  -15.9050   20.4780 H   0  0  0  0  0  0  0  0  0  0  0  0
  -26.2260  -15.7440   20.0340 H   0  0  0  0  0  0  0  0  0  0  0  0
  -28.6450  -24.0350   21.1970 C   0  0  0  0  0  0  0  0  0  0  0  0
  -28.4040  -25.4080   21.1600 C   0  0  0  0  0  3  0  0  0  0  0  0
  -28.6780  -23.3330   22.5400 C   0  0  0  0  0  2  0  0  0  0  0  0
  -28.9590  -22.8700   20.1880 C   0  0  0  0  0  2  0  0  0  0  0  0
  -29.5650  -22.0880   22.3740 C   0  0  0  0  0  2  0  0  0  0  0  0
  -29.4830  -21.6890   20.9740 N   0  0  0  0  0  0  0  0  0  0  0  0
  -28.3860  -26.4100   20.1670 O   0  0  0  0  0  0  0  0  0  0  0  0
  -24.6390  -31.8770   23.2000 C   0  0  0  0  0  0  0  0  0  0  0  0
  -27.3070  -27.3150   20.1730 C   0  0  0  0  0  0  0  0  0  0  0  0
  -23.4610  -30.4670   21.5520 C   0  0  0  0  0  3  0  0  0  0  0  0
  -24.9360  -28.9220   20.1400 C   0  0  0  0  0  0  0  0  0  0  0  0
  -26.0000  -30.7990   21.3900 C   0  0  0  0  0  2  0  0  0  0  0  0
  -26.0980  -29.4160   20.7480 C   0  0  0  0  0  0  0  0  0  0  0  0
  -27.2910  -28.6230   20.7590 C   0  0  0  0  0  3  0  0  0  0  0  0
  -26.1260  -26.8780   19.5440 C   0  0  0  0  0  3  0  0  0  0  0  0
  -24.9530  -27.6580   19.5280 C   0  0  0  0  0  3  0  0  0  0  0  0
  -23.6930  -29.7890   20.1750 C   0  0  0  0  0  2  0  0  0  0  0  0
  -24.7180  -31.0670   22.1030 N   0  0  0  0  0  0  0  0  0  0  0  0
  -23.5500  -32.1460   23.7250 O   0  0  0  0  0  0  0  0  0  0  0  0
  -22.7960  -29.4480   22.5090 C   0  0  0  0  0  0  0  0  0  0  0  0
  -21.4690  -29.2760   22.3870 N   0  0  0  0  0  0  0  0  0  0  0  0
  -23.4750  -28.8160   23.3220 O   0  0  0  0  0  0  0  0  0  0  0  0
  -20.9800  -29.8370   21.7040 H   0  0  0  0  0  0  0  0  0  0  0  0
  -18.0880  -28.0970   22.9080 C   0  0  0  0  0  0  0  0  0  0  0  0
  -20.6500  -28.3360   23.1560 C   0  0  0  0  0  3  0  0  0  0  0  0
  -20.7360  -26.9090   22.5650 C   0  0  0  0  0  2  0  0  0  0  0  0
  -19.6230  -26.6050   21.5570 C   0  0  0  0  0  2  0  0  0  0  0  0
  -18.2480  -26.7530   22.2160 C   0  0  0  0  0  2  0  0  0  0  0  0
  -19.2160  -28.8460   23.3350 C   0  0  0  0  0  0  0  0  0  0  0  0
  -19.0110  -30.1040   23.9440 C   0  0  0  0  0  3  0  0  0  0  0  0
  -17.7110  -30.6110   24.1290 C   0  0  0  0  0  3  0  0  0  0  0  0
  -16.5980  -29.8580   23.7170 C   0  0  0  0  0  3  0  0  0  0  0  0
  -16.7870  -28.6020   23.1130 C   0  0  0  0  0  3  0  0  0  0  0  0
  -25.9120  -32.5220   23.8310 C   0  0  0  0  0  3  0  0  0  0  0  0
  -25.5900  -33.9190   24.1540 N   0  0  0  0  0  0  0  0  0  0  0  0
  -25.9200  -34.9720   23.3960 C   0  0  0  0  0  0  0  0  0  0  0  0
  -26.5960  -34.8700   22.3690 O   0  0  0  0  0  0  0  0  0  0  0  0
  -24.9890  -34.0710   24.9520 H   0  0  0  0  0  0  0  0  0  0  0  0
  -24.1870  -36.7570   23.0220 C   0  0  0  0  0  1  0  0  0  0  0  0
  -25.4210  -36.3590   23.8470 C   0  0  0  0  0  3  0  0  0  0  0  0
  -27.5420  -37.2570   24.7000 C   0  0  0  0  0  1  0  0  0  0  0  0
  -26.4510  -37.4170   23.7440 N   0  0  0  0  0  0  0  0  0  0  0  0
  -26.0390  -38.3350   23.8830 H   0  0  0  0  0  0  0  0  0  0  0  0
  -26.4220  -31.7590   25.1150 C   0  0  1  0  0  0  0  0  0  0  0  0
  -25.3210  -31.5210   26.1750 C   0  0  0  0  0  1  0  0  0  0  0  0
  -27.0160  -30.3830   24.7360 C   0  0  0  0  0  1  0  0  0  0  0  0
  -27.5620  -32.5630   25.7820 C   0  0  0  0  0  1  0  0  0  0  0  0
  -27.7020  -17.3160   19.3190 N   0  0  0  0  0  0  0  0  0  0  0  0
  -27.0500  -17.8710   18.7750 H   0  0  0  0  0  0  0  0  0  0  0  0
  -28.0290  -16.5290   18.7720 H   0  0  0  0  0  0  0  0  0  0  0  0
  1  3  1  0
  2  6  1  0
  3 51  1  0
  3  6  2  0
  4  1  2  0
  4  5  1  0
  5 16  1  0
  5  2  2  0
  6  7  1  0
  8 16  1  0
  9 14  1  0
 10 11  1  0
 10  9  1  0
 12 11  1  0
 12 21  1  0
 12 13  1  0
 14  8  1  0
 14 13  1  0
 15  8  2  0
 16 17  1  0
 18 19  2  0
 19 38  1  0
 20 19  1  0
 20 23  1  0
 21 18  1  0
 21 22  1  0
 22 20  2  0
 23 24  1  0
 24 25  2  0
 26 29  1  0
 26 25  1  0
 27 26  2  0
 28 27  1  0
 28 23  2  0
 29 30  1  0
 30 31  1  0
 31 32  2  0
 33 32  1  0
 33 37  1  0
 34 33  2  0
 35 30  2  0
 35 34  1  0
 36 35  1  0
 38 39  1  0
 39 42  1  0
 39 41  1  0
 40 38  2  0
 43 44  1  0
 43 18  1  0
 45 43  1  0
 46 48  1  0
 47 46  2  0
 49 51  1  0
 49 46  1  0
 50 48  1  0
 51 50  1  0
 52 54  1  0
 52 47  1  0
 53 64  2  0
 54 59  1  0
 55 63  1  0
 55 65  1  0
 56 62  1  0
 56 58  1  0
 57 63  1  0
 58 59  2  0
 58 57  1  0
 60 54  2  0
 61 60  1  0
 61 56  2  0
 62 55  1  0
 63 53  1  0
 65 67  2  0
 66 65  1  0
 68 66  1  0
 69 78  2  0
 69 74  1  0
 70 66  1  0
 70 74  1  0
 71 70  1  0
 72 73  1  0
 72 71  1  0
 73 69  1  0
 74 75  2  0
 75 76  1  0
 77 76  2  0
 78 77  1  0
 79 53  1  0
 79 80  1  0
 79 89  1  0
 80 83  1  0
 81 85  1  0
 81 80  1  0
 82 81  2  0
 85 84  1  0
 87 85  1  0
 87 88  1  0
 87 86  1  0
 89 92  1  1
 89 90  1  0
 91 89  1  0
 93  4  1  0
 94 93  1  0
 95 93  1  0
M  ISO  4   8 100  16 100  47 101  52 101
M  END
>  <TORSDO>  (54) 
F 18

>  <SCORE>  (54) 
-15.300

>  <name>  (54) 
53

>  <ligand_id>  (54) 
53

>  <original_smiles>  (54) 
[H]C(Oc1c([H])c([H])c2c(c1[H])C([H])([H])N(C(=O)C([H])(N([H])C(=O)C([H])(N([H])C([H])([H])[H])C([H])([H])[H])C(C([H])([H])[H])(C([H])([H])[H])C([H])([H])[H])C([H])(C(=O)N([H])C1([H])c3c([H])c([H])c([H])c([H])c3C([H])([H])C([H])([H])C1([H])[H])C2([H])[H])=C1C([H])([H])N(c2c([H])c(N([H])[H])c(N([H])C(=O)N3C([H])([H])C([H])([H])C([H])([H])C([H])(n4nc(-c5c([H])c([H])c(Oc6c([H])c([H])c(F)c([H])c6F)c([H])c5[H])c(C(=O)N([H])[H])c4N([H])[H])C3([H])[H])c([H])c2F)C([H])([H])C1([H])[H]

>  <smiles>  (54) 
[H]C(Oc1c([H])c([H])c2c(c1[H])C([H])([H])N(C(=O)C([H])(N([H])C(=O)C([H])(N([H])C([H])([H])[H])C([H])([H])[H])C(C([H])([H])[H])(C([H])([H])[H])C([H])([H])[H])C([H])(C(=O)N([H])C1([H])c3c([H])c([H])c([H])c([H])c3C([H])([H])C([H])([H])C1([H])[H])C2([H])[H])=C1C([H])([H])N(c2c([H])c(N([H])[H])c(N([H])C(=O)N3C([H])([H])C([H])([H])C([H])([H])C([H])(n4nc(-c5c([H])c([H])c(Oc6c([H])c([H])c(F)c([H])c6F)c([H])c5[H])c(C(=O)N([H])[H])c4N([H])[H])C3([H])[H])c([H])c2F)C([H])([H])C1([H])[H]

$$$$
54:0:0
     RDKit          3D

 93101  0  0  1  0  0  0  0  0999 V2000
  -29.7370  -21.7450   20.3340 C   0  0  0  0  0  0  0  0  0  0  0  0
  -29.3440  -20.6190   19.7140 N   0  0  0  0  0  0  0  0  0  0  0  0
  -30.3910  -21.7810   21.3780 O   0  0  0  0  0  0  0  0  0  0  0  0
  -28.8670  -20.7790   18.8360 H   0  0  0  0  0  0  0  0  0  0  0  0
  -29.3580  -18.3250   18.9890 C   0  0  0  0  0  3  0  0  0  0  0  0
  -30.0440  -18.7780   21.2720 C   0  0  0  0  0  3  0  0  0  0  0  0
  -29.6000  -16.9540   19.1820 C   0  0  0  0  0  3  0  0  0  0  0  0
  -30.2770  -17.3970   21.4690 C   0  0  0  0  0  3  0  0  0  0  0  0
  -29.6060  -19.2530   20.0150 C   0  0  0  0  0  0  0  0  0  0  0  0
  -30.0890  -16.4590   20.4180 C   0  0  0  0  0  0  0  0  0  0  0  0
  -30.6480  -14.2790   19.4970 C   0  0  0  0  0  0  0  0  0  0  0  0
  -29.9610  -12.3640   18.0810 C   0  0  0  0  0  2  0  0  0  0  0  0
  -28.8370  -12.7270   17.0920 C   0  0  0  0  0  2  0  0  0  0  0  0
  -27.4570  -12.5630   17.7530 C   0  0  0  0  0  2  0  0  0  0  0  0
  -27.3780  -13.2840   19.1190 C   0  0  0  0  0  3  0  0  0  0  0  0
  -28.5780  -12.9160   20.0060 C   0  0  0  0  0  2  0  0  0  0  0  0
  -29.8280  -13.2120   19.2800 N   0  0  0  0  0  0  0  0  0  0  0  0
  -31.5590  -14.5800   18.7130 O   0  0  0  0  0  0  0  0  0  0  0  0
  -30.3800  -15.0520   20.5840 N   0  0  0  0  0  0  0  0  0  0  0  0
  -25.1560  -13.8940   20.2610 C   0  0  0  0  0  0  0  0  0  0  0  0
  -24.1510  -13.1200   20.7760 C   0  0  0  0  0  0  0  0  0  0  0  0
  -24.5690  -11.7650   20.6060 C   0  0  0  0  0  0  0  0  0  0  0  0
  -26.1220  -13.0090   19.8100 N   0  0  0  0  0  0  0  0  0  0  0  0
  -25.7850  -11.7200   20.0750 N   0  0  0  0  0  0  0  0  0  0  0  0
  -23.8600  -10.5060   20.8650 C   0  0  0  0  0  0  0  0  0  0  0  0
  -24.3740   -9.5370   21.7550 C   0  0  0  0  0  3  0  0  0  0  0  0
  -23.6650   -8.3400   21.9980 C   0  0  0  0  0  3  0  0  0  0  0  0
  -22.4280   -8.1050   21.3520 C   0  0  0  0  0  0  0  0  0  0  0  0
  -21.9330   -9.0620   20.4490 C   0  0  0  0  0  3  0  0  0  0  0  0
  -22.6420  -10.2500   20.2050 C   0  0  0  0  0  3  0  0  0  0  0  0
  -21.6830   -6.9610   21.5060 O   0  0  0  0  0  0  0  0  0  0  0  0
  -21.6780   -6.2580   22.6840 C   0  0  0  0  0  0  0  0  0  0  0  0
  -21.3040   -6.8570   23.9070 C   0  0  0  0  0  3  0  0  0  0  0  0
  -21.2470   -6.0810   25.0820 C   0  0  0  0  0  3  0  0  0  0  0  0
  -21.5510   -4.7080   25.0340 C   0  0  0  0  0  0  0  0  0  0  0  0
  -21.9200   -4.1090   23.8170 C   0  0  0  0  0  3  0  0  0  0  0  0
  -21.9790   -4.8820   22.6440 C   0  0  0  0  0  0  0  0  0  0  0  0
  -22.3130   -4.2960   21.4690 F   0  0  0  0  0  0  0  0  0  0  0  0
  -21.4890   -3.9590   26.1610 F   0  0  0  0  0  0  0  0  0  0  0  0
  -22.8310  -13.6010   21.3090 C   0  0  0  0  0  0  0  0  0  0  0  0
  -22.2660  -12.8880   22.2780 N   0  0  0  0  0  0  0  0  0  0  0  0
  -22.3170  -14.6400   20.9030 O   0  0  0  0  0  0  0  0  0  0  0  0
  -22.6950  -12.0480   22.6320 H   0  0  0  0  0  0  0  0  0  0  0  0
  -21.3870  -13.1900   22.6730 H   0  0  0  0  0  0  0  0  0  0  0  0
  -25.3240  -15.2700   20.1190 N   0  0  0  0  0  0  0  0  0  0  0  0
  -24.6180  -15.9410   20.4020 H   0  0  0  0  0  0  0  0  0  0  0  0
  -26.1310  -15.7060   19.6900 H   0  0  0  0  0  0  0  0  0  0  0  0
  -32.1060  -14.4320   22.3220 C   0  0  0  0  0  1  0  0  0  0  0  0
  -30.6220  -14.5020   21.9370 C   0  0  0  0  0  2  0  0  0  0  0  0
  -29.3080  -23.0330   19.6210 C   0  0  0  0  0  2  0  0  0  0  0  0
  -29.3560  -24.3530   20.4330 C   0  0  0  0  0  2  0  0  0  0  0  0
  -28.2730  -25.3050   19.9000 C   0  0  0  0  0  2  0  0  0  0  0  0
  -28.3490  -26.6510   20.3770 O   0  0  0  0  0  0  0  0  0  0  0  0
  -24.6240  -31.9490   23.2850 C   0  0  0  0  0  0  0  0  0  0  0  0
  -27.1780  -27.3890   20.3190 C   0  0  0  0  0  0  0  0  0  0  0  0
  -23.3820  -30.5170   21.6980 C   0  0  0  0  0  3  0  0  0  0  0  0
  -24.7980  -28.9280   20.3010 C   0  0  0  0  0  0  0  0  0  0  0  0
  -25.9080  -30.8430   21.4610 C   0  0  0  0  0  2  0  0  0  0  0  0
  -25.9680  -29.4520   20.8660 C   0  0  0  0  0  0  0  0  0  0  0  0
  -27.1570  -28.6870   20.8760 C   0  0  0  0  0  3  0  0  0  0  0  0
  -25.9870  -26.8930   19.7300 C   0  0  0  0  0  3  0  0  0  0  0  0
  -24.8020  -27.6470   19.7300 C   0  0  0  0  0  3  0  0  0  0  0  0
  -23.5640  -29.7960   20.3380 C   0  0  0  0  0  2  0  0  0  0  0  0
  -24.6560  -31.1200   22.2050 N   0  0  0  0  0  0  0  0  0  0  0  0
  -23.5510  -32.2480   23.8300 O   0  0  0  0  0  0  0  0  0  0  0  0
  -22.7260  -29.5310   22.6920 C   0  0  0  0  0  0  0  0  0  0  0  0
  -21.4100  -29.3140   22.5400 N   0  0  0  0  0  0  0  0  0  0  0  0
  -23.4000  -28.9610   23.5530 O   0  0  0  0  0  0  0  0  0  0  0  0
  -20.9260  -29.8280   21.8170 H   0  0  0  0  0  0  0  0  0  0  0  0
  -18.0530  -28.0500   22.9700 C   0  0  0  0  0  0  0  0  0  0  0  0
  -20.5880  -28.4050   23.3370 C   0  0  0  0  0  3  0  0  0  0  0  0
  -20.7580  -26.9430   22.8630 C   0  0  0  0  0  2  0  0  0  0  0  0
  -19.7130  -26.5220   21.8260 C   0  0  0  0  0  2  0  0  0  0  0  0
  -18.2990  -26.6660   22.3950 C   0  0  0  0  0  2  0  0  0  0  0  0
  -19.1290  -28.8720   23.3970 C   0  0  0  0  0  0  0  0  0  0  0  0
  -18.8480  -30.1650   23.8870 C   0  0  0  0  0  3  0  0  0  0  0  0
  -17.5240  -30.6370   23.9590 C   0  0  0  0  0  3  0  0  0  0  0  0
  -16.4620  -29.8110   23.5540 C   0  0  0  0  0  3  0  0  0  0  0  0
  -16.7280  -28.5190   23.0630 C   0  0  0  0  0  3  0  0  0  0  0  0
  -25.9260  -32.5790   23.8720 C   0  0  0  0  0  3  0  0  0  0  0  0
  -25.6330  -33.9820   24.1870 N   0  0  0  0  0  0  0  0  0  0  0  0
  -25.9590  -35.0200   23.4060 C   0  0  0  0  0  0  0  0  0  0  0  0
  -26.6090  -34.8950   22.3630 O   0  0  0  0  0  0  0  0  0  0  0  0
  -25.0540  -34.1530   24.9940 H   0  0  0  0  0  0  0  0  0  0  0  0
  -24.2440  -36.8240   23.0500 C   0  0  0  0  0  1  0  0  0  0  0  0
  -25.4910  -36.4180   23.8520 C   0  0  0  0  0  3  0  0  0  0  0  0
  -27.6450  -37.2910   24.6440 C   0  0  0  0  0  1  0  0  0  0  0  0
  -26.5330  -37.4590   23.7130 N   0  0  0  0  0  0  0  0  0  0  0  0
  -26.1390  -38.3850   23.8570 H   0  0  0  0  0  0  0  0  0  0  0  0
  -26.4640  -31.8180   25.1440 C   0  0  1  0  0  0  0  0  0  0  0  0
  -25.3820  -31.5620   26.2190 C   0  0  0  0  0  1  0  0  0  0  0  0
  -27.0650  -30.4500   24.7460 C   0  0  0  0  0  1  0  0  0  0  0  0
  -27.6060  -32.6300   25.7980 C   0  0  0  0  0  1  0  0  0  0  0  0
  1  3  2  0
  2  9  1  0
  2  1  1  0
  4  2  1  0
  5  7  2  0
  5  9  1  0
  6  8  1  0
  7 10  1  0
  9  6  2  0
 10 19  1  0
 10  8  2  0
 11 19  1  0
 12 17  1  0
 13 14  1  0
 13 12  1  0
 15 14  1  0
 15 23  1  0
 15 16  1  0
 17 11  1  0
 17 16  1  0
 18 11  2  0
 19 49  1  0
 20 21  2  0
 21 40  1  0
 22 21  1  0
 22 25  1  0
 23 24  1  0
 23 20  1  0
 24 22  2  0
 25 26  1  0
 26 27  2  0
 28 31  1  0
 28 27  1  0
 29 28  2  0
 30 29  1  0
 30 25  2  0
 31 32  1  0
 32 33  1  0
 33 34  2  0
 35 34  1  0
 35 39  1  0
 36 35  2  0
 37 32  2  0
 37 36  1  0
 38 37  1  0
 40 41  1  0
 41 43  1  0
 41 44  1  0
 42 40  2  0
 45 20  1  0
 45 46  1  0
 47 45  1  0
 49 48  1  0
 50  1  1  0
 50 51  1  0
 52 53  1  0
 52 51  1  0
 54 65  2  0
 55 53  1  0
 55 60  1  0
 56 64  1  0
 56 66  1  0
 57 63  1  0
 57 59  1  0
 58 64  1  0
 59 60  2  0
 59 58  1  0
 61 55  2  0
 62 61  1  0
 62 57  2  0
 63 56  1  0
 64 54  1  0
 66 68  2  0
 67 66  1  0
 69 67  1  0
 70 79  2  0
 70 75  1  0
 71 67  1  0
 71 75  1  0
 72 71  1  0
 73 74  1  0
 73 72  1  0
 74 70  1  0
 75 76  2  0
 76 77  1  0
 78 77  2  0
 79 78  1  0
 80 54  1  0
 80 81  1  0
 80 90  1  0
 81 84  1  0
 82 86  1  0
 82 81  1  0
 83 82  2  0
 86 85  1  0
 88 86  1  0
 88 89  1  0
 88 87  1  0
 90 93  1  1
 90 91  1  0
 92 90  1  0
M  ISO  4  11 100  19 100  52 101  53 101
M  END
>  <TORSDO>  (55) 
F 21

>  <SCORE>  (55) 
-10.069

>  <name>  (55) 
54

>  <ligand_id>  (55) 
54

>  <original_smiles>  (55) 
[H]c1c([H])c([H])c2c(c1[H])C([H])([H])C([H])([H])C([H])([H])C2([H])N([H])C(=O)C1([H])N(C(=O)C([H])(N([H])C(=O)C([H])(N([H])C([H])([H])[H])C([H])([H])[H])C(C([H])([H])[H])(C([H])([H])[H])C([H])([H])[H])C([H])([H])c2c([H])c(OC([H])([H])C([H])([H])C([H])([H])C(=O)N([H])c3c([H])c([H])c(N(C(=O)N4C([H])([H])C([H])([H])C([H])([H])C([H])(n5nc(-c6c([H])c([H])c(Oc7c([H])c([H])c(F)c([H])c7F)c([H])c6[H])c(C(=O)N([H])[H])c5N([H])[H])C4([H])[H])C([H])([H])C([H])([H])[H])c([H])c3[H])c([H])c([H])c2C1([H])[H]

>  <smiles>  (55) 
[H]c1c([H])c([H])c2c(c1[H])C([H])([H])C([H])([H])C([H])([H])C2([H])N([H])C(=O)C1([H])N(C(=O)C([H])(N([H])C(=O)C([H])(N([H])C([H])([H])[H])C([H])([H])[H])C(C([H])([H])[H])(C([H])([H])[H])C([H])([H])[H])C([H])([H])c2c([H])c(OC([H])([H])C([H])([H])C([H])([H])C(=O)N([H])c3c([H])c([H])c(N(C(=O)N4C([H])([H])C([H])([H])C([H])([H])C([H])(n5nc(-c6c([H])c([H])c(Oc7c([H])c([H])c(F)c([H])c7F)c([H])c6[H])c(C(=O)N([H])[H])c5N([H])[H])C4([H])[H])C([H])([H])C([H])([H])[H])c([H])c3[H])c([H])c([H])c2C1([H])[H]

$$$$
55:0:0
     RDKit          3D

 99108  0  0  1  0  0  0  0  0999 V2000
  -27.8640  -23.4370   21.2060 C   0  0  0  0  0  3  0  0  0  0  0  0
  -28.4270  -23.8360   19.9530 C   0  0  0  0  0  0  0  0  0  0  0  0
  -28.0580  -22.0850   21.3870 C   0  0  0  0  0  0  0  0  0  0  0  0
  -28.9390  -22.6280   19.4550 C   0  0  0  0  0  0  0  0  0  0  0  0
  -28.7590  -21.5180   20.3260 N   0  0  0  0  0  0  0  0  0  0  0  0
  -30.3700  -19.6440   20.8930 C   0  0  0  0  0  3  0  0  0  0  0  0
  -28.4110  -19.0560   19.6590 C   0  0  0  0  0  3  0  0  0  0  0  0
  -29.1840  -20.0980   20.2500 C   0  0  0  0  0  0  0  0  0  0  0  0
  -30.7360  -18.2610   20.9970 C   0  0  0  0  0  0  0  0  0  0  0  0
  -29.9250  -17.2060   20.4550 C   0  0  0  0  0  0  0  0  0  0  0  0
  -28.7670  -17.6660   19.7520 C   0  0  0  0  0  0  0  0  0  0  0  0
  -27.9310  -16.7500   19.2090 F   0  0  0  0  0  0  0  0  0  0  0  0
  -30.5950  -14.8000   19.8300 C   0  0  0  0  0  0  0  0  0  0  0  0
  -30.2230  -12.5880   18.7010 C   0  0  0  0  0  2  0  0  0  0  0  0
  -29.1560  -12.7200   17.5940 C   0  0  0  0  0  2  0  0  0  0  0  0
  -27.7400  -12.5310   18.1700 C   0  0  0  0  0  2  0  0  0  0  0  0
  -27.5170  -13.3800   19.4450 C   0  0  0  0  0  3  0  0  0  0  0  0
  -28.6800  -13.2250   20.4410 C   0  0  0  0  0  2  0  0  0  0  0  0
  -29.9280  -13.5930   19.7520 N   0  0  0  0  0  0  0  0  0  0  0  0
  -31.5920  -14.9940   19.1270 O   0  0  0  0  0  0  0  0  0  0  0  0
  -30.4730  -15.3880   22.1360 C   0  0  0  0  0  1  0  0  0  0  0  0
  -30.1680  -15.7560   20.7340 N   0  0  0  0  0  0  0  0  0  0  0  0
  -25.2570  -13.9790   20.5050 C   0  0  0  0  0  0  0  0  0  0  0  0
  -24.2220  -13.2030   20.9490 C   0  0  0  0  0  0  0  0  0  0  0  0
  -24.6360  -11.8480   20.7710 C   0  0  0  0  0  0  0  0  0  0  0  0
  -26.2340  -13.0940   20.0750 N   0  0  0  0  0  0  0  0  0  0  0  0
  -25.8740  -11.8030   20.2960 N   0  0  0  0  0  0  0  0  0  0  0  0
  -23.8990  -10.5930   20.9670 C   0  0  0  0  0  0  0  0  0  0  0  0
  -24.3650   -9.5920   21.8460 C   0  0  0  0  0  3  0  0  0  0  0  0
  -23.6280   -8.4020   22.0280 C   0  0  0  0  0  3  0  0  0  0  0  0
  -22.4130   -8.2050   21.3300 C   0  0  0  0  0  0  0  0  0  0  0  0
  -21.9660   -9.1970   20.4390 C   0  0  0  0  0  3  0  0  0  0  0  0
  -22.7010  -10.3790   20.2570 C   0  0  0  0  0  3  0  0  0  0  0  0
  -21.6430   -7.0700   21.4270 O   0  0  0  0  0  0  0  0  0  0  0  0
  -21.5820   -6.3390   22.5860 C   0  0  0  0  0  0  0  0  0  0  0  0
  -21.1540   -6.9080   23.8040 C   0  0  0  0  0  3  0  0  0  0  0  0
  -21.0380   -6.1030   24.9540 C   0  0  0  0  0  3  0  0  0  0  0  0
  -21.3410   -4.7300   24.8890 C   0  0  0  0  0  0  0  0  0  0  0  0
  -21.7620   -4.1600   23.6740 C   0  0  0  0  0  3  0  0  0  0  0  0
  -21.8820   -4.9630   22.5250 C   0  0  0  0  0  0  0  0  0  0  0  0
  -22.2680   -4.4030   21.3520 F   0  0  0  0  0  0  0  0  0  0  0  0
  -21.2230   -3.9550   25.9930 F   0  0  0  0  0  0  0  0  0  0  0  0
  -22.8840  -13.6900   21.4260 C   0  0  0  0  0  0  0  0  0  0  0  0
  -22.2590  -12.9770   22.3540 N   0  0  0  0  0  0  0  0  0  0  0  0
  -22.4070  -14.7460   21.0140 O   0  0  0  0  0  0  0  0  0  0  0  0
  -22.6550  -12.1210   22.7160 H   0  0  0  0  0  0  0  0  0  0  0  0
  -21.3660  -13.2930   22.7060 H   0  0  0  0  0  0  0  0  0  0  0  0
  -25.4340  -15.3550   20.4060 N   0  0  0  0  0  0  0  0  0  0  0  0
  -24.6930  -15.9980   20.6620 H   0  0  0  0  0  0  0  0  0  0  0  0
  -26.2470  -15.8180   20.0130 H   0  0  0  0  0  0  0  0  0  0  0  0
  -31.9230  -17.9620   21.6750 N   0  0  0  0  0  0  0  0  0  0  0  0
  -32.0310  -16.9990   21.9800 H   0  0  0  0  0  0  0  0  0  0  0  0
  -32.2630  -18.6220   22.3660 H   0  0  0  0  0  0  0  0  0  0  0  0
  -27.6550  -21.3090   22.4310 O   0  0  0  0  0  0  0  0  0  0  0  0
  -27.1270  -21.8520   23.0090 H   0  0  0  0  0  0  0  0  0  0  0  0
  -29.5660  -22.4460   18.2610 O   0  0  0  0  0  0  0  0  0  0  0  0
  -29.5720  -21.5160   18.0630 H   0  0  0  0  0  0  0  0  0  0  0  0
  -28.3960  -25.2630   19.2500 C   0  0  0  0  0  2  0  0  0  0  0  0
  -28.2560  -26.5570   19.9860 O   0  0  0  0  0  0  0  0  0  0  0  0
  -24.5130  -31.8880   23.0980 C   0  0  0  0  0  0  0  0  0  0  0  0
  -27.1210  -27.3920   19.9150 C   0  0  0  0  0  0  0  0  0  0  0  0
  -23.2980  -30.4940   21.4610 C   0  0  0  0  0  3  0  0  0  0  0  0
  -24.7380  -28.9930   19.9720 C   0  0  0  0  0  0  0  0  0  0  0  0
  -25.8260  -30.8550   21.2230 C   0  0  0  0  0  2  0  0  0  0  0  0
  -25.9090  -29.4800   20.5630 C   0  0  0  0  0  0  0  0  0  0  0  0
  -27.0970  -28.6880   20.5320 C   0  0  0  0  0  3  0  0  0  0  0  0
  -25.9270  -26.9700   19.2910 C   0  0  0  0  0  3  0  0  0  0  0  0
  -24.7550  -27.7490   19.3200 C   0  0  0  0  0  3  0  0  0  0  0  0
  -23.4920  -29.8490   20.0610 C   0  0  0  0  0  2  0  0  0  0  0  0
  -24.5670  -31.0980   21.9840 N   0  0  0  0  0  0  0  0  0  0  0  0
  -23.4350  -32.1340   23.6590 O   0  0  0  0  0  0  0  0  0  0  0  0
  -22.6720  -29.4490   22.4180 C   0  0  0  0  0  0  0  0  0  0  0  0
  -21.3530  -29.2230   22.2930 N   0  0  0  0  0  0  0  0  0  0  0  0
  -23.3720  -28.8470   23.2360 O   0  0  0  0  0  0  0  0  0  0  0  0
  -20.8420  -29.7730   21.6150 H   0  0  0  0  0  0  0  0  0  0  0  0
  -18.0350  -27.8510   22.7460 C   0  0  0  0  0  0  0  0  0  0  0  0
  -20.5710  -28.2480   23.0560 C   0  0  0  0  0  3  0  0  0  0  0  0
  -20.7560  -26.8180   22.4980 C   0  0  0  0  0  2  0  0  0  0  0  0
  -19.6910  -26.4290   21.4670 C   0  0  0  0  0  2  0  0  0  0  0  0
  -18.2920  -26.5070   22.0870 C   0  0  0  0  0  2  0  0  0  0  0  0
  -19.1040  -28.6750   23.1860 C   0  0  0  0  0  0  0  0  0  0  0  0
  -18.8080  -29.9300   23.7620 C   0  0  0  0  0  3  0  0  0  0  0  0
  -17.4750  -30.3640   23.8990 C   0  0  0  0  0  3  0  0  0  0  0  0
  -16.4200  -29.5390   23.4720 C   0  0  0  0  0  3  0  0  0  0  0  0
  -16.7010  -28.2820   22.9040 C   0  0  0  0  0  3  0  0  0  0  0  0
  -25.7940  -32.5340   23.7070 C   0  0  0  0  0  3  0  0  0  0  0  0
  -25.4660  -33.9190   24.0770 N   0  0  0  0  0  0  0  0  0  0  0  0
  -25.7570  -34.9970   23.3370 C   0  0  0  0  0  0  0  0  0  0  0  0
  -26.4040  -34.9320   22.2870 O   0  0  0  0  0  0  0  0  0  0  0  0
  -24.8990  -34.0440   24.9040 H   0  0  0  0  0  0  0  0  0  0  0  0
  -23.9970  -36.7730   23.0600 C   0  0  0  0  0  1  0  0  0  0  0  0
  -25.2580  -36.3670   23.8400 C   0  0  0  0  0  3  0  0  0  0  0  0
  -27.3940  -37.2640   24.6550 C   0  0  0  0  0  1  0  0  0  0  0  0
  -26.2720  -37.4390   23.7350 N   0  0  0  0  0  0  0  0  0  0  0  0
  -25.8570  -38.3510   23.9120 H   0  0  0  0  0  0  0  0  0  0  0  0
  -26.3550  -31.7460   24.9540 C   0  0  1  0  0  0  0  0  0  0  0  0
  -25.2890  -31.4550   26.0360 C   0  0  0  0  0  1  0  0  0  0  0  0
  -26.9650  -30.3960   24.5100 C   0  0  0  0  0  1  0  0  0  0  0  0
  -27.4990  -32.5530   25.6140 C   0  0  0  0  0  1  0  0  0  0  0  0
  1  3  2  0
  2  1  1  0
  3 54  1  0
  4  2  2  0
  4  5  1  0
  5  3  1  0
  6  9  1  0
  7 11  2  0
  7  8  1  0
  8  5  1  0
  8  6  2  0
  9 51  1  0
 10 22  1  0
 10  9  2  0
 11 10  1  0
 12 11  1  0
 13 22  1  0
 14 19  1  0
 15 16  1  0
 15 14  1  0
 17 16  1  0
 17 26  1  0
 17 18  1  0
 19 13  1  0
 19 18  1  0
 20 13  2  0
 22 21  1  0
 23 24  2  0
 24 43  1  0
 25 24  1  0
 25 28  1  0
 26 27  1  0
 26 23  1  0
 27 25  2  0
 28 29  1  0
 29 30  2  0
 31 34  1  0
 31 30  1  0
 32 31  2  0
 33 32  1  0
 33 28  2  0
 34 35  1  0
 35 36  1  0
 36 37  2  0
 38 37  1  0
 38 42  1  0
 39 38  2  0
 40 35  2  0
 40 39  1  0
 41 40  1  0
 43 44  1  0
 44 47  1  0
 44 46  1  0
 45 43  2  0
 48 23  1  0
 48 49  1  0
 50 48  1  0
 51 52  1  0
 51 53  1  0
 54 55  1  0
 56  4  1  0
 57 56  1  0
 58  2  1  0
 58 59  1  0
 60 71  2  0
 61 59  1  0
 61 66  1  0
 62 70  1  0
 62 72  1  0
 63 69  1  0
 63 65  1  0
 64 70  1  0
 65 64  1  0
 66 65  2  0
 67 68  1  0
 67 61  2  0
 68 63  2  0
 69 62  1  0
 70 60  1  0
 72 74  2  0
 73 72  1  0
 75 73  1  0
 76 85  2  0
 76 81  1  0
 77 73  1  0
 77 81  1  0
 78 77  1  0
 79 80  1  0
 79 78  1  0
 80 76  1  0
 81 82  2  0
 82 83  1  0
 84 83  2  0
 85 84  1  0
 86 60  1  0
 86 87  1  0
 86 96  1  0
 87 90  1  0
 88 92  1  0
 88 87  1  0
 89 88  2  0
 92 91  1  0
 94 92  1  0
 94 95  1  0
 94 93  1  0
 96 99  1  1
 96 97  1  0
 98 96  1  0
M  ISO  4  13 100  22 100  58 101  59 101
M  END
>  <TORSDO>  (56) 
F 21

>  <SCORE>  (56) 
-12.862

>  <name>  (56) 
55

>  <ligand_id>  (56) 
55

>  <original_smiles>  (56) 
[H]Oc1c([H])c(C([H])([H])Oc2c([H])c([H])c3c(c2[H])C([H])([H])N(C(=O)C([H])(N([H])C(=O)C([H])(N([H])C([H])([H])[H])C([H])([H])[H])C(C([H])([H])[H])(C([H])([H])[H])C([H])([H])[H])C([H])(C(=O)N([H])C2([H])c4c([H])c([H])c([H])c([H])c4C([H])([H])C([H])([H])C2([H])[H])C3([H])[H])c(O[H])n1-c1c([H])c(F)c(N(C(=O)N2C([H])([H])C([H])([H])C([H])([H])C([H])(n3nc(-c4c([H])c([H])c(Oc5c([H])c([H])c(F)c([H])c5F)c([H])c4[H])c(C(=O)N([H])[H])c3N([H])[H])C2([H])[H])C([H])([H])[H])c(N([H])[H])c1[H]

>  <smiles>  (56) 
[H]Oc1c([H])c(C([H])([H])Oc2c([H])c([H])c3c(c2[H])C([H])([H])N(C(=O)C([H])(N([H])C(=O)C([H])(N([H])C([H])([H])[H])C([H])([H])[H])C(C([H])([H])[H])(C([H])([H])[H])C([H])([H])[H])C([H])(C(=O)N([H])C2([H])c4c([H])c([H])c([H])c([H])c4C([H])([H])C([H])([H])C2([H])[H])C3([H])[H])c(O[H])n1-c1c([H])c(F)c(N(C(=O)N2C([H])([H])C([H])([H])C([H])([H])C([H])(n3nc(-c4c([H])c([H])c(Oc5c([H])c([H])c(F)c([H])c5F)c([H])c4[H])c(C(=O)N([H])[H])c3N([H])[H])C2([H])[H])C([H])([H])[H])c(N([H])[H])c1[H]

$$$$
56:0:0
     RDKit          3D

100109  0  0  1  0  0  0  0  0999 V2000
  -28.0730  -24.3970   21.4550 C   0  0  0  0  0  3  0  0  0  0  0  0
  -28.4960  -24.4920   20.0930 C   0  0  0  0  0  0  0  0  0  0  0  0
  -28.1380  -23.0770   21.8180 C   0  0  0  0  0  0  0  0  0  0  0  0
  -28.7260  -23.2020   19.6920 C   0  0  0  0  0  0  0  0  0  0  0  0
  -28.5960  -22.3210   20.7520 N   0  0  0  0  0  0  0  0  0  0  0  0
  -30.9360  -19.4600   20.7300 C   0  0  0  0  0  3  0  0  0  0  0  0
  -30.3990  -20.7460   20.9070 C   0  0  0  0  0  3  0  0  0  0  0  0
  -28.1680  -19.8850   20.4340 C   0  0  0  0  0  3  0  0  0  0  0  0
  -30.1080  -18.3680   20.3600 C   0  0  0  0  0  0  0  0  0  0  0  0
  -29.0190  -20.9720   20.7360 C   0  0  0  0  0  0  0  0  0  0  0  0
  -28.7130  -18.5870   20.2440 C   0  0  0  0  0  0  0  0  0  0  0  0
  -27.8910  -17.5610   19.9040 F   0  0  0  0  0  0  0  0  0  0  0  0
  -30.9050  -14.5760   19.9680 C   0  0  0  0  0  0  0  0  0  0  0  0
  -30.4780  -12.3930   18.9480 C   0  0  0  0  0  2  0  0  0  0  0  0
  -29.4900  -12.5720   17.7820 C   0  0  0  0  0  2  0  0  0  0  0  0
  -28.0470  -12.4220   18.2850 C   0  0  0  0  0  2  0  0  0  0  0  0
  -27.7600  -13.2820   19.5510 C   0  0  0  0  0  3  0  0  0  0  0  0
  -28.8830  -13.1750   20.6060 C   0  0  0  0  0  2  0  0  0  0  0  0
  -30.1670  -13.4350   19.9420 N   0  0  0  0  0  0  0  0  0  0  0  0
  -32.0520  -14.6040   19.5080 O   0  0  0  0  0  0  0  0  0  0  0  0
  -30.7580  -17.0880   19.9800 C   0  0  0  0  0  0  0  0  0  0  0  0
  -30.2650  -15.8460   20.2780 N   0  0  0  0  0  0  0  0  0  0  0  0
  -31.8910  -17.2310   19.2710 N   0  0  0  0  0  4  0  0  0  0  0  0
  -29.3310  -15.8900   20.6530 H   0  0  0  0  0  0  0  0  0  0  0  0
  -32.2220  -18.1340   18.9730 H   0  0  0  0  0  0  0  0  0  0  0  0
  -32.4060  -16.3890   19.0340 H   0  0  0  0  0  0  0  0  0  0  0  0
  -25.4210  -13.8430   20.4470 C   0  0  0  0  0  0  0  0  0  0  0  0
  -24.3800  -13.0530   20.8580 C   0  0  0  0  0  0  0  0  0  0  0  0
  -24.8460  -11.7060   20.7570 C   0  0  0  0  0  0  0  0  0  0  0  0
  -26.4520  -12.9750   20.1190 N   0  0  0  0  0  0  0  0  0  0  0  0
  -26.1150  -11.6800   20.3610 N   0  0  0  0  0  0  0  0  0  0  0  0
  -24.1370  -10.4340   20.9480 C   0  0  0  0  0  0  0  0  0  0  0  0
  -24.5730   -9.4720   21.8890 C   0  0  0  0  0  3  0  0  0  0  0  0
  -23.8570   -8.2700   22.0750 C   0  0  0  0  0  3  0  0  0  0  0  0
  -22.6910   -8.0200   21.3120 C   0  0  0  0  0  0  0  0  0  0  0  0
  -22.2740   -8.9620   20.3570 C   0  0  0  0  0  3  0  0  0  0  0  0
  -22.9920  -10.1560   20.1710 C   0  0  0  0  0  3  0  0  0  0  0  0
  -21.9510   -6.8660   21.4030 O   0  0  0  0  0  0  0  0  0  0  0  0
  -21.8280   -6.1810   22.5860 C   0  0  0  0  0  0  0  0  0  0  0  0
  -21.2840   -6.7790   23.7430 C   0  0  0  0  0  3  0  0  0  0  0  0
  -21.1140   -6.0170   24.9170 C   0  0  0  0  0  3  0  0  0  0  0  0
  -21.4670   -4.6570   24.9280 C   0  0  0  0  0  0  0  0  0  0  0  0
  -21.9980   -4.0550   23.7750 C   0  0  0  0  0  3  0  0  0  0  0  0
  -22.1710   -4.8140   22.6050 C   0  0  0  0  0  0  0  0  0  0  0  0
  -22.6650   -4.2240   21.4880 F   0  0  0  0  0  0  0  0  0  0  0  0
  -21.2940   -3.9210   26.0530 F   0  0  0  0  0  0  0  0  0  0  0  0
  -23.0010  -13.5180   21.2260 C   0  0  0  0  0  0  0  0  0  0  0  0
  -22.3310  -12.7920   22.1150 N   0  0  0  0  0  0  0  0  0  0  0  0
  -22.5330  -14.5640   20.7810 O   0  0  0  0  0  0  0  0  0  0  0  0
  -22.7230  -11.9470   22.4990 H   0  0  0  0  0  0  0  0  0  0  0  0
  -21.4060  -13.0810   22.4050 H   0  0  0  0  0  0  0  0  0  0  0  0
  -25.5700  -15.2190   20.3120 N   0  0  0  0  0  0  0  0  0  0  0  0
  -24.8100  -15.8620   20.5010 H   0  0  0  0  0  0  0  0  0  0  0  0
  -26.3980  -15.6840   19.9710 H   0  0  0  0  0  0  0  0  0  0  0  0
  -27.8730  -22.5010   23.0240 O   0  0  0  0  0  0  0  0  0  0  0  0
  -27.6320  -23.2010   23.6250 H   0  0  0  0  0  0  0  0  0  0  0  0
  -29.1310  -22.7590   18.4730 O   0  0  0  0  0  0  0  0  0  0  0  0
  -28.9550  -23.4450   17.8410 H   0  0  0  0  0  0  0  0  0  0  0  0
  -28.7460  -25.7260   19.2490 C   0  0  0  0  0  2  0  0  0  0  0  0
  -28.5660  -26.9460   19.9450 O   0  0  0  0  0  0  0  0  0  0  0  0
  -24.6440  -31.8530   23.1560 C   0  0  0  0  0  0  0  0  0  0  0  0
  -27.3350  -27.5590   19.9580 C   0  0  0  0  0  0  0  0  0  0  0  0
  -23.4430  -30.4660   21.4910 C   0  0  0  0  0  3  0  0  0  0  0  0
  -24.9060  -28.9870   20.0230 C   0  0  0  0  0  0  0  0  0  0  0  0
  -25.9530  -30.8830   21.2770 C   0  0  0  0  0  2  0  0  0  0  0  0
  -26.0540  -29.5290   20.6180 C   0  0  0  0  0  0  0  0  0  0  0  0
  -27.2670  -28.8190   20.5850 C   0  0  0  0  0  3  0  0  0  0  0  0
  -26.1670  -27.0090   19.3770 C   0  0  0  0  0  3  0  0  0  0  0  0
  -24.9550  -27.7250   19.4010 C   0  0  0  0  0  3  0  0  0  0  0  0
  -23.6440  -29.8130   20.0960 C   0  0  0  0  0  2  0  0  0  0  0  0
  -24.6980  -31.0780   22.0360 N   0  0  0  0  0  0  0  0  0  0  0  0
  -23.5620  -32.0960   23.7100 O   0  0  0  0  0  0  0  0  0  0  0  0
  -22.8180  -29.4180   22.4350 C   0  0  0  0  0  0  0  0  0  0  0  0
  -21.5000  -29.2000   22.2990 N   0  0  0  0  0  0  0  0  0  0  0  0
  -23.5130  -28.7960   23.2430 O   0  0  0  0  0  0  0  0  0  0  0  0
  -21.0020  -29.7550   21.6170 H   0  0  0  0  0  0  0  0  0  0  0  0
  -18.1590  -27.9050   22.7280 C   0  0  0  0  0  0  0  0  0  0  0  0
  -20.7000  -28.2280   23.0430 C   0  0  0  0  0  3  0  0  0  0  0  0
  -20.8540  -26.8100   22.4530 C   0  0  0  0  0  2  0  0  0  0  0  0
  -19.7790  -26.4720   21.4200 C   0  0  0  0  0  2  0  0  0  0  0  0
  -18.3840  -26.5710   22.0350 C   0  0  0  0  0  2  0  0  0  0  0  0
  -19.2480  -28.6950   23.1820 C   0  0  0  0  0  0  0  0  0  0  0  0
  -18.9850  -29.9470   23.7800 C   0  0  0  0  0  3  0  0  0  0  0  0
  -17.6640  -30.4090   23.9320 C   0  0  0  0  0  3  0  0  0  0  0  0
  -16.5890  -29.6150   23.4990 C   0  0  0  0  0  3  0  0  0  0  0  0
  -16.8360  -28.3670   22.9000 C   0  0  0  0  0  3  0  0  0  0  0  0
  -25.9300  -32.4840   23.7840 C   0  0  0  0  0  3  0  0  0  0  0  0
  -26.4610  -31.6950   25.0410 C   0  0  1  0  0  0  0  0  0  0  0  0
  -25.3790  -31.4380   26.1120 C   0  0  0  0  0  1  0  0  0  0  0  0
  -27.0430  -30.3270   24.6230 C   0  0  0  0  0  1  0  0  0  0  0  0
  -27.6090  -32.4840   25.7070 C   0  0  0  0  0  1  0  0  0  0  0  0
  -25.6080  -33.8760   24.1350 N   0  0  0  0  0  0  0  0  0  0  0  0
  -25.9350  -34.9400   23.3900 C   0  0  0  0  0  0  0  0  0  0  0  0
  -26.6100  -34.8540   22.3610 O   0  0  0  0  0  0  0  0  0  0  0  0
  -25.0120  -34.0180   24.9390 H   0  0  0  0  0  0  0  0  0  0  0  0
  -24.1960  -36.7220   23.0510 C   0  0  0  0  0  1  0  0  0  0  0  0
  -25.4360  -36.3150   23.8660 C   0  0  0  0  0  3  0  0  0  0  0  0
  -27.5590  -37.2000   24.7290 C   0  0  0  0  0  1  0  0  0  0  0  0
  -26.4610  -37.3780   23.7830 N   0  0  0  0  0  0  0  0  0  0  0  0
  -26.0470  -38.2900   23.9470 H   0  0  0  0  0  0  0  0  0  0  0  0
  1  3  2  0
  2  1  1  0
  3 55  1  0
  4  2  2  0
  4  5  1  0
  5  3  1  0
  6  7  1  0
  8 10  1  0
  9  6  2  0
 10  5  1  0
 10  7  2  0
 11  9  1  0
 11  8  2  0
 12 11  1  0
 13 22  1  0
 14 19  1  0
 15 16  1  0
 15 14  1  0
 17 16  1  0
 17 30  1  0
 17 18  1  0
 19 13  1  0
 19 18  1  0
 20 13  2  0
 21 22  1  0
 21  9  1  0
 22 24  1  0
 23 21  2  0
 25 23  1  0
 26 23  1  0
 27 28  2  0
 28 47  1  0
 29 28  1  0
 29 32  1  0
 30 31  1  0
 30 27  1  0
 31 29  2  0
 32 33  1  0
 33 34  2  0
 35 38  1  0
 35 34  1  0
 36 35  2  0
 37 36  1  0
 37 32  2  0
 38 39  1  0
 39 44  2  0
 39 40  1  0
 40 41  2  0
 41 42  1  0
 42 46  1  0
 43 42  2  0
 44 43  1  0
 45 44  1  0
 47 48  1  0
 48 51  1  0
 48 50  1  0
 49 47  2  0
 52 27  1  0
 52 53  1  0
 54 52  1  0
 55 56  1  0
 57  4  1  0
 58 57  1  0
 59 60  1  0
 59  2  1  0
 60 62  1  0
 61 72  2  0
 62 67  1  0
 63 71  1  0
 63 73  1  0
 64 70  1  0
 64 66  1  0
 65 71  1  0
 66 65  1  0
 67 66  2  0
 68 69  1  0
 68 62  2  0
 69 64  2  0
 70 63  1  0
 71 61  1  0
 73 75  2  0
 74 73  1  0
 76 74  1  0
 77 86  2  0
 77 82  1  0
 78 74  1  0
 78 82  1  0
 79 78  1  0
 80 81  1  0
 80 79  1  0
 81 77  1  0
 82 83  2  0
 83 84  1  0
 85 84  2  0
 86 85  1  0
 87 61  1  0
 87 92  1  0
 87 88  1  0
 88 91  1  1
 88 89  1  0
 90 88  1  0
 92 95  1  0
 93 97  1  0
 93 92  1  0
 94 93  2  0
 97 96  1  0
 99 97  1  0
 99100  1  0
 99 98  1  0
M  ISO  4  13 100  22 100  59 101  60 101
M  END
>  <TORSDO>  (57) 
F 20

>  <SCORE>  (57) 
-13.469

>  <name>  (57) 
56

>  <ligand_id>  (57) 
56

>  <original_smiles>  (57) 
[H]Oc1c([H])c(C([H])([H])Oc2c([H])c([H])c3c(c2[H])C([H])([H])N(C(=O)C([H])(N([H])C(=O)C([H])(N([H])C([H])([H])[H])C([H])([H])[H])C(C([H])([H])[H])(C([H])([H])[H])C([H])([H])[H])C([H])(C(=O)N([H])C2([H])c4c([H])c([H])c([H])c([H])c4C([H])([H])C([H])([H])C2([H])[H])C3([H])[H])c(O[H])n1-c1c([H])c([H])c(C(N([H])C(=O)N2C([H])([H])C([H])([H])C([H])([H])C([H])(n3nc(-c4c([H])c([H])c(Oc5c([H])c([H])c(F)c([H])c5F)c([H])c4[H])c(C(=O)N([H])[H])c3N([H])[H])C2([H])[H])=[N+]([H])[H])c(F)c1[H]

>  <smiles>  (57) 
[H]Oc1c([H])c(C([H])([H])Oc2c([H])c([H])c3c(c2[H])C([H])([H])N(C(=O)C([H])(N([H])C(=O)C([H])(N([H])C([H])([H])[H])C([H])([H])[H])C(C([H])([H])[H])(C([H])([H])[H])C([H])([H])[H])C([H])(C(=O)N([H])C2([H])c4c([H])c([H])c([H])c([H])c4C([H])([H])C([H])([H])C2([H])[H])C3([H])[H])c(O[H])n1-c1c([H])c([H])c(C(N([H])C(=O)N2C([H])([H])C([H])([H])C([H])([H])C([H])(n3nc(-c4c([H])c([H])c(Oc5c([H])c([H])c(F)c([H])c5F)c([H])c4[H])c(C(=O)N([H])[H])c3N([H])[H])C2([H])[H])=[N+]([H])[H])c(F)c1[H]

$$$$
57:0:0
     RDKit          3D

 94103  0  0  1  0  0  0  0  0999 V2000
  -30.4200  -24.6450   20.4920 C   0  0  0  0  0  3  0  0  0  0  0  0
  -29.1470  -24.2150   20.5450 C   0  0  0  0  0  0  0  0  0  0  0  0
  -28.8540  -22.7790   20.7600 C   0  0  0  0  0  0  0  0  0  0  0  0
  -31.6310  -23.7660   20.6960 C   0  0  0  0  0  2  0  0  0  0  0  0
  -31.2710  -22.3170   21.0770 C   0  0  0  0  0  2  0  0  0  0  0  0
  -29.9150  -21.9130   20.6620 N   0  0  0  0  0  0  0  0  0  0  0  0
  -27.7010  -22.3570   20.8870 O   0  0  0  0  0  0  0  0  0  0  0  0
  -30.4780  -20.6030   18.6510 C   0  0  0  0  0  1  0  0  0  0  0  0
  -29.7540  -20.5720   20.0100 C   0  0  0  0  0  3  0  0  0  0  0  0
  -29.5880  -18.0080   20.3080 C   0  0  0  0  0  3  0  0  0  0  0  0
  -31.0320  -19.0870   21.7560 C   0  0  0  0  0  3  0  0  0  0  0  0
  -30.1300  -19.2740   20.7350 C   0  0  0  0  0  0  0  0  0  0  0  0
  -30.1260  -16.8900   20.9070 C   0  0  0  0  0  0  0  0  0  0  0  0
  -31.3050  -17.3880   22.0980 S   0  0  0  0  0  0  0  0  0  0  0  0
  -30.5440  -14.5480   20.3150 C   0  0  0  0  0  0  0  0  0  0  0  0
  -30.2440  -12.4020   19.1190 C   0  0  0  0  0  2  0  0  0  0  0  0
  -29.2680  -12.6210   17.9450 C   0  0  0  0  0  2  0  0  0  0  0  0
  -27.8070  -12.4490   18.4070 C   0  0  0  0  0  2  0  0  0  0  0  0
  -27.4870  -13.2600   19.6940 C   0  0  0  0  0  3  0  0  0  0  0  0
  -28.5740  -13.0370   20.7690 C   0  0  0  0  0  2  0  0  0  0  0  0
  -29.8770  -13.3660   20.1680 N   0  0  0  0  0  0  0  0  0  0  0  0
  -31.6960  -14.7170   19.9120 O   0  0  0  0  0  0  0  0  0  0  0  0
  -29.7650  -15.5890   20.6890 N   0  0  0  0  0  0  0  0  0  0  0  0
  -28.7800  -15.3870   20.7290 H   0  0  0  0  0  0  0  0  0  0  0  0
  -25.0980  -13.8270   20.4640 C   0  0  0  0  0  0  0  0  0  0  0  0
  -24.0500  -13.0370   20.8530 C   0  0  0  0  0  0  0  0  0  0  0  0
  -24.5330  -11.6920   20.8130 C   0  0  0  0  0  0  0  0  0  0  0  0
  -26.1510  -12.9620   20.2060 N   0  0  0  0  0  0  0  0  0  0  0  0
  -25.8170  -11.6750   20.4760 N   0  0  0  0  0  0  0  0  0  0  0  0
  -23.8270  -10.4200   21.0130 C   0  0  0  0  0  0  0  0  0  0  0  0
  -24.2870   -9.4610   21.9420 C   0  0  0  0  0  3  0  0  0  0  0  0
  -23.5830   -8.2530   22.1330 C   0  0  0  0  0  3  0  0  0  0  0  0
  -22.4040   -7.9970   21.3940 C   0  0  0  0  0  0  0  0  0  0  0  0
  -21.9620   -8.9460   20.4560 C   0  0  0  0  0  3  0  0  0  0  0  0
  -22.6670  -10.1460   20.2630 C   0  0  0  0  0  3  0  0  0  0  0  0
  -21.6710   -6.8380   21.4930 O   0  0  0  0  0  0  0  0  0  0  0  0
  -21.6590   -6.0900   22.6430 C   0  0  0  0  0  0  0  0  0  0  0  0
  -21.2480   -6.6340   23.8800 C   0  0  0  0  0  3  0  0  0  0  0  0
  -21.1800   -5.8120   25.0220 C   0  0  0  0  0  3  0  0  0  0  0  0
  -21.5140   -4.4470   24.9300 C   0  0  0  0  0  0  0  0  0  0  0  0
  -21.9180   -3.9020   23.6980 C   0  0  0  0  0  3  0  0  0  0  0  0
  -21.9870   -4.7220   22.5570 C   0  0  0  0  0  0  0  0  0  0  0  0
  -22.3540   -4.1860   21.3680 F   0  0  0  0  0  0  0  0  0  0  0  0
  -21.4440   -3.6550   26.0250 F   0  0  0  0  0  0  0  0  0  0  0  0
  -22.6520  -13.4930   21.1520 C   0  0  0  0  0  0  0  0  0  0  0  0
  -21.9500  -12.7850   22.0280 N   0  0  0  0  0  0  0  0  0  0  0  0
  -22.1900  -14.5120   20.6420 O   0  0  0  0  0  0  0  0  0  0  0  0
  -22.3350  -11.9590   22.4630 H   0  0  0  0  0  0  0  0  0  0  0  0
  -21.0150  -13.0790   22.2740 H   0  0  0  0  0  0  0  0  0  0  0  0
  -25.2320  -15.2020   20.2880 N   0  0  0  0  0  0  0  0  0  0  0  0
  -24.4460  -15.8330   20.3980 H   0  0  0  0  0  0  0  0  0  0  0  0
  -26.0530  -15.6640   19.9170 H   0  0  0  0  0  0  0  0  0  0  0  0
  -27.9700  -25.1610   20.2460 C   0  0  0  0  0  2  0  0  0  0  0  0
  -28.2520  -26.5920   20.2440 O   0  0  0  0  0  0  0  0  0  0  0  0
  -24.5920  -31.9420   23.2570 C   0  0  0  0  0  0  0  0  0  0  0  0
  -27.1320  -27.4140   20.1820 C   0  0  0  0  0  0  0  0  0  0  0  0
  -23.3630  -30.5590   21.6210 C   0  0  0  0  0  3  0  0  0  0  0  0
  -24.7880  -29.0160   20.1790 C   0  0  0  0  0  0  0  0  0  0  0  0
  -25.9020  -30.8670   21.4270 C   0  0  0  0  0  2  0  0  0  0  0  0
  -25.9610  -29.4990   20.7720 C   0  0  0  0  0  0  0  0  0  0  0  0
  -27.1400  -28.7090   20.7610 C   0  0  0  0  0  3  0  0  0  0  0  0
  -25.9350  -26.9700   19.5680 C   0  0  0  0  0  3  0  0  0  0  0  0
  -24.7740  -27.7580   19.5630 C   0  0  0  0  0  3  0  0  0  0  0  0
  -23.5600  -29.8940   20.2350 C   0  0  0  0  0  2  0  0  0  0  0  0
  -24.6360  -31.1400   22.1560 N   0  0  0  0  0  0  0  0  0  0  0  0
  -23.5150  -32.2270   23.8000 O   0  0  0  0  0  0  0  0  0  0  0  0
  -22.7030  -29.5410   22.5810 C   0  0  0  0  0  0  0  0  0  0  0  0
  -21.3770  -29.3680   22.4570 N   0  0  0  0  0  0  0  0  0  0  0  0
  -23.3820  -28.9130   23.3990 O   0  0  0  0  0  0  0  0  0  0  0  0
  -20.8920  -29.9230   21.7650 H   0  0  0  0  0  0  0  0  0  0  0  0
  -17.9940  -28.1930   22.9690 C   0  0  0  0  0  0  0  0  0  0  0  0
  -20.5540  -28.4400   23.2350 C   0  0  0  0  0  3  0  0  0  0  0  0
  -20.6480  -27.0040   22.6700 C   0  0  0  0  0  2  0  0  0  0  0  0
  -19.5430  -26.6820   21.6580 C   0  0  0  0  0  2  0  0  0  0  0  0
  -18.1620  -26.8380   22.3020 C   0  0  0  0  0  2  0  0  0  0  0  0
  -19.1170  -28.9510   23.3950 C   0  0  0  0  0  0  0  0  0  0  0  0
  -18.9050  -30.2170   23.9830 C   0  0  0  0  0  3  0  0  0  0  0  0
  -17.6030  -30.7280   24.1430 C   0  0  0  0  0  3  0  0  0  0  0  0
  -16.4950  -29.9680   23.7310 C   0  0  0  0  0  3  0  0  0  0  0  0
  -16.6920  -28.7020   23.1530 C   0  0  0  0  0  3  0  0  0  0  0  0
  -25.8850  -32.5600   23.8700 C   0  0  0  0  0  3  0  0  0  0  0  0
  -26.4050  -31.7830   25.1430 C   0  0  1  0  0  0  0  0  0  0  0  0
  -25.3160  -31.5560   26.2180 C   0  0  0  0  0  1  0  0  0  0  0  0
  -26.9710  -30.4000   24.7480 C   0  0  0  0  0  1  0  0  0  0  0  0
  -27.5720  -32.5660   25.7900 C   0  0  0  0  0  1  0  0  0  0  0  0
  -25.5920  -33.9610   24.2020 N   0  0  0  0  0  0  0  0  0  0  0  0
  -25.9140  -35.0080   23.4320 C   0  0  0  0  0  0  0  0  0  0  0  0
  -26.5590  -34.8980   22.3850 O   0  0  0  0  0  0  0  0  0  0  0  0
  -25.0140  -34.1190   25.0130 H   0  0  0  0  0  0  0  0  0  0  0  0
  -24.1800  -36.8020   23.1160 C   0  0  0  0  0  1  0  0  0  0  0  0
  -25.4450  -36.4020   23.8930 C   0  0  0  0  0  3  0  0  0  0  0  0
  -27.6060  -37.2840   24.6550 C   0  0  0  0  0  1  0  0  0  0  0  0
  -26.4770  -37.4480   23.7400 N   0  0  0  0  0  0  0  0  0  0  0  0
  -26.0800  -38.3720   23.8920 H   0  0  0  0  0  0  0  0  0  0  0  0
  1  2  2  0
  1  4  1  0
  2  3  1  0
  3  7  2  0
  4  5  1  0
  6  3  1  0
  6  5  1  0
  9  8  1  0
  9  6  1  0
  9 12  1  0
 10 12  1  0
 10 13  2  0
 11 14  1  0
 12 11  2  0
 13 14  1  0
 15 23  1  0
 16 21  1  0
 17 18  1  0
 17 16  1  0
 19 18  1  0
 19 28  1  0
 19 20  1  0
 21 15  1  0
 21 20  1  0
 22 15  2  0
 23 24  1  0
 23 13  1  0
 25 26  2  0
 26 45  1  0
 27 26  1  0
 27 30  1  0
 28 25  1  0
 28 29  1  0
 29 27  2  0
 30 31  1  0
 31 32  2  0
 33 36  1  0
 33 32  1  0
 34 33  2  0
 35 34  1  0
 35 30  2  0
 36 37  1  0
 37 38  1  0
 38 39  2  0
 40 39  1  0
 40 44  1  0
 41 40  2  0
 42 37  2  0
 42 41  1  0
 43 42  1  0
 45 46  1  0
 46 49  1  0
 46 48  1  0
 47 45  2  0
 50 51  1  0
 50 25  1  0
 52 50  1  0
 53  2  1  0
 54 53  1  0
 55 66  2  0
 56 54  1  0
 56 61  1  0
 57 65  1  0
 57 67  1  0
 58 64  1  0
 58 60  1  0
 59 65  1  0
 60 59  1  0
 61 60  2  0
 62 56  2  0
 63 62  1  0
 63 58  2  0
 64 57  1  0
 65 55  1  0
 67 69  2  0
 68 67  1  0
 70 68  1  0
 71 80  2  0
 71 76  1  0
 72 68  1  0
 72 76  1  0
 73 72  1  0
 74 75  1  0
 74 73  1  0
 75 71  1  0
 76 77  2  0
 77 78  1  0
 79 78  2  0
 80 79  1  0
 81 55  1  0
 81 86  1  0
 81 82  1  0
 82 85  1  1
 82 83  1  0
 84 82  1  0
 86 89  1  0
 87 91  1  0
 87 86  1  0
 88 87  2  0
 91 90  1  0
 93 94  1  0
 93 91  1  0
 93 92  1  0
M  ISO  4  15 100  23 100  53 101  54 101
M  END
>  <TORSDO>  (58) 
F 19

>  <SCORE>  (58) 
-14.158

>  <name>  (58) 
57

>  <ligand_id>  (58) 
57

>  <original_smiles>  (58) 
[H]C1=C(C([H])([H])Oc2c([H])c([H])c3c(c2[H])C([H])([H])N(C(=O)C([H])(N([H])C(=O)C([H])(N([H])C([H])([H])[H])C([H])([H])[H])C(C([H])([H])[H])(C([H])([H])[H])C([H])([H])[H])C([H])(C(=O)N([H])C2([H])c4c([H])c([H])c([H])c([H])c4C([H])([H])C([H])([H])C2([H])[H])C3([H])[H])C(=O)N(C([H])(c2c([H])sc(N([H])C(=O)N3C([H])([H])C([H])([H])C([H])([H])C([H])(n4nc(-c5c([H])c([H])c(Oc6c([H])c([H])c(F)c([H])c6F)c([H])c5[H])c(C(=O)N([H])[H])c4N([H])[H])C3([H])[H])c2[H])C([H])([H])[H])C([H])([H])C1([H])[H]

>  <smiles>  (58) 
[H]C1=C(C([H])([H])Oc2c([H])c([H])c3c(c2[H])C([H])([H])N(C(=O)C([H])(N([H])C(=O)C([H])(N([H])C([H])([H])[H])C([H])([H])[H])C(C([H])([H])[H])(C([H])([H])[H])C([H])([H])[H])C([H])(C(=O)N([H])C2([H])c4c([H])c([H])c([H])c([H])c4C([H])([H])C([H])([H])C2([H])[H])C3([H])[H])C(=O)N(C([H])(c2c([H])sc(N([H])C(=O)N3C([H])([H])C([H])([H])C([H])([H])C([H])(n4nc(-c5c([H])c([H])c(Oc6c([H])c([H])c(F)c([H])c6F)c([H])c5[H])c(C(=O)N([H])[H])c4N([H])[H])C3([H])[H])c2[H])C([H])([H])[H])C([H])([H])C1([H])[H]

$$$$
58:0:0
     RDKit          3D

 98107  0  0  1  0  0  0  0  0999 V2000
  -30.2210  -23.7930   19.8940 C   0  0  0  0  0  3  0  0  0  0  0  0
  -28.9160  -23.8630   20.4630 C   0  0  0  0  0  0  0  0  0  0  0  0
  -28.5720  -22.5230   20.6930 C   0  0  0  0  0  0  0  0  0  0  0  0
  -30.5990  -22.4770   19.8080 C   0  0  0  0  0  0  0  0  0  0  0  0
  -27.3060  -21.9900   21.2940 C   0  0  0  0  0  1  0  0  0  0  0  0
  -29.6070  -21.6340   20.3000 N   0  0  0  0  0  0  0  0  0  0  0  0
  -28.6470  -19.3300   19.8500 C   0  0  0  0  0  3  0  0  0  0  0  0
  -30.7920  -19.4700   20.9200 C   0  0  0  0  0  3  0  0  0  0  0  0
  -29.6740  -20.1620   20.3680 C   0  0  0  0  0  0  0  0  0  0  0  0
  -28.7260  -17.9030   19.8900 C   0  0  0  0  0  0  0  0  0  0  0  0
  -29.8390  -17.2200   20.4570 C   0  0  0  0  0  0  0  0  0  0  0  0
  -30.8780  -18.0420   20.9740 C   0  0  0  0  0  0  0  0  0  0  0  0
  -31.9530  -17.4730   21.5720 F   0  0  0  0  0  0  0  0  0  0  0  0
  -30.5920  -14.7260   20.3080 C   0  0  0  0  0  0  0  0  0  0  0  0
  -30.3900  -12.4860   19.2370 C   0  0  0  0  0  2  0  0  0  0  0  0
  -29.4300  -12.6240   18.0350 C   0  0  0  0  0  2  0  0  0  0  0  0
  -27.9600  -12.4630   18.4750 C   0  0  0  0  0  2  0  0  0  0  0  0
  -27.6140  -13.3080   19.7300 C   0  0  0  0  0  3  0  0  0  0  0  0
  -28.6880  -13.1420   20.8300 C   0  0  0  0  0  2  0  0  0  0  0  0
  -29.9880  -13.4950   20.2370 N   0  0  0  0  0  0  0  0  0  0  0  0
  -31.7580  -14.8880   19.9380 O   0  0  0  0  0  0  0  0  0  0  0  0
  -29.7510  -15.7660   20.6020 N   0  0  0  0  0  0  0  0  0  0  0  0
  -28.8020  -15.4630   20.7510 H   0  0  0  0  0  0  0  0  0  0  0  0
  -25.2270  -13.9080   20.4670 C   0  0  0  0  0  0  0  0  0  0  0  0
  -24.1610  -13.1350   20.8380 C   0  0  0  0  0  0  0  0  0  0  0  0
  -24.6230  -11.7830   20.8040 C   0  0  0  0  0  0  0  0  0  0  0  0
  -26.2690  -13.0280   20.2250 N   0  0  0  0  0  0  0  0  0  0  0  0
  -25.9120  -11.7450   20.4870 N   0  0  0  0  0  0  0  0  0  0  0  0
  -23.8970  -10.5210   20.9990 C   0  0  0  0  0  0  0  0  0  0  0  0
  -24.3230   -9.5620   21.9430 C   0  0  0  0  0  3  0  0  0  0  0  0
  -23.5970   -8.3650   22.1260 C   0  0  0  0  0  3  0  0  0  0  0  0
  -22.4300   -8.1210   21.3640 C   0  0  0  0  0  0  0  0  0  0  0  0
  -22.0230   -9.0700   20.4090 C   0  0  0  0  0  3  0  0  0  0  0  0
  -22.7500  -10.2560   20.2250 C   0  0  0  0  0  3  0  0  0  0  0  0
  -21.6770   -6.9740   21.4550 O   0  0  0  0  0  0  0  0  0  0  0  0
  -21.6090   -6.2480   22.6170 C   0  0  0  0  0  0  0  0  0  0  0  0
  -21.1420   -6.8150   23.8240 C   0  0  0  0  0  3  0  0  0  0  0  0
  -21.0210   -6.0140   24.9770 C   0  0  0  0  0  3  0  0  0  0  0  0
  -21.3560   -4.6470   24.9240 C   0  0  0  0  0  0  0  0  0  0  0  0
  -21.8160   -4.0810   23.7230 C   0  0  0  0  0  3  0  0  0  0  0  0
  -21.9390   -4.8790   22.5720 C   0  0  0  0  0  0  0  0  0  0  0  0
  -22.3610   -4.3220   21.4110 F   0  0  0  0  0  0  0  0  0  0  0  0
  -21.2330   -3.8760   26.0300 F   0  0  0  0  0  0  0  0  0  0  0  0
  -22.7650  -13.6130   21.1190 C   0  0  0  0  0  0  0  0  0  0  0  0
  -22.0380  -12.9130   21.9830 N   0  0  0  0  0  0  0  0  0  0  0  0
  -22.3270  -14.6440   20.6090 O   0  0  0  0  0  0  0  0  0  0  0  0
  -22.4020  -12.0800   22.4200 H   0  0  0  0  0  0  0  0  0  0  0  0
  -21.1020  -13.2210   22.2120 H   0  0  0  0  0  0  0  0  0  0  0  0
  -25.3810  -15.2810   20.2960 N   0  0  0  0  0  0  0  0  0  0  0  0
  -24.6090  -15.9210   20.4370 H   0  0  0  0  0  0  0  0  0  0  0  0
  -26.2290  -15.7690   20.0080 H   0  0  0  0  0  0  0  0  0  0  0  0
  -27.6840  -17.1490   19.3390 N   0  0  0  0  0  0  0  0  0  0  0  0
  -26.9850  -17.6900   18.8430 H   0  0  0  0  0  0  0  0  0  0  0  0
  -28.0020  -16.3860   18.7520 H   0  0  0  0  0  0  0  0  0  0  0  0
  -31.7610  -21.9680   19.3170 O   0  0  0  0  0  0  0  0  0  0  0  0
  -32.3090  -22.7010   19.0540 H   0  0  0  0  0  0  0  0  0  0  0  0
  -28.0750  -25.1490   20.8210 C   0  0  0  0  0  2  0  0  0  0  0  0
  -28.3610  -26.4850   20.2290 O   0  0  0  0  0  0  0  0  0  0  0  0
  -24.6200  -31.8980   23.2420 C   0  0  0  0  0  0  0  0  0  0  0  0
  -27.2650  -27.3650   20.1870 C   0  0  0  0  0  0  0  0  0  0  0  0
  -23.4280  -30.4990   21.5940 C   0  0  0  0  0  3  0  0  0  0  0  0
  -24.8930  -28.9660   20.1650 C   0  0  0  0  0  0  0  0  0  0  0  0
  -25.9650  -30.8360   21.4170 C   0  0  0  0  0  2  0  0  0  0  0  0
  -26.0590  -29.4590   20.7670 C   0  0  0  0  0  0  0  0  0  0  0  0
  -27.2500  -28.6710   20.7680 C   0  0  0  0  0  3  0  0  0  0  0  0
  -26.0830  -26.9340   19.5450 C   0  0  0  0  0  3  0  0  0  0  0  0
  -24.9090  -27.7090   19.5430 C   0  0  0  0  0  3  0  0  0  0  0  0
  -23.6490  -29.8300   20.2130 C   0  0  0  0  0  2  0  0  0  0  0  0
  -24.6900  -31.0940   22.1420 N   0  0  0  0  0  0  0  0  0  0  0  0
  -23.5330  -32.1670   23.7770 O   0  0  0  0  0  0  0  0  0  0  0  0
  -22.7670  -29.4750   22.5490 C   0  0  0  0  0  0  0  0  0  0  0  0
  -21.4440  -29.2830   22.4100 N   0  0  0  0  0  0  0  0  0  0  0  0
  -23.4440  -28.8570   23.3740 O   0  0  0  0  0  0  0  0  0  0  0  0
  -20.9560  -29.8330   21.7170 H   0  0  0  0  0  0  0  0  0  0  0  0
  -18.0780  -28.0440   22.8720 C   0  0  0  0  0  0  0  0  0  0  0  0
  -20.6290  -28.3370   23.1740 C   0  0  0  0  0  3  0  0  0  0  0  0
  -20.7570  -26.9050   22.6060 C   0  0  0  0  0  2  0  0  0  0  0  0
  -19.6730  -26.5650   21.5780 C   0  0  0  0  0  2  0  0  0  0  0  0
  -18.2800  -26.6950   22.2030 C   0  0  0  0  0  2  0  0  0  0  0  0
  -19.1800  -28.8220   23.3130 C   0  0  0  0  0  0  0  0  0  0  0  0
  -18.9360  -30.0840   23.8980 C   0  0  0  0  0  3  0  0  0  0  0  0
  -17.6230  -30.5680   24.0450 C   0  0  0  0  0  3  0  0  0  0  0  0
  -16.5340  -29.7870   23.6200 C   0  0  0  0  0  3  0  0  0  0  0  0
  -16.7620  -28.5270   23.0390 C   0  0  0  0  0  3  0  0  0  0  0  0
  -25.8980  -32.5350   23.8690 C   0  0  0  0  0  3  0  0  0  0  0  0
  -26.4080  -31.7690   25.1520 C   0  0  1  0  0  0  0  0  0  0  0  0
  -25.3090  -31.5330   26.2130 C   0  0  0  0  0  1  0  0  0  0  0  0
  -26.9940  -30.3900   24.7670 C   0  0  0  0  0  1  0  0  0  0  0  0
  -27.5550  -32.5650   25.8170 C   0  0  0  0  0  1  0  0  0  0  0  0
  -25.5840  -33.9330   24.1950 N   0  0  0  0  0  0  0  0  0  0  0  0
  -25.9180  -34.9860   23.4370 C   0  0  0  0  0  0  0  0  0  0  0  0
  -26.5940  -34.8820   22.4080 O   0  0  0  0  0  0  0  0  0  0  0  0
  -24.9860  -34.0890   24.9930 H   0  0  0  0  0  0  0  0  0  0  0  0
  -24.1940  -36.7780   23.0660 C   0  0  0  0  0  1  0  0  0  0  0  0
  -25.4270  -36.3740   23.8900 C   0  0  0  0  0  3  0  0  0  0  0  0
  -27.5520  -37.2600   24.7410 C   0  0  0  0  0  1  0  0  0  0  0  0
  -26.4610  -37.4270   23.7860 N   0  0  0  0  0  0  0  0  0  0  0  0
  -26.0530  -38.3470   23.9290 H   0  0  0  0  0  0  0  0  0  0  0  0
  1  2  1  0
  2  3  2  0
  2 57  1  0
  3  5  1  0
  4  1  2  0
  4  6  1  0
  6  9  1  0
  6  3  1  0
  7 10  2  0
  7  9  1  0
  8 12  1  0
  9  8  2  0
 10 11  1  0
 11 22  1  0
 11 12  2  0
 12 13  1  0
 14 22  1  0
 15 20  1  0
 16 17  1  0
 16 15  1  0
 18 17  1  0
 18 27  1  0
 18 19  1  0
 20 14  1  0
 20 19  1  0
 21 14  2  0
 22 23  1  0
 24 25  2  0
 25 44  1  0
 26 25  1  0
 26 29  1  0
 27 24  1  0
 27 28  1  0
 28 26  2  0
 29 30  1  0
 30 31  2  0
 32 35  1  0
 32 31  1  0
 33 32  2  0
 34 33  1  0
 34 29  2  0
 35 36  1  0
 36 37  1  0
 37 38  2  0
 39 38  1  0
 39 43  1  0
 40 39  2  0
 41 36  2  0
 41 40  1  0
 42 41  1  0
 44 45  1  0
 45 48  1  0
 45 47  1  0
 46 44  2  0
 49 50  1  0
 49 24  1  0
 51 49  1  0
 52 10  1  0
 53 52  1  0
 54 52  1  0
 55  4  1  0
 56 55  1  0
 58 57  1  0
 59 70  2  0
 60 58  1  0
 60 65  1  0
 61 69  1  0
 61 71  1  0
 62 68  1  0
 62 64  1  0
 63 69  1  0
 64 65  2  0
 64 63  1  0
 66 60  2  0
 67 66  1  0
 67 62  2  0
 68 61  1  0
 69 59  1  0
 71 73  2  0
 72 71  1  0
 74 72  1  0
 75 84  2  0
 75 80  1  0
 76 72  1  0
 76 80  1  0
 77 76  1  0
 78 79  1  0
 78 77  1  0
 79 75  1  0
 80 81  2  0
 81 82  1  0
 83 82  2  0
 84 83  1  0
 85 59  1  0
 85 90  1  0
 85 86  1  0
 86 89  1  1
 86 87  1  0
 88 86  1  0
 90 93  1  0
 91 95  1  0
 91 90  1  0
 92 91  2  0
 95 94  1  0
 97 95  1  0
 97 98  1  0
 97 96  1  0
M  ISO  4  14 100  22 100  57 101  58 101
M  END
>  <TORSDO>  (59) 
F 20

>  <SCORE>  (59) 
-14.527

>  <name>  (59) 
58

>  <ligand_id>  (59) 
58

>  <original_smiles>  (59) 
[H]Oc1c([H])c(C([H])([H])Oc2c([H])c([H])c3c(c2[H])C([H])([H])N(C(=O)C([H])(N([H])C(=O)C([H])(N([H])C([H])([H])[H])C([H])([H])[H])C(C([H])([H])[H])(C([H])([H])[H])C([H])([H])[H])C([H])(C(=O)N([H])C2([H])c4c([H])c([H])c([H])c([H])c4C([H])([H])C([H])([H])C2([H])[H])C3([H])[H])c(C([H])([H])[H])n1-c1c([H])c(F)c(N([H])C(=O)N2C([H])([H])C([H])([H])C([H])([H])C([H])(n3nc(-c4c([H])c([H])c(Oc5c([H])c([H])c(F)c([H])c5F)c([H])c4[H])c(C(=O)N([H])[H])c3N([H])[H])C2([H])[H])c(N([H])[H])c1[H]

>  <smiles>  (59) 
[H]Oc1c([H])c(C([H])([H])Oc2c([H])c([H])c3c(c2[H])C([H])([H])N(C(=O)C([H])(N([H])C(=O)C([H])(N([H])C([H])([H])[H])C([H])([H])[H])C(C([H])([H])[H])(C([H])([H])[H])C([H])([H])[H])C([H])(C(=O)N([H])C2([H])c4c([H])c([H])c([H])c([H])c4C([H])([H])C([H])([H])C2([H])[H])C3([H])[H])c(C([H])([H])[H])n1-c1c([H])c(F)c(N([H])C(=O)N2C([H])([H])C([H])([H])C([H])([H])C([H])(n3nc(-c4c([H])c([H])c(Oc5c([H])c([H])c(F)c([H])c5F)c([H])c4[H])c(C(=O)N([H])[H])c3N([H])[H])C2([H])[H])c(N([H])[H])c1[H]

$$$$
59:0:0
     RDKit          3D

 96105  0  0  1  0  0  0  0  0999 V2000
  -31.4280  -19.0100   19.5900 C   0  0  0  0  0  3  0  0  0  0  0  0
  -30.9070  -20.3170   19.5890 C   0  0  0  0  0  3  0  0  0  0  0  0
  -30.0000  -19.9310   21.7980 C   0  0  0  0  0  3  0  0  0  0  0  0
  -31.2490  -18.1350   20.6820 C   0  0  0  0  0  0  0  0  0  0  0  0
  -30.1750  -20.8170   20.6930 C   0  0  0  0  0  0  0  0  0  0  0  0
  -30.5290  -18.6010   21.8110 C   0  0  0  0  0  0  0  0  0  0  0  0
  -31.7210  -14.6230   19.6390 C   0  0  0  0  0  0  0  0  0  0  0  0
  -31.0920  -12.5680   18.4180 C   0  0  0  0  0  2  0  0  0  0  0  0
  -29.9800  -12.8580   17.3940 C   0  0  0  0  0  2  0  0  0  0  0  0
  -28.5970  -12.7110   18.0540 C   0  0  0  0  0  2  0  0  0  0  0  0
  -28.4960  -13.4820   19.4000 C   0  0  0  0  0  3  0  0  0  0  0  0
  -29.7180  -13.2200   20.3070 C   0  0  0  0  0  2  0  0  0  0  0  0
  -30.9290  -13.5180   19.5330 N   0  0  0  0  0  0  0  0  0  0  0  0
  -32.7570  -14.7130   18.9720 O   0  0  0  0  0  0  0  0  0  0  0  0
  -31.9570  -16.7980   20.6230 C   0  0  0  0  0  0  0  0  0  0  0  0
  -31.2450  -15.6790   20.3460 N   0  0  0  0  0  0  0  0  0  0  0  0
  -33.1870  -16.8090   20.7640 O   0  0  0  0  0  0  0  0  0  0  0  0
  -30.2640  -15.6920   20.5640 H   0  0  0  0  0  0  0  0  0  0  0  0
  -26.3060  -14.0740   20.6010 C   0  0  0  0  0  0  0  0  0  0  0  0
  -25.2750  -13.3010   21.0630 C   0  0  0  0  0  0  0  0  0  0  0  0
  -25.6420  -11.9470   20.7890 C   0  0  0  0  0  0  0  0  0  0  0  0
  -27.2390  -13.1920   20.0840 N   0  0  0  0  0  0  0  0  0  0  0  0
  -26.8540  -11.9000   20.2510 N   0  0  0  0  0  0  0  0  0  0  0  0
  -24.8870  -10.6990   20.9580 C   0  0  0  0  0  0  0  0  0  0  0  0
  -25.3090   -9.6960   21.8580 C   0  0  0  0  0  3  0  0  0  0  0  0
  -24.5560   -8.5130   22.0160 C   0  0  0  0  0  3  0  0  0  0  0  0
  -23.3670   -8.3240   21.2710 C   0  0  0  0  0  0  0  0  0  0  0  0
  -22.9640   -9.3150   20.3590 C   0  0  0  0  0  3  0  0  0  0  0  0
  -23.7170  -10.4900   20.2000 C   0  0  0  0  0  3  0  0  0  0  0  0
  -22.5850   -7.1970   21.3400 O   0  0  0  0  0  0  0  0  0  0  0  0
  -22.3290   -6.5680   22.5330 C   0  0  0  0  0  0  0  0  0  0  0  0
  -21.6850   -7.2300   23.6000 C   0  0  0  0  0  3  0  0  0  0  0  0
  -21.3820   -6.5260   24.7830 C   0  0  0  0  0  3  0  0  0  0  0  0
  -21.7110   -5.1620   24.8960 C   0  0  0  0  0  0  0  0  0  0  0  0
  -22.3480   -4.5010   23.8320 C   0  0  0  0  0  3  0  0  0  0  0  0
  -22.6530   -5.2020   22.6520 C   0  0  0  0  0  0  0  0  0  0  0  0
  -23.2490   -4.5550   21.6210 F   0  0  0  0  0  0  0  0  0  0  0  0
  -21.4120   -4.4830   26.0290 F   0  0  0  0  0  0  0  0  0  0  0  0
  -23.9790  -13.7920   21.6390 C   0  0  0  0  0  0  0  0  0  0  0  0
  -23.4090  -13.0470   22.5800 N   0  0  0  0  0  0  0  0  0  0  0  0
  -23.4900  -14.8650   21.2900 O   0  0  0  0  0  0  0  0  0  0  0  0
  -23.8250  -12.1770   22.8790 H   0  0  0  0  0  0  0  0  0  0  0  0
  -22.5480  -13.3520   23.0090 H   0  0  0  0  0  0  0  0  0  0  0  0
  -26.5180  -15.4480   20.5600 N   0  0  0  0  0  0  0  0  0  0  0  0
  -25.8190  -16.1130   20.8770 H   0  0  0  0  0  0  0  0  0  0  0  0
  -27.3210  -15.8930   20.1370 H   0  0  0  0  0  0  0  0  0  0  0  0
  -28.6070  -22.6910   21.3450 C   0  0  0  0  0  0  0  0  0  0  0  0
  -28.3580  -24.1580   20.9950 C   0  0  0  0  0  2  0  0  0  0  0  0
  -30.2080  -23.2430   19.7930 C   0  0  0  0  0  2  0  0  0  0  0  0
  -29.0870  -24.2920   19.6620 C   0  0  0  0  0  3  0  0  0  0  0  0
  -29.6600  -22.1800   20.6620 N   0  0  0  0  0  0  0  0  0  0  0  0
  -27.8730  -22.1010   22.1430 O   0  0  0  0  0  0  0  0  0  0  0  0
  -29.4880  -25.7040   19.1180 C   0  0  0  0  0  2  0  0  0  0  0  0
  -29.2340  -26.8700   19.9230 O   0  0  0  0  0  0  0  0  0  0  0  0
  -24.8320  -31.4690   23.1110 C   0  0  0  0  0  0  0  0  0  0  0  0
  -27.9870  -27.4730   19.8840 C   0  0  0  0  0  0  0  0  0  0  0  0
  -23.8110  -30.0200   21.3880 C   0  0  0  0  0  3  0  0  0  0  0  0
  -25.4430  -28.7250   19.9150 C   0  0  0  0  0  0  0  0  0  0  0  0
  -26.2850  -30.6570   21.2560 C   0  0  0  0  0  2  0  0  0  0  0  0
  -26.5260  -29.3340   20.5570 C   0  0  0  0  0  0  0  0  0  0  0  0
  -27.7960  -28.7080   20.5500 C   0  0  0  0  0  3  0  0  0  0  0  0
  -26.8800  -26.8890   19.2280 C   0  0  0  0  0  3  0  0  0  0  0  0
  -25.6140  -27.5010   19.2490 C   0  0  0  0  0  3  0  0  0  0  0  0
  -24.1130  -29.4400   19.9810 C   0  0  0  0  0  2  0  0  0  0  0  0
  -24.9920  -30.7290   21.9780 N   0  0  0  0  0  0  0  0  0  0  0  0
  -23.7190  -31.5970   23.6400 O   0  0  0  0  0  0  0  0  0  0  0  0
  -23.2680  -28.8860   22.2860 C   0  0  0  0  0  0  0  0  0  0  0  0
  -21.9920  -28.5210   22.0820 N   0  0  0  0  0  0  0  0  0  0  0  0
  -23.9910  -28.3430   23.1260 O   0  0  0  0  0  0  0  0  0  0  0  0
  -21.4590  -29.0200   21.3820 H   0  0  0  0  0  0  0  0  0  0  0  0
  -18.8220  -26.8040   22.3420 C   0  0  0  0  0  0  0  0  0  0  0  0
  -21.2830  -27.4550   22.7880 C   0  0  0  0  0  3  0  0  0  0  0  0
  -21.6460  -26.0660   22.2140 C   0  0  0  0  0  2  0  0  0  0  0  0
  -20.6790  -25.5910   21.1260 C   0  0  0  0  0  2  0  0  0  0  0  0
  -19.2500  -25.5100   21.6720 C   0  0  0  0  0  2  0  0  0  0  0  0
  -19.7750  -27.7240   22.8520 C   0  0  0  0  0  0  0  0  0  0  0  0
  -19.3220  -28.9300   23.4320 C   0  0  0  0  0  3  0  0  0  0  0  0
  -17.9470  -29.2200   23.5100 C   0  0  0  0  0  3  0  0  0  0  0  0
  -17.0060  -28.2990   23.0170 C   0  0  0  0  0  3  0  0  0  0  0  0
  -17.4440  -27.0920   22.4400 C   0  0  0  0  0  3  0  0  0  0  0  0
  -26.0310  -32.2120   23.7790 C   0  0  0  0  0  3  0  0  0  0  0  0
  -26.5870  -31.4740   25.0580 C   0  0  1  0  0  0  0  0  0  0  0  0
  -25.4930  -31.1040   26.0870 C   0  0  0  0  0  1  0  0  0  0  0  0
  -27.3220  -30.1730   24.6600 C   0  0  0  0  0  1  0  0  0  0  0  0
  -27.6300  -32.3720   25.7680 C   0  0  0  0  0  1  0  0  0  0  0  0
  -25.5830  -33.5710   24.1150 N   0  0  0  0  0  0  0  0  0  0  0  0
  -25.8240  -34.6580   23.3700 C   0  0  0  0  0  0  0  0  0  0  0  0
  -26.5210  -34.6300   22.3520 O   0  0  0  0  0  0  0  0  0  0  0  0
  -24.9760  -33.6670   24.9160 H   0  0  0  0  0  0  0  0  0  0  0  0
  -23.9310  -36.2700   22.9960 C   0  0  0  0  0  1  0  0  0  0  0  0
  -25.1900  -35.9870   23.8280 C   0  0  0  0  0  3  0  0  0  0  0  0
  -27.2030  -37.0750   24.7160 C   0  0  0  0  0  1  0  0  0  0  0  0
  -26.1140  -37.1390   23.7450 N   0  0  0  0  0  0  0  0  0  0  0  0
  -25.6140  -38.0100   23.8960 H   0  0  0  0  0  0  0  0  0  0  0  0
  -30.2510  -18.2920   24.1880 C   0  0  0  0  0  1  0  0  0  0  0  0
  -30.4150  -17.7420   22.8870 O   0  0  0  0  0  0  0  0  0  0  0  0
  1  4  1  0
  2  1  2  0
  2  5  1  0
  3  6  1  0
  4  6  2  0
  5  3  2  0
  6 96  1  0
  7 16  1  0
  8 13  1  0
  9 10  1  0
  9  8  1  0
 11 10  1  0
 11 22  1  0
 11 12  1  0
 13  7  1  0
 13 12  1  0
 14  7  2  0
 15  4  1  0
 15 17  2  0
 16 18  1  0
 16 15  1  0
 19 20  2  0
 20 39  1  0
 21 24  1  0
 21 20  1  0
 22 23  1  0
 22 19  1  0
 23 21  2  0
 24 25  1  0
 25 26  2  0
 27 30  1  0
 27 26  1  0
 28 27  2  0
 29 28  1  0
 29 24  2  0
 30 31  1  0
 31 36  2  0
 31 32  1  0
 32 33  2  0
 33 34  1  0
 34 38  1  0
 35 34  2  0
 36 35  1  0
 37 36  1  0
 39 40  1  0
 40 42  1  0
 40 43  1  0
 41 39  2  0
 44 19  1  0
 44 45  1  0
 46 44  1  0
 47 52  2  0
 48 47  1  0
 49 51  1  0
 50 53  1  0
 50 49  1  0
 50 48  1  0
 51  5  1  0
 51 47  1  0
 53 54  1  0
 55 66  2  0
 56 54  1  0
 56 61  1  0
 57 65  1  0
 57 67  1  0
 58 64  1  0
 58 60  1  0
 59 65  1  0
 60 59  1  0
 61 60  2  0
 62 63  1  0
 62 56  2  0
 63 58  2  0
 64 57  1  0
 65 55  1  0
 67 69  2  0
 68 67  1  0
 70 68  1  0
 71 80  2  0
 71 76  1  0
 72 68  1  0
 72 76  1  0
 73 72  1  0
 74 75  1  0
 74 73  1  0
 75 71  1  0
 76 77  2  0
 77 78  1  0
 79 78  2  0
 80 79  1  0
 81 55  1  0
 81 86  1  0
 81 82  1  0
 82 85  1  1
 82 83  1  0
 84 82  1  0
 86 89  1  0
 87 91  1  0
 87 86  1  0
 88 87  2  0
 91 90  1  0
 93 91  1  0
 93 94  1  0
 93 92  1  0
 96 95  1  0
M  ISO  4   7 100  16 100  53 101  54 101
M  END
>  <TORSDO>  (60) 
F 19

>  <SCORE>  (60) 
-8.608

>  <name>  (60) 
59

>  <ligand_id>  (60) 
59

>  <original_smiles>  (60) 
[H]c1c([H])c([H])c2c(c1[H])C([H])([H])C([H])([H])C([H])([H])C2([H])N([H])C(=O)C1([H])N(C(=O)C([H])(N([H])C(=O)C([H])(N([H])C([H])([H])[H])C([H])([H])[H])C(C([H])([H])[H])(C([H])([H])[H])C([H])([H])[H])C([H])([H])c2c([H])c(OC([H])([H])C3([H])C([H])([H])C(=O)N(c4c([H])c([H])c(C(=O)N([H])C(=O)N5C([H])([H])C([H])([H])C([H])([H])C([H])(n6nc(-c7c([H])c([H])c(Oc8c([H])c([H])c(F)c([H])c8F)c([H])c7[H])c(C(=O)N([H])[H])c6N([H])[H])C5([H])[H])c(OC([H])([H])[H])c4[H])C3([H])[H])c([H])c([H])c2C1([H])[H]

>  <smiles>  (60) 
[H]c1c([H])c([H])c2c(c1[H])C([H])([H])C([H])([H])C([H])([H])C2([H])N([H])C(=O)C1([H])N(C(=O)C([H])(N([H])C(=O)C([H])(N([H])C([H])([H])[H])C([H])([H])[H])C(C([H])([H])[H])(C([H])([H])[H])C([H])([H])[H])C([H])([H])c2c([H])c(OC([H])([H])C3([H])C([H])([H])C(=O)N(c4c([H])c([H])c(C(=O)N([H])C(=O)N5C([H])([H])C([H])([H])C([H])([H])C([H])(n6nc(-c7c([H])c([H])c(Oc8c([H])c([H])c(F)c([H])c8F)c([H])c7[H])c(C(=O)N([H])[H])c6N([H])[H])C5([H])[H])c(OC([H])([H])[H])c4[H])C3([H])[H])c([H])c([H])c2C1([H])[H]

$$$$
60:0:0
     RDKit          3D

 93102  0  0  1  0  0  0  0  0999 V2000
  -28.4350  -22.1530   21.8720 C   0  0  0  0  0  0  0  0  0  0  0  0
  -27.3650  -23.1780   22.2140 C   0  0  0  0  0  2  0  0  0  0  0  0
  -26.7640  -23.4890   20.8510 C   0  0  0  0  0  2  0  0  0  0  0  0
  -27.9690  -23.3190   19.9080 C   0  0  0  0  0  3  0  0  0  0  0  0
  -28.7860  -22.1290   20.5600 N   0  0  0  0  0  0  0  0  0  0  0  0
  -28.8830  -21.4160   22.7530 O   0  0  0  0  0  0  0  0  0  0  0  0
  -28.2530  -19.6190   19.9480 C   0  0  0  0  0  3  0  0  0  0  0  0
  -28.6100  -18.2100   19.9530 C   0  0  0  0  0  3  0  0  0  0  0  0
  -30.8950  -18.7770   20.1490 C   0  0  0  0  0  3  0  0  0  0  0  0
  -29.1880  -20.7040   20.1130 C   0  0  0  0  0  0  0  0  0  0  0  0
  -29.9420  -17.6920   20.0970 C   0  0  0  0  0  0  0  0  0  0  0  0
  -30.5410  -20.1940   20.1720 C   0  0  0  0  0  0  0  0  0  0  0  0
  -31.5510  -21.0820   20.3470 F   0  0  0  0  0  0  0  0  0  0  0  0
  -30.8440  -15.1100   19.9290 C   0  0  0  0  0  0  0  0  0  0  0  0
  -30.6440  -12.7730   18.9680 C   0  0  0  0  0  2  0  0  0  0  0  0
  -29.6730  -12.7460   17.7710 C   0  0  0  0  0  2  0  0  0  0  0  0
  -28.2260  -12.5410   18.2600 C   0  0  0  0  0  2  0  0  0  0  0  0
  -27.8640  -13.4720   19.4520 C   0  0  0  0  0  3  0  0  0  0  0  0
  -28.9590  -13.4630   20.5430 C   0  0  0  0  0  2  0  0  0  0  0  0
  -30.2210  -13.8590   19.8970 N   0  0  0  0  0  0  0  0  0  0  0  0
  -31.9780  -15.1950   19.4500 O   0  0  0  0  0  0  0  0  0  0  0  0
  -30.4020  -16.1990   21.9760 C   0  0  0  0  0  1  0  0  0  0  0  0
  -30.2110  -16.2420   20.5260 N   0  0  0  0  0  0  0  0  0  0  0  0
  -25.5320  -14.0690   20.3250 C   0  0  0  0  0  0  0  0  0  0  0  0
  -24.4750  -13.3040   20.7330 C   0  0  0  0  0  0  0  0  0  0  0  0
  -24.9180  -11.9470   20.6590 C   0  0  0  0  0  0  0  0  0  0  0  0
  -26.5450  -13.1820   20.0090 N   0  0  0  0  0  0  0  0  0  0  0  0
  -26.1920  -11.8990   20.2790 N   0  0  0  0  0  0  0  0  0  0  0  0
  -24.1880  -10.6900   20.8650 C   0  0  0  0  0  0  0  0  0  0  0  0
  -24.6000   -9.7450   21.8300 C   0  0  0  0  0  3  0  0  0  0  0  0
  -23.8720   -8.5490   22.0130 C   0  0  0  0  0  3  0  0  0  0  0  0
  -22.7160   -8.2940   21.2390 C   0  0  0  0  0  0  0  0  0  0  0  0
  -22.3290   -9.2290   20.2650 C   0  0  0  0  0  3  0  0  0  0  0  0
  -23.0560  -10.4150   20.0760 C   0  0  0  0  0  3  0  0  0  0  0  0
  -21.9580   -7.1540   21.3380 O   0  0  0  0  0  0  0  0  0  0  0  0
  -21.8030   -6.4930   22.5330 C   0  0  0  0  0  0  0  0  0  0  0  0
  -21.2580   -7.1250   23.6680 C   0  0  0  0  0  3  0  0  0  0  0  0
  -21.0490   -6.3890   24.8530 C   0  0  0  0  0  3  0  0  0  0  0  0
  -21.3770   -5.0190   24.9020 C   0  0  0  0  0  0  0  0  0  0  0  0
  -21.9190   -4.3880   23.7660 C   0  0  0  0  0  3  0  0  0  0  0  0
  -22.1260   -5.1230   22.5860 C   0  0  0  0  0  0  0  0  0  0  0  0
  -22.6230   -4.5000   21.4890 F   0  0  0  0  0  0  0  0  0  0  0  0
  -21.1760   -4.3120   26.0360 F   0  0  0  0  0  0  0  0  0  0  0  0
  -23.0990  -13.7920   21.0810 C   0  0  0  0  0  0  0  0  0  0  0  0
  -22.4060  -13.0950   21.9750 N   0  0  0  0  0  0  0  0  0  0  0  0
  -22.6440  -14.8250   20.5900 O   0  0  0  0  0  0  0  0  0  0  0  0
  -22.7800  -12.2580   22.3990 H   0  0  0  0  0  0  0  0  0  0  0  0
  -21.4820  -13.4110   22.2440 H   0  0  0  0  0  0  0  0  0  0  0  0
  -25.7130  -15.4400   20.1700 N   0  0  0  0  0  0  0  0  0  0  0  0
  -24.9980  -16.1310   20.3550 H   0  0  0  0  0  0  0  0  0  0  0  0
  -26.5840  -15.8410   19.8520 H   0  0  0  0  0  0  0  0  0  0  0  0
  -28.5370  -24.8780   19.5480 C   0  0  0  0  0  2  0  0  0  0  0  0
  -28.3590  -26.3130   20.1430 O   0  0  0  0  0  0  0  0  0  0  0  0
  -24.6200  -31.8470   23.1530 C   0  0  0  0  0  0  0  0  0  0  0  0
  -27.2820  -27.2610   20.0000 C   0  0  0  0  0  0  0  0  0  0  0  0
  -23.4470  -30.4580   21.4850 C   0  0  0  0  0  3  0  0  0  0  0  0
  -24.9210  -28.9560   20.0000 C   0  0  0  0  0  0  0  0  0  0  0  0
  -25.9910  -30.7950   21.3100 C   0  0  0  0  0  2  0  0  0  0  0  0
  -26.0900  -29.4260   20.6110 C   0  0  0  0  0  0  0  0  0  0  0  0
  -27.2680  -28.5890   20.5970 C   0  0  0  0  0  3  0  0  0  0  0  0
  -26.0950  -26.8930   19.3390 C   0  0  0  0  0  3  0  0  0  0  0  0
  -24.9390  -27.7070   19.3500 C   0  0  0  0  0  3  0  0  0  0  0  0
  -23.6690  -29.8200   20.0840 C   0  0  0  0  0  2  0  0  0  0  0  0
  -24.7030  -31.0580   22.0330 N   0  0  0  0  0  0  0  0  0  0  0  0
  -23.5300  -32.0860   23.6950 O   0  0  0  0  0  0  0  0  0  0  0  0
  -22.8080  -29.4050   22.4230 C   0  0  0  0  0  0  0  0  0  0  0  0
  -21.4910  -29.1770   22.2770 N   0  0  0  0  0  0  0  0  0  0  0  0
  -23.5000  -28.7960   23.2430 O   0  0  0  0  0  0  0  0  0  0  0  0
  -20.9890  -29.7380   21.6040 H   0  0  0  0  0  0  0  0  0  0  0  0
  -18.1640  -27.8060   22.7170 C   0  0  0  0  0  0  0  0  0  0  0  0
  -20.7040  -28.1910   23.0250 C   0  0  0  0  0  3  0  0  0  0  0  0
  -20.8750  -26.7730   22.4330 C   0  0  0  0  0  2  0  0  0  0  0  0
  -19.8060  -26.4020   21.4030 C   0  0  0  0  0  2  0  0  0  0  0  0
  -18.4130  -26.4710   22.0340 C   0  0  0  0  0  2  0  0  0  0  0  0
  -19.2400  -28.6210   23.1650 C   0  0  0  0  0  0  0  0  0  0  0  0
  -18.9530  -29.8600   23.7690 C   0  0  0  0  0  3  0  0  0  0  0  0
  -17.6240  -30.3000   23.9190 C   0  0  0  0  0  3  0  0  0  0  0  0
  -16.5620  -29.4860   23.4860 C   0  0  0  0  0  3  0  0  0  0  0  0
  -16.8350  -28.2360   22.9010 C   0  0  0  0  0  3  0  0  0  0  0  0
  -25.8800  -32.5090   23.7910 C   0  0  0  0  0  3  0  0  0  0  0  0
  -25.5420  -33.9030   24.1380 N   0  0  0  0  0  0  0  0  0  0  0  0
  -25.8560  -34.9710   23.3930 C   0  0  0  0  0  0  0  0  0  0  0  0
  -26.5360  -34.8910   22.3680 O   0  0  0  0  0  0  0  0  0  0  0  0
  -24.9660  -34.0450   24.9560 H   0  0  0  0  0  0  0  0  0  0  0  0
  -24.1070  -36.7320   23.0380 C   0  0  0  0  0  1  0  0  0  0  0  0
  -25.3470  -36.3510   23.8650 C   0  0  0  0  0  3  0  0  0  0  0  0
  -27.4600  -37.2490   24.7270 C   0  0  0  0  0  1  0  0  0  0  0  0
  -26.3650  -37.4230   23.7740 N   0  0  0  0  0  0  0  0  0  0  0  0
  -25.9470  -38.3360   23.9350 H   0  0  0  0  0  0  0  0  0  0  0  0
  -26.4020  -31.7450   25.0700 C   0  0  1  0  0  0  0  0  0  0  0  0
  -25.3060  -31.4690   26.1300 C   0  0  0  0  0  1  0  0  0  0  0  0
  -27.0240  -30.3890   24.6780 C   0  0  0  0  0  1  0  0  0  0  0  0
  -27.5340  -32.5660   25.7340 C   0  0  0  0  0  1  0  0  0  0  0  0
  1  2  1  0
  1  6  2  0
  3  2  1  0
  4 52  1  0
  4  5  1  0
  4  3  1  0
  5  1  1  0
  7  8  2  0
  7 10  1  0
  8 11  1  0
  9 12  1  0
 10 12  2  0
 10  5  1  0
 11  9  2  0
 11 23  1  0
 12 13  1  0
 14 23  1  0
 15 20  1  0
 16 17  1  0
 16 15  1  0
 18 17  1  0
 18 27  1  0
 18 19  1  0
 20 14  1  0
 20 19  1  0
 21 14  2  0
 23 22  1  0
 24 25  2  0
 25 44  1  0
 26 25  1  0
 26 29  1  0
 27 28  1  0
 27 24  1  0
 28 26  2  0
 29 30  1  0
 30 31  2  0
 32 35  1  0
 32 31  1  0
 33 32  2  0
 34 33  1  0
 34 29  2  0
 35 36  1  0
 36 41  2  0
 36 37  1  0
 37 38  2  0
 38 39  1  0
 39 43  1  0
 40 39  2  0
 41 40  1  0
 42 41  1  0
 44 45  1  0
 45 48  1  0
 45 47  1  0
 46 44  2  0
 49 24  1  0
 49 50  1  0
 51 49  1  0
 52 53  1  0
 54 65  2  0
 55 53  1  0
 55 60  1  0
 56 64  1  0
 56 66  1  0
 57 63  1  0
 57 59  1  0
 58 64  1  0
 59 58  1  0
 60 59  2  0
 61 62  1  0
 61 55  2  0
 62 57  2  0
 63 56  1  0
 64 54  1  0
 66 68  2  0
 67 66  1  0
 69 67  1  0
 70 79  2  0
 70 75  1  0
 71 67  1  0
 71 75  1  0
 72 71  1  0
 73 74  1  0
 73 72  1  0
 74 70  1  0
 75 76  2  0
 76 77  1  0
 78 77  2  0
 79 78  1  0
 80 54  1  0
 80 81  1  0
 80 90  1  0
 81 84  1  0
 82 86  1  0
 82 81  1  0
 83 82  2  0
 86 85  1  0
 88 86  1  0
 88 89  1  0
 88 87  1  0
 90 93  1  1
 90 91  1  0
 92 90  1  0
M  ISO  4  14 100  23 100  52 101  53 101
M  END
>  <TORSDO>  (61) 
F 18

>  <SCORE>  (61) 
-14.769

>  <name>  (61) 
60

>  <ligand_id>  (61) 
60

>  <original_smiles>  (61) 
[H]c1c([H])c([H])c2c(c1[H])C([H])([H])C([H])([H])C([H])([H])C2([H])N([H])C(=O)C1([H])N(C(=O)C([H])(N([H])C(=O)C([H])(N([H])C([H])([H])[H])C([H])([H])[H])C(C([H])([H])[H])(C([H])([H])[H])C([H])([H])[H])C([H])([H])c2c([H])c(OC([H])([H])C3([H])N(c4c([H])c([H])c(N(C(=O)N5C([H])([H])C([H])([H])C([H])([H])C([H])(n6nc(-c7c([H])c([H])c(Oc8c([H])c([H])c(F)c([H])c8F)c([H])c7[H])c(C(=O)N([H])[H])c6N([H])[H])C5([H])[H])C([H])([H])[H])c([H])c4F)C(=O)C([H])([H])C3([H])[H])c([H])c([H])c2C1([H])[H]

>  <smiles>  (61) 
[H]c1c([H])c([H])c2c(c1[H])C([H])([H])C([H])([H])C([H])([H])C2([H])N([H])C(=O)C1([H])N(C(=O)C([H])(N([H])C(=O)C([H])(N([H])C([H])([H])[H])C([H])([H])[H])C(C([H])([H])[H])(C([H])([H])[H])C([H])([H])[H])C([H])([H])c2c([H])c(OC([H])([H])C3([H])N(c4c([H])c([H])c(N(C(=O)N5C([H])([H])C([H])([H])C([H])([H])C([H])(n6nc(-c7c([H])c([H])c(Oc8c([H])c([H])c(F)c([H])c8F)c([H])c7[H])c(C(=O)N([H])[H])c6N([H])[H])C5([H])[H])C([H])([H])[H])c([H])c4F)C(=O)C([H])([H])C3([H])[H])c([H])c([H])c2C1([H])[H]

$$$$
61:0:0
     RDKit          3D

 98107  0  0  1  0  0  0  0  0999 V2000
  -27.1300  -23.5710   18.7560 C   0  0  0  0  0  3  0  0  0  0  0  0
  -28.3590  -24.2630   18.9700 C   0  0  0  0  0  0  0  0  0  0  0  0
  -29.2960  -23.2810   19.2430 C   0  0  0  0  0  0  0  0  0  0  0  0
  -27.3500  -22.2380   18.9190 C   0  0  0  0  0  0  0  0  0  0  0  0
  -30.7550  -23.4320   19.5450 C   0  0  0  0  0  1  0  0  0  0  0  0
  -28.6900  -22.0120   19.1820 N   0  0  0  0  0  0  0  0  0  0  0  0
  -31.0580  -19.0920   18.8190 C   0  0  0  0  0  3  0  0  0  0  0  0
  -30.4400  -20.3470   18.6060 C   0  0  0  0  0  3  0  0  0  0  0  0
  -28.7650  -19.7880   20.2660 C   0  0  0  0  0  3  0  0  0  0  0  0
  -30.5560  -18.1740   19.7730 C   0  0  0  0  0  0  0  0  0  0  0  0
  -29.3030  -20.7260   19.3540 C   0  0  0  0  0  0  0  0  0  0  0  0
  -29.3740  -18.5260   20.4750 C   0  0  0  0  0  0  0  0  0  0  0  0
  -28.8030  -17.6520   21.4010 N   0  0  0  0  0  0  0  0  0  0  0  0
  -28.1080  -18.0110   22.0460 H   0  0  0  0  0  0  0  0  0  0  0  0
  -29.3800  -16.9280   21.8120 H   0  0  0  0  0  0  0  0  0  0  0  0
  -31.3890  -16.9200   20.1120 C   0  0  0  0  0  2  0  0  0  0  0  0
  -31.3800  -14.4860   19.4980 C   0  0  0  0  0  0  0  0  0  0  0  0
  -30.9410  -12.2120   18.6450 C   0  0  0  0  0  2  0  0  0  0  0  0
  -29.9130  -12.2870   17.4990 C   0  0  0  0  0  2  0  0  0  0  0  0
  -28.4720  -12.2760   18.0450 C   0  0  0  0  0  2  0  0  0  0  0  0
  -28.2570  -13.2640   19.2250 C   0  0  0  0  0  3  0  0  0  0  0  0
  -29.3890  -13.1390   20.2650 C   0  0  0  0  0  2  0  0  0  0  0  0
  -30.6640  -13.3310   19.5600 N   0  0  0  0  0  0  0  0  0  0  0  0
  -32.4890  -14.5470   18.9610 O   0  0  0  0  0  0  0  0  0  0  0  0
  -30.7610  -15.5940   19.9500 N   0  0  0  0  0  0  0  0  0  0  0  0
  -29.8200  -15.4880   20.2950 H   0  0  0  0  0  0  0  0  0  0  0  0
  -26.0080  -14.0640   20.1800 C   0  0  0  0  0  0  0  0  0  0  0  0
  -24.9080  -13.3790   20.6240 C   0  0  0  0  0  0  0  0  0  0  0  0
  -25.2380  -11.9920   20.5230 C   0  0  0  0  0  0  0  0  0  0  0  0
  -26.9380  -13.0970   19.8290 N   0  0  0  0  0  0  0  0  0  0  0  0
  -26.4850  -11.8450   20.0950 N   0  0  0  0  0  0  0  0  0  0  0  0
  -24.4190  -10.7950   20.7560 C   0  0  0  0  0  0  0  0  0  0  0  0
  -24.8100   -9.8020   21.6800 C   0  0  0  0  0  3  0  0  0  0  0  0
  -23.9950   -8.6710   21.8970 C   0  0  0  0  0  3  0  0  0  0  0  0
  -22.7770   -8.5260   21.1960 C   0  0  0  0  0  0  0  0  0  0  0  0
  -22.4040   -9.5070   20.2620 C   0  0  0  0  0  3  0  0  0  0  0  0
  -23.2160  -10.6310   20.0400 C   0  0  0  0  0  3  0  0  0  0  0  0
  -21.9370   -7.4460   21.3260 O   0  0  0  0  0  0  0  0  0  0  0  0
  -21.8310   -6.7520   22.5050 C   0  0  0  0  0  0  0  0  0  0  0  0
  -21.4540   -7.3850   23.7100 C   0  0  0  0  0  3  0  0  0  0  0  0
  -21.2910   -6.6220   24.8830 C   0  0  0  0  0  3  0  0  0  0  0  0
  -21.4960   -5.2290   24.8520 C   0  0  0  0  0  0  0  0  0  0  0  0
  -21.8630   -4.5970   23.6520 C   0  0  0  0  0  3  0  0  0  0  0  0
  -22.0270   -5.3580   22.4810 C   0  0  0  0  0  0  0  0  0  0  0  0
  -22.3620   -4.7410   21.3220 F   0  0  0  0  0  0  0  0  0  0  0  0
  -21.3310   -4.4950   25.9800 F   0  0  0  0  0  0  0  0  0  0  0  0
  -23.5930  -13.9740   21.0380 C   0  0  0  0  0  0  0  0  0  0  0  0
  -22.8910  -13.3270   21.9610 N   0  0  0  0  0  0  0  0  0  0  0  0
  -23.2020  -15.0440   20.5740 O   0  0  0  0  0  0  0  0  0  0  0  0
  -23.2180  -12.4550   22.3540 H   0  0  0  0  0  0  0  0  0  0  0  0
  -22.0090  -13.7060   22.2780 H   0  0  0  0  0  0  0  0  0  0  0  0
  -26.2880  -15.4170   20.0320 N   0  0  0  0  0  0  0  0  0  0  0  0
  -25.6290  -16.1370   20.3070 H   0  0  0  0  0  0  0  0  0  0  0  0
  -27.1940  -15.7950   19.7840 H   0  0  0  0  0  0  0  0  0  0  0  0
  -26.4550  -21.2150   18.8280 O   0  0  0  0  0  0  0  0  0  0  0  0
  -25.5820  -21.5960   18.8720 H   0  0  0  0  0  0  0  0  0  0  0  0
  -28.5920  -25.7780   18.8020 C   0  0  0  0  0  2  0  0  0  0  0  0
  -28.3180  -26.6430   19.9320 O   0  0  0  0  0  0  0  0  0  0  0  0
  -24.5590  -31.8170   23.1630 C   0  0  0  0  0  0  0  0  0  0  0  0
  -27.1540  -27.3990   19.9570 C   0  0  0  0  0  0  0  0  0  0  0  0
  -23.3340  -30.4590   21.4990 C   0  0  0  0  0  3  0  0  0  0  0  0
  -24.7700  -28.9460   20.0340 C   0  0  0  0  0  0  0  0  0  0  0  0
  -25.8670  -30.7930   21.3040 C   0  0  0  0  0  2  0  0  0  0  0  0
  -25.9360  -29.4330   20.6360 C   0  0  0  0  0  0  0  0  0  0  0  0
  -27.1270  -28.6620   20.6070 C   0  0  0  0  0  3  0  0  0  0  0  0
  -25.9610  -26.9400   19.3610 C   0  0  0  0  0  3  0  0  0  0  0  0
  -24.7760  -27.6940   19.4000 C   0  0  0  0  0  3  0  0  0  0  0  0
  -23.5330  -29.8120   20.1020 C   0  0  0  0  0  2  0  0  0  0  0  0
  -24.6040  -31.0380   22.0450 N   0  0  0  0  0  0  0  0  0  0  0  0
  -23.4810  -32.0840   23.7140 O   0  0  0  0  0  0  0  0  0  0  0  0
  -22.6820  -29.4180   22.4400 C   0  0  0  0  0  0  0  0  0  0  0  0
  -21.3570  -29.2390   22.3080 N   0  0  0  0  0  0  0  0  0  0  0  0
  -23.3640  -28.7810   23.2460 O   0  0  0  0  0  0  0  0  0  0  0  0
  -20.8670  -29.8080   21.6320 H   0  0  0  0  0  0  0  0  0  0  0  0
  -17.9840  -28.0220   22.7730 C   0  0  0  0  0  0  0  0  0  0  0  0
  -20.5400  -28.2880   23.0630 C   0  0  0  0  0  3  0  0  0  0  0  0
  -20.6510  -26.8610   22.4750 C   0  0  0  0  0  2  0  0  0  0  0  0
  -19.5580  -26.5470   21.4480 C   0  0  0  0  0  2  0  0  0  0  0  0
  -18.1690  -26.6820   22.0790 C   0  0  0  0  0  2  0  0  0  0  0  0
  -19.0980  -28.7820   23.2200 C   0  0  0  0  0  0  0  0  0  0  0  0
  -18.8710  -30.0360   23.8250 C   0  0  0  0  0  3  0  0  0  0  0  0
  -17.5640  -30.5350   23.9860 C   0  0  0  0  0  3  0  0  0  0  0  0
  -16.4660  -29.7700   23.5590 C   0  0  0  0  0  3  0  0  0  0  0  0
  -16.6760  -28.5150   22.9580 C   0  0  0  0  0  3  0  0  0  0  0  0
  -25.8520  -32.4270   23.7870 C   0  0  0  0  0  3  0  0  0  0  0  0
  -25.5550  -33.8220   24.1390 N   0  0  0  0  0  0  0  0  0  0  0  0
  -25.8870  -34.8830   23.3910 C   0  0  0  0  0  0  0  0  0  0  0  0
  -26.5500  -34.7910   22.3540 O   0  0  0  0  0  0  0  0  0  0  0  0
  -24.9800  -33.9710   24.9540 H   0  0  0  0  0  0  0  0  0  0  0  0
  -24.1670  -36.6860   23.0650 C   0  0  0  0  0  1  0  0  0  0  0  0
  -25.4050  -36.2650   23.8730 C   0  0  0  0  0  3  0  0  0  0  0  0
  -27.5490  -37.1160   24.7090 C   0  0  0  0  0  1  0  0  0  0  0  0
  -26.4400  -37.3170   23.7820 N   0  0  0  0  0  0  0  0  0  0  0  0
  -26.0360  -38.2320   23.9700 H   0  0  0  0  0  0  0  0  0  0  0  0
  -26.3680  -31.6340   25.0490 C   0  0  1  0  0  0  0  0  0  0  0  0
  -25.2790  -31.4010   26.1230 C   0  0  0  0  0  1  0  0  0  0  0  0
  -26.9280  -30.2530   24.6340 C   0  0  0  0  0  1  0  0  0  0  0  0
  -27.5340  -32.4030   25.7120 C   0  0  0  0  0  1  0  0  0  0  0  0
  1  4  2  0
  1  2  1  0
  2  3  2  0
  3  5  1  0
  4  6  1  0
  6  3  1  0
  6 11  1  0
  7 10  1  0
  8  7  2  0
  8 11  1  0
  9 12  1  0
 10 16  1  0
 10 12  2  0
 11  9  2  0
 12 13  1  0
 13 15  1  0
 13 14  1  0
 17 23  1  0
 17 25  1  0
 18 23  1  0
 19 20  1  0
 19 18  1  0
 21 20  1  0
 21 30  1  0
 21 22  1  0
 23 22  1  0
 24 17  2  0
 25 16  1  0
 25 26  1  0
 27 28  2  0
 28 47  1  0
 29 28  1  0
 29 32  1  0
 30 31  1  0
 30 27  1  0
 31 29  2  0
 32 33  1  0
 33 34  2  0
 35 38  1  0
 35 34  1  0
 36 35  2  0
 37 36  1  0
 37 32  2  0
 38 39  1  0
 39 40  1  0
 40 41  2  0
 42 41  1  0
 42 46  1  0
 43 42  2  0
 44 39  2  0
 44 43  1  0
 45 44  1  0
 47 48  1  0
 48 51  1  0
 48 50  1  0
 49 47  2  0
 52 27  1  0
 52 53  1  0
 54 52  1  0
 55 56  1  0
 55  4  1  0
 57  2  1  0
 57 58  1  0
 58 60  1  0
 59 70  2  0
 60 65  1  0
 61 69  1  0
 61 71  1  0
 62 68  1  0
 62 64  1  0
 63 69  1  0
 64 63  1  0
 65 64  2  0
 66 67  1  0
 66 60  2  0
 67 62  2  0
 68 61  1  0
 69 59  1  0
 71 73  2  0
 72 71  1  0
 74 72  1  0
 75 84  2  0
 75 80  1  0
 76 72  1  0
 76 80  1  0
 77 76  1  0
 78 79  1  0
 78 77  1  0
 79 75  1  0
 80 81  2  0
 81 82  1  0
 83 82  2  0
 84 83  1  0
 85 59  1  0
 85 86  1  0
 85 95  1  0
 86 89  1  0
 87 91  1  0
 87 86  1  0
 88 87  2  0
 91 90  1  0
 93 91  1  0
 93 94  1  0
 93 92  1  0
 95 98  1  1
 95 96  1  0
 97 95  1  0
M  ISO  4  17 100  25 100  57 101  58 101
M  END
>  <TORSDO>  (62) 
F 21

>  <SCORE>  (62) 
-13.234

>  <name>  (62) 
61

>  <ligand_id>  (62) 
61

>  <original_smiles>  (62) 
[H]Oc1c([H])c(C([H])([H])Oc2c([H])c([H])c3c(c2[H])C([H])([H])N(C(=O)C([H])(N([H])C(=O)C([H])(N([H])C([H])([H])[H])C([H])([H])[H])C(C([H])([H])[H])(C([H])([H])[H])C([H])([H])[H])C([H])(C(=O)N([H])C2([H])c4c([H])c([H])c([H])c([H])c4C([H])([H])C([H])([H])C2([H])[H])C3([H])[H])c(C([H])([H])[H])n1-c1c([H])c([H])c(C([H])([H])N([H])C(=O)N2C([H])([H])C([H])([H])C([H])([H])C([H])(n3nc(-c4c([H])c([H])c(Oc5c([H])c([H])c(F)c([H])c5F)c([H])c4[H])c(C(=O)N([H])[H])c3N([H])[H])C2([H])[H])c(N([H])[H])c1[H]

>  <smiles>  (62) 
[H]Oc1c([H])c(C([H])([H])Oc2c([H])c([H])c3c(c2[H])C([H])([H])N(C(=O)C([H])(N([H])C(=O)C([H])(N([H])C([H])([H])[H])C([H])([H])[H])C(C([H])([H])[H])(C([H])([H])[H])C([H])([H])[H])C([H])(C(=O)N([H])C2([H])c4c([H])c([H])c([H])c([H])c4C([H])([H])C([H])([H])C2([H])[H])C3([H])[H])c(C([H])([H])[H])n1-c1c([H])c([H])c(C([H])([H])N([H])C(=O)N2C([H])([H])C([H])([H])C([H])([H])C([H])(n3nc(-c4c([H])c([H])c(Oc5c([H])c([H])c(F)c([H])c5F)c([H])c4[H])c(C(=O)N([H])[H])c3N([H])[H])C2([H])[H])c(N([H])[H])c1[H]

$$$$
62:0:0
     RDKit          3D

 97106  0  0  1  0  0  0  0  0999 V2000
  -30.4430  -23.7940   20.4920 C   0  0  0  0  0  3  0  0  0  0  0  0
  -28.9070  -22.4330   19.6400 C   0  0  0  0  0  3  0  0  0  0  0  0
  -29.1580  -23.7880   19.8740 C   0  0  0  0  0  0  0  0  0  0  0  0
  -30.8820  -22.4960   20.6070 C   0  0  0  0  0  0  0  0  0  0  0  0
  -29.9500  -21.5980   20.0950 N   0  0  0  0  0  0  0  0  0  0  0  0
  -29.1310  -19.3500   20.8580 C   0  0  0  0  0  3  0  0  0  0  0  0
  -31.0850  -17.9490   19.4290 C   0  0  0  0  0  3  0  0  0  0  0  0
  -29.1900  -17.9220   20.9150 C   0  0  0  0  0  0  0  0  0  0  0  0
  -30.0350  -20.1280   20.0880 C   0  0  0  0  0  0  0  0  0  0  0  0
  -30.1700  -17.1750   20.1980 C   0  0  0  0  0  0  0  0  0  0  0  0
  -31.0240  -19.3830   19.3720 C   0  0  0  0  0  0  0  0  0  0  0  0
  -28.1760  -17.1880   21.7800 C   0  0  0  0  0  1  0  0  0  0  0  0
  -30.8200  -14.6960   19.6380 C   0  0  0  0  0  0  0  0  0  0  0  0
  -30.4650  -12.5130   18.4920 C   0  0  0  0  0  2  0  0  0  0  0  0
  -29.3600  -12.6940   17.4280 C   0  0  0  0  0  2  0  0  0  0  0  0
  -27.9610  -12.5000   18.0450 C   0  0  0  0  0  2  0  0  0  0  0  0
  -27.7750  -13.2930   19.3660 C   0  0  0  0  0  3  0  0  0  0  0  0
  -28.9790  -13.0870   20.3150 C   0  0  0  0  0  2  0  0  0  0  0  0
  -30.1990  -13.4720   19.5850 N   0  0  0  0  0  0  0  0  0  0  0  0
  -31.8980  -14.8900   19.0670 O   0  0  0  0  0  0  0  0  0  0  0  0
  -30.1180  -15.7040   20.2500 N   0  0  0  0  0  0  0  0  0  0  0  0
  -29.3380  -15.3460   20.7780 H   0  0  0  0  0  0  0  0  0  0  0  0
  -25.5430  -13.8400   20.5180 C   0  0  0  0  0  0  0  0  0  0  0  0
  -24.5110  -13.0490   20.9440 C   0  0  0  0  0  0  0  0  0  0  0  0
  -24.9030  -11.7040   20.6590 C   0  0  0  0  0  0  0  0  0  0  0  0
  -26.5030  -12.9770   20.0100 N   0  0  0  0  0  0  0  0  0  0  0  0
  -26.1290  -11.6790   20.1510 N   0  0  0  0  0  0  0  0  0  0  0  0
  -24.1560  -10.4460   20.7870 C   0  0  0  0  0  0  0  0  0  0  0  0
  -24.6320   -9.3840   21.5870 C   0  0  0  0  0  3  0  0  0  0  0  0
  -23.8870   -8.1900   21.7090 C   0  0  0  0  0  3  0  0  0  0  0  0
  -22.6530   -8.0510   21.0310 C   0  0  0  0  0  0  0  0  0  0  0  0
  -22.1950   -9.1030   20.2170 C   0  0  0  0  0  3  0  0  0  0  0  0
  -22.9400  -10.2870   20.0920 C   0  0  0  0  0  3  0  0  0  0  0  0
  -21.8750   -6.9200   21.0710 O   0  0  0  0  0  0  0  0  0  0  0  0
  -21.8300   -6.1140   22.1820 C   0  0  0  0  0  0  0  0  0  0  0  0
  -21.4580   -6.6140   23.4490 C   0  0  0  0  0  3  0  0  0  0  0  0
  -21.3580   -5.7380   24.5480 C   0  0  0  0  0  3  0  0  0  0  0  0
  -21.6210   -4.3650   24.3820 C   0  0  0  0  0  0  0  0  0  0  0  0
  -21.9860   -3.8650   23.1190 C   0  0  0  0  0  3  0  0  0  0  0  0
  -22.0880   -4.7380   22.0220 C   0  0  0  0  0  0  0  0  0  0  0  0
  -22.4190   -4.2480   20.8030 F   0  0  0  0  0  0  0  0  0  0  0  0
  -21.5170   -3.5220   25.4360 F   0  0  0  0  0  0  0  0  0  0  0  0
  -23.1940  -13.5160   21.4930 C   0  0  0  0  0  0  0  0  0  0  0  0
  -22.5920  -12.7380   22.3880 N   0  0  0  0  0  0  0  0  0  0  0  0
  -22.7150  -14.6000   21.1680 O   0  0  0  0  0  0  0  0  0  0  0  0
  -22.9970  -11.8590   22.6720 H   0  0  0  0  0  0  0  0  0  0  0  0
  -21.7150  -13.0290   22.7960 H   0  0  0  0  0  0  0  0  0  0  0  0
  -25.7360  -15.2180   20.4960 N   0  0  0  0  0  0  0  0  0  0  0  0
  -25.0050  -15.8610   20.7840 H   0  0  0  0  0  0  0  0  0  0  0  0
  -26.5110  -15.6810   20.0390 H   0  0  0  0  0  0  0  0  0  0  0  0
  -31.9670  -20.0470   18.5810 N   0  0  0  0  0  0  0  0  0  0  0  0
  -32.8130  -19.5380   18.3480 H   0  0  0  0  0  0  0  0  0  0  0  0
  -32.1730  -20.9930   18.8930 H   0  0  0  0  0  0  0  0  0  0  0  0
  -32.0430  -22.0490   21.1530 O   0  0  0  0  0  0  0  0  0  0  0  0
  -32.5030  -22.8020   21.5110 H   0  0  0  0  0  0  0  0  0  0  0  0
  -28.2120  -24.9910   19.5110 C   0  0  0  0  0  2  0  0  0  0  0  0
  -28.4760  -26.4090   19.8860 O   0  0  0  0  0  0  0  0  0  0  0  0
  -24.5930  -31.6360   23.0740 C   0  0  0  0  0  0  0  0  0  0  0  0
  -27.3570  -27.2740   19.8450 C   0  0  0  0  0  0  0  0  0  0  0  0
  -23.4460  -30.2780   21.3650 C   0  0  0  0  0  3  0  0  0  0  0  0
  -24.9520  -28.8420   19.8850 C   0  0  0  0  0  0  0  0  0  0  0  0
  -25.9820  -30.6690   21.2250 C   0  0  0  0  0  2  0  0  0  0  0  0
  -26.1060  -29.3240   20.5170 C   0  0  0  0  0  0  0  0  0  0  0  0
  -27.3110  -28.5540   20.4900 C   0  0  0  0  0  3  0  0  0  0  0  0
  -26.1730  -26.8680   19.1790 C   0  0  0  0  0  3  0  0  0  0  0  0
  -24.9890  -27.6190   19.2080 C   0  0  0  0  0  3  0  0  0  0  0  0
  -23.6920  -29.6780   19.9580 C   0  0  0  0  0  2  0  0  0  0  0  0
  -24.6910  -30.8760   21.9460 N   0  0  0  0  0  0  0  0  0  0  0  0
  -23.4980  -31.8590   23.6080 O   0  0  0  0  0  0  0  0  0  0  0  0
  -22.8050  -29.1990   22.2720 C   0  0  0  0  0  0  0  0  0  0  0  0
  -21.4820  -29.0020   22.1390 N   0  0  0  0  0  0  0  0  0  0  0  0
  -23.4980  -28.5450   23.0560 O   0  0  0  0  0  0  0  0  0  0  0  0
  -20.9790  -29.5860   21.4840 H   0  0  0  0  0  0  0  0  0  0  0  0
  -18.1220  -27.7500   22.6170 C   0  0  0  0  0  0  0  0  0  0  0  0
  -20.6820  -28.0130   22.8640 C   0  0  0  0  0  3  0  0  0  0  0  0
  -20.7860  -26.6180   22.2050 C   0  0  0  0  0  2  0  0  0  0  0  0
  -19.6710  -26.3470   21.1900 C   0  0  0  0  0  2  0  0  0  0  0  0
  -18.2980  -26.4440   21.8610 C   0  0  0  0  0  2  0  0  0  0  0  0
  -19.2410  -28.4940   23.0760 C   0  0  0  0  0  0  0  0  0  0  0  0
  -19.0210  -29.7180   23.7420 C   0  0  0  0  0  3  0  0  0  0  0  0
  -17.7150  -30.1990   23.9560 C   0  0  0  0  0  3  0  0  0  0  0  0
  -16.6100  -29.4510   23.5140 C   0  0  0  0  0  3  0  0  0  0  0  0
  -16.8150  -28.2290   22.8500 C   0  0  0  0  0  3  0  0  0  0  0  0
  -25.8530  -32.2790   23.7330 C   0  0  0  0  0  3  0  0  0  0  0  0
  -26.3610  -31.4850   24.9980 C   0  0  1  0  0  0  0  0  0  0  0  0
  -25.2530  -31.1980   26.0390 C   0  0  0  0  0  1  0  0  0  0  0  0
  -26.9820  -30.1320   24.5830 C   0  0  0  0  0  1  0  0  0  0  0  0
  -27.4800  -32.2860   25.7020 C   0  0  0  0  0  1  0  0  0  0  0  0
  -25.5090  -33.6620   24.0940 N   0  0  0  0  0  0  0  0  0  0  0  0
  -25.7980  -34.7370   23.3500 C   0  0  0  0  0  0  0  0  0  0  0  0
  -26.4530  -34.6720   22.3060 O   0  0  0  0  0  0  0  0  0  0  0  0
  -24.9270  -33.7830   24.9100 H   0  0  0  0  0  0  0  0  0  0  0  0
  -24.0000  -36.4720   23.0760 C   0  0  0  0  0  1  0  0  0  0  0  0
  -25.2800  -36.1020   23.8410 C   0  0  0  0  0  3  0  0  0  0  0  0
  -27.4060  -37.0560   24.6170 C   0  0  0  0  0  1  0  0  0  0  0  0
  -26.2720  -37.1920   23.7080 N   0  0  0  0  0  0  0  0  0  0  0  0
  -25.8370  -38.0950   23.8770 H   0  0  0  0  0  0  0  0  0  0  0  0
  1  4  2  0
  2  3  2  0
  2  5  1  0
  3  1  1  0
  4 54  1  0
  5  4  1  0
  6  8  1  0
  7 10  1  0
  8 12  1  0
  9  5  1  0
  9  6  2  0
 10 21  1  0
 10  8  2  0
 11  7  2  0
 11  9  1  0
 13 21  1  0
 14 19  1  0
 15 16  1  0
 15 14  1  0
 17 16  1  0
 17 26  1  0
 17 18  1  0
 19 13  1  0
 19 18  1  0
 20 13  2  0
 21 22  1  0
 23 24  2  0
 24 43  1  0
 25 28  1  0
 25 24  1  0
 26 27  1  0
 26 23  1  0
 27 25  2  0
 28 29  1  0
 29 30  2  0
 31 34  1  0
 31 30  1  0
 32 31  2  0
 33 32  1  0
 33 28  2  0
 34 35  1  0
 35 36  1  0
 36 37  2  0
 38 37  1  0
 38 42  1  0
 39 38  2  0
 40 35  2  0
 40 39  1  0
 41 40  1  0
 43 44  1  0
 44 46  1  0
 44 47  1  0
 45 43  2  0
 48 23  1  0
 48 49  1  0
 50 48  1  0
 51 53  1  0
 51 11  1  0
 52 51  1  0
 54 55  1  0
 56  3  1  0
 56 57  1  0
 58 69  2  0
 59 57  1  0
 59 64  1  0
 60 68  1  0
 60 70  1  0
 61 67  1  0
 61 63  1  0
 62 68  1  0
 63 62  1  0
 64 63  2  0
 65 66  1  0
 65 59  2  0
 66 61  2  0
 67 60  1  0
 68 58  1  0
 70 72  2  0
 71 70  1  0
 73 71  1  0
 74 83  2  0
 74 79  1  0
 75 71  1  0
 75 79  1  0
 76 75  1  0
 77 78  1  0
 77 76  1  0
 78 74  1  0
 79 80  2  0
 80 81  1  0
 82 81  2  0
 83 82  1  0
 84 58  1  0
 84 89  1  0
 84 85  1  0
 85 88  1  1
 85 86  1  0
 87 85  1  0
 89 92  1  0
 90 94  1  0
 90 89  1  0
 91 90  2  0
 94 93  1  0
 96 94  1  0
 96 97  1  0
 96 95  1  0
M  ISO  4  13 100  21 100  56 101  57 101
M  END
>  <TORSDO>  (63) 
F 20

>  <SCORE>  (63) 
-10.392

>  <name>  (63) 
62

>  <ligand_id>  (63) 
62

>  <original_smiles>  (63) 
[H]Oc1c([H])c(C([H])([H])Oc2c([H])c([H])c3c(c2[H])C([H])([H])N(C(=O)C([H])(N([H])C(=O)C([H])(N([H])C([H])([H])[H])C([H])([H])[H])C(C([H])([H])[H])(C([H])([H])[H])C([H])([H])[H])C([H])(C(=O)N([H])C2([H])c4c([H])c([H])c([H])c([H])c4C([H])([H])C([H])([H])C2([H])[H])C3([H])[H])c([H])n1-c1c([H])c(C([H])([H])[H])c(N([H])C(=O)N2C([H])([H])C([H])([H])C([H])([H])C([H])(n3nc(-c4c([H])c([H])c(Oc5c([H])c([H])c(F)c([H])c5F)c([H])c4[H])c(C(=O)N([H])[H])c3N([H])[H])C2([H])[H])c([H])c1N([H])[H]

>  <smiles>  (63) 
[H]Oc1c([H])c(C([H])([H])Oc2c([H])c([H])c3c(c2[H])C([H])([H])N(C(=O)C([H])(N([H])C(=O)C([H])(N([H])C([H])([H])[H])C([H])([H])[H])C(C([H])([H])[H])(C([H])([H])[H])C([H])([H])[H])C([H])(C(=O)N([H])C2([H])c4c([H])c([H])c([H])c([H])c4C([H])([H])C([H])([H])C2([H])[H])C3([H])[H])c([H])n1-c1c([H])c(C([H])([H])[H])c(N([H])C(=O)N2C([H])([H])C([H])([H])C([H])([H])C([H])(n3nc(-c4c([H])c([H])c(Oc5c([H])c([H])c(F)c([H])c5F)c([H])c4[H])c(C(=O)N([H])[H])c3N([H])[H])C2([H])[H])c([H])c1N([H])[H]

$$$$
63:0:0
     RDKit          3D

 97106  0  0  1  0  0  0  0  0999 V2000
  -27.1270  -23.2040   19.3090 C   0  0  0  0  0  3  0  0  0  0  0  0
  -28.3900  -23.8270   19.5250 C   0  0  0  0  0  0  0  0  0  0  0  0
  -27.2680  -21.8390   19.3420 C   0  0  0  0  0  0  0  0  0  0  0  0
  -29.2390  -22.7240   19.7420 C   0  0  0  0  0  0  0  0  0  0  0  0
  -28.5850  -21.4530   19.6250 N   0  0  0  0  0  0  0  0  0  0  0  0
  -30.3990  -19.6060   19.3760 C   0  0  0  0  0  3  0  0  0  0  0  0
  -30.8260  -18.2310   19.4670 C   0  0  0  0  0  3  0  0  0  0  0  0
  -28.2390  -18.9780   20.1540 C   0  0  0  0  0  3  0  0  0  0  0  0
  -29.0820  -20.0450   19.7230 C   0  0  0  0  0  0  0  0  0  0  0  0
  -29.9630  -17.1790   19.9050 C   0  0  0  0  0  0  0  0  0  0  0  0
  -28.6510  -17.6130   20.2340 C   0  0  0  0  0  0  0  0  0  0  0  0
  -27.7640  -16.6990   20.6880 F   0  0  0  0  0  0  0  0  0  0  0  0
  -30.8330  -14.7830   19.4200 C   0  0  0  0  0  0  0  0  0  0  0  0
  -30.3860  -12.5890   18.2830 C   0  0  0  0  0  2  0  0  0  0  0  0
  -29.2850  -12.7650   17.2170 C   0  0  0  0  0  2  0  0  0  0  0  0
  -27.8880  -12.5870   17.8460 C   0  0  0  0  0  2  0  0  0  0  0  0
  -27.7220  -13.3950   19.1570 C   0  0  0  0  0  3  0  0  0  0  0  0
  -28.9300  -13.2100   20.0990 C   0  0  0  0  0  2  0  0  0  0  0  0
  -30.1430  -13.5850   19.3550 N   0  0  0  0  0  0  0  0  0  0  0  0
  -31.8480  -14.9410   18.7410 O   0  0  0  0  0  0  0  0  0  0  0  0
  -30.3840  -15.7950   20.2630 N   0  0  0  0  0  0  0  0  0  0  0  0
  -25.4770  -13.9740   20.2630 C   0  0  0  0  0  0  0  0  0  0  0  0
  -24.4570  -13.1970   20.7360 C   0  0  0  0  0  0  0  0  0  0  0  0
  -24.8760  -11.8440   20.5560 C   0  0  0  0  0  0  0  0  0  0  0  0
  -26.4560  -13.0990   19.8250 N   0  0  0  0  0  0  0  0  0  0  0  0
  -26.1070  -11.8050   20.0560 N   0  0  0  0  0  0  0  0  0  0  0  0
  -24.1510  -10.5860   20.7770 C   0  0  0  0  0  0  0  0  0  0  0  0
  -24.5990   -9.6280   21.7150 C   0  0  0  0  0  3  0  0  0  0  0  0
  -23.8720   -8.4360   21.9220 C   0  0  0  0  0  3  0  0  0  0  0  0
  -22.6860   -8.1920   21.1900 C   0  0  0  0  0  0  0  0  0  0  0  0
  -22.2580   -9.1380   20.2420 C   0  0  0  0  0  3  0  0  0  0  0  0
  -22.9840  -10.3220   20.0330 C   0  0  0  0  0  3  0  0  0  0  0  0
  -21.9290   -7.0520   21.3050 O   0  0  0  0  0  0  0  0  0  0  0  0
  -21.7870   -6.3970   22.5030 C   0  0  0  0  0  0  0  0  0  0  0  0
  -21.2500   -7.0360   23.6410 C   0  0  0  0  0  3  0  0  0  0  0  0
  -21.0590   -6.3080   24.8320 C   0  0  0  0  0  3  0  0  0  0  0  0
  -21.3980   -4.9420   24.8860 C   0  0  0  0  0  0  0  0  0  0  0  0
  -21.9280   -4.3040   23.7500 C   0  0  0  0  0  3  0  0  0  0  0  0
  -22.1200   -5.0290   22.5620 C   0  0  0  0  0  0  0  0  0  0  0  0
  -22.6120   -4.4030   21.4650 F   0  0  0  0  0  0  0  0  0  0  0  0
  -21.2080   -4.2410   26.0260 F   0  0  0  0  0  0  0  0  0  0  0  0
  -23.1290  -13.6790   21.2470 C   0  0  0  0  0  0  0  0  0  0  0  0
  -22.5410  -12.9650   22.1990 N   0  0  0  0  0  0  0  0  0  0  0  0
  -22.6280  -14.7270   20.8380 O   0  0  0  0  0  0  0  0  0  0  0  0
  -22.9640  -12.1190   22.5510 H   0  0  0  0  0  0  0  0  0  0  0  0
  -21.6590  -13.2710   22.5860 H   0  0  0  0  0  0  0  0  0  0  0  0
  -25.6420  -15.3510   20.1550 N   0  0  0  0  0  0  0  0  0  0  0  0
  -24.9330  -15.9940   20.4910 H   0  0  0  0  0  0  0  0  0  0  0  0
  -26.5490  -15.7920   20.0470 H   0  0  0  0  0  0  0  0  0  0  0  0
  -31.2370  -14.6660   22.3060 C   0  0  0  0  0  2  0  0  0  0  0  0
  -30.6220  -15.6740   21.6530 C   0  0  0  0  0  3  0  0  0  0  0  0
  -26.2910  -20.9260   19.0780 O   0  0  0  0  0  0  0  0  0  0  0  0
  -25.4770  -21.4050   18.9520 H   0  0  0  0  0  0  0  0  0  0  0  0
  -30.5790  -22.7560   19.9920 O   0  0  0  0  0  0  0  0  0  0  0  0
  -30.8350  -23.6660   20.1070 H   0  0  0  0  0  0  0  0  0  0  0  0
  -28.6710  -25.3830   19.2780 C   0  0  0  0  0  2  0  0  0  0  0  0
  -28.3400  -26.4860   20.2210 O   0  0  0  0  0  0  0  0  0  0  0  0
  -24.5600  -31.8710   23.1960 C   0  0  0  0  0  0  0  0  0  0  0  0
  -27.2180  -27.3290   20.1120 C   0  0  0  0  0  0  0  0  0  0  0  0
  -23.3780  -30.4850   21.5250 C   0  0  0  0  0  3  0  0  0  0  0  0
  -24.8480  -28.9490   20.0930 C   0  0  0  0  0  0  0  0  0  0  0  0
  -25.9160  -30.8060   21.3750 C   0  0  0  0  0  2  0  0  0  0  0  0
  -26.0060  -29.4300   20.7180 C   0  0  0  0  0  0  0  0  0  0  0  0
  -27.1850  -28.6250   20.7290 C   0  0  0  0  0  3  0  0  0  0  0  0
  -26.0400  -26.9040   19.4620 C   0  0  0  0  0  3  0  0  0  0  0  0
  -24.8700  -27.6930   19.4600 C   0  0  0  0  0  3  0  0  0  0  0  0
  -23.6080  -29.8230   20.1390 C   0  0  0  0  0  2  0  0  0  0  0  0
  -24.6360  -31.0730   22.0880 N   0  0  0  0  0  0  0  0  0  0  0  0
  -23.4710  -32.1410   23.7210 O   0  0  0  0  0  0  0  0  0  0  0  0
  -22.7080  -29.4600   22.4710 C   0  0  0  0  0  0  0  0  0  0  0  0
  -21.3770  -29.3050   22.3510 N   0  0  0  0  0  0  0  0  0  0  0  0
  -23.3840  -28.8100   23.2710 O   0  0  0  0  0  0  0  0  0  0  0  0
  -20.8950  -29.8830   21.6790 H   0  0  0  0  0  0  0  0  0  0  0  0
  -17.9830  -28.1680   22.8690 C   0  0  0  0  0  0  0  0  0  0  0  0
  -20.5500  -28.3630   23.1070 C   0  0  0  0  0  3  0  0  0  0  0  0
  -20.6100  -26.9480   22.4870 C   0  0  0  0  0  2  0  0  0  0  0  0
  -19.4860  -26.6810   21.4800 C   0  0  0  0  0  2  0  0  0  0  0  0
  -18.1180  -26.8350   22.1490 C   0  0  0  0  0  2  0  0  0  0  0  0
  -19.1260  -28.8910   23.3040 C   0  0  0  0  0  0  0  0  0  0  0  0
  -18.9440  -30.1390   23.9390 C   0  0  0  0  0  3  0  0  0  0  0  0
  -17.6530  -30.6630   24.1390 C   0  0  0  0  0  3  0  0  0  0  0  0
  -16.5250  -29.9360   23.7210 C   0  0  0  0  0  3  0  0  0  0  0  0
  -16.6920  -28.6910   23.0920 C   0  0  0  0  0  3  0  0  0  0  0  0
  -25.8370  -32.4960   23.8400 C   0  0  0  0  0  3  0  0  0  0  0  0
  -25.5190  -33.8880   24.1920 N   0  0  0  0  0  0  0  0  0  0  0  0
  -25.8580  -34.9580   23.4590 C   0  0  0  0  0  0  0  0  0  0  0  0
  -26.5420  -34.8770   22.4360 O   0  0  0  0  0  0  0  0  0  0  0  0
  -24.9100  -34.0260   24.9860 H   0  0  0  0  0  0  0  0  0  0  0  0
  -24.1470  -36.7670   23.0990 C   0  0  0  0  0  1  0  0  0  0  0  0
  -25.3600  -36.3350   23.9390 C   0  0  0  0  0  3  0  0  0  0  0  0
  -27.4670  -37.1930   24.8640 C   0  0  0  0  0  1  0  0  0  0  0  0
  -26.3980  -37.3890   23.8880 N   0  0  0  0  0  0  0  0  0  0  0  0
  -25.9880  -38.3070   24.0440 H   0  0  0  0  0  0  0  0  0  0  0  0
  -26.3440  -31.7070   25.1090 C   0  0  1  0  0  0  0  0  0  0  0  0
  -25.2420  -31.4450   26.1600 C   0  0  0  0  0  1  0  0  0  0  0  0
  -26.9390  -30.3400   24.7000 C   0  0  0  0  0  1  0  0  0  0  0  0
  -27.4830  -32.4950   25.7980 C   0  0  0  0  0  1  0  0  0  0  0  0
  1  3  2  0
  1  2  1  0
  2  4  2  0
  3  5  1  0
  4 54  1  0
  5  9  1  0
  5  4  1  0
  6  7  2  0
  6  9  1  0
  7 10  1  0
  8 11  1  0
  9  8  2  0
 10 11  2  0
 10 21  1  0
 11 12  1  0
 13 21  1  0
 14 19  1  0
 15 16  1  0
 15 14  1  0
 17 16  1  0
 17 25  1  0
 17 18  1  0
 19 13  1  0
 19 18  1  0
 20 13  2  0
 21 51  1  0
 22 23  2  0
 23 42  1  0
 24 23  1  0
 24 27  1  0
 25 26  1  0
 25 22  1  0
 26 24  2  0
 27 28  1  0
 28 29  2  0
 30 33  1  0
 30 29  1  0
 31 30  2  0
 32 31  1  0
 32 27  2  0
 33 34  1  0
 34 39  2  0
 34 35  1  0
 35 36  2  0
 36 37  1  0
 37 41  1  0
 38 37  2  0
 39 38  1  0
 40 39  1  0
 42 43  1  0
 43 45  1  0
 43 46  1  0
 44 42  2  0
 47 22  1  0
 47 48  1  0
 49 47  1  0
 51 50  2  0
 52  3  1  0
 53 52  1  0
 54 55  1  0
 56  2  1  0
 56 57  1  0
 58 69  2  0
 59 57  1  0
 59 64  1  0
 60 68  1  0
 60 70  1  0
 61 67  1  0
 61 63  1  0
 62 68  1  0
 63 64  2  0
 63 62  1  0
 65 59  2  0
 66 65  1  0
 66 61  2  0
 67 60  1  0
 68 58  1  0
 70 72  2  0
 71 70  1  0
 73 71  1  0
 74 83  2  0
 74 79  1  0
 75 71  1  0
 75 79  1  0
 76 75  1  0
 77 78  1  0
 77 76  1  0
 78 74  1  0
 79 80  2  0
 80 81  1  0
 82 81  2  0
 83 82  1  0
 84 58  1  0
 84 85  1  0
 84 94  1  0
 85 88  1  0
 86 90  1  0
 86 85  1  0
 87 86  2  0
 90 89  1  0
 92 90  1  0
 92 93  1  0
 92 91  1  0
 94 97  1  1
 94 95  1  0
 96 94  1  0
M  ISO  4  13 100  21 100  56 101  57 101
M  END
>  <TORSDO>  (64) 
F 21

>  <SCORE>  (64) 
-12.316

>  <name>  (64) 
63

>  <ligand_id>  (64) 
63

>  <original_smiles>  (64) 
[H]Oc1c([H])c(C([H])([H])Oc2c([H])c([H])c3c(c2[H])C([H])([H])N(C(=O)C([H])(N([H])C(=O)C([H])(N([H])C([H])([H])[H])C([H])([H])[H])C(C([H])([H])[H])(C([H])([H])[H])C([H])([H])[H])C([H])(C(=O)N([H])C2([H])c4c([H])c([H])c([H])c([H])c4C([H])([H])C([H])([H])C2([H])[H])C3([H])[H])c(O[H])n1-c1c([H])c([H])c(N(C(=O)N2C([H])([H])C([H])([H])C([H])([H])C([H])(n3nc(-c4c([H])c([H])c(Oc5c([H])c([H])c(F)c([H])c5F)c([H])c4[H])c(C(=O)N([H])[H])c3N([H])[H])C2([H])[H])C([H])=C([H])[H])c(F)c1[H]

>  <smiles>  (64) 
[H]Oc1c([H])c(C([H])([H])Oc2c([H])c([H])c3c(c2[H])C([H])([H])N(C(=O)C([H])(N([H])C(=O)C([H])(N([H])C([H])([H])[H])C([H])([H])[H])C(C([H])([H])[H])(C([H])([H])[H])C([H])([H])[H])C([H])(C(=O)N([H])C2([H])c4c([H])c([H])c([H])c([H])c4C([H])([H])C([H])([H])C2([H])[H])C3([H])[H])c(O[H])n1-c1c([H])c([H])c(N(C(=O)N2C([H])([H])C([H])([H])C([H])([H])C([H])(n3nc(-c4c([H])c([H])c(Oc5c([H])c([H])c(F)c([H])c5F)c([H])c4[H])c(C(=O)N([H])[H])c3N([H])[H])C2([H])[H])C([H])=C([H])[H])c(F)c1[H]

$$$$
64:0:0
     RDKit          3D

100109  0  0  1  0  0  0  0  0999 V2000
  -31.4550  -18.0850   21.0330 C   0  0  0  0  0  3  0  0  0  0  0  0
  -31.8520  -19.4300   21.2120 C   0  0  0  0  0  0  0  0  0  0  0  0
  -29.6180  -20.2300   20.4450 C   0  0  0  0  0  0  0  0  0  0  0  0
  -30.1690  -17.7110   20.5940 C   0  0  0  0  0  0  0  0  0  0  0  0
  -30.9290  -20.4930   20.9410 C   0  0  0  0  0  0  0  0  0  0  0  0
  -29.2570  -18.8140   20.3120 C   0  0  0  0  0  0  0  0  0  0  0  0
  -27.9990  -18.4990   19.9110 F   0  0  0  0  0  0  0  0  0  0  0  0
  -30.6250  -15.1210   20.4740 C   0  0  0  0  0  0  0  0  0  0  0  0
  -30.5210  -12.7640   19.6300 C   0  0  0  0  0  2  0  0  0  0  0  0
  -29.6430  -12.7060   18.3610 C   0  0  0  0  0  2  0  0  0  0  0  0
  -28.1600  -12.5260   18.7360 C   0  0  0  0  0  2  0  0  0  0  0  0
  -27.7040  -13.5010   19.8530 C   0  0  0  0  0  3  0  0  0  0  0  0
  -28.7080  -13.5440   21.0250 C   0  0  0  0  0  2  0  0  0  0  0  0
  -30.0180  -13.8840   20.4600 N   0  0  0  0  0  0  0  0  0  0  0  0
  -31.8300  -15.2000   20.2160 O   0  0  0  0  0  0  0  0  0  0  0  0
  -29.8240  -16.2600   20.5230 N   0  0  0  0  0  0  0  0  0  0  0  0
  -28.8330  -16.0670   20.5030 H   0  0  0  0  0  0  0  0  0  0  0  0
  -25.3020  -14.0990   20.5230 C   0  0  0  0  0  0  0  0  0  0  0  0
  -24.2210  -13.3280   20.8510 C   0  0  0  0  0  0  0  0  0  0  0  0
  -24.6760  -11.9740   20.8170 C   0  0  0  0  0  0  0  0  0  0  0  0
  -26.3450  -13.2160   20.3030 N   0  0  0  0  0  0  0  0  0  0  0  0
  -25.9740  -11.9310   20.5450 N   0  0  0  0  0  0  0  0  0  0  0  0
  -23.9340  -10.7150   20.9670 C   0  0  0  0  0  0  0  0  0  0  0  0
  -24.3280   -9.7320   21.9030 C   0  0  0  0  0  3  0  0  0  0  0  0
  -23.5880   -8.5380   22.0430 C   0  0  0  0  0  3  0  0  0  0  0  0
  -22.4390   -8.3190   21.2460 C   0  0  0  0  0  0  0  0  0  0  0  0
  -22.0630   -9.2910   20.3010 C   0  0  0  0  0  3  0  0  0  0  0  0
  -22.8060  -10.4750   20.1590 C   0  0  0  0  0  3  0  0  0  0  0  0
  -21.6730   -7.1790   21.2950 O   0  0  0  0  0  0  0  0  0  0  0  0
  -21.5770   -6.4260   22.4370 C   0  0  0  0  0  0  0  0  0  0  0  0
  -21.0850   -6.9640   23.6460 C   0  0  0  0  0  3  0  0  0  0  0  0
  -20.9380   -6.1350   24.7760 C   0  0  0  0  0  3  0  0  0  0  0  0
  -21.2710   -4.7710   24.6990 C   0  0  0  0  0  0  0  0  0  0  0  0
  -21.7560   -4.2320   23.4940 C   0  0  0  0  0  3  0  0  0  0  0  0
  -21.9050   -5.0560   22.3650 C   0  0  0  0  0  0  0  0  0  0  0  0
  -22.3520   -4.5270   21.2010 F   0  0  0  0  0  0  0  0  0  0  0  0
  -21.1230   -3.9730   25.7820 F   0  0  0  0  0  0  0  0  0  0  0  0
  -22.8190  -13.8120   21.0860 C   0  0  0  0  0  0  0  0  0  0  0  0
  -22.0630  -13.1180   21.9290 N   0  0  0  0  0  0  0  0  0  0  0  0
  -22.4020  -14.8410   20.5560 O   0  0  0  0  0  0  0  0  0  0  0  0
  -22.4130  -12.2850   22.3780 H   0  0  0  0  0  0  0  0  0  0  0  0
  -21.1220  -13.4250   22.1290 H   0  0  0  0  0  0  0  0  0  0  0  0
  -25.4790  -15.4710   20.3660 N   0  0  0  0  0  0  0  0  0  0  0  0
  -24.7070  -16.1240   20.4590 H   0  0  0  0  0  0  0  0  0  0  0  0
  -26.3270  -15.9120   20.0390 H   0  0  0  0  0  0  0  0  0  0  0  0
  -27.3620  -23.2460   20.9710 C   0  0  0  0  0  2  0  0  0  0  0  0
  -27.8790  -21.8150   21.3090 C   0  0  0  0  0  2  0  0  0  0  0  0
  -29.0150  -22.6160   19.4090 C   0  0  0  0  0  2  0  0  0  0  0  0
  -28.4720  -23.9270   20.1530 C   0  0  0  0  0  3  0  0  0  0  0  0
  -28.7170  -21.3650   20.1980 N   0  0  0  0  0  0  0  0  0  0  0  0
  -28.0500  -25.2420   19.2830 C   0  0  0  0  0  2  0  0  0  0  0  0
  -28.0540  -26.6640   19.7940 O   0  0  0  0  0  0  0  0  0  0  0  0
  -24.5000  -32.0210   23.1660 C   0  0  0  0  0  0  0  0  0  0  0  0
  -26.9300  -27.5310   19.8000 C   0  0  0  0  0  0  0  0  0  0  0  0
  -23.2080  -30.6780   21.5500 C   0  0  0  0  0  3  0  0  0  0  0  0
  -24.5740  -29.1820   19.9830 C   0  0  0  0  0  0  0  0  0  0  0  0
  -25.7370  -30.9970   21.2340 C   0  0  0  0  0  2  0  0  0  0  0  0
  -25.7780  -29.6390   20.5320 C   0  0  0  0  0  0  0  0  0  0  0  0
  -26.9530  -28.8250   20.4320 C   0  0  0  0  0  3  0  0  0  0  0  0
  -25.6950  -27.1460   19.2310 C   0  0  0  0  0  3  0  0  0  0  0  0
  -24.5380  -27.9460   19.3220 C   0  0  0  0  0  3  0  0  0  0  0  0
  -23.3440  -30.0560   20.1350 C   0  0  0  0  0  2  0  0  0  0  0  0
  -24.5050  -31.2500   22.0380 N   0  0  0  0  0  0  0  0  0  0  0  0
  -23.4480  -32.2760   23.7700 O   0  0  0  0  0  0  0  0  0  0  0  0
  -22.6030  -29.6250   22.5100 C   0  0  0  0  0  0  0  0  0  0  0  0
  -21.2770  -29.4140   22.4230 N   0  0  0  0  0  0  0  0  0  0  0  0
  -23.3220  -29.0010   23.2930 O   0  0  0  0  0  0  0  0  0  0  0  0
  -20.7510  -29.9720   21.7650 H   0  0  0  0  0  0  0  0  0  0  0  0
  -17.9590  -28.0790   22.9740 C   0  0  0  0  0  0  0  0  0  0  0  0
  -20.5100  -28.4390   23.2010 C   0  0  0  0  0  3  0  0  0  0  0  0
  -20.6580  -27.0160   22.6140 C   0  0  0  0  0  2  0  0  0  0  0  0
  -19.5530  -26.6570   21.6160 C   0  0  0  0  0  2  0  0  0  0  0  0
  -18.1780  -26.7430   22.2850 C   0  0  0  0  0  2  0  0  0  0  0  0
  -19.0540  -28.8820   23.3890 C   0  0  0  0  0  0  0  0  0  0  0  0
  -18.7950  -30.1310   23.9970 C   0  0  0  0  0  3  0  0  0  0  0  0
  -17.4750  -30.5770   24.1900 C   0  0  0  0  0  3  0  0  0  0  0  0
  -16.3950  -29.7710   23.7890 C   0  0  0  0  0  3  0  0  0  0  0  0
  -16.6380  -28.5240   23.1870 C   0  0  0  0  0  3  0  0  0  0  0  0
  -25.8140  -32.6390   23.7350 C   0  0  0  0  0  3  0  0  0  0  0  0
  -26.3820  -31.8510   24.9790 C   0  0  1  0  0  0  0  0  0  0  0  0
  -25.3370  -31.6120   26.0940 C   0  0  0  0  0  1  0  0  0  0  0  0
  -26.9360  -30.4720   24.5490 C   0  0  0  0  0  1  0  0  0  0  0  0
  -27.5680  -32.6290   25.5960 C   0  0  0  0  0  1  0  0  0  0  0  0
  -25.5280  -34.0350   24.0980 N   0  0  0  0  0  0  0  0  0  0  0  0
  -25.8580  -35.0990   23.3550 C   0  0  0  0  0  0  0  0  0  0  0  0
  -26.5050  -35.0080   22.3080 O   0  0  0  0  0  0  0  0  0  0  0  0
  -24.9520  -34.1810   24.9140 H   0  0  0  0  0  0  0  0  0  0  0  0
  -24.1630  -36.9360   23.0560 C   0  0  0  0  0  1  0  0  0  0  0  0
  -25.3990  -36.4850   23.8510 C   0  0  0  0  0  3  0  0  0  0  0  0
  -27.5510  -37.3110   24.7000 C   0  0  0  0  0  1  0  0  0  0  0  0
  -26.4510  -37.5210   23.7600 N   0  0  0  0  0  0  0  0  0  0  0  0
  -26.0630  -38.4450   23.9300 H   0  0  0  0  0  0  0  0  0  0  0  0
  -33.2530  -19.6440   21.7380 C   0  0  0  0  0  0  0  0  0  0  0  0
  -33.9370  -20.6630   21.2360 N   0  0  0  0  0  0  0  0  0  0  0  0
  -33.7690  -18.8640   22.5400 O   0  0  0  0  0  0  0  0  0  0  0  0
  -33.4380  -21.3070   20.6330 H   0  0  0  0  0  0  0  0  0  0  0  0
  -34.8860  -20.8530   21.5210 H   0  0  0  0  0  0  0  0  0  0  0  0
  -31.2500  -21.8320   21.2080 N   0  0  0  0  0  0  0  0  0  0  0  0
  -31.7390  -22.0070   22.0790 H   0  0  0  0  0  0  0  0  0  0  0  0
  -30.4190  -22.4100   21.1340 H   0  0  0  0  0  0  0  0  0  0  0  0
  1  2  1  0
  2 93  1  0
  3  5  1  0
  4  1  2  0
  5 98  1  0
  5  2  2  0
  6  3  2  0
  6  4  1  0
  7  6  1  0
  8 16  1  0
  9 14  1  0
 10 11  1  0
 10  9  1  0
 12 11  1  0
 12 21  1  0
 12 13  1  0
 14  8  1  0
 14 13  1  0
 15  8  2  0
 16  4  1  0
 17 16  1  0
 18 19  2  0
 19 38  1  0
 20 19  1  0
 20 23  1  0
 21 18  1  0
 21 22  1  0
 22 20  2  0
 23 24  1  0
 24 25  2  0
 26 29  1  0
 26 25  1  0
 27 26  2  0
 28 27  1  0
 28 23  2  0
 29 30  1  0
 30 31  1  0
 31 32  2  0
 33 32  1  0
 33 37  1  0
 34 33  2  0
 35 30  2  0
 35 34  1  0
 36 35  1  0
 38 39  1  0
 39 42  1  0
 39 41  1  0
 40 38  2  0
 43 44  1  0
 43 18  1  0
 45 43  1  0
 46 47  1  0
 48 49  1  0
 48 50  1  0
 49 51  1  0
 49 46  1  0
 50  3  1  0
 50 47  1  0
 51 52  1  0
 52 54  1  0
 53 64  2  0
 54 59  1  0
 55 63  1  0
 55 65  1  0
 56 62  1  0
 56 58  1  0
 57 63  1  0
 58 57  1  0
 59 58  2  0
 60 61  1  0
 60 54  2  0
 61 56  2  0
 62 55  1  0
 63 53  1  0
 65 67  2  0
 66 65  1  0
 68 66  1  0
 69 78  2  0
 69 74  1  0
 70 66  1  0
 70 74  1  0
 71 70  1  0
 72 73  1  0
 72 71  1  0
 73 69  1  0
 74 75  2  0
 75 76  1  0
 77 76  2  0
 78 77  1  0
 79 53  1  0
 79 84  1  0
 79 80  1  0
 80 83  1  1
 80 81  1  0
 82 80  1  0
 84 87  1  0
 85 89  1  0
 85 84  1  0
 86 85  2  0
 89 88  1  0
 91 89  1  0
 91 92  1  0
 91 90  1  0
 93 95  2  0
 94 97  1  0
 94 93  1  0
 96 94  1  0
 98 99  1  0
100 98  1  0
M  ISO  4   8 100  16 100  51 101  52 101
M  END
>  <TORSDO>  (65) 
F 20

>  <SCORE>  (65) 
-13.695

>  <name>  (65) 
64

>  <ligand_id>  (65) 
64

>  <original_smiles>  (65) 
[H]c1c([H])c([H])c2c(c1[H])C([H])([H])C([H])([H])C([H])([H])C2([H])N([H])C(=O)C1([H])N(C(=O)C([H])(N([H])C(=O)C([H])(N([H])C([H])([H])[H])C([H])([H])[H])C(C([H])([H])[H])(C([H])([H])[H])C([H])([H])[H])C([H])([H])c2c([H])c(OC([H])([H])C3([H])C([H])([H])N(c4c(F)c(N([H])C(=O)N5C([H])([H])C([H])([H])C([H])([H])C([H])(n6nc(-c7c([H])c([H])c(Oc8c([H])c([H])c(F)c([H])c8F)c([H])c7[H])c(C(=O)N([H])[H])c6N([H])[H])C5([H])[H])c([H])c(C(=O)N([H])[H])c4N([H])[H])C([H])([H])C3([H])[H])c([H])c([H])c2C1([H])[H]

>  <smiles>  (65) 
[H]c1c([H])c([H])c2c(c1[H])C([H])([H])C([H])([H])C([H])([H])C2([H])N([H])C(=O)C1([H])N(C(=O)C([H])(N([H])C(=O)C([H])(N([H])C([H])([H])[H])C([H])([H])[H])C(C([H])([H])[H])(C([H])([H])[H])C([H])([H])[H])C([H])([H])c2c([H])c(OC([H])([H])C3([H])C([H])([H])N(c4c(F)c(N([H])C(=O)N5C([H])([H])C([H])([H])C([H])([H])C([H])(n6nc(-c7c([H])c([H])c(Oc8c([H])c([H])c(F)c([H])c8F)c([H])c7[H])c(C(=O)N([H])[H])c6N([H])[H])C5([H])[H])c([H])c(C(=O)N([H])[H])c4N([H])[H])C([H])([H])C3([H])[H])c([H])c([H])c2C1([H])[H]

$$$$
65:0:0
     RDKit          3D

 96105  0  0  1  0  0  0  0  0999 V2000
  -30.9530  -17.8380   19.5610 C   0  0  0  0  0  3  0  0  0  0  0  0
  -28.6460  -19.2000   20.3830 C   0  0  0  0  0  3  0  0  0  0  0  0
  -30.8490  -19.2570   19.4000 C   0  0  0  0  0  0  0  0  0  0  0  0
  -29.6640  -19.9790   19.7690 C   0  0  0  0  0  0  0  0  0  0  0  0
  -29.9050  -17.0640   20.1210 C   0  0  0  0  0  0  0  0  0  0  0  0
  -28.7620  -17.7880   20.5530 C   0  0  0  0  0  0  0  0  0  0  0  0
  -32.0640  -19.9780   18.8310 C   0  0  0  0  0  1  0  0  0  0  0  0
  -30.5720  -14.5910   19.6490 C   0  0  0  0  0  0  0  0  0  0  0  0
  -30.1890  -12.4240   18.4890 C   0  0  0  0  0  2  0  0  0  0  0  0
  -29.0960  -12.6450   17.4190 C   0  0  0  0  0  2  0  0  0  0  0  0
  -27.6880  -12.4730   18.0250 C   0  0  0  0  0  2  0  0  0  0  0  0
  -27.5120  -13.2550   19.3540 C   0  0  0  0  0  3  0  0  0  0  0  0
  -28.7040  -13.0120   20.3080 C   0  0  0  0  0  2  0  0  0  0  0  0
  -29.9350  -13.3780   19.5880 N   0  0  0  0  0  0  0  0  0  0  0  0
  -31.6610  -14.7690   19.0970 O   0  0  0  0  0  0  0  0  0  0  0  0
  -29.8700  -15.6050   20.2390 N   0  0  0  0  0  0  0  0  0  0  0  0
  -29.0490  -15.2880   20.7310 H   0  0  0  0  0  0  0  0  0  0  0  0
  -25.2370  -13.8300   20.4040 C   0  0  0  0  0  0  0  0  0  0  0  0
  -24.2150  -13.0430   20.8610 C   0  0  0  0  0  0  0  0  0  0  0  0
  -24.6500  -11.6930   20.6970 C   0  0  0  0  0  0  0  0  0  0  0  0
  -26.2330  -12.9570   19.9910 N   0  0  0  0  0  0  0  0  0  0  0  0
  -25.8910  -11.6630   20.2250 N   0  0  0  0  0  0  0  0  0  0  0  0
  -23.9360  -10.4270   20.9090 C   0  0  0  0  0  0  0  0  0  0  0  0
  -24.4280   -9.4380   21.7880 C   0  0  0  0  0  3  0  0  0  0  0  0
  -23.7140   -8.2370   21.9890 C   0  0  0  0  0  3  0  0  0  0  0  0
  -22.4910   -8.0180   21.3110 C   0  0  0  0  0  0  0  0  0  0  0  0
  -22.0150   -8.9970   20.4210 C   0  0  0  0  0  3  0  0  0  0  0  0
  -22.7300  -10.1880   20.2170 C   0  0  0  0  0  3  0  0  0  0  0  0
  -21.7410   -6.8720   21.4250 O   0  0  0  0  0  0  0  0  0  0  0  0
  -21.7070   -6.1470   22.5890 C   0  0  0  0  0  0  0  0  0  0  0  0
  -21.2630   -6.7120   23.8050 C   0  0  0  0  0  3  0  0  0  0  0  0
  -21.1760   -5.9120   24.9620 C   0  0  0  0  0  3  0  0  0  0  0  0
  -21.5240   -4.5500   24.9040 C   0  0  0  0  0  0  0  0  0  0  0  0
  -21.9620   -3.9830   23.6930 C   0  0  0  0  0  3  0  0  0  0  0  0
  -22.0490   -4.7800   22.5390 C   0  0  0  0  0  0  0  0  0  0  0  0
  -22.4510   -4.2260   21.3700 F   0  0  0  0  0  0  0  0  0  0  0  0
  -21.4330   -3.7790   26.0130 F   0  0  0  0  0  0  0  0  0  0  0  0
  -22.8720  -13.5150   21.3390 C   0  0  0  0  0  0  0  0  0  0  0  0
  -22.2560  -12.7840   22.2620 N   0  0  0  0  0  0  0  0  0  0  0  0
  -22.3800  -14.5670   20.9310 O   0  0  0  0  0  0  0  0  0  0  0  0
  -22.6680  -11.9310   22.6130 H   0  0  0  0  0  0  0  0  0  0  0  0
  -21.3610  -13.0820   22.6230 H   0  0  0  0  0  0  0  0  0  0  0  0
  -25.3990  -15.2060   20.2910 N   0  0  0  0  0  0  0  0  0  0  0  0
  -24.6830  -15.8600   20.5860 H   0  0  0  0  0  0  0  0  0  0  0  0
  -26.2640  -15.6670   20.0330 H   0  0  0  0  0  0  0  0  0  0  0  0
  -29.3500  -21.9820   18.2890 C   0  0  0  0  0  0  0  0  0  0  0  0
  -29.0350  -23.4830   18.3390 C   0  0  0  0  0  2  0  0  0  0  0  0
  -29.0400  -22.4500   20.5020 C   0  0  0  0  0  2  0  0  0  0  0  0
  -29.1590  -23.8710   19.8150 C   0  0  0  0  0  3  0  0  0  0  0  0
  -29.4620  -21.4200   19.5130 N   0  0  0  0  0  0  0  0  0  0  0  0
  -29.4650  -21.3960   17.2100 O   0  0  0  0  0  0  0  0  0  0  0  0
  -28.1890  -25.0400   20.3000 C   0  0  0  0  0  2  0  0  0  0  0  0
  -28.3680  -26.4210   19.7920 O   0  0  0  0  0  0  0  0  0  0  0  0
  -24.6650  -31.7010   23.0530 C   0  0  0  0  0  0  0  0  0  0  0  0
  -27.2470  -27.2620   19.8180 C   0  0  0  0  0  0  0  0  0  0  0  0
  -23.4410  -30.3550   21.3830 C   0  0  0  0  0  3  0  0  0  0  0  0
  -24.8760  -28.8560   19.8890 C   0  0  0  0  0  0  0  0  0  0  0  0
  -25.9760  -30.6890   21.1760 C   0  0  0  0  0  2  0  0  0  0  0  0
  -26.0520  -29.3320   20.4850 C   0  0  0  0  0  0  0  0  0  0  0  0
  -27.2420  -28.5480   20.4390 C   0  0  0  0  0  3  0  0  0  0  0  0
  -26.0550  -26.8410   19.1920 C   0  0  0  0  0  3  0  0  0  0  0  0
  -24.8800  -27.6150   19.2330 C   0  0  0  0  0  3  0  0  0  0  0  0
  -23.6380  -29.7240   19.9800 C   0  0  0  0  0  2  0  0  0  0  0  0
  -24.7140  -30.9300   21.9280 N   0  0  0  0  0  0  0  0  0  0  0  0
  -23.5900  -31.9580   23.6110 O   0  0  0  0  0  0  0  0  0  0  0  0
  -22.7940  -29.3060   22.3180 C   0  0  0  0  0  0  0  0  0  0  0  0
  -21.4650  -29.1380   22.2100 N   0  0  0  0  0  0  0  0  0  0  0  0
  -23.4850  -28.6470   23.1000 O   0  0  0  0  0  0  0  0  0  0  0  0
  -20.9670  -29.7220   21.5520 H   0  0  0  0  0  0  0  0  0  0  0  0
  -18.0870  -27.9700   22.7560 C   0  0  0  0  0  0  0  0  0  0  0  0
  -20.6550  -28.1790   22.9600 C   0  0  0  0  0  3  0  0  0  0  0  0
  -20.7180  -26.7740   22.3160 C   0  0  0  0  0  2  0  0  0  0  0  0
  -19.5820  -26.5150   21.3220 C   0  0  0  0  0  2  0  0  0  0  0  0
  -18.2220  -26.6510   22.0140 C   0  0  0  0  0  2  0  0  0  0  0  0
  -19.2290  -28.6950   23.1870 C   0  0  0  0  0  0  0  0  0  0  0  0
  -19.0480  -29.9320   23.8430 C   0  0  0  0  0  3  0  0  0  0  0  0
  -17.7560  -30.4430   24.0720 C   0  0  0  0  0  3  0  0  0  0  0  0
  -16.6280  -29.7130   23.6570 C   0  0  0  0  0  3  0  0  0  0  0  0
  -16.7950  -28.4790   23.0050 C   0  0  0  0  0  3  0  0  0  0  0  0
  -25.9560  -32.3130   23.6790 C   0  0  0  0  0  3  0  0  0  0  0  0
  -26.4970  -31.4920   24.9150 C   0  0  1  0  0  0  0  0  0  0  0  0
  -25.4240  -31.2080   25.9910 C   0  0  0  0  0  1  0  0  0  0  0  0
  -27.0770  -30.1340   24.4570 C   0  0  0  0  0  1  0  0  0  0  0  0
  -27.6570  -32.2630   25.5880 C   0  0  0  0  0  1  0  0  0  0  0  0
  -25.6470  -33.6950   24.0730 N   0  0  0  0  0  0  0  0  0  0  0  0
  -25.9490  -34.7790   23.3450 C   0  0  0  0  0  0  0  0  0  0  0  0
  -26.5880  -34.7200   22.2920 O   0  0  0  0  0  0  0  0  0  0  0  0
  -25.0760  -33.8130   24.8960 H   0  0  0  0  0  0  0  0  0  0  0  0
  -24.1900  -36.5630   23.1230 C   0  0  0  0  0  1  0  0  0  0  0  0
  -25.4660  -36.1450   23.8700 C   0  0  0  0  0  3  0  0  0  0  0  0
  -27.6190  -37.0300   24.6540 C   0  0  0  0  0  1  0  0  0  0  0  0
  -26.4830  -37.2120   23.7530 N   0  0  0  0  0  0  0  0  0  0  0  0
  -26.0730  -38.1230   23.9420 H   0  0  0  0  0  0  0  0  0  0  0  0
  -27.7190  -17.0850   21.1570 N   0  0  0  0  0  0  0  0  0  0  0  0
  -27.0040  -17.6490   21.6020 H   0  0  0  0  0  0  0  0  0  0  0  0
  -28.0070  -16.3370   21.7770 H   0  0  0  0  0  0  0  0  0  0  0  0
  1  5  1  0
  2  6  1  0
  3  1  2  0
  3  4  1  0
  4  2  2  0
  5 16  1  0
  5  6  2  0
  6 94  1  0
  7  3  1  0
  8 16  1  0
  9 14  1  0
 10 11  1  0
 10  9  1  0
 12 11  1  0
 12 21  1  0
 12 13  1  0
 14  8  1  0
 14 13  1  0
 15  8  2  0
 16 17  1  0
 18 19  2  0
 19 38  1  0
 20 19  1  0
 20 23  1  0
 21 22  1  0
 21 18  1  0
 22 20  2  0
 23 24  1  0
 24 25  2  0
 26 29  1  0
 26 25  1  0
 27 26  2  0
 28 27  1  0
 28 23  2  0
 29 30  1  0
 30 31  1  0
 31 32  2  0
 33 32  1  0
 33 37  1  0
 34 33  2  0
 35 30  2  0
 35 34  1  0
 36 35  1  0
 38 39  1  0
 39 41  1  0
 39 42  1  0
 40 38  2  0
 43 18  1  0
 43 44  1  0
 45 43  1  0
 46 47  1  0
 46 50  1  0
 47 49  1  0
 49 52  1  0
 49 48  1  0
 50  4  1  0
 50 48  1  0
 51 46  2  0
 53 55  1  0
 53 52  1  0
 54 65  2  0
 55 60  1  0
 56 64  1  0
 56 66  1  0
 57 63  1  0
 57 59  1  0
 58 64  1  0
 59 58  1  0
 60 59  2  0
 61 62  1  0
 61 55  2  0
 62 57  2  0
 63 56  1  0
 64 54  1  0
 66 68  2  0
 67 66  1  0
 69 67  1  0
 70 79  2  0
 70 75  1  0
 71 67  1  0
 71 75  1  0
 72 71  1  0
 73 74  1  0
 73 72  1  0
 74 70  1  0
 75 76  2  0
 76 77  1  0
 78 77  2  0
 79 78  1  0
 80 54  1  0
 80 85  1  0
 80 81  1  0
 81 84  1  1
 81 82  1  0
 83 81  1  0
 85 88  1  0
 86 90  1  0
 86 85  1  0
 87 86  2  0
 90 89  1  0
 92 90  1  0
 92 93  1  0
 92 91  1  0
 94 95  1  0
 94 96  1  0
M  ISO  4   8 100  16 100  52 101  53 101
M  END
>  <TORSDO>  (66) 
F 19

>  <SCORE>  (66) 
-13.009

>  <name>  (66) 
65

>  <ligand_id>  (66) 
65

>  <original_smiles>  (66) 
[H]c1c([H])c([H])c2c(c1[H])C([H])([H])C([H])([H])C([H])([H])C2([H])N([H])C(=O)C1([H])N(C(=O)C([H])(N([H])C(=O)C([H])(N([H])C([H])([H])[H])C([H])([H])[H])C(C([H])([H])[H])(C([H])([H])[H])C([H])([H])[H])C([H])([H])c2c([H])c(OC([H])([H])C3([H])C([H])([H])C(=O)N(c4c([H])c(N([H])[H])c(N([H])C(=O)N5C([H])([H])C([H])([H])C([H])([H])C([H])(n6nc(-c7c([H])c([H])c(Oc8c([H])c([H])c(F)c([H])c8F)c([H])c7[H])c(C(=O)N([H])[H])c6N([H])[H])C5([H])[H])c([H])c4C([H])([H])[H])C3([H])[H])c([H])c([H])c2C1([H])[H]

>  <smiles>  (66) 
[H]c1c([H])c([H])c2c(c1[H])C([H])([H])C([H])([H])C([H])([H])C2([H])N([H])C(=O)C1([H])N(C(=O)C([H])(N([H])C(=O)C([H])(N([H])C([H])([H])[H])C([H])([H])[H])C(C([H])([H])[H])(C([H])([H])[H])C([H])([H])[H])C([H])([H])c2c([H])c(OC([H])([H])C3([H])C([H])([H])C(=O)N(c4c([H])c(N([H])[H])c(N([H])C(=O)N5C([H])([H])C([H])([H])C([H])([H])C([H])(n6nc(-c7c([H])c([H])c(Oc8c([H])c([H])c(F)c([H])c8F)c([H])c7[H])c(C(=O)N([H])[H])c6N([H])[H])C5([H])[H])c([H])c4C([H])([H])[H])C3([H])[H])c([H])c([H])c2C1([H])[H]

$$$$
66:0:0
     RDKit          3D

 99108  0  0  1  0  0  0  0  0999 V2000
  -30.3120  -23.8170   20.5290 C   0  0  0  0  0  3  0  0  0  0  0  0
  -28.8880  -23.8760   20.4760 C   0  0  0  0  0  0  0  0  0  0  0  0
  -30.6960  -22.4970   20.6250 C   0  0  0  0  0  0  0  0  0  0  0  0
  -28.5010  -22.5470   20.6330 C   0  0  0  0  0  0  0  0  0  0  0  0
  -29.5890  -21.6490   20.6430 N   0  0  0  0  0  0  0  0  0  0  0  0
  -29.1850  -18.0300   19.4460 C   0  0  0  0  0  3  0  0  0  0  0  0
  -30.2030  -19.3880   21.6300 C   0  0  0  0  0  3  0  0  0  0  0  0
  -29.0860  -19.4470   19.4980 C   0  0  0  0  0  0  0  0  0  0  0  0
  -29.5990  -20.1790   20.6060 C   0  0  0  0  0  0  0  0  0  0  0  0
  -29.8820  -17.2390   20.4060 C   0  0  0  0  0  0  0  0  0  0  0  0
  -30.3640  -17.9630   21.5390 C   0  0  0  0  0  0  0  0  0  0  0  0
  -28.4800  -20.1400   18.2860 C   0  0  0  0  0  1  0  0  0  0  0  0
  -30.7280  -14.8070   20.8020 C   0  0  0  0  0  0  0  0  0  0  0  0
  -30.5800  -12.4740   19.9580 C   0  0  0  0  0  2  0  0  0  0  0  0
  -29.7320  -12.3850   18.6670 C   0  0  0  0  0  2  0  0  0  0  0  0
  -28.2270  -12.3170   18.9860 C   0  0  0  0  0  2  0  0  0  0  0  0
  -27.7620  -13.3010   20.0920 C   0  0  0  0  0  3  0  0  0  0  0  0
  -28.7350  -13.3200   21.2900 C   0  0  0  0  0  2  0  0  0  0  0  0
  -30.0710  -13.6030   20.7580 N   0  0  0  0  0  0  0  0  0  0  0  0
  -31.9590  -14.8420   20.8810 O   0  0  0  0  0  0  0  0  0  0  0  0
  -30.4060  -15.6540   18.6150 C   0  0  0  0  0  1  0  0  0  0  0  0
  -30.1410  -15.8200   20.0640 N   0  0  0  0  0  0  0  0  0  0  0  0
  -25.3210  -13.9110   20.6180 C   0  0  0  0  0  0  0  0  0  0  0  0
  -24.2300  -13.1410   20.9210 C   0  0  0  0  0  0  0  0  0  0  0  0
  -24.7000  -11.7930   20.9790 C   0  0  0  0  0  0  0  0  0  0  0  0
  -26.3850  -13.0300   20.5010 N   0  0  0  0  0  0  0  0  0  0  0  0
  -26.0130  -11.7560   20.7890 N   0  0  0  0  0  0  0  0  0  0  0  0
  -23.9690  -10.5310   21.1470 C   0  0  0  0  0  0  0  0  0  0  0  0
  -24.3650   -9.5690   22.1030 C   0  0  0  0  0  3  0  0  0  0  0  0
  -23.6330   -8.3710   22.2590 C   0  0  0  0  0  3  0  0  0  0  0  0
  -22.4930   -8.1270   21.4570 C   0  0  0  0  0  0  0  0  0  0  0  0
  -22.1180   -9.0760   20.4910 C   0  0  0  0  0  3  0  0  0  0  0  0
  -22.8500  -10.2660   20.3320 C   0  0  0  0  0  3  0  0  0  0  0  0
  -21.7370   -6.9820   21.5220 O   0  0  0  0  0  0  0  0  0  0  0  0
  -21.6790   -6.2210   22.6620 C   0  0  0  0  0  0  0  0  0  0  0  0
  -21.2100   -6.7470   23.8870 C   0  0  0  0  0  3  0  0  0  0  0  0
  -21.1000   -5.9110   25.0150 C   0  0  0  0  0  3  0  0  0  0  0  0
  -21.4490   -4.5510   24.9220 C   0  0  0  0  0  0  0  0  0  0  0  0
  -21.9090   -4.0240   23.7020 C   0  0  0  0  0  3  0  0  0  0  0  0
  -22.0210   -4.8560   22.5750 C   0  0  0  0  0  0  0  0  0  0  0  0
  -22.4450   -4.3390   21.3970 F   0  0  0  0  0  0  0  0  0  0  0  0
  -21.3370   -3.7460   26.0040 F   0  0  0  0  0  0  0  0  0  0  0  0
  -22.8120  -13.6140   21.0520 C   0  0  0  0  0  0  0  0  0  0  0  0
  -22.0150  -12.9390   21.8730 N   0  0  0  0  0  0  0  0  0  0  0  0
  -22.4130  -14.6160   20.4610 O   0  0  0  0  0  0  0  0  0  0  0  0
  -22.3490  -12.1290   22.3750 H   0  0  0  0  0  0  0  0  0  0  0  0
  -21.0590  -13.2360   22.0040 H   0  0  0  0  0  0  0  0  0  0  0  0
  -25.4960  -15.2750   20.4070 N   0  0  0  0  0  0  0  0  0  0  0  0
  -24.7270  -15.9350   20.4380 H   0  0  0  0  0  0  0  0  0  0  0  0
  -26.3800  -15.7060   20.1700 H   0  0  0  0  0  0  0  0  0  0  0  0
  -31.0610  -17.3140   22.5600 N   0  0  0  0  0  0  0  0  0  0  0  0
  -31.5720  -17.9090   23.2050 H   0  0  0  0  0  0  0  0  0  0  0  0
  -31.6320  -16.5230   22.2730 H   0  0  0  0  0  0  0  0  0  0  0  0
  -31.9610  -21.9930   20.6560 O   0  0  0  0  0  0  0  0  0  0  0  0
  -32.5680  -22.7260   20.6300 H   0  0  0  0  0  0  0  0  0  0  0  0
  -27.2320  -22.0550   20.7290 O   0  0  0  0  0  0  0  0  0  0  0  0
  -26.6290  -22.7860   20.8010 H   0  0  0  0  0  0  0  0  0  0  0  0
  -27.9350  -25.0850   20.2070 C   0  0  0  0  0  2  0  0  0  0  0  0
  -28.3170  -26.5150   20.3220 O   0  0  0  0  0  0  0  0  0  0  0  0
  -24.5970  -31.9350   23.3200 C   0  0  0  0  0  0  0  0  0  0  0  0
  -27.2320  -27.4130   20.2320 C   0  0  0  0  0  0  0  0  0  0  0  0
  -23.4100  -30.5610   21.6500 C   0  0  0  0  0  3  0  0  0  0  0  0
  -24.8750  -29.0430   20.2140 C   0  0  0  0  0  0  0  0  0  0  0  0
  -25.9540  -30.8780   21.5000 C   0  0  0  0  0  2  0  0  0  0  0  0
  -26.0400  -29.5120   20.8350 C   0  0  0  0  0  0  0  0  0  0  0  0
  -27.2220  -28.7070   20.8390 C   0  0  0  0  0  3  0  0  0  0  0  0
  -26.0420  -27.0210   19.5630 C   0  0  0  0  0  3  0  0  0  0  0  0
  -24.8800  -27.8030   19.5680 C   0  0  0  0  0  3  0  0  0  0  0  0
  -23.6370  -29.9130   20.2620 C   0  0  0  0  0  2  0  0  0  0  0  0
  -24.6720  -31.1400   22.2130 N   0  0  0  0  0  0  0  0  0  0  0  0
  -23.5090  -32.2060   23.8460 O   0  0  0  0  0  0  0  0  0  0  0  0
  -22.7400  -29.5260   22.5870 C   0  0  0  0  0  0  0  0  0  0  0  0
  -21.4140  -29.3530   22.4480 N   0  0  0  0  0  0  0  0  0  0  0  0
  -23.4120  -28.8860   23.4000 O   0  0  0  0  0  0  0  0  0  0  0  0
  -20.9320  -29.9220   21.7670 H   0  0  0  0  0  0  0  0  0  0  0  0
  -18.0280  -28.1690   22.9180 C   0  0  0  0  0  0  0  0  0  0  0  0
  -20.5880  -28.4080   23.2000 C   0  0  0  0  0  3  0  0  0  0  0  0
  -20.6810  -26.9850   22.6020 C   0  0  0  0  0  2  0  0  0  0  0  0
  -19.5810  -26.6870   21.5790 C   0  0  0  0  0  2  0  0  0  0  0  0
  -18.1980  -26.8310   22.2210 C   0  0  0  0  0  2  0  0  0  0  0  0
  -19.1500  -28.9170   23.3650 C   0  0  0  0  0  0  0  0  0  0  0  0
  -18.9380  -30.1710   23.9770 C   0  0  0  0  0  3  0  0  0  0  0  0
  -17.6370  -30.6790   24.1470 C   0  0  0  0  0  3  0  0  0  0  0  0
  -16.5290  -29.9280   23.7170 C   0  0  0  0  0  3  0  0  0  0  0  0
  -16.7250  -28.6760   23.1090 C   0  0  0  0  0  3  0  0  0  0  0  0
  -25.8740  -32.5590   23.9610 C   0  0  0  0  0  3  0  0  0  0  0  0
  -25.5690  -33.9600   24.2840 N   0  0  0  0  0  0  0  0  0  0  0  0
  -25.9280  -35.0110   23.5350 C   0  0  0  0  0  0  0  0  0  0  0  0
  -26.6240  -34.9020   22.5210 O   0  0  0  0  0  0  0  0  0  0  0  0
  -24.9550  -34.1180   25.0700 H   0  0  0  0  0  0  0  0  0  0  0  0
  -24.2460  -36.8330   23.1160 C   0  0  0  0  0  1  0  0  0  0  0  0
  -25.4400  -36.4020   23.9810 C   0  0  0  0  0  3  0  0  0  0  0  0
  -27.5410  -37.2530   24.9270 C   0  0  0  0  0  1  0  0  0  0  0  0
  -26.4930  -37.4400   23.9270 N   0  0  0  0  0  0  0  0  0  0  0  0
  -26.0930  -38.3660   24.0550 H   0  0  0  0  0  0  0  0  0  0  0  0
  -26.3650  -31.7860   25.2460 C   0  0  1  0  0  0  0  0  0  0  0  0
  -25.2520  -31.5520   26.2940 C   0  0  0  0  0  1  0  0  0  0  0  0
  -26.9490  -30.4050   24.8660 C   0  0  0  0  0  1  0  0  0  0  0  0
  -27.5080  -32.5750   25.9270 C   0  0  0  0  0  1  0  0  0  0  0  0
  1  3  2  0
  2  1  1  0
  2  4  2  0
  3  5  1  0
  3 54  1  0
  4  5  1  0
  4 56  1  0
  6  8  2  0
  6 10  1  0
  8  9  1  0
  9  5  1  0
  9  7  2  0
 10 11  2  0
 11  7  1  0
 11 51  1  0
 12  8  1  0
 13 20  2  0
 14 19  1  0
 15 16  1  0
 15 14  1  0
 17 16  1  0
 17 26  1  0
 17 18  1  0
 19 13  1  0
 19 18  1  0
 21 22  1  0
 22 10  1  0
 22 13  1  0
 23 24  2  0
 24 25  1  0
 24 43  1  0
 25 28  1  0
 26 23  1  0
 26 27  1  0
 27 25  2  0
 28 29  1  0
 29 30  2  0
 31 34  1  0
 31 30  1  0
 32 31  2  0
 33 32  1  0
 33 28  2  0
 34 35  1  0
 35 36  1  0
 36 37  2  0
 38 37  1  0
 38 42  1  0
 39 38  2  0
 40 35  2  0
 40 39  1  0
 41 40  1  0
 43 44  1  0
 44 47  1  0
 44 46  1  0
 45 43  2  0
 48 49  1  0
 48 23  1  0
 50 48  1  0
 51 52  1  0
 53 51  1  0
 55 54  1  0
 56 57  1  0
 58 59  1  0
 58  2  1  0
 60 71  2  0
 61 59  1  0
 61 66  1  0
 62 70  1  0
 62 72  1  0
 63 69  1  0
 63 65  1  0
 64 70  1  0
 65 66  2  0
 65 64  1  0
 67 68  1  0
 67 61  2  0
 68 63  2  0
 69 62  1  0
 70 60  1  0
 72 74  2  0
 73 72  1  0
 75 73  1  0
 76 85  2  0
 76 81  1  0
 77 73  1  0
 77 81  1  0
 78 77  1  0
 79 80  1  0
 79 78  1  0
 80 76  1  0
 81 82  2  0
 82 83  1  0
 84 83  2  0
 85 84  1  0
 86 60  1  0
 86 87  1  0
 86 96  1  0
 87 90  1  0
 88 92  1  0
 88 87  1  0
 89 88  2  0
 92 91  1  0
 94 92  1  0
 94 95  1  0
 94 93  1  0
 96 99  1  1
 96 97  1  0
 98 96  1  0
M  ISO  4  13 100  22 100  58 101  59 101
M  END
>  <TORSDO>  (67) 
F 21

>  <SCORE>  (67) 
-14.015

>  <name>  (67) 
66

>  <ligand_id>  (67) 
66

>  <original_smiles>  (67) 
[H]Oc1c([H])c(C([H])([H])Oc2c([H])c([H])c3c(c2[H])C([H])([H])N(C(=O)C([H])(N([H])C(=O)C([H])(N([H])C([H])([H])[H])C([H])([H])[H])C(C([H])([H])[H])(C([H])([H])[H])C([H])([H])[H])C([H])(C(=O)N([H])C2([H])c4c([H])c([H])c([H])c([H])c4C([H])([H])C([H])([H])C2([H])[H])C3([H])[H])c(O[H])n1-c1c([H])c(N([H])[H])c(N(C(=O)N2C([H])([H])C([H])([H])C([H])([H])C([H])(n3nc(-c4c([H])c([H])c(Oc5c([H])c([H])c(F)c([H])c5F)c([H])c4[H])c(C(=O)N([H])[H])c3N([H])[H])C2([H])[H])C([H])([H])[H])c([H])c1C([H])([H])[H]

>  <smiles>  (67) 
[H]Oc1c([H])c(C([H])([H])Oc2c([H])c([H])c3c(c2[H])C([H])([H])N(C(=O)C([H])(N([H])C(=O)C([H])(N([H])C([H])([H])[H])C([H])([H])[H])C(C([H])([H])[H])(C([H])([H])[H])C([H])([H])[H])C([H])(C(=O)N([H])C2([H])c4c([H])c([H])c([H])c([H])c4C([H])([H])C([H])([H])C2([H])[H])C3([H])[H])c(O[H])n1-c1c([H])c(N([H])[H])c(N(C(=O)N2C([H])([H])C([H])([H])C([H])([H])C([H])(n3nc(-c4c([H])c([H])c(Oc5c([H])c([H])c(F)c([H])c5F)c([H])c4[H])c(C(=O)N([H])[H])c3N([H])[H])C2([H])[H])C([H])([H])[H])c([H])c1C([H])([H])[H]

$$$$
67:0:0
     RDKit          3D

 94102  0  0  1  0  0  0  0  0999 V2000
  -29.9790  -18.3430   21.5510 C   0  0  0  0  0  3  0  0  0  0  0  0
  -29.7630  -19.7170   21.2350 C   0  0  0  0  0  3  0  0  0  0  0  0
  -30.2550  -17.8110   19.2320 C   0  0  0  0  0  3  0  0  0  0  0  0
  -30.2200  -17.3290   20.5690 C   0  0  0  0  0  0  0  0  0  0  0  0
  -30.0480  -19.1910   18.9110 C   0  0  0  0  0  0  0  0  0  0  0  0
  -29.7810  -20.1850   19.8980 C   0  0  0  0  0  0  0  0  0  0  0  0
  -30.3300  -15.8420   20.9960 C   0  0  0  0  0  0  0  0  0  0  0  0
  -30.0110  -15.5490   22.1900 N   0  0  0  0  0  0  0  0  0  0  0  0
  -29.6840  -16.3670   22.6900 H   0  0  0  0  0  0  0  0  0  0  0  0
  -30.8930  -14.7180   20.0380 C   0  0  0  0  0  0  0  0  0  0  0  0
  -30.5660  -12.5410   18.8600 C   0  0  0  0  0  2  0  0  0  0  0  0
  -29.5450  -12.7200   17.7130 C   0  0  0  0  0  2  0  0  0  0  0  0
  -28.0990  -12.5510   18.2220 C   0  0  0  0  0  2  0  0  0  0  0  0
  -27.8350  -13.3600   19.5180 C   0  0  0  0  0  3  0  0  0  0  0  0
  -28.9540  -13.1080   20.5470 C   0  0  0  0  0  2  0  0  0  0  0  0
  -30.2360  -13.5070   19.9340 N   0  0  0  0  0  0  0  0  0  0  0  0
  -31.9340  -14.9250   19.4020 O   0  0  0  0  0  0  0  0  0  0  0  0
  -25.5050  -13.9660   20.4170 C   0  0  0  0  0  0  0  0  0  0  0  0
  -24.4530  -13.1940   20.8290 C   0  0  0  0  0  0  0  0  0  0  0  0
  -24.8890  -11.8390   20.7140 C   0  0  0  0  0  0  0  0  0  0  0  0
  -26.5150  -13.0810   20.0760 N   0  0  0  0  0  0  0  0  0  0  0  0
  -26.1530  -11.7930   20.3110 N   0  0  0  0  0  0  0  0  0  0  0  0
  -24.1580  -10.5800   20.9050 C   0  0  0  0  0  0  0  0  0  0  0  0
  -24.5640   -9.6240   21.8610 C   0  0  0  0  0  3  0  0  0  0  0  0
  -23.8330   -8.4310   22.0380 C   0  0  0  0  0  3  0  0  0  0  0  0
  -22.6790   -8.1830   21.2570 C   0  0  0  0  0  0  0  0  0  0  0  0
  -22.2910   -9.1270   20.2890 C   0  0  0  0  0  3  0  0  0  0  0  0
  -23.0240  -10.3120   20.1110 C   0  0  0  0  0  3  0  0  0  0  0  0
  -21.9220   -7.0400   21.3410 O   0  0  0  0  0  0  0  0  0  0  0  0
  -21.7420   -6.3810   22.5310 C   0  0  0  0  0  0  0  0  0  0  0  0
  -21.1470   -7.0090   23.6480 C   0  0  0  0  0  3  0  0  0  0  0  0
  -20.9190   -6.2740   24.8280 C   0  0  0  0  0  3  0  0  0  0  0  0
  -21.2760   -4.9140   24.8930 C   0  0  0  0  0  0  0  0  0  0  0  0
  -21.8640   -4.2860   23.7800 C   0  0  0  0  0  3  0  0  0  0  0  0
  -22.0930   -5.0180   22.6020 C   0  0  0  0  0  0  0  0  0  0  0  0
  -22.6400   -4.4030   21.5260 F   0  0  0  0  0  0  0  0  0  0  0  0
  -21.0490   -4.2060   26.0240 F   0  0  0  0  0  0  0  0  0  0  0  0
  -23.0870  -13.6790   21.2200 C   0  0  0  0  0  0  0  0  0  0  0  0
  -22.4140  -12.9640   22.1150 N   0  0  0  0  0  0  0  0  0  0  0  0
  -22.6250  -14.7260   20.7660 O   0  0  0  0  0  0  0  0  0  0  0  0
  -22.8010  -12.1150   22.5010 H   0  0  0  0  0  0  0  0  0  0  0  0
  -21.5000  -13.2690   22.4190 H   0  0  0  0  0  0  0  0  0  0  0  0
  -25.6810  -15.3410   20.2840 N   0  0  0  0  0  0  0  0  0  0  0  0
  -24.9420  -16.0050   20.4820 H   0  0  0  0  0  0  0  0  0  0  0  0
  -26.5260  -15.7790   19.9410 H   0  0  0  0  0  0  0  0  0  0  0  0
  -30.0910  -19.5900   17.5770 N   0  0  0  0  0  0  0  0  0  0  0  0
  -29.8850  -18.9060   16.8570 H   0  0  0  0  0  0  0  0  0  0  0  0
  -29.7080  -20.5090   17.3750 H   0  0  0  0  0  0  0  0  0  0  0  0
  -29.5730  -21.5250   19.4980 O   0  0  0  0  0  0  0  0  0  0  0  0
  -29.1170  -22.5670   20.4250 C   0  0  0  0  0  2  0  0  0  0  0  0
  -29.0730  -24.0220   19.7990 C   0  0  0  0  0  0  0  0  0  0  0  0
  -29.6630  -24.2620   18.7380 O   0  0  0  0  0  0  0  0  0  0  0  0
  -28.2750  -25.1660   20.5370 C   0  0  0  0  0  2  0  0  0  0  0  0
  -28.4440  -26.5470   20.0220 O   0  0  0  0  0  0  0  0  0  0  0  0
  -24.6010  -31.8130   23.1210 C   0  0  0  0  0  0  0  0  0  0  0  0
  -27.3030  -27.3540   20.0220 C   0  0  0  0  0  0  0  0  0  0  0  0
  -23.4140  -30.3850   21.4910 C   0  0  0  0  0  3  0  0  0  0  0  0
  -24.8900  -28.8810   20.0420 C   0  0  0  0  0  0  0  0  0  0  0  0
  -25.9390  -30.7840   21.2720 C   0  0  0  0  0  2  0  0  0  0  0  0
  -26.0510  -29.4090   20.6230 C   0  0  0  0  0  0  0  0  0  0  0  0
  -27.2630  -28.6600   20.5990 C   0  0  0  0  0  3  0  0  0  0  0  0
  -26.1230  -26.8720   19.4180 C   0  0  0  0  0  3  0  0  0  0  0  0
  -24.9280  -27.6180   19.4300 C   0  0  0  0  0  3  0  0  0  0  0  0
  -23.6280  -29.7170   20.1070 C   0  0  0  0  0  2  0  0  0  0  0  0
  -24.6710  -31.0120   22.0170 N   0  0  0  0  0  0  0  0  0  0  0  0
  -23.5180  -32.0590   23.6710 O   0  0  0  0  0  0  0  0  0  0  0  0
  -22.7930  -29.3490   22.4570 C   0  0  0  0  0  0  0  0  0  0  0  0
  -21.4780  -29.1100   22.3210 N   0  0  0  0  0  0  0  0  0  0  0  0
  -23.4940  -28.7620   23.2850 O   0  0  0  0  0  0  0  0  0  0  0  0
  -20.9710  -29.6360   21.6230 H   0  0  0  0  0  0  0  0  0  0  0  0
  -18.1610  -27.7430   22.7820 C   0  0  0  0  0  0  0  0  0  0  0  0
  -20.6960  -28.1440   23.0940 C   0  0  0  0  0  3  0  0  0  0  0  0
  -20.8840  -26.7090   22.5480 C   0  0  0  0  0  2  0  0  0  0  0  0
  -19.8200  -26.3100   21.5210 C   0  0  0  0  0  2  0  0  0  0  0  0
  -18.4210  -26.3930   22.1350 C   0  0  0  0  0  2  0  0  0  0  0  0
  -19.2290  -28.5730   23.2170 C   0  0  0  0  0  0  0  0  0  0  0  0
  -18.9330  -29.8320   23.7800 C   0  0  0  0  0  3  0  0  0  0  0  0
  -17.6000  -30.2660   23.9130 C   0  0  0  0  0  3  0  0  0  0  0  0
  -16.5450  -29.4350   23.4950 C   0  0  0  0  0  3  0  0  0  0  0  0
  -16.8260  -28.1760   22.9350 C   0  0  0  0  0  3  0  0  0  0  0  0
  -25.8740  -32.4770   23.7280 C   0  0  0  0  0  3  0  0  0  0  0  0
  -25.5230  -33.8560   24.1000 N   0  0  0  0  0  0  0  0  0  0  0  0
  -25.8010  -34.9380   23.3630 C   0  0  0  0  0  0  0  0  0  0  0  0
  -26.4530  -34.8860   22.3160 O   0  0  0  0  0  0  0  0  0  0  0  0
  -24.9420  -33.9680   24.9180 H   0  0  0  0  0  0  0  0  0  0  0  0
  -24.0060  -36.6790   23.0850 C   0  0  0  0  0  1  0  0  0  0  0  0
  -25.2740  -36.2970   23.8650 C   0  0  0  0  0  3  0  0  0  0  0  0
  -27.3860  -37.2370   24.6920 C   0  0  0  0  0  1  0  0  0  0  0  0
  -26.2670  -37.3880   23.7660 N   0  0  0  0  0  0  0  0  0  0  0  0
  -25.8310  -38.2900   23.9400 H   0  0  0  0  0  0  0  0  0  0  0  0
  -26.4480  -31.6960   24.9720 C   0  0  1  0  0  0  0  0  0  0  0  0
  -25.3850  -31.3610   26.0440 C   0  0  0  0  0  1  0  0  0  0  0  0
  -27.1030  -30.3670   24.5290 C   0  0  0  0  0  1  0  0  0  0  0  0
  -27.5640  -32.5300   25.6460 C   0  0  0  0  0  1  0  0  0  0  0  0
  2  1  1  0
  3  4  1  0
  4  7  1  0
  4  1  2  0
  5  3  2  0
  5  6  1  0
  6  2  2  0
  7  8  2  0
  8  9  1  0
 10  7  1  0
 11 16  1  0
 12 13  1  0
 12 11  1  0
 14 13  1  0
 14 21  1  0
 14 15  1  0
 16 10  1  0
 16 15  1  0
 17 10  2  0
 18 19  2  0
 19 38  1  0
 20 19  1  0
 20 23  1  0
 21 22  1  0
 21 18  1  0
 22 20  2  0
 23 24  1  0
 24 25  2  0
 26 29  1  0
 26 25  1  0
 27 26  2  0
 28 27  1  0
 28 23  2  0
 29 30  1  0
 30 35  2  0
 30 31  1  0
 31 32  2  0
 32 33  1  0
 33 37  1  0
 34 33  2  0
 35 34  1  0
 36 35  1  0
 38 39  1  0
 39 42  1  0
 39 41  1  0
 40 38  2  0
 43 18  1  0
 43 44  1  0
 45 43  1  0
 46  5  1  0
 47 46  1  0
 48 46  1  0
 49  6  1  0
 49 50  1  0
 51 50  1  0
 51 53  1  0
 52 51  2  0
 54 53  1  0
 55 66  2  0
 56 54  1  0
 56 61  1  0
 57 65  1  0
 57 67  1  0
 58 64  1  0
 58 60  1  0
 59 65  1  0
 60 59  1  0
 61 60  2  0
 62 63  1  0
 62 56  2  0
 63 58  2  0
 64 57  1  0
 65 55  1  0
 67 69  2  0
 68 67  1  0
 70 68  1  0
 71 80  2  0
 71 76  1  0
 72 68  1  0
 72 76  1  0
 73 72  1  0
 74 75  1  0
 74 73  1  0
 75 71  1  0
 76 77  2  0
 77 78  1  0
 79 78  2  0
 80 79  1  0
 81 55  1  0
 81 82  1  0
 81 91  1  0
 82 85  1  0
 83 87  1  0
 83 82  1  0
 84 83  2  0
 87 86  1  0
 89 87  1  0
 89 90  1  0
 89 88  1  0
 91 94  1  1
 91 92  1  0
 93 91  1  0
M  ISO  4   7 100  10 100  53 101  54 101
M  END
>  <TORSDO>  (68) 
F 22

>  <SCORE>  (68) 
-12.393

>  <name>  (68) 
67

>  <ligand_id>  (68) 
67

>  <original_smiles>  (68) 
[H]N=C(C(=O)N1C([H])([H])C([H])([H])C([H])([H])C([H])(n2nc(-c3c([H])c([H])c(Oc4c([H])c([H])c(F)c([H])c4F)c([H])c3[H])c(C(=O)N([H])[H])c2N([H])[H])C1([H])[H])c1c([H])c([H])c(OC([H])([H])C(=O)C([H])([H])Oc2c([H])c([H])c3c(c2[H])C([H])([H])N(C(=O)C([H])(N([H])C(=O)C([H])(N([H])C([H])([H])[H])C([H])([H])[H])C(C([H])([H])[H])(C([H])([H])[H])C([H])([H])[H])C([H])(C(=O)N([H])C2([H])c4c([H])c([H])c([H])c([H])c4C([H])([H])C([H])([H])C2([H])[H])C3([H])[H])c(N([H])[H])c1[H]

>  <smiles>  (68) 
[H]N=C(C(=O)N1C([H])([H])C([H])([H])C([H])([H])C([H])(n2nc(-c3c([H])c([H])c(Oc4c([H])c([H])c(F)c([H])c4F)c([H])c3[H])c(C(=O)N([H])[H])c2N([H])[H])C1([H])[H])c1c([H])c([H])c(OC([H])([H])C(=O)C([H])([H])Oc2c([H])c([H])c3c(c2[H])C([H])([H])N(C(=O)C([H])(N([H])C(=O)C([H])(N([H])C([H])([H])[H])C([H])([H])[H])C(C([H])([H])[H])(C([H])([H])[H])C([H])([H])[H])C([H])(C(=O)N([H])C2([H])c4c([H])c([H])c([H])c([H])c4C([H])([H])C([H])([H])C2([H])[H])C3([H])[H])c(N([H])[H])c1[H]

$$$$
68:0:0
     RDKit          3D

 95104  0  0  1  0  0  0  0  0999 V2000
  -29.1760  -23.3630   19.5040 C   0  0  0  0  0  0  0  0  0  0  0  0
  -29.5690  -21.0260   18.9970 C   0  0  0  0  0  0  0  0  0  0  0  0
  -29.5660  -23.4150   21.8490 C   0  0  0  0  0  2  0  0  0  0  0  0
  -29.9250  -22.0470   21.2540 C   0  0  0  0  0  2  0  0  0  0  0  0
  -29.3930  -24.3580   20.6520 C   0  0  0  0  0  3  0  0  0  0  0  0
  -29.5050  -22.0910   19.8510 N   0  0  0  0  0  0  0  0  0  0  0  0
  -28.7470  -23.7530   18.4110 O   0  0  0  0  0  0  0  0  0  0  0  0
  -29.4270  -21.1130   17.7720 O   0  0  0  0  0  0  0  0  0  0  0  0
  -30.9250  -18.8880   19.0050 C   0  0  0  0  0  3  0  0  0  0  0  0
  -31.1110  -17.5290   19.3440 C   0  0  0  0  0  3  0  0  0  0  0  0
  -28.9670  -18.9910   20.4320 C   0  0  0  0  0  3  0  0  0  0  0  0
  -29.8500  -19.6370   19.5350 C   0  0  0  0  0  0  0  0  0  0  0  0
  -30.2050  -16.8710   20.2140 C   0  0  0  0  0  0  0  0  0  0  0  0
  -29.1440  -17.6270   20.7620 C   0  0  0  0  0  0  0  0  0  0  0  0
  -28.2540  -17.0180   21.5830 F   0  0  0  0  0  0  0  0  0  0  0  0
  -30.8940  -14.4750   19.8910 C   0  0  0  0  0  0  0  0  0  0  0  0
  -30.4820  -12.3590   18.7020 C   0  0  0  0  0  2  0  0  0  0  0  0
  -29.4410  -12.6320   17.5960 C   0  0  0  0  0  2  0  0  0  0  0  0
  -28.0080  -12.4930   18.1450 C   0  0  0  0  0  2  0  0  0  0  0  0
  -27.7950  -13.2710   19.4720 C   0  0  0  0  0  3  0  0  0  0  0  0
  -28.9400  -12.9850   20.4700 C   0  0  0  0  0  2  0  0  0  0  0  0
  -30.2160  -13.2980   19.8040 N   0  0  0  0  0  0  0  0  0  0  0  0
  -31.9840  -14.6530   19.3420 O   0  0  0  0  0  0  0  0  0  0  0  0
  -30.2390  -15.4700   20.5240 N   0  0  0  0  0  0  0  0  0  0  0  0
  -29.4680  -15.1650   21.0980 H   0  0  0  0  0  0  0  0  0  0  0  0
  -25.4690  -13.8670   20.4000 C   0  0  0  0  0  0  0  0  0  0  0  0
  -24.4300  -13.0890   20.8330 C   0  0  0  0  0  0  0  0  0  0  0  0
  -24.8760  -11.7370   20.7180 C   0  0  0  0  0  0  0  0  0  0  0  0
  -26.4840  -12.9890   20.0540 N   0  0  0  0  0  0  0  0  0  0  0  0
  -26.1350  -11.7000   20.3010 N   0  0  0  0  0  0  0  0  0  0  0  0
  -24.1570  -10.4720   20.9280 C   0  0  0  0  0  0  0  0  0  0  0  0
  -24.5990   -9.5200   21.8720 C   0  0  0  0  0  3  0  0  0  0  0  0
  -23.8820   -8.3210   22.0690 C   0  0  0  0  0  3  0  0  0  0  0  0
  -22.7070   -8.0650   21.3210 C   0  0  0  0  0  0  0  0  0  0  0  0
  -22.2850   -9.0070   20.3670 C   0  0  0  0  0  3  0  0  0  0  0  0
  -23.0020  -10.1970   20.1680 C   0  0  0  0  0  3  0  0  0  0  0  0
  -21.9610   -6.9170   21.4270 O   0  0  0  0  0  0  0  0  0  0  0  0
  -21.8430   -6.2400   22.6150 C   0  0  0  0  0  0  0  0  0  0  0  0
  -21.3210   -6.8560   23.7730 C   0  0  0  0  0  3  0  0  0  0  0  0
  -21.1530   -6.1050   24.9550 C   0  0  0  0  0  3  0  0  0  0  0  0
  -21.4960   -4.7410   24.9770 C   0  0  0  0  0  0  0  0  0  0  0  0
  -22.0110   -4.1250   23.8220 C   0  0  0  0  0  3  0  0  0  0  0  0
  -22.1810   -4.8720   22.6440 C   0  0  0  0  0  0  0  0  0  0  0  0
  -22.6570   -4.2690   21.5280 F   0  0  0  0  0  0  0  0  0  0  0  0
  -21.3280   -4.0170   26.1080 F   0  0  0  0  0  0  0  0  0  0  0  0
  -23.0650  -13.5650   21.2400 C   0  0  0  0  0  0  0  0  0  0  0  0
  -22.4090  -12.8450   22.1450 N   0  0  0  0  0  0  0  0  0  0  0  0
  -22.5900  -14.6090   20.7930 O   0  0  0  0  0  0  0  0  0  0  0  0
  -22.8080  -12.0010   22.5290 H   0  0  0  0  0  0  0  0  0  0  0  0
  -21.4980  -13.1450   22.4600 H   0  0  0  0  0  0  0  0  0  0  0  0
  -25.6300  -15.2420   20.2540 N   0  0  0  0  0  0  0  0  0  0  0  0
  -24.8890  -15.9000   20.4700 H   0  0  0  0  0  0  0  0  0  0  0  0
  -26.4690  -15.6900   19.9100 H   0  0  0  0  0  0  0  0  0  0  0  0
  -28.2620  -25.4070   20.8550 C   0  0  0  0  0  2  0  0  0  0  0  0
  -28.4250  -26.6350   20.1200 O   0  0  0  0  0  0  0  0  0  0  0  0
  -24.6750  -31.8520   23.2120 C   0  0  0  0  0  0  0  0  0  0  0  0
  -27.2880  -27.4120   20.1080 C   0  0  0  0  0  0  0  0  0  0  0  0
  -23.4590  -30.4670   21.5630 C   0  0  0  0  0  3  0  0  0  0  0  0
  -24.9040  -28.9320   20.1240 C   0  0  0  0  0  0  0  0  0  0  0  0
  -25.9870  -30.8150   21.3630 C   0  0  0  0  0  2  0  0  0  0  0  0
  -26.0660  -29.4470   20.7140 C   0  0  0  0  0  0  0  0  0  0  0  0
  -27.2650  -28.6960   20.7010 C   0  0  0  0  0  3  0  0  0  0  0  0
  -26.1140  -26.9150   19.5040 C   0  0  0  0  0  3  0  0  0  0  0  0
  -24.9220  -27.6660   19.5140 C   0  0  0  0  0  3  0  0  0  0  0  0
  -23.6630  -29.7950   20.1780 C   0  0  0  0  0  2  0  0  0  0  0  0
  -24.7250  -31.0580   22.1050 N   0  0  0  0  0  0  0  0  0  0  0  0
  -23.5960  -32.1270   23.7550 O   0  0  0  0  0  0  0  0  0  0  0  0
  -22.8030  -29.4440   22.5170 C   0  0  0  0  0  0  0  0  0  0  0  0
  -21.4760  -29.2770   22.3980 N   0  0  0  0  0  0  0  0  0  0  0  0
  -23.4860  -28.8030   23.3220 O   0  0  0  0  0  0  0  0  0  0  0  0
  -20.9870  -29.8460   21.7200 H   0  0  0  0  0  0  0  0  0  0  0  0
  -18.0960  -28.0930   22.8810 C   0  0  0  0  0  0  0  0  0  0  0  0
  -20.6530  -28.3420   23.1650 C   0  0  0  0  0  3  0  0  0  0  0  0
  -20.7550  -26.9110   22.5870 C   0  0  0  0  0  2  0  0  0  0  0  0
  -19.6550  -26.5930   21.5670 C   0  0  0  0  0  2  0  0  0  0  0  0
  -18.2710  -26.7430   22.2060 C   0  0  0  0  0  2  0  0  0  0  0  0
  -19.2150  -28.8500   23.3170 C   0  0  0  0  0  0  0  0  0  0  0  0
  -18.9990  -30.1150   23.9070 C   0  0  0  0  0  3  0  0  0  0  0  0
  -17.6960  -30.6200   24.0670 C   0  0  0  0  0  3  0  0  0  0  0  0
  -16.5910  -29.8600   23.6480 C   0  0  0  0  0  3  0  0  0  0  0  0
  -16.7910  -28.5980   23.0610 C   0  0  0  0  0  3  0  0  0  0  0  0
  -25.9660  -32.4710   23.8340 C   0  0  0  0  0  3  0  0  0  0  0  0
  -25.6640  -33.8670   24.1800 N   0  0  0  0  0  0  0  0  0  0  0  0
  -26.0040  -34.9260   23.4330 C   0  0  0  0  0  0  0  0  0  0  0  0
  -26.6780  -34.8310   22.4030 O   0  0  0  0  0  0  0  0  0  0  0  0
  -25.0680  -34.0150   24.9800 H   0  0  0  0  0  0  0  0  0  0  0  0
  -24.2930  -36.7350   23.0860 C   0  0  0  0  0  1  0  0  0  0  0  0
  -25.5230  -36.3110   23.9050 C   0  0  0  0  0  3  0  0  0  0  0  0
  -27.6520  -37.1710   24.7730 C   0  0  0  0  0  1  0  0  0  0  0  0
  -26.5650  -37.3580   23.8170 N   0  0  0  0  0  0  0  0  0  0  0  0
  -26.1630  -38.2790   23.9680 H   0  0  0  0  0  0  0  0  0  0  0  0
  -26.4880  -31.6830   25.0960 C   0  0  1  0  0  0  0  0  0  0  0  0
  -25.4000  -31.4310   26.1660 C   0  0  0  0  0  1  0  0  0  0  0  0
  -27.0680  -30.3100   24.6810 C   0  0  0  0  0  1  0  0  0  0  0  0
  -27.6430  -32.4670   25.7640 C   0  0  0  0  0  1  0  0  0  0  0  0
  1  6  1  0
  1  5  1  0
  2 12  1  0
  2  6  1  0
  4  3  1  0
  5 54  1  0
  5  3  1  0
  6  4  1  0
  7  1  2  0
  8  2  2  0
  9 10  2  0
  9 12  1  0
 10 13  1  0
 11 14  1  0
 12 11  2  0
 13 24  1  0
 13 14  2  0
 14 15  1  0
 16 24  1  0
 17 22  1  0
 18 19  1  0
 18 17  1  0
 20 19  1  0
 20 29  1  0
 20 21  1  0
 22 16  1  0
 22 21  1  0
 23 16  2  0
 24 25  1  0
 26 27  2  0
 27 46  1  0
 28 27  1  0
 28 31  1  0
 29 30  1  0
 29 26  1  0
 30 28  2  0
 31 32  1  0
 32 33  2  0
 34 37  1  0
 34 33  1  0
 35 34  2  0
 36 35  1  0
 36 31  2  0
 37 38  1  0
 38 43  2  0
 38 39  1  0
 39 40  2  0
 40 41  1  0
 41 45  1  0
 42 41  2  0
 43 42  1  0
 44 43  1  0
 46 47  1  0
 47 50  1  0
 47 49  1  0
 48 46  2  0
 51 26  1  0
 51 52  1  0
 53 51  1  0
 55 54  1  0
 56 67  2  0
 57 55  1  0
 57 62  1  0
 58 66  1  0
 58 68  1  0
 59 65  1  0
 59 61  1  0
 60 66  1  0
 61 60  1  0
 62 61  2  0
 63 64  1  0
 63 57  2  0
 64 59  2  0
 65 58  1  0
 66 56  1  0
 68 70  2  0
 69 68  1  0
 71 69  1  0
 72 81  2  0
 72 77  1  0
 73 69  1  0
 73 77  1  0
 74 73  1  0
 75 76  1  0
 75 74  1  0
 76 72  1  0
 77 78  2  0
 78 79  1  0
 80 79  2  0
 81 80  1  0
 82 56  1  0
 82 83  1  0
 82 92  1  0
 83 86  1  0
 84 88  1  0
 84 83  1  0
 85 84  2  0
 88 87  1  0
 90 88  1  0
 90 91  1  0
 90 89  1  0
 92 95  1  1
 92 93  1  0
 94 92  1  0
M  ISO  4  16 100  24 100  54 101  55 101
M  END
>  <TORSDO>  (69) 
F 18

>  <SCORE>  (69) 
-14.030

>  <name>  (69) 
68

>  <ligand_id>  (69) 
68

>  <original_smiles>  (69) 
[H]c1c([H])c([H])c2c(c1[H])C([H])([H])C([H])([H])C([H])([H])C2([H])N([H])C(=O)C1([H])N(C(=O)C([H])(N([H])C(=O)C([H])(N([H])C([H])([H])[H])C([H])([H])[H])C(C([H])([H])[H])(C([H])([H])[H])C([H])([H])[H])C([H])([H])c2c([H])c(OC([H])([H])C3([H])C(=O)N(C(=O)c4c([H])c([H])c(N([H])C(=O)N5C([H])([H])C([H])([H])C([H])([H])C([H])(n6nc(-c7c([H])c([H])c(Oc8c([H])c([H])c(F)c([H])c8F)c([H])c7[H])c(C(=O)N([H])[H])c6N([H])[H])C5([H])[H])c(F)c4[H])C([H])([H])C3([H])[H])c([H])c([H])c2C1([H])[H]

>  <smiles>  (69) 
[H]c1c([H])c([H])c2c(c1[H])C([H])([H])C([H])([H])C([H])([H])C2([H])N([H])C(=O)C1([H])N(C(=O)C([H])(N([H])C(=O)C([H])(N([H])C([H])([H])[H])C([H])([H])[H])C(C([H])([H])[H])(C([H])([H])[H])C([H])([H])[H])C([H])([H])c2c([H])c(OC([H])([H])C3([H])C(=O)N(C(=O)c4c([H])c([H])c(N([H])C(=O)N5C([H])([H])C([H])([H])C([H])([H])C([H])(n6nc(-c7c([H])c([H])c(Oc8c([H])c([H])c(F)c([H])c8F)c([H])c7[H])c(C(=O)N([H])[H])c6N([H])[H])C5([H])[H])c(F)c4[H])C([H])([H])C3([H])[H])c([H])c([H])c2C1([H])[H]

$$$$
69:0:0
     RDKit          3D

 97106  0  0  1  0  0  0  0  0999 V2000
  -28.7240  -24.3130   21.0570 C   0  0  0  0  0  0  0  0  0  0  0  0
  -28.6380  -25.6800   21.1040 C   0  0  0  0  0  3  0  0  0  0  0  0
  -28.6480  -20.7550   19.8600 C   0  0  0  0  0  0  0  0  0  0  0  0
  -29.2390  -23.4920   22.2140 C   0  0  0  0  0  2  0  0  0  0  0  0
  -28.4230  -23.3040   19.9400 C   0  0  0  0  0  2  0  0  0  0  0  0
  -29.7370  -22.1710   21.5990 C   0  0  0  0  0  2  0  0  0  0  0  0
  -28.9750  -21.9850   20.3680 N   0  0  0  0  0  0  0  0  0  0  0  0
  -27.5770  -20.5610   19.2760 O   0  0  0  0  0  0  0  0  0  0  0  0
  -29.3690  -18.2760   20.2620 C   0  0  0  0  0  3  0  0  0  0  0  0
  -31.4880  -17.4940   19.3740 C   0  0  0  0  0  3  0  0  0  0  0  0
  -29.6770  -19.6270   19.8660 C   0  0  0  0  0  0  0  0  0  0  0  0
  -30.2770  -17.1810   20.0530 C   0  0  0  0  0  0  0  0  0  0  0  0
  -31.8090  -18.8090   18.9920 C   0  0  0  0  0  0  0  0  0  0  0  0
  -30.9250  -19.8710   19.2570 C   0  0  0  0  0  0  0  0  0  0  0  0
  -31.2660  -21.1130   18.8250 F   0  0  0  0  0  0  0  0  0  0  0  0
  -30.6740  -14.6480   20.3120 C   0  0  0  0  0  0  0  0  0  0  0  0
  -30.3840  -12.4080   19.3050 C   0  0  0  0  0  2  0  0  0  0  0  0
  -29.4440  -12.5350   18.0860 C   0  0  0  0  0  2  0  0  0  0  0  0
  -27.9680  -12.4170   18.5220 C   0  0  0  0  0  2  0  0  0  0  0  0
  -27.6220  -13.2950   19.7550 C   0  0  0  0  0  3  0  0  0  0  0  0
  -28.6890  -13.1650   20.8660 C   0  0  0  0  0  2  0  0  0  0  0  0
  -29.9940  -13.4610   20.2660 N   0  0  0  0  0  0  0  0  0  0  0  0
  -31.8710  -14.6780   20.0450 O   0  0  0  0  0  0  0  0  0  0  0  0
  -29.9390  -15.8030   20.4490 N   0  0  0  0  0  0  0  0  0  0  0  0
  -28.9920  -15.6660   20.7710 H   0  0  0  0  0  0  0  0  0  0  0  0
  -25.2310  -13.8890   20.4800 C   0  0  0  0  0  0  0  0  0  0  0  0
  -24.1620  -13.1160   20.8450 C   0  0  0  0  0  0  0  0  0  0  0  0
  -24.6260  -11.7660   20.8260 C   0  0  0  0  0  0  0  0  0  0  0  0
  -26.2770  -13.0100   20.2460 N   0  0  0  0  0  0  0  0  0  0  0  0
  -25.9190  -11.7280   20.5160 N   0  0  0  0  0  0  0  0  0  0  0  0
  -23.8970  -10.5030   21.0130 C   0  0  0  0  0  0  0  0  0  0  0  0
  -24.3190   -9.5410   21.9550 C   0  0  0  0  0  3  0  0  0  0  0  0
  -23.5880   -8.3440   22.1370 C   0  0  0  0  0  3  0  0  0  0  0  0
  -22.4180   -8.1060   21.3760 C   0  0  0  0  0  0  0  0  0  0  0  0
  -22.0150   -9.0600   20.4240 C   0  0  0  0  0  3  0  0  0  0  0  0
  -22.7470  -10.2450   20.2390 C   0  0  0  0  0  3  0  0  0  0  0  0
  -21.6640   -6.9620   21.4610 O   0  0  0  0  0  0  0  0  0  0  0  0
  -21.6000   -6.2290   22.6200 C   0  0  0  0  0  0  0  0  0  0  0  0
  -21.1490   -6.7910   23.8330 C   0  0  0  0  0  3  0  0  0  0  0  0
  -21.0320   -5.9840   24.9830 C   0  0  0  0  0  3  0  0  0  0  0  0
  -21.3550   -4.6150   24.9190 C   0  0  0  0  0  0  0  0  0  0  0  0
  -21.8050   -4.0530   23.7120 C   0  0  0  0  0  3  0  0  0  0  0  0
  -21.9230   -4.8580   22.5640 C   0  0  0  0  0  0  0  0  0  0  0  0
  -22.3340   -4.3060   21.3960 F   0  0  0  0  0  0  0  0  0  0  0  0
  -21.2400   -3.8380   26.0220 F   0  0  0  0  0  0  0  0  0  0  0  0
  -22.7610  -13.5960   21.1050 C   0  0  0  0  0  0  0  0  0  0  0  0
  -22.0240  -12.9080   21.9690 N   0  0  0  0  0  0  0  0  0  0  0  0
  -22.3300  -14.6220   20.5820 O   0  0  0  0  0  0  0  0  0  0  0  0
  -22.3830  -12.0830   22.4240 H   0  0  0  0  0  0  0  0  0  0  0  0
  -21.0890  -13.2200   22.1830 H   0  0  0  0  0  0  0  0  0  0  0  0
  -25.3930  -15.2590   20.2980 N   0  0  0  0  0  0  0  0  0  0  0  0
  -24.6310  -15.9100   20.4450 H   0  0  0  0  0  0  0  0  0  0  0  0
  -26.2170  -15.7010   19.9150 H   0  0  0  0  0  0  0  0  0  0  0  0
  -32.9910  -19.0700   18.2940 N   0  0  0  0  0  0  0  0  0  0  0  0
  -33.3710  -18.3140   17.7340 H   0  0  0  0  0  0  0  0  0  0  0  0
  -32.9710  -19.9460   17.7810 H   0  0  0  0  0  0  0  0  0  0  0  0
  -28.3660  -26.5800   20.0850 O   0  0  0  0  0  0  0  0  0  0  0  0
  -24.6020  -31.8920   23.2310 C   0  0  0  0  0  0  0  0  0  0  0  0
  -27.2490  -27.3970   20.1770 C   0  0  0  0  0  0  0  0  0  0  0  0
  -23.4120  -30.4950   21.5780 C   0  0  0  0  0  3  0  0  0  0  0  0
  -24.8780  -28.9590   20.1630 C   0  0  0  0  0  0  0  0  0  0  0  0
  -25.9460  -30.8380   21.4100 C   0  0  0  0  0  2  0  0  0  0  0  0
  -26.0370  -29.4600   20.7710 C   0  0  0  0  0  0  0  0  0  0  0  0
  -27.2290  -28.6860   20.7780 C   0  0  0  0  0  3  0  0  0  0  0  0
  -26.0720  -26.9260   19.5640 C   0  0  0  0  0  3  0  0  0  0  0  0
  -24.8920  -27.6940   19.5540 C   0  0  0  0  0  3  0  0  0  0  0  0
  -23.6430  -29.8360   20.1930 C   0  0  0  0  0  2  0  0  0  0  0  0
  -24.6710  -31.0900   22.1330 N   0  0  0  0  0  0  0  0  0  0  0  0
  -23.5160  -32.1610   23.7630 O   0  0  0  0  0  0  0  0  0  0  0  0
  -22.7540  -29.4650   22.5290 C   0  0  0  0  0  0  0  0  0  0  0  0
  -21.4270  -29.2950   22.4070 N   0  0  0  0  0  0  0  0  0  0  0  0
  -23.4350  -28.8290   23.3370 O   0  0  0  0  0  0  0  0  0  0  0  0
  -20.9370  -29.8640   21.7320 H   0  0  0  0  0  0  0  0  0  0  0  0
  -18.0470  -28.1210   22.9210 C   0  0  0  0  0  0  0  0  0  0  0  0
  -20.6090  -28.3530   23.1730 C   0  0  0  0  0  3  0  0  0  0  0  0
  -20.6940  -26.9280   22.5790 C   0  0  0  0  0  2  0  0  0  0  0  0
  -19.5810  -26.6270   21.5700 C   0  0  0  0  0  2  0  0  0  0  0  0
  -18.2050  -26.7780   22.2260 C   0  0  0  0  0  2  0  0  0  0  0  0
  -19.1770  -28.8650   23.3530 C   0  0  0  0  0  0  0  0  0  0  0  0
  -18.9750  -30.1200   23.9680 C   0  0  0  0  0  3  0  0  0  0  0  0
  -17.6780  -30.6330   24.1500 C   0  0  0  0  0  3  0  0  0  0  0  0
  -16.5630  -29.8870   23.7320 C   0  0  0  0  0  3  0  0  0  0  0  0
  -16.7480  -28.6330   23.1230 C   0  0  0  0  0  3  0  0  0  0  0  0
  -25.8830  -32.5260   23.8590 C   0  0  0  0  0  3  0  0  0  0  0  0
  -25.5700  -33.9250   24.1790 N   0  0  0  0  0  0  0  0  0  0  0  0
  -25.9040  -34.9730   23.4140 C   0  0  0  0  0  0  0  0  0  0  0  0
  -26.5800  -34.8660   22.3880 O   0  0  0  0  0  0  0  0  0  0  0  0
  -24.9720  -34.0850   24.9770 H   0  0  0  0  0  0  0  0  0  0  0  0
  -24.1840  -36.7700   23.0290 C   0  0  0  0  0  1  0  0  0  0  0  0
  -25.4110  -36.3630   23.8600 C   0  0  0  0  0  3  0  0  0  0  0  0
  -27.5340  -37.2520   24.7170 C   0  0  0  0  0  1  0  0  0  0  0  0
  -26.4430  -37.4160   23.7590 N   0  0  0  0  0  0  0  0  0  0  0  0
  -26.0330  -38.3340   23.9000 H   0  0  0  0  0  0  0  0  0  0  0  0
  -26.3880  -31.7600   25.1430 C   0  0  1  0  0  0  0  0  0  0  0  0
  -25.2870  -31.5280   26.2040 C   0  0  0  0  0  1  0  0  0  0  0  0
  -26.9780  -30.3810   24.7630 C   0  0  0  0  0  1  0  0  0  0  0  0
  -27.5320  -32.5580   25.8130 C   0  0  0  0  0  1  0  0  0  0  0  0
  1  2  2  0
  1  4  1  0
  3 11  1  0
  3  7  1  0
  5  7  1  0
  5  1  1  0
  6  4  1  0
  7  6  1  0
  8  3  2  0
 10 12  2  0
 11  9  2  0
 12  9  1  0
 12 24  1  0
 13 14  2  0
 13 10  1  0
 14 11  1  0
 15 14  1  0
 16 24  1  0
 17 22  1  0
 18 19  1  0
 18 17  1  0
 20 19  1  0
 20 29  1  0
 20 21  1  0
 22 16  1  0
 22 21  1  0
 23 16  2  0
 24 25  1  0
 26 27  2  0
 27 46  1  0
 28 27  1  0
 28 31  1  0
 29 26  1  0
 29 30  1  0
 30 28  2  0
 31 32  1  0
 32 33  2  0
 34 37  1  0
 34 33  1  0
 35 34  2  0
 36 35  1  0
 36 31  2  0
 37 38  1  0
 38 39  1  0
 39 40  2  0
 41 40  1  0
 41 45  1  0
 42 41  2  0
 43 38  2  0
 43 42  1  0
 44 43  1  0
 46 47  1  0
 47 50  1  0
 47 49  1  0
 48 46  2  0
 51 52  1  0
 51 26  1  0
 53 51  1  0
 54 13  1  0
 55 54  1  0
 56 54  1  0
 57 59  1  0
 57  2  1  0
 58 69  2  0
 59 64  1  0
 60 68  1  0
 60 70  1  0
 61 67  1  0
 61 63  1  0
 62 68  1  0
 63 64  2  0
 63 62  1  0
 65 59  2  0
 66 65  1  0
 66 61  2  0
 67 60  1  0
 68 58  1  0
 70 72  2  0
 71 70  1  0
 73 71  1  0
 74 83  2  0
 74 79  1  0
 75 71  1  0
 75 79  1  0
 76 75  1  0
 77 78  1  0
 77 76  1  0
 78 74  1  0
 79 80  2  0
 80 81  1  0
 82 81  2  0
 83 82  1  0
 84 58  1  0
 84 85  1  0
 84 94  1  0
 85 88  1  0
 86 90  1  0
 86 85  1  0
 87 86  2  0
 90 89  1  0
 92 90  1  0
 92 93  1  0
 92 91  1  0
 94 97  1  1
 94 95  1  0
 96 94  1  0
M  ISO  4   2 101  16 100  24 100  57 101
M  END
>  <TORSDO>  (70) 
F 18

>  <SCORE>  (70) 
-15.200

>  <name>  (70) 
69

>  <ligand_id>  (70) 
69

>  <original_smiles>  (70) 
[H]C(Oc1c([H])c([H])c2c(c1[H])C([H])([H])N(C(=O)C([H])(N([H])C(=O)C([H])(N([H])C([H])([H])[H])C([H])([H])[H])C(C([H])([H])[H])(C([H])([H])[H])C([H])([H])[H])C([H])(C(=O)N([H])C1([H])c3c([H])c([H])c([H])c([H])c3C([H])([H])C([H])([H])C1([H])[H])C2([H])[H])=C1C([H])([H])N(C(=O)c2c([H])c(N([H])C(=O)N3C([H])([H])C([H])([H])C([H])([H])C([H])(n4nc(-c5c([H])c([H])c(Oc6c([H])c([H])c(F)c([H])c6F)c([H])c5[H])c(C(=O)N([H])[H])c4N([H])[H])C3([H])[H])c([H])c(N([H])[H])c2F)C([H])([H])C1([H])[H]

>  <smiles>  (70) 
[H]C(Oc1c([H])c([H])c2c(c1[H])C([H])([H])N(C(=O)C([H])(N([H])C(=O)C([H])(N([H])C([H])([H])[H])C([H])([H])[H])C(C([H])([H])[H])(C([H])([H])[H])C([H])([H])[H])C([H])(C(=O)N([H])C1([H])c3c([H])c([H])c([H])c([H])c3C([H])([H])C([H])([H])C1([H])[H])C2([H])[H])=C1C([H])([H])N(C(=O)c2c([H])c(N([H])C(=O)N3C([H])([H])C([H])([H])C([H])([H])C([H])(n4nc(-c5c([H])c([H])c(Oc6c([H])c([H])c(F)c([H])c6F)c([H])c5[H])c(C(=O)N([H])[H])c4N([H])[H])C3([H])[H])c([H])c(N([H])[H])c2F)C([H])([H])C1([H])[H]

$$$$
70:0:0
     RDKit          3D

 95104  0  0  1  0  0  0  0  0999 V2000
  -30.2300  -22.5880   18.7770 C   0  0  0  0  0  0  0  0  0  0  0  0
  -29.9130  -24.0880   18.8740 C   0  0  0  0  0  2  0  0  0  0  0  0
  -28.6380  -22.7570   20.4110 C   0  0  0  0  0  2  0  0  0  0  0  0
  -28.6470  -24.1870   19.7280 C   0  0  0  0  0  3  0  0  0  0  0  0
  -29.4520  -21.8210   19.5690 N   0  0  0  0  0  0  0  0  0  0  0  0
  -31.1340  -22.1780   18.0420 O   0  0  0  0  0  0  0  0  0  0  0  0
  -30.0290  -19.4680   18.7030 C   0  0  0  0  0  3  0  0  0  0  0  0
  -29.7840  -18.3650   21.2070 C   0  0  0  0  0  3  0  0  0  0  0  0
  -30.3260  -18.0710   18.8890 C   0  0  0  0  0  0  0  0  0  0  0  0
  -29.6340  -20.3590   19.7510 C   0  0  0  0  0  0  0  0  0  0  0  0
  -30.2660  -17.4720   20.1940 C   0  0  0  0  0  0  0  0  0  0  0  0
  -29.4670  -19.7360   21.0050 C   0  0  0  0  0  0  0  0  0  0  0  0
  -29.0330  -20.4570   22.0630 F   0  0  0  0  0  0  0  0  0  0  0  0
  -31.1790  -15.0580   19.8080 C   0  0  0  0  0  0  0  0  0  0  0  0
  -30.8440  -12.8810   18.6330 C   0  0  0  0  0  2  0  0  0  0  0  0
  -29.7910  -13.0390   17.5160 C   0  0  0  0  0  2  0  0  0  0  0  0
  -28.3610  -12.8690   18.0680 C   0  0  0  0  0  2  0  0  0  0  0  0
  -28.1240  -13.6740   19.3720 C   0  0  0  0  0  3  0  0  0  0  0  0
  -29.2750  -13.4610   20.3720 C   0  0  0  0  0  2  0  0  0  0  0  0
  -30.5230  -13.8550   19.6980 N   0  0  0  0  0  0  0  0  0  0  0  0
  -32.2620  -15.2310   19.2350 O   0  0  0  0  0  0  0  0  0  0  0  0
  -30.7700  -15.8010   22.0120 C   0  0  0  0  0  1  0  0  0  0  0  0
  -30.6030  -16.0600   20.5700 N   0  0  0  0  0  0  0  0  0  0  0  0
  -25.8250  -14.2480   20.3640 C   0  0  0  0  0  0  0  0  0  0  0  0
  -24.7870  -13.4640   20.7860 C   0  0  0  0  0  0  0  0  0  0  0  0
  -25.2220  -12.1120   20.6250 C   0  0  0  0  0  0  0  0  0  0  0  0
  -26.8260  -13.3740   19.9700 N   0  0  0  0  0  0  0  0  0  0  0  0
  -26.4740  -12.0810   20.1880 N   0  0  0  0  0  0  0  0  0  0  0  0
  -24.4970  -10.8460   20.8060 C   0  0  0  0  0  0  0  0  0  0  0  0
  -24.8660   -9.9150   21.8010 C   0  0  0  0  0  3  0  0  0  0  0  0
  -24.1400   -8.7160   21.9660 C   0  0  0  0  0  3  0  0  0  0  0  0
  -23.0300   -8.4390   21.1340 C   0  0  0  0  0  0  0  0  0  0  0  0
  -22.6800   -9.3580   20.1300 C   0  0  0  0  0  3  0  0  0  0  0  0
  -23.4070  -10.5480   19.9630 C   0  0  0  0  0  3  0  0  0  0  0  0
  -22.2810   -7.2890   21.2040 O   0  0  0  0  0  0  0  0  0  0  0  0
  -21.9430   -6.7210   22.4070 C   0  0  0  0  0  0  0  0  0  0  0  0
  -21.1860   -7.4190   23.3720 C   0  0  0  0  0  3  0  0  0  0  0  0
  -20.8030   -6.7760   24.5650 C   0  0  0  0  0  3  0  0  0  0  0  0
  -21.1670   -5.4350   24.7920 C   0  0  0  0  0  0  0  0  0  0  0  0
  -21.9160   -4.7360   23.8280 C   0  0  0  0  0  3  0  0  0  0  0  0
  -22.3020   -5.3770   22.6380 C   0  0  0  0  0  0  0  0  0  0  0  0
  -23.0050   -4.6940   21.7050 F   0  0  0  0  0  0  0  0  0  0  0  0
  -20.7930   -4.8130   25.9350 F   0  0  0  0  0  0  0  0  0  0  0  0
  -23.4310  -13.9360   21.2250 C   0  0  0  0  0  0  0  0  0  0  0  0
  -22.7930  -13.2130   22.1380 N   0  0  0  0  0  0  0  0  0  0  0  0
  -22.9490  -14.9810   20.7900 O   0  0  0  0  0  0  0  0  0  0  0  0
  -23.2000  -12.3680   22.5120 H   0  0  0  0  0  0  0  0  0  0  0  0
  -21.8870  -13.5100   22.4710 H   0  0  0  0  0  0  0  0  0  0  0  0
  -25.9950  -15.6270   20.2610 N   0  0  0  0  0  0  0  0  0  0  0  0
  -25.2620  -16.2840   20.5000 H   0  0  0  0  0  0  0  0  0  0  0  0
  -26.8300  -16.0740   19.9050 H   0  0  0  0  0  0  0  0  0  0  0  0
  -30.0590  -17.3650   16.4980 C   0  0  0  0  0  2  0  0  0  0  0  0
  -30.6980  -17.3110   17.6800 C   0  0  0  0  0  3  0  0  0  0  0  0
  -28.5150  -25.4710   20.6710 C   0  0  0  0  0  2  0  0  0  0  0  0
  -28.6110  -26.8580   20.1520 O   0  0  0  0  0  0  0  0  0  0  0  0
  -24.5260  -31.9760   23.2050 C   0  0  0  0  0  0  0  0  0  0  0  0
  -27.4460  -27.6310   20.1450 C   0  0  0  0  0  0  0  0  0  0  0  0
  -23.4270  -30.5180   21.5410 C   0  0  0  0  0  3  0  0  0  0  0  0
  -24.9830  -29.0700   20.1190 C   0  0  0  0  0  0  0  0  0  0  0  0
  -25.9360  -31.0040   21.3800 C   0  0  0  0  0  2  0  0  0  0  0  0
  -26.1100  -29.6380   20.7280 C   0  0  0  0  0  0  0  0  0  0  0  0
  -27.3500  -28.9310   20.7290 C   0  0  0  0  0  3  0  0  0  0  0  0
  -26.3010  -27.1110   19.5140 C   0  0  0  0  0  3  0  0  0  0  0  0
  -25.0800  -27.8130   19.5000 C   0  0  0  0  0  3  0  0  0  0  0  0
  -23.6940  -29.8630   20.1580 C   0  0  0  0  0  2  0  0  0  0  0  0
  -24.6460  -31.1850   22.1000 N   0  0  0  0  0  0  0  0  0  0  0  0
  -23.4260  -32.1740   23.7400 O   0  0  0  0  0  0  0  0  0  0  0  0
  -22.8220  -29.4550   22.4890 C   0  0  0  0  0  0  0  0  0  0  0  0
  -21.5170  -29.1750   22.3340 N   0  0  0  0  0  0  0  0  0  0  0  0
  -23.5290  -28.8850   23.3240 O   0  0  0  0  0  0  0  0  0  0  0  0
  -21.0020  -29.6960   21.6370 H   0  0  0  0  0  0  0  0  0  0  0  0
  -18.2340  -27.7260   22.7720 C   0  0  0  0  0  0  0  0  0  0  0  0
  -20.7600  -28.1760   23.0900 C   0  0  0  0  0  3  0  0  0  0  0  0
  -20.9790  -26.7560   22.5190 C   0  0  0  0  0  2  0  0  0  0  0  0
  -19.9250  -26.3550   21.4820 C   0  0  0  0  0  2  0  0  0  0  0  0
  -18.5230  -26.3940   22.0980 C   0  0  0  0  0  2  0  0  0  0  0  0
  -19.2850  -28.5690   23.2230 C   0  0  0  0  0  0  0  0  0  0  0  0
  -18.9600  -29.8110   23.8090 C   0  0  0  0  0  3  0  0  0  0  0  0
  -17.6180  -30.2150   23.9450 C   0  0  0  0  0  3  0  0  0  0  0  0
  -16.5830  -29.3720   23.5070 C   0  0  0  0  0  3  0  0  0  0  0  0
  -16.8910  -28.1290   22.9270 C   0  0  0  0  0  3  0  0  0  0  0  0
  -25.7620  -32.6850   23.8430 C   0  0  0  0  0  3  0  0  0  0  0  0
  -26.2930  -31.9550   25.1380 C   0  0  1  0  0  0  0  0  0  0  0  0
  -25.1890  -31.6590   26.1790 C   0  0  0  0  0  1  0  0  0  0  0  0
  -26.9710  -30.6140   24.7750 C   0  0  0  0  0  1  0  0  0  0  0  0
  -27.3710  -32.8260   25.8220 C   0  0  0  0  0  1  0  0  0  0  0  0
  -25.3720  -34.0690   24.1530 N   0  0  0  0  0  0  0  0  0  0  0  0
  -25.6510  -35.1290   23.3830 C   0  0  0  0  0  0  0  0  0  0  0  0
  -26.3360  -35.0520   22.3600 O   0  0  0  0  0  0  0  0  0  0  0  0
  -24.7650  -34.1950   24.9500 H   0  0  0  0  0  0  0  0  0  0  0  0
  -23.8250  -36.8140   22.9900 C   0  0  0  0  0  1  0  0  0  0  0  0
  -25.0810  -36.4950   23.8170 C   0  0  0  0  0  3  0  0  0  0  0  0
  -27.1500  -37.5190   24.6550 C   0  0  0  0  0  1  0  0  0  0  0  0
  -26.0530  -37.6060   23.6950 N   0  0  0  0  0  0  0  0  0  0  0  0
  -25.5940  -38.5040   23.8110 H   0  0  0  0  0  0  0  0  0  0  0  0
  1  2  1  0
  1  5  1  0
  2  4  1  0
  4  3  1  0
  4 54  1  0
  5 10  1  0
  5  3  1  0
  6  1  2  0
  7  9  2  0
  7 10  1  0
  9 11  1  0
 10 12  2  0
 11 23  1  0
 11  8  2  0
 12  8  1  0
 12 13  1  0
 14 23  1  0
 15 20  1  0
 16 17  1  0
 16 15  1  0
 18 17  1  0
 18 27  1  0
 18 19  1  0
 20 14  1  0
 20 19  1  0
 21 14  2  0
 23 22  1  0
 24 25  2  0
 25 44  1  0
 26 25  1  0
 26 29  1  0
 27 28  1  0
 27 24  1  0
 28 26  2  0
 29 30  1  0
 30 31  2  0
 32 35  1  0
 32 31  1  0
 33 32  2  0
 34 33  1  0
 34 29  2  0
 35 36  1  0
 36 41  2  0
 36 37  1  0
 37 38  2  0
 38 39  1  0
 39 43  1  0
 40 39  2  0
 41 40  1  0
 42 41  1  0
 44 45  1  0
 45 48  1  0
 45 47  1  0
 46 44  2  0
 49 24  1  0
 49 50  1  0
 51 49  1  0
 52 53  2  0
 53  9  1  0
 55 54  1  0
 56 67  2  0
 57 55  1  0
 57 62  1  0
 58 66  1  0
 58 68  1  0
 59 65  1  0
 59 61  1  0
 60 66  1  0
 61 62  2  0
 61 60  1  0
 63 57  2  0
 64 63  1  0
 64 59  2  0
 65 58  1  0
 66 56  1  0
 68 70  2  0
 69 68  1  0
 71 69  1  0
 72 81  2  0
 72 77  1  0
 73 69  1  0
 73 77  1  0
 74 73  1  0
 75 76  1  0
 75 74  1  0
 76 72  1  0
 77 78  2  0
 78 79  1  0
 80 79  2  0
 81 80  1  0
 82 56  1  0
 82 87  1  0
 82 83  1  0
 83 86  1  1
 83 84  1  0
 85 83  1  0
 87 90  1  0
 88 92  1  0
 88 87  1  0
 89 88  2  0
 92 91  1  0
 94 95  1  0
 94 92  1  0
 94 93  1  0
M  ISO  4  14 100  23 100  54 101  55 101
M  END
>  <TORSDO>  (71) 
F 19

>  <SCORE>  (71) 
-10.943

>  <name>  (71) 
70

>  <ligand_id>  (71) 
70

>  <original_smiles>  (71) 
[H]C([H])=C([H])c1c([H])c(N2C(=O)C([H])([H])C([H])(C([H])([H])Oc3c([H])c([H])c4c(c3[H])C([H])([H])N(C(=O)C([H])(N([H])C(=O)C([H])(N([H])C([H])([H])[H])C([H])([H])[H])C(C([H])([H])[H])(C([H])([H])[H])C([H])([H])[H])C([H])(C(=O)N([H])C3([H])c5c([H])c([H])c([H])c([H])c5C([H])([H])C([H])([H])C3([H])[H])C4([H])[H])C2([H])[H])c(F)c([H])c1N(C(=O)N1C([H])([H])C([H])([H])C([H])([H])C([H])(n2nc(-c3c([H])c([H])c(Oc4c([H])c([H])c(F)c([H])c4F)c([H])c3[H])c(C(=O)N([H])[H])c2N([H])[H])C1([H])[H])C([H])([H])[H]

>  <smiles>  (71) 
[H]C([H])=C([H])c1c([H])c(N2C(=O)C([H])([H])C([H])(C([H])([H])Oc3c([H])c([H])c4c(c3[H])C([H])([H])N(C(=O)C([H])(N([H])C(=O)C([H])(N([H])C([H])([H])[H])C([H])([H])[H])C(C([H])([H])[H])(C([H])([H])[H])C([H])([H])[H])C([H])(C(=O)N([H])C3([H])c5c([H])c([H])c([H])c([H])c5C([H])([H])C([H])([H])C3([H])[H])C4([H])[H])C2([H])[H])c(F)c([H])c1N(C(=O)N1C([H])([H])C([H])([H])C([H])([H])C([H])(n2nc(-c3c([H])c([H])c(Oc4c([H])c([H])c(F)c([H])c4F)c([H])c3[H])c(C(=O)N([H])[H])c2N([H])[H])C1([H])[H])C([H])([H])[H]

$$$$
71:0:0
     RDKit          3D

 94103  0  0  1  0  0  0  0  0999 V2000
  -29.1060  -22.5840   20.1950 C   0  0  0  0  0  3  0  0  0  0  0  0
  -29.2700  -23.9590   20.1700 C   0  0  0  0  0  0  0  0  0  0  0  0
  -31.3830  -22.0550   19.6260 C   0  0  0  0  0  0  0  0  0  0  0  0
  -30.6480  -24.5230   19.8990 C   0  0  0  0  0  2  0  0  0  0  0  0
  -31.5500  -23.5130   19.1670 C   0  0  0  0  0  2  0  0  0  0  0  0
  -30.1360  -21.6000   19.9400 N   0  0  0  0  0  0  0  0  0  0  0  0
  -32.3980  -21.3500   19.6710 O   0  0  0  0  0  0  0  0  0  0  0  0
  -29.6470  -19.5150   21.3320 C   0  0  0  0  0  3  0  0  0  0  0  0
  -29.7330  -18.0960   21.5080 C   0  0  0  0  0  3  0  0  0  0  0  0
  -30.2450  -19.2200   19.0350 C   0  0  0  0  0  3  0  0  0  0  0  0
  -29.9590  -20.1330   20.0960 C   0  0  0  0  0  0  0  0  0  0  0  0
  -30.1190  -17.1770   20.4740 C   0  0  0  0  0  0  0  0  0  0  0  0
  -30.3130  -17.7980   19.2030 C   0  0  0  0  0  0  0  0  0  0  0  0
  -30.5850  -17.0460   18.1120 F   0  0  0  0  0  0  0  0  0  0  0  0
  -30.8010  -14.7350   19.9230 C   0  0  0  0  0  0  0  0  0  0  0  0
  -30.4370  -12.5610   18.7250 C   0  0  0  0  0  2  0  0  0  0  0  0
  -29.3930  -12.7240   17.5990 C   0  0  0  0  0  2  0  0  0  0  0  0
  -27.9640  -12.5360   18.1410 C   0  0  0  0  0  2  0  0  0  0  0  0
  -27.7160  -13.3440   19.4410 C   0  0  0  0  0  3  0  0  0  0  0  0
  -28.8610  -13.1470   20.4530 C   0  0  0  0  0  2  0  0  0  0  0  0
  -30.1200  -13.5390   19.7930 N   0  0  0  0  0  0  0  0  0  0  0  0
  -31.8600  -14.9060   19.3100 O   0  0  0  0  0  0  0  0  0  0  0  0
  -30.4220  -15.3700   22.1920 C   0  0  0  0  0  1  0  0  0  0  0  0
  -30.3010  -15.7190   20.7640 N   0  0  0  0  0  0  0  0  0  0  0  0
  -25.3970  -13.9030   20.3920 C   0  0  0  0  0  0  0  0  0  0  0  0
  -24.3680  -13.1150   20.8290 C   0  0  0  0  0  0  0  0  0  0  0  0
  -24.8270  -11.7680   20.7130 C   0  0  0  0  0  0  0  0  0  0  0  0
  -26.4160  -13.0360   20.0330 N   0  0  0  0  0  0  0  0  0  0  0  0
  -26.0850  -11.7440   20.2880 N   0  0  0  0  0  0  0  0  0  0  0  0
  -24.1220  -10.4970   20.9260 C   0  0  0  0  0  0  0  0  0  0  0  0
  -24.5800   -9.5450   21.8630 C   0  0  0  0  0  3  0  0  0  0  0  0
  -23.8720   -8.3400   22.0610 C   0  0  0  0  0  3  0  0  0  0  0  0
  -22.6940   -8.0780   21.3230 C   0  0  0  0  0  0  0  0  0  0  0  0
  -22.2570   -9.0190   20.3750 C   0  0  0  0  0  3  0  0  0  0  0  0
  -22.9640  -10.2150   20.1750 C   0  0  0  0  0  3  0  0  0  0  0  0
  -21.9570   -6.9220   21.4320 O   0  0  0  0  0  0  0  0  0  0  0  0
  -21.8640   -6.2360   22.6160 C   0  0  0  0  0  0  0  0  0  0  0  0
  -21.3680   -6.8420   23.7920 C   0  0  0  0  0  3  0  0  0  0  0  0
  -21.2200   -6.0810   24.9670 C   0  0  0  0  0  3  0  0  0  0  0  0
  -21.5600   -4.7140   24.9710 C   0  0  0  0  0  0  0  0  0  0  0  0
  -22.0510   -4.1090   23.8000 C   0  0  0  0  0  3  0  0  0  0  0  0
  -22.1980   -4.8670   22.6260 C   0  0  0  0  0  0  0  0  0  0  0  0
  -22.6500   -4.2730   21.4940 F   0  0  0  0  0  0  0  0  0  0  0  0
  -21.4130   -3.9800   26.0990 F   0  0  0  0  0  0  0  0  0  0  0  0
  -22.9990  -13.5780   21.2390 C   0  0  0  0  0  0  0  0  0  0  0  0
  -22.3620  -12.8680   22.1630 N   0  0  0  0  0  0  0  0  0  0  0  0
  -22.5050  -14.6040   20.7730 O   0  0  0  0  0  0  0  0  0  0  0  0
  -22.7760  -12.0400   22.5650 H   0  0  0  0  0  0  0  0  0  0  0  0
  -21.4460  -13.1600   22.4790 H   0  0  0  0  0  0  0  0  0  0  0  0
  -25.5450  -15.2800   20.2490 N   0  0  0  0  0  0  0  0  0  0  0  0
  -24.7930  -15.9290   20.4490 H   0  0  0  0  0  0  0  0  0  0  0  0
  -26.3780  -15.7340   19.8930 H   0  0  0  0  0  0  0  0  0  0  0  0
  -28.1510  -25.0300   20.4400 C   0  0  0  0  0  2  0  0  0  0  0  0
  -28.4320  -26.4800   20.2040 O   0  0  0  0  0  0  0  0  0  0  0  0
  -24.6850  -31.9070   23.1960 C   0  0  0  0  0  0  0  0  0  0  0  0
  -27.3250  -27.3470   20.1570 C   0  0  0  0  0  0  0  0  0  0  0  0
  -23.4920  -30.4930   21.5650 C   0  0  0  0  0  3  0  0  0  0  0  0
  -24.9540  -28.9560   20.1390 C   0  0  0  0  0  0  0  0  0  0  0  0
  -26.0310  -30.8310   21.3760 C   0  0  0  0  0  2  0  0  0  0  0  0
  -26.1230  -29.4510   20.7330 C   0  0  0  0  0  0  0  0  0  0  0  0
  -27.3140  -28.6600   20.7270 C   0  0  0  0  0  3  0  0  0  0  0  0
  -26.1360  -26.9210   19.5220 C   0  0  0  0  0  3  0  0  0  0  0  0
  -24.9640  -27.6980   19.5230 C   0  0  0  0  0  3  0  0  0  0  0  0
  -23.7110  -29.8210   20.1850 C   0  0  0  0  0  2  0  0  0  0  0  0
  -24.7550  -31.0940   22.1030 N   0  0  0  0  0  0  0  0  0  0  0  0
  -23.5990  -32.1760   23.7310 O   0  0  0  0  0  0  0  0  0  0  0  0
  -22.8400  -29.4710   22.5260 C   0  0  0  0  0  0  0  0  0  0  0  0
  -21.5150  -29.2800   22.3990 N   0  0  0  0  0  0  0  0  0  0  0  0
  -23.5250  -28.8550   23.3480 O   0  0  0  0  0  0  0  0  0  0  0  0
  -21.0230  -29.8290   21.7090 H   0  0  0  0  0  0  0  0  0  0  0  0
  -18.1520  -28.0400   22.8850 C   0  0  0  0  0  0  0  0  0  0  0  0
  -20.7040  -28.3390   23.1730 C   0  0  0  0  0  3  0  0  0  0  0  0
  -20.8310  -26.9030   22.6140 C   0  0  0  0  0  2  0  0  0  0  0  0
  -19.7420  -26.5540   21.5950 C   0  0  0  0  0  2  0  0  0  0  0  0
  -18.3530  -26.6860   22.2250 C   0  0  0  0  0  2  0  0  0  0  0  0
  -19.2550  -28.8230   23.3150 C   0  0  0  0  0  0  0  0  0  0  0  0
  -19.0120  -30.0900   23.8910 C   0  0  0  0  0  3  0  0  0  0  0  0
  -17.6990  -30.5730   24.0390 C   0  0  0  0  0  3  0  0  0  0  0  0
  -16.6090  -29.7860   23.6240 C   0  0  0  0  0  3  0  0  0  0  0  0
  -16.8370  -28.5220   23.0530 C   0  0  0  0  0  3  0  0  0  0  0  0
  -25.9610  -32.5540   23.8160 C   0  0  0  0  0  3  0  0  0  0  0  0
  -25.6340  -33.9460   24.1530 N   0  0  0  0  0  0  0  0  0  0  0  0
  -25.9740  -35.0100   23.4120 C   0  0  0  0  0  0  0  0  0  0  0  0
  -26.6660  -34.9220   22.3950 O   0  0  0  0  0  0  0  0  0  0  0  0
  -25.0190  -34.0870   24.9400 H   0  0  0  0  0  0  0  0  0  0  0  0
  -24.2610  -36.8090   23.0190 C   0  0  0  0  0  1  0  0  0  0  0  0
  -25.4680  -36.3890   23.8740 C   0  0  0  0  0  3  0  0  0  0  0  0
  -27.5660  -37.2570   24.8090 C   0  0  0  0  0  1  0  0  0  0  0  0
  -26.5040  -37.4440   23.8240 N   0  0  0  0  0  0  0  0  0  0  0  0
  -26.0930  -38.3610   23.9710 H   0  0  0  0  0  0  0  0  0  0  0  0
  -26.4910  -31.7840   25.0880 C   0  0  1  0  0  0  0  0  0  0  0  0
  -25.4020  -31.5270   26.1560 C   0  0  0  0  0  1  0  0  0  0  0  0
  -27.0930  -30.4170   24.6880 C   0  0  0  0  0  1  0  0  0  0  0  0
  -27.6310  -32.5930   25.7510 C   0  0  0  0  0  1  0  0  0  0  0  0
  2  1  2  0
  2 53  1  0
  3  7  2  0
  3  6  1  0
  4  2  1  0
  5  3  1  0
  5  4  1  0
  6 11  1  0
  6  1  1  0
  8  9  1  0
 10 13  2  0
 10 11  1  0
 11  8  2  0
 12 24  1  0
 12  9  2  0
 13 12  1  0
 14 13  1  0
 15 24  1  0
 16 21  1  0
 17 18  1  0
 17 16  1  0
 19 18  1  0
 19 28  1  0
 19 20  1  0
 21 15  1  0
 21 20  1  0
 22 15  2  0
 24 23  1  0
 25 26  2  0
 26 45  1  0
 27 26  1  0
 27 30  1  0
 28 29  1  0
 28 25  1  0
 29 27  2  0
 30 31  1  0
 31 32  2  0
 33 36  1  0
 33 32  1  0
 34 33  2  0
 35 34  1  0
 35 30  2  0
 36 37  1  0
 37 42  2  0
 37 38  1  0
 38 39  2  0
 39 40  1  0
 40 44  1  0
 41 40  2  0
 42 41  1  0
 43 42  1  0
 45 46  1  0
 46 49  1  0
 46 48  1  0
 47 45  2  0
 50 25  1  0
 50 51  1  0
 52 50  1  0
 54 53  1  0
 55 66  2  0
 56 54  1  0
 56 61  1  0
 57 65  1  0
 57 67  1  0
 58 64  1  0
 58 60  1  0
 59 65  1  0
 60 59  1  0
 61 60  2  0
 62 63  1  0
 62 56  2  0
 63 58  2  0
 64 57  1  0
 65 55  1  0
 67 69  2  0
 68 67  1  0
 70 68  1  0
 71 80  2  0
 71 76  1  0
 72 68  1  0
 72 76  1  0
 73 72  1  0
 74 75  1  0
 74 73  1  0
 75 71  1  0
 76 77  2  0
 77 78  1  0
 79 78  2  0
 80 79  1  0
 81 55  1  0
 81 82  1  0
 81 91  1  0
 82 85  1  0
 83 87  1  0
 83 82  1  0
 84 83  2  0
 87 86  1  0
 89 87  1  0
 89 90  1  0
 89 88  1  0
 91 94  1  1
 91 92  1  0
 93 91  1  0
M  ISO  4  15 100  24 100  53 101  54 101
M  END
>  <TORSDO>  (72) 
F 18

>  <SCORE>  (72) 
-13.280

>  <name>  (72) 
71

>  <ligand_id>  (72) 
71

>  <original_smiles>  (72) 
[H]C1=C(C([H])([H])Oc2c([H])c([H])c3c(c2[H])C([H])([H])N(C(=O)C([H])(N([H])C(=O)C([H])(N([H])C([H])([H])[H])C([H])([H])[H])C(C([H])([H])[H])(C([H])([H])[H])C([H])([H])[H])C([H])(C(=O)N([H])C2([H])c4c([H])c([H])c([H])c([H])c4C([H])([H])C([H])([H])C2([H])[H])C3([H])[H])C([H])([H])C([H])([H])C(=O)N1c1c([H])c([H])c(N(C(=O)N2C([H])([H])C([H])([H])C([H])([H])C([H])(n3nc(-c4c([H])c([H])c(Oc5c([H])c([H])c(F)c([H])c5F)c([H])c4[H])c(C(=O)N([H])[H])c3N([H])[H])C2([H])[H])C([H])([H])[H])c(F)c1[H]

>  <smiles>  (72) 
[H]C1=C(C([H])([H])Oc2c([H])c([H])c3c(c2[H])C([H])([H])N(C(=O)C([H])(N([H])C(=O)C([H])(N([H])C([H])([H])[H])C([H])([H])[H])C(C([H])([H])[H])(C([H])([H])[H])C([H])([H])[H])C([H])(C(=O)N([H])C2([H])c4c([H])c([H])c([H])c([H])c4C([H])([H])C([H])([H])C2([H])[H])C3([H])[H])C([H])([H])C([H])([H])C(=O)N1c1c([H])c([H])c(N(C(=O)N2C([H])([H])C([H])([H])C([H])([H])C([H])(n3nc(-c4c([H])c([H])c(Oc5c([H])c([H])c(F)c([H])c5F)c([H])c4[H])c(C(=O)N([H])[H])c3N([H])[H])C2([H])[H])C([H])([H])[H])c(F)c1[H]

$$$$
72:0:0
     RDKit          3D

 95103  0  0  1  0  0  0  0  0999 V2000
  -31.0790  -19.6260   20.4510 C   0  0  0  0  0  3  0  0  0  0  0  0
  -30.6020  -20.9640   20.3400 C   0  0  0  0  0  3  0  0  0  0  0  0
  -28.8800  -18.7490   20.0400 C   0  0  0  0  0  3  0  0  0  0  0  0
  -30.2460  -18.4750   20.3050 C   0  0  0  0  0  0  0  0  0  0  0  0
  -29.2410  -21.2350   20.0720 C   0  0  0  0  0  0  0  0  0  0  0  0
  -28.3960  -20.0930   19.9300 C   0  0  0  0  0  0  0  0  0  0  0  0
  -30.8070  -14.6580   20.0800 C   0  0  0  0  0  0  0  0  0  0  0  0
  -30.4120  -12.4020   19.1020 C   0  0  0  0  0  2  0  0  0  0  0  0
  -29.4490  -12.4790   17.9020 C   0  0  0  0  0  2  0  0  0  0  0  0
  -27.9920  -12.3610   18.3870 C   0  0  0  0  0  2  0  0  0  0  0  0
  -27.6780  -13.3000   19.5820 C   0  0  0  0  0  3  0  0  0  0  0  0
  -28.7710  -13.2420   20.6730 C   0  0  0  0  0  2  0  0  0  0  0  0
  -30.0560  -13.5090   20.0190 N   0  0  0  0  0  0  0  0  0  0  0  0
  -31.9820  -14.6110   19.7100 O   0  0  0  0  0  0  0  0  0  0  0  0
  -30.8490  -17.0670   20.5490 C   0  0  0  0  0  0  0  0  0  0  0  0
  -30.1920  -15.8760   20.3120 N   0  0  0  0  0  0  0  0  0  0  0  0
  -32.0170  -17.0740   20.9580 O   0  0  0  0  0  0  0  0  0  0  0  0
  -29.1900  -15.9080   20.2450 H   0  0  0  0  0  0  0  0  0  0  0  0
  -25.3390  -13.9620   20.4000 C   0  0  0  0  0  0  0  0  0  0  0  0
  -24.2630  -13.2210   20.8030 C   0  0  0  0  0  0  0  0  0  0  0  0
  -24.6810  -11.8560   20.7520 C   0  0  0  0  0  0  0  0  0  0  0  0
  -26.3460  -13.0510   20.1240 N   0  0  0  0  0  0  0  0  0  0  0  0
  -25.9580  -11.7790   20.3990 N   0  0  0  0  0  0  0  0  0  0  0  0
  -23.9200  -10.6170   20.9600 C   0  0  0  0  0  0  0  0  0  0  0  0
  -24.3440   -9.6360   21.8840 C   0  0  0  0  0  3  0  0  0  0  0  0
  -23.5840   -8.4630   22.0820 C   0  0  0  0  0  3  0  0  0  0  0  0
  -22.3860   -8.2620   21.3540 C   0  0  0  0  0  0  0  0  0  0  0  0
  -21.9810   -9.2300   20.4200 C   0  0  0  0  0  3  0  0  0  0  0  0
  -22.7420  -10.3950   20.2200 C   0  0  0  0  0  3  0  0  0  0  0  0
  -21.5970   -7.1420   21.4620 O   0  0  0  0  0  0  0  0  0  0  0  0
  -21.5530   -6.4000   22.6160 C   0  0  0  0  0  0  0  0  0  0  0  0
  -21.1500   -6.9610   23.8470 C   0  0  0  0  0  3  0  0  0  0  0  0
  -21.0530   -6.1470   24.9930 C   0  0  0  0  0  3  0  0  0  0  0  0
  -21.3480   -4.7730   24.9090 C   0  0  0  0  0  0  0  0  0  0  0  0
  -21.7460   -4.2120   23.6820 C   0  0  0  0  0  3  0  0  0  0  0  0
  -21.8440   -5.0230   22.5390 C   0  0  0  0  0  0  0  0  0  0  0  0
  -22.2070   -4.4730   21.3550 F   0  0  0  0  0  0  0  0  0  0  0  0
  -21.2480   -3.9890   26.0080 F   0  0  0  0  0  0  0  0  0  0  0  0
  -22.8920  -13.7420   21.1230 C   0  0  0  0  0  0  0  0  0  0  0  0
  -22.1720  -13.0680   22.0120 N   0  0  0  0  0  0  0  0  0  0  0  0
  -22.4700  -14.7810   20.6170 O   0  0  0  0  0  0  0  0  0  0  0  0
  -22.5270  -12.2270   22.4420 H   0  0  0  0  0  0  0  0  0  0  0  0
  -21.2530  -13.4000   22.2690 H   0  0  0  0  0  0  0  0  0  0  0  0
  -25.5410  -15.3280   20.2180 N   0  0  0  0  0  0  0  0  0  0  0  0
  -24.7930  -16.0020   20.3450 H   0  0  0  0  0  0  0  0  0  0  0  0
  -26.3760  -15.7350   19.8180 H   0  0  0  0  0  0  0  0  0  0  0  0
  -29.1100  -23.8540   20.0990 C   0  0  0  0  0  0  0  0  0  0  0  0
  -28.6760  -22.5710   19.8640 N   0  0  0  0  0  0  0  0  0  0  0  0
  -30.1690  -24.1140   20.6770 O   0  0  0  0  0  0  0  0  0  0  0  0
  -27.7650  -22.5290   19.4290 H   0  0  0  0  0  0  0  0  0  0  0  0
  -28.1750  -25.0200   19.5820 C   0  0  0  0  0  2  0  0  0  0  0  0
  -28.4270  -26.4320   19.9910 O   0  0  0  0  0  0  0  0  0  0  0  0
  -24.4820  -31.6390   23.1030 C   0  0  0  0  0  0  0  0  0  0  0  0
  -27.3100  -27.2930   19.9230 C   0  0  0  0  0  0  0  0  0  0  0  0
  -23.3670  -30.2760   21.3770 C   0  0  0  0  0  3  0  0  0  0  0  0
  -24.9020  -28.8480   19.9190 C   0  0  0  0  0  0  0  0  0  0  0  0
  -25.9010  -30.6810   21.2740 C   0  0  0  0  0  2  0  0  0  0  0  0
  -26.0420  -29.3360   20.5710 C   0  0  0  0  0  0  0  0  0  0  0  0
  -27.2500  -28.5710   20.5680 C   0  0  0  0  0  3  0  0  0  0  0  0
  -26.1450  -26.8810   19.2290 C   0  0  0  0  0  3  0  0  0  0  0  0
  -24.9570  -27.6270   19.2390 C   0  0  0  0  0  3  0  0  0  0  0  0
  -23.6360  -29.6750   19.9740 C   0  0  0  0  0  2  0  0  0  0  0  0
  -24.6010  -30.8800   21.9760 N   0  0  0  0  0  0  0  0  0  0  0  0
  -23.3780  -31.8590   23.6200 O   0  0  0  0  0  0  0  0  0  0  0  0
  -22.7160  -29.1940   22.2730 C   0  0  0  0  0  0  0  0  0  0  0  0
  -21.3920  -29.0120   22.1360 N   0  0  0  0  0  0  0  0  0  0  0  0
  -23.4020  -28.5270   23.0510 O   0  0  0  0  0  0  0  0  0  0  0  0
  -20.8970  -29.6040   21.4830 H   0  0  0  0  0  0  0  0  0  0  0  0
  -18.0150  -27.8070   22.6190 C   0  0  0  0  0  0  0  0  0  0  0  0
  -20.5810  -28.0240   22.8490 C   0  0  0  0  0  3  0  0  0  0  0  0
  -20.6570  -26.6410   22.1630 C   0  0  0  0  0  2  0  0  0  0  0  0
  -19.5290  -26.4060   21.1530 C   0  0  0  0  0  2  0  0  0  0  0  0
  -18.1640  -26.5120   21.8370 C   0  0  0  0  0  2  0  0  0  0  0  0
  -19.1510  -28.5250   23.0800 C   0  0  0  0  0  0  0  0  0  0  0  0
  -18.9570  -29.7400   23.7720 C   0  0  0  0  0  3  0  0  0  0  0  0
  -17.6610  -30.2370   24.0050 C   0  0  0  0  0  3  0  0  0  0  0  0
  -16.5400  -29.5150   23.5610 C   0  0  0  0  0  3  0  0  0  0  0  0
  -16.7180  -28.3000   22.8730 C   0  0  0  0  0  3  0  0  0  0  0  0
  -25.7270  -32.2860   23.7840 C   0  0  0  0  0  3  0  0  0  0  0  0
  -26.2090  -31.5040   25.0660 C   0  0  1  0  0  0  0  0  0  0  0  0
  -25.0790  -31.2240   26.0850 C   0  0  0  0  0  1  0  0  0  0  0  0
  -26.8370  -30.1460   24.6770 C   0  0  0  0  0  1  0  0  0  0  0  0
  -27.3160  -32.3100   25.7870 C   0  0  0  0  0  1  0  0  0  0  0  0
  -25.3770  -33.6720   24.1240 N   0  0  0  0  0  0  0  0  0  0  0  0
  -25.6960  -34.7420   23.3840 C   0  0  0  0  0  0  0  0  0  0  0  0
  -26.3890  -34.6680   22.3650 O   0  0  0  0  0  0  0  0  0  0  0  0
  -24.7640  -33.8020   24.9160 H   0  0  0  0  0  0  0  0  0  0  0  0
  -23.9210  -36.4880   23.0310 C   0  0  0  0  0  1  0  0  0  0  0  0
  -25.1660  -36.1120   23.8490 C   0  0  0  0  0  3  0  0  0  0  0  0
  -27.2620  -37.0560   24.7120 C   0  0  0  0  0  1  0  0  0  0  0  0
  -26.1680  -37.1960   23.7540 N   0  0  0  0  0  0  0  0  0  0  0  0
  -25.7330  -38.1030   23.8990 H   0  0  0  0  0  0  0  0  0  0  0  0
  -27.0360  -20.2950   19.6920 N   0  0  0  0  0  0  0  0  0  0  0  0
  -26.4380  -19.4850   19.8160 H   0  0  0  0  0  0  0  0  0  0  0  0
  -26.6240  -21.1110   20.1300 H   0  0  0  0  0  0  0  0  0  0  0  0
  2  1  1  0
  3  4  1  0
  4  1  2  0
  4 15  1  0
  5  2  2  0
  6  3  2  0
  6  5  1  0
  7 16  1  0
  8 13  1  0
  9 10  1  0
  9  8  1  0
 11 10  1  0
 11 22  1  0
 11 12  1  0
 13  7  1  0
 13 12  1  0
 14  7  2  0
 15 17  2  0
 16 15  1  0
 18 16  1  0
 19 20  2  0
 20 39  1  0
 21 20  1  0
 21 24  1  0
 22 23  1  0
 22 19  1  0
 23 21  2  0
 24 25  1  0
 25 26  2  0
 27 30  1  0
 27 26  1  0
 28 27  2  0
 29 28  1  0
 29 24  2  0
 30 31  1  0
 31 32  1  0
 32 33  2  0
 34 33  1  0
 34 38  1  0
 35 34  2  0
 36 31  2  0
 36 35  1  0
 37 36  1  0
 39 40  1  0
 40 43  1  0
 40 42  1  0
 41 39  2  0
 44 45  1  0
 44 19  1  0
 46 44  1  0
 47 49  2  0
 48  5  1  0
 48 47  1  0
 50 48  1  0
 51 52  1  0
 51 47  1  0
 53 64  2  0
 54 52  1  0
 54 59  1  0
 55 63  1  0
 55 65  1  0
 56 62  1  0
 56 58  1  0
 57 63  1  0
 58 57  1  0
 59 58  2  0
 60 61  1  0
 60 54  2  0
 61 56  2  0
 62 55  1  0
 63 53  1  0
 65 67  2  0
 66 65  1  0
 68 66  1  0
 69 78  2  0
 69 74  1  0
 70 66  1  0
 70 74  1  0
 71 70  1  0
 72 73  1  0
 72 71  1  0
 73 69  1  0
 74 75  2  0
 75 76  1  0
 77 76  2  0
 78 77  1  0
 79 53  1  0
 79 84  1  0
 79 80  1  0
 80 83  1  1
 80 81  1  0
 82 80  1  0
 84 87  1  0
 85 89  1  0
 85 84  1  0
 86 85  2  0
 89 88  1  0
 91 89  1  0
 91 92  1  0
 91 90  1  0
 93 94  1  0
 93  6  1  0
 93 95  1  0
M  ISO  4   7 100  16 100  51 101  52 101
M  END
>  <TORSDO>  (73) 
F 19

>  <SCORE>  (73) 
-14.333

>  <name>  (73) 
72

>  <ligand_id>  (73) 
72

>  <original_smiles>  (73) 
[H]c1c([H])c([H])c2c(c1[H])C([H])([H])C([H])([H])C([H])([H])C2([H])N([H])C(=O)C1([H])N(C(=O)C([H])(N([H])C(=O)C([H])(N([H])C([H])([H])[H])C([H])([H])[H])C(C([H])([H])[H])(C([H])([H])[H])C([H])([H])[H])C([H])([H])c2c([H])c(OC([H])([H])C(=O)N([H])c3c([H])c([H])c(C(=O)N([H])C(=O)N4C([H])([H])C([H])([H])C([H])([H])C([H])(n5nc(-c6c([H])c([H])c(Oc7c([H])c([H])c(F)c([H])c7F)c([H])c6[H])c(C(=O)N([H])[H])c5N([H])[H])C4([H])[H])c([H])c3N([H])[H])c([H])c([H])c2C1([H])[H]

>  <smiles>  (73) 
[H]c1c([H])c([H])c2c(c1[H])C([H])([H])C([H])([H])C([H])([H])C2([H])N([H])C(=O)C1([H])N(C(=O)C([H])(N([H])C(=O)C([H])(N([H])C([H])([H])[H])C([H])([H])[H])C(C([H])([H])[H])(C([H])([H])[H])C([H])([H])[H])C([H])([H])c2c([H])c(OC([H])([H])C(=O)N([H])c3c([H])c([H])c(C(=O)N([H])C(=O)N4C([H])([H])C([H])([H])C([H])([H])C([H])(n5nc(-c6c([H])c([H])c(Oc7c([H])c([H])c(F)c([H])c7F)c([H])c6[H])c(C(=O)N([H])[H])c5N([H])[H])C4([H])[H])c([H])c3N([H])[H])c([H])c([H])c2C1([H])[H]

$$$$
73:0:0
     RDKit          3D

 95103  0  0  1  0  0  0  0  0999 V2000
  -30.7560  -19.5890   19.5060 C   0  0  0  0  0  3  0  0  0  0  0  0
  -30.2680  -20.9260   19.5810 C   0  0  0  0  0  3  0  0  0  0  0  0
  -28.1760  -20.0600   20.3730 C   0  0  0  0  0  3  0  0  0  0  0  0
  -30.0010  -18.4370   19.8840 C   0  0  0  0  0  0  0  0  0  0  0  0
  -28.9620  -21.2050   20.0470 C   0  0  0  0  0  0  0  0  0  0  0  0
  -28.6640  -18.7110   20.3100 C   0  0  0  0  0  0  0  0  0  0  0  0
  -30.7870  -14.6180   19.8400 C   0  0  0  0  0  0  0  0  0  0  0  0
  -30.3900  -12.3340   18.9490 C   0  0  0  0  0  2  0  0  0  0  0  0
  -29.3960  -12.3920   17.7740 C   0  0  0  0  0  2  0  0  0  0  0  0
  -27.9540  -12.2750   18.2970 C   0  0  0  0  0  2  0  0  0  0  0  0
  -27.6670  -13.2280   19.4900 C   0  0  0  0  0  3  0  0  0  0  0  0
  -28.7910  -13.1950   20.5500 C   0  0  0  0  0  2  0  0  0  0  0  0
  -30.0570  -13.4560   19.8560 N   0  0  0  0  0  0  0  0  0  0  0  0
  -31.9580  -14.5590   19.4550 O   0  0  0  0  0  0  0  0  0  0  0  0
  -30.7580  -17.0810   19.9760 C   0  0  0  0  0  0  0  0  0  0  0  0
  -30.1540  -15.8370   20.0230 N   0  0  0  0  0  0  0  0  0  0  0  0
  -31.9900  -17.2020   19.9750 O   0  0  0  0  0  0  0  0  0  0  0  0
  -29.1540  -15.8310   20.1360 H   0  0  0  0  0  0  0  0  0  0  0  0
  -25.3610  -13.8820   20.4000 C   0  0  0  0  0  0  0  0  0  0  0  0
  -24.2960  -13.1370   20.8280 C   0  0  0  0  0  0  0  0  0  0  0  0
  -24.7080  -11.7720   20.7410 C   0  0  0  0  0  0  0  0  0  0  0  0
  -26.3540  -12.9730   20.0750 N   0  0  0  0  0  0  0  0  0  0  0  0
  -25.9740  -11.6980   20.3430 N   0  0  0  0  0  0  0  0  0  0  0  0
  -23.9530  -10.5310   20.9580 C   0  0  0  0  0  0  0  0  0  0  0  0
  -24.4020   -9.5380   21.8550 C   0  0  0  0  0  3  0  0  0  0  0  0
  -23.6460   -8.3640   22.0610 C   0  0  0  0  0  3  0  0  0  0  0  0
  -22.4250   -8.1750   21.3710 C   0  0  0  0  0  0  0  0  0  0  0  0
  -21.9940   -9.1560   20.4610 C   0  0  0  0  0  3  0  0  0  0  0  0
  -22.7500  -10.3220   20.2520 C   0  0  0  0  0  3  0  0  0  0  0  0
  -21.6380   -7.0550   21.4890 O   0  0  0  0  0  0  0  0  0  0  0  0
  -21.6210   -6.3050   22.6370 C   0  0  0  0  0  0  0  0  0  0  0  0
  -21.2600   -6.8580   23.8840 C   0  0  0  0  0  3  0  0  0  0  0  0
  -21.1890   -6.0350   25.0260 C   0  0  0  0  0  3  0  0  0  0  0  0
  -21.4680   -4.6600   24.9210 C   0  0  0  0  0  0  0  0  0  0  0  0
  -21.8230   -4.1050   23.6790 C   0  0  0  0  0  3  0  0  0  0  0  0
  -21.8950   -4.9260   22.5390 C   0  0  0  0  0  0  0  0  0  0  0  0
  -22.2160   -4.3820   21.3410 F   0  0  0  0  0  0  0  0  0  0  0  0
  -21.3930   -3.8670   26.0170 F   0  0  0  0  0  0  0  0  0  0  0  0
  -22.9390  -13.6560   21.2040 C   0  0  0  0  0  0  0  0  0  0  0  0
  -22.2530  -12.9740   22.1130 N   0  0  0  0  0  0  0  0  0  0  0  0
  -22.5010  -14.7020   20.7280 O   0  0  0  0  0  0  0  0  0  0  0  0
  -22.6220  -12.1270   22.5200 H   0  0  0  0  0  0  0  0  0  0  0  0
  -21.3450  -13.3040   22.4080 H   0  0  0  0  0  0  0  0  0  0  0  0
  -25.5600  -15.2500   20.2400 N   0  0  0  0  0  0  0  0  0  0  0  0
  -24.8360  -15.9290   20.4470 H   0  0  0  0  0  0  0  0  0  0  0  0
  -26.4230  -15.6800   19.9280 H   0  0  0  0  0  0  0  0  0  0  0  0
  -28.8550  -23.8250   19.9930 C   0  0  0  0  0  0  0  0  0  0  0  0
  -28.4040  -22.5500   20.2460 N   0  0  0  0  0  0  0  0  0  0  0  0
  -29.9100  -24.0560   19.3950 O   0  0  0  0  0  0  0  0  0  0  0  0
  -27.5050  -22.5530   20.7080 H   0  0  0  0  0  0  0  0  0  0  0  0
  -27.9630  -25.0290   20.5010 C   0  0  0  0  0  2  0  0  0  0  0  0
  -28.2830  -26.3990   20.0230 O   0  0  0  0  0  0  0  0  0  0  0  0
  -24.5630  -31.7260   23.1630 C   0  0  0  0  0  0  0  0  0  0  0  0
  -27.1950  -27.2780   19.9930 C   0  0  0  0  0  0  0  0  0  0  0  0
  -23.3720  -30.3790   21.4720 C   0  0  0  0  0  3  0  0  0  0  0  0
  -24.8340  -28.8790   20.0050 C   0  0  0  0  0  0  0  0  0  0  0  0
  -25.9100  -30.7110   21.3140 C   0  0  0  0  0  2  0  0  0  0  0  0
  -25.9980  -29.3540   20.6270 C   0  0  0  0  0  0  0  0  0  0  0  0
  -27.1860  -28.5650   20.6120 C   0  0  0  0  0  3  0  0  0  0  0  0
  -26.0180  -26.8630   19.3340 C   0  0  0  0  0  3  0  0  0  0  0  0
  -24.8470  -27.6400   19.3480 C   0  0  0  0  0  3  0  0  0  0  0  0
  -23.5950  -29.7470   20.0720 C   0  0  0  0  0  2  0  0  0  0  0  0
  -24.6340  -30.9530   22.0400 N   0  0  0  0  0  0  0  0  0  0  0  0
  -23.4750  -31.9850   23.6990 O   0  0  0  0  0  0  0  0  0  0  0  0
  -22.7050  -29.3310   22.3950 C   0  0  0  0  0  0  0  0  0  0  0  0
  -21.3760  -29.1740   22.2710 N   0  0  0  0  0  0  0  0  0  0  0  0
  -23.3830  -28.6640   23.1810 O   0  0  0  0  0  0  0  0  0  0  0  0
  -20.8900  -29.7640   21.6100 H   0  0  0  0  0  0  0  0  0  0  0  0
  -17.9810  -28.0340   22.7820 C   0  0  0  0  0  0  0  0  0  0  0  0
  -20.5500  -28.2180   23.0100 C   0  0  0  0  0  3  0  0  0  0  0  0
  -20.6060  -26.8160   22.3590 C   0  0  0  0  0  2  0  0  0  0  0  0
  -19.4750  -26.5740   21.3540 C   0  0  0  0  0  2  0  0  0  0  0  0
  -18.1110  -26.7180   22.0350 C   0  0  0  0  0  2  0  0  0  0  0  0
  -19.1280  -28.7460   23.2260 C   0  0  0  0  0  0  0  0  0  0  0  0
  -18.9530  -29.9820   23.8870 C   0  0  0  0  0  3  0  0  0  0  0  0
  -17.6650  -30.5050   24.1070 C   0  0  0  0  0  3  0  0  0  0  0  0
  -16.5330  -29.7890   23.6780 C   0  0  0  0  0  3  0  0  0  0  0  0
  -16.6930  -28.5550   23.0220 C   0  0  0  0  0  3  0  0  0  0  0  0
  -25.8410  -32.3400   23.8130 C   0  0  0  0  0  3  0  0  0  0  0  0
  -26.3330  -31.5460   25.0850 C   0  0  1  0  0  0  0  0  0  0  0  0
  -25.2220  -31.2970   26.1310 C   0  0  0  0  0  1  0  0  0  0  0  0
  -26.9160  -30.1710   24.6800 C   0  0  0  0  0  1  0  0  0  0  0  0
  -27.4780  -32.3230   25.7780 C   0  0  0  0  0  1  0  0  0  0  0  0
  -25.5370  -33.7360   24.1600 N   0  0  0  0  0  0  0  0  0  0  0  0
  -25.8830  -34.7970   23.4190 C   0  0  0  0  0  0  0  0  0  0  0  0
  -26.5610  -34.7040   22.3930 O   0  0  0  0  0  0  0  0  0  0  0  0
  -24.9370  -33.8820   24.9580 H   0  0  0  0  0  0  0  0  0  0  0  0
  -24.1650  -36.6020   23.0780 C   0  0  0  0  0  1  0  0  0  0  0  0
  -25.3990  -36.1820   23.8910 C   0  0  0  0  0  3  0  0  0  0  0  0
  -27.5290  -37.0490   24.7500 C   0  0  0  0  0  1  0  0  0  0  0  0
  -26.4360  -37.2320   23.7990 N   0  0  0  0  0  0  0  0  0  0  0  0
  -26.0320  -38.1520   23.9540 H   0  0  0  0  0  0  0  0  0  0  0  0
  -27.7900  -17.6980   20.7230 N   0  0  0  0  0  0  0  0  0  0  0  0
  -26.9160  -17.9870   21.1520 H   0  0  0  0  0  0  0  0  0  0  0  0
  -28.1720  -16.8860   21.1970 H   0  0  0  0  0  0  0  0  0  0  0  0
  1  2  2  0
  1  4  1  0
  2  5  1  0
  4 15  1  0
  4  6  2  0
  5 48  1  0
  5  3  2  0
  6  3  1  0
  6 93  1  0
  7 13  1  0
  7 16  1  0
  8 13  1  0
  9 10  1  0
  9  8  1  0
 11 10  1  0
 11 22  1  0
 11 12  1  0
 13 12  1  0
 14  7  2  0
 15 16  1  0
 16 18  1  0
 17 15  2  0
 19 20  2  0
 20 39  1  0
 21 20  1  0
 21 24  1  0
 22 23  1  0
 22 19  1  0
 23 21  2  0
 24 25  1  0
 25 26  2  0
 27 30  1  0
 27 26  1  0
 28 27  2  0
 29 28  1  0
 29 24  2  0
 30 31  1  0
 31 32  1  0
 32 33  2  0
 34 33  1  0
 34 38  1  0
 35 34  2  0
 36 31  2  0
 36 35  1  0
 37 36  1  0
 39 40  1  0
 40 43  1  0
 40 42  1  0
 41 39  2  0
 44 19  1  0
 44 45  1  0
 46 44  1  0
 47 48  1  0
 47 51  1  0
 48 50  1  0
 49 47  2  0
 52 51  1  0
 53 64  2  0
 54 52  1  0
 54 59  1  0
 55 63  1  0
 55 65  1  0
 56 62  1  0
 56 58  1  0
 57 63  1  0
 58 57  1  0
 59 58  2  0
 60 61  1  0
 60 54  2  0
 61 56  2  0
 62 55  1  0
 63 53  1  0
 65 67  2  0
 66 65  1  0
 68 66  1  0
 69 78  2  0
 69 74  1  0
 70 66  1  0
 70 74  1  0
 71 70  1  0
 72 73  1  0
 72 71  1  0
 73 69  1  0
 74 75  2  0
 75 76  1  0
 77 76  2  0
 78 77  1  0
 79 53  1  0
 79 84  1  0
 79 80  1  0
 80 83  1  1
 80 81  1  0
 82 80  1  0
 84 87  1  0
 85 89  1  0
 85 84  1  0
 86 85  2  0
 89 88  1  0
 91 89  1  0
 91 92  1  0
 91 90  1  0
 93 94  1  0
 93 95  1  0
M  ISO  4   7 100  16 100  51 101  52 101
M  END
>  <TORSDO>  (74) 
F 19

>  <SCORE>  (74) 
-14.257

>  <name>  (74) 
73

>  <ligand_id>  (74) 
73

>  <original_smiles>  (74) 
[H]c1c([H])c([H])c2c(c1[H])C([H])([H])C([H])([H])C([H])([H])C2([H])N([H])C(=O)C1([H])N(C(=O)C([H])(N([H])C(=O)C([H])(N([H])C([H])([H])[H])C([H])([H])[H])C(C([H])([H])[H])(C([H])([H])[H])C([H])([H])[H])C([H])([H])c2c([H])c(OC([H])([H])C(=O)N([H])c3c([H])c([H])c(C(=O)N([H])C(=O)N4C([H])([H])C([H])([H])C([H])([H])C([H])(n5nc(-c6c([H])c([H])c(Oc7c([H])c([H])c(F)c([H])c7F)c([H])c6[H])c(C(=O)N([H])[H])c5N([H])[H])C4([H])[H])c(N([H])[H])c3[H])c([H])c([H])c2C1([H])[H]

>  <smiles>  (74) 
[H]c1c([H])c([H])c2c(c1[H])C([H])([H])C([H])([H])C([H])([H])C2([H])N([H])C(=O)C1([H])N(C(=O)C([H])(N([H])C(=O)C([H])(N([H])C([H])([H])[H])C([H])([H])[H])C(C([H])([H])[H])(C([H])([H])[H])C([H])([H])[H])C([H])([H])c2c([H])c(OC([H])([H])C(=O)N([H])c3c([H])c([H])c(C(=O)N([H])C(=O)N4C([H])([H])C([H])([H])C([H])([H])C([H])(n5nc(-c6c([H])c([H])c(Oc7c([H])c([H])c(F)c([H])c7F)c([H])c6[H])c(C(=O)N([H])[H])c5N([H])[H])C4([H])[H])c(N([H])[H])c3[H])c([H])c([H])c2C1([H])[H]

$$$$
74:0:0
     RDKit          3D

 95103  0  0  1  0  0  0  0  0999 V2000
  -30.9530  -18.3210   22.0490 C   0  0  0  0  0  3  0  0  0  0  0  0
  -30.2500  -20.6590   21.9990 C   0  0  0  0  0  3  0  0  0  0  0  0
  -31.0710  -18.3020   20.6400 C   0  0  0  0  0  0  0  0  0  0  0  0
  -30.5530  -19.4890   22.7250 C   0  0  0  0  0  0  0  0  0  0  0  0
  -30.3480  -20.6800   20.5880 C   0  0  0  0  0  0  0  0  0  0  0  0
  -30.7610  -19.4920   19.9220 C   0  0  0  0  0  0  0  0  0  0  0  0
  -30.8580  -19.5030   18.5690 F   0  0  0  0  0  0  0  0  0  0  0  0
  -30.4560  -19.4840   24.1160 N   0  0  0  0  0  0  0  0  0  0  0  0
  -30.9050  -18.7430   24.6460 H   0  0  0  0  0  0  0  0  0  0  0  0
  -30.4210  -20.3670   24.6170 H   0  0  0  0  0  0  0  0  0  0  0  0
  -31.4950  -17.0700   19.9200 C   0  0  0  0  0  3  0  0  0  0  0  0
  -31.4860  -15.7940   20.3850 C   0  0  0  0  0  3  0  0  0  0  0  0
  -31.9740  -14.6960   19.5480 C   0  0  0  0  0  0  0  0  0  0  0  0
  -31.3530  -12.5890   18.4190 C   0  0  0  0  0  2  0  0  0  0  0  0
  -30.2450  -12.8850   17.3870 C   0  0  0  0  0  2  0  0  0  0  0  0
  -28.8510  -12.8260   18.0430 C   0  0  0  0  0  2  0  0  0  0  0  0
  -28.7790  -13.6410   19.3620 C   0  0  0  0  0  3  0  0  0  0  0  0
  -29.9770  -13.3070   20.2770 C   0  0  0  0  0  2  0  0  0  0  0  0
  -31.2160  -13.5610   19.5200 N   0  0  0  0  0  0  0  0  0  0  0  0
  -32.9780  -14.8200   18.8390 O   0  0  0  0  0  0  0  0  0  0  0  0
  -26.6670  -14.3710   20.6410 C   0  0  0  0  0  0  0  0  0  0  0  0
  -25.5750  -13.6720   21.0780 C   0  0  0  0  0  0  0  0  0  0  0  0
  -25.8050  -12.3110   20.7120 C   0  0  0  0  0  0  0  0  0  0  0  0
  -27.5050  -13.4380   20.0480 N   0  0  0  0  0  0  0  0  0  0  0  0
  -26.9970  -12.1820   20.1430 N   0  0  0  0  0  0  0  0  0  0  0  0
  -24.9360  -11.1310   20.8200 C   0  0  0  0  0  0  0  0  0  0  0  0
  -25.3050  -10.0100   21.5960 C   0  0  0  0  0  3  0  0  0  0  0  0
  -24.4450   -8.8960   21.6980 C   0  0  0  0  0  3  0  0  0  0  0  0
  -23.2010   -8.8950   21.0230 C   0  0  0  0  0  0  0  0  0  0  0  0
  -22.8490  -10.0040   20.2320 C   0  0  0  0  0  3  0  0  0  0  0  0
  -23.7090  -11.1100   20.1280 C   0  0  0  0  0  3  0  0  0  0  0  0
  -22.3140   -7.8470   21.0430 O   0  0  0  0  0  0  0  0  0  0  0  0
  -22.1440   -7.0680   22.1600 C   0  0  0  0  0  0  0  0  0  0  0  0
  -21.7010   -7.6110   23.3860 C   0  0  0  0  0  3  0  0  0  0  0  0
  -21.4740   -6.7640   24.4890 C   0  0  0  0  0  3  0  0  0  0  0  0
  -21.6790   -5.3760   24.3670 C   0  0  0  0  0  0  0  0  0  0  0  0
  -22.1150   -4.8340   23.1450 C   0  0  0  0  0  3  0  0  0  0  0  0
  -22.3440   -5.6780   22.0440 C   0  0  0  0  0  0  0  0  0  0  0  0
  -22.7430   -5.1480   20.8640 F   0  0  0  0  0  0  0  0  0  0  0  0
  -21.4530   -4.5620   25.4240 F   0  0  0  0  0  0  0  0  0  0  0  0
  -24.3400  -14.2450   21.7140 C   0  0  0  0  0  0  0  0  0  0  0  0
  -23.6930  -13.4840   22.5900 N   0  0  0  0  0  0  0  0  0  0  0  0
  -23.9710  -15.3930   21.4720 O   0  0  0  0  0  0  0  0  0  0  0  0
  -24.0080  -12.5500   22.8040 H   0  0  0  0  0  0  0  0  0  0  0  0
  -22.8700  -13.8420   23.0550 H   0  0  0  0  0  0  0  0  0  0  0  0
  -27.0130  -15.7190   20.6830 N   0  0  0  0  0  0  0  0  0  0  0  0
  -26.3980  -16.4260   21.0700 H   0  0  0  0  0  0  0  0  0  0  0  0
  -27.8660  -16.1030   20.2980 H   0  0  0  0  0  0  0  0  0  0  0  0
  -30.0420  -21.8410   19.8370 N   0  0  0  0  0  0  0  0  0  0  0  0
  -30.3080  -21.8810   18.8560 H   0  0  0  0  0  0  0  0  0  0  0  0
  -29.6580  -23.1030   20.4950 C   0  0  0  0  0  2  0  0  0  0  0  0
  -29.4170  -24.3010   19.5500 C   0  0  0  0  0  0  0  0  0  0  0  0
  -29.5980  -24.2010   18.3300 O   0  0  0  0  0  0  0  0  0  0  0  0
  -28.9500  -25.6170   20.2110 C   0  0  0  0  0  2  0  0  0  0  0  0
  -28.8310  -26.7090   19.2800 O   0  0  0  0  0  0  0  0  0  0  0  0
  -24.7810  -31.2230   23.0290 C   0  0  0  0  0  0  0  0  0  0  0  0
  -27.6360  -27.3820   19.3880 C   0  0  0  0  0  0  0  0  0  0  0  0
  -23.6310  -29.9550   21.2440 C   0  0  0  0  0  3  0  0  0  0  0  0
  -25.1500  -28.7040   19.6180 C   0  0  0  0  0  0  0  0  0  0  0  0
  -26.1220  -30.5070   21.0520 C   0  0  0  0  0  2  0  0  0  0  0  0
  -26.2840  -29.2330   20.2480 C   0  0  0  0  0  0  0  0  0  0  0  0
  -27.5330  -28.5820   20.1280 C   0  0  0  0  0  3  0  0  0  0  0  0
  -26.4880  -26.8630   18.7560 C   0  0  0  0  0  3  0  0  0  0  0  0
  -25.2460  -27.5170   18.8690 C   0  0  0  0  0  3  0  0  0  0  0  0
  -23.8520  -29.4630   19.7880 C   0  0  0  0  0  2  0  0  0  0  0  0
  -24.8640  -30.5700   21.8350 N   0  0  0  0  0  0  0  0  0  0  0  0
  -23.6980  -31.3530   23.6150 O   0  0  0  0  0  0  0  0  0  0  0  0
  -23.0690  -28.7830   22.0800 C   0  0  0  0  0  0  0  0  0  0  0  0
  -21.7800  -28.4660   21.8770 N   0  0  0  0  0  0  0  0  0  0  0  0
  -23.7910  -28.1660   22.8680 O   0  0  0  0  0  0  0  0  0  0  0  0
  -21.2540  -29.0260   21.2200 H   0  0  0  0  0  0  0  0  0  0  0  0
  -18.5790  -26.7960   22.0300 C   0  0  0  0  0  0  0  0  0  0  0  0
  -21.0500  -27.3760   22.5220 C   0  0  0  0  0  3  0  0  0  0  0  0
  -21.3920  -26.0150   21.8720 C   0  0  0  0  0  2  0  0  0  0  0  0
  -20.4210  -25.6190   20.7550 C   0  0  0  0  0  2  0  0  0  0  0  0
  -18.9900  -25.5320   21.2930 C   0  0  0  0  0  2  0  0  0  0  0  0
  -19.5470  -27.6690   22.5930 C   0  0  0  0  0  0  0  0  0  0  0  0
  -19.1130  -28.8480   23.2370 C   0  0  0  0  0  3  0  0  0  0  0  0
  -17.7430  -29.1580   23.3270 C   0  0  0  0  0  3  0  0  0  0  0  0
  -16.7880  -28.2820   22.7810 C   0  0  0  0  0  3  0  0  0  0  0  0
  -17.2070  -27.1030   22.1390 C   0  0  0  0  0  3  0  0  0  0  0  0
  -26.0390  -31.8560   23.7040 C   0  0  0  0  0  3  0  0  0  0  0  0
  -25.6730  -33.2120   24.1350 N   0  0  0  0  0  0  0  0  0  0  0  0
  -26.0210  -34.3350   23.4900 C   0  0  0  0  0  0  0  0  0  0  0  0
  -26.7530  -34.3370   22.4970 O   0  0  0  0  0  0  0  0  0  0  0  0
  -25.0290  -33.2840   24.9090 H   0  0  0  0  0  0  0  0  0  0  0  0
  -24.2700  -36.1130   23.1820 C   0  0  0  0  0  1  0  0  0  0  0  0
  -25.4690  -35.6650   24.0340 C   0  0  0  0  0  3  0  0  0  0  0  0
  -27.5150  -36.5240   25.0850 C   0  0  0  0  0  1  0  0  0  0  0  0
  -26.4780  -36.7460   24.0810 N   0  0  0  0  0  0  0  0  0  0  0  0
  -26.0380  -37.6420   24.2720 H   0  0  0  0  0  0  0  0  0  0  0  0
  -26.5850  -31.0120   24.9190 C   0  0  1  0  0  0  0  0  0  0  0  0
  -25.5050  -30.6620   25.9690 C   0  0  0  0  0  1  0  0  0  0  0  0
  -27.2100  -29.6860   24.4240 C   0  0  0  0  0  1  0  0  0  0  0  0
  -27.7120  -31.7920   25.6360 C   0  0  0  0  0  1  0  0  0  0  0  0
  1  4  1  0
  2  4  2  0
  3  1  2  0
  4  8  1  0
  5  2  1  0
  6  5  2  0
  6  3  1  0
  7  6  1  0
  8 10  1  0
  8  9  1  0
 11 12  2  0
 11  3  1  0
 13 12  1  0
 14 19  1  0
 15 16  1  0
 15 14  1  0
 17 16  1  0
 17 24  1  0
 17 18  1  0
 19 13  1  0
 19 18  1  0
 20 13  2  0
 21 46  1  0
 21 22  2  0
 22 41  1  0
 23 26  1  0
 23 22  1  0
 24 25  1  0
 24 21  1  0
 25 23  2  0
 26 27  1  0
 27 28  2  0
 29 32  1  0
 29 28  1  0
 30 29  2  0
 31 30  1  0
 31 26  2  0
 32 33  1  0
 33 34  1  0
 34 35  2  0
 36 35  1  0
 36 40  1  0
 37 36  2  0
 38 33  2  0
 38 37  1  0
 39 38  1  0
 41 42  1  0
 42 44  1  0
 42 45  1  0
 43 41  2  0
 46 47  1  0
 48 46  1  0
 49 51  1  0
 49  5  1  0
 50 49  1  0
 52 54  1  0
 52 51  1  0
 53 52  2  0
 55 57  1  0
 55 54  1  0
 56 67  2  0
 57 62  1  0
 58 66  1  0
 58 68  1  0
 59 65  1  0
 59 61  1  0
 60 66  1  0
 61 60  1  0
 62 61  2  0
 63 64  1  0
 63 57  2  0
 64 59  2  0
 65 58  1  0
 66 56  1  0
 68 70  2  0
 69 68  1  0
 71 69  1  0
 72 81  2  0
 72 77  1  0
 73 69  1  0
 73 77  1  0
 74 73  1  0
 75 76  1  0
 75 74  1  0
 76 72  1  0
 77 78  2  0
 78 79  1  0
 80 79  2  0
 81 80  1  0
 82 56  1  0
 82 83  1  0
 82 92  1  0
 83 86  1  0
 84 88  1  0
 84 83  1  0
 85 84  2  0
 88 87  1  0
 88 90  1  0
 90 91  1  0
 90 89  1  0
 92 95  1  1
 92 93  1  0
 94 92  1  0
M  ISO  4  12 100  13 100  54 101  55 101
M  END
>  <TORSDO>  (75) 
F 22

>  <SCORE>  (75) 
-8.250

>  <name>  (75) 
74

>  <ligand_id>  (75) 
74

>  <original_smiles>  (75) 
[H]C(C(=O)N1C([H])([H])C([H])([H])C([H])([H])C([H])(n2nc(-c3c([H])c([H])c(Oc4c([H])c([H])c(F)c([H])c4F)c([H])c3[H])c(C(=O)N([H])[H])c2N([H])[H])C1([H])[H])=C([H])c1c([H])c(N([H])[H])c([H])c(N([H])C([H])([H])C(=O)C([H])([H])Oc2c([H])c([H])c3c(c2[H])C([H])([H])N(C(=O)C([H])(N([H])C(=O)C([H])(N([H])C([H])([H])[H])C([H])([H])[H])C(C([H])([H])[H])(C([H])([H])[H])C([H])([H])[H])C([H])(C(=O)N([H])C2([H])c4c([H])c([H])c([H])c([H])c4C([H])([H])C([H])([H])C2([H])[H])C3([H])[H])c1F

>  <smiles>  (75) 
[H]C(C(=O)N1C([H])([H])C([H])([H])C([H])([H])C([H])(n2nc(-c3c([H])c([H])c(Oc4c([H])c([H])c(F)c([H])c4F)c([H])c3[H])c(C(=O)N([H])[H])c2N([H])[H])C1([H])[H])=C([H])c1c([H])c(N([H])[H])c([H])c(N([H])C([H])([H])C(=O)C([H])([H])Oc2c([H])c([H])c3c(c2[H])C([H])([H])N(C(=O)C([H])(N([H])C(=O)C([H])(N([H])C([H])([H])[H])C([H])([H])[H])C(C([H])([H])[H])(C([H])([H])[H])C([H])([H])[H])C([H])(C(=O)N([H])C2([H])c4c([H])c([H])c([H])c([H])c4C([H])([H])C([H])([H])C2([H])[H])C3([H])[H])c1F

$$$$
75:0:0
     RDKit          3D

 92100  0  0  1  0  0  0  0  0999 V2000
  -28.8730  -22.0180   20.3540 C   0  0  0  0  0  0  0  0  0  0  0  0
  -28.2570  -21.9280   21.4140 O   0  0  0  0  0  0  0  0  0  0  0  0
  -29.6540  -19.5300   20.2130 C   0  0  0  0  0  0  0  0  0  0  0  0
  -30.0380  -18.0820   19.4430 C   0  0  0  0  0  0  0  0  0  0  0  0
  -29.6730  -19.3160   21.7470 C   0  0  0  0  0  2  0  0  0  0  0  0
  -29.8620  -17.8900   22.3380 C   0  0  0  0  0  2  0  0  0  0  0  0
  -30.8520  -16.9640   21.6070 C   0  0  0  0  0  2  0  0  0  0  0  0
  -30.3010  -16.5990   20.2230 C   0  0  0  0  0  3  0  0  0  0  0  0
  -30.0910  -18.1200   18.1790 N   0  0  0  0  0  0  0  0  0  0  0  0
  -29.3810  -20.7750   19.6660 N   0  0  0  0  0  0  0  0  0  0  0  0
  -29.8970  -19.0640   17.8580 H   0  0  0  0  0  0  0  0  0  0  0  0
  -31.0460  -15.1900   19.6350 C   0  0  0  0  0  0  0  0  0  0  0  0
  -30.8120  -12.8720   18.5620 C   0  0  0  0  0  2  0  0  0  0  0  0
  -29.7090  -12.8850   17.4750 C   0  0  0  0  0  2  0  0  0  0  0  0
  -28.3180  -12.6410   18.0900 C   0  0  0  0  0  2  0  0  0  0  0  0
  -28.0900  -13.4840   19.3710 C   0  0  0  0  0  3  0  0  0  0  0  0
  -29.2950  -13.4330   20.3310 C   0  0  0  0  0  2  0  0  0  0  0  0
  -30.4710  -13.9090   19.5880 N   0  0  0  0  0  0  0  0  0  0  0  0
  -32.1800  -15.2600   19.1420 O   0  0  0  0  0  0  0  0  0  0  0  0
  -25.8920  -14.0170   20.5630 C   0  0  0  0  0  0  0  0  0  0  0  0
  -24.8590  -13.2290   20.9920 C   0  0  0  0  0  0  0  0  0  0  0  0
  -25.2440  -11.8830   20.7040 C   0  0  0  0  0  0  0  0  0  0  0  0
  -26.8350  -13.1520   20.0370 N   0  0  0  0  0  0  0  0  0  0  0  0
  -26.4660  -11.8530   20.1840 N   0  0  0  0  0  0  0  0  0  0  0  0
  -24.4890  -10.6280   20.8380 C   0  0  0  0  0  0  0  0  0  0  0  0
  -24.9150   -9.5970   21.7030 C   0  0  0  0  0  3  0  0  0  0  0  0
  -24.1610   -8.4100   21.8300 C   0  0  0  0  0  3  0  0  0  0  0  0
  -22.9660   -8.2470   21.0890 C   0  0  0  0  0  0  0  0  0  0  0  0
  -22.5580   -9.2660   20.2100 C   0  0  0  0  0  3  0  0  0  0  0  0
  -23.3130  -10.4440   20.0820 C   0  0  0  0  0  3  0  0  0  0  0  0
  -22.1820   -7.1180   21.1290 O   0  0  0  0  0  0  0  0  0  0  0  0
  -21.9990   -6.4080   22.2890 C   0  0  0  0  0  0  0  0  0  0  0  0
  -21.4570   -7.0040   23.4490 C   0  0  0  0  0  3  0  0  0  0  0  0
  -21.2210   -6.2230   24.5970 C   0  0  0  0  0  3  0  0  0  0  0  0
  -21.5160   -4.8460   24.5850 C   0  0  0  0  0  0  0  0  0  0  0  0
  -22.0510   -4.2500   23.4300 C   0  0  0  0  0  3  0  0  0  0  0  0
  -22.2880   -5.0290   22.2830 C   0  0  0  0  0  0  0  0  0  0  0  0
  -22.7840   -4.4450   21.1660 F   0  0  0  0  0  0  0  0  0  0  0  0
  -21.2820   -4.0930   25.6850 F   0  0  0  0  0  0  0  0  0  0  0  0
  -23.5470  -13.7040   21.5460 C   0  0  0  0  0  0  0  0  0  0  0  0
  -22.9470  -12.9350   22.4470 N   0  0  0  0  0  0  0  0  0  0  0  0
  -23.0710  -14.7900   21.2170 O   0  0  0  0  0  0  0  0  0  0  0  0
  -23.3480  -12.0530   22.7310 H   0  0  0  0  0  0  0  0  0  0  0  0
  -22.0720  -13.2300   22.8580 H   0  0  0  0  0  0  0  0  0  0  0  0
  -26.0970  -15.3940   20.5500 N   0  0  0  0  0  0  0  0  0  0  0  0
  -25.3930  -16.0470   20.8740 H   0  0  0  0  0  0  0  0  0  0  0  0
  -26.8960  -15.8510   20.1320 H   0  0  0  0  0  0  0  0  0  0  0  0
  -28.3970  -24.6780   20.2640 C   0  0  0  0  0  3  0  0  0  0  0  0
  -29.0650  -23.4860   19.8110 C   0  0  0  0  0  0  0  0  0  0  0  0
  -29.9720  -23.6300   18.8370 O   0  0  0  0  0  0  0  0  0  0  0  0
  -29.9940  -24.5520   18.6110 H   0  0  0  0  0  0  0  0  0  0  0  0
  -28.5450  -26.1220   19.9350 O   0  0  0  0  0  0  0  0  0  0  0  0
  -24.8210  -31.8070   23.0100 C   0  0  0  0  0  0  0  0  0  0  0  0
  -27.4680  -27.1030   19.9630 C   0  0  0  0  0  0  0  0  0  0  0  0
  -23.6360  -30.3840   21.3840 C   0  0  0  0  0  3  0  0  0  0  0  0
  -25.1050  -28.8290   19.9500 C   0  0  0  0  0  0  0  0  0  0  0  0
  -26.1860  -30.6910   21.1980 C   0  0  0  0  0  2  0  0  0  0  0  0
  -26.2840  -29.2930   20.5490 C   0  0  0  0  0  0  0  0  0  0  0  0
  -27.4650  -28.4470   20.5350 C   0  0  0  0  0  3  0  0  0  0  0  0
  -26.2590  -26.7510   19.3280 C   0  0  0  0  0  3  0  0  0  0  0  0
  -25.1070  -27.5720   19.3230 C   0  0  0  0  0  3  0  0  0  0  0  0
  -23.8620  -29.7060   20.0050 C   0  0  0  0  0  2  0  0  0  0  0  0
  -24.9020  -30.9850   21.9180 N   0  0  0  0  0  0  0  0  0  0  0  0
  -23.7340  -32.0680   23.5490 O   0  0  0  0  0  0  0  0  0  0  0  0
  -22.9860  -29.3670   22.3560 C   0  0  0  0  0  0  0  0  0  0  0  0
  -21.6540  -29.1990   22.2720 N   0  0  0  0  0  0  0  0  0  0  0  0
  -23.6830  -28.7290   23.1490 O   0  0  0  0  0  0  0  0  0  0  0  0
  -21.1460  -29.7640   21.6060 H   0  0  0  0  0  0  0  0  0  0  0  0
  -18.2890  -27.9950   22.8830 C   0  0  0  0  0  0  0  0  0  0  0  0
  -20.8580  -28.2500   23.0570 C   0  0  0  0  0  3  0  0  0  0  0  0
  -20.9330  -26.8280   22.4530 C   0  0  0  0  0  2  0  0  0  0  0  0
  -19.7940  -26.5250   21.4760 C   0  0  0  0  0  2  0  0  0  0  0  0
  -18.4380  -26.6590   22.1740 C   0  0  0  0  0  2  0  0  0  0  0  0
  -19.4250  -28.7490   23.2830 C   0  0  0  0  0  0  0  0  0  0  0  0
  -19.2290  -29.9990   23.9100 C   0  0  0  0  0  3  0  0  0  0  0  0
  -17.9320  -30.4960   24.1380 C   0  0  0  0  0  3  0  0  0  0  0  0
  -16.8120  -29.7400   23.7520 C   0  0  0  0  0  3  0  0  0  0  0  0
  -16.9910  -28.4910   23.1310 C   0  0  0  0  0  3  0  0  0  0  0  0
  -26.0890  -32.4730   23.6250 C   0  0  0  0  0  3  0  0  0  0  0  0
  -26.6800  -31.6680   24.8490 C   0  0  1  0  0  0  0  0  0  0  0  0
  -25.6320  -31.3270   25.9350 C   0  0  0  0  0  1  0  0  0  0  0  0
  -27.3160  -30.3410   24.3790 C   0  0  0  0  0  1  0  0  0  0  0  0
  -27.8110  -32.4860   25.5150 C   0  0  0  0  0  1  0  0  0  0  0  0
  -25.7240  -33.8380   24.0410 N   0  0  0  0  0  0  0  0  0  0  0  0
  -25.9830  -34.9480   23.3370 C   0  0  0  0  0  0  0  0  0  0  0  0
  -26.6210  -34.9340   22.2820 O   0  0  0  0  0  0  0  0  0  0  0  0
  -25.1510  -33.9180   24.8680 H   0  0  0  0  0  0  0  0  0  0  0  0
  -24.1700  -36.6840   23.1470 C   0  0  0  0  0  1  0  0  0  0  0  0
  -25.4550  -36.2860   23.8930 C   0  0  0  0  0  3  0  0  0  0  0  0
  -27.5750  -37.2200   24.7080 C   0  0  0  0  0  1  0  0  0  0  0  0
  -26.4370  -37.3890   23.8080 N   0  0  0  0  0  0  0  0  0  0  0  0
  -25.9970  -38.2810   24.0180 H   0  0  0  0  0  0  0  0  0  0  0  0
  1  2  2  0
  3  5  1  0
  4  3  1  0
  4  8  1  0
  5  6  1  0
  7  6  1  0
  8 12  1  0
  8  7  1  0
  9  4  2  0
 10  3  2  0
 10  1  1  0
 11  9  1  0
 13 18  1  0
 14 15  1  0
 14 13  1  0
 16 15  1  0
 16 23  1  0
 16 17  1  0
 18 12  1  0
 18 17  1  0
 19 12  2  0
 20 21  2  0
 21 40  1  0
 22 25  1  0
 22 21  1  0
 23 24  1  0
 23 20  1  0
 24 22  2  0
 25 26  1  0
 26 27  2  0
 28 31  1  0
 28 27  1  0
 29 28  2  0
 30 29  1  0
 30 25  2  0
 31 32  1  0
 32 33  1  0
 33 34  2  0
 35 34  1  0
 35 39  1  0
 36 35  2  0
 37 32  2  0
 37 36  1  0
 38 37  1  0
 40 41  1  0
 41 43  1  0
 41 44  1  0
 42 40  2  0
 45 20  1  0
 45 46  1  0
 47 45  1  0
 49 48  2  0
 49  1  1  0
 50 49  1  0
 51 50  1  0
 52 54  1  0
 52 48  1  0
 53 64  2  0
 54 59  1  0
 55 63  1  0
 55 65  1  0
 56 62  1  0
 56 58  1  0
 57 63  1  0
 58 57  1  0
 59 58  2  0
 60 54  2  0
 61 60  1  0
 61 56  2  0
 62 55  1  0
 63 53  1  0
 65 67  2  0
 66 65  1  0
 68 66  1  0
 69 78  2  0
 69 74  1  0
 70 66  1  0
 70 74  1  0
 71 70  1  0
 72 73  1  0
 72 71  1  0
 73 69  1  0
 74 75  2  0
 75 76  1  0
 77 76  2  0
 78 77  1  0
 79 53  1  0
 79 84  1  0
 79 80  1  0
 80 83  1  1
 80 81  1  0
 82 80  1  0
 84 87  1  0
 85 89  1  0
 85 84  1  0
 86 85  2  0
 89 88  1  0
 91 89  1  0
 91 92  1  0
 91 90  1  0
M  ISO  4   8 100  12 100  48 101  52 101
M  END
>  <TORSDO>  (76) 
F 19

>  <SCORE>  (76) 
-11.778

>  <name>  (76) 
75

>  <ligand_id>  (76) 
75

>  <original_smiles>  (76) 
[H]N=C1C(=NC(=O)C(O[H])=C([H])Oc2c([H])c([H])c3c(c2[H])C([H])([H])N(C(=O)C([H])(N([H])C(=O)C([H])(N([H])C([H])([H])[H])C([H])([H])[H])C(C([H])([H])[H])(C([H])([H])[H])C([H])([H])[H])C([H])(C(=O)N([H])C2([H])c4c([H])c([H])c([H])c([H])c4C([H])([H])C([H])([H])C2([H])[H])C3([H])[H])C([H])([H])C([H])([H])C([H])([H])C1([H])C(=O)N1C([H])([H])C([H])([H])C([H])([H])C([H])(n2nc(-c3c([H])c([H])c(Oc4c([H])c([H])c(F)c([H])c4F)c([H])c3[H])c(C(=O)N([H])[H])c2N([H])[H])C1([H])[H]

>  <smiles>  (76) 
[H]N=C1C(=NC(=O)C(O[H])=C([H])Oc2c([H])c([H])c3c(c2[H])C([H])([H])N(C(=O)C([H])(N([H])C(=O)C([H])(N([H])C([H])([H])[H])C([H])([H])[H])C(C([H])([H])[H])(C([H])([H])[H])C([H])([H])[H])C([H])(C(=O)N([H])C2([H])c4c([H])c([H])c([H])c([H])c4C([H])([H])C([H])([H])C2([H])[H])C3([H])[H])C([H])([H])C([H])([H])C([H])([H])C1([H])C(=O)N1C([H])([H])C([H])([H])C([H])([H])C([H])(n2nc(-c3c([H])c([H])c(Oc4c([H])c([H])c(F)c([H])c4F)c([H])c3[H])c(C(=O)N([H])[H])c2N([H])[H])C1([H])[H]

$$$$
76:0:0
     RDKit          3D

 95104  0  0  1  0  0  0  0  0999 V2000
  -28.8330  -22.3940   20.3480 C   0  0  0  0  0  3  0  0  0  0  0  0
  -28.8850  -23.7640   20.5890 C   0  0  0  0  0  0  0  0  0  0  0  0
  -30.3160  -21.7270   22.1190 C   0  0  0  0  0  0  0  0  0  0  0  0
  -29.7990  -24.2410   21.6930 C   0  0  0  0  0  2  0  0  0  0  0  0
  -30.0600  -23.1230   22.7280 C   0  0  0  0  0  2  0  0  0  0  0  0
  -29.5600  -21.3320   21.0550 N   0  0  0  0  0  0  0  0  0  0  0  0
  -31.1970  -21.0300   22.6360 O   0  0  0  0  0  0  0  0  0  0  0  0
  -29.5230  -19.6970   19.1770 C   0  0  0  0  0  3  0  0  0  0  0  0
  -29.5800  -18.4080   18.6130 C   0  0  0  0  0  3  0  0  0  0  0  0
  -29.7920  -18.6820   21.3630 C   0  0  0  0  0  3  0  0  0  0  0  0
  -29.6140  -19.9070   20.5690 C   0  0  0  0  0  0  0  0  0  0  0  0
  -29.8870  -17.3330   20.8030 C   0  0  0  0  0  0  0  0  0  0  0  0
  -29.7470  -17.2340   19.3920 C   0  0  0  0  0  0  0  0  0  0  0  0
  -30.7750  -14.9500   21.4230 C   0  0  0  0  0  0  0  0  0  0  0  0
  -30.8260  -12.5660   20.6610 C   0  0  0  0  0  2  0  0  0  0  0  0
  -30.1170  -12.4890   19.2900 C   0  0  0  0  0  2  0  0  0  0  0  0
  -28.5940  -12.3230   19.4620 C   0  0  0  0  0  2  0  0  0  0  0  0
  -27.9970  -13.2840   20.5260 C   0  0  0  0  0  3  0  0  0  0  0  0
  -28.8510  -13.3240   21.8130 C   0  0  0  0  0  2  0  0  0  0  0  0
  -30.2200  -13.6850   21.4200 N   0  0  0  0  0  0  0  0  0  0  0  0
  -31.9830  -15.0810   21.1990 O   0  0  0  0  0  0  0  0  0  0  0  0
  -29.9500  -16.0600   21.5810 N   0  0  0  0  0  0  0  0  0  0  0  0
  -29.0710  -15.8180   22.0140 H   0  0  0  0  0  0  0  0  0  0  0  0
  -25.5130  -13.8400   20.8570 C   0  0  0  0  0  0  0  0  0  0  0  0
  -24.4150  -13.0540   21.0820 C   0  0  0  0  0  0  0  0  0  0  0  0
  -24.9010  -11.7140   21.1630 C   0  0  0  0  0  0  0  0  0  0  0  0
  -26.5960  -12.9780   20.8080 N   0  0  0  0  0  0  0  0  0  0  0  0
  -26.2240  -11.6960   21.0530 N   0  0  0  0  0  0  0  0  0  0  0  0
  -24.1740  -10.4420   21.2770 C   0  0  0  0  0  0  0  0  0  0  0  0
  -24.5120   -9.4840   22.2580 C   0  0  0  0  0  3  0  0  0  0  0  0
  -23.7840   -8.2790   22.3630 C   0  0  0  0  0  3  0  0  0  0  0  0
  -22.7020   -8.0220   21.4870 C   0  0  0  0  0  0  0  0  0  0  0  0
  -22.3850   -8.9700   20.4980 C   0  0  0  0  0  3  0  0  0  0  0  0
  -23.1140  -10.1670   20.3900 C   0  0  0  0  0  3  0  0  0  0  0  0
  -21.9570   -6.8690   21.5010 O   0  0  0  0  0  0  0  0  0  0  0  0
  -21.8290   -6.1060   22.6350 C   0  0  0  0  0  0  0  0  0  0  0  0
  -21.3230   -6.6390   23.8410 C   0  0  0  0  0  3  0  0  0  0  0  0
  -21.1430   -5.8010   24.9590 C   0  0  0  0  0  3  0  0  0  0  0  0
  -21.4590   -4.4320   24.8750 C   0  0  0  0  0  0  0  0  0  0  0  0
  -21.9600   -3.9010   23.6750 C   0  0  0  0  0  3  0  0  0  0  0  0
  -22.1410   -4.7340   22.5560 C   0  0  0  0  0  0  0  0  0  0  0  0
  -22.6010   -4.2090   21.3950 F   0  0  0  0  0  0  0  0  0  0  0  0
  -21.2820   -3.6260   25.9480 F   0  0  0  0  0  0  0  0  0  0  0  0
  -22.9850  -13.5080   21.1230 C   0  0  0  0  0  0  0  0  0  0  0  0
  -22.1490  -12.8310   21.9020 N   0  0  0  0  0  0  0  0  0  0  0  0
  -22.6130  -14.5020   20.5000 O   0  0  0  0  0  0  0  0  0  0  0  0
  -22.4610  -12.0240   22.4260 H   0  0  0  0  0  0  0  0  0  0  0  0
  -21.1830  -13.1200   21.9760 H   0  0  0  0  0  0  0  0  0  0  0  0
  -25.6750  -15.2100   20.6740 N   0  0  0  0  0  0  0  0  0  0  0  0
  -24.8890  -15.8500   20.6880 H   0  0  0  0  0  0  0  0  0  0  0  0
  -26.5590  -15.6710   20.5010 H   0  0  0  0  0  0  0  0  0  0  0  0
  -29.4810  -15.8490   17.4350 C   0  0  0  0  0  1  0  0  0  0  0  0
  -29.7330  -15.9720   18.8310 O   0  0  0  0  0  0  0  0  0  0  0  0
  -28.0110  -24.8820   19.8580 C   0  0  0  0  0  2  0  0  0  0  0  0
  -28.2930  -26.3640   19.9670 O   0  0  0  0  0  0  0  0  0  0  0  0
  -24.5310  -31.7950   23.0120 C   0  0  0  0  0  0  0  0  0  0  0  0
  -27.1920  -27.2620   19.9010 C   0  0  0  0  0  0  0  0  0  0  0  0
  -23.3380  -30.3750   21.3850 C   0  0  0  0  0  3  0  0  0  0  0  0
  -24.8030  -28.8720   19.9230 C   0  0  0  0  0  0  0  0  0  0  0  0
  -25.8720  -30.7430   21.1700 C   0  0  0  0  0  2  0  0  0  0  0  0
  -25.9750  -29.3670   20.5110 C   0  0  0  0  0  0  0  0  0  0  0  0
  -27.1710  -28.5750   20.4880 C   0  0  0  0  0  3  0  0  0  0  0  0
  -25.9950  -26.8520   19.2660 C   0  0  0  0  0  3  0  0  0  0  0  0
  -24.8210  -27.6260   19.2850 C   0  0  0  0  0  3  0  0  0  0  0  0
  -23.5470  -29.7180   19.9970 C   0  0  0  0  0  2  0  0  0  0  0  0
  -24.6000  -30.9880   21.9120 N   0  0  0  0  0  0  0  0  0  0  0  0
  -23.4480  -32.0440   23.5610 O   0  0  0  0  0  0  0  0  0  0  0  0
  -22.7160  -29.3380   22.3510 C   0  0  0  0  0  0  0  0  0  0  0  0
  -21.3930  -29.1230   22.2420 N   0  0  0  0  0  0  0  0  0  0  0  0
  -23.4200  -28.7270   23.1590 O   0  0  0  0  0  0  0  0  0  0  0  0
  -20.8810  -29.6690   21.5630 H   0  0  0  0  0  0  0  0  0  0  0  0
  -18.0600  -27.8130   22.7680 C   0  0  0  0  0  0  0  0  0  0  0  0
  -20.6100  -28.1620   23.0210 C   0  0  0  0  0  3  0  0  0  0  0  0
  -20.7570  -26.7320   22.4520 C   0  0  0  0  0  2  0  0  0  0  0  0
  -19.6600  -26.3670   21.4460 C   0  0  0  0  0  2  0  0  0  0  0  0
  -18.2770  -26.4680   22.0970 C   0  0  0  0  0  2  0  0  0  0  0  0
  -19.1550  -28.6160   23.1880 C   0  0  0  0  0  0  0  0  0  0  0  0
  -18.8940  -29.8720   23.7770 C   0  0  0  0  0  3  0  0  0  0  0  0
  -17.5740  -30.3280   23.9500 C   0  0  0  0  0  3  0  0  0  0  0  0
  -16.4940  -29.5240   23.5450 C   0  0  0  0  0  3  0  0  0  0  0  0
  -16.7390  -28.2680   22.9600 C   0  0  0  0  0  3  0  0  0  0  0  0
  -25.8050  -32.4600   23.6160 C   0  0  0  0  0  3  0  0  0  0  0  0
  -26.3910  -31.6690   24.8510 C   0  0  1  0  0  0  0  0  0  0  0  0
  -25.3430  -31.3590   25.9440 C   0  0  0  0  0  1  0  0  0  0  0  0
  -27.0090  -30.3260   24.4000 C   0  0  0  0  0  1  0  0  0  0  0  0
  -27.5320  -32.4860   25.5020 C   0  0  0  0  0  1  0  0  0  0  0  0
  -25.4470  -33.8320   24.0060 N   0  0  0  0  0  0  0  0  0  0  0  0
  -25.7530  -34.9290   23.2990 C   0  0  0  0  0  0  0  0  0  0  0  0
  -26.4340  -34.8950   22.2710 O   0  0  0  0  0  0  0  0  0  0  0  0
  -24.8420  -33.9310   24.8060 H   0  0  0  0  0  0  0  0  0  0  0  0
  -23.9760  -36.6870   23.0100 C   0  0  0  0  0  1  0  0  0  0  0  0
  -25.2180  -36.2780   23.8180 C   0  0  0  0  0  3  0  0  0  0  0  0
  -27.3190  -37.1800   24.7160 C   0  0  0  0  0  1  0  0  0  0  0  0
  -26.2200  -37.3660   23.7720 N   0  0  0  0  0  0  0  0  0  0  0  0
  -25.7850  -38.2630   23.9670 H   0  0  0  0  0  0  0  0  0  0  0  0
  1  2  2  0
  1  6  1  0
  2  4  1  0
  3  7  2  0
  3  5  1  0
  4  5  1  0
  6  3  1  0
  8 11  1  0
  9  8  2  0
  9 13  1  0
 11  6  1  0
 11 10  2  0
 12 10  1  0
 12 22  1  0
 13 12  2  0
 14 22  1  0
 15 20  1  0
 16 17  1  0
 16 15  1  0
 18 17  1  0
 18 27  1  0
 18 19  1  0
 20 14  1  0
 20 19  1  0
 21 14  2  0
 22 23  1  0
 24 25  2  0
 25 44  1  0
 25 26  1  0
 26 29  1  0
 27 24  1  0
 27 28  1  0
 28 26  2  0
 29 30  1  0
 30 31  2  0
 32 35  1  0
 32 31  1  0
 33 32  2  0
 34 33  1  0
 34 29  2  0
 35 36  1  0
 36 37  1  0
 37 38  2  0
 39 38  1  0
 39 43  1  0
 40 39  2  0
 41 36  2  0
 41 40  1  0
 42 41  1  0
 44 45  1  0
 45 48  1  0
 45 47  1  0
 46 44  2  0
 49 50  1  0
 49 24  1  0
 51 49  1  0
 52 53  1  0
 53 13  1  0
 54 55  1  0
 54  2  1  0
 56 67  2  0
 57 55  1  0
 57 62  1  0
 58 66  1  0
 58 68  1  0
 59 65  1  0
 59 61  1  0
 60 66  1  0
 61 60  1  0
 62 61  2  0
 63 64  1  0
 63 57  2  0
 64 59  2  0
 65 58  1  0
 66 56  1  0
 68 70  2  0
 69 68  1  0
 71 69  1  0
 72 81  2  0
 72 77  1  0
 73 69  1  0
 73 77  1  0
 74 73  1  0
 75 76  1  0
 75 74  1  0
 76 72  1  0
 77 78  2  0
 78 79  1  0
 80 79  2  0
 81 80  1  0
 82 56  1  0
 82 87  1  0
 82 83  1  0
 83 86  1  1
 83 84  1  0
 85 83  1  0
 87 90  1  0
 88 92  1  0
 88 87  1  0
 89 88  2  0
 92 91  1  0
 94 92  1  0
 94 95  1  0
 94 93  1  0
M  ISO  4  14 100  22 100  54 101  55 101
M  END
>  <TORSDO>  (77) 
F 19

>  <SCORE>  (77) 
-10.836

>  <name>  (77) 
76

>  <ligand_id>  (77) 
76

>  <original_smiles>  (77) 
[H]C1=C(C([H])([H])Oc2c([H])c([H])c3c(c2[H])C([H])([H])N(C(=O)C([H])(N([H])C(=O)C([H])(N([H])C([H])([H])[H])C([H])([H])[H])C(C([H])([H])[H])(C([H])([H])[H])C([H])([H])[H])C([H])(C(=O)N([H])C2([H])c4c([H])c([H])c([H])c([H])c4C([H])([H])C([H])([H])C2([H])[H])C3([H])[H])C([H])([H])C([H])([H])C(=O)N1c1c([H])c([H])c(OC([H])([H])[H])c(N([H])C(=O)N2C([H])([H])C([H])([H])C([H])([H])C([H])(n3nc(-c4c([H])c([H])c(Oc5c([H])c([H])c(F)c([H])c5F)c([H])c4[H])c(C(=O)N([H])[H])c3N([H])[H])C2([H])[H])c1[H]

>  <smiles>  (77) 
[H]C1=C(C([H])([H])Oc2c([H])c([H])c3c(c2[H])C([H])([H])N(C(=O)C([H])(N([H])C(=O)C([H])(N([H])C([H])([H])[H])C([H])([H])[H])C(C([H])([H])[H])(C([H])([H])[H])C([H])([H])[H])C([H])(C(=O)N([H])C2([H])c4c([H])c([H])c([H])c([H])c4C([H])([H])C([H])([H])C2([H])[H])C3([H])[H])C([H])([H])C([H])([H])C(=O)N1c1c([H])c([H])c(OC([H])([H])[H])c(N([H])C(=O)N2C([H])([H])C([H])([H])C([H])([H])C([H])(n3nc(-c4c([H])c([H])c(Oc5c([H])c([H])c(F)c([H])c5F)c([H])c4[H])c(C(=O)N([H])[H])c3N([H])[H])C2([H])[H])c1[H]

$$$$
77:0:0
     RDKit          3D

 87 95  0  0  1  0  0  0  0  0999 V2000
  -28.7820  -19.8520   20.3670 C   0  0  0  0  0  3  0  0  0  0  0  0
  -30.5740  -21.3850   20.1690 C   0  0  0  0  0  3  0  0  0  0  0  0
  -31.0130  -19.0090   20.1650 C   0  0  0  0  0  3  0  0  0  0  0  0
  -29.1670  -21.3860   20.3040 C   0  0  0  0  0  0  0  0  0  0  0  0
  -29.6870  -18.5510   20.3020 C   0  0  0  0  0  0  0  0  0  0  0  0
  -31.4150  -20.3100   20.1060 N   0  0  0  0  0  0  0  0  0  0  0  0
  -30.2870  -15.5770   20.2290 C   0  0  0  0  0  0  0  0  0  0  0  0
  -30.3480  -13.0830   19.3540 C   0  0  0  0  0  2  0  0  0  0  0  0
  -29.4250  -12.7720   18.1440 C   0  0  0  0  0  2  0  0  0  0  0  0
  -27.9980  -12.4380   18.6110 C   0  0  0  0  0  2  0  0  0  0  0  0
  -27.5250  -13.4060   19.7230 C   0  0  0  0  0  3  0  0  0  0  0  0
  -28.5810  -13.6380   20.8270 C   0  0  0  0  0  2  0  0  0  0  0  0
  -29.7620  -14.2300   20.1670 N   0  0  0  0  0  0  0  0  0  0  0  0
  -31.5100  -15.5640   20.0030 O   0  0  0  0  0  0  0  0  0  0  0  0
  -29.4960  -16.8810   20.3480 N   0  0  0  0  0  0  0  0  0  0  0  0
  -28.5260  -16.6360   20.4850 H   0  0  0  0  0  0  0  0  0  0  0  0
  -25.1690  -13.9170   20.5310 C   0  0  0  0  0  0  0  0  0  0  0  0
  -24.1230  -13.1230   20.9070 C   0  0  0  0  0  0  0  0  0  0  0  0
  -24.6040  -11.7790   20.8500 C   0  0  0  0  0  0  0  0  0  0  0  0
  -26.2160  -13.0580   20.2560 N   0  0  0  0  0  0  0  0  0  0  0  0
  -25.8910  -11.7640   20.5160 N   0  0  0  0  0  0  0  0  0  0  0  0
  -23.8910  -10.5070   21.0320 C   0  0  0  0  0  0  0  0  0  0  0  0
  -24.3290   -9.5400   21.9630 C   0  0  0  0  0  3  0  0  0  0  0  0
  -23.6120   -8.3360   22.1370 C   0  0  0  0  0  3  0  0  0  0  0  0
  -22.4420   -8.0910   21.3790 C   0  0  0  0  0  0  0  0  0  0  0  0
  -22.0230   -9.0470   20.4370 C   0  0  0  0  0  3  0  0  0  0  0  0
  -22.7410  -10.2420   20.2620 C   0  0  0  0  0  3  0  0  0  0  0  0
  -21.6970   -6.9410   21.4630 O   0  0  0  0  0  0  0  0  0  0  0  0
  -21.6290   -6.2080   22.6210 C   0  0  0  0  0  0  0  0  0  0  0  0
  -21.1380   -6.7600   23.8240 C   0  0  0  0  0  3  0  0  0  0  0  0
  -21.0210   -5.9520   24.9730 C   0  0  0  0  0  3  0  0  0  0  0  0
  -21.3850   -4.5940   24.9200 C   0  0  0  0  0  0  0  0  0  0  0  0
  -21.8700   -4.0410   23.7210 C   0  0  0  0  0  3  0  0  0  0  0  0
  -21.9880   -4.8460   22.5750 C   0  0  0  0  0  0  0  0  0  0  0  0
  -22.4350   -4.3020   21.4170 F   0  0  0  0  0  0  0  0  0  0  0  0
  -21.2660   -3.8160   26.0220 F   0  0  0  0  0  0  0  0  0  0  0  0
  -22.7250  -13.5830   21.1990 C   0  0  0  0  0  0  0  0  0  0  0  0
  -22.0180  -12.8770   22.0720 N   0  0  0  0  0  0  0  0  0  0  0  0
  -22.2700  -14.6060   20.6870 O   0  0  0  0  0  0  0  0  0  0  0  0
  -22.4000  -12.0500   22.5070 H   0  0  0  0  0  0  0  0  0  0  0  0
  -21.0810  -13.1680   22.3110 H   0  0  0  0  0  0  0  0  0  0  0  0
  -25.3110  -15.2910   20.3660 N   0  0  0  0  0  0  0  0  0  0  0  0
  -24.5320  -15.9300   20.4900 H   0  0  0  0  0  0  0  0  0  0  0  0
  -26.1310  -15.7410   19.9790 H   0  0  0  0  0  0  0  0  0  0  0  0
  -28.5040  -22.9620   20.3410 C   0  0  0  0  0  0  0  0  0  0  0  0
  -28.2270  -24.2600   20.3460 C   0  0  0  0  0  0  0  0  0  0  0  0
  -28.1870  -25.7500   20.3430 O   0  0  0  0  0  0  0  0  0  0  0  0
  -24.6290  -31.9200   23.2610 C   0  0  0  0  0  0  0  0  0  0  0  0
  -27.1590  -26.8810   20.3230 C   0  0  0  0  0  0  0  0  0  0  0  0
  -23.4390  -30.5140   21.6290 C   0  0  0  0  0  3  0  0  0  0  0  0
  -24.8850  -28.8600   20.2370 C   0  0  0  0  0  0  0  0  0  0  0  0
  -26.0130  -30.6680   21.5110 C   0  0  0  0  0  2  0  0  0  0  0  0
  -26.0740  -29.2370   20.8740 C   0  0  0  0  0  0  0  0  0  0  0  0
  -27.1950  -28.2690   20.8910 C   0  0  0  0  0  3  0  0  0  0  0  0
  -25.9430  -26.6930   19.6220 C   0  0  0  0  0  3  0  0  0  0  0  0
  -24.8530  -27.6120   19.5910 C   0  0  0  0  0  3  0  0  0  0  0  0
  -23.6790  -29.8070   20.2640 C   0  0  0  0  0  2  0  0  0  0  0  0
  -24.7170  -31.0660   22.1860 N   0  0  0  0  0  0  0  0  0  0  0  0
  -23.5370  -32.2260   23.7680 O   0  0  0  0  0  0  0  0  0  0  0  0
  -22.7230  -29.5420   22.6030 C   0  0  0  0  0  0  0  0  0  0  0  0
  -21.3930  -29.3830   22.4680 N   0  0  0  0  0  0  0  0  0  0  0  0
  -23.3750  -28.9280   23.4520 O   0  0  0  0  0  0  0  0  0  0  0  0
  -20.9180  -29.9280   21.7630 H   0  0  0  0  0  0  0  0  0  0  0  0
  -18.0030  -28.1780   22.9610 C   0  0  0  0  0  0  0  0  0  0  0  0
  -20.5600  -28.4570   23.2440 C   0  0  0  0  0  3  0  0  0  0  0  0
  -20.6690  -27.0170   22.6910 C   0  0  0  0  0  2  0  0  0  0  0  0
  -19.5790  -26.6770   21.6700 C   0  0  0  0  0  2  0  0  0  0  0  0
  -18.1900  -26.8230   22.2990 C   0  0  0  0  0  2  0  0  0  0  0  0
  -19.1140  -28.9510   23.3900 C   0  0  0  0  0  0  0  0  0  0  0  0
  -18.8820  -30.2160   23.9740 C   0  0  0  0  0  3  0  0  0  0  0  0
  -17.5730  -30.7090   24.1280 C   0  0  0  0  0  3  0  0  0  0  0  0
  -16.4760  -29.9350   23.7130 C   0  0  0  0  0  3  0  0  0  0  0  0
  -16.6920  -28.6710   23.1360 C   0  0  0  0  0  3  0  0  0  0  0  0
  -25.8960  -32.5670   23.8990 C   0  0  0  0  0  3  0  0  0  0  0  0
  -25.5820  -33.9720   24.2180 N   0  0  0  0  0  0  0  0  0  0  0  0
  -25.9050  -35.0270   23.4570 C   0  0  0  0  0  0  0  0  0  0  0  0
  -26.5580  -34.9190   22.4170 O   0  0  0  0  0  0  0  0  0  0  0  0
  -24.9970  -34.1280   25.0260 H   0  0  0  0  0  0  0  0  0  0  0  0
  -24.1660  -36.8250   23.1460 C   0  0  0  0  0  1  0  0  0  0  0  0
  -25.4310  -36.4210   23.9220 C   0  0  0  0  0  3  0  0  0  0  0  0
  -27.5850  -37.3220   24.6880 C   0  0  0  0  0  1  0  0  0  0  0  0
  -26.4590  -37.4750   23.7700 N   0  0  0  0  0  0  0  0  0  0  0  0
  -26.0550  -38.3960   23.9160 H   0  0  0  0  0  0  0  0  0  0  0  0
  -26.3840  -31.8160   25.2010 C   0  0  1  0  0  0  0  0  0  0  0  0
  -25.2710  -31.6080   26.2550 C   0  0  0  0  0  1  0  0  0  0  0  0
  -26.9640  -30.4270   24.8560 C   0  0  0  0  0  1  0  0  0  0  0  0
  -27.5280  -32.6160   25.8670 C   0  0  0  0  0  1  0  0  0  0  0  0
  2  4  2  0
  3  5  1  0
  4 45  1  0
  4  1  1  0
  5 15  1  0
  5  1  2  0
  6  3  2  0
  6  2  1  0
  7 15  1  0
  8 13  1  0
  9 10  1  0
  9  8  1  0
 11 10  1  0
 11 20  1  0
 11 12  1  0
 13  7  1  0
 13 12  1  0
 14  7  2  0
 15 16  1  0
 17 18  2  0
 18 37  1  0
 19 18  1  0
 19 22  1  0
 20 21  1  0
 20 17  1  0
 21 19  2  0
 22 23  1  0
 23 24  2  0
 25 28  1  0
 25 24  1  0
 26 25  2  0
 27 26  1  0
 27 22  2  0
 28 29  1  0
 29 30  1  0
 30 31  2  0
 32 31  1  0
 32 36  1  0
 33 32  2  0
 34 29  2  0
 34 33  1  0
 35 34  1  0
 37 38  1  0
 38 41  1  0
 38 40  1  0
 39 37  2  0
 42 43  1  0
 42 17  1  0
 44 42  1  0
 45 46  3  0
 47 46  1  0
 48 59  2  0
 49 47  1  0
 49 54  1  0
 50 58  1  0
 50 60  1  0
 51 57  1  0
 51 53  1  0
 52 58  1  0
 53 54  2  0
 53 52  1  0
 55 49  2  0
 56 55  1  0
 56 51  2  0
 57 50  1  0
 58 48  1  0
 60 62  2  0
 61 60  1  0
 63 61  1  0
 64 73  2  0
 64 69  1  0
 65 61  1  0
 65 69  1  0
 66 65  1  0
 67 68  1  0
 67 66  1  0
 68 64  1  0
 69 70  2  0
 70 71  1  0
 72 71  2  0
 73 72  1  0
 74 48  1  0
 74 75  1  0
 74 84  1  0
 75 78  1  0
 76 80  1  0
 76 75  1  0
 77 76  2  0
 80 79  1  0
 82 83  1  0
 82 80  1  0
 82 81  1  0
 84 87  1  1
 84 85  1  0
 86 84  1  0
M  ISO  4   7 100  15 100  46 101  47 101
M  END
>  <TORSDO>  (78) 
F 17

>  <SCORE>  (78) 
-15.857

>  <name>  (78) 
77

>  <ligand_id>  (78) 
77

>  <original_smiles>  (78) 
[H]c1nc([H])c(N([H])C(=O)N2C([H])([H])C([H])([H])C([H])([H])C([H])(n3nc(-c4c([H])c([H])c(Oc5c([H])c([H])c(F)c([H])c5F)c([H])c4[H])c(C(=O)N([H])[H])c3N([H])[H])C2([H])[H])c([H])c1C#COc1c([H])c([H])c2c(c1[H])C([H])([H])N(C(=O)C([H])(N([H])C(=O)C([H])(N([H])C([H])([H])[H])C([H])([H])[H])C(C([H])([H])[H])(C([H])([H])[H])C([H])([H])[H])C([H])(C(=O)N([H])C1([H])c3c([H])c([H])c([H])c([H])c3C([H])([H])C([H])([H])C1([H])[H])C2([H])[H]

>  <smiles>  (78) 
[H]c1nc([H])c(N([H])C(=O)N2C([H])([H])C([H])([H])C([H])([H])C([H])(n3nc(-c4c([H])c([H])c(Oc5c([H])c([H])c(F)c([H])c5F)c([H])c4[H])c(C(=O)N([H])[H])c3N([H])[H])C2([H])[H])c([H])c1C#COc1c([H])c([H])c2c(c1[H])C([H])([H])N(C(=O)C([H])(N([H])C(=O)C([H])(N([H])C([H])([H])[H])C([H])([H])[H])C(C([H])([H])[H])(C([H])([H])[H])C([H])([H])[H])C([H])(C(=O)N([H])C1([H])c3c([H])c([H])c([H])c([H])c3C([H])([H])C([H])([H])C1([H])[H])C2([H])[H]

$$$$
78:0:0
     RDKit          3D

 97106  0  0  1  0  0  0  0  0999 V2000
  -27.1000  -23.6430   18.9900 C   0  0  0  0  0  3  0  0  0  0  0  0
  -28.3150  -24.2940   19.3680 C   0  0  0  0  0  0  0  0  0  0  0  0
  -27.1850  -22.3250   19.3310 C   0  0  0  0  0  0  0  0  0  0  0  0
  -29.0680  -23.3020   19.9700 C   0  0  0  0  0  0  0  0  0  0  0  0
  -28.4100  -22.0640   19.9270 N   0  0  0  0  0  0  0  0  0  0  0  0
  -28.4860  -18.5570   21.3440 C   0  0  0  0  0  3  0  0  0  0  0  0
  -30.5190  -18.9380   20.0800 C   0  0  0  0  0  3  0  0  0  0  0  0
  -28.0910  -19.8950   21.1030 C   0  0  0  0  0  3  0  0  0  0  0  0
  -30.1210  -20.2750   19.8340 C   0  0  0  0  0  3  0  0  0  0  0  0
  -29.6870  -18.0450   20.7990 C   0  0  0  0  0  0  0  0  0  0  0  0
  -28.8860  -20.7650   20.3160 C   0  0  0  0  0  0  0  0  0  0  0  0
  -30.8670  -14.6530   19.8330 C   0  0  0  0  0  0  0  0  0  0  0  0
  -30.5120  -12.4530   18.7720 C   0  0  0  0  0  2  0  0  0  0  0  0
  -29.4800  -12.5890   17.6340 C   0  0  0  0  0  2  0  0  0  0  0  0
  -28.0400  -12.4790   18.1770 C   0  0  0  0  0  2  0  0  0  0  0  0
  -27.7880  -13.3310   19.4520 C   0  0  0  0  0  3  0  0  0  0  0  0
  -28.9330  -13.1670   20.4780 C   0  0  0  0  0  2  0  0  0  0  0  0
  -30.1920  -13.4690   19.7880 N   0  0  0  0  0  0  0  0  0  0  0  0
  -32.0230  -14.7590   19.4130 O   0  0  0  0  0  0  0  0  0  0  0  0
  -30.0720  -16.5820   20.9860 C   0  0  0  0  0  0  0  0  0  0  0  0
  -29.6860  -16.3100   18.5730 C   0  0  0  0  0  1  0  0  0  0  0  0
  -30.0900  -15.7700   19.8870 N   0  0  0  0  0  0  0  0  0  0  0  0
  -30.3300  -16.1890   22.1300 O   0  0  0  0  0  0  0  0  0  0  0  0
  -25.4950  -13.9270   20.4480 C   0  0  0  0  0  0  0  0  0  0  0  0
  -24.4420  -13.1490   20.8490 C   0  0  0  0  0  0  0  0  0  0  0  0
  -24.8570  -11.7950   20.6590 C   0  0  0  0  0  0  0  0  0  0  0  0
  -26.4840  -13.0450   20.0420 N   0  0  0  0  0  0  0  0  0  0  0  0
  -26.1100  -11.7530   20.2290 N   0  0  0  0  0  0  0  0  0  0  0  0
  -24.1110  -10.5380   20.8060 C   0  0  0  0  0  0  0  0  0  0  0  0
  -24.5410   -9.5250   21.6900 C   0  0  0  0  0  3  0  0  0  0  0  0
  -23.7980   -8.3330   21.8280 C   0  0  0  0  0  3  0  0  0  0  0  0
  -22.6120   -8.1460   21.0800 C   0  0  0  0  0  0  0  0  0  0  0  0
  -22.2010   -9.1480   20.1830 C   0  0  0  0  0  3  0  0  0  0  0  0
  -22.9440  -10.3320   20.0440 C   0  0  0  0  0  3  0  0  0  0  0  0
  -21.8390   -7.0110   21.1290 O   0  0  0  0  0  0  0  0  0  0  0  0
  -21.7150   -6.2750   22.2800 C   0  0  0  0  0  0  0  0  0  0  0  0
  -21.2220   -6.8400   23.4760 C   0  0  0  0  0  3  0  0  0  0  0  0
  -21.0460   -6.0320   24.6160 C   0  0  0  0  0  3  0  0  0  0  0  0
  -21.3510   -4.6580   24.5610 C   0  0  0  0  0  0  0  0  0  0  0  0
  -21.8360   -4.0930   23.3690 C   0  0  0  0  0  3  0  0  0  0  0  0
  -22.0150   -4.8990   22.2300 C   0  0  0  0  0  0  0  0  0  0  0  0
  -22.4630   -4.3440   21.0780 F   0  0  0  0  0  0  0  0  0  0  0  0
  -21.1740   -3.8780   25.6530 F   0  0  0  0  0  0  0  0  0  0  0  0
  -23.0920  -13.6330   21.2940 C   0  0  0  0  0  0  0  0  0  0  0  0
  -22.4400  -12.8950   22.1860 N   0  0  0  0  0  0  0  0  0  0  0  0
  -22.6280  -14.6960   20.8850 O   0  0  0  0  0  0  0  0  0  0  0  0
  -22.8310  -12.0340   22.5360 H   0  0  0  0  0  0  0  0  0  0  0  0
  -21.5390  -13.1990   22.5240 H   0  0  0  0  0  0  0  0  0  0  0  0
  -25.6870  -15.3030   20.3730 N   0  0  0  0  0  0  0  0  0  0  0  0
  -24.9500  -15.9630   20.6000 H   0  0  0  0  0  0  0  0  0  0  0  0
  -26.5070  -15.7460   19.9810 H   0  0  0  0  0  0  0  0  0  0  0  0
  -26.2790  -21.3350   19.0960 O   0  0  0  0  0  0  0  0  0  0  0  0
  -25.5500  -21.7100   18.6120 H   0  0  0  0  0  0  0  0  0  0  0  0
  -30.3180  -23.3940   20.5070 O   0  0  0  0  0  0  0  0  0  0  0  0
  -30.5580  -24.3150   20.5370 H   0  0  0  0  0  0  0  0  0  0  0  0
  -28.7060  -25.7390   19.0050 C   0  0  0  0  0  2  0  0  0  0  0  0
  -28.4580  -26.7880   19.9660 O   0  0  0  0  0  0  0  0  0  0  0  0
  -24.5430  -31.8660   23.1010 C   0  0  0  0  0  0  0  0  0  0  0  0
  -27.2720  -27.5070   19.9390 C   0  0  0  0  0  0  0  0  0  0  0  0
  -23.3700  -30.4790   21.4250 C   0  0  0  0  0  3  0  0  0  0  0  0
  -24.8560  -28.9980   19.9720 C   0  0  0  0  0  0  0  0  0  0  0  0
  -25.8930  -30.8740   21.2510 C   0  0  0  0  0  2  0  0  0  0  0  0
  -26.0020  -29.5150   20.5870 C   0  0  0  0  0  0  0  0  0  0  0  0
  -27.2070  -28.7700   20.5810 C   0  0  0  0  0  3  0  0  0  0  0  0
  -26.1050  -27.0200   19.3120 C   0  0  0  0  0  3  0  0  0  0  0  0
  -24.9030  -27.7490   19.3330 C   0  0  0  0  0  3  0  0  0  0  0  0
  -23.5990  -29.8390   20.0300 C   0  0  0  0  0  2  0  0  0  0  0  0
  -24.6200  -31.0870   21.9850 N   0  0  0  0  0  0  0  0  0  0  0  0
  -23.4550  -32.1090   23.6410 O   0  0  0  0  0  0  0  0  0  0  0  0
  -22.7320  -29.4240   22.3580 C   0  0  0  0  0  0  0  0  0  0  0  0
  -21.4030  -29.2530   22.2490 N   0  0  0  0  0  0  0  0  0  0  0  0
  -23.4280  -28.7660   23.1360 O   0  0  0  0  0  0  0  0  0  0  0  0
  -20.9020  -29.8380   21.5960 H   0  0  0  0  0  0  0  0  0  0  0  0
  -18.0280  -28.0900   22.8060 C   0  0  0  0  0  0  0  0  0  0  0  0
  -20.5970  -28.2920   23.0010 C   0  0  0  0  0  3  0  0  0  0  0  0
  -20.6550  -26.8900   22.3530 C   0  0  0  0  0  2  0  0  0  0  0  0
  -19.5140  -26.6360   21.3630 C   0  0  0  0  0  2  0  0  0  0  0  0
  -18.1570  -26.7720   22.0600 C   0  0  0  0  0  2  0  0  0  0  0  0
  -19.1740  -28.8100   23.2350 C   0  0  0  0  0  0  0  0  0  0  0  0
  -19.0000  -30.0470   23.8940 C   0  0  0  0  0  3  0  0  0  0  0  0
  -17.7110  -30.5630   24.1260 C   0  0  0  0  0  3  0  0  0  0  0  0
  -16.5800  -29.8390   23.7120 C   0  0  0  0  0  3  0  0  0  0  0  0
  -16.7390  -28.6030   23.0590 C   0  0  0  0  0  3  0  0  0  0  0  0
  -25.8140  -32.5060   23.7410 C   0  0  0  0  0  3  0  0  0  0  0  0
  -26.3380  -31.7200   25.0050 C   0  0  1  0  0  0  0  0  0  0  0  0
  -25.2430  -31.4400   26.0610 C   0  0  0  0  0  1  0  0  0  0  0  0
  -26.9470  -30.3600   24.5880 C   0  0  0  0  0  1  0  0  0  0  0  0
  -27.4720  -32.5200   25.6880 C   0  0  0  0  0  1  0  0  0  0  0  0
  -25.4820  -33.8940   24.0910 N   0  0  0  0  0  0  0  0  0  0  0  0
  -25.8080  -34.9620   23.3520 C   0  0  0  0  0  0  0  0  0  0  0  0
  -26.4930  -34.8860   22.3280 O   0  0  0  0  0  0  0  0  0  0  0  0
  -24.8710  -34.0280   24.8820 H   0  0  0  0  0  0  0  0  0  0  0  0
  -24.0590  -36.7360   23.0040 C   0  0  0  0  0  1  0  0  0  0  0  0
  -25.2930  -36.3350   23.8270 C   0  0  0  0  0  3  0  0  0  0  0  0
  -27.4000  -37.2350   24.7090 C   0  0  0  0  0  1  0  0  0  0  0  0
  -26.3110  -37.4040   23.7490 N   0  0  0  0  0  0  0  0  0  0  0  0
  -25.8890  -38.3150   23.9060 H   0  0  0  0  0  0  0  0  0  0  0  0
  1  3  2  0
  1  2  1  0
  2  4  2  0
  3  5  1  0
  4 54  1  0
  5  4  1  0
  5 11  1  0
  7 10  1  0
  8  6  1  0
  9  7  2  0
  9 11  1  0
 10 20  1  0
 10  6  2  0
 11  8  2  0
 12 22  1  0
 13 18  1  0
 14 15  1  0
 14 13  1  0
 16 15  1  0
 16 27  1  0
 16 17  1  0
 18 12  1  0
 18 17  1  0
 19 12  2  0
 20 23  2  0
 21 22  1  0
 22 20  1  0
 24 25  2  0
 25 44  1  0
 26 29  1  0
 26 25  1  0
 27 28  1  0
 27 24  1  0
 28 26  2  0
 29 30  1  0
 30 31  2  0
 32 35  1  0
 32 31  1  0
 33 32  2  0
 34 33  1  0
 34 29  2  0
 35 36  1  0
 36 37  1  0
 37 38  2  0
 39 38  1  0
 39 43  1  0
 40 39  2  0
 41 36  2  0
 41 40  1  0
 42 41  1  0
 44 45  1  0
 45 48  1  0
 45 47  1  0
 46 44  2  0
 49 24  1  0
 49 50  1  0
 51 49  1  0
 52  3  1  0
 53 52  1  0
 54 55  1  0
 56  2  1  0
 56 57  1  0
 58 69  2  0
 59 57  1  0
 59 64  1  0
 60 68  1  0
 60 70  1  0
 61 67  1  0
 61 63  1  0
 62 68  1  0
 63 62  1  0
 64 63  2  0
 65 66  1  0
 65 59  2  0
 66 61  2  0
 67 60  1  0
 68 58  1  0
 70 72  2  0
 71 70  1  0
 73 71  1  0
 74 83  2  0
 74 79  1  0
 75 71  1  0
 75 79  1  0
 76 75  1  0
 77 78  1  0
 77 76  1  0
 78 74  1  0
 79 80  2  0
 80 81  1  0
 82 81  2  0
 83 82  1  0
 84 58  1  0
 84 89  1  0
 84 85  1  0
 85 88  1  1
 85 86  1  0
 87 85  1  0
 89 92  1  0
 90 94  1  0
 90 89  1  0
 91 90  2  0
 94 93  1  0
 96 94  1  0
 96 97  1  0
 96 95  1  0
M  ISO  4  12 100  22 100  56 101  57 101
M  END
>  <TORSDO>  (79) 
F 20

>  <SCORE>  (79) 
-12.365

>  <name>  (79) 
78

>  <ligand_id>  (79) 
78

>  <original_smiles>  (79) 
[H]Oc1c([H])c(C([H])([H])Oc2c([H])c([H])c3c(c2[H])C([H])([H])N(C(=O)C([H])(N([H])C(=O)C([H])(N([H])C([H])([H])[H])C([H])([H])[H])C(C([H])([H])[H])(C([H])([H])[H])C([H])([H])[H])C([H])(C(=O)N([H])C2([H])c4c([H])c([H])c([H])c([H])c4C([H])([H])C([H])([H])C2([H])[H])C3([H])[H])c(O[H])n1-c1c([H])c([H])c(C(=O)N(C(=O)N2C([H])([H])C([H])([H])C([H])([H])C([H])(n3nc(-c4c([H])c([H])c(Oc5c([H])c([H])c(F)c([H])c5F)c([H])c4[H])c(C(=O)N([H])[H])c3N([H])[H])C2([H])[H])C([H])([H])[H])c([H])c1[H]

>  <smiles>  (79) 
[H]Oc1c([H])c(C([H])([H])Oc2c([H])c([H])c3c(c2[H])C([H])([H])N(C(=O)C([H])(N([H])C(=O)C([H])(N([H])C([H])([H])[H])C([H])([H])[H])C(C([H])([H])[H])(C([H])([H])[H])C([H])([H])[H])C([H])(C(=O)N([H])C2([H])c4c([H])c([H])c([H])c([H])c4C([H])([H])C([H])([H])C2([H])[H])C3([H])[H])c(O[H])n1-c1c([H])c([H])c(C(=O)N(C(=O)N2C([H])([H])C([H])([H])C([H])([H])C([H])(n3nc(-c4c([H])c([H])c(Oc5c([H])c([H])c(F)c([H])c5F)c([H])c4[H])c(C(=O)N([H])[H])c3N([H])[H])C2([H])[H])C([H])([H])[H])c([H])c1[H]

$$$$
79:0:0
     RDKit          3D

 95104  0  0  1  0  0  0  0  0999 V2000
  -29.1260  -23.0640   20.3220 C   0  0  0  0  0  3  0  0  0  0  0  0
  -28.4680  -24.2800   20.2180 C   0  0  0  0  0  0  0  0  0  0  0  0
  -27.1440  -21.7040   20.5610 C   0  0  0  0  0  0  0  0  0  0  0  0
  -26.9630  -24.2370   19.9770 C   0  0  0  0  0  2  0  0  0  0  0  0
  -26.2970  -22.9920   20.5950 C   0  0  0  0  0  2  0  0  0  0  0  0
  -28.4850  -21.7600   20.3210 N   0  0  0  0  0  0  0  0  0  0  0  0
  -26.5450  -20.6470   20.8000 O   0  0  0  0  0  0  0  0  0  0  0  0
  -28.6100  -19.4460   19.3530 C   0  0  0  0  0  3  0  0  0  0  0  0
  -29.1300  -18.1240   19.2690 C   0  0  0  0  0  3  0  0  0  0  0  0
  -30.8540  -18.6850   20.8300 C   0  0  0  0  0  3  0  0  0  0  0  0
  -29.1830  -20.4530   20.1740 C   0  0  0  0  0  0  0  0  0  0  0  0
  -30.2830  -17.6870   19.9760 C   0  0  0  0  0  0  0  0  0  0  0  0
  -30.3210  -20.0230   20.9300 C   0  0  0  0  0  0  0  0  0  0  0  0
  -30.9080  -20.8960   21.7790 F   0  0  0  0  0  0  0  0  0  0  0  0
  -31.5280  -15.3860   20.3310 C   0  0  0  0  0  0  0  0  0  0  0  0
  -31.4130  -13.0270   19.5390 C   0  0  0  0  0  2  0  0  0  0  0  0
  -30.5230  -12.9030   18.2810 C   0  0  0  0  0  2  0  0  0  0  0  0
  -29.0360  -12.7770   18.6610 C   0  0  0  0  0  2  0  0  0  0  0  0
  -28.5900  -13.7860   19.7530 C   0  0  0  0  0  3  0  0  0  0  0  0
  -29.5960  -13.8550   20.9190 C   0  0  0  0  0  2  0  0  0  0  0  0
  -30.9030  -14.1630   20.3340 N   0  0  0  0  0  0  0  0  0  0  0  0
  -32.7620  -15.4270   20.3540 O   0  0  0  0  0  0  0  0  0  0  0  0
  -30.8840  -16.3800   19.5900 N   0  0  0  0  0  0  0  0  0  0  0  0
  -26.1940  -14.4110   20.4210 C   0  0  0  0  0  0  0  0  0  0  0  0
  -25.1040  -13.6490   20.7420 C   0  0  0  0  0  0  0  0  0  0  0  0
  -25.5490  -12.2910   20.7190 C   0  0  0  0  0  0  0  0  0  0  0  0
  -27.2310  -13.5170   20.2120 N   0  0  0  0  0  0  0  0  0  0  0  0
  -26.8490  -12.2370   20.4600 N   0  0  0  0  0  0  0  0  0  0  0  0
  -24.7990  -11.0400   20.8740 C   0  0  0  0  0  0  0  0  0  0  0  0
  -25.1230  -10.1060   21.8830 C   0  0  0  0  0  3  0  0  0  0  0  0
  -24.3740   -8.9180   22.0260 C   0  0  0  0  0  3  0  0  0  0  0  0
  -23.2900   -8.6540   21.1560 C   0  0  0  0  0  0  0  0  0  0  0  0
  -22.9870   -9.5760   20.1380 C   0  0  0  0  0  3  0  0  0  0  0  0
  -23.7350  -10.7560   19.9950 C   0  0  0  0  0  3  0  0  0  0  0  0
  -22.5250   -7.5130   21.2040 O   0  0  0  0  0  0  0  0  0  0  0  0
  -22.2220   -6.8970   22.3910 C   0  0  0  0  0  0  0  0  0  0  0  0
  -21.5340   -7.5700   23.4250 C   0  0  0  0  0  3  0  0  0  0  0  0
  -21.1810   -6.8810   24.6020 C   0  0  0  0  0  3  0  0  0  0  0  0
  -21.5050   -5.5170   24.7420 C   0  0  0  0  0  0  0  0  0  0  0  0
  -22.1840   -4.8440   23.7120 C   0  0  0  0  0  3  0  0  0  0  0  0
  -22.5390   -5.5310   22.5380 C   0  0  0  0  0  0  0  0  0  0  0  0
  -23.1750   -4.8720   21.5400 F   0  0  0  0  0  0  0  0  0  0  0  0
  -21.1600   -4.8510   25.8690 F   0  0  0  0  0  0  0  0  0  0  0  0
  -23.7050  -14.1460   20.9630 C   0  0  0  0  0  0  0  0  0  0  0  0
  -22.9420  -13.4700   21.8150 N   0  0  0  0  0  0  0  0  0  0  0  0
  -23.2970  -15.1700   20.4160 O   0  0  0  0  0  0  0  0  0  0  0  0
  -23.2890  -12.6450   22.2790 H   0  0  0  0  0  0  0  0  0  0  0  0
  -21.9990  -13.7810   22.0010 H   0  0  0  0  0  0  0  0  0  0  0  0
  -26.3880  -15.7790   20.2640 N   0  0  0  0  0  0  0  0  0  0  0  0
  -25.6320  -16.4470   20.3690 H   0  0  0  0  0  0  0  0  0  0  0  0
  -27.2720  -16.2100   20.0280 H   0  0  0  0  0  0  0  0  0  0  0  0
  -32.2760  -17.5470   17.8090 C   0  0  0  0  0  1  0  0  0  0  0  0
  -31.3240  -16.3830   18.1680 C   0  0  0  0  0  2  0  0  0  0  0  0
  -29.0770  -25.7300   20.4760 C   0  0  0  0  0  2  0  0  0  0  0  0
  -28.9610  -27.1000   19.8820 O   0  0  0  0  0  0  0  0  0  0  0  0
  -24.7970  -31.8820   23.4010 C   0  0  0  0  0  0  0  0  0  0  0  0
  -27.7890  -27.8680   19.9740 C   0  0  0  0  0  0  0  0  0  0  0  0
  -23.7480  -30.6220   21.5540 C   0  0  0  0  0  3  0  0  0  0  0  0
  -25.3450  -29.3410   20.0240 C   0  0  0  0  0  0  0  0  0  0  0  0
  -26.2660  -31.1110   21.5240 C   0  0  0  0  0  2  0  0  0  0  0  0
  -26.4550  -29.8220   20.7320 C   0  0  0  0  0  0  0  0  0  0  0  0
  -27.6850  -29.0980   20.6970 C   0  0  0  0  0  3  0  0  0  0  0  0
  -26.6590  -27.4440   19.2470 C   0  0  0  0  0  3  0  0  0  0  0  0
  -25.4460  -28.1600   19.2730 C   0  0  0  0  0  3  0  0  0  0  0  0
  -24.0570  -30.1350   20.1150 C   0  0  0  0  0  2  0  0  0  0  0  0
  -24.9540  -31.2190   22.2190 N   0  0  0  0  0  0  0  0  0  0  0  0
  -23.6780  -32.0230   23.9170 O   0  0  0  0  0  0  0  0  0  0  0  0
  -23.1220  -29.4560   22.3540 C   0  0  0  0  0  0  0  0  0  0  0  0
  -21.8100  -29.2300   22.1640 N   0  0  0  0  0  0  0  0  0  0  0  0
  -23.8140  -28.7650   23.1060 O   0  0  0  0  0  0  0  0  0  0  0  0
  -21.3070  -29.8420   21.5370 H   0  0  0  0  0  0  0  0  0  0  0  0
  -18.4760  -27.8620   22.4710 C   0  0  0  0  0  0  0  0  0  0  0  0
  -21.0250  -28.1600   22.7850 C   0  0  0  0  0  3  0  0  0  0  0  0
  -21.1740  -26.8370   22.0000 C   0  0  0  0  0  2  0  0  0  0  0  0
  -20.0810  -26.6360   20.9460 C   0  0  0  0  0  2  0  0  0  0  0  0
  -18.6950  -26.6370   21.5980 C   0  0  0  0  0  2  0  0  0  0  0  0
  -19.5700  -28.5860   23.0140 C   0  0  0  0  0  0  0  0  0  0  0  0
  -19.3110  -29.7390   23.7890 C   0  0  0  0  0  3  0  0  0  0  0  0
  -17.9910  -30.1670   24.0230 C   0  0  0  0  0  3  0  0  0  0  0  0
  -16.9120  -29.4390   23.4940 C   0  0  0  0  0  3  0  0  0  0  0  0
  -17.1540  -28.2860   22.7260 C   0  0  0  0  0  3  0  0  0  0  0  0
  -26.0120  -32.5100   24.1530 C   0  0  0  0  0  3  0  0  0  0  0  0
  -26.4430  -31.6870   25.4310 C   0  0  1  0  0  0  0  0  0  0  0  0
  -25.2730  -31.3700   26.3890 C   0  0  0  0  0  1  0  0  0  0  0  0
  -27.0940  -30.3440   25.0260 C   0  0  0  0  0  1  0  0  0  0  0  0
  -27.5100  -32.4770   26.2250 C   0  0  0  0  0  1  0  0  0  0  0  0
  -25.6420  -33.8840   24.5230 N   0  0  0  0  0  0  0  0  0  0  0  0
  -25.9740  -34.9760   23.8240 C   0  0  0  0  0  0  0  0  0  0  0  0
  -26.6890  -34.9350   22.8190 O   0  0  0  0  0  0  0  0  0  0  0  0
  -25.0170  -33.9870   25.3080 H   0  0  0  0  0  0  0  0  0  0  0  0
  -24.1900  -36.7170   23.4680 C   0  0  0  0  0  1  0  0  0  0  0  0
  -25.4190  -36.3300   24.3090 C   0  0  0  0  0  3  0  0  0  0  0  0
  -27.4810  -37.2630   25.2570 C   0  0  0  0  0  1  0  0  0  0  0  0
  -26.4140  -37.4230   24.2730 N   0  0  0  0  0  0  0  0  0  0  0  0
  -25.9680  -38.3230   24.4300 H   0  0  0  0  0  0  0  0  0  0  0  0
  2  1  2  0
  2 54  1  0
  3  5  1  0
  3  7  2  0
  4  2  1  0
  4  5  1  0
  6  1  1  0
  6  3  1  0
  8 11  1  0
  9  8  2  0
  9 12  1  0
 10 13  1  0
 11  6  1  0
 11 13  2  0
 12 10  2  0
 13 14  1  0
 15 21  1  0
 15 22  2  0
 16 21  1  0
 17 18  1  0
 17 16  1  0
 19 18  1  0
 19 27  1  0
 19 20  1  0
 21 20  1  0
 23 12  1  0
 23 15  1  0
 24 25  2  0
 25 44  1  0
 26 25  1  0
 26 29  1  0
 27 24  1  0
 27 28  1  0
 28 26  2  0
 29 30  1  0
 30 31  2  0
 32 35  1  0
 32 31  1  0
 33 32  2  0
 34 33  1  0
 34 29  2  0
 35 36  1  0
 36 41  2  0
 36 37  1  0
 37 38  2  0
 38 39  1  0
 39 43  1  0
 40 39  2  0
 41 40  1  0
 42 41  1  0
 44 45  1  0
 45 48  1  0
 45 47  1  0
 46 44  2  0
 49 50  1  0
 49 24  1  0
 51 49  1  0
 52 53  1  0
 53 23  1  0
 55 57  1  0
 55 54  1  0
 56 67  2  0
 57 62  1  0
 58 66  1  0
 58 68  1  0
 59 65  1  0
 59 61  1  0
 60 66  1  0
 61 60  1  0
 62 61  2  0
 63 64  1  0
 63 57  2  0
 64 59  2  0
 65 58  1  0
 66 56  1  0
 68 70  2  0
 69 68  1  0
 71 69  1  0
 72 81  2  0
 72 77  1  0
 73 69  1  0
 73 77  1  0
 74 73  1  0
 75 76  1  0
 75 74  1  0
 76 72  1  0
 77 78  2  0
 78 79  1  0
 80 79  2  0
 81 80  1  0
 82 56  1  0
 82 87  1  0
 82 83  1  0
 83 86  1  1
 83 84  1  0
 85 83  1  0
 87 90  1  0
 88 92  1  0
 88 87  1  0
 89 88  2  0
 92 91  1  0
 94 92  1  0
 94 95  1  0
 94 93  1  0
M  ISO  4  15 100  23 100  54 101  55 101
M  END
>  <TORSDO>  (80) 
F 19

>  <SCORE>  (80) 
-10.433

>  <name>  (80) 
79

>  <ligand_id>  (80) 
79

>  <original_smiles>  (80) 
[H]C1=C(C([H])([H])Oc2c([H])c([H])c3c(c2[H])C([H])([H])N(C(=O)C([H])(N([H])C(=O)C([H])(N([H])C([H])([H])[H])C([H])([H])[H])C(C([H])([H])[H])(C([H])([H])[H])C([H])([H])[H])C([H])(C(=O)N([H])C2([H])c4c([H])c([H])c([H])c([H])c4C([H])([H])C([H])([H])C2([H])[H])C3([H])[H])C([H])([H])C([H])([H])C(=O)N1c1c([H])c([H])c(N(C(=O)N2C([H])([H])C([H])([H])C([H])([H])C([H])(n3nc(-c4c([H])c([H])c(Oc5c([H])c([H])c(F)c([H])c5F)c([H])c4[H])c(C(=O)N([H])[H])c3N([H])[H])C2([H])[H])C([H])([H])C([H])([H])[H])c([H])c1F

>  <smiles>  (80) 
[H]C1=C(C([H])([H])Oc2c([H])c([H])c3c(c2[H])C([H])([H])N(C(=O)C([H])(N([H])C(=O)C([H])(N([H])C([H])([H])[H])C([H])([H])[H])C(C([H])([H])[H])(C([H])([H])[H])C([H])([H])[H])C([H])(C(=O)N([H])C2([H])c4c([H])c([H])c([H])c([H])c4C([H])([H])C([H])([H])C2([H])[H])C3([H])[H])C([H])([H])C([H])([H])C(=O)N1c1c([H])c([H])c(N(C(=O)N2C([H])([H])C([H])([H])C([H])([H])C([H])(n3nc(-c4c([H])c([H])c(Oc5c([H])c([H])c(F)c([H])c5F)c([H])c4[H])c(C(=O)N([H])[H])c3N([H])[H])C2([H])[H])C([H])([H])C([H])([H])[H])c([H])c1F

$$$$
80:0:0
     RDKit          3D

 95104  0  0  1  0  0  0  0  0999 V2000
  -31.8200  -22.5220   19.9020 C   0  0  0  0  0  0  0  0  0  0  0  0
  -31.9360  -24.0150   19.5620 C   0  0  0  0  0  2  0  0  0  0  0  0
  -30.9270  -24.9070   20.2910 C   0  0  0  0  0  2  0  0  0  0  0  0
  -29.5180  -22.9000   20.7750 C   0  0  0  0  0  2  0  0  0  0  0  0
  -29.5170  -24.3310   20.1520 C   0  0  0  0  0  3  0  0  0  0  0  0
  -30.6430  -22.0140   20.3710 N   0  0  0  0  0  0  0  0  0  0  0  0
  -32.8260  -21.8290   19.7080 O   0  0  0  0  0  0  0  0  0  0  0  0
  -30.6480  -18.2400   20.0600 C   0  0  0  0  0  3  0  0  0  0  0  0
  -30.5210  -19.6080   19.7250 C   0  0  0  0  0  3  0  0  0  0  0  0
  -30.6920  -20.2100   22.0710 C   0  0  0  0  0  3  0  0  0  0  0  0
  -30.8480  -17.8450   21.4010 C   0  0  0  0  0  0  0  0  0  0  0  0
  -30.5850  -20.6160   20.7220 C   0  0  0  0  0  0  0  0  0  0  0  0
  -30.8410  -18.8440   22.4060 C   0  0  0  0  0  0  0  0  0  0  0  0
  -31.0300  -18.5060   23.7040 F   0  0  0  0  0  0  0  0  0  0  0  0
  -31.2050  -16.3920   21.7590 C   0  0  0  0  0  2  0  0  0  0  0  0
  -30.9880  -14.4170   20.2190 C   0  0  0  0  0  0  0  0  0  0  0  0
  -30.5490  -12.3380   18.9450 C   0  0  0  0  0  2  0  0  0  0  0  0
  -29.5460  -12.5860   17.8010 C   0  0  0  0  0  2  0  0  0  0  0  0
  -28.0960  -12.4630   18.3080 C   0  0  0  0  0  2  0  0  0  0  0  0
  -27.8470  -13.2790   19.6050 C   0  0  0  0  0  3  0  0  0  0  0  0
  -28.9470  -12.9920   20.6490 C   0  0  0  0  0  2  0  0  0  0  0  0
  -30.2490  -13.2900   20.0270 N   0  0  0  0  0  0  0  0  0  0  0  0
  -32.0540  -14.6260   19.6330 O   0  0  0  0  0  0  0  0  0  0  0  0
  -30.4730  -15.3100   21.0820 N   0  0  0  0  0  0  0  0  0  0  0  0
  -29.5690  -15.0760   21.4640 H   0  0  0  0  0  0  0  0  0  0  0  0
  -25.5020  -13.9340   20.4400 C   0  0  0  0  0  0  0  0  0  0  0  0
  -24.4320  -13.1810   20.8440 C   0  0  0  0  0  0  0  0  0  0  0  0
  -24.8560  -11.8190   20.7660 C   0  0  0  0  0  0  0  0  0  0  0  0
  -26.5110  -13.0310   20.1430 N   0  0  0  0  0  0  0  0  0  0  0  0
  -26.1280  -11.7540   20.3950 N   0  0  0  0  0  0  0  0  0  0  0  0
  -24.1080  -10.5710   20.9670 C   0  0  0  0  0  0  0  0  0  0  0  0
  -24.5440   -9.5880   21.8830 C   0  0  0  0  0  3  0  0  0  0  0  0
  -23.7990   -8.4040   22.0700 C   0  0  0  0  0  3  0  0  0  0  0  0
  -22.6020   -8.1960   21.3430 C   0  0  0  0  0  0  0  0  0  0  0  0
  -22.1860   -9.1670   20.4150 C   0  0  0  0  0  3  0  0  0  0  0  0
  -22.9320  -10.3420   20.2260 C   0  0  0  0  0  3  0  0  0  0  0  0
  -21.8270   -7.0660   21.4410 O   0  0  0  0  0  0  0  0  0  0  0  0
  -21.7690   -6.3320   22.5990 C   0  0  0  0  0  0  0  0  0  0  0  0
  -21.3430   -6.8990   23.8200 C   0  0  0  0  0  3  0  0  0  0  0  0
  -21.2300   -6.0930   24.9700 C   0  0  0  0  0  3  0  0  0  0  0  0
  -21.5340   -4.7200   24.9000 C   0  0  0  0  0  0  0  0  0  0  0  0
  -21.9520   -4.1520   23.6850 C   0  0  0  0  0  3  0  0  0  0  0  0
  -22.0670   -4.9560   22.5360 C   0  0  0  0  0  0  0  0  0  0  0  0
  -22.4500   -4.4010   21.3620 F   0  0  0  0  0  0  0  0  0  0  0  0
  -21.4180   -3.9430   26.0020 F   0  0  0  0  0  0  0  0  0  0  0  0
  -23.0630  -13.6870   21.1950 C   0  0  0  0  0  0  0  0  0  0  0  0
  -22.3610  -12.9930   22.0840 N   0  0  0  0  0  0  0  0  0  0  0  0
  -22.6250  -14.7320   20.7140 O   0  0  0  0  0  0  0  0  0  0  0  0
  -22.7290  -12.1450   22.4920 H   0  0  0  0  0  0  0  0  0  0  0  0
  -21.4440  -13.3100   22.3600 H   0  0  0  0  0  0  0  0  0  0  0  0
  -25.6970  -15.3020   20.2810 N   0  0  0  0  0  0  0  0  0  0  0  0
  -24.9570  -15.9780   20.4390 H   0  0  0  0  0  0  0  0  0  0  0  0
  -26.5500  -15.7240   19.9330 H   0  0  0  0  0  0  0  0  0  0  0  0
  -28.4450  -25.2800   20.7590 C   0  0  0  0  0  2  0  0  0  0  0  0
  -28.5480  -26.6330   20.2610 O   0  0  0  0  0  0  0  0  0  0  0  0
  -24.6430  -31.8100   23.2400 C   0  0  0  0  0  0  0  0  0  0  0  0
  -27.3770  -27.3650   20.2430 C   0  0  0  0  0  0  0  0  0  0  0  0
  -23.4770  -30.3880   21.5870 C   0  0  0  0  0  3  0  0  0  0  0  0
  -24.9700  -28.8550   20.1960 C   0  0  0  0  0  0  0  0  0  0  0  0
  -26.0040  -30.7690   21.4260 C   0  0  0  0  0  2  0  0  0  0  0  0
  -26.1140  -29.3940   20.7980 C   0  0  0  0  0  0  0  0  0  0  0  0
  -27.3240  -28.6590   20.8120 C   0  0  0  0  0  3  0  0  0  0  0  0
  -26.2190  -26.8460   19.6240 C   0  0  0  0  0  3  0  0  0  0  0  0
  -25.0190  -27.5820   19.6030 C   0  0  0  0  0  3  0  0  0  0  0  0
  -23.7170  -29.7010   20.2160 C   0  0  0  0  0  2  0  0  0  0  0  0
  -24.7250  -31.0050   22.1430 N   0  0  0  0  0  0  0  0  0  0  0  0
  -23.5500  -32.0750   23.7620 O   0  0  0  0  0  0  0  0  0  0  0  0
  -22.8200  -29.3670   22.5440 C   0  0  0  0  0  0  0  0  0  0  0  0
  -21.5030  -29.1530   22.3810 N   0  0  0  0  0  0  0  0  0  0  0  0
  -23.4920  -28.7680   23.3880 O   0  0  0  0  0  0  0  0  0  0  0  0
  -21.0220  -29.6900   21.6730 H   0  0  0  0  0  0  0  0  0  0  0  0
  -18.1540  -27.8500   22.7550 C   0  0  0  0  0  0  0  0  0  0  0  0
  -20.6850  -28.2070   23.1390 C   0  0  0  0  0  3  0  0  0  0  0  0
  -20.8640  -26.7650   22.6080 C   0  0  0  0  0  2  0  0  0  0  0  0
  -19.8240  -26.3760   21.5530 C   0  0  0  0  0  2  0  0  0  0  0  0
  -18.4080  -26.4890   22.1270 C   0  0  0  0  0  2  0  0  0  0  0  0
  -19.2230  -28.6630   23.2140 C   0  0  0  0  0  0  0  0  0  0  0  0
  -18.9350  -29.9340   23.7570 C   0  0  0  0  0  3  0  0  0  0  0  0
  -17.6080  -30.3930   23.8470 C   0  0  0  0  0  3  0  0  0  0  0  0
  -16.5520  -29.5780   23.4050 C   0  0  0  0  0  3  0  0  0  0  0  0
  -16.8250  -28.3090   22.8650 C   0  0  0  0  0  3  0  0  0  0  0  0
  -25.9120  -32.4580   23.8780 C   0  0  0  0  0  3  0  0  0  0  0  0
  -26.4140  -31.7020   25.1690 C   0  0  1  0  0  0  0  0  0  0  0  0
  -25.3050  -31.4560   26.2180 C   0  0  0  0  0  1  0  0  0  0  0  0
  -27.0240  -30.3310   24.7920 C   0  0  0  0  0  1  0  0  0  0  0  0
  -27.5430  -32.5150   25.8480 C   0  0  0  0  0  1  0  0  0  0  0  0
  -25.5860  -33.8560   24.1880 N   0  0  0  0  0  0  0  0  0  0  0  0
  -25.9300  -34.9040   23.4270 C   0  0  0  0  0  0  0  0  0  0  0  0
  -26.6240  -34.7960   22.4120 O   0  0  0  0  0  0  0  0  0  0  0  0
  -24.9750  -34.0160   24.9750 H   0  0  0  0  0  0  0  0  0  0  0  0
  -24.1950  -36.6780   23.0180 C   0  0  0  0  0  1  0  0  0  0  0  0
  -25.4220  -36.2930   23.8590 C   0  0  0  0  0  3  0  0  0  0  0  0
  -27.5310  -37.2060   24.7260 C   0  0  0  0  0  1  0  0  0  0  0  0
  -26.4490  -37.3530   23.7560 N   0  0  0  0  0  0  0  0  0  0  0  0
  -26.0310  -38.2710   23.8860 H   0  0  0  0  0  0  0  0  0  0  0  0
  1  6  1  0
  2  1  1  0
  2  3  1  0
  5  3  1  0
  5 54  1  0
  5  4  1  0
  6 12  1  0
  6  4  1  0
  7  1  2  0
  8 11  1  0
  9  8  2  0
  9 12  1  0
 10 13  1  0
 11 15  1  0
 11 13  2  0
 12 10  2  0
 13 14  1  0
 16 24  1  0
 17 22  1  0
 18 19  1  0
 18 17  1  0
 20 19  1  0
 20 29  1  0
 20 21  1  0
 22 16  1  0
 22 21  1  0
 23 16  2  0
 24 25  1  0
 24 15  1  0
 26 27  2  0
 27 46  1  0
 28 27  1  0
 28 31  1  0
 29 30  1  0
 29 26  1  0
 30 28  2  0
 31 32  1  0
 32 33  2  0
 34 37  1  0
 34 33  1  0
 35 34  2  0
 36 35  1  0
 36 31  2  0
 37 38  1  0
 38 39  1  0
 39 40  2  0
 41 40  1  0
 41 45  1  0
 42 41  2  0
 43 38  2  0
 43 42  1  0
 44 43  1  0
 46 47  1  0
 47 50  1  0
 47 49  1  0
 48 46  2  0
 51 52  1  0
 51 26  1  0
 53 51  1  0
 55 54  1  0
 56 67  2  0
 57 55  1  0
 57 62  1  0
 58 66  1  0
 58 68  1  0
 59 65  1  0
 59 61  1  0
 60 66  1  0
 61 62  2  0
 61 60  1  0
 63 57  2  0
 64 63  1  0
 64 59  2  0
 65 58  1  0
 66 56  1  0
 68 70  2  0
 69 68  1  0
 71 69  1  0
 72 81  2  0
 72 77  1  0
 73 69  1  0
 73 77  1  0
 74 73  1  0
 75 76  1  0
 75 74  1  0
 76 72  1  0
 77 78  2  0
 78 79  1  0
 80 79  2  0
 81 80  1  0
 82 56  1  0
 82 87  1  0
 82 83  1  0
 83 86  1  1
 83 84  1  0
 85 83  1  0
 87 90  1  0
 88 92  1  0
 88 87  1  0
 89 88  2  0
 92 91  1  0
 94 92  1  0
 94 95  1  0
 94 93  1  0
M  ISO  4  16 100  24 100  54 101  55 101
M  END
>  <TORSDO>  (81) 
F 19

>  <SCORE>  (81) 
-14.098

>  <name>  (81) 
80

>  <ligand_id>  (81) 
80

>  <original_smiles>  (81) 
[H]c1c([H])c([H])c2c(c1[H])C([H])([H])C([H])([H])C([H])([H])C2([H])N([H])C(=O)C1([H])N(C(=O)C([H])(N([H])C(=O)C([H])(N([H])C([H])([H])[H])C([H])([H])[H])C(C([H])([H])[H])(C([H])([H])[H])C([H])([H])[H])C([H])([H])c2c([H])c(OC([H])([H])C3([H])C([H])([H])N(c4c([H])c([H])c(C([H])([H])N([H])C(=O)N5C([H])([H])C([H])([H])C([H])([H])C([H])(n6nc(-c7c([H])c([H])c(Oc8c([H])c([H])c(F)c([H])c8F)c([H])c7[H])c(C(=O)N([H])[H])c6N([H])[H])C5([H])[H])c(F)c4[H])C(=O)C([H])([H])C3([H])[H])c([H])c([H])c2C1([H])[H]

>  <smiles>  (81) 
[H]c1c([H])c([H])c2c(c1[H])C([H])([H])C([H])([H])C([H])([H])C2([H])N([H])C(=O)C1([H])N(C(=O)C([H])(N([H])C(=O)C([H])(N([H])C([H])([H])[H])C([H])([H])[H])C(C([H])([H])[H])(C([H])([H])[H])C([H])([H])[H])C([H])([H])c2c([H])c(OC([H])([H])C3([H])C([H])([H])N(c4c([H])c([H])c(C([H])([H])N([H])C(=O)N5C([H])([H])C([H])([H])C([H])([H])C([H])(n6nc(-c7c([H])c([H])c(Oc8c([H])c([H])c(F)c([H])c8F)c([H])c7[H])c(C(=O)N([H])[H])c6N([H])[H])C5([H])[H])c(F)c4[H])C(=O)C([H])([H])C3([H])[H])c([H])c([H])c2C1([H])[H]

$$$$
81:0:0
     RDKit          3D

 92101  0  0  1  0  0  0  0  0999 V2000
  -28.9100  -23.2230   19.7270 C   0  0  0  0  0  0  0  0  0  0  0  0
  -26.7710  -22.9870   21.5960 C   0  0  0  0  0  2  0  0  0  0  0  0
  -27.3380  -24.4010   21.4400 C   0  0  0  0  0  2  0  0  0  0  0  0
  -27.8400  -21.8780   21.4730 C   0  0  0  0  0  2  0  0  0  0  0  0
  -27.9180  -24.5760   20.0370 C   0  0  0  0  0  3  0  0  0  0  0  0
  -28.7290  -21.8830   20.2890 N   0  0  0  0  0  0  0  0  0  0  0  0
  -29.8100  -23.4080   18.9020 O   0  0  0  0  0  0  0  0  0  0  0  0
  -30.6600  -20.4020   19.3750 C   0  0  0  0  0  3  0  0  0  0  0  0
  -29.0860  -19.0110   20.3710 C   0  0  0  0  0  0  0  0  0  0  0  0
  -29.4470  -20.4820   20.0210 C   0  0  0  0  0  0  0  0  0  0  0  0
  -30.0130  -17.9300   20.0740 C   0  0  0  0  0  0  0  0  0  0  0  0
  -27.7820  -18.5890   20.9850 C   0  0  0  0  0  1  0  0  0  0  0  0
  -31.3540  -18.7540   19.2890 S   0  0  0  0  0  0  0  0  0  0  0  0
  -30.7170  -15.2920   19.9360 C   0  0  0  0  0  0  0  0  0  0  0  0
  -30.5970  -12.9340   18.9560 C   0  0  0  0  0  2  0  0  0  0  0  0
  -29.6030  -12.8870   17.7700 C   0  0  0  0  0  2  0  0  0  0  0  0
  -28.1640  -12.6470   18.2640 C   0  0  0  0  0  2  0  0  0  0  0  0
  -27.8100  -13.5320   19.4870 C   0  0  0  0  0  3  0  0  0  0  0  0
  -28.9210  -13.5370   20.5590 C   0  0  0  0  0  2  0  0  0  0  0  0
  -30.1500  -14.0070   19.9020 N   0  0  0  0  0  0  0  0  0  0  0  0
  -31.8970  -15.3570   19.5590 O   0  0  0  0  0  0  0  0  0  0  0  0
  -29.9410  -16.4700   20.2550 N   0  0  0  0  0  0  0  0  0  0  0  0
  -29.0730  -16.1860   20.6800 H   0  0  0  0  0  0  0  0  0  0  0  0
  -25.4790  -14.0750   20.3750 C   0  0  0  0  0  0  0  0  0  0  0  0
  -24.4370  -13.2890   20.7810 C   0  0  0  0  0  0  0  0  0  0  0  0
  -24.8960  -11.9390   20.6830 C   0  0  0  0  0  0  0  0  0  0  0  0
  -26.5050  -13.2060   20.0510 N   0  0  0  0  0  0  0  0  0  0  0  0
  -26.1690  -11.9130   20.3020 N   0  0  0  0  0  0  0  0  0  0  0  0
  -24.1760  -10.6720   20.8760 C   0  0  0  0  0  0  0  0  0  0  0  0
  -24.5830   -9.7260   21.8430 C   0  0  0  0  0  3  0  0  0  0  0  0
  -23.8590   -8.5270   22.0200 C   0  0  0  0  0  3  0  0  0  0  0  0
  -22.7170   -8.2640   21.2270 C   0  0  0  0  0  0  0  0  0  0  0  0
  -22.3300   -9.1970   20.2490 C   0  0  0  0  0  3  0  0  0  0  0  0
  -23.0550  -10.3870   20.0700 C   0  0  0  0  0  3  0  0  0  0  0  0
  -21.9690   -7.1130   21.3130 O   0  0  0  0  0  0  0  0  0  0  0  0
  -21.7880   -6.4580   22.5040 C   0  0  0  0  0  0  0  0  0  0  0  0
  -21.1980   -7.0930   23.6200 C   0  0  0  0  0  3  0  0  0  0  0  0
  -20.9630   -6.3630   24.8020 C   0  0  0  0  0  3  0  0  0  0  0  0
  -21.3110   -5.0000   24.8690 C   0  0  0  0  0  0  0  0  0  0  0  0
  -21.8940   -4.3650   23.7580 C   0  0  0  0  0  3  0  0  0  0  0  0
  -22.1290   -5.0910   22.5780 C   0  0  0  0  0  0  0  0  0  0  0  0
  -22.6700   -4.4700   21.5030 F   0  0  0  0  0  0  0  0  0  0  0  0
  -21.0810   -4.2960   26.0020 F   0  0  0  0  0  0  0  0  0  0  0  0
  -23.0570  -13.7600   21.1410 C   0  0  0  0  0  0  0  0  0  0  0  0
  -22.3730  -13.0460   22.0290 N   0  0  0  0  0  0  0  0  0  0  0  0
  -22.5960  -14.7980   20.6680 O   0  0  0  0  0  0  0  0  0  0  0  0
  -22.7600  -12.2070   22.4340 H   0  0  0  0  0  0  0  0  0  0  0  0
  -21.4500  -13.3470   22.3100 H   0  0  0  0  0  0  0  0  0  0  0  0
  -25.6380  -15.4500   20.2270 N   0  0  0  0  0  0  0  0  0  0  0  0
  -24.8680  -16.0990   20.3540 H   0  0  0  0  0  0  0  0  0  0  0  0
  -26.4440  -15.8810   19.7960 H   0  0  0  0  0  0  0  0  0  0  0  0
  -28.2610  -26.1320   19.8500 O   0  0  0  0  0  0  0  0  0  0  0  0
  -24.6420  -31.8340   23.0620 C   0  0  0  0  0  0  0  0  0  0  0  0
  -27.2270  -27.1730   19.8600 C   0  0  0  0  0  0  0  0  0  0  0  0
  -23.4410  -30.4640   21.4070 C   0  0  0  0  0  3  0  0  0  0  0  0
  -24.8900  -28.9490   19.9120 C   0  0  0  0  0  0  0  0  0  0  0  0
  -25.9960  -30.7510   21.2180 C   0  0  0  0  0  2  0  0  0  0  0  0
  -26.0780  -29.3730   20.5220 C   0  0  0  0  0  0  0  0  0  0  0  0
  -27.2470  -28.5030   20.4780 C   0  0  0  0  0  3  0  0  0  0  0  0
  -26.0110  -26.8870   19.2010 C   0  0  0  0  0  3  0  0  0  0  0  0
  -24.8730  -27.7220   19.2370 C   0  0  0  0  0  3  0  0  0  0  0  0
  -23.6540  -29.8340   20.0060 C   0  0  0  0  0  2  0  0  0  0  0  0
  -24.7150  -31.0380   21.9500 N   0  0  0  0  0  0  0  0  0  0  0  0
  -23.5580  -32.0850   23.6120 O   0  0  0  0  0  0  0  0  0  0  0  0
  -22.7910  -29.4200   22.3500 C   0  0  0  0  0  0  0  0  0  0  0  0
  -21.4620  -29.2340   22.2470 N   0  0  0  0  0  0  0  0  0  0  0  0
  -23.4860  -28.7820   23.1460 O   0  0  0  0  0  0  0  0  0  0  0  0
  -20.9550  -29.8020   21.5840 H   0  0  0  0  0  0  0  0  0  0  0  0
  -18.1050  -27.9970   22.8260 C   0  0  0  0  0  0  0  0  0  0  0  0
  -20.6710  -28.2620   23.0080 C   0  0  0  0  0  3  0  0  0  0  0  0
  -20.7560  -26.8550   22.3730 C   0  0  0  0  0  2  0  0  0  0  0  0
  -19.6190  -26.5680   21.3870 C   0  0  0  0  0  2  0  0  0  0  0  0
  -18.2600  -26.6790   22.0860 C   0  0  0  0  0  2  0  0  0  0  0  0
  -19.2350  -28.7480   23.2450 C   0  0  0  0  0  0  0  0  0  0  0  0
  -19.0320  -29.9800   23.9030 C   0  0  0  0  0  3  0  0  0  0  0  0
  -17.7310  -30.4640   24.1410 C   0  0  0  0  0  3  0  0  0  0  0  0
  -16.6170  -29.7120   23.7340 C   0  0  0  0  0  3  0  0  0  0  0  0
  -16.8040  -28.4800   23.0830 C   0  0  0  0  0  3  0  0  0  0  0  0
  -25.9150  -32.4780   23.6880 C   0  0  0  0  0  3  0  0  0  0  0  0
  -25.5730  -33.8560   24.0750 N   0  0  0  0  0  0  0  0  0  0  0  0
  -25.8590  -34.9490   23.3530 C   0  0  0  0  0  0  0  0  0  0  0  0
  -26.5000  -34.9040   22.3000 O   0  0  0  0  0  0  0  0  0  0  0  0
  -24.9940  -33.9620   24.8950 H   0  0  0  0  0  0  0  0  0  0  0  0
  -24.0700  -36.7090   23.1390 C   0  0  0  0  0  1  0  0  0  0  0  0
  -25.3540  -36.3060   23.8830 C   0  0  0  0  0  3  0  0  0  0  0  0
  -27.4940  -37.2240   24.6640 C   0  0  0  0  0  1  0  0  0  0  0  0
  -26.3530  -37.3920   23.7700 N   0  0  0  0  0  0  0  0  0  0  0  0
  -25.9240  -38.2940   23.9660 H   0  0  0  0  0  0  0  0  0  0  0  0
  -26.4650  -31.6800   24.9350 C   0  0  1  0  0  0  0  0  0  0  0  0
  -25.3910  -31.3880   26.0100 C   0  0  0  0  0  1  0  0  0  0  0  0
  -27.0730  -30.3270   24.5020 C   0  0  0  0  0  1  0  0  0  0  0  0
  -27.6070  -32.4800   25.6040 C   0  0  0  0  0  1  0  0  0  0  0  0
  1  5  1  0
  1  6  1  0
  3  2  1  0
  4  2  1  0
  5 52  1  0
  5  3  1  0
  6  4  1  0
  7  1  2  0
  8 10  2  0
  9 12  1  0
 10  6  1  0
 10  9  1  0
 11 22  1  0
 11  9  2  0
 13  8  1  0
 13 11  1  0
 14 22  1  0
 15 20  1  0
 16 17  1  0
 16 15  1  0
 18 17  1  0
 18 27  1  0
 18 19  1  0
 20 14  1  0
 20 19  1  0
 21 14  2  0
 22 23  1  0
 24 25  2  0
 25 44  1  0
 26 25  1  0
 26 29  1  0
 27 28  1  0
 27 24  1  0
 28 26  2  0
 29 30  1  0
 30 31  2  0
 32 35  1  0
 32 31  1  0
 33 32  2  0
 34 33  1  0
 34 29  2  0
 35 36  1  0
 36 41  2  0
 36 37  1  0
 37 38  2  0
 38 39  1  0
 39 43  1  0
 40 39  2  0
 41 40  1  0
 42 41  1  0
 44 45  1  0
 45 48  1  0
 45 47  1  0
 46 44  2  0
 49 50  1  0
 49 24  1  0
 51 49  1  0
 52 54  1  0
 53 64  2  0
 54 59  1  0
 55 63  1  0
 55 65  1  0
 56 62  1  0
 56 58  1  0
 57 63  1  0
 58 57  1  0
 59 58  2  0
 60 61  1  0
 60 54  2  0
 61 56  2  0
 62 55  1  0
 63 53  1  0
 65 67  2  0
 66 65  1  0
 68 66  1  0
 69 78  2  0
 69 74  1  0
 70 66  1  0
 70 74  1  0
 71 70  1  0
 72 73  1  0
 72 71  1  0
 73 69  1  0
 74 75  2  0
 75 76  1  0
 77 76  2  0
 78 77  1  0
 79 53  1  0
 79 80  1  0
 79 89  1  0
 80 83  1  0
 81 85  1  0
 81 80  1  0
 82 81  2  0
 85 84  1  0
 87 85  1  0
 87 88  1  0
 87 86  1  0
 89 92  1  1
 89 90  1  0
 91 89  1  0
M  ISO  4   5 101  14 100  22 100  52 101
M  END
>  <TORSDO>  (82) 
F 17

>  <SCORE>  (82) 
-13.833

>  <name>  (82) 
81

>  <ligand_id>  (82) 
81

>  <original_smiles>  (82) 
[H]c1sc(N([H])C(=O)N2C([H])([H])C([H])([H])C([H])([H])C([H])(n3nc(-c4c([H])c([H])c(Oc5c([H])c([H])c(F)c([H])c5F)c([H])c4[H])c(C(=O)N([H])[H])c3N([H])[H])C2([H])[H])c(C([H])([H])[H])c1N1C(=O)C([H])(Oc2c([H])c([H])c3c(c2[H])C([H])([H])N(C(=O)C([H])(N([H])C(=O)C([H])(N([H])C([H])([H])[H])C([H])([H])[H])C(C([H])([H])[H])(C([H])([H])[H])C([H])([H])[H])C([H])(C(=O)N([H])C2([H])c4c([H])c([H])c([H])c([H])c4C([H])([H])C([H])([H])C2([H])[H])C3([H])[H])C([H])([H])C([H])([H])C1([H])[H]

>  <smiles>  (82) 
[H]c1sc(N([H])C(=O)N2C([H])([H])C([H])([H])C([H])([H])C([H])(n3nc(-c4c([H])c([H])c(Oc5c([H])c([H])c(F)c([H])c5F)c([H])c4[H])c(C(=O)N([H])[H])c3N([H])[H])C2([H])[H])c(C([H])([H])[H])c1N1C(=O)C([H])(Oc2c([H])c([H])c3c(c2[H])C([H])([H])N(C(=O)C([H])(N([H])C(=O)C([H])(N([H])C([H])([H])[H])C([H])([H])[H])C(C([H])([H])[H])(C([H])([H])[H])C([H])([H])[H])C([H])(C(=O)N([H])C2([H])c4c([H])c([H])c([H])c([H])c4C([H])([H])C([H])([H])C2([H])[H])C3([H])[H])C([H])([H])C([H])([H])C1([H])[H]

$$$$
82:0:0
     RDKit          3D

 95104  0  0  1  0  0  0  0  0999 V2000
  -29.3090  -23.1130   20.2980 C   0  0  0  0  0  3  0  0  0  0  0  0
  -29.3890  -24.4470   20.0720 C   0  0  0  0  0  0  0  0  0  0  0  0
  -31.6870  -22.7460   20.3760 C   0  0  0  0  0  0  0  0  0  0  0  0
  -30.7210  -25.1550   20.1300 C   0  0  0  0  0  2  0  0  0  0  0  0
  -31.9030  -24.2000   19.9290 C   0  0  0  0  0  2  0  0  0  0  0  0
  -30.4170  -22.2640   20.5420 N   0  0  0  0  0  0  0  0  0  0  0  0
  -32.7210  -22.0820   20.5300 O   0  0  0  0  0  0  0  0  0  0  0  0
  -28.9380  -18.7440   20.4660 C   0  0  0  0  0  3  0  0  0  0  0  0
  -30.9650  -18.7160   21.7740 C   0  0  0  0  0  3  0  0  0  0  0  0
  -29.0710  -20.1430   20.2860 C   0  0  0  0  0  3  0  0  0  0  0  0
  -31.0560  -20.1170   21.6570 C   0  0  0  0  0  3  0  0  0  0  0  0
  -29.9470  -17.9900   21.1190 C   0  0  0  0  0  0  0  0  0  0  0  0
  -30.1760  -20.8560   20.8280 C   0  0  0  0  0  0  0  0  0  0  0  0
  -30.8470  -14.6240   19.9820 C   0  0  0  0  0  0  0  0  0  0  0  0
  -30.5090  -12.4340   18.9070 C   0  0  0  0  0  2  0  0  0  0  0  0
  -29.5000  -12.5790   17.7480 C   0  0  0  0  0  2  0  0  0  0  0  0
  -28.0490  -12.4630   18.2560 C   0  0  0  0  0  2  0  0  0  0  0  0
  -27.7740  -13.3070   19.5330 C   0  0  0  0  0  3  0  0  0  0  0  0
  -28.9010  -13.1310   20.5790 C   0  0  0  0  0  2  0  0  0  0  0  0
  -30.1720  -13.4450   19.9180 N   0  0  0  0  0  0  0  0  0  0  0  0
  -32.0050  -14.7370   19.5670 O   0  0  0  0  0  0  0  0  0  0  0  0
  -29.9890  -16.4670   21.1790 C   0  0  0  0  0  0  0  0  0  0  0  0
  -29.8810  -16.3550   18.6920 C   0  0  0  0  0  1  0  0  0  0  0  0
  -30.0740  -15.7400   20.0230 N   0  0  0  0  0  0  0  0  0  0  0  0
  -30.0690  -15.9520   22.3020 O   0  0  0  0  0  0  0  0  0  0  0  0
  -25.4400  -13.8840   20.4440 C   0  0  0  0  0  0  0  0  0  0  0  0
  -24.4010  -13.0940   20.8660 C   0  0  0  0  0  0  0  0  0  0  0  0
  -24.8590  -11.7480   20.7510 C   0  0  0  0  0  0  0  0  0  0  0  0
  -26.4610  -13.0110   20.1050 N   0  0  0  0  0  0  0  0  0  0  0  0
  -26.1230  -11.7210   20.3590 N   0  0  0  0  0  0  0  0  0  0  0  0
  -24.1480  -10.4760   20.9370 C   0  0  0  0  0  0  0  0  0  0  0  0
  -24.5660   -9.5250   21.8920 C   0  0  0  0  0  3  0  0  0  0  0  0
  -23.8470   -8.3240   22.0650 C   0  0  0  0  0  3  0  0  0  0  0  0
  -22.7000   -8.0620   21.2790 C   0  0  0  0  0  0  0  0  0  0  0  0
  -22.3040   -9.0000   20.3090 C   0  0  0  0  0  3  0  0  0  0  0  0
  -23.0260  -10.1950   20.1330 C   0  0  0  0  0  3  0  0  0  0  0  0
  -21.9610   -6.9070   21.3560 O   0  0  0  0  0  0  0  0  0  0  0  0
  -21.7870   -6.2430   22.5430 C   0  0  0  0  0  0  0  0  0  0  0  0
  -21.1890   -6.8610   23.6640 C   0  0  0  0  0  3  0  0  0  0  0  0
  -20.9710   -6.1200   24.8410 C   0  0  0  0  0  3  0  0  0  0  0  0
  -21.3390   -4.7640   24.9030 C   0  0  0  0  0  0  0  0  0  0  0  0
  -21.9300   -4.1470   23.7860 C   0  0  0  0  0  3  0  0  0  0  0  0
  -22.1540   -4.8820   22.6120 C   0  0  0  0  0  0  0  0  0  0  0  0
  -22.7060   -4.2760   21.5320 F   0  0  0  0  0  0  0  0  0  0  0  0
  -21.1240   -4.0500   26.0320 F   0  0  0  0  0  0  0  0  0  0  0  0
  -23.0250  -13.5610   21.2460 C   0  0  0  0  0  0  0  0  0  0  0  0
  -22.3620  -12.8600   22.1610 N   0  0  0  0  0  0  0  0  0  0  0  0
  -22.5440  -14.5890   20.7690 O   0  0  0  0  0  0  0  0  0  0  0  0
  -22.7650  -12.0490   22.6100 H   0  0  0  0  0  0  0  0  0  0  0  0
  -21.4350  -13.1610   22.4340 H   0  0  0  0  0  0  0  0  0  0  0  0
  -25.5840  -15.2590   20.2880 N   0  0  0  0  0  0  0  0  0  0  0  0
  -24.7870  -15.8760   20.3820 H   0  0  0  0  0  0  0  0  0  0  0  0
  -26.3710  -15.6970   19.8250 H   0  0  0  0  0  0  0  0  0  0  0  0
  -28.1710  -25.3180   19.7750 C   0  0  0  0  0  2  0  0  0  0  0  0
  -28.3370  -26.7110   20.1250 O   0  0  0  0  0  0  0  0  0  0  0  0
  -24.6640  -31.9220   23.3400 C   0  0  0  0  0  0  0  0  0  0  0  0
  -27.1930  -27.4940   20.1110 C   0  0  0  0  0  0  0  0  0  0  0  0
  -23.4220  -30.5720   21.6870 C   0  0  0  0  0  3  0  0  0  0  0  0
  -24.8320  -29.0610   20.2020 C   0  0  0  0  0  0  0  0  0  0  0  0
  -25.9550  -30.8990   21.4620 C   0  0  0  0  0  2  0  0  0  0  0  0
  -26.0130  -29.5450   20.7790 C   0  0  0  0  0  0  0  0  0  0  0  0
  -27.2010  -28.7740   20.7210 C   0  0  0  0  0  3  0  0  0  0  0  0
  -25.9910  -27.0460   19.5100 C   0  0  0  0  0  3  0  0  0  0  0  0
  -24.8180  -27.8160   19.5590 C   0  0  0  0  0  3  0  0  0  0  0  0
  -23.6040  -29.9370   20.2860 C   0  0  0  0  0  2  0  0  0  0  0  0
  -24.7010  -31.1420   22.2220 N   0  0  0  0  0  0  0  0  0  0  0  0
  -23.5910  -32.1940   23.8960 O   0  0  0  0  0  0  0  0  0  0  0  0
  -22.7690  -29.5340   22.6290 C   0  0  0  0  0  0  0  0  0  0  0  0
  -21.4470  -29.3450   22.4860 N   0  0  0  0  0  0  0  0  0  0  0  0
  -23.4470  -28.9080   23.4470 O   0  0  0  0  0  0  0  0  0  0  0  0
  -20.9640  -29.9010   21.7960 H   0  0  0  0  0  0  0  0  0  0  0  0
  -18.0740  -28.1270   22.9430 C   0  0  0  0  0  0  0  0  0  0  0  0
  -20.6260  -28.3960   23.2400 C   0  0  0  0  0  3  0  0  0  0  0  0
  -20.7440  -26.9730   22.6500 C   0  0  0  0  0  2  0  0  0  0  0  0
  -19.6510  -26.6520   21.6240 C   0  0  0  0  0  2  0  0  0  0  0  0
  -18.2630  -26.7850   22.2580 C   0  0  0  0  0  2  0  0  0  0  0  0
  -19.1850  -28.8890   23.3890 C   0  0  0  0  0  0  0  0  0  0  0  0
  -18.9550  -30.1450   23.9930 C   0  0  0  0  0  3  0  0  0  0  0  0
  -17.6460  -30.6400   24.1480 C   0  0  0  0  0  3  0  0  0  0  0  0
  -16.5490  -29.8740   23.7150 C   0  0  0  0  0  3  0  0  0  0  0  0
  -16.7640  -28.6180   23.1210 C   0  0  0  0  0  3  0  0  0  0  0  0
  -25.9630  -32.5230   23.9600 C   0  0  0  0  0  3  0  0  0  0  0  0
  -25.6850  -33.9290   24.2790 N   0  0  0  0  0  0  0  0  0  0  0  0
  -26.0120  -34.9660   23.4980 C   0  0  0  0  0  0  0  0  0  0  0  0
  -26.6490  -34.8370   22.4480 O   0  0  0  0  0  0  0  0  0  0  0  0
  -25.1120  -34.1060   25.0930 H   0  0  0  0  0  0  0  0  0  0  0  0
  -24.2840  -36.7670   23.1940 C   0  0  0  0  0  1  0  0  0  0  0  0
  -25.5600  -36.3690   23.9510 C   0  0  0  0  0  3  0  0  0  0  0  0
  -27.7360  -37.2480   24.6660 C   0  0  0  0  0  1  0  0  0  0  0  0
  -26.5960  -37.4060   23.7690 N   0  0  0  0  0  0  0  0  0  0  0  0
  -26.2070  -38.3350   23.9140 H   0  0  0  0  0  0  0  0  0  0  0  0
  -26.4610  -31.7440   25.2380 C   0  0  1  0  0  0  0  0  0  0  0  0
  -25.3610  -31.5200   26.3010 C   0  0  0  0  0  1  0  0  0  0  0  0
  -27.0180  -30.3560   24.8470 C   0  0  0  0  0  1  0  0  0  0  0  0
  -27.6240  -32.5210   25.8970 C   0  0  0  0  0  1  0  0  0  0  0  0
  1  6  1  0
  2  4  1  0
  2  1  2  0
  3  7  2  0
  3  6  1  0
  5  4  1  0
  5  3  1  0
  6 13  1  0
  8 12  1  0
 10  8  2  0
 10 13  1  0
 11  9  1  0
 12 22  1  0
 12  9  2  0
 13 11  2  0
 14 24  1  0
 15 20  1  0
 16 17  1  0
 16 15  1  0
 18 17  1  0
 18 29  1  0
 18 19  1  0
 20 14  1  0
 20 19  1  0
 21 14  2  0
 22 25  2  0
 23 24  1  0
 24 22  1  0
 26 27  2  0
 27 46  1  0
 28 27  1  0
 28 31  1  0
 29 30  1  0
 29 26  1  0
 30 28  2  0
 31 32  1  0
 32 33  2  0
 34 37  1  0
 34 33  1  0
 35 34  2  0
 36 35  1  0
 36 31  2  0
 37 38  1  0
 38 43  2  0
 38 39  1  0
 39 40  2  0
 40 41  1  0
 41 45  1  0
 42 41  2  0
 43 42  1  0
 44 43  1  0
 46 47  1  0
 47 50  1  0
 47 49  1  0
 48 46  2  0
 51 52  1  0
 51 26  1  0
 53 51  1  0
 54  2  1  0
 54 55  1  0
 56 67  2  0
 57 55  1  0
 57 62  1  0
 58 66  1  0
 58 68  1  0
 59 65  1  0
 59 61  1  0
 60 66  1  0
 61 60  1  0
 62 61  2  0
 63 64  1  0
 63 57  2  0
 64 59  2  0
 65 58  1  0
 66 56  1  0
 68 70  2  0
 69 68  1  0
 71 69  1  0
 72 81  2  0
 72 77  1  0
 73 69  1  0
 73 77  1  0
 74 73  1  0
 75 76  1  0
 75 74  1  0
 76 72  1  0
 77 78  2  0
 78 79  1  0
 80 79  2  0
 81 80  1  0
 82 56  1  0
 82 83  1  0
 82 92  1  0
 83 86  1  0
 84 88  1  0
 84 83  1  0
 85 84  2  0
 88 87  1  0
 90 91  1  0
 90 88  1  0
 90 89  1  0
 92 95  1  1
 92 93  1  0
 94 92  1  0
M  ISO  4  14 100  24 100  54 101  55 101
M  END
>  <TORSDO>  (83) 
F 18

>  <SCORE>  (83) 
-14.523

>  <name>  (83) 
82

>  <ligand_id>  (83) 
82

>  <original_smiles>  (83) 
[H]C1=C(C([H])([H])Oc2c([H])c([H])c3c(c2[H])C([H])([H])N(C(=O)C([H])(N([H])C(=O)C([H])(N([H])C([H])([H])[H])C([H])([H])[H])C(C([H])([H])[H])(C([H])([H])[H])C([H])([H])[H])C([H])(C(=O)N([H])C2([H])c4c([H])c([H])c([H])c([H])c4C([H])([H])C([H])([H])C2([H])[H])C3([H])[H])C([H])([H])C([H])([H])C(=O)N1c1c([H])c([H])c(C(=O)N(C(=O)N2C([H])([H])C([H])([H])C([H])([H])C([H])(n3nc(-c4c([H])c([H])c(Oc5c([H])c([H])c(F)c([H])c5F)c([H])c4[H])c(C(=O)N([H])[H])c3N([H])[H])C2([H])[H])C([H])([H])[H])c([H])c1[H]

>  <smiles>  (83) 
[H]C1=C(C([H])([H])Oc2c([H])c([H])c3c(c2[H])C([H])([H])N(C(=O)C([H])(N([H])C(=O)C([H])(N([H])C([H])([H])[H])C([H])([H])[H])C(C([H])([H])[H])(C([H])([H])[H])C([H])([H])[H])C([H])(C(=O)N([H])C2([H])c4c([H])c([H])c([H])c([H])c4C([H])([H])C([H])([H])C2([H])[H])C3([H])[H])C([H])([H])C([H])([H])C(=O)N1c1c([H])c([H])c(C(=O)N(C(=O)N2C([H])([H])C([H])([H])C([H])([H])C([H])(n3nc(-c4c([H])c([H])c(Oc5c([H])c([H])c(F)c([H])c5F)c([H])c4[H])c(C(=O)N([H])[H])c3N([H])[H])C2([H])[H])C([H])([H])[H])c([H])c1[H]

$$$$
83:0:0
     RDKit          3D

 93101  0  0  1  0  0  0  0  0999 V2000
  -30.2130  -21.7350   20.6030 C   0  0  0  0  0  0  0  0  0  0  0  0
  -29.3320  -24.0610   20.4060 C   0  0  0  0  0  0  0  0  0  0  0  0
  -29.2590  -22.6780   20.2690 N   0  0  0  0  0  0  0  0  0  0  0  0
  -31.3090  -22.0670   21.0690 O   0  0  0  0  0  0  0  0  0  0  0  0
  -30.3110  -24.6320   20.9050 O   0  0  0  0  0  0  0  0  0  0  0  0
  -28.4120  -22.3150   19.8590 H   0  0  0  0  0  0  0  0  0  0  0  0
  -31.2050  -19.3810   20.2340 C   0  0  0  0  0  3  0  0  0  0  0  0
  -31.1690  -17.9520   20.2370 C   0  0  0  0  0  3  0  0  0  0  0  0
  -28.8280  -19.4870   20.5360 C   0  0  0  0  0  3  0  0  0  0  0  0
  -30.0470  -20.2030   20.3970 C   0  0  0  0  0  0  0  0  0  0  0  0
  -29.9540  -17.2420   20.4100 C   0  0  0  0  0  0  0  0  0  0  0  0
  -28.7900  -18.0540   20.5400 C   0  0  0  0  0  0  0  0  0  0  0  0
  -27.5940  -17.4350   20.6950 F   0  0  0  0  0  0  0  0  0  0  0  0
  -30.5890  -14.7180   20.0730 C   0  0  0  0  0  0  0  0  0  0  0  0
  -30.3050  -12.5060   18.9620 C   0  0  0  0  0  2  0  0  0  0  0  0
  -29.2960  -12.6740   17.8040 C   0  0  0  0  0  2  0  0  0  0  0  0
  -27.8470  -12.5120   18.3080 C   0  0  0  0  0  2  0  0  0  0  0  0
  -27.5660  -13.3410   19.5900 C   0  0  0  0  0  3  0  0  0  0  0  0
  -28.6830  -13.1470   20.6400 C   0  0  0  0  0  2  0  0  0  0  0  0
  -29.9600  -13.5000   20.0000 N   0  0  0  0  0  0  0  0  0  0  0  0
  -31.7360  -14.8630   19.6410 O   0  0  0  0  0  0  0  0  0  0  0  0
  -29.8100  -15.7780   20.4750 N   0  0  0  0  0  0  0  0  0  0  0  0
  -28.9030  -15.4890   20.8100 H   0  0  0  0  0  0  0  0  0  0  0  0
  -25.2170  -13.9390   20.4420 C   0  0  0  0  0  0  0  0  0  0  0  0
  -24.1640  -13.1650   20.8490 C   0  0  0  0  0  0  0  0  0  0  0  0
  -24.6160  -11.8130   20.7720 C   0  0  0  0  0  0  0  0  0  0  0  0
  -26.2430  -13.0570   20.1400 N   0  0  0  0  0  0  0  0  0  0  0  0
  -25.8890  -11.7720   20.3980 N   0  0  0  0  0  0  0  0  0  0  0  0
  -23.8910  -10.5510   20.9760 C   0  0  0  0  0  0  0  0  0  0  0  0
  -24.3500   -9.5750   21.8860 C   0  0  0  0  0  3  0  0  0  0  0  0
  -23.6250   -8.3780   22.0780 C   0  0  0  0  0  3  0  0  0  0  0  0
  -22.4260   -8.1510   21.3600 C   0  0  0  0  0  0  0  0  0  0  0  0
  -21.9870   -9.1170   20.4390 C   0  0  0  0  0  3  0  0  0  0  0  0
  -22.7120  -10.3040   20.2440 C   0  0  0  0  0  3  0  0  0  0  0  0
  -21.6710   -7.0090   21.4630 O   0  0  0  0  0  0  0  0  0  0  0  0
  -21.6380   -6.2690   22.6180 C   0  0  0  0  0  0  0  0  0  0  0  0
  -21.2300   -6.8260   23.8490 C   0  0  0  0  0  3  0  0  0  0  0  0
  -21.1450   -6.0120   24.9960 C   0  0  0  0  0  3  0  0  0  0  0  0
  -21.4580   -4.6420   24.9140 C   0  0  0  0  0  0  0  0  0  0  0  0
  -21.8600   -4.0850   23.6880 C   0  0  0  0  0  3  0  0  0  0  0  0
  -21.9470   -4.8950   22.5420 C   0  0  0  0  0  0  0  0  0  0  0  0
  -22.3140   -4.3480   21.3580 F   0  0  0  0  0  0  0  0  0  0  0  0
  -21.3690   -3.8580   26.0140 F   0  0  0  0  0  0  0  0  0  0  0  0
  -22.7870  -13.6460   21.2020 C   0  0  0  0  0  0  0  0  0  0  0  0
  -22.1010  -12.9410   22.0940 N   0  0  0  0  0  0  0  0  0  0  0  0
  -22.3290  -14.6830   20.7210 O   0  0  0  0  0  0  0  0  0  0  0  0
  -22.4850  -12.1030   22.5040 H   0  0  0  0  0  0  0  0  0  0  0  0
  -21.1780  -13.2450   22.3730 H   0  0  0  0  0  0  0  0  0  0  0  0
  -25.3800  -15.3120   20.2870 N   0  0  0  0  0  0  0  0  0  0  0  0
  -24.6310  -15.9660   20.4830 H   0  0  0  0  0  0  0  0  0  0  0  0
  -26.2360  -15.7730   20.0040 H   0  0  0  0  0  0  0  0  0  0  0  0
  -28.1590  -25.0130   19.9320 C   0  0  0  0  0  2  0  0  0  0  0  0
  -28.3660  -26.4780   20.1590 O   0  0  0  0  0  0  0  0  0  0  0  0
  -24.6280  -31.8680   23.2030 C   0  0  0  0  0  0  0  0  0  0  0  0
  -27.2470  -27.3310   20.1090 C   0  0  0  0  0  0  0  0  0  0  0  0
  -23.4260  -30.4810   21.5540 C   0  0  0  0  0  3  0  0  0  0  0  0
  -24.8780  -28.9450   20.1130 C   0  0  0  0  0  0  0  0  0  0  0  0
  -25.9660  -30.8040   21.3700 C   0  0  0  0  0  2  0  0  0  0  0  0
  -26.0480  -29.4300   20.7120 C   0  0  0  0  0  0  0  0  0  0  0  0
  -27.2350  -28.6350   20.6990 C   0  0  0  0  0  3  0  0  0  0  0  0
  -26.0520  -26.9040   19.4830 C   0  0  0  0  0  3  0  0  0  0  0  0
  -24.8830  -27.6890   19.4890 C   0  0  0  0  0  3  0  0  0  0  0  0
  -23.6390  -29.8170   20.1690 C   0  0  0  0  0  2  0  0  0  0  0  0
  -24.6920  -31.0680   22.0990 N   0  0  0  0  0  0  0  0  0  0  0  0
  -23.5450  -32.1400   23.7410 O   0  0  0  0  0  0  0  0  0  0  0  0
  -22.7650  -29.4550   22.5070 C   0  0  0  0  0  0  0  0  0  0  0  0
  -21.4370  -29.2860   22.3890 N   0  0  0  0  0  0  0  0  0  0  0  0
  -23.4480  -28.8160   23.3120 O   0  0  0  0  0  0  0  0  0  0  0  0
  -20.9460  -29.8540   21.7120 H   0  0  0  0  0  0  0  0  0  0  0  0
  -18.0560  -28.1140   22.9130 C   0  0  0  0  0  0  0  0  0  0  0  0
  -20.6200  -28.3440   23.1550 C   0  0  0  0  0  3  0  0  0  0  0  0
  -20.7010  -26.9210   22.5550 C   0  0  0  0  0  2  0  0  0  0  0  0
  -19.5820  -26.6250   21.5500 C   0  0  0  0  0  2  0  0  0  0  0  0
  -18.2100  -26.7740   22.2140 C   0  0  0  0  0  2  0  0  0  0  0  0
  -19.1870  -28.8580   23.3410 C   0  0  0  0  0  0  0  0  0  0  0  0
  -18.9870  -30.1130   23.9560 C   0  0  0  0  0  3  0  0  0  0  0  0
  -17.6900  -30.6240   24.1460 C   0  0  0  0  0  3  0  0  0  0  0  0
  -16.5730  -29.8760   23.7340 C   0  0  0  0  0  3  0  0  0  0  0  0
  -16.7560  -28.6220   23.1230 C   0  0  0  0  0  3  0  0  0  0  0  0
  -25.9110  -32.4980   23.8300 C   0  0  0  0  0  3  0  0  0  0  0  0
  -25.5990  -33.8940   24.1690 N   0  0  0  0  0  0  0  0  0  0  0  0
  -25.9180  -34.9520   23.4120 C   0  0  0  0  0  0  0  0  0  0  0  0
  -26.5750  -34.8570   22.3730 O   0  0  0  0  0  0  0  0  0  0  0  0
  -25.0130  -34.0420   24.9780 H   0  0  0  0  0  0  0  0  0  0  0  0
  -24.1740  -36.7370   23.0950 C   0  0  0  0  0  1  0  0  0  0  0  0
  -25.4320  -36.3370   23.8830 C   0  0  0  0  0  3  0  0  0  0  0  0
  -27.5730  -37.2340   24.6810 C   0  0  0  0  0  1  0  0  0  0  0  0
  -26.4560  -37.3950   23.7540 N   0  0  0  0  0  0  0  0  0  0  0  0
  -26.0470  -38.3140   23.9070 H   0  0  0  0  0  0  0  0  0  0  0  0
  -26.4280  -31.7200   25.1010 C   0  0  1  0  0  0  0  0  0  0  0  0
  -25.3340  -31.4730   26.1670 C   0  0  0  0  0  1  0  0  0  0  0  0
  -27.0130  -30.3460   24.7020 C   0  0  0  0  0  1  0  0  0  0  0  0
  -27.5750  -32.5130   25.7700 C   0  0  0  0  0  1  0  0  0  0  0  0
  1  4  2  0
  2  5  2  0
  3  2  1  0
  3  1  1  0
  6  3  1  0
  7  8  2  0
  7 10  1  0
  8 11  1  0
  9 12  1  0
 10  9  2  0
 10  1  1  0
 11 22  1  0
 11 12  2  0
 12 13  1  0
 14 22  1  0
 15 20  1  0
 16 17  1  0
 16 15  1  0
 18 17  1  0
 18 27  1  0
 18 19  1  0
 20 14  1  0
 20 19  1  0
 21 14  2  0
 22 23  1  0
 24 25  2  0
 25 44  1  0
 26 25  1  0
 26 29  1  0
 27 28  1  0
 27 24  1  0
 28 26  2  0
 29 30  1  0
 30 31  2  0
 32 35  1  0
 32 31  1  0
 33 32  2  0
 34 33  1  0
 34 29  2  0
 35 36  1  0
 36 37  1  0
 37 38  2  0
 39 38  1  0
 39 43  1  0
 40 39  2  0
 41 36  2  0
 41 40  1  0
 42 41  1  0
 44 45  1  0
 45 48  1  0
 45 47  1  0
 46 44  2  0
 49 24  1  0
 49 50  1  0
 51 49  1  0
 52 53  1  0
 52  2  1  0
 54 65  2  0
 55 53  1  0
 55 60  1  0
 56 64  1  0
 56 66  1  0
 57 63  1  0
 57 59  1  0
 58 64  1  0
 59 58  1  0
 60 59  2  0
 61 62  1  0
 61 55  2  0
 62 57  2  0
 63 56  1  0
 64 54  1  0
 66 68  2  0
 67 66  1  0
 69 67  1  0
 70 79  2  0
 70 75  1  0
 71 67  1  0
 71 75  1  0
 72 71  1  0
 73 74  1  0
 73 72  1  0
 74 70  1  0
 75 76  2  0
 76 77  1  0
 78 77  2  0
 79 78  1  0
 80 54  1  0
 80 81  1  0
 80 90  1  0
 81 84  1  0
 82 86  1  0
 82 81  1  0
 83 82  2  0
 86 85  1  0
 88 86  1  0
 88 89  1  0
 88 87  1  0
 90 93  1  1
 90 91  1  0
 92 90  1  0
M  ISO  4  14 100  22 100  52 101  53 101
M  END
>  <TORSDO>  (84) 
F 18

>  <SCORE>  (84) 
-14.869

>  <name>  (84) 
83

>  <ligand_id>  (84) 
83

>  <original_smiles>  (84) 
[H]c1c([H])c([H])c2c(c1[H])C([H])([H])C([H])([H])C([H])([H])C2([H])N([H])C(=O)C1([H])N(C(=O)C([H])(N([H])C(=O)C([H])(N([H])C([H])([H])[H])C([H])([H])[H])C(C([H])([H])[H])(C([H])([H])[H])C([H])([H])[H])C([H])([H])c2c([H])c(OC([H])([H])C(=O)N([H])C(=O)c3c([H])c([H])c(N([H])C(=O)N4C([H])([H])C([H])([H])C([H])([H])C([H])(n5nc(-c6c([H])c([H])c(Oc7c([H])c([H])c(F)c([H])c7F)c([H])c6[H])c(C(=O)N([H])[H])c5N([H])[H])C4([H])[H])c(F)c3[H])c([H])c([H])c2C1([H])[H]

>  <smiles>  (84) 
[H]c1c([H])c([H])c2c(c1[H])C([H])([H])C([H])([H])C([H])([H])C2([H])N([H])C(=O)C1([H])N(C(=O)C([H])(N([H])C(=O)C([H])(N([H])C([H])([H])[H])C([H])([H])[H])C(C([H])([H])[H])(C([H])([H])[H])C([H])([H])[H])C([H])([H])c2c([H])c(OC([H])([H])C(=O)N([H])C(=O)c3c([H])c([H])c(N([H])C(=O)N4C([H])([H])C([H])([H])C([H])([H])C([H])(n5nc(-c6c([H])c([H])c(Oc7c([H])c([H])c(F)c([H])c7F)c([H])c6[H])c(C(=O)N([H])[H])c5N([H])[H])C4([H])[H])c(F)c3[H])c([H])c([H])c2C1([H])[H]

$$$$
84:0:0
     RDKit          3D

 95103  0  0  1  0  0  0  0  0999 V2000
  -30.4910  -19.9750   19.6770 C   0  0  0  0  0  3  0  0  0  0  0  0
  -29.1000  -20.2570   21.6570 C   0  0  0  0  0  3  0  0  0  0  0  0
  -30.5930  -21.3790   19.5500 C   0  0  0  0  0  3  0  0  0  0  0  0
  -29.2320  -21.6640   21.5390 C   0  0  0  0  0  3  0  0  0  0  0  0
  -29.6810  -19.3880   20.6860 C   0  0  0  0  0  0  0  0  0  0  0  0
  -29.9220  -22.2360   20.4360 C   0  0  0  0  0  0  0  0  0  0  0  0
  -29.7860  -24.7010   20.8250 C   0  0  0  0  0  0  0  0  0  0  0  0
  -29.7480  -23.6020   20.0580 N   0  0  0  0  0  0  0  0  0  0  0  0
  -30.7060  -24.9880   21.6160 O   0  0  0  0  0  0  0  0  0  0  0  0
  -29.1030  -23.7040   19.2920 H   0  0  0  0  0  0  0  0  0  0  0  0
  -28.5050  -25.5560   20.7180 C   0  0  0  0  0  2  0  0  0  0  0  0
  -28.6280  -26.8830   20.1910 O   0  0  0  0  0  0  0  0  0  0  0  0
  -24.5710  -31.9240   23.2040 C   0  0  0  0  0  0  0  0  0  0  0  0
  -27.4100  -27.5700   20.1720 C   0  0  0  0  0  0  0  0  0  0  0  0
  -23.4170  -30.4940   21.5480 C   0  0  0  0  0  3  0  0  0  0  0  0
  -24.9340  -28.9750   20.1730 C   0  0  0  0  0  0  0  0  0  0  0  0
  -25.9300  -30.9200   21.3810 C   0  0  0  0  0  2  0  0  0  0  0  0
  -26.0720  -29.5470   20.7540 C   0  0  0  0  0  0  0  0  0  0  0  0
  -27.3160  -28.8620   20.7360 C   0  0  0  0  0  3  0  0  0  0  0  0
  -26.2480  -27.0170   19.5830 C   0  0  0  0  0  3  0  0  0  0  0  0
  -25.0190  -27.7010   19.5950 C   0  0  0  0  0  3  0  0  0  0  0  0
  -23.6620  -29.7890   20.1830 C   0  0  0  0  0  2  0  0  0  0  0  0
  -24.6520  -31.1290   22.1050 N   0  0  0  0  0  0  0  0  0  0  0  0
  -23.4800  -32.1810   23.7300 O   0  0  0  0  0  0  0  0  0  0  0  0
  -22.7620  -29.4740   22.5110 C   0  0  0  0  0  0  0  0  0  0  0  0
  -21.4380  -29.2790   22.3660 N   0  0  0  0  0  0  0  0  0  0  0  0
  -23.4430  -28.8570   23.3320 O   0  0  0  0  0  0  0  0  0  0  0  0
  -20.9560  -29.8280   21.6690 H   0  0  0  0  0  0  0  0  0  0  0  0
  -18.0680  -28.0890   22.8650 C   0  0  0  0  0  0  0  0  0  0  0  0
  -20.6250  -28.3350   23.1320 C   0  0  0  0  0  3  0  0  0  0  0  0
  -20.7220  -26.9120   22.5360 C   0  0  0  0  0  2  0  0  0  0  0  0
  -19.6160  -26.6040   21.5240 C   0  0  0  0  0  2  0  0  0  0  0  0
  -18.2380  -26.7440   22.1730 C   0  0  0  0  0  2  0  0  0  0  0  0
  -19.1880  -28.8410   23.2980 C   0  0  0  0  0  0  0  0  0  0  0  0
  -18.9750  -30.0990   23.9050 C   0  0  0  0  0  3  0  0  0  0  0  0
  -17.6710  -30.6010   24.0820 C   0  0  0  0  0  3  0  0  0  0  0  0
  -16.5650  -29.8450   23.6610 C   0  0  0  0  0  3  0  0  0  0  0  0
  -16.7620  -28.5890   23.0590 C   0  0  0  0  0  3  0  0  0  0  0  0
  -25.8420  -32.5750   23.8390 C   0  0  0  0  0  3  0  0  0  0  0  0
  -26.3690  -31.8050   25.1120 C   0  0  1  0  0  0  0  0  0  0  0  0
  -25.2580  -31.4720   26.1340 C   0  0  0  0  0  1  0  0  0  0  0  0
  -27.0490  -30.4750   24.7060 C   0  0  0  0  0  1  0  0  0  0  0  0
  -27.4490  -32.6490   25.8280 C   0  0  0  0  0  1  0  0  0  0  0  0
  -25.5050  -33.9660   24.1730 N   0  0  0  0  0  0  0  0  0  0  0  0
  -25.8210  -35.0300   23.4200 C   0  0  0  0  0  0  0  0  0  0  0  0
  -26.5020  -34.9400   22.3940 O   0  0  0  0  0  0  0  0  0  0  0  0
  -24.8920  -34.1020   24.9640 H   0  0  0  0  0  0  0  0  0  0  0  0
  -24.0660  -36.7920   23.0590 C   0  0  0  0  0  1  0  0  0  0  0  0
  -25.3040  -36.4060   23.8810 C   0  0  0  0  0  3  0  0  0  0  0  0
  -27.4100  -37.3270   24.7450 C   0  0  0  0  0  1  0  0  0  0  0  0
  -26.3160  -37.4750   23.7830 N   0  0  0  0  0  0  0  0  0  0  0  0
  -25.8950  -38.3850   23.9260 H   0  0  0  0  0  0  0  0  0  0  0  0
  -29.2810  -17.8910   20.5900 C   0  0  0  0  0  3  0  0  0  0  0  0
  -30.7600  -14.5460   20.5120 C   0  0  0  0  0  0  0  0  0  0  0  0
  -30.4560  -12.3880   19.3500 C   0  0  0  0  0  2  0  0  0  0  0  0
  -29.5390  -12.6000   18.1300 C   0  0  0  0  0  2  0  0  0  0  0  0
  -28.0630  -12.4280   18.5410 C   0  0  0  0  0  2  0  0  0  0  0  0
  -27.7020  -13.3030   19.7710 C   0  0  0  0  0  3  0  0  0  0  0  0
  -28.7320  -13.0920   20.9040 C   0  0  0  0  0  2  0  0  0  0  0  0
  -30.0740  -13.3770   20.3640 N   0  0  0  0  0  0  0  0  0  0  0  0
  -31.9060  -14.6860   20.0710 O   0  0  0  0  0  0  0  0  0  0  0  0
  -30.3750  -16.8770   21.0220 C   0  0  0  0  0  0  0  0  0  0  0  0
  -30.0200  -15.5720   20.9740 N   0  0  0  0  0  0  0  0  0  0  0  0
  -31.5070  -17.2670   21.3220 O   0  0  0  0  0  0  0  0  0  0  0  0
  -29.0380  -15.3730   21.0740 H   0  0  0  0  0  0  0  0  0  0  0  0
  -25.2980  -13.9390   20.4340 C   0  0  0  0  0  0  0  0  0  0  0  0
  -24.2190  -13.1870   20.7960 C   0  0  0  0  0  0  0  0  0  0  0  0
  -24.6680  -11.8290   20.7900 C   0  0  0  0  0  0  0  0  0  0  0  0
  -26.3410  -13.0510   20.2310 N   0  0  0  0  0  0  0  0  0  0  0  0
  -25.9600  -11.7780   20.5010 N   0  0  0  0  0  0  0  0  0  0  0  0
  -23.9320  -10.5780   20.9810 C   0  0  0  0  0  0  0  0  0  0  0  0
  -24.3390   -9.6260   21.9430 C   0  0  0  0  0  3  0  0  0  0  0  0
  -23.6020   -8.4370   22.1260 C   0  0  0  0  0  3  0  0  0  0  0  0
  -22.4480   -8.1880   21.3450 C   0  0  0  0  0  0  0  0  0  0  0  0
  -22.0580   -9.1320   20.3800 C   0  0  0  0  0  3  0  0  0  0  0  0
  -22.7920  -10.3140   20.1940 C   0  0  0  0  0  3  0  0  0  0  0  0
  -21.6850   -7.0490   21.4340 O   0  0  0  0  0  0  0  0  0  0  0  0
  -21.5990   -6.3350   22.6020 C   0  0  0  0  0  0  0  0  0  0  0  0
  -21.0760   -6.8970   23.7860 C   0  0  0  0  0  3  0  0  0  0  0  0
  -20.9380   -6.1040   24.9410 C   0  0  0  0  0  3  0  0  0  0  0  0
  -21.3190   -4.7490   24.9150 C   0  0  0  0  0  0  0  0  0  0  0  0
  -21.8300   -4.1830   23.7340 C   0  0  0  0  0  3  0  0  0  0  0  0
  -21.9680   -4.9740   22.5810 C   0  0  0  0  0  0  0  0  0  0  0  0
  -22.4470   -4.4200   21.4390 F   0  0  0  0  0  0  0  0  0  0  0  0
  -21.1760   -3.9830   26.0230 F   0  0  0  0  0  0  0  0  0  0  0  0
  -22.8200  -13.6780   21.0390 C   0  0  0  0  0  0  0  0  0  0  0  0
  -22.0770  -13.0090   21.9080 N   0  0  0  0  0  0  0  0  0  0  0  0
  -22.3970  -14.6990   20.4920 O   0  0  0  0  0  0  0  0  0  0  0  0
  -22.4280  -12.1820   22.3680 H   0  0  0  0  0  0  0  0  0  0  0  0
  -21.1410  -13.3240   22.1170 H   0  0  0  0  0  0  0  0  0  0  0  0
  -25.4780  -15.3060   20.2430 N   0  0  0  0  0  0  0  0  0  0  0  0
  -24.7010  -15.9550   20.2850 H   0  0  0  0  0  0  0  0  0  0  0  0
  -26.3200  -15.7090   19.8550 H   0  0  0  0  0  0  0  0  0  0  0  0
  -27.5340  -17.4380   18.7730 C   0  0  0  0  0  2  0  0  0  0  0  0
  -28.8040  -17.6010   19.1700 C   0  0  0  0  0  3  0  0  0  0  0  0
  1  5  1  0
  3  1  2  0
  3  6  1  0
  4  2  1  0
  5  2  2  0
  6  4  2  0
  7  9  2  0
  8  6  1  0
  8  7  1  0
 10  8  1  0
 11  7  1  0
 12 11  1  0
 13 24  2  0
 14 12  1  0
 14 19  1  0
 15 23  1  0
 15 25  1  0
 16 22  1  0
 16 18  1  0
 17 23  1  0
 18 17  1  0
 19 18  2  0
 20 21  1  0
 20 14  2  0
 21 16  2  0
 22 15  1  0
 23 13  1  0
 25 27  2  0
 26 25  1  0
 28 26  1  0
 29 38  2  0
 29 34  1  0
 30 26  1  0
 30 34  1  0
 31 30  1  0
 32 33  1  0
 32 31  1  0
 33 29  1  0
 34 35  2  0
 35 36  1  0
 37 36  2  0
 38 37  1  0
 39 13  1  0
 39 44  1  0
 39 40  1  0
 40 43  1  1
 40 41  1  0
 42 40  1  0
 44 47  1  0
 45 49  1  0
 45 44  1  0
 46 45  2  0
 49 48  1  0
 51 49  1  0
 51 52  1  0
 51 50  1  0
 53 95  1  0
 53  5  1  0
 53 62  1  0
 54 63  1  0
 55 60  1  0
 56 57  1  0
 56 55  1  0
 58 57  1  0
 58 69  1  0
 58 59  1  0
 60 54  1  0
 60 59  1  0
 61 54  2  0
 62 64  2  0
 63 62  1  0
 63 65  1  0
 66 67  2  0
 67 86  1  0
 68 67  1  0
 68 71  1  0
 69 66  1  0
 69 70  1  0
 70 68  2  0
 71 72  1  0
 72 73  2  0
 74 77  1  0
 74 73  1  0
 75 74  2  0
 76 75  1  0
 76 71  2  0
 77 78  1  0
 78 79  1  0
 79 80  2  0
 81 80  1  0
 81 85  1  0
 82 81  2  0
 83 78  2  0
 83 82  1  0
 84 83  1  0
 86 87  1  0
 87 90  1  0
 87 89  1  0
 88 86  2  0
 91 92  1  0
 91 66  1  0
 93 91  1  0
 94 95  2  0
M  ISO  4  11 101  12 101  54 100  63 100
M  END
>  <TORSDO>  (85) 
F 20

>  <SCORE>  (85) 
-13.885

>  <name>  (85) 
84

>  <ligand_id>  (85) 
84

>  <original_smiles>  (85) 
[H]C([H])=C([H])C([H])(C(=O)N([H])C(=O)N1C([H])([H])C([H])([H])C([H])([H])C([H])(n2nc(-c3c([H])c([H])c(Oc4c([H])c([H])c(F)c([H])c4F)c([H])c3[H])c(C(=O)N([H])[H])c2N([H])[H])C1([H])[H])c1c([H])c([H])c(N([H])C(=O)C([H])([H])Oc2c([H])c([H])c3c(c2[H])C([H])([H])N(C(=O)C([H])(N([H])C(=O)C([H])(N([H])C([H])([H])[H])C([H])([H])[H])C(C([H])([H])[H])(C([H])([H])[H])C([H])([H])[H])C([H])(C(=O)N([H])C2([H])c4c([H])c([H])c([H])c([H])c4C([H])([H])C([H])([H])C2([H])[H])C3([H])[H])c([H])c1[H]

>  <smiles>  (85) 
[H]C([H])=C([H])C([H])(C(=O)N([H])C(=O)N1C([H])([H])C([H])([H])C([H])([H])C([H])(n2nc(-c3c([H])c([H])c(Oc4c([H])c([H])c(F)c([H])c4F)c([H])c3[H])c(C(=O)N([H])[H])c2N([H])[H])C1([H])[H])c1c([H])c([H])c(N([H])C(=O)C([H])([H])Oc2c([H])c([H])c3c(c2[H])C([H])([H])N(C(=O)C([H])(N([H])C(=O)C([H])(N([H])C([H])([H])[H])C([H])([H])[H])C(C([H])([H])[H])(C([H])([H])[H])C([H])([H])[H])C([H])(C(=O)N([H])C2([H])c4c([H])c([H])c([H])c([H])c4C([H])([H])C([H])([H])C2([H])[H])C3([H])[H])c([H])c1[H]

$$$$
85:0:0
     RDKit          3D

 91 99  0  0  1  0  0  0  0  0999 V2000
  -28.7650  -19.9270   20.3910 C   0  0  0  0  0  2  0  0  0  0  0  0
  -30.4590  -21.6000   20.0940 C   0  0  0  0  0  3  0  0  0  0  0  0
  -30.9940  -19.1150   20.0530 C   0  0  0  0  0  3  0  0  0  0  0  0
  -29.0730  -21.4510   20.3150 C   0  0  0  0  0  0  0  0  0  0  0  0
  -29.6710  -18.6660   20.2700 C   0  0  0  0  0  0  0  0  0  0  0  0
  -31.3640  -20.4960   19.9720 C   0  0  0  0  0  0  0  0  0  0  0  0
  -29.3620  -16.9530   20.3490 C   0  0  0  0  0  0  0  0  0  0  0  0
  -28.1400  -16.7410   20.6060 N   0  0  0  0  0  0  0  0  0  0  0  0
  -27.6460  -17.6170   20.7180 H   0  0  0  0  0  0  0  0  0  0  0  0
  -30.3320  -15.4350   20.1280 C   0  0  0  0  0  0  0  0  0  0  0  0
  -30.3500  -12.9740   19.2380 C   0  0  0  0  0  2  0  0  0  0  0  0
  -29.3890  -12.7570   18.0380 C   0  0  0  0  0  2  0  0  0  0  0  0
  -27.9590  -12.4500   18.5210 C   0  0  0  0  0  2  0  0  0  0  0  0
  -27.5340  -13.3880   19.6770 C   0  0  0  0  0  3  0  0  0  0  0  0
  -28.6200  -13.5310   20.7630 C   0  0  0  0  0  2  0  0  0  0  0  0
  -29.8170  -14.0940   20.1090 N   0  0  0  0  0  0  0  0  0  0  0  0
  -31.5400  -15.4640   19.8350 O   0  0  0  0  0  0  0  0  0  0  0  0
  -25.1930  -13.9090   20.5370 C   0  0  0  0  0  0  0  0  0  0  0  0
  -24.1490  -13.1170   20.9220 C   0  0  0  0  0  0  0  0  0  0  0  0
  -24.6250  -11.7720   20.8450 C   0  0  0  0  0  0  0  0  0  0  0  0
  -26.2310  -13.0480   20.2320 N   0  0  0  0  0  0  0  0  0  0  0  0
  -25.9050  -11.7530   20.4850 N   0  0  0  0  0  0  0  0  0  0  0  0
  -23.9130  -10.5000   21.0360 C   0  0  0  0  0  0  0  0  0  0  0  0
  -24.3730   -9.5240   21.9470 C   0  0  0  0  0  3  0  0  0  0  0  0
  -23.6570   -8.3200   22.1280 C   0  0  0  0  0  3  0  0  0  0  0  0
  -22.4680   -8.0840   21.3980 C   0  0  0  0  0  0  0  0  0  0  0  0
  -22.0270   -9.0500   20.4770 C   0  0  0  0  0  3  0  0  0  0  0  0
  -22.7430  -10.2450   20.2940 C   0  0  0  0  0  3  0  0  0  0  0  0
  -21.7230   -6.9340   21.4890 O   0  0  0  0  0  0  0  0  0  0  0  0
  -21.6860   -6.1890   22.6410 C   0  0  0  0  0  0  0  0  0  0  0  0
  -21.2410   -6.7310   23.8660 C   0  0  0  0  0  3  0  0  0  0  0  0
  -21.1530   -5.9100   25.0090 C   0  0  0  0  0  3  0  0  0  0  0  0
  -21.5010   -4.5490   24.9270 C   0  0  0  0  0  0  0  0  0  0  0  0
  -21.9400   -4.0060   23.7070 C   0  0  0  0  0  3  0  0  0  0  0  0
  -22.0290   -4.8240   22.5660 C   0  0  0  0  0  0  0  0  0  0  0  0
  -22.4310   -4.2900   21.3870 F   0  0  0  0  0  0  0  0  0  0  0  0
  -21.4110   -3.7590   26.0220 F   0  0  0  0  0  0  0  0  0  0  0  0
  -22.7620  -13.5790   21.2540 C   0  0  0  0  0  0  0  0  0  0  0  0
  -22.0720  -12.8640   22.1360 N   0  0  0  0  0  0  0  0  0  0  0  0
  -22.2970  -14.6090   20.7670 O   0  0  0  0  0  0  0  0  0  0  0  0
  -22.4620  -12.0310   22.5510 H   0  0  0  0  0  0  0  0  0  0  0  0
  -21.1430  -13.1560   22.4020 H   0  0  0  0  0  0  0  0  0  0  0  0
  -25.3470  -15.2850   20.3960 N   0  0  0  0  0  0  0  0  0  0  0  0
  -24.6130  -15.9440   20.6260 H   0  0  0  0  0  0  0  0  0  0  0  0
  -26.2550  -15.7280   20.2600 H   0  0  0  0  0  0  0  0  0  0  0  0
  -32.7100  -20.7880   19.7540 N   0  0  0  0  0  0  0  0  0  0  0  0
  -33.0500  -21.7250   19.9510 H   0  0  0  0  0  0  0  0  0  0  0  0
  -33.4070  -20.0700   19.9260 H   0  0  0  0  0  0  0  0  0  0  0  0
  -28.0830  -22.8500   20.4470 C   0  0  0  0  0  0  0  0  0  0  0  0
  -27.7340  -24.3140   20.4590 C   0  0  0  0  0  3  0  0  0  0  0  0
  -28.1430  -25.8010   20.3410 O   0  0  0  0  0  0  0  0  0  0  0  0
  -24.6310  -31.9160   23.2580 C   0  0  0  0  0  0  0  0  0  0  0  0
  -27.1740  -26.9600   20.2960 C   0  0  0  0  0  0  0  0  0  0  0  0
  -23.4390  -30.5090   21.6290 C   0  0  0  0  0  3  0  0  0  0  0  0
  -24.8890  -28.8850   20.2250 C   0  0  0  0  0  0  0  0  0  0  0  0
  -26.0100  -30.6950   21.4970 C   0  0  0  0  0  2  0  0  0  0  0  0
  -26.0770  -29.2740   20.8560 C   0  0  0  0  0  0  0  0  0  0  0  0
  -27.2110  -28.3330   20.8720 C   0  0  0  0  0  3  0  0  0  0  0  0
  -25.9610  -26.7490   19.5960 C   0  0  0  0  0  3  0  0  0  0  0  0
  -24.8580  -27.6430   19.5730 C   0  0  0  0  0  3  0  0  0  0  0  0
  -23.6730  -29.8130   20.2600 C   0  0  0  0  0  2  0  0  0  0  0  0
  -24.7150  -31.0690   22.1800 N   0  0  0  0  0  0  0  0  0  0  0  0
  -23.5390  -32.2150   23.7720 O   0  0  0  0  0  0  0  0  0  0  0  0
  -22.7350  -29.5250   22.6020 C   0  0  0  0  0  0  0  0  0  0  0  0
  -21.4060  -29.3590   22.4710 N   0  0  0  0  0  0  0  0  0  0  0  0
  -23.3940  -28.9130   23.4460 O   0  0  0  0  0  0  0  0  0  0  0  0
  -20.9250  -29.9040   21.7670 H   0  0  0  0  0  0  0  0  0  0  0  0
  -18.0210  -28.1460   22.9720 C   0  0  0  0  0  0  0  0  0  0  0  0
  -20.5790  -28.4290   23.2480 C   0  0  0  0  0  3  0  0  0  0  0  0
  -20.6890  -26.9890   22.6940 C   0  0  0  0  0  2  0  0  0  0  0  0
  -19.5960  -26.6480   21.6770 C   0  0  0  0  0  2  0  0  0  0  0  0
  -18.2100  -26.7910   22.3100 C   0  0  0  0  0  2  0  0  0  0  0  0
  -19.1330  -28.9220   23.3980 C   0  0  0  0  0  0  0  0  0  0  0  0
  -18.9000  -30.1870   23.9810 C   0  0  0  0  0  3  0  0  0  0  0  0
  -17.5900  -30.6770   24.1390 C   0  0  0  0  0  3  0  0  0  0  0  0
  -16.4930  -29.8990   23.7270 C   0  0  0  0  0  3  0  0  0  0  0  0
  -16.7100  -28.6360   23.1500 C   0  0  0  0  0  3  0  0  0  0  0  0
  -25.9000  -32.5620   23.8890 C   0  0  0  0  0  3  0  0  0  0  0  0
  -26.3970  -31.8110   25.1860 C   0  0  1  0  0  0  0  0  0  0  0  0
  -25.2900  -31.5970   26.2450 C   0  0  0  0  0  1  0  0  0  0  0  0
  -26.9800  -30.4240   24.8340 C   0  0  0  0  0  1  0  0  0  0  0  0
  -27.5430  -32.6120   25.8480 C   0  0  0  0  0  1  0  0  0  0  0  0
  -25.5840  -33.9660   24.2100 N   0  0  0  0  0  0  0  0  0  0  0  0
  -25.9090  -35.0210   23.4490 C   0  0  0  0  0  0  0  0  0  0  0  0
  -26.5670  -34.9150   22.4120 O   0  0  0  0  0  0  0  0  0  0  0  0
  -24.9950  -34.1220   25.0150 H   0  0  0  0  0  0  0  0  0  0  0  0
  -24.1750  -36.8200   23.1220 C   0  0  0  0  0  1  0  0  0  0  0  0
  -25.4300  -36.4140   23.9100 C   0  0  0  0  0  3  0  0  0  0  0  0
  -27.5760  -37.3100   24.7060 C   0  0  0  0  0  1  0  0  0  0  0  0
  -26.4610  -37.4670   23.7750 N   0  0  0  0  0  0  0  0  0  0  0  0
  -26.0550  -38.3880   23.9190 H   0  0  0  0  0  0  0  0  0  0  0  0
  2  4  1  0
  3  5  2  0
  4  1  1  0
  4 49  2  0
  5  7  1  0
  5  1  1  0
  6  3  1  0
  6  2  2  0
  7  8  2  0
  8  9  1  0
 10  7  1  0
 11 16  1  0
 12 13  1  0
 12 11  1  0
 14 13  1  0
 14 21  1  0
 14 15  1  0
 16 10  1  0
 16 15  1  0
 17 10  2  0
 18 19  2  0
 19 38  1  0
 20 19  1  0
 20 23  1  0
 21 22  1  0
 21 18  1  0
 22 20  2  0
 23 24  1  0
 24 25  2  0
 26 29  1  0
 26 25  1  0
 27 26  2  0
 28 27  1  0
 28 23  2  0
 29 30  1  0
 30 31  1  0
 31 32  2  0
 33 32  1  0
 33 37  1  0
 34 33  2  0
 35 30  2  0
 35 34  1  0
 36 35  1  0
 38 39  1  0
 39 42  1  0
 39 41  1  0
 40 38  2  0
 43 18  1  0
 43 44  1  0
 45 43  1  0
 46 48  1  0
 46 47  1  0
 46  6  1  0
 49 50  2  0
 51 50  1  0
 52 63  2  0
 53 51  1  0
 53 58  1  0
 54 62  1  0
 54 64  1  0
 55 61  1  0
 55 57  1  0
 56 62  1  0
 57 58  2  0
 57 56  1  0
 59 53  2  0
 60 59  1  0
 60 55  2  0
 61 54  1  0
 62 52  1  0
 64 66  2  0
 65 64  1  0
 67 65  1  0
 68 77  2  0
 68 73  1  0
 69 65  1  0
 69 73  1  0
 70 69  1  0
 71 72  1  0
 71 70  1  0
 72 68  1  0
 73 74  2  0
 74 75  1  0
 76 75  2  0
 77 76  1  0
 78 52  1  0
 78 83  1  0
 78 79  1  0
 79 82  1  1
 79 80  1  0
 81 79  1  0
 83 86  1  0
 84 88  1  0
 84 83  1  0
 85 84  2  0
 88 87  1  0
 90 88  1  0
 90 91  1  0
 90 89  1  0
M  ISO  4   7 100  10 100  50 101  51 101
M  END
>  <TORSDO>  (86) 
F 19

>  <SCORE>  (86) 
-15.782

>  <name>  (86) 
85

>  <ligand_id>  (86) 
85

>  <original_smiles>  (86) 
[H]N=C(C(=O)N1C([H])([H])C([H])([H])C([H])([H])C([H])(n2nc(-c3c([H])c([H])c(Oc4c([H])c([H])c(F)c([H])c4F)c([H])c3[H])c(C(=O)N([H])[H])c2N([H])[H])C1([H])[H])c1c([H])c(C([H])=C([H])Oc2c([H])c([H])c3c(c2[H])C([H])([H])N(C(=O)C([H])(N([H])C(=O)C([H])(N([H])C([H])([H])[H])C([H])([H])[H])C(C([H])([H])[H])(C([H])([H])[H])C([H])([H])[H])C([H])(C(=O)N([H])C2([H])c4c([H])c([H])c([H])c([H])c4C([H])([H])C([H])([H])C2([H])[H])C3([H])[H])c([H])c(N([H])[H])c1[H]

>  <smiles>  (86) 
[H]N=C(C(=O)N1C([H])([H])C([H])([H])C([H])([H])C([H])(n2nc(-c3c([H])c([H])c(Oc4c([H])c([H])c(F)c([H])c4F)c([H])c3[H])c(C(=O)N([H])[H])c2N([H])[H])C1([H])[H])c1c([H])c(C([H])=C([H])Oc2c([H])c([H])c3c(c2[H])C([H])([H])N(C(=O)C([H])(N([H])C(=O)C([H])(N([H])C([H])([H])[H])C([H])([H])[H])C(C([H])([H])[H])(C([H])([H])[H])C([H])([H])[H])C([H])(C(=O)N([H])C2([H])c4c([H])c([H])c([H])c([H])c4C([H])([H])C([H])([H])C2([H])[H])C3([H])[H])c([H])c(N([H])[H])c1[H]

$$$$
86:0:0
     RDKit          3D

 94103  0  0  1  0  0  0  0  0999 V2000
  -27.8590  -19.4510   20.1520 C   0  0  0  0  0  3  0  0  0  0  0  0
  -30.0940  -18.5790   20.2110 C   0  0  0  0  0  3  0  0  0  0  0  0
  -28.2330  -17.0200   20.2450 C   0  0  0  0  0  3  0  0  0  0  0  0
  -29.2350  -19.7910   20.1560 C   0  0  0  0  0  0  0  0  0  0  0  0
  -27.3660  -18.1310   20.1900 C   0  0  0  0  0  0  0  0  0  0  0  0
  -29.6310  -17.1720   20.2540 C   0  0  0  0  0  0  0  0  0  0  0  0
  -30.7750  -14.7600   19.9210 C   0  0  0  0  0  0  0  0  0  0  0  0
  -30.3880  -12.4640   18.9470 C   0  0  0  0  0  2  0  0  0  0  0  0
  -29.3930  -12.5080   17.7710 C   0  0  0  0  0  2  0  0  0  0  0  0
  -27.9600  -12.3290   18.2960 C   0  0  0  0  0  2  0  0  0  0  0  0
  -27.6610  -13.2540   19.5020 C   0  0  0  0  0  3  0  0  0  0  0  0
  -28.7820  -13.2400   20.5660 C   0  0  0  0  0  2  0  0  0  0  0  0
  -30.0460  -13.5720   19.8890 N   0  0  0  0  0  0  0  0  0  0  0  0
  -31.8750  -14.7540   19.3540 O   0  0  0  0  0  0  0  0  0  0  0  0
  -31.3580  -16.2230   21.7130 C   0  0  0  0  0  1  0  0  0  0  0  0
  -30.4110  -15.9300   20.6360 N   0  0  0  0  0  0  0  0  0  0  0  0
  -25.3340  -13.8630   20.3850 C   0  0  0  0  0  0  0  0  0  0  0  0
  -24.2900  -13.1170   20.8460 C   0  0  0  0  0  0  0  0  0  0  0  0
  -24.7170  -11.7580   20.7650 C   0  0  0  0  0  0  0  0  0  0  0  0
  -26.3480  -12.9760   20.0810 N   0  0  0  0  0  0  0  0  0  0  0  0
  -25.9850  -11.6940   20.3610 N   0  0  0  0  0  0  0  0  0  0  0  0
  -23.9650  -10.5150   20.9740 C   0  0  0  0  0  0  0  0  0  0  0  0
  -24.4090   -9.5250   21.8780 C   0  0  0  0  0  3  0  0  0  0  0  0
  -23.6550   -8.3490   22.0760 C   0  0  0  0  0  3  0  0  0  0  0  0
  -22.4430   -8.1530   21.3720 C   0  0  0  0  0  0  0  0  0  0  0  0
  -22.0180   -9.1290   20.4540 C   0  0  0  0  0  3  0  0  0  0  0  0
  -22.7720  -10.2970   20.2540 C   0  0  0  0  0  3  0  0  0  0  0  0
  -21.6600   -7.0290   21.4810 O   0  0  0  0  0  0  0  0  0  0  0  0
  -21.6380   -6.2810   22.6310 C   0  0  0  0  0  0  0  0  0  0  0  0
  -21.2520   -6.8310   23.8720 C   0  0  0  0  0  3  0  0  0  0  0  0
  -21.1760   -6.0100   25.0150 C   0  0  0  0  0  3  0  0  0  0  0  0
  -21.4730   -4.6380   24.9160 C   0  0  0  0  0  0  0  0  0  0  0  0
  -21.8550   -4.0850   23.6810 C   0  0  0  0  0  3  0  0  0  0  0  0
  -21.9330   -4.9050   22.5420 C   0  0  0  0  0  0  0  0  0  0  0  0
  -22.2810   -4.3650   21.3480 F   0  0  0  0  0  0  0  0  0  0  0  0
  -21.3920   -3.8460   26.0120 F   0  0  0  0  0  0  0  0  0  0  0  0
  -22.9300  -13.6340   21.2230 C   0  0  0  0  0  0  0  0  0  0  0  0
  -22.2390  -12.9430   22.1210 N   0  0  0  0  0  0  0  0  0  0  0  0
  -22.4970  -14.6880   20.7560 O   0  0  0  0  0  0  0  0  0  0  0  0
  -22.6070  -12.0940   22.5240 H   0  0  0  0  0  0  0  0  0  0  0  0
  -21.3320  -13.2710   22.4180 H   0  0  0  0  0  0  0  0  0  0  0  0
  -25.4700  -15.2180   20.1460 N   0  0  0  0  0  0  0  0  0  0  0  0
  -24.5590  -15.6610   20.0510 H   0  0  0  0  0  0  0  0  0  0  0  0
  -26.0710  -15.4400   19.3600 H   0  0  0  0  0  0  0  0  0  0  0  0
  -29.4150  -22.3070   21.1340 C   0  0  0  0  0  0  0  0  0  0  0  0
  -28.9020  -22.1790   19.1580 C   0  0  0  0  0  2  0  0  0  0  0  0
  -29.2220  -23.4630   20.0360 C   0  0  0  0  0  3  0  0  0  0  0  0
  -29.5480  -21.2770   20.1540 N   0  0  0  0  0  0  0  0  0  0  0  0
  -29.3500  -22.2370   22.3430 O   0  0  0  0  0  0  0  0  0  0  0  0
  -28.1620  -24.6950   20.3530 C   0  0  0  0  0  2  0  0  0  0  0  0
  -28.4060  -26.2080   20.1980 O   0  0  0  0  0  0  0  0  0  0  0  0
  -24.6450  -31.7970   23.1250 C   0  0  0  0  0  0  0  0  0  0  0  0
  -27.3110  -27.1300   20.1550 C   0  0  0  0  0  0  0  0  0  0  0  0
  -23.4740  -30.3830   21.4780 C   0  0  0  0  0  3  0  0  0  0  0  0
  -24.9540  -28.8100   20.0910 C   0  0  0  0  0  0  0  0  0  0  0  0
  -26.0220  -30.6810   21.3370 C   0  0  0  0  0  2  0  0  0  0  0  0
  -26.1200  -29.2870   20.7030 C   0  0  0  0  0  0  0  0  0  0  0  0
  -27.3000  -28.4610   20.7190 C   0  0  0  0  0  3  0  0  0  0  0  0
  -26.1180  -26.7430   19.5030 C   0  0  0  0  0  3  0  0  0  0  0  0
  -24.9610  -27.5470   19.4840 C   0  0  0  0  0  3  0  0  0  0  0  0
  -23.7150  -29.6900   20.1090 C   0  0  0  0  0  2  0  0  0  0  0  0
  -24.7320  -30.9770   22.0350 N   0  0  0  0  0  0  0  0  0  0  0  0
  -23.5520  -32.0760   23.6400 O   0  0  0  0  0  0  0  0  0  0  0  0
  -22.7950  -29.3750   22.4420 C   0  0  0  0  0  0  0  0  0  0  0  0
  -21.4720  -29.1840   22.2940 N   0  0  0  0  0  0  0  0  0  0  0  0
  -23.4630  -28.7650   23.2820 O   0  0  0  0  0  0  0  0  0  0  0  0
  -20.9940  -29.7290   21.5900 H   0  0  0  0  0  0  0  0  0  0  0  0
  -18.0990  -27.9420   22.7350 C   0  0  0  0  0  0  0  0  0  0  0  0
  -20.6470  -28.2460   23.0600 C   0  0  0  0  0  3  0  0  0  0  0  0
  -20.7820  -26.8080   22.5120 C   0  0  0  0  0  2  0  0  0  0  0  0
  -19.7100  -26.4510   21.4760 C   0  0  0  0  0  2  0  0  0  0  0  0
  -18.3110  -26.5850   22.0850 C   0  0  0  0  0  2  0  0  0  0  0  0
  -19.1960  -28.7290   23.1780 C   0  0  0  0  0  0  0  0  0  0  0  0
  -18.9430  -29.9950   23.7470 C   0  0  0  0  0  3  0  0  0  0  0  0
  -17.6260  -30.4780   23.8760 C   0  0  0  0  0  3  0  0  0  0  0  0
  -16.5440  -29.6890   23.4480 C   0  0  0  0  0  3  0  0  0  0  0  0
  -16.7810  -28.4230   22.8830 C   0  0  0  0  0  3  0  0  0  0  0  0
  -25.9130  -32.4440   23.7640 C   0  0  0  0  0  3  0  0  0  0  0  0
  -26.4290  -31.6670   25.0370 C   0  0  1  0  0  0  0  0  0  0  0  0
  -25.3330  -31.3970   26.0940 C   0  0  0  0  0  1  0  0  0  0  0  0
  -27.0380  -30.3020   24.6380 C   0  0  0  0  0  1  0  0  0  0  0  0
  -27.5550  -32.4760   25.7190 C   0  0  0  0  0  1  0  0  0  0  0  0
  -25.5810  -33.8340   24.1090 N   0  0  0  0  0  0  0  0  0  0  0  0
  -25.9090  -34.9030   23.3710 C   0  0  0  0  0  0  0  0  0  0  0  0
  -26.5930  -34.8250   22.3480 O   0  0  0  0  0  0  0  0  0  0  0  0
  -24.9770  -33.9700   24.9070 H   0  0  0  0  0  0  0  0  0  0  0  0
  -24.1760  -36.6900   23.0160 C   0  0  0  0  0  1  0  0  0  0  0  0
  -25.4030  -36.2780   23.8440 C   0  0  0  0  0  3  0  0  0  0  0  0
  -27.5110  -37.1710   24.7370 C   0  0  0  0  0  1  0  0  0  0  0  0
  -26.4280  -37.3430   23.7720 N   0  0  0  0  0  0  0  0  0  0  0  0
  -26.0100  -38.2580   23.9230 H   0  0  0  0  0  0  0  0  0  0  0  0
  -25.9870  -17.9310   20.2240 N   0  0  0  0  0  0  0  0  0  0  0  0
  -25.4090  -18.5270   19.6360 H   0  0  0  0  0  0  0  0  0  0  0  0
  -25.6820  -16.9570   20.1780 H   0  0  0  0  0  0  0  0  0  0  0  0
  1  4  2  0
  1  5  1  0
  2  6  2  0
  3  6  1  0
  4  2  1  0
  5 92  1  0
  5  3  2  0
  6 16  1  0
  7 16  1  0
  8 13  1  0
  9 10  1  0
  9  8  1  0
 11 10  1  0
 11 20  1  0
 11 12  1  0
 13  7  1  0
 13 12  1  0
 14  7  2  0
 16 15  1  0
 17 18  2  0
 18 37  1  0
 19 18  1  0
 19 22  1  0
 20 21  1  0
 20 17  1  0
 21 19  2  0
 22 23  1  0
 23 24  2  0
 25 28  1  0
 25 24  1  0
 26 25  2  0
 27 26  1  0
 27 22  2  0
 28 29  1  0
 29 30  1  0
 30 31  2  0
 32 31  1  0
 32 36  1  0
 33 32  2  0
 34 29  2  0
 34 33  1  0
 35 34  1  0
 37 38  1  0
 38 41  1  0
 38 40  1  0
 39 37  2  0
 42 17  1  0
 43 42  1  0
 44 42  1  0
 45 49  2  0
 46 47  1  0
 46 48  1  0
 47 50  1  0
 47 45  1  0
 48  4  1  0
 48 45  1  0
 51 50  1  0
 52 63  2  0
 53 51  1  0
 53 58  1  0
 54 62  1  0
 54 64  1  0
 55 61  1  0
 55 57  1  0
 56 62  1  0
 57 58  2  0
 57 56  1  0
 59 53  2  0
 60 59  1  0
 60 55  2  0
 61 54  1  0
 62 52  1  0
 64 66  2  0
 65 64  1  0
 67 65  1  0
 68 77  2  0
 68 73  1  0
 69 65  1  0
 69 73  1  0
 70 69  1  0
 71 72  1  0
 71 70  1  0
 72 68  1  0
 73 74  2  0
 74 75  1  0
 76 75  2  0
 77 76  1  0
 78 52  1  0
 78 83  1  0
 78 79  1  0
 79 82  1  1
 79 80  1  0
 81 79  1  0
 83 86  1  0
 84 88  1  0
 84 83  1  0
 85 84  2  0
 88 87  1  0
 90 88  1  0
 90 91  1  0
 90 89  1  0
 93 92  1  0
 94 92  1  0
M  ISO  4   7 100  16 100  50 101  51 101
M  END
>  <TORSDO>  (87) 
F 19

>  <SCORE>  (87) 
-14.636

>  <name>  (87) 
86

>  <ligand_id>  (87) 
86

>  <original_smiles>  (87) 
[H]c1c([H])c([H])c2c(c1[H])C([H])([H])C([H])([H])C([H])([H])C2([H])N([H])C(=O)C1([H])N(C(=O)C([H])(N([H])C(=O)C([H])(N([H])C([H])([H])[H])C([H])([H])[H])C(C([H])([H])[H])(C([H])([H])[H])C([H])([H])[H])C([H])([H])c2c([H])c(OC([H])([H])C3([H])C(=O)N(c4c([H])c(N([H])[H])c([H])c(N(C(=O)N5C([H])([H])C([H])([H])C([H])([H])C([H])(n6nc(-c7c([H])c([H])c(Oc8c([H])c([H])c(F)c([H])c8F)c([H])c7[H])c(C(=O)N([H])[H])c6N([H])[H])C5([H])[H])C([H])([H])[H])c4[H])C3([H])[H])c([H])c([H])c2C1([H])[H]

>  <smiles>  (87) 
[H]c1c([H])c([H])c2c(c1[H])C([H])([H])C([H])([H])C([H])([H])C2([H])N([H])C(=O)C1([H])N(C(=O)C([H])(N([H])C(=O)C([H])(N([H])C([H])([H])[H])C([H])([H])[H])C(C([H])([H])[H])(C([H])([H])[H])C([H])([H])[H])C([H])([H])c2c([H])c(OC([H])([H])C3([H])C(=O)N(c4c([H])c(N([H])[H])c([H])c(N(C(=O)N5C([H])([H])C([H])([H])C([H])([H])C([H])(n6nc(-c7c([H])c([H])c(Oc8c([H])c([H])c(F)c([H])c8F)c([H])c7[H])c(C(=O)N([H])[H])c6N([H])[H])C5([H])[H])C([H])([H])[H])c4[H])C3([H])[H])c([H])c([H])c2C1([H])[H]

$$$$
87:0:0
     RDKit          3D

 95 97  0  0  1  0  0  0  0  0999 V2000
  -26.4390  -24.4890   21.1110 C   0  0  0  0  0  2  0  0  0  0  0  0
  -26.5110  -26.2120   16.9810 C   0  0  0  0  0  1  0  0  0  0  0  0
  -27.0610  -23.9850   20.0570 C   0  0  0  0  0  2  0  0  0  0  0  0
  -27.1980  -25.3340   20.2790 C   0  0  0  0  0  3  0  0  0  0  0  0
  -27.2300  -26.4030   18.1880 C   0  0  0  0  0  2  0  0  0  0  0  0
  -26.7750  -26.2200   18.3520 C   0  0  1  0  0  0  0  0  0  0  0  0
  -25.7100  -27.5760   17.9810 F   0  0  0  0  0  0  0  0  0  0  0  0
  -29.2830  -17.5500   20.7090 C   0  0  0  0  0  2  0  0  0  0  0  0
  -30.2620  -14.4220   20.3250 C   0  0  0  0  0  2  0  0  0  0  0  0
  -29.9750  -13.0550   19.4200 C   0  0  0  0  0  2  0  0  0  0  0  0
  -28.7760  -12.2180   19.8540 C   0  0  0  0  0  2  0  0  0  0  0  0
  -27.8210  -13.2590   20.4280 C   0  0  0  0  0  3  0  0  0  0  0  0
  -28.4150  -14.4750   21.3640 C   0  0  0  0  0  2  0  0  0  0  0  0
  -29.1750  -15.7370   20.6440 N   0  0  0  0  0  0  0  0  0  0  0  0
  -30.5260  -17.1930   20.9960 O   0  0  0  0  0  1  0  0  0  0  0  0
  -27.7340  -21.5460   20.0350 C   0  0  0  0  0  2  0  0  0  0  0  0
  -28.4290  -19.5120   20.3440 N   0  0  0  0  0  1  0  0  0  0  0  0
  -27.2340  -21.3020   18.9350 O   0  0  0  0  0  0  0  0  0  0  0  0
  -27.7200  -19.1390   19.7280 H   0  0  0  0  0  0  0  0  0  0  0  0
  -25.3810  -13.5110   20.8180 C   0  0  0  0  0  0  0  0  0  0  0  0
  -24.3210  -12.6940   21.0430 C   0  0  0  0  0  0  0  0  0  0  0  0
  -24.8360  -11.3630   21.1080 C   0  0  0  0  0  0  0  0  0  0  0  0
  -26.5000  -12.7210   20.8000 N   0  0  0  0  0  0  0  0  0  0  0  0
  -26.1790  -11.3950   20.9940 N   0  0  0  0  0  0  0  0  0  0  0  0
  -24.0850  -10.0900   21.2190 C   0  0  0  0  0  0  0  0  0  0  0  0
  -24.4350   -9.0830   22.1500 C   0  0  0  0  0  3  0  0  0  0  0  0
  -23.6580   -7.9060   22.2710 C   0  0  0  0  0  3  0  0  0  0  0  0
  -22.5120   -7.7170   21.4620 C   0  0  0  0  0  0  0  0  0  0  0  0
  -22.1760   -8.7100   20.5230 C   0  0  0  0  0  3  0  0  0  0  0  0
  -22.9530   -9.8780   20.4000 C   0  0  0  0  0  3  0  0  0  0  0  0
  -21.7210   -6.5910   21.4840 O   0  0  0  0  0  0  0  0  0  0  0  0
  -21.7080   -5.7340   22.5570 C   0  0  0  0  0  0  0  0  0  0  0  0
  -21.2570   -6.1470   23.8290 C   0  0  0  0  0  3  0  0  0  0  0  0
  -21.1910   -5.2210   24.8890 C   0  0  0  0  0  3  0  0  0  0  0  0
  -21.5700   -3.8810   24.6810 C   0  0  0  0  0  0  0  0  0  0  0  0
  -22.0110   -3.4650   23.4120 C   0  0  0  0  0  3  0  0  0  0  0  0
  -22.0770   -4.3880   22.3530 C   0  0  0  0  0  0  0  0  0  0  0  0
  -22.4820   -3.9740   21.1280 F   0  0  0  0  0  0  0  0  0  0  0  0
  -21.5030   -2.9890   25.6970 F   0  0  0  0  0  0  0  0  0  0  0  0
  -22.8960  -13.1510   21.0780 C   0  0  0  0  0  0  0  0  0  0  0  0
  -22.0680  -12.5090   21.8900 N   0  0  0  0  0  0  0  0  0  0  0  0
  -22.5300  -14.1350   20.4330 O   0  0  0  0  0  0  0  0  0  0  0  0
  -22.3850  -11.7200   22.4320 H   0  0  0  0  0  0  0  0  0  0  0  0
  -21.1030  -12.8010   21.9650 H   0  0  0  0  0  0  0  0  0  0  0  0
  -25.4810  -14.8780   20.5820 N   0  0  0  0  0  0  0  0  0  0  0  0
  -24.6630  -15.4780   20.5260 H   0  0  0  0  0  0  0  0  0  0  0  0
  -26.3410  -15.3570   20.3640 H   0  0  0  0  0  0  0  0  0  0  0  0
  -29.1510  -26.6760   16.1890 C   0  0  0  0  0  0  0  0  0  0  0  0
  -30.3580  -27.4980   15.8050 C   0  0  0  0  0  2  0  0  0  0  0  0
  -30.5530  -28.3290   17.0750 C   0  0  0  0  0  2  0  0  0  0  0  0
  -29.1060  -28.4920   17.5730 C   0  0  0  0  0  2  0  0  0  0  0  0
  -28.5050  -27.1870   17.2820 N   0  0  0  0  0  0  0  0  0  0  0  0
  -28.8860  -25.6310   15.5840 O   0  0  0  0  0  0  0  0  0  0  0  0
  -28.7190  -25.2030   21.1030 C   0  0  0  0  0  2  0  0  0  0  0  0
  -29.6610  -25.4500   20.0640 O   0  0  0  0  0  0  0  0  0  0  0  0
  -25.0600  -31.4610   22.8380 C   0  0  0  0  0  0  0  0  0  0  0  0
  -28.9070  -25.9550   19.1440 C   0  0  0  0  0  1  0  0  0  0  0  0
  -23.9060  -29.6990   21.3740 C   0  0  0  0  0  3  0  0  0  0  0  0
  -25.1470  -27.0850   20.3830 C   0  0  0  0  0  2  0  0  0  0  0  0
  -26.4220  -29.7660   21.2320 C   0  0  0  0  0  2  0  0  0  0  0  0
  -26.6640  -28.1310   20.8140 C   0  0  0  0  0  3  0  0  0  0  0  0
  -28.4570  -27.6850   20.3370 C   0  0  0  0  0  1  0  0  0  0  0  0
  -27.2340  -24.8900   18.0100 C   0  0  0  0  0  1  0  0  0  0  0  0
  -25.1900  -25.4170   19.0650 C   0  0  0  0  0 15  0  0  0  0  0  0
  -23.9900  -28.3520   20.3990 C   0  0  0  0  0  2  0  0  0  0  0  0
  -25.1590  -30.3970   21.8670 N   0  0  0  0  0  0  0  0  0  0  0  0
  -23.9600  -31.8440   23.2900 O   0  0  0  0  0  0  0  0  0  0  0  0
  -23.0850  -29.1860   22.5300 C   0  0  0  0  0  0  0  0  0  0  0  0
  -21.7510  -29.1590   22.4000 N   0  0  0  0  0  0  0  0  0  0  0  0
  -23.6900  -28.6510   23.4530 O   0  0  0  0  0  0  0  0  0  0  0  0
  -21.3230  -29.6350   21.6150 H   0  0  0  0  0  0  0  0  0  0  0  0
  -18.4020  -27.8440   22.8270 C   0  0  0  0  0  0  0  0  0  0  0  0
  -20.9270  -28.2230   23.1600 C   0  0  0  0  0  3  0  0  0  0  0  0
  -21.1060  -26.7810   22.6250 C   0  0  0  0  0  2  0  0  0  0  0  0
  -20.0630  -26.3990   21.5730 C   0  0  0  0  0  2  0  0  0  0  0  0
  -18.6590  -26.4930   22.1740 C   0  0  0  0  0  2  0  0  0  0  0  0
  -19.4720  -28.6680   23.2640 C   0  0  0  0  0  0  0  0  0  0  0  0
  -19.1890  -29.9290   23.8280 C   0  0  0  0  0  3  0  0  0  0  0  0
  -17.8610  -30.3690   23.9660 C   0  0  0  0  0  3  0  0  0  0  0  0
  -16.8020  -29.5430   23.5510 C   0  0  0  0  0  3  0  0  0  0  0  0
  -17.0730  -28.2830   22.9880 C   0  0  0  0  0  3  0  0  0  0  0  0
  -26.2720  -32.2490   23.5010 C   0  0  0  0  0  3  0  0  0  0  0  0
  -25.8800  -33.6380   23.9270 N   0  0  0  0  0  0  0  0  0  0  0  0
  -26.2190  -34.8020   23.3390 C   0  0  0  0  0  0  0  0  0  0  0  0
  -26.9100  -34.8340   22.3220 O   0  0  0  0  0  0  0  0  0  0  0  0
  -25.2750  -33.6840   24.7320 H   0  0  0  0  0  0  0  0  0  0  0  0
  -24.4650  -36.6310   23.2120 C   0  0  0  0  0  1  0  0  0  0  0  0
  -25.7240  -36.1440   23.9480 C   0  0  0  0  0  3  0  0  0  0  0  0
  -27.8370  -37.0510   24.8480 C   0  0  0  0  0  1  0  0  0  0  0  0
  -26.7280  -37.2380   23.9190 N   0  0  0  0  0  0  0  0  0  0  0  0
  -26.2890  -38.1310   24.1320 H   0  0  0  0  0  0  0  0  0  0  0  0
  -26.8490  -31.5140   24.7870 C   0  0  1  0  0  0  0  0  0  0  0  0
  -25.7850  -31.2250   25.8760 C   0  0  0  0  0  1  0  0  0  0  0  0
  -27.4840  -30.1660   24.3990 C   0  0  0  0  0  1  0  0  0  0  0  0
  -27.9870  -32.3350   25.4370 C   0  0  0  0  0  1  0  0  0  0  0  0
  6  2  1  6
  3  4  1  0
  3  1  1  0
  4 54  1  0
  4  1  1  0
  5  6  1  0
  7  6  1  0
  8 15  1  0
  9 14  1  0
 10 11  1  0
 10  9  1  0
 12 11  1  0
 12 23  1  0
 12 13  1  0
 14  8  1  0
 14 13  1  0
 18 16  2  0
 19 17  1  0
 20 21  2  0
 21 40  1  0
 21 22  1  0
 22 25  1  0
 23 20  1  0
 23 24  1  0
 24 22  2  0
 25 26  1  0
 26 27  2  0
 28 31  1  0
 28 27  1  0
 29 28  2  0
 30 29  1  0
 30 25  2  0
 31 32  1  0
 32 33  1  0
 33 34  2  0
 35 34  1  0
 35 39  1  0
 36 35  2  0
 37 32  2  0
 37 36  1  0
 38 37  1  0
 40 41  1  0
 41 44  1  0
 41 43  1  0
 42 40  2  0
 45 20  1  0
 46 45  1  0
 47 45  1  0
 48 52  1  0
 49 48  1  0
 49 50  1  0
 50 51  1  0
 52 51  1  0
 52  5  1  0
 53 48  2  0
 55 54  1  0
 56 67  2  0
 57 55  1  0
 58 66  1  0
 58 68  1  0
 59 65  1  0
 59 61  1  0
 60 66  1  0
 61 62  1  0
 61 60  1  0
 63  6  1  0
 65 58  1  0
 66 56  1  0
 68 70  2  0
 69 68  1  0
 71 69  1  0
 72 81  2  0
 72 77  1  0
 73 69  1  0
 73 77  1  0
 74 73  1  0
 75 76  1  0
 75 74  1  0
 76 72  1  0
 77 78  2  0
 78 79  1  0
 80 79  2  0
 81 80  1  0
 82 56  1  0
 82 83  1  0
 82 92  1  0
 83 86  1  0
 84 83  1  0
 84 88  1  0
 85 84  2  0
 88 87  1  0
 90 88  1  0
 90 91  1  0
 90 89  1  0
 92 95  1  1
 92 93  1  0
 94 92  1  0
M  ISO  4   8 100  17 100  54 101  55 101
M  END
>  <TORSDO>  (88) 
F 18

>  <SCORE>  (88) 
-13.275

>  <name>  (88) 
87

>  <ligand_id>  (88) 
87

>  <original_smiles>  (88) 
[H]c1c([H])c([H])c2c(c1[H])C([H])([H])C([H])([H])C([H])([H])C2([H])N([H])C(=O)C1([H])N(C(=O)C([H])(N([H])C(=O)C([H])(N([H])C([H])([H])[H])C([H])([H])[H])C(C([H])([H])[H])(C([H])([H])[H])C([H])([H])[H])C([H])([H])c2c([H])c(OC([H])([H])c3c([H])c(C(=O)N([H])C(=O)N4C([H])([H])C([H])([H])C([H])([H])C([H])(n5nc(-c6c([H])c([H])c(Oc7c([H])c([H])c(F)c([H])c7F)c([H])c6[H])c(C(=O)N([H])[H])c5N([H])[H])C4([H])[H])c(F)c([H])c3N3C(=O)C([H])([H])C([H])([H])C3([H])[H])c([H])c([H])c2C1([H])[H]

>  <smiles>  (88) 
[H]c1c([H])c([H])c2c(c1[H])C([H])([H])C([H])([H])C([H])([H])C2([H])N([H])C(=O)C1([H])N(C(=O)C([H])(N([H])C(=O)C([H])(N([H])C([H])([H])[H])C([H])([H])[H])C(C([H])([H])[H])(C([H])([H])[H])C([H])([H])[H])C([H])([H])c2c([H])c(OC([H])([H])c3c([H])c(C(=O)N([H])C(=O)N4C([H])([H])C([H])([H])C([H])([H])C([H])(n5nc(-c6c([H])c([H])c(Oc7c([H])c([H])c(F)c([H])c7F)c([H])c6[H])c(C(=O)N([H])[H])c5N([H])[H])C4([H])[H])c(F)c([H])c3N3C(=O)C([H])([H])C([H])([H])C3([H])[H])c([H])c([H])c2C1([H])[H]

$$$$
88:0:0
     RDKit          3D

 94103  0  0  1  0  0  0  0  0999 V2000
  -30.8790  -23.5020   20.0850 C   0  0  0  0  0  3  0  0  0  0  0  0
  -29.4620  -23.5220   20.2610 C   0  0  0  0  0  0  0  0  0  0  0  0
  -29.1510  -22.1610   20.4280 C   0  0  0  0  0  0  0  0  0  0  0  0
  -31.3360  -22.2030   20.1810 C   0  0  0  0  0  0  0  0  0  0  0  0
  -27.7980  -21.5350   20.5380 C   0  0  0  0  0  1  0  0  0  0  0  0
  -30.3000  -21.3150   20.4540 N   0  0  0  0  0  0  0  0  0  0  0  0
  -30.3060  -18.2540   22.6750 C   0  0  0  0  0  3  0  0  0  0  0  0
  -30.2320  -19.5770   22.1870 C   0  0  0  0  0  3  0  0  0  0  0  0
  -30.5850  -17.1570   21.8340 C   0  0  0  0  0  3  0  0  0  0  0  0
  -30.6920  -18.7190   19.9670 C   0  0  0  0  0  3  0  0  0  0  0  0
  -30.4040  -19.8710   20.8180 C   0  0  0  0  0  0  0  0  0  0  0  0
  -30.7840  -17.3290   20.4510 C   0  0  0  0  0  0  0  0  0  0  0  0
  -31.5230  -14.8570   19.9040 C   0  0  0  0  0  0  0  0  0  0  0  0
  -31.0940  -12.6020   18.8890 C   0  0  0  0  0  2  0  0  0  0  0  0
  -30.0990  -12.6810   17.7160 C   0  0  0  0  0  2  0  0  0  0  0  0
  -28.6540  -12.5810   18.2240 C   0  0  0  0  0  2  0  0  0  0  0  0
  -28.3790  -13.5200   19.4240 C   0  0  0  0  0  3  0  0  0  0  0  0
  -29.4820  -13.4460   20.4980 C   0  0  0  0  0  2  0  0  0  0  0  0
  -30.7610  -13.7050   19.8250 N   0  0  0  0  0  0  0  0  0  0  0  0
  -32.7370  -14.7610   19.7140 O   0  0  0  0  0  0  0  0  0  0  0  0
  -31.0060  -16.4320   18.1710 C   0  0  0  0  0  1  0  0  0  0  0  0
  -30.9200  -16.1000   19.6020 N   0  0  0  0  0  0  0  0  0  0  0  0
  -26.0610  -14.2540   20.2290 C   0  0  0  0  0  0  0  0  0  0  0  0
  -24.9680  -13.5470   20.6480 C   0  0  0  0  0  0  0  0  0  0  0  0
  -25.3610  -12.1720   20.6460 C   0  0  0  0  0  0  0  0  0  0  0  0
  -27.0480  -13.3150   19.9820 N   0  0  0  0  0  0  0  0  0  0  0  0
  -26.6390  -12.0610   20.3020 N   0  0  0  0  0  0  0  0  0  0  0  0
  -24.5770  -10.9570   20.8920 C   0  0  0  0  0  0  0  0  0  0  0  0
  -24.9300  -10.0390   21.9070 C   0  0  0  0  0  3  0  0  0  0  0  0
  -24.1480   -8.8870   22.1320 C   0  0  0  0  0  3  0  0  0  0  0  0
  -23.0010   -8.6400   21.3430 C   0  0  0  0  0  0  0  0  0  0  0  0
  -22.6680   -9.5410   20.3180 C   0  0  0  0  0  3  0  0  0  0  0  0
  -23.4490  -10.6870   20.0900 C   0  0  0  0  0  3  0  0  0  0  0  0
  -22.1940   -7.5360   21.4780 O   0  0  0  0  0  0  0  0  0  0  0  0
  -21.9930   -6.9350   22.6950 C   0  0  0  0  0  0  0  0  0  0  0  0
  -21.4650   -7.6430   23.7950 C   0  0  0  0  0  3  0  0  0  0  0  0
  -21.2040   -6.9690   25.0040 C   0  0  0  0  0  3  0  0  0  0  0  0
  -21.4680   -5.5910   25.1140 C   0  0  0  0  0  0  0  0  0  0  0  0
  -21.9910   -4.8840   24.0190 C   0  0  0  0  0  3  0  0  0  0  0  0
  -22.2520   -5.5530   22.8110 C   0  0  0  0  0  0  0  0  0  0  0  0
  -22.7360   -4.8630   21.7490 F   0  0  0  0  0  0  0  0  0  0  0  0
  -21.2120   -4.9420   26.2750 F   0  0  0  0  0  0  0  0  0  0  0  0
  -23.6060  -14.1030   20.9480 C   0  0  0  0  0  0  0  0  0  0  0  0
  -22.8850  -13.4970   21.8850 N   0  0  0  0  0  0  0  0  0  0  0  0
  -23.1890  -15.1100   20.3780 O   0  0  0  0  0  0  0  0  0  0  0  0
  -23.2300  -12.6810   22.3680 H   0  0  0  0  0  0  0  0  0  0  0  0
  -21.9730  -13.8560   22.1260 H   0  0  0  0  0  0  0  0  0  0  0  0
  -26.2940  -15.6090   20.0140 N   0  0  0  0  0  0  0  0  0  0  0  0
  -25.5760  -16.3120   20.1560 H   0  0  0  0  0  0  0  0  0  0  0  0
  -27.1800  -16.0080   19.7220 H   0  0  0  0  0  0  0  0  0  0  0  0
  -32.6090  -21.7420   20.0530 O   0  0  0  0  0  0  0  0  0  0  0  0
  -33.1020  -22.3890   19.5530 H   0  0  0  0  0  0  0  0  0  0  0  0
  -28.4260  -24.7450   20.1850 C   0  0  0  0  0  2  0  0  0  0  0  0
  -28.7550  -26.2250   20.1810 O   0  0  0  0  0  0  0  0  0  0  0  0
  -24.6660  -31.6120   22.9230 C   0  0  0  0  0  0  0  0  0  0  0  0
  -27.6430  -27.1080   20.0460 C   0  0  0  0  0  0  0  0  0  0  0  0
  -23.6070  -30.1070   21.2870 C   0  0  0  0  0  3  0  0  0  0  0  0
  -25.1960  -28.6300   19.9310 C   0  0  0  0  0  0  0  0  0  0  0  0
  -26.1340  -30.5680   21.1750 C   0  0  0  0  0  2  0  0  0  0  0  0
  -26.3230  -29.1800   20.5600 C   0  0  0  0  0  0  0  0  0  0  0  0
  -27.5480  -28.4290   20.6130 C   0  0  0  0  0  3  0  0  0  0  0  0
  -26.4950  -26.6600   19.3510 C   0  0  0  0  0  3  0  0  0  0  0  0
  -25.2940  -27.3830   19.3090 C   0  0  0  0  0  3  0  0  0  0  0  0
  -23.9060  -29.4260   19.9280 C   0  0  0  0  0  2  0  0  0  0  0  0
  -24.8180  -30.7830   21.8500 N   0  0  0  0  0  0  0  0  0  0  0  0
  -23.5500  -31.8270   23.4190 O   0  0  0  0  0  0  0  0  0  0  0  0
  -22.9840  -29.0650   22.2480 C   0  0  0  0  0  0  0  0  0  0  0  0
  -21.6720  -28.8030   22.0970 N   0  0  0  0  0  0  0  0  0  0  0  0
  -23.6800  -28.4920   23.0920 O   0  0  0  0  0  0  0  0  0  0  0  0
  -21.1680  -29.3210   21.3900 H   0  0  0  0  0  0  0  0  0  0  0  0
  -18.3710  -27.3820   22.5250 C   0  0  0  0  0  0  0  0  0  0  0  0
  -20.8950  -27.8320   22.8680 C   0  0  0  0  0  3  0  0  0  0  0  0
  -21.1160  -26.3970   22.3400 C   0  0  0  0  0  2  0  0  0  0  0  0
  -20.0760  -25.9680   21.2990 C   0  0  0  0  0  2  0  0  0  0  0  0
  -18.6660  -26.0310   21.8950 C   0  0  0  0  0  2  0  0  0  0  0  0
  -19.4170  -28.2330   22.9690 C   0  0  0  0  0  0  0  0  0  0  0  0
  -19.0900  -29.4920   23.5170 C   0  0  0  0  0  3  0  0  0  0  0  0
  -17.7480  -29.9030   23.6270 C   0  0  0  0  0  3  0  0  0  0  0  0
  -16.7160  -29.0490   23.1980 C   0  0  0  0  0  3  0  0  0  0  0  0
  -17.0280  -27.7900   22.6560 C   0  0  0  0  0  3  0  0  0  0  0  0
  -25.8810  -32.3450   23.5670 C   0  0  0  0  0  3  0  0  0  0  0  0
  -26.4600  -31.5950   24.8280 C   0  0  1  0  0  0  0  0  0  0  0  0
  -25.3830  -31.2300   25.8770 C   0  0  0  0  0  1  0  0  0  0  0  0
  -27.1700  -30.2880   24.4090 C   0  0  0  0  0  1  0  0  0  0  0  0
  -27.5310  -32.4740   25.5140 C   0  0  0  0  0  1  0  0  0  0  0  0
  -25.4450  -33.7020   23.9290 N   0  0  0  0  0  0  0  0  0  0  0  0
  -25.8170  -34.8180   23.2860 C   0  0  0  0  0  0  0  0  0  0  0  0
  -26.6310  -34.8130   22.3560 O   0  0  0  0  0  0  0  0  0  0  0  0
  -24.7370  -33.7740   24.6460 H   0  0  0  0  0  0  0  0  0  0  0  0
  -24.0720  -36.5530   22.7700 C   0  0  0  0  0  1  0  0  0  0  0  0
  -25.1910  -36.1510   23.7440 C   0  0  0  0  0  3  0  0  0  0  0  0
  -27.1240  -37.0610   24.9570 C   0  0  0  0  0  1  0  0  0  0  0  0
  -26.1750  -37.2510   23.8620 N   0  0  0  0  0  0  0  0  0  0  0  0
  -25.7050  -38.1430   23.9970 H   0  0  0  0  0  0  0  0  0  0  0  0
  1  4  2  0
  1  2  1  0
  2  3  2  0
  3  6  1  0
  3  5  1  0
  4  6  1  0
  6 11  1  0
  8  7  1  0
  9  7  2  0
 10 12  2  0
 10 11  1  0
 11  8  2  0
 12  9  1  0
 14 19  1  0
 15 16  1  0
 15 14  1  0
 17 16  1  0
 17 26  1  0
 17 18  1  0
 19 13  1  0
 19 18  1  0
 20 13  2  0
 21 22  1  0
 22 13  1  0
 22 12  1  0
 23 24  2  0
 24 43  1  0
 25 24  1  0
 25 28  1  0
 26 23  1  0
 26 27  1  0
 27 25  2  0
 28 29  1  0
 29 30  2  0
 31 34  1  0
 31 30  1  0
 32 31  2  0
 33 32  1  0
 33 28  2  0
 34 35  1  0
 35 40  2  0
 35 36  1  0
 36 37  2  0
 37 38  1  0
 38 42  1  0
 39 38  2  0
 40 39  1  0
 41 40  1  0
 43 44  1  0
 44 47  1  0
 44 46  1  0
 45 43  2  0
 48 49  1  0
 48 23  1  0
 50 48  1  0
 51  4  1  0
 52 51  1  0
 53  2  1  0
 54 53  1  0
 55 66  2  0
 56 54  1  0
 56 61  1  0
 57 65  1  0
 57 67  1  0
 58 60  1  0
 59 65  1  0
 60 61  2  0
 60 59  1  0
 62 56  2  0
 63 62  1  0
 63 58  2  0
 64 58  1  0
 64 57  1  0
 65 55  1  0
 67 69  2  0
 68 67  1  0
 70 68  1  0
 71 80  2  0
 71 76  1  0
 72 68  1  0
 72 76  1  0
 73 72  1  0
 74 75  1  0
 74 73  1  0
 75 71  1  0
 76 77  2  0
 77 78  1  0
 79 78  2  0
 80 79  1  0
 81 55  1  0
 81 86  1  0
 81 82  1  0
 82 85  1  1
 82 83  1  0
 84 82  1  0
 86 89  1  0
 87 91  1  0
 87 86  1  0
 88 87  2  0
 91 90  1  0
 91 93  1  0
 93 94  1  0
 93 92  1  0
M  ISO  4  13 100  22 100  53 101  54 101
M  END
>  <TORSDO>  (89) 
F 19

>  <SCORE>  (89) 
-11.727

>  <name>  (89) 
88

>  <ligand_id>  (89) 
88

>  <original_smiles>  (89) 
[H]Oc1c([H])c(C([H])([H])Oc2c([H])c([H])c3c(c2[H])C([H])([H])N(C(=O)C([H])(N([H])C(=O)C([H])(N([H])C([H])([H])[H])C([H])([H])[H])C(C([H])([H])[H])(C([H])([H])[H])C([H])([H])[H])C([H])(C(=O)N([H])C2([H])c4c([H])c([H])c([H])c([H])c4C([H])([H])C([H])([H])C2([H])[H])C3([H])[H])c(C([H])([H])[H])n1-c1c([H])c([H])c([H])c(N(C(=O)N2C([H])([H])C([H])([H])C([H])([H])C([H])(n3nc(-c4c([H])c([H])c(Oc5c([H])c([H])c(F)c([H])c5F)c([H])c4[H])c(C(=O)N([H])[H])c3N([H])[H])C2([H])[H])C([H])([H])[H])c1[H]

>  <smiles>  (89) 
[H]Oc1c([H])c(C([H])([H])Oc2c([H])c([H])c3c(c2[H])C([H])([H])N(C(=O)C([H])(N([H])C(=O)C([H])(N([H])C([H])([H])[H])C([H])([H])[H])C(C([H])([H])[H])(C([H])([H])[H])C([H])([H])[H])C([H])(C(=O)N([H])C2([H])c4c([H])c([H])c([H])c([H])c4C([H])([H])C([H])([H])C2([H])[H])C3([H])[H])c(C([H])([H])[H])n1-c1c([H])c([H])c([H])c(N(C(=O)N2C([H])([H])C([H])([H])C([H])([H])C([H])(n3nc(-c4c([H])c([H])c(Oc5c([H])c([H])c(F)c([H])c5F)c([H])c4[H])c(C(=O)N([H])[H])c3N([H])[H])C2([H])[H])C([H])([H])[H])c1[H]

$$$$
89:0:0
     RDKit          3D

 96104  0  0  1  0  0  0  0  0999 V2000
  -29.4250  -21.5000   21.6910 C   0  0  0  0  0  3  0  0  0  0  0  0
  -29.5330  -20.0890   21.6270 C   0  0  0  0  0  3  0  0  0  0  0  0
  -29.6320  -21.6280   19.2710 C   0  0  0  0  0  3  0  0  0  0  0  0
  -29.4660  -22.2860   20.5120 C   0  0  0  0  0  0  0  0  0  0  0  0
  -29.6700  -19.4410   20.3780 C   0  0  0  0  0  0  0  0  0  0  0  0
  -29.7100  -20.2170   19.1990 C   0  0  0  0  0  0  0  0  0  0  0  0
  -29.8130  -19.6060   17.9940 F   0  0  0  0  0  0  0  0  0  0  0  0
  -30.3930  -17.1190   21.0020 C   0  0  0  0  0  0  0  0  0  0  0  0
  -31.4850  -17.5390   21.6770 N   0  0  0  0  0  4  0  0  0  0  0  0
  -29.6380  -17.9870   20.2700 N   0  0  0  0  0  0  0  0  0  0  0  0
  -32.0320  -16.8990   22.2420 H   0  0  0  0  0  0  0  0  0  0  0  0
  -31.8440  -18.4800   21.6000 H   0  0  0  0  0  0  0  0  0  0  0  0
  -29.1900  -17.5960   19.4520 H   0  0  0  0  0  0  0  0  0  0  0  0
  -29.9250  -15.6710   21.1480 C   0  0  0  0  0  2  0  0  0  0  0  0
  -30.6150  -14.5750   20.2780 C   0  0  0  0  0  0  0  0  0  0  0  0
  -30.3320  -12.4320   19.0420 C   0  0  0  0  0  2  0  0  0  0  0  0
  -29.3320  -12.6390   17.8850 C   0  0  0  0  0  2  0  0  0  0  0  0
  -27.8760  -12.4710   18.3670 C   0  0  0  0  0  2  0  0  0  0  0  0
  -27.5830  -13.2790   19.6580 C   0  0  0  0  0  3  0  0  0  0  0  0
  -28.6830  -13.0220   20.7150 C   0  0  0  0  0  2  0  0  0  0  0  0
  -29.9790  -13.3770   20.1130 N   0  0  0  0  0  0  0  0  0  0  0  0
  -31.6840  -14.8250   19.7100 O   0  0  0  0  0  0  0  0  0  0  0  0
  -25.2120  -13.8790   20.4690 C   0  0  0  0  0  0  0  0  0  0  0  0
  -24.1590  -13.1010   20.8640 C   0  0  0  0  0  0  0  0  0  0  0  0
  -24.6170  -11.7500   20.7900 C   0  0  0  0  0  0  0  0  0  0  0  0
  -26.2480  -13.0010   20.1810 N   0  0  0  0  0  0  0  0  0  0  0  0
  -25.8950  -11.7150   20.4310 N   0  0  0  0  0  0  0  0  0  0  0  0
  -23.9000  -10.4850   20.9840 C   0  0  0  0  0  0  0  0  0  0  0  0
  -24.3390   -9.5210   21.9190 C   0  0  0  0  0  3  0  0  0  0  0  0
  -23.6220   -8.3200   22.1010 C   0  0  0  0  0  3  0  0  0  0  0  0
  -22.4500   -8.0730   21.3470 C   0  0  0  0  0  0  0  0  0  0  0  0
  -22.0290   -9.0240   20.4010 C   0  0  0  0  0  3  0  0  0  0  0  0
  -22.7470  -10.2180   20.2180 C   0  0  0  0  0  3  0  0  0  0  0  0
  -21.7020   -6.9230   21.4380 O   0  0  0  0  0  0  0  0  0  0  0  0
  -21.6300   -6.2030   22.6040 C   0  0  0  0  0  0  0  0  0  0  0  0
  -21.1490   -6.7730   23.8040 C   0  0  0  0  0  3  0  0  0  0  0  0
  -21.0270   -5.9770   24.9600 C   0  0  0  0  0  3  0  0  0  0  0  0
  -21.3750   -4.6130   24.9180 C   0  0  0  0  0  0  0  0  0  0  0  0
  -21.8500   -4.0450   23.7230 C   0  0  0  0  0  3  0  0  0  0  0  0
  -21.9740   -4.8370   22.5680 C   0  0  0  0  0  0  0  0  0  0  0  0
  -22.4120   -4.2770   21.4140 F   0  0  0  0  0  0  0  0  0  0  0  0
  -21.2480   -3.8470   26.0270 F   0  0  0  0  0  0  0  0  0  0  0  0
  -22.7730  -13.5710   21.1990 C   0  0  0  0  0  0  0  0  0  0  0  0
  -22.0730  -12.8500   22.0690 N   0  0  0  0  0  0  0  0  0  0  0  0
  -22.3190  -14.6120   20.7240 O   0  0  0  0  0  0  0  0  0  0  0  0
  -22.4520  -12.0080   22.4740 H   0  0  0  0  0  0  0  0  0  0  0  0
  -21.1460  -13.1480   22.3360 H   0  0  0  0  0  0  0  0  0  0  0  0
  -25.3710  -15.2540   20.3080 N   0  0  0  0  0  0  0  0  0  0  0  0
  -24.6050  -15.9010   20.4580 H   0  0  0  0  0  0  0  0  0  0  0  0
  -26.1940  -15.7010   19.9300 H   0  0  0  0  0  0  0  0  0  0  0  0
  -28.4900  -24.5090   21.1160 C   0  0  0  0  0  0  0  0  0  0  0  0
  -29.4350  -23.7200   20.5600 N   0  0  0  0  0  0  0  0  0  0  0  0
  -27.4070  -24.0640   21.5050 O   0  0  0  0  0  0  0  0  0  0  0  0
  -30.2110  -24.2070   20.1300 H   0  0  0  0  0  0  0  0  0  0  0  0
  -28.8000  -26.0210   21.2700 C   0  0  0  0  0  2  0  0  0  0  0  0
  -28.4580  -26.7790   20.0980 O   0  0  0  0  0  0  0  0  0  0  0  0
  -24.6050  -31.9590   23.2210 C   0  0  0  0  0  0  0  0  0  0  0  0
  -27.2990  -27.5220   20.1650 C   0  0  0  0  0  0  0  0  0  0  0  0
  -23.4170  -30.5420   21.5760 C   0  0  0  0  0  3  0  0  0  0  0  0
  -24.8930  -29.0080   20.1660 C   0  0  0  0  0  0  0  0  0  0  0  0
  -25.9420  -30.9190   21.3900 C   0  0  0  0  0  2  0  0  0  0  0  0
  -26.0430  -29.5430   20.7620 C   0  0  0  0  0  0  0  0  0  0  0  0
  -27.2520  -28.8050   20.7650 C   0  0  0  0  0  3  0  0  0  0  0  0
  -26.1370  -27.0050   19.5620 C   0  0  0  0  0  3  0  0  0  0  0  0
  -24.9330  -27.7360   19.5670 C   0  0  0  0  0  3  0  0  0  0  0  0
  -23.6410  -29.8580   20.2000 C   0  0  0  0  0  2  0  0  0  0  0  0
  -24.6730  -31.1570   22.1200 N   0  0  0  0  0  0  0  0  0  0  0  0
  -23.5190  -32.2240   23.7560 O   0  0  0  0  0  0  0  0  0  0  0  0
  -22.7700  -29.5200   22.5370 C   0  0  0  0  0  0  0  0  0  0  0  0
  -21.4460  -29.3330   22.4090 N   0  0  0  0  0  0  0  0  0  0  0  0
  -23.4570  -28.8970   23.3510 O   0  0  0  0  0  0  0  0  0  0  0  0
  -20.9530  -29.8870   21.7230 H   0  0  0  0  0  0  0  0  0  0  0  0
  -18.0700  -28.1530   22.9330 C   0  0  0  0  0  0  0  0  0  0  0  0
  -20.6320  -28.3920   23.1780 C   0  0  0  0  0  3  0  0  0  0  0  0
  -20.7200  -26.9680   22.5850 C   0  0  0  0  0  2  0  0  0  0  0  0
  -19.6040  -26.6620   21.5800 C   0  0  0  0  0  2  0  0  0  0  0  0
  -18.2310  -26.8090   22.2410 C   0  0  0  0  0  2  0  0  0  0  0  0
  -19.1990  -28.9030   23.3590 C   0  0  0  0  0  0  0  0  0  0  0  0
  -18.9950  -30.1610   23.9660 C   0  0  0  0  0  3  0  0  0  0  0  0
  -17.6960  -30.6690   24.1520 C   0  0  0  0  0  3  0  0  0  0  0  0
  -16.5820  -29.9150   23.7440 C   0  0  0  0  0  3  0  0  0  0  0  0
  -16.7700  -28.6590   23.1400 C   0  0  0  0  0  3  0  0  0  0  0  0
  -25.8830  -32.6020   23.8440 C   0  0  0  0  0  3  0  0  0  0  0  0
  -26.4060  -31.8360   25.1210 C   0  0  1  0  0  0  0  0  0  0  0  0
  -25.3130  -31.5810   26.1840 C   0  0  0  0  0  1  0  0  0  0  0  0
  -27.0080  -30.4660   24.7280 C   0  0  0  0  0  1  0  0  0  0  0  0
  -27.5450  -32.6420   25.7880 C   0  0  0  0  0  1  0  0  0  0  0  0
  -25.5640  -33.9980   24.1690 N   0  0  0  0  0  0  0  0  0  0  0  0
  -25.9010  -35.0510   23.4120 C   0  0  0  0  0  0  0  0  0  0  0  0
  -26.5830  -34.9500   22.3890 O   0  0  0  0  0  0  0  0  0  0  0  0
  -24.9620  -34.1510   24.9650 H   0  0  0  0  0  0  0  0  0  0  0  0
  -24.1770  -36.8390   23.0210 C   0  0  0  0  0  1  0  0  0  0  0  0
  -25.3980  -36.4360   23.8610 C   0  0  0  0  0  3  0  0  0  0  0  0
  -27.5100  -37.3230   24.7470 C   0  0  0  0  0  1  0  0  0  0  0  0
  -26.4310  -37.4920   23.7770 N   0  0  0  0  0  0  0  0  0  0  0  0
  -26.0190  -38.4090   23.9190 H   0  0  0  0  0  0  0  0  0  0  0  0
  2  1  1  0
  3  4  1  0
  4 52  1  0
  4  1  2  0
  5  2  2  0
  6  3  2  0
  6  5  1  0
  7  6  1  0
  8 14  1  0
  8  9  2  0
  9 11  1  0
 10  5  1  0
 10  8  1  0
 12  9  1  0
 13 10  1  0
 15 14  1  0
 16 21  1  0
 17 18  1  0
 17 16  1  0
 19 18  1  0
 19 26  1  0
 19 20  1  0
 21 15  1  0
 21 20  1  0
 22 15  2  0
 23 24  2  0
 24 43  1  0
 25 24  1  0
 25 28  1  0
 26 27  1  0
 26 23  1  0
 27 25  2  0
 28 29  1  0
 29 30  2  0
 31 34  1  0
 31 30  1  0
 32 31  2  0
 33 32  1  0
 33 28  2  0
 34 35  1  0
 35 36  1  0
 36 37  2  0
 38 37  1  0
 38 42  1  0
 39 38  2  0
 40 35  2  0
 40 39  1  0
 41 40  1  0
 43 44  1  0
 44 47  1  0
 44 46  1  0
 45 43  2  0
 48 49  1  0
 48 23  1  0
 50 48  1  0
 51 55  1  0
 51 53  2  0
 52 51  1  0
 54 52  1  0
 56 58  1  0
 56 55  1  0
 57 68  2  0
 58 63  1  0
 59 67  1  0
 59 69  1  0
 60 66  1  0
 60 62  1  0
 61 67  1  0
 62 63  2  0
 62 61  1  0
 64 65  1  0
 64 58  2  0
 65 60  2  0
 66 59  1  0
 67 57  1  0
 69 71  2  0
 70 69  1  0
 72 70  1  0
 73 82  2  0
 73 78  1  0
 74 70  1  0
 74 78  1  0
 75 74  1  0
 76 77  1  0
 76 75  1  0
 77 73  1  0
 78 79  2  0
 79 80  1  0
 81 80  2  0
 82 81  1  0
 83 57  1  0
 83 88  1  0
 83 84  1  0
 84 87  1  1
 84 85  1  0
 86 84  1  0
 88 91  1  0
 89 93  1  0
 89 88  1  0
 90 89  2  0
 93 92  1  0
 95 93  1  0
 95 96  1  0
 95 94  1  0
M  ISO  4  14 100  15 100  55 101  56 101
M  END
>  <TORSDO>  (90) 
F 20

>  <SCORE>  (90) 
-13.843

>  <name>  (90) 
89

>  <ligand_id>  (90) 
89

>  <original_smiles>  (90) 
[H]c1c([H])c([H])c2c(c1[H])C([H])([H])C([H])([H])C([H])([H])C2([H])N([H])C(=O)C1([H])N(C(=O)C([H])(N([H])C(=O)C([H])(N([H])C([H])([H])[H])C([H])([H])[H])C(C([H])([H])[H])(C([H])([H])[H])C([H])([H])[H])C([H])([H])c2c([H])c(OC([H])([H])C(=O)N([H])c3c([H])c([H])c([N+]([H])=C(N([H])[H])C([H])([H])C(=O)N4C([H])([H])C([H])([H])C([H])([H])C([H])(n5nc(-c6c([H])c([H])c(Oc7c([H])c([H])c(F)c([H])c7F)c([H])c6[H])c(C(=O)N([H])[H])c5N([H])[H])C4([H])[H])c(F)c3[H])c([H])c([H])c2C1([H])[H]

>  <smiles>  (90) 
[H]c1c([H])c([H])c2c(c1[H])C([H])([H])C([H])([H])C([H])([H])C2([H])N([H])C(=O)C1([H])N(C(=O)C([H])(N([H])C(=O)C([H])(N([H])C([H])([H])[H])C([H])([H])[H])C(C([H])([H])[H])(C([H])([H])[H])C([H])([H])[H])C([H])([H])c2c([H])c(OC([H])([H])C(=O)N([H])c3c([H])c([H])c([N+]([H])=C(N([H])[H])C([H])([H])C(=O)N4C([H])([H])C([H])([H])C([H])([H])C([H])(n5nc(-c6c([H])c([H])c(Oc7c([H])c([H])c(F)c([H])c7F)c([H])c6[H])c(C(=O)N([H])[H])c5N([H])[H])C4([H])[H])c(F)c3[H])c([H])c([H])c2C1([H])[H]

$$$$
90:0:0
     RDKit          3D

 99108  0  0  1  0  0  0  0  0999 V2000
  -30.5290  -19.2590   19.1510 C   0  0  0  0  0  3  0  0  0  0  0  0
  -30.1860  -19.4150   21.5220 C   0  0  0  0  0  3  0  0  0  0  0  0
  -30.3090  -20.1040   20.2820 C   0  0  0  0  0  0  0  0  0  0  0  0
  -30.6330  -17.8350   19.2380 C   0  0  0  0  0  0  0  0  0  0  0  0
  -30.2880  -17.9920   21.6250 C   0  0  0  0  0  0  0  0  0  0  0  0
  -30.5170  -17.1610   20.4900 C   0  0  0  0  0  0  0  0  0  0  0  0
  -31.2300  -14.6690   20.1920 C   0  0  0  0  0  0  0  0  0  0  0  0
  -31.0250  -12.4150   19.1580 C   0  0  0  0  0  2  0  0  0  0  0  0
  -30.0550  -12.5180   17.9590 C   0  0  0  0  0  2  0  0  0  0  0  0
  -28.5930  -12.3460   18.4200 C   0  0  0  0  0  2  0  0  0  0  0  0
  -28.2520  -13.2190   19.6570 C   0  0  0  0  0  3  0  0  0  0  0  0
  -29.3340  -13.0850   20.7530 C   0  0  0  0  0  2  0  0  0  0  0  0
  -30.6280  -13.4360   20.1500 N   0  0  0  0  0  0  0  0  0  0  0  0
  -32.3590  -14.8410   19.7210 O   0  0  0  0  0  0  0  0  0  0  0  0
  -30.4760  -15.7040   20.6740 N   0  0  0  0  0  0  0  0  0  0  0  0
  -29.6700  -15.4050   21.2000 H   0  0  0  0  0  0  0  0  0  0  0  0
  -25.8770  -13.8020   20.4500 C   0  0  0  0  0  0  0  0  0  0  0  0
  -24.8210  -13.0220   20.8330 C   0  0  0  0  0  0  0  0  0  0  0  0
  -25.2800  -11.6720   20.7610 C   0  0  0  0  0  0  0  0  0  0  0  0
  -26.9160  -12.9280   20.1710 N   0  0  0  0  0  0  0  0  0  0  0  0
  -26.5620  -11.6390   20.4160 N   0  0  0  0  0  0  0  0  0  0  0  0
  -24.5580  -10.4060   20.9470 C   0  0  0  0  0  0  0  0  0  0  0  0
  -24.9030   -9.5030   21.9760 C   0  0  0  0  0  3  0  0  0  0  0  0
  -24.1810   -8.3010   22.1450 C   0  0  0  0  0  3  0  0  0  0  0  0
  -23.1020   -7.9950   21.2850 C   0  0  0  0  0  0  0  0  0  0  0  0
  -22.7770   -8.8860   20.2470 C   0  0  0  0  0  3  0  0  0  0  0  0
  -23.5000  -10.0790   20.0760 C   0  0  0  0  0  3  0  0  0  0  0  0
  -22.3610   -6.8400   21.3570 O   0  0  0  0  0  0  0  0  0  0  0  0
  -22.0210   -6.2780   22.5610 C   0  0  0  0  0  0  0  0  0  0  0  0
  -21.2660   -6.9800   23.5260 C   0  0  0  0  0  3  0  0  0  0  0  0
  -20.8800   -6.3410   24.7210 C   0  0  0  0  0  3  0  0  0  0  0  0
  -21.2390   -4.9980   24.9490 C   0  0  0  0  0  0  0  0  0  0  0  0
  -21.9850   -4.2950   23.9870 C   0  0  0  0  0  3  0  0  0  0  0  0
  -22.3730   -4.9320   22.7960 C   0  0  0  0  0  0  0  0  0  0  0  0
  -23.0740   -4.2440   21.8630 F   0  0  0  0  0  0  0  0  0  0  0  0
  -20.8610   -4.3800   26.0920 F   0  0  0  0  0  0  0  0  0  0  0  0
  -23.4320  -13.4940   21.1560 C   0  0  0  0  0  0  0  0  0  0  0  0
  -22.7310  -12.7850   22.0330 N   0  0  0  0  0  0  0  0  0  0  0  0
  -22.9780  -14.5270   20.6640 O   0  0  0  0  0  0  0  0  0  0  0  0
  -23.1110  -11.9490   22.4520 H   0  0  0  0  0  0  0  0  0  0  0  0
  -21.8010  -13.0830   22.2910 H   0  0  0  0  0  0  0  0  0  0  0  0
  -26.0360  -15.1770   20.2960 N   0  0  0  0  0  0  0  0  0  0  0  0
  -25.2770  -15.8300   20.4550 H   0  0  0  0  0  0  0  0  0  0  0  0
  -26.8850  -15.6260   19.9780 H   0  0  0  0  0  0  0  0  0  0  0  0
  -31.2550  -22.3170   19.5860 C   0  0  0  0  0  0  0  0  0  0  0  0
  -29.3390  -22.4590   20.6460 C   0  0  0  0  0  0  0  0  0  0  0  0
  -30.9760  -23.8240   19.6010 C   0  0  0  0  0  2  0  0  0  0  0  0
  -29.7440  -23.9700   20.4950 C   0  0  0  0  0  3  0  0  0  0  0  0
  -30.2800  -21.5880   20.1710 N   0  0  0  0  0  0  0  0  0  0  0  0
  -32.2980  -21.8690   19.0940 O   0  0  0  0  0  0  0  0  0  0  0  0
  -28.2640  -22.1250   21.1560 O   0  0  0  0  0  0  0  0  0  0  0  0
  -28.6550  -25.0290   20.0140 C   0  0  0  0  0  2  0  0  0  0  0  0
  -28.8570  -26.4810   20.2690 O   0  0  0  0  0  0  0  0  0  0  0  0
  -24.8920  -31.6500   23.3550 C   0  0  0  0  0  0  0  0  0  0  0  0
  -27.7330  -27.3200   20.1870 C   0  0  0  0  0  0  0  0  0  0  0  0
  -23.7920  -30.3180   21.5920 C   0  0  0  0  0  3  0  0  0  0  0  0
  -25.3370  -28.8840   20.1480 C   0  0  0  0  0  0  0  0  0  0  0  0
  -26.3290  -30.7010   21.5380 C   0  0  0  0  0  2  0  0  0  0  0  0
  -26.4670  -29.3630   20.8220 C   0  0  0  0  0  0  0  0  0  0  0  0
  -27.6690  -28.5940   20.8330 C   0  0  0  0  0  3  0  0  0  0  0  0
  -26.5830  -26.9050   19.4760 C   0  0  0  0  0  3  0  0  0  0  0  0
  -25.3970  -27.6610   19.4650 C   0  0  0  0  0  3  0  0  0  0  0  0
  -24.0790  -29.7260   20.1890 C   0  0  0  0  0  2  0  0  0  0  0  0
  -25.0200  -30.9040   22.2200 N   0  0  0  0  0  0  0  0  0  0  0  0
  -23.7800  -31.8770   23.8550 O   0  0  0  0  0  0  0  0  0  0  0  0
  -23.1130  -29.2370   22.4660 C   0  0  0  0  0  0  0  0  0  0  0  0
  -21.7980  -29.0370   22.2680 N   0  0  0  0  0  0  0  0  0  0  0  0
  -23.7700  -28.5840   23.2810 O   0  0  0  0  0  0  0  0  0  0  0  0
  -21.3290  -29.6200   21.5910 H   0  0  0  0  0  0  0  0  0  0  0  0
  -18.4240  -27.7730   22.5780 C   0  0  0  0  0  0  0  0  0  0  0  0
  -20.9680  -28.0440   22.9510 C   0  0  0  0  0  3  0  0  0  0  0  0
  -21.1080  -26.6510   22.2940 C   0  0  0  0  0  2  0  0  0  0  0  0
  -20.0450  -26.3800   21.2240 C   0  0  0  0  0  2  0  0  0  0  0  0
  -18.6410  -26.4710   21.8270 C   0  0  0  0  0  2  0  0  0  0  0  0
  -19.5160  -28.5200   23.0930 C   0  0  0  0  0  0  0  0  0  0  0  0
  -19.2610  -29.7410   23.7530 C   0  0  0  0  0  3  0  0  0  0  0  0
  -17.9450  -30.2150   23.9050 C   0  0  0  0  0  3  0  0  0  0  0  0
  -16.8650  -29.4650   23.4060 C   0  0  0  0  0  3  0  0  0  0  0  0
  -17.1050  -28.2460   22.7490 C   0  0  0  0  0  3  0  0  0  0  0  0
  -26.1320  -32.2740   24.0660 C   0  0  0  0  0  3  0  0  0  0  0  0
  -26.5820  -31.4710   25.3470 C   0  0  1  0  0  0  0  0  0  0  0  0
  -25.4300  -31.1870   26.3400 C   0  0  0  0  0  1  0  0  0  0  0  0
  -27.2070  -30.1140   24.9490 C   0  0  0  0  0  1  0  0  0  0  0  0
  -27.6790  -32.2590   26.0990 C   0  0  0  0  0  1  0  0  0  0  0  0
  -25.7920  -33.6600   24.4170 N   0  0  0  0  0  0  0  0  0  0  0  0
  -26.1140  -34.7340   23.6830 C   0  0  0  0  0  0  0  0  0  0  0  0
  -26.7990  -34.6630   22.6580 O   0  0  0  0  0  0  0  0  0  0  0  0
  -25.1870  -33.7890   25.2150 H   0  0  0  0  0  0  0  0  0  0  0  0
  -24.3390  -36.4860   23.3620 C   0  0  0  0  0  1  0  0  0  0  0  0
  -25.5950  -36.1040   24.1600 C   0  0  0  0  0  3  0  0  0  0  0  0
  -27.7090  -37.0350   24.9920 C   0  0  0  0  0  1  0  0  0  0  0  0
  -26.5990  -37.1850   24.0540 N   0  0  0  0  0  0  0  0  0  0  0  0
  -26.1710  -38.0920   24.2150 H   0  0  0  0  0  0  0  0  0  0  0  0
  -30.8260  -17.1130   18.0600 N   0  0  0  0  0  0  0  0  0  0  0  0
  -31.2240  -17.6220   17.2790 H   0  0  0  0  0  0  0  0  0  0  0  0
  -31.3040  -16.2210   18.2020 H   0  0  0  0  0  0  0  0  0  0  0  0
  -30.1730  -17.3930   22.8820 N   0  0  0  0  0  0  0  0  0  0  0  0
  -30.2590  -18.0000   23.6900 H   0  0  0  0  0  0  0  0  0  0  0  0
  -30.6950  -16.5330   23.0140 H   0  0  0  0  0  0  0  0  0  0  0  0
  1  4  2  0
  1  3  1  0
  2  5  1  0
  3  2  2  0
  4  6  1  0
  5 97  1  0
  6 15  1  0
  6  5  2  0
  7 15  1  0
  8 13  1  0
  9 10  1  0
  9  8  1  0
 11 10  1  0
 11 20  1  0
 11 12  1  0
 13  7  1  0
 13 12  1  0
 14  7  2  0
 15 16  1  0
 17 18  2  0
 18 37  1  0
 19 18  1  0
 19 22  1  0
 20 21  1  0
 20 17  1  0
 21 19  2  0
 22 23  1  0
 23 24  2  0
 25 28  1  0
 25 24  1  0
 26 25  2  0
 27 26  1  0
 27 22  2  0
 28 29  1  0
 29 34  2  0
 29 30  1  0
 30 31  2  0
 31 32  1  0
 32 36  1  0
 33 32  2  0
 34 33  1  0
 35 34  1  0
 37 38  1  0
 38 41  1  0
 38 40  1  0
 39 37  2  0
 42 17  1  0
 42 43  1  0
 44 42  1  0
 45 47  1  0
 45 49  1  0
 46 51  2  0
 47 48  1  0
 48 52  1  0
 48 46  1  0
 49  3  1  0
 49 46  1  0
 50 45  2  0
 52 53  1  0
 54 65  2  0
 55 53  1  0
 55 60  1  0
 56 64  1  0
 56 66  1  0
 57 63  1  0
 57 59  1  0
 58 64  1  0
 59 60  2  0
 59 58  1  0
 61 55  2  0
 62 61  1  0
 62 57  2  0
 63 56  1  0
 64 54  1  0
 66 68  2  0
 67 66  1  0
 69 67  1  0
 70 79  2  0
 70 75  1  0
 71 67  1  0
 71 75  1  0
 72 71  1  0
 73 74  1  0
 73 72  1  0
 74 70  1  0
 75 76  2  0
 76 77  1  0
 78 77  2  0
 79 78  1  0
 80 54  1  0
 80 85  1  0
 80 81  1  0
 81 84  1  1
 81 82  1  0
 83 81  1  0
 85 88  1  0
 86 90  1  0
 86 85  1  0
 87 86  2  0
 90 89  1  0
 92 90  1  0
 92 93  1  0
 92 91  1  0
 94 96  1  0
 94  4  1  0
 95 94  1  0
 97 99  1  0
 97 98  1  0
M  ISO  4   7 100  15 100  52 101  53 101
M  END
>  <TORSDO>  (91) 
F 20

>  <SCORE>  (91) 
-12.770

>  <name>  (91) 
90

>  <ligand_id>  (91) 
90

>  <original_smiles>  (91) 
[H]c1c([H])c([H])c2c(c1[H])C([H])([H])C([H])([H])C([H])([H])C2([H])N([H])C(=O)C1([H])N(C(=O)C([H])(N([H])C(=O)C([H])(N([H])C([H])([H])[H])C([H])([H])[H])C(C([H])([H])[H])(C([H])([H])[H])C([H])([H])[H])C([H])([H])c2c([H])c(OC([H])([H])C3([H])C(=O)N(c4c([H])c(N([H])[H])c(N([H])C(=O)N5C([H])([H])C([H])([H])C([H])([H])C([H])(n6nc(-c7c([H])c([H])c(Oc8c([H])c([H])c(F)c([H])c8F)c([H])c7[H])c(C(=O)N([H])[H])c6N([H])[H])C5([H])[H])c(N([H])[H])c4[H])C(=O)C3([H])[H])c([H])c([H])c2C1([H])[H]

>  <smiles>  (91) 
[H]c1c([H])c([H])c2c(c1[H])C([H])([H])C([H])([H])C([H])([H])C2([H])N([H])C(=O)C1([H])N(C(=O)C([H])(N([H])C(=O)C([H])(N([H])C([H])([H])[H])C([H])([H])[H])C(C([H])([H])[H])(C([H])([H])[H])C([H])([H])[H])C([H])([H])c2c([H])c(OC([H])([H])C3([H])C(=O)N(c4c([H])c(N([H])[H])c(N([H])C(=O)N5C([H])([H])C([H])([H])C([H])([H])C([H])(n6nc(-c7c([H])c([H])c(Oc8c([H])c([H])c(F)c([H])c8F)c([H])c7[H])c(C(=O)N([H])[H])c6N([H])[H])C5([H])[H])c(N([H])[H])c4[H])C(=O)C3([H])[H])c([H])c([H])c2C1([H])[H]

$$$$
91:0:0
     RDKit          3D

 96105  0  0  1  0  0  0  0  0999 V2000
  -30.6400  -22.0690   22.1480 C   0  0  0  0  0  0  0  0  0  0  0  0
  -30.9580  -23.5720   22.1990 C   0  0  0  0  0  2  0  0  0  0  0  0
  -29.7670  -24.4700   21.8610 C   0  0  0  0  0  2  0  0  0  0  0  0
  -28.8490  -22.5180   20.5100 C   0  0  0  0  0  2  0  0  0  0  0  0
  -29.1940  -24.0820   20.4990 C   0  0  0  0  0  3  0  0  0  0  0  0
  -29.8350  -21.5770   21.1630 N   0  0  0  0  0  0  0  0  0  0  0  0
  -31.1630  -21.3620   23.0170 O   0  0  0  0  0  0  0  0  0  0  0  0
  -28.6520  -19.3310   20.8140 C   0  0  0  0  0  3  0  0  0  0  0  0
  -28.7080  -17.9210   20.5890 C   0  0  0  0  0  3  0  0  0  0  0  0
  -31.0510  -19.3980   20.7720 C   0  0  0  0  0  3  0  0  0  0  0  0
  -29.8300  -20.1180   20.9140 C   0  0  0  0  0  0  0  0  0  0  0  0
  -29.9320  -17.2040   20.4340 C   0  0  0  0  0  0  0  0  0  0  0  0
  -31.1140  -17.9970   20.5300 C   0  0  0  0  0  0  0  0  0  0  0  0
  -30.6070  -14.7150   20.3030 C   0  0  0  0  0  0  0  0  0  0  0  0
  -30.3630  -12.4240   19.3850 C   0  0  0  0  0  2  0  0  0  0  0  0
  -29.4410  -12.4540   18.1480 C   0  0  0  0  0  2  0  0  0  0  0  0
  -27.9620  -12.3420   18.5690 C   0  0  0  0  0  2  0  0  0  0  0  0
  -27.5770  -13.2580   19.7670 C   0  0  0  0  0  3  0  0  0  0  0  0
  -28.6340  -13.2180   20.8900 C   0  0  0  0  0  2  0  0  0  0  0  0
  -29.9320  -13.5200   20.2740 N   0  0  0  0  0  0  0  0  0  0  0  0
  -31.8340  -14.7180   20.1750 O   0  0  0  0  0  0  0  0  0  0  0  0
  -29.7180  -15.9040   18.4220 C   0  0  0  0  0  1  0  0  0  0  0  0
  -29.9010  -15.8380   19.8860 N   0  0  0  0  0  0  0  0  0  0  0  0
  -25.1780  -13.8510   20.4550 C   0  0  0  0  0  0  0  0  0  0  0  0
  -24.1090  -13.0770   20.8140 C   0  0  0  0  0  0  0  0  0  0  0  0
  -24.5790  -11.7280   20.8120 C   0  0  0  0  0  0  0  0  0  0  0  0
  -26.2320  -12.9730   20.2550 N   0  0  0  0  0  0  0  0  0  0  0  0
  -25.8770  -11.6920   20.5320 N   0  0  0  0  0  0  0  0  0  0  0  0
  -23.8570  -10.4640   21.0080 C   0  0  0  0  0  0  0  0  0  0  0  0
  -24.2890   -9.5070   21.9520 C   0  0  0  0  0  3  0  0  0  0  0  0
  -23.5670   -8.3080   22.1370 C   0  0  0  0  0  3  0  0  0  0  0  0
  -22.3990   -8.0590   21.3770 C   0  0  0  0  0  0  0  0  0  0  0  0
  -21.9880   -9.0050   20.4220 C   0  0  0  0  0  3  0  0  0  0  0  0
  -22.7100  -10.1960   20.2370 C   0  0  0  0  0  3  0  0  0  0  0  0
  -21.6490   -6.9110   21.4690 O   0  0  0  0  0  0  0  0  0  0  0  0
  -21.6010   -6.1750   22.6260 C   0  0  0  0  0  0  0  0  0  0  0  0
  -21.1720   -6.7360   23.8480 C   0  0  0  0  0  3  0  0  0  0  0  0
  -21.0700   -5.9280   24.9970 C   0  0  0  0  0  3  0  0  0  0  0  0
  -21.3890   -4.5580   24.9240 C   0  0  0  0  0  0  0  0  0  0  0  0
  -21.8120   -3.9960   23.7060 C   0  0  0  0  0  3  0  0  0  0  0  0
  -21.9140   -4.8020   22.5600 C   0  0  0  0  0  0  0  0  0  0  0  0
  -22.3010   -4.2530   21.3840 F   0  0  0  0  0  0  0  0  0  0  0  0
  -21.2850   -3.7770   26.0240 F   0  0  0  0  0  0  0  0  0  0  0  0
  -22.7070  -13.5510   21.0550 C   0  0  0  0  0  0  0  0  0  0  0  0
  -21.9690  -12.8670   21.9230 N   0  0  0  0  0  0  0  0  0  0  0  0
  -22.2720  -14.5650   20.5090 O   0  0  0  0  0  0  0  0  0  0  0  0
  -22.3290  -12.0430   22.3840 H   0  0  0  0  0  0  0  0  0  0  0  0
  -21.0290  -13.1710   22.1320 H   0  0  0  0  0  0  0  0  0  0  0  0
  -25.3340  -15.2190   20.2590 N   0  0  0  0  0  0  0  0  0  0  0  0
  -24.5530  -15.8610   20.3280 H   0  0  0  0  0  0  0  0  0  0  0  0
  -26.1920  -15.6690   19.9640 H   0  0  0  0  0  0  0  0  0  0  0  0
  -32.3770  -17.4480   20.3070 N   0  0  0  0  0  0  0  0  0  0  0  0
  -32.4450  -16.4280   20.2730 H   0  0  0  0  0  0  0  0  0  0  0  0
  -33.2040  -17.9050   20.6760 H   0  0  0  0  0  0  0  0  0  0  0  0
  -28.0280  -25.0690   20.0770 C   0  0  0  0  0  2  0  0  0  0  0  0
  -28.2570  -26.5270   20.1340 O   0  0  0  0  0  0  0  0  0  0  0  0
  -24.5500  -31.8790   23.2090 C   0  0  0  0  0  0  0  0  0  0  0  0
  -27.1280  -27.3580   20.0940 C   0  0  0  0  0  0  0  0  0  0  0  0
  -23.3240  -30.4900   21.5760 C   0  0  0  0  0  3  0  0  0  0  0  0
  -24.7550  -28.9510   20.1230 C   0  0  0  0  0  0  0  0  0  0  0  0
  -25.8590  -30.8180   21.3580 C   0  0  0  0  0  2  0  0  0  0  0  0
  -25.9300  -29.4450   20.7040 C   0  0  0  0  0  0  0  0  0  0  0  0
  -27.1190  -28.6600   20.6750 C   0  0  0  0  0  3  0  0  0  0  0  0
  -25.9270  -26.9160   19.4870 C   0  0  0  0  0  3  0  0  0  0  0  0
  -24.7550  -27.6920   19.5050 C   0  0  0  0  0  3  0  0  0  0  0  0
  -23.5170  -29.8180   20.1910 C   0  0  0  0  0  2  0  0  0  0  0  0
  -24.5980  -31.0780   22.1050 N   0  0  0  0  0  0  0  0  0  0  0  0
  -23.4720  -32.1520   23.7600 O   0  0  0  0  0  0  0  0  0  0  0  0
  -22.6740  -29.4690   22.5400 C   0  0  0  0  0  0  0  0  0  0  0  0
  -21.3460  -29.2900   22.4240 N   0  0  0  0  0  0  0  0  0  0  0  0
  -23.3620  -28.8390   23.3470 O   0  0  0  0  0  0  0  0  0  0  0  0
  -20.8510  -29.8500   21.7450 H   0  0  0  0  0  0  0  0  0  0  0  0
  -17.9740  -28.0930   22.9470 C   0  0  0  0  0  0  0  0  0  0  0  0
  -20.5340  -28.3500   23.1990 C   0  0  0  0  0  3  0  0  0  0  0  0
  -20.6320  -26.9200   22.6170 C   0  0  0  0  0  2  0  0  0  0  0  0
  -19.5230  -26.6020   21.6110 C   0  0  0  0  0  2  0  0  0  0  0  0
  -18.1450  -26.7450   22.2640 C   0  0  0  0  0  2  0  0  0  0  0  0
  -19.0950  -28.8530   23.3710 C   0  0  0  0  0  0  0  0  0  0  0  0
  -18.8800  -30.1150   23.9660 C   0  0  0  0  0  3  0  0  0  0  0  0
  -17.5770  -30.6170   24.1410 C   0  0  0  0  0  3  0  0  0  0  0  0
  -16.4690  -29.8520   23.7340 C   0  0  0  0  0  3  0  0  0  0  0  0
  -16.6690  -28.5910   23.1440 C   0  0  0  0  0  3  0  0  0  0  0  0
  -25.8400  -32.5050   23.8210 C   0  0  0  0  0  3  0  0  0  0  0  0
  -26.3680  -31.7270   25.0870 C   0  0  1  0  0  0  0  0  0  0  0  0
  -25.2860  -31.4850   26.1650 C   0  0  0  0  0  1  0  0  0  0  0  0
  -26.9410  -30.3520   24.6790 C   0  0  0  0  0  1  0  0  0  0  0  0
  -27.5300  -32.5130   25.7370 C   0  0  0  0  0  1  0  0  0  0  0  0
  -25.5400  -33.9040   24.1620 N   0  0  0  0  0  0  0  0  0  0  0  0
  -25.8730  -34.9580   23.4070 C   0  0  0  0  0  0  0  0  0  0  0  0
  -26.5350  -34.8560   22.3700 O   0  0  0  0  0  0  0  0  0  0  0  0
  -24.9570  -34.0560   24.9710 H   0  0  0  0  0  0  0  0  0  0  0  0
  -24.1540  -36.7580   23.0660 C   0  0  0  0  0  1  0  0  0  0  0  0
  -25.3940  -36.3460   23.8750 C   0  0  0  0  0  3  0  0  0  0  0  0
  -27.5340  -37.2080   24.7130 C   0  0  0  0  0  1  0  0  0  0  0  0
  -26.4330  -37.3930   23.7700 N   0  0  0  0  0  0  0  0  0  0  0  0
  -26.0360  -38.3150   23.9240 H   0  0  0  0  0  0  0  0  0  0  0  0
  1  2  1  0
  1  7  2  0
  3  2  1  0
  4  6  1  0
  5 55  1  0
  5  4  1  0
  5  3  1  0
  6  1  1  0
  8 11  1  0
  9  8  2  0
 10 11  2  0
 11  6  1  0
 12 13  2  0
 12  9  1  0
 13 10  1  0
 15 20  1  0
 16 17  1  0
 16 15  1  0
 18 17  1  0
 18 27  1  0
 18 19  1  0
 20 14  1  0
 20 19  1  0
 21 14  2  0
 22 23  1  0
 23 14  1  0
 23 12  1  0
 24 25  2  0
 25 44  1  0
 26 25  1  0
 26 29  1  0
 27 24  1  0
 27 28  1  0
 28 26  2  0
 29 30  1  0
 30 31  2  0
 32 35  1  0
 32 31  1  0
 33 32  2  0
 34 33  1  0
 34 29  2  0
 35 36  1  0
 36 37  1  0
 37 38  2  0
 39 38  1  0
 39 43  1  0
 40 39  2  0
 41 36  2  0
 41 40  1  0
 42 41  1  0
 44 45  1  0
 45 48  1  0
 45 47  1  0
 46 44  2  0
 49 50  1  0
 49 24  1  0
 51 49  1  0
 52 13  1  0
 52 54  1  0
 53 52  1  0
 55 56  1  0
 57 68  2  0
 58 56  1  0
 58 63  1  0
 59 67  1  0
 59 69  1  0
 60 66  1  0
 60 62  1  0
 61 67  1  0
 62 61  1  0
 63 62  2  0
 64 65  1  0
 64 58  2  0
 65 60  2  0
 66 59  1  0
 67 57  1  0
 69 71  2  0
 70 69  1  0
 72 70  1  0
 73 82  2  0
 73 78  1  0
 74 70  1  0
 74 78  1  0
 75 74  1  0
 76 77  1  0
 76 75  1  0
 77 73  1  0
 78 79  2  0
 79 80  1  0
 81 80  2  0
 82 81  1  0
 83 57  1  0
 83 88  1  0
 83 84  1  0
 84 87  1  1
 84 85  1  0
 86 84  1  0
 88 91  1  0
 89 93  1  0
 89 88  1  0
 90 89  2  0
 93 92  1  0
 95 93  1  0
 95 96  1  0
 95 94  1  0
M  ISO  4  14 100  23 100  55 101  56 101
M  END
>  <TORSDO>  (92) 
F 19

>  <SCORE>  (92) 
-13.611

>  <name>  (92) 
91

>  <ligand_id>  (92) 
91

>  <original_smiles>  (92) 
[H]c1c([H])c([H])c2c(c1[H])C([H])([H])C([H])([H])C([H])([H])C2([H])N([H])C(=O)C1([H])N(C(=O)C([H])(N([H])C(=O)C([H])(N([H])C([H])([H])[H])C([H])([H])[H])C(C([H])([H])[H])(C([H])([H])[H])C([H])([H])[H])C([H])([H])c2c([H])c(OC([H])([H])C3([H])C([H])([H])N(c4c([H])c([H])c(N(C(=O)N5C([H])([H])C([H])([H])C([H])([H])C([H])(n6nc(-c7c([H])c([H])c(Oc8c([H])c([H])c(F)c([H])c8F)c([H])c7[H])c(C(=O)N([H])[H])c6N([H])[H])C5([H])[H])C([H])([H])[H])c(N([H])[H])c4[H])C(=O)C([H])([H])C3([H])[H])c([H])c([H])c2C1([H])[H]

>  <smiles>  (92) 
[H]c1c([H])c([H])c2c(c1[H])C([H])([H])C([H])([H])C([H])([H])C2([H])N([H])C(=O)C1([H])N(C(=O)C([H])(N([H])C(=O)C([H])(N([H])C([H])([H])[H])C([H])([H])[H])C(C([H])([H])[H])(C([H])([H])[H])C([H])([H])[H])C([H])([H])c2c([H])c(OC([H])([H])C3([H])C([H])([H])N(c4c([H])c([H])c(N(C(=O)N5C([H])([H])C([H])([H])C([H])([H])C([H])(n6nc(-c7c([H])c([H])c(Oc8c([H])c([H])c(F)c([H])c8F)c([H])c7[H])c(C(=O)N([H])[H])c6N([H])[H])C5([H])[H])C([H])([H])[H])c(N([H])[H])c4[H])C(=O)C([H])([H])C3([H])[H])c([H])c([H])c2C1([H])[H]

$$$$
92:0:0
     RDKit          3D

 95104  0  0  1  0  0  0  0  0999 V2000
  -30.4130  -24.2180   20.1900 C   0  0  0  0  0  3  0  0  0  0  0  0
  -31.0300  -21.8860   20.2340 C   0  0  0  0  0  3  0  0  0  0  0  0
  -29.1160  -23.9290   19.9610 C   0  0  0  0  0  0  0  0  0  0  0  0
  -31.4080  -23.1730   20.3420 C   0  0  0  0  0  0  0  0  0  0  0  0
  -28.7130  -22.4760   19.8610 C   0  0  0  0  0  0  0  0  0  0  0  0
  -29.7000  -21.4950   19.9780 N   0  0  0  0  0  0  0  0  0  0  0  0
  -27.5340  -22.1550   19.6820 O   0  0  0  0  0  0  0  0  0  0  0  0
  -30.5730  -17.9170   19.2560 C   0  0  0  0  0  3  0  0  0  0  0  0
  -29.8960  -16.9770   20.2700 C   0  0  0  0  0  0  0  0  0  0  0  0
  -29.2920  -19.3370   21.3010 C   0  0  0  0  0  2  0  0  0  0  0  0
  -29.0040  -17.8030   21.2250 C   0  0  0  0  0  3  0  0  0  0  0  0
  -29.4240  -19.9910   19.9050 C   0  0  0  0  0  3  0  0  0  0  0  0
  -30.4300  -19.2100   19.1270 N   0  0  0  0  0  0  0  0  0  0  0  0
  -29.9390  -15.6760   20.4510 N   0  0  0  0  0  0  0  0  0  0  0  0
  -27.7160  -17.6210   20.9170 F   0  0  0  0  0  0  0  0  0  0  0  0
  -30.6740  -14.7160   19.7150 C   0  0  0  0  0  0  0  0  0  0  0  0
  -30.3920  -12.5010   18.5830 C   0  0  0  0  0  2  0  0  0  0  0  0
  -29.3040  -12.6360   17.4930 C   0  0  0  0  0  2  0  0  0  0  0  0
  -27.8930  -12.4310   18.0860 C   0  0  0  0  0  2  0  0  0  0  0  0
  -27.6710  -13.2550   19.3830 C   0  0  0  0  0  3  0  0  0  0  0  0
  -28.8540  -13.0740   20.3570 C   0  0  0  0  0  2  0  0  0  0  0  0
  -30.0820  -13.4770   19.6480 N   0  0  0  0  0  0  0  0  0  0  0  0
  -31.7160  -14.9320   19.0930 O   0  0  0  0  0  0  0  0  0  0  0  0
  -25.4080  -13.8060   20.4710 C   0  0  0  0  0  0  0  0  0  0  0  0
  -24.3780  -13.0120   20.8990 C   0  0  0  0  0  0  0  0  0  0  0  0
  -24.7980  -11.6660   20.6700 C   0  0  0  0  0  0  0  0  0  0  0  0
  -26.3890  -12.9410   20.0110 N   0  0  0  0  0  0  0  0  0  0  0  0
  -26.0330  -11.6430   20.1860 N   0  0  0  0  0  0  0  0  0  0  0  0
  -24.0710  -10.3990   20.8320 C   0  0  0  0  0  0  0  0  0  0  0  0
  -24.5080   -9.4080   21.7380 C   0  0  0  0  0  3  0  0  0  0  0  0
  -23.7820   -8.2070   21.8890 C   0  0  0  0  0  3  0  0  0  0  0  0
  -22.6060   -7.9890   21.1330 C   0  0  0  0  0  0  0  0  0  0  0  0
  -22.1890   -8.9690   20.2150 C   0  0  0  0  0  3  0  0  0  0  0  0
  -22.9160  -10.1610   20.0620 C   0  0  0  0  0  3  0  0  0  0  0  0
  -21.8530   -6.8410   21.1930 O   0  0  0  0  0  0  0  0  0  0  0  0
  -21.6750   -6.1570   22.3690 C   0  0  0  0  0  0  0  0  0  0  0  0
  -21.0530   -6.7500   23.4890 C   0  0  0  0  0  3  0  0  0  0  0  0
  -20.8280   -5.9900   24.6550 C   0  0  0  0  0  3  0  0  0  0  0  0
  -21.2140   -4.6370   24.6990 C   0  0  0  0  0  0  0  0  0  0  0  0
  -21.8290   -4.0430   23.5820 C   0  0  0  0  0  3  0  0  0  0  0  0
  -22.0560   -4.8000   22.4190 C   0  0  0  0  0  0  0  0  0  0  0  0
  -22.6290   -4.2180   21.3390 F   0  0  0  0  0  0  0  0  0  0  0  0
  -20.9920   -3.9040   25.8140 F   0  0  0  0  0  0  0  0  0  0  0  0
  -23.0440  -13.4750   21.4090 C   0  0  0  0  0  0  0  0  0  0  0  0
  -22.4320  -12.7120   22.3060 N   0  0  0  0  0  0  0  0  0  0  0  0
  -22.5570  -14.5460   21.0480 O   0  0  0  0  0  0  0  0  0  0  0  0
  -22.8400  -11.8410   22.6140 H   0  0  0  0  0  0  0  0  0  0  0  0
  -21.5430  -13.0010   22.6910 H   0  0  0  0  0  0  0  0  0  0  0  0
  -25.5860  -15.1850   20.4190 N   0  0  0  0  0  0  0  0  0  0  0  0
  -24.8860  -15.8400   20.7490 H   0  0  0  0  0  0  0  0  0  0  0  0
  -26.4560  -15.6360   20.1610 H   0  0  0  0  0  0  0  0  0  0  0  0
  -32.6870  -23.4750   20.5850 O   0  0  0  0  0  0  0  0  0  0  0  0
  -32.7630  -24.4210   20.6240 H   0  0  0  0  0  0  0  0  0  0  0  0
  -28.0300  -25.0490   19.7730 C   0  0  0  0  0  2  0  0  0  0  0  0
  -28.3110  -26.4760   20.0980 O   0  0  0  0  0  0  0  0  0  0  0  0
  -24.6350  -31.7960   23.3560 C   0  0  0  0  0  0  0  0  0  0  0  0
  -27.2060  -27.3550   20.0830 C   0  0  0  0  0  0  0  0  0  0  0  0
  -23.4130  -30.4710   21.6700 C   0  0  0  0  0  3  0  0  0  0  0  0
  -24.8470  -28.9840   20.1650 C   0  0  0  0  0  0  0  0  0  0  0  0
  -25.9550  -30.7880   21.4790 C   0  0  0  0  0  2  0  0  0  0  0  0
  -26.0250  -29.4380   20.7730 C   0  0  0  0  0  0  0  0  0  0  0  0
  -27.2070  -28.6360   20.7220 C   0  0  0  0  0  3  0  0  0  0  0  0
  -26.0000  -26.9690   19.4470 C   0  0  0  0  0  3  0  0  0  0  0  0
  -24.8380  -27.7560   19.4950 C   0  0  0  0  0  3  0  0  0  0  0  0
  -23.6140  -29.8590   20.2610 C   0  0  0  0  0  2  0  0  0  0  0  0
  -24.6870  -31.0330   22.2250 N   0  0  0  0  0  0  0  0  0  0  0  0
  -23.5570  -32.0540   23.9090 O   0  0  0  0  0  0  0  0  0  0  0  0
  -22.7550  -29.4150   22.5910 C   0  0  0  0  0  0  0  0  0  0  0  0
  -21.4400  -29.1970   22.4190 N   0  0  0  0  0  0  0  0  0  0  0  0
  -23.4270  -28.7980   23.4220 O   0  0  0  0  0  0  0  0  0  0  0  0
  -20.9560  -29.7490   21.7250 H   0  0  0  0  0  0  0  0  0  0  0  0
  -18.0980  -27.8540   22.7620 C   0  0  0  0  0  0  0  0  0  0  0  0
  -20.6290  -28.2210   23.1480 C   0  0  0  0  0  3  0  0  0  0  0  0
  -20.8170  -26.7980   22.5720 C   0  0  0  0  0  2  0  0  0  0  0  0
  -19.7750  -26.4340   21.5090 C   0  0  0  0  0  2  0  0  0  0  0  0
  -18.3610  -26.5170   22.0900 C   0  0  0  0  0  2  0  0  0  0  0  0
  -19.1620  -28.6610   23.2450 C   0  0  0  0  0  0  0  0  0  0  0  0
  -18.8630  -29.9100   23.8320 C   0  0  0  0  0  3  0  0  0  0  0  0
  -17.5320  -30.3540   23.9390 C   0  0  0  0  0  3  0  0  0  0  0  0
  -16.4810  -29.5460   23.4730 C   0  0  0  0  0  3  0  0  0  0  0  0
  -16.7640  -28.2970   22.8920 C   0  0  0  0  0  3  0  0  0  0  0  0
  -25.9240  -32.3980   23.9920 C   0  0  0  0  0  3  0  0  0  0  0  0
  -26.3780  -31.6450   25.3030 C   0  0  1  0  0  0  0  0  0  0  0  0
  -25.2470  -31.4690   26.3440 C   0  0  0  0  0  1  0  0  0  0  0  0
  -26.9280  -30.2410   24.9630 C   0  0  0  0  0  1  0  0  0  0  0  0
  -27.5330  -32.4210   25.9790 C   0  0  0  0  0  1  0  0  0  0  0  0
  -25.6590  -33.8160   24.2770 N   0  0  0  0  0  0  0  0  0  0  0  0
  -26.0140  -34.8320   23.4780 C   0  0  0  0  0  0  0  0  0  0  0  0
  -26.6690  -34.6720   22.4460 O   0  0  0  0  0  0  0  0  0  0  0  0
  -25.0770  -34.0160   25.0760 H   0  0  0  0  0  0  0  0  0  0  0  0
  -24.3190  -36.6510   23.0960 C   0  0  0  0  0  1  0  0  0  0  0  0
  -25.5720  -36.2490   23.8920 C   0  0  0  0  0  3  0  0  0  0  0  0
  -27.7400  -37.1230   24.6430 C   0  0  0  0  0  1  0  0  0  0  0  0
  -26.6250  -37.2720   23.7110 N   0  0  0  0  0  0  0  0  0  0  0  0
  -26.2420  -38.2060   23.8230 H   0  0  0  0  0  0  0  0  0  0  0  0
  1  4  1  0
  2  4  2  0
  3  1  2  0
  4 52  1  0
  5  3  1  0
  5  6  1  0
  6  2  1  0
  7  5  2  0
  8  9  1  0
  9 14  2  0
  9 11  1  0
 11 15  1  0
 11 10  1  0
 12  6  1  0
 12 10  1  0
 13  8  2  0
 13 12  1  0
 16 14  1  0
 17 22  1  0
 18 19  1  0
 18 17  1  0
 20 19  1  0
 20 27  1  0
 20 21  1  0
 22 16  1  0
 22 21  1  0
 23 16  2  0
 24 25  2  0
 25 44  1  0
 26 29  1  0
 26 25  1  0
 27 28  1  0
 27 24  1  0
 28 26  2  0
 29 30  1  0
 30 31  2  0
 32 35  1  0
 32 31  1  0
 33 32  2  0
 34 33  1  0
 34 29  2  0
 35 36  1  0
 36 41  2  0
 36 37  1  0
 37 38  2  0
 38 39  1  0
 39 43  1  0
 40 39  2  0
 41 40  1  0
 42 41  1  0
 44 45  1  0
 45 47  1  0
 45 48  1  0
 46 44  2  0
 49 24  1  0
 49 50  1  0
 51 49  1  0
 52 53  1  0
 54  3  1  0
 54 55  1  0
 56 67  2  0
 57 55  1  0
 57 62  1  0
 58 66  1  0
 58 68  1  0
 59 65  1  0
 59 61  1  0
 60 66  1  0
 61 60  1  0
 62 61  2  0
 63 64  1  0
 63 57  2  0
 64 59  2  0
 65 58  1  0
 66 56  1  0
 68 70  2  0
 69 68  1  0
 71 69  1  0
 72 81  2  0
 72 77  1  0
 73 69  1  0
 73 77  1  0
 74 73  1  0
 75 76  1  0
 75 74  1  0
 76 72  1  0
 77 78  2  0
 78 79  1  0
 80 79  2  0
 81 80  1  0
 82 56  1  0
 82 87  1  0
 82 83  1  0
 83 86  1  1
 83 84  1  0
 85 83  1  0
 87 90  1  0
 88 92  1  0
 88 87  1  0
 89 88  2  0
 92 91  1  0
 94 95  1  0
 94 92  1  0
 94 93  1  0
M  ISO  4  14 100  16 100  54 101  55 101
M  END
>  <TORSDO>  (93) 
F 19

>  <SCORE>  (93) 
-12.821

>  <name>  (93) 
92

>  <ligand_id>  (93) 
92

>  <original_smiles>  (93) 
[H]Oc1c([H])c(C([H])([H])Oc2c([H])c([H])c3c(c2[H])C([H])([H])N(C(=O)C([H])(N([H])C(=O)C([H])(N([H])C([H])([H])[H])C([H])([H])[H])C(C([H])([H])[H])(C([H])([H])[H])C([H])([H])[H])C([H])(C(=O)N([H])C2([H])c4c([H])c([H])c([H])c([H])c4C([H])([H])C([H])([H])C2([H])[H])C3([H])[H])c(=O)n(C2([H])N=C([H])C(=NC(=O)N3C([H])([H])C([H])([H])C([H])([H])C([H])(n4nc(-c5c([H])c([H])c(Oc6c([H])c([H])c(F)c([H])c6F)c([H])c5[H])c(C(=O)N([H])[H])c4N([H])[H])C3([H])[H])C([H])(F)C2([H])[H])c1[H]

>  <smiles>  (93) 
[H]Oc1c([H])c(C([H])([H])Oc2c([H])c([H])c3c(c2[H])C([H])([H])N(C(=O)C([H])(N([H])C(=O)C([H])(N([H])C([H])([H])[H])C([H])([H])[H])C(C([H])([H])[H])(C([H])([H])[H])C([H])([H])[H])C([H])(C(=O)N([H])C2([H])c4c([H])c([H])c([H])c([H])c4C([H])([H])C([H])([H])C2([H])[H])C3([H])[H])c(=O)n(C2([H])N=C([H])C(=NC(=O)N3C([H])([H])C([H])([H])C([H])([H])C([H])(n4nc(-c5c([H])c([H])c(Oc6c([H])c([H])c(F)c([H])c6F)c([H])c5[H])c(C(=O)N([H])[H])c4N([H])[H])C3([H])[H])C([H])(F)C2([H])[H])c1[H]

$$$$
93:0:0
     RDKit          3D

 90 98  0  0  1  0  0  0  0  0999 V2000
  -27.9730  -20.3780   20.4420 C   0  0  0  0  0  2  0  0  0  0  0  0
  -28.2140  -18.9120   20.4340 C   0  0  0  0  0  3  0  0  0  0  0  0
  -30.4270  -19.2540   19.9770 C   0  0  0  0  0  3  0  0  0  0  0  0
  -28.9240  -21.4650   20.2180 C   0  0  0  0  0  0  0  0  0  0  0  0
  -29.4570  -18.1820   20.2010 C   0  0  0  0  0  0  0  0  0  0  0  0
  -30.1840  -20.7370   19.9860 C   0  0  0  0  0  0  0  0  0  0  0  0
  -30.3930  -15.3680   20.0080 C   0  0  0  0  0  0  0  0  0  0  0  0
  -30.3720  -12.9400   19.0830 C   0  0  0  0  0  2  0  0  0  0  0  0
  -29.3840  -12.7620   17.9010 C   0  0  0  0  0  2  0  0  0  0  0  0
  -27.9600  -12.4740   18.4110 C   0  0  0  0  0  2  0  0  0  0  0  0
  -27.5670  -13.4050   19.5840 C   0  0  0  0  0  3  0  0  0  0  0  0
  -28.6750  -13.5160   20.6550 C   0  0  0  0  0  2  0  0  0  0  0  0
  -29.8700  -14.0440   19.9760 N   0  0  0  0  0  0  0  0  0  0  0  0
  -31.5900  -15.4300   19.6890 O   0  0  0  0  0  0  0  0  0  0  0  0
  -29.5440  -16.5580   20.2240 N   0  0  0  0  0  0  0  0  0  0  0  0
  -28.6340  -16.1880   20.4560 H   0  0  0  0  0  0  0  0  0  0  0  0
  -25.2390  -13.9340   20.4840 C   0  0  0  0  0  0  0  0  0  0  0  0
  -24.2020  -13.1410   20.8890 C   0  0  0  0  0  0  0  0  0  0  0  0
  -24.6680  -11.7950   20.7880 C   0  0  0  0  0  0  0  0  0  0  0  0
  -26.2680  -13.0700   20.1540 N   0  0  0  0  0  0  0  0  0  0  0  0
  -25.9410  -11.7750   20.4040 N   0  0  0  0  0  0  0  0  0  0  0  0
  -23.9550  -10.5240   20.9770 C   0  0  0  0  0  0  0  0  0  0  0  0
  -24.4010   -9.5570   21.9040 C   0  0  0  0  0  3  0  0  0  0  0  0
  -23.6830   -8.3530   22.0830 C   0  0  0  0  0  3  0  0  0  0  0  0
  -22.5080   -8.1080   21.3340 C   0  0  0  0  0  0  0  0  0  0  0  0
  -22.0830   -9.0650   20.3950 C   0  0  0  0  0  3  0  0  0  0  0  0
  -22.7990  -10.2590   20.2150 C   0  0  0  0  0  3  0  0  0  0  0  0
  -21.7630   -6.9570   21.4210 O   0  0  0  0  0  0  0  0  0  0  0  0
  -21.6690   -6.2490   22.5920 C   0  0  0  0  0  0  0  0  0  0  0  0
  -21.1290   -6.8170   23.7660 C   0  0  0  0  0  3  0  0  0  0  0  0
  -20.9860   -6.0320   24.9270 C   0  0  0  0  0  3  0  0  0  0  0  0
  -21.3740   -4.6790   24.9150 C   0  0  0  0  0  0  0  0  0  0  0  0
  -21.9070   -4.1100   23.7450 C   0  0  0  0  0  3  0  0  0  0  0  0
  -22.0510   -4.8920   22.5860 C   0  0  0  0  0  0  0  0  0  0  0  0
  -22.5450   -4.3320   21.4560 F   0  0  0  0  0  0  0  0  0  0  0  0
  -21.2310   -3.9220   26.0290 F   0  0  0  0  0  0  0  0  0  0  0  0
  -22.8200  -13.6040   21.2470 C   0  0  0  0  0  0  0  0  0  0  0  0
  -22.1440  -12.8860   22.1350 N   0  0  0  0  0  0  0  0  0  0  0  0
  -22.3520  -14.6390   20.7750 O   0  0  0  0  0  0  0  0  0  0  0  0
  -22.5380  -12.0480   22.5380 H   0  0  0  0  0  0  0  0  0  0  0  0
  -21.2190  -13.1770   22.4170 H   0  0  0  0  0  0  0  0  0  0  0  0
  -25.3850  -15.3100   20.3370 N   0  0  0  0  0  0  0  0  0  0  0  0
  -24.6090  -15.9450   20.4930 H   0  0  0  0  0  0  0  0  0  0  0  0
  -26.1750  -15.7560   19.8920 H   0  0  0  0  0  0  0  0  0  0  0  0
  -31.2960  -21.5430   19.7420 N   0  0  0  0  0  0  0  0  0  0  0  0
  -32.2220  -21.1630   19.9040 H   0  0  0  0  0  0  0  0  0  0  0  0
  -31.2220  -22.5270   19.9860 H   0  0  0  0  0  0  0  0  0  0  0  0
  -28.6620  -23.1640   20.2290 C   0  0  0  0  0  0  0  0  0  0  0  0
  -27.9080  -24.4440   20.3240 C   0  0  0  0  0  3  0  0  0  0  0  0
  -28.1990  -25.9480   20.2800 O   0  0  0  0  0  0  0  0  0  0  0  0
  -24.6600  -31.9330   23.2710 C   0  0  0  0  0  0  0  0  0  0  0  0
  -27.1950  -27.0520   20.2520 C   0  0  0  0  0  0  0  0  0  0  0  0
  -23.4600  -30.5440   21.6320 C   0  0  0  0  0  3  0  0  0  0  0  0
  -24.9010  -28.9360   20.2080 C   0  0  0  0  0  0  0  0  0  0  0  0
  -26.0260  -30.7440   21.4870 C   0  0  0  0  0  2  0  0  0  0  0  0
  -26.0890  -29.3350   20.8330 C   0  0  0  0  0  0  0  0  0  0  0  0
  -27.2290  -28.4110   20.8360 C   0  0  0  0  0  3  0  0  0  0  0  0
  -25.9810  -26.8120   19.5670 C   0  0  0  0  0  3  0  0  0  0  0  0
  -24.8710  -27.6950   19.5550 C   0  0  0  0  0  3  0  0  0  0  0  0
  -23.6850  -29.8600   20.2560 C   0  0  0  0  0  2  0  0  0  0  0  0
  -24.7370  -31.1010   22.1830 N   0  0  0  0  0  0  0  0  0  0  0  0
  -23.5730  -32.2270   23.7940 O   0  0  0  0  0  0  0  0  0  0  0  0
  -22.7620  -29.5480   22.5980 C   0  0  0  0  0  0  0  0  0  0  0  0
  -21.4340  -29.3760   22.4620 N   0  0  0  0  0  0  0  0  0  0  0  0
  -23.4230  -28.9310   23.4360 O   0  0  0  0  0  0  0  0  0  0  0  0
  -20.9540  -29.9250   21.7630 H   0  0  0  0  0  0  0  0  0  0  0  0
  -18.0510  -28.1620   22.9570 C   0  0  0  0  0  0  0  0  0  0  0  0
  -20.6090  -28.4390   23.2320 C   0  0  0  0  0  3  0  0  0  0  0  0
  -20.7180  -27.0050   22.6630 C   0  0  0  0  0  2  0  0  0  0  0  0
  -19.6220  -26.6750   21.6450 C   0  0  0  0  0  2  0  0  0  0  0  0
  -18.2370  -26.8140   22.2820 C   0  0  0  0  0  2  0  0  0  0  0  0
  -19.1640  -28.9320   23.3890 C   0  0  0  0  0  0  0  0  0  0  0  0
  -18.9340  -30.1920   23.9830 C   0  0  0  0  0  3  0  0  0  0  0  0
  -17.6250  -30.6830   24.1470 C   0  0  0  0  0  3  0  0  0  0  0  0
  -16.5270  -29.9110   23.7300 C   0  0  0  0  0  3  0  0  0  0  0  0
  -16.7400  -28.6530   23.1410 C   0  0  0  0  0  3  0  0  0  0  0  0
  -25.9340  -32.5690   23.9030 C   0  0  0  0  0  3  0  0  0  0  0  0
  -25.6240  -33.9710   24.2350 N   0  0  0  0  0  0  0  0  0  0  0  0
  -25.9250  -35.0270   23.4680 C   0  0  0  0  0  0  0  0  0  0  0  0
  -26.5560  -34.9250   22.4140 O   0  0  0  0  0  0  0  0  0  0  0  0
  -25.0570  -34.1230   25.0570 H   0  0  0  0  0  0  0  0  0  0  0  0
  -24.1680  -36.8120   23.2020 C   0  0  0  0  0  1  0  0  0  0  0  0
  -25.4540  -36.4170   23.9450 C   0  0  0  0  0  3  0  0  0  0  0  0
  -27.6170  -37.3340   24.6620 C   0  0  0  0  0  1  0  0  0  0  0  0
  -26.4720  -37.4780   23.7690 N   0  0  0  0  0  0  0  0  0  0  0  0
  -26.0650  -38.3960   23.9200 H   0  0  0  0  0  0  0  0  0  0  0  0
  -26.4350  -31.8050   25.1920 C   0  0  1  0  0  0  0  0  0  0  0  0
  -25.3300  -31.5770   26.2490 C   0  0  0  0  0  1  0  0  0  0  0  0
  -27.0190  -30.4220   24.8220 C   0  0  0  0  0  1  0  0  0  0  0  0
  -27.5810  -32.6000   25.8610 C   0  0  0  0  0  1  0  0  0  0  0  0
  2  1  1  0
  3  6  2  0
  3  5  1  0
  4 48  2  0
  4  1  1  0
  5 15  1  0
  5  2  2  0
  6  4  1  0
  7 15  1  0
  8 13  1  0
  9 10  1  0
  9  8  1  0
 11 10  1  0
 11 20  1  0
 11 12  1  0
 13  7  1  0
 13 12  1  0
 14  7  2  0
 15 16  1  0
 17 18  2  0
 18 37  1  0
 19 18  1  0
 19 22  1  0
 20 21  1  0
 20 17  1  0
 21 19  2  0
 22 23  1  0
 23 24  2  0
 25 28  1  0
 25 24  1  0
 26 25  2  0
 27 26  1  0
 27 22  2  0
 28 29  1  0
 29 30  1  0
 30 31  2  0
 32 31  1  0
 32 36  1  0
 33 32  2  0
 34 29  2  0
 34 33  1  0
 35 34  1  0
 37 38  1  0
 38 41  1  0
 38 40  1  0
 39 37  2  0
 42 17  1  0
 42 43  1  0
 44 42  1  0
 45 46  1  0
 45  6  1  0
 45 47  1  0
 48 49  2  0
 50 49  1  0
 51 62  2  0
 52 50  1  0
 52 57  1  0
 53 61  1  0
 53 63  1  0
 54 60  1  0
 54 56  1  0
 55 61  1  0
 56 57  2  0
 56 55  1  0
 58 52  2  0
 59 58  1  0
 59 54  2  0
 60 53  1  0
 61 51  1  0
 63 65  2  0
 64 63  1  0
 66 64  1  0
 67 76  2  0
 67 72  1  0
 68 64  1  0
 68 72  1  0
 69 68  1  0
 70 71  1  0
 70 69  1  0
 71 67  1  0
 72 73  2  0
 73 74  1  0
 75 74  2  0
 76 75  1  0
 77 51  1  0
 77 78  1  0
 77 87  1  0
 78 81  1  0
 79 83  1  0
 79 78  1  0
 80 79  2  0
 83 82  1  0
 85 86  1  0
 85 83  1  0
 85 84  1  0
 87 90  1  1
 87 88  1  0
 89 87  1  0
M  ISO  4   7 100  15 100  49 101  50 101
M  END
>  <TORSDO>  (94) 
F 18

>  <SCORE>  (94) 
-15.109

>  <name>  (94) 
93

>  <ligand_id>  (94) 
93

>  <original_smiles>  (94) 
[H]C(Oc1c([H])c([H])c2c(c1[H])C([H])([H])N(C(=O)C([H])(N([H])C(=O)C([H])(N([H])C([H])([H])[H])C([H])([H])[H])C(C([H])([H])[H])(C([H])([H])[H])C([H])([H])[H])C([H])(C(=O)N([H])C1([H])c3c([H])c([H])c([H])c([H])c3C([H])([H])C([H])([H])C1([H])[H])C2([H])[H])=C([H])c1c([H])c([H])c(N([H])C(=O)N2C([H])([H])C([H])([H])C([H])([H])C([H])(n3nc(-c4c([H])c([H])c(Oc5c([H])c([H])c(F)c([H])c5F)c([H])c4[H])c(C(=O)N([H])[H])c3N([H])[H])C2([H])[H])c([H])c1N([H])[H]

>  <smiles>  (94) 
[H]C(Oc1c([H])c([H])c2c(c1[H])C([H])([H])N(C(=O)C([H])(N([H])C(=O)C([H])(N([H])C([H])([H])[H])C([H])([H])[H])C(C([H])([H])[H])(C([H])([H])[H])C([H])([H])[H])C([H])(C(=O)N([H])C1([H])c3c([H])c([H])c([H])c([H])c3C([H])([H])C([H])([H])C1([H])[H])C2([H])[H])=C([H])c1c([H])c([H])c(N([H])C(=O)N2C([H])([H])C([H])([H])C([H])([H])C([H])(n3nc(-c4c([H])c([H])c(Oc5c([H])c([H])c(F)c([H])c5F)c([H])c4[H])c(C(=O)N([H])[H])c3N([H])[H])C2([H])[H])c([H])c1N([H])[H]

$$$$
94:0:0
     RDKit          3D

 98102  0  0  1  0  0  0  0  0999 V2000
  -25.9990  -27.9080   18.6900 C   0  0  0  0  0  2  0  0  0  0  0  0
  -24.8630  -24.3180   18.3950 C   0  0  0  0  0  2  0  0  0  0  0  0
  -25.7060  -24.9980   19.5730 C   0  0  0  0  0  1  0  0  0  0  0  0
  -25.5540  -27.8850   16.9880 C   0  0  0  0  0  0  0  0  0  0  0  0
  -24.8410  -24.8420   16.8940 C   0  0  0  0  0  3  0  0  0  0  0  0
  -24.9390  -26.4380   16.2610 C   0  0  0  0  0  0  0  0  0  0  0  0
  -27.4580  -23.8850   16.8040 C   0  0  0  0  0  0  0  0  0  0  0  0
  -26.0070  -23.8710   16.5800 N   0  0  0  0  0  0  0  0  0  0  0  0
  -27.8910  -22.7740   17.1140 O   0  0  0  0  0  0  0  0  0  0  0  0
  -25.6710  -22.9280   16.4430 H   0  0  0  0  0  0  0  0  0  0  0  0
  -28.7290  -25.0530   16.6670 C   0  0  0  0  0  2  0  0  0  0  0  0
  -30.3580  -25.4800   17.3430 C   0  0  0  0  0  2  0  0  0  0  0  0
  -30.8590  -26.2200   18.7140 O   0  0  0  0  0  0  0  0  0  0  0  0
  -28.5820  -31.1310   24.7110 C   0  0  0  0  0  0  0  0  0  0  0  0
  -30.3900  -27.4560   19.1320 C   0  0  0  0  0  3  0  0  0  0  0  0
  -26.9810  -30.3160   22.9200 C   0  0  0  0  0  3  0  0  0  0  0  0
  -27.5270  -27.9480   20.7720 C   0  0  0  0  0  2  0  0  0  0  0  0
  -29.3030  -29.7300   22.4870 C   0  0  0  0  0  2  0  0  0  0  0  0
  -28.9590  -28.2910   21.5670 C   0  0  0  0  0  3  0  0  0  0  0  0
  -30.2390  -27.8330   20.7300 C   0  0  0  0  0  2  0  0  0  0  0  0
  -29.3380  -27.5090   17.9340 C   0  0  0  0  0  2  0  0  0  0  0  0
  -27.7810  -27.5140   18.3000 C   0  0  0  0  0  2  0  0  0  0  0  0
  -26.8040  -29.4320   21.5440 C   0  0  0  0  0  2  0  0  0  0  0  0
  -28.3600  -30.4650   23.4630 N   0  0  0  0  0  0  0  0  0  0  0  0
  -27.6390  -31.5870   25.3930 O   0  0  0  0  0  0  0  0  0  0  0  0
  -26.0580  -29.6390   23.8700 C   0  0  0  0  0  0  0  0  0  0  0  0
  -24.7890  -29.4430   23.4910 N   0  0  0  0  0  0  0  0  0  0  0  0
  -26.5670  -29.1450   24.8680 O   0  0  0  0  0  0  0  0  0  0  0  0
  -24.4490  -29.8770   22.6440 H   0  0  0  0  0  0  0  0  0  0  0  0
  -21.8340  -27.3910   23.0780 C   0  0  0  0  0  0  0  0  0  0  0  0
  -23.9930  -28.3710   24.0670 C   0  0  0  0  0  3  0  0  0  0  0  0
  -24.6430  -27.0000   23.7550 C   0  0  0  0  0  2  0  0  0  0  0  0
  -24.0620  -26.3340   22.5080 C   0  0  0  0  0  2  0  0  0  0  0  0
  -22.5580  -26.1140   22.6860 C   0  0  0  0  0  2  0  0  0  0  0  0
  -22.5180  -28.4680   23.6960 C   0  0  0  0  0  0  0  0  0  0  0  0
  -21.8150  -29.6510   24.0070 C   0  0  0  0  0  3  0  0  0  0  0  0
  -20.4430  -29.7640   23.7170 C   0  0  0  0  0  3  0  0  0  0  0  0
  -19.7610  -28.6860   23.1250 C   0  0  0  0  0  3  0  0  0  0  0  0
  -20.4550  -27.5030   22.8100 C   0  0  0  0  0  3  0  0  0  0  0  0
  -29.9840  -31.3330   25.4270 C   0  0  0  0  0  3  0  0  0  0  0  0
  -30.0720  -32.6610   26.1270 N   0  0  0  0  0  0  0  0  0  0  0  0
  -30.7000  -33.7750   25.7010 C   0  0  0  0  0  0  0  0  0  0  0  0
  -31.2720  -33.8200   24.6110 O   0  0  0  0  0  0  0  0  0  0  0  0
  -29.5660  -32.7230   26.9980 H   0  0  0  0  0  0  0  0  0  0  0  0
  -29.5370  -35.9720   26.2050 C   0  0  0  0  0  1  0  0  0  0  0  0
  -30.6970  -35.0430   26.6020 C   0  0  0  0  0  3  0  0  0  0  0  0
  -33.0740  -35.1710   27.2440 C   0  0  0  0  0  1  0  0  0  0  0  0
  -31.9600  -35.8220   26.5620 N   0  0  0  0  0  0  0  0  0  0  0  0
  -31.8290  -36.7430   26.9740 H   0  0  0  0  0  0  0  0  0  0  0  0
  -30.2760  -30.2160   26.5130 C   0  0  1  0  0  0  0  0  0  0  0  0
  -29.1340  -30.0380   27.5450 C   0  0  0  0  0  1  0  0  0  0  0  0
  -30.5080  -28.8490   25.8460 C   0  0  0  0  0  1  0  0  0  0  0  0
  -31.5740  -30.5270   27.2990 C   0  0  0  0  0  1  0  0  0  0  0  0
  -25.7380  -29.0160   16.1870 N   0  0  0  0  0  0  0  0  0  0  0  0
  -25.8480  -29.9110   16.6470 H   0  0  0  0  0  0  0  0  0  0  0  0
  -25.2010  -29.0810   15.3330 H   0  0  0  0  0  0  0  0  0  0  0  0
  -24.7390  -26.5400   14.8890 N   0  0  0  0  0  0  0  0  0  0  0  0
  -24.7140  -27.4750   14.5070 H   0  0  0  0  0  0  0  0  0  0  0  0
  -24.0490  -25.9220   14.4780 H   0  0  0  0  0  0  0  0  0  0  0  0
  -26.8060  -22.4590   20.2090 C   0  0  0  0  0 15  0  0  0  0  0  0
  -28.7540  -18.0800   20.4100 C   0  0  0  0  0  2  0  0  0  0  0  0
  -29.9650  -15.0600   19.9870 C   0  0  0  0  0  2  0  0  0  0  0  0
  -29.7430  -13.6690   19.1090 C   0  0  0  0  0  2  0  0  0  0  0  0
  -28.6460  -12.7370   19.6170 C   0  0  0  0  0  2  0  0  0  0  0  0
  -27.6460  -13.7010   20.2460 C   0  0  0  0  0  3  0  0  0  0  0  0
  -28.1880  -14.9630   21.1470 C   0  0  0  0  0  2  0  0  0  0  0  0
  -28.7930  -16.2720   20.3800 N   0  0  0  0  0  0  0  0  0  0  0  0
  -30.0510  -17.8320   20.5430 O   0  0  0  0  0  1  0  0  0  0  0  0
  -27.7230  -19.9690   20.2410 N   0  0  0  0  0  1  0  0  0  0  0  0
  -28.6540  -20.3530   20.3530 H   0  0  0  0  0  0  0  0  0  0  0  0
  -25.2570  -13.7740   20.8900 C   0  0  0  0  0  0  0  0  0  0  0  0
  -24.2780  -12.8780   21.1800 C   0  0  0  0  0  0  0  0  0  0  0  0
  -24.8780  -11.5810   21.1160 C   0  0  0  0  0  0  0  0  0  0  0  0
  -26.4100  -13.0580   20.7040 N   0  0  0  0  0  0  0  0  0  0  0  0
  -26.1940  -11.7050   20.8570 N   0  0  0  0  0  0  0  0  0  0  0  0
  -24.2210  -10.2560   21.2330 C   0  0  0  0  0  0  0  0  0  0  0  0
  -24.5070   -9.3640   22.2920 C   0  0  0  0  0  3  0  0  0  0  0  0
  -23.8210   -8.1330   22.4060 C   0  0  0  0  0  3  0  0  0  0  0  0
  -22.8280   -7.7770   21.4620 C   0  0  0  0  0  0  0  0  0  0  0  0
  -22.5560   -8.6570   20.4000 C   0  0  0  0  0  3  0  0  0  0  0  0
  -23.2450   -9.8780   20.2850 C   0  0  0  0  0  3  0  0  0  0  0  0
  -22.1340   -6.5880   21.4750 O   0  0  0  0  0  0  0  0  0  0  0  0
  -21.5940   -6.0760   22.6290 C   0  0  0  0  0  0  0  0  0  0  0  0
  -20.6280   -6.7850   23.3760 C   0  0  0  0  0  3  0  0  0  0  0  0
  -20.0470   -6.1960   24.5180 C   0  0  0  0  0  3  0  0  0  0  0  0
  -20.4230   -4.8970   24.9100 C   0  0  0  0  0  0  0  0  0  0  0  0
  -21.3790   -4.1870   24.1650 C   0  0  0  0  0  3  0  0  0  0  0  0
  -21.9600   -4.7730   23.0260 C   0  0  0  0  0  0  0  0  0  0  0  0
  -22.8650   -4.0730   22.2980 F   0  0  0  0  0  0  0  0  0  0  0  0
  -19.8630   -4.3300   26.0030 F   0  0  0  0  0  0  0  0  0  0  0  0
  -22.8410  -13.2390   21.3980 C   0  0  0  0  0  0  0  0  0  0  0  0
  -22.1450  -12.4960   22.2480 N   0  0  0  0  0  0  0  0  0  0  0  0
  -22.3500  -14.2310   20.8600 O   0  0  0  0  0  0  0  0  0  0  0  0
  -22.5590  -11.6990   22.7070 H   0  0  0  0  0  0  0  0  0  0  0  0
  -21.1810  -12.7270   22.4420 H   0  0  0  0  0  0  0  0  0  0  0  0
  -25.2600  -15.1570   20.7260 N   0  0  0  0  0  0  0  0  0  0  0  0
  -24.4180  -15.7180   20.7840 H   0  0  0  0  0  0  0  0  0  0  0  0
  -26.0780  -15.6850   20.4520 H   0  0  0  0  0  0  0  0  0  0  0  0
  2  3  1  0
  4  1  1  0
  5  2  1  0
  6  5  1  0
  6  4  2  0
  7  9  2  0
  8  7  1  0
  8  5  1  0
 10  8  1  0
 11  7  1  0
 11 12  1  0
 12 13  1  0
 13 15  1  0
 14 25  2  0
 15 20  1  0
 16 24  1  0
 16 26  1  0
 17 23  1  0
 17 19  1  0
 18 24  1  0
 19 20  1  0
 19 18  1  0
 21 22  1  0
 21 15  1  0
 22  1  1  0
 23 16  1  0
 24 14  1  0
 26 28  2  0
 27 26  1  0
 29 27  1  0
 30 35  1  0
 31 27  1  0
 32 31  1  0
 33 34  1  0
 33 32  1  0
 34 30  1  0
 35 36  2  0
 35 31  1  0
 37 36  1  0
 38 37  2  0
 39 30  2  0
 39 38  1  0
 40 14  1  0
 40 41  1  0
 40 50  1  0
 41 44  1  0
 42 41  1  0
 42 46  1  0
 43 42  2  0
 46 45  1  0
 48 46  1  0
 48 49  1  0
 48 47  1  0
 50 53  1  1
 50 51  1  0
 52 50  1  0
 54 55  1  0
 54  4  1  0
 56 54  1  0
 57  6  1  0
 58 57  1  0
 59 57  1  0
 61 68  1  0
 62 67  1  0
 63 64  1  0
 63 62  1  0
 65 64  1  0
 65 74  1  0
 65 66  1  0
 67 61  1  0
 67 66  1  0
 69 70  1  0
 71 72  2  0
 72 91  1  0
 73 72  1  0
 73 76  1  0
 74 75  1  0
 74 71  1  0
 75 73  2  0
 76 77  1  0
 77 78  2  0
 79 82  1  0
 79 78  1  0
 80 79  2  0
 81 80  1  0
 81 76  2  0
 82 83  1  0
 83 88  2  0
 83 84  1  0
 84 85  2  0
 85 86  1  0
 86 90  1  0
 87 86  2  0
 88 87  1  0
 89 88  1  0
 91 92  1  0
 92 95  1  0
 92 94  1  0
 93 91  2  0
 96 97  1  0
 96 71  1  0
 98 96  1  0
M  ISO  4  12 101  13 101  61 100  69 100
M  END
>  <TORSDO>  (95) 
F 22

>  <SCORE>  (95) 
-9.485

>  <name>  (95) 
94

>  <ligand_id>  (95) 
94

>  <original_smiles>  (95) 
[H]c1c([H])c([H])c2c(c1[H])C([H])([H])C([H])([H])C([H])([H])C2([H])N([H])C(=O)C1([H])N(C(=O)C([H])(N([H])C(=O)C([H])(N([H])C([H])([H])[H])C([H])([H])[H])C(C([H])([H])[H])(C([H])([H])[H])C([H])([H])[H])C([H])([H])c2c([H])c(OC([H])([H])C([H])([H])C(=O)N([H])c3c([H])c(C([H])([H])N([H])C(=O)N4C([H])([H])C([H])([H])C([H])([H])C([H])(n5nc(-c6c([H])c([H])c(Oc7c([H])c([H])c(F)c([H])c7F)c([H])c6[H])c(C(=O)N([H])[H])c5N([H])[H])C4([H])[H])c([H])c(N([H])[H])c3N([H])[H])c([H])c([H])c2C1([H])[H]

>  <smiles>  (95) 
[H]c1c([H])c([H])c2c(c1[H])C([H])([H])C([H])([H])C([H])([H])C2([H])N([H])C(=O)C1([H])N(C(=O)C([H])(N([H])C(=O)C([H])(N([H])C([H])([H])[H])C([H])([H])[H])C(C([H])([H])[H])(C([H])([H])[H])C([H])([H])[H])C([H])([H])c2c([H])c(OC([H])([H])C([H])([H])C(=O)N([H])c3c([H])c(C([H])([H])N([H])C(=O)N4C([H])([H])C([H])([H])C([H])([H])C([H])(n5nc(-c6c([H])c([H])c(Oc7c([H])c([H])c(F)c([H])c7F)c([H])c6[H])c(C(=O)N([H])[H])c5N([H])[H])C4([H])[H])c([H])c(N([H])[H])c3N([H])[H])c([H])c([H])c2C1([H])[H]

$$$$
95:0:0
     RDKit          3D

 92 99  0  0  1  0  0  0  0  0999 V2000
  -30.8830  -15.4830   19.0360 C   0  0  0  0  0  0  0  0  0  0  0  0
  -31.1710  -12.8600   19.5130 C   0  0  0  0  0  2  0  0  0  0  0  0
  -30.4640  -11.8850   18.5240 C   0  0  0  0  0  2  0  0  0  0  0  0
  -29.0050  -11.6410   18.9320 C   0  0  0  0  0  2  0  0  0  0  0  0
  -28.3310  -12.9570   19.3740 C   0  0  0  0  0  3  0  0  0  0  0  0
  -29.1940  -13.8020   20.3390 C   0  0  0  0  0  2  0  0  0  0  0  0
  -30.4240  -14.2030   19.6050 N   0  0  0  0  0  0  0  0  0  0  0  0
  -32.1230  -15.3910   18.9290 O   0  0  0  0  0  0  0  0  0  0  0  0
  -30.2760  -17.9320   17.5530 C   0  0  0  0  0  0  0  0  0  0  0  0
  -30.0790  -16.7520   18.5600 N   0  0  0  0  0  0  0  0  0  0  0  0
  -31.3500  -17.8930   16.9470 O   0  0  0  0  0  0  0  0  0  0  0  0
  -27.6850  -16.5440   19.3840 C   0  0  0  0  0  3  0  0  0  0  0  0
  -29.0110  -17.0910   19.4470 C   0  0  0  0  0  0  0  0  0  0  0  0
  -26.8380  -17.1010   20.3180 C   0  0  0  0  0  3  0  0  0  0  0  0
  -29.1180  -18.0590   20.4140 C   0  0  0  0  0  0  0  0  0  0  0  0
  -30.2400  -18.7700   20.6770 F   0  0  0  0  0  0  0  0  0  0  0  0
  -27.6460  -18.3010   21.3040 S   0  0  0  0  0  0  0  0  0  0  0  0
  -25.4920  -16.8280   20.5350 N   0  0  0  0  0  2  0  0  0  0  0  0
  -24.9270  -16.2070   19.9640 H   0  0  0  0  0  0  0  0  0  0  0  0
  -24.9500  -17.2600   21.2790 H   0  0  0  0  0  0  0  0  0  0  0  0
  -25.9910  -13.7350   19.9760 C   0  0  0  0  0  0  0  0  0  0  0  0
  -24.8590  -13.0810   20.3670 C   0  0  0  0  0  0  0  0  0  0  0  0
  -25.2150  -11.7000   20.4630 C   0  0  0  0  0  0  0  0  0  0  0  0
  -26.9680  -12.7680   19.8500 N   0  0  0  0  0  0  0  0  0  0  0  0
  -26.5120  -11.5380   20.2080 N   0  0  0  0  0  0  0  0  0  0  0  0
  -24.3760  -10.5220   20.7180 C   0  0  0  0  0  0  0  0  0  0  0  0
  -24.7130   -9.5720   21.7070 C   0  0  0  0  0  3  0  0  0  0  0  0
  -23.8750   -8.4630   21.9490 C   0  0  0  0  0  3  0  0  0  0  0  0
  -22.6850   -8.2940   21.2010 C   0  0  0  0  0  0  0  0  0  0  0  0
  -22.3650   -9.2300   20.2020 C   0  0  0  0  0  3  0  0  0  0  0  0
  -23.2040  -10.3310   19.9590 C   0  0  0  0  0  3  0  0  0  0  0  0
  -21.8240   -7.2330   21.3490 O   0  0  0  0  0  0  0  0  0  0  0  0
  -21.6250   -6.6320   22.5660 C   0  0  0  0  0  0  0  0  0  0  0  0
  -21.2150   -7.3660   23.7000 C   0  0  0  0  0  3  0  0  0  0  0  0
  -20.9550   -6.7000   24.9140 C   0  0  0  0  0  3  0  0  0  0  0  0
  -21.0950   -5.3000   24.9930 C   0  0  0  0  0  0  0  0  0  0  0  0
  -21.4980   -4.5670   23.8630 C   0  0  0  0  0  3  0  0  0  0  0  0
  -21.7600   -5.2320   22.6530 C   0  0  0  0  0  0  0  0  0  0  0  0
  -22.1280   -4.5190   21.5610 F   0  0  0  0  0  0  0  0  0  0  0  0
  -20.8390   -4.6580   26.1560 F   0  0  0  0  0  0  0  0  0  0  0  0
  -23.5000  -13.6950   20.5330 C   0  0  0  0  0  0  0  0  0  0  0  0
  -22.7080  -13.1830   21.4710 N   0  0  0  0  0  0  0  0  0  0  0  0
  -23.1500  -14.6670   19.8660 O   0  0  0  0  0  0  0  0  0  0  0  0
  -23.0010  -12.3940   22.0260 H   0  0  0  0  0  0  0  0  0  0  0  0
  -21.7970  -13.5890   21.6360 H   0  0  0  0  0  0  0  0  0  0  0  0
  -26.2640  -15.0640   19.6800 N   0  0  0  0  0  0  0  0  0  0  0  0
  -25.5670  -15.7930   19.7890 H   0  0  0  0  0  0  0  0  0  0  0  0
  -27.1570  -15.4080   19.3600 H   0  0  0  0  0  0  0  0  0  0  0  0
  -29.2930  -19.4310   16.9900 C   0  0  0  0  0  2  0  0  0  0  0  0
  -29.4860  -21.3460   16.6700 C   0  0  0  0  0  2  0  0  0  0  0  0
  -28.5230  -23.0380   16.7950 C   0  0  0  0  0  2  0  0  0  0  0  0
  -28.7170  -24.7500   17.1850 O   0  0  0  0  0  0  0  0  0  0  0  0
  -25.4430  -28.6510   23.0610 C   0  0  0  0  0  0  0  0  0  0  0  0
  -27.8030  -25.8450   17.8050 C   0  0  0  0  0  0  0  0  0  0  0  0
  -24.2450  -28.4540   20.9240 C   0  0  0  0  0  3  0  0  0  0  0  0
  -25.6540  -27.7380   18.8490 C   0  0  0  0  0  0  0  0  0  0  0  0
  -26.8310  -28.4600   20.9090 C   0  0  0  0  0  2  0  0  0  0  0  0
  -26.8410  -27.6120   19.5790 C   0  0  0  0  0  0  0  0  0  0  0  0
  -27.9030  -26.7110   19.0440 C   0  0  0  0  0  3  0  0  0  0  0  0
  -26.5930  -26.1780   17.1430 C   0  0  0  0  0  3  0  0  0  0  0  0
  -25.5720  -27.0540   17.6230 C   0  0  0  0  0  3  0  0  0  0  0  0
  -24.5020  -28.5960   19.3960 C   0  0  0  0  0  2  0  0  0  0  0  0
  -25.5290  -28.5190   21.6930 N   0  0  0  0  0  0  0  0  0  0  0  0
  -24.3480  -28.7010   23.6490 O   0  0  0  0  0  0  0  0  0  0  0  0
  -23.4340  -27.1590   21.2030 C   0  0  0  0  0  0  0  0  0  0  0  0
  -22.1010  -27.1950   21.0170 N   0  0  0  0  0  0  0  0  0  0  0  0
  -24.0180  -26.1350   21.5630 O   0  0  0  0  0  0  0  0  0  0  0  0
  -21.6840  -28.0700   20.7290 H   0  0  0  0  0  0  0  0  0  0  0  0
  -18.6260  -26.1530   20.8180 C   0  0  0  0  0  0  0  0  0  0  0  0
  -21.1890  -26.0530   21.1560 C   0  0  0  0  0  3  0  0  0  0  0  0
  -21.2140  -25.1690   19.8870 C   0  0  0  0  0  2  0  0  0  0  0  0
  -20.1240  -25.5370   18.8750 C   0  0  0  0  0  2  0  0  0  0  0  0
  -18.7360  -25.3970   19.5040 C   0  0  0  0  0  2  0  0  0  0  0  0
  -19.7770  -26.4740   21.5840 C   0  0  0  0  0  0  0  0  0  0  0  0
  -19.6170  -27.2020   22.7840 C   0  0  0  0  0  3  0  0  0  0  0  0
  -18.3400  -27.6050   23.2180 C   0  0  0  0  0  3  0  0  0  0  0  0
  -17.2030  -27.2750   22.4600 C   0  0  0  0  0  3  0  0  0  0  0  0
  -17.3460  -26.5460   21.2670 C   0  0  0  0  0  3  0  0  0  0  0  0
  -26.7140  -28.7570   23.9580 C   0  0  0  0  0  3  0  0  0  0  0  0
  -27.2520  -27.3530   24.4350 C   0  0  1  0  0  0  0  0  0  0  0  0
  -26.1750  -26.4680   25.1050 C   0  0  0  0  0  1  0  0  0  0  0  0
  -27.8430  -26.5510   23.2540 C   0  0  0  0  0  1  0  0  0  0  0  0
  -28.4050  -27.5500   25.4460 C   0  0  0  0  0  1  0  0  0  0  0  0
  -26.3810  -29.5890   25.1320 N   0  0  0  0  0  0  0  0  0  0  0  0
  -26.7900  -30.8500   25.3270 C   0  0  0  0  0  0  0  0  0  0  0  0
  -27.5450  -31.4300   24.5430 O   0  0  0  0  0  0  0  0  0  0  0  0
  -25.7230  -29.1940   25.7880 H   0  0  0  0  0  0  0  0  0  0  0  0
  -25.1470  -32.5450   26.2100 C   0  0  0  0  0  1  0  0  0  0  0  0
  -26.2880  -31.5850   26.5880 C   0  0  0  0  0  3  0  0  0  0  0  0
  -28.3330  -31.4720   27.9450 C   0  0  0  0  0  1  0  0  0  0  0  0
  -27.3480  -32.3350   27.2980 N   0  0  0  0  0  0  0  0  0  0  0  0
  -26.9470  -32.9430   28.0060 H   0  0  0  0  0  0  0  0  0  0  0  0
  1  7  1  0
  2  7  1  0
  3  4  1  0
  3  2  1  0
  5  4  1  0
  5 24  1  0
  5  6  1  0
  7  6  1  0
  8  1  2  0
  9 10  1  0
 10  1  1  0
 10 13  1  0
 11  9  2  0
 12 13  1  0
 12 14  2  0
 13 15  2  0
 14 17  1  0
 15 16  1  0
 15 17  1  0
 18 20  1  0
 19 18  1  0
 21 22  2  0
 22 23  1  0
 22 41  1  0
 23 26  1  0
 24 21  1  0
 24 25  1  0
 25 23  2  0
 26 27  1  0
 27 28  2  0
 29 32  1  0
 29 28  1  0
 30 29  2  0
 31 30  1  0
 31 26  2  0
 32 33  1  0
 33 38  2  0
 33 34  1  0
 34 35  2  0
 35 36  1  0
 36 40  1  0
 37 36  2  0
 38 37  1  0
 39 38  1  0
 41 42  1  0
 42 45  1  0
 42 44  1  0
 43 41  2  0
 46 47  1  0
 46 21  1  0
 48 46  1  0
 49  9  1  0
 50 51  1  0
 50 49  1  0
 51 52  1  0
 52 54  1  0
 53 64  2  0
 54 59  1  0
 55 65  1  0
 55 63  1  0
 56 62  1  0
 56 58  1  0
 57 63  1  0
 58 57  1  0
 59 58  2  0
 60 61  1  0
 60 54  2  0
 61 56  2  0
 62 55  1  0
 63 53  1  0
 65 67  2  0
 66 65  1  0
 68 66  1  0
 69 78  2  0
 69 74  1  0
 70 66  1  0
 70 74  1  0
 71 70  1  0
 72 73  1  0
 72 71  1  0
 73 69  1  0
 74 75  2  0
 75 76  1  0
 77 76  2  0
 78 77  1  0
 79 53  1  0
 79 80  1  0
 79 84  1  0
 80 81  1  1
 80 83  1  0
 82 80  1  0
 84 85  1  0
 84 87  1  0
 85 89  1  0
 86 85  2  0
 89 88  1  0
 89 91  1  0
 91 90  1  0
 91 92  1  0
M  ISO  4   1 100  10 100  51 101  52 101
M  END
>  <TORSDO>  (96) 
F 20

>  <SCORE>  (96) 
-7.757

>  <name>  (96) 
95

>  <ligand_id>  (96) 
95

>  <original_smiles>  (96) 
[H]c1c([H])c([H])c2c(c1[H])C([H])([H])C([H])([H])C([H])([H])C2([H])N([H])C(=O)C1([H])N(C(=O)C([H])(N([H])C(=O)C([H])(N([H])C([H])([H])[H])C([H])([H])[H])C(C([H])([H])[H])(C([H])([H])[H])C([H])([H])[H])C([H])([H])c2c([H])c(OC([H])([H])C([H])([H])C([H])([H])C(=O)N(C(=O)N3C([H])([H])C([H])([H])C([H])([H])C([H])(n4nc(-c5c([H])c([H])c(Oc6c([H])c([H])c(F)c([H])c6F)c([H])c5[H])c(C(=O)N([H])[H])c4N([H])[H])C3([H])[H])c3c(F)sc(N([H])[H])c3[H])c([H])c([H])c2C1([H])[H]

>  <smiles>  (96) 
[H]c1c([H])c([H])c2c(c1[H])C([H])([H])C([H])([H])C([H])([H])C2([H])N([H])C(=O)C1([H])N(C(=O)C([H])(N([H])C(=O)C([H])(N([H])C([H])([H])[H])C([H])([H])[H])C(C([H])([H])[H])(C([H])([H])[H])C([H])([H])[H])C([H])([H])c2c([H])c(OC([H])([H])C([H])([H])C([H])([H])C(=O)N(C(=O)N3C([H])([H])C([H])([H])C([H])([H])C([H])(n4nc(-c5c([H])c([H])c(Oc6c([H])c([H])c(F)c([H])c6F)c([H])c5[H])c(C(=O)N([H])[H])c4N([H])[H])C3([H])[H])c3c(F)sc(N([H])[H])c3[H])c([H])c([H])c2C1([H])[H]

$$$$
96:0:0
     RDKit          3D

 95104  0  0  1  0  0  0  0  0999 V2000
  -27.1810  -23.5730   18.8120 C   0  0  0  0  0  3  0  0  0  0  0  0
  -28.3480  -24.2680   19.2360 C   0  0  0  0  0  0  0  0  0  0  0  0
  -29.1940  -23.3050   19.7580 C   0  0  0  0  0  0  0  0  0  0  0  0
  -27.3710  -22.2430   19.0360 C   0  0  0  0  0  0  0  0  0  0  0  0
  -30.5470  -23.5230   20.3630 C   0  0  0  0  0  1  0  0  0  0  0  0
  -28.6180  -22.0230   19.6030 N   0  0  0  0  0  0  0  0  0  0  0  0
  -28.9530  -18.4240   20.7980 C   0  0  0  0  0  3  0  0  0  0  0  0
  -31.0760  -19.1500   19.8860 C   0  0  0  0  0  3  0  0  0  0  0  0
  -28.4050  -19.7030   20.5150 C   0  0  0  0  0  3  0  0  0  0  0  0
  -30.5220  -20.4180   19.5850 C   0  0  0  0  0  3  0  0  0  0  0  0
  -30.3070  -18.1390   20.5050 C   0  0  0  0  0  0  0  0  0  0  0  0
  -29.1810  -20.7280   19.9120 C   0  0  0  0  0  0  0  0  0  0  0  0
  -30.9960  -16.8360   20.9620 C   0  0  0  0  0  2  0  0  0  0  0  0
  -30.9700  -14.5040   20.0290 C   0  0  0  0  0  0  0  0  0  0  0  0
  -30.5860  -12.3180   18.9430 C   0  0  0  0  0  2  0  0  0  0  0  0
  -29.5850  -12.4820   17.7810 C   0  0  0  0  0  2  0  0  0  0  0  0
  -28.1350  -12.3700   18.2870 C   0  0  0  0  0  2  0  0  0  0  0  0
  -27.8670  -13.2540   19.5370 C   0  0  0  0  0  3  0  0  0  0  0  0
  -28.9720  -13.0670   20.5990 C   0  0  0  0  0  2  0  0  0  0  0  0
  -30.2650  -13.3430   19.9530 N   0  0  0  0  0  0  0  0  0  0  0  0
  -32.0740  -14.6380   19.4950 O   0  0  0  0  0  0  0  0  0  0  0  0
  -30.3600  -15.5440   20.6420 N   0  0  0  0  0  0  0  0  0  0  0  0
  -29.4460  -15.3700   21.0290 H   0  0  0  0  0  0  0  0  0  0  0  0
  -25.5400  -13.9170   20.4010 C   0  0  0  0  0  0  0  0  0  0  0  0
  -24.4710  -13.1700   20.8150 C   0  0  0  0  0  0  0  0  0  0  0  0
  -24.8850  -11.8040   20.7270 C   0  0  0  0  0  0  0  0  0  0  0  0
  -26.5390  -13.0090   20.0890 N   0  0  0  0  0  0  0  0  0  0  0  0
  -26.1530  -11.7330   20.3420 N   0  0  0  0  0  0  0  0  0  0  0  0
  -24.1310  -10.5610   20.9290 C   0  0  0  0  0  0  0  0  0  0  0  0
  -24.5570   -9.5780   21.8480 C   0  0  0  0  0  3  0  0  0  0  0  0
  -23.8010   -8.4000   22.0370 C   0  0  0  0  0  3  0  0  0  0  0  0
  -22.6080   -8.1970   21.3080 C   0  0  0  0  0  0  0  0  0  0  0  0
  -22.1990   -9.1690   20.3770 C   0  0  0  0  0  3  0  0  0  0  0  0
  -22.9540  -10.3370   20.1850 C   0  0  0  0  0  3  0  0  0  0  0  0
  -21.8240   -7.0730   21.4070 O   0  0  0  0  0  0  0  0  0  0  0  0
  -21.7520   -6.3470   22.5690 C   0  0  0  0  0  0  0  0  0  0  0  0
  -21.3170   -6.9230   23.7810 C   0  0  0  0  0  3  0  0  0  0  0  0
  -21.1920   -6.1250   24.9360 C   0  0  0  0  0  3  0  0  0  0  0  0
  -21.4900   -4.7500   24.8790 C   0  0  0  0  0  0  0  0  0  0  0  0
  -21.9170   -4.1740   23.6700 C   0  0  0  0  0  3  0  0  0  0  0  0
  -22.0440   -4.9690   22.5180 C   0  0  0  0  0  0  0  0  0  0  0  0
  -22.4350   -4.4040   21.3510 F   0  0  0  0  0  0  0  0  0  0  0  0
  -21.3630   -3.9810   25.9870 F   0  0  0  0  0  0  0  0  0  0  0  0
  -23.1070  -13.6830   21.1820 C   0  0  0  0  0  0  0  0  0  0  0  0
  -22.4100  -12.9860   22.0710 N   0  0  0  0  0  0  0  0  0  0  0  0
  -22.6740  -14.7350   20.7120 O   0  0  0  0  0  0  0  0  0  0  0  0
  -22.7740  -12.1330   22.4660 H   0  0  0  0  0  0  0  0  0  0  0  0
  -21.4980  -13.3100   22.3590 H   0  0  0  0  0  0  0  0  0  0  0  0
  -25.7410  -15.2860   20.2470 N   0  0  0  0  0  0  0  0  0  0  0  0
  -25.0010  -15.9630   20.4020 H   0  0  0  0  0  0  0  0  0  0  0  0
  -26.5780  -15.7030   19.8610 H   0  0  0  0  0  0  0  0  0  0  0  0
  -26.5290  -21.2210   18.7260 O   0  0  0  0  0  0  0  0  0  0  0  0
  -25.7610  -21.5970   18.3100 H   0  0  0  0  0  0  0  0  0  0  0  0
  -28.6200  -25.7670   19.0130 C   0  0  0  0  0  2  0  0  0  0  0  0
  -28.3400  -26.6730   20.1010 O   0  0  0  0  0  0  0  0  0  0  0  0
  -24.5670  -31.8820   23.2130 C   0  0  0  0  0  0  0  0  0  0  0  0
  -27.1680  -27.4150   20.0960 C   0  0  0  0  0  0  0  0  0  0  0  0
  -23.3420  -30.4890   21.5790 C   0  0  0  0  0  3  0  0  0  0  0  0
  -24.7770  -28.9490   20.1370 C   0  0  0  0  0  0  0  0  0  0  0  0
  -25.8700  -30.8280   21.3680 C   0  0  0  0  0  2  0  0  0  0  0  0
  -25.9420  -29.4560   20.7270 C   0  0  0  0  0  0  0  0  0  0  0  0
  -27.1340  -28.6900   20.7170 C   0  0  0  0  0  3  0  0  0  0  0  0
  -25.9790  -26.9310   19.5080 C   0  0  0  0  0  3  0  0  0  0  0  0
  -24.7900  -27.6840   19.5300 C   0  0  0  0  0  3  0  0  0  0  0  0
  -23.5390  -29.8150   20.1950 C   0  0  0  0  0  2  0  0  0  0  0  0
  -24.6120  -31.0830   22.1100 N   0  0  0  0  0  0  0  0  0  0  0  0
  -23.4910  -32.1570   23.7610 O   0  0  0  0  0  0  0  0  0  0  0  0
  -22.6950  -29.4660   22.5400 C   0  0  0  0  0  0  0  0  0  0  0  0
  -21.3670  -29.2950   22.4290 N   0  0  0  0  0  0  0  0  0  0  0  0
  -23.3830  -28.8310   23.3450 O   0  0  0  0  0  0  0  0  0  0  0  0
  -20.8730  -29.8650   21.7570 H   0  0  0  0  0  0  0  0  0  0  0  0
  -17.9910  -28.1210   22.9560 C   0  0  0  0  0  0  0  0  0  0  0  0
  -20.5530  -28.3580   23.2040 C   0  0  0  0  0  3  0  0  0  0  0  0
  -20.6380  -26.9270   22.6240 C   0  0  0  0  0  2  0  0  0  0  0  0
  -19.5260  -26.6170   21.6160 C   0  0  0  0  0  2  0  0  0  0  0  0
  -18.1480  -26.7740   22.2670 C   0  0  0  0  0  2  0  0  0  0  0  0
  -19.1200  -28.8720   23.3790 C   0  0  0  0  0  0  0  0  0  0  0  0
  -18.9180  -30.1330   23.9800 C   0  0  0  0  0  3  0  0  0  0  0  0
  -17.6190  -30.6450   24.1580 C   0  0  0  0  0  3  0  0  0  0  0  0
  -16.5050  -29.8900   23.7530 C   0  0  0  0  0  3  0  0  0  0  0  0
  -16.6910  -28.6290   23.1600 C   0  0  0  0  0  3  0  0  0  0  0  0
  -25.8580  -32.5080   23.8260 C   0  0  0  0  0  3  0  0  0  0  0  0
  -26.3870  -31.7330   25.0940 C   0  0  1  0  0  0  0  0  0  0  0  0
  -25.3030  -31.4920   26.1710 C   0  0  0  0  0  1  0  0  0  0  0  0
  -26.9630  -30.3560   24.6890 C   0  0  0  0  0  1  0  0  0  0  0  0
  -27.5440  -32.5250   25.7480 C   0  0  0  0  0  1  0  0  0  0  0  0
  -25.5560  -33.9050   24.1630 N   0  0  0  0  0  0  0  0  0  0  0  0
  -25.8680  -34.9590   23.3990 C   0  0  0  0  0  0  0  0  0  0  0  0
  -26.5170  -34.8600   22.3530 O   0  0  0  0  0  0  0  0  0  0  0  0
  -24.9890  -34.0600   24.9840 H   0  0  0  0  0  0  0  0  0  0  0  0
  -24.1240  -36.7440   23.0870 C   0  0  0  0  0  1  0  0  0  0  0  0
  -25.3840  -36.3440   23.8710 C   0  0  0  0  0  3  0  0  0  0  0  0
  -27.5330  -37.2360   24.6550 C   0  0  0  0  0  1  0  0  0  0  0  0
  -26.4080  -37.4020   23.7390 N   0  0  0  0  0  0  0  0  0  0  0  0
  -25.9990  -38.3190   23.9020 H   0  0  0  0  0  0  0  0  0  0  0  0
  1  4  2  0
  1  2  1  0
  2  3  2  0
  3  5  1  0
  4  6  1  0
  6  3  1  0
  6 12  1  0
  8 11  1  0
  9  7  1  0
 10  8  2  0
 10 12  1  0
 11  7  2  0
 11 13  1  0
 12  9  2  0
 14 22  1  0
 15 20  1  0
 16 17  1  0
 16 15  1  0
 18 17  1  0
 18 27  1  0
 18 19  1  0
 20 14  1  0
 20 19  1  0
 21 14  2  0
 22 13  1  0
 22 23  1  0
 24 25  2  0
 25 44  1  0
 26 25  1  0
 26 29  1  0
 27 28  1  0
 27 24  1  0
 28 26  2  0
 29 30  1  0
 30 31  2  0
 32 35  1  0
 32 31  1  0
 33 32  2  0
 34 33  1  0
 34 29  2  0
 35 36  1  0
 36 37  1  0
 37 38  2  0
 39 38  1  0
 39 43  1  0
 40 39  2  0
 41 36  2  0
 41 40  1  0
 42 41  1  0
 44 45  1  0
 45 48  1  0
 45 47  1  0
 46 44  2  0
 49 24  1  0
 49 50  1  0
 51 49  1  0
 52  4  1  0
 53 52  1  0
 54  2  1  0
 54 55  1  0
 56 67  2  0
 57 55  1  0
 57 62  1  0
 58 66  1  0
 58 68  1  0
 59 65  1  0
 59 61  1  0
 60 66  1  0
 61 60  1  0
 62 61  2  0
 63 64  1  0
 63 57  2  0
 64 59  2  0
 65 58  1  0
 66 56  1  0
 68 70  2  0
 69 68  1  0
 71 69  1  0
 72 81  2  0
 72 77  1  0
 73 69  1  0
 73 77  1  0
 74 73  1  0
 75 76  1  0
 75 74  1  0
 76 72  1  0
 77 78  2  0
 78 79  1  0
 80 79  2  0
 81 80  1  0
 82 56  1  0
 82 87  1  0
 82 83  1  0
 83 86  1  1
 83 84  1  0
 85 83  1  0
 87 90  1  0
 88 92  1  0
 88 87  1  0
 89 88  2  0
 92 91  1  0
 94 92  1  0
 94 95  1  0
 94 93  1  0
M  ISO  4  14 100  22 100  54 101  55 101
M  END
>  <TORSDO>  (97) 
F 20

>  <SCORE>  (97) 
-14.122

>  <name>  (97) 
96

>  <ligand_id>  (97) 
96

>  <original_smiles>  (97) 
[H]Oc1c([H])c(C([H])([H])Oc2c([H])c([H])c3c(c2[H])C([H])([H])N(C(=O)C([H])(N([H])C(=O)C([H])(N([H])C([H])([H])[H])C([H])([H])[H])C(C([H])([H])[H])(C([H])([H])[H])C([H])([H])[H])C([H])(C(=O)N([H])C2([H])c4c([H])c([H])c([H])c([H])c4C([H])([H])C([H])([H])C2([H])[H])C3([H])[H])c(C([H])([H])[H])n1-c1c([H])c([H])c(C([H])([H])N([H])C(=O)N2C([H])([H])C([H])([H])C([H])([H])C([H])(n3nc(-c4c([H])c([H])c(Oc5c([H])c([H])c(F)c([H])c5F)c([H])c4[H])c(C(=O)N([H])[H])c3N([H])[H])C2([H])[H])c([H])c1[H]

>  <smiles>  (97) 
[H]Oc1c([H])c(C([H])([H])Oc2c([H])c([H])c3c(c2[H])C([H])([H])N(C(=O)C([H])(N([H])C(=O)C([H])(N([H])C([H])([H])[H])C([H])([H])[H])C(C([H])([H])[H])(C([H])([H])[H])C([H])([H])[H])C([H])(C(=O)N([H])C2([H])c4c([H])c([H])c([H])c([H])c4C([H])([H])C([H])([H])C2([H])[H])C3([H])[H])c(C([H])([H])[H])n1-c1c([H])c([H])c(C([H])([H])N([H])C(=O)N2C([H])([H])C([H])([H])C([H])([H])C([H])(n3nc(-c4c([H])c([H])c(Oc5c([H])c([H])c(F)c([H])c5F)c([H])c4[H])c(C(=O)N([H])[H])c3N([H])[H])C2([H])[H])c([H])c1[H]

$$$$
97:0:0
     RDKit          3D

 91 99  0  0  1  0  0  0  0  0999 V2000
  -29.7520  -21.6520   19.7650 C   0  0  0  0  0  0  0  0  0  0  0  0
  -30.5710  -21.9590   18.8950 O   0  0  0  0  0  0  0  0  0  0  0  0
  -30.9650  -19.4110   20.2650 C   0  0  0  0  0  3  0  0  0  0  0  0
  -31.0130  -17.9870   20.4210 C   0  0  0  0  0  3  0  0  0  0  0  0
  -28.5670  -19.3560   20.1950 C   0  0  0  0  0  3  0  0  0  0  0  0
  -29.7470  -20.1440   20.1340 C   0  0  0  0  0  0  0  0  0  0  0  0
  -29.8290  -17.2040   20.4610 C   0  0  0  0  0  0  0  0  0  0  0  0
  -28.6120  -17.9350   20.3600 C   0  0  0  0  0  0  0  0  0  0  0  0
  -27.4480  -17.2450   20.3930 F   0  0  0  0  0  0  0  0  0  0  0  0
  -30.5760  -14.6950   20.3010 C   0  0  0  0  0  0  0  0  0  0  0  0
  -30.3750  -12.4530   19.2300 C   0  0  0  0  0  2  0  0  0  0  0  0
  -29.4130  -12.5800   18.0260 C   0  0  0  0  0  2  0  0  0  0  0  0
  -27.9450  -12.4130   18.4700 C   0  0  0  0  0  2  0  0  0  0  0  0
  -27.5980  -13.2650   19.7210 C   0  0  0  0  0  3  0  0  0  0  0  0
  -28.6720  -13.1050   20.8210 C   0  0  0  0  0  2  0  0  0  0  0  0
  -29.9710  -13.4630   20.2290 N   0  0  0  0  0  0  0  0  0  0  0  0
  -31.7410  -14.8540   19.9270 O   0  0  0  0  0  0  0  0  0  0  0  0
  -29.7510  -15.7440   20.6290 N   0  0  0  0  0  0  0  0  0  0  0  0
  -28.8230  -15.4340   20.8760 H   0  0  0  0  0  0  0  0  0  0  0  0
  -25.2070  -13.8520   20.4550 C   0  0  0  0  0  0  0  0  0  0  0  0
  -24.1470  -13.0750   20.8330 C   0  0  0  0  0  0  0  0  0  0  0  0
  -24.6170  -11.7260   20.8060 C   0  0  0  0  0  0  0  0  0  0  0  0
  -26.2560  -12.9780   20.2180 N   0  0  0  0  0  0  0  0  0  0  0  0
  -25.9060  -11.6930   20.4890 N   0  0  0  0  0  0  0  0  0  0  0  0
  -23.8980  -10.4610   21.0060 C   0  0  0  0  0  0  0  0  0  0  0  0
  -24.3430   -9.4980   21.9380 C   0  0  0  0  0  3  0  0  0  0  0  0
  -23.6230   -8.2990   22.1250 C   0  0  0  0  0  3  0  0  0  0  0  0
  -22.4440   -8.0540   21.3810 C   0  0  0  0  0  0  0  0  0  0  0  0
  -22.0190   -9.0060   20.4390 C   0  0  0  0  0  3  0  0  0  0  0  0
  -22.7390  -10.1970   20.2490 C   0  0  0  0  0  3  0  0  0  0  0  0
  -21.6960   -6.9060   21.4780 O   0  0  0  0  0  0  0  0  0  0  0  0
  -21.6640   -6.1620   22.6310 C   0  0  0  0  0  0  0  0  0  0  0  0
  -21.2460   -6.7150   23.8620 C   0  0  0  0  0  3  0  0  0  0  0  0
  -21.1620   -5.8980   25.0070 C   0  0  0  0  0  3  0  0  0  0  0  0
  -21.4840   -4.5300   24.9220 C   0  0  0  0  0  0  0  0  0  0  0  0
  -21.8960   -3.9770   23.6970 C   0  0  0  0  0  3  0  0  0  0  0  0
  -21.9820   -4.7920   22.5530 C   0  0  0  0  0  0  0  0  0  0  0  0
  -22.3580   -4.2500   21.3700 F   0  0  0  0  0  0  0  0  0  0  0  0
  -21.3960   -3.7430   26.0200 F   0  0  0  0  0  0  0  0  0  0  0  0
  -22.7490  -13.5470   21.1130 C   0  0  0  0  0  0  0  0  0  0  0  0
  -22.0320  -12.8500   21.9870 N   0  0  0  0  0  0  0  0  0  0  0  0
  -22.3030  -14.5690   20.5950 O   0  0  0  0  0  0  0  0  0  0  0  0
  -22.4050  -12.0230   22.4290 H   0  0  0  0  0  0  0  0  0  0  0  0
  -21.0940  -13.1490   22.2180 H   0  0  0  0  0  0  0  0  0  0  0  0
  -25.3570  -15.2230   20.2790 N   0  0  0  0  0  0  0  0  0  0  0  0
  -24.5850  -15.8640   20.4260 H   0  0  0  0  0  0  0  0  0  0  0  0
  -26.2160  -15.7060   20.0370 H   0  0  0  0  0  0  0  0  0  0  0  0
  -28.9780  -23.8700   20.0900 C   0  0  0  0  0  3  0  0  0  0  0  0
  -28.9160  -22.5970   20.4280 N   0  0  0  0  0  0  0  0  0  0  0  0
  -28.1110  -25.0530   20.6870 C   0  0  0  0  0  2  0  0  0  0  0  0
  -28.3360  -26.4520   20.2160 O   0  0  0  0  0  0  0  0  0  0  0  0
  -24.6040  -31.8760   23.2410 C   0  0  0  0  0  0  0  0  0  0  0  0
  -27.2260  -27.3130   20.1950 C   0  0  0  0  0  0  0  0  0  0  0  0
  -23.4030  -30.4730   21.6020 C   0  0  0  0  0  3  0  0  0  0  0  0
  -24.8580  -28.9240   20.1780 C   0  0  0  0  0  0  0  0  0  0  0  0
  -25.9430  -30.7960   21.4180 C   0  0  0  0  0  2  0  0  0  0  0  0
  -26.0260  -29.4160   20.7740 C   0  0  0  0  0  0  0  0  0  0  0  0
  -27.2160  -28.6240   20.7700 C   0  0  0  0  0  3  0  0  0  0  0  0
  -26.0380  -26.8810   19.5650 C   0  0  0  0  0  3  0  0  0  0  0  0
  -24.8660  -27.6610   19.5630 C   0  0  0  0  0  3  0  0  0  0  0  0
  -23.6190  -29.7960   20.2230 C   0  0  0  0  0  2  0  0  0  0  0  0
  -24.6690  -31.0660   22.1440 N   0  0  0  0  0  0  0  0  0  0  0  0
  -23.5200  -32.1530   23.7750 O   0  0  0  0  0  0  0  0  0  0  0  0
  -22.7420  -29.4570   22.5640 C   0  0  0  0  0  0  0  0  0  0  0  0
  -21.4150  -29.2820   22.4400 N   0  0  0  0  0  0  0  0  0  0  0  0
  -23.4210  -28.8300   23.3800 O   0  0  0  0  0  0  0  0  0  0  0  0
  -20.9260  -29.8410   21.7540 H   0  0  0  0  0  0  0  0  0  0  0  0
  -18.0370  -28.0920   22.9490 C   0  0  0  0  0  0  0  0  0  0  0  0
  -20.5960  -28.3460   23.2120 C   0  0  0  0  0  3  0  0  0  0  0  0
  -20.6940  -26.9140   22.6350 C   0  0  0  0  0  2  0  0  0  0  0  0
  -19.5890  -26.5940   21.6240 C   0  0  0  0  0  2  0  0  0  0  0  0
  -18.2090  -26.7420   22.2720 C   0  0  0  0  0  2  0  0  0  0  0  0
  -19.1580  -28.8520   23.3760 C   0  0  0  0  0  0  0  0  0  0  0  0
  -18.9420  -30.1140   23.9690 C   0  0  0  0  0  3  0  0  0  0  0  0
  -17.6390  -30.6170   24.1390 C   0  0  0  0  0  3  0  0  0  0  0  0
  -16.5320  -29.8550   23.7280 C   0  0  0  0  0  3  0  0  0  0  0  0
  -16.7330  -28.5930   23.1380 C   0  0  0  0  0  3  0  0  0  0  0  0
  -25.8860  -32.5110   23.8630 C   0  0  0  0  0  3  0  0  0  0  0  0
  -26.4020  -31.7430   25.1410 C   0  0  1  0  0  0  0  0  0  0  0  0
  -25.3080  -31.5070   26.2100 C   0  0  0  0  0  1  0  0  0  0  0  0
  -26.9860  -30.3650   24.7530 C   0  0  0  0  0  1  0  0  0  0  0  0
  -27.5520  -32.5390   25.8020 C   0  0  0  0  0  1  0  0  0  0  0  0
  -25.5740  -33.9090   24.1910 N   0  0  0  0  0  0  0  0  0  0  0  0
  -25.9070  -34.9630   23.4330 C   0  0  0  0  0  0  0  0  0  0  0  0
  -26.5770  -34.8590   22.4030 O   0  0  0  0  0  0  0  0  0  0  0  0
  -24.9780  -34.0630   24.9910 H   0  0  0  0  0  0  0  0  0  0  0  0
  -24.1810  -36.7580   23.0740 C   0  0  0  0  0  1  0  0  0  0  0  0
  -25.4190  -36.3510   23.8900 C   0  0  0  0  0  3  0  0  0  0  0  0
  -27.5500  -37.2350   24.7300 C   0  0  0  0  0  1  0  0  0  0  0  0
  -26.4540  -37.4030   23.7800 N   0  0  0  0  0  0  0  0  0  0  0  0
  -26.0480  -38.3240   23.9230 H   0  0  0  0  0  0  0  0  0  0  0  0
  1  6  1  0
  1 49  1  0
  2  1  2  0
  3  4  1  0
  4  7  2  0
  5  8  2  0
  6  5  1  0
  6  3  2  0
  7 18  1  0
  8  9  1  0
  8  7  1  0
 10 18  1  0
 11 16  1  0
 12 13  1  0
 12 11  1  0
 14 13  1  0
 14 23  1  0
 14 15  1  0
 16 10  1  0
 16 15  1  0
 17 10  2  0
 18 19  1  0
 20 21  2  0
 21 40  1  0
 22 21  1  0
 22 25  1  0
 23 20  1  0
 23 24  1  0
 24 22  2  0
 25 26  1  0
 26 27  2  0
 28 31  1  0
 28 27  1  0
 29 28  2  0
 30 29  1  0
 30 25  2  0
 31 32  1  0
 32 33  1  0
 33 34  2  0
 35 34  1  0
 35 39  1  0
 36 35  2  0
 37 32  2  0
 37 36  1  0
 38 37  1  0
 40 41  1  0
 41 44  1  0
 41 43  1  0
 42 40  2  0
 45 46  1  0
 45 20  1  0
 47 45  1  0
 48 49  2  0
 48 50  1  0
 51 50  1  0
 52 63  2  0
 53 51  1  0
 53 58  1  0
 54 62  1  0
 54 64  1  0
 55 61  1  0
 55 57  1  0
 56 62  1  0
 57 56  1  0
 58 57  2  0
 59 53  2  0
 60 59  1  0
 60 55  2  0
 61 54  1  0
 62 52  1  0
 64 66  2  0
 65 64  1  0
 67 65  1  0
 68 77  2  0
 68 73  1  0
 69 65  1  0
 69 73  1  0
 70 69  1  0
 71 72  1  0
 71 70  1  0
 72 68  1  0
 73 74  2  0
 74 75  1  0
 76 75  2  0
 77 76  1  0
 78 52  1  0
 78 83  1  0
 78 79  1  0
 79 82  1  1
 79 80  1  0
 81 79  1  0
 83 86  1  0
 84 88  1  0
 84 83  1  0
 85 84  2  0
 88 87  1  0
 90 88  1  0
 90 91  1  0
 90 89  1  0
M  ISO  4  10 100  18 100  50 101  51 101
M  END
>  <TORSDO>  (98) 
F 19

>  <SCORE>  (98) 
-14.481

>  <name>  (98) 
97

>  <ligand_id>  (98) 
97

>  <original_smiles>  (98) 
[H]C(=NC(=O)c1c([H])c([H])c(N([H])C(=O)N2C([H])([H])C([H])([H])C([H])([H])C([H])(n3nc(-c4c([H])c([H])c(Oc5c([H])c([H])c(F)c([H])c5F)c([H])c4[H])c(C(=O)N([H])[H])c3N([H])[H])C2([H])[H])c(F)c1[H])C([H])([H])Oc1c([H])c([H])c2c(c1[H])C([H])([H])N(C(=O)C([H])(N([H])C(=O)C([H])(N([H])C([H])([H])[H])C([H])([H])[H])C(C([H])([H])[H])(C([H])([H])[H])C([H])([H])[H])C([H])(C(=O)N([H])C1([H])c3c([H])c([H])c([H])c([H])c3C([H])([H])C([H])([H])C1([H])[H])C2([H])[H]

>  <smiles>  (98) 
[H]C(=NC(=O)c1c([H])c([H])c(N([H])C(=O)N2C([H])([H])C([H])([H])C([H])([H])C([H])(n3nc(-c4c([H])c([H])c(Oc5c([H])c([H])c(F)c([H])c5F)c([H])c4[H])c(C(=O)N([H])[H])c3N([H])[H])C2([H])[H])c(F)c1[H])C([H])([H])Oc1c([H])c([H])c2c(c1[H])C([H])([H])N(C(=O)C([H])(N([H])C(=O)C([H])(N([H])C([H])([H])[H])C([H])([H])[H])C(C([H])([H])[H])(C([H])([H])[H])C([H])([H])[H])C([H])(C(=O)N([H])C1([H])c3c([H])c([H])c([H])c([H])c3C([H])([H])C([H])([H])C1([H])[H])C2([H])[H]

$$$$
98:0:0
     RDKit          3D

 97106  0  0  1  0  0  0  0  0999 V2000
  -29.4910  -19.7830   18.5400 C   0  0  0  0  0  3  0  0  0  0  0  0
  -29.3580  -18.8120   20.7630 C   0  0  0  0  0  3  0  0  0  0  0  0
  -30.0510  -17.4010   18.8830 C   0  0  0  0  0  0  0  0  0  0  0  0
  -29.2050  -19.9930   19.9040 C   0  0  0  0  0  0  0  0  0  0  0  0
  -29.9120  -18.5410   18.0450 C   0  0  0  0  0  0  0  0  0  0  0  0
  -29.7830  -17.4880   20.2890 C   0  0  0  0  0  0  0  0  0  0  0  0
  -30.6680  -15.1440   21.1460 C   0  0  0  0  0  0  0  0  0  0  0  0
  -30.7420  -12.7440   20.4270 C   0  0  0  0  0  2  0  0  0  0  0  0
  -29.9850  -12.6150   19.0880 C   0  0  0  0  0  2  0  0  0  0  0  0
  -28.4690  -12.4510   19.3150 C   0  0  0  0  0  2  0  0  0  0  0  0
  -27.9010  -13.4310   20.3790 C   0  0  0  0  0  3  0  0  0  0  0  0
  -28.7950  -13.4860   21.6340 C   0  0  0  0  0  2  0  0  0  0  0  0
  -30.1380  -13.8690   21.1860 N   0  0  0  0  0  0  0  0  0  0  0  0
  -31.8870  -15.2840   20.9880 O   0  0  0  0  0  0  0  0  0  0  0  0
  -29.8020  -16.2400   21.1330 N   0  0  0  0  0  0  0  0  0  0  0  0
  -28.9170  -16.0360   21.5750 H   0  0  0  0  0  0  0  0  0  0  0  0
  -25.4240  -13.9700   20.7860 C   0  0  0  0  0  0  0  0  0  0  0  0
  -24.3420  -13.1730   21.0350 C   0  0  0  0  0  0  0  0  0  0  0  0
  -24.8400  -11.8350   21.0930 C   0  0  0  0  0  0  0  0  0  0  0  0
  -26.5120  -13.1190   20.7070 N   0  0  0  0  0  0  0  0  0  0  0  0
  -26.1600  -11.8310   20.9580 N   0  0  0  0  0  0  0  0  0  0  0  0
  -24.1340  -10.5520   21.2050 C   0  0  0  0  0  0  0  0  0  0  0  0
  -24.4770   -9.6060   22.1950 C   0  0  0  0  0  3  0  0  0  0  0  0
  -23.7650   -8.3900   22.2970 C   0  0  0  0  0  3  0  0  0  0  0  0
  -22.7000   -8.1120   21.4090 C   0  0  0  0  0  0  0  0  0  0  0  0
  -22.3800   -9.0480   20.4100 C   0  0  0  0  0  3  0  0  0  0  0  0
  -23.0920  -10.2550   20.3050 C   0  0  0  0  0  3  0  0  0  0  0  0
  -21.9690   -6.9480   21.4210 O   0  0  0  0  0  0  0  0  0  0  0  0
  -21.7910   -6.2190   22.5700 C   0  0  0  0  0  0  0  0  0  0  0  0
  -21.1850   -6.7720   23.7200 C   0  0  0  0  0  3  0  0  0  0  0  0
  -20.9660   -5.9690   24.8560 C   0  0  0  0  0  3  0  0  0  0  0  0
  -21.3350   -4.6110   24.8420 C   0  0  0  0  0  0  0  0  0  0  0  0
  -21.9280   -4.0560   23.6950 C   0  0  0  0  0  3  0  0  0  0  0  0
  -22.1540   -4.8570   22.5610 C   0  0  0  0  0  0  0  0  0  0  0  0
  -22.7070   -4.3110   21.4530 F   0  0  0  0  0  0  0  0  0  0  0  0
  -21.1150   -3.8360   25.9300 F   0  0  0  0  0  0  0  0  0  0  0  0
  -22.9070  -13.6120   21.1130 C   0  0  0  0  0  0  0  0  0  0  0  0
  -22.0890  -12.9200   21.8980 N   0  0  0  0  0  0  0  0  0  0  0  0
  -22.5140  -14.6090   20.5080 O   0  0  0  0  0  0  0  0  0  0  0  0
  -22.4080  -12.1150   22.4150 H   0  0  0  0  0  0  0  0  0  0  0  0
  -21.1230  -13.2050   21.9850 H   0  0  0  0  0  0  0  0  0  0  0  0
  -25.5780  -15.3420   20.5980 N   0  0  0  0  0  0  0  0  0  0  0  0
  -24.7900  -15.9810   20.5590 H   0  0  0  0  0  0  0  0  0  0  0  0
  -26.4570  -15.7920   20.3820 H   0  0  0  0  0  0  0  0  0  0  0  0
  -29.0850  -22.0610   21.3970 C   0  0  0  0  0  0  0  0  0  0  0  0
  -28.7840  -23.5830   21.3120 C   0  0  0  0  0  2  0  0  0  0  0  0
  -28.3110  -22.4490   19.2890 C   0  0  0  0  0  2  0  0  0  0  0  0
  -27.9380  -23.7980   20.0420 C   0  0  0  0  0  3  0  0  0  0  0  0
  -28.7940  -21.3930   20.2600 N   0  0  0  0  0  0  0  0  0  0  0  0
  -29.5590  -21.5560   22.4200 O   0  0  0  0  0  0  0  0  0  0  0  0
  -28.0950  -25.1950   19.2190 C   0  0  0  0  0  2  0  0  0  0  0  0
  -28.0580  -26.5820   19.7950 O   0  0  0  0  0  0  0  0  0  0  0  0
  -24.4700  -31.9040   23.1360 C   0  0  0  0  0  0  0  0  0  0  0  0
  -26.9270  -27.4300   19.7970 C   0  0  0  0  0  0  0  0  0  0  0  0
  -23.1890  -30.5740   21.4970 C   0  0  0  0  0  3  0  0  0  0  0  0
  -24.5680  -29.0670   19.9540 C   0  0  0  0  0  0  0  0  0  0  0  0
  -25.7210  -30.8860   21.2140 C   0  0  0  0  0  2  0  0  0  0  0  0
  -25.7660  -29.5300   20.5100 C   0  0  0  0  0  0  0  0  0  0  0  0
  -26.9430  -28.7250   20.4210 C   0  0  0  0  0  3  0  0  0  0  0  0
  -25.6980  -27.0200   19.2370 C   0  0  0  0  0  3  0  0  0  0  0  0
  -24.5390  -27.8190   19.3080 C   0  0  0  0  0  3  0  0  0  0  0  0
  -23.3340  -29.9340   20.0900 C   0  0  0  0  0  2  0  0  0  0  0  0
  -24.4810  -31.1410   22.0010 N   0  0  0  0  0  0  0  0  0  0  0  0
  -23.4150  -32.1650   23.7290 O   0  0  0  0  0  0  0  0  0  0  0  0
  -22.5590  -29.5340   22.4530 C   0  0  0  0  0  0  0  0  0  0  0  0
  -21.2350  -29.3350   22.3460 N   0  0  0  0  0  0  0  0  0  0  0  0
  -23.2620  -28.9030   23.2460 O   0  0  0  0  0  0  0  0  0  0  0  0
  -20.7260  -29.8970   21.6790 H   0  0  0  0  0  0  0  0  0  0  0  0
  -17.8940  -28.0430   22.8480 C   0  0  0  0  0  0  0  0  0  0  0  0
  -20.4460  -28.3670   23.1070 C   0  0  0  0  0  3  0  0  0  0  0  0
  -20.5830  -26.9460   22.5090 C   0  0  0  0  0  2  0  0  0  0  0  0
  -19.4830  -26.6100   21.4960 C   0  0  0  0  0  2  0  0  0  0  0  0
  -18.1010  -26.7090   22.1490 C   0  0  0  0  0  2  0  0  0  0  0  0
  -18.9950  -28.8280   23.2810 C   0  0  0  0  0  0  0  0  0  0  0  0
  -18.7460  -30.0790   23.8910 C   0  0  0  0  0  3  0  0  0  0  0  0
  -17.4290  -30.5400   24.0750 C   0  0  0  0  0  3  0  0  0  0  0  0
  -16.3420  -29.7510   23.6590 C   0  0  0  0  0  3  0  0  0  0  0  0
  -16.5750  -28.5050   23.0490 C   0  0  0  0  0  3  0  0  0  0  0  0
  -25.7840  -32.5020   23.7290 C   0  0  0  0  0  3  0  0  0  0  0  0
  -26.3420  -31.6760   24.9530 C   0  0  1  0  0  0  0  0  0  0  0  0
  -25.2910  -31.4120   26.0570 C   0  0  0  0  0  1  0  0  0  0  0  0
  -26.8890  -30.3060   24.4890 C   0  0  0  0  0  1  0  0  0  0  0  0
  -27.5280  -32.4330   25.5950 C   0  0  0  0  0  1  0  0  0  0  0  0
  -25.4970  -33.8870   24.1300 N   0  0  0  0  0  0  0  0  0  0  0  0
  -25.8580  -34.9730   23.4340 C   0  0  0  0  0  0  0  0  0  0  0  0
  -26.5330  -34.9110   22.4020 O   0  0  0  0  0  0  0  0  0  0  0  0
  -24.8900  -34.0070   24.9270 H   0  0  0  0  0  0  0  0  0  0  0  0
  -24.1800  -36.8280   23.1570 C   0  0  0  0  0  1  0  0  0  0  0  0
  -25.3980  -36.3470   23.9610 C   0  0  0  0  0  3  0  0  0  0  0  0
  -27.5400  -37.1340   24.8700 C   0  0  0  0  0  1  0  0  0  0  0  0
  -26.4580  -37.3780   23.9190 N   0  0  0  0  0  0  0  0  0  0  0  0
  -26.0730  -38.3000   24.1070 H   0  0  0  0  0  0  0  0  0  0  0  0
  -30.1660  -18.4570   16.6700 N   0  0  0  0  0  0  0  0  0  0  0  0
  -30.4540  -19.3000   16.1830 H   0  0  0  0  0  0  0  0  0  0  0  0
  -30.6960  -17.6430   16.3750 H   0  0  0  0  0  0  0  0  0  0  0  0
  -31.5220  -15.7250   17.7720 C   0  0  0  0  0  2  0  0  0  0  0  0
  -30.3120  -16.1210   18.2060 C   0  0  0  0  0  3  0  0  0  0  0  0
  1  4  1  0
  3  6  2  0
  4 49  1  0
  4  2  2  0
  5  1  2  0
  5  3  1  0
  6  2  1  0
  6 15  1  0
  7 13  1  0
  8 13  1  0
  9 10  1  0
  9  8  1  0
 11 10  1  0
 11 20  1  0
 11 12  1  0
 13 12  1  0
 14  7  2  0
 15  7  1  0
 15 16  1  0
 17 18  2  0
 18 19  1  0
 18 37  1  0
 19 22  1  0
 20 17  1  0
 20 21  1  0
 21 19  2  0
 22 23  1  0
 23 24  2  0
 25 28  1  0
 25 24  1  0
 26 25  2  0
 27 26  1  0
 27 22  2  0
 28 29  1  0
 29 30  1  0
 30 31  2  0
 32 31  1  0
 32 36  1  0
 33 32  2  0
 34 29  2  0
 34 33  1  0
 35 34  1  0
 37 38  1  0
 38 41  1  0
 38 40  1  0
 39 37  2  0
 42 17  1  0
 43 42  1  0
 44 42  1  0
 45 50  2  0
 46 45  1  0
 47 48  1  0
 47 49  1  0
 48 51  1  0
 48 46  1  0
 49 45  1  0
 51 52  1  0
 52 54  1  0
 53 64  2  0
 54 59  1  0
 55 63  1  0
 55 65  1  0
 56 62  1  0
 56 58  1  0
 57 63  1  0
 58 57  1  0
 59 58  2  0
 60 61  1  0
 60 54  2  0
 61 56  2  0
 62 55  1  0
 63 53  1  0
 65 67  2  0
 66 65  1  0
 68 66  1  0
 69 78  2  0
 69 74  1  0
 70 66  1  0
 70 74  1  0
 71 70  1  0
 72 73  1  0
 72 71  1  0
 73 69  1  0
 74 75  2  0
 75 76  1  0
 77 76  2  0
 78 77  1  0
 79 53  1  0
 79 84  1  0
 79 80  1  0
 80 83  1  1
 80 81  1  0
 82 80  1  0
 84 87  1  0
 85 89  1  0
 85 84  1  0
 86 85  2  0
 89 88  1  0
 91 89  1  0
 91 92  1  0
 91 90  1  0
 93  5  1  0
 94 93  1  0
 95 93  1  0
 96 97  2  0
 97  3  1  0
M  ISO  4   7 100  15 100  51 101  52 101
M  END
>  <TORSDO>  (99) 
F 20

>  <SCORE>  (99) 
-13.278

>  <name>  (99) 
98

>  <ligand_id>  (99) 
98

>  <original_smiles>  (99) 
[H]C([H])=C([H])c1c(N([H])[H])c([H])c(N2C(=O)C([H])([H])C([H])(C([H])([H])Oc3c([H])c([H])c4c(c3[H])C([H])([H])N(C(=O)C([H])(N([H])C(=O)C([H])(N([H])C([H])([H])[H])C([H])([H])[H])C(C([H])([H])[H])(C([H])([H])[H])C([H])([H])[H])C([H])(C(=O)N([H])C3([H])c5c([H])c([H])c([H])c([H])c5C([H])([H])C([H])([H])C3([H])[H])C4([H])[H])C2([H])[H])c([H])c1N([H])C(=O)N1C([H])([H])C([H])([H])C([H])([H])C([H])(n2nc(-c3c([H])c([H])c(Oc4c([H])c([H])c(F)c([H])c4F)c([H])c3[H])c(C(=O)N([H])[H])c2N([H])[H])C1([H])[H]

>  <smiles>  (99) 
[H]C([H])=C([H])c1c(N([H])[H])c([H])c(N2C(=O)C([H])([H])C([H])(C([H])([H])Oc3c([H])c([H])c4c(c3[H])C([H])([H])N(C(=O)C([H])(N([H])C(=O)C([H])(N([H])C([H])([H])[H])C([H])([H])[H])C(C([H])([H])[H])(C([H])([H])[H])C([H])([H])[H])C([H])(C(=O)N([H])C3([H])c5c([H])c([H])c([H])c([H])c5C([H])([H])C([H])([H])C3([H])[H])C4([H])[H])C2([H])[H])c([H])c1N([H])C(=O)N1C([H])([H])C([H])([H])C([H])([H])C([H])(n2nc(-c3c([H])c([H])c(Oc4c([H])c([H])c(F)c([H])c4F)c([H])c3[H])c(C(=O)N([H])[H])c2N([H])[H])C1([H])[H]

$$$$
