0:0:0
     RDKit          3D

 94103  0  0  1  0  0  0  0  0999 V2000
  -31.0570  -22.1640   21.9260 C   0  0  0  0  0  0  0  0  0  0  0  0
  -31.2350  -23.6870   22.0680 C   0  0  0  0  0  2  0  0  0  0  0  0
  -29.9560  -24.5030   21.8370 C   0  0  0  0  0  2  0  0  0  0  0  0
  -29.0480  -22.5660   20.5160 C   0  0  0  0  0  2  0  0  0  0  0  0
  -29.3410  -24.1390   20.4850 C   0  0  0  0  0  3  0  0  0  0  0  0
  -30.1140  -21.6500   21.0820 N   0  0  0  0  0  0  0  0  0  0  0  0
  -31.8170  -21.4570   22.5980 O   0  0  0  0  0  0  0  0  0  0  0  0
  -31.1730  -19.4580   20.3690 C   0  0  0  0  0  3  0  0  0  0  0  0
  -28.9520  -19.3900   21.2850 C   0  0  0  0  0  3  0  0  0  0  0  0
  -31.1480  -18.0480   20.1720 C   0  0  0  0  0  3  0  0  0  0  0  0
  -28.9400  -17.9690   21.1200 C   0  0  0  0  0  3  0  0  0  0  0  0
  -30.0670  -20.1850   20.9020 C   0  0  0  0  0  0  0  0  0  0  0  0
  -30.0140  -17.2590   20.5080 C   0  0  0  0  0  0  0  0  0  0  0  0
  -30.5830  -14.7860   20.1260 C   0  0  0  0  0  0  0  0  0  0  0  0
  -30.3620  -12.4910   19.1670 C   0  0  0  0  0  2  0  0  0  0  0  0
  -29.3840  -12.4610   17.9700 C   0  0  0  0  0  2  0  0  0  0  0  0
  -27.9160  -12.3710   18.4390 C   0  0  0  0  0  2  0  0  0  0  0  0
  -27.5700  -13.2700   19.6570 C   0  0  0  0  0  3  0  0  0  0  0  0
  -28.6690  -13.2330   20.7400 C   0  0  0  0  0  2  0  0  0  0  0  0
  -29.9390  -13.5690   20.0870 N   0  0  0  0  0  0  0  0  0  0  0  0
  -31.7940  -14.8420   19.9010 O   0  0  0  0  0  0  0  0  0  0  0  0
  -29.8060  -15.9280   19.9200 N   0  0  0  0  0  0  0  0  0  0  0  0
  -25.2020  -13.8460   20.4600 C   0  0  0  0  0  0  0  0  0  0  0  0
  -24.1520  -13.0630   20.8570 C   0  0  0  0  0  0  0  0  0  0  0  0
  -24.6270  -11.7170   20.8150 C   0  0  0  0  0  0  0  0  0  0  0  0
  -26.2460  -12.9730   20.1950 N   0  0  0  0  0  0  0  0  0  0  0  0
  -25.9080  -11.6910   20.4730 N   0  0  0  0  0  0  0  0  0  0  0  0
  -23.9170  -10.4470   21.0160 C   0  0  0  0  0  0  0  0  0  0  0  0
  -24.3760   -9.4830   21.9390 C   0  0  0  0  0  3  0  0  0  0  0  0
  -23.6680   -8.2780   22.1320 C   0  0  0  0  0  3  0  0  0  0  0  0
  -22.4830   -8.0280   21.4010 C   0  0  0  0  0  0  0  0  0  0  0  0
  -22.0400   -8.9810   20.4660 C   0  0  0  0  0  3  0  0  0  0  0  0
  -22.7510  -10.1780   20.2710 C   0  0  0  0  0  3  0  0  0  0  0  0
  -21.7390   -6.8770   21.5070 O   0  0  0  0  0  0  0  0  0  0  0  0
  -21.7120   -6.1430   22.6650 C   0  0  0  0  0  0  0  0  0  0  0  0
  -21.2680   -6.6940   23.8870 C   0  0  0  0  0  3  0  0  0  0  0  0
  -21.1890   -5.8840   25.0360 C   0  0  0  0  0  3  0  0  0  0  0  0
  -21.5400   -4.5220   24.9650 C   0  0  0  0  0  0  0  0  0  0  0  0
  -21.9760   -3.9710   23.7480 C   0  0  0  0  0  3  0  0  0  0  0  0
  -22.0570   -4.7780   22.6010 C   0  0  0  0  0  0  0  0  0  0  0  0
  -22.4570   -4.2360   21.4260 F   0  0  0  0  0  0  0  0  0  0  0  0
  -21.4580   -3.7400   26.0670 F   0  0  0  0  0  0  0  0  0  0  0  0
  -22.7590  -13.5260   21.1700 C   0  0  0  0  0  0  0  0  0  0  0  0
  -22.0620  -12.8260   22.0590 N   0  0  0  0  0  0  0  0  0  0  0  0
  -22.2940  -14.5430   20.6590 O   0  0  0  0  0  0  0  0  0  0  0  0
  -22.4500  -12.0010   22.4940 H   0  0  0  0  0  0  0  0  0  0  0  0
  -21.1300  -13.1220   22.3090 H   0  0  0  0  0  0  0  0  0  0  0  0
  -25.3530  -15.2190   20.2810 N   0  0  0  0  0  0  0  0  0  0  0  0
  -24.5920  -15.8760   20.4060 H   0  0  0  0  0  0  0  0  0  0  0  0
  -26.2060  -15.6540   19.9520 H   0  0  0  0  0  0  0  0  0  0  0  0
  -28.2140  -17.0550   18.2470 C   0  0  0  0  0  1  0  0  0  0  0  0
  -29.3900  -16.0870   18.5030 C   0  0  0  0  0  2  0  0  0  0  0  0
  -28.1270  -25.0990   20.1000 C   0  0  0  0  0  2  0  0  0  0  0  0
  -28.3220  -26.5660   20.1020 O   0  0  0  0  0  0  0  0  0  0  0  0
  -24.5620  -31.8650   23.1880 C   0  0  0  0  0  0  0  0  0  0  0  0
  -27.1840  -27.3860   20.0520 C   0  0  0  0  0  0  0  0  0  0  0  0
  -23.3520  -30.4970   21.5230 C   0  0  0  0  0  3  0  0  0  0  0  0
  -24.8040  -28.9730   20.0690 C   0  0  0  0  0  0  0  0  0  0  0  0
  -25.8850  -30.8330   21.3290 C   0  0  0  0  0  2  0  0  0  0  0  0
  -25.9700  -29.4630   20.6660 C   0  0  0  0  0  0  0  0  0  0  0  0
  -27.1640  -28.6840   20.6420 C   0  0  0  0  0  3  0  0  0  0  0  0
  -25.9930  -26.9430   19.4300 C   0  0  0  0  0  3  0  0  0  0  0  0
  -24.8150  -27.7160   19.4410 C   0  0  0  0  0  3  0  0  0  0  0  0
  -23.5630  -29.8390   20.1320 C   0  0  0  0  0  2  0  0  0  0  0  0
  -24.6190  -31.0800   22.0730 N   0  0  0  0  0  0  0  0  0  0  0  0
  -23.4800  -32.1320   23.7310 O   0  0  0  0  0  0  0  0  0  0  0  0
  -22.6900  -29.4660   22.4660 C   0  0  0  0  0  0  0  0  0  0  0  0
  -21.3650  -29.2870   22.3330 N   0  0  0  0  0  0  0  0  0  0  0  0
  -23.3680  -28.8300   23.2820 O   0  0  0  0  0  0  0  0  0  0  0  0
  -20.8770  -29.8520   21.6510 H   0  0  0  0  0  0  0  0  0  0  0  0
  -17.9910  -28.0660   22.7930 C   0  0  0  0  0  0  0  0  0  0  0  0
  -20.5460  -28.3350   23.0860 C   0  0  0  0  0  3  0  0  0  0  0  0
  -20.6610  -26.9110   22.4930 C   0  0  0  0  0  2  0  0  0  0  0  0
  -19.5690  -26.5950   21.4660 C   0  0  0  0  0  2  0  0  0  0  0  0
  -18.1810  -26.7260   22.1010 C   0  0  0  0  0  2  0  0  0  0  0  0
  -19.1020  -28.8280   23.2410 C   0  0  0  0  0  0  0  0  0  0  0  0
  -18.8720  -30.0820   23.8470 C   0  0  0  0  0  3  0  0  0  0  0  0
  -17.5640  -30.5770   24.0080 C   0  0  0  0  0  3  0  0  0  0  0  0
  -16.4660  -29.8090   23.5780 C   0  0  0  0  0  3  0  0  0  0  0  0
  -16.6810  -28.5560   22.9770 C   0  0  0  0  0  3  0  0  0  0  0  0
  -25.8470  -32.4850   23.8200 C   0  0  0  0  0  3  0  0  0  0  0  0
  -26.3570  -31.6950   25.0860 C   0  0  1  0  0  0  0  0  0  0  0  0
  -25.2620  -31.4470   26.1500 C   0  0  0  0  0  1  0  0  0  0  0  0
  -26.9330  -30.3200   24.6740 C   0  0  0  0  0  1  0  0  0  0  0  0
  -27.5150  -32.4720   25.7600 C   0  0  0  0  0  1  0  0  0  0  0  0
  -25.5470  -33.8820   24.1640 N   0  0  0  0  0  0  0  0  0  0  0  0
  -25.8760  -34.9390   23.4090 C   0  0  0  0  0  0  0  0  0  0  0  0
  -26.5330  -34.8410   22.3700 O   0  0  0  0  0  0  0  0  0  0  0  0
  -24.9690  -34.0340   24.9770 H   0  0  0  0  0  0  0  0  0  0  0  0
  -24.1510  -36.7410   23.0860 C   0  0  0  0  0  1  0  0  0  0  0  0
  -25.3990  -36.3270   23.8820 C   0  0  0  0  0  3  0  0  0  0  0  0
  -27.5420  -37.1990   24.7030 C   0  0  0  0  0  1  0  0  0  0  0  0
  -26.4350  -37.3760   23.7680 N   0  0  0  0  0  0  0  0  0  0  0  0
  -26.0330  -38.2970   23.9240 H   0  0  0  0  0  0  0  0  0  0  0  0
  1  2  1  0
  1  7  2  0
  3  2  1  0
  4  6  1  0
  5 53  1  0
  5  4  1  0
  5  3  1  0
  6  1  1  0
  8 12  1  0
 10  8  2  0
 10 13  1  0
 11  9  1  0
 12  6  1  0
 12  9  2  0
 13 11  2  0
 15 20  1  0
 16 17  1  0
 16 15  1  0
 18 17  1  0
 18 26  1  0
 18 19  1  0
 20 14  1  0
 20 19  1  0
 21 14  2  0
 22 14  1  0
 22 13  1  0
 23 24  2  0
 24 43  1  0
 25 24  1  0
 25 28  1  0
 26 23  1  0
 26 27  1  0
 27 25  2  0
 28 29  1  0
 29 30  2  0
 31 34  1  0
 31 30  1  0
 32 31  2  0
 33 32  1  0
 33 28  2  0
 34 35  1  0
 35 36  1  0
 36 37  2  0
 38 37  1  0
 38 42  1  0
 39 38  2  0
 40 35  2  0
 40 39  1  0
 41 40  1  0
 43 44  1  0
 44 47  1  0
 44 46  1  0
 45 43  2  0
 48 49  1  0
 48 23  1  0
 50 48  1  0
 51 52  1  0
 52 22  1  0
 53 54  1  0
 55 66  2  0
 56 54  1  0
 56 61  1  0
 57 65  1  0
 57 67  1  0
 58 64  1  0
 58 60  1  0
 59 65  1  0
 60 59  1  0
 61 60  2  0
 62 63  1  0
 62 56  2  0
 63 58  2  0
 64 57  1  0
 65 55  1  0
 67 69  2  0
 68 67  1  0
 70 68  1  0
 71 80  2  0
 71 76  1  0
 72 68  1  0
 72 76  1  0
 73 72  1  0
 74 75  1  0
 74 73  1  0
 75 71  1  0
 76 77  2  0
 77 78  1  0
 79 78  2  0
 80 79  1  0
 81 55  1  0
 81 86  1  0
 81 82  1  0
 82 85  1  1
 82 83  1  0
 84 82  1  0
 86 89  1  0
 87 91  1  0
 87 86  1  0
 88 87  2  0
 91 90  1  0
 93 91  1  0
 93 94  1  0
 93 92  1  0
M  ISO  4  14 100  22 100  53 101  54 101
M  END
>  <TORSDO>  (1) 
F 19

>  <SCORE>  (1) 
-12.263

>  <name>  (1) 
0

>  <ligand_id>  (1) 
0

>  <original_smiles>  (1) 
[H]c1c([H])c([H])c2c(c1[H])C([H])([H])C([H])([H])C([H])([H])C2([H])N([H])C(=O)C1([H])N(C(=O)C([H])(N([H])C(=O)C([H])(N([H])C([H])([H])[H])C([H])([H])[H])C(C([H])([H])[H])(C([H])([H])[H])C([H])([H])[H])C([H])([H])c2c([H])c(OC([H])([H])C3([H])C([H])([H])N(c4c([H])c([H])c(N(C(=O)N5C([H])([H])C([H])([H])C([H])([H])C([H])(n6nc(-c7c([H])c([H])c(Oc8c([H])c([H])c(F)c([H])c8F)c([H])c7[H])c(C(=O)N([H])[H])c6N([H])[H])C5([H])[H])C([H])([H])C([H])([H])[H])c([H])c4[H])C(=O)C([H])([H])C3([H])[H])c([H])c([H])c2C1([H])[H]

>  <smiles>  (1) 
[H]c1c([H])c([H])c2c(c1[H])C([H])([H])C([H])([H])C([H])([H])C2([H])N([H])C(=O)C1([H])N(C(=O)C([H])(N([H])C(=O)C([H])(N([H])C([H])([H])[H])C([H])([H])[H])C(C([H])([H])[H])(C([H])([H])[H])C([H])([H])[H])C([H])([H])c2c([H])c(OC([H])([H])C3([H])C([H])([H])N(c4c([H])c([H])c(N(C(=O)N5C([H])([H])C([H])([H])C([H])([H])C([H])(n6nc(-c7c([H])c([H])c(Oc8c([H])c([H])c(F)c([H])c8F)c([H])c7[H])c(C(=O)N([H])[H])c6N([H])[H])C5([H])[H])C([H])([H])C([H])([H])[H])c([H])c4[H])C(=O)C([H])([H])C3([H])[H])c([H])c([H])c2C1([H])[H]

$$$$
1:0:0
     RDKit          3D

 93101  0  0  1  0  0  0  0  0999 V2000
  -28.5590  -19.4280   20.0890 C   0  0  0  0  0  3  0  0  0  0  0  0
  -30.8180  -20.3000   20.1040 C   0  0  0  0  0  3  0  0  0  0  0  0
  -29.0230  -18.1870   20.6000 C   0  0  0  0  0  0  0  0  0  0  0  0
  -30.4130  -17.9720   20.8140 C   0  0  0  0  0  0  0  0  0  0  0  0
  -29.4470  -20.4980   19.8430 C   0  0  0  0  0  0  0  0  0  0  0  0
  -31.2970  -19.0540   20.5740 C   0  0  0  0  0  0  0  0  0  0  0  0
  -28.0010  -17.1190   20.9500 C   0  0  0  0  0  1  0  0  0  0  0  0
  -32.6230  -18.9140   20.8140 F   0  0  0  0  0  0  0  0  0  0  0  0
  -28.9750  -21.7250   19.3290 N   0  0  0  0  0  0  0  0  0  0  0  0
  -28.1220  -21.6130   18.7820 H   0  0  0  0  0  0  0  0  0  0  0  0
  -28.8420  -22.8090   20.3120 C   0  0  0  0  0  2  0  0  0  0  0  0
  -28.6820  -24.2230   19.6760 C   0  0  0  0  0  2  0  0  0  0  0  0
  -28.4420  -25.3430   20.7270 C   0  0  0  0  0  2  0  0  0  0  0  0
  -28.5170  -26.6890   20.2150 O   0  0  0  0  0  0  0  0  0  0  0  0
  -24.6960  -31.9370   23.1980 C   0  0  0  0  0  0  0  0  0  0  0  0
  -27.3470  -27.4220   20.2200 C   0  0  0  0  0  0  0  0  0  0  0  0
  -23.4950  -30.5080   21.5740 C   0  0  0  0  0  3  0  0  0  0  0  0
  -24.9540  -28.9360   20.1880 C   0  0  0  0  0  0  0  0  0  0  0  0
  -26.0210  -30.8550   21.3820 C   0  0  0  0  0  2  0  0  0  0  0  0
  -26.1090  -29.4690   20.7730 C   0  0  0  0  0  0  0  0  0  0  0  0
  -27.3120  -28.7200   20.7820 C   0  0  0  0  0  3  0  0  0  0  0  0
  -26.1770  -26.9010   19.6310 C   0  0  0  0  0  3  0  0  0  0  0  0
  -24.9850  -27.6530   19.6110 C   0  0  0  0  0  3  0  0  0  0  0  0
  -23.7110  -29.7980   20.2090 C   0  0  0  0  0  2  0  0  0  0  0  0
  -24.7550  -31.1160   22.1110 N   0  0  0  0  0  0  0  0  0  0  0  0
  -23.6120  -32.2230   23.7280 O   0  0  0  0  0  0  0  0  0  0  0  0
  -22.8340  -29.5100   22.5510 C   0  0  0  0  0  0  0  0  0  0  0  0
  -21.5090  -29.3310   22.4210 N   0  0  0  0  0  0  0  0  0  0  0  0
  -23.5120  -28.8950   23.3790 O   0  0  0  0  0  0  0  0  0  0  0  0
  -21.0270  -29.8820   21.7260 H   0  0  0  0  0  0  0  0  0  0  0  0
  -18.1270  -28.1610   22.9210 C   0  0  0  0  0  0  0  0  0  0  0  0
  -20.6860  -28.4070   23.2000 C   0  0  0  0  0  3  0  0  0  0  0  0
  -20.7820  -26.9690   22.6400 C   0  0  0  0  0  2  0  0  0  0  0  0
  -19.6810  -26.6410   21.6250 C   0  0  0  0  0  2  0  0  0  0  0  0
  -18.2980  -26.8030   22.2630 C   0  0  0  0  0  2  0  0  0  0  0  0
  -19.2500  -28.9210   23.3460 C   0  0  0  0  0  0  0  0  0  0  0  0
  -19.0360  -30.1950   23.9180 C   0  0  0  0  0  3  0  0  0  0  0  0
  -17.7340  -30.7060   24.0700 C   0  0  0  0  0  3  0  0  0  0  0  0
  -16.6260  -29.9440   23.6630 C   0  0  0  0  0  3  0  0  0  0  0  0
  -16.8250  -28.6730   23.0940 C   0  0  0  0  0  3  0  0  0  0  0  0
  -25.9800  -32.5750   23.8140 C   0  0  0  0  0  3  0  0  0  0  0  0
  -25.6530  -33.9600   24.1820 N   0  0  0  0  0  0  0  0  0  0  0  0
  -25.9400  -35.0330   23.4330 C   0  0  0  0  0  0  0  0  0  0  0  0
  -26.5800  -34.9650   22.3800 O   0  0  0  0  0  0  0  0  0  0  0  0
  -25.0820  -34.0850   25.0040 H   0  0  0  0  0  0  0  0  0  0  0  0
  -24.1590  -36.7910   23.1730 C   0  0  0  0  0  1  0  0  0  0  0  0
  -25.4380  -36.4020   23.9320 C   0  0  0  0  0  3  0  0  0  0  0  0
  -27.5740  -37.3300   24.7100 C   0  0  0  0  0  1  0  0  0  0  0  0
  -26.4420  -37.4800   23.8000 N   0  0  0  0  0  0  0  0  0  0  0  0
  -26.0180  -38.3890   23.9690 H   0  0  0  0  0  0  0  0  0  0  0  0
  -26.5290  -31.7840   25.0630 C   0  0  1  0  0  0  0  0  0  0  0  0
  -25.4510  -31.4760   26.1270 C   0  0  0  0  0  1  0  0  0  0  0  0
  -27.1610  -30.4420   24.6230 C   0  0  0  0  0  1  0  0  0  0  0  0
  -27.6520  -32.5990   25.7500 C   0  0  0  0  0  1  0  0  0  0  0  0
  -30.9720  -16.6530   21.3940 C   0  0  0  0  0  2  0  0  0  0  0  0
  -30.8820  -14.4600   20.1370 C   0  0  0  0  0  0  0  0  0  0  0  0
  -30.4650  -12.3440   18.9240 C   0  0  0  0  0  2  0  0  0  0  0  0
  -29.4650  -12.5620   17.7710 C   0  0  0  0  0  2  0  0  0  0  0  0
  -28.0120  -12.4420   18.2710 C   0  0  0  0  0  2  0  0  0  0  0  0
  -27.7510  -13.2840   19.5470 C   0  0  0  0  0  3  0  0  0  0  0  0
  -28.8470  -13.0320   20.6040 C   0  0  0  0  0  2  0  0  0  0  0  0
  -30.1560  -13.3170   19.9860 N   0  0  0  0  0  0  0  0  0  0  0  0
  -31.9420  -14.6610   19.5380 O   0  0  0  0  0  0  0  0  0  0  0  0
  -30.3490  -15.3890   20.9540 N   0  0  0  0  0  0  0  0  0  0  0  0
  -29.4770  -15.1410   21.3910 H   0  0  0  0  0  0  0  0  0  0  0  0
  -25.4120  -13.9510   20.3940 C   0  0  0  0  0  0  0  0  0  0  0  0
  -24.3380  -13.2060   20.8030 C   0  0  0  0  0  0  0  0  0  0  0  0
  -24.7470  -11.8420   20.7060 C   0  0  0  0  0  0  0  0  0  0  0  0
  -26.4120  -13.0420   20.0840 N   0  0  0  0  0  0  0  0  0  0  0  0
  -26.0160  -11.7660   20.3250 N   0  0  0  0  0  0  0  0  0  0  0  0
  -23.9860  -10.6010   20.8970 C   0  0  0  0  0  0  0  0  0  0  0  0
  -24.3740   -9.6340   21.8490 C   0  0  0  0  0  3  0  0  0  0  0  0
  -23.6160   -8.4560   22.0250 C   0  0  0  0  0  3  0  0  0  0  0  0
  -22.4540   -8.2390   21.2470 C   0  0  0  0  0  0  0  0  0  0  0  0
  -22.0830   -9.1950   20.2840 C   0  0  0  0  0  3  0  0  0  0  0  0
  -22.8420  -10.3640   20.1080 C   0  0  0  0  0  3  0  0  0  0  0  0
  -21.6680   -7.1150   21.3300 O   0  0  0  0  0  0  0  0  0  0  0  0
  -21.5140   -6.4320   22.5080 C   0  0  0  0  0  0  0  0  0  0  0  0
  -20.9570   -7.0410   23.6550 C   0  0  0  0  0  3  0  0  0  0  0  0
  -20.7530   -6.2830   24.8260 C   0  0  0  0  0  3  0  0  0  0  0  0
  -21.0950   -4.9180   24.8500 C   0  0  0  0  0  0  0  0  0  0  0  0
  -21.6450   -4.3090   23.7080 C   0  0  0  0  0  3  0  0  0  0  0  0
  -21.8510   -5.0640   22.5400 C   0  0  0  0  0  0  0  0  0  0  0  0
  -22.3620   -4.4680   21.4360 F   0  0  0  0  0  0  0  0  0  0  0  0
  -20.8920   -4.1880   25.9720 F   0  0  0  0  0  0  0  0  0  0  0  0
  -22.9770  -13.7270   21.1640 C   0  0  0  0  0  0  0  0  0  0  0  0
  -22.2640  -13.0280   22.0400 N   0  0  0  0  0  0  0  0  0  0  0  0
  -22.5570  -14.7880   20.7050 O   0  0  0  0  0  0  0  0  0  0  0  0
  -22.6150  -12.1650   22.4290 H   0  0  0  0  0  0  0  0  0  0  0  0
  -21.3530  -13.3610   22.3220 H   0  0  0  0  0  0  0  0  0  0  0  0
  -25.6060  -15.3160   20.2380 N   0  0  0  0  0  0  0  0  0  0  0  0
  -24.8610  -15.9860   20.3930 H   0  0  0  0  0  0  0  0  0  0  0  0
  -26.4290  -15.7280   19.8190 H   0  0  0  0  0  0  0  0  0  0  0  0
  1  3  1  0
  2  6  2  0
  3  4  2  0
  3  7  1  0
  4 55  1  0
  5  1  2  0
  5  2  1  0
  6  8  1  0
  6  4  1  0
  9  5  1  0
  9 11  1  0
 10  9  1  0
 12 11  1  0
 12 13  1  0
 14 16  1  0
 14 13  1  0
 15 26  2  0
 16 21  1  0
 17 25  1  0
 17 27  1  0
 18 24  1  0
 18 20  1  0
 19 25  1  0
 20 21  2  0
 20 19  1  0
 22 16  2  0
 23 22  1  0
 23 18  2  0
 24 17  1  0
 25 15  1  0
 27 29  2  0
 28 27  1  0
 30 28  1  0
 31 40  2  0
 31 36  1  0
 32 28  1  0
 32 36  1  0
 33 32  1  0
 34 35  1  0
 34 33  1  0
 35 31  1  0
 36 37  2  0
 37 38  1  0
 39 38  2  0
 40 39  1  0
 41 15  1  0
 41 42  1  0
 41 51  1  0
 42 45  1  0
 43 47  1  0
 43 42  1  0
 44 43  2  0
 47 46  1  0
 49 47  1  0
 49 50  1  0
 49 48  1  0
 51 54  1  1
 51 52  1  0
 53 51  1  0
 56 64  1  0
 57 62  1  0
 58 59  1  0
 58 57  1  0
 60 59  1  0
 60 69  1  0
 60 61  1  0
 62 56  1  0
 62 61  1  0
 63 56  2  0
 64 65  1  0
 64 55  1  0
 66 67  2  0
 67 86  1  0
 68 67  1  0
 68 71  1  0
 69 70  1  0
 69 66  1  0
 70 68  2  0
 71 72  1  0
 72 73  2  0
 74 77  1  0
 74 73  1  0
 75 74  2  0
 76 75  1  0
 76 71  2  0
 77 78  1  0
 78 83  2  0
 78 79  1  0
 79 80  2  0
 80 81  1  0
 81 85  1  0
 82 81  2  0
 83 82  1  0
 84 83  1  0
 86 87  1  0
 87 90  1  0
 87 89  1  0
 88 86  2  0
 91 92  1  0
 91 66  1  0
 93 91  1  0
M  ISO  4  13 101  14 101  56 100  64 100
M  END
>  <TORSDO>  (2) 
F 21

>  <SCORE>  (2) 
-13.067

>  <name>  (2) 
1

>  <ligand_id>  (2) 
1

>  <original_smiles>  (2) 
[H]c1c([H])c([H])c2c(c1[H])C([H])([H])C([H])([H])C([H])([H])C2([H])N([H])C(=O)C1([H])N(C(=O)C([H])(N([H])C(=O)C([H])(N([H])C([H])([H])[H])C([H])([H])[H])C(C([H])([H])[H])(C([H])([H])[H])C([H])([H])[H])C([H])([H])c2c([H])c(OC([H])([H])C([H])([H])C([H])([H])N([H])c3c([H])c(F)c(C([H])([H])N([H])C(=O)N4C([H])([H])C([H])([H])C([H])([H])C([H])(n5nc(-c6c([H])c([H])c(Oc7c([H])c([H])c(F)c([H])c7F)c([H])c6[H])c(C(=O)N([H])[H])c5N([H])[H])C4([H])[H])c(C([H])([H])[H])c3[H])c([H])c([H])c2C1([H])[H]

>  <smiles>  (2) 
[H]c1c([H])c([H])c2c(c1[H])C([H])([H])C([H])([H])C([H])([H])C2([H])N([H])C(=O)C1([H])N(C(=O)C([H])(N([H])C(=O)C([H])(N([H])C([H])([H])[H])C([H])([H])[H])C(C([H])([H])[H])(C([H])([H])[H])C([H])([H])[H])C([H])([H])c2c([H])c(OC([H])([H])C([H])([H])C([H])([H])N([H])c3c([H])c(F)c(C([H])([H])N([H])C(=O)N4C([H])([H])C([H])([H])C([H])([H])C([H])(n5nc(-c6c([H])c([H])c(Oc7c([H])c([H])c(F)c([H])c7F)c([H])c6[H])c(C(=O)N([H])[H])c5N([H])[H])C4([H])[H])c(C([H])([H])[H])c3[H])c([H])c([H])c2C1([H])[H]

$$$$
2:0:0
     RDKit          3D

 93102  0  0  1  0  0  0  0  0999 V2000
  -30.5030  -21.7840   18.3900 C   0  0  0  0  0  0  0  0  0  0  0  0
  -30.5020  -23.2540   17.9420 C   0  0  0  0  0  2  0  0  0  0  0  0
  -30.1530  -24.2450   19.0540 C   0  0  0  0  0  2  0  0  0  0  0  0
  -28.8960  -22.3810   20.1880 C   0  0  0  0  0  2  0  0  0  0  0  0
  -28.7860  -23.8850   19.6260 C   0  0  0  0  0  3  0  0  0  0  0  0
  -29.6390  -21.3420   19.3600 N   0  0  0  0  0  0  0  0  0  0  0  0
  -31.3120  -21.0490   17.8140 O   0  0  0  0  0  0  0  0  0  0  0  0
  -29.5880  -18.8470   18.7530 C   0  0  0  0  0  3  0  0  0  0  0  0
  -29.8240  -19.4490   21.0580 C   0  0  0  0  0  3  0  0  0  0  0  0
  -29.7750  -17.4650   19.0700 C   0  0  0  0  0  3  0  0  0  0  0  0
  -29.9990  -18.0640   21.3750 C   0  0  0  0  0  3  0  0  0  0  0  0
  -29.6580  -19.9000   19.7240 C   0  0  0  0  0  0  0  0  0  0  0  0
  -30.0300  -17.0200   20.3940 C   0  0  0  0  0  0  0  0  0  0  0  0
  -30.7830  -14.6140   19.9270 C   0  0  0  0  0  0  0  0  0  0  0  0
  -30.4070  -12.4480   18.7420 C   0  0  0  0  0  2  0  0  0  0  0  0
  -29.3710  -12.6490   17.6160 C   0  0  0  0  0  2  0  0  0  0  0  0
  -27.9400  -12.4720   18.1540 C   0  0  0  0  0  2  0  0  0  0  0  0
  -27.6980  -13.2730   19.4590 C   0  0  0  0  0  3  0  0  0  0  0  0
  -28.8390  -13.0510   20.4710 C   0  0  0  0  0  2  0  0  0  0  0  0
  -30.1030  -13.4200   19.8130 N   0  0  0  0  0  0  0  0  0  0  0  0
  -31.8240  -14.8020   19.2920 O   0  0  0  0  0  0  0  0  0  0  0  0
  -30.5000  -15.3200   22.1890 C   0  0  0  0  0  1  0  0  0  0  0  0
  -30.2820  -15.6000   20.7590 N   0  0  0  0  0  0  0  0  0  0  0  0
  -25.3780  -13.8430   20.4040 C   0  0  0  0  0  0  0  0  0  0  0  0
  -24.3440  -13.0560   20.8350 C   0  0  0  0  0  0  0  0  0  0  0  0
  -24.7990  -11.7060   20.7140 C   0  0  0  0  0  0  0  0  0  0  0  0
  -26.3940  -12.9720   20.0440 N   0  0  0  0  0  0  0  0  0  0  0  0
  -26.0570  -11.6810   20.2910 N   0  0  0  0  0  0  0  0  0  0  0  0
  -24.0860  -10.4380   20.9210 C   0  0  0  0  0  0  0  0  0  0  0  0
  -24.5260   -9.4850   21.8670 C   0  0  0  0  0  3  0  0  0  0  0  0
  -23.8100   -8.2840   22.0600 C   0  0  0  0  0  3  0  0  0  0  0  0
  -22.6390   -8.0270   21.3070 C   0  0  0  0  0  0  0  0  0  0  0  0
  -22.2190   -8.9680   20.3500 C   0  0  0  0  0  3  0  0  0  0  0  0
  -22.9350  -10.1600   20.1570 C   0  0  0  0  0  3  0  0  0  0  0  0
  -21.8930   -6.8780   21.4090 O   0  0  0  0  0  0  0  0  0  0  0  0
  -21.7660   -6.2060   22.5980 C   0  0  0  0  0  0  0  0  0  0  0  0
  -21.2300   -6.8250   23.7490 C   0  0  0  0  0  3  0  0  0  0  0  0
  -21.0540   -6.0770   24.9310 C   0  0  0  0  0  3  0  0  0  0  0  0
  -21.4040   -4.7130   24.9610 C   0  0  0  0  0  0  0  0  0  0  0  0
  -21.9350   -4.0960   23.8140 C   0  0  0  0  0  3  0  0  0  0  0  0
  -22.1120   -4.8400   22.6350 C   0  0  0  0  0  0  0  0  0  0  0  0
  -22.6040   -4.2370   21.5260 F   0  0  0  0  0  0  0  0  0  0  0  0
  -21.2240   -3.9920   26.0940 F   0  0  0  0  0  0  0  0  0  0  0  0
  -22.9770  -13.5230   21.2450 C   0  0  0  0  0  0  0  0  0  0  0  0
  -22.3310  -12.8030   22.1560 N   0  0  0  0  0  0  0  0  0  0  0  0
  -22.4940  -14.5590   20.7900 O   0  0  0  0  0  0  0  0  0  0  0  0
  -22.7380  -11.9640   22.5390 H   0  0  0  0  0  0  0  0  0  0  0  0
  -21.4160  -13.0930   22.4710 H   0  0  0  0  0  0  0  0  0  0  0  0
  -25.5320  -15.2200   20.2690 N   0  0  0  0  0  0  0  0  0  0  0  0
  -24.7830  -15.8680   20.4840 H   0  0  0  0  0  0  0  0  0  0  0  0
  -26.3590  -15.6760   19.9020 H   0  0  0  0  0  0  0  0  0  0  0  0
  -28.2420  -25.0320   20.5960 C   0  0  0  0  0  2  0  0  0  0  0  0
  -28.4100  -26.4560   20.2180 O   0  0  0  0  0  0  0  0  0  0  0  0
  -24.6300  -31.8600   23.1760 C   0  0  0  0  0  0  0  0  0  0  0  0
  -27.2810  -27.2830   20.1980 C   0  0  0  0  0  0  0  0  0  0  0  0
  -23.4430  -30.4350   21.5460 C   0  0  0  0  0  3  0  0  0  0  0  0
  -24.9090  -28.8700   20.1540 C   0  0  0  0  0  0  0  0  0  0  0  0
  -25.9810  -30.7680   21.3720 C   0  0  0  0  0  2  0  0  0  0  0  0
  -26.0720  -29.3800   20.7460 C   0  0  0  0  0  0  0  0  0  0  0  0
  -27.2660  -28.5990   20.7540 C   0  0  0  0  0  3  0  0  0  0  0  0
  -26.0980  -26.8170   19.5890 C   0  0  0  0  0  3  0  0  0  0  0  0
  -24.9230  -27.5920   19.5690 C   0  0  0  0  0  3  0  0  0  0  0  0
  -23.6670  -29.7390   20.1780 C   0  0  0  0  0  2  0  0  0  0  0  0
  -24.7020  -31.0390   22.0880 N   0  0  0  0  0  0  0  0  0  0  0  0
  -23.5430  -32.1430   23.7000 O   0  0  0  0  0  0  0  0  0  0  0  0
  -22.7780  -29.4300   22.5160 C   0  0  0  0  0  0  0  0  0  0  0  0
  -21.4520  -29.2610   22.3950 N   0  0  0  0  0  0  0  0  0  0  0  0
  -23.4580  -28.8020   23.3330 O   0  0  0  0  0  0  0  0  0  0  0  0
  -20.9650  -29.8130   21.7020 H   0  0  0  0  0  0  0  0  0  0  0  0
  -18.0650  -28.1110   22.9340 C   0  0  0  0  0  0  0  0  0  0  0  0
  -20.6280  -28.3380   23.1770 C   0  0  0  0  0  3  0  0  0  0  0  0
  -20.7060  -26.9040   22.6020 C   0  0  0  0  0  2  0  0  0  0  0  0
  -19.5910  -26.5940   21.6000 C   0  0  0  0  0  2  0  0  0  0  0  0
  -18.2170  -26.7590   22.2570 C   0  0  0  0  0  2  0  0  0  0  0  0
  -19.1970  -28.8590   23.3510 C   0  0  0  0  0  0  0  0  0  0  0  0
  -19.0020  -30.1240   23.9450 C   0  0  0  0  0  3  0  0  0  0  0  0
  -17.7070  -30.6440   24.1240 C   0  0  0  0  0  3  0  0  0  0  0  0
  -16.5880  -29.8920   23.7220 C   0  0  0  0  0  3  0  0  0  0  0  0
  -16.7680  -28.6280   23.1330 C   0  0  0  0  0  3  0  0  0  0  0  0
  -25.9050  -32.5080   23.7980 C   0  0  0  0  0  3  0  0  0  0  0  0
  -25.5740  -33.8970   24.1500 N   0  0  0  0  0  0  0  0  0  0  0  0
  -25.8730  -34.9650   23.3980 C   0  0  0  0  0  0  0  0  0  0  0  0
  -26.5290  -34.8850   22.3560 O   0  0  0  0  0  0  0  0  0  0  0  0
  -24.9910  -34.0300   24.9630 H   0  0  0  0  0  0  0  0  0  0  0  0
  -24.1060  -36.7270   23.0920 C   0  0  0  0  0  1  0  0  0  0  0  0
  -25.3660  -36.3380   23.8800 C   0  0  0  0  0  3  0  0  0  0  0  0
  -27.4930  -37.2540   24.6920 C   0  0  0  0  0  1  0  0  0  0  0  0
  -26.3750  -37.4130   23.7660 N   0  0  0  0  0  0  0  0  0  0  0  0
  -25.9530  -38.3220   23.9340 H   0  0  0  0  0  0  0  0  0  0  0  0
  -26.4430  -31.7280   25.0610 C   0  0  1  0  0  0  0  0  0  0  0  0
  -25.3620  -31.4510   26.1320 C   0  0  0  0  0  1  0  0  0  0  0  0
  -27.0530  -30.3690   24.6470 C   0  0  0  0  0  1  0  0  0  0  0  0
  -27.5840  -32.5360   25.7270 C   0  0  0  0  0  1  0  0  0  0  0  0
  1  6  1  0
  2  1  1  0
  2  3  1  0
  3  5  1  0
  5  4  1  0
  5 52  1  0
  6 12  1  0
  6  4  1  0
  7  1  2  0
  8 10  2  0
  8 12  1  0
  9 11  1  0
 10 13  1  0
 12  9  2  0
 13 23  1  0
 13 11  2  0
 14 23  1  0
 15 20  1  0
 16 17  1  0
 16 15  1  0
 18 17  1  0
 18 27  1  0
 18 19  1  0
 20 14  1  0
 20 19  1  0
 21 14  2  0
 23 22  1  0
 24 25  2  0
 25 44  1  0
 26 25  1  0
 26 29  1  0
 27 28  1  0
 27 24  1  0
 28 26  2  0
 29 30  1  0
 30 31  2  0
 32 35  1  0
 32 31  1  0
 33 32  2  0
 34 33  1  0
 34 29  2  0
 35 36  1  0
 36 41  2  0
 36 37  1  0
 37 38  2  0
 38 39  1  0
 39 43  1  0
 40 39  2  0
 41 40  1  0
 42 41  1  0
 44 45  1  0
 45 48  1  0
 45 47  1  0
 46 44  2  0
 49 24  1  0
 49 50  1  0
 51 49  1  0
 53 52  1  0
 54 65  2  0
 55 53  1  0
 55 60  1  0
 56 64  1  0
 56 66  1  0
 57 63  1  0
 57 59  1  0
 58 64  1  0
 59 60  2  0
 59 58  1  0
 61 55  2  0
 62 61  1  0
 62 57  2  0
 63 56  1  0
 64 54  1  0
 66 68  2  0
 67 66  1  0
 69 67  1  0
 70 79  2  0
 70 75  1  0
 71 67  1  0
 71 75  1  0
 72 71  1  0
 73 74  1  0
 73 72  1  0
 74 70  1  0
 75 76  2  0
 76 77  1  0
 78 77  2  0
 79 78  1  0
 80 54  1  0
 80 81  1  0
 80 90  1  0
 81 84  1  0
 82 86  1  0
 82 81  1  0
 83 82  2  0
 86 85  1  0
 88 86  1  0
 88 89  1  0
 88 87  1  0
 90 93  1  1
 90 91  1  0
 92 90  1  0
M  ISO  4  14 100  23 100  52 101  53 101
M  END
>  <TORSDO>  (3) 
F 18

>  <SCORE>  (3) 
-13.647

>  <name>  (3) 
2

>  <ligand_id>  (3) 
2

>  <original_smiles>  (3) 
[H]c1c([H])c([H])c2c(c1[H])C([H])([H])C([H])([H])C([H])([H])C2([H])N([H])C(=O)C1([H])N(C(=O)C([H])(N([H])C(=O)C([H])(N([H])C([H])([H])[H])C([H])([H])[H])C(C([H])([H])[H])(C([H])([H])[H])C([H])([H])[H])C([H])([H])c2c([H])c(OC([H])([H])C3([H])C([H])([H])N(c4c([H])c([H])c(N(C(=O)N5C([H])([H])C([H])([H])C([H])([H])C([H])(n6nc(-c7c([H])c([H])c(Oc8c([H])c([H])c(F)c([H])c8F)c([H])c7[H])c(C(=O)N([H])[H])c6N([H])[H])C5([H])[H])C([H])([H])[H])c([H])c4[H])C(=O)C([H])([H])C3([H])[H])c([H])c([H])c2C1([H])[H]

>  <smiles>  (3) 
[H]c1c([H])c([H])c2c(c1[H])C([H])([H])C([H])([H])C([H])([H])C2([H])N([H])C(=O)C1([H])N(C(=O)C([H])(N([H])C(=O)C([H])(N([H])C([H])([H])[H])C([H])([H])[H])C(C([H])([H])[H])(C([H])([H])[H])C([H])([H])[H])C([H])([H])c2c([H])c(OC([H])([H])C3([H])C([H])([H])N(c4c([H])c([H])c(N(C(=O)N5C([H])([H])C([H])([H])C([H])([H])C([H])(n6nc(-c7c([H])c([H])c(Oc8c([H])c([H])c(F)c([H])c8F)c([H])c7[H])c(C(=O)N([H])[H])c6N([H])[H])C5([H])[H])C([H])([H])[H])c([H])c4[H])C(=O)C([H])([H])C3([H])[H])c([H])c([H])c2C1([H])[H]

$$$$
3:0:0
     RDKit          3D

 98107  0  0  1  0  0  0  0  0999 V2000
  -30.9830  -21.6450   16.9210 C   0  0  0  0  0  2  0  0  0  0  0  0
  -29.8430  -23.2780   15.5330 C   0  0  0  0  0  0  0  0  0  0  0  0
  -29.1960  -24.6360   15.3540 C   0  0  0  0  0  2  0  0  0  0  0  0
  -28.4400  -25.1070   16.5920 C   0  0  0  0  0  2  0  0  0  0  0  0
  -29.7430  -23.5360   18.0540 C   0  0  0  0  0  2  0  0  0  0  0  0
  -29.2270  -25.0140   17.9430 C   0  0  0  0  0  3  0  0  0  0  0  0
  -30.1730  -22.8690   16.7840 N   0  0  0  0  0  0  0  0  0  0  0  0
  -30.0940  -22.6360   14.5060 O   0  0  0  0  0  0  0  0  0  0  0  0
  -28.2790  -25.5060   19.1210 C   0  0  0  0  0  2  0  0  0  0  0  0
  -28.4830  -26.6030   20.1080 O   0  0  0  0  0  0  0  0  0  0  0  0
  -24.6630  -31.9200   23.4080 C   0  0  0  0  0  0  0  0  0  0  0  0
  -27.3360  -27.3960   20.3550 C   0  0  0  0  0  0  0  0  0  0  0  0
  -23.5180  -30.5460   21.7250 C   0  0  0  0  0  3  0  0  0  0  0  0
  -24.9980  -29.0360   20.3590 C   0  0  0  0  0  0  0  0  0  0  0  0
  -26.0750  -30.8520   21.6470 C   0  0  0  0  0  2  0  0  0  0  0  0
  -26.1690  -29.4890   20.9780 C   0  0  0  0  0  0  0  0  0  0  0  0
  -27.3510  -28.6830   20.9810 C   0  0  0  0  0  3  0  0  0  0  0  0
  -26.0600  -26.9370   19.9230 C   0  0  0  0  0  3  0  0  0  0  0  0
  -24.9350  -27.7490   19.8500 C   0  0  0  0  0  3  0  0  0  0  0  0
  -23.7990  -29.9490   20.3360 C   0  0  0  0  0  2  0  0  0  0  0  0
  -24.7690  -31.1200   22.3120 N   0  0  0  0  0  0  0  0  0  0  0  0
  -23.5610  -32.1850   23.9120 O   0  0  0  0  0  0  0  0  0  0  0  0
  -22.8380  -29.4890   22.6320 C   0  0  0  0  0  0  0  0  0  0  0  0
  -21.5210  -29.2890   22.4520 N   0  0  0  0  0  0  0  0  0  0  0  0
  -23.4940  -28.8580   23.4670 O   0  0  0  0  0  0  0  0  0  0  0  0
  -21.0530  -29.8350   21.7440 H   0  0  0  0  0  0  0  0  0  0  0  0
  -18.1320  -28.0820   22.8740 C   0  0  0  0  0  0  0  0  0  0  0  0
  -20.6830  -28.3500   23.2050 C   0  0  0  0  0  3  0  0  0  0  0  0
  -20.8050  -26.9220   22.6350 C   0  0  0  0  0  2  0  0  0  0  0  0
  -19.7300  -26.5940   21.5910 C   0  0  0  0  0  2  0  0  0  0  0  0
  -18.3320  -26.7380   22.1950 C   0  0  0  0  0  2  0  0  0  0  0  0
  -19.2400  -28.8470   23.3310 C   0  0  0  0  0  0  0  0  0  0  0  0
  -19.0050  -30.1040   23.9280 C   0  0  0  0  0  3  0  0  0  0  0  0
  -17.6980  -30.6070   24.0620 C   0  0  0  0  0  3  0  0  0  0  0  0
  -16.6040  -29.8450   23.6110 C   0  0  0  0  0  3  0  0  0  0  0  0
  -16.8210  -28.5800   23.0320 C   0  0  0  0  0  3  0  0  0  0  0  0
  -25.9280  -32.5580   24.0530 C   0  0  0  0  0  3  0  0  0  0  0  0
  -25.6170  -33.9670   24.3230 N   0  0  0  0  0  0  0  0  0  0  0  0
  -25.9450  -34.9850   23.5180 C   0  0  0  0  0  0  0  0  0  0  0  0
  -26.6360  -34.8400   22.5040 O   0  0  0  0  0  0  0  0  0  0  0  0
  -25.0610  -34.1600   25.1450 H   0  0  0  0  0  0  0  0  0  0  0  0
  -24.2150  -36.7370   23.0270 C   0  0  0  0  0  1  0  0  0  0  0  0
  -25.4340  -36.3870   23.8970 C   0  0  0  0  0  3  0  0  0  0  0  0
  -27.5320  -37.3230   24.7520 C   0  0  0  0  0  1  0  0  0  0  0  0
  -26.4570  -37.4470   23.7690 N   0  0  0  0  0  0  0  0  0  0  0  0
  -26.0370  -38.3650   23.8730 H   0  0  0  0  0  0  0  0  0  0  0  0
  -26.3780  -31.8270   25.3770 C   0  0  1  0  0  0  0  0  0  0  0  0
  -25.2400  -31.6210   26.3980 C   0  0  0  0  0  1  0  0  0  0  0  0
  -26.9710  -30.4300   25.0650 C   0  0  0  0  0  1  0  0  0  0  0  0
  -27.4940  -32.6460   26.0730 C   0  0  0  0  0  1  0  0  0  0  0  0
  -31.0650  -19.6880   20.1520 C   0  0  0  0  0  3  0  0  0  0  0  0
  -31.1740  -20.7370   19.2340 C   0  0  0  0  0  3  0  0  0  0  0  0
  -29.6190  -18.4670   18.6120 C   0  0  0  0  0  3  0  0  0  0  0  0
  -30.4270  -18.4860   19.7810 C   0  0  0  0  0  0  0  0  0  0  0  0
  -30.5400  -20.6500   17.9870 C   0  0  0  0  0  0  0  0  0  0  0  0
  -29.6520  -19.5750   17.7140 C   0  0  0  0  0  0  0  0  0  0  0  0
  -32.4520  -17.1800   19.7530 C   0  0  0  0  0  1  0  0  0  0  0  0
  -31.0530  -17.2550   20.4460 C   0  0  0  0  0  3  0  0  0  0  0  0
  -30.9150  -14.7370   20.5860 C   0  0  0  0  0  0  0  0  0  0  0  0
  -30.5710  -12.5940   19.4880 C   0  0  0  0  0  2  0  0  0  0  0  0
  -29.6840  -12.7860   18.2470 C   0  0  0  0  0  2  0  0  0  0  0  0
  -28.1980  -12.6550   18.6270 C   0  0  0  0  0  2  0  0  0  0  0  0
  -27.8060  -13.4980   19.8710 C   0  0  0  0  0  3  0  0  0  0  0  0
  -28.8310  -13.3590   21.0140 C   0  0  0  0  0  2  0  0  0  0  0  0
  -30.1570  -13.6260   20.4490 N   0  0  0  0  0  0  0  0  0  0  0  0
  -32.1320  -14.6500   20.5100 O   0  0  0  0  0  0  0  0  0  0  0  0
  -30.3090  -15.9560   20.4980 N   0  0  0  0  0  0  0  0  0  0  0  0
  -29.3030  -15.9820   20.5260 H   0  0  0  0  0  0  0  0  0  0  0  0
  -25.3890  -14.0540   20.5150 C   0  0  0  0  0  0  0  0  0  0  0  0
  -24.3260  -13.2650   20.8530 C   0  0  0  0  0  0  0  0  0  0  0  0
  -24.8140  -11.9230   20.8610 C   0  0  0  0  0  0  0  0  0  0  0  0
  -26.4550  -13.1920   20.3270 N   0  0  0  0  0  0  0  0  0  0  0  0
  -26.1160  -11.9050   20.5990 N   0  0  0  0  0  0  0  0  0  0  0  0
  -24.1060  -10.6480   21.0430 C   0  0  0  0  0  0  0  0  0  0  0  0
  -24.5040   -9.7120   22.0210 C   0  0  0  0  0  3  0  0  0  0  0  0
  -23.7930   -8.5040   22.1890 C   0  0  0  0  0  3  0  0  0  0  0  0
  -22.6680   -8.2240   21.3760 C   0  0  0  0  0  0  0  0  0  0  0  0
  -22.2890   -9.1520   20.3890 C   0  0  0  0  0  3  0  0  0  0  0  0
  -23.0010  -10.3500   20.2210 C   0  0  0  0  0  3  0  0  0  0  0  0
  -21.9330   -7.0650   21.4450 O   0  0  0  0  0  0  0  0  0  0  0  0
  -21.8390   -6.3480   22.6100 C   0  0  0  0  0  0  0  0  0  0  0  0
  -21.3210   -6.9130   23.7950 C   0  0  0  0  0  3  0  0  0  0  0  0
  -21.1700   -6.1170   24.9490 C   0  0  0  0  0  3  0  0  0  0  0  0
  -21.5330   -4.7570   24.9170 C   0  0  0  0  0  0  0  0  0  0  0  0
  -22.0440   -4.1900   23.7360 C   0  0  0  0  0  3  0  0  0  0  0  0
  -22.1920   -4.9840   22.5850 C   0  0  0  0  0  0  0  0  0  0  0  0
  -22.6640   -4.4280   21.4460 F   0  0  0  0  0  0  0  0  0  0  0  0
  -21.3820   -3.9920   26.0220 F   0  0  0  0  0  0  0  0  0  0  0  0
  -22.9120  -13.7220   21.0610 C   0  0  0  0  0  0  0  0  0  0  0  0
  -22.1560  -13.0310   21.9060 N   0  0  0  0  0  0  0  0  0  0  0  0
  -22.4810  -14.7310   20.5040 O   0  0  0  0  0  0  0  0  0  0  0  0
  -22.5100  -12.2180   22.3870 H   0  0  0  0  0  0  0  0  0  0  0  0
  -21.2060  -13.3290   22.0780 H   0  0  0  0  0  0  0  0  0  0  0  0
  -25.5310  -15.4250   20.3300 N   0  0  0  0  0  0  0  0  0  0  0  0
  -24.7420  -16.0580   20.4050 H   0  0  0  0  0  0  0  0  0  0  0  0
  -26.3840  -15.8920   20.0550 H   0  0  0  0  0  0  0  0  0  0  0  0
  -27.9340  -18.6910   16.2290 C   0  0  0  0  0  1  0  0  0  0  0  0
  -28.9480  -19.6440   16.5240 O   0  0  0  0  0  0  0  0  0  0  0  0
  1 55  1  0
  2  7  1  0
  3  2  1  0
  3  4  1  0
  4  6  1  0
  6  5  1  0
  6  9  1  0
  7  1  1  0
  7  5  1  0
  8  2  2  0
  9 10  1  0
 10 12  1  0
 11 22  2  0
 12 17  1  0
 13 21  1  0
 13 23  1  0
 14 16  1  0
 15 21  1  0
 16 17  2  0
 16 15  1  0
 18 12  2  0
 19 18  1  0
 19 14  2  0
 20 14  1  0
 20 13  1  0
 21 11  1  0
 23 25  2  0
 24 23  1  0
 26 24  1  0
 27 36  2  0
 27 32  1  0
 28 24  1  0
 28 32  1  0
 29 28  1  0
 30 31  1  0
 30 29  1  0
 31 27  1  0
 32 33  2  0
 33 34  1  0
 35 34  2  0
 36 35  1  0
 37 11  1  0
 37 38  1  0
 37 47  1  0
 38 41  1  0
 39 43  1  0
 39 38  1  0
 40 39  2  0
 43 42  1  0
 45 46  1  0
 45 43  1  0
 45 44  1  0
 47 50  1  1
 47 48  1  0
 49 47  1  0
 52 51  2  0
 53 54  2  0
 54 51  1  0
 54 58  1  0
 55 52  1  0
 56 55  2  0
 56 53  1  0
 58 57  1  0
 58 67  1  0
 60 65  1  0
 61 62  1  0
 61 60  1  0
 63 62  1  0
 63 72  1  0
 63 64  1  0
 65 59  1  0
 65 64  1  0
 66 59  2  0
 67 68  1  0
 67 59  1  0
 69 70  2  0
 70 71  1  0
 70 89  1  0
 71 74  1  0
 72 69  1  0
 72 73  1  0
 73 71  2  0
 74 75  1  0
 75 76  2  0
 77 80  1  0
 77 76  1  0
 78 77  2  0
 79 78  1  0
 79 74  2  0
 80 81  1  0
 81 82  1  0
 82 83  2  0
 84 83  1  0
 84 88  1  0
 85 84  2  0
 86 81  2  0
 86 85  1  0
 87 86  1  0
 89 90  1  0
 90 93  1  0
 90 92  1  0
 91 89  2  0
 94 95  1  0
 94 69  1  0
 96 94  1  0
 97 98  1  0
 98 56  1  0
M  ISO  4   9 101  10 101  59 100  67 100
M  END
>  <TORSDO>  (4) 
F 21

>  <SCORE>  (4) 
-13.513

>  <name>  (4) 
3

>  <ligand_id>  (4) 
3

>  <original_smiles>  (4) 
[H]c1c([H])c([H])c2c(c1[H])C([H])([H])C([H])([H])C([H])([H])C2([H])N([H])C(=O)C1([H])N(C(=O)C([H])(N([H])C(=O)C([H])(N([H])C([H])([H])[H])C([H])([H])[H])C(C([H])([H])[H])(C([H])([H])[H])C([H])([H])[H])C([H])([H])c2c([H])c(OC([H])([H])C3([H])C([H])([H])N(C([H])([H])c4c([H])c([H])c(C([H])(N([H])C(=O)N5C([H])([H])C([H])([H])C([H])([H])C([H])(n6nc(-c7c([H])c([H])c(Oc8c([H])c([H])c(F)c([H])c8F)c([H])c7[H])c(C(=O)N([H])[H])c6N([H])[H])C5([H])[H])C([H])([H])[H])c([H])c4OC([H])([H])[H])C(=O)C([H])([H])C3([H])[H])c([H])c([H])c2C1([H])[H]

>  <smiles>  (4) 
[H]c1c([H])c([H])c2c(c1[H])C([H])([H])C([H])([H])C([H])([H])C2([H])N([H])C(=O)C1([H])N(C(=O)C([H])(N([H])C(=O)C([H])(N([H])C([H])([H])[H])C([H])([H])[H])C(C([H])([H])[H])(C([H])([H])[H])C([H])([H])[H])C([H])([H])c2c([H])c(OC([H])([H])C3([H])C([H])([H])N(C([H])([H])c4c([H])c([H])c(C([H])(N([H])C(=O)N5C([H])([H])C([H])([H])C([H])([H])C([H])(n6nc(-c7c([H])c([H])c(Oc8c([H])c([H])c(F)c([H])c8F)c([H])c7[H])c(C(=O)N([H])[H])c6N([H])[H])C5([H])[H])C([H])([H])[H])c([H])c4OC([H])([H])[H])C(=O)C([H])([H])C3([H])[H])c([H])c([H])c2C1([H])[H]

$$$$
4:0:0
     RDKit          3D

 92100  0  0  1  0  0  0  0  0999 V2000
  -29.8280  -18.3460   21.3960 C   0  0  0  0  0  3  0  0  0  0  0  0
  -29.6170  -19.7130   21.0600 C   0  0  0  0  0  3  0  0  0  0  0  0
  -30.3790  -17.8390   19.1310 C   0  0  0  0  0  3  0  0  0  0  0  0
  -30.2150  -17.3460   20.4530 C   0  0  0  0  0  0  0  0  0  0  0  0
  -29.7820  -20.1970   19.7400 C   0  0  0  0  0  0  0  0  0  0  0  0
  -30.1640  -19.2070   18.7690 C   0  0  0  0  0  0  0  0  0  0  0  0
  -30.3660  -15.8670   20.8970 C   0  0  0  0  0  0  0  0  0  0  0  0
  -30.0950  -15.5780   22.1020 N   0  0  0  0  0  0  0  0  0  0  0  0
  -29.7720  -16.3910   22.6100 H   0  0  0  0  0  0  0  0  0  0  0  0
  -30.9160  -14.7450   19.9330 C   0  0  0  0  0  0  0  0  0  0  0  0
  -30.5680  -12.5740   18.7540 C   0  0  0  0  0  2  0  0  0  0  0  0
  -29.5260  -12.7560   17.6250 C   0  0  0  0  0  2  0  0  0  0  0  0
  -28.0920  -12.5800   18.1600 C   0  0  0  0  0  2  0  0  0  0  0  0
  -27.8470  -13.3850   19.4620 C   0  0  0  0  0  3  0  0  0  0  0  0
  -28.9840  -13.1370   20.4720 C   0  0  0  0  0  2  0  0  0  0  0  0
  -30.2550  -13.5360   19.8360 N   0  0  0  0  0  0  0  0  0  0  0  0
  -31.9480  -14.9530   19.2850 O   0  0  0  0  0  0  0  0  0  0  0  0
  -25.5260  -13.9790   20.3950 C   0  0  0  0  0  0  0  0  0  0  0  0
  -24.4860  -13.2000   20.8250 C   0  0  0  0  0  0  0  0  0  0  0  0
  -24.9290  -11.8480   20.7050 C   0  0  0  0  0  0  0  0  0  0  0  0
  -26.5380  -13.0990   20.0410 N   0  0  0  0  0  0  0  0  0  0  0  0
  -26.1870  -11.8100   20.2850 N   0  0  0  0  0  0  0  0  0  0  0  0
  -24.2080  -10.5850   20.9100 C   0  0  0  0  0  0  0  0  0  0  0  0
  -24.6370   -9.6350   21.8620 C   0  0  0  0  0  3  0  0  0  0  0  0
  -23.9170   -8.4360   22.0520 C   0  0  0  0  0  3  0  0  0  0  0  0
  -22.7530   -8.1790   21.2910 C   0  0  0  0  0  0  0  0  0  0  0  0
  -22.3430   -9.1180   20.3280 C   0  0  0  0  0  3  0  0  0  0  0  0
  -23.0640  -10.3080   20.1350 C   0  0  0  0  0  3  0  0  0  0  0  0
  -22.0050   -7.0300   21.3880 O   0  0  0  0  0  0  0  0  0  0  0  0
  -21.8550   -6.3680   22.5800 C   0  0  0  0  0  0  0  0  0  0  0  0
  -21.2650   -6.9850   23.7060 C   0  0  0  0  0  3  0  0  0  0  0  0
  -21.0680   -6.2470   24.8890 C   0  0  0  0  0  3  0  0  0  0  0  0
  -21.4490   -4.8930   24.9480 C   0  0  0  0  0  0  0  0  0  0  0  0
  -22.0320   -4.2770   23.8270 C   0  0  0  0  0  3  0  0  0  0  0  0
  -22.2310   -5.0120   22.6450 C   0  0  0  0  0  0  0  0  0  0  0  0
  -22.7740   -4.4080   21.5610 F   0  0  0  0  0  0  0  0  0  0  0  0
  -21.2530   -4.1800   26.0820 F   0  0  0  0  0  0  0  0  0  0  0  0
  -23.1220  -13.6770   21.2350 C   0  0  0  0  0  0  0  0  0  0  0  0
  -22.4660  -12.9560   22.1380 N   0  0  0  0  0  0  0  0  0  0  0  0
  -22.6500  -14.7220   20.7900 O   0  0  0  0  0  0  0  0  0  0  0  0
  -22.8630  -12.1100   22.5190 H   0  0  0  0  0  0  0  0  0  0  0  0
  -21.5560  -13.2570   22.4550 H   0  0  0  0  0  0  0  0  0  0  0  0
  -25.6920  -15.3540   20.2550 N   0  0  0  0  0  0  0  0  0  0  0  0
  -24.9480  -16.0130   20.4570 H   0  0  0  0  0  0  0  0  0  0  0  0
  -26.5240  -15.7970   19.8880 H   0  0  0  0  0  0  0  0  0  0  0  0
  -29.5680  -20.4690   16.8010 C   0  0  0  0  0  1  0  0  0  0  0  0
  -30.3670  -19.4770   17.4310 O   0  0  0  0  0  0  0  0  0  0  0  0
  -29.6300  -21.5560   19.3840 O   0  0  0  0  0  0  0  0  0  0  0  0
  -29.0600  -22.5710   20.2710 C   0  0  0  0  0  2  0  0  0  0  0  0
  -29.0710  -24.0560   19.6860 C   0  0  0  0  0  3  0  0  0  0  0  0
  -28.3470  -25.2000   20.5170 C   0  0  0  0  0  3  0  0  0  0  0  0
  -28.4910  -26.6070   20.0830 O   0  0  0  0  0  0  0  0  0  0  0  0
  -24.7380  -31.9020   23.2390 C   0  0  0  0  0  0  0  0  0  0  0  0
  -27.3510  -27.4170   20.1050 C   0  0  0  0  0  0  0  0  0  0  0  0
  -23.5200  -30.5030   21.6070 C   0  0  0  0  0  3  0  0  0  0  0  0
  -24.9630  -28.9780   20.1480 C   0  0  0  0  0  0  0  0  0  0  0  0
  -26.0490  -30.8600   21.3780 C   0  0  0  0  0  2  0  0  0  0  0  0
  -26.1350  -29.4870   20.7230 C   0  0  0  0  0  0  0  0  0  0  0  0
  -27.3330  -28.7180   20.6900 C   0  0  0  0  0  3  0  0  0  0  0  0
  -26.1600  -26.9530   19.5080 C   0  0  0  0  0  3  0  0  0  0  0  0
  -24.9760  -27.7160   19.5310 C   0  0  0  0  0  3  0  0  0  0  0  0
  -23.7160  -29.8360   20.2200 C   0  0  0  0  0  2  0  0  0  0  0  0
  -24.7890  -31.1040   22.1320 N   0  0  0  0  0  0  0  0  0  0  0  0
  -23.6610  -32.1630   23.7950 O   0  0  0  0  0  0  0  0  0  0  0  0
  -22.8840  -29.4740   22.5710 C   0  0  0  0  0  0  0  0  0  0  0  0
  -21.5630  -29.2630   22.4450 N   0  0  0  0  0  0  0  0  0  0  0  0
  -23.5790  -28.8670   23.3890 O   0  0  0  0  0  0  0  0  0  0  0  0
  -21.0600  -29.8060   21.7560 H   0  0  0  0  0  0  0  0  0  0  0  0
  -18.2210  -27.9770   22.9380 C   0  0  0  0  0  0  0  0  0  0  0  0
  -20.7690  -28.3080   23.2180 C   0  0  0  0  0  3  0  0  0  0  0  0
  -20.9120  -26.8770   22.6500 C   0  0  0  0  0  2  0  0  0  0  0  0
  -19.8240  -26.5190   21.6330 C   0  0  0  0  0  2  0  0  0  0  0  0
  -18.4370  -26.6290   22.2710 C   0  0  0  0  0  2  0  0  0  0  0  0
  -19.3150  -28.7720   23.3680 C   0  0  0  0  0  0  0  0  0  0  0  0
  -19.0590  -30.0330   23.9510 C   0  0  0  0  0  3  0  0  0  0  0  0
  -17.7410  -30.5000   24.1070 C   0  0  0  0  0  3  0  0  0  0  0  0
  -16.6600  -29.7020   23.6940 C   0  0  0  0  0  3  0  0  0  0  0  0
  -16.9000  -28.4430   23.1150 C   0  0  0  0  0  3  0  0  0  0  0  0
  -26.0250  -32.5420   23.8440 C   0  0  0  0  0  3  0  0  0  0  0  0
  -25.7050  -33.9310   24.2000 N   0  0  0  0  0  0  0  0  0  0  0  0
  -26.0200  -35.0000   23.4570 C   0  0  0  0  0  0  0  0  0  0  0  0
  -26.6810  -34.9200   22.4160 O   0  0  0  0  0  0  0  0  0  0  0  0
  -25.1170  -34.0670   25.0090 H   0  0  0  0  0  0  0  0  0  0  0  0
  -24.2800  -36.7890   23.1400 C   0  0  0  0  0  1  0  0  0  0  0  0
  -25.5250  -36.3760   23.9420 C   0  0  0  0  0  3  0  0  0  0  0  0
  -27.6500  -37.2640   24.7950 C   0  0  0  0  0  1  0  0  0  0  0  0
  -26.5510  -37.4380   23.8490 N   0  0  0  0  0  0  0  0  0  0  0  0
  -26.1370  -38.3530   24.0080 H   0  0  0  0  0  0  0  0  0  0  0  0
  -26.5750  -31.7590   25.0990 C   0  0  1  0  0  0  0  0  0  0  0  0
  -25.5000  -31.4620   26.1690 C   0  0  0  0  0  1  0  0  0  0  0  0
  -27.2000  -30.4110   24.6710 C   0  0  0  0  0  1  0  0  0  0  0  0
  -27.7050  -32.5760   25.7710 C   0  0  0  0  0  1  0  0  0  0  0  0
  2  1  1  0
  3  4  1  0
  4  7  1  0
  4  1  2  0
  5  2  2  0
  6  3  2  0
  6  5  1  0
  7  8  2  0
  8  9  1  0
 10  7  1  0
 11 16  1  0
 12 13  1  0
 12 11  1  0
 14 13  1  0
 14 21  1  0
 14 15  1  0
 16 10  1  0
 16 15  1  0
 17 10  2  0
 18 19  2  0
 19 38  1  0
 20 19  1  0
 20 23  1  0
 21 22  1  0
 21 18  1  0
 22 20  2  0
 23 24  1  0
 24 25  2  0
 26 29  1  0
 26 25  1  0
 27 26  2  0
 28 27  1  0
 28 23  2  0
 29 30  1  0
 30 35  2  0
 30 31  1  0
 31 32  2  0
 32 33  1  0
 33 37  1  0
 34 33  2  0
 35 34  1  0
 36 35  1  0
 38 39  1  0
 39 42  1  0
 39 41  1  0
 40 38  2  0
 43 18  1  0
 43 44  1  0
 45 43  1  0
 46 47  1  0
 47  6  1  0
 48  5  1  0
 48 49  1  0
 50 49  1  0
 50 51  2  0
 52 54  1  0
 52 51  1  0
 53 64  2  0
 54 59  1  0
 55 63  1  0
 55 65  1  0
 56 62  1  0
 56 58  1  0
 57 63  1  0
 58 57  1  0
 59 58  2  0
 60 61  1  0
 60 54  2  0
 61 56  2  0
 62 55  1  0
 63 53  1  0
 65 67  2  0
 66 65  1  0
 68 66  1  0
 69 78  2  0
 69 74  1  0
 70 66  1  0
 70 74  1  0
 71 70  1  0
 72 73  1  0
 72 71  1  0
 73 69  1  0
 74 75  2  0
 75 76  1  0
 77 76  2  0
 78 77  1  0
 79 53  1  0
 79 80  1  0
 79 89  1  0
 80 83  1  0
 81 85  1  0
 81 80  1  0
 82 81  2  0
 85 84  1  0
 87 85  1  0
 87 88  1  0
 87 86  1  0
 89 92  1  1
 89 90  1  0
 91 89  1  0
M  ISO  4   7 100  10 100  51 101  52 101
M  END
>  <TORSDO>  (5) 
F 22

>  <SCORE>  (5) 
-12.368

>  <name>  (5) 
4

>  <ligand_id>  (5) 
4

>  <original_smiles>  (5) 
[H]N=C(C(=O)N1C([H])([H])C([H])([H])C([H])([H])C([H])(n2nc(-c3c([H])c([H])c(Oc4c([H])c([H])c(F)c([H])c4F)c([H])c3[H])c(C(=O)N([H])[H])c2N([H])[H])C1([H])[H])c1c([H])c([H])c(OC([H])([H])C([H])([H])C([H])([H])Oc2c([H])c([H])c3c(c2[H])C([H])([H])N(C(=O)C([H])(N([H])C(=O)C([H])(N([H])C([H])([H])[H])C([H])([H])[H])C(C([H])([H])[H])(C([H])([H])[H])C([H])([H])[H])C([H])(C(=O)N([H])C2([H])c4c([H])c([H])c([H])c([H])c4C([H])([H])C([H])([H])C2([H])[H])C3([H])[H])c(OC([H])([H])[H])c1[H]

>  <smiles>  (5) 
[H]N=C(C(=O)N1C([H])([H])C([H])([H])C([H])([H])C([H])(n2nc(-c3c([H])c([H])c(Oc4c([H])c([H])c(F)c([H])c4F)c([H])c3[H])c(C(=O)N([H])[H])c2N([H])[H])C1([H])[H])c1c([H])c([H])c(OC([H])([H])C([H])([H])C([H])([H])Oc2c([H])c([H])c3c(c2[H])C([H])([H])N(C(=O)C([H])(N([H])C(=O)C([H])(N([H])C([H])([H])[H])C([H])([H])[H])C(C([H])([H])[H])(C([H])([H])[H])C([H])([H])[H])C([H])(C(=O)N([H])C2([H])c4c([H])c([H])c([H])c([H])c4C([H])([H])C([H])([H])C2([H])[H])C3([H])[H])c(OC([H])([H])[H])c1[H]

$$$$
5:0:0
     RDKit          3D

 94102  0  0  1  0  0  0  0  0999 V2000
  -29.7090  -19.4300   22.5060 C   0  0  0  0  0  3  0  0  0  0  0  0
  -29.4750  -20.6290   21.8140 C   0  0  0  0  0  3  0  0  0  0  0  0
  -30.3110  -19.5970   19.7870 C   0  0  0  0  0  3  0  0  0  0  0  0
  -30.5140  -18.3530   20.4590 C   0  0  0  0  0  0  0  0  0  0  0  0
  -30.2420  -18.2960   21.8590 C   0  0  0  0  0  0  0  0  0  0  0  0
  -29.7820  -20.7420   20.4390 C   0  0  0  0  0  0  0  0  0  0  0  0
  -30.5580  -17.0920   22.7380 C   0  0  0  0  0  1  0  0  0  0  0  0
  -31.3230  -14.8040   19.3920 C   0  0  0  0  0  0  0  0  0  0  0  0
  -30.8210  -12.5970   18.4190 C   0  0  0  0  0  2  0  0  0  0  0  0
  -29.7330  -12.7940   17.3450 C   0  0  0  0  0  2  0  0  0  0  0  0
  -28.3360  -12.6610   17.9800 C   0  0  0  0  0  2  0  0  0  0  0  0
  -28.1780  -13.5230   19.2610 C   0  0  0  0  0  3  0  0  0  0  0  0
  -29.3870  -13.3580   20.2140 C   0  0  0  0  0  2  0  0  0  0  0  0
  -30.6150  -13.6360   19.4500 N   0  0  0  0  0  0  0  0  0  0  0  0
  -32.3900  -14.8530   18.7720 O   0  0  0  0  0  0  0  0  0  0  0  0
  -31.1350  -17.2060   19.6720 C   0  0  0  0  0  0  0  0  0  0  0  0
  -30.7490  -15.9220   19.9160 N   0  0  0  0  0  0  0  0  0  0  0  0
  -31.9270  -17.5300   18.7760 O   0  0  0  0  0  0  0  0  0  0  0  0
  -29.9710  -15.7950   20.5420 H   0  0  0  0  0  0  0  0  0  0  0  0
  -25.9830  -14.1380   20.4500 C   0  0  0  0  0  0  0  0  0  0  0  0
  -24.9470  -13.3700   20.9160 C   0  0  0  0  0  0  0  0  0  0  0  0
  -25.3100  -12.0140   20.6520 C   0  0  0  0  0  0  0  0  0  0  0  0
  -26.9140  -13.2460   19.9400 N   0  0  0  0  0  0  0  0  0  0  0  0
  -26.5230  -11.9570   20.1160 N   0  0  0  0  0  0  0  0  0  0  0  0
  -24.5470  -10.7690   20.8230 C   0  0  0  0  0  0  0  0  0  0  0  0
  -24.9760   -9.7550   21.7070 C   0  0  0  0  0  3  0  0  0  0  0  0
  -24.2120   -8.5770   21.8680 C   0  0  0  0  0  3  0  0  0  0  0  0
  -23.0070   -8.4080   21.1470 C   0  0  0  0  0  0  0  0  0  0  0  0
  -22.6000   -9.4090   20.2490 C   0  0  0  0  0  3  0  0  0  0  0  0
  -23.3630  -10.5790   20.0850 C   0  0  0  0  0  3  0  0  0  0  0  0
  -22.2170   -7.2860   21.2190 O   0  0  0  0  0  0  0  0  0  0  0  0
  -22.0240   -6.6170   22.4010 C   0  0  0  0  0  0  0  0  0  0  0  0
  -21.4690   -7.2530   23.5340 C   0  0  0  0  0  3  0  0  0  0  0  0
  -21.2220   -6.5130   24.7070 C   0  0  0  0  0  3  0  0  0  0  0  0
  -21.5220   -5.1380   24.7490 C   0  0  0  0  0  0  0  0  0  0  0  0
  -22.0710   -4.5010   23.6210 C   0  0  0  0  0  3  0  0  0  0  0  0
  -22.3180   -5.2390   22.4510 C   0  0  0  0  0  0  0  0  0  0  0  0
  -22.8270   -4.6180   21.3600 F   0  0  0  0  0  0  0  0  0  0  0  0
  -21.2770   -4.4230   25.8730 F   0  0  0  0  0  0  0  0  0  0  0  0
  -23.6530  -13.8710   21.4850 C   0  0  0  0  0  0  0  0  0  0  0  0
  -23.0500  -13.1150   22.3980 N   0  0  0  0  0  0  0  0  0  0  0  0
  -23.1900  -14.9620   21.1560 O   0  0  0  0  0  0  0  0  0  0  0  0
  -23.4420  -12.2310   22.6840 H   0  0  0  0  0  0  0  0  0  0  0  0
  -22.1860  -13.4260   22.8200 H   0  0  0  0  0  0  0  0  0  0  0  0
  -26.2020  -15.5100   20.3970 N   0  0  0  0  0  0  0  0  0  0  0  0
  -25.5010  -16.1840   20.6860 H   0  0  0  0  0  0  0  0  0  0  0  0
  -27.0050  -15.9410   19.9540 H   0  0  0  0  0  0  0  0  0  0  0  0
  -28.8210  -23.0320   19.9880 C   0  0  0  0  0  0  0  0  0  0  0  0
  -29.6410  -21.9850   19.7260 N   0  0  0  0  0  0  0  0  0  0  0  0
  -27.9160  -22.9760   20.8270 O   0  0  0  0  0  0  0  0  0  0  0  0
  -30.2470  -22.1110   18.9270 H   0  0  0  0  0  0  0  0  0  0  0  0
  -28.9860  -24.3320   19.1600 C   0  0  0  0  0  2  0  0  0  0  0  0
  -28.6010  -25.6080   19.9670 C   0  0  0  0  0  2  0  0  0  0  0  0
  -28.5650  -26.8450   19.2260 O   0  0  0  0  0  0  0  0  0  0  0  0
  -24.6270  -31.4930   22.9530 C   0  0  0  0  0  0  0  0  0  0  0  0
  -27.3780  -27.5360   19.3460 C   0  0  0  0  0  0  0  0  0  0  0  0
  -23.4290  -30.1840   21.2290 C   0  0  0  0  0  3  0  0  0  0  0  0
  -24.9030  -28.8830   19.6030 C   0  0  0  0  0  0  0  0  0  0  0  0
  -25.9180  -30.7130   20.9690 C   0  0  0  0  0  2  0  0  0  0  0  0
  -26.0550  -29.4170   20.1950 C   0  0  0  0  0  0  0  0  0  0  0  0
  -27.2970  -28.7500   20.0660 C   0  0  0  0  0  3  0  0  0  0  0  0
  -26.2110  -27.0200   18.7450 C   0  0  0  0  0  3  0  0  0  0  0  0
  -24.9760  -27.6830   18.8750 C   0  0  0  0  0  3  0  0  0  0  0  0
  -23.6160  -29.6540   19.7830 C   0  0  0  0  0  2  0  0  0  0  0  0
  -24.6770  -30.8100   21.7760 N   0  0  0  0  0  0  0  0  0  0  0  0
  -23.5580  -31.6440   23.5620 O   0  0  0  0  0  0  0  0  0  0  0  0
  -22.8850  -29.0370   22.1120 C   0  0  0  0  0  0  0  0  0  0  0  0
  -21.5800  -28.7550   21.9870 N   0  0  0  0  0  0  0  0  0  0  0  0
  -23.6330  -28.4100   22.8670 O   0  0  0  0  0  0  0  0  0  0  0  0
  -21.0420  -29.3300   21.3540 H   0  0  0  0  0  0  0  0  0  0  0  0
  -18.3350  -27.2080   22.3880 C   0  0  0  0  0  0  0  0  0  0  0  0
  -20.8580  -27.6880   22.6820 C   0  0  0  0  0  3  0  0  0  0  0  0
  -21.0910  -26.3200   21.9960 C   0  0  0  0  0  2  0  0  0  0  0  0
  -20.0180  -25.9680   20.9630 C   0  0  0  0  0  2  0  0  0  0  0  0
  -18.6320  -25.9380   21.6130 C   0  0  0  0  0  2  0  0  0  0  0  0
  -19.3790  -28.0410   22.8750 C   0  0  0  0  0  0  0  0  0  0  0  0
  -19.0460  -29.2290   23.5540 C   0  0  0  0  0  3  0  0  0  0  0  0
  -17.7000  -29.5960   23.7480 C   0  0  0  0  0  3  0  0  0  0  0  0
  -16.6720  -28.7630   23.2780 C   0  0  0  0  0  3  0  0  0  0  0  0
  -16.9890  -27.5680   22.6100 C   0  0  0  0  0  3  0  0  0  0  0  0
  -25.9020  -32.1380   23.5810 C   0  0  0  0  0  3  0  0  0  0  0  0
  -26.4870  -31.3160   24.7950 C   0  0  1  0  0  0  0  0  0  0  0  0
  -25.4340  -30.9630   25.8700 C   0  0  0  0  0  1  0  0  0  0  0  0
  -27.1220  -29.9950   24.3040 C   0  0  0  0  0  1  0  0  0  0  0  0
  -27.6190  -32.1210   25.4790 C   0  0  0  0  0  1  0  0  0  0  0  0
  -25.5480  -33.5010   23.9990 N   0  0  0  0  0  0  0  0  0  0  0  0
  -25.8430  -34.6100   23.3060 C   0  0  0  0  0  0  0  0  0  0  0  0
  -26.5120  -34.5940   22.2690 O   0  0  0  0  0  0  0  0  0  0  0  0
  -24.9550  -33.5870   24.8120 H   0  0  0  0  0  0  0  0  0  0  0  0
  -24.0560  -36.3650   23.0560 C   0  0  0  0  0  1  0  0  0  0  0  0
  -25.3080  -35.9500   23.8480 C   0  0  0  0  0  3  0  0  0  0  0  0
  -27.4080  -36.8510   24.7500 C   0  0  0  0  0  1  0  0  0  0  0  0
  -26.3070  -37.0400   23.8080 N   0  0  0  0  0  0  0  0  0  0  0  0
  -25.8700  -37.9350   24.0080 H   0  0  0  0  0  0  0  0  0  0  0  0
  2  1  2  0
  3  6  2  0
  3  4  1  0
  4  5  2  0
  5  1  1  0
  5  7  1  0
  6  2  1  0
  8 14  1  0
  8 17  1  0
  9 14  1  0
 10 11  1  0
 10  9  1  0
 12 11  1  0
 12 23  1  0
 12 13  1  0
 14 13  1  0
 15  8  2  0
 16 17  1  0
 16  4  1  0
 17 19  1  0
 18 16  2  0
 20 21  2  0
 21 40  1  0
 22 25  1  0
 22 21  1  0
 23 24  1  0
 23 20  1  0
 24 22  2  0
 25 26  1  0
 26 27  2  0
 28 31  1  0
 28 27  1  0
 29 28  2  0
 30 29  1  0
 30 25  2  0
 31 32  1  0
 32 37  2  0
 32 33  1  0
 33 34  2  0
 34 35  1  0
 35 39  1  0
 36 35  2  0
 37 36  1  0
 38 37  1  0
 40 41  1  0
 41 43  1  0
 41 44  1  0
 42 40  2  0
 45 20  1  0
 45 46  1  0
 47 45  1  0
 48 50  2  0
 49 48  1  0
 49  6  1  0
 51 49  1  0
 52 53  1  0
 52 48  1  0
 54 56  1  0
 54 53  1  0
 55 66  2  0
 56 61  1  0
 57 65  1  0
 57 67  1  0
 58 64  1  0
 58 60  1  0
 59 65  1  0
 60 59  1  0
 61 60  2  0
 62 63  1  0
 62 56  2  0
 63 58  2  0
 64 57  1  0
 65 55  1  0
 67 69  2  0
 68 67  1  0
 70 68  1  0
 71 80  2  0
 71 76  1  0
 72 68  1  0
 72 76  1  0
 73 72  1  0
 74 75  1  0
 74 73  1  0
 75 71  1  0
 76 77  2  0
 77 78  1  0
 79 78  2  0
 80 79  1  0
 81 55  1  0
 81 86  1  0
 81 82  1  0
 82 85  1  1
 82 83  1  0
 84 82  1  0
 86 89  1  0
 87 91  1  0
 87 86  1  0
 88 87  2  0
 91 90  1  0
 93 91  1  0
 93 94  1  0
 93 92  1  0
M  ISO  4   8 100  17 100  53 101  54 101
M  END
>  <TORSDO>  (6) 
F 19

>  <SCORE>  (6) 
-9.536

>  <name>  (6) 
5

>  <ligand_id>  (6) 
5

>  <original_smiles>  (6) 
[H]c1c([H])c([H])c2c(c1[H])C([H])([H])C([H])([H])C([H])([H])C2([H])N([H])C(=O)C1([H])N(C(=O)C([H])(N([H])C(=O)C([H])(N([H])C([H])([H])[H])C([H])([H])[H])C(C([H])([H])[H])(C([H])([H])[H])C([H])([H])[H])C([H])([H])c2c([H])c(OC([H])([H])C([H])([H])C(=O)N([H])c3c([H])c([H])c(C([H])([H])[H])c(C(=O)N([H])C(=O)N4C([H])([H])C([H])([H])C([H])([H])C([H])(n5nc(-c6c([H])c([H])c(Oc7c([H])c([H])c(F)c([H])c7F)c([H])c6[H])c(C(=O)N([H])[H])c5N([H])[H])C4([H])[H])c3[H])c([H])c([H])c2C1([H])[H]

>  <smiles>  (6) 
[H]c1c([H])c([H])c2c(c1[H])C([H])([H])C([H])([H])C([H])([H])C2([H])N([H])C(=O)C1([H])N(C(=O)C([H])(N([H])C(=O)C([H])(N([H])C([H])([H])[H])C([H])([H])[H])C(C([H])([H])[H])(C([H])([H])[H])C([H])([H])[H])C([H])([H])c2c([H])c(OC([H])([H])C([H])([H])C(=O)N([H])c3c([H])c([H])c(C([H])([H])[H])c(C(=O)N([H])C(=O)N4C([H])([H])C([H])([H])C([H])([H])C([H])(n5nc(-c6c([H])c([H])c(Oc7c([H])c([H])c(F)c([H])c7F)c([H])c6[H])c(C(=O)N([H])[H])c5N([H])[H])C4([H])[H])c3[H])c([H])c([H])c2C1([H])[H]

$$$$
6:0:0
     RDKit          3D

 95103  0  0  1  0  0  0  0  0999 V2000
  -29.3670  -18.5540   21.1100 C   0  0  0  0  0  3  0  0  0  0  0  0
  -31.4010  -20.2950   20.2340 C   0  0  0  0  0  3  0  0  0  0  0  0
  -30.7040  -18.1000   21.0990 C   0  0  0  0  0  0  0  0  0  0  0  0
  -29.0540  -19.8750   20.7120 C   0  0  0  0  0  0  0  0  0  0  0  0
  -30.0680  -20.7580   20.2690 C   0  0  0  0  0  0  0  0  0  0  0  0
  -31.7160  -18.9820   20.6480 C   0  0  0  0  0  0  0  0  0  0  0  0
  -33.0110  -18.5830   20.6250 F   0  0  0  0  0  0  0  0  0  0  0  0
  -27.7390  -20.3340   20.7940 N   0  0  0  0  0  0  0  0  0  0  0  0
  -27.0950  -19.7380   21.3020 H   0  0  0  0  0  0  0  0  0  0  0  0
  -27.6500  -21.2930   21.1110 H   0  0  0  0  0  0  0  0  0  0  0  0
  -29.7130  -22.0550   19.8490 N   0  0  0  0  0  0  0  0  0  0  0  0
  -28.7140  -22.0700   19.6560 H   0  0  0  0  0  0  0  0  0  0  0  0
  -30.1770  -23.1920   20.6730 C   0  0  0  0  0  2  0  0  0  0  0  0
  -30.1110  -24.6440   20.0320 C   0  0  0  0  0  2  0  0  0  0  0  0
  -28.8230  -25.4860   19.7030 C   0  0  0  0  0  2  0  0  0  0  0  0
  -28.7960  -26.8380   20.2230 O   0  0  0  0  0  0  0  0  0  0  0  0
  -24.5670  -31.7330   23.2400 C   0  0  0  0  0  0  0  0  0  0  0  0
  -27.5920  -27.5260   20.1520 C   0  0  0  0  0  0  0  0  0  0  0  0
  -23.5220  -30.3260   21.4970 C   0  0  0  0  0  3  0  0  0  0  0  0
  -25.1230  -28.9260   20.0930 C   0  0  0  0  0  0  0  0  0  0  0  0
  -26.0340  -30.8230   21.4380 C   0  0  0  0  0  2  0  0  0  0  0  0
  -26.2250  -29.4810   20.7540 C   0  0  0  0  0  0  0  0  0  0  0  0
  -27.4600  -28.7880   20.7830 C   0  0  0  0  0  3  0  0  0  0  0  0
  -26.4640  -27.0000   19.4740 C   0  0  0  0  0  3  0  0  0  0  0  0
  -25.2380  -27.6860   19.4490 C   0  0  0  0  0  3  0  0  0  0  0  0
  -23.8320  -29.7120   20.1070 C   0  0  0  0  0  2  0  0  0  0  0  0
  -24.7220  -30.9740   22.1170 N   0  0  0  0  0  0  0  0  0  0  0  0
  -23.4470  -31.9270   23.7340 O   0  0  0  0  0  0  0  0  0  0  0  0
  -22.8860  -29.2360   22.3900 C   0  0  0  0  0  0  0  0  0  0  0  0
  -21.5700  -29.0220   22.2270 N   0  0  0  0  0  0  0  0  0  0  0  0
  -23.5730  -28.5880   23.1840 O   0  0  0  0  0  0  0  0  0  0  0  0
  -21.0760  -29.6020   21.5620 H   0  0  0  0  0  0  0  0  0  0  0  0
  -18.2130  -27.7410   22.6290 C   0  0  0  0  0  0  0  0  0  0  0  0
  -20.7660  -28.0230   22.9310 C   0  0  0  0  0  3  0  0  0  0  0  0
  -20.8940  -26.6330   22.2650 C   0  0  0  0  0  2  0  0  0  0  0  0
  -19.8020  -26.3610   21.2250 C   0  0  0  0  0  2  0  0  0  0  0  0
  -18.4160  -26.4400   21.8710 C   0  0  0  0  0  2  0  0  0  0  0  0
  -19.3180  -28.4920   23.1120 C   0  0  0  0  0  0  0  0  0  0  0  0
  -19.0750  -29.7110   23.7790 C   0  0  0  0  0  3  0  0  0  0  0  0
  -17.7620  -30.1800   23.9710 C   0  0  0  0  0  3  0  0  0  0  0  0
  -16.6720  -29.4230   23.5060 C   0  0  0  0  0  3  0  0  0  0  0  0
  -16.8980  -28.2070   22.8380 C   0  0  0  0  0  3  0  0  0  0  0  0
  -25.7850  -32.4100   23.9420 C   0  0  0  0  0  3  0  0  0  0  0  0
  -25.4220  -33.8090   24.2010 N   0  0  0  0  0  0  0  0  0  0  0  0
  -25.7940  -34.8450   23.4360 C   0  0  0  0  0  0  0  0  0  0  0  0
  -26.5440  -34.7240   22.4640 O   0  0  0  0  0  0  0  0  0  0  0  0
  -24.7560  -33.9740   24.9430 H   0  0  0  0  0  0  0  0  0  0  0  0
  -24.0490  -36.5750   22.8990 C   0  0  0  0  0  1  0  0  0  0  0  0
  -25.2410  -36.2340   23.8070 C   0  0  0  0  0  3  0  0  0  0  0  0
  -27.2840  -37.2130   24.7510 C   0  0  0  0  0  1  0  0  0  0  0  0
  -26.2540  -37.3100   23.7210 N   0  0  0  0  0  0  0  0  0  0  0  0
  -25.8160  -38.2240   23.7990 H   0  0  0  0  0  0  0  0  0  0  0  0
  -26.2110  -31.6890   25.2790 C   0  0  1  0  0  0  0  0  0  0  0  0
  -25.0430  -31.4700   26.2690 C   0  0  0  0  0  1  0  0  0  0  0  0
  -26.8400  -30.3080   24.9750 C   0  0  0  0  0  1  0  0  0  0  0  0
  -27.3010  -32.5190   25.9950 C   0  0  0  0  0  1  0  0  0  0  0  0
  -31.0690  -16.7300   21.6860 C   0  0  0  0  0  2  0  0  0  0  0  0
  -30.8690  -14.6860   20.2670 C   0  0  0  0  0  0  0  0  0  0  0  0
  -30.4450  -12.6550   18.9230 C   0  0  0  0  0  2  0  0  0  0  0  0
  -29.4480  -12.9730   17.7930 C   0  0  0  0  0  2  0  0  0  0  0  0
  -27.9970  -12.8110   18.2880 C   0  0  0  0  0  2  0  0  0  0  0  0
  -27.7400  -13.5470   19.6280 C   0  0  0  0  0  3  0  0  0  0  0  0
  -28.8450  -13.2270   20.6600 C   0  0  0  0  0  2  0  0  0  0  0  0
  -30.1440  -13.5560   20.0500 N   0  0  0  0  0  0  0  0  0  0  0  0
  -31.9240  -14.9240   19.6740 O   0  0  0  0  0  0  0  0  0  0  0  0
  -30.3570  -15.5600   21.1530 N   0  0  0  0  0  0  0  0  0  0  0  0
  -29.4830  -15.3040   21.5880 H   0  0  0  0  0  0  0  0  0  0  0  0
  -25.3740  -14.1200   20.4600 C   0  0  0  0  0  0  0  0  0  0  0  0
  -24.3230  -13.3310   20.8400 C   0  0  0  0  0  0  0  0  0  0  0  0
  -24.7820  -11.9820   20.7350 C   0  0  0  0  0  0  0  0  0  0  0  0
  -26.4090  -13.2510   20.1510 N   0  0  0  0  0  0  0  0  0  0  0  0
  -26.0580  -11.9580   20.3700 N   0  0  0  0  0  0  0  0  0  0  0  0
  -24.0650  -10.7130   20.9050 C   0  0  0  0  0  0  0  0  0  0  0  0
  -24.5090   -9.7280   21.8160 C   0  0  0  0  0  3  0  0  0  0  0  0
  -23.7920   -8.5230   21.9740 C   0  0  0  0  0  3  0  0  0  0  0  0
  -22.6160   -8.2930   21.2200 C   0  0  0  0  0  0  0  0  0  0  0  0
  -22.1910   -9.2660   20.2980 C   0  0  0  0  0  3  0  0  0  0  0  0
  -22.9080  -10.4630   20.1380 C   0  0  0  0  0  3  0  0  0  0  0  0
  -21.8700   -7.1410   21.2890 O   0  0  0  0  0  0  0  0  0  0  0  0
  -21.7980   -6.3970   22.4390 C   0  0  0  0  0  0  0  0  0  0  0  0
  -21.2910   -6.9370   23.6420 C   0  0  0  0  0  3  0  0  0  0  0  0
  -21.1690   -6.1180   24.7830 C   0  0  0  0  0  3  0  0  0  0  0  0
  -21.5430   -4.7620   24.7200 C   0  0  0  0  0  0  0  0  0  0  0  0
  -22.0410   -4.2230   23.5210 C   0  0  0  0  0  3  0  0  0  0  0  0
  -22.1650   -5.0380   22.3840 C   0  0  0  0  0  0  0  0  0  0  0  0
  -22.6270   -4.5090   21.2240 F   0  0  0  0  0  0  0  0  0  0  0  0
  -21.4180   -3.9730   25.8130 F   0  0  0  0  0  0  0  0  0  0  0  0
  -22.9390  -13.7930   21.1940 C   0  0  0  0  0  0  0  0  0  0  0  0
  -22.2510  -13.0600   22.0610 N   0  0  0  0  0  0  0  0  0  0  0  0
  -22.4780  -14.8400   20.7410 O   0  0  0  0  0  0  0  0  0  0  0  0
  -22.6390  -12.2120   22.4470 H   0  0  0  0  0  0  0  0  0  0  0  0
  -21.3260  -13.3490   22.3450 H   0  0  0  0  0  0  0  0  0  0  0  0
  -25.5310  -15.4970   20.3310 N   0  0  0  0  0  0  0  0  0  0  0  0
  -24.7690  -16.1450   20.5000 H   0  0  0  0  0  0  0  0  0  0  0  0
  -26.3690  -15.9520   19.9890 H   0  0  0  0  0  0  0  0  0  0  0  0
  2  5  2  0
  2  6  1  0
  3  1  1  0
  3 57  1  0
  4  8  1  0
  4  1  2  0
  5  4  1  0
  6  3  2  0
  7  6  1  0
  8 10  1  0
  8  9  1  0
 11  5  1  0
 11 13  1  0
 12 11  1  0
 14 13  1  0
 15 14  1  0
 15 16  1  0
 17 28  2  0
 18 16  1  0
 18 23  1  0
 19 27  1  0
 19 29  1  0
 20 26  1  0
 20 22  1  0
 21 27  1  0
 22 23  2  0
 22 21  1  0
 24 18  2  0
 25 24  1  0
 25 20  2  0
 26 19  1  0
 27 17  1  0
 29 31  2  0
 30 29  1  0
 32 30  1  0
 33 42  2  0
 33 38  1  0
 34 30  1  0
 34 38  1  0
 35 34  1  0
 36 37  1  0
 36 35  1  0
 37 33  1  0
 38 39  2  0
 39 40  1  0
 41 40  2  0
 42 41  1  0
 43 17  1  0
 43 44  1  0
 43 53  1  0
 44 47  1  0
 45 49  1  0
 45 44  1  0
 46 45  2  0
 49 48  1  0
 51 52  1  0
 51 49  1  0
 51 50  1  0
 53 56  1  1
 53 54  1  0
 55 53  1  0
 58 66  1  0
 59 64  1  0
 60 61  1  0
 60 59  1  0
 62 61  1  0
 62 71  1  0
 62 63  1  0
 64 58  1  0
 64 63  1  0
 65 58  2  0
 66 67  1  0
 66 57  1  0
 68 69  2  0
 69 88  1  0
 70 69  1  0
 70 73  1  0
 71 72  1  0
 71 68  1  0
 72 70  2  0
 73 74  1  0
 74 75  2  0
 76 79  1  0
 76 75  1  0
 77 76  2  0
 78 77  1  0
 78 73  2  0
 79 80  1  0
 80 81  1  0
 81 82  2  0
 83 82  1  0
 83 87  1  0
 84 83  2  0
 85 80  2  0
 85 84  1  0
 86 85  1  0
 88 89  1  0
 89 92  1  0
 89 91  1  0
 90 88  2  0
 93 68  1  0
 93 94  1  0
 95 93  1  0
M  ISO  4  15 101  16 101  58 100  66 100
M  END
>  <TORSDO>  (7) 
F 22

>  <SCORE>  (7) 
-12.945

>  <name>  (7) 
6

>  <ligand_id>  (7) 
6

>  <original_smiles>  (7) 
[H]c1c([H])c([H])c2c(c1[H])C([H])([H])C([H])([H])C([H])([H])C2([H])N([H])C(=O)C1([H])N(C(=O)C([H])(N([H])C(=O)C([H])(N([H])C([H])([H])[H])C([H])([H])[H])C(C([H])([H])[H])(C([H])([H])[H])C([H])([H])[H])C([H])([H])c2c([H])c(OC([H])([H])C([H])([H])C([H])([H])N([H])c3c([H])c(F)c(C([H])([H])N([H])C(=O)N4C([H])([H])C([H])([H])C([H])([H])C([H])(n5nc(-c6c([H])c([H])c(Oc7c([H])c([H])c(F)c([H])c7F)c([H])c6[H])c(C(=O)N([H])[H])c5N([H])[H])C4([H])[H])c([H])c3N([H])[H])c([H])c([H])c2C1([H])[H]

>  <smiles>  (7) 
[H]c1c([H])c([H])c2c(c1[H])C([H])([H])C([H])([H])C([H])([H])C2([H])N([H])C(=O)C1([H])N(C(=O)C([H])(N([H])C(=O)C([H])(N([H])C([H])([H])[H])C([H])([H])[H])C(C([H])([H])[H])(C([H])([H])[H])C([H])([H])[H])C([H])([H])c2c([H])c(OC([H])([H])C([H])([H])C([H])([H])N([H])c3c([H])c(F)c(C([H])([H])N([H])C(=O)N4C([H])([H])C([H])([H])C([H])([H])C([H])(n5nc(-c6c([H])c([H])c(Oc7c([H])c([H])c(F)c([H])c7F)c([H])c6[H])c(C(=O)N([H])[H])c5N([H])[H])C4([H])[H])c([H])c3N([H])[H])c([H])c([H])c2C1([H])[H]

$$$$
7:0:0
     RDKit          3D

 94102  0  0  1  0  0  0  0  0999 V2000
  -27.7440  -22.3580   21.7580 C   0  0  0  0  0  2  0  0  0  0  0  0
  -28.1540  -24.6010   20.7690 C   0  0  0  0  0  0  0  0  0  0  0  0
  -28.2440  -23.7320   21.7820 N   0  0  0  0  0  0  0  0  0  0  0  0
  -27.6990  -24.2750   19.6680 O   0  0  0  0  0  0  0  0  0  0  0  0
  -28.6150  -24.0670   22.6640 H   0  0  0  0  0  0  0  0  0  0  0  0
  -28.6450  -26.0380   21.0240 C   0  0  0  0  0  2  0  0  0  0  0  0
  -28.3500  -26.8960   19.9170 O   0  0  0  0  0  0  0  0  0  0  0  0
  -24.6090  -31.9370   23.2780 C   0  0  0  0  0  0  0  0  0  0  0  0
  -27.1760  -27.5940   20.0210 C   0  0  0  0  0  0  0  0  0  0  0  0
  -23.3550  -30.5580   21.6480 C   0  0  0  0  0  3  0  0  0  0  0  0
  -24.7710  -29.0550   20.1500 C   0  0  0  0  0  0  0  0  0  0  0  0
  -25.8650  -30.9430   21.3700 C   0  0  0  0  0  2  0  0  0  0  0  0
  -25.9420  -29.5810   20.7120 C   0  0  0  0  0  0  0  0  0  0  0  0
  -27.1500  -28.8550   20.6540 C   0  0  0  0  0  3  0  0  0  0  0  0
  -25.9960  -27.0720   19.4540 C   0  0  0  0  0  3  0  0  0  0  0  0
  -24.7870  -27.7930   19.5240 C   0  0  0  0  0  3  0  0  0  0  0  0
  -23.5240  -29.9030   20.2510 C   0  0  0  0  0  2  0  0  0  0  0  0
  -24.6290  -31.1600   22.1570 N   0  0  0  0  0  0  0  0  0  0  0  0
  -23.5490  -32.1950   23.8640 O   0  0  0  0  0  0  0  0  0  0  0  0
  -22.7440  -29.5180   22.6110 C   0  0  0  0  0  0  0  0  0  0  0  0
  -21.4230  -29.2990   22.4930 N   0  0  0  0  0  0  0  0  0  0  0  0
  -23.4540  -28.9080   23.4130 O   0  0  0  0  0  0  0  0  0  0  0  0
  -20.9100  -29.8520   21.8190 H   0  0  0  0  0  0  0  0  0  0  0  0
  -18.0920  -28.0010   22.9960 C   0  0  0  0  0  0  0  0  0  0  0  0
  -20.6370  -28.3430   23.2730 C   0  0  0  0  0  3  0  0  0  0  0  0
  -20.7860  -26.9100   22.7110 C   0  0  0  0  0  2  0  0  0  0  0  0
  -19.7050  -26.5500   21.6860 C   0  0  0  0  0  2  0  0  0  0  0  0
  -18.3110  -26.6580   22.3190 C   0  0  0  0  0  2  0  0  0  0  0  0
  -19.1820  -28.8020   23.4260 C   0  0  0  0  0  0  0  0  0  0  0  0
  -18.9240  -30.0600   24.0100 C   0  0  0  0  0  3  0  0  0  0  0  0
  -17.6010  -30.5210   24.1700 C   0  0  0  0  0  3  0  0  0  0  0  0
  -16.5250  -29.7140   23.7610 C   0  0  0  0  0  3  0  0  0  0  0  0
  -16.7700  -28.4580   23.1790 C   0  0  0  0  0  3  0  0  0  0  0  0
  -25.9160  -32.5600   23.8630 C   0  0  0  0  0  3  0  0  0  0  0  0
  -25.6230  -33.9570   24.2080 N   0  0  0  0  0  0  0  0  0  0  0  0
  -25.9440  -35.0100   23.4420 C   0  0  0  0  0  0  0  0  0  0  0  0
  -26.5920  -34.9080   22.3980 O   0  0  0  0  0  0  0  0  0  0  0  0
  -25.0440  -34.1110   25.0210 H   0  0  0  0  0  0  0  0  0  0  0  0
  -24.2130  -36.8070   23.1310 C   0  0  0  0  0  1  0  0  0  0  0  0
  -25.4730  -36.4000   23.9120 C   0  0  0  0  0  3  0  0  0  0  0  0
  -27.6310  -37.2760   24.6920 C   0  0  0  0  0  1  0  0  0  0  0  0
  -26.5080  -37.4490   23.7740 N   0  0  0  0  0  0  0  0  0  0  0  0
  -26.1080  -38.3700   23.9330 H   0  0  0  0  0  0  0  0  0  0  0  0
  -26.4660  -31.7810   25.1210 C   0  0  1  0  0  0  0  0  0  0  0  0
  -25.4020  -31.5390   26.2180 C   0  0  0  0  0  1  0  0  0  0  0  0
  -27.0340  -30.4060   24.7000 C   0  0  0  0  0  1  0  0  0  0  0  0
  -27.6360  -32.5700   25.7550 C   0  0  0  0  0  1  0  0  0  0  0  0
  -28.4750  -21.4580   20.7470 C   0  0  0  0  0  2  0  0  0  0  0  0
  -29.7440  -21.0250   21.2340 O   0  0  0  0  0  0  0  0  0  0  0  0
  -29.2520  -17.3870   21.0610 C   0  0  0  0  0  3  0  0  0  0  0  0
  -29.1510  -18.7130   21.4820 C   0  0  0  0  0  3  0  0  0  0  0  0
  -31.0780  -18.0040   19.5480 C   0  0  0  0  0  3  0  0  0  0  0  0
  -30.9690  -19.3500   19.9710 C   0  0  0  0  0  0  0  0  0  0  0  0
  -30.2140  -17.0230   20.1030 C   0  0  0  0  0  0  0  0  0  0  0  0
  -29.9740  -19.7110   20.9150 C   0  0  0  0  0  0  0  0  0  0  0  0
  -31.8800  -20.4100   19.3830 C   0  0  0  0  0  1  0  0  0  0  0  0
  -31.0150  -14.7030   19.7280 C   0  0  0  0  0  0  0  0  0  0  0  0
  -30.7070  -12.4650   18.8240 C   0  0  0  0  0  2  0  0  0  0  0  0
  -29.7000  -12.5880   17.6600 C   0  0  0  0  0  2  0  0  0  0  0  0
  -28.2480  -12.4730   18.1710 C   0  0  0  0  0  2  0  0  0  0  0  0
  -27.9570  -13.3980   19.3790 C   0  0  0  0  0  3  0  0  0  0  0  0
  -29.0790  -13.2770   20.4460 C   0  0  0  0  0  2  0  0  0  0  0  0
  -30.3880  -13.5060   19.7930 N   0  0  0  0  0  0  0  0  0  0  0  0
  -32.1920  -14.8820   19.3930 O   0  0  0  0  0  0  0  0  0  0  0  0
  -30.1230  -15.6890   19.6720 N   0  0  0  0  0  0  0  0  0  0  0  0
  -29.1890  -15.3200   19.7220 H   0  0  0  0  0  0  0  0  0  0  0  0
  -25.6260  -14.0610   20.2660 C   0  0  0  0  0  0  0  0  0  0  0  0
  -24.5590  -13.3060   20.6720 C   0  0  0  0  0  0  0  0  0  0  0  0
  -24.9860  -11.9480   20.5960 C   0  0  0  0  0  0  0  0  0  0  0  0
  -26.6300  -13.1570   19.9520 N   0  0  0  0  0  0  0  0  0  0  0  0
  -26.2520  -11.8800   20.2110 N   0  0  0  0  0  0  0  0  0  0  0  0
  -24.2410  -10.7000   20.8090 C   0  0  0  0  0  0  0  0  0  0  0  0
  -24.6640   -9.7420   21.7560 C   0  0  0  0  0  3  0  0  0  0  0  0
  -23.9230   -8.5570   21.9570 C   0  0  0  0  0  3  0  0  0  0  0  0
  -22.7460   -8.3200   21.2060 C   0  0  0  0  0  0  0  0  0  0  0  0
  -22.3420   -9.2660   20.2470 C   0  0  0  0  0  3  0  0  0  0  0  0
  -23.0840  -10.4430   20.0450 C   0  0  0  0  0  3  0  0  0  0  0  0
  -21.9790   -7.1840   21.3140 O   0  0  0  0  0  0  0  0  0  0  0  0
  -21.8680   -6.5010   22.4980 C   0  0  0  0  0  0  0  0  0  0  0  0
  -21.4010   -7.1230   23.6780 C   0  0  0  0  0  3  0  0  0  0  0  0
  -21.2370   -6.3640   24.8540 C   0  0  0  0  0  3  0  0  0  0  0  0
  -21.5310   -4.9860   24.8530 C   0  0  0  0  0  0  0  0  0  0  0  0
  -21.9950   -4.3670   23.6790 C   0  0  0  0  0  3  0  0  0  0  0  0
  -22.1590   -5.1220   22.5060 C   0  0  0  0  0  0  0  0  0  0  0  0
  -22.5860   -4.5150   21.3720 F   0  0  0  0  0  0  0  0  0  0  0  0
  -21.3650   -4.2590   25.9820 F   0  0  0  0  0  0  0  0  0  0  0  0
  -23.1900  -13.8120   21.0260 C   0  0  0  0  0  0  0  0  0  0  0  0
  -22.5050  -13.1360   21.9440 N   0  0  0  0  0  0  0  0  0  0  0  0
  -22.7380  -14.8410   20.5240 O   0  0  0  0  0  0  0  0  0  0  0  0
  -22.8900  -12.3060   22.3710 H   0  0  0  0  0  0  0  0  0  0  0  0
  -21.5880  -13.4560   22.2260 H   0  0  0  0  0  0  0  0  0  0  0  0
  -25.8170  -15.4300   20.1250 N   0  0  0  0  0  0  0  0  0  0  0  0
  -25.0860  -16.0970   20.3450 H   0  0  0  0  0  0  0  0  0  0  0  0
  -26.6580  -15.8760   19.7880 H   0  0  0  0  0  0  0  0  0  0  0  0
  1  3  1  0
  2  6  1  0
  2  3  1  0
  3  5  1  0
  4  2  2  0
  7  9  1  0
  7  6  1  0
  8 19  2  0
  9 14  1  0
 10 18  1  0
 10 20  1  0
 11 17  1  0
 11 13  1  0
 12 18  1  0
 13 12  1  0
 14 13  2  0
 15 16  1  0
 15  9  2  0
 16 11  2  0
 17 10  1  0
 18  8  1  0
 20 22  2  0
 21 20  1  0
 23 21  1  0
 24 33  2  0
 24 29  1  0
 25 21  1  0
 25 29  1  0
 26 25  1  0
 27 28  1  0
 27 26  1  0
 28 24  1  0
 29 30  2  0
 30 31  1  0
 32 31  2  0
 33 32  1  0
 34  8  1  0
 34 35  1  0
 34 44  1  0
 35 38  1  0
 36 40  1  0
 36 35  1  0
 37 36  2  0
 40 39  1  0
 42 40  1  0
 42 43  1  0
 42 41  1  0
 44 47  1  1
 44 45  1  0
 46 44  1  0
 48 49  1  0
 48  1  1  0
 50 51  1  0
 52 53  2  0
 52 54  1  0
 53 55  1  0
 54 50  2  0
 55 49  1  0
 55 51  2  0
 56 53  1  0
 57 63  1  0
 58 63  1  0
 59 60  1  0
 59 58  1  0
 61 60  1  0
 61 70  1  0
 61 62  1  0
 63 62  1  0
 64 57  2  0
 65 66  1  0
 65 57  1  0
 65 54  1  0
 67 68  2  0
 68 87  1  0
 69 68  1  0
 69 72  1  0
 70 71  1  0
 70 67  1  0
 71 69  2  0
 72 73  1  0
 73 74  2  0
 75 78  1  0
 75 74  1  0
 76 75  2  0
 77 76  1  0
 77 72  2  0
 78 79  1  0
 79 84  2  0
 79 80  1  0
 80 81  2  0
 82 81  1  0
 82 86  1  0
 83 82  2  0
 84 83  1  0
 85 84  1  0
 87 88  1  0
 88 91  1  0
 88 90  1  0
 89 87  2  0
 92 67  1  0
 92 93  1  0
 94 92  1  0
M  ISO  4   6 101   7 101  57 100  65 100
M  END
>  <TORSDO>  (8) 
F 21

>  <SCORE>  (8) 
-12.573

>  <name>  (8) 
7

>  <ligand_id>  (8) 
7

>  <original_smiles>  (8) 
[H]c1c([H])c([H])c2c(c1[H])C([H])([H])C([H])([H])C([H])([H])C2([H])N([H])C(=O)C1([H])N(C(=O)C([H])(N([H])C(=O)C([H])(N([H])C([H])([H])[H])C([H])([H])[H])C(C([H])([H])[H])(C([H])([H])[H])C([H])([H])[H])C([H])([H])c2c([H])c(OC([H])([H])C(=O)N([H])C([H])([H])C([H])([H])Oc3c([H])c([H])c(N([H])C(=O)N4C([H])([H])C([H])([H])C([H])([H])C([H])(n5nc(-c6c([H])c([H])c(Oc7c([H])c([H])c(F)c([H])c7F)c([H])c6[H])c(C(=O)N([H])[H])c5N([H])[H])C4([H])[H])c([H])c3C([H])([H])[H])c([H])c([H])c2C1([H])[H]

>  <smiles>  (8) 
[H]c1c([H])c([H])c2c(c1[H])C([H])([H])C([H])([H])C([H])([H])C2([H])N([H])C(=O)C1([H])N(C(=O)C([H])(N([H])C(=O)C([H])(N([H])C([H])([H])[H])C([H])([H])[H])C(C([H])([H])[H])(C([H])([H])[H])C([H])([H])[H])C([H])([H])c2c([H])c(OC([H])([H])C(=O)N([H])C([H])([H])C([H])([H])Oc3c([H])c([H])c(N([H])C(=O)N4C([H])([H])C([H])([H])C([H])([H])C([H])(n5nc(-c6c([H])c([H])c(Oc7c([H])c([H])c(F)c([H])c7F)c([H])c6[H])c(C(=O)N([H])[H])c5N([H])[H])C4([H])[H])c([H])c3C([H])([H])[H])c([H])c([H])c2C1([H])[H]

$$$$
8:0:0
     RDKit          3D

 94103  0  0  1  0  0  0  0  0999 V2000
  -31.0010  -22.0060   21.5050 C   0  0  0  0  0  0  0  0  0  0  0  0
  -31.2030  -23.5180   21.6770 C   0  0  0  0  0  2  0  0  0  0  0  0
  -29.9290  -24.3450   21.4930 C   0  0  0  0  0  2  0  0  0  0  0  0
  -29.0210  -22.4630   20.0800 C   0  0  0  0  0  2  0  0  0  0  0  0
  -29.3230  -24.0360   20.1300 C   0  0  0  0  0  3  0  0  0  0  0  0
  -30.0750  -21.5210   20.6220 N   0  0  0  0  0  0  0  0  0  0  0  0
  -31.7290  -21.2770   22.1890 O   0  0  0  0  0  0  0  0  0  0  0  0
  -31.1770  -19.2650   20.2510 C   0  0  0  0  0  3  0  0  0  0  0  0
  -31.1580  -17.8400   20.2410 C   0  0  0  0  0  3  0  0  0  0  0  0
  -28.7870  -19.3300   20.5130 C   0  0  0  0  0  3  0  0  0  0  0  0
  -30.0040  -20.0580   20.4310 C   0  0  0  0  0  0  0  0  0  0  0  0
  -29.9460  -17.1210   20.4000 C   0  0  0  0  0  0  0  0  0  0  0  0
  -28.7650  -17.9030   20.5070 C   0  0  0  0  0  0  0  0  0  0  0  0
  -27.5780  -17.2630   20.6290 F   0  0  0  0  0  0  0  0  0  0  0  0
  -30.5850  -14.6270   20.0440 C   0  0  0  0  0  0  0  0  0  0  0  0
  -30.2870  -12.4260   18.9340 C   0  0  0  0  0  2  0  0  0  0  0  0
  -29.2770  -12.6070   17.7780 C   0  0  0  0  0  2  0  0  0  0  0  0
  -27.8280  -12.4570   18.2830 C   0  0  0  0  0  2  0  0  0  0  0  0
  -27.5520  -13.2870   19.5650 C   0  0  0  0  0  3  0  0  0  0  0  0
  -28.6680  -13.0770   20.6140 C   0  0  0  0  0  2  0  0  0  0  0  0
  -29.9500  -13.4150   19.9750 N   0  0  0  0  0  0  0  0  0  0  0  0
  -31.7240  -14.7810   19.5970 O   0  0  0  0  0  0  0  0  0  0  0  0
  -29.8100  -15.6680   20.4680 N   0  0  0  0  0  0  0  0  0  0  0  0
  -28.9080  -15.3740   20.8120 H   0  0  0  0  0  0  0  0  0  0  0  0
  -25.2050  -13.8990   20.4150 C   0  0  0  0  0  0  0  0  0  0  0  0
  -24.1480  -13.1300   20.8200 C   0  0  0  0  0  0  0  0  0  0  0  0
  -24.5930  -11.7750   20.7400 C   0  0  0  0  0  0  0  0  0  0  0  0
  -26.2270  -13.0120   20.1130 N   0  0  0  0  0  0  0  0  0  0  0  0
  -25.8670  -11.7280   20.3680 N   0  0  0  0  0  0  0  0  0  0  0  0
  -23.8630  -10.5160   20.9440 C   0  0  0  0  0  0  0  0  0  0  0  0
  -24.3090   -9.5450   21.8670 C   0  0  0  0  0  3  0  0  0  0  0  0
  -23.5800   -8.3510   22.0580 C   0  0  0  0  0  3  0  0  0  0  0  0
  -22.3910   -8.1220   21.3250 C   0  0  0  0  0  0  0  0  0  0  0  0
  -21.9650   -9.0820   20.3910 C   0  0  0  0  0  3  0  0  0  0  0  0
  -22.6940  -10.2670   20.1990 C   0  0  0  0  0  3  0  0  0  0  0  0
  -21.6320   -6.9810   21.4260 O   0  0  0  0  0  0  0  0  0  0  0  0
  -21.5640   -6.2630   22.5930 C   0  0  0  0  0  0  0  0  0  0  0  0
  -21.1170   -6.8420   23.8000 C   0  0  0  0  0  3  0  0  0  0  0  0
  -20.9960   -6.0500   24.9590 C   0  0  0  0  0  3  0  0  0  0  0  0
  -21.3110   -4.6790   24.9110 C   0  0  0  0  0  0  0  0  0  0  0  0
  -21.7520   -4.0990   23.7090 C   0  0  0  0  0  3  0  0  0  0  0  0
  -21.8740   -4.8870   22.5520 C   0  0  0  0  0  0  0  0  0  0  0  0
  -22.2790   -4.3190   21.3910 F   0  0  0  0  0  0  0  0  0  0  0  0
  -21.1880   -3.9160   26.0230 F   0  0  0  0  0  0  0  0  0  0  0  0
  -22.7720  -13.6160   21.1740 C   0  0  0  0  0  0  0  0  0  0  0  0
  -22.0830  -12.9110   22.0640 N   0  0  0  0  0  0  0  0  0  0  0  0
  -22.3190  -14.6560   20.6970 O   0  0  0  0  0  0  0  0  0  0  0  0
  -22.4640  -12.0690   22.4700 H   0  0  0  0  0  0  0  0  0  0  0  0
  -21.1620  -13.2170   22.3440 H   0  0  0  0  0  0  0  0  0  0  0  0
  -25.3750  -15.2720   20.2640 N   0  0  0  0  0  0  0  0  0  0  0  0
  -24.6350  -15.9310   20.4740 H   0  0  0  0  0  0  0  0  0  0  0  0
  -26.2450  -15.7290   20.0200 H   0  0  0  0  0  0  0  0  0  0  0  0
  -28.1290  -25.0240   19.7950 C   0  0  0  0  0  2  0  0  0  0  0  0
  -28.3330  -26.4830   19.9350 O   0  0  0  0  0  0  0  0  0  0  0  0
  -24.5180  -31.7160   23.1150 C   0  0  0  0  0  0  0  0  0  0  0  0
  -27.1950  -27.3050   19.9170 C   0  0  0  0  0  0  0  0  0  0  0  0
  -23.3330  -30.3550   21.4310 C   0  0  0  0  0  3  0  0  0  0  0  0
  -24.8030  -28.8720   19.9590 C   0  0  0  0  0  0  0  0  0  0  0  0
  -25.8660  -30.7170   21.2580 C   0  0  0  0  0  2  0  0  0  0  0  0
  -25.9650  -29.3620   20.5680 C   0  0  0  0  0  0  0  0  0  0  0  0
  -27.1650  -28.5910   20.5360 C   0  0  0  0  0  3  0  0  0  0  0  0
  -26.0030  -26.8640   19.2910 C   0  0  0  0  0  3  0  0  0  0  0  0
  -24.8240  -27.6290   19.3130 C   0  0  0  0  0  3  0  0  0  0  0  0
  -23.5550  -29.7270   20.0310 C   0  0  0  0  0  2  0  0  0  0  0  0
  -24.5910  -30.9440   21.9930 N   0  0  0  0  0  0  0  0  0  0  0  0
  -23.4310  -31.9620   23.6590 O   0  0  0  0  0  0  0  0  0  0  0  0
  -22.6840  -29.2990   22.3570 C   0  0  0  0  0  0  0  0  0  0  0  0
  -21.3580  -29.1190   22.2360 N   0  0  0  0  0  0  0  0  0  0  0  0
  -23.3730  -28.6460   23.1460 O   0  0  0  0  0  0  0  0  0  0  0  0
  -20.8620  -29.7000   21.5740 H   0  0  0  0  0  0  0  0  0  0  0  0
  -17.9860  -27.9130   22.7410 C   0  0  0  0  0  0  0  0  0  0  0  0
  -20.5500  -28.1510   22.9770 C   0  0  0  0  0  3  0  0  0  0  0  0
  -20.6350  -26.7460   22.3370 C   0  0  0  0  0  2  0  0  0  0  0  0
  -19.5150  -26.4710   21.3300 C   0  0  0  0  0  2  0  0  0  0  0  0
  -18.1440  -26.5940   22.0050 C   0  0  0  0  0  2  0  0  0  0  0  0
  -19.1150  -28.6520   23.1850 C   0  0  0  0  0  0  0  0  0  0  0  0
  -18.9130  -29.8870   23.8360 C   0  0  0  0  0  3  0  0  0  0  0  0
  -17.6130  -30.3860   24.0460 C   0  0  0  0  0  3  0  0  0  0  0  0
  -16.4990  -29.6440   23.6190 C   0  0  0  0  0  3  0  0  0  0  0  0
  -16.6850  -28.4100   22.9720 C   0  0  0  0  0  3  0  0  0  0  0  0
  -25.7930  -32.3460   23.7570 C   0  0  0  0  0  3  0  0  0  0  0  0
  -25.4690  -33.7320   24.1190 N   0  0  0  0  0  0  0  0  0  0  0  0
  -25.7710  -34.8050   23.3750 C   0  0  0  0  0  0  0  0  0  0  0  0
  -26.4230  -34.7320   22.3300 O   0  0  0  0  0  0  0  0  0  0  0  0
  -24.8890  -33.8640   24.9360 H   0  0  0  0  0  0  0  0  0  0  0  0
  -24.0000  -36.5700   23.0990 C   0  0  0  0  0  1  0  0  0  0  0  0
  -25.2710  -36.1760   23.8690 C   0  0  0  0  0  3  0  0  0  0  0  0
  -27.4100  -37.0910   24.6550 C   0  0  0  0  0  1  0  0  0  0  0  0
  -26.2790  -37.2510   23.7430 N   0  0  0  0  0  0  0  0  0  0  0  0
  -25.8610  -38.1610   23.9170 H   0  0  0  0  0  0  0  0  0  0  0  0
  -26.3110  -31.5480   25.0160 C   0  0  1  0  0  0  0  0  0  0  0  0
  -25.2160  -31.2740   26.0740 C   0  0  0  0  0  1  0  0  0  0  0  0
  -26.9090  -30.1870   24.5930 C   0  0  0  0  0  1  0  0  0  0  0  0
  -27.4530  -32.3360   25.7010 C   0  0  0  0  0  1  0  0  0  0  0  0
  1  2  1  0
  1  7  2  0
  3  2  1  0
  4  5  1  0
  4  6  1  0
  5 53  1  0
  5  3  1  0
  6  1  1  0
  8 11  1  0
  9  8  2  0
  9 12  1  0
 11 10  2  0
 11  6  1  0
 12 23  1  0
 12 13  2  0
 13 10  1  0
 13 14  1  0
 15 23  1  0
 16 21  1  0
 17 18  1  0
 17 16  1  0
 19 18  1  0
 19 28  1  0
 19 20  1  0
 21 15  1  0
 21 20  1  0
 22 15  2  0
 23 24  1  0
 25 26  2  0
 26 45  1  0
 27 26  1  0
 27 30  1  0
 28 29  1  0
 28 25  1  0
 29 27  2  0
 30 31  1  0
 31 32  2  0
 33 36  1  0
 33 32  1  0
 34 33  2  0
 35 34  1  0
 35 30  2  0
 36 37  1  0
 37 38  1  0
 38 39  2  0
 40 39  1  0
 40 44  1  0
 41 40  2  0
 42 37  2  0
 42 41  1  0
 43 42  1  0
 45 46  1  0
 46 49  1  0
 46 48  1  0
 47 45  2  0
 50 25  1  0
 50 51  1  0
 52 50  1  0
 53 54  1  0
 55 66  2  0
 56 54  1  0
 56 61  1  0
 57 65  1  0
 57 67  1  0
 58 64  1  0
 58 60  1  0
 59 65  1  0
 60 59  1  0
 61 60  2  0
 62 63  1  0
 62 56  2  0
 63 58  2  0
 64 57  1  0
 65 55  1  0
 67 69  2  0
 68 67  1  0
 70 68  1  0
 71 80  2  0
 71 76  1  0
 72 68  1  0
 72 76  1  0
 73 72  1  0
 74 75  1  0
 74 73  1  0
 75 71  1  0
 76 77  2  0
 77 78  1  0
 79 78  2  0
 80 79  1  0
 81 55  1  0
 81 82  1  0
 81 91  1  0
 82 85  1  0
 83 87  1  0
 83 82  1  0
 84 83  2  0
 87 86  1  0
 89 87  1  0
 89 90  1  0
 89 88  1  0
 91 94  1  1
 91 92  1  0
 93 91  1  0
M  ISO  4  15 100  23 100  53 101  54 101
M  END
>  <TORSDO>  (9) 
F 18

>  <SCORE>  (9) 
-14.494

>  <name>  (9) 
8

>  <ligand_id>  (9) 
8

>  <original_smiles>  (9) 
[H]c1c([H])c([H])c2c(c1[H])C([H])([H])C([H])([H])C([H])([H])C2([H])N([H])C(=O)C1([H])N(C(=O)C([H])(N([H])C(=O)C([H])(N([H])C([H])([H])[H])C([H])([H])[H])C(C([H])([H])[H])(C([H])([H])[H])C([H])([H])[H])C([H])([H])c2c([H])c(OC([H])([H])C3([H])C([H])([H])N(c4c([H])c([H])c(N([H])C(=O)N5C([H])([H])C([H])([H])C([H])([H])C([H])(n6nc(-c7c([H])c([H])c(Oc8c([H])c([H])c(F)c([H])c8F)c([H])c7[H])c(C(=O)N([H])[H])c6N([H])[H])C5([H])[H])c(F)c4[H])C(=O)C([H])([H])C3([H])[H])c([H])c([H])c2C1([H])[H]

>  <smiles>  (9) 
[H]c1c([H])c([H])c2c(c1[H])C([H])([H])C([H])([H])C([H])([H])C2([H])N([H])C(=O)C1([H])N(C(=O)C([H])(N([H])C(=O)C([H])(N([H])C([H])([H])[H])C([H])([H])[H])C(C([H])([H])[H])(C([H])([H])[H])C([H])([H])[H])C([H])([H])c2c([H])c(OC([H])([H])C3([H])C([H])([H])N(c4c([H])c([H])c(N([H])C(=O)N5C([H])([H])C([H])([H])C([H])([H])C([H])(n6nc(-c7c([H])c([H])c(Oc8c([H])c([H])c(F)c([H])c8F)c([H])c7[H])c(C(=O)N([H])[H])c6N([H])[H])C5([H])[H])c(F)c4[H])C(=O)C([H])([H])C3([H])[H])c([H])c([H])c2C1([H])[H]

$$$$
9:0:0
     RDKit          3D

 93102  0  0  1  0  0  0  0  0999 V2000
  -26.9830  -22.4910   18.2730 C   0  0  0  0  0  0  0  0  0  0  0  0
  -25.8240  -23.2710   18.8650 C   0  0  0  0  0  2  0  0  0  0  0  0
  -26.3930  -23.7150   20.2260 C   0  0  0  0  0  2  0  0  0  0  0  0
  -27.9110  -23.7700   19.9860 C   0  0  0  0  0  3  0  0  0  0  0  0
  -28.0940  -22.5930   19.0370 N   0  0  0  0  0  0  0  0  0  0  0  0
  -26.8620  -21.8330   17.2330 O   0  0  0  0  0  0  0  0  0  0  0  0
  -28.9500  -19.2640   20.7600 C   0  0  0  0  0  3  0  0  0  0  0  0
  -30.1350  -19.3380   18.6730 C   0  0  0  0  0  3  0  0  0  0  0  0
  -28.4310  -20.5720   20.5170 C   0  0  0  0  0  3  0  0  0  0  0  0
  -29.5910  -20.6370   18.4160 C   0  0  0  0  0  3  0  0  0  0  0  0
  -29.8310  -18.6140   19.8620 C   0  0  0  0  0  0  0  0  0  0  0  0
  -28.7380  -21.3050   19.3420 C   0  0  0  0  0  0  0  0  0  0  0  0
  -30.6340  -17.3220   20.2830 C   0  0  0  0  0  2  0  0  0  0  0  0
  -30.7830  -14.7710   20.2740 C   0  0  0  0  0  0  0  0  0  0  0  0
  -30.5330  -12.5010   19.3240 C   0  0  0  0  0  2  0  0  0  0  0  0
  -29.5880  -12.5940   18.1090 C   0  0  0  0  0  2  0  0  0  0  0  0
  -28.1260  -12.4150   18.5650 C   0  0  0  0  0  2  0  0  0  0  0  0
  -27.7540  -13.3120   19.7780 C   0  0  0  0  0  3  0  0  0  0  0  0
  -28.8290  -13.2620   20.8860 C   0  0  0  0  0  2  0  0  0  0  0  0
  -30.1210  -13.5700   20.2560 N   0  0  0  0  0  0  0  0  0  0  0  0
  -31.9810  -14.8230   20.0000 O   0  0  0  0  0  0  0  0  0  0  0  0
  -30.0510  -15.9310   20.3560 N   0  0  0  0  0  0  0  0  0  0  0  0
  -29.0630  -15.8430   20.5230 H   0  0  0  0  0  0  0  0  0  0  0  0
  -25.3830  -13.8930   20.5680 C   0  0  0  0  0  0  0  0  0  0  0  0
  -24.3210  -13.1080   20.9330 C   0  0  0  0  0  0  0  0  0  0  0  0
  -24.7790  -11.7580   20.8570 C   0  0  0  0  0  0  0  0  0  0  0  0
  -26.4190  -13.0140   20.2880 N   0  0  0  0  0  0  0  0  0  0  0  0
  -26.0640  -11.7240   20.5200 N   0  0  0  0  0  0  0  0  0  0  0  0
  -24.0440  -10.4950   21.0270 C   0  0  0  0  0  0  0  0  0  0  0  0
  -24.4610   -9.5240   21.9620 C   0  0  0  0  0  3  0  0  0  0  0  0
  -23.7310   -8.3260   22.1210 C   0  0  0  0  0  3  0  0  0  0  0  0
  -22.5750   -8.0880   21.3440 C   0  0  0  0  0  0  0  0  0  0  0  0
  -22.1730   -9.0510   20.4030 C   0  0  0  0  0  3  0  0  0  0  0  0
  -22.9020  -10.2410   20.2400 C   0  0  0  0  0  3  0  0  0  0  0  0
  -21.8250   -6.9380   21.4080 O   0  0  0  0  0  0  0  0  0  0  0  0
  -21.7170   -6.2130   22.5660 C   0  0  0  0  0  0  0  0  0  0  0  0
  -21.1670   -6.7660   23.7440 C   0  0  0  0  0  3  0  0  0  0  0  0
  -21.0140   -5.9640   24.8940 C   0  0  0  0  0  3  0  0  0  0  0  0
  -21.4010   -4.6100   24.8660 C   0  0  0  0  0  0  0  0  0  0  0  0
  -21.9440   -4.0580   23.6930 C   0  0  0  0  0  3  0  0  0  0  0  0
  -22.1010   -4.8580   22.5470 C   0  0  0  0  0  0  0  0  0  0  0  0
  -22.6060   -4.3140   21.4110 F   0  0  0  0  0  0  0  0  0  0  0  0
  -21.2480   -3.8380   25.9680 F   0  0  0  0  0  0  0  0  0  0  0  0
  -22.9340  -13.5870   21.2410 C   0  0  0  0  0  0  0  0  0  0  0  0
  -22.2140  -12.8670   22.0970 N   0  0  0  0  0  0  0  0  0  0  0  0
  -22.4950  -14.6280   20.7620 O   0  0  0  0  0  0  0  0  0  0  0  0
  -22.5880  -12.0260   22.5100 H   0  0  0  0  0  0  0  0  0  0  0  0
  -21.2790  -13.1620   22.3400 H   0  0  0  0  0  0  0  0  0  0  0  0
  -25.5420  -15.2690   20.4340 N   0  0  0  0  0  0  0  0  0  0  0  0
  -24.7600  -15.8990   20.5850 H   0  0  0  0  0  0  0  0  0  0  0  0
  -26.3740  -15.7320   20.0810 H   0  0  0  0  0  0  0  0  0  0  0  0
  -28.3490  -25.2080   19.3860 C   0  0  0  0  0  2  0  0  0  0  0  0
  -28.3150  -26.5020   20.1340 O   0  0  0  0  0  0  0  0  0  0  0  0
  -24.5880  -31.9000   23.2320 C   0  0  0  0  0  0  0  0  0  0  0  0
  -27.2130  -27.3720   20.0930 C   0  0  0  0  0  0  0  0  0  0  0  0
  -23.3970  -30.5150   21.5770 C   0  0  0  0  0  3  0  0  0  0  0  0
  -24.8540  -28.9880   20.1400 C   0  0  0  0  0  0  0  0  0  0  0  0
  -25.9400  -30.8280   21.4190 C   0  0  0  0  0  2  0  0  0  0  0  0
  -26.0190  -29.4590   20.7540 C   0  0  0  0  0  0  0  0  0  0  0  0
  -27.1970  -28.6480   20.7460 C   0  0  0  0  0  3  0  0  0  0  0  0
  -26.0290  -26.9890   19.4300 C   0  0  0  0  0  3  0  0  0  0  0  0
  -24.8570  -27.7570   19.4810 C   0  0  0  0  0  3  0  0  0  0  0  0
  -23.6140  -29.8490   20.1930 C   0  0  0  0  0  2  0  0  0  0  0  0
  -24.6580  -31.1020   22.1300 N   0  0  0  0  0  0  0  0  0  0  0  0
  -23.5040  -32.1720   23.7670 O   0  0  0  0  0  0  0  0  0  0  0  0
  -22.7380  -29.4830   22.5240 C   0  0  0  0  0  0  0  0  0  0  0  0
  -21.4180  -29.2940   22.3790 N   0  0  0  0  0  0  0  0  0  0  0  0
  -23.4170  -28.8610   23.3450 O   0  0  0  0  0  0  0  0  0  0  0  0
  -20.9370  -29.8400   21.6780 H   0  0  0  0  0  0  0  0  0  0  0  0
  -18.0410  -28.1000   22.8860 C   0  0  0  0  0  0  0  0  0  0  0  0
  -20.6020  -28.3450   23.1380 C   0  0  0  0  0  3  0  0  0  0  0  0
  -20.6940  -26.9260   22.5320 C   0  0  0  0  0  2  0  0  0  0  0  0
  -19.5810  -26.6270   21.5210 C   0  0  0  0  0  2  0  0  0  0  0  0
  -18.2060  -26.7630   22.1820 C   0  0  0  0  0  2  0  0  0  0  0  0
  -19.1660  -28.8470   23.3220 C   0  0  0  0  0  0  0  0  0  0  0  0
  -18.9610  -30.0990   23.9440 C   0  0  0  0  0  3  0  0  0  0  0  0
  -17.6610  -30.6020   24.1350 C   0  0  0  0  0  3  0  0  0  0  0  0
  -16.5480  -29.8500   23.7190 C   0  0  0  0  0  3  0  0  0  0  0  0
  -16.7380  -28.6020   23.0980 C   0  0  0  0  0  3  0  0  0  0  0  0
  -25.8670  -32.5330   23.8580 C   0  0  0  0  0  3  0  0  0  0  0  0
  -26.3770  -31.7670   25.1390 C   0  0  1  0  0  0  0  0  0  0  0  0
  -25.2770  -31.5280   26.1960 C   0  0  0  0  0  1  0  0  0  0  0  0
  -26.9690  -30.3830   24.7710 C   0  0  0  0  0  1  0  0  0  0  0  0
  -27.5180  -32.5660   25.8090 C   0  0  0  0  0  1  0  0  0  0  0  0
  -25.5590  -33.9350   24.1810 N   0  0  0  0  0  0  0  0  0  0  0  0
  -25.8900  -34.9840   23.4150 C   0  0  0  0  0  0  0  0  0  0  0  0
  -26.5640  -34.8770   22.3870 O   0  0  0  0  0  0  0  0  0  0  0  0
  -24.9550  -34.0900   24.9740 H   0  0  0  0  0  0  0  0  0  0  0  0
  -24.1730  -36.7840   23.0390 C   0  0  0  0  0  1  0  0  0  0  0  0
  -25.3980  -36.3730   23.8680 C   0  0  0  0  0  3  0  0  0  0  0  0
  -27.5100  -37.2640   24.7500 C   0  0  0  0  0  1  0  0  0  0  0  0
  -26.4350  -37.4220   23.7730 N   0  0  0  0  0  0  0  0  0  0  0  0
  -26.0250  -38.3430   23.9000 H   0  0  0  0  0  0  0  0  0  0  0  0
  1  2  1  0
  1  5  1  0
  2  3  1  0
  4 52  1  0
  4  3  1  0
  5 12  1  0
  5  4  1  0
  6  1  2  0
  8 11  1  0
  9  7  1  0
 10  8  2  0
 10 12  1  0
 11 13  1  0
 11  7  2  0
 12  9  2  0
 13 22  1  0
 14 22  1  0
 15 20  1  0
 16 17  1  0
 16 15  1  0
 18 17  1  0
 18 27  1  0
 18 19  1  0
 20 14  1  0
 20 19  1  0
 21 14  2  0
 22 23  1  0
 24 25  2  0
 25 44  1  0
 26 25  1  0
 26 29  1  0
 27 28  1  0
 27 24  1  0
 28 26  2  0
 29 30  1  0
 30 31  2  0
 32 35  1  0
 32 31  1  0
 33 32  2  0
 34 33  1  0
 34 29  2  0
 35 36  1  0
 36 37  1  0
 37 38  2  0
 39 38  1  0
 39 43  1  0
 40 39  2  0
 41 36  2  0
 41 40  1  0
 42 41  1  0
 44 45  1  0
 45 48  1  0
 45 47  1  0
 46 44  2  0
 49 24  1  0
 49 50  1  0
 51 49  1  0
 52 53  1  0
 54 65  2  0
 55 53  1  0
 55 60  1  0
 56 64  1  0
 56 66  1  0
 57 63  1  0
 57 59  1  0
 58 64  1  0
 59 58  1  0
 60 59  2  0
 61 62  1  0
 61 55  2  0
 62 57  2  0
 63 56  1  0
 64 54  1  0
 66 68  2  0
 67 66  1  0
 69 67  1  0
 70 79  2  0
 70 75  1  0
 71 67  1  0
 71 75  1  0
 72 71  1  0
 73 74  1  0
 73 72  1  0
 74 70  1  0
 75 76  2  0
 76 77  1  0
 78 77  2  0
 79 78  1  0
 80 54  1  0
 80 85  1  0
 80 81  1  0
 81 84  1  1
 81 82  1  0
 83 81  1  0
 85 88  1  0
 86 90  1  0
 86 85  1  0
 87 86  2  0
 90 89  1  0
 92 90  1  0
 92 93  1  0
 92 91  1  0
M  ISO  4  14 100  22 100  52 101  53 101
M  END
>  <TORSDO>  (10) 
F 19

>  <SCORE>  (10) 
-14.262

>  <name>  (10) 
9

>  <ligand_id>  (10) 
9

>  <original_smiles>  (10) 
[H]c1c([H])c([H])c2c(c1[H])C([H])([H])C([H])([H])C([H])([H])C2([H])N([H])C(=O)C1([H])N(C(=O)C([H])(N([H])C(=O)C([H])(N([H])C([H])([H])[H])C([H])([H])[H])C(C([H])([H])[H])(C([H])([H])[H])C([H])([H])[H])C([H])([H])c2c([H])c(OC([H])([H])C3([H])N(c4c([H])c([H])c(C([H])([H])N([H])C(=O)N5C([H])([H])C([H])([H])C([H])([H])C([H])(n6nc(-c7c([H])c([H])c(Oc8c([H])c([H])c(F)c([H])c8F)c([H])c7[H])c(C(=O)N([H])[H])c6N([H])[H])C5([H])[H])c([H])c4[H])C(=O)C([H])([H])C3([H])[H])c([H])c([H])c2C1([H])[H]

>  <smiles>  (10) 
[H]c1c([H])c([H])c2c(c1[H])C([H])([H])C([H])([H])C([H])([H])C2([H])N([H])C(=O)C1([H])N(C(=O)C([H])(N([H])C(=O)C([H])(N([H])C([H])([H])[H])C([H])([H])[H])C(C([H])([H])[H])(C([H])([H])[H])C([H])([H])[H])C([H])([H])c2c([H])c(OC([H])([H])C3([H])N(c4c([H])c([H])c(C([H])([H])N([H])C(=O)N5C([H])([H])C([H])([H])C([H])([H])C([H])(n6nc(-c7c([H])c([H])c(Oc8c([H])c([H])c(F)c([H])c8F)c([H])c7[H])c(C(=O)N([H])[H])c6N([H])[H])C5([H])[H])c([H])c4[H])C(=O)C([H])([H])C3([H])[H])c([H])c([H])c2C1([H])[H]

$$$$
10:0:0
     RDKit          3D

 92100  0  0  1  0  0  0  0  0999 V2000
  -29.9710  -20.9490   20.5860 C   0  0  0  0  0  0  0  0  0  0  0  0
  -28.7150  -21.4250   20.7060 N   0  0  0  0  0  0  0  0  0  0  0  0
  -30.8990  -21.6930   20.2570 O   0  0  0  0  0  0  0  0  0  0  0  0
  -28.0210  -20.7180   20.9190 H   0  0  0  0  0  0  0  0  0  0  0  0
  -31.7250  -18.2180   22.5870 C   0  0  0  0  0  3  0  0  0  0  0  0
  -31.2940  -19.4550   22.0820 C   0  0  0  0  0  3  0  0  0  0  0  0
  -31.1950  -17.0230   22.0790 C   0  0  0  0  0  3  0  0  0  0  0  0
  -29.7480  -18.3130   20.5800 C   0  0  0  0  0  3  0  0  0  0  0  0
  -30.2980  -19.5410   21.0820 C   0  0  0  0  0  0  0  0  0  0  0  0
  -30.2190  -17.0370   21.0590 C   0  0  0  0  0  0  0  0  0  0  0  0
  -30.4560  -14.6720   20.2290 C   0  0  0  0  0  0  0  0  0  0  0  0
  -30.1410  -12.5150   19.0470 C   0  0  0  0  0  2  0  0  0  0  0  0
  -29.1440  -12.7190   17.8870 C   0  0  0  0  0  2  0  0  0  0  0  0
  -27.6950  -12.5370   18.3830 C   0  0  0  0  0  2  0  0  0  0  0  0
  -27.4000  -13.3270   19.6880 C   0  0  0  0  0  3  0  0  0  0  0  0
  -28.5160  -13.1360   20.7380 C   0  0  0  0  0  2  0  0  0  0  0  0
  -29.7880  -13.4880   20.0950 N   0  0  0  0  0  0  0  0  0  0  0  0
  -31.6120  -14.8090   19.8160 O   0  0  0  0  0  0  0  0  0  0  0  0
  -29.7180  -15.7610   20.5970 N   0  0  0  0  0  0  0  0  0  0  0  0
  -28.7190  -15.6250   20.6330 H   0  0  0  0  0  0  0  0  0  0  0  0
  -25.0300  -13.8530   20.5220 C   0  0  0  0  0  0  0  0  0  0  0  0
  -24.0000  -13.0450   20.9240 C   0  0  0  0  0  0  0  0  0  0  0  0
  -24.4930  -11.7070   20.8500 C   0  0  0  0  0  0  0  0  0  0  0  0
  -26.0830  -13.0030   20.2280 N   0  0  0  0  0  0  0  0  0  0  0  0
  -25.7700  -11.7070   20.4870 N   0  0  0  0  0  0  0  0  0  0  0  0
  -23.8070  -10.4230   21.0490 C   0  0  0  0  0  0  0  0  0  0  0  0
  -24.2840   -9.4640   21.9690 C   0  0  0  0  0  3  0  0  0  0  0  0
  -23.5960   -8.2450   22.1540 C   0  0  0  0  0  3  0  0  0  0  0  0
  -22.4150   -7.9800   21.4220 C   0  0  0  0  0  0  0  0  0  0  0  0
  -21.9570   -8.9290   20.4910 C   0  0  0  0  0  3  0  0  0  0  0  0
  -22.6470  -10.1390   20.3020 C   0  0  0  0  0  3  0  0  0  0  0  0
  -21.6940   -6.8140   21.5190 O   0  0  0  0  0  0  0  0  0  0  0  0
  -21.6750   -6.0720   22.6720 C   0  0  0  0  0  0  0  0  0  0  0  0
  -21.2360   -6.6150   23.9000 C   0  0  0  0  0  3  0  0  0  0  0  0
  -21.1680   -5.7980   25.0460 C   0  0  0  0  0  3  0  0  0  0  0  0
  -21.5270   -4.4400   24.9660 C   0  0  0  0  0  0  0  0  0  0  0  0
  -21.9600   -3.8960   23.7430 C   0  0  0  0  0  3  0  0  0  0  0  0
  -22.0310   -4.7100   22.5990 C   0  0  0  0  0  0  0  0  0  0  0  0
  -22.4270   -4.1760   21.4190 F   0  0  0  0  0  0  0  0  0  0  0  0
  -21.4550   -3.6520   26.0650 F   0  0  0  0  0  0  0  0  0  0  0  0
  -22.6040  -13.4840   21.2600 C   0  0  0  0  0  0  0  0  0  0  0  0
  -21.9290  -12.7540   22.1420 N   0  0  0  0  0  0  0  0  0  0  0  0
  -22.1210  -14.5080   20.7780 O   0  0  0  0  0  0  0  0  0  0  0  0
  -22.3360  -11.9260   22.5490 H   0  0  0  0  0  0  0  0  0  0  0  0
  -20.9950  -13.0280   22.4110 H   0  0  0  0  0  0  0  0  0  0  0  0
  -25.1520  -15.2300   20.3600 N   0  0  0  0  0  0  0  0  0  0  0  0
  -24.3700  -15.8580   20.5070 H   0  0  0  0  0  0  0  0  0  0  0  0
  -25.9620  -15.6950   19.9710 H   0  0  0  0  0  0  0  0  0  0  0  0
  -28.3530  -22.8120   21.1330 C   0  0  0  0  0  2  0  0  0  0  0  0
  -28.5170  -24.0470   20.1710 C   0  0  0  0  0  2  0  0  0  0  0  0
  -28.1660  -25.4050   20.8890 C   0  0  0  0  0  2  0  0  0  0  0  0
  -28.3010  -26.6610   20.1570 O   0  0  0  0  0  0  0  0  0  0  0  0
  -24.5770  -31.9590   23.2530 C   0  0  0  0  0  0  0  0  0  0  0  0
  -27.1760  -27.4730   20.1560 C   0  0  0  0  0  0  0  0  0  0  0  0
  -23.3600  -30.5560   21.6240 C   0  0  0  0  0  3  0  0  0  0  0  0
  -24.8000  -29.0240   20.1740 C   0  0  0  0  0  0  0  0  0  0  0  0
  -25.8880  -30.9110   21.4010 C   0  0  0  0  0  2  0  0  0  0  0  0
  -25.9700  -29.5380   20.7530 C   0  0  0  0  0  0  0  0  0  0  0  0
  -27.1660  -28.7710   20.7320 C   0  0  0  0  0  3  0  0  0  0  0  0
  -25.9910  -26.9900   19.5670 C   0  0  0  0  0  3  0  0  0  0  0  0
  -24.8090  -27.7550   19.5730 C   0  0  0  0  0  3  0  0  0  0  0  0
  -23.5570  -29.8850   20.2390 C   0  0  0  0  0  2  0  0  0  0  0  0
  -24.6280  -31.1570   22.1500 N   0  0  0  0  0  0  0  0  0  0  0  0
  -23.4980  -32.2310   23.8010 O   0  0  0  0  0  0  0  0  0  0  0  0
  -22.7190  -29.5320   22.5900 C   0  0  0  0  0  0  0  0  0  0  0  0
  -21.3940  -29.3390   22.4680 N   0  0  0  0  0  0  0  0  0  0  0  0
  -23.4080  -28.9170   23.4070 O   0  0  0  0  0  0  0  0  0  0  0  0
  -20.8980  -29.8850   21.7790 H   0  0  0  0  0  0  0  0  0  0  0  0
  -18.0310  -28.1130   22.9740 C   0  0  0  0  0  0  0  0  0  0  0  0
  -20.5870  -28.3960   23.2420 C   0  0  0  0  0  3  0  0  0  0  0  0
  -20.7020  -26.9640   22.6700 C   0  0  0  0  0  2  0  0  0  0  0  0
  -19.6020  -26.6290   21.6590 C   0  0  0  0  0  2  0  0  0  0  0  0
  -18.2200  -26.7630   22.3040 C   0  0  0  0  0  2  0  0  0  0  0  0
  -19.1430  -28.8870   23.3990 C   0  0  0  0  0  0  0  0  0  0  0  0
  -18.9140  -30.1530   23.9840 C   0  0  0  0  0  3  0  0  0  0  0  0
  -17.6030  -30.6410   24.1520 C   0  0  0  0  0  3  0  0  0  0  0  0
  -16.5060  -29.8630   23.7440 C   0  0  0  0  0  3  0  0  0  0  0  0
  -16.7190  -28.6020   23.1590 C   0  0  0  0  0  3  0  0  0  0  0  0
  -25.8650  -32.5950   23.8600 C   0  0  0  0  0  3  0  0  0  0  0  0
  -26.3930  -31.8310   25.1360 C   0  0  1  0  0  0  0  0  0  0  0  0
  -25.3060  -31.5950   26.2110 C   0  0  0  0  0  1  0  0  0  0  0  0
  -26.9780  -30.4530   24.7440 C   0  0  0  0  0  1  0  0  0  0  0  0
  -27.5460  -32.6310   25.7860 C   0  0  0  0  0  1  0  0  0  0  0  0
  -25.5570  -33.9940   24.1850 N   0  0  0  0  0  0  0  0  0  0  0  0
  -25.8900  -35.0440   23.4220 C   0  0  0  0  0  0  0  0  0  0  0  0
  -26.5600  -34.9340   22.3910 O   0  0  0  0  0  0  0  0  0  0  0  0
  -24.9610  -34.1510   24.9840 H   0  0  0  0  0  0  0  0  0  0  0  0
  -24.1710  -36.8420   23.0560 C   0  0  0  0  0  1  0  0  0  0  0  0
  -25.4060  -36.4340   23.8740 C   0  0  0  0  0  3  0  0  0  0  0  0
  -27.5390  -37.3150   24.7140 C   0  0  0  0  0  1  0  0  0  0  0  0
  -26.4420  -37.4840   23.7640 N   0  0  0  0  0  0  0  0  0  0  0  0
  -26.0400  -38.4060   23.9070 H   0  0  0  0  0  0  0  0  0  0  0  0
  1  2  1  0
  1  9  1  0
  2  4  1  0
  2 49  1  0
  3  1  2  0
  6  5  1  0
  7  5  2  0
  8 10  2  0
  8  9  1  0
  9  6  2  0
 10  7  1  0
 11 19  1  0
 12 17  1  0
 13 14  1  0
 13 12  1  0
 15 14  1  0
 15 24  1  0
 15 16  1  0
 17 11  1  0
 17 16  1  0
 18 11  2  0
 19 20  1  0
 19 10  1  0
 21 22  2  0
 22 41  1  0
 23 22  1  0
 23 26  1  0
 24 25  1  0
 24 21  1  0
 25 23  2  0
 26 27  1  0
 27 28  2  0
 29 32  1  0
 29 28  1  0
 30 29  2  0
 31 30  1  0
 31 26  2  0
 32 33  1  0
 33 34  1  0
 34 35  2  0
 36 35  1  0
 36 40  1  0
 37 36  2  0
 38 33  2  0
 38 37  1  0
 39 38  1  0
 41 42  1  0
 42 45  1  0
 42 44  1  0
 43 41  2  0
 46 47  1  0
 46 21  1  0
 48 46  1  0
 50 51  1  0
 50 49  1  0
 52 51  1  0
 53 64  2  0
 54 52  1  0
 54 59  1  0
 55 63  1  0
 55 65  1  0
 56 62  1  0
 56 58  1  0
 57 63  1  0
 58 57  1  0
 59 58  2  0
 60 61  1  0
 60 54  2  0
 61 56  2  0
 62 55  1  0
 63 53  1  0
 65 67  2  0
 66 65  1  0
 68 66  1  0
 69 78  2  0
 69 74  1  0
 70 66  1  0
 70 74  1  0
 71 70  1  0
 72 73  1  0
 72 71  1  0
 73 69  1  0
 74 75  2  0
 75 76  1  0
 77 76  2  0
 78 77  1  0
 79 53  1  0
 79 84  1  0
 79 80  1  0
 80 83  1  1
 80 81  1  0
 82 80  1  0
 84 87  1  0
 85 89  1  0
 85 84  1  0
 86 85  2  0
 89 88  1  0
 91 89  1  0
 91 92  1  0
 91 90  1  0
M  ISO  4  11 100  19 100  51 101  52 101
M  END
>  <TORSDO>  (11) 
F 20

>  <SCORE>  (11) 
-13.402

>  <name>  (11) 
10

>  <ligand_id>  (11) 
10

>  <original_smiles>  (11) 
[H]c1c([H])c(C(=O)N([H])C([H])([H])C([H])([H])C([H])([H])Oc2c([H])c([H])c3c(c2[H])C([H])([H])N(C(=O)C([H])(N([H])C(=O)C([H])(N([H])C([H])([H])[H])C([H])([H])[H])C(C([H])([H])[H])(C([H])([H])[H])C([H])([H])[H])C([H])(C(=O)N([H])C2([H])c4c([H])c([H])c([H])c([H])c4C([H])([H])C([H])([H])C2([H])[H])C3([H])[H])c([H])c(N([H])C(=O)N2C([H])([H])C([H])([H])C([H])([H])C([H])(n3nc(-c4c([H])c([H])c(Oc5c([H])c([H])c(F)c([H])c5F)c([H])c4[H])c(C(=O)N([H])[H])c3N([H])[H])C2([H])[H])c1[H]

>  <smiles>  (11) 
[H]c1c([H])c(C(=O)N([H])C([H])([H])C([H])([H])C([H])([H])Oc2c([H])c([H])c3c(c2[H])C([H])([H])N(C(=O)C([H])(N([H])C(=O)C([H])(N([H])C([H])([H])[H])C([H])([H])[H])C(C([H])([H])[H])(C([H])([H])[H])C([H])([H])[H])C([H])(C(=O)N([H])C2([H])c4c([H])c([H])c([H])c([H])c4C([H])([H])C([H])([H])C2([H])[H])C3([H])[H])c([H])c(N([H])C(=O)N2C([H])([H])C([H])([H])C([H])([H])C([H])(n3nc(-c4c([H])c([H])c(Oc5c([H])c([H])c(F)c([H])c5F)c([H])c4[H])c(C(=O)N([H])[H])c3N([H])[H])C2([H])[H])c1[H]

$$$$
11:0:0
     RDKit          3D

 94103  0  0  1  0  0  0  0  0999 V2000
  -28.6110  -23.0510   22.3700 C   0  0  0  0  0  0  0  0  0  0  0  0
  -29.9130  -22.2310   22.4310 C   0  0  0  0  0  2  0  0  0  0  0  0
  -27.9690  -23.3250   21.0080 C   0  0  0  0  0  2  0  0  0  0  0  0
  -30.6910  -22.0520   21.0950 C   0  0  0  0  0  2  0  0  0  0  0  0
  -29.0390  -23.4230   19.9180 C   0  0  0  0  0  3  0  0  0  0  0  0
  -29.8390  -22.0210   19.8960 N   0  0  0  0  0  0  0  0  0  0  0  0
  -28.0800  -23.4570   23.4070 O   0  0  0  0  0  0  0  0  0  0  0  0
  -30.4510  -19.3690   17.2400 C   0  0  0  0  0  3  0  0  0  0  0  0
  -30.1040  -20.5710   17.9080 C   0  0  0  0  0  3  0  0  0  0  0  0
  -30.6020  -18.1190   17.8920 C   0  0  0  0  0  3  0  0  0  0  0  0
  -29.9530  -19.2420   19.9370 C   0  0  0  0  0  0  0  0  0  0  0  0
  -29.8770  -20.6250   19.2970 C   0  0  0  0  0  0  0  0  0  0  0  0
  -30.3480  -17.9480   19.2690 C   0  0  0  0  0  0  0  0  0  0  0  0
  -29.5560  -19.0860   21.3940 C   0  0  0  0  0  1  0  0  0  0  0  0
  -31.1100  -15.2740   19.5370 C   0  0  0  0  0  0  0  0  0  0  0  0
  -30.9710  -12.8390   18.7890 C   0  0  0  0  0  2  0  0  0  0  0  0
  -29.9550  -12.6910   17.6290 C   0  0  0  0  0  2  0  0  0  0  0  0
  -28.5300  -12.4950   18.1770 C   0  0  0  0  0  2  0  0  0  0  0  0
  -28.1960  -13.4870   19.3210 C   0  0  0  0  0  3  0  0  0  0  0  0
  -29.3300  -13.5910   20.3650 C   0  0  0  0  0  2  0  0  0  0  0  0
  -30.5460  -13.9930   19.6450 N   0  0  0  0  0  0  0  0  0  0  0  0
  -32.2670  -15.3120   19.0980 O   0  0  0  0  0  0  0  0  0  0  0  0
  -30.3720  -16.4810   19.8180 N   0  0  0  0  0  0  0  0  0  0  0  0
  -29.5740  -16.2760   20.4000 H   0  0  0  0  0  0  0  0  0  0  0  0
  -25.9290  -14.1070   20.3280 C   0  0  0  0  0  0  0  0  0  0  0  0
  -24.8740  -13.3540   20.7620 C   0  0  0  0  0  0  0  0  0  0  0  0
  -25.2730  -11.9900   20.6110 C   0  0  0  0  0  0  0  0  0  0  0  0
  -26.9030  -13.2060   19.9340 N   0  0  0  0  0  0  0  0  0  0  0  0
  -26.5240  -11.9210   20.1700 N   0  0  0  0  0  0  0  0  0  0  0  0
  -24.5120  -10.7480   20.8050 C   0  0  0  0  0  0  0  0  0  0  0  0
  -24.8960   -9.7880   21.7670 C   0  0  0  0  0  3  0  0  0  0  0  0
  -24.1360   -8.6120   21.9490 C   0  0  0  0  0  3  0  0  0  0  0  0
  -22.9750   -8.3880   21.1690 C   0  0  0  0  0  0  0  0  0  0  0  0
  -22.6100   -9.3360   20.1980 C   0  0  0  0  0  3  0  0  0  0  0  0
  -23.3710  -10.5030   20.0140 C   0  0  0  0  0  3  0  0  0  0  0  0
  -22.1920   -7.2640   21.2590 O   0  0  0  0  0  0  0  0  0  0  0  0
  -21.9510   -6.6460   22.4600 C   0  0  0  0  0  0  0  0  0  0  0  0
  -21.3280   -7.3200   23.5340 C   0  0  0  0  0  3  0  0  0  0  0  0
  -21.0390   -6.6280   24.7270 C   0  0  0  0  0  3  0  0  0  0  0  0
  -21.3620   -5.2630   24.8470 C   0  0  0  0  0  0  0  0  0  0  0  0
  -21.9770   -4.5900   23.7770 C   0  0  0  0  0  3  0  0  0  0  0  0
  -22.2680   -5.2790   22.5870 C   0  0  0  0  0  0  0  0  0  0  0  0
  -22.8430   -4.6200   21.5520 F   0  0  0  0  0  0  0  0  0  0  0  0
  -21.0770   -4.5960   25.9890 F   0  0  0  0  0  0  0  0  0  0  0  0
  -23.5330  -13.8690   21.1950 C   0  0  0  0  0  0  0  0  0  0  0  0
  -22.8670  -13.1640   22.1040 N   0  0  0  0  0  0  0  0  0  0  0  0
  -23.0870  -14.9310   20.7620 O   0  0  0  0  0  0  0  0  0  0  0  0
  -23.2420  -12.3040   22.4760 H   0  0  0  0  0  0  0  0  0  0  0  0
  -21.9700  -13.4910   22.4340 H   0  0  0  0  0  0  0  0  0  0  0  0
  -26.1350  -15.4780   20.2110 N   0  0  0  0  0  0  0  0  0  0  0  0
  -25.4130  -16.1520   20.4440 H   0  0  0  0  0  0  0  0  0  0  0  0
  -26.9500  -15.9050   19.7880 H   0  0  0  0  0  0  0  0  0  0  0  0
  -28.6830  -24.6850   18.8190 C   0  0  0  0  0  2  0  0  0  0  0  0
  -28.6210  -26.2460   19.1430 O   0  0  0  0  0  0  0  0  0  0  0  0
  -24.7180  -31.3730   22.8070 C   0  0  0  0  0  0  0  0  0  0  0  0
  -27.4800  -27.1540   19.1900 C   0  0  0  0  0  0  0  0  0  0  0  0
  -23.5430  -30.0530   21.0900 C   0  0  0  0  0  3  0  0  0  0  0  0
  -25.0290  -28.7400   19.4400 C   0  0  0  0  0  0  0  0  0  0  0  0
  -26.0600  -30.5230   20.8380 C   0  0  0  0  0  2  0  0  0  0  0  0
  -26.2030  -29.2070   20.0440 C   0  0  0  0  0  0  0  0  0  0  0  0
  -27.4200  -28.4300   19.9040 C   0  0  0  0  0  3  0  0  0  0  0  0
  -26.2710  -26.8110   18.5490 C   0  0  0  0  0  3  0  0  0  0  0  0
  -25.0790  -27.5630   18.6750 C   0  0  0  0  0  3  0  0  0  0  0  0
  -23.7410  -29.5280   19.6400 C   0  0  0  0  0  2  0  0  0  0  0  0
  -24.7950  -30.6700   21.6340 N   0  0  0  0  0  0  0  0  0  0  0  0
  -23.6440  -31.5150   23.4110 O   0  0  0  0  0  0  0  0  0  0  0  0
  -22.9910  -28.9080   21.9770 C   0  0  0  0  0  0  0  0  0  0  0  0
  -21.6840  -28.6110   21.8590 N   0  0  0  0  0  0  0  0  0  0  0  0
  -23.7420  -28.2900   22.7360 O   0  0  0  0  0  0  0  0  0  0  0  0
  -21.1260  -29.1660   21.2260 H   0  0  0  0  0  0  0  0  0  0  0  0
  -18.4710  -26.9880   22.2750 C   0  0  0  0  0  0  0  0  0  0  0  0
  -20.9820  -27.5330   22.5620 C   0  0  0  0  0  3  0  0  0  0  0  0
  -21.2470  -26.1660   21.8910 C   0  0  0  0  0  2  0  0  0  0  0  0
  -20.1850  -25.7860   20.8540 C   0  0  0  0  0  2  0  0  0  0  0  0
  -18.8010  -25.7210   21.5050 C   0  0  0  0  0  2  0  0  0  0  0  0
  -19.4940  -27.8470   22.7580 C   0  0  0  0  0  0  0  0  0  0  0  0
  -19.1290  -29.0290   23.4400 C   0  0  0  0  0  3  0  0  0  0  0  0
  -17.7760  -29.3550   23.6420 C   0  0  0  0  0  3  0  0  0  0  0  0
  -16.7670  -28.4950   23.1760 C   0  0  0  0  0  3  0  0  0  0  0  0
  -17.1150  -27.3120   22.4980 C   0  0  0  0  0  3  0  0  0  0  0  0
  -25.9750  -32.0490   23.4390 C   0  0  0  0  0  3  0  0  0  0  0  0
  -25.5740  -33.3790   23.9270 N   0  0  0  0  0  0  0  0  0  0  0  0
  -25.8270  -34.5340   23.2970 C   0  0  0  0  0  0  0  0  0  0  0  0
  -26.4880  -34.5960   22.2580 O   0  0  0  0  0  0  0  0  0  0  0  0
  -24.9840  -33.3990   24.7450 H   0  0  0  0  0  0  0  0  0  0  0  0
  -23.9900  -36.2490   23.1630 C   0  0  0  0  0  1  0  0  0  0  0  0
  -25.2600  -35.8270   23.9190 C   0  0  0  0  0  3  0  0  0  0  0  0
  -27.3370  -36.7420   24.8580 C   0  0  0  0  0  1  0  0  0  0  0  0
  -26.2250  -36.9480   23.9330 N   0  0  0  0  0  0  0  0  0  0  0  0
  -25.7620  -37.8190   24.1810 H   0  0  0  0  0  0  0  0  0  0  0  0
  -26.6070  -31.2050   24.6130 C   0  0  1  0  0  0  0  0  0  0  0  0
  -25.5870  -30.7830   25.6970 C   0  0  0  0  0  1  0  0  0  0  0  0
  -27.2750  -29.9210   24.0720 C   0  0  0  0  0  1  0  0  0  0  0  0
  -27.7250  -32.0240   25.3030 C   0  0  0  0  0  1  0  0  0  0  0  0
  1  2  1  0
  1  7  2  0
  3  1  1  0
  4  2  1  0
  5 53  1  0
  5  3  1  0
  6  5  1  0
  6  4  1  0
  8 10  2  0
  8  9  1  0
  9 12  2  0
 10 13  1  0
 11 14  1  0
 12  6  1  0
 12 11  1  0
 13 23  1  0
 13 11  2  0
 15 21  1  0
 15 23  1  0
 16 21  1  0
 17 18  1  0
 17 16  1  0
 19 18  1  0
 19 28  1  0
 19 20  1  0
 21 20  1  0
 22 15  2  0
 23 24  1  0
 25 26  2  0
 26 45  1  0
 27 26  1  0
 27 30  1  0
 28 29  1  0
 28 25  1  0
 29 27  2  0
 30 31  1  0
 31 32  2  0
 33 36  1  0
 33 32  1  0
 34 33  2  0
 35 34  1  0
 35 30  2  0
 36 37  1  0
 37 42  2  0
 37 38  1  0
 38 39  2  0
 39 40  1  0
 40 44  1  0
 41 40  2  0
 42 41  1  0
 43 42  1  0
 45 46  1  0
 46 49  1  0
 46 48  1  0
 47 45  2  0
 50 25  1  0
 50 51  1  0
 52 50  1  0
 53 54  1  0
 54 56  1  0
 55 66  2  0
 56 61  1  0
 57 65  1  0
 57 67  1  0
 58 64  1  0
 58 60  1  0
 59 65  1  0
 60 59  1  0
 61 60  2  0
 62 63  1  0
 62 56  2  0
 63 58  2  0
 64 57  1  0
 65 55  1  0
 67 69  2  0
 68 67  1  0
 70 68  1  0
 71 80  2  0
 71 76  1  0
 72 68  1  0
 72 76  1  0
 73 72  1  0
 74 75  1  0
 74 73  1  0
 75 71  1  0
 76 77  2  0
 77 78  1  0
 79 78  2  0
 80 79  1  0
 81 55  1  0
 81 82  1  0
 81 91  1  0
 82 85  1  0
 83 87  1  0
 83 82  1  0
 84 83  2  0
 87 86  1  0
 87 89  1  0
 89 90  1  0
 89 88  1  0
 91 94  1  1
 91 92  1  0
 93 91  1  0
M  ISO  4  15 100  23 100  53 101  54 101
M  END
>  <TORSDO>  (12) 
F 18

>  <SCORE>  (12) 
-10.984

>  <name>  (12) 
11

>  <ligand_id>  (12) 
11

>  <original_smiles>  (12) 
[H]c1c([H])c(N([H])C(=O)N2C([H])([H])C([H])([H])C([H])([H])C([H])(n3nc(-c4c([H])c([H])c(Oc5c([H])c([H])c(F)c([H])c5F)c([H])c4[H])c(C(=O)N([H])[H])c3N([H])[H])C2([H])[H])c(C([H])([H])[H])c(N2C([H])([H])C([H])([H])C(=O)C([H])([H])C2([H])C([H])([H])Oc2c([H])c([H])c3c(c2[H])C([H])([H])N(C(=O)C([H])(N([H])C(=O)C([H])(N([H])C([H])([H])[H])C([H])([H])[H])C(C([H])([H])[H])(C([H])([H])[H])C([H])([H])[H])C([H])(C(=O)N([H])C2([H])c4c([H])c([H])c([H])c([H])c4C([H])([H])C([H])([H])C2([H])[H])C3([H])[H])c1[H]

>  <smiles>  (12) 
[H]c1c([H])c(N([H])C(=O)N2C([H])([H])C([H])([H])C([H])([H])C([H])(n3nc(-c4c([H])c([H])c(Oc5c([H])c([H])c(F)c([H])c5F)c([H])c4[H])c(C(=O)N([H])[H])c3N([H])[H])C2([H])[H])c(C([H])([H])[H])c(N2C([H])([H])C([H])([H])C(=O)C([H])([H])C2([H])C([H])([H])Oc2c([H])c([H])c3c(c2[H])C([H])([H])N(C(=O)C([H])(N([H])C(=O)C([H])(N([H])C([H])([H])[H])C([H])([H])[H])C(C([H])([H])[H])(C([H])([H])[H])C([H])([H])[H])C([H])(C(=O)N([H])C2([H])c4c([H])c([H])c([H])c([H])c4C([H])([H])C([H])([H])C2([H])[H])C3([H])[H])c1[H]

$$$$
12:0:0
     RDKit          3D

 95103  0  0  1  0  0  0  0  0999 V2000
  -31.1450  -19.3490   20.4470 C   0  0  0  0  0  3  0  0  0  0  0  0
  -28.7940  -19.4240   20.0270 C   0  0  0  0  0  3  0  0  0  0  0  0
  -29.9950  -20.1490   20.2160 C   0  0  0  0  0  0  0  0  0  0  0  0
  -31.1260  -17.9270   20.4960 C   0  0  0  0  0  0  0  0  0  0  0  0
  -28.7500  -17.9840   20.0770 C   0  0  0  0  0  0  0  0  0  0  0  0
  -29.9170  -17.1790   20.2940 C   0  0  0  0  0  0  0  0  0  0  0  0
  -30.0930  -21.6850   20.3710 C   0  0  0  0  0  0  0  0  0  0  0  0
  -29.2200  -22.5830   19.8180 N   0  0  0  0  0  0  0  0  0  0  0  0
  -31.0590  -22.1160   21.0050 O   0  0  0  0  0  0  0  0  0  0  0  0
  -28.4460  -22.2310   19.2730 H   0  0  0  0  0  0  0  0  0  0  0  0
  -29.3860  -24.0860   19.9560 C   0  0  0  0  0  3  0  0  0  0  0  0
  -28.2280  -25.0570   19.4680 C   0  0  0  0  0  3  0  0  0  0  0  0
  -28.3870  -26.5090   19.7250 O   0  0  0  0  0  0  0  0  0  0  0  0
  -24.5340  -31.6160   23.0550 C   0  0  0  0  0  0  0  0  0  0  0  0
  -27.2420  -27.3220   19.7200 C   0  0  0  0  0  0  0  0  0  0  0  0
  -23.3550  -30.2900   21.3370 C   0  0  0  0  0  3  0  0  0  0  0  0
  -24.8350  -28.8670   19.8130 C   0  0  0  0  0  0  0  0  0  0  0  0
  -25.8830  -30.6860   21.1620 C   0  0  0  0  0  2  0  0  0  0  0  0
  -25.9930  -29.3510   20.4330 C   0  0  0  0  0  0  0  0  0  0  0  0
  -27.1990  -28.5920   20.3760 C   0  0  0  0  0  3  0  0  0  0  0  0
  -26.0580  -26.8930   19.0780 C   0  0  0  0  0  3  0  0  0  0  0  0
  -24.8690  -27.6450   19.1270 C   0  0  0  0  0  3  0  0  0  0  0  0
  -23.5770  -29.7050   19.9170 C   0  0  0  0  0  2  0  0  0  0  0  0
  -24.6090  -30.8780   21.9080 N   0  0  0  0  0  0  0  0  0  0  0  0
  -23.4480  -31.8340   23.6100 O   0  0  0  0  0  0  0  0  0  0  0  0
  -22.7240  -29.2000   22.2370 C   0  0  0  0  0  0  0  0  0  0  0  0
  -21.3980  -29.0170   22.1230 N   0  0  0  0  0  0  0  0  0  0  0  0
  -23.4260  -28.5280   22.9960 O   0  0  0  0  0  0  0  0  0  0  0  0
  -20.8900  -29.6150   21.4870 H   0  0  0  0  0  0  0  0  0  0  0  0
  -18.0390  -27.7740   22.6300 C   0  0  0  0  0  0  0  0  0  0  0  0
  -20.6040  -28.0190   22.8430 C   0  0  0  0  0  3  0  0  0  0  0  0
  -20.6880  -26.6370   22.1550 C   0  0  0  0  0  2  0  0  0  0  0  0
  -19.5570  -26.3910   21.1520 C   0  0  0  0  0  2  0  0  0  0  0  0
  -18.1950  -26.4820   21.8460 C   0  0  0  0  0  2  0  0  0  0  0  0
  -19.1700  -28.5040   23.0850 C   0  0  0  0  0  0  0  0  0  0  0  0
  -18.9690  -29.7160   23.7800 C   0  0  0  0  0  3  0  0  0  0  0  0
  -17.6690  -30.1990   24.0240 C   0  0  0  0  0  3  0  0  0  0  0  0
  -16.5530  -29.4660   23.5850 C   0  0  0  0  0  3  0  0  0  0  0  0
  -16.7390  -28.2540   22.8940 C   0  0  0  0  0  3  0  0  0  0  0  0
  -25.8050  -32.2410   23.7070 C   0  0  0  0  0  3  0  0  0  0  0  0
  -25.4770  -33.6250   24.0820 N   0  0  0  0  0  0  0  0  0  0  0  0
  -25.7930  -34.7050   23.3560 C   0  0  0  0  0  0  0  0  0  0  0  0
  -26.4620  -34.6420   22.3200 O   0  0  0  0  0  0  0  0  0  0  0  0
  -24.8840  -33.7450   24.8890 H   0  0  0  0  0  0  0  0  0  0  0  0
  -24.0340  -36.4800   23.0710 C   0  0  0  0  0  1  0  0  0  0  0  0
  -25.2900  -36.0720   23.8580 C   0  0  0  0  0  3  0  0  0  0  0  0
  -27.4170  -36.9680   24.6940 C   0  0  0  0  0  1  0  0  0  0  0  0
  -26.3030  -37.1450   23.7650 N   0  0  0  0  0  0  0  0  0  0  0  0
  -25.8840  -38.0530   23.9420 H   0  0  0  0  0  0  0  0  0  0  0  0
  -26.3190  -31.4330   24.9620 C   0  0  1  0  0  0  0  0  0  0  0  0
  -25.2220  -31.1570   26.0160 C   0  0  0  0  0  1  0  0  0  0  0  0
  -26.9110  -30.0710   24.5300 C   0  0  0  0  0  1  0  0  0  0  0  0
  -27.4620  -32.2120   25.6550 C   0  0  0  0  0  1  0  0  0  0  0  0
  -32.3410  -17.3270   20.8150 N   0  0  0  0  0  0  0  0  0  0  0  0
  -32.4180  -16.3330   20.5760 H   0  0  0  0  0  0  0  0  0  0  0  0
  -33.1900  -17.8390   20.6030 H   0  0  0  0  0  0  0  0  0  0  0  0
  -26.3500  -18.0330   20.0050 C   0  0  0  0  0  1  0  0  0  0  0  0
  -27.5640  -17.2900   19.9520 O   0  0  0  0  0  0  0  0  0  0  0  0
  -29.7250  -15.7620   20.3300 O   0  0  0  0  0  0  0  0  0  0  0  0
  -30.5440  -14.6890   19.8520 C   0  0  0  0  0  0  0  0  0  0  0  0
  -30.2920  -12.3490   18.9730 C   0  0  0  0  0  2  0  0  0  0  0  0
  -29.2920  -12.3890   17.7960 C   0  0  0  0  0  2  0  0  0  0  0  0
  -27.8500  -12.2200   18.3100 C   0  0  0  0  0  2  0  0  0  0  0  0
  -27.5260  -13.1540   19.5090 C   0  0  0  0  0  3  0  0  0  0  0  0
  -28.6390  -13.1310   20.5790 C   0  0  0  0  0  2  0  0  0  0  0  0
  -29.9120  -13.4200   19.9160 N   0  0  0  0  0  0  0  0  0  0  0  0
  -31.6400  -14.8280   19.3100 O   0  0  0  0  0  0  0  0  0  0  0  0
  -25.1980  -13.7270   20.4230 C   0  0  0  0  0  0  0  0  0  0  0  0
  -24.1590  -12.9470   20.8500 C   0  0  0  0  0  0  0  0  0  0  0  0
  -24.6110  -11.5960   20.7420 C   0  0  0  0  0  0  0  0  0  0  0  0
  -26.2180  -12.8540   20.0840 N   0  0  0  0  0  0  0  0  0  0  0  0
  -25.8750  -11.5640   20.3350 N   0  0  0  0  0  0  0  0  0  0  0  0
  -23.8930  -10.3320   20.9480 C   0  0  0  0  0  0  0  0  0  0  0  0
  -24.3630   -9.3520   21.8510 C   0  0  0  0  0  3  0  0  0  0  0  0
  -23.6430   -8.1540   22.0450 C   0  0  0  0  0  3  0  0  0  0  0  0
  -22.4380   -7.9270   21.3390 C   0  0  0  0  0  0  0  0  0  0  0  0
  -21.9870   -8.8950   20.4240 C   0  0  0  0  0  3  0  0  0  0  0  0
  -22.7070  -10.0850   20.2270 C   0  0  0  0  0  3  0  0  0  0  0  0
  -21.6850   -6.7820   21.4440 O   0  0  0  0  0  0  0  0  0  0  0  0
  -21.6430   -6.0520   22.6060 C   0  0  0  0  0  0  0  0  0  0  0  0
  -21.2190   -6.6210   23.8270 C   0  0  0  0  0  3  0  0  0  0  0  0
  -21.1240   -5.8180   24.9810 C   0  0  0  0  0  3  0  0  0  0  0  0
  -21.4450   -4.4490   24.9160 C   0  0  0  0  0  0  0  0  0  0  0  0
  -21.8620   -3.8800   23.7000 C   0  0  0  0  0  3  0  0  0  0  0  0
  -21.9580   -4.6800   22.5470 C   0  0  0  0  0  0  0  0  0  0  0  0
  -22.3420   -4.1230   21.3730 F   0  0  0  0  0  0  0  0  0  0  0  0
  -21.3460   -3.6750   26.0230 F   0  0  0  0  0  0  0  0  0  0  0  0
  -22.7920  -13.4230   21.2480 C   0  0  0  0  0  0  0  0  0  0  0  0
  -22.1390  -12.7130   22.1620 N   0  0  0  0  0  0  0  0  0  0  0  0
  -22.3150  -14.4570   20.7830 O   0  0  0  0  0  0  0  0  0  0  0  0
  -22.5400  -11.8760   22.5580 H   0  0  0  0  0  0  0  0  0  0  0  0
  -21.2250  -13.0110   22.4700 H   0  0  0  0  0  0  0  0  0  0  0  0
  -25.3540  -15.1010   20.2760 N   0  0  0  0  0  0  0  0  0  0  0  0
  -24.6080  -15.7530   20.4890 H   0  0  0  0  0  0  0  0  0  0  0  0
  -26.2200  -15.5560   20.0120 H   0  0  0  0  0  0  0  0  0  0  0  0
  1  4  1  0
  2  5  2  0
  2  3  1  0
  3  7  1  0
  3  1  2  0
  4 54  1  0
  5  6  1  0
  6 59  1  0
  6  4  2  0
  7  9  2  0
  8 11  1  0
  8  7  1  0
 10  8  1  0
 12 13  1  0
 12 11  2  0
 14 25  2  0
 15 13  1  0
 15 20  1  0
 16 24  1  0
 16 26  1  0
 17 23  1  0
 17 19  1  0
 18 24  1  0
 19 18  1  0
 20 19  2  0
 21 22  1  0
 21 15  2  0
 22 17  2  0
 23 16  1  0
 24 14  1  0
 26 28  2  0
 27 26  1  0
 29 27  1  0
 30 39  2  0
 30 35  1  0
 31 27  1  0
 31 35  1  0
 32 31  1  0
 33 34  1  0
 33 32  1  0
 34 30  1  0
 35 36  2  0
 36 37  1  0
 38 37  2  0
 39 38  1  0
 40 14  1  0
 40 41  1  0
 40 50  1  0
 41 44  1  0
 42 46  1  0
 42 41  1  0
 43 42  2  0
 46 45  1  0
 48 46  1  0
 48 49  1  0
 48 47  1  0
 50 53  1  1
 50 51  1  0
 52 50  1  0
 55 54  1  0
 56 54  1  0
 58 57  1  0
 58  5  1  0
 60 66  1  0
 60 59  1  0
 61 66  1  0
 62 63  1  0
 62 61  1  0
 64 63  1  0
 64 71  1  0
 64 65  1  0
 66 65  1  0
 67 60  2  0
 68 69  2  0
 69 88  1  0
 70 69  1  0
 70 73  1  0
 71 72  1  0
 71 68  1  0
 72 70  2  0
 73 74  1  0
 74 75  2  0
 76 79  1  0
 76 75  1  0
 77 76  2  0
 78 77  1  0
 78 73  2  0
 79 80  1  0
 80 81  1  0
 81 82  2  0
 83 82  1  0
 83 87  1  0
 84 83  2  0
 85 80  2  0
 85 84  1  0
 86 85  1  0
 88 89  1  0
 89 92  1  0
 89 91  1  0
 90 88  2  0
 93 68  1  0
 93 94  1  0
 95 93  1  0
M  ISO  4  12 101  13 101  59 100  60 100
M  END
>  <TORSDO>  (13) 
F 22

>  <SCORE>  (13) 
-12.844

>  <name>  (13) 
12

>  <ligand_id>  (13) 
12

>  <original_smiles>  (13) 
[H]c1c([H])c([H])c2c(c1[H])C([H])([H])C([H])([H])C([H])([H])C2([H])N([H])C(=O)C1([H])N(C(=O)C([H])(N([H])C(=O)C([H])(N([H])C([H])([H])[H])C([H])([H])[H])C(C([H])([H])[H])(C([H])([H])[H])C([H])([H])[H])C([H])([H])c2c([H])c(OC([H])([H])C([H])([H])N([H])C(=O)c3c([H])c(OC([H])([H])[H])c(OC(=O)N4C([H])([H])C([H])([H])C([H])([H])C([H])(n5nc(-c6c([H])c([H])c(Oc7c([H])c([H])c(F)c([H])c7F)c([H])c6[H])c(C(=O)N([H])[H])c5N([H])[H])C4([H])[H])c(N([H])[H])c3[H])c([H])c([H])c2C1([H])[H]

>  <smiles>  (13) 
[H]c1c([H])c([H])c2c(c1[H])C([H])([H])C([H])([H])C([H])([H])C2([H])N([H])C(=O)C1([H])N(C(=O)C([H])(N([H])C(=O)C([H])(N([H])C([H])([H])[H])C([H])([H])[H])C(C([H])([H])[H])(C([H])([H])[H])C([H])([H])[H])C([H])([H])c2c([H])c(OC([H])([H])C([H])([H])N([H])C(=O)c3c([H])c(OC([H])([H])[H])c(OC(=O)N4C([H])([H])C([H])([H])C([H])([H])C([H])(n5nc(-c6c([H])c([H])c(Oc7c([H])c([H])c(F)c([H])c7F)c([H])c6[H])c(C(=O)N([H])[H])c5N([H])[H])C4([H])[H])c(N([H])[H])c3[H])c([H])c([H])c2C1([H])[H]

$$$$
13:0:0
     RDKit          3D

 95103  0  0  1  0  0  0  0  0999 V2000
  -32.1190  -18.2490   21.6960 C   0  0  0  0  0  3  0  0  0  0  0  0
  -29.6010  -19.1230   20.8040 C   0  0  0  0  0  3  0  0  0  0  0  0
  -31.0970  -17.3030   21.4820 C   0  0  0  0  0  0  0  0  0  0  0  0
  -29.8250  -17.7430   21.0260 C   0  0  0  0  0  0  0  0  0  0  0  0
  -31.8840  -19.6180   21.4880 C   0  0  0  0  0  0  0  0  0  0  0  0
  -30.6210  -20.0720   21.0540 C   0  0  0  0  0  0  0  0  0  0  0  0
  -28.6740  -16.7720   20.7990 C   0  0  0  0  0  1  0  0  0  0  0  0
  -32.9010  -20.5390   21.7280 N   0  0  0  0  0  0  0  0  0  0  0  0
  -33.5890  -20.3060   22.4370 H   0  0  0  0  0  0  0  0  0  0  0  0
  -32.5970  -21.5080   21.7820 H   0  0  0  0  0  0  0  0  0  0  0  0
  -31.4100  -15.8500   21.8270 C   0  0  0  0  0  2  0  0  0  0  0  0
  -30.8190  -14.2640   19.9860 C   0  0  0  0  0  0  0  0  0  0  0  0
  -30.3070  -12.2290   18.6810 C   0  0  0  0  0  2  0  0  0  0  0  0
  -29.2580  -12.4610   17.5800 C   0  0  0  0  0  2  0  0  0  0  0  0
  -27.8320  -12.3280   18.1440 C   0  0  0  0  0  2  0  0  0  0  0  0
  -27.6250  -13.1650   19.4320 C   0  0  0  0  0  3  0  0  0  0  0  0
  -28.7570  -12.8910   20.4420 C   0  0  0  0  0  2  0  0  0  0  0  0
  -30.0500  -13.1670   19.7820 N   0  0  0  0  0  0  0  0  0  0  0  0
  -31.7400  -14.6100   19.2360 O   0  0  0  0  0  0  0  0  0  0  0  0
  -30.5840  -14.8590   21.1570 N   0  0  0  0  0  0  0  0  0  0  0  0
  -29.8320  -14.4630   21.7000 H   0  0  0  0  0  0  0  0  0  0  0  0
  -25.3230  -13.8230   20.3850 C   0  0  0  0  0  0  0  0  0  0  0  0
  -24.2680  -13.0710   20.8250 C   0  0  0  0  0  0  0  0  0  0  0  0
  -24.6760  -11.7080   20.6970 C   0  0  0  0  0  0  0  0  0  0  0  0
  -26.3110  -12.9200   20.0230 N   0  0  0  0  0  0  0  0  0  0  0  0
  -25.9280  -11.6410   20.2640 N   0  0  0  0  0  0  0  0  0  0  0  0
  -23.9280  -10.4620   20.9080 C   0  0  0  0  0  0  0  0  0  0  0  0
  -24.3810   -9.4710   21.8070 C   0  0  0  0  0  3  0  0  0  0  0  0
  -23.6370   -8.2890   22.0030 C   0  0  0  0  0  3  0  0  0  0  0  0
  -22.4240   -8.0890   21.3010 C   0  0  0  0  0  0  0  0  0  0  0  0
  -21.9890   -9.0680   20.3900 C   0  0  0  0  0  3  0  0  0  0  0  0
  -22.7350  -10.2410   20.1920 C   0  0  0  0  0  3  0  0  0  0  0  0
  -21.6460   -6.9610   21.4100 O   0  0  0  0  0  0  0  0  0  0  0  0
  -21.5910   -6.2330   22.5730 C   0  0  0  0  0  0  0  0  0  0  0  0
  -21.1720   -6.8090   23.7920 C   0  0  0  0  0  3  0  0  0  0  0  0
  -21.0640   -6.0080   24.9470 C   0  0  0  0  0  3  0  0  0  0  0  0
  -21.3650   -4.6340   24.8840 C   0  0  0  0  0  0  0  0  0  0  0  0
  -21.7770   -4.0590   23.6690 C   0  0  0  0  0  3  0  0  0  0  0  0
  -21.8870   -4.8570   22.5150 C   0  0  0  0  0  0  0  0  0  0  0  0
  -22.2640   -4.2940   21.3430 F   0  0  0  0  0  0  0  0  0  0  0  0
  -21.2540   -3.8640   25.9900 F   0  0  0  0  0  0  0  0  0  0  0  0
  -22.9200  -13.5780   21.2480 C   0  0  0  0  0  0  0  0  0  0  0  0
  -22.2640  -12.8800   22.1680 N   0  0  0  0  0  0  0  0  0  0  0  0
  -22.4620  -14.6270   20.7980 O   0  0  0  0  0  0  0  0  0  0  0  0
  -22.6500  -12.0300   22.5510 H   0  0  0  0  0  0  0  0  0  0  0  0
  -21.3650  -13.2010   22.4960 H   0  0  0  0  0  0  0  0  0  0  0  0
  -25.5200  -15.1940   20.2450 N   0  0  0  0  0  0  0  0  0  0  0  0
  -24.7910  -15.8690   20.4500 H   0  0  0  0  0  0  0  0  0  0  0  0
  -26.3510  -15.6160   19.8500 H   0  0  0  0  0  0  0  0  0  0  0  0
  -30.4770  -21.4380   20.9390 O   0  0  0  0  0  0  0  0  0  0  0  0
  -29.2230  -22.0070   20.5880 C   0  0  0  0  0  2  0  0  0  0  0  0
  -29.3920  -23.5130   20.8560 C   0  0  0  0  0  2  0  0  0  0  0  0
  -28.3260  -24.4330   20.2390 C   0  0  0  0  0  2  0  0  0  0  0  0
  -28.5960  -25.9130   20.5810 C   0  0  0  0  0  2  0  0  0  0  0  0
  -28.2180  -26.7560   19.5010 O   0  0  0  0  0  0  0  0  0  0  0  0
  -24.5950  -31.7210   23.1210 C   0  0  0  0  0  0  0  0  0  0  0  0
  -27.0640  -27.4700   19.6770 C   0  0  0  0  0  0  0  0  0  0  0  0
  -23.3110  -30.4430   21.4340 C   0  0  0  0  0  3  0  0  0  0  0  0
  -24.6920  -28.9760   19.8730 C   0  0  0  0  0  0  0  0  0  0  0  0
  -25.8300  -30.7840   21.1730 C   0  0  0  0  0  2  0  0  0  0  0  0
  -25.8730  -29.4530   20.4570 C   0  0  0  0  0  0  0  0  0  0  0  0
  -27.0640  -28.7020   20.3650 C   0  0  0  0  0  3  0  0  0  0  0  0
  -25.8730  -26.9980   19.0920 C   0  0  0  0  0  3  0  0  0  0  0  0
  -24.6840  -27.7440   19.1940 C   0  0  0  0  0  3  0  0  0  0  0  0
  -23.4620  -29.8460   20.0110 C   0  0  0  0  0  2  0  0  0  0  0  0
  -24.5990  -30.9940   21.9680 N   0  0  0  0  0  0  0  0  0  0  0  0
  -23.5370  -31.9750   23.7140 O   0  0  0  0  0  0  0  0  0  0  0  0
  -22.6770  -29.3730   22.3520 C   0  0  0  0  0  0  0  0  0  0  0  0
  -21.3450  -29.2280   22.2650 N   0  0  0  0  0  0  0  0  0  0  0  0
  -23.3770  -28.6800   23.0930 O   0  0  0  0  0  0  0  0  0  0  0  0
  -20.8420  -29.8420   21.6410 H   0  0  0  0  0  0  0  0  0  0  0  0
  -17.9660  -28.0670   22.8020 C   0  0  0  0  0  0  0  0  0  0  0  0
  -20.5360  -28.2590   23.0020 C   0  0  0  0  0  3  0  0  0  0  0  0
  -20.5910  -26.8650   22.3320 C   0  0  0  0  0  2  0  0  0  0  0  0
  -19.4500  -26.6290   21.3370 C   0  0  0  0  0  2  0  0  0  0  0  0
  -18.0910  -26.7600   22.0350 C   0  0  0  0  0  2  0  0  0  0  0  0
  -19.1140  -28.7780   23.2400 C   0  0  0  0  0  0  0  0  0  0  0  0
  -18.9420  -30.0060   23.9150 C   0  0  0  0  0  3  0  0  0  0  0  0
  -17.6550  -30.5210   24.1570 C   0  0  0  0  0  3  0  0  0  0  0  0
  -16.5210  -29.8040   23.7340 C   0  0  0  0  0  3  0  0  0  0  0  0
  -16.6790  -28.5790   23.0610 C   0  0  0  0  0  3  0  0  0  0  0  0
  -25.9120  -32.2900   23.7350 C   0  0  0  0  0  3  0  0  0  0  0  0
  -25.6480  -33.6790   24.1360 N   0  0  0  0  0  0  0  0  0  0  0  0
  -25.9960  -34.7560   23.4190 C   0  0  0  0  0  0  0  0  0  0  0  0
  -26.6460  -34.6820   22.3710 O   0  0  0  0  0  0  0  0  0  0  0  0
  -25.0720  -33.8120   24.9550 H   0  0  0  0  0  0  0  0  0  0  0  0
  -24.3040  -36.6010   23.1850 C   0  0  0  0  0  1  0  0  0  0  0  0
  -25.5540  -36.1330   23.9480 C   0  0  0  0  0  3  0  0  0  0  0  0
  -27.7270  -36.9310   24.7680 C   0  0  0  0  0  1  0  0  0  0  0  0
  -26.6080  -37.1650   23.8570 N   0  0  0  0  0  0  0  0  0  0  0  0
  -26.2270  -38.0880   24.0510 H   0  0  0  0  0  0  0  0  0  0  0  0
  -26.4440  -31.4470   24.9580 C   0  0  1  0  0  0  0  0  0  0  0  0
  -25.3790  -31.1930   26.0490 C   0  0  0  0  0  1  0  0  0  0  0  0
  -26.9720  -30.0730   24.4830 C   0  0  0  0  0  1  0  0  0  0  0  0
  -27.6400  -32.1760   25.6160 C   0  0  0  0  0  1  0  0  0  0  0  0
  2  4  2  0
  2  6  1  0
  3  1  2  0
  3 11  1  0
  4  3  1  0
  5  1  1  0
  5  8  1  0
  6  5  2  0
  7  4  1  0
  8 10  1  0
  8  9  1  0
 12 20  1  0
 13 18  1  0
 14 15  1  0
 14 13  1  0
 16 15  1  0
 16 25  1  0
 16 17  1  0
 18 12  1  0
 18 17  1  0
 19 12  2  0
 20 21  1  0
 20 11  1  0
 22 23  2  0
 23 42  1  0
 24 23  1  0
 24 27  1  0
 25 26  1  0
 25 22  1  0
 26 24  2  0
 27 28  1  0
 28 29  2  0
 30 33  1  0
 30 29  1  0
 31 30  2  0
 32 31  1  0
 32 27  2  0
 33 34  1  0
 34 35  1  0
 35 36  2  0
 37 36  1  0
 37 41  1  0
 38 37  2  0
 39 34  2  0
 39 38  1  0
 40 39  1  0
 42 43  1  0
 43 46  1  0
 43 45  1  0
 44 42  2  0
 47 22  1  0
 47 48  1  0
 49 47  1  0
 50  6  1  0
 51 52  1  0
 51 50  1  0
 53 54  1  0
 53 52  1  0
 55 57  1  0
 55 54  1  0
 56 67  2  0
 57 62  1  0
 58 66  1  0
 58 68  1  0
 59 65  1  0
 59 61  1  0
 60 66  1  0
 61 60  1  0
 62 61  2  0
 63 64  1  0
 63 57  2  0
 64 59  2  0
 65 58  1  0
 66 56  1  0
 68 70  2  0
 69 68  1  0
 71 69  1  0
 72 81  2  0
 72 77  1  0
 73 69  1  0
 73 77  1  0
 74 73  1  0
 75 76  1  0
 75 74  1  0
 76 72  1  0
 77 78  2  0
 78 79  1  0
 80 79  2  0
 81 80  1  0
 82 56  1  0
 82 83  1  0
 82 92  1  0
 83 86  1  0
 84 88  1  0
 84 83  1  0
 85 84  2  0
 88 87  1  0
 90 88  1  0
 90 91  1  0
 90 89  1  0
 92 95  1  1
 92 93  1  0
 94 92  1  0
M  ISO  4  12 100  20 100  54 101  55 101
M  END
>  <TORSDO>  (14) 
F 23

>  <SCORE>  (14) 
-12.232

>  <name>  (14) 
13

>  <ligand_id>  (14) 
13

>  <original_smiles>  (14) 
[H]c1c([H])c([H])c2c(c1[H])C([H])([H])C([H])([H])C([H])([H])C2([H])N([H])C(=O)C1([H])N(C(=O)C([H])(N([H])C(=O)C([H])(N([H])C([H])([H])[H])C([H])([H])[H])C(C([H])([H])[H])(C([H])([H])[H])C([H])([H])[H])C([H])([H])c2c([H])c(OC([H])([H])C([H])([H])C([H])([H])C([H])([H])Oc3c([H])c(C([H])([H])[H])c(C([H])([H])N([H])C(=O)N4C([H])([H])C([H])([H])C([H])([H])C([H])(n5nc(-c6c([H])c([H])c(Oc7c([H])c([H])c(F)c([H])c7F)c([H])c6[H])c(C(=O)N([H])[H])c5N([H])[H])C4([H])[H])c([H])c3N([H])[H])c([H])c([H])c2C1([H])[H]

>  <smiles>  (14) 
[H]c1c([H])c([H])c2c(c1[H])C([H])([H])C([H])([H])C([H])([H])C2([H])N([H])C(=O)C1([H])N(C(=O)C([H])(N([H])C(=O)C([H])(N([H])C([H])([H])[H])C([H])([H])[H])C(C([H])([H])[H])(C([H])([H])[H])C([H])([H])[H])C([H])([H])c2c([H])c(OC([H])([H])C([H])([H])C([H])([H])C([H])([H])Oc3c([H])c(C([H])([H])[H])c(C([H])([H])N([H])C(=O)N4C([H])([H])C([H])([H])C([H])([H])C([H])(n5nc(-c6c([H])c([H])c(Oc7c([H])c([H])c(F)c([H])c7F)c([H])c6[H])c(C(=O)N([H])[H])c5N([H])[H])C4([H])[H])c([H])c3N([H])[H])c([H])c([H])c2C1([H])[H]

$$$$
14:0:0
     RDKit          3D

 91 99  0  0  1  0  0  0  0  0999 V2000
  -29.8380  -19.2920   22.7170 C   0  0  0  0  0  3  0  0  0  0  0  0
  -30.1450  -18.1540   21.9440 C   0  0  0  0  0  3  0  0  0  0  0  0
  -29.8080  -20.5740   22.1320 C   0  0  0  0  0  3  0  0  0  0  0  0
  -30.4200  -19.5910   20.0010 C   0  0  0  0  0  3  0  0  0  0  0  0
  -30.4300  -18.2880   20.5670 C   0  0  0  0  0  0  0  0  0  0  0  0
  -30.0960  -20.7430   20.7550 C   0  0  0  0  0  0  0  0  0  0  0  0
  -29.9250  -17.0750   18.3880 C   0  0  0  0  0  1  0  0  0  0  0  0
  -30.7600  -17.0680   19.6850 C   0  0  0  0  0  3  0  0  0  0  0  0
  -31.3220  -14.6580   20.0030 C   0  0  0  0  0  0  0  0  0  0  0  0
  -30.9110  -12.4970   18.9110 C   0  0  0  0  0  2  0  0  0  0  0  0
  -29.9180  -12.7420   17.7530 C   0  0  0  0  0  2  0  0  0  0  0  0
  -28.4630  -12.6480   18.2560 C   0  0  0  0  0  2  0  0  0  0  0  0
  -28.2140  -13.4880   19.5390 C   0  0  0  0  0  3  0  0  0  0  0  0
  -29.3210  -13.2400   20.5920 C   0  0  0  0  0  2  0  0  0  0  0  0
  -30.6240  -13.4900   19.9570 N   0  0  0  0  0  0  0  0  0  0  0  0
  -32.4560  -14.7760   19.5340 O   0  0  0  0  0  0  0  0  0  0  0  0
  -30.5870  -15.7430   20.3160 N   0  0  0  0  0  0  0  0  0  0  0  0
  -29.6800  -15.5540   20.7150 H   0  0  0  0  0  0  0  0  0  0  0  0
  -25.8960  -14.1620   20.4330 C   0  0  0  0  0  0  0  0  0  0  0  0
  -24.8140  -13.4180   20.8230 C   0  0  0  0  0  0  0  0  0  0  0  0
  -25.2060  -12.0510   20.6880 C   0  0  0  0  0  0  0  0  0  0  0  0
  -26.8800  -13.2490   20.0850 N   0  0  0  0  0  0  0  0  0  0  0  0
  -26.4710  -11.9710   20.2950 N   0  0  0  0  0  0  0  0  0  0  0  0
  -24.4290  -10.8160   20.8500 C   0  0  0  0  0  0  0  0  0  0  0  0
  -24.7990   -9.8320   21.7930 C   0  0  0  0  0  3  0  0  0  0  0  0
  -24.0300   -8.6580   21.9440 C   0  0  0  0  0  3  0  0  0  0  0  0
  -22.8740   -8.4610   21.1510 C   0  0  0  0  0  0  0  0  0  0  0  0
  -22.5220   -9.4330   20.1960 C   0  0  0  0  0  3  0  0  0  0  0  0
  -23.2920  -10.5980   20.0450 C   0  0  0  0  0  3  0  0  0  0  0  0
  -22.0780   -7.3420   21.2120 O   0  0  0  0  0  0  0  0  0  0  0  0
  -21.8610   -6.6770   22.3920 C   0  0  0  0  0  0  0  0  0  0  0  0
  -21.2560   -7.3070   23.5000 C   0  0  0  0  0  3  0  0  0  0  0  0
  -20.9870   -6.5660   24.6690 C   0  0  0  0  0  3  0  0  0  0  0  0
  -21.3130   -5.1980   24.7270 C   0  0  0  0  0  0  0  0  0  0  0  0
  -21.9090   -4.5680   23.6220 C   0  0  0  0  0  3  0  0  0  0  0  0
  -22.1800   -5.3060   22.4560 C   0  0  0  0  0  0  0  0  0  0  0  0
  -22.7370   -4.6890   21.3850 F   0  0  0  0  0  0  0  0  0  0  0  0
  -21.0470   -4.4850   25.8470 F   0  0  0  0  0  0  0  0  0  0  0  0
  -23.4610  -13.9410   21.2090 C   0  0  0  0  0  0  0  0  0  0  0  0
  -22.7600  -13.2390   22.0920 N   0  0  0  0  0  0  0  0  0  0  0  0
  -23.0380  -15.0070   20.7640 O   0  0  0  0  0  0  0  0  0  0  0  0
  -23.1170  -12.3750   22.4740 H   0  0  0  0  0  0  0  0  0  0  0  0
  -21.8510  -13.5680   22.3870 H   0  0  0  0  0  0  0  0  0  0  0  0
  -26.1170  -15.5310   20.3260 N   0  0  0  0  0  0  0  0  0  0  0  0
  -25.3910  -16.2090   20.5290 H   0  0  0  0  0  0  0  0  0  0  0  0
  -26.9580  -15.9540   19.9570 H   0  0  0  0  0  0  0  0  0  0  0  0
  -30.0880  -21.9670   20.0970 O   0  0  0  0  0  0  0  0  0  0  0  0
  -29.6260  -23.1340   20.7940 C   0  0  0  0  0  2  0  0  0  0  0  0
  -29.5120  -24.3720   19.8580 C   0  0  0  0  0  2  0  0  0  0  0  0
  -28.8260  -25.5810   20.5450 C   0  0  0  0  0  2  0  0  0  0  0  0
  -28.8100  -26.7910   19.7610 O   0  0  0  0  0  0  0  0  0  0  0  0
  -24.6160  -31.5530   23.0270 C   0  0  0  0  0  0  0  0  0  0  0  0
  -27.6080  -27.4670   19.7810 C   0  0  0  0  0  0  0  0  0  0  0  0
  -23.5380  -30.1650   21.2890 C   0  0  0  0  0  3  0  0  0  0  0  0
  -25.1190  -28.8080   19.8130 C   0  0  0  0  0  0  0  0  0  0  0  0
  -26.0360  -30.7050   21.1610 C   0  0  0  0  0  2  0  0  0  0  0  0
  -26.2280  -29.3810   20.4480 C   0  0  0  0  0  0  0  0  0  0  0  0
  -27.4810  -28.7220   20.4230 C   0  0  0  0  0  3  0  0  0  0  0  0
  -26.4810  -26.9090   19.1410 C   0  0  0  0  0  3  0  0  0  0  0  0
  -25.2390  -27.5720   19.1550 C   0  0  0  0  0  3  0  0  0  0  0  0
  -23.8160  -29.5780   19.8790 C   0  0  0  0  0  2  0  0  0  0  0  0
  -24.7460  -30.8210   21.8850 N   0  0  0  0  0  0  0  0  0  0  0  0
  -23.5110  -31.7200   23.5600 O   0  0  0  0  0  0  0  0  0  0  0  0
  -22.9410  -29.0520   22.1810 C   0  0  0  0  0  0  0  0  0  0  0  0
  -21.6320  -28.7910   22.0220 N   0  0  0  0  0  0  0  0  0  0  0  0
  -23.6530  -28.4270   22.9710 O   0  0  0  0  0  0  0  0  0  0  0  0
  -21.1150  -29.3520   21.3590 H   0  0  0  0  0  0  0  0  0  0  0  0
  -18.3260  -27.3960   22.4370 C   0  0  0  0  0  0  0  0  0  0  0  0
  -20.8690  -27.7620   22.7260 C   0  0  0  0  0  3  0  0  0  0  0  0
  -21.0430  -26.3820   22.0470 C   0  0  0  0  0  2  0  0  0  0  0  0
  -19.9540  -26.0780   21.0150 C   0  0  0  0  0  2  0  0  0  0  0  0
  -18.5680  -26.1090   21.6670 C   0  0  0  0  0  2  0  0  0  0  0  0
  -19.4070  -28.1800   22.9190 C   0  0  0  0  0  0  0  0  0  0  0  0
  -19.1270  -29.3900   23.5940 C   0  0  0  0  0  3  0  0  0  0  0  0
  -17.8000  -29.8110   23.7960 C   0  0  0  0  0  3  0  0  0  0  0  0
  -16.7340  -29.0220   23.3310 C   0  0  0  0  0  3  0  0  0  0  0  0
  -16.9980  -27.8160   22.6560 C   0  0  0  0  0  3  0  0  0  0  0  0
  -25.8450  -32.2370   23.7060 C   0  0  0  0  0  3  0  0  0  0  0  0
  -25.4580  -33.6120   24.0410 N   0  0  0  0  0  0  0  0  0  0  0  0
  -25.7780  -34.6930   23.3150 C   0  0  0  0  0  0  0  0  0  0  0  0
  -26.5010  -34.6390   22.3170 O   0  0  0  0  0  0  0  0  0  0  0  0
  -24.8230  -33.7260   24.8180 H   0  0  0  0  0  0  0  0  0  0  0  0
  -23.9910  -36.4110   22.8980 C   0  0  0  0  0  1  0  0  0  0  0  0
  -25.2040  -36.0490   23.7690 C   0  0  0  0  0  3  0  0  0  0  0  0
  -27.2430  -37.0140   24.7380 C   0  0  0  0  0  1  0  0  0  0  0  0
  -26.1920  -37.1500   23.7320 N   0  0  0  0  0  0  0  0  0  0  0  0
  -25.7380  -38.0480   23.8660 H   0  0  0  0  0  0  0  0  0  0  0  0
  -26.3520  -31.4700   24.9900 C   0  0  1  0  0  0  0  0  0  0  0  0
  -25.2300  -31.1580   26.0050 C   0  0  0  0  0  1  0  0  0  0  0  0
  -27.0240  -30.1340   24.6000 C   0  0  0  0  0  1  0  0  0  0  0  0
  -27.4310  -32.3120   25.7110 C   0  0  0  0  0  1  0  0  0  0  0  0
  2  1  2  0
  3  1  1  0
  4  5  2  0
  4  6  1  0
  5  2  1  0
  6  3  2  0
  8  7  1  0
  8 17  1  0
  8  5  1  0
  9 17  1  0
 10 15  1  0
 11 12  1  0
 11 10  1  0
 13 12  1  0
 13 22  1  0
 13 14  1  0
 15  9  1  0
 15 14  1  0
 16  9  2  0
 17 18  1  0
 19 20  2  0
 20 39  1  0
 21 20  1  0
 21 24  1  0
 22 23  1  0
 22 19  1  0
 23 21  2  0
 24 25  1  0
 25 26  2  0
 27 30  1  0
 27 26  1  0
 28 27  2  0
 29 28  1  0
 29 24  2  0
 30 31  1  0
 31 36  2  0
 31 32  1  0
 32 33  2  0
 33 34  1  0
 34 38  1  0
 35 34  2  0
 36 35  1  0
 37 36  1  0
 39 40  1  0
 40 43  1  0
 40 42  1  0
 41 39  2  0
 44 19  1  0
 44 45  1  0
 46 44  1  0
 47  6  1  0
 47 48  1  0
 49 50  1  0
 49 48  1  0
 51 53  1  0
 51 50  1  0
 52 63  2  0
 53 58  1  0
 54 62  1  0
 54 64  1  0
 55 61  1  0
 55 57  1  0
 56 62  1  0
 57 56  1  0
 58 57  2  0
 59 60  1  0
 59 53  2  0
 60 55  2  0
 61 54  1  0
 62 52  1  0
 64 66  2  0
 65 64  1  0
 67 65  1  0
 68 77  2  0
 68 73  1  0
 69 65  1  0
 69 73  1  0
 70 69  1  0
 71 72  1  0
 71 70  1  0
 72 68  1  0
 73 74  2  0
 74 75  1  0
 76 75  2  0
 77 76  1  0
 78 52  1  0
 78 79  1  0
 78 88  1  0
 79 82  1  0
 80 84  1  0
 80 79  1  0
 81 80  2  0
 84 83  1  0
 86 84  1  0
 86 87  1  0
 86 85  1  0
 88 91  1  1
 88 89  1  0
 90 88  1  0
M  ISO  4   9 100  17 100  50 101  51 101
M  END
>  <TORSDO>  (15) 
F 21

>  <SCORE>  (15) 
-10.150

>  <name>  (15) 
14

>  <ligand_id>  (15) 
14

>  <original_smiles>  (15) 
[H]c1c([H])c([H])c2c(c1[H])C([H])([H])C([H])([H])C([H])([H])C2([H])N([H])C(=O)C1([H])N(C(=O)C([H])(N([H])C(=O)C([H])(N([H])C([H])([H])[H])C([H])([H])[H])C(C([H])([H])[H])(C([H])([H])[H])C([H])([H])[H])C([H])([H])c2c([H])c(OC([H])([H])C([H])([H])C([H])([H])Oc3c([H])c([H])c([H])c(C([H])(N([H])C(=O)N4C([H])([H])C([H])([H])C([H])([H])C([H])(n5nc(-c6c([H])c([H])c(Oc7c([H])c([H])c(F)c([H])c7F)c([H])c6[H])c(C(=O)N([H])[H])c5N([H])[H])C4([H])[H])C([H])([H])[H])c3[H])c([H])c([H])c2C1([H])[H]

>  <smiles>  (15) 
[H]c1c([H])c([H])c2c(c1[H])C([H])([H])C([H])([H])C([H])([H])C2([H])N([H])C(=O)C1([H])N(C(=O)C([H])(N([H])C(=O)C([H])(N([H])C([H])([H])[H])C([H])([H])[H])C(C([H])([H])[H])(C([H])([H])[H])C([H])([H])[H])C([H])([H])c2c([H])c(OC([H])([H])C([H])([H])C([H])([H])Oc3c([H])c([H])c([H])c(C([H])(N([H])C(=O)N4C([H])([H])C([H])([H])C([H])([H])C([H])(n5nc(-c6c([H])c([H])c(Oc7c([H])c([H])c(F)c([H])c7F)c([H])c6[H])c(C(=O)N([H])[H])c5N([H])[H])C4([H])[H])C([H])([H])[H])c3[H])c([H])c([H])c2C1([H])[H]

$$$$
15:0:0
     RDKit          3D

 93102  0  0  1  0  0  0  0  0999 V2000
  -29.2910  -22.5570   20.6430 C   0  0  0  0  0  0  0  0  0  0  0  0
  -29.7700  -23.5880   18.5610 C   0  0  0  0  0  2  0  0  0  0  0  0
  -30.3010  -22.1360   18.6310 C   0  0  0  0  0  2  0  0  0  0  0  0
  -29.4720  -23.9830   20.0110 C   0  0  0  0  0  3  0  0  0  0  0  0
  -29.7360  -21.5350   19.8420 N   0  0  0  0  0  0  0  0  0  0  0  0
  -28.8260  -22.4220   21.7760 O   0  0  0  0  0  0  0  0  0  0  0  0
  -31.1120  -19.4280   20.0020 C   0  0  0  0  0  3  0  0  0  0  0  0
  -31.2880  -18.0190   20.1690 C   0  0  0  0  0  3  0  0  0  0  0  0
  -28.9290  -17.8000   20.5290 C   0  0  0  0  0  3  0  0  0  0  0  0
  -28.7410  -19.2060   20.3520 C   0  0  0  0  0  0  0  0  0  0  0  0
  -29.8440  -20.0790   20.0950 C   0  0  0  0  0  0  0  0  0  0  0  0
  -30.1920  -17.1590   20.4320 C   0  0  0  0  0  0  0  0  0  0  0  0
  -27.3090  -19.7180   20.3800 C   0  0  0  0  0  1  0  0  0  0  0  0
  -31.0090  -14.7160   20.0110 C   0  0  0  0  0  0  0  0  0  0  0  0
  -30.7620  -12.5150   18.8770 C   0  0  0  0  0  2  0  0  0  0  0  0
  -29.7230  -12.6740   17.7440 C   0  0  0  0  0  2  0  0  0  0  0  0
  -28.2900  -12.4730   18.2770 C   0  0  0  0  0  2  0  0  0  0  0  0
  -28.0180  -13.2780   19.5760 C   0  0  0  0  0  3  0  0  0  0  0  0
  -29.1610  -13.0870   20.5990 C   0  0  0  0  0  2  0  0  0  0  0  0
  -30.4200  -13.4780   19.9420 N   0  0  0  0  0  0  0  0  0  0  0  0
  -32.1110  -14.9330   19.4980 O   0  0  0  0  0  0  0  0  0  0  0  0
  -30.2400  -15.7010   20.5690 N   0  0  0  0  0  0  0  0  0  0  0  0
  -29.4380  -15.3120   21.0420 H   0  0  0  0  0  0  0  0  0  0  0  0
  -25.6850  -13.8160   20.5070 C   0  0  0  0  0  0  0  0  0  0  0  0
  -24.6550  -13.0140   20.9180 C   0  0  0  0  0  0  0  0  0  0  0  0
  -25.1220  -11.6700   20.7800 C   0  0  0  0  0  0  0  0  0  0  0  0
  -26.7120  -12.9590   20.1460 N   0  0  0  0  0  0  0  0  0  0  0  0
  -26.3830  -11.6600   20.3690 N   0  0  0  0  0  0  0  0  0  0  0  0
  -24.4220  -10.3920   20.9630 C   0  0  0  0  0  0  0  0  0  0  0  0
  -24.8470   -9.4490   21.9240 C   0  0  0  0  0  3  0  0  0  0  0  0
  -24.1470   -8.2350   22.0950 C   0  0  0  0  0  3  0  0  0  0  0  0
  -23.0080   -7.9560   21.3030 C   0  0  0  0  0  0  0  0  0  0  0  0
  -22.6020   -8.8880   20.3320 C   0  0  0  0  0  3  0  0  0  0  0  0
  -23.3030  -10.0940   20.1610 C   0  0  0  0  0  3  0  0  0  0  0  0
  -22.2800   -6.7930   21.3800 O   0  0  0  0  0  0  0  0  0  0  0  0
  -22.0810   -6.1470   22.5730 C   0  0  0  0  0  0  0  0  0  0  0  0
  -21.4330   -6.7730   23.6600 C   0  0  0  0  0  3  0  0  0  0  0  0
  -21.1880   -6.0500   24.8450 C   0  0  0  0  0  3  0  0  0  0  0  0
  -21.5780   -4.7010   24.9400 C   0  0  0  0  0  0  0  0  0  0  0  0
  -22.2170   -4.0740   23.8560 C   0  0  0  0  0  3  0  0  0  0  0  0
  -22.4650   -4.7950   22.6750 C   0  0  0  0  0  0  0  0  0  0  0  0
  -23.0620   -4.1790   21.6270 F   0  0  0  0  0  0  0  0  0  0  0  0
  -21.3350   -4.0040   26.0740 F   0  0  0  0  0  0  0  0  0  0  0  0
  -23.2800  -13.4620   21.3250 C   0  0  0  0  0  0  0  0  0  0  0  0
  -22.6370  -12.7250   22.2240 N   0  0  0  0  0  0  0  0  0  0  0  0
  -22.7870  -14.4990   20.8820 O   0  0  0  0  0  0  0  0  0  0  0  0
  -23.0500  -11.8850   22.6010 H   0  0  0  0  0  0  0  0  0  0  0  0
  -21.7200  -13.0070   22.5400 H   0  0  0  0  0  0  0  0  0  0  0  0
  -25.8260  -15.1950   20.3910 N   0  0  0  0  0  0  0  0  0  0  0  0
  -25.0670  -15.8330   20.6000 H   0  0  0  0  0  0  0  0  0  0  0  0
  -26.6380  -15.6620   20.0070 H   0  0  0  0  0  0  0  0  0  0  0  0
  -28.3210  -25.0670   20.2250 C   0  0  0  0  0  2  0  0  0  0  0  0
  -28.5470  -26.4910   19.8590 O   0  0  0  0  0  0  0  0  0  0  0  0
  -24.8080  -31.6790   23.2310 C   0  0  0  0  0  0  0  0  0  0  0  0
  -27.4350  -27.3480   19.8810 C   0  0  0  0  0  0  0  0  0  0  0  0
  -23.6200  -30.4210   21.4680 C   0  0  0  0  0  3  0  0  0  0  0  0
  -25.0820  -28.9720   19.9510 C   0  0  0  0  0  0  0  0  0  0  0  0
  -26.1630  -30.7300   21.3510 C   0  0  0  0  0  2  0  0  0  0  0  0
  -26.2420  -29.4040   20.6050 C   0  0  0  0  0  0  0  0  0  0  0  0
  -27.4250  -28.6040   20.5610 C   0  0  0  0  0  3  0  0  0  0  0  0
  -26.2570  -26.9770   19.1940 C   0  0  0  0  0  3  0  0  0  0  0  0
  -25.0920  -27.7660   19.2350 C   0  0  0  0  0  3  0  0  0  0  0  0
  -23.8500  -29.8490   20.0450 C   0  0  0  0  0  2  0  0  0  0  0  0
  -24.8810  -30.9560   22.0750 N   0  0  0  0  0  0  0  0  0  0  0  0
  -23.7190  -31.9260   23.7670 O   0  0  0  0  0  0  0  0  0  0  0  0
  -22.9320  -29.3410   22.3370 C   0  0  0  0  0  0  0  0  0  0  0  0
  -21.6050  -29.1960   22.1840 N   0  0  0  0  0  0  0  0  0  0  0  0
  -23.5920  -28.6390   23.1090 O   0  0  0  0  0  0  0  0  0  0  0  0
  -21.1330  -29.8170   21.5410 H   0  0  0  0  0  0  0  0  0  0  0  0
  -18.1930  -28.0700   22.6000 C   0  0  0  0  0  0  0  0  0  0  0  0
  -20.7610  -28.2130   22.8640 C   0  0  0  0  0  3  0  0  0  0  0  0
  -20.8070  -26.8440   22.1460 C   0  0  0  0  0  2  0  0  0  0  0  0
  -19.6860  -26.6640   21.1180 C   0  0  0  0  0  2  0  0  0  0  0  0
  -18.3150  -26.7900   21.7900 C   0  0  0  0  0  2  0  0  0  0  0  0
  -19.3410  -28.7470   23.0910 C   0  0  0  0  0  0  0  0  0  0  0  0
  -19.1730  -29.9520   23.8070 C   0  0  0  0  0  3  0  0  0  0  0  0
  -17.8880  -30.4760   24.0420 C   0  0  0  0  0  3  0  0  0  0  0  0
  -16.7540  -29.7930   23.5690 C   0  0  0  0  0  3  0  0  0  0  0  0
  -16.9070  -28.5930   22.8510 C   0  0  0  0  0  3  0  0  0  0  0  0
  -26.0860  -32.2480   23.9180 C   0  0  0  0  0  3  0  0  0  0  0  0
  -25.7870  -33.6220   24.3430 N   0  0  0  0  0  0  0  0  0  0  0  0
  -26.1550  -34.7240   23.6750 C   0  0  0  0  0  0  0  0  0  0  0  0
  -26.8510  -34.6880   22.6560 O   0  0  0  0  0  0  0  0  0  0  0  0
  -25.1780  -33.7250   25.1400 H   0  0  0  0  0  0  0  0  0  0  0  0
  -24.4790  -36.5790   23.3980 C   0  0  0  0  0  1  0  0  0  0  0  0
  -25.6760  -36.0820   24.2230 C   0  0  0  0  0  3  0  0  0  0  0  0
  -27.7830  -36.8590   25.2170 C   0  0  0  0  0  1  0  0  0  0  0  0
  -26.7320  -37.1180   24.2370 N   0  0  0  0  0  0  0  0  0  0  0  0
  -26.3360  -38.0330   24.4320 H   0  0  0  0  0  0  0  0  0  0  0  0
  -26.5660  -31.3800   25.1470 C   0  0  1  0  0  0  0  0  0  0  0  0
  -25.4460  -31.0770   26.1690 C   0  0  0  0  0  1  0  0  0  0  0  0
  -27.1460  -30.0290   24.6680 C   0  0  0  0  0  1  0  0  0  0  0  0
  -27.7060  -32.1140   25.8920 C   0  0  0  0  0  1  0  0  0  0  0  0
  1  6  2  0
  2  3  1  0
  2  4  1  0
  3  5  1  0
  4 52  1  0
  4  1  1  0
  5 11  1  0
  5  1  1  0
  7 11  2  0
  7  8  1  0
  8 12  2  0
 10 13  1  0
 10  9  2  0
 11 10  1  0
 12  9  1  0
 12 22  1  0
 14 22  1  0
 15 20  1  0
 16 17  1  0
 16 15  1  0
 18 17  1  0
 18 27  1  0
 18 19  1  0
 20 14  1  0
 20 19  1  0
 21 14  2  0
 22 23  1  0
 24 25  2  0
 25 44  1  0
 26 25  1  0
 26 29  1  0
 27 28  1  0
 27 24  1  0
 28 26  2  0
 29 30  1  0
 30 31  2  0
 32 35  1  0
 32 31  1  0
 33 32  2  0
 34 33  1  0
 34 29  2  0
 35 36  1  0
 36 41  2  0
 36 37  1  0
 37 38  2  0
 38 39  1  0
 39 43  1  0
 40 39  2  0
 41 40  1  0
 42 41  1  0
 44 45  1  0
 45 48  1  0
 45 47  1  0
 46 44  2  0
 49 24  1  0
 49 50  1  0
 51 49  1  0
 53 55  1  0
 53 52  1  0
 54 65  2  0
 55 60  1  0
 56 64  1  0
 56 66  1  0
 57 63  1  0
 57 59  1  0
 58 64  1  0
 59 58  1  0
 60 59  2  0
 61 62  1  0
 61 55  2  0
 62 57  2  0
 63 56  1  0
 64 54  1  0
 66 68  2  0
 67 66  1  0
 69 67  1  0
 70 79  2  0
 70 75  1  0
 71 67  1  0
 71 75  1  0
 72 71  1  0
 73 74  1  0
 73 72  1  0
 74 70  1  0
 75 76  2  0
 76 77  1  0
 78 77  2  0
 79 78  1  0
 80 54  1  0
 80 81  1  0
 80 90  1  0
 81 84  1  0
 82 86  1  0
 82 81  1  0
 83 82  2  0
 86 85  1  0
 86 88  1  0
 88 89  1  0
 88 87  1  0
 90 93  1  1
 90 91  1  0
 92 90  1  0
M  ISO  4  14 100  22 100  52 101  53 101
M  END
>  <TORSDO>  (16) 
F 18

>  <SCORE>  (16) 
-13.130

>  <name>  (16) 
15

>  <ligand_id>  (16) 
15

>  <original_smiles>  (16) 
[H]c1c([H])c([H])c2c(c1[H])C([H])([H])C([H])([H])C([H])([H])C2([H])N([H])C(=O)C1([H])N(C(=O)C([H])(N([H])C(=O)C([H])(N([H])C([H])([H])[H])C([H])([H])[H])C(C([H])([H])[H])(C([H])([H])[H])C([H])([H])[H])C([H])([H])c2c([H])c(OC([H])([H])C3([H])C(=O)N(c4c([H])c([H])c(N([H])C(=O)N5C([H])([H])C([H])([H])C([H])([H])C([H])(n6nc(-c7c([H])c([H])c(Oc8c([H])c([H])c(F)c([H])c8F)c([H])c7[H])c(C(=O)N([H])[H])c6N([H])[H])C5([H])[H])c([H])c4C([H])([H])[H])C([H])([H])C3([H])[H])c([H])c([H])c2C1([H])[H]

>  <smiles>  (16) 
[H]c1c([H])c([H])c2c(c1[H])C([H])([H])C([H])([H])C([H])([H])C2([H])N([H])C(=O)C1([H])N(C(=O)C([H])(N([H])C(=O)C([H])(N([H])C([H])([H])[H])C([H])([H])[H])C(C([H])([H])[H])(C([H])([H])[H])C([H])([H])[H])C([H])([H])c2c([H])c(OC([H])([H])C3([H])C(=O)N(c4c([H])c([H])c(N([H])C(=O)N5C([H])([H])C([H])([H])C([H])([H])C([H])(n6nc(-c7c([H])c([H])c(Oc8c([H])c([H])c(F)c([H])c8F)c([H])c7[H])c(C(=O)N([H])[H])c6N([H])[H])C5([H])[H])c([H])c4C([H])([H])[H])C([H])([H])C3([H])[H])c([H])c([H])c2C1([H])[H]

$$$$
16:0:0
     RDKit          3D

 94103  0  0  1  0  0  0  0  0999 V2000
  -27.4990  -24.0830   22.3330 C   0  0  0  0  0  0  0  0  0  0  0  0
  -26.9000  -22.8210   21.7120 C   0  0  0  0  0  2  0  0  0  0  0  0
  -28.9710  -24.3560   22.0170 C   0  0  0  0  0  2  0  0  0  0  0  0
  -27.3310  -22.6230   20.2430 C   0  0  0  0  0  2  0  0  0  0  0  0
  -29.2670  -24.1680   20.5120 C   0  0  0  0  0  3  0  0  0  0  0  0
  -28.7830  -22.8030   20.0620 N   0  0  0  0  0  0  0  0  0  0  0  0
  -26.8350  -24.8310   23.0530 O   0  0  0  0  0  0  0  0  0  0  0  0
  -29.5140  -19.0670   19.7690 C   0  0  0  0  0  3  0  0  0  0  0  0
  -30.9780  -19.9810   21.4390 C   0  0  0  0  0  3  0  0  0  0  0  0
  -29.0250  -20.3830   19.5180 C   0  0  0  0  0  3  0  0  0  0  0  0
  -30.4790  -21.2960   21.1940 C   0  0  0  0  0  3  0  0  0  0  0  0
  -30.4940  -18.8290   20.7570 C   0  0  0  0  0  0  0  0  0  0  0  0
  -29.4510  -21.5350   20.2460 C   0  0  0  0  0  0  0  0  0  0  0  0
  -31.1180  -17.4270   21.0740 C   0  0  0  0  0  2  0  0  0  0  0  0
  -31.0460  -14.9680   20.4670 C   0  0  0  0  0  0  0  0  0  0  0  0
  -30.7310  -12.7510   19.4070 C   0  0  0  0  0  2  0  0  0  0  0  0
  -29.8300  -12.8700   18.1650 C   0  0  0  0  0  2  0  0  0  0  0  0
  -28.3490  -12.7320   18.5590 C   0  0  0  0  0  2  0  0  0  0  0  0
  -27.9640  -13.6200   19.7730 C   0  0  0  0  0  3  0  0  0  0  0  0
  -28.9970  -13.5230   20.9180 C   0  0  0  0  0  2  0  0  0  0  0  0
  -30.3240  -13.8100   20.3510 N   0  0  0  0  0  0  0  0  0  0  0  0
  -32.2320  -15.0050   20.1330 O   0  0  0  0  0  0  0  0  0  0  0  0
  -30.4080  -16.1310   20.8020 N   0  0  0  0  0  0  0  0  0  0  0  0
  -29.4170  -16.0930   20.9820 H   0  0  0  0  0  0  0  0  0  0  0  0
  -25.5730  -14.2330   20.4740 C   0  0  0  0  0  0  0  0  0  0  0  0
  -24.4850  -13.4690   20.7960 C   0  0  0  0  0  0  0  0  0  0  0  0
  -24.9260  -12.1100   20.7340 C   0  0  0  0  0  0  0  0  0  0  0  0
  -26.6060  -13.3420   20.2320 N   0  0  0  0  0  0  0  0  0  0  0  0
  -26.2200  -12.0580   20.4510 N   0  0  0  0  0  0  0  0  0  0  0  0
  -24.1730  -10.8570   20.8740 C   0  0  0  0  0  0  0  0  0  0  0  0
  -24.5400   -9.8750   21.8210 C   0  0  0  0  0  3  0  0  0  0  0  0
  -23.7890   -8.6860   21.9500 C   0  0  0  0  0  3  0  0  0  0  0  0
  -22.6560   -8.4700   21.1300 C   0  0  0  0  0  0  0  0  0  0  0  0
  -22.3070   -9.4410   20.1720 C   0  0  0  0  0  3  0  0  0  0  0  0
  -23.0590  -10.6210   20.0420 C   0  0  0  0  0  3  0  0  0  0  0  0
  -21.8830   -7.3340   21.1640 O   0  0  0  0  0  0  0  0  0  0  0  0
  -21.7240   -6.6060   22.3160 C   0  0  0  0  0  0  0  0  0  0  0  0
  -21.1650   -7.1740   23.4840 C   0  0  0  0  0  3  0  0  0  0  0  0
  -20.9560   -6.3720   24.6230 C   0  0  0  0  0  3  0  0  0  0  0  0
  -21.2910   -5.0060   24.5960 C   0  0  0  0  0  0  0  0  0  0  0  0
  -21.8440   -4.4380   23.4340 C   0  0  0  0  0  3  0  0  0  0  0  0
  -22.0550   -5.2370   22.2960 C   0  0  0  0  0  0  0  0  0  0  0  0
  -22.5670   -4.6810   21.1710 F   0  0  0  0  0  0  0  0  0  0  0  0
  -21.0830   -4.2340   25.6890 F   0  0  0  0  0  0  0  0  0  0  0  0
  -23.0910  -13.9620   21.0550 C   0  0  0  0  0  0  0  0  0  0  0  0
  -22.3340  -13.2530   21.8850 N   0  0  0  0  0  0  0  0  0  0  0  0
  -22.6800  -15.0070   20.5540 O   0  0  0  0  0  0  0  0  0  0  0  0
  -22.6800  -12.4080   22.3140 H   0  0  0  0  0  0  0  0  0  0  0  0
  -21.3980  -13.5650   22.0990 H   0  0  0  0  0  0  0  0  0  0  0  0
  -25.7650  -15.6060   20.3480 N   0  0  0  0  0  0  0  0  0  0  0  0
  -25.0140  -16.2720   20.4860 H   0  0  0  0  0  0  0  0  0  0  0  0
  -26.6350  -16.0440   20.0750 H   0  0  0  0  0  0  0  0  0  0  0  0
  -28.5930  -25.3850   19.7090 C   0  0  0  0  0  2  0  0  0  0  0  0
  -28.7260  -26.8090   20.1150 O   0  0  0  0  0  0  0  0  0  0  0  0
  -24.6340  -31.8800   23.2360 C   0  0  0  0  0  0  0  0  0  0  0  0
  -27.5760  -27.6220   20.0440 C   0  0  0  0  0  0  0  0  0  0  0  0
  -23.5530  -30.4890   21.5090 C   0  0  0  0  0  3  0  0  0  0  0  0
  -25.1260  -29.1020   20.0490 C   0  0  0  0  0  0  0  0  0  0  0  0
  -26.0750  -30.9570   21.4110 C   0  0  0  0  0  2  0  0  0  0  0  0
  -26.2500  -29.6190   20.7050 C   0  0  0  0  0  0  0  0  0  0  0  0
  -27.4760  -28.8870   20.7040 C   0  0  0  0  0  3  0  0  0  0  0  0
  -26.4320  -27.1890   19.3290 C   0  0  0  0  0  3  0  0  0  0  0  0
  -25.2180  -27.8920   19.3530 C   0  0  0  0  0  3  0  0  0  0  0  0
  -23.8400  -29.9010   20.1040 C   0  0  0  0  0  2  0  0  0  0  0  0
  -24.7700  -31.1250   22.1090 N   0  0  0  0  0  0  0  0  0  0  0  0
  -23.5230  -32.0720   23.7520 O   0  0  0  0  0  0  0  0  0  0  0  0
  -22.9310  -29.3910   22.4040 C   0  0  0  0  0  0  0  0  0  0  0  0
  -21.6210  -29.1440   22.2330 N   0  0  0  0  0  0  0  0  0  0  0  0
  -23.6240  -28.7670   23.2110 O   0  0  0  0  0  0  0  0  0  0  0  0
  -21.1180  -29.6980   21.5540 H   0  0  0  0  0  0  0  0  0  0  0  0
  -18.2970  -27.7710   22.6290 C   0  0  0  0  0  0  0  0  0  0  0  0
  -20.8400  -28.1300   22.9410 C   0  0  0  0  0  3  0  0  0  0  0  0
  -21.0120  -26.7380   22.2910 C   0  0  0  0  0  2  0  0  0  0  0  0
  -19.9360  -26.4240   21.2470 C   0  0  0  0  0  2  0  0  0  0  0  0
  -18.5430  -26.4700   21.8820 C   0  0  0  0  0  2  0  0  0  0  0  0
  -19.3760  -28.5590   23.1130 C   0  0  0  0  0  0  0  0  0  0  0  0
  -19.0960  -29.7750   23.7720 C   0  0  0  0  0  3  0  0  0  0  0  0
  -17.7680  -30.2090   23.9480 C   0  0  0  0  0  3  0  0  0  0  0  0
  -16.7030  -29.4200   23.4790 C   0  0  0  0  0  3  0  0  0  0  0  0
  -16.9680  -28.2010   22.8270 C   0  0  0  0  0  3  0  0  0  0  0  0
  -25.8620  -32.5570   23.9180 C   0  0  0  0  0  3  0  0  0  0  0  0
  -26.3290  -31.8140   25.2290 C   0  0  1  0  0  0  0  0  0  0  0  0
  -25.1840  -31.5440   26.2330 C   0  0  0  0  0  1  0  0  0  0  0  0
  -26.9830  -30.4550   24.8880 C   0  0  0  0  0  1  0  0  0  0  0  0
  -27.4130  -32.6540   25.9460 C   0  0  0  0  0  1  0  0  0  0  0  0
  -25.4950  -33.9490   24.2110 N   0  0  0  0  0  0  0  0  0  0  0  0
  -25.8180  -34.9990   23.4420 C   0  0  0  0  0  0  0  0  0  0  0  0
  -26.5250  -34.8980   22.4370 O   0  0  0  0  0  0  0  0  0  0  0  0
  -24.8620  -34.0970   24.9840 H   0  0  0  0  0  0  0  0  0  0  0  0
  -24.0320  -36.7150   23.0080 C   0  0  0  0  0  1  0  0  0  0  0  0
  -25.2690  -36.3780   23.8560 C   0  0  0  0  0  3  0  0  0  0  0  0
  -27.3450  -37.3650   24.7160 C   0  0  0  0  0  1  0  0  0  0  0  0
  -26.2640  -37.4650   23.7390 N   0  0  0  0  0  0  0  0  0  0  0  0
  -25.8190  -38.3720   23.8500 H   0  0  0  0  0  0  0  0  0  0  0  0
  1  7  2  0
  2  1  1  0
  3  1  1  0
  4  2  1  0
  5 53  1  0
  5  3  1  0
  6  4  1  0
  6 13  1  0
  6  5  1  0
  8 12  1  0
 10  8  2  0
 10 13  1  0
 11  9  1  0
 12 14  1  0
 12  9  2  0
 13 11  2  0
 15 23  1  0
 16 21  1  0
 17 18  1  0
 17 16  1  0
 19 18  1  0
 19 28  1  0
 19 20  1  0
 21 15  1  0
 21 20  1  0
 22 15  2  0
 23 24  1  0
 23 14  1  0
 25 26  2  0
 26 45  1  0
 27 26  1  0
 27 30  1  0
 28 29  1  0
 28 25  1  0
 29 27  2  0
 30 31  1  0
 31 32  2  0
 33 36  1  0
 33 32  1  0
 34 33  2  0
 35 34  1  0
 35 30  2  0
 36 37  1  0
 37 38  1  0
 38 39  2  0
 40 39  1  0
 40 44  1  0
 41 40  2  0
 42 37  2  0
 42 41  1  0
 43 42  1  0
 45 46  1  0
 46 49  1  0
 46 48  1  0
 47 45  2  0
 50 25  1  0
 50 51  1  0
 52 50  1  0
 53 54  1  0
 55 66  2  0
 56 54  1  0
 56 61  1  0
 57 65  1  0
 57 67  1  0
 58 64  1  0
 58 60  1  0
 59 65  1  0
 60 59  1  0
 61 60  2  0
 62 63  1  0
 62 56  2  0
 63 58  2  0
 64 57  1  0
 65 55  1  0
 67 69  2  0
 68 67  1  0
 70 68  1  0
 71 80  2  0
 71 76  1  0
 72 68  1  0
 72 76  1  0
 73 72  1  0
 74 75  1  0
 74 73  1  0
 75 71  1  0
 76 77  2  0
 77 78  1  0
 79 78  2  0
 80 79  1  0
 81 55  1  0
 81 86  1  0
 81 82  1  0
 82 85  1  1
 82 83  1  0
 84 82  1  0
 86 89  1  0
 87 91  1  0
 87 86  1  0
 88 87  2  0
 91 90  1  0
 93 94  1  0
 93 91  1  0
 93 92  1  0
M  ISO  4  15 100  23 100  53 101  54 101
M  END
>  <TORSDO>  (17) 
F 19

>  <SCORE>  (17) 
-13.349

>  <name>  (17) 
16

>  <ligand_id>  (17) 
16

>  <original_smiles>  (17) 
[H]c1c([H])c([H])c2c(c1[H])C([H])([H])C([H])([H])C([H])([H])C2([H])N([H])C(=O)C1([H])N(C(=O)C([H])(N([H])C(=O)C([H])(N([H])C([H])([H])[H])C([H])([H])[H])C(C([H])([H])[H])(C([H])([H])[H])C([H])([H])[H])C([H])([H])c2c([H])c(OC([H])([H])C3([H])N(c4c([H])c([H])c(C([H])([H])N([H])C(=O)N5C([H])([H])C([H])([H])C([H])([H])C([H])(n6nc(-c7c([H])c([H])c(Oc8c([H])c([H])c(F)c([H])c8F)c([H])c7[H])c(C(=O)N([H])[H])c6N([H])[H])C5([H])[H])c([H])c4[H])C([H])([H])C([H])([H])C(=O)C3([H])[H])c([H])c([H])c2C1([H])[H]

>  <smiles>  (17) 
[H]c1c([H])c([H])c2c(c1[H])C([H])([H])C([H])([H])C([H])([H])C2([H])N([H])C(=O)C1([H])N(C(=O)C([H])(N([H])C(=O)C([H])(N([H])C([H])([H])[H])C([H])([H])[H])C(C([H])([H])[H])(C([H])([H])[H])C([H])([H])[H])C([H])([H])c2c([H])c(OC([H])([H])C3([H])N(c4c([H])c([H])c(C([H])([H])N([H])C(=O)N5C([H])([H])C([H])([H])C([H])([H])C([H])(n6nc(-c7c([H])c([H])c(Oc8c([H])c([H])c(F)c([H])c8F)c([H])c7[H])c(C(=O)N([H])[H])c6N([H])[H])C5([H])[H])c([H])c4[H])C([H])([H])C([H])([H])C(=O)C3([H])[H])c([H])c([H])c2C1([H])[H]

$$$$
17:0:0
     RDKit          3D

 93101  0  0  1  0  0  0  0  0999 V2000
  -29.4190  -21.7600   19.4440 N   0  0  0  0  0  0  0  0  0  0  0  0
  -29.7280  -22.1760   18.5670 H   0  0  0  0  0  0  0  0  0  0  0  0
  -31.0460  -18.4180   19.1250 C   0  0  0  0  0  3  0  0  0  0  0  0
  -30.5190  -19.6900   18.8090 C   0  0  0  0  0  3  0  0  0  0  0  0
  -29.7590  -19.9490   21.1030 C   0  0  0  0  0  3  0  0  0  0  0  0
  -30.9560  -17.9070   20.4370 C   0  0  0  0  0  0  0  0  0  0  0  0
  -29.8870  -20.4780   19.7960 C   0  0  0  0  0  0  0  0  0  0  0  0
  -30.2900  -18.6780   21.4220 C   0  0  0  0  0  0  0  0  0  0  0  0
  -30.1790  -18.2120   22.6900 F   0  0  0  0  0  0  0  0  0  0  0  0
  -31.6610  -16.5970   20.8060 C   0  0  0  0  0  2  0  0  0  0  0  0
  -31.4680  -14.3380   19.7180 C   0  0  0  0  0  0  0  0  0  0  0  0
  -30.9520  -12.1390   18.7140 C   0  0  0  0  0  2  0  0  0  0  0  0
  -29.9130  -12.2900   17.5840 C   0  0  0  0  0  2  0  0  0  0  0  0
  -28.4790  -12.2740   18.1460 C   0  0  0  0  0  2  0  0  0  0  0  0
  -28.2950  -13.2220   19.3600 C   0  0  0  0  0  3  0  0  0  0  0  0
  -29.4270  -13.0160   20.3920 C   0  0  0  0  0  2  0  0  0  0  0  0
  -30.7100  -13.2100   19.6940 N   0  0  0  0  0  0  0  0  0  0  0  0
  -32.5230  -14.4530   19.0900 O   0  0  0  0  0  0  0  0  0  0  0  0
  -30.9680  -15.3550   20.4420 N   0  0  0  0  0  0  0  0  0  0  0  0
  -30.0760  -15.1890   20.8840 H   0  0  0  0  0  0  0  0  0  0  0  0
  -26.0660  -14.0400   20.3500 C   0  0  0  0  0  0  0  0  0  0  0  0
  -24.9580  -13.3660   20.7880 C   0  0  0  0  0  0  0  0  0  0  0  0
  -25.2560  -11.9770   20.6380 C   0  0  0  0  0  0  0  0  0  0  0  0
  -26.9750  -13.0670   19.9640 N   0  0  0  0  0  0  0  0  0  0  0  0
  -26.4950  -11.8170   20.1910 N   0  0  0  0  0  0  0  0  0  0  0  0
  -24.4110  -10.7920   20.8360 C   0  0  0  0  0  0  0  0  0  0  0  0
  -24.7810   -9.7640   21.7320 C   0  0  0  0  0  3  0  0  0  0  0  0
  -23.9450   -8.6430   21.9190 C   0  0  0  0  0  3  0  0  0  0  0  0
  -22.7220   -8.5430   21.2120 C   0  0  0  0  0  0  0  0  0  0  0  0
  -22.3700   -9.5590   20.3060 C   0  0  0  0  0  3  0  0  0  0  0  0
  -23.2050  -10.6720   20.1160 C   0  0  0  0  0  3  0  0  0  0  0  0
  -21.8590   -7.4780   21.3110 O   0  0  0  0  0  0  0  0  0  0  0  0
  -21.7220   -6.7690   22.4780 C   0  0  0  0  0  0  0  0  0  0  0  0
  -21.3200   -7.3860   23.6830 C   0  0  0  0  0  3  0  0  0  0  0  0
  -21.1250   -6.6070   24.8410 C   0  0  0  0  0  3  0  0  0  0  0  0
  -21.3210   -5.2140   24.7950 C   0  0  0  0  0  0  0  0  0  0  0  0
  -21.7170   -4.5970   23.5940 C   0  0  0  0  0  3  0  0  0  0  0  0
  -21.9130   -5.3730   22.4380 C   0  0  0  0  0  0  0  0  0  0  0  0
  -22.2730   -4.7700   21.2790 F   0  0  0  0  0  0  0  0  0  0  0  0
  -21.1270   -4.4640   25.9050 F   0  0  0  0  0  0  0  0  0  0  0  0
  -23.6580  -13.9730   21.2340 C   0  0  0  0  0  0  0  0  0  0  0  0
  -22.9570  -13.3170   22.1510 N   0  0  0  0  0  0  0  0  0  0  0  0
  -23.2810  -15.0630   20.8030 O   0  0  0  0  0  0  0  0  0  0  0  0
  -23.2740  -12.4320   22.5190 H   0  0  0  0  0  0  0  0  0  0  0  0
  -22.0910  -13.7070   22.4930 H   0  0  0  0  0  0  0  0  0  0  0  0
  -26.3700  -15.3930   20.2280 N   0  0  0  0  0  0  0  0  0  0  0  0
  -25.7030  -16.1220   20.4580 H   0  0  0  0  0  0  0  0  0  0  0  0
  -27.2390  -15.7540   19.8570 H   0  0  0  0  0  0  0  0  0  0  0  0
  -29.0050  -22.7260   20.4710 C   0  0  0  0  0  2  0  0  0  0  0  0
  -28.9800  -24.1870   19.9760 C   0  0  0  0  0  0  0  0  0  0  0  0
  -29.3630  -24.4790   18.8350 O   0  0  0  0  0  0  0  0  0  0  0  0
  -28.4730  -25.2540   20.9670 C   0  0  0  0  0  2  0  0  0  0  0  0
  -28.6350  -26.5940   20.4690 O   0  0  0  0  0  0  0  0  0  0  0  0
  -24.5550  -31.7430   23.2290 C   0  0  0  0  0  0  0  0  0  0  0  0
  -27.4610  -27.3070   20.3900 C   0  0  0  0  0  0  0  0  0  0  0  0
  -23.4710  -30.2720   21.5610 C   0  0  0  0  0  3  0  0  0  0  0  0
  -25.0340  -28.7430   20.2470 C   0  0  0  0  0  0  0  0  0  0  0  0
  -25.9920  -30.6950   21.4830 C   0  0  0  0  0  2  0  0  0  0  0  0
  -26.1460  -29.3140   20.8790 C   0  0  0  0  0  0  0  0  0  0  0  0
  -27.3670  -28.6040   20.9460 C   0  0  0  0  0  3  0  0  0  0  0  0
  -26.3360  -26.7500   19.7480 C   0  0  0  0  0  3  0  0  0  0  0  0
  -25.1230  -27.4600   19.6780 C   0  0  0  0  0  3  0  0  0  0  0  0
  -23.7680  -29.5700   20.2100 C   0  0  0  0  0  2  0  0  0  0  0  0
  -24.6880  -30.9200   22.1500 N   0  0  0  0  0  0  0  0  0  0  0  0
  -23.4410  -31.9990   23.7070 O   0  0  0  0  0  0  0  0  0  0  0  0
  -22.7990  -29.2540   22.5100 C   0  0  0  0  0  0  0  0  0  0  0  0
  -21.4840  -29.0510   22.3340 N   0  0  0  0  0  0  0  0  0  0  0  0
  -23.4580  -28.6510   23.3620 O   0  0  0  0  0  0  0  0  0  0  0  0
  -21.0130  -29.5950   21.6240 H   0  0  0  0  0  0  0  0  0  0  0  0
  -18.1080  -27.8200   22.7180 C   0  0  0  0  0  0  0  0  0  0  0  0
  -20.6490  -28.1130   23.0840 C   0  0  0  0  0  3  0  0  0  0  0  0
  -20.7890  -26.6760   22.5310 C   0  0  0  0  0  2  0  0  0  0  0  0
  -19.7310  -26.3270   21.4790 C   0  0  0  0  0  2  0  0  0  0  0  0
  -18.3230  -26.4630   22.0670 C   0  0  0  0  0  2  0  0  0  0  0  0
  -19.2010  -28.6000   23.1810 C   0  0  0  0  0  0  0  0  0  0  0  0
  -18.9470  -29.8680   23.7480 C   0  0  0  0  0  3  0  0  0  0  0  0
  -17.6320  -30.3590   23.8540 C   0  0  0  0  0  3  0  0  0  0  0  0
  -16.5530  -29.5760   23.4090 C   0  0  0  0  0  3  0  0  0  0  0  0
  -16.7920  -28.3080   22.8490 C   0  0  0  0  0  3  0  0  0  0  0  0
  -25.7940  -32.4190   23.8970 C   0  0  0  0  0  3  0  0  0  0  0  0
  -25.4340  -33.8150   24.1790 N   0  0  0  0  0  0  0  0  0  0  0  0
  -25.7680  -34.8560   23.4060 C   0  0  0  0  0  0  0  0  0  0  0  0
  -26.4800  -34.7470   22.4050 O   0  0  0  0  0  0  0  0  0  0  0  0
  -24.7980  -33.9720   24.9480 H   0  0  0  0  0  0  0  0  0  0  0  0
  -23.9940  -36.5820   22.9480 C   0  0  0  0  0  1  0  0  0  0  0  0
  -25.2230  -36.2410   23.8080 C   0  0  0  0  0  3  0  0  0  0  0  0
  -27.3010  -37.2150   24.6810 C   0  0  0  0  0  1  0  0  0  0  0  0
  -26.2270  -37.3230   23.6960 N   0  0  0  0  0  0  0  0  0  0  0  0
  -25.7870  -38.2330   23.8060 H   0  0  0  0  0  0  0  0  0  0  0  0
  -26.2700  -31.6890   25.2120 C   0  0  1  0  0  0  0  0  0  0  0  0
  -25.1310  -31.4250   26.2250 C   0  0  0  0  0  1  0  0  0  0  0  0
  -26.9240  -30.3280   24.8740 C   0  0  0  0  0  1  0  0  0  0  0  0
  -27.3530  -32.5370   25.9200 C   0  0  0  0  0  1  0  0  0  0  0  0
  1  7  1  0
  1 49  1  0
  2  1  1  0
  3  6  1  0
  4  3  2  0
  4  7  1  0
  5  8  1  0
  6 10  1  0
  6  8  2  0
  7  5  2  0
  8  9  1  0
 11 19  1  0
 12 17  1  0
 13 14  1  0
 13 12  1  0
 15 14  1  0
 15 24  1  0
 15 16  1  0
 17 11  1  0
 17 16  1  0
 18 11  2  0
 19 10  1  0
 19 20  1  0
 21 22  2  0
 22 41  1  0
 23 22  1  0
 23 26  1  0
 24 25  1  0
 24 21  1  0
 25 23  2  0
 26 27  1  0
 27 28  2  0
 29 32  1  0
 29 28  1  0
 30 29  2  0
 31 30  1  0
 31 26  2  0
 32 33  1  0
 33 34  1  0
 34 35  2  0
 36 35  1  0
 36 40  1  0
 37 36  2  0
 38 33  2  0
 38 37  1  0
 39 38  1  0
 41 42  1  0
 42 45  1  0
 42 44  1  0
 43 41  2  0
 46 21  1  0
 46 47  1  0
 48 46  1  0
 50 49  1  0
 50 52  1  0
 51 50  2  0
 53 52  1  0
 54 65  2  0
 55 53  1  0
 55 60  1  0
 56 64  1  0
 56 66  1  0
 57 59  1  0
 58 64  1  0
 59 60  2  0
 59 58  1  0
 61 55  2  0
 62 61  1  0
 62 57  2  0
 63 57  1  0
 63 56  1  0
 64 54  1  0
 66 68  2  0
 67 66  1  0
 69 67  1  0
 70 79  2  0
 70 75  1  0
 71 67  1  0
 71 75  1  0
 72 71  1  0
 73 74  1  0
 73 72  1  0
 74 70  1  0
 75 76  2  0
 76 77  1  0
 78 77  2  0
 79 78  1  0
 80 54  1  0
 80 81  1  0
 80 90  1  0
 81 84  1  0
 82 86  1  0
 82 81  1  0
 83 82  2  0
 86 85  1  0
 88 89  1  0
 88 86  1  0
 88 87  1  0
 90 93  1  1
 90 91  1  0
 92 90  1  0
M  ISO  4  11 100  19 100  52 101  53 101
M  END
>  <TORSDO>  (18) 
F 21

>  <SCORE>  (18) 
-12.310

>  <name>  (18) 
17

>  <ligand_id>  (18) 
17

>  <original_smiles>  (18) 
[H]c1c([H])c([H])c2c(c1[H])C([H])([H])C([H])([H])C([H])([H])C2([H])N([H])C(=O)C1([H])N(C(=O)C([H])(N([H])C(=O)C([H])(N([H])C([H])([H])[H])C([H])([H])[H])C(C([H])([H])[H])(C([H])([H])[H])C([H])([H])[H])C([H])([H])c2c([H])c(OC([H])([H])C(=O)C([H])([H])N([H])c3c([H])c([H])c(C([H])([H])N([H])C(=O)N4C([H])([H])C([H])([H])C([H])([H])C([H])(n5nc(-c6c([H])c([H])c(Oc7c([H])c([H])c(F)c([H])c7F)c([H])c6[H])c(C(=O)N([H])[H])c5N([H])[H])C4([H])[H])c(F)c3[H])c([H])c([H])c2C1([H])[H]

>  <smiles>  (18) 
[H]c1c([H])c([H])c2c(c1[H])C([H])([H])C([H])([H])C([H])([H])C2([H])N([H])C(=O)C1([H])N(C(=O)C([H])(N([H])C(=O)C([H])(N([H])C([H])([H])[H])C([H])([H])[H])C(C([H])([H])[H])(C([H])([H])[H])C([H])([H])[H])C([H])([H])c2c([H])c(OC([H])([H])C(=O)C([H])([H])N([H])c3c([H])c([H])c(C([H])([H])N([H])C(=O)N4C([H])([H])C([H])([H])C([H])([H])C([H])(n5nc(-c6c([H])c([H])c(Oc7c([H])c([H])c(F)c([H])c7F)c([H])c6[H])c(C(=O)N([H])[H])c5N([H])[H])C4([H])[H])c(F)c3[H])c([H])c([H])c2C1([H])[H]

$$$$
18:0:0
     RDKit          3D

 96105  0  0  1  0  0  0  0  0999 V2000
  -26.6970  -23.9240   20.8980 C   0  0  0  0  0  0  0  0  0  0  0  0
  -26.0700  -22.5470   20.7110 C   0  0  0  0  0  2  0  0  0  0  0  0
  -26.9130  -21.6000   19.8450 C   0  0  0  0  0  2  0  0  0  0  0  0
  -28.9750  -22.8000   20.6310 C   0  0  0  0  0  2  0  0  0  0  0  0
  -28.1160  -24.1450   20.3410 C   0  0  0  0  0  3  0  0  0  0  0  0
  -28.3040  -21.4890   20.3030 N   0  0  0  0  0  0  0  0  0  0  0  0
  -26.0670  -24.8020   21.4940 O   0  0  0  0  0  0  0  0  0  0  0  0
  -30.0680  -19.7340   20.9310 C   0  0  0  0  0  3  0  0  0  0  0  0
  -30.5570  -18.3810   20.8650 C   0  0  0  0  0  3  0  0  0  0  0  0
  -28.2600  -19.1260   19.5020 C   0  0  0  0  0  3  0  0  0  0  0  0
  -28.7290  -17.7850   19.4220 C   0  0  0  0  0  0  0  0  0  0  0  0
  -28.8920  -20.1600   20.2460 C   0  0  0  0  0  0  0  0  0  0  0  0
  -29.9190  -17.3610   20.0950 C   0  0  0  0  0  0  0  0  0  0  0  0
  -27.9000  -16.8660   18.5340 C   0  0  0  0  0  1  0  0  0  0  0  0
  -31.0460  -15.0610   20.5950 C   0  0  0  0  0  0  0  0  0  0  0  0
  -30.8390  -12.7680   19.6880 C   0  0  0  0  0  2  0  0  0  0  0  0
  -29.9580  -12.7980   18.4210 C   0  0  0  0  0  2  0  0  0  0  0  0
  -28.4680  -12.6810   18.7910 C   0  0  0  0  0  2  0  0  0  0  0  0
  -28.0450  -13.6030   19.9680 C   0  0  0  0  0  3  0  0  0  0  0  0
  -29.0580  -13.5700   21.1290 C   0  0  0  0  0  2  0  0  0  0  0  0
  -30.3720  -13.8680   20.5480 N   0  0  0  0  0  0  0  0  0  0  0  0
  -32.2700  -15.0490   20.7490 O   0  0  0  0  0  0  0  0  0  0  0  0
  -30.5480  -16.0600   19.7610 N   0  0  0  0  0  0  0  0  0  0  0  0
  -25.6370  -14.2340   20.5820 C   0  0  0  0  0  0  0  0  0  0  0  0
  -24.5390  -13.4730   20.8780 C   0  0  0  0  0  0  0  0  0  0  0  0
  -24.9830  -12.1150   20.8630 C   0  0  0  0  0  0  0  0  0  0  0  0
  -26.6790  -13.3380   20.3990 N   0  0  0  0  0  0  0  0  0  0  0  0
  -26.2890  -12.0600   20.6340 N   0  0  0  0  0  0  0  0  0  0  0  0
  -24.2300  -10.8630   20.9970 C   0  0  0  0  0  0  0  0  0  0  0  0
  -24.6040   -9.8730   21.9330 C   0  0  0  0  0  3  0  0  0  0  0  0
  -23.8540   -8.6850   22.0560 C   0  0  0  0  0  3  0  0  0  0  0  0
  -22.7130   -8.4780   21.2440 C   0  0  0  0  0  0  0  0  0  0  0  0
  -22.3590   -9.4560   20.2970 C   0  0  0  0  0  3  0  0  0  0  0  0
  -23.1110  -10.6350   20.1710 C   0  0  0  0  0  3  0  0  0  0  0  0
  -21.9370   -7.3440   21.2790 O   0  0  0  0  0  0  0  0  0  0  0  0
  -21.7920   -6.6070   22.4270 C   0  0  0  0  0  0  0  0  0  0  0  0
  -21.2470   -7.1630   23.6050 C   0  0  0  0  0  3  0  0  0  0  0  0
  -21.0510   -6.3510   24.7410 C   0  0  0  0  0  3  0  0  0  0  0  0
  -21.3870   -4.9850   24.6970 C   0  0  0  0  0  0  0  0  0  0  0  0
  -21.9240   -4.4290   23.5230 C   0  0  0  0  0  3  0  0  0  0  0  0
  -22.1230   -5.2380   22.3900 C   0  0  0  0  0  0  0  0  0  0  0  0
  -22.6210   -4.6920   21.2540 F   0  0  0  0  0  0  0  0  0  0  0  0
  -21.1910   -4.2040   25.7840 F   0  0  0  0  0  0  0  0  0  0  0  0
  -23.1360  -13.9690   21.0710 C   0  0  0  0  0  0  0  0  0  0  0  0
  -22.3520  -13.2850   21.8980 N   0  0  0  0  0  0  0  0  0  0  0  0
  -22.7400  -14.9980   20.5260 O   0  0  0  0  0  0  0  0  0  0  0  0
  -22.6840  -12.4540   22.3640 H   0  0  0  0  0  0  0  0  0  0  0  0
  -21.4080  -13.6000   22.0690 H   0  0  0  0  0  0  0  0  0  0  0  0
  -25.8320  -15.6030   20.4310 N   0  0  0  0  0  0  0  0  0  0  0  0
  -25.0750  -16.2700   20.5220 H   0  0  0  0  0  0  0  0  0  0  0  0
  -26.7210  -16.0370   20.2140 H   0  0  0  0  0  0  0  0  0  0  0  0
  -31.2730  -16.1130   18.4580 C   0  0  0  0  0  2  0  0  0  0  0  0
  -33.0480  -17.2440   17.0100 C   0  0  0  0  0  1  0  0  0  0  0  0
  -32.2770  -17.2820   18.3350 C   0  0  0  0  0  2  0  0  0  0  0  0
  -28.7080  -25.5600   20.8290 C   0  0  0  0  0  2  0  0  0  0  0  0
  -28.5380  -26.8550   20.1220 O   0  0  0  0  0  0  0  0  0  0  0  0
  -24.6900  -32.0420   23.4000 C   0  0  0  0  0  0  0  0  0  0  0  0
  -27.3820  -27.6330   20.2170 C   0  0  0  0  0  0  0  0  0  0  0  0
  -23.5180  -30.6980   21.6880 C   0  0  0  0  0  3  0  0  0  0  0  0
  -25.0010  -29.2110   20.2280 C   0  0  0  0  0  0  0  0  0  0  0  0
  -26.0550  -31.0490   21.5490 C   0  0  0  0  0  2  0  0  0  0  0  0
  -26.1550  -29.6940   20.8600 C   0  0  0  0  0  0  0  0  0  0  0  0
  -27.3510  -28.9170   20.8410 C   0  0  0  0  0  3  0  0  0  0  0  0
  -26.2130  -27.2000   19.5610 C   0  0  0  0  0  3  0  0  0  0  0  0
  -25.0310  -27.9700   19.5700 C   0  0  0  0  0  3  0  0  0  0  0  0
  -23.7570  -30.0740   20.2870 C   0  0  0  0  0  2  0  0  0  0  0  0
  -24.7720  -31.2790   22.2700 N   0  0  0  0  0  0  0  0  0  0  0  0
  -23.5980  -32.2870   23.9320 O   0  0  0  0  0  0  0  0  0  0  0  0
  -22.8540  -29.6400   22.5990 C   0  0  0  0  0  0  0  0  0  0  0  0
  -21.5330  -29.4510   22.4420 N   0  0  0  0  0  0  0  0  0  0  0  0
  -23.5260  -28.9940   23.4080 O   0  0  0  0  0  0  0  0  0  0  0  0
  -21.0500  -30.0260   21.7660 H   0  0  0  0  0  0  0  0  0  0  0  0
  -18.1580  -28.2190   22.8600 C   0  0  0  0  0  0  0  0  0  0  0  0
  -20.7130  -28.4760   23.1630 C   0  0  0  0  0  3  0  0  0  0  0  0
  -20.8260  -27.0730   22.5220 C   0  0  0  0  0  2  0  0  0  0  0  0
  -19.7340  -26.7940   21.4850 C   0  0  0  0  0  2  0  0  0  0  0  0
  -18.3460  -26.9030   22.1240 C   0  0  0  0  0  2  0  0  0  0  0  0
  -19.2700  -28.9650   23.3330 C   0  0  0  0  0  0  0  0  0  0  0  0
  -19.0420  -30.1990   23.9820 C   0  0  0  0  0  3  0  0  0  0  0  0
  -17.7340  -30.6860   24.1600 C   0  0  0  0  0  3  0  0  0  0  0  0
  -16.6360  -29.9370   23.7030 C   0  0  0  0  0  3  0  0  0  0  0  0
  -16.8490  -28.7050   23.0590 C   0  0  0  0  0  3  0  0  0  0  0  0
  -25.9590  -32.6580   24.0640 C   0  0  0  0  0  3  0  0  0  0  0  0
  -26.4280  -31.8770   25.3530 C   0  0  1  0  0  0  0  0  0  0  0  0
  -25.2970  -31.6330   26.3780 C   0  0  0  0  0  1  0  0  0  0  0  0
  -27.0250  -30.5030   24.9720 C   0  0  0  0  0  1  0  0  0  0  0  0
  -27.5540  -32.6660   26.0630 C   0  0  0  0  0  1  0  0  0  0  0  0
  -25.6540  -34.0580   24.3910 N   0  0  0  0  0  0  0  0  0  0  0  0
  -26.0260  -35.1120   23.6520 C   0  0  0  0  0  0  0  0  0  0  0  0
  -26.7330  -35.0070   22.6450 O   0  0  0  0  0  0  0  0  0  0  0  0
  -25.0330  -34.2150   25.1710 H   0  0  0  0  0  0  0  0  0  0  0  0
  -24.3440  -36.9350   23.2360 C   0  0  0  0  0  1  0  0  0  0  0  0
  -25.5390  -36.5040   24.1000 C   0  0  0  0  0  3  0  0  0  0  0  0
  -27.6430  -37.3530   25.0430 C   0  0  0  0  0  1  0  0  0  0  0  0
  -26.5920  -37.5430   24.0450 N   0  0  0  0  0  0  0  0  0  0  0  0
  -26.1920  -38.4670   24.1770 H   0  0  0  0  0  0  0  0  0  0  0  0
  1  7  2  0
  2  1  1  0
  3  6  1  0
  3  2  1  0
  5  4  1  0
  5 55  1  0
  5  1  1  0
  6  4  1  0
  9  8  1  0
 10 12  1  0
 11 10  2  0
 11 13  1  0
 12  6  1  0
 12  8  2  0
 13  9  2  0
 14 11  1  0
 15 22  2  0
 16 21  1  0
 17 18  1  0
 17 16  1  0
 19 18  1  0
 19 27  1  0
 19 20  1  0
 21 15  1  0
 21 20  1  0
 23 13  1  0
 23 15  1  0
 24 25  2  0
 25 44  1  0
 26 25  1  0
 26 29  1  0
 27 24  1  0
 27 28  1  0
 28 26  2  0
 29 30  1  0
 30 31  2  0
 32 35  1  0
 32 31  1  0
 33 32  2  0
 34 33  1  0
 34 29  2  0
 35 36  1  0
 36 37  1  0
 37 38  2  0
 39 38  1  0
 39 43  1  0
 40 39  2  0
 41 36  2  0
 41 40  1  0
 42 41  1  0
 44 45  1  0
 45 48  1  0
 45 47  1  0
 46 44  2  0
 49 50  1  0
 49 24  1  0
 51 49  1  0
 52 23  1  0
 53 54  1  0
 54 52  1  0
 56 58  1  0
 56 55  1  0
 57 68  2  0
 58 63  1  0
 59 67  1  0
 59 69  1  0
 60 66  1  0
 60 62  1  0
 61 67  1  0
 62 61  1  0
 63 62  2  0
 64 65  1  0
 64 58  2  0
 65 60  2  0
 66 59  1  0
 67 57  1  0
 69 71  2  0
 70 69  1  0
 72 70  1  0
 73 82  2  0
 73 78  1  0
 74 70  1  0
 74 78  1  0
 75 74  1  0
 76 77  1  0
 76 75  1  0
 77 73  1  0
 78 79  2  0
 79 80  1  0
 81 80  2  0
 82 81  1  0
 83 57  1  0
 83 88  1  0
 83 84  1  0
 84 87  1  1
 84 85  1  0
 86 84  1  0
 88 91  1  0
 89 93  1  0
 89 88  1  0
 90 89  2  0
 93 92  1  0
 95 93  1  0
 95 96  1  0
 95 94  1  0
M  ISO  4  15 100  23 100  55 101  56 101
M  END
>  <TORSDO>  (19) 
F 20

>  <SCORE>  (19) 
-13.130

>  <name>  (19) 
18

>  <ligand_id>  (19) 
18

>  <original_smiles>  (19) 
[H]c1c([H])c([H])c2c(c1[H])C([H])([H])C([H])([H])C([H])([H])C2([H])N([H])C(=O)C1([H])N(C(=O)C([H])(N([H])C(=O)C([H])(N([H])C([H])([H])[H])C([H])([H])[H])C(C([H])([H])[H])(C([H])([H])[H])C([H])([H])[H])C([H])([H])c2c([H])c(OC([H])([H])C3([H])C(=O)C([H])([H])C([H])([H])N(c4c([H])c([H])c(N(C(=O)N5C([H])([H])C([H])([H])C([H])([H])C([H])(n6nc(-c7c([H])c([H])c(Oc8c([H])c([H])c(F)c([H])c8F)c([H])c7[H])c(C(=O)N([H])[H])c6N([H])[H])C5([H])[H])C([H])([H])C([H])([H])C([H])([H])[H])c(C([H])([H])[H])c4[H])C3([H])[H])c([H])c([H])c2C1([H])[H]

>  <smiles>  (19) 
[H]c1c([H])c([H])c2c(c1[H])C([H])([H])C([H])([H])C([H])([H])C2([H])N([H])C(=O)C1([H])N(C(=O)C([H])(N([H])C(=O)C([H])(N([H])C([H])([H])[H])C([H])([H])[H])C(C([H])([H])[H])(C([H])([H])[H])C([H])([H])[H])C([H])([H])c2c([H])c(OC([H])([H])C3([H])C(=O)C([H])([H])C([H])([H])N(c4c([H])c([H])c(N(C(=O)N5C([H])([H])C([H])([H])C([H])([H])C([H])(n6nc(-c7c([H])c([H])c(Oc8c([H])c([H])c(F)c([H])c8F)c([H])c7[H])c(C(=O)N([H])[H])c6N([H])[H])C5([H])[H])C([H])([H])C([H])([H])C([H])([H])[H])c(C([H])([H])[H])c4[H])C3([H])[H])c([H])c([H])c2C1([H])[H]

$$$$
19:0:0
     RDKit          3D

 92100  0  0  1  0  0  0  0  0999 V2000
  -28.0330  -20.4460   20.3330 C   0  0  0  0  0  3  0  0  0  0  0  0
  -30.5010  -19.2460   20.2460 C   0  0  0  0  0  3  0  0  0  0  0  0
  -29.0420  -21.5030   20.2850 C   0  0  0  0  0  0  0  0  0  0  0  0
  -30.3070  -20.7370   20.2470 C   0  0  0  0  0  0  0  0  0  0  0  0
  -29.4840  -18.2060   20.3000 C   0  0  0  0  0  0  0  0  0  0  0  0
  -28.2320  -18.9620   20.3430 C   0  0  0  0  0  0  0  0  0  0  0  0
  -30.3830  -15.3690   20.1830 C   0  0  0  0  0  0  0  0  0  0  0  0
  -30.3900  -12.9260   19.2860 C   0  0  0  0  0  2  0  0  0  0  0  0
  -29.4350  -12.7210   18.0800 C   0  0  0  0  0  2  0  0  0  0  0  0
  -28.0000  -12.4380   18.5560 C   0  0  0  0  0  2  0  0  0  0  0  0
  -27.5720  -13.3820   19.7060 C   0  0  0  0  0  3  0  0  0  0  0  0
  -28.6510  -13.5150   20.8020 C   0  0  0  0  0  2  0  0  0  0  0  0
  -29.8570  -14.0450   20.1450 N   0  0  0  0  0  0  0  0  0  0  0  0
  -31.5940  -15.4160   19.9160 O   0  0  0  0  0  0  0  0  0  0  0  0
  -29.5370  -16.5790   20.3310 N   0  0  0  0  0  0  0  0  0  0  0  0
  -28.5950  -16.2490   20.4860 H   0  0  0  0  0  0  0  0  0  0  0  0
  -25.2230  -13.9150   20.5430 C   0  0  0  0  0  0  0  0  0  0  0  0
  -24.1750  -13.1250   20.9240 C   0  0  0  0  0  0  0  0  0  0  0  0
  -24.6450  -11.7780   20.8480 C   0  0  0  0  0  0  0  0  0  0  0  0
  -26.2610  -13.0500   20.2480 N   0  0  0  0  0  0  0  0  0  0  0  0
  -25.9270  -11.7560   20.4990 N   0  0  0  0  0  0  0  0  0  0  0  0
  -23.9260  -10.5090   21.0300 C   0  0  0  0  0  0  0  0  0  0  0  0
  -24.3640   -9.5360   21.9540 C   0  0  0  0  0  3  0  0  0  0  0  0
  -23.6420   -8.3350   22.1250 C   0  0  0  0  0  3  0  0  0  0  0  0
  -22.4680   -8.0990   21.3720 C   0  0  0  0  0  0  0  0  0  0  0  0
  -22.0490   -9.0600   20.4360 C   0  0  0  0  0  3  0  0  0  0  0  0
  -22.7720  -10.2520   20.2630 C   0  0  0  0  0  3  0  0  0  0  0  0
  -21.7180   -6.9500   21.4520 O   0  0  0  0  0  0  0  0  0  0  0  0
  -21.6410   -6.2200   22.6120 C   0  0  0  0  0  0  0  0  0  0  0  0
  -21.1430   -6.7750   23.8110 C   0  0  0  0  0  3  0  0  0  0  0  0
  -21.0160   -5.9700   24.9610 C   0  0  0  0  0  3  0  0  0  0  0  0
  -21.3780   -4.6110   24.9110 C   0  0  0  0  0  0  0  0  0  0  0  0
  -21.8700   -4.0540   23.7170 C   0  0  0  0  0  3  0  0  0  0  0  0
  -21.9970   -4.8570   22.5700 C   0  0  0  0  0  0  0  0  0  0  0  0
  -22.4510   -4.3100   21.4160 F   0  0  0  0  0  0  0  0  0  0  0  0
  -21.2500   -3.8350   26.0140 F   0  0  0  0  0  0  0  0  0  0  0  0
  -22.7840  -13.5910   21.2420 C   0  0  0  0  0  0  0  0  0  0  0  0
  -22.0850  -12.8800   22.1180 N   0  0  0  0  0  0  0  0  0  0  0  0
  -22.3290  -14.6230   20.7510 O   0  0  0  0  0  0  0  0  0  0  0  0
  -22.4670  -12.0460   22.5390 H   0  0  0  0  0  0  0  0  0  0  0  0
  -21.1530  -13.1750   22.3750 H   0  0  0  0  0  0  0  0  0  0  0  0
  -25.3690  -15.2910   20.3970 N   0  0  0  0  0  0  0  0  0  0  0  0
  -24.6010  -15.9280   20.5720 H   0  0  0  0  0  0  0  0  0  0  0  0
  -26.2070  -15.7710   20.0920 H   0  0  0  0  0  0  0  0  0  0  0  0
  -32.6540  -21.0790   20.9100 C   0  0  0  0  0  1  0  0  0  0  0  0
  -31.4640  -21.5310   20.1980 N   0  0  0  0  0  0  0  0  0  0  0  0
  -31.3100  -22.5360   20.2040 H   0  0  0  0  0  0  0  0  0  0  0  0
  -28.9200  -23.2250   20.2790 C   0  0  0  0  0  3  0  0  0  0  0  0
  -28.0100  -24.3880   20.3000 C   0  0  0  0  0  3  0  0  0  0  0  0
  -28.2150  -25.9160   20.3000 O   0  0  0  0  0  0  0  0  0  0  0  0
  -24.6640  -31.9250   23.2560 C   0  0  0  0  0  0  0  0  0  0  0  0
  -27.1980  -27.0120   20.2680 C   0  0  0  0  0  0  0  0  0  0  0  0
  -23.4660  -30.5300   21.6190 C   0  0  0  0  0  3  0  0  0  0  0  0
  -24.9080  -28.9090   20.2080 C   0  0  0  0  0  0  0  0  0  0  0  0
  -26.0330  -30.7210   21.4820 C   0  0  0  0  0  2  0  0  0  0  0  0
  -26.0950  -29.3070   20.8340 C   0  0  0  0  0  0  0  0  0  0  0  0
  -27.2330  -28.3790   20.8430 C   0  0  0  0  0  3  0  0  0  0  0  0
  -25.9830  -26.7710   19.5850 C   0  0  0  0  0  3  0  0  0  0  0  0
  -24.8770  -27.6610   19.5640 C   0  0  0  0  0  3  0  0  0  0  0  0
  -23.6950  -29.8390   20.2470 C   0  0  0  0  0  2  0  0  0  0  0  0
  -24.7420  -31.0870   22.1730 N   0  0  0  0  0  0  0  0  0  0  0  0
  -23.5750  -32.2240   23.7730 O   0  0  0  0  0  0  0  0  0  0  0  0
  -22.7620  -29.5440   22.5880 C   0  0  0  0  0  0  0  0  0  0  0  0
  -21.4330  -29.3800   22.4540 N   0  0  0  0  0  0  0  0  0  0  0  0
  -23.4200  -28.9230   23.4270 O   0  0  0  0  0  0  0  0  0  0  0  0
  -20.9550  -29.9310   21.7530 H   0  0  0  0  0  0  0  0  0  0  0  0
  -18.0420  -28.1860   22.9530 C   0  0  0  0  0  0  0  0  0  0  0  0
  -20.6020  -28.4500   23.2260 C   0  0  0  0  0  3  0  0  0  0  0  0
  -20.7030  -27.0140   22.6590 C   0  0  0  0  0  2  0  0  0  0  0  0
  -19.6040  -26.6870   21.6410 C   0  0  0  0  0  2  0  0  0  0  0  0
  -18.2200  -26.8350   22.2800 C   0  0  0  0  0  2  0  0  0  0  0  0
  -19.1600  -28.9500   23.3830 C   0  0  0  0  0  0  0  0  0  0  0  0
  -18.9380  -30.2110   23.9760 C   0  0  0  0  0  3  0  0  0  0  0  0
  -17.6320  -30.7100   24.1410 C   0  0  0  0  0  3  0  0  0  0  0  0
  -16.5290  -29.9440   23.7250 C   0  0  0  0  0  3  0  0  0  0  0  0
  -16.7350  -28.6840   23.1380 C   0  0  0  0  0  3  0  0  0  0  0  0
  -25.9370  -32.5620   23.8910 C   0  0  0  0  0  3  0  0  0  0  0  0
  -26.4350  -31.7980   25.1810 C   0  0  1  0  0  0  0  0  0  0  0  0
  -25.3280  -31.5730   26.2380 C   0  0  0  0  0  1  0  0  0  0  0  0
  -27.0170  -30.4140   24.8140 C   0  0  0  0  0  1  0  0  0  0  0  0
  -27.5800  -32.5930   25.8500 C   0  0  0  0  0  1  0  0  0  0  0  0
  -25.6260  -33.9640   24.2220 N   0  0  0  0  0  0  0  0  0  0  0  0
  -25.9350  -35.0210   23.4600 C   0  0  0  0  0  0  0  0  0  0  0  0
  -26.5750  -34.9190   22.4100 O   0  0  0  0  0  0  0  0  0  0  0  0
  -25.0520  -34.1160   25.0390 H   0  0  0  0  0  0  0  0  0  0  0  0
  -24.1860  -36.8130   23.1780 C   0  0  0  0  0  1  0  0  0  0  0  0
  -25.4640  -36.4110   23.9350 C   0  0  0  0  0  3  0  0  0  0  0  0
  -27.6230  -37.3170   24.6760 C   0  0  0  0  0  1  0  0  0  0  0  0
  -26.4860  -37.4690   23.7730 N   0  0  0  0  0  0  0  0  0  0  0  0
  -26.0800  -38.3880   23.9250 H   0  0  0  0  0  0  0  0  0  0  0  0
  -27.1110  -18.1840   20.3980 O   0  0  0  0  0  0  0  0  0  0  0  0
  -26.3080  -18.6920   20.4480 H   0  0  0  0  0  0  0  0  0  0  0  0
  1  6  1  0
  2  4  2  0
  2  5  1  0
  3  1  2  0
  4  3  1  0
  5 15  1  0
  5  6  2  0
  6 91  1  0
  7 15  1  0
  8 13  1  0
  9 10  1  0
  9  8  1  0
 11 10  1  0
 11 20  1  0
 11 12  1  0
 13  7  1  0
 13 12  1  0
 14  7  2  0
 15 16  1  0
 17 18  2  0
 18 37  1  0
 19 18  1  0
 19 22  1  0
 20 21  1  0
 20 17  1  0
 21 19  2  0
 22 23  1  0
 23 24  2  0
 25 28  1  0
 25 24  1  0
 26 25  2  0
 27 26  1  0
 27 22  2  0
 28 29  1  0
 29 30  1  0
 30 31  2  0
 32 31  1  0
 32 36  1  0
 33 32  2  0
 34 29  2  0
 34 33  1  0
 35 34  1  0
 37 38  1  0
 38 41  1  0
 38 40  1  0
 39 37  2  0
 42 17  1  0
 42 43  1  0
 44 42  1  0
 46 47  1  0
 46  4  1  0
 46 45  1  0
 48  3  1  0
 48 49  2  0
 50 49  1  0
 51 62  2  0
 52 50  1  0
 52 57  1  0
 53 61  1  0
 53 63  1  0
 54 60  1  0
 54 56  1  0
 55 61  1  0
 56 57  2  0
 56 55  1  0
 58 52  2  0
 59 58  1  0
 59 54  2  0
 60 53  1  0
 61 51  1  0
 63 65  2  0
 64 63  1  0
 66 64  1  0
 67 76  2  0
 67 72  1  0
 68 64  1  0
 68 72  1  0
 69 68  1  0
 70 71  1  0
 70 69  1  0
 71 67  1  0
 72 73  2  0
 73 74  1  0
 75 74  2  0
 76 75  1  0
 77 51  1  0
 77 82  1  0
 77 78  1  0
 78 81  1  1
 78 79  1  0
 80 78  1  0
 82 85  1  0
 83 87  1  0
 83 82  1  0
 84 83  2  0
 87 86  1  0
 89 90  1  0
 89 87  1  0
 89 88  1  0
 91 92  1  0
M  ISO  4   7 100  15 100  49 101  50 101
M  END
>  <TORSDO>  (20) 
F 19

>  <SCORE>  (20) 
-15.192

>  <name>  (20) 
19

>  <ligand_id>  (20) 
19

>  <original_smiles>  (20) 
[H]Oc1c([H])c(C([H])=C([H])Oc2c([H])c([H])c3c(c2[H])C([H])([H])N(C(=O)C([H])(N([H])C(=O)C([H])(N([H])C([H])([H])[H])C([H])([H])[H])C(C([H])([H])[H])(C([H])([H])[H])C([H])([H])[H])C([H])(C(=O)N([H])C2([H])c4c([H])c([H])c([H])c([H])c4C([H])([H])C([H])([H])C2([H])[H])C3([H])[H])c(N([H])C([H])([H])[H])c([H])c1N([H])C(=O)N1C([H])([H])C([H])([H])C([H])([H])C([H])(n2nc(-c3c([H])c([H])c(Oc4c([H])c([H])c(F)c([H])c4F)c([H])c3[H])c(C(=O)N([H])[H])c2N([H])[H])C1([H])[H]

>  <smiles>  (20) 
[H]Oc1c([H])c(C([H])=C([H])Oc2c([H])c([H])c3c(c2[H])C([H])([H])N(C(=O)C([H])(N([H])C(=O)C([H])(N([H])C([H])([H])[H])C([H])([H])[H])C(C([H])([H])[H])(C([H])([H])[H])C([H])([H])[H])C([H])(C(=O)N([H])C2([H])c4c([H])c([H])c([H])c([H])c4C([H])([H])C([H])([H])C2([H])[H])C3([H])[H])c(N([H])C([H])([H])[H])c([H])c1N([H])C(=O)N1C([H])([H])C([H])([H])C([H])([H])C([H])(n2nc(-c3c([H])c([H])c(Oc4c([H])c([H])c(F)c([H])c4F)c([H])c3[H])c(C(=O)N([H])[H])c2N([H])[H])C1([H])[H]

$$$$
20:0:0
     RDKit          3D

 95104  0  0  1  0  0  0  0  0999 V2000
  -30.6460  -24.5000   19.3960 C   0  0  0  0  0  2  0  0  0  0  0  0
  -31.4310  -23.2050   19.6460 C   0  0  0  0  0  2  0  0  0  0  0  0
  -29.1550  -22.8570   20.2830 C   0  0  0  0  0  2  0  0  0  0  0  0
  -29.4430  -24.3780   20.3250 C   0  0  0  0  0  3  0  0  0  0  0  0
  -30.4440  -22.1580   20.0240 N   0  0  1  0  0  4  0  0  0  0  0  0
  -30.7660  -21.7770   20.9020 H   0  0  0  0  0  0  0  0  0  0  0  0
  -30.3640  -21.0030   19.0780 C   0  0  0  0  0  2  0  0  0  0  0  0
  -31.3740  -17.5590   20.5580 C   0  0  0  0  0  3  0  0  0  0  0  0
  -29.0470  -18.9660   19.8670 C   0  0  0  0  0  3  0  0  0  0  0  0
  -31.4670  -18.9040   20.1220 C   0  0  0  0  0  0  0  0  0  0  0  0
  -30.2960  -19.6150   19.7390 C   0  0  0  0  0  0  0  0  0  0  0  0
  -30.1260  -16.8940   20.6110 C   0  0  0  0  0  0  0  0  0  0  0  0
  -28.9620  -17.6260   20.2980 C   0  0  0  0  0  0  0  0  0  0  0  0
  -32.8450  -19.5460   20.0370 C   0  0  0  0  0  1  0  0  0  0  0  0
  -27.7550  -17.0130   20.3690 F   0  0  0  0  0  0  0  0  0  0  0  0
  -30.6790  -14.4830   20.4740 C   0  0  0  0  0  0  0  0  0  0  0  0
  -30.3690  -12.3140   19.3480 C   0  0  0  0  0  2  0  0  0  0  0  0
  -29.4390  -12.5350   18.1370 C   0  0  0  0  0  2  0  0  0  0  0  0
  -27.9600  -12.4120   18.5550 C   0  0  0  0  0  2  0  0  0  0  0  0
  -27.6200  -13.2440   19.8220 C   0  0  0  0  0  3  0  0  0  0  0  0
  -28.6710  -13.0200   20.9330 C   0  0  0  0  0  2  0  0  0  0  0  0
  -30.0020  -13.3070   20.3710 N   0  0  0  0  0  0  0  0  0  0  0  0
  -31.8180  -14.6310   20.0240 O   0  0  0  0  0  0  0  0  0  0  0  0
  -29.9710  -15.5170   20.9680 N   0  0  0  0  0  0  0  0  0  0  0  0
  -29.0440  -15.2660   21.2770 H   0  0  0  0  0  0  0  0  0  0  0  0
  -25.2170  -13.8590   20.5090 C   0  0  0  0  0  0  0  0  0  0  0  0
  -24.1430  -13.0910   20.8710 C   0  0  0  0  0  0  0  0  0  0  0  0
  -24.6030  -11.7380   20.8560 C   0  0  0  0  0  0  0  0  0  0  0  0
  -26.2630  -12.9740   20.2920 N   0  0  0  0  0  0  0  0  0  0  0  0
  -25.8950  -11.6940   20.5580 N   0  0  0  0  0  0  0  0  0  0  0  0
  -23.8720  -10.4790   21.0540 C   0  0  0  0  0  0  0  0  0  0  0  0
  -24.3110   -9.5070   21.9800 C   0  0  0  0  0  3  0  0  0  0  0  0
  -23.5800   -8.3130   22.1660 C   0  0  0  0  0  3  0  0  0  0  0  0
  -22.3970   -8.0840   21.4240 C   0  0  0  0  0  0  0  0  0  0  0  0
  -21.9780   -9.0430   20.4870 C   0  0  0  0  0  3  0  0  0  0  0  0
  -22.7080  -10.2290   20.2990 C   0  0  0  0  0  3  0  0  0  0  0  0
  -21.6390   -6.9410   21.5180 O   0  0  0  0  0  0  0  0  0  0  0  0
  -21.6170   -6.1840   22.6620 C   0  0  0  0  0  0  0  0  0  0  0  0
  -21.2450   -6.7300   23.9090 C   0  0  0  0  0  3  0  0  0  0  0  0
  -21.1680   -5.9000   25.0460 C   0  0  0  0  0  3  0  0  0  0  0  0
  -21.4530   -4.5260   24.9350 C   0  0  0  0  0  0  0  0  0  0  0  0
  -21.8190   -3.9810   23.6920 C   0  0  0  0  0  3  0  0  0  0  0  0
  -21.8980   -4.8070   22.5580 C   0  0  0  0  0  0  0  0  0  0  0  0
  -22.2300   -4.2720   21.3590 F   0  0  0  0  0  0  0  0  0  0  0  0
  -21.3700   -3.7270   26.0240 F   0  0  0  0  0  0  0  0  0  0  0  0
  -22.7460  -13.5750   21.1310 C   0  0  0  0  0  0  0  0  0  0  0  0
  -22.0090  -12.8880   21.9980 N   0  0  0  0  0  0  0  0  0  0  0  0
  -22.3110  -14.5970   20.5990 O   0  0  0  0  0  0  0  0  0  0  0  0
  -22.3710  -12.0630   22.4510 H   0  0  0  0  0  0  0  0  0  0  0  0
  -21.0710  -13.1940   22.2140 H   0  0  0  0  0  0  0  0  0  0  0  0
  -25.3840  -15.2280   20.3320 N   0  0  0  0  0  0  0  0  0  0  0  0
  -24.6250  -15.8840   20.4720 H   0  0  0  0  0  0  0  0  0  0  0  0
  -26.2600  -15.6910   20.1150 H   0  0  0  0  0  0  0  0  0  0  0  0
  -28.2230  -25.2390   19.9210 C   0  0  0  0  0  2  0  0  0  0  0  0
  -28.3770  -26.6560   20.1340 O   0  0  0  0  0  0  0  0  0  0  0  0
  -24.6090  -31.8730   23.2190 C   0  0  0  0  0  0  0  0  0  0  0  0
  -27.2100  -27.4070   20.1160 C   0  0  0  0  0  0  0  0  0  0  0  0
  -23.3850  -30.4740   21.5900 C   0  0  0  0  0  3  0  0  0  0  0  0
  -24.8210  -28.9370   20.1530 C   0  0  0  0  0  0  0  0  0  0  0  0
  -25.9140  -30.8210   21.3720 C   0  0  0  0  0  2  0  0  0  0  0  0
  -25.9900  -29.4500   20.7290 C   0  0  0  0  0  0  0  0  0  0  0  0
  -27.1870  -28.6950   20.7060 C   0  0  0  0  0  3  0  0  0  0  0  0
  -26.0170  -26.9200   19.5300 C   0  0  0  0  0  3  0  0  0  0  0  0
  -24.8290  -27.6700   19.5520 C   0  0  0  0  0  3  0  0  0  0  0  0
  -23.5810  -29.7980   20.2090 C   0  0  0  0  0  2  0  0  0  0  0  0
  -24.6550  -31.0710   22.1180 N   0  0  0  0  0  0  0  0  0  0  0  0
  -23.5330  -32.1490   23.7680 O   0  0  0  0  0  0  0  0  0  0  0  0
  -22.7400  -29.4530   22.5550 C   0  0  0  0  0  0  0  0  0  0  0  0
  -21.4140  -29.2750   22.4400 N   0  0  0  0  0  0  0  0  0  0  0  0
  -23.4290  -28.8250   23.3630 O   0  0  0  0  0  0  0  0  0  0  0  0
  -20.9200  -29.8340   21.7570 H   0  0  0  0  0  0  0  0  0  0  0  0
  -18.0410  -28.0880   22.9610 C   0  0  0  0  0  0  0  0  0  0  0  0
  -20.6000  -28.3410   23.2180 C   0  0  0  0  0  3  0  0  0  0  0  0
  -20.6980  -26.9090   22.6450 C   0  0  0  0  0  2  0  0  0  0  0  0
  -19.5900  -26.5850   21.6380 C   0  0  0  0  0  2  0  0  0  0  0  0
  -18.2110  -26.7360   22.2900 C   0  0  0  0  0  2  0  0  0  0  0  0
  -19.1640  -28.8480   23.3830 C   0  0  0  0  0  0  0  0  0  0  0  0
  -18.9510  -30.1150   23.9700 C   0  0  0  0  0  3  0  0  0  0  0  0
  -17.6500  -30.6210   24.1410 C   0  0  0  0  0  3  0  0  0  0  0  0
  -16.5410  -29.8560   23.7360 C   0  0  0  0  0  3  0  0  0  0  0  0
  -16.7380  -28.5920   23.1530 C   0  0  0  0  0  3  0  0  0  0  0  0
  -25.9010  -32.5030   23.8260 C   0  0  0  0  0  3  0  0  0  0  0  0
  -26.4390  -31.7210   25.0870 C   0  0  1  0  0  0  0  0  0  0  0  0
  -25.3620  -31.4720   26.1690 C   0  0  0  0  0  1  0  0  0  0  0  0
  -27.0170  -30.3480   24.6720 C   0  0  0  0  0  1  0  0  0  0  0  0
  -27.5990  -32.5120   25.7380 C   0  0  0  0  0  1  0  0  0  0  0  0
  -25.5950  -33.8960   24.1700 N   0  0  0  0  0  0  0  0  0  0  0  0
  -25.9120  -34.9550   23.4120 C   0  0  0  0  0  0  0  0  0  0  0  0
  -26.5660  -34.8600   22.3710 O   0  0  0  0  0  0  0  0  0  0  0  0
  -25.0120  -34.0450   24.9820 H   0  0  0  0  0  0  0  0  0  0  0  0
  -24.1700  -36.7400   23.0980 C   0  0  0  0  0  1  0  0  0  0  0  0
  -25.4260  -36.3390   23.8850 C   0  0  0  0  0  3  0  0  0  0  0  0
  -27.5730  -37.2240   24.6790 C   0  0  0  0  0  1  0  0  0  0  0  0
  -26.4530  -37.3960   23.7600 N   0  0  0  0  0  0  0  0  0  0  0  0
  -26.0460  -38.3130   23.9220 H   0  0  0  0  0  0  0  0  0  0  0  0
  1  2  1  0
  1  4  1  0
  2  5  1  0
  3  4  1  0
  4 54  1  0
  5  3  1  0
  5  6  1  1
  7 11  1  0
  7  5  1  0
  8 12  1  0
  9 13  1  0
 10  8  2  0
 11  9  2  0
 11 10  1  0
 12 24  1  0
 13 15  1  0
 13 12  2  0
 14 10  1  0
 16 24  1  0
 17 22  1  0
 18 19  1  0
 18 17  1  0
 20 19  1  0
 20 29  1  0
 20 21  1  0
 22 16  1  0
 22 21  1  0
 23 16  2  0
 24 25  1  0
 26 27  2  0
 27 46  1  0
 28 27  1  0
 28 31  1  0
 29 26  1  0
 29 30  1  0
 30 28  2  0
 31 32  1  0
 32 33  2  0
 34 37  1  0
 34 33  1  0
 35 34  2  0
 36 35  1  0
 36 31  2  0
 37 38  1  0
 38 39  1  0
 39 40  2  0
 41 40  1  0
 41 45  1  0
 42 41  2  0
 43 38  2  0
 43 42  1  0
 44 43  1  0
 46 47  1  0
 47 50  1  0
 47 49  1  0
 48 46  2  0
 51 52  1  0
 51 26  1  0
 53 51  1  0
 54 55  1  0
 56 67  2  0
 57 55  1  0
 57 62  1  0
 58 66  1  0
 58 68  1  0
 59 65  1  0
 59 61  1  0
 60 66  1  0
 61 60  1  0
 62 61  2  0
 63 64  1  0
 63 57  2  0
 64 59  2  0
 65 58  1  0
 66 56  1  0
 68 70  2  0
 69 68  1  0
 71 69  1  0
 72 81  2  0
 72 77  1  0
 73 69  1  0
 73 77  1  0
 74 73  1  0
 75 76  1  0
 75 74  1  0
 76 72  1  0
 77 78  2  0
 78 79  1  0
 80 79  2  0
 81 80  1  0
 82 56  1  0
 82 87  1  0
 82 83  1  0
 83 86  1  1
 83 84  1  0
 85 83  1  0
 87 90  1  0
 88 92  1  0
 88 87  1  0
 89 88  2  0
 92 91  1  0
 94 92  1  0
 94 95  1  0
 94 93  1  0
M  ISO  4  16 100  24 100  54 101  55 101
M  END
>  <TORSDO>  (21) 
F 19

>  <SCORE>  (21) 
-14.570

>  <name>  (21) 
20

>  <ligand_id>  (21) 
20

>  <original_smiles>  (21) 
[H]c1c([H])c([H])c2c(c1[H])C([H])([H])C([H])([H])C([H])([H])C2([H])N([H])C(=O)C1([H])N(C(=O)C([H])(N([H])C(=O)C([H])(N([H])C([H])([H])[H])C([H])([H])[H])C(C([H])([H])[H])(C([H])([H])[H])C([H])([H])[H])C([H])([H])c2c([H])c(OC([H])([H])C3([H])C([H])([H])C([H])([H])[N+]([H])(C([H])([H])c4c([H])c(F)c(N([H])C(=O)N5C([H])([H])C([H])([H])C([H])([H])C([H])(n6nc(-c7c([H])c([H])c(Oc8c([H])c([H])c(F)c([H])c8F)c([H])c7[H])c(C(=O)N([H])[H])c6N([H])[H])C5([H])[H])c([H])c4C([H])([H])[H])C3([H])[H])c([H])c([H])c2C1([H])[H]

>  <smiles>  (21) 
[H]c1c([H])c([H])c2c(c1[H])C([H])([H])C([H])([H])C([H])([H])C2([H])N([H])C(=O)C1([H])N(C(=O)C([H])(N([H])C(=O)C([H])(N([H])C([H])([H])[H])C([H])([H])[H])C(C([H])([H])[H])(C([H])([H])[H])C([H])([H])[H])C([H])([H])c2c([H])c(OC([H])([H])C3([H])C([H])([H])C([H])([H])[N+]([H])(C([H])([H])c4c([H])c(F)c(N([H])C(=O)N5C([H])([H])C([H])([H])C([H])([H])C([H])(n6nc(-c7c([H])c([H])c(Oc8c([H])c([H])c(F)c([H])c8F)c([H])c7[H])c(C(=O)N([H])[H])c6N([H])[H])C5([H])[H])c([H])c4C([H])([H])[H])C3([H])[H])c([H])c([H])c2C1([H])[H]

$$$$
21:0:0
     RDKit          3D

 95103  0  0  1  0  0  0  0  0999 V2000
  -29.3200  -19.2040   21.0250 C   0  0  0  0  0  3  0  0  0  0  0  0
  -29.8950  -21.0390   18.9730 C   0  0  0  0  0  3  0  0  0  0  0  0
  -30.1210  -18.7380   19.9530 C   0  0  0  0  0  0  0  0  0  0  0  0
  -30.3660  -19.6880   18.9020 C   0  0  0  0  0  0  0  0  0  0  0  0
  -28.8520  -20.5520   21.0850 C   0  0  0  0  0  0  0  0  0  0  0  0
  -29.1580  -21.5160   20.0820 C   0  0  0  0  0  0  0  0  0  0  0  0
  -31.1790  -19.3000   17.6750 C   0  0  0  0  0  1  0  0  0  0  0  0
  -30.9940  -14.9580   19.8990 C   0  0  0  0  0  0  0  0  0  0  0  0
  -30.6380  -12.6860   18.9600 C   0  0  0  0  0  2  0  0  0  0  0  0
  -29.6620  -12.7570   17.7690 C   0  0  0  0  0  2  0  0  0  0  0  0
  -28.2110  -12.6200   18.2660 C   0  0  0  0  0  2  0  0  0  0  0  0
  -27.8990  -13.5490   19.4710 C   0  0  0  0  0  3  0  0  0  0  0  0
  -29.0040  -13.5020   20.5490 C   0  0  0  0  0  2  0  0  0  0  0  0
  -30.2790  -13.7870   19.8840 N   0  0  0  0  0  0  0  0  0  0  0  0
  -32.1700  -14.9250   19.5290 O   0  0  0  0  0  0  0  0  0  0  0  0
  -30.9140  -17.4140   20.0480 C   0  0  0  0  0  0  0  0  0  0  0  0
  -30.3360  -16.1600   20.0940 N   0  0  0  0  0  0  0  0  0  0  0  0
  -32.1390  -17.5730   20.0790 O   0  0  0  0  0  0  0  0  0  0  0  0
  -29.3360  -16.1270   20.2000 H   0  0  0  0  0  0  0  0  0  0  0  0
  -25.5670  -14.1720   20.3380 C   0  0  0  0  0  0  0  0  0  0  0  0
  -24.5060  -13.4130   20.7470 C   0  0  0  0  0  0  0  0  0  0  0  0
  -24.9370  -12.0530   20.6650 C   0  0  0  0  0  0  0  0  0  0  0  0
  -26.5780  -13.2780   20.0290 N   0  0  0  0  0  0  0  0  0  0  0  0
  -26.2090  -11.9960   20.2890 N   0  0  0  0  0  0  0  0  0  0  0  0
  -24.1930  -10.8020   20.8650 C   0  0  0  0  0  0  0  0  0  0  0  0
  -24.6290   -9.8220   21.7840 C   0  0  0  0  0  3  0  0  0  0  0  0
  -23.8860   -8.6370   21.9720 C   0  0  0  0  0  3  0  0  0  0  0  0
  -22.6920   -8.4240   21.2430 C   0  0  0  0  0  0  0  0  0  0  0  0
  -22.2740   -9.3930   20.3140 C   0  0  0  0  0  3  0  0  0  0  0  0
  -23.0180  -10.5690   20.1230 C   0  0  0  0  0  3  0  0  0  0  0  0
  -21.9180   -7.2920   21.3440 O   0  0  0  0  0  0  0  0  0  0  0  0
  -21.8680   -6.5560   22.5000 C   0  0  0  0  0  0  0  0  0  0  0  0
  -21.4280   -7.1130   23.7200 C   0  0  0  0  0  3  0  0  0  0  0  0
  -21.3240   -6.3020   24.8680 C   0  0  0  0  0  3  0  0  0  0  0  0
  -21.6490   -4.9350   24.7960 C   0  0  0  0  0  0  0  0  0  0  0  0
  -22.0830   -4.3770   23.5810 C   0  0  0  0  0  3  0  0  0  0  0  0
  -22.1870   -5.1850   22.4350 C   0  0  0  0  0  0  0  0  0  0  0  0
  -22.5850   -4.6370   21.2610 F   0  0  0  0  0  0  0  0  0  0  0  0
  -21.5420   -4.1540   25.8970 F   0  0  0  0  0  0  0  0  0  0  0  0
  -23.1350  -13.9140   21.0980 C   0  0  0  0  0  0  0  0  0  0  0  0
  -22.4390  -13.2190   21.9910 N   0  0  0  0  0  0  0  0  0  0  0  0
  -22.6920  -14.9550   20.6150 O   0  0  0  0  0  0  0  0  0  0  0  0
  -22.8130  -12.3760   22.4030 H   0  0  0  0  0  0  0  0  0  0  0  0
  -21.5220  -13.5360   22.2690 H   0  0  0  0  0  0  0  0  0  0  0  0
  -25.7500  -15.5430   20.1780 N   0  0  0  0  0  0  0  0  0  0  0  0
  -25.0000  -16.2060   20.3380 H   0  0  0  0  0  0  0  0  0  0  0  0
  -26.5780  -15.9720   19.7860 H   0  0  0  0  0  0  0  0  0  0  0  0
  -28.0790  -20.9530   22.1760 N   0  0  0  0  0  0  0  0  0  0  0  0
  -27.6780  -20.2090   22.7360 H   0  0  0  0  0  0  0  0  0  0  0  0
  -27.3840  -21.6580   21.9620 H   0  0  0  0  0  0  0  0  0  0  0  0
  -28.7270  -22.8740   20.2690 N   0  0  0  0  0  0  0  0  0  0  0  0
  -28.4280  -23.0570   21.2220 H   0  0  0  0  0  0  0  0  0  0  0  0
  -29.0070  -24.0860   19.4330 C   0  0  0  0  0  2  0  0  0  0  0  0
  -28.4050  -25.4430   20.0260 C   0  0  0  0  0  2  0  0  0  0  0  0
  -28.4550  -26.7180   19.2730 O   0  0  0  0  0  0  0  0  0  0  0  0
  -24.6510  -31.6620   22.9030 C   0  0  0  0  0  0  0  0  0  0  0  0
  -27.3180  -27.5290   19.3580 C   0  0  0  0  0  0  0  0  0  0  0  0
  -23.4380  -30.3550   21.1950 C   0  0  0  0  0  3  0  0  0  0  0  0
  -24.8900  -29.0110   19.5760 C   0  0  0  0  0  0  0  0  0  0  0  0
  -25.9470  -30.8180   20.9350 C   0  0  0  0  0  2  0  0  0  0  0  0
  -26.0610  -29.5070   20.1660 C   0  0  0  0  0  0  0  0  0  0  0  0
  -27.2810  -28.7790   20.0460 C   0  0  0  0  0  3  0  0  0  0  0  0
  -26.1290  -27.0870   18.7410 C   0  0  0  0  0  3  0  0  0  0  0  0
  -24.9260  -27.8070   18.8530 C   0  0  0  0  0  3  0  0  0  0  0  0
  -23.6180  -29.8140   19.7520 C   0  0  0  0  0  2  0  0  0  0  0  0
  -24.7000  -30.9570   21.7350 N   0  0  0  0  0  0  0  0  0  0  0  0
  -23.5830  -31.8370   23.5060 O   0  0  0  0  0  0  0  0  0  0  0  0
  -22.8670  -29.2270   22.0870 C   0  0  0  0  0  0  0  0  0  0  0  0
  -21.5450  -29.0060   22.0090 N   0  0  0  0  0  0  0  0  0  0  0  0
  -23.6120  -28.5580   22.8080 O   0  0  0  0  0  0  0  0  0  0  0  0
  -21.0000  -29.6010   21.4000 H   0  0  0  0  0  0  0  0  0  0  0  0
  -18.2380  -27.6640   22.6000 C   0  0  0  0  0  0  0  0  0  0  0  0
  -20.8020  -27.9700   22.7280 C   0  0  0  0  0  3  0  0  0  0  0  0
  -20.8970  -26.6090   21.9980 C   0  0  0  0  0  2  0  0  0  0  0  0
  -19.7350  -26.3610   21.0300 C   0  0  0  0  0  2  0  0  0  0  0  0
  -18.3980  -26.3990   21.7740 C   0  0  0  0  0  2  0  0  0  0  0  0
  -19.3660  -28.4100   23.0330 C   0  0  0  0  0  0  0  0  0  0  0  0
  -19.1590  -29.5970   23.7690 C   0  0  0  0  0  3  0  0  0  0  0  0
  -17.8570  -30.0400   24.0720 C   0  0  0  0  0  3  0  0  0  0  0  0
  -16.7450  -29.2890   23.6530 C   0  0  0  0  0  3  0  0  0  0  0  0
  -16.9360  -28.1030   22.9220 C   0  0  0  0  0  3  0  0  0  0  0  0
  -25.9320  -32.2980   23.5260 C   0  0  0  0  0  3  0  0  0  0  0  0
  -26.5480  -31.4370   24.6950 C   0  0  1  0  0  0  0  0  0  0  0  0
  -25.5240  -31.0450   25.7850 C   0  0  0  0  0  1  0  0  0  0  0  0
  -27.1710  -30.1320   24.1450 C   0  0  0  0  0  1  0  0  0  0  0  0
  -27.6970  -32.2200   25.3760 C   0  0  0  0  0  1  0  0  0  0  0  0
  -25.5730  -33.6400   24.0060 N   0  0  0  0  0  0  0  0  0  0  0  0
  -25.8180  -34.7780   23.3410 C   0  0  0  0  0  0  0  0  0  0  0  0
  -26.4420  -34.8090   22.2770 O   0  0  0  0  0  0  0  0  0  0  0  0
  -25.0120  -33.6850   24.8440 H   0  0  0  0  0  0  0  0  0  0  0  0
  -23.9880  -36.5000   23.2470 C   0  0  0  0  0  1  0  0  0  0  0  0
  -25.2880  -36.0890   23.9540 C   0  0  0  0  0  3  0  0  0  0  0  0
  -27.4130  -37.0090   24.7710 C   0  0  0  0  0  1  0  0  0  0  0  0
  -26.2600  -37.2010   23.8950 N   0  0  0  0  0  0  0  0  0  0  0  0
  -25.8160  -38.0820   24.1450 H   0  0  0  0  0  0  0  0  0  0  0  0
  1  5  1  0
  2  6  1  0
  3 16  1  0
  3  1  2  0
  4  2  2  0
  4  3  1  0
  5 48  1  0
  6 51  1  0
  6  5  2  0
  7  4  1  0
  8 17  1  0
  9 14  1  0
 10 11  1  0
 10  9  1  0
 12 11  1  0
 12 23  1  0
 12 13  1  0
 14  8  1  0
 14 13  1  0
 15  8  2  0
 16 18  2  0
 16 17  1  0
 17 19  1  0
 20 21  2  0
 21 40  1  0
 22 21  1  0
 22 25  1  0
 23 24  1  0
 23 20  1  0
 24 22  2  0
 25 26  1  0
 26 27  2  0
 28 31  1  0
 28 27  1  0
 29 28  2  0
 30 29  1  0
 30 25  2  0
 31 32  1  0
 32 33  1  0
 33 34  2  0
 35 34  1  0
 35 39  1  0
 36 35  2  0
 37 32  2  0
 37 36  1  0
 38 37  1  0
 40 41  1  0
 41 44  1  0
 41 43  1  0
 42 40  2  0
 45 46  1  0
 45 20  1  0
 47 45  1  0
 48 49  1  0
 50 48  1  0
 51 52  1  0
 53 54  1  0
 53 51  1  0
 55 57  1  0
 55 54  1  0
 56 67  2  0
 57 62  1  0
 58 66  1  0
 58 68  1  0
 59 65  1  0
 59 61  1  0
 60 66  1  0
 61 60  1  0
 62 61  2  0
 63 64  1  0
 63 57  2  0
 64 59  2  0
 65 58  1  0
 66 56  1  0
 68 70  2  0
 69 68  1  0
 71 69  1  0
 72 81  2  0
 72 77  1  0
 73 69  1  0
 73 77  1  0
 74 73  1  0
 75 76  1  0
 75 74  1  0
 76 72  1  0
 77 78  2  0
 78 79  1  0
 80 79  2  0
 81 80  1  0
 82 56  1  0
 82 87  1  0
 82 83  1  0
 83 86  1  1
 83 84  1  0
 85 83  1  0
 87 90  1  0
 88 92  1  0
 88 87  1  0
 89 88  2  0
 92 91  1  0
 94 92  1  0
 94 95  1  0
 94 93  1  0
M  ISO  4   8 100  17 100  54 101  55 101
M  END
>  <TORSDO>  (22) 
F 20

>  <SCORE>  (22) 
-11.843

>  <name>  (22) 
21

>  <ligand_id>  (22) 
21

>  <original_smiles>  (22) 
[H]c1c([H])c([H])c2c(c1[H])C([H])([H])C([H])([H])C([H])([H])C2([H])N([H])C(=O)C1([H])N(C(=O)C([H])(N([H])C(=O)C([H])(N([H])C([H])([H])[H])C([H])([H])[H])C(C([H])([H])[H])(C([H])([H])[H])C([H])([H])[H])C([H])([H])c2c([H])c(OC([H])([H])C([H])([H])N([H])c3c([H])c(C([H])([H])[H])c(C(=O)N([H])C(=O)N4C([H])([H])C([H])([H])C([H])([H])C([H])(n5nc(-c6c([H])c([H])c(Oc7c([H])c([H])c(F)c([H])c7F)c([H])c6[H])c(C(=O)N([H])[H])c5N([H])[H])C4([H])[H])c([H])c3N([H])[H])c([H])c([H])c2C1([H])[H]

>  <smiles>  (22) 
[H]c1c([H])c([H])c2c(c1[H])C([H])([H])C([H])([H])C([H])([H])C2([H])N([H])C(=O)C1([H])N(C(=O)C([H])(N([H])C(=O)C([H])(N([H])C([H])([H])[H])C([H])([H])[H])C(C([H])([H])[H])(C([H])([H])[H])C([H])([H])[H])C([H])([H])c2c([H])c(OC([H])([H])C([H])([H])N([H])c3c([H])c(C([H])([H])[H])c(C(=O)N([H])C(=O)N4C([H])([H])C([H])([H])C([H])([H])C([H])(n5nc(-c6c([H])c([H])c(Oc7c([H])c([H])c(F)c([H])c7F)c([H])c6[H])c(C(=O)N([H])[H])c5N([H])[H])C4([H])[H])c([H])c3N([H])[H])c([H])c([H])c2C1([H])[H]

$$$$
22:0:0
     RDKit          3D

 94102  0  0  1  0  0  0  0  0999 V2000
  -29.6510  -22.0520   20.9660 C   0  0  0  0  0  0  0  0  0  0  0  0
  -28.9590  -20.9450   21.3150 N   0  0  0  0  0  0  0  0  0  0  0  0
  -30.8580  -22.0400   20.7160 O   0  0  0  0  0  0  0  0  0  0  0  0
  -27.9730  -21.1050   21.4580 H   0  0  0  0  0  0  0  0  0  0  0  0
  -28.8330  -17.4830   19.9390 C   0  0  0  0  0  3  0  0  0  0  0  0
  -28.5040  -18.8130   20.2640 C   0  0  0  0  0  3  0  0  0  0  0  0
  -30.7910  -17.6080   21.3690 C   0  0  0  0  0  3  0  0  0  0  0  0
  -30.4560  -18.9470   21.7120 C   0  0  0  0  0  0  0  0  0  0  0  0
  -30.0120  -16.8790   20.4320 C   0  0  0  0  0  0  0  0  0  0  0  0
  -29.3380  -19.5810   21.1010 C   0  0  0  0  0  0  0  0  0  0  0  0
  -31.3190  -19.6870   22.7210 C   0  0  0  0  0  1  0  0  0  0  0  0
  -31.0750  -14.6180   20.4200 C   0  0  0  0  0  0  0  0  0  0  0  0
  -30.7430  -12.4080   19.4100 C   0  0  0  0  0  2  0  0  0  0  0  0
  -29.8220  -12.5340   18.1750 C   0  0  0  0  0  2  0  0  0  0  0  0
  -28.3410  -12.4740   18.5830 C   0  0  0  0  0  2  0  0  0  0  0  0
  -27.9880  -13.3660   19.8050 C   0  0  0  0  0  3  0  0  0  0  0  0
  -29.0300  -13.2330   20.9380 C   0  0  0  0  0  2  0  0  0  0  0  0
  -30.3560  -13.4640   20.3560 N   0  0  0  0  0  0  0  0  0  0  0  0
  -32.3060  -14.6190   20.3990 O   0  0  0  0  0  0  0  0  0  0  0  0
  -30.4640  -15.6680   19.7960 N   0  0  0  0  0  0  0  0  0  0  0  0
  -25.5830  -13.9980   20.4580 C   0  0  0  0  0  0  0  0  0  0  0  0
  -24.4980  -13.2370   20.8030 C   0  0  0  0  0  0  0  0  0  0  0  0
  -24.9500  -11.8820   20.8090 C   0  0  0  0  0  0  0  0  0  0  0  0
  -26.6270  -13.1060   20.2700 N   0  0  0  0  0  0  0  0  0  0  0  0
  -26.2490  -11.8300   20.5440 N   0  0  0  0  0  0  0  0  0  0  0  0
  -24.2080  -10.6270   20.9900 C   0  0  0  0  0  0  0  0  0  0  0  0
  -24.5870   -9.6780   21.9650 C   0  0  0  0  0  3  0  0  0  0  0  0
  -23.8450   -8.4890   22.1350 C   0  0  0  0  0  3  0  0  0  0  0  0
  -22.7090   -8.2400   21.3280 C   0  0  0  0  0  0  0  0  0  0  0  0
  -22.3500   -9.1760   20.3420 C   0  0  0  0  0  3  0  0  0  0  0  0
  -23.0930  -10.3560   20.1710 C   0  0  0  0  0  3  0  0  0  0  0  0
  -21.9440   -7.1020   21.4050 O   0  0  0  0  0  0  0  0  0  0  0  0
  -21.8060   -6.4050   22.5790 C   0  0  0  0  0  0  0  0  0  0  0  0
  -21.2630   -7.0000   23.7380 C   0  0  0  0  0  3  0  0  0  0  0  0
  -21.0730   -6.2290   24.9020 C   0  0  0  0  0  3  0  0  0  0  0  0
  -21.4170   -4.8650   24.9080 C   0  0  0  0  0  0  0  0  0  0  0  0
  -21.9510   -4.2680   23.7530 C   0  0  0  0  0  3  0  0  0  0  0  0
  -22.1430   -5.0370   22.5900 C   0  0  0  0  0  0  0  0  0  0  0  0
  -22.6390   -4.4520   21.4740 F   0  0  0  0  0  0  0  0  0  0  0  0
  -21.2270   -4.1210   26.0240 F   0  0  0  0  0  0  0  0  0  0  0  0
  -23.0960  -13.7280   21.0230 C   0  0  0  0  0  0  0  0  0  0  0  0
  -22.3390  -13.0560   21.8820 N   0  0  0  0  0  0  0  0  0  0  0  0
  -22.6790  -14.7430   20.4660 O   0  0  0  0  0  0  0  0  0  0  0  0
  -22.6900  -12.2350   22.3540 H   0  0  0  0  0  0  0  0  0  0  0  0
  -21.3980  -13.3670   22.0740 H   0  0  0  0  0  0  0  0  0  0  0  0
  -25.7660  -15.3640   20.2690 N   0  0  0  0  0  0  0  0  0  0  0  0
  -25.0090  -16.0330   20.3590 H   0  0  0  0  0  0  0  0  0  0  0  0
  -26.6470  -15.7920   20.0140 H   0  0  0  0  0  0  0  0  0  0  0  0
  -31.8370  -17.0560   18.1610 C   0  0  0  0  0  1  0  0  0  0  0  0
  -30.8770  -15.8660   18.3800 C   0  0  0  0  0  2  0  0  0  0  0  0
  -28.8660  -23.3860   20.9110 C   0  0  0  0  0  2  0  0  0  0  0  0
  -29.4910  -24.4750   19.9820 C   0  0  0  0  0  2  0  0  0  0  0  0
  -28.4980  -25.5080   19.3870 C   0  0  0  0  0  2  0  0  0  0  0  0
  -28.3520  -26.7170   20.1630 O   0  0  0  0  0  0  0  0  0  0  0  0
  -24.5760  -31.9130   23.2590 C   0  0  0  0  0  0  0  0  0  0  0  0
  -27.1770  -27.4580   20.1180 C   0  0  0  0  0  0  0  0  0  0  0  0
  -23.3550  -30.5300   21.6160 C   0  0  0  0  0  3  0  0  0  0  0  0
  -24.7920  -29.0080   20.1620 C   0  0  0  0  0  0  0  0  0  0  0  0
  -25.8860  -30.8710   21.4100 C   0  0  0  0  0  2  0  0  0  0  0  0
  -25.9590  -29.5060   20.7510 C   0  0  0  0  0  0  0  0  0  0  0  0
  -27.1480  -28.7370   20.7330 C   0  0  0  0  0  3  0  0  0  0  0  0
  -25.9810  -26.9890   19.5180 C   0  0  0  0  0  3  0  0  0  0  0  0
  -24.8000  -27.7500   19.5440 C   0  0  0  0  0  3  0  0  0  0  0  0
  -23.5530  -29.8710   20.2260 C   0  0  0  0  0  2  0  0  0  0  0  0
  -24.6250  -31.1190   22.1530 N   0  0  0  0  0  0  0  0  0  0  0  0
  -23.4990  -32.1860   23.8070 O   0  0  0  0  0  0  0  0  0  0  0  0
  -22.7080  -29.4990   22.5700 C   0  0  0  0  0  0  0  0  0  0  0  0
  -21.3850  -29.3070   22.4360 N   0  0  0  0  0  0  0  0  0  0  0  0
  -23.3920  -28.8760   23.3860 O   0  0  0  0  0  0  0  0  0  0  0  0
  -20.8920  -29.8630   21.7490 H   0  0  0  0  0  0  0  0  0  0  0  0
  -18.0200  -28.0790   22.9030 C   0  0  0  0  0  0  0  0  0  0  0  0
  -20.5710  -28.3640   23.2020 C   0  0  0  0  0  3  0  0  0  0  0  0
  -20.6950  -26.9320   22.6330 C   0  0  0  0  0  2  0  0  0  0  0  0
  -19.6070  -26.5940   21.6080 C   0  0  0  0  0  2  0  0  0  0  0  0
  -18.2170  -26.7280   22.2360 C   0  0  0  0  0  2  0  0  0  0  0  0
  -19.1250  -28.8540   23.3420 C   0  0  0  0  0  0  0  0  0  0  0  0
  -18.8870  -30.1190   23.9230 C   0  0  0  0  0  3  0  0  0  0  0  0
  -17.5750  -30.6060   24.0750 C   0  0  0  0  0  3  0  0  0  0  0  0
  -16.4830  -29.8280   23.6540 C   0  0  0  0  0  3  0  0  0  0  0  0
  -16.7060  -28.5670   23.0720 C   0  0  0  0  0  3  0  0  0  0  0  0
  -25.8680  -32.5350   23.8740 C   0  0  0  0  0  3  0  0  0  0  0  0
  -25.5760  -33.9390   24.1930 N   0  0  0  0  0  0  0  0  0  0  0  0
  -25.9280  -34.9820   23.4300 C   0  0  0  0  0  0  0  0  0  0  0  0
  -26.6050  -34.8620   22.4040 O   0  0  0  0  0  0  0  0  0  0  0  0
  -24.9790  -34.1080   24.9900 H   0  0  0  0  0  0  0  0  0  0  0  0
  -24.2390  -36.8000   23.0320 C   0  0  0  0  0  1  0  0  0  0  0  0
  -25.4530  -36.3780   23.8730 C   0  0  0  0  0  3  0  0  0  0  0  0
  -27.5750  -37.2310   24.7610 C   0  0  0  0  0  1  0  0  0  0  0  0
  -26.5050  -37.4140   23.7850 N   0  0  0  0  0  0  0  0  0  0  0  0
  -26.1080  -38.3390   23.9210 H   0  0  0  0  0  0  0  0  0  0  0  0
  -26.3800  -31.7640   25.1530 C   0  0  1  0  0  0  0  0  0  0  0  0
  -25.2870  -31.5410   26.2220 C   0  0  0  0  0  1  0  0  0  0  0  0
  -26.9500  -30.3800   24.7670 C   0  0  0  0  0  1  0  0  0  0  0  0
  -27.5380  -32.5530   25.8090 C   0  0  0  0  0  1  0  0  0  0  0  0
  1  2  1  0
  2  4  1  0
  3  1  2  0
  5  6  2  0
  5  9  1  0
  6 10  1  0
  7  8  1  0
  8 11  1  0
  9  7  2  0
 10  2  1  0
 10  8  2  0
 13 18  1  0
 14 15  1  0
 14 13  1  0
 16 15  1  0
 16 24  1  0
 16 17  1  0
 18 12  1  0
 18 17  1  0
 19 12  2  0
 20 12  1  0
 20  9  1  0
 21 22  2  0
 22 23  1  0
 22 41  1  0
 23 26  1  0
 24 21  1  0
 24 25  1  0
 25 23  2  0
 26 27  1  0
 27 28  2  0
 29 32  1  0
 29 28  1  0
 30 29  2  0
 31 30  1  0
 31 26  2  0
 32 33  1  0
 33 38  2  0
 33 34  1  0
 34 35  2  0
 35 36  1  0
 36 40  1  0
 37 36  2  0
 38 37  1  0
 39 38  1  0
 41 42  1  0
 42 45  1  0
 42 44  1  0
 43 41  2  0
 46 47  1  0
 46 21  1  0
 48 46  1  0
 49 50  1  0
 50 20  1  0
 51  1  1  0
 52 51  1  0
 53 52  1  0
 53 54  1  0
 55 66  2  0
 56 54  1  0
 56 61  1  0
 57 65  1  0
 57 67  1  0
 58 64  1  0
 58 60  1  0
 59 65  1  0
 60 59  1  0
 61 60  2  0
 62 63  1  0
 62 56  2  0
 63 58  2  0
 64 57  1  0
 65 55  1  0
 67 69  2  0
 68 67  1  0
 70 68  1  0
 71 80  2  0
 71 76  1  0
 72 68  1  0
 72 76  1  0
 73 72  1  0
 74 75  1  0
 74 73  1  0
 75 71  1  0
 76 77  2  0
 77 78  1  0
 79 78  2  0
 80 79  1  0
 81 55  1  0
 81 82  1  0
 81 91  1  0
 82 85  1  0
 83 87  1  0
 83 82  1  0
 84 83  2  0
 87 86  1  0
 89 87  1  0
 89 90  1  0
 89 88  1  0
 91 94  1  1
 91 92  1  0
 93 91  1  0
M  ISO  4  12 100  20 100  53 101  54 101
M  END
>  <TORSDO>  (23) 
F 21

>  <SCORE>  (23) 
-13.438

>  <name>  (23) 
22

>  <ligand_id>  (23) 
22

>  <original_smiles>  (23) 
[H]c1c([H])c([H])c2c(c1[H])C([H])([H])C([H])([H])C([H])([H])C2([H])N([H])C(=O)C1([H])N(C(=O)C([H])(N([H])C(=O)C([H])(N([H])C([H])([H])[H])C([H])([H])[H])C(C([H])([H])[H])(C([H])([H])[H])C([H])([H])[H])C([H])([H])c2c([H])c(OC([H])([H])C([H])([H])C([H])([H])C(=O)N([H])c3c([H])c([H])c(N(C(=O)N4C([H])([H])C([H])([H])C([H])([H])C([H])(n5nc(-c6c([H])c([H])c(Oc7c([H])c([H])c(F)c([H])c7F)c([H])c6[H])c(C(=O)N([H])[H])c5N([H])[H])C4([H])[H])C([H])([H])C([H])([H])[H])c([H])c3C([H])([H])[H])c([H])c([H])c2C1([H])[H]

>  <smiles>  (23) 
[H]c1c([H])c([H])c2c(c1[H])C([H])([H])C([H])([H])C([H])([H])C2([H])N([H])C(=O)C1([H])N(C(=O)C([H])(N([H])C(=O)C([H])(N([H])C([H])([H])[H])C([H])([H])[H])C(C([H])([H])[H])(C([H])([H])[H])C([H])([H])[H])C([H])([H])c2c([H])c(OC([H])([H])C([H])([H])C([H])([H])C(=O)N([H])c3c([H])c([H])c(N(C(=O)N4C([H])([H])C([H])([H])C([H])([H])C([H])(n5nc(-c6c([H])c([H])c(Oc7c([H])c([H])c(F)c([H])c7F)c([H])c6[H])c(C(=O)N([H])[H])c5N([H])[H])C4([H])[H])C([H])([H])C([H])([H])[H])c([H])c3C([H])([H])[H])c([H])c([H])c2C1([H])[H]

$$$$
23:0:0
     RDKit          3D

 96105  0  0  1  0  0  0  0  0999 V2000
  -28.2120  -18.5400   18.9160 C   0  0  0  0  0  1  0  0  0  0  0  0
  -29.4590  -18.6550   19.8350 C   0  0  1  0  0  0  0  0  0  0  0  0
  -30.3160  -15.6080   20.2360 C   0  0  0  0  0  0  0  0  0  0  0  0
  -30.3750  -13.0600   19.4690 C   0  0  0  0  0  2  0  0  0  0  0  0
  -29.4980  -12.7340   18.2280 C   0  0  0  0  0  2  0  0  0  0  0  0
  -28.0460  -12.4370   18.6380 C   0  0  0  0  0  2  0  0  0  0  0  0
  -27.5580  -13.3920   19.7560 C   0  0  0  0  0  3  0  0  0  0  0  0
  -28.5860  -13.6620   20.8780 C   0  0  0  0  0  2  0  0  0  0  0  0
  -29.7870  -14.2480   20.2360 N   0  0  0  0  0  0  0  0  0  0  0  0
  -31.5310  -15.5490   19.9770 O   0  0  0  0  0  0  0  0  0  0  0  0
  -29.5530  -16.9550   20.3460 N   0  0  0  0  0  0  0  0  0  0  0  0
  -28.6440  -16.7020   20.7050 H   0  0  0  0  0  0  0  0  0  0  0  0
  -25.1930  -13.8990   20.5110 C   0  0  0  0  0  0  0  0  0  0  0  0
  -24.1390  -13.1090   20.8720 C   0  0  0  0  0  0  0  0  0  0  0  0
  -24.6190  -11.7640   20.8420 C   0  0  0  0  0  0  0  0  0  0  0  0
  -26.2440  -13.0360   20.2690 N   0  0  0  0  0  0  0  0  0  0  0  0
  -25.9140  -11.7420   20.5370 N   0  0  0  0  0  0  0  0  0  0  0  0
  -23.9000  -10.4970   21.0310 C   0  0  0  0  0  0  0  0  0  0  0  0
  -24.3240   -9.5400   21.9800 C   0  0  0  0  0  3  0  0  0  0  0  0
  -23.5990   -8.3420   22.1610 C   0  0  0  0  0  3  0  0  0  0  0  0
  -22.4350   -8.0940   21.3960 C   0  0  0  0  0  0  0  0  0  0  0  0
  -22.0310   -9.0380   20.4370 C   0  0  0  0  0  3  0  0  0  0  0  0
  -22.7530  -10.2280   20.2550 C   0  0  0  0  0  3  0  0  0  0  0  0
  -21.6870   -6.9420   21.4820 O   0  0  0  0  0  0  0  0  0  0  0  0
  -21.6230   -6.2110   22.6430 C   0  0  0  0  0  0  0  0  0  0  0  0
  -21.1600   -6.7680   23.8540 C   0  0  0  0  0  3  0  0  0  0  0  0
  -21.0510   -5.9620   25.0050 C   0  0  0  0  0  3  0  0  0  0  0  0
  -21.3860   -4.5960   24.9420 C   0  0  0  0  0  0  0  0  0  0  0  0
  -21.8360   -4.0370   23.7320 C   0  0  0  0  0  3  0  0  0  0  0  0
  -21.9510   -4.8420   22.5850 C   0  0  0  0  0  0  0  0  0  0  0  0
  -22.3670   -4.2920   21.4180 F   0  0  0  0  0  0  0  0  0  0  0  0
  -21.2740   -3.8190   26.0430 F   0  0  0  0  0  0  0  0  0  0  0  0
  -22.7400  -13.5770   21.1320 C   0  0  0  0  0  0  0  0  0  0  0  0
  -22.0090  -12.8740   21.9890 N   0  0  0  0  0  0  0  0  0  0  0  0
  -22.3030  -14.6020   20.6050 O   0  0  0  0  0  0  0  0  0  0  0  0
  -22.3770  -12.0470   22.4360 H   0  0  0  0  0  0  0  0  0  0  0  0
  -21.0630  -13.1640   22.1970 H   0  0  0  0  0  0  0  0  0  0  0  0
  -25.3380  -15.2730   20.3350 N   0  0  0  0  0  0  0  0  0  0  0  0
  -24.5620  -15.9130   20.4460 H   0  0  0  0  0  0  0  0  0  0  0  0
  -26.1660  -15.7200   19.9640 H   0  0  0  0  0  0  0  0  0  0  0  0
  -30.8200  -18.3600   17.6570 C   0  0  0  0  0  3  0  0  0  0  0  0
  -31.5380  -20.0360   19.2520 C   0  0  0  0  0  3  0  0  0  0  0  0
  -31.6900  -18.9050   16.6940 C   0  0  0  0  0  3  0  0  0  0  0  0
  -32.4090  -20.5830   18.2920 C   0  0  0  0  0  3  0  0  0  0  0  0
  -30.6600  -18.9780   18.9240 C   0  0  0  0  0  0  0  0  0  0  0  0
  -32.4490  -20.0700   16.9730 C   0  0  0  0  0  0  0  0  0  0  0  0
  -33.4170  -20.4030   14.6830 C   0  0  0  0  0  0  0  0  0  0  0  0
  -33.7020  -21.5810   13.7690 C   0  0  0  0  0  2  0  0  0  0  0  0
  -33.7380  -22.7820   14.7140 C   0  0  0  0  0  3  0  0  0  0  0  0
  -33.4560  -22.2210   16.1100 C   0  0  0  0  0  3  0  0  0  0  0  0
  -33.1430  -20.8030   15.9450 N   0  0  0  0  0  0  0  0  0  0  0  0
  -33.4850  -19.2420   14.2670 O   0  0  0  0  0  0  0  0  0  0  0  0
  -28.9210  -20.3640   20.5510 C   0  0  0  0  0  3  0  0  0  0  0  0
  -28.8280  -22.2070   19.9830 C   0  0  0  0  0  3  0  0  0  0  0  0
  -28.0450  -23.8970   20.4610 C   0  0  0  0  0  2  0  0  0  0  0  0
  -28.2000  -25.6210   20.2430 O   0  0  0  0  0  0  0  0  0  0  0  0
  -24.6260  -31.8360   23.1890 C   0  0  0  0  0  0  0  0  0  0  0  0
  -27.2020  -26.7970   20.2400 C   0  0  0  0  0  0  0  0  0  0  0  0
  -23.4520  -30.4310   21.5530 C   0  0  0  0  0  3  0  0  0  0  0  0
  -24.9170  -28.7870   20.1640 C   0  0  0  0  0  0  0  0  0  0  0  0
  -26.0320  -30.5990   21.4420 C   0  0  0  0  0  2  0  0  0  0  0  0
  -26.1110  -29.1660   20.7920 C   0  0  0  0  0  0  0  0  0  0  0  0
  -27.2440  -28.2000   20.7900 C   0  0  0  0  0  3  0  0  0  0  0  0
  -25.9720  -26.6140   19.5620 C   0  0  0  0  0  3  0  0  0  0  0  0
  -24.8820  -27.5340   19.5290 C   0  0  0  0  0  3  0  0  0  0  0  0
  -23.7090  -29.7370   20.1870 C   0  0  0  0  0  2  0  0  0  0  0  0
  -24.7270  -30.9830   22.1150 N   0  0  0  0  0  0  0  0  0  0  0  0
  -23.5300  -32.1320   23.6950 O   0  0  0  0  0  0  0  0  0  0  0  0
  -22.7350  -29.4500   22.5190 C   0  0  0  0  0  0  0  0  0  0  0  0
  -21.4000  -29.3010   22.3980 N   0  0  0  0  0  0  0  0  0  0  0  0
  -23.3900  -28.8210   23.3540 O   0  0  0  0  0  0  0  0  0  0  0  0
  -20.9160  -29.8670   21.7150 H   0  0  0  0  0  0  0  0  0  0  0  0
  -18.0060  -28.1180   22.9250 C   0  0  0  0  0  0  0  0  0  0  0  0
  -20.5720  -28.3690   23.1720 C   0  0  0  0  0  3  0  0  0  0  0  0
  -20.6590  -26.9370   22.5970 C   0  0  0  0  0  2  0  0  0  0  0  0
  -19.5500  -26.6240   21.5870 C   0  0  0  0  0  2  0  0  0  0  0  0
  -18.1720  -26.7720   22.2400 C   0  0  0  0  0  2  0  0  0  0  0  0
  -19.1320  -28.8730   23.3500 C   0  0  0  0  0  0  0  0  0  0  0  0
  -18.9250  -30.1280   23.9620 C   0  0  0  0  0  3  0  0  0  0  0  0
  -17.6250  -30.6340   24.1430 C   0  0  0  0  0  3  0  0  0  0  0  0
  -16.5120  -29.8780   23.7340 C   0  0  0  0  0  3  0  0  0  0  0  0
  -16.7040  -28.6210   23.1320 C   0  0  0  0  0  3  0  0  0  0  0  0
  -25.8840  -32.4950   23.8300 C   0  0  0  0  0  3  0  0  0  0  0  0
  -25.5570  -33.8990   24.1460 N   0  0  0  0  0  0  0  0  0  0  0  0
  -25.9100  -34.9570   23.4060 C   0  0  0  0  0  0  0  0  0  0  0  0
  -26.6020  -34.8540   22.3900 O   0  0  0  0  0  0  0  0  0  0  0  0
  -24.9370  -34.0540   24.9270 H   0  0  0  0  0  0  0  0  0  0  0  0
  -24.2050  -36.7750   23.0290 C   0  0  0  0  0  1  0  0  0  0  0  0
  -25.4220  -36.3470   23.8640 C   0  0  0  0  0  3  0  0  0  0  0  0
  -27.5330  -37.2240   24.7580 C   0  0  0  0  0  1  0  0  0  0  0  0
  -26.4590  -37.3970   23.7840 N   0  0  0  0  0  0  0  0  0  0  0  0
  -26.0510  -38.3160   23.9270 H   0  0  0  0  0  0  0  0  0  0  0  0
  -26.3730  -31.7480   25.1330 C   0  0  1  0  0  0  0  0  0  0  0  0
  -25.2600  -31.5360   26.1860 C   0  0  0  0  0  1  0  0  0  0  0  0
  -26.9630  -30.3600   24.7980 C   0  0  0  0  0  1  0  0  0  0  0  0
  -27.5080  -32.5520   25.8090 C   0  0  0  0  0  1  0  0  0  0  0  0
  2  1  1  6
  2 11  1  0
  2 53  1  0
  3 11  1  0
  4  9  1  0
  5  6  1  0
  5  4  1  0
  7  6  1  0
  7 16  1  0
  7  8  1  0
  9  3  1  0
  9  8  1  0
 10  3  2  0
 11 12  1  0
 13 14  2  0
 14 33  1  0
 15 14  1  0
 15 18  1  0
 16 13  1  0
 16 17  1  0
 17 15  2  0
 18 19  1  0
 19 20  2  0
 21 24  1  0
 21 20  1  0
 22 21  2  0
 23 22  1  0
 23 18  2  0
 24 25  1  0
 25 26  1  0
 26 27  2  0
 28 27  1  0
 28 32  1  0
 29 28  2  0
 30 25  2  0
 30 29  1  0
 31 30  1  0
 33 34  1  0
 34 37  1  0
 34 36  1  0
 35 33  2  0
 38 39  1  0
 38 13  1  0
 40 38  1  0
 41 45  1  0
 43 46  1  0
 43 41  2  0
 44 42  1  0
 45 42  2  0
 45  2  1  0
 46 44  2  0
 47 51  1  0
 48 47  1  0
 48 49  1  0
 49 50  2  0
 51 50  1  0
 51 46  1  0
 52 47  2  0
 54 55  1  0
 54 53  2  0
 56 55  1  0
 57 68  2  0
 58 56  1  0
 58 63  1  0
 59 67  1  0
 59 69  1  0
 60 66  1  0
 60 62  1  0
 61 67  1  0
 62 61  1  0
 63 62  2  0
 64 58  2  0
 65 64  1  0
 65 60  2  0
 66 59  1  0
 67 57  1  0
 69 71  2  0
 70 69  1  0
 72 70  1  0
 73 82  2  0
 73 78  1  0
 74 70  1  0
 74 78  1  0
 75 74  1  0
 76 77  1  0
 76 75  1  0
 77 73  1  0
 78 79  2  0
 79 80  1  0
 81 80  2  0
 82 81  1  0
 83 57  1  0
 83 84  1  0
 83 93  1  0
 84 87  1  0
 85 89  1  0
 85 84  1  0
 86 85  2  0
 89 88  1  0
 91 89  1  0
 91 92  1  0
 91 90  1  0
 93 96  1  1
 93 94  1  0
 95 93  1  0
M  ISO  4   3 100  11 100  55 101  56 101
M  END
>  <TORSDO>  (24) 
F 21

>  <SCORE>  (24) 
-15.821

>  <name>  (24) 
23

>  <ligand_id>  (24) 
23

>  <original_smiles>  (24) 
[H]c1c([H])c([H])c2c(c1[H])C([H])([H])C([H])([H])C([H])([H])C2([H])N([H])C(=O)C1([H])N(C(=O)C([H])(N([H])C(=O)C([H])(N([H])C([H])([H])[H])C([H])([H])[H])C(C([H])([H])[H])(C([H])([H])[H])C([H])([H])[H])C([H])([H])c2c([H])c(OC([H])([H])C([H])([H])C([H])([H])C(c3c([H])c([H])c(N4C(=O)C([H])([H])C([H])([H])C4([H])[H])c([H])c3[H])(N([H])C(=O)N3C([H])([H])C([H])([H])C([H])([H])C([H])(n4nc(-c5c([H])c([H])c(Oc6c([H])c([H])c(F)c([H])c6F)c([H])c5[H])c(C(=O)N([H])[H])c4N([H])[H])C3([H])[H])C([H])([H])[H])c([H])c([H])c2C1([H])[H]

>  <smiles>  (24) 
[H]c1c([H])c([H])c2c(c1[H])C([H])([H])C([H])([H])C([H])([H])C2([H])N([H])C(=O)C1([H])N(C(=O)C([H])(N([H])C(=O)C([H])(N([H])C([H])([H])[H])C([H])([H])[H])C(C([H])([H])[H])(C([H])([H])[H])C([H])([H])[H])C([H])([H])c2c([H])c(OC([H])([H])C([H])([H])C([H])([H])C(c3c([H])c([H])c(N4C(=O)C([H])([H])C([H])([H])C4([H])[H])c([H])c3[H])(N([H])C(=O)N3C([H])([H])C([H])([H])C([H])([H])C([H])(n4nc(-c5c([H])c([H])c(Oc6c([H])c([H])c(F)c([H])c6F)c([H])c5[H])c(C(=O)N([H])[H])c4N([H])[H])C3([H])[H])C([H])([H])[H])c([H])c([H])c2C1([H])[H]

$$$$
24:0:0
     RDKit          3D

 96104  0  0  1  0  0  0  0  0999 V2000
  -29.3760  -19.8540   21.1750 C   0  0  0  0  0  3  0  0  0  0  0  0
  -30.8600  -19.0250   18.9440 C   0  0  0  0  0  3  0  0  0  0  0  0
  -29.9430  -18.5550   21.1490 C   0  0  0  0  0  0  0  0  0  0  0  0
  -30.7720  -18.1560   20.0610 C   0  0  0  0  0  0  0  0  0  0  0  0
  -30.2890  -20.3190   18.9820 C   0  0  0  0  0  0  0  0  0  0  0  0
  -29.5830  -20.7670   20.1220 C   0  0  0  0  0  0  0  0  0  0  0  0
  -29.6840  -17.6370   22.3320 C   0  0  0  0  0  1  0  0  0  0  0  0
  -30.4830  -21.2110   17.9310 N   0  0  0  0  0  0  0  0  0  0  0  0
  -29.9380  -22.0540   18.0970 H   0  0  0  0  0  0  0  0  0  0  0  0
  -30.3350  -20.8350   17.0020 H   0  0  0  0  0  0  0  0  0  0  0  0
  -33.0650  -17.2090   19.4620 C   0  0  0  0  0  1  0  0  0  0  0  0
  -31.7150  -16.9310   20.1660 C   0  0  0  0  0  3  0  0  0  0  0  0
  -31.6500  -14.4910   19.3310 C   0  0  0  0  0  0  0  0  0  0  0  0
  -31.2450  -12.1500   18.6370 C   0  0  0  0  0  2  0  0  0  0  0  0
  -30.2120  -12.1100   17.4960 C   0  0  0  0  0  2  0  0  0  0  0  0
  -28.7810  -12.0620   18.0630 C   0  0  0  0  0  2  0  0  0  0  0  0
  -28.5340  -13.1370   19.1560 C   0  0  0  0  0  3  0  0  0  0  0  0
  -29.6780  -13.1560   20.1940 C   0  0  0  0  0  2  0  0  0  0  0  0
  -30.9470  -13.3290   19.4700 N   0  0  0  0  0  0  0  0  0  0  0  0
  -32.6820  -14.5440   18.6600 O   0  0  0  0  0  0  0  0  0  0  0  0
  -31.1300  -15.5840   19.9330 N   0  0  0  0  0  0  0  0  0  0  0  0
  -30.2620  -15.4130   20.4170 H   0  0  0  0  0  0  0  0  0  0  0  0
  -26.2990  -13.9280   20.1580 C   0  0  0  0  0  0  0  0  0  0  0  0
  -25.2180  -13.2440   20.6420 C   0  0  0  0  0  0  0  0  0  0  0  0
  -25.5470  -11.8590   20.5360 C   0  0  0  0  0  0  0  0  0  0  0  0
  -27.2280  -12.9660   19.7910 N   0  0  0  0  0  0  0  0  0  0  0  0
  -26.7830  -11.7140   20.0740 N   0  0  0  0  0  0  0  0  0  0  0  0
  -24.7390  -10.6600   20.7960 C   0  0  0  0  0  0  0  0  0  0  0  0
  -25.0780   -9.7480   21.8190 C   0  0  0  0  0  3  0  0  0  0  0  0
  -24.2740   -8.6120   22.0620 C   0  0  0  0  0  3  0  0  0  0  0  0
  -23.1160   -8.3830   21.2820 C   0  0  0  0  0  0  0  0  0  0  0  0
  -22.7960   -9.2830   20.2490 C   0  0  0  0  0  3  0  0  0  0  0  0
  -23.5990  -10.4090   20.0060 C   0  0  0  0  0  3  0  0  0  0  0  0
  -22.2920   -7.2940   21.4280 O   0  0  0  0  0  0  0  0  0  0  0  0
  -22.0000   -6.7710   22.6620 C   0  0  0  0  0  0  0  0  0  0  0  0
  -21.3600   -7.5360   23.6630 C   0  0  0  0  0  3  0  0  0  0  0  0
  -21.0160   -6.9390   24.8910 C   0  0  0  0  0  3  0  0  0  0  0  0
  -21.3000   -5.5800   25.1190 C   0  0  0  0  0  0  0  0  0  0  0  0
  -21.9310   -4.8160   24.1220 C   0  0  0  0  0  3  0  0  0  0  0  0
  -22.2760   -5.4090   22.8960 C   0  0  0  0  0  0  0  0  0  0  0  0
  -22.8650   -4.6630   21.9300 F   0  0  0  0  0  0  0  0  0  0  0  0
  -20.9620   -5.0040   26.2970 F   0  0  0  0  0  0  0  0  0  0  0  0
  -23.9110  -13.8350   21.0860 C   0  0  0  0  0  0  0  0  0  0  0  0
  -23.2390  -13.2000   22.0410 N   0  0  0  0  0  0  0  0  0  0  0  0
  -23.5000  -14.8980   20.6200 O   0  0  0  0  0  0  0  0  0  0  0  0
  -23.5860  -12.3420   22.4440 H   0  0  0  0  0  0  0  0  0  0  0  0
  -22.3660  -13.5810   22.3770 H   0  0  0  0  0  0  0  0  0  0  0  0
  -26.5630  -15.2840   19.9840 N   0  0  0  0  0  0  0  0  0  0  0  0
  -25.8660  -15.9930   20.1830 H   0  0  0  0  0  0  0  0  0  0  0  0
  -27.4120  -15.6630   19.5830 H   0  0  0  0  0  0  0  0  0  0  0  0
  -29.1910  -22.1190   20.2560 N   0  0  0  0  0  0  0  0  0  0  0  0
  -29.0930  -22.3710   21.2340 H   0  0  0  0  0  0  0  0  0  0  0  0
  -28.0420  -22.5890   19.4800 C   0  0  0  0  0  2  0  0  0  0  0  0
  -28.1790  -24.0590   18.9730 C   0  0  0  0  0  2  0  0  0  0  0  0
  -28.0960  -25.1770   20.0480 C   0  0  0  0  0  2  0  0  0  0  0  0
  -28.1750  -26.5210   19.5090 O   0  0  0  0  0  0  0  0  0  0  0  0
  -24.5670  -31.5040   23.1230 C   0  0  0  0  0  0  0  0  0  0  0  0
  -27.0230  -27.2750   19.6060 C   0  0  0  0  0  0  0  0  0  0  0  0
  -23.2670  -30.1930   21.4810 C   0  0  0  0  0  3  0  0  0  0  0  0
  -24.6330  -28.7660   19.8640 C   0  0  0  0  0  0  0  0  0  0  0  0
  -25.7730  -30.5910   21.1380 C   0  0  0  0  0  2  0  0  0  0  0  0
  -25.8260  -29.2650   20.4030 C   0  0  0  0  0  0  0  0  0  0  0  0
  -27.0270  -28.5290   20.2640 C   0  0  0  0  0  3  0  0  0  0  0  0
  -25.8140  -26.8000   19.0550 C   0  0  0  0  0  3  0  0  0  0  0  0
  -24.6230  -27.5350   19.1870 C   0  0  0  0  0  3  0  0  0  0  0  0
  -23.3900  -29.6070   20.0500 C   0  0  0  0  0  2  0  0  0  0  0  0
  -24.5590  -30.7740   21.9710 N   0  0  0  0  0  0  0  0  0  0  0  0
  -23.5210  -31.7290   23.7470 O   0  0  0  0  0  0  0  0  0  0  0  0
  -22.6880  -29.1050   22.4150 C   0  0  0  0  0  0  0  0  0  0  0  0
  -21.3920  -28.7960   22.2410 N   0  0  0  0  0  0  0  0  0  0  0  0
  -23.4020  -28.5420   23.2490 O   0  0  0  0  0  0  0  0  0  0  0  0
  -20.8690  -29.3140   21.5490 H   0  0  0  0  0  0  0  0  0  0  0  0
  -18.1890  -27.1440   22.4880 C   0  0  0  0  0  0  0  0  0  0  0  0
  -20.6480  -27.7730   22.9750 C   0  0  0  0  0  3  0  0  0  0  0  0
  -21.0040  -26.3540   22.4700 C   0  0  0  0  0  2  0  0  0  0  0  0
  -20.0600  -25.8490   21.3770 C   0  0  0  0  0  2  0  0  0  0  0  0
  -18.6130  -25.8190   21.8800 C   0  0  0  0  0  2  0  0  0  0  0  0
  -19.1430  -28.0700   22.9830 C   0  0  0  0  0  0  0  0  0  0  0  0
  -18.6980  -29.3090   23.4940 C   0  0  0  0  0  3  0  0  0  0  0  0
  -17.3270  -29.6230   23.5210 C   0  0  0  0  0  3  0  0  0  0  0  0
  -16.3830  -28.6960   23.0470 C   0  0  0  0  0  3  0  0  0  0  0  0
  -16.8140  -27.4590   22.5340 C   0  0  0  0  0  3  0  0  0  0  0  0
  -25.8850  -32.1100   23.6970 C   0  0  0  0  0  3  0  0  0  0  0  0
  -25.6030  -33.4980   24.0870 N   0  0  0  0  0  0  0  0  0  0  0  0
  -25.9170  -34.5740   23.3530 C   0  0  0  0  0  0  0  0  0  0  0  0
  -26.5490  -34.5010   22.2950 O   0  0  0  0  0  0  0  0  0  0  0  0
  -25.0410  -33.6300   24.9150 H   0  0  0  0  0  0  0  0  0  0  0  0
  -24.2010  -36.3960   23.1080 C   0  0  0  0  0  1  0  0  0  0  0  0
  -25.4550  -35.9480   23.8750 C   0  0  0  0  0  3  0  0  0  0  0  0
  -27.6160  -36.7820   24.6940 C   0  0  0  0  0  1  0  0  0  0  0  0
  -26.4970  -36.9940   23.7790 N   0  0  0  0  0  0  0  0  0  0  0  0
  -26.1050  -37.9120   23.9660 H   0  0  0  0  0  0  0  0  0  0  0  0
  -26.4650  -31.2960   24.9170 C   0  0  1  0  0  0  0  0  0  0  0  0
  -25.4150  -30.9830   26.0090 C   0  0  0  0  0  1  0  0  0  0  0  0
  -27.0670  -29.9540   24.4400 C   0  0  0  0  0  1  0  0  0  0  0  0
  -27.6190  -32.0890   25.5750 C   0  0  0  0  0  1  0  0  0  0  0  0
  2  5  2  0
  2  4  1  0
  3  1  1  0
  3  7  1  0
  4 12  1  0
  4  3  2  0
  5  6  1  0
  6 51  1  0
  6  1  2  0
  8  9  1  0
  8  5  1  0
 10  8  1  0
 12 11  1  0
 13 19  1  0
 13 21  1  0
 14 19  1  0
 15 16  1  0
 15 14  1  0
 17 16  1  0
 17 26  1  0
 17 18  1  0
 19 18  1  0
 20 13  2  0
 21 12  1  0
 21 22  1  0
 23 24  2  0
 24 43  1  0
 25 24  1  0
 25 28  1  0
 26 27  1  0
 26 23  1  0
 27 25  2  0
 28 29  1  0
 29 30  2  0
 31 34  1  0
 31 30  1  0
 32 31  2  0
 33 32  1  0
 33 28  2  0
 34 35  1  0
 35 40  2  0
 35 36  1  0
 36 37  2  0
 37 38  1  0
 38 42  1  0
 39 38  2  0
 40 39  1  0
 41 40  1  0
 43 44  1  0
 44 47  1  0
 44 46  1  0
 45 43  2  0
 48 23  1  0
 48 49  1  0
 50 48  1  0
 51 52  1  0
 53 51  1  0
 54 53  1  0
 54 55  1  0
 56 58  1  0
 56 55  1  0
 57 68  2  0
 58 63  1  0
 59 67  1  0
 59 69  1  0
 60 66  1  0
 60 62  1  0
 61 67  1  0
 62 61  1  0
 63 62  2  0
 64 65  1  0
 64 58  2  0
 65 60  2  0
 66 59  1  0
 67 57  1  0
 69 71  2  0
 70 69  1  0
 72 70  1  0
 73 82  2  0
 73 78  1  0
 74 70  1  0
 74 78  1  0
 75 74  1  0
 76 77  1  0
 76 75  1  0
 77 73  1  0
 78 79  2  0
 79 80  1  0
 81 80  2  0
 82 81  1  0
 83 57  1  0
 83 84  1  0
 83 93  1  0
 84 87  1  0
 85 89  1  0
 85 84  1  0
 86 85  2  0
 89 88  1  0
 91 89  1  0
 91 92  1  0
 91 90  1  0
 93 96  1  1
 93 94  1  0
 95 93  1  0
M  ISO  4  13 100  21 100  55 101  56 101
M  END
>  <TORSDO>  (25) 
F 22

>  <SCORE>  (25) 
-10.077

>  <name>  (25) 
24

>  <ligand_id>  (25) 
24

>  <original_smiles>  (25) 
[H]c1c([H])c([H])c2c(c1[H])C([H])([H])C([H])([H])C([H])([H])C2([H])N([H])C(=O)C1([H])N(C(=O)C([H])(N([H])C(=O)C([H])(N([H])C([H])([H])[H])C([H])([H])[H])C(C([H])([H])[H])(C([H])([H])[H])C([H])([H])[H])C([H])([H])c2c([H])c(OC([H])([H])C([H])([H])C([H])([H])N([H])c3c([H])c(C([H])([H])[H])c(C([H])(N([H])C(=O)N4C([H])([H])C([H])([H])C([H])([H])C([H])(n5nc(-c6c([H])c([H])c(Oc7c([H])c([H])c(F)c([H])c7F)c([H])c6[H])c(C(=O)N([H])[H])c5N([H])[H])C4([H])[H])C([H])([H])[H])c([H])c3N([H])[H])c([H])c([H])c2C1([H])[H]

>  <smiles>  (25) 
[H]c1c([H])c([H])c2c(c1[H])C([H])([H])C([H])([H])C([H])([H])C2([H])N([H])C(=O)C1([H])N(C(=O)C([H])(N([H])C(=O)C([H])(N([H])C([H])([H])[H])C([H])([H])[H])C(C([H])([H])[H])(C([H])([H])[H])C([H])([H])[H])C([H])([H])c2c([H])c(OC([H])([H])C([H])([H])C([H])([H])N([H])c3c([H])c(C([H])([H])[H])c(C([H])(N([H])C(=O)N4C([H])([H])C([H])([H])C([H])([H])C([H])(n5nc(-c6c([H])c([H])c(Oc7c([H])c([H])c(F)c([H])c7F)c([H])c6[H])c(C(=O)N([H])[H])c5N([H])[H])C4([H])[H])C([H])([H])[H])c([H])c3N([H])[H])c([H])c([H])c2C1([H])[H]

$$$$
25:0:0
     RDKit          3D

 96105  0  0  1  0  0  0  0  0999 V2000
  -30.6610  -21.9970   22.0500 C   0  0  0  0  0  0  0  0  0  0  0  0
  -30.9200  -23.5020   22.1970 C   0  0  0  0  0  2  0  0  0  0  0  0
  -29.6930  -24.3520   21.8750 C   0  0  0  0  0  2  0  0  0  0  0  0
  -28.9680  -22.4870   20.3200 C   0  0  0  0  0  2  0  0  0  0  0  0
  -29.2320  -24.0620   20.4510 C   0  0  0  0  0  3  0  0  0  0  0  0
  -29.9320  -21.5280   20.9920 N   0  0  0  0  0  0  0  0  0  0  0  0
  -31.1500  -21.2690   22.9210 O   0  0  0  0  0  0  0  0  0  0  0  0
  -31.0860  -19.2570   20.8760 C   0  0  0  0  0  3  0  0  0  0  0  0
  -31.0650  -17.8340   20.7930 C   0  0  0  0  0  3  0  0  0  0  0  0
  -28.7370  -19.3620   20.3740 C   0  0  0  0  0  3  0  0  0  0  0  0
  -29.9160  -20.0690   20.7330 C   0  0  0  0  0  0  0  0  0  0  0  0
  -29.8640  -17.1390   20.5240 C   0  0  0  0  0  0  0  0  0  0  0  0
  -28.7160  -17.9370   20.2660 C   0  0  0  0  0  0  0  0  0  0  0  0
  -30.5420  -14.6350   20.3830 C   0  0  0  0  0  0  0  0  0  0  0  0
  -30.3340  -12.3900   19.3460 C   0  0  0  0  0  2  0  0  0  0  0  0
  -29.3800  -12.5140   18.1380 C   0  0  0  0  0  2  0  0  0  0  0  0
  -27.9100  -12.3580   18.5800 C   0  0  0  0  0  2  0  0  0  0  0  0
  -27.5570  -13.2270   19.8170 C   0  0  0  0  0  3  0  0  0  0  0  0
  -28.6260  -13.0780   20.9230 C   0  0  0  0  0  2  0  0  0  0  0  0
  -29.9300  -13.4120   20.3290 N   0  0  0  0  0  0  0  0  0  0  0  0
  -31.7230  -14.7830   20.0580 O   0  0  0  0  0  0  0  0  0  0  0  0
  -29.6970  -15.6920   20.5650 N   0  0  0  0  0  0  0  0  0  0  0  0
  -28.7320  -15.4230   20.6730 H   0  0  0  0  0  0  0  0  0  0  0  0
  -25.1660  -13.8250   20.5510 C   0  0  0  0  0  0  0  0  0  0  0  0
  -24.0990  -13.0500   20.9170 C   0  0  0  0  0  0  0  0  0  0  0  0
  -24.5640  -11.7000   20.8860 C   0  0  0  0  0  0  0  0  0  0  0  0
  -26.2120  -12.9470   20.3130 N   0  0  0  0  0  0  0  0  0  0  0  0
  -25.8550  -11.6640   20.5750 N   0  0  0  0  0  0  0  0  0  0  0  0
  -23.8400  -10.4380   21.0770 C   0  0  0  0  0  0  0  0  0  0  0  0
  -24.2910   -9.4610   21.9920 C   0  0  0  0  0  3  0  0  0  0  0  0
  -23.5680   -8.2630   22.1740 C   0  0  0  0  0  3  0  0  0  0  0  0
  -22.3790   -8.0340   21.4400 C   0  0  0  0  0  0  0  0  0  0  0  0
  -21.9470   -9.0000   20.5140 C   0  0  0  0  0  3  0  0  0  0  0  0
  -22.6720  -10.1900   20.3310 C   0  0  0  0  0  3  0  0  0  0  0  0
  -21.6240   -6.8890   21.5320 O   0  0  0  0  0  0  0  0  0  0  0  0
  -21.6140   -6.1230   22.6700 C   0  0  0  0  0  0  0  0  0  0  0  0
  -21.2380   -6.6560   23.9230 C   0  0  0  0  0  3  0  0  0  0  0  0
  -21.1740   -5.8170   25.0540 C   0  0  0  0  0  3  0  0  0  0  0  0
  -21.4750   -4.4480   24.9330 C   0  0  0  0  0  0  0  0  0  0  0  0
  -21.8430   -3.9140   23.6850 C   0  0  0  0  0  3  0  0  0  0  0  0
  -21.9090   -4.7500   22.5560 C   0  0  0  0  0  0  0  0  0  0  0  0
  -22.2440   -4.2280   21.3520 F   0  0  0  0  0  0  0  0  0  0  0  0
  -21.4060   -3.6400   26.0160 F   0  0  0  0  0  0  0  0  0  0  0  0
  -22.7030  -13.5270   21.1960 C   0  0  0  0  0  0  0  0  0  0  0  0
  -21.9810  -12.8320   22.0670 N   0  0  0  0  0  0  0  0  0  0  0  0
  -22.2610  -14.5520   20.6790 O   0  0  0  0  0  0  0  0  0  0  0  0
  -22.3510  -12.0010   22.5070 H   0  0  0  0  0  0  0  0  0  0  0  0
  -21.0450  -13.1330   22.2980 H   0  0  0  0  0  0  0  0  0  0  0  0
  -25.3150  -15.1990   20.3930 N   0  0  0  0  0  0  0  0  0  0  0  0
  -24.5360  -15.8260   20.5540 H   0  0  0  0  0  0  0  0  0  0  0  0
  -26.1850  -15.7080   20.2470 H   0  0  0  0  0  0  0  0  0  0  0  0
  -27.5390  -17.2970   19.8810 N   0  0  0  0  0  0  0  0  0  0  0  0
  -26.8060  -17.9300   19.5770 H   0  0  0  0  0  0  0  0  0  0  0  0
  -27.6960  -16.6050   19.1570 H   0  0  0  0  0  0  0  0  0  0  0  0
  -28.0510  -25.0430   20.0460 C   0  0  0  0  0  2  0  0  0  0  0  0
  -28.2620  -26.5010   20.1710 O   0  0  0  0  0  0  0  0  0  0  0  0
  -24.5610  -31.8750   23.2300 C   0  0  0  0  0  0  0  0  0  0  0  0
  -27.1330  -27.3340   20.1330 C   0  0  0  0  0  0  0  0  0  0  0  0
  -23.3350  -30.4850   21.5980 C   0  0  0  0  0  3  0  0  0  0  0  0
  -24.7660  -28.9370   20.1540 C   0  0  0  0  0  0  0  0  0  0  0  0
  -25.8710  -30.8030   21.3860 C   0  0  0  0  0  2  0  0  0  0  0  0
  -25.9410  -29.4270   20.7360 C   0  0  0  0  0  0  0  0  0  0  0  0
  -27.1290  -28.6370   20.7160 C   0  0  0  0  0  3  0  0  0  0  0  0
  -25.9320  -26.8930   19.5300 C   0  0  0  0  0  3  0  0  0  0  0  0
  -24.7620  -27.6750   19.5440 C   0  0  0  0  0  3  0  0  0  0  0  0
  -23.5320  -29.8130   20.2140 C   0  0  0  0  0  2  0  0  0  0  0  0
  -24.6080  -31.0710   22.1290 N   0  0  0  0  0  0  0  0  0  0  0  0
  -23.4850  -32.1510   23.7800 O   0  0  0  0  0  0  0  0  0  0  0  0
  -22.6810  -29.4670   22.5610 C   0  0  0  0  0  0  0  0  0  0  0  0
  -21.3530  -29.2930   22.4470 N   0  0  0  0  0  0  0  0  0  0  0  0
  -23.3660  -28.8390   23.3710 O   0  0  0  0  0  0  0  0  0  0  0  0
  -20.8580  -29.8560   21.7680 H   0  0  0  0  0  0  0  0  0  0  0  0
  -17.9810  -28.0930   22.9630 C   0  0  0  0  0  0  0  0  0  0  0  0
  -20.5390  -28.3570   23.2250 C   0  0  0  0  0  3  0  0  0  0  0  0
  -20.6430  -26.9220   22.6550 C   0  0  0  0  0  2  0  0  0  0  0  0
  -19.5380  -26.5910   21.6470 C   0  0  0  0  0  2  0  0  0  0  0  0
  -18.1580  -26.7400   22.2940 C   0  0  0  0  0  2  0  0  0  0  0  0
  -19.1000  -28.8570   23.3880 C   0  0  0  0  0  0  0  0  0  0  0  0
  -18.8830  -30.1230   23.9750 C   0  0  0  0  0  3  0  0  0  0  0  0
  -17.5780  -30.6240   24.1410 C   0  0  0  0  0  3  0  0  0  0  0  0
  -16.4720  -29.8570   23.7340 C   0  0  0  0  0  3  0  0  0  0  0  0
  -16.6750  -28.5920   23.1510 C   0  0  0  0  0  3  0  0  0  0  0  0
  -25.8540  -32.5010   23.8390 C   0  0  0  0  0  3  0  0  0  0  0  0
  -26.3850  -31.7220   25.1030 C   0  0  1  0  0  0  0  0  0  0  0  0
  -25.3050  -31.4810   26.1840 C   0  0  0  0  0  1  0  0  0  0  0  0
  -26.9590  -30.3450   24.6950 C   0  0  0  0  0  1  0  0  0  0  0  0
  -27.5480  -32.5060   25.7530 C   0  0  0  0  0  1  0  0  0  0  0  0
  -25.5520  -33.8980   24.1830 N   0  0  0  0  0  0  0  0  0  0  0  0
  -25.8710  -34.9550   23.4250 C   0  0  0  0  0  0  0  0  0  0  0  0
  -26.5220  -34.8580   22.3810 O   0  0  0  0  0  0  0  0  0  0  0  0
  -24.9760  -34.0480   24.9990 H   0  0  0  0  0  0  0  0  0  0  0  0
  -24.1370  -36.7470   23.1120 C   0  0  0  0  0  1  0  0  0  0  0  0
  -25.3930  -36.3410   23.8990 C   0  0  0  0  0  3  0  0  0  0  0  0
  -27.5450  -37.2190   24.6920 C   0  0  0  0  0  1  0  0  0  0  0  0
  -26.4230  -37.3950   23.7720 N   0  0  0  0  0  0  0  0  0  0  0  0
  -26.0200  -38.3140   23.9370 H   0  0  0  0  0  0  0  0  0  0  0  0
  1  2  1  0
  1  7  2  0
  3  2  1  0
  4  5  1  0
  4  6  1  0
  5 55  1  0
  5  3  1  0
  6  1  1  0
  9  8  1  0
 10 11  1  0
 11  8  2  0
 11  6  1  0
 12 22  1  0
 12  9  2  0
 13 10  2  0
 13 12  1  0
 14 22  1  0
 15 20  1  0
 16 17  1  0
 16 15  1  0
 18 17  1  0
 18 27  1  0
 18 19  1  0
 20 14  1  0
 20 19  1  0
 21 14  2  0
 22 23  1  0
 24 25  2  0
 25 44  1  0
 26 25  1  0
 26 29  1  0
 27 24  1  0
 27 28  1  0
 28 26  2  0
 29 30  1  0
 30 31  2  0
 32 35  1  0
 32 31  1  0
 33 32  2  0
 34 33  1  0
 34 29  2  0
 35 36  1  0
 36 37  1  0
 37 38  2  0
 39 38  1  0
 39 43  1  0
 40 39  2  0
 41 36  2  0
 41 40  1  0
 42 41  1  0
 44 45  1  0
 45 48  1  0
 45 47  1  0
 46 44  2  0
 49 24  1  0
 49 50  1  0
 51 49  1  0
 52 13  1  0
 53 52  1  0
 54 52  1  0
 55 56  1  0
 57 68  2  0
 58 56  1  0
 58 63  1  0
 59 67  1  0
 59 69  1  0
 60 66  1  0
 60 62  1  0
 61 67  1  0
 62 61  1  0
 63 62  2  0
 64 65  1  0
 64 58  2  0
 65 60  2  0
 66 59  1  0
 67 57  1  0
 69 71  2  0
 70 69  1  0
 72 70  1  0
 73 82  2  0
 73 78  1  0
 74 70  1  0
 74 78  1  0
 75 74  1  0
 76 77  1  0
 76 75  1  0
 77 73  1  0
 78 79  2  0
 79 80  1  0
 81 80  2  0
 82 81  1  0
 83 57  1  0
 83 88  1  0
 83 84  1  0
 84 87  1  1
 84 85  1  0
 86 84  1  0
 88 91  1  0
 89 93  1  0
 89 88  1  0
 90 89  2  0
 93 92  1  0
 95 93  1  0
 95 96  1  0
 95 94  1  0
M  ISO  4  14 100  22 100  55 101  56 101
M  END
>  <TORSDO>  (26) 
F 19

>  <SCORE>  (26) 
-14.593

>  <name>  (26) 
25

>  <ligand_id>  (26) 
25

>  <original_smiles>  (26) 
[H]c1c([H])c([H])c2c(c1[H])C([H])([H])C([H])([H])C([H])([H])C2([H])N([H])C(=O)C1([H])N(C(=O)C([H])(N([H])C(=O)C([H])(N([H])C([H])([H])[H])C([H])([H])[H])C(C([H])([H])[H])(C([H])([H])[H])C([H])([H])[H])C([H])([H])c2c([H])c(OC([H])([H])C3([H])C([H])([H])N(c4c([H])c([H])c(N([H])C(=O)N5C([H])([H])C([H])([H])C([H])([H])C([H])(n6nc(-c7c([H])c([H])c(Oc8c([H])c([H])c(F)c([H])c8F)c([H])c7[H])c(C(=O)N([H])[H])c6N([H])[H])C5([H])[H])c(N([H])[H])c4[H])C(=O)C([H])([H])C3([H])[H])c([H])c([H])c2C1([H])[H]

>  <smiles>  (26) 
[H]c1c([H])c([H])c2c(c1[H])C([H])([H])C([H])([H])C([H])([H])C2([H])N([H])C(=O)C1([H])N(C(=O)C([H])(N([H])C(=O)C([H])(N([H])C([H])([H])[H])C([H])([H])[H])C(C([H])([H])[H])(C([H])([H])[H])C([H])([H])[H])C([H])([H])c2c([H])c(OC([H])([H])C3([H])C([H])([H])N(c4c([H])c([H])c(N([H])C(=O)N5C([H])([H])C([H])([H])C([H])([H])C([H])(n6nc(-c7c([H])c([H])c(Oc8c([H])c([H])c(F)c([H])c8F)c([H])c7[H])c(C(=O)N([H])[H])c6N([H])[H])C5([H])[H])c(N([H])[H])c4[H])C(=O)C([H])([H])C3([H])[H])c([H])c([H])c2C1([H])[H]

$$$$
26:0:0
     RDKit          3D

 95103  0  0  1  0  0  0  0  0999 V2000
  -29.2690  -19.6100   19.3020 C   0  0  0  0  0  3  0  0  0  0  0  0
  -29.6160  -20.1380   21.6470 C   0  0  0  0  0  3  0  0  0  0  0  0
  -30.2240  -17.9110   20.7950 C   0  0  0  0  0  0  0  0  0  0  0  0
  -29.7820  -18.3070   19.4980 C   0  0  0  0  0  0  0  0  0  0  0  0
  -29.2020  -20.5410   20.3590 C   0  0  0  0  0  0  0  0  0  0  0  0
  -30.1250  -18.8380   21.8630 C   0  0  0  0  0  0  0  0  0  0  0  0
  -29.8960  -17.4050   18.2730 C   0  0  0  0  0  1  0  0  0  0  0  0
  -30.5330  -18.4950   23.1120 F   0  0  0  0  0  0  0  0  0  0  0  0
  -30.8990  -14.4230   20.0460 C   0  0  0  0  0  0  0  0  0  0  0  0
  -30.3910  -12.3740   18.7770 C   0  0  0  0  0  2  0  0  0  0  0  0
  -29.3770  -12.6720   17.6560 C   0  0  0  0  0  2  0  0  0  0  0  0
  -27.9370  -12.5420   18.1890 C   0  0  0  0  0  2  0  0  0  0  0  0
  -27.7140  -13.3280   19.5090 C   0  0  0  0  0  3  0  0  0  0  0  0
  -28.8410  -13.0410   20.5280 C   0  0  0  0  0  2  0  0  0  0  0  0
  -30.1230  -13.3210   19.8680 N   0  0  0  0  0  0  0  0  0  0  0  0
  -32.0140  -14.5230   19.5250 O   0  0  0  0  0  0  0  0  0  0  0  0
  -30.9340  -16.6000   21.0180 C   0  0  0  0  0  0  0  0  0  0  0  0
  -30.2980  -15.4790   20.6250 N   0  0  0  0  0  0  0  0  0  0  0  0
  -32.0750  -16.6100   21.5010 O   0  0  0  0  0  0  0  0  0  0  0  0
  -29.2920  -15.4830   20.6270 H   0  0  0  0  0  0  0  0  0  0  0  0
  -25.3820  -13.9500   20.3910 C   0  0  0  0  0  0  0  0  0  0  0  0
  -24.3280  -13.1830   20.8110 C   0  0  0  0  0  0  0  0  0  0  0  0
  -24.7660  -11.8270   20.7180 C   0  0  0  0  0  0  0  0  0  0  0  0
  -26.3940  -13.0600   20.0710 N   0  0  0  0  0  0  0  0  0  0  0  0
  -26.0310  -11.7760   20.3270 N   0  0  0  0  0  0  0  0  0  0  0  0
  -24.0350  -10.5700   20.9260 C   0  0  0  0  0  0  0  0  0  0  0  0
  -24.4780   -9.5990   21.8500 C   0  0  0  0  0  3  0  0  0  0  0  0
  -23.7470   -8.4080   22.0440 C   0  0  0  0  0  3  0  0  0  0  0  0
  -22.5580   -8.1790   21.3130 C   0  0  0  0  0  0  0  0  0  0  0  0
  -22.1330   -9.1370   20.3770 C   0  0  0  0  0  3  0  0  0  0  0  0
  -22.8640  -10.3200   20.1810 C   0  0  0  0  0  3  0  0  0  0  0  0
  -21.7940   -7.0400   21.4180 O   0  0  0  0  0  0  0  0  0  0  0  0
  -21.7160   -6.3310   22.5900 C   0  0  0  0  0  0  0  0  0  0  0  0
  -21.2590   -6.9220   23.7880 C   0  0  0  0  0  3  0  0  0  0  0  0
  -21.1270   -6.1390   24.9520 C   0  0  0  0  0  3  0  0  0  0  0  0
  -21.4460   -4.7670   24.9190 C   0  0  0  0  0  0  0  0  0  0  0  0
  -21.8960   -4.1780   23.7240 C   0  0  0  0  0  3  0  0  0  0  0  0
  -22.0280   -4.9580   22.5620 C   0  0  0  0  0  0  0  0  0  0  0  0
  -22.4430   -4.3800   21.4090 F   0  0  0  0  0  0  0  0  0  0  0  0
  -21.3120   -4.0130   26.0350 F   0  0  0  0  0  0  0  0  0  0  0  0
  -22.9590  -13.6720   21.1840 C   0  0  0  0  0  0  0  0  0  0  0  0
  -22.2830  -12.9690   22.0850 N   0  0  0  0  0  0  0  0  0  0  0  0
  -22.5010  -14.7110   20.7100 O   0  0  0  0  0  0  0  0  0  0  0  0
  -22.6690  -12.1260   22.4830 H   0  0  0  0  0  0  0  0  0  0  0  0
  -21.3660  -13.2780   22.3780 H   0  0  0  0  0  0  0  0  0  0  0  0
  -25.5590  -15.3210   20.2320 N   0  0  0  0  0  0  0  0  0  0  0  0
  -24.8070  -15.9820   20.3890 H   0  0  0  0  0  0  0  0  0  0  0  0
  -26.3870  -15.7520   19.8410 H   0  0  0  0  0  0  0  0  0  0  0  0
  -28.7290  -21.8330   20.0730 N   0  0  0  0  0  0  0  0  0  0  0  0
  -28.6680  -22.0960   19.0900 H   0  0  0  0  0  0  0  0  0  0  0  0
  -29.0690  -22.9680   20.9370 C   0  0  0  0  0  2  0  0  0  0  0  0
  -28.9170  -24.3100   20.1970 C   0  0  0  0  0  0  0  0  0  0  0  0
  -28.9520  -24.3500   18.9610 O   0  0  0  0  0  0  0  0  0  0  0  0
  -28.7190  -25.5790   21.0430 C   0  0  0  0  0  2  0  0  0  0  0  0
  -28.7620  -26.7670   20.2360 O   0  0  0  0  0  0  0  0  0  0  0  0
  -24.6140  -31.7200   23.1760 C   0  0  0  0  0  0  0  0  0  0  0  0
  -27.5690  -27.4410   20.1820 C   0  0  0  0  0  0  0  0  0  0  0  0
  -23.5320  -30.2650   21.4930 C   0  0  0  0  0  3  0  0  0  0  0  0
  -25.1030  -28.8080   20.1120 C   0  0  0  0  0  0  0  0  0  0  0  0
  -26.0390  -30.7580   21.3720 C   0  0  0  0  0  2  0  0  0  0  0  0
  -26.2130  -29.3970   20.7310 C   0  0  0  0  0  0  0  0  0  0  0  0
  -27.4510  -28.7220   20.7600 C   0  0  0  0  0  3  0  0  0  0  0  0
  -26.4470  -26.8560   19.5590 C   0  0  0  0  0  3  0  0  0  0  0  0
  -25.2120  -27.5350   19.5240 C   0  0  0  0  0  3  0  0  0  0  0  0
  -23.8150  -29.6010   20.1220 C   0  0  0  0  0  2  0  0  0  0  0  0
  -24.7440  -30.9300   22.0730 N   0  0  0  0  0  0  0  0  0  0  0  0
  -23.5030  -31.9380   23.6800 O   0  0  0  0  0  0  0  0  0  0  0  0
  -22.9010  -29.2110   22.4300 C   0  0  0  0  0  0  0  0  0  0  0  0
  -21.5880  -28.9810   22.2680 N   0  0  0  0  0  0  0  0  0  0  0  0
  -23.5890  -28.6030   23.2520 O   0  0  0  0  0  0  0  0  0  0  0  0
  -21.0890  -29.5230   21.5760 H   0  0  0  0  0  0  0  0  0  0  0  0
  -18.2450  -27.6750   22.7060 C   0  0  0  0  0  0  0  0  0  0  0  0
  -20.7910  -28.0060   23.0130 C   0  0  0  0  0  3  0  0  0  0  0  0
  -20.9440  -26.5890   22.4140 C   0  0  0  0  0  2  0  0  0  0  0  0
  -19.8650  -26.2510   21.3810 C   0  0  0  0  0  2  0  0  0  0  0  0
  -18.4710  -26.3440   22.0070 C   0  0  0  0  0  2  0  0  0  0  0  0
  -19.3340  -28.4620   23.1610 C   0  0  0  0  0  0  0  0  0  0  0  0
  -19.0710  -29.7090   23.7680 C   0  0  0  0  0  3  0  0  0  0  0  0
  -17.7500  -30.1700   23.9250 C   0  0  0  0  0  3  0  0  0  0  0  0
  -16.6750  -29.3800   23.4850 C   0  0  0  0  0  3  0  0  0  0  0  0
  -16.9220  -28.1330   22.8830 C   0  0  0  0  0  3  0  0  0  0  0  0
  -25.8480  -32.4100   23.8380 C   0  0  0  0  0  3  0  0  0  0  0  0
  -26.3620  -31.6630   25.1280 C   0  0  1  0  0  0  0  0  0  0  0  0
  -25.2480  -31.3700   26.1600 C   0  0  0  0  0  1  0  0  0  0  0  0
  -27.0260  -30.3160   24.7560 C   0  0  0  0  0  1  0  0  0  0  0  0
  -27.4540  -32.5120   25.8260 C   0  0  0  0  0  1  0  0  0  0  0  0
  -25.4680  -33.7930   24.1520 N   0  0  0  0  0  0  0  0  0  0  0  0
  -25.7670  -34.8540   23.3900 C   0  0  0  0  0  0  0  0  0  0  0  0
  -26.4650  -34.7760   22.3750 O   0  0  0  0  0  0  0  0  0  0  0  0
  -24.8510  -33.9270   24.9410 H   0  0  0  0  0  0  0  0  0  0  0  0
  -23.9540  -36.5500   22.9890 C   0  0  0  0  0  1  0  0  0  0  0  0
  -25.2010  -36.2190   23.8240 C   0  0  0  0  0  3  0  0  0  0  0  0
  -27.2740  -37.2170   24.6810 C   0  0  0  0  0  1  0  0  0  0  0  0
  -26.1800  -37.3230   23.7190 N   0  0  0  0  0  0  0  0  0  0  0  0
  -25.7230  -38.2220   23.8560 H   0  0  0  0  0  0  0  0  0  0  0  0
  1  4  2  0
  1  5  1  0
  2  6  1  0
  3 17  1  0
  3  6  2  0
  4  3  1  0
  5  2  2  0
  6  8  1  0
  7  4  1  0
  9 18  1  0
 10 15  1  0
 11 12  1  0
 11 10  1  0
 13 12  1  0
 13 24  1  0
 13 14  1  0
 15  9  1  0
 15 14  1  0
 16  9  2  0
 17 19  2  0
 18 20  1  0
 18 17  1  0
 21 22  2  0
 22 41  1  0
 23 22  1  0
 23 26  1  0
 24 25  1  0
 24 21  1  0
 25 23  2  0
 26 27  1  0
 27 28  2  0
 29 32  1  0
 29 28  1  0
 30 29  2  0
 31 30  1  0
 31 26  2  0
 32 33  1  0
 33 34  1  0
 34 35  2  0
 36 35  1  0
 36 40  1  0
 37 36  2  0
 38 33  2  0
 38 37  1  0
 39 38  1  0
 41 42  1  0
 42 45  1  0
 42 44  1  0
 43 41  2  0
 46 47  1  0
 46 21  1  0
 48 46  1  0
 49  5  1  0
 49 51  1  0
 50 49  1  0
 52 51  1  0
 52 54  1  0
 53 52  2  0
 55 54  1  0
 56 67  2  0
 57 55  1  0
 57 62  1  0
 58 66  1  0
 58 68  1  0
 59 65  1  0
 59 61  1  0
 60 66  1  0
 61 62  2  0
 61 60  1  0
 63 57  2  0
 64 63  1  0
 64 59  2  0
 65 58  1  0
 66 56  1  0
 68 70  2  0
 69 68  1  0
 71 69  1  0
 72 81  2  0
 72 77  1  0
 73 69  1  0
 73 77  1  0
 74 73  1  0
 75 76  1  0
 75 74  1  0
 76 72  1  0
 77 78  2  0
 78 79  1  0
 80 79  2  0
 81 80  1  0
 82 56  1  0
 82 87  1  0
 82 83  1  0
 83 86  1  1
 83 84  1  0
 85 83  1  0
 87 90  1  0
 88 92  1  0
 88 87  1  0
 89 88  2  0
 92 91  1  0
 94 92  1  0
 94 95  1  0
 94 93  1  0
M  ISO  4   9 100  18 100  54 101  55 101
M  END
>  <TORSDO>  (27) 
F 20

>  <SCORE>  (27) 
-12.594

>  <name>  (27) 
26

>  <ligand_id>  (27) 
26

>  <original_smiles>  (27) 
[H]c1c([H])c([H])c2c(c1[H])C([H])([H])C([H])([H])C([H])([H])C2([H])N([H])C(=O)C1([H])N(C(=O)C([H])(N([H])C(=O)C([H])(N([H])C([H])([H])[H])C([H])([H])[H])C(C([H])([H])[H])(C([H])([H])[H])C([H])([H])[H])C([H])([H])c2c([H])c(OC([H])([H])C(=O)C([H])([H])N([H])c3c([H])c(F)c(C(=O)N([H])C(=O)N4C([H])([H])C([H])([H])C([H])([H])C([H])(n5nc(-c6c([H])c([H])c(Oc7c([H])c([H])c(F)c([H])c7F)c([H])c6[H])c(C(=O)N([H])[H])c5N([H])[H])C4([H])[H])c(C([H])([H])[H])c3[H])c([H])c([H])c2C1([H])[H]

>  <smiles>  (27) 
[H]c1c([H])c([H])c2c(c1[H])C([H])([H])C([H])([H])C([H])([H])C2([H])N([H])C(=O)C1([H])N(C(=O)C([H])(N([H])C(=O)C([H])(N([H])C([H])([H])[H])C([H])([H])[H])C(C([H])([H])[H])(C([H])([H])[H])C([H])([H])[H])C([H])([H])c2c([H])c(OC([H])([H])C(=O)C([H])([H])N([H])c3c([H])c(F)c(C(=O)N([H])C(=O)N4C([H])([H])C([H])([H])C([H])([H])C([H])(n5nc(-c6c([H])c([H])c(Oc7c([H])c([H])c(F)c([H])c7F)c([H])c6[H])c(C(=O)N([H])[H])c5N([H])[H])C4([H])[H])c(C([H])([H])[H])c3[H])c([H])c([H])c2C1([H])[H]

$$$$
27:0:0
     RDKit          3D

 91 99  0  0  1  0  0  0  0  0999 V2000
  -29.4200  -20.7890   20.2020 O   0  0  0  0  0  0  0  0  0  0  0  0
  -30.9860  -19.1910   23.1980 C   0  0  0  0  0  3  0  0  0  0  0  0
  -31.6600  -18.1320   22.5620 C   0  0  0  0  0  3  0  0  0  0  0  0
  -30.2120  -20.0890   22.4360 C   0  0  0  0  0  3  0  0  0  0  0  0
  -30.7100  -18.8200   20.4220 C   0  0  0  0  0  3  0  0  0  0  0  0
  -31.5220  -17.9520   21.1750 C   0  0  0  0  0  0  0  0  0  0  0  0
  -30.0920  -19.9240   21.0330 C   0  0  0  0  0  0  0  0  0  0  0  0
  -32.2620  -16.8410   20.4820 C   0  0  0  0  0  2  0  0  0  0  0  0
  -31.8770  -14.5300   19.8060 C   0  0  0  0  0  0  0  0  0  0  0  0
  -31.3220  -12.2920   18.9840 C   0  0  0  0  0  2  0  0  0  0  0  0
  -30.3860  -12.4160   17.7710 C   0  0  0  0  0  2  0  0  0  0  0  0
  -28.9250  -12.3980   18.2490 C   0  0  0  0  0  2  0  0  0  0  0  0
  -28.6600  -13.4380   19.3710 C   0  0  0  0  0  3  0  0  0  0  0  0
  -29.7340  -13.3740   20.4850 C   0  0  0  0  0  2  0  0  0  0  0  0
  -31.0660  -13.4450   19.8580 N   0  0  0  0  0  0  0  0  0  0  0  0
  -32.9050  -14.5660   19.1330 O   0  0  0  0  0  0  0  0  0  0  0  0
  -31.5060  -15.5950   20.5150 N   0  0  0  0  0  0  0  0  0  0  0  0
  -30.6500  -15.5540   21.0440 H   0  0  0  0  0  0  0  0  0  0  0  0
  -26.3690  -14.2800   20.1910 C   0  0  0  0  0  0  0  0  0  0  0  0
  -25.2450  -13.6180   20.6030 C   0  0  0  0  0  0  0  0  0  0  0  0
  -25.5630  -12.2260   20.5500 C   0  0  0  0  0  0  0  0  0  0  0  0
  -27.3100  -13.3000   19.9120 N   0  0  0  0  0  0  0  0  0  0  0  0
  -26.8280  -12.0570   20.1890 N   0  0  0  0  0  0  0  0  0  0  0  0
  -24.7220  -11.0430   20.7700 C   0  0  0  0  0  0  0  0  0  0  0  0
  -25.0550  -10.0720   21.7400 C   0  0  0  0  0  3  0  0  0  0  0  0
  -24.2200   -8.9530   21.9490 C   0  0  0  0  0  3  0  0  0  0  0  0
  -23.0380   -8.7970   21.1860 C   0  0  0  0  0  0  0  0  0  0  0  0
  -22.7240   -9.7530   20.2060 C   0  0  0  0  0  3  0  0  0  0  0  0
  -23.5580  -10.8640   19.9950 C   0  0  0  0  0  3  0  0  0  0  0  0
  -22.1830   -7.7290   21.3020 O   0  0  0  0  0  0  0  0  0  0  0  0
  -21.9820   -7.0910   22.4990 C   0  0  0  0  0  0  0  0  0  0  0  0
  -21.5200   -7.7790   23.6420 C   0  0  0  0  0  3  0  0  0  0  0  0
  -21.2620   -7.0730   24.8330 C   0  0  0  0  0  3  0  0  0  0  0  0
  -21.4540   -5.6790   24.8830 C   0  0  0  0  0  0  0  0  0  0  0  0
  -21.9120   -4.9910   23.7450 C   0  0  0  0  0  3  0  0  0  0  0  0
  -22.1730   -5.6950   22.5580 C   0  0  0  0  0  0  0  0  0  0  0  0
  -22.5910   -5.0240   21.4560 F   0  0  0  0  0  0  0  0  0  0  0  0
  -21.2010   -4.9990   26.0240 F   0  0  0  0  0  0  0  0  0  0  0  0
  -23.9150  -14.2290   20.9410 C   0  0  0  0  0  0  0  0  0  0  0  0
  -23.1720  -13.6130   21.8550 N   0  0  0  0  0  0  0  0  0  0  0  0
  -23.5510  -15.2870   20.4310 O   0  0  0  0  0  0  0  0  0  0  0  0
  -23.4800  -12.7520   22.2810 H   0  0  0  0  0  0  0  0  0  0  0  0
  -22.2820  -14.0050   22.1290 H   0  0  0  0  0  0  0  0  0  0  0  0
  -26.6670  -15.6280   20.0060 N   0  0  0  0  0  0  0  0  0  0  0  0
  -25.9820  -16.3640   20.1380 H   0  0  0  0  0  0  0  0  0  0  0  0
  -27.5500  -15.9720   19.6490 H   0  0  0  0  0  0  0  0  0  0  0  0
  -28.9980  -22.0210   20.7640 C   0  0  0  0  0  2  0  0  0  0  0  0
  -28.8580  -23.0560   19.6490 C   0  0  0  0  0  2  0  0  0  0  0  0
  -28.2250  -24.3490   20.1720 C   0  0  0  0  0  2  0  0  0  0  0  0
  -28.4100  -25.5360   19.2210 C   0  0  0  0  0  2  0  0  0  0  0  0
  -28.2720  -26.7480   19.9480 O   0  0  0  0  0  0  0  0  0  0  0  0
  -24.5850  -31.8460   23.1880 C   0  0  0  0  0  0  0  0  0  0  0  0
  -27.0650  -27.4050   19.9920 C   0  0  0  0  0  0  0  0  0  0  0  0
  -23.3020  -30.4830   21.5670 C   0  0  0  0  0  3  0  0  0  0  0  0
  -24.6860  -28.9210   20.1030 C   0  0  0  0  0  0  0  0  0  0  0  0
  -25.8290  -30.7930   21.3060 C   0  0  0  0  0  2  0  0  0  0  0  0
  -25.8640  -29.4280   20.6630 C   0  0  0  0  0  0  0  0  0  0  0  0
  -27.0510  -28.6690   20.6150 C   0  0  0  0  0  3  0  0  0  0  0  0
  -25.8650  -26.8980   19.4400 C   0  0  0  0  0  3  0  0  0  0  0  0
  -24.6760  -27.6490   19.5030 C   0  0  0  0  0  3  0  0  0  0  0  0
  -23.4660  -29.8060   20.1780 C   0  0  0  0  0  2  0  0  0  0  0  0
  -24.5910  -31.0570   22.0770 N   0  0  0  0  0  0  0  0  0  0  0  0
  -23.5290  -32.1340   23.7650 O   0  0  0  0  0  0  0  0  0  0  0  0
  -22.6590  -29.4670   22.5360 C   0  0  0  0  0  0  0  0  0  0  0  0
  -21.3350  -29.2750   22.4100 N   0  0  0  0  0  0  0  0  0  0  0  0
  -23.3450  -28.8590   23.3610 O   0  0  0  0  0  0  0  0  0  0  0  0
  -20.8370  -29.8170   21.7190 H   0  0  0  0  0  0  0  0  0  0  0  0
  -17.9800  -28.0130   22.8700 C   0  0  0  0  0  0  0  0  0  0  0  0
  -20.5260  -28.3410   23.1910 C   0  0  0  0  0  3  0  0  0  0  0  0
  -20.6760  -26.8960   22.6630 C   0  0  0  0  0  2  0  0  0  0  0  0
  -19.6030  -26.5060   21.6410 C   0  0  0  0  0  2  0  0  0  0  0  0
  -18.2010  -26.6480   22.2430 C   0  0  0  0  0  2  0  0  0  0  0  0
  -19.0740  -28.8150   23.2980 C   0  0  0  0  0  0  0  0  0  0  0  0
  -18.8140  -30.0940   23.8410 C   0  0  0  0  0  3  0  0  0  0  0  0
  -17.4990  -30.5730   23.9600 C   0  0  0  0  0  3  0  0  0  0  0  0
  -16.4200  -29.7710   23.5470 C   0  0  0  0  0  3  0  0  0  0  0  0
  -16.6620  -28.4940   23.0070 C   0  0  0  0  0  3  0  0  0  0  0  0
  -25.9020  -32.4490   23.7700 C   0  0  0  0  0  3  0  0  0  0  0  0
  -25.6260  -33.8400   24.1510 N   0  0  0  0  0  0  0  0  0  0  0  0
  -25.9350  -34.9090   23.4040 C   0  0  0  0  0  0  0  0  0  0  0  0
  -26.5580  -34.8280   22.3410 O   0  0  0  0  0  0  0  0  0  0  0  0
  -25.0670  -33.9790   24.9810 H   0  0  0  0  0  0  0  0  0  0  0  0
  -24.2020  -36.7160   23.1790 C   0  0  0  0  0  1  0  0  0  0  0  0
  -25.4800  -36.2880   23.9170 C   0  0  0  0  0  3  0  0  0  0  0  0
  -27.6600  -37.1430   24.6590 C   0  0  0  0  0  1  0  0  0  0  0  0
  -26.5120  -37.3390   23.7790 N   0  0  0  0  0  0  0  0  0  0  0  0
  -26.1200  -38.2580   23.9660 H   0  0  0  0  0  0  0  0  0  0  0  0
  -26.4690  -31.6390   25.0020 C   0  0  1  0  0  0  0  0  0  0  0  0
  -25.4130  -31.3530   26.0950 C   0  0  0  0  0  1  0  0  0  0  0  0
  -27.0320  -30.2770   24.5410 C   0  0  0  0  0  1  0  0  0  0  0  0
  -27.6470  -32.4060   25.6530 C   0  0  0  0  0  1  0  0  0  0  0  0
  1 47  1  0
  1  7  1  0
  3  2  1  0
  4  2  2  0
  5  7  2  0
  5  6  1  0
  6  3  2  0
  7  4  1  0
  8 17  1  0
  8  6  1  0
  9 15  1  0
  9 17  1  0
 10 15  1  0
 11 12  1  0
 11 10  1  0
 13 12  1  0
 13 22  1  0
 13 14  1  0
 15 14  1  0
 16  9  2  0
 17 18  1  0
 19 20  2  0
 20 39  1  0
 21 20  1  0
 21 24  1  0
 22 23  1  0
 22 19  1  0
 23 21  2  0
 24 25  1  0
 25 26  2  0
 27 30  1  0
 27 26  1  0
 28 27  2  0
 29 28  1  0
 29 24  2  0
 30 31  1  0
 31 36  2  0
 31 32  1  0
 32 33  2  0
 33 34  1  0
 34 38  1  0
 35 34  2  0
 36 35  1  0
 37 36  1  0
 39 40  1  0
 40 43  1  0
 40 42  1  0
 41 39  2  0
 44 45  1  0
 44 19  1  0
 46 44  1  0
 48 49  1  0
 48 47  1  0
 50 51  1  0
 50 49  1  0
 51 53  1  0
 52 63  2  0
 53 58  1  0
 54 62  1  0
 54 64  1  0
 55 61  1  0
 55 57  1  0
 56 62  1  0
 57 56  1  0
 58 57  2  0
 59 60  1  0
 59 53  2  0
 60 55  2  0
 61 54  1  0
 62 52  1  0
 64 66  2  0
 65 64  1  0
 67 65  1  0
 68 77  2  0
 68 73  1  0
 69 65  1  0
 69 73  1  0
 70 69  1  0
 71 72  1  0
 71 70  1  0
 72 68  1  0
 73 74  2  0
 74 75  1  0
 76 75  2  0
 77 76  1  0
 78 52  1  0
 78 79  1  0
 78 88  1  0
 79 82  1  0
 80 84  1  0
 80 79  1  0
 81 80  2  0
 84 83  1  0
 86 84  1  0
 86 87  1  0
 86 85  1  0
 88 91  1  1
 88 89  1  0
 90 88  1  0
M  ISO  4   9 100  17 100  50 101  51 101
M  END
>  <TORSDO>  (28) 
F 22

>  <SCORE>  (28) 
-11.030

>  <name>  (28) 
27

>  <ligand_id>  (28) 
27

>  <original_smiles>  (28) 
[H]c1c([H])c(OC([H])([H])C([H])([H])C([H])([H])C([H])([H])Oc2c([H])c([H])c3c(c2[H])C([H])([H])N(C(=O)C([H])(N([H])C(=O)C([H])(N([H])C([H])([H])[H])C([H])([H])[H])C(C([H])([H])[H])(C([H])([H])[H])C([H])([H])[H])C([H])(C(=O)N([H])C2([H])c4c([H])c([H])c([H])c([H])c4C([H])([H])C([H])([H])C2([H])[H])C3([H])[H])c([H])c(C([H])([H])N([H])C(=O)N2C([H])([H])C([H])([H])C([H])([H])C([H])(n3nc(-c4c([H])c([H])c(Oc5c([H])c([H])c(F)c([H])c5F)c([H])c4[H])c(C(=O)N([H])[H])c3N([H])[H])C2([H])[H])c1[H]

>  <smiles>  (28) 
[H]c1c([H])c(OC([H])([H])C([H])([H])C([H])([H])C([H])([H])Oc2c([H])c([H])c3c(c2[H])C([H])([H])N(C(=O)C([H])(N([H])C(=O)C([H])(N([H])C([H])([H])[H])C([H])([H])[H])C(C([H])([H])[H])(C([H])([H])[H])C([H])([H])[H])C([H])(C(=O)N([H])C2([H])c4c([H])c([H])c([H])c([H])c4C([H])([H])C([H])([H])C2([H])[H])C3([H])[H])c([H])c(C([H])([H])N([H])C(=O)N2C([H])([H])C([H])([H])C([H])([H])C([H])(n3nc(-c4c([H])c([H])c(Oc5c([H])c([H])c(F)c([H])c5F)c([H])c4[H])c(C(=O)N([H])[H])c3N([H])[H])C2([H])[H])c1[H]

$$$$
28:0:0
     RDKit          3D

 97106  0  0  1  0  0  0  0  0999 V2000
  -28.6510  -19.3210   20.4690 C   0  0  0  0  0  3  0  0  0  0  0  0
  -31.1500  -18.0720   20.5570 C   0  0  0  0  0  3  0  0  0  0  0  0
  -29.7690  -20.1910   20.5850 C   0  0  0  0  0  0  0  0  0  0  0  0
  -31.0280  -19.5080   20.6140 C   0  0  0  0  0  0  0  0  0  0  0  0
  -30.0150  -17.2100   20.4970 C   0  0  0  0  0  0  0  0  0  0  0  0
  -28.7570  -17.8820   20.4480 C   0  0  0  0  0  0  0  0  0  0  0  0
  -30.7760  -14.6850   20.0380 C   0  0  0  0  0  0  0  0  0  0  0  0
  -30.5190  -12.4580   18.9190 C   0  0  0  0  0  2  0  0  0  0  0  0
  -29.4930  -12.5930   17.7690 C   0  0  0  0  0  2  0  0  0  0  0  0
  -28.0510  -12.4200   18.2880 C   0  0  0  0  0  2  0  0  0  0  0  0
  -27.7750  -13.2520   19.5680 C   0  0  0  0  0  3  0  0  0  0  0  0
  -28.9020  -13.0700   20.6070 C   0  0  0  0  0  2  0  0  0  0  0  0
  -30.1680  -13.4500   19.9600 N   0  0  0  0  0  0  0  0  0  0  0  0
  -31.9130  -14.8510   19.5850 O   0  0  0  0  0  0  0  0  0  0  0  0
  -29.9840  -15.7230   20.4960 N   0  0  0  0  0  0  0  0  0  0  0  0
  -29.1110  -15.3750   20.8640 H   0  0  0  0  0  0  0  0  0  0  0  0
  -25.4370  -13.8490   20.4470 C   0  0  0  0  0  0  0  0  0  0  0  0
  -24.3880  -13.0790   20.8660 C   0  0  0  0  0  0  0  0  0  0  0  0
  -24.8310  -11.7240   20.7670 C   0  0  0  0  0  0  0  0  0  0  0  0
  -26.4560  -12.9670   20.1290 N   0  0  0  0  0  0  0  0  0  0  0  0
  -26.1000  -11.6800   20.3790 N   0  0  0  0  0  0  0  0  0  0  0  0
  -24.0990  -10.4660   20.9620 C   0  0  0  0  0  0  0  0  0  0  0  0
  -24.5160   -9.5100   21.9130 C   0  0  0  0  0  3  0  0  0  0  0  0
  -23.7850   -8.3150   22.0950 C   0  0  0  0  0  3  0  0  0  0  0  0
  -22.6230   -8.0710   21.3250 C   0  0  0  0  0  0  0  0  0  0  0  0
  -22.2250   -9.0160   20.3640 C   0  0  0  0  0  3  0  0  0  0  0  0
  -22.9560  -10.2020   20.1800 C   0  0  0  0  0  3  0  0  0  0  0  0
  -21.8660   -6.9280   21.4160 O   0  0  0  0  0  0  0  0  0  0  0  0
  -21.7170   -6.2550   22.6020 C   0  0  0  0  0  0  0  0  0  0  0  0
  -21.1630   -6.8730   23.7450 C   0  0  0  0  0  3  0  0  0  0  0  0
  -20.9630   -6.1250   24.9220 C   0  0  0  0  0  3  0  0  0  0  0  0
  -21.3080   -4.7610   24.9580 C   0  0  0  0  0  0  0  0  0  0  0  0
  -21.8560   -4.1430   23.8200 C   0  0  0  0  0  3  0  0  0  0  0  0
  -22.0560   -4.8880   22.6450 C   0  0  0  0  0  0  0  0  0  0  0  0
  -22.5650   -4.2820   21.5450 F   0  0  0  0  0  0  0  0  0  0  0  0
  -21.1080   -4.0410   26.0870 F   0  0  0  0  0  0  0  0  0  0  0  0
  -23.0180  -13.5650   21.2420 C   0  0  0  0  0  0  0  0  0  0  0  0
  -22.3470  -12.8670   22.1520 N   0  0  0  0  0  0  0  0  0  0  0  0
  -22.5540  -14.6000   20.7660 O   0  0  0  0  0  0  0  0  0  0  0  0
  -22.7360  -12.0300   22.5600 H   0  0  0  0  0  0  0  0  0  0  0  0
  -21.4310  -13.1760   22.4460 H   0  0  0  0  0  0  0  0  0  0  0  0
  -25.5980  -15.2200   20.2860 N   0  0  0  0  0  0  0  0  0  0  0  0
  -24.8380  -15.8710   20.4500 H   0  0  0  0  0  0  0  0  0  0  0  0
  -26.4430  -15.6730   19.9630 H   0  0  0  0  0  0  0  0  0  0  0  0
  -28.7250  -23.9520   21.0340 C   0  0  0  0  0  0  0  0  0  0  0  0
  -28.3860  -25.3010   20.9480 C   0  0  0  0  0  3  0  0  0  0  0  0
  -28.8580  -23.3460   22.4140 C   0  0  0  0  0  2  0  0  0  0  0  0
  -29.2200  -21.8610   22.2620 C   0  0  0  0  0  2  0  0  0  0  0  0
  -29.0760  -22.7590   20.0660 C   0  0  0  0  0  3  0  0  0  0  0  0
  -30.0060  -23.1660   18.9190 C   0  0  0  0  0  1  0  0  0  0  0  0
  -29.6340  -21.6170   20.8810 N   0  0  0  0  0  0  0  0  0  0  0  0
  -28.2650  -26.2490   19.9130 O   0  0  0  0  0  0  0  0  0  0  0  0
  -24.5040  -31.6870   22.9980 C   0  0  0  0  0  0  0  0  0  0  0  0
  -27.1810  -27.1450   19.9480 C   0  0  0  0  0  0  0  0  0  0  0  0
  -23.3280  -30.2910   21.3350 C   0  0  0  0  0  3  0  0  0  0  0  0
  -24.8090  -28.7530   19.9190 C   0  0  0  0  0  0  0  0  0  0  0  0
  -25.8700  -30.6210   21.1850 C   0  0  0  0  0  2  0  0  0  0  0  0
  -25.9690  -29.2420   20.5360 C   0  0  0  0  0  0  0  0  0  0  0  0
  -27.1610  -28.4490   20.5430 C   0  0  0  0  0  3  0  0  0  0  0  0
  -26.0000  -26.7130   19.3130 C   0  0  0  0  0  3  0  0  0  0  0  0
  -24.8260  -27.4930   19.3010 C   0  0  0  0  0  3  0  0  0  0  0  0
  -23.5650  -29.6220   19.9560 C   0  0  0  0  0  2  0  0  0  0  0  0
  -24.5850  -30.8840   21.8960 N   0  0  0  0  0  0  0  0  0  0  0  0
  -23.4120  -31.9560   23.5220 O   0  0  0  0  0  0  0  0  0  0  0  0
  -22.6580  -29.2660   22.2830 C   0  0  0  0  0  0  0  0  0  0  0  0
  -21.3260  -29.1230   22.1780 N   0  0  0  0  0  0  0  0  0  0  0  0
  -23.3370  -28.6050   23.0720 O   0  0  0  0  0  0  0  0  0  0  0  0
  -20.8380  -29.7080   21.5140 H   0  0  0  0  0  0  0  0  0  0  0  0
  -17.9210  -28.0670   22.7990 C   0  0  0  0  0  0  0  0  0  0  0  0
  -20.5000  -28.1850   22.9400 C   0  0  0  0  0  3  0  0  0  0  0  0
  -20.4960  -26.7840   22.2830 C   0  0  0  0  0  2  0  0  0  0  0  0
  -19.3280  -26.5760   21.3150 C   0  0  0  0  0  2  0  0  0  0  0  0
  -17.9920  -26.7520   22.0410 C   0  0  0  0  0  2  0  0  0  0  0  0
  -19.0990  -28.7470   23.2070 C   0  0  0  0  0  0  0  0  0  0  0  0
  -18.9780  -29.9830   23.8800 C   0  0  0  0  0  3  0  0  0  0  0  0
  -17.7120  -30.5370   24.1470 C   0  0  0  0  0  3  0  0  0  0  0  0
  -16.5490  -29.8520   23.7520 C   0  0  0  0  0  3  0  0  0  0  0  0
  -16.6550  -28.6180   23.0850 C   0  0  0  0  0  3  0  0  0  0  0  0
  -25.7740  -32.3250   23.6390 C   0  0  0  0  0  3  0  0  0  0  0  0
  -26.3270  -31.5040   24.8680 C   0  0  1  0  0  0  0  0  0  0  0  0
  -25.2510  -31.1700   25.9280 C   0  0  0  0  0  1  0  0  0  0  0  0
  -26.9580  -30.1710   24.4000 C   0  0  0  0  0  1  0  0  0  0  0  0
  -27.4530  -32.3020   25.5670 C   0  0  0  0  0  1  0  0  0  0  0  0
  -25.4280  -33.6940   24.0460 N   0  0  0  0  0  0  0  0  0  0  0  0
  -25.7250  -34.7960   23.3440 C   0  0  0  0  0  0  0  0  0  0  0  0
  -26.3880  -34.7670   22.3030 O   0  0  0  0  0  0  0  0  0  0  0  0
  -24.8370  -33.7880   24.8580 H   0  0  0  0  0  0  0  0  0  0  0  0
  -23.9430  -36.5550   23.1070 C   0  0  0  0  0  1  0  0  0  0  0  0
  -25.2050  -36.1440   23.8800 C   0  0  0  0  0  3  0  0  0  0  0  0
  -27.3190  -37.0510   24.7390 C   0  0  0  0  0  1  0  0  0  0  0  0
  -26.2050  -37.2310   23.8100 N   0  0  0  0  0  0  0  0  0  0  0  0
  -25.7740  -38.1310   24.0050 H   0  0  0  0  0  0  0  0  0  0  0  0
  -32.1730  -20.2900   20.7570 N   0  0  0  0  0  0  0  0  0  0  0  0
  -33.0140  -19.9770   20.2850 H   0  0  0  0  0  0  0  0  0  0  0  0
  -31.9850  -21.2790   20.6180 H   0  0  0  0  0  0  0  0  0  0  0  0
  -26.3980  -17.6270   20.0340 C   0  0  0  0  0  1  0  0  0  0  0  0
  -27.6510  -17.0580   20.4020 O   0  0  0  0  0  0  0  0  0  0  0  0
  1  3  1  0
  2  4  1  0
  3  4  2  0
  3 51  1  0
  4 93  1  0
  5  2  2  0
  6  1  2  0
  6  5  1  0
  7 15  1  0
  8 13  1  0
  9 10  1  0
  9  8  1  0
 11 10  1  0
 11 20  1  0
 11 12  1  0
 13  7  1  0
 13 12  1  0
 14  7  2  0
 15  5  1  0
 15 16  1  0
 17 18  2  0
 18 37  1  0
 19 18  1  0
 19 22  1  0
 20 21  1  0
 20 17  1  0
 21 19  2  0
 22 23  1  0
 23 24  2  0
 25 28  1  0
 25 24  1  0
 26 25  2  0
 27 26  1  0
 27 22  2  0
 28 29  1  0
 29 34  2  0
 29 30  1  0
 30 31  2  0
 31 32  1  0
 32 36  1  0
 33 32  2  0
 34 33  1  0
 35 34  1  0
 37 38  1  0
 38 41  1  0
 38 40  1  0
 39 37  2  0
 42 17  1  0
 42 43  1  0
 44 42  1  0
 45 47  1  0
 46 45  2  0
 48 47  1  0
 49 50  1  0
 49 51  1  0
 49 45  1  0
 51 48  1  0
 52 54  1  0
 52 46  1  0
 53 64  2  0
 54 59  1  0
 55 63  1  0
 55 65  1  0
 56 62  1  0
 56 58  1  0
 57 63  1  0
 58 59  2  0
 58 57  1  0
 60 54  2  0
 61 60  1  0
 61 56  2  0
 62 55  1  0
 63 53  1  0
 65 67  2  0
 66 65  1  0
 68 66  1  0
 69 78  2  0
 69 74  1  0
 70 66  1  0
 70 74  1  0
 71 70  1  0
 72 73  1  0
 72 71  1  0
 73 69  1  0
 74 75  2  0
 75 76  1  0
 77 76  2  0
 78 77  1  0
 79 53  1  0
 79 84  1  0
 79 80  1  0
 80 83  1  1
 80 81  1  0
 82 80  1  0
 84 87  1  0
 85 89  1  0
 85 84  1  0
 86 85  2  0
 89 88  1  0
 91 89  1  0
 91 92  1  0
 91 90  1  0
 94 93  1  0
 95 93  1  0
 96 97  1  0
 97  6  1  0
M  ISO  4   7 100  15 100  46 101  52 101
M  END
>  <TORSDO>  (29) 
F 19

>  <SCORE>  (29) 
-14.475

>  <name>  (29) 
28

>  <ligand_id>  (29) 
28

>  <original_smiles>  (29) 
[H]C(Oc1c([H])c([H])c2c(c1[H])C([H])([H])N(C(=O)C([H])(N([H])C(=O)C([H])(N([H])C([H])([H])[H])C([H])([H])[H])C(C([H])([H])[H])(C([H])([H])[H])C([H])([H])[H])C([H])(C(=O)N([H])C1([H])c3c([H])c([H])c([H])c([H])c3C([H])([H])C([H])([H])C1([H])[H])C2([H])[H])=C1C([H])([H])C([H])([H])N(c2c([H])c(OC([H])([H])[H])c(N([H])C(=O)N3C([H])([H])C([H])([H])C([H])([H])C([H])(n4nc(-c5c([H])c([H])c(Oc6c([H])c([H])c(F)c([H])c6F)c([H])c5[H])c(C(=O)N([H])[H])c4N([H])[H])C3([H])[H])c([H])c2N([H])[H])C1([H])C([H])([H])[H]

>  <smiles>  (29) 
[H]C(Oc1c([H])c([H])c2c(c1[H])C([H])([H])N(C(=O)C([H])(N([H])C(=O)C([H])(N([H])C([H])([H])[H])C([H])([H])[H])C(C([H])([H])[H])(C([H])([H])[H])C([H])([H])[H])C([H])(C(=O)N([H])C1([H])c3c([H])c([H])c([H])c([H])c3C([H])([H])C([H])([H])C1([H])[H])C2([H])[H])=C1C([H])([H])C([H])([H])N(c2c([H])c(OC([H])([H])[H])c(N([H])C(=O)N3C([H])([H])C([H])([H])C([H])([H])C([H])(n4nc(-c5c([H])c([H])c(Oc6c([H])c([H])c(F)c([H])c6F)c([H])c5[H])c(C(=O)N([H])[H])c4N([H])[H])C3([H])[H])c([H])c2N([H])[H])C1([H])C([H])([H])[H]

$$$$
29:0:0
     RDKit          3D

 93102  0  0  1  0  0  0  0  0999 V2000
  -29.5440  -20.7390   19.5220 C   0  0  0  0  0  0  0  0  0  0  0  0
  -27.8290  -23.0740   21.8530 C   0  0  0  0  0  2  0  0  0  0  0  0
  -28.3530  -21.6810   21.4860 C   0  0  0  0  0  2  0  0  0  0  0  0
  -28.9310  -23.2070   19.7080 C   0  0  0  0  0  2  0  0  0  0  0  0
  -27.9400  -23.9900   20.6160 C   0  0  0  0  0  3  0  0  0  0  0  0
  -29.0260  -21.8050   20.2000 N   0  0  0  0  0  0  0  0  0  0  0  0
  -29.7290  -20.7640   18.3030 O   0  0  0  0  0  0  0  0  0  0  0  0
  -31.6860  -18.6690   21.9250 C   0  0  0  0  0  3  0  0  0  0  0  0
  -31.0800  -19.7520   21.2610 C   0  0  0  0  0  3  0  0  0  0  0  0
  -31.2880  -17.3480   21.6490 C   0  0  0  0  0  3  0  0  0  0  0  0
  -29.6520  -18.1920   20.0430 C   0  0  0  0  0  3  0  0  0  0  0  0
  -30.0580  -19.5390   20.3100 C   0  0  0  0  0  0  0  0  0  0  0  0
  -30.2650  -17.0830   20.7080 C   0  0  0  0  0  0  0  0  0  0  0  0
  -30.6070  -14.6140   20.3210 C   0  0  0  0  0  0  0  0  0  0  0  0
  -30.3360  -12.4130   19.2380 C   0  0  0  0  0  2  0  0  0  0  0  0
  -29.3830  -12.5590   18.0350 C   0  0  0  0  0  2  0  0  0  0  0  0
  -27.9120  -12.4080   18.4800 C   0  0  0  0  0  2  0  0  0  0  0  0
  -27.5640  -13.2640   19.7280 C   0  0  0  0  0  3  0  0  0  0  0  0
  -28.6370  -13.1180   20.8310 C   0  0  0  0  0  2  0  0  0  0  0  0
  -29.9420  -13.4280   20.2280 N   0  0  0  0  0  0  0  0  0  0  0  0
  -31.7940  -14.7240   20.0040 O   0  0  0  0  0  0  0  0  0  0  0  0
  -29.8330  -15.7210   20.4930 N   0  0  0  0  0  0  0  0  0  0  0  0
  -28.8370  -15.5650   20.4480 H   0  0  0  0  0  0  0  0  0  0  0  0
  -25.1730  -13.8390   20.4750 C   0  0  0  0  0  0  0  0  0  0  0  0
  -24.1200  -13.0540   20.8570 C   0  0  0  0  0  0  0  0  0  0  0  0
  -24.5960  -11.7090   20.8240 C   0  0  0  0  0  0  0  0  0  0  0  0
  -26.2260  -12.9710   20.2300 N   0  0  0  0  0  0  0  0  0  0  0  0
  -25.8840  -11.6850   20.5030 N   0  0  0  0  0  0  0  0  0  0  0  0
  -23.8860  -10.4380   21.0170 C   0  0  0  0  0  0  0  0  0  0  0  0
  -24.3350   -9.4760   21.9500 C   0  0  0  0  0  3  0  0  0  0  0  0
  -23.6240   -8.2700   22.1310 C   0  0  0  0  0  3  0  0  0  0  0  0
  -22.4500   -8.0190   21.3810 C   0  0  0  0  0  0  0  0  0  0  0  0
  -22.0210   -8.9690   20.4390 C   0  0  0  0  0  3  0  0  0  0  0  0
  -22.7330  -10.1670   20.2540 C   0  0  0  0  0  3  0  0  0  0  0  0
  -21.7080   -6.8660   21.4740 O   0  0  0  0  0  0  0  0  0  0  0  0
  -21.6770   -6.1200   22.6240 C   0  0  0  0  0  0  0  0  0  0  0  0
  -21.2540   -6.6660   23.8560 C   0  0  0  0  0  3  0  0  0  0  0  0
  -21.1710   -5.8460   24.9990 C   0  0  0  0  0  3  0  0  0  0  0  0
  -21.5030   -4.4790   24.9110 C   0  0  0  0  0  0  0  0  0  0  0  0
  -21.9200   -3.9330   23.6830 C   0  0  0  0  0  3  0  0  0  0  0  0
  -22.0050   -4.7510   22.5430 C   0  0  0  0  0  0  0  0  0  0  0  0
  -22.3860   -4.2150   21.3580 F   0  0  0  0  0  0  0  0  0  0  0  0
  -21.4170   -3.6880   26.0060 F   0  0  0  0  0  0  0  0  0  0  0  0
  -22.7190  -13.5160   21.1380 C   0  0  0  0  0  0  0  0  0  0  0  0
  -22.0000  -12.8110   22.0050 N   0  0  0  0  0  0  0  0  0  0  0  0
  -22.2680  -14.5380   20.6230 O   0  0  0  0  0  0  0  0  0  0  0  0
  -22.3750  -11.9830   22.4440 H   0  0  0  0  0  0  0  0  0  0  0  0
  -21.0570  -13.1020   22.2270 H   0  0  0  0  0  0  0  0  0  0  0  0
  -25.3120  -15.2110   20.2960 N   0  0  0  0  0  0  0  0  0  0  0  0
  -24.5210  -15.8380   20.4050 H   0  0  0  0  0  0  0  0  0  0  0  0
  -26.1350  -15.6760   19.9340 H   0  0  0  0  0  0  0  0  0  0  0  0
  -28.2900  -25.4650   21.0650 C   0  0  0  0  0  2  0  0  0  0  0  0
  -28.3200  -26.5910   20.1410 O   0  0  0  0  0  0  0  0  0  0  0  0
  -24.6030  -31.8930   23.2430 C   0  0  0  0  0  0  0  0  0  0  0  0
  -27.2020  -27.4040   20.1560 C   0  0  0  0  0  0  0  0  0  0  0  0
  -23.3920  -30.4990   21.6020 C   0  0  0  0  0  3  0  0  0  0  0  0
  -24.8330  -28.9580   20.1670 C   0  0  0  0  0  0  0  0  0  0  0  0
  -25.9220  -30.8400   21.3970 C   0  0  0  0  0  2  0  0  0  0  0  0
  -25.9990  -29.4650   20.7580 C   0  0  0  0  0  0  0  0  0  0  0  0
  -27.1920  -28.6950   20.7510 C   0  0  0  0  0  3  0  0  0  0  0  0
  -26.0230  -26.9270   19.5510 C   0  0  0  0  0  3  0  0  0  0  0  0
  -24.8430  -27.6900   19.5580 C   0  0  0  0  0  3  0  0  0  0  0  0
  -23.5960  -29.8270   20.2190 C   0  0  0  0  0  2  0  0  0  0  0  0
  -24.6590  -31.0950   22.1380 N   0  0  0  0  0  0  0  0  0  0  0  0
  -23.5230  -32.1600   23.7900 O   0  0  0  0  0  0  0  0  0  0  0  0
  -22.7400  -29.4760   22.5640 C   0  0  0  0  0  0  0  0  0  0  0  0
  -21.4150  -29.2900   22.4410 N   0  0  0  0  0  0  0  0  0  0  0  0
  -23.4260  -28.8530   23.3780 O   0  0  0  0  0  0  0  0  0  0  0  0
  -20.9160  -29.8520   21.7670 H   0  0  0  0  0  0  0  0  0  0  0  0
  -18.0490  -28.0740   22.9520 C   0  0  0  0  0  0  0  0  0  0  0  0
  -20.6060  -28.3450   23.2120 C   0  0  0  0  0  3  0  0  0  0  0  0
  -20.7160  -26.9150   22.6340 C   0  0  0  0  0  2  0  0  0  0  0  0
  -19.6110  -26.5850   21.6260 C   0  0  0  0  0  2  0  0  0  0  0  0
  -18.2300  -26.7270   22.2740 C   0  0  0  0  0  2  0  0  0  0  0  0
  -19.1650  -28.8410   23.3780 C   0  0  0  0  0  0  0  0  0  0  0  0
  -18.9390  -30.1040   23.9680 C   0  0  0  0  0  3  0  0  0  0  0  0
  -17.6330  -30.5960   24.1400 C   0  0  0  0  0  3  0  0  0  0  0  0
  -16.5320  -29.8250   23.7290 C   0  0  0  0  0  3  0  0  0  0  0  0
  -16.7410  -28.5670   23.1370 C   0  0  0  0  0  3  0  0  0  0  0  0
  -25.8890  -32.5280   23.8600 C   0  0  0  0  0  3  0  0  0  0  0  0
  -25.5810  -33.9270   24.1890 N   0  0  0  0  0  0  0  0  0  0  0  0
  -25.9100  -34.9800   23.4260 C   0  0  0  0  0  0  0  0  0  0  0  0
  -26.5740  -34.8760   22.3930 O   0  0  0  0  0  0  0  0  0  0  0  0
  -25.0050  -34.0870   25.0030 H   0  0  0  0  0  0  0  0  0  0  0  0
  -24.1840  -36.7750   23.0710 C   0  0  0  0  0  1  0  0  0  0  0  0
  -25.4230  -36.3690   23.8850 C   0  0  0  0  0  3  0  0  0  0  0  0
  -27.5570  -37.2530   24.7170 C   0  0  0  0  0  1  0  0  0  0  0  0
  -26.4560  -37.4220   23.7710 N   0  0  0  0  0  0  0  0  0  0  0  0
  -26.0480  -38.3400   23.9210 H   0  0  0  0  0  0  0  0  0  0  0  0
  -26.4120  -31.7590   25.1340 C   0  0  1  0  0  0  0  0  0  0  0  0
  -25.3270  -31.5170   26.2060 C   0  0  0  0  0  1  0  0  0  0  0  0
  -26.9960  -30.3850   24.7350 C   0  0  0  0  0  1  0  0  0  0  0  0
  -27.5650  -32.5560   25.7910 C   0  0  0  0  0  1  0  0  0  0  0  0
  1  6  1  0
  1 12  1  0
  3  2  1  0
  4  6  1  0
  4  5  1  0
  5 52  1  0
  5  2  1  0
  6  3  1  0
  7  1  2  0
  9  8  2  0
 10  8  1  0
 11 12  2  0
 11 13  1  0
 12  9  1  0
 13 10  2  0
 14 22  1  0
 15 20  1  0
 16 17  1  0
 16 15  1  0
 18 17  1  0
 18 27  1  0
 18 19  1  0
 20 14  1  0
 20 19  1  0
 21 14  2  0
 22 13  1  0
 23 22  1  0
 24 25  2  0
 25 44  1  0
 26 25  1  0
 26 29  1  0
 27 24  1  0
 27 28  1  0
 28 26  2  0
 29 30  1  0
 30 31  2  0
 32 35  1  0
 32 31  1  0
 33 32  2  0
 34 33  1  0
 34 29  2  0
 35 36  1  0
 36 37  1  0
 37 38  2  0
 39 38  1  0
 39 43  1  0
 40 39  2  0
 41 36  2  0
 41 40  1  0
 42 41  1  0
 44 45  1  0
 45 48  1  0
 45 47  1  0
 46 44  2  0
 49 50  1  0
 49 24  1  0
 51 49  1  0
 53 55  1  0
 53 52  1  0
 54 65  2  0
 55 60  1  0
 56 64  1  0
 56 66  1  0
 57 63  1  0
 57 59  1  0
 58 64  1  0
 59 58  1  0
 60 59  2  0
 61 62  1  0
 61 55  2  0
 62 57  2  0
 63 56  1  0
 64 54  1  0
 66 68  2  0
 67 66  1  0
 69 67  1  0
 70 79  2  0
 70 75  1  0
 71 67  1  0
 71 75  1  0
 72 71  1  0
 73 74  1  0
 73 72  1  0
 74 70  1  0
 75 76  2  0
 76 77  1  0
 78 77  2  0
 79 78  1  0
 80 54  1  0
 80 81  1  0
 80 90  1  0
 81 84  1  0
 82 86  1  0
 82 81  1  0
 83 82  2  0
 86 85  1  0
 88 86  1  0
 88 89  1  0
 88 87  1  0
 90 93  1  1
 90 91  1  0
 92 90  1  0
M  ISO  4  14 100  22 100  52 101  53 101
M  END
>  <TORSDO>  (30) 
F 18

>  <SCORE>  (30) 
-14.841

>  <name>  (30) 
29

>  <ligand_id>  (30) 
29

>  <original_smiles>  (30) 
[H]c1c([H])c(C(=O)N2C([H])([H])C([H])([H])C([H])(C([H])([H])Oc3c([H])c([H])c4c(c3[H])C([H])([H])N(C(=O)C([H])(N([H])C(=O)C([H])(N([H])C([H])([H])[H])C([H])([H])[H])C(C([H])([H])[H])(C([H])([H])[H])C([H])([H])[H])C([H])(C(=O)N([H])C3([H])c5c([H])c([H])c([H])c([H])c5C([H])([H])C([H])([H])C3([H])[H])C4([H])[H])C2([H])[H])c([H])c(N([H])C(=O)N2C([H])([H])C([H])([H])C([H])([H])C([H])(n3nc(-c4c([H])c([H])c(Oc5c([H])c([H])c(F)c([H])c5F)c([H])c4[H])c(C(=O)N([H])[H])c3N([H])[H])C2([H])[H])c1[H]

>  <smiles>  (30) 
[H]c1c([H])c(C(=O)N2C([H])([H])C([H])([H])C([H])(C([H])([H])Oc3c([H])c([H])c4c(c3[H])C([H])([H])N(C(=O)C([H])(N([H])C(=O)C([H])(N([H])C([H])([H])[H])C([H])([H])[H])C(C([H])([H])[H])(C([H])([H])[H])C([H])([H])[H])C([H])(C(=O)N([H])C3([H])c5c([H])c([H])c([H])c([H])c5C([H])([H])C([H])([H])C3([H])[H])C4([H])[H])C2([H])[H])c([H])c(N([H])C(=O)N2C([H])([H])C([H])([H])C([H])([H])C([H])(n3nc(-c4c([H])c([H])c(Oc5c([H])c([H])c(F)c([H])c5F)c([H])c4[H])c(C(=O)N([H])[H])c3N([H])[H])C2([H])[H])c1[H]

$$$$
30:0:0
     RDKit          3D

 94103  0  0  1  0  0  0  0  0999 V2000
  -30.4650  -22.6430   22.6300 C   0  0  0  0  0  0  0  0  0  0  0  0
  -30.2830  -24.1390   22.9140 C   0  0  0  0  0  2  0  0  0  0  0  0
  -29.2020  -24.8040   22.0640 C   0  0  0  0  0  2  0  0  0  0  0  0
  -29.3650  -22.9170   20.4120 C   0  0  0  0  0  2  0  0  0  0  0  0
  -29.4090  -24.4700   20.5860 C   0  0  0  0  0  3  0  0  0  0  0  0
  -30.1450  -22.1340   21.4050 N   0  0  0  0  0  0  0  0  0  0  0  0
  -30.9290  -21.9570   23.5480 O   0  0  0  0  0  0  0  0  0  0  0  0
  -29.6530  -18.3980   21.0360 C   0  0  0  0  0  3  0  0  0  0  0  0
  -32.0280  -18.8920   21.1470 C   0  0  0  0  0  3  0  0  0  0  0  0
  -29.3670  -19.7880   21.0320 C   0  0  0  0  0  3  0  0  0  0  0  0
  -31.7460  -20.2730   21.1460 C   0  0  0  0  0  3  0  0  0  0  0  0
  -30.9880  -17.9370   21.1470 C   0  0  0  0  0  0  0  0  0  0  0  0
  -30.4110  -20.7400   21.1530 C   0  0  0  0  0  0  0  0  0  0  0  0
  -31.3370  -16.4710   21.4500 C   0  0  0  0  0  2  0  0  0  0  0  0
  -30.9650  -14.4520   20.0430 C   0  0  0  0  0  0  0  0  0  0  0  0
  -30.4930  -12.3110   18.8980 C   0  0  0  0  0  2  0  0  0  0  0  0
  -29.4840  -12.5130   17.7510 C   0  0  0  0  0  2  0  0  0  0  0  0
  -28.0400  -12.4180   18.2760 C   0  0  0  0  0  2  0  0  0  0  0  0
  -27.8040  -13.2930   19.5370 C   0  0  0  0  0  3  0  0  0  0  0  0
  -28.9170  -13.0680   20.5840 C   0  0  0  0  0  2  0  0  0  0  0  0
  -30.2120  -13.3230   19.9300 N   0  0  0  0  0  0  0  0  0  0  0  0
  -32.0180  -14.6090   19.4190 O   0  0  0  0  0  0  0  0  0  0  0  0
  -30.5050  -15.4030   20.8780 N   0  0  0  0  0  0  0  0  0  0  0  0
  -29.6170  -15.2270   21.3200 H   0  0  0  0  0  0  0  0  0  0  0  0
  -25.4930  -13.9890   20.4270 C   0  0  0  0  0  0  0  0  0  0  0  0
  -24.4160  -13.2570   20.8480 C   0  0  0  0  0  0  0  0  0  0  0  0
  -24.8050  -11.8860   20.7460 C   0  0  0  0  0  0  0  0  0  0  0  0
  -26.4750  -13.0660   20.1010 N   0  0  0  0  0  0  0  0  0  0  0  0
  -26.0680  -11.7950   20.3490 N   0  0  0  0  0  0  0  0  0  0  0  0
  -24.0330  -10.6540   20.9500 C   0  0  0  0  0  0  0  0  0  0  0  0
  -24.4540   -9.6590   21.8590 C   0  0  0  0  0  3  0  0  0  0  0  0
  -23.6840   -8.4920   22.0500 C   0  0  0  0  0  3  0  0  0  0  0  0
  -22.4780   -8.3110   21.3310 C   0  0  0  0  0  0  0  0  0  0  0  0
  -22.0760   -9.2940   20.4100 C   0  0  0  0  0  3  0  0  0  0  0  0
  -22.8450  -10.4530   20.2170 C   0  0  0  0  0  3  0  0  0  0  0  0
  -21.6790   -7.1990   21.4340 O   0  0  0  0  0  0  0  0  0  0  0  0
  -21.5980   -6.4740   22.5970 C   0  0  0  0  0  0  0  0  0  0  0  0
  -21.1830   -7.0610   23.8120 C   0  0  0  0  0  3  0  0  0  0  0  0
  -21.0480   -6.2650   24.9680 C   0  0  0  0  0  3  0  0  0  0  0  0
  -21.3160   -4.8850   24.9080 C   0  0  0  0  0  0  0  0  0  0  0  0
  -21.7240   -4.2980   23.6970 C   0  0  0  0  0  3  0  0  0  0  0  0
  -21.8610   -5.0900   22.5440 C   0  0  0  0  0  0  0  0  0  0  0  0
  -22.2340   -4.5170   21.3740 F   0  0  0  0  0  0  0  0  0  0  0  0
  -21.1790   -4.1180   26.0150 F   0  0  0  0  0  0  0  0  0  0  0  0
  -23.0650  -13.7900   21.2310 C   0  0  0  0  0  0  0  0  0  0  0  0
  -22.3700  -13.1080   22.1360 N   0  0  0  0  0  0  0  0  0  0  0  0
  -22.6390  -14.8450   20.7650 O   0  0  0  0  0  0  0  0  0  0  0  0
  -22.7300  -12.2520   22.5330 H   0  0  0  0  0  0  0  0  0  0  0  0
  -21.4680  -13.4460   22.4370 H   0  0  0  0  0  0  0  0  0  0  0  0
  -25.7150  -15.3550   20.2770 N   0  0  0  0  0  0  0  0  0  0  0  0
  -24.9950  -16.0470   20.4560 H   0  0  0  0  0  0  0  0  0  0  0  0
  -26.5670  -15.7570   19.9060 H   0  0  0  0  0  0  0  0  0  0  0  0
  -28.3730  -25.2220   19.7120 C   0  0  0  0  0  2  0  0  0  0  0  0
  -28.4660  -26.6570   19.8550 O   0  0  0  0  0  0  0  0  0  0  0  0
  -24.5190  -31.6630   23.0440 C   0  0  0  0  0  0  0  0  0  0  0  0
  -27.2810  -27.3710   19.8400 C   0  0  0  0  0  0  0  0  0  0  0  0
  -23.3540  -30.2760   21.3640 C   0  0  0  0  0  3  0  0  0  0  0  0
  -24.8480  -28.8240   19.8930 C   0  0  0  0  0  0  0  0  0  0  0  0
  -25.8700  -30.7060   21.1780 C   0  0  0  0  0  2  0  0  0  0  0  0
  -25.9930  -29.3570   20.4970 C   0  0  0  0  0  0  0  0  0  0  0  0
  -27.2120  -28.6390   20.4640 C   0  0  0  0  0  3  0  0  0  0  0  0
  -26.1150  -26.8630   19.2170 C   0  0  0  0  0  3  0  0  0  0  0  0
  -24.9040  -27.5780   19.2500 C   0  0  0  0  0  3  0  0  0  0  0  0
  -23.5810  -29.6460   19.9640 C   0  0  0  0  0  2  0  0  0  0  0  0
  -24.5990  -30.8960   21.9210 N   0  0  0  0  0  0  0  0  0  0  0  0
  -23.4310  -31.8890   23.5910 O   0  0  0  0  0  0  0  0  0  0  0  0
  -22.7330  -29.2080   22.2940 C   0  0  0  0  0  0  0  0  0  0  0  0
  -21.4110  -29.0010   22.1720 N   0  0  0  0  0  0  0  0  0  0  0  0
  -23.4370  -28.5680   23.0800 O   0  0  0  0  0  0  0  0  0  0  0  0
  -20.9040  -29.5720   21.5100 H   0  0  0  0  0  0  0  0  0  0  0  0
  -18.0620  -27.7460   22.6800 C   0  0  0  0  0  0  0  0  0  0  0  0
  -20.6210  -28.0230   22.9160 C   0  0  0  0  0  3  0  0  0  0  0  0
  -20.7290  -26.6180   22.2780 C   0  0  0  0  0  2  0  0  0  0  0  0
  -19.6120  -26.3260   21.2720 C   0  0  0  0  0  2  0  0  0  0  0  0
  -18.2410  -26.4270   21.9470 C   0  0  0  0  0  2  0  0  0  0  0  0
  -19.1800  -28.5030   23.1210 C   0  0  0  0  0  0  0  0  0  0  0  0
  -18.9600  -29.7380   23.7670 C   0  0  0  0  0  3  0  0  0  0  0  0
  -17.6530  -30.2170   23.9770 C   0  0  0  0  0  3  0  0  0  0  0  0
  -16.5480  -29.4570   23.5530 C   0  0  0  0  0  3  0  0  0  0  0  0
  -16.7540  -28.2240   22.9090 C   0  0  0  0  0  3  0  0  0  0  0  0
  -25.7860  -32.3140   23.6800 C   0  0  0  0  0  3  0  0  0  0  0  0
  -26.3320  -31.5180   24.9290 C   0  0  1  0  0  0  0  0  0  0  0  0
  -25.2510  -31.2090   25.9900 C   0  0  0  0  0  1  0  0  0  0  0  0
  -26.9610  -30.1770   24.4860 C   0  0  0  0  0  1  0  0  0  0  0  0
  -27.4560  -32.3290   25.6170 C   0  0  0  0  0  1  0  0  0  0  0  0
  -25.4360  -33.6910   24.0540 N   0  0  0  0  0  0  0  0  0  0  0  0
  -25.7460  -34.7770   23.3330 C   0  0  0  0  0  0  0  0  0  0  0  0
  -26.4270  -34.7260   22.3060 O   0  0  0  0  0  0  0  0  0  0  0  0
  -24.8290  -33.8020   24.8530 H   0  0  0  0  0  0  0  0  0  0  0  0
  -23.9710  -36.5300   23.0190 C   0  0  0  0  0  1  0  0  0  0  0  0
  -25.2150  -36.1340   23.8320 C   0  0  0  0  0  3  0  0  0  0  0  0
  -27.3110  -37.0500   24.7230 C   0  0  0  0  0  1  0  0  0  0  0  0
  -26.2180  -37.2190   23.7680 N   0  0  0  0  0  0  0  0  0  0  0  0
  -25.7840  -38.1220   23.9380 H   0  0  0  0  0  0  0  0  0  0  0  0
  1  2  1  0
  1  7  2  0
  3  2  1  0
  4  5  1  0
  4  6  1  0
  5 53  1  0
  5  3  1  0
  6  1  1  0
  8 12  1  0
 10  8  2  0
 10 13  1  0
 11  9  1  0
 11 13  2  0
 12  9  2  0
 12 14  1  0
 13  6  1  0
 15 23  1  0
 16 21  1  0
 17 18  1  0
 17 16  1  0
 19 18  1  0
 19 28  1  0
 19 20  1  0
 21 15  1  0
 21 20  1  0
 22 15  2  0
 23 24  1  0
 23 14  1  0
 25 26  2  0
 26 45  1  0
 27 26  1  0
 27 30  1  0
 28 29  1  0
 28 25  1  0
 29 27  2  0
 30 31  1  0
 31 32  2  0
 33 36  1  0
 33 32  1  0
 34 33  2  0
 35 34  1  0
 35 30  2  0
 36 37  1  0
 37 38  1  0
 38 39  2  0
 40 39  1  0
 40 44  1  0
 41 40  2  0
 42 37  2  0
 42 41  1  0
 43 42  1  0
 45 46  1  0
 46 49  1  0
 46 48  1  0
 47 45  2  0
 50 25  1  0
 50 51  1  0
 52 50  1  0
 53 54  1  0
 55 66  2  0
 56 54  1  0
 56 61  1  0
 57 65  1  0
 57 67  1  0
 58 64  1  0
 58 60  1  0
 59 65  1  0
 60 59  1  0
 61 60  2  0
 62 63  1  0
 62 56  2  0
 63 58  2  0
 64 57  1  0
 65 55  1  0
 67 69  2  0
 68 67  1  0
 70 68  1  0
 71 80  2  0
 71 76  1  0
 72 68  1  0
 72 76  1  0
 73 72  1  0
 74 75  1  0
 74 73  1  0
 75 71  1  0
 76 77  2  0
 77 78  1  0
 79 78  2  0
 80 79  1  0
 81 55  1  0
 81 86  1  0
 81 82  1  0
 82 85  1  1
 82 83  1  0
 84 82  1  0
 86 89  1  0
 87 91  1  0
 87 86  1  0
 88 87  2  0
 91 90  1  0
 93 91  1  0
 93 94  1  0
 93 92  1  0
M  ISO  4  15 100  23 100  53 101  54 101
M  END
>  <TORSDO>  (31) 
F 19

>  <SCORE>  (31) 
-13.595

>  <name>  (31) 
30

>  <ligand_id>  (31) 
30

>  <original_smiles>  (31) 
[H]c1c([H])c([H])c2c(c1[H])C([H])([H])C([H])([H])C([H])([H])C2([H])N([H])C(=O)C1([H])N(C(=O)C([H])(N([H])C(=O)C([H])(N([H])C([H])([H])[H])C([H])([H])[H])C(C([H])([H])[H])(C([H])([H])[H])C([H])([H])[H])C([H])([H])c2c([H])c(OC([H])([H])C3([H])C([H])([H])N(c4c([H])c([H])c(C([H])([H])N([H])C(=O)N5C([H])([H])C([H])([H])C([H])([H])C([H])(n6nc(-c7c([H])c([H])c(Oc8c([H])c([H])c(F)c([H])c8F)c([H])c7[H])c(C(=O)N([H])[H])c6N([H])[H])C5([H])[H])c([H])c4[H])C(=O)C([H])([H])C3([H])[H])c([H])c([H])c2C1([H])[H]

>  <smiles>  (31) 
[H]c1c([H])c([H])c2c(c1[H])C([H])([H])C([H])([H])C([H])([H])C2([H])N([H])C(=O)C1([H])N(C(=O)C([H])(N([H])C(=O)C([H])(N([H])C([H])([H])[H])C([H])([H])[H])C(C([H])([H])[H])(C([H])([H])[H])C([H])([H])[H])C([H])([H])c2c([H])c(OC([H])([H])C3([H])C([H])([H])N(c4c([H])c([H])c(C([H])([H])N([H])C(=O)N5C([H])([H])C([H])([H])C([H])([H])C([H])(n6nc(-c7c([H])c([H])c(Oc8c([H])c([H])c(F)c([H])c8F)c([H])c7[H])c(C(=O)N([H])[H])c6N([H])[H])C5([H])[H])c([H])c4[H])C(=O)C([H])([H])C3([H])[H])c([H])c([H])c2C1([H])[H]

$$$$
31:0:0
     RDKit          3D

 93101  0  0  1  0  0  0  0  0999 V2000
  -29.8980  -23.2210   20.0220 C   0  0  0  0  0  0  0  0  0  0  0  0
  -29.4650  -22.2650   20.8680 N   0  0  0  0  0  0  0  0  0  0  0  0
  -30.4730  -22.9860   18.9570 O   0  0  0  0  0  0  0  0  0  0  0  0
  -29.0290  -22.6120   21.7120 H   0  0  0  0  0  0  0  0  0  0  0  0
  -30.0430  -18.6850   19.7730 C   0  0  0  0  0  3  0  0  0  0  0  0
  -29.5780  -20.0210   19.7490 C   0  0  0  0  0  3  0  0  0  0  0  0
  -30.3160  -20.3060   22.0410 C   0  0  0  0  0  3  0  0  0  0  0  0
  -30.7090  -18.1620   20.9080 C   0  0  0  0  0  0  0  0  0  0  0  0
  -30.7610  -18.9640   22.0780 C   0  0  0  0  0  0  0  0  0  0  0  0
  -29.7820  -20.8710   20.8640 C   0  0  0  0  0  0  0  0  0  0  0  0
  -31.3140  -18.4400   23.3940 C   0  0  0  0  0  1  0  0  0  0  0  0
  -31.5150  -16.8500   20.7870 C   0  0  0  0  0  2  0  0  0  0  0  0
  -31.3980  -14.4930   19.9770 C   0  0  0  0  0  0  0  0  0  0  0  0
  -31.0040  -12.2290   19.0660 C   0  0  0  0  0  2  0  0  0  0  0  0
  -30.0650  -12.3390   17.8480 C   0  0  0  0  0  2  0  0  0  0  0  0
  -28.5900  -12.2940   18.3000 C   0  0  0  0  0  2  0  0  0  0  0  0
  -28.2900  -13.2570   19.4820 C   0  0  0  0  0  3  0  0  0  0  0  0
  -29.3530  -13.1350   20.5940 C   0  0  0  0  0  2  0  0  0  0  0  0
  -30.6720  -13.3380   19.9730 N   0  0  0  0  0  0  0  0  0  0  0  0
  -32.5140  -14.5640   19.4590 O   0  0  0  0  0  0  0  0  0  0  0  0
  -30.8060  -15.5900   20.4990 N   0  0  0  0  0  0  0  0  0  0  0  0
  -29.8640  -15.4950   20.8480 H   0  0  0  0  0  0  0  0  0  0  0  0
  -25.9600  -14.0080   20.2770 C   0  0  0  0  0  0  0  0  0  0  0  0
  -24.8570  -13.3030   20.6780 C   0  0  0  0  0  0  0  0  0  0  0  0
  -25.2260  -11.9240   20.6200 C   0  0  0  0  0  0  0  0  0  0  0  0
  -26.9380  -13.0630   20.0030 N   0  0  0  0  0  0  0  0  0  0  0  0
  -26.5000  -11.8050   20.2640 N   0  0  0  0  0  0  0  0  0  0  0  0
  -24.4240  -10.7120   20.8320 C   0  0  0  0  0  0  0  0  0  0  0  0
  -24.7920   -9.7340   21.7800 C   0  0  0  0  0  3  0  0  0  0  0  0
  -23.9900   -8.5880   21.9760 C   0  0  0  0  0  3  0  0  0  0  0  0
  -22.8060   -8.4120   21.2190 C   0  0  0  0  0  0  0  0  0  0  0  0
  -22.4560   -9.3810   20.2600 C   0  0  0  0  0  3  0  0  0  0  0  0
  -23.2600  -10.5160   20.0620 C   0  0  0  0  0  3  0  0  0  0  0  0
  -21.9840   -7.3150   21.3160 O   0  0  0  0  0  0  0  0  0  0  0  0
  -21.8300   -6.6370   22.4980 C   0  0  0  0  0  0  0  0  0  0  0  0
  -21.3880   -7.2820   23.6740 C   0  0  0  0  0  3  0  0  0  0  0  0
  -21.1720   -6.5340   24.8500 C   0  0  0  0  0  3  0  0  0  0  0  0
  -21.3950   -5.1440   24.8490 C   0  0  0  0  0  0  0  0  0  0  0  0
  -21.8370   -4.5010   23.6800 C   0  0  0  0  0  3  0  0  0  0  0  0
  -22.0500   -5.2450   22.5070 C   0  0  0  0  0  0  0  0  0  0  0  0
  -22.4520   -4.6190   21.3750 F   0  0  0  0  0  0  0  0  0  0  0  0
  -21.1850   -4.4240   25.9760 F   0  0  0  0  0  0  0  0  0  0  0  0
  -23.5060  -13.8710   21.0060 C   0  0  0  0  0  0  0  0  0  0  0  0
  -22.7660  -13.2320   21.9040 N   0  0  0  0  0  0  0  0  0  0  0  0
  -23.1160  -14.9230   20.4990 O   0  0  0  0  0  0  0  0  0  0  0  0
  -23.0960  -12.3880   22.3460 H   0  0  0  0  0  0  0  0  0  0  0  0
  -21.8620  -13.6030   22.1650 H   0  0  0  0  0  0  0  0  0  0  0  0
  -26.2070  -15.3650   20.1050 N   0  0  0  0  0  0  0  0  0  0  0  0
  -25.4850  -16.0660   20.2380 H   0  0  0  0  0  0  0  0  0  0  0  0
  -27.0760  -15.7620   19.7690 H   0  0  0  0  0  0  0  0  0  0  0  0
  -29.6960  -24.6860   20.4550 C   0  0  0  0  0  2  0  0  0  0  0  0
  -28.5470  -25.4160   19.7360 C   0  0  0  0  0  2  0  0  0  0  0  0
  -28.4820  -26.7620   20.2350 O   0  0  0  0  0  0  0  0  0  0  0  0
  -24.6400  -31.9000   23.3180 C   0  0  0  0  0  0  0  0  0  0  0  0
  -27.2870  -27.4560   20.2170 C   0  0  0  0  0  0  0  0  0  0  0  0
  -23.4380  -30.5130   21.6600 C   0  0  0  0  0  3  0  0  0  0  0  0
  -24.8950  -28.9740   20.2380 C   0  0  0  0  0  0  0  0  0  0  0  0
  -25.9700  -30.8450   21.5000 C   0  0  0  0  0  2  0  0  0  0  0  0
  -26.0500  -29.4810   20.8440 C   0  0  0  0  0  0  0  0  0  0  0  0
  -27.2410  -28.7240   20.8420 C   0  0  0  0  0  3  0  0  0  0  0  0
  -26.1110  -26.9670   19.5980 C   0  0  0  0  0  3  0  0  0  0  0  0
  -24.9180  -27.7130   19.6210 C   0  0  0  0  0  3  0  0  0  0  0  0
  -23.6550  -29.8350   20.2790 C   0  0  0  0  0  2  0  0  0  0  0  0
  -24.6990  -31.1000   22.2180 N   0  0  0  0  0  0  0  0  0  0  0  0
  -23.5560  -32.1810   23.8490 O   0  0  0  0  0  0  0  0  0  0  0  0
  -22.7710  -29.4910   22.6090 C   0  0  0  0  0  0  0  0  0  0  0  0
  -21.4560  -29.2880   22.4420 N   0  0  0  0  0  0  0  0  0  0  0  0
  -23.4380  -28.8830   23.4510 O   0  0  0  0  0  0  0  0  0  0  0  0
  -20.9770  -29.8300   21.7370 H   0  0  0  0  0  0  0  0  0  0  0  0
  -18.0940  -28.0290   22.8060 C   0  0  0  0  0  0  0  0  0  0  0  0
  -20.6270  -28.3490   23.1960 C   0  0  0  0  0  3  0  0  0  0  0  0
  -20.7880  -26.9090   22.6550 C   0  0  0  0  0  2  0  0  0  0  0  0
  -19.7460  -26.5430   21.5950 C   0  0  0  0  0  2  0  0  0  0  0  0
  -18.3320  -26.6710   22.1720 C   0  0  0  0  0  2  0  0  0  0  0  0
  -19.1720  -28.8270   23.2730 C   0  0  0  0  0  0  0  0  0  0  0  0
  -18.9000  -30.0970   23.8200 C   0  0  0  0  0  3  0  0  0  0  0  0
  -17.5770  -30.5760   23.9080 C   0  0  0  0  0  3  0  0  0  0  0  0
  -16.5120  -29.7750   23.4620 C   0  0  0  0  0  3  0  0  0  0  0  0
  -16.7690  -28.5040   22.9190 C   0  0  0  0  0  3  0  0  0  0  0  0
  -25.9260  -32.5180   23.9490 C   0  0  0  0  0  3  0  0  0  0  0  0
  -26.4130  -31.7550   25.2420 C   0  0  1  0  0  0  0  0  0  0  0  0
  -25.2990  -31.5460   26.2960 C   0  0  0  0  0  1  0  0  0  0  0  0
  -26.9790  -30.3650   24.8740 C   0  0  0  0  0  1  0  0  0  0  0  0
  -27.5680  -32.5380   25.9090 C   0  0  0  0  0  1  0  0  0  0  0  0
  -25.6360  -33.9240   24.2550 N   0  0  0  0  0  0  0  0  0  0  0  0
  -25.9870  -34.9590   23.4800 C   0  0  0  0  0  0  0  0  0  0  0  0
  -26.6550  -34.8300   22.4490 O   0  0  0  0  0  0  0  0  0  0  0  0
  -25.0350  -34.1010   25.0470 H   0  0  0  0  0  0  0  0  0  0  0  0
  -24.2670  -36.7540   23.1200 C   0  0  0  0  0  1  0  0  0  0  0  0
  -25.5210  -36.3610   23.9150 C   0  0  0  0  0  3  0  0  0  0  0  0
  -27.6810  -37.2410   24.6810 C   0  0  0  0  0  1  0  0  0  0  0  0
  -26.5600  -37.4030   23.7590 N   0  0  0  0  0  0  0  0  0  0  0  0
  -26.1650  -38.3280   23.9050 H   0  0  0  0  0  0  0  0  0  0  0  0
  1 51  1  0
  1  2  1  0
  2  4  1  0
  3  1  2  0
  5  8  1  0
  6  5  2  0
  6 10  1  0
  7  9  1  0
  8  9  2  0
  9 11  1  0
 10  2  1  0
 10  7  2  0
 12  8  1  0
 13 21  1  0
 14 19  1  0
 15 16  1  0
 15 14  1  0
 17 16  1  0
 17 26  1  0
 17 18  1  0
 19 13  1  0
 19 18  1  0
 20 13  2  0
 21 12  1  0
 21 22  1  0
 23 24  2  0
 24 43  1  0
 25 24  1  0
 25 28  1  0
 26 27  1  0
 26 23  1  0
 27 25  2  0
 28 29  1  0
 29 30  2  0
 31 34  1  0
 31 30  1  0
 32 31  2  0
 33 32  1  0
 33 28  2  0
 34 35  1  0
 35 40  2  0
 35 36  1  0
 36 37  2  0
 38 37  1  0
 38 42  1  0
 39 38  2  0
 40 39  1  0
 41 40  1  0
 43 44  1  0
 44 47  1  0
 44 46  1  0
 45 43  2  0
 48 49  1  0
 48 23  1  0
 50 48  1  0
 52 53  1  0
 52 51  1  0
 54 65  2  0
 55 53  1  0
 55 60  1  0
 56 64  1  0
 56 66  1  0
 57 63  1  0
 57 59  1  0
 58 64  1  0
 59 58  1  0
 60 59  2  0
 61 62  1  0
 61 55  2  0
 62 57  2  0
 63 56  1  0
 64 54  1  0
 66 68  2  0
 67 66  1  0
 69 67  1  0
 70 79  2  0
 70 75  1  0
 71 67  1  0
 71 75  1  0
 72 71  1  0
 73 74  1  0
 73 72  1  0
 74 70  1  0
 75 76  2  0
 76 77  1  0
 78 77  2  0
 79 78  1  0
 80 54  1  0
 80 85  1  0
 80 81  1  0
 81 84  1  1
 81 82  1  0
 83 81  1  0
 85 88  1  0
 86 90  1  0
 86 85  1  0
 87 86  2  0
 90 89  1  0
 92 93  1  0
 92 90  1  0
 92 91  1  0
M  ISO  4  13 100  21 100  52 101  53 101
M  END
>  <TORSDO>  (32) 
F 20

>  <SCORE>  (32) 
-12.869

>  <name>  (32) 
31

>  <ligand_id>  (32) 
31

>  <original_smiles>  (32) 
[H]c1c([H])c([H])c2c(c1[H])C([H])([H])C([H])([H])C([H])([H])C2([H])N([H])C(=O)C1([H])N(C(=O)C([H])(N([H])C(=O)C([H])(N([H])C([H])([H])[H])C([H])([H])[H])C(C([H])([H])[H])(C([H])([H])[H])C([H])([H])[H])C([H])([H])c2c([H])c(OC([H])([H])C([H])([H])C(=O)N([H])c3c([H])c([H])c(C([H])([H])N([H])C(=O)N4C([H])([H])C([H])([H])C([H])([H])C([H])(n5nc(-c6c([H])c([H])c(Oc7c([H])c([H])c(F)c([H])c7F)c([H])c6[H])c(C(=O)N([H])[H])c5N([H])[H])C4([H])[H])c(C([H])([H])[H])c3[H])c([H])c([H])c2C1([H])[H]

>  <smiles>  (32) 
[H]c1c([H])c([H])c2c(c1[H])C([H])([H])C([H])([H])C([H])([H])C2([H])N([H])C(=O)C1([H])N(C(=O)C([H])(N([H])C(=O)C([H])(N([H])C([H])([H])[H])C([H])([H])[H])C(C([H])([H])[H])(C([H])([H])[H])C([H])([H])[H])C([H])([H])c2c([H])c(OC([H])([H])C([H])([H])C(=O)N([H])c3c([H])c([H])c(C([H])([H])N([H])C(=O)N4C([H])([H])C([H])([H])C([H])([H])C([H])(n5nc(-c6c([H])c([H])c(Oc7c([H])c([H])c(F)c([H])c7F)c([H])c6[H])c(C(=O)N([H])[H])c5N([H])[H])C4([H])[H])c(C([H])([H])[H])c3[H])c([H])c([H])c2C1([H])[H]

$$$$
32:0:0
     RDKit          3D

 97105  0  0  1  0  0  0  0  0999 V2000
  -29.9130  -19.6520   21.6390 C   0  0  0  0  0  3  0  0  0  0  0  0
  -29.0260  -20.7440   21.6490 C   0  0  0  0  0  3  0  0  0  0  0  0
  -29.2420  -19.1170   19.3610 C   0  0  0  0  0  3  0  0  0  0  0  0
  -30.0360  -18.8370   20.4930 C   0  0  0  0  0  0  0  0  0  0  0  0
  -28.2620  -21.0520   20.4990 C   0  0  0  0  0  0  0  0  0  0  0  0
  -28.3560  -20.2130   19.3650 C   0  0  0  0  0  0  0  0  0  0  0  0
  -27.5670  -20.4790   18.2440 N   0  0  0  0  0  0  0  0  0  0  0  0
  -27.4880  -19.7240   17.5710 H   0  0  0  0  0  0  0  0  0  0  0  0
  -26.6530  -20.8590   18.4600 H   0  0  0  0  0  0  0  0  0  0  0  0
  -32.4810  -18.3130   20.3510 C   0  0  0  0  0  1  0  0  0  0  0  0
  -31.0690  -17.7150   20.4460 C   0  0  0  0  0  3  0  0  0  0  0  0
  -30.9550  -16.7110   21.6300 C   0  0  0  0  0  2  0  0  0  0  0  0
  -30.8560  -14.5490   20.4160 C   0  0  0  0  0  0  0  0  0  0  0  0
  -30.4650  -12.4820   19.1380 C   0  0  0  0  0  2  0  0  0  0  0  0
  -29.4980  -12.7480   17.9680 C   0  0  0  0  0  2  0  0  0  0  0  0
  -28.0340  -12.6070   18.4280 C   0  0  0  0  0  2  0  0  0  0  0  0
  -27.7370  -13.4020   19.7270 C   0  0  0  0  0  3  0  0  0  0  0  0
  -28.8120  -13.1190   20.8010 C   0  0  0  0  0  2  0  0  0  0  0  0
  -30.1320  -13.4180   20.2200 N   0  0  0  0  0  0  0  0  0  0  0  0
  -31.9190  -14.7810   19.8330 O   0  0  0  0  0  0  0  0  0  0  0  0
  -30.3230  -15.4450   21.2580 N   0  0  0  0  0  0  0  0  0  0  0  0
  -29.4410  -15.2130   21.6890 H   0  0  0  0  0  0  0  0  0  0  0  0
  -25.3510  -14.0020   20.4840 C   0  0  0  0  0  0  0  0  0  0  0  0
  -24.2880  -13.2250   20.8630 C   0  0  0  0  0  0  0  0  0  0  0  0
  -24.7490  -11.8740   20.8080 C   0  0  0  0  0  0  0  0  0  0  0  0
  -26.3910  -13.1240   20.2260 N   0  0  0  0  0  0  0  0  0  0  0  0
  -26.0320  -11.8380   20.4760 N   0  0  0  0  0  0  0  0  0  0  0  0
  -24.0260  -10.6100   20.9960 C   0  0  0  0  0  0  0  0  0  0  0  0
  -24.4600   -9.6440   21.9300 C   0  0  0  0  0  3  0  0  0  0  0  0
  -23.7390   -8.4440   22.1070 C   0  0  0  0  0  3  0  0  0  0  0  0
  -22.5700   -8.2000   21.3480 C   0  0  0  0  0  0  0  0  0  0  0  0
  -22.1540   -9.1550   20.4030 C   0  0  0  0  0  3  0  0  0  0  0  0
  -22.8760  -10.3470   20.2250 C   0  0  0  0  0  3  0  0  0  0  0  0
  -21.8210   -7.0520   21.4330 O   0  0  0  0  0  0  0  0  0  0  0  0
  -21.7530   -6.3200   22.5910 C   0  0  0  0  0  0  0  0  0  0  0  0
  -21.2830   -6.8800   23.8000 C   0  0  0  0  0  3  0  0  0  0  0  0
  -21.1660   -6.0730   24.9490 C   0  0  0  0  0  3  0  0  0  0  0  0
  -21.5060   -4.7090   24.8920 C   0  0  0  0  0  0  0  0  0  0  0  0
  -21.9690   -4.1490   23.6880 C   0  0  0  0  0  3  0  0  0  0  0  0
  -22.0890   -4.9530   22.5400 C   0  0  0  0  0  0  0  0  0  0  0  0
  -22.5150   -4.4040   21.3770 F   0  0  0  0  0  0  0  0  0  0  0  0
  -21.3860   -3.9320   25.9930 F   0  0  0  0  0  0  0  0  0  0  0  0
  -22.8960  -13.6990   21.1680 C   0  0  0  0  0  0  0  0  0  0  0  0
  -22.1870  -12.9940   22.0420 N   0  0  0  0  0  0  0  0  0  0  0  0
  -22.4470  -14.7280   20.6650 O   0  0  0  0  0  0  0  0  0  0  0  0
  -22.5630  -12.1620   22.4710 H   0  0  0  0  0  0  0  0  0  0  0  0
  -21.2520  -13.2930   22.2850 H   0  0  0  0  0  0  0  0  0  0  0  0
  -25.5130  -15.3750   20.3210 N   0  0  0  0  0  0  0  0  0  0  0  0
  -24.7500  -16.0300   20.4540 H   0  0  0  0  0  0  0  0  0  0  0  0
  -26.3640  -15.8180   20.0000 H   0  0  0  0  0  0  0  0  0  0  0  0
  -27.4130  -22.1650   20.4100 N   0  0  0  0  0  0  0  0  0  0  0  0
  -27.2460  -22.3770   19.4270 H   0  0  0  0  0  0  0  0  0  0  0  0
  -27.7390  -23.3790   21.1680 C   0  0  0  0  0  2  0  0  0  0  0  0
  -28.2780  -24.5150   20.2890 C   0  0  0  0  0  0  0  0  0  0  0  0
  -28.4180  -24.3720   19.0690 O   0  0  0  0  0  0  0  0  0  0  0  0
  -28.6270  -25.8290   21.0060 C   0  0  0  0  0  2  0  0  0  0  0  0
  -28.5920  -26.9510   20.1210 O   0  0  0  0  0  0  0  0  0  0  0  0
  -24.6040  -31.9510   23.2400 C   0  0  0  0  0  0  0  0  0  0  0  0
  -27.4050  -27.6390   20.1390 C   0  0  0  0  0  0  0  0  0  0  0  0
  -23.4620  -30.5540   21.5470 C   0  0  0  0  0  3  0  0  0  0  0  0
  -24.9760  -29.0690   20.1330 C   0  0  0  0  0  0  0  0  0  0  0  0
  -25.9810  -30.9720   21.4090 C   0  0  0  0  0  2  0  0  0  0  0  0
  -26.1080  -29.6140   20.7550 C   0  0  0  0  0  0  0  0  0  0  0  0
  -27.3270  -28.9030   20.7570 C   0  0  0  0  0  3  0  0  0  0  0  0
  -26.2610  -27.1000   19.5150 C   0  0  0  0  0  3  0  0  0  0  0  0
  -25.0460  -27.8080   19.5140 C   0  0  0  0  0  3  0  0  0  0  0  0
  -23.7140  -29.8980   20.1630 C   0  0  0  0  0  2  0  0  0  0  0  0
  -24.6980  -31.1730   22.1240 N   0  0  0  0  0  0  0  0  0  0  0  0
  -23.5080  -32.1920   23.7610 O   0  0  0  0  0  0  0  0  0  0  0  0
  -22.8130  -29.5030   22.4770 C   0  0  0  0  0  0  0  0  0  0  0  0
  -21.4910  -29.3140   22.3320 N   0  0  0  0  0  0  0  0  0  0  0  0
  -23.4940  -28.8620   23.2810 O   0  0  0  0  0  0  0  0  0  0  0  0
  -21.0030  -29.8840   21.6550 H   0  0  0  0  0  0  0  0  0  0  0  0
  -18.1150  -28.1140   22.7920 C   0  0  0  0  0  0  0  0  0  0  0  0
  -20.6730  -28.3520   23.0700 C   0  0  0  0  0  3  0  0  0  0  0  0
  -20.7710  -26.9430   22.4420 C   0  0  0  0  0  2  0  0  0  0  0  0
  -19.6650  -26.6600   21.4190 C   0  0  0  0  0  2  0  0  0  0  0  0
  -18.2850  -26.7890   22.0690 C   0  0  0  0  0  2  0  0  0  0  0  0
  -19.2370  -28.8560   23.2480 C   0  0  0  0  0  0  0  0  0  0  0  0
  -19.0250  -30.1000   23.8810 C   0  0  0  0  0  3  0  0  0  0  0  0
  -17.7220  -30.6010   24.0650 C   0  0  0  0  0  3  0  0  0  0  0  0
  -16.6140  -29.8550   23.6260 C   0  0  0  0  0  3  0  0  0  0  0  0
  -16.8110  -28.6140   22.9960 C   0  0  0  0  0  3  0  0  0  0  0  0
  -25.8650  -32.5940   23.8980 C   0  0  0  0  0  3  0  0  0  0  0  0
  -25.5380  -33.9900   24.2120 N   0  0  0  0  0  0  0  0  0  0  0  0
  -25.8840  -35.0410   23.4570 C   0  0  0  0  0  0  0  0  0  0  0  0
  -26.5860  -34.9390   22.4470 O   0  0  0  0  0  0  0  0  0  0  0  0
  -24.9180  -34.1430   24.9940 H   0  0  0  0  0  0  0  0  0  0  0  0
  -24.1530  -36.8170   23.0360 C   0  0  0  0  0  1  0  0  0  0  0  0
  -25.3700  -36.4270   23.8910 C   0  0  0  0  0  3  0  0  0  0  0  0
  -27.4640  -37.3350   24.7950 C   0  0  0  0  0  1  0  0  0  0  0  0
  -26.3970  -37.4880   23.8090 N   0  0  0  0  0  0  0  0  0  0  0  0
  -25.9780  -38.4070   23.9320 H   0  0  0  0  0  0  0  0  0  0  0  0
  -26.3510  -31.8280   25.1890 C   0  0  1  0  0  0  0  0  0  0  0  0
  -25.2290  -31.5770   26.2230 C   0  0  0  0  0  1  0  0  0  0  0  0
  -26.9620  -30.4580   24.8110 C   0  0  0  0  0  1  0  0  0  0  0  0
  -27.4730  -32.6360   25.8850 C   0  0  0  0  0  1  0  0  0  0  0  0
  1  2  1  0
  3  6  2  0
  3  4  1  0
  4  1  2  0
  5  2  2  0
  6  5  1  0
  7  9  1  0
  7  6  1  0
  8  7  1  0
 11 10  1  0
 11  4  1  0
 11 12  1  0
 13 21  1  0
 14 19  1  0
 15 16  1  0
 15 14  1  0
 17 16  1  0
 17 26  1  0
 17 18  1  0
 19 13  1  0
 19 18  1  0
 20 13  2  0
 21 12  1  0
 21 22  1  0
 23 24  2  0
 24 43  1  0
 25 24  1  0
 25 28  1  0
 26 27  1  0
 26 23  1  0
 27 25  2  0
 28 29  1  0
 29 30  2  0
 31 34  1  0
 31 30  1  0
 32 31  2  0
 33 32  1  0
 33 28  2  0
 34 35  1  0
 35 36  1  0
 36 37  2  0
 38 37  1  0
 38 42  1  0
 39 38  2  0
 40 35  2  0
 40 39  1  0
 41 40  1  0
 43 44  1  0
 44 47  1  0
 44 46  1  0
 45 43  2  0
 48 49  1  0
 48 23  1  0
 50 48  1  0
 51  5  1  0
 51 53  1  0
 52 51  1  0
 54 56  1  0
 54 53  1  0
 55 54  2  0
 57 59  1  0
 57 56  1  0
 58 69  2  0
 59 64  1  0
 60 68  1  0
 60 70  1  0
 61 67  1  0
 61 63  1  0
 62 68  1  0
 63 64  2  0
 63 62  1  0
 65 59  2  0
 66 65  1  0
 66 61  2  0
 67 60  1  0
 68 58  1  0
 70 72  2  0
 71 70  1  0
 73 71  1  0
 74 83  2  0
 74 79  1  0
 75 71  1  0
 75 79  1  0
 76 75  1  0
 77 78  1  0
 77 76  1  0
 78 74  1  0
 79 80  2  0
 80 81  1  0
 82 81  2  0
 83 82  1  0
 84 58  1  0
 84 85  1  0
 84 94  1  0
 85 88  1  0
 86 90  1  0
 86 85  1  0
 87 86  2  0
 90 89  1  0
 92 90  1  0
 92 93  1  0
 92 91  1  0
 94 97  1  1
 94 95  1  0
 96 94  1  0
M  ISO  4  13 100  21 100  56 101  57 101
M  END
>  <TORSDO>  (33) 
F 23

>  <SCORE>  (33) 
-13.139

>  <name>  (33) 
32

>  <ligand_id>  (33) 
32

>  <original_smiles>  (33) 
[H]c1c([H])c([H])c2c(c1[H])C([H])([H])C([H])([H])C([H])([H])C2([H])N([H])C(=O)C1([H])N(C(=O)C([H])(N([H])C(=O)C([H])(N([H])C([H])([H])[H])C([H])([H])[H])C(C([H])([H])[H])(C([H])([H])[H])C([H])([H])[H])C([H])([H])c2c([H])c(OC([H])([H])C(=O)C([H])([H])N([H])c3c([H])c([H])c(C([H])(C([H])([H])[H])C([H])([H])N([H])C(=O)N4C([H])([H])C([H])([H])C([H])([H])C([H])(n5nc(-c6c([H])c([H])c(Oc7c([H])c([H])c(F)c([H])c7F)c([H])c6[H])c(C(=O)N([H])[H])c5N([H])[H])C4([H])[H])c([H])c3N([H])[H])c([H])c([H])c2C1([H])[H]

>  <smiles>  (33) 
[H]c1c([H])c([H])c2c(c1[H])C([H])([H])C([H])([H])C([H])([H])C2([H])N([H])C(=O)C1([H])N(C(=O)C([H])(N([H])C(=O)C([H])(N([H])C([H])([H])[H])C([H])([H])[H])C(C([H])([H])[H])(C([H])([H])[H])C([H])([H])[H])C([H])([H])c2c([H])c(OC([H])([H])C(=O)C([H])([H])N([H])c3c([H])c([H])c(C([H])(C([H])([H])[H])C([H])([H])N([H])C(=O)N4C([H])([H])C([H])([H])C([H])([H])C([H])(n5nc(-c6c([H])c([H])c(Oc7c([H])c([H])c(F)c([H])c7F)c([H])c6[H])c(C(=O)N([H])[H])c5N([H])[H])C4([H])[H])c([H])c3N([H])[H])c([H])c([H])c2C1([H])[H]

$$$$
33:0:0
     RDKit          3D

 93101  0  0  1  0  0  0  0  0999 V2000
  -30.1950  -17.8980   19.6300 C   0  0  0  0  0  3  0  0  0  0  0  0
  -30.1020  -19.3370   19.5420 C   0  0  0  0  0  3  0  0  0  0  0  0
  -30.6020  -18.0940   21.9720 C   0  0  0  0  0  3  0  0  0  0  0  0
  -30.4480  -17.2080   20.8580 C   0  0  0  0  0  0  0  0  0  0  0  0
  -30.5560  -19.5120   21.8800 C   0  0  0  0  0  0  0  0  0  0  0  0
  -30.2820  -20.1880   20.6720 C   0  0  0  0  0  0  0  0  0  0  0  0
  -30.9350  -14.7670   20.1120 C   0  0  0  0  0  0  0  0  0  0  0  0
  -30.5700  -12.5750   18.9440 C   0  0  0  0  0  2  0  0  0  0  0  0
  -29.5900  -12.6960   17.7580 C   0  0  0  0  0  2  0  0  0  0  0  0
  -28.1410  -12.5100   18.2380 C   0  0  0  0  0  2  0  0  0  0  0  0
  -27.8250  -13.3880   19.4720 C   0  0  0  0  0  3  0  0  0  0  0  0
  -28.9100  -13.2580   20.5570 C   0  0  0  0  0  2  0  0  0  0  0  0
  -30.2190  -13.5940   19.9660 N   0  0  0  0  0  0  0  0  0  0  0  0
  -31.9650  -14.9420   19.4520 O   0  0  0  0  0  0  0  0  0  0  0  0
  -30.5370  -15.7190   21.0420 N   0  0  0  0  0  0  0  0  0  0  0  0
  -25.4660  -13.9960   20.2840 C   0  0  0  0  0  0  0  0  0  0  0  0
  -24.4120  -13.2290   20.6970 C   0  0  0  0  0  0  0  0  0  0  0  0
  -24.8630  -11.8750   20.6410 C   0  0  0  0  0  0  0  0  0  0  0  0
  -26.4960  -13.1100   20.0080 N   0  0  0  0  0  0  0  0  0  0  0  0
  -26.1410  -11.8290   20.2860 N   0  0  0  0  0  0  0  0  0  0  0  0
  -24.1320  -10.6160   20.8460 C   0  0  0  0  0  0  0  0  0  0  0  0
  -24.5430   -9.6700   21.8120 C   0  0  0  0  0  3  0  0  0  0  0  0
  -23.8100   -8.4780   22.0030 C   0  0  0  0  0  3  0  0  0  0  0  0
  -22.6530   -8.2220   21.2280 C   0  0  0  0  0  0  0  0  0  0  0  0
  -22.2640   -9.1580   20.2530 C   0  0  0  0  0  3  0  0  0  0  0  0
  -22.9960  -10.3380   20.0580 C   0  0  0  0  0  3  0  0  0  0  0  0
  -21.8940   -7.0800   21.3290 O   0  0  0  0  0  0  0  0  0  0  0  0
  -21.7510   -6.4130   22.5210 C   0  0  0  0  0  0  0  0  0  0  0  0
  -21.2140   -7.0400   23.6660 C   0  0  0  0  0  3  0  0  0  0  0  0
  -21.0180   -6.2970   24.8490 C   0  0  0  0  0  3  0  0  0  0  0  0
  -21.3510   -4.9310   24.8860 C   0  0  0  0  0  0  0  0  0  0  0  0
  -21.8820   -4.3030   23.7450 C   0  0  0  0  0  3  0  0  0  0  0  0
  -22.0790   -5.0430   22.5650 C   0  0  0  0  0  0  0  0  0  0  0  0
  -22.5670   -4.4270   21.4610 F   0  0  0  0  0  0  0  0  0  0  0  0
  -21.1590   -4.2170   26.0190 F   0  0  0  0  0  0  0  0  0  0  0  0
  -23.0280  -13.7120   21.0260 C   0  0  0  0  0  0  0  0  0  0  0  0
  -22.3330  -13.0240   21.9240 N   0  0  0  0  0  0  0  0  0  0  0  0
  -22.5760  -14.7380   20.5170 O   0  0  0  0  0  0  0  0  0  0  0  0
  -22.7110  -12.1960   22.3610 H   0  0  0  0  0  0  0  0  0  0  0  0
  -21.4010  -13.3240   22.1810 H   0  0  0  0  0  0  0  0  0  0  0  0
  -25.6260  -15.3650   20.0870 N   0  0  0  0  0  0  0  0  0  0  0  0
  -24.8430  -16.0080   20.1440 H   0  0  0  0  0  0  0  0  0  0  0  0
  -26.4430  -15.7840   19.6560 H   0  0  0  0  0  0  0  0  0  0  0  0
  -32.0370  -15.5490   23.0490 C   0  0  0  0  0  1  0  0  0  0  0  0
  -30.6560  -15.2390   22.4400 C   0  0  0  0  0  2  0  0  0  0  0  0
  -30.8040  -20.2870   23.0100 N   0  0  0  0  0  0  0  0  0  0  0  0
  -30.6220  -21.2770   22.8850 H   0  0  0  0  0  0  0  0  0  0  0  0
  -30.4800  -19.9390   23.9070 H   0  0  0  0  0  0  0  0  0  0  0  0
  -30.3460  -21.6070   20.6900 O   0  0  0  0  0  0  0  0  0  0  0  0
  -29.3930  -22.5030   20.0220 C   0  0  0  0  0  2  0  0  0  0  0  0
  -29.5070  -24.0490   20.4500 C   0  0  0  0  0  3  0  0  0  0  0  0
  -28.4870  -25.1220   19.8390 C   0  0  0  0  0  3  0  0  0  0  0  0
  -28.5790  -26.5600   20.2420 O   0  0  0  0  0  0  0  0  0  0  0  0
  -24.5950  -31.7270   23.3430 C   0  0  0  0  0  0  0  0  0  0  0  0
  -27.4410  -27.3890   20.1600 C   0  0  0  0  0  0  0  0  0  0  0  0
  -23.4880  -30.3860   21.5900 C   0  0  0  0  0  3  0  0  0  0  0  0
  -25.0330  -28.9500   20.1380 C   0  0  0  0  0  0  0  0  0  0  0  0
  -26.0210  -30.7800   21.5140 C   0  0  0  0  0  2  0  0  0  0  0  0
  -26.1650  -29.4350   20.8030 C   0  0  0  0  0  0  0  0  0  0  0  0
  -27.3670  -28.6650   20.8110 C   0  0  0  0  0  3  0  0  0  0  0  0
  -26.2910  -26.9770   19.4470 C   0  0  0  0  0  3  0  0  0  0  0  0
  -25.0970  -27.7270   19.4530 C   0  0  0  0  0  3  0  0  0  0  0  0
  -23.7730  -29.7930   20.1860 C   0  0  0  0  0  2  0  0  0  0  0  0
  -24.7180  -30.9790   22.2080 N   0  0  0  0  0  0  0  0  0  0  0  0
  -23.4870  -31.9510   23.8500 O   0  0  0  0  0  0  0  0  0  0  0  0
  -22.8190  -29.3030   22.4680 C   0  0  0  0  0  0  0  0  0  0  0  0
  -21.5070  -29.0910   22.2740 N   0  0  0  0  0  0  0  0  0  0  0  0
  -23.4820  -28.6610   23.2870 O   0  0  0  0  0  0  0  0  0  0  0  0
  -21.0290  -29.6670   21.5940 H   0  0  0  0  0  0  0  0  0  0  0  0
  -18.1570  -27.7640   22.5590 C   0  0  0  0  0  0  0  0  0  0  0  0
  -20.6890  -28.0920   22.9610 C   0  0  0  0  0  3  0  0  0  0  0  0
  -20.8660  -26.6920   22.3270 C   0  0  0  0  0  2  0  0  0  0  0  0
  -19.8230  -26.3790   21.2500 C   0  0  0  0  0  2  0  0  0  0  0  0
  -18.4090  -26.4530   21.8340 C   0  0  0  0  0  2  0  0  0  0  0  0
  -19.2270  -28.5400   23.0740 C   0  0  0  0  0  0  0  0  0  0  0  0
  -18.9410  -29.7680   23.7090 C   0  0  0  0  0  3  0  0  0  0  0  0
  -17.6160  -30.2230   23.8330 C   0  0  0  0  0  3  0  0  0  0  0  0
  -16.5570  -29.4420   23.3350 C   0  0  0  0  0  3  0  0  0  0  0  0
  -16.8270  -28.2140   22.7060 C   0  0  0  0  0  3  0  0  0  0  0  0
  -25.8370  -32.3590   24.0450 C   0  0  0  0  0  3  0  0  0  0  0  0
  -25.4990  -33.7480   24.3840 N   0  0  0  0  0  0  0  0  0  0  0  0
  -25.8390  -34.8150   23.6490 C   0  0  0  0  0  0  0  0  0  0  0  0
  -26.5390  -34.7340   22.6350 O   0  0  0  0  0  0  0  0  0  0  0  0
  -24.8780  -33.8860   25.1680 H   0  0  0  0  0  0  0  0  0  0  0  0
  -24.0840  -36.5780   23.2850 C   0  0  0  0  0  1  0  0  0  0  0  0
  -25.3220  -36.1910   24.1110 C   0  0  0  0  0  3  0  0  0  0  0  0
  -27.4270  -37.1080   24.9810 C   0  0  0  0  0  1  0  0  0  0  0  0
  -26.3380  -37.2610   24.0200 N   0  0  0  0  0  0  0  0  0  0  0  0
  -25.9150  -38.1730   24.1660 H   0  0  0  0  0  0  0  0  0  0  0  0
  -26.2960  -31.5620   25.3270 C   0  0  1  0  0  0  0  0  0  0  0  0
  -25.1500  -31.2830   26.3260 C   0  0  0  0  0  1  0  0  0  0  0  0
  -26.9160  -30.2020   24.9310 C   0  0  0  0  0  1  0  0  0  0  0  0
  -27.4010  -32.3530   26.0660 C   0  0  0  0  0  1  0  0  0  0  0  0
  1  4  1  0
  2  1  2  0
  2  6  1  0
  4 15  1  0
  4  3  2  0
  5  3  1  0
  5 46  1  0
  6 49  1  0
  6  5  2  0
  7 15  1  0
  8 13  1  0
  9 10  1  0
  9  8  1  0
 11 10  1  0
 11 19  1  0
 11 12  1  0
 13  7  1  0
 13 12  1  0
 14  7  2  0
 15 45  1  0
 16 17  2  0
 17 36  1  0
 18 17  1  0
 18 21  1  0
 19 16  1  0
 19 20  1  0
 20 18  2  0
 21 22  1  0
 22 23  2  0
 24 27  1  0
 24 23  1  0
 25 24  2  0
 26 25  1  0
 26 21  2  0
 27 28  1  0
 28 33  2  0
 28 29  1  0
 29 30  2  0
 30 31  1  0
 31 35  1  0
 32 31  2  0
 33 32  1  0
 34 33  1  0
 36 37  1  0
 37 40  1  0
 37 39  1  0
 38 36  2  0
 41 42  1  0
 41 16  1  0
 43 41  1  0
 45 44  1  0
 46 48  1  0
 47 46  1  0
 50 51  1  0
 50 49  1  0
 52 53  1  0
 52 51  2  0
 54 65  2  0
 55 53  1  0
 55 60  1  0
 56 64  1  0
 56 66  1  0
 57 63  1  0
 57 59  1  0
 58 64  1  0
 59 60  2  0
 59 58  1  0
 61 62  1  0
 61 55  2  0
 62 57  2  0
 63 56  1  0
 64 54  1  0
 66 68  2  0
 67 66  1  0
 69 67  1  0
 70 79  2  0
 70 75  1  0
 71 67  1  0
 71 75  1  0
 72 71  1  0
 73 74  1  0
 73 72  1  0
 74 70  1  0
 75 76  2  0
 76 77  1  0
 78 77  2  0
 79 78  1  0
 80 54  1  0
 80 81  1  0
 80 90  1  0
 81 84  1  0
 82 86  1  0
 82 81  1  0
 83 82  2  0
 86 85  1  0
 88 86  1  0
 88 89  1  0
 88 87  1  0
 90 93  1  1
 90 91  1  0
 92 90  1  0
M  ISO  4   7 100  15 100  52 101  53 101
M  END
>  <TORSDO>  (34) 
F 22

>  <SCORE>  (34) 
-9.355

>  <name>  (34) 
33

>  <ligand_id>  (34) 
33

>  <original_smiles>  (34) 
[H]c1c([H])c([H])c2c(c1[H])C([H])([H])C([H])([H])C([H])([H])C2([H])N([H])C(=O)C1([H])N(C(=O)C([H])(N([H])C(=O)C([H])(N([H])C([H])([H])[H])C([H])([H])[H])C(C([H])([H])[H])(C([H])([H])[H])C([H])([H])[H])C([H])([H])c2c([H])c(OC([H])([H])C([H])([H])C([H])([H])Oc3c([H])c([H])c(N(C(=O)N4C([H])([H])C([H])([H])C([H])([H])C([H])(n5nc(-c6c([H])c([H])c(Oc7c([H])c([H])c(F)c([H])c7F)c([H])c6[H])c(C(=O)N([H])[H])c5N([H])[H])C4([H])[H])C([H])([H])C([H])([H])[H])c([H])c3N([H])[H])c([H])c([H])c2C1([H])[H]

>  <smiles>  (34) 
[H]c1c([H])c([H])c2c(c1[H])C([H])([H])C([H])([H])C([H])([H])C2([H])N([H])C(=O)C1([H])N(C(=O)C([H])(N([H])C(=O)C([H])(N([H])C([H])([H])[H])C([H])([H])[H])C(C([H])([H])[H])(C([H])([H])[H])C([H])([H])[H])C([H])([H])c2c([H])c(OC([H])([H])C([H])([H])C([H])([H])Oc3c([H])c([H])c(N(C(=O)N4C([H])([H])C([H])([H])C([H])([H])C([H])(n5nc(-c6c([H])c([H])c(Oc7c([H])c([H])c(F)c([H])c7F)c([H])c6[H])c(C(=O)N([H])[H])c5N([H])[H])C4([H])[H])C([H])([H])C([H])([H])[H])c([H])c3N([H])[H])c([H])c([H])c2C1([H])[H]

$$$$
34:0:0
     RDKit          3D

 94102  0  0  1  0  0  0  0  0999 V2000
  -27.4110  -20.7900   21.8220 O   0  0  0  0  0  0  0  0  0  0  0  0
  -29.9270  -20.9730   22.0400 O   0  0  0  0  0  0  0  0  0  0  0  0
  -28.7390  -20.7870   21.1910 S   0  0  1  0  0  0  0  0  0  0  0  0
  -28.6560  -17.8630   18.2430 C   0  0  0  0  0  3  0  0  0  0  0  0
  -29.4120  -16.8290   18.8270 C   0  0  0  0  0  3  0  0  0  0  0  0
  -29.6590  -18.1630   20.8420 C   0  0  0  0  0  3  0  0  0  0  0  0
  -28.3970  -19.0580   18.9440 C   0  0  0  0  0  0  0  0  0  0  0  0
  -29.8880  -16.9420   20.1530 C   0  0  0  0  0  0  0  0  0  0  0  0
  -28.9460  -19.2350   20.2420 C   0  0  0  0  0  0  0  0  0  0  0  0
  -27.5080  -20.0950   18.2810 C   0  0  0  0  0  1  0  0  0  0  0  0
  -31.1900  -14.8240   20.2120 C   0  0  0  0  0  0  0  0  0  0  0  0
  -30.8660  -12.6270   19.1220 C   0  0  0  0  0  2  0  0  0  0  0  0
  -29.9130  -12.7360   17.9130 C   0  0  0  0  0  2  0  0  0  0  0  0
  -28.4450  -12.6100   18.3640 C   0  0  0  0  0  2  0  0  0  0  0  0
  -28.1070  -13.5180   19.5740 C   0  0  0  0  0  3  0  0  0  0  0  0
  -29.1690  -13.3830   20.6870 C   0  0  0  0  0  2  0  0  0  0  0  0
  -30.4830  -13.6660   20.0920 N   0  0  0  0  0  0  0  0  0  0  0  0
  -32.3180  -14.9660   19.7340 O   0  0  0  0  0  0  0  0  0  0  0  0
  -30.5790  -15.8670   20.8130 N   0  0  0  0  0  0  0  0  0  0  0  0
  -31.0940  -16.1780   21.6230 H   0  0  0  0  0  0  0  0  0  0  0  0
  -25.7350  -14.1910   20.2950 C   0  0  0  0  0  0  0  0  0  0  0  0
  -24.6500  -13.4450   20.6670 C   0  0  0  0  0  0  0  0  0  0  0  0
  -25.0800  -12.0830   20.6400 C   0  0  0  0  0  0  0  0  0  0  0  0
  -26.7560  -13.2810   20.0660 N   0  0  0  0  0  0  0  0  0  0  0  0
  -26.3680  -12.0090   20.3340 N   0  0  0  0  0  0  0  0  0  0  0  0
  -24.3290  -10.8380   20.8360 C   0  0  0  0  0  0  0  0  0  0  0  0
  -24.6820   -9.9130   21.8430 C   0  0  0  0  0  3  0  0  0  0  0  0
  -23.9350   -8.7290   22.0240 C   0  0  0  0  0  3  0  0  0  0  0  0
  -22.8190   -8.4620   21.1940 C   0  0  0  0  0  0  0  0  0  0  0  0
  -22.4860   -9.3740   20.1770 C   0  0  0  0  0  3  0  0  0  0  0  0
  -23.2340  -10.5490   19.9950 C   0  0  0  0  0  3  0  0  0  0  0  0
  -22.0500   -7.3270   21.2800 O   0  0  0  0  0  0  0  0  0  0  0  0
  -21.8300   -6.6970   22.4790 C   0  0  0  0  0  0  0  0  0  0  0  0
  -21.2120   -7.3540   23.5650 C   0  0  0  0  0  3  0  0  0  0  0  0
  -20.9410   -6.6480   24.7530 C   0  0  0  0  0  3  0  0  0  0  0  0
  -21.2790   -5.2850   24.8550 C   0  0  0  0  0  0  0  0  0  0  0  0
  -21.8890   -4.6270   23.7720 C   0  0  0  0  0  3  0  0  0  0  0  0
  -22.1620   -5.3320   22.5870 C   0  0  0  0  0  0  0  0  0  0  0  0
  -22.7300   -4.6880   21.5390 F   0  0  0  0  0  0  0  0  0  0  0  0
  -21.0110   -4.6030   25.9930 F   0  0  0  0  0  0  0  0  0  0  0  0
  -23.2640  -13.9540   20.9380 C   0  0  0  0  0  0  0  0  0  0  0  0
  -22.5240  -13.2850   21.8170 N   0  0  0  0  0  0  0  0  0  0  0  0
  -22.8440  -14.9800   20.4060 O   0  0  0  0  0  0  0  0  0  0  0  0
  -22.8760  -12.4550   22.2710 H   0  0  0  0  0  0  0  0  0  0  0  0
  -21.5940  -13.6090   22.0380 H   0  0  0  0  0  0  0  0  0  0  0  0
  -25.9310  -15.5570   20.1120 N   0  0  0  0  0  0  0  0  0  0  0  0
  -25.1810  -16.2310   20.2180 H   0  0  0  0  0  0  0  0  0  0  0  0
  -26.8040  -15.9760   19.8150 H   0  0  0  0  0  0  0  0  0  0  0  0
  -28.7500  -22.1240   20.0660 N   0  0  0  0  0  0  0  0  0  0  0  0
  -27.9330  -22.0630   19.4520 H   0  0  0  0  0  0  0  0  0  0  0  0
  -28.9930  -23.5020   20.5820 C   0  0  0  0  0  2  0  0  0  0  0  0
  -27.9790  -24.5920   20.0850 C   0  0  0  0  0  2  0  0  0  0  0  0
  -28.4800  -25.6500   19.0440 C   0  0  0  0  0  2  0  0  0  0  0  0
  -28.3930  -27.0210   19.4970 O   0  0  0  0  0  0  0  0  0  0  0  0
  -24.5230  -31.7840   23.1200 C   0  0  0  0  0  0  0  0  0  0  0  0
  -27.1760  -27.6830   19.5790 C   0  0  0  0  0  0  0  0  0  0  0  0
  -23.2880  -30.4730   21.4200 C   0  0  0  0  0  3  0  0  0  0  0  0
  -24.7290  -29.1010   19.8170 C   0  0  0  0  0  0  0  0  0  0  0  0
  -25.7890  -30.9310   21.1490 C   0  0  0  0  0  2  0  0  0  0  0  0
  -25.8900  -29.6170   20.4000 C   0  0  0  0  0  0  0  0  0  0  0  0
  -27.1140  -28.9140   20.2800 C   0  0  0  0  0  3  0  0  0  0  0  0
  -25.9910  -27.1840   18.9920 C   0  0  0  0  0  3  0  0  0  0  0  0
  -24.7780  -27.8900   19.1050 C   0  0  0  0  0  3  0  0  0  0  0  0
  -23.4580  -29.9040   19.9840 C   0  0  0  0  0  2  0  0  0  0  0  0
  -24.5520  -31.0780   21.9530 N   0  0  0  0  0  0  0  0  0  0  0  0
  -23.4620  -31.9740   23.7300 O   0  0  0  0  0  0  0  0  0  0  0  0
  -22.7090  -29.3640   22.3280 C   0  0  0  0  0  0  0  0  0  0  0  0
  -21.3930  -29.1140   22.2140 N   0  0  0  0  0  0  0  0  0  0  0  0
  -23.4400  -28.7300   23.0920 O   0  0  0  0  0  0  0  0  0  0  0  0
  -20.8610  -29.6810   21.5690 H   0  0  0  0  0  0  0  0  0  0  0  0
  -18.1170  -27.6500   22.6340 C   0  0  0  0  0  0  0  0  0  0  0  0
  -20.6480  -28.0800   22.9350 C   0  0  0  0  0  3  0  0  0  0  0  0
  -20.8550  -26.6920   22.2800 C   0  0  0  0  0  2  0  0  0  0  0  0
  -19.7830  -26.3510   21.2440 C   0  0  0  0  0  2  0  0  0  0  0  0
  -18.3930  -26.3560   21.8890 C   0  0  0  0  0  2  0  0  0  0  0  0
  -19.1760  -28.4690   23.1110 C   0  0  0  0  0  0  0  0  0  0  0  0
  -18.8670  -29.6790   23.7660 C   0  0  0  0  0  3  0  0  0  0  0  0
  -17.5310  -30.0790   23.9490 C   0  0  0  0  0  3  0  0  0  0  0  0
  -16.4850  -29.2590   23.4870 C   0  0  0  0  0  3  0  0  0  0  0  0
  -16.7790  -28.0460   22.8360 C   0  0  0  0  0  3  0  0  0  0  0  0
  -25.8160  -32.4070   23.7320 C   0  0  0  0  0  3  0  0  0  0  0  0
  -25.5010  -33.7870   24.1270 N   0  0  0  0  0  0  0  0  0  0  0  0
  -25.8050  -34.8740   23.4050 C   0  0  0  0  0  0  0  0  0  0  0  0
  -26.4530  -34.8210   22.3560 O   0  0  0  0  0  0  0  0  0  0  0  0
  -24.9220  -33.9010   24.9460 H   0  0  0  0  0  0  0  0  0  0  0  0
  -24.0450  -36.6560   23.1660 C   0  0  0  0  0  1  0  0  0  0  0  0
  -25.3120  -36.2360   23.9290 C   0  0  0  0  0  3  0  0  0  0  0  0
  -27.4530  -37.1210   24.7460 C   0  0  0  0  0  1  0  0  0  0  0  0
  -26.3280  -37.3080   23.8320 N   0  0  0  0  0  0  0  0  0  0  0  0
  -25.9130  -38.2160   24.0210 H   0  0  0  0  0  0  0  0  0  0  0  0
  -26.3810  -31.5930   24.9600 C   0  0  1  0  0  0  0  0  0  0  0  0
  -25.3210  -31.2920   26.0440 C   0  0  0  0  0  1  0  0  0  0  0  0
  -26.9760  -30.2420   24.4970 C   0  0  0  0  0  1  0  0  0  0  0  0
  -27.5370  -32.3780   25.6260 C   0  0  0  0  0  1  0  0  0  0  0  0
  3  1  2  0
  3  2  2  0
  4  5  2  0
  4  7  1  0
  5  8  1  0
  7  9  2  0
  8 19  1  0
  8  6  2  0
  9  6  1  0
  9  3  1  0
 10  7  1  0
 11 19  1  0
 12 17  1  0
 13 14  1  0
 13 12  1  0
 15 14  1  0
 15 24  1  0
 15 16  1  0
 17 11  1  0
 17 16  1  0
 18 11  2  0
 19 20  1  0
 21 22  2  0
 22 41  1  0
 23 22  1  0
 23 26  1  0
 24 21  1  0
 24 25  1  0
 25 23  2  0
 26 27  1  0
 27 28  2  0
 29 32  1  0
 29 28  1  0
 30 29  2  0
 31 30  1  0
 31 26  2  0
 32 33  1  0
 33 38  2  0
 33 34  1  0
 34 35  2  0
 35 36  1  0
 36 40  1  0
 37 36  2  0
 38 37  1  0
 39 38  1  0
 41 42  1  0
 42 45  1  0
 42 44  1  0
 43 41  2  0
 46 47  1  0
 46 21  1  0
 48 46  1  0
 49 51  1  0
  3 49  1  6
 50 49  1  0
 52 51  1  0
 53 54  1  0
 53 52  1  0
 54 56  1  0
 55 66  2  0
 56 61  1  0
 57 65  1  0
 57 67  1  0
 58 64  1  0
 58 60  1  0
 59 65  1  0
 60 59  1  0
 61 60  2  0
 62 63  1  0
 62 56  2  0
 63 58  2  0
 64 57  1  0
 65 55  1  0
 67 69  2  0
 68 67  1  0
 70 68  1  0
 71 80  2  0
 71 76  1  0
 72 68  1  0
 72 76  1  0
 73 72  1  0
 74 75  1  0
 74 73  1  0
 75 71  1  0
 76 77  2  0
 77 78  1  0
 79 78  2  0
 80 79  1  0
 81 55  1  0
 81 82  1  0
 81 91  1  0
 82 85  1  0
 83 87  1  0
 83 82  1  0
 84 83  2  0
 87 86  1  0
 89 87  1  0
 89 90  1  0
 89 88  1  0
 91 94  1  1
 91 92  1  0
 93 91  1  0
M  ISO  4  11 100  19 100  53 101  54 101
M  END
>  <TORSDO>  (35) 
F 21

>  <SCORE>  (35) 
-11.493

>  <name>  (35) 
34

>  <ligand_id>  (35) 
34

>  <original_smiles>  (35) 
[H]c1c([H])c([H])c2c(c1[H])C([H])([H])C([H])([H])C([H])([H])C2([H])N([H])C(=O)C1([H])N(C(=O)C([H])(N([H])C(=O)C([H])(N([H])C([H])([H])[H])C([H])([H])[H])C(C([H])([H])[H])(C([H])([H])[H])C([H])([H])[H])C([H])([H])c2c([H])c(OC([H])([H])C([H])([H])C([H])([H])N([H])S(=O)(=O)c3c([H])c(N([H])C(=O)N4C([H])([H])C([H])([H])C([H])([H])C([H])(n5nc(-c6c([H])c([H])c(Oc7c([H])c([H])c(F)c([H])c7F)c([H])c6[H])c(C(=O)N([H])[H])c5N([H])[H])C4([H])[H])c([H])c([H])c3C([H])([H])[H])c([H])c([H])c2C1([H])[H]

>  <smiles>  (35) 
[H]c1c([H])c([H])c2c(c1[H])C([H])([H])C([H])([H])C([H])([H])C2([H])N([H])C(=O)C1([H])N(C(=O)C([H])(N([H])C(=O)C([H])(N([H])C([H])([H])[H])C([H])([H])[H])C(C([H])([H])[H])(C([H])([H])[H])C([H])([H])[H])C([H])([H])c2c([H])c(OC([H])([H])C([H])([H])C([H])([H])N([H])S(=O)(=O)c3c([H])c(N([H])C(=O)N4C([H])([H])C([H])([H])C([H])([H])C([H])(n5nc(-c6c([H])c([H])c(Oc7c([H])c([H])c(F)c([H])c7F)c([H])c6[H])c(C(=O)N([H])[H])c5N([H])[H])C4([H])[H])c([H])c([H])c3C([H])([H])[H])c([H])c([H])c2C1([H])[H]

$$$$
35:0:0
     RDKit          3D

 95103  0  0  1  0  0  0  0  0999 V2000
  -30.8890  -20.1720   20.4850 C   0  0  0  0  0  3  0  0  0  0  0  0
  -28.5140  -20.0770   19.9740 C   0  0  0  0  0  3  0  0  0  0  0  0
  -30.9880  -18.7760   20.3270 C   0  0  0  0  0  0  0  0  0  0  0  0
  -29.8500  -18.0280   19.9290 C   0  0  0  0  0  0  0  0  0  0  0  0
  -29.6740  -20.8400   20.2490 C   0  0  0  0  0  0  0  0  0  0  0  0
  -28.5920  -18.6700   19.8060 C   0  0  0  0  0  0  0  0  0  0  0  0
  -32.3450  -18.1200   20.5240 C   0  0  0  0  0  1  0  0  0  0  0  0
  -28.9480  -23.1240   19.5770 C   0  0  0  0  0  0  0  0  0  0  0  0
  -29.6870  -22.2610   20.2970 N   0  0  0  0  0  0  0  0  0  0  0  0
  -28.0070  -22.7940   18.8500 O   0  0  0  0  0  0  0  0  0  0  0  0
  -30.4510  -22.6760   20.8130 H   0  0  0  0  0  0  0  0  0  0  0  0
  -29.3280  -24.6040   19.6660 C   0  0  0  0  0  2  0  0  0  0  0  0
  -28.3670  -25.3970   20.5620 C   0  0  0  0  0  2  0  0  0  0  0  0
  -28.4400  -26.7860   20.2260 O   0  0  0  0  0  0  0  0  0  0  0  0
  -24.5910  -31.9270   23.2390 C   0  0  0  0  0  0  0  0  0  0  0  0
  -27.2520  -27.4790   20.2140 C   0  0  0  0  0  0  0  0  0  0  0  0
  -23.3910  -30.5110   21.6030 C   0  0  0  0  0  3  0  0  0  0  0  0
  -24.8510  -28.9640   20.2000 C   0  0  0  0  0  0  0  0  0  0  0  0
  -25.9150  -30.8750   21.4110 C   0  0  0  0  0  2  0  0  0  0  0  0
  -26.0030  -29.4990   20.7870 C   0  0  0  0  0  0  0  0  0  0  0  0
  -27.2080  -28.7650   20.7920 C   0  0  0  0  0  3  0  0  0  0  0  0
  -26.0880  -26.9560   19.6080 C   0  0  0  0  0  3  0  0  0  0  0  0
  -24.8870  -27.6890   19.6080 C   0  0  0  0  0  3  0  0  0  0  0  0
  -23.6060  -29.8180   20.2310 C   0  0  0  0  0  2  0  0  0  0  0  0
  -24.6500  -31.1200   22.1430 N   0  0  0  0  0  0  0  0  0  0  0  0
  -23.5080  -32.2040   23.7720 O   0  0  0  0  0  0  0  0  0  0  0  0
  -22.7400  -29.4970   22.5700 C   0  0  0  0  0  0  0  0  0  0  0  0
  -21.4160  -29.3140   22.4400 N   0  0  0  0  0  0  0  0  0  0  0  0
  -23.4210  -28.8770   23.3910 O   0  0  0  0  0  0  0  0  0  0  0  0
  -20.9290  -29.8650   21.7470 H   0  0  0  0  0  0  0  0  0  0  0  0
  -18.0380  -28.1360   22.9350 C   0  0  0  0  0  0  0  0  0  0  0  0
  -20.5960  -28.3840   23.2140 C   0  0  0  0  0  3  0  0  0  0  0  0
  -20.6960  -26.9490   22.6470 C   0  0  0  0  0  2  0  0  0  0  0  0
  -19.5950  -26.6240   21.6320 C   0  0  0  0  0  2  0  0  0  0  0  0
  -18.2120  -26.7800   22.2700 C   0  0  0  0  0  2  0  0  0  0  0  0
  -19.1590  -28.8950   23.3640 C   0  0  0  0  0  0  0  0  0  0  0  0
  -18.9440  -30.1640   23.9440 C   0  0  0  0  0  3  0  0  0  0  0  0
  -17.6410  -30.6730   24.1010 C   0  0  0  0  0  3  0  0  0  0  0  0
  -16.5350  -29.9100   23.6900 C   0  0  0  0  0  3  0  0  0  0  0  0
  -16.7340  -28.6430   23.1120 C   0  0  0  0  0  3  0  0  0  0  0  0
  -25.8760  -32.5630   23.8570 C   0  0  0  0  0  3  0  0  0  0  0  0
  -25.5660  -33.9620   24.1800 N   0  0  0  0  0  0  0  0  0  0  0  0
  -25.9030  -35.0100   23.4170 C   0  0  0  0  0  0  0  0  0  0  0  0
  -26.5800  -34.9030   22.3910 O   0  0  0  0  0  0  0  0  0  0  0  0
  -24.9680  -34.1200   24.9770 H   0  0  0  0  0  0  0  0  0  0  0  0
  -24.1800  -36.7990   23.0340 C   0  0  0  0  0  1  0  0  0  0  0  0
  -25.4100  -36.4000   23.8630 C   0  0  0  0  0  3  0  0  0  0  0  0
  -27.5340  -37.2850   24.7170 C   0  0  0  0  0  1  0  0  0  0  0  0
  -26.4440  -37.4520   23.7600 N   0  0  0  0  0  0  0  0  0  0  0  0
  -26.0370  -38.3730   23.9020 H   0  0  0  0  0  0  0  0  0  0  0  0
  -26.3970  -31.7970   25.1340 C   0  0  1  0  0  0  0  0  0  0  0  0
  -25.3040  -31.5590   26.2030 C   0  0  0  0  0  1  0  0  0  0  0  0
  -26.9830  -30.4200   24.7430 C   0  0  0  0  0  1  0  0  0  0  0  0
  -27.5450  -32.5950   25.7940 C   0  0  0  0  0  1  0  0  0  0  0  0
  -26.2440  -18.5190   19.2880 C   0  0  0  0  0  1  0  0  0  0  0  0
  -27.5020  -17.8850   19.4820 O   0  0  0  0  0  0  0  0  0  0  0  0
  -30.0010  -16.5800   19.4740 C   0  0  0  0  0  2  0  0  0  0  0  0
  -30.6830  -14.4570   20.4320 C   0  0  0  0  0  0  0  0  0  0  0  0
  -30.3680  -12.2920   19.3530 C   0  0  0  0  0  2  0  0  0  0  0  0
  -29.4390  -12.5290   18.1420 C   0  0  0  0  0  2  0  0  0  0  0  0
  -27.9610  -12.4090   18.5600 C   0  0  0  0  0  2  0  0  0  0  0  0
  -27.6220  -13.2390   19.8280 C   0  0  0  0  0  3  0  0  0  0  0  0
  -28.6760  -13.0250   20.9430 C   0  0  0  0  0  2  0  0  0  0  0  0
  -30.0080  -13.2820   20.3760 N   0  0  0  0  0  0  0  0  0  0  0  0
  -31.8590  -14.5820   20.0870 O   0  0  0  0  0  0  0  0  0  0  0  0
  -29.8860  -15.5330   20.4960 N   0  0  0  0  0  0  0  0  0  0  0  0
  -28.9550  -15.3680   20.8440 H   0  0  0  0  0  0  0  0  0  0  0  0
  -25.2200  -13.8460   20.5230 C   0  0  0  0  0  0  0  0  0  0  0  0
  -24.1520  -13.0730   20.8890 C   0  0  0  0  0  0  0  0  0  0  0  0
  -24.6150  -11.7230   20.8680 C   0  0  0  0  0  0  0  0  0  0  0  0
  -26.2680  -12.9660   20.3020 N   0  0  0  0  0  0  0  0  0  0  0  0
  -25.9070  -11.6840   20.5680 N   0  0  0  0  0  0  0  0  0  0  0  0
  -23.8920  -10.4590   21.0610 C   0  0  0  0  0  0  0  0  0  0  0  0
  -24.3320   -9.4900   21.9890 C   0  0  0  0  0  3  0  0  0  0  0  0
  -23.6090   -8.2910   22.1690 C   0  0  0  0  0  3  0  0  0  0  0  0
  -22.4320   -8.0530   21.4200 C   0  0  0  0  0  0  0  0  0  0  0  0
  -22.0120   -9.0100   20.4800 C   0  0  0  0  0  3  0  0  0  0  0  0
  -22.7360  -10.2000   20.2980 C   0  0  0  0  0  3  0  0  0  0  0  0
  -21.6800   -6.9070   21.5090 O   0  0  0  0  0  0  0  0  0  0  0  0
  -21.6500   -6.1540   22.6560 C   0  0  0  0  0  0  0  0  0  0  0  0
  -21.2480   -6.6980   23.8950 C   0  0  0  0  0  3  0  0  0  0  0  0
  -21.1650   -5.8720   25.0340 C   0  0  0  0  0  3  0  0  0  0  0  0
  -21.4720   -4.5010   24.9340 C   0  0  0  0  0  0  0  0  0  0  0  0
  -21.8680   -3.9570   23.7000 C   0  0  0  0  0  3  0  0  0  0  0  0
  -21.9540   -4.7800   22.5630 C   0  0  0  0  0  0  0  0  0  0  0  0
  -22.3140   -4.2450   21.3720 F   0  0  0  0  0  0  0  0  0  0  0  0
  -21.3850   -3.7050   26.0240 F   0  0  0  0  0  0  0  0  0  0  0  0
  -22.7520  -13.5480   21.1510 C   0  0  0  0  0  0  0  0  0  0  0  0
  -22.0200  -12.8520   22.0160 N   0  0  0  0  0  0  0  0  0  0  0  0
  -22.3130  -14.5690   20.6240 O   0  0  0  0  0  0  0  0  0  0  0  0
  -22.3880  -12.0260   22.4640 H   0  0  0  0  0  0  0  0  0  0  0  0
  -21.0810  -13.1520   22.2340 H   0  0  0  0  0  0  0  0  0  0  0  0
  -25.3810  -15.2160   20.3420 N   0  0  0  0  0  0  0  0  0  0  0  0
  -24.6110  -15.8650   20.4550 H   0  0  0  0  0  0  0  0  0  0  0  0
  -26.2310  -15.6640   20.0230 H   0  0  0  0  0  0  0  0  0  0  0  0
  2  5  1  0
  3  1  1  0
  3  7  1  0
  4  3  2  0
  5  9  1  0
  5  1  2  0
  6  4  1  0
  6  2  2  0
  8 12  1  0
  8  9  1  0
  9 11  1  0
 10  8  2  0
 12 13  1  0
 14 13  1  0
 15 26  2  0
 16 14  1  0
 16 21  1  0
 17 25  1  0
 17 27  1  0
 18 24  1  0
 18 20  1  0
 19 25  1  0
 20 21  2  0
 20 19  1  0
 22 16  2  0
 23 22  1  0
 23 18  2  0
 24 17  1  0
 25 15  1  0
 27 29  2  0
 28 27  1  0
 30 28  1  0
 31 40  2  0
 31 36  1  0
 32 28  1  0
 32 36  1  0
 33 32  1  0
 34 35  1  0
 34 33  1  0
 35 31  1  0
 36 37  2  0
 37 38  1  0
 39 38  2  0
 40 39  1  0
 41 15  1  0
 41 42  1  0
 41 51  1  0
 42 45  1  0
 43 47  1  0
 43 42  1  0
 44 43  2  0
 47 46  1  0
 49 47  1  0
 49 50  1  0
 49 48  1  0
 51 54  1  1
 51 52  1  0
 53 51  1  0
 55 56  1  0
 56  6  1  0
 57  4  1  0
 57 66  1  0
 58 66  1  0
 59 64  1  0
 60 61  1  0
 60 59  1  0
 62 61  1  0
 62 71  1  0
 62 63  1  0
 64 58  1  0
 64 63  1  0
 65 58  2  0
 66 67  1  0
 68 69  2  0
 69 88  1  0
 70 69  1  0
 70 73  1  0
 71 68  1  0
 71 72  1  0
 72 70  2  0
 73 74  1  0
 74 75  2  0
 76 79  1  0
 76 75  1  0
 77 76  2  0
 78 77  1  0
 78 73  2  0
 79 80  1  0
 80 81  1  0
 81 82  2  0
 83 82  1  0
 83 87  1  0
 84 83  2  0
 85 80  2  0
 85 84  1  0
 86 85  1  0
 88 89  1  0
 89 92  1  0
 89 91  1  0
 90 88  2  0
 93 94  1  0
 93 68  1  0
 95 93  1  0
M  ISO  4  13 101  14 101  58 100  66 100
M  END
>  <TORSDO>  (36) 
F 21

>  <SCORE>  (36) 
-13.548

>  <name>  (36) 
35

>  <ligand_id>  (36) 
35

>  <original_smiles>  (36) 
[H]c1c([H])c([H])c2c(c1[H])C([H])([H])C([H])([H])C([H])([H])C2([H])N([H])C(=O)C1([H])N(C(=O)C([H])(N([H])C(=O)C([H])(N([H])C([H])([H])[H])C([H])([H])[H])C(C([H])([H])[H])(C([H])([H])[H])C([H])([H])[H])C([H])([H])c2c([H])c(OC([H])([H])C([H])([H])C(=O)N([H])c3c([H])c(OC([H])([H])[H])c(C([H])([H])N([H])C(=O)N4C([H])([H])C([H])([H])C([H])([H])C([H])(n5nc(-c6c([H])c([H])c(Oc7c([H])c([H])c(F)c([H])c7F)c([H])c6[H])c(C(=O)N([H])[H])c5N([H])[H])C4([H])[H])c(C([H])([H])[H])c3[H])c([H])c([H])c2C1([H])[H]

>  <smiles>  (36) 
[H]c1c([H])c([H])c2c(c1[H])C([H])([H])C([H])([H])C([H])([H])C2([H])N([H])C(=O)C1([H])N(C(=O)C([H])(N([H])C(=O)C([H])(N([H])C([H])([H])[H])C([H])([H])[H])C(C([H])([H])[H])(C([H])([H])[H])C([H])([H])[H])C([H])([H])c2c([H])c(OC([H])([H])C([H])([H])C(=O)N([H])c3c([H])c(OC([H])([H])[H])c(C([H])([H])N([H])C(=O)N4C([H])([H])C([H])([H])C([H])([H])C([H])(n5nc(-c6c([H])c([H])c(Oc7c([H])c([H])c(F)c([H])c7F)c([H])c6[H])c(C(=O)N([H])[H])c5N([H])[H])C4([H])[H])c(C([H])([H])[H])c3[H])c([H])c([H])c2C1([H])[H]

$$$$
36:0:0
     RDKit          3D

 90 98  0  0  1  0  0  0  0  0999 V2000
  -27.1870  -19.0240   20.2670 C   0  0  0  0  0  3  0  0  0  0  0  0
  -28.1010  -17.9480   20.2910 C   0  0  0  0  0  3  0  0  0  0  0  0
  -27.6390  -20.3630   20.2820 C   0  0  0  0  0  3  0  0  0  0  0  0
  -29.9320  -19.5460   20.2910 C   0  0  0  0  0  3  0  0  0  0  0  0
  -29.4920  -18.1830   20.3180 C   0  0  0  0  0  0  0  0  0  0  0  0
  -29.0250  -20.6490   20.2880 C   0  0  0  0  0  0  0  0  0  0  0  0
  -30.5250  -17.0200   20.3920 C   0  0  0  0  0  2  0  0  0  0  0  0
  -30.7900  -14.5070   20.1790 C   0  0  0  0  0  0  0  0  0  0  0  0
  -30.4570  -12.2900   19.1300 C   0  0  0  0  0  2  0  0  0  0  0  0
  -29.4950  -12.4960   17.9420 C   0  0  0  0  0  2  0  0  0  0  0  0
  -28.0280  -12.3870   18.4100 C   0  0  0  0  0  2  0  0  0  0  0  0
  -27.7310  -13.2390   19.6770 C   0  0  0  0  0  3  0  0  0  0  0  0
  -28.8200  -13.0410   20.7540 C   0  0  0  0  0  2  0  0  0  0  0  0
  -30.1220  -13.3180   20.1320 N   0  0  0  0  0  0  0  0  0  0  0  0
  -31.9490  -14.6200   19.7730 O   0  0  0  0  0  0  0  0  0  0  0  0
  -30.0530  -15.6080   20.4880 N   0  0  0  0  0  0  0  0  0  0  0  0
  -29.1050  -15.4500   20.7820 H   0  0  0  0  0  0  0  0  0  0  0  0
  -25.3810  -13.8700   20.5190 C   0  0  0  0  0  0  0  0  0  0  0  0
  -24.3100  -13.1130   20.9050 C   0  0  0  0  0  0  0  0  0  0  0  0
  -24.7380  -11.7530   20.8090 C   0  0  0  0  0  0  0  0  0  0  0  0
  -26.3960  -12.9760   20.2090 N   0  0  0  0  0  0  0  0  0  0  0  0
  -26.0120  -11.6940   20.4420 N   0  0  0  0  0  0  0  0  0  0  0  0
  -23.9870  -10.5040   20.9810 C   0  0  0  0  0  0  0  0  0  0  0  0
  -24.3970   -9.5130   21.9010 C   0  0  0  0  0  3  0  0  0  0  0  0
  -23.6460   -8.3300   22.0660 C   0  0  0  0  0  3  0  0  0  0  0  0
  -22.4630   -8.1340   21.3130 C   0  0  0  0  0  0  0  0  0  0  0  0
  -22.0720   -9.1090   20.3790 C   0  0  0  0  0  3  0  0  0  0  0  0
  -22.8260  -10.2820   20.2120 C   0  0  0  0  0  3  0  0  0  0  0  0
  -21.6820   -7.0070   21.3900 O   0  0  0  0  0  0  0  0  0  0  0  0
  -21.5900   -6.2680   22.5420 C   0  0  0  0  0  0  0  0  0  0  0  0
  -21.1020   -6.8210   23.7460 C   0  0  0  0  0  3  0  0  0  0  0  0
  -20.9630   -6.0080   24.8890 C   0  0  0  0  0  3  0  0  0  0  0  0
  -21.2960   -4.6430   24.8260 C   0  0  0  0  0  0  0  0  0  0  0  0
  -21.7780   -4.0880   23.6270 C   0  0  0  0  0  3  0  0  0  0  0  0
  -21.9200   -4.8980   22.4880 C   0  0  0  0  0  0  0  0  0  0  0  0
  -22.3630   -4.3540   21.3280 F   0  0  0  0  0  0  0  0  0  0  0  0
  -21.1560   -3.8600   25.9220 F   0  0  0  0  0  0  0  0  0  0  0  0
  -22.9370  -13.6170   21.2410 C   0  0  0  0  0  0  0  0  0  0  0  0
  -22.2190  -12.9140   22.1090 N   0  0  0  0  0  0  0  0  0  0  0  0
  -22.5120  -14.6720   20.7760 O   0  0  0  0  0  0  0  0  0  0  0  0
  -22.5750  -12.0620   22.5190 H   0  0  0  0  0  0  0  0  0  0  0  0
  -21.3010  -13.2350   22.3780 H   0  0  0  0  0  0  0  0  0  0  0  0
  -25.5590  -15.2410   20.3790 N   0  0  0  0  0  0  0  0  0  0  0  0
  -24.8030  -15.8940   20.5490 H   0  0  0  0  0  0  0  0  0  0  0  0
  -26.3610  -15.6680   19.9380 H   0  0  0  0  0  0  0  0  0  0  0  0
  -29.5130  -21.9550   20.2380 O   0  0  0  0  0  0  0  0  0  0  0  0
  -28.9090  -22.9940   21.0560 C   0  0  0  0  0  2  0  0  0  0  0  0
  -27.9950  -24.0570   20.3500 C   0  0  0  0  0  2  0  0  0  0  0  0
  -28.6670  -25.2800   19.6340 C   0  0  0  0  0  2  0  0  0  0  0  0
  -28.5390  -26.5950   20.2510 O   0  0  0  0  0  0  0  0  0  0  0  0
  -24.5000  -31.7310   23.1840 C   0  0  0  0  0  0  0  0  0  0  0  0
  -27.3590  -27.3290   20.1660 C   0  0  0  0  0  0  0  0  0  0  0  0
  -23.3960  -30.3180   21.4840 C   0  0  0  0  0  3  0  0  0  0  0  0
  -24.9410  -28.8350   20.0900 C   0  0  0  0  0  0  0  0  0  0  0  0
  -25.9240  -30.7200   21.4000 C   0  0  0  0  0  2  0  0  0  0  0  0
  -26.0640  -29.3570   20.7380 C   0  0  0  0  0  0  0  0  0  0  0  0
  -27.2710  -28.6090   20.7750 C   0  0  0  0  0  3  0  0  0  0  0  0
  -26.2110  -26.8350   19.5060 C   0  0  0  0  0  3  0  0  0  0  0  0
  -25.0110  -27.5760   19.4690 C   0  0  0  0  0  3  0  0  0  0  0  0
  -23.6760  -29.6690   20.1020 C   0  0  0  0  0  2  0  0  0  0  0  0
  -24.6220  -30.9380   22.0820 N   0  0  0  0  0  0  0  0  0  0  0  0
  -23.3910  -31.9750   23.6790 O   0  0  0  0  0  0  0  0  0  0  0  0
  -22.7330  -29.2700   22.4060 C   0  0  0  0  0  0  0  0  0  0  0  0
  -21.4130  -29.0750   22.2420 N   0  0  0  0  0  0  0  0  0  0  0  0
  -23.4030  -28.6400   23.2270 O   0  0  0  0  0  0  0  0  0  0  0  0
  -20.9330  -29.6400   21.5550 H   0  0  0  0  0  0  0  0  0  0  0  0
  -18.0340  -27.8640   22.6690 C   0  0  0  0  0  0  0  0  0  0  0  0
  -20.5890  -28.1120   22.9730 C   0  0  0  0  0  3  0  0  0  0  0  0
  -20.6960  -26.7010   22.3500 C   0  0  0  0  0  2  0  0  0  0  0  0
  -19.6030  -26.4140   21.3140 C   0  0  0  0  0  2  0  0  0  0  0  0
  -18.2150  -26.5380   21.9500 C   0  0  0  0  0  2  0  0  0  0  0  0
  -19.1490  -28.6090   23.1360 C   0  0  0  0  0  0  0  0  0  0  0  0
  -18.9250  -29.8520   23.7670 C   0  0  0  0  0  3  0  0  0  0  0  0
  -17.6200  -30.3510   23.9340 C   0  0  0  0  0  3  0  0  0  0  0  0
  -16.5190  -29.5990   23.4840 C   0  0  0  0  0  3  0  0  0  0  0  0
  -16.7260  -28.3580   22.8590 C   0  0  0  0  0  3  0  0  0  0  0  0
  -25.7440  -32.3850   23.8630 C   0  0  0  0  0  3  0  0  0  0  0  0
  -25.3980  -33.7790   24.1730 N   0  0  0  0  0  0  0  0  0  0  0  0
  -25.7420  -34.8320   23.4240 C   0  0  0  0  0  0  0  0  0  0  0  0
  -26.4560  -34.7370   22.4220 O   0  0  0  0  0  0  0  0  0  0  0  0
  -24.7650  -33.9260   24.9470 H   0  0  0  0  0  0  0  0  0  0  0  0
  -24.0000  -36.5930   22.9820 C   0  0  0  0  0  1  0  0  0  0  0  0
  -25.2080  -36.2140   23.8520 C   0  0  0  0  0  3  0  0  0  0  0  0
  -27.2810  -37.1440   24.7840 C   0  0  0  0  0  1  0  0  0  0  0  0
  -26.2260  -37.2840   23.7850 N   0  0  0  0  0  0  0  0  0  0  0  0
  -25.7960  -38.1980   23.9000 H   0  0  0  0  0  0  0  0  0  0  0  0
  -26.2150  -31.6240   25.1630 C   0  0  1  0  0  0  0  0  0  0  0  0
  -25.0770  -31.3690   26.1820 C   0  0  0  0  0  1  0  0  0  0  0  0
  -26.8410  -30.2570   24.8000 C   0  0  0  0  0  1  0  0  0  0  0  0
  -27.3190  -32.4400   25.8740 C   0  0  0  0  0  1  0  0  0  0  0  0
  1  3  2  0
  1  2  1  0
  2  5  2  0
  3  6  1  0
  4  5  1  0
  5  7  1  0
  6  4  2  0
  7 16  1  0
  8 16  1  0
  9 14  1  0
 10 11  1  0
 10  9  1  0
 12 11  1  0
 12 21  1  0
 12 13  1  0
 14  8  1  0
 14 13  1  0
 15  8  2  0
 16 17  1  0
 18 19  2  0
 19 38  1  0
 20 19  1  0
 20 23  1  0
 21 22  1  0
 21 18  1  0
 22 20  2  0
 23 24  1  0
 24 25  2  0
 26 29  1  0
 26 25  1  0
 27 26  2  0
 28 27  1  0
 28 23  2  0
 29 30  1  0
 30 31  1  0
 31 32  2  0
 33 32  1  0
 33 37  1  0
 34 33  2  0
 35 30  2  0
 35 34  1  0
 36 35  1  0
 38 39  1  0
 39 42  1  0
 39 41  1  0
 40 38  2  0
 43 18  1  0
 43 44  1  0
 45 43  1  0
 46  6  1  0
 46 47  1  0
 48 47  1  0
 49 50  1  0
 49 48  1  0
 51 62  2  0
 52 50  1  0
 52 57  1  0
 53 61  1  0
 53 63  1  0
 54 60  1  0
 54 56  1  0
 55 61  1  0
 56 57  2  0
 56 55  1  0
 58 52  2  0
 59 58  1  0
 59 54  2  0
 60 53  1  0
 61 51  1  0
 63 65  2  0
 64 63  1  0
 66 64  1  0
 67 76  2  0
 67 72  1  0
 68 64  1  0
 68 72  1  0
 69 68  1  0
 70 71  1  0
 70 69  1  0
 71 67  1  0
 72 73  2  0
 73 74  1  0
 75 74  2  0
 76 75  1  0
 77 51  1  0
 77 78  1  0
 77 87  1  0
 78 81  1  0
 79 83  1  0
 79 78  1  0
 80 79  2  0
 83 82  1  0
 85 83  1  0
 85 86  1  0
 85 84  1  0
 87 90  1  1
 87 88  1  0
 89 87  1  0
M  ISO  4   8 100  16 100  49 101  50 101
M  END
>  <TORSDO>  (37) 
F 21

>  <SCORE>  (37) 
-12.935

>  <name>  (37) 
36

>  <ligand_id>  (37) 
36

>  <original_smiles>  (37) 
[H]c1c([H])c(OC([H])([H])C([H])([H])C([H])([H])Oc2c([H])c([H])c3c(c2[H])C([H])([H])N(C(=O)C([H])(N([H])C(=O)C([H])(N([H])C([H])([H])[H])C([H])([H])[H])C(C([H])([H])[H])(C([H])([H])[H])C([H])([H])[H])C([H])(C(=O)N([H])C2([H])c4c([H])c([H])c([H])c([H])c4C([H])([H])C([H])([H])C2([H])[H])C3([H])[H])c([H])c(C([H])([H])N([H])C(=O)N2C([H])([H])C([H])([H])C([H])([H])C([H])(n3nc(-c4c([H])c([H])c(Oc5c([H])c([H])c(F)c([H])c5F)c([H])c4[H])c(C(=O)N([H])[H])c3N([H])[H])C2([H])[H])c1[H]

>  <smiles>  (37) 
[H]c1c([H])c(OC([H])([H])C([H])([H])C([H])([H])Oc2c([H])c([H])c3c(c2[H])C([H])([H])N(C(=O)C([H])(N([H])C(=O)C([H])(N([H])C([H])([H])[H])C([H])([H])[H])C(C([H])([H])[H])(C([H])([H])[H])C([H])([H])[H])C([H])(C(=O)N([H])C2([H])c4c([H])c([H])c([H])c([H])c4C([H])([H])C([H])([H])C2([H])[H])C3([H])[H])c([H])c(C([H])([H])N([H])C(=O)N2C([H])([H])C([H])([H])C([H])([H])C([H])(n3nc(-c4c([H])c([H])c(Oc5c([H])c([H])c(F)c([H])c5F)c([H])c4[H])c(C(=O)N([H])[H])c3N([H])[H])C2([H])[H])c1[H]

$$$$
37:0:0
     RDKit          3D

 90 98  0  0  1  0  0  0  0  0999 V2000
  -30.1250  -21.8850   20.6180 N   0  0  0  0  0  0  0  0  0  0  0  0
  -31.0600  -22.2700   20.4940 H   0  0  0  0  0  0  0  0  0  0  0  0
  -29.0570  -18.3090   20.7730 C   0  0  0  0  0  3  0  0  0  0  0  0
  -28.8090  -19.7200   20.6520 C   0  0  0  0  0  3  0  0  0  0  0  0
  -30.3880  -17.9950   20.9040 C   0  0  0  0  0  0  0  0  0  0  0  0
  -29.9520  -20.4870   20.6740 C   0  0  0  0  0  0  0  0  0  0  0  0
  -31.3560  -19.4560   20.8290 S   0  0  0  0  0  0  0  0  0  0  0  0
  -31.0580  -16.6660   21.1830 C   0  0  0  0  0  2  0  0  0  0  0  0
  -30.8070  -14.4370   20.0760 C   0  0  0  0  0  0  0  0  0  0  0  0
  -30.3650  -12.2850   18.9510 C   0  0  0  0  0  2  0  0  0  0  0  0
  -29.3600  -12.4790   17.7960 C   0  0  0  0  0  2  0  0  0  0  0  0
  -27.9150  -12.3630   18.3120 C   0  0  0  0  0  2  0  0  0  0  0  0
  -27.6580  -13.2350   19.5720 C   0  0  0  0  0  3  0  0  0  0  0  0
  -28.7730  -13.0310   20.6260 C   0  0  0  0  0  2  0  0  0  0  0  0
  -30.0690  -13.2970   19.9820 N   0  0  0  0  0  0  0  0  0  0  0  0
  -31.8650  -14.5860   19.4570 O   0  0  0  0  0  0  0  0  0  0  0  0
  -30.3170  -15.4330   20.8400 N   0  0  0  0  0  0  0  0  0  0  0  0
  -29.4470  -15.2610   21.3200 H   0  0  0  0  0  0  0  0  0  0  0  0
  -25.3270  -13.8890   20.4430 C   0  0  0  0  0  0  0  0  0  0  0  0
  -24.2570  -13.1390   20.8520 C   0  0  0  0  0  0  0  0  0  0  0  0
  -24.6720  -11.7760   20.7540 C   0  0  0  0  0  0  0  0  0  0  0  0
  -26.3290  -12.9860   20.1280 N   0  0  0  0  0  0  0  0  0  0  0  0
  -25.9400  -11.7060   20.3680 N   0  0  0  0  0  0  0  0  0  0  0  0
  -23.9180  -10.5310   20.9500 C   0  0  0  0  0  0  0  0  0  0  0  0
  -24.3520   -9.5360   21.8550 C   0  0  0  0  0  3  0  0  0  0  0  0
  -23.5970   -8.3570   22.0390 C   0  0  0  0  0  3  0  0  0  0  0  0
  -22.3940   -8.1650   21.3190 C   0  0  0  0  0  0  0  0  0  0  0  0
  -21.9800   -9.1460   20.4020 C   0  0  0  0  0  3  0  0  0  0  0  0
  -22.7350  -10.3160   20.2160 C   0  0  0  0  0  3  0  0  0  0  0  0
  -21.6110   -7.0400   21.4140 O   0  0  0  0  0  0  0  0  0  0  0  0
  -21.5520   -6.3000   22.5680 C   0  0  0  0  0  0  0  0  0  0  0  0
  -21.1300   -6.8620   23.7930 C   0  0  0  0  0  3  0  0  0  0  0  0
  -21.0180   -6.0480   24.9380 C   0  0  0  0  0  3  0  0  0  0  0  0
  -21.3160   -4.6750   24.8610 C   0  0  0  0  0  0  0  0  0  0  0  0
  -21.7310   -4.1130   23.6400 C   0  0  0  0  0  3  0  0  0  0  0  0
  -21.8450   -4.9230   22.4970 C   0  0  0  0  0  0  0  0  0  0  0  0
  -22.2240   -4.3730   21.3190 F   0  0  0  0  0  0  0  0  0  0  0  0
  -21.2010   -3.8920   25.9590 F   0  0  0  0  0  0  0  0  0  0  0  0
  -22.8930  -13.6500   21.2210 C   0  0  0  0  0  0  0  0  0  0  0  0
  -22.1960  -12.9520   22.1090 N   0  0  0  0  0  0  0  0  0  0  0  0
  -22.4580  -14.7040   20.7580 O   0  0  0  0  0  0  0  0  0  0  0  0
  -22.5610  -12.0970   22.5050 H   0  0  0  0  0  0  0  0  0  0  0  0
  -21.2840  -13.2740   22.3980 H   0  0  0  0  0  0  0  0  0  0  0  0
  -25.5240  -15.2590   20.2960 N   0  0  0  0  0  0  0  0  0  0  0  0
  -24.7890  -15.9340   20.4870 H   0  0  0  0  0  0  0  0  0  0  0  0
  -26.3700  -15.6880   19.9380 H   0  0  0  0  0  0  0  0  0  0  0  0
  -29.0050  -22.7960   20.3640 C   0  0  0  0  0  2  0  0  0  0  0  0
  -29.3630  -24.3100   20.4880 C   0  0  0  0  0  2  0  0  0  0  0  0
  -28.1970  -25.2290   20.0340 C   0  0  0  0  0  2  0  0  0  0  0  0
  -28.3770  -26.6540   20.2260 O   0  0  0  0  0  0  0  0  0  0  0  0
  -24.5440  -31.8810   23.2250 C   0  0  0  0  0  0  0  0  0  0  0  0
  -27.2210  -27.4230   20.1680 C   0  0  0  0  0  0  0  0  0  0  0  0
  -23.3530  -30.4690   21.5820 C   0  0  0  0  0  3  0  0  0  0  0  0
  -24.8240  -28.9460   20.1570 C   0  0  0  0  0  0  0  0  0  0  0  0
  -25.8820  -30.8380   21.3940 C   0  0  0  0  0  2  0  0  0  0  0  0
  -25.9780  -29.4670   20.7530 C   0  0  0  0  0  0  0  0  0  0  0  0
  -27.1820  -28.7140   20.7540 C   0  0  0  0  0  3  0  0  0  0  0  0
  -26.0420  -26.9380   19.5480 C   0  0  0  0  0  3  0  0  0  0  0  0
  -24.8520  -27.6830   19.5500 C   0  0  0  0  0  3  0  0  0  0  0  0
  -23.5750  -29.7960   20.2020 C   0  0  0  0  0  2  0  0  0  0  0  0
  -24.6110  -31.0760   22.1250 N   0  0  0  0  0  0  0  0  0  0  0  0
  -23.4600  -32.1500   23.7590 O   0  0  0  0  0  0  0  0  0  0  0  0
  -22.7010  -29.4440   22.5390 C   0  0  0  0  0  0  0  0  0  0  0  0
  -21.3770  -29.2630   22.4120 N   0  0  0  0  0  0  0  0  0  0  0  0
  -23.3860  -28.8190   23.3530 O   0  0  0  0  0  0  0  0  0  0  0  0
  -20.8870  -29.8210   21.7250 H   0  0  0  0  0  0  0  0  0  0  0  0
  -17.9980  -28.0860   22.9340 C   0  0  0  0  0  0  0  0  0  0  0  0
  -20.5600  -28.3240   23.1830 C   0  0  0  0  0  3  0  0  0  0  0  0
  -20.6470  -26.8940   22.5980 C   0  0  0  0  0  2  0  0  0  0  0  0
  -19.5290  -26.5810   21.5950 C   0  0  0  0  0  2  0  0  0  0  0  0
  -18.1580  -26.7350   22.2580 C   0  0  0  0  0  2  0  0  0  0  0  0
  -19.1270  -28.8370   23.3590 C   0  0  0  0  0  0  0  0  0  0  0  0
  -18.9220  -30.0970   23.9630 C   0  0  0  0  0  3  0  0  0  0  0  0
  -17.6230  -30.6050   24.1450 C   0  0  0  0  0  3  0  0  0  0  0  0
  -16.5110  -29.8510   23.7330 C   0  0  0  0  0  3  0  0  0  0  0  0
  -16.6970  -28.5930   23.1340 C   0  0  0  0  0  3  0  0  0  0  0  0
  -25.8230  -32.5170   23.8480 C   0  0  0  0  0  3  0  0  0  0  0  0
  -25.5100  -33.9160   24.1690 N   0  0  0  0  0  0  0  0  0  0  0  0
  -25.8320  -34.9640   23.3990 C   0  0  0  0  0  0  0  0  0  0  0  0
  -26.4950  -34.8560   22.3630 O   0  0  0  0  0  0  0  0  0  0  0  0
  -24.9200  -34.0730   24.9720 H   0  0  0  0  0  0  0  0  0  0  0  0
  -24.0870  -36.7380   23.0440 C   0  0  0  0  0  1  0  0  0  0  0  0
  -25.3380  -36.3510   23.8490 C   0  0  0  0  0  3  0  0  0  0  0  0
  -27.4700  -37.2660   24.6560 C   0  0  0  0  0  1  0  0  0  0  0  0
  -26.3620  -37.4110   23.7160 N   0  0  0  0  0  0  0  0  0  0  0  0
  -25.9500  -38.3300   23.8510 H   0  0  0  0  0  0  0  0  0  0  0  0
  -26.3370  -31.7540   25.1300 C   0  0  1  0  0  0  0  0  0  0  0  0
  -25.2370  -31.5120   26.1880 C   0  0  0  0  0  1  0  0  0  0  0  0
  -26.9330  -30.3800   24.7440 C   0  0  0  0  0  1  0  0  0  0  0  0
  -27.4780  -32.5570   25.7990 C   0  0  0  0  0  1  0  0  0  0  0  0
  1  6  1  0
  2  1  1  0
  3  5  2  0
  4  6  2  0
  4  3  1  0
  5  8  1  0
  6  7  1  0
  7  5  1  0
  9 17  1  0
 10 15  1  0
 11 12  1  0
 11 10  1  0
 13 12  1  0
 13 22  1  0
 13 14  1  0
 15  9  1  0
 15 14  1  0
 16  9  2  0
 17  8  1  0
 17 18  1  0
 19 20  2  0
 20 39  1  0
 21 20  1  0
 21 24  1  0
 22 23  1  0
 22 19  1  0
 23 21  2  0
 24 25  1  0
 25 26  2  0
 27 30  1  0
 27 26  1  0
 28 27  2  0
 29 28  1  0
 29 24  2  0
 30 31  1  0
 31 32  1  0
 32 33  2  0
 34 33  1  0
 34 38  1  0
 35 34  2  0
 36 31  2  0
 36 35  1  0
 37 36  1  0
 39 40  1  0
 40 43  1  0
 40 42  1  0
 41 39  2  0
 44 19  1  0
 44 45  1  0
 46 44  1  0
 47 48  1  0
 47  1  1  0
 49 50  1  0
 49 48  1  0
 51 62  2  0
 52 50  1  0
 52 57  1  0
 53 61  1  0
 53 63  1  0
 54 60  1  0
 54 56  1  0
 55 61  1  0
 56 57  2  0
 56 55  1  0
 58 59  1  0
 58 52  2  0
 59 54  2  0
 60 53  1  0
 61 51  1  0
 63 65  2  0
 64 63  1  0
 66 64  1  0
 67 76  2  0
 67 72  1  0
 68 64  1  0
 68 72  1  0
 69 68  1  0
 70 71  1  0
 70 69  1  0
 71 67  1  0
 72 73  2  0
 73 74  1  0
 75 74  2  0
 76 75  1  0
 77 51  1  0
 77 78  1  0
 77 87  1  0
 78 81  1  0
 79 83  1  0
 79 78  1  0
 80 79  2  0
 83 82  1  0
 85 83  1  0
 85 86  1  0
 85 84  1  0
 87 90  1  1
 87 88  1  0
 89 87  1  0
M  ISO  4   9 100  17 100  49 101  50 101
M  END
>  <TORSDO>  (38) 
F 21

>  <SCORE>  (38) 
-13.286

>  <name>  (38) 
37

>  <ligand_id>  (38) 
37

>  <original_smiles>  (38) 
[H]c1c(N([H])C([H])([H])C([H])([H])C([H])([H])Oc2c([H])c([H])c3c(c2[H])C([H])([H])N(C(=O)C([H])(N([H])C(=O)C([H])(N([H])C([H])([H])[H])C([H])([H])[H])C(C([H])([H])[H])(C([H])([H])[H])C([H])([H])[H])C([H])(C(=O)N([H])C2([H])c4c([H])c([H])c([H])c([H])c4C([H])([H])C([H])([H])C2([H])[H])C3([H])[H])sc(C([H])([H])N([H])C(=O)N2C([H])([H])C([H])([H])C([H])([H])C([H])(n3nc(-c4c([H])c([H])c(Oc5c([H])c([H])c(F)c([H])c5F)c([H])c4[H])c(C(=O)N([H])[H])c3N([H])[H])C2([H])[H])c1[H]

>  <smiles>  (38) 
[H]c1c(N([H])C([H])([H])C([H])([H])C([H])([H])Oc2c([H])c([H])c3c(c2[H])C([H])([H])N(C(=O)C([H])(N([H])C(=O)C([H])(N([H])C([H])([H])[H])C([H])([H])[H])C(C([H])([H])[H])(C([H])([H])[H])C([H])([H])[H])C([H])(C(=O)N([H])C2([H])c4c([H])c([H])c([H])c([H])c4C([H])([H])C([H])([H])C2([H])[H])C3([H])[H])sc(C([H])([H])N([H])C(=O)N2C([H])([H])C([H])([H])C([H])([H])C([H])(n3nc(-c4c([H])c([H])c(Oc5c([H])c([H])c(F)c([H])c5F)c([H])c4[H])c(C(=O)N([H])[H])c3N([H])[H])C2([H])[H])c1[H]

$$$$
38:0:0
     RDKit          3D

 94103  0  0  1  0  0  0  0  0999 V2000
  -29.8870  -21.1270   19.7540 C   0  0  0  0  0  0  0  0  0  0  0  0
  -28.0730  -23.3750   22.0880 C   0  0  0  0  0  2  0  0  0  0  0  0
  -28.3230  -21.9410   21.5810 C   0  0  0  0  0  2  0  0  0  0  0  0
  -29.2000  -23.5070   19.9870 C   0  0  0  0  0  2  0  0  0  0  0  0
  -28.1900  -24.2810   20.8560 C   0  0  0  0  0  3  0  0  0  0  0  0
  -29.1440  -22.0830   20.3780 N   0  0  0  0  0  0  0  0  0  0  0  0
  -30.6250  -21.4150   18.8070 O   0  0  0  0  0  0  0  0  0  0  0  0
  -28.7010  -18.8980   20.2720 C   0  0  0  0  0  3  0  0  0  0  0  0
  -28.7700  -17.5080   20.5410 C   0  0  0  0  0  3  0  0  0  0  0  0
  -31.1140  -19.0380   20.4780 C   0  0  0  0  0  3  0  0  0  0  0  0
  -29.8810  -19.6810   20.2170 C   0  0  0  0  0  0  0  0  0  0  0  0
  -30.0130  -16.8610   20.7520 C   0  0  0  0  0  0  0  0  0  0  0  0
  -31.1840  -17.6580   20.7720 C   0  0  0  0  0  0  0  0  0  0  0  0
  -32.3850  -17.1220   21.0870 F   0  0  0  0  0  0  0  0  0  0  0  0
  -30.6900  -14.5170   20.2320 C   0  0  0  0  0  0  0  0  0  0  0  0
  -30.3750  -12.3930   19.0100 C   0  0  0  0  0  2  0  0  0  0  0  0
  -29.3800  -12.6150   17.8510 C   0  0  0  0  0  2  0  0  0  0  0  0
  -27.9210  -12.4770   18.3320 C   0  0  0  0  0  2  0  0  0  0  0  0
  -27.6380  -13.2740   19.6340 C   0  0  0  0  0  3  0  0  0  0  0  0
  -28.7310  -12.9940   20.6880 C   0  0  0  0  0  2  0  0  0  0  0  0
  -30.0370  -13.3300   20.0930 N   0  0  0  0  0  0  0  0  0  0  0  0
  -31.7630  -14.7430   19.6660 O   0  0  0  0  0  0  0  0  0  0  0  0
  -30.0260  -15.4430   20.9610 N   0  0  0  0  0  0  0  0  0  0  0  0
  -29.2040  -15.0650   21.4040 H   0  0  0  0  0  0  0  0  0  0  0  0
  -25.2630  -13.8720   20.4380 C   0  0  0  0  0  0  0  0  0  0  0  0
  -24.2100  -13.0940   20.8370 C   0  0  0  0  0  0  0  0  0  0  0  0
  -24.6700  -11.7440   20.7680 C   0  0  0  0  0  0  0  0  0  0  0  0
  -26.2990  -12.9950   20.1550 N   0  0  0  0  0  0  0  0  0  0  0  0
  -25.9470  -11.7090   20.4090 N   0  0  0  0  0  0  0  0  0  0  0  0
  -23.9530  -10.4790   20.9630 C   0  0  0  0  0  0  0  0  0  0  0  0
  -24.3890   -9.5180   21.9000 C   0  0  0  0  0  3  0  0  0  0  0  0
  -23.6730   -8.3160   22.0810 C   0  0  0  0  0  3  0  0  0  0  0  0
  -22.5040   -8.0660   21.3250 C   0  0  0  0  0  0  0  0  0  0  0  0
  -22.0870   -9.0150   20.3740 C   0  0  0  0  0  3  0  0  0  0  0  0
  -22.8050  -10.2080   20.1910 C   0  0  0  0  0  3  0  0  0  0  0  0
  -21.7550   -6.9190   21.4190 O   0  0  0  0  0  0  0  0  0  0  0  0
  -21.6740   -6.2030   22.5850 C   0  0  0  0  0  0  0  0  0  0  0  0
  -21.1620   -6.7710   23.7730 C   0  0  0  0  0  3  0  0  0  0  0  0
  -21.0320   -5.9800   24.9320 C   0  0  0  0  0  3  0  0  0  0  0  0
  -21.4030   -4.6220   24.9050 C   0  0  0  0  0  0  0  0  0  0  0  0
  -21.9100   -4.0550   23.7230 C   0  0  0  0  0  3  0  0  0  0  0  0
  -22.0420   -4.8420   22.5660 C   0  0  0  0  0  0  0  0  0  0  0  0
  -22.5090   -4.2840   21.4240 F   0  0  0  0  0  0  0  0  0  0  0  0
  -21.2710   -3.8610   26.0160 F   0  0  0  0  0  0  0  0  0  0  0  0
  -22.8250  -13.5670   21.1690 C   0  0  0  0  0  0  0  0  0  0  0  0
  -22.1240  -12.8500   22.0400 N   0  0  0  0  0  0  0  0  0  0  0  0
  -22.3730  -14.6080   20.6920 O   0  0  0  0  0  0  0  0  0  0  0  0
  -22.5020  -12.0090   22.4500 H   0  0  0  0  0  0  0  0  0  0  0  0
  -21.1940  -13.1460   22.3020 H   0  0  0  0  0  0  0  0  0  0  0  0
  -25.4190  -15.2450   20.2750 N   0  0  0  0  0  0  0  0  0  0  0  0
  -24.6470  -15.8870   20.4150 H   0  0  0  0  0  0  0  0  0  0  0  0
  -26.2300  -15.6830   19.8590 H   0  0  0  0  0  0  0  0  0  0  0  0
  -28.5580  -25.7610   21.1900 C   0  0  0  0  0  2  0  0  0  0  0  0
  -28.4310  -26.6990   20.1050 O   0  0  0  0  0  0  0  0  0  0  0  0
  -24.6010  -31.8920   23.1700 C   0  0  0  0  0  0  0  0  0  0  0  0
  -27.2790  -27.4540   20.1150 C   0  0  0  0  0  0  0  0  0  0  0  0
  -23.4100  -30.4870   21.5150 C   0  0  0  0  0  3  0  0  0  0  0  0
  -24.8810  -28.9530   20.1000 C   0  0  0  0  0  0  0  0  0  0  0  0
  -25.9350  -30.8550   21.3350 C   0  0  0  0  0  2  0  0  0  0  0  0
  -26.0320  -29.4820   20.7000 C   0  0  0  0  0  0  0  0  0  0  0  0
  -27.2360  -28.7390   20.7070 C   0  0  0  0  0  3  0  0  0  0  0  0
  -26.1180  -26.9420   19.5040 C   0  0  0  0  0  3  0  0  0  0  0  0
  -24.9190  -27.6820   19.4990 C   0  0  0  0  0  3  0  0  0  0  0  0
  -23.6330  -29.8070   20.1370 C   0  0  0  0  0  2  0  0  0  0  0  0
  -24.6650  -31.0940   22.0640 N   0  0  0  0  0  0  0  0  0  0  0  0
  -23.5150  -32.1570   23.7050 O   0  0  0  0  0  0  0  0  0  0  0  0
  -22.7580  -29.4630   22.4740 C   0  0  0  0  0  0  0  0  0  0  0  0
  -21.4320  -29.2880   22.3560 N   0  0  0  0  0  0  0  0  0  0  0  0
  -23.4440  -28.8260   23.2790 O   0  0  0  0  0  0  0  0  0  0  0  0
  -20.9400  -29.8540   21.6790 H   0  0  0  0  0  0  0  0  0  0  0  0
  -18.0510  -28.1380   22.8980 C   0  0  0  0  0  0  0  0  0  0  0  0
  -20.6170  -28.3470   23.1230 C   0  0  0  0  0  3  0  0  0  0  0  0
  -20.6830  -26.9280   22.5130 C   0  0  0  0  0  2  0  0  0  0  0  0
  -19.5550  -26.6470   21.5140 C   0  0  0  0  0  2  0  0  0  0  0  0
  -18.1900  -26.8010   22.1900 C   0  0  0  0  0  2  0  0  0  0  0  0
  -19.1910  -28.8710   23.3220 C   0  0  0  0  0  0  0  0  0  0  0  0
  -19.0070  -30.1250   23.9460 C   0  0  0  0  0  3  0  0  0  0  0  0
  -17.7160  -30.6450   24.1490 C   0  0  0  0  0  3  0  0  0  0  0  0
  -16.5900  -29.9090   23.7420 C   0  0  0  0  0  3  0  0  0  0  0  0
  -16.7580  -28.6570   23.1220 C   0  0  0  0  0  3  0  0  0  0  0  0
  -25.8800  -32.5300   23.7960 C   0  0  0  0  0  3  0  0  0  0  0  0
  -25.5590  -33.9210   24.1390 N   0  0  0  0  0  0  0  0  0  0  0  0
  -25.8900  -34.9830   23.3900 C   0  0  0  0  0  0  0  0  0  0  0  0
  -26.5680  -34.8950   22.3630 O   0  0  0  0  0  0  0  0  0  0  0  0
  -24.9620  -34.0650   24.9390 H   0  0  0  0  0  0  0  0  0  0  0  0
  -24.1630  -36.7730   23.0270 C   0  0  0  0  0  1  0  0  0  0  0  0
  -25.3890  -36.3630   23.8580 C   0  0  0  0  0  3  0  0  0  0  0  0
  -27.4980  -37.2480   24.7500 C   0  0  0  0  0  1  0  0  0  0  0  0
  -26.4190  -37.4210   23.7800 N   0  0  0  0  0  0  0  0  0  0  0  0
  -26.0050  -38.3380   23.9240 H   0  0  0  0  0  0  0  0  0  0  0  0
  -26.4050  -31.7510   25.0650 C   0  0  1  0  0  0  0  0  0  0  0  0
  -25.3170  -31.4880   26.1300 C   0  0  0  0  0  1  0  0  0  0  0  0
  -27.0070  -30.3860   24.6560 C   0  0  0  0  0  1  0  0  0  0  0  0
  -27.5440  -32.5530   25.7400 C   0  0  0  0  0  1  0  0  0  0  0  0
  1 11  1  0
  1  6  1  0
  3  2  1  0
  4  6  1  0
  4  5  1  0
  5 53  1  0
  5  2  1  0
  6  3  1  0
  7  1  2  0
  8  9  1  0
  9 12  2  0
 10 13  2  0
 11  8  2  0
 11 10  1  0
 12 13  1  0
 12 23  1  0
 13 14  1  0
 15 23  1  0
 16 21  1  0
 17 18  1  0
 17 16  1  0
 19 18  1  0
 19 28  1  0
 19 20  1  0
 21 15  1  0
 21 20  1  0
 22 15  2  0
 23 24  1  0
 25 26  2  0
 26 45  1  0
 27 26  1  0
 27 30  1  0
 28 29  1  0
 28 25  1  0
 29 27  2  0
 30 31  1  0
 31 32  2  0
 33 36  1  0
 33 32  1  0
 34 33  2  0
 35 34  1  0
 35 30  2  0
 36 37  1  0
 37 38  1  0
 38 39  2  0
 40 39  1  0
 40 44  1  0
 41 40  2  0
 42 37  2  0
 42 41  1  0
 43 42  1  0
 45 46  1  0
 46 49  1  0
 46 48  1  0
 47 45  2  0
 50 51  1  0
 50 25  1  0
 52 50  1  0
 54 56  1  0
 54 53  1  0
 55 66  2  0
 56 61  1  0
 57 65  1  0
 57 67  1  0
 58 64  1  0
 58 60  1  0
 59 65  1  0
 60 61  2  0
 60 59  1  0
 62 56  2  0
 63 62  1  0
 63 58  2  0
 64 57  1  0
 65 55  1  0
 67 69  2  0
 68 67  1  0
 70 68  1  0
 71 80  2  0
 71 76  1  0
 72 68  1  0
 72 76  1  0
 73 72  1  0
 74 75  1  0
 74 73  1  0
 75 71  1  0
 76 77  2  0
 77 78  1  0
 79 78  2  0
 80 79  1  0
 81 55  1  0
 81 82  1  0
 81 91  1  0
 82 85  1  0
 83 87  1  0
 83 82  1  0
 84 83  2  0
 87 86  1  0
 89 87  1  0
 89 90  1  0
 89 88  1  0
 91 94  1  1
 91 92  1  0
 93 91  1  0
M  ISO  4  15 100  23 100  53 101  54 101
M  END
>  <TORSDO>  (39) 
F 18

>  <SCORE>  (39) 
-14.940

>  <name>  (39) 
38

>  <ligand_id>  (39) 
38

>  <original_smiles>  (39) 
[H]c1c([H])c([H])c2c(c1[H])C([H])([H])C([H])([H])C([H])([H])C2([H])N([H])C(=O)C1([H])N(C(=O)C([H])(N([H])C(=O)C([H])(N([H])C([H])([H])[H])C([H])([H])[H])C(C([H])([H])[H])(C([H])([H])[H])C([H])([H])[H])C([H])([H])c2c([H])c(OC([H])([H])C3([H])C([H])([H])N(C(=O)c4c([H])c([H])c(N([H])C(=O)N5C([H])([H])C([H])([H])C([H])([H])C([H])(n6nc(-c7c([H])c([H])c(Oc8c([H])c([H])c(F)c([H])c8F)c([H])c7[H])c(C(=O)N([H])[H])c6N([H])[H])C5([H])[H])c(F)c4[H])C([H])([H])C3([H])[H])c([H])c([H])c2C1([H])[H]

>  <smiles>  (39) 
[H]c1c([H])c([H])c2c(c1[H])C([H])([H])C([H])([H])C([H])([H])C2([H])N([H])C(=O)C1([H])N(C(=O)C([H])(N([H])C(=O)C([H])(N([H])C([H])([H])[H])C([H])([H])[H])C(C([H])([H])[H])(C([H])([H])[H])C([H])([H])[H])C([H])([H])c2c([H])c(OC([H])([H])C3([H])C([H])([H])N(C(=O)c4c([H])c([H])c(N([H])C(=O)N5C([H])([H])C([H])([H])C([H])([H])C([H])(n6nc(-c7c([H])c([H])c(Oc8c([H])c([H])c(F)c([H])c8F)c([H])c7[H])c(C(=O)N([H])[H])c6N([H])[H])C5([H])[H])c(F)c4[H])C([H])([H])C3([H])[H])c([H])c([H])c2C1([H])[H]

$$$$
39:0:0
     RDKit          3D

 97106  0  0  1  0  0  0  0  0999 V2000
  -29.9150  -22.1140   17.8080 C   0  0  0  0  0  0  0  0  0  0  0  0
  -29.8040  -23.5810   17.3670 C   0  0  0  0  0  2  0  0  0  0  0  0
  -29.7200  -24.5710   18.5320 C   0  0  0  0  0  2  0  0  0  0  0  0
  -28.9580  -22.7100   20.0360 C   0  0  0  0  0  2  0  0  0  0  0  0
  -28.6130  -24.1320   19.4880 C   0  0  0  0  0  3  0  0  0  0  0  0
  -29.5950  -21.7570   19.0840 N   0  0  0  0  0  0  0  0  0  0  0  0
  -30.2790  -21.3030   16.9500 O   0  0  0  0  0  0  0  0  0  0  0  0
  -31.6390  -18.7500   20.1330 C   0  0  0  0  0  3  0  0  0  0  0  0
  -31.2900  -20.0220   19.6350 C   0  0  0  0  0  3  0  0  0  0  0  0
  -28.9490  -19.5390   20.0400 C   0  0  0  0  0  3  0  0  0  0  0  0
  -30.6570  -17.8560   20.6080 C   0  0  0  0  0  0  0  0  0  0  0  0
  -29.9380  -20.4410   19.5770 C   0  0  0  0  0  0  0  0  0  0  0  0
  -29.2970  -18.2620   20.5500 C   0  0  0  0  0  0  0  0  0  0  0  0
  -28.2800  -17.4280   21.0120 N   0  0  0  0  0  0  0  0  0  0  0  0
  -27.3610  -17.8250   21.1790 H   0  0  0  0  0  0  0  0  0  0  0  0
  -28.5100  -16.6860   21.6630 H   0  0  0  0  0  0  0  0  0  0  0  0
  -31.1210  -16.5430   21.2640 C   0  0  0  0  0  2  0  0  0  0  0  0
  -31.0410  -14.3270   20.0760 C   0  0  0  0  0  0  0  0  0  0  0  0
  -30.5990  -12.1840   18.9250 C   0  0  0  0  0  2  0  0  0  0  0  0
  -29.5930  -12.3950   17.7760 C   0  0  0  0  0  2  0  0  0  0  0  0
  -28.1430  -12.3100   18.2900 C   0  0  0  0  0  2  0  0  0  0  0  0
  -27.9050  -13.1780   19.5560 C   0  0  0  0  0  3  0  0  0  0  0  0
  -29.0090  -12.9250   20.6050 C   0  0  0  0  0  2  0  0  0  0  0  0
  -30.3090  -13.1850   19.9620 N   0  0  0  0  0  0  0  0  0  0  0  0
  -32.1230  -14.4900   19.5060 O   0  0  0  0  0  0  0  0  0  0  0  0
  -30.4780  -15.3020   20.8110 N   0  0  0  0  0  0  0  0  0  0  0  0
  -29.5610  -15.1090   21.1800 H   0  0  0  0  0  0  0  0  0  0  0  0
  -25.5940  -13.8880   20.4370 C   0  0  0  0  0  0  0  0  0  0  0  0
  -24.5080  -13.1600   20.8460 C   0  0  0  0  0  0  0  0  0  0  0  0
  -24.8890  -11.7880   20.7400 C   0  0  0  0  0  0  0  0  0  0  0  0
  -26.5720  -12.9600   20.1120 N   0  0  0  0  0  0  0  0  0  0  0  0
  -26.1540  -11.6910   20.3500 N   0  0  0  0  0  0  0  0  0  0  0  0
  -24.1070  -10.5610   20.9340 C   0  0  0  0  0  0  0  0  0  0  0  0
  -24.5140   -9.5620   21.8460 C   0  0  0  0  0  3  0  0  0  0  0  0
  -23.7350   -8.3990   22.0270 C   0  0  0  0  0  3  0  0  0  0  0  0
  -22.5350   -8.2280   21.2970 C   0  0  0  0  0  0  0  0  0  0  0  0
  -22.1460   -9.2150   20.3730 C   0  0  0  0  0  3  0  0  0  0  0  0
  -22.9260  -10.3690   20.1900 C   0  0  0  0  0  3  0  0  0  0  0  0
  -21.7280   -7.1190   21.3890 O   0  0  0  0  0  0  0  0  0  0  0  0
  -21.6390   -6.3870   22.5460 C   0  0  0  0  0  0  0  0  0  0  0  0
  -21.2090   -6.9640   23.7610 C   0  0  0  0  0  3  0  0  0  0  0  0
  -21.0660   -6.1600   24.9090 C   0  0  0  0  0  3  0  0  0  0  0  0
  -21.3420   -4.7810   24.8430 C   0  0  0  0  0  0  0  0  0  0  0  0
  -21.7640   -4.2040   23.6330 C   0  0  0  0  0  3  0  0  0  0  0  0
  -21.9090   -5.0050   22.4860 C   0  0  0  0  0  0  0  0  0  0  0  0
  -22.2960   -4.4410   21.3170 F   0  0  0  0  0  0  0  0  0  0  0  0
  -21.1970   -4.0070   25.9440 F   0  0  0  0  0  0  0  0  0  0  0  0
  -23.1590  -13.7020   21.2250 C   0  0  0  0  0  0  0  0  0  0  0  0
  -22.4520  -13.0160   22.1160 N   0  0  0  0  0  0  0  0  0  0  0  0
  -22.7460  -14.7670   20.7680 O   0  0  0  0  0  0  0  0  0  0  0  0
  -22.7990  -12.1530   22.5050 H   0  0  0  0  0  0  0  0  0  0  0  0
  -21.5490  -13.3590   22.4110 H   0  0  0  0  0  0  0  0  0  0  0  0
  -25.8250  -15.2530   20.3010 N   0  0  0  0  0  0  0  0  0  0  0  0
  -25.1180  -15.9480   20.5140 H   0  0  0  0  0  0  0  0  0  0  0  0
  -26.7070  -15.6660   20.0220 H   0  0  0  0  0  0  0  0  0  0  0  0
  -28.3570  -25.1690   20.6160 C   0  0  0  0  0  2  0  0  0  0  0  0
  -28.4210  -26.5400   20.1830 O   0  0  0  0  0  0  0  0  0  0  0  0
  -24.6010  -31.7600   23.1720 C   0  0  0  0  0  0  0  0  0  0  0  0
  -27.2460  -27.2610   20.1820 C   0  0  0  0  0  0  0  0  0  0  0  0
  -23.4040  -30.3540   21.5250 C   0  0  0  0  0  3  0  0  0  0  0  0
  -24.8630  -28.7820   20.1420 C   0  0  0  0  0  0  0  0  0  0  0  0
  -25.9350  -30.6890   21.3570 C   0  0  0  0  0  2  0  0  0  0  0  0
  -26.0170  -29.3080   20.7350 C   0  0  0  0  0  0  0  0  0  0  0  0
  -27.2140  -28.5570   20.7440 C   0  0  0  0  0  3  0  0  0  0  0  0
  -26.0760  -26.7420   19.5900 C   0  0  0  0  0  3  0  0  0  0  0  0
  -24.8870  -27.4990   19.5650 C   0  0  0  0  0  3  0  0  0  0  0  0
  -23.6270  -29.6540   20.1580 C   0  0  0  0  0  2  0  0  0  0  0  0
  -24.6640  -30.9490   22.0770 N   0  0  0  0  0  0  0  0  0  0  0  0
  -23.5160  -32.0490   23.6940 O   0  0  0  0  0  0  0  0  0  0  0  0
  -22.7290  -29.3500   22.4870 C   0  0  0  0  0  0  0  0  0  0  0  0
  -21.4000  -29.1990   22.3570 N   0  0  0  0  0  0  0  0  0  0  0  0
  -23.3970  -28.7110   23.3050 O   0  0  0  0  0  0  0  0  0  0  0  0
  -20.9250  -29.7650   21.6690 H   0  0  0  0  0  0  0  0  0  0  0  0
  -17.9950  -28.1090   22.8720 C   0  0  0  0  0  0  0  0  0  0  0  0
  -20.5610  -28.2800   23.1260 C   0  0  0  0  0  3  0  0  0  0  0  0
  -20.6130  -26.8530   22.5350 C   0  0  0  0  0  2  0  0  0  0  0  0
  -19.4930  -26.5760   21.5270 C   0  0  0  0  0  2  0  0  0  0  0  0
  -18.1220  -26.7600   22.1830 C   0  0  0  0  0  2  0  0  0  0  0  0
  -19.1410  -28.8290   23.3010 C   0  0  0  0  0  0  0  0  0  0  0  0
  -18.9690  -30.0950   23.9030 C   0  0  0  0  0  3  0  0  0  0  0  0
  -17.6830  -30.6380   24.0830 C   0  0  0  0  0  3  0  0  0  0  0  0
  -16.5510  -29.9130   23.6710 C   0  0  0  0  0  3  0  0  0  0  0  0
  -16.7080  -28.6510   23.0720 C   0  0  0  0  0  3  0  0  0  0  0  0
  -25.8840  -32.3840   23.8050 C   0  0  0  0  0  3  0  0  0  0  0  0
  -26.4000  -31.5960   25.0720 C   0  0  1  0  0  0  0  0  0  0  0  0
  -25.3030  -31.3380   26.1310 C   0  0  0  0  0  1  0  0  0  0  0  0
  -26.9890  -30.2270   24.6590 C   0  0  0  0  0  1  0  0  0  0  0  0
  -27.5430  -32.3860   25.7510 C   0  0  0  0  0  1  0  0  0  0  0  0
  -25.5760  -33.7770   24.1500 N   0  0  0  0  0  0  0  0  0  0  0  0
  -25.9020  -34.8360   23.3970 C   0  0  0  0  0  0  0  0  0  0  0  0
  -26.5660  -34.7430   22.3600 O   0  0  0  0  0  0  0  0  0  0  0  0
  -24.9880  -33.9250   24.9560 H   0  0  0  0  0  0  0  0  0  0  0  0
  -24.1590  -36.6210   23.0770 C   0  0  0  0  0  1  0  0  0  0  0  0
  -25.4150  -36.2200   23.8680 C   0  0  0  0  0  3  0  0  0  0  0  0
  -27.5530  -37.1160   24.6760 C   0  0  0  0  0  1  0  0  0  0  0  0
  -26.4390  -37.2790   23.7450 N   0  0  0  0  0  0  0  0  0  0  0  0
  -26.0300  -38.1960   23.8980 H   0  0  0  0  0  0  0  0  0  0  0  0
  1  6  1  0
  2  1  1  0
  2  3  1  0
  3  5  1  0
  5  4  1  0
  5 56  1  0
  6 12  1  0
  6  4  1  0
  7  1  2  0
  8 11  1  0
  9  8  2  0
 10 13  1  0
 11 17  1  0
 12  9  1  0
 12 10  2  0
 13 11  2  0
 13 14  1  0
 14 15  1  0
 14 16  1  0
 18 26  1  0
 19 24  1  0
 20 21  1  0
 20 19  1  0
 22 21  1  0
 22 31  1  0
 22 23  1  0
 24 18  1  0
 24 23  1  0
 25 18  2  0
 26 27  1  0
 26 17  1  0
 28 29  2  0
 29 48  1  0
 30 29  1  0
 30 33  1  0
 31 32  1  0
 31 28  1  0
 32 30  2  0
 33 34  1  0
 34 35  2  0
 36 39  1  0
 36 35  1  0
 37 36  2  0
 38 37  1  0
 38 33  2  0
 39 40  1  0
 40 41  1  0
 41 42  2  0
 43 42  1  0
 43 47  1  0
 44 43  2  0
 45 40  2  0
 45 44  1  0
 46 45  1  0
 48 49  1  0
 49 52  1  0
 49 51  1  0
 50 48  2  0
 53 28  1  0
 53 54  1  0
 55 53  1  0
 57 56  1  0
 58 69  2  0
 59 57  1  0
 59 64  1  0
 60 68  1  0
 60 70  1  0
 61 67  1  0
 61 63  1  0
 62 68  1  0
 63 64  2  0
 63 62  1  0
 65 59  2  0
 66 65  1  0
 66 61  2  0
 67 60  1  0
 68 58  1  0
 70 72  2  0
 71 70  1  0
 73 71  1  0
 74 83  2  0
 74 79  1  0
 75 71  1  0
 75 79  1  0
 76 75  1  0
 77 78  1  0
 77 76  1  0
 78 74  1  0
 79 80  2  0
 80 81  1  0
 82 81  2  0
 83 82  1  0
 84 58  1  0
 84 89  1  0
 84 85  1  0
 85 88  1  1
 85 86  1  0
 87 85  1  0
 89 92  1  0
 90 94  1  0
 90 89  1  0
 91 90  2  0
 94 93  1  0
 96 94  1  0
 96 97  1  0
 96 95  1  0
M  ISO  4  18 100  26 100  56 101  57 101
M  END
>  <TORSDO>  (40) 
F 20

>  <SCORE>  (40) 
-13.968

>  <name>  (40) 
39

>  <ligand_id>  (40) 
39

>  <original_smiles>  (40) 
[H]c1c([H])c([H])c2c(c1[H])C([H])([H])C([H])([H])C([H])([H])C2([H])N([H])C(=O)C1([H])N(C(=O)C([H])(N([H])C(=O)C([H])(N([H])C([H])([H])[H])C([H])([H])[H])C(C([H])([H])[H])(C([H])([H])[H])C([H])([H])[H])C([H])([H])c2c([H])c(OC([H])([H])C3([H])C([H])([H])N(c4c([H])c([H])c(C([H])([H])N([H])C(=O)N5C([H])([H])C([H])([H])C([H])([H])C([H])(n6nc(-c7c([H])c([H])c(Oc8c([H])c([H])c(F)c([H])c8F)c([H])c7[H])c(C(=O)N([H])[H])c6N([H])[H])C5([H])[H])c(N([H])[H])c4[H])C(=O)C([H])([H])C3([H])[H])c([H])c([H])c2C1([H])[H]

>  <smiles>  (40) 
[H]c1c([H])c([H])c2c(c1[H])C([H])([H])C([H])([H])C([H])([H])C2([H])N([H])C(=O)C1([H])N(C(=O)C([H])(N([H])C(=O)C([H])(N([H])C([H])([H])[H])C([H])([H])[H])C(C([H])([H])[H])(C([H])([H])[H])C([H])([H])[H])C([H])([H])c2c([H])c(OC([H])([H])C3([H])C([H])([H])N(c4c([H])c([H])c(C([H])([H])N([H])C(=O)N5C([H])([H])C([H])([H])C([H])([H])C([H])(n6nc(-c7c([H])c([H])c(Oc8c([H])c([H])c(F)c([H])c8F)c([H])c7[H])c(C(=O)N([H])[H])c6N([H])[H])C5([H])[H])c(N([H])[H])c4[H])C(=O)C([H])([H])C3([H])[H])c([H])c([H])c2C1([H])[H]

$$$$
40:0:0
     RDKit          3D

 94102  0  0  1  0  0  0  0  0999 V2000
  -30.0150  -17.2890   18.7030 C   0  0  0  0  0  3  0  0  0  0  0  0
  -29.8060  -18.4360   17.9130 C   0  0  0  0  0  3  0  0  0  0  0  0
  -30.0470  -18.7140   20.6680 C   0  0  0  0  0  3  0  0  0  0  0  0
  -30.1590  -17.3720   20.1060 C   0  0  0  0  0  0  0  0  0  0  0  0
  -29.7260  -19.7240   18.4780 C   0  0  0  0  0  0  0  0  0  0  0  0
  -29.8290  -19.9120   19.8810 C   0  0  0  0  0  0  0  0  0  0  0  0
  -30.3450  -16.0610   20.9230 C   0  0  0  0  0  0  0  0  0  0  0  0
  -30.0440  -16.0540   22.1540 N   0  0  0  0  0  0  0  0  0  0  0  0
  -29.7020  -16.9580   22.4560 H   0  0  0  0  0  0  0  0  0  0  0  0
  -30.9870  -14.7830   20.2320 C   0  0  0  0  0  0  0  0  0  0  0  0
  -30.6360  -12.6080   19.0810 C   0  0  0  0  0  2  0  0  0  0  0  0
  -29.6780  -12.8150   17.8870 C   0  0  0  0  0  2  0  0  0  0  0  0
  -28.2080  -12.7000   18.3250 C   0  0  0  0  0  2  0  0  0  0  0  0
  -27.9050  -13.5000   19.6180 C   0  0  0  0  0  3  0  0  0  0  0  0
  -28.9780  -13.2520   20.7020 C   0  0  0  0  0  2  0  0  0  0  0  0
  -30.2880  -13.5990   20.1260 N   0  0  0  0  0  0  0  0  0  0  0  0
  -32.1110  -14.8860   19.7310 O   0  0  0  0  0  0  0  0  0  0  0  0
  -25.5260  -14.1280   20.3560 C   0  0  0  0  0  0  0  0  0  0  0  0
  -24.4510  -13.3670   20.7350 C   0  0  0  0  0  0  0  0  0  0  0  0
  -24.8950  -12.0120   20.7030 C   0  0  0  0  0  0  0  0  0  0  0  0
  -26.5580  -13.2330   20.1150 N   0  0  0  0  0  0  0  0  0  0  0  0
  -26.1840  -11.9560   20.3870 N   0  0  0  0  0  0  0  0  0  0  0  0
  -24.1570  -10.7590   20.9130 C   0  0  0  0  0  0  0  0  0  0  0  0
  -24.5690   -9.8050   21.8720 C   0  0  0  0  0  3  0  0  0  0  0  0
  -23.8300   -8.6170   22.0620 C   0  0  0  0  0  3  0  0  0  0  0  0
  -22.6650   -8.3730   21.2960 C   0  0  0  0  0  0  0  0  0  0  0  0
  -22.2720   -9.3160   20.3310 C   0  0  0  0  0  3  0  0  0  0  0  0
  -23.0100  -10.4960   20.1370 C   0  0  0  0  0  3  0  0  0  0  0  0
  -21.8970   -7.2360   21.3920 O   0  0  0  0  0  0  0  0  0  0  0  0
  -21.7970   -6.5350   22.5670 C   0  0  0  0  0  0  0  0  0  0  0  0
  -21.3040   -7.1290   23.7500 C   0  0  0  0  0  3  0  0  0  0  0  0
  -21.1530   -6.3540   24.9180 C   0  0  0  0  0  3  0  0  0  0  0  0
  -21.4830   -4.9850   24.9040 C   0  0  0  0  0  0  0  0  0  0  0  0
  -21.9740   -4.3920   23.7270 C   0  0  0  0  0  3  0  0  0  0  0  0
  -22.1280   -5.1650   22.5620 C   0  0  0  0  0  0  0  0  0  0  0  0
  -22.5780   -4.5850   21.4230 F   0  0  0  0  0  0  0  0  0  0  0  0
  -21.3350   -4.2380   26.0220 F   0  0  0  0  0  0  0  0  0  0  0  0
  -23.0620  -13.8610   21.0180 C   0  0  0  0  0  0  0  0  0  0  0  0
  -22.3320  -13.1880   21.9030 N   0  0  0  0  0  0  0  0  0  0  0  0
  -22.6320  -14.8860   20.4910 O   0  0  0  0  0  0  0  0  0  0  0  0
  -22.6980  -12.3640   22.3600 H   0  0  0  0  0  0  0  0  0  0  0  0
  -21.4000  -13.5080   22.1290 H   0  0  0  0  0  0  0  0  0  0  0  0
  -25.7060  -15.4940   20.1720 N   0  0  0  0  0  0  0  0  0  0  0  0
  -24.9590  -16.1640   20.3190 H   0  0  0  0  0  0  0  0  0  0  0  0
  -26.5800  -15.9290   19.9050 H   0  0  0  0  0  0  0  0  0  0  0  0
  -29.6280  -20.8200   17.6250 N   0  0  0  0  0  0  0  0  0  0  0  0
  -29.4540  -21.6930   18.1150 H   0  0  0  0  0  0  0  0  0  0  0  0
  -29.0720  -20.7030   16.7800 H   0  0  0  0  0  0  0  0  0  0  0  0
  -29.8340  -21.2520   20.4340 N   0  0  0  0  0  0  0  0  0  0  0  0
  -30.3720  -21.3640   21.2960 H   0  0  0  0  0  0  0  0  0  0  0  0
  -28.7950  -22.3310   20.2020 C   0  0  0  0  0  2  0  0  0  0  0  0
  -29.2180  -23.8730   20.4270 C   0  0  0  0  0  3  0  0  0  0  0  0
  -28.1580  -25.0160   20.0170 C   0  0  0  0  0  3  0  0  0  0  0  0
  -28.3830  -26.4740   20.2750 O   0  0  0  0  0  0  0  0  0  0  0  0
  -24.6340  -31.9020   23.2650 C   0  0  0  0  0  0  0  0  0  0  0  0
  -27.2770  -27.3490   20.2040 C   0  0  0  0  0  0  0  0  0  0  0  0
  -23.4430  -30.5030   21.6170 C   0  0  0  0  0  3  0  0  0  0  0  0
  -24.9060  -28.9680   20.1850 C   0  0  0  0  0  0  0  0  0  0  0  0
  -25.9830  -30.8300   21.4420 C   0  0  0  0  0  2  0  0  0  0  0  0
  -26.0700  -29.4510   20.7940 C   0  0  0  0  0  0  0  0  0  0  0  0
  -27.2580  -28.6550   20.7970 C   0  0  0  0  0  3  0  0  0  0  0  0
  -26.0920  -26.9390   19.5500 C   0  0  0  0  0  3  0  0  0  0  0  0
  -24.9240  -27.7190   19.5460 C   0  0  0  0  0  3  0  0  0  0  0  0
  -23.6630  -29.8320   20.2370 C   0  0  0  0  0  2  0  0  0  0  0  0
  -24.7060  -31.0960   22.1660 N   0  0  0  0  0  0  0  0  0  0  0  0
  -23.5490  -32.1700   23.8010 O   0  0  0  0  0  0  0  0  0  0  0  0
  -22.7790  -29.4820   22.5720 C   0  0  0  0  0  0  0  0  0  0  0  0
  -21.4550  -29.2960   22.4360 N   0  0  0  0  0  0  0  0  0  0  0  0
  -23.4560  -28.8550   23.3920 O   0  0  0  0  0  0  0  0  0  0  0  0
  -20.9670  -29.8540   21.7490 H   0  0  0  0  0  0  0  0  0  0  0  0
  -18.0800  -28.0890   22.9260 C   0  0  0  0  0  0  0  0  0  0  0  0
  -20.6370  -28.3530   23.2020 C   0  0  0  0  0  3  0  0  0  0  0  0
  -20.7420  -26.9240   22.6190 C   0  0  0  0  0  2  0  0  0  0  0  0
  -19.6420  -26.6040   21.6000 C   0  0  0  0  0  2  0  0  0  0  0  0
  -18.2600  -26.7440   22.2430 C   0  0  0  0  0  2  0  0  0  0  0  0
  -19.1970  -28.8510   23.3620 C   0  0  0  0  0  0  0  0  0  0  0  0
  -18.9730  -30.1120   23.9580 C   0  0  0  0  0  3  0  0  0  0  0  0
  -17.6670  -30.6080   24.1240 C   0  0  0  0  0  3  0  0  0  0  0  0
  -16.5650  -29.8430   23.7050 C   0  0  0  0  0  3  0  0  0  0  0  0
  -16.7730  -28.5850   23.1120 C   0  0  0  0  0  3  0  0  0  0  0  0
  -25.9090  -32.5400   23.8950 C   0  0  0  0  0  3  0  0  0  0  0  0
  -25.5970  -33.9420   24.2050 N   0  0  0  0  0  0  0  0  0  0  0  0
  -25.9450  -34.9880   23.4410 C   0  0  0  0  0  0  0  0  0  0  0  0
  -26.6300  -34.8760   22.4230 O   0  0  0  0  0  0  0  0  0  0  0  0
  -24.9900  -34.1030   24.9940 H   0  0  0  0  0  0  0  0  0  0  0  0
  -24.2360  -36.7900   23.0320 C   0  0  0  0  0  1  0  0  0  0  0  0
  -25.4530  -36.3830   23.8790 C   0  0  0  0  0  3  0  0  0  0  0  0
  -27.5670  -37.2640   24.7640 C   0  0  0  0  0  1  0  0  0  0  0  0
  -26.4940  -37.4310   23.7870 N   0  0  0  0  0  0  0  0  0  0  0  0
  -26.0890  -38.3540   23.9160 H   0  0  0  0  0  0  0  0  0  0  0  0
  -26.4090  -31.7850   25.1880 C   0  0  1  0  0  0  0  0  0  0  0  0
  -25.3020  -31.5600   26.2460 C   0  0  0  0  0  1  0  0  0  0  0  0
  -26.9920  -30.4040   24.8180 C   0  0  0  0  0  1  0  0  0  0  0  0
  -27.5490  -32.5880   25.8550 C   0  0  0  0  0  1  0  0  0  0  0  0
  1  4  1  0
  2  5  1  0
  2  1  2  0
  4  3  2  0
  4  7  1  0
  5  6  2  0
  6 49  1  0
  6  3  1  0
  7  8  2  0
  8  9  1  0
 10  7  1  0
 11 16  1  0
 12 13  1  0
 12 11  1  0
 14 13  1  0
 14 21  1  0
 14 15  1  0
 16 10  1  0
 16 15  1  0
 17 10  2  0
 18 19  2  0
 19 38  1  0
 20 19  1  0
 20 23  1  0
 21 18  1  0
 21 22  1  0
 22 20  2  0
 23 24  1  0
 24 25  2  0
 26 29  1  0
 26 25  1  0
 27 26  2  0
 28 27  1  0
 28 23  2  0
 29 30  1  0
 30 31  1  0
 31 32  2  0
 33 32  1  0
 33 37  1  0
 34 33  2  0
 35 30  2  0
 35 34  1  0
 36 35  1  0
 38 39  1  0
 39 42  1  0
 39 41  1  0
 40 38  2  0
 43 44  1  0
 43 18  1  0
 45 43  1  0
 46 47  1  0
 46  5  1  0
 48 46  1  0
 49 50  1  0
 51 52  1  0
 51 49  1  0
 53 54  1  0
 53 52  2  0
 55 66  2  0
 56 54  1  0
 56 61  1  0
 57 65  1  0
 57 67  1  0
 58 64  1  0
 58 60  1  0
 59 65  1  0
 60 61  2  0
 60 59  1  0
 62 56  2  0
 63 62  1  0
 63 58  2  0
 64 57  1  0
 65 55  1  0
 67 69  2  0
 68 67  1  0
 70 68  1  0
 71 80  2  0
 71 76  1  0
 72 68  1  0
 72 76  1  0
 73 72  1  0
 74 75  1  0
 74 73  1  0
 75 71  1  0
 76 77  2  0
 77 78  1  0
 79 78  2  0
 80 79  1  0
 81 55  1  0
 81 82  1  0
 81 91  1  0
 82 85  1  0
 83 87  1  0
 83 82  1  0
 84 83  2  0
 87 86  1  0
 89 87  1  0
 89 90  1  0
 89 88  1  0
 91 94  1  1
 91 92  1  0
 93 91  1  0
M  ISO  4   7 100  10 100  53 101  54 101
M  END
>  <TORSDO>  (41) 
F 22

>  <SCORE>  (41) 
-13.203

>  <name>  (41) 
40

>  <ligand_id>  (41) 
40

>  <original_smiles>  (41) 
[H]N=C(C(=O)N1C([H])([H])C([H])([H])C([H])([H])C([H])(n2nc(-c3c([H])c([H])c(Oc4c([H])c([H])c(F)c([H])c4F)c([H])c3[H])c(C(=O)N([H])[H])c2N([H])[H])C1([H])[H])c1c([H])c([H])c(N([H])[H])c(N([H])C([H])([H])C([H])([H])C([H])([H])Oc2c([H])c([H])c3c(c2[H])C([H])([H])N(C(=O)C([H])(N([H])C(=O)C([H])(N([H])C([H])([H])[H])C([H])([H])[H])C(C([H])([H])[H])(C([H])([H])[H])C([H])([H])[H])C([H])(C(=O)N([H])C2([H])c4c([H])c([H])c([H])c([H])c4C([H])([H])C([H])([H])C2([H])[H])C3([H])[H])c1[H]

>  <smiles>  (41) 
[H]N=C(C(=O)N1C([H])([H])C([H])([H])C([H])([H])C([H])(n2nc(-c3c([H])c([H])c(Oc4c([H])c([H])c(F)c([H])c4F)c([H])c3[H])c(C(=O)N([H])[H])c2N([H])[H])C1([H])[H])c1c([H])c([H])c(N([H])[H])c(N([H])C([H])([H])C([H])([H])C([H])([H])Oc2c([H])c([H])c3c(c2[H])C([H])([H])N(C(=O)C([H])(N([H])C(=O)C([H])(N([H])C([H])([H])[H])C([H])([H])[H])C(C([H])([H])[H])(C([H])([H])[H])C([H])([H])[H])C([H])(C(=O)N([H])C2([H])c4c([H])c([H])c([H])c([H])c4C([H])([H])C([H])([H])C2([H])[H])C3([H])[H])c1[H]

$$$$
41:0:0
     RDKit          3D

 94102  0  0  1  0  0  0  0  0999 V2000
  -31.0640  -19.1650   19.9810 C   0  0  0  0  0  3  0  0  0  0  0  0
  -30.5040  -20.4140   19.6510 C   0  0  0  0  0  3  0  0  0  0  0  0
  -28.8580  -18.1620   20.0520 C   0  0  0  0  0  3  0  0  0  0  0  0
  -30.2580  -18.0250   20.1940 C   0  0  0  0  0  0  0  0  0  0  0  0
  -28.2930  -19.4240   19.7320 C   0  0  0  0  0  0  0  0  0  0  0  0
  -29.1020  -20.5750   19.5330 C   0  0  0  0  0  0  0  0  0  0  0  0
  -30.9570  -14.3990   20.2250 C   0  0  0  0  0  0  0  0  0  0  0  0
  -30.5740  -12.1300   19.3360 C   0  0  0  0  0  2  0  0  0  0  0  0
  -29.6530  -12.1920   18.1030 C   0  0  0  0  0  2  0  0  0  0  0  0
  -28.1780  -12.1210   18.5400 C   0  0  0  0  0  2  0  0  0  0  0  0
  -27.8380  -13.1140   19.6840 C   0  0  0  0  0  3  0  0  0  0  0  0
  -28.8890  -13.0640   20.8160 C   0  0  0  0  0  2  0  0  0  0  0  0
  -30.2080  -13.2600   20.2050 N   0  0  0  0  0  0  0  0  0  0  0  0
  -32.1230  -14.3910   19.8200 O   0  0  0  0  0  0  0  0  0  0  0  0
  -30.9320  -16.7530   20.6570 C   0  0  0  0  0  0  0  0  0  0  0  0
  -30.3110  -15.5630   20.4810 N   0  0  0  0  0  0  0  0  0  0  0  0
  -32.0740  -16.8600   21.1200 O   0  0  0  0  0  0  0  0  0  0  0  0
  -29.3100  -15.5640   20.4000 H   0  0  0  0  0  0  0  0  0  0  0  0
  -25.4910  -13.8350   20.4430 C   0  0  0  0  0  0  0  0  0  0  0  0
  -24.3910  -13.1170   20.8240 C   0  0  0  0  0  0  0  0  0  0  0  0
  -24.7810  -11.7430   20.7810 C   0  0  0  0  0  0  0  0  0  0  0  0
  -26.4840  -12.9030   20.1900 N   0  0  0  0  0  0  0  0  0  0  0  0
  -26.0630  -11.6400   20.4540 N   0  0  0  0  0  0  0  0  0  0  0  0
  -23.9920  -10.5190   20.9740 C   0  0  0  0  0  0  0  0  0  0  0  0
  -24.3990   -9.5130   21.8790 C   0  0  0  0  0  3  0  0  0  0  0  0
  -23.6150   -8.3550   22.0620 C   0  0  0  0  0  3  0  0  0  0  0  0
  -22.4080   -8.1930   21.3410 C   0  0  0  0  0  0  0  0  0  0  0  0
  -22.0190   -9.1860   20.4240 C   0  0  0  0  0  3  0  0  0  0  0  0
  -22.8050  -10.3370   20.2390 C   0  0  0  0  0  3  0  0  0  0  0  0
  -21.5950   -7.0900   21.4340 O   0  0  0  0  0  0  0  0  0  0  0  0
  -21.5690   -6.3090   22.5620 C   0  0  0  0  0  0  0  0  0  0  0  0
  -21.2250   -6.8360   23.8260 C   0  0  0  0  0  3  0  0  0  0  0  0
  -21.1440   -5.9840   24.9460 C   0  0  0  0  0  3  0  0  0  0  0  0
  -21.3950   -4.6060   24.8030 C   0  0  0  0  0  0  0  0  0  0  0  0
  -21.7310   -4.0790   23.5440 C   0  0  0  0  0  3  0  0  0  0  0  0
  -21.8150   -4.9280   22.4260 C   0  0  0  0  0  0  0  0  0  0  0  0
  -22.1180   -4.4100   21.2110 F   0  0  0  0  0  0  0  0  0  0  0  0
  -21.3090   -3.7860   25.8760 F   0  0  0  0  0  0  0  0  0  0  0  0
  -23.0240  -13.6640   21.1160 C   0  0  0  0  0  0  0  0  0  0  0  0
  -22.2750  -13.0060   21.9950 N   0  0  0  0  0  0  0  0  0  0  0  0
  -22.6300  -14.7100   20.6010 O   0  0  0  0  0  0  0  0  0  0  0  0
  -22.6070  -12.1600   22.4340 H   0  0  0  0  0  0  0  0  0  0  0  0
  -21.3580  -13.3560   22.2340 H   0  0  0  0  0  0  0  0  0  0  0  0
  -25.7230  -15.1960   20.2650 N   0  0  0  0  0  0  0  0  0  0  0  0
  -24.9870  -15.8820   20.3830 H   0  0  0  0  0  0  0  0  0  0  0  0
  -26.5740  -15.5910   19.8860 H   0  0  0  0  0  0  0  0  0  0  0  0
  -26.9110  -19.5480   19.6210 N   0  0  0  0  0  0  0  0  0  0  0  0
  -26.3660  -18.7200   19.4040 H   0  0  0  0  0  0  0  0  0  0  0  0
  -26.5780  -20.3820   19.1450 H   0  0  0  0  0  0  0  0  0  0  0  0
  -28.4920  -21.7960   19.2430 O   0  0  0  0  0  0  0  0  0  0  0  0
  -29.3440  -22.9180   18.9560 C   0  0  0  0  0  2  0  0  0  0  0  0
  -28.6240  -24.2700   18.7070 C   0  0  0  0  0  2  0  0  0  0  0  0
  -28.3000  -25.1150   19.9620 C   0  0  0  0  0  2  0  0  0  0  0  0
  -28.3890  -26.5370   19.7300 O   0  0  0  0  0  0  0  0  0  0  0  0
  -24.5310  -31.5150   23.0500 C   0  0  0  0  0  0  0  0  0  0  0  0
  -27.2160  -27.2590   19.7540 C   0  0  0  0  0  0  0  0  0  0  0  0
  -23.3470  -30.2070   21.3180 C   0  0  0  0  0  3  0  0  0  0  0  0
  -24.8190  -28.7580   19.8220 C   0  0  0  0  0  0  0  0  0  0  0  0
  -25.8720  -30.5870   21.1630 C   0  0  0  0  0  2  0  0  0  0  0  0
  -25.9700  -29.2560   20.4440 C   0  0  0  0  0  0  0  0  0  0  0  0
  -27.1750  -28.5170   20.4000 C   0  0  0  0  0  3  0  0  0  0  0  0
  -26.0470  -26.7750   19.1290 C   0  0  0  0  0  3  0  0  0  0  0  0
  -24.8530  -27.5190   19.1590 C   0  0  0  0  0  3  0  0  0  0  0  0
  -23.5710  -29.6100   19.9020 C   0  0  0  0  0  2  0  0  0  0  0  0
  -24.6010  -30.7810   21.9040 N   0  0  0  0  0  0  0  0  0  0  0  0
  -23.4440  -31.7510   23.5950 O   0  0  0  0  0  0  0  0  0  0  0  0
  -22.6920  -29.1300   22.2100 C   0  0  0  0  0  0  0  0  0  0  0  0
  -21.3610  -28.9840   22.0960 N   0  0  0  0  0  0  0  0  0  0  0  0
  -23.3760  -28.4290   22.9620 O   0  0  0  0  0  0  0  0  0  0  0  0
  -20.8710  -29.6030   21.4650 H   0  0  0  0  0  0  0  0  0  0  0  0
  -17.9640  -27.8710   22.6190 C   0  0  0  0  0  0  0  0  0  0  0  0
  -20.5380  -28.0070   22.8080 C   0  0  0  0  0  3  0  0  0  0  0  0
  -20.5610  -26.6340   22.0950 C   0  0  0  0  0  2  0  0  0  0  0  0
  -19.4090  -26.4510   21.1020 C   0  0  0  0  0  2  0  0  0  0  0  0
  -18.0600  -26.5850   21.8140 C   0  0  0  0  0  2  0  0  0  0  0  0
  -19.1280  -28.5460   23.0720 C   0  0  0  0  0  0  0  0  0  0  0  0
  -18.9840  -29.7560   23.7860 C   0  0  0  0  0  3  0  0  0  0  0  0
  -17.7090  -30.2880   24.0510 C   0  0  0  0  0  3  0  0  0  0  0  0
  -16.5590  -29.6070   23.6150 C   0  0  0  0  0  3  0  0  0  0  0  0
  -16.6870  -28.4000   22.9040 C   0  0  0  0  0  3  0  0  0  0  0  0
  -25.8090  -32.1140   23.7180 C   0  0  0  0  0  3  0  0  0  0  0  0
  -25.5080  -33.5060   24.0770 N   0  0  0  0  0  0  0  0  0  0  0  0
  -25.8790  -34.5730   23.3580 C   0  0  0  0  0  0  0  0  0  0  0  0
  -26.5820  -34.4890   22.3480 O   0  0  0  0  0  0  0  0  0  0  0  0
  -24.8900  -33.6470   24.8630 H   0  0  0  0  0  0  0  0  0  0  0  0
  -24.1800  -36.3940   23.0040 C   0  0  0  0  0  1  0  0  0  0  0  0
  -25.3950  -35.9560   23.8370 C   0  0  0  0  0  3  0  0  0  0  0  0
  -27.5120  -36.8000   24.7510 C   0  0  0  0  0  1  0  0  0  0  0  0
  -26.4410  -37.0000   23.7780 N   0  0  0  0  0  0  0  0  0  0  0  0
  -26.0390  -37.9200   23.9340 H   0  0  0  0  0  0  0  0  0  0  0  0
  -26.2880  -31.3020   24.9840 C   0  0  1  0  0  0  0  0  0  0  0  0
  -25.1710  -31.0580   26.0260 C   0  0  0  0  0  1  0  0  0  0  0  0
  -26.8540  -29.9250   24.5660 C   0  0  0  0  0  1  0  0  0  0  0  0
  -27.4380  -32.0590   25.6880 C   0  0  0  0  0  1  0  0  0  0  0  0
  1  4  1  0
  2  1  2  0
  3  4  2  0
  4 15  1  0
  5  3  1  0
  6  2  1  0
  6  5  2  0
  7 16  1  0
  8 13  1  0
  9 10  1  0
  9  8  1  0
 11 10  1  0
 11 22  1  0
 11 12  1  0
 13  7  1  0
 13 12  1  0
 14  7  2  0
 15 17  2  0
 16 15  1  0
 18 16  1  0
 19 20  2  0
 20 39  1  0
 21 20  1  0
 21 24  1  0
 22 19  1  0
 22 23  1  0
 23 21  2  0
 24 25  1  0
 25 26  2  0
 27 30  1  0
 27 26  1  0
 28 27  2  0
 29 28  1  0
 29 24  2  0
 30 31  1  0
 31 32  1  0
 32 33  2  0
 34 33  1  0
 34 38  1  0
 35 34  2  0
 36 31  2  0
 36 35  1  0
 37 36  1  0
 39 40  1  0
 40 43  1  0
 40 42  1  0
 41 39  2  0
 44 45  1  0
 44 19  1  0
 46 44  1  0
 47  5  1  0
 48 47  1  0
 49 47  1  0
 50  6  1  0
 51 50  1  0
 52 51  1  0
 52 53  1  0
 54 56  1  0
 54 53  1  0
 55 66  2  0
 56 61  1  0
 57 65  1  0
 57 67  1  0
 58 64  1  0
 58 60  1  0
 59 65  1  0
 60 59  1  0
 61 60  2  0
 62 63  1  0
 62 56  2  0
 63 58  2  0
 64 57  1  0
 65 55  1  0
 67 69  2  0
 68 67  1  0
 70 68  1  0
 71 80  2  0
 71 76  1  0
 72 68  1  0
 72 76  1  0
 73 72  1  0
 74 75  1  0
 74 73  1  0
 75 71  1  0
 76 77  2  0
 77 78  1  0
 79 78  2  0
 80 79  1  0
 81 55  1  0
 81 82  1  0
 81 91  1  0
 82 85  1  0
 83 87  1  0
 83 82  1  0
 84 83  2  0
 87 86  1  0
 89 87  1  0
 89 90  1  0
 89 88  1  0
 91 94  1  1
 91 92  1  0
 93 91  1  0
M  ISO  4   7 100  16 100  53 101  54 101
M  END
>  <TORSDO>  (42) 
F 21

>  <SCORE>  (42) 
-13.234

>  <name>  (42) 
41

>  <ligand_id>  (42) 
41

>  <original_smiles>  (42) 
[H]c1c([H])c([H])c2c(c1[H])C([H])([H])C([H])([H])C([H])([H])C2([H])N([H])C(=O)C1([H])N(C(=O)C([H])(N([H])C(=O)C([H])(N([H])C([H])([H])[H])C([H])([H])[H])C(C([H])([H])[H])(C([H])([H])[H])C([H])([H])[H])C([H])([H])c2c([H])c(OC([H])([H])C([H])([H])C([H])([H])Oc3c([H])c([H])c(C(=O)N([H])C(=O)N4C([H])([H])C([H])([H])C([H])([H])C([H])(n5nc(-c6c([H])c([H])c(Oc7c([H])c([H])c(F)c([H])c7F)c([H])c6[H])c(C(=O)N([H])[H])c5N([H])[H])C4([H])[H])c([H])c3N([H])[H])c([H])c([H])c2C1([H])[H]

>  <smiles>  (42) 
[H]c1c([H])c([H])c2c(c1[H])C([H])([H])C([H])([H])C([H])([H])C2([H])N([H])C(=O)C1([H])N(C(=O)C([H])(N([H])C(=O)C([H])(N([H])C([H])([H])[H])C([H])([H])[H])C(C([H])([H])[H])(C([H])([H])[H])C([H])([H])[H])C([H])([H])c2c([H])c(OC([H])([H])C([H])([H])C([H])([H])Oc3c([H])c([H])c(C(=O)N([H])C(=O)N4C([H])([H])C([H])([H])C([H])([H])C([H])(n5nc(-c6c([H])c([H])c(Oc7c([H])c([H])c(F)c([H])c7F)c([H])c6[H])c(C(=O)N([H])[H])c5N([H])[H])C4([H])[H])c([H])c3N([H])[H])c([H])c([H])c2C1([H])[H]

$$$$
42:0:0
     RDKit          3D

 95104  0  0  1  0  0  0  0  0999 V2000
  -30.1240  -21.1100   21.4770 C   0  0  0  0  0  0  0  0  0  0  0  0
  -31.2430  -23.1180   18.8230 C   0  0  0  0  0  2  0  0  0  0  0  0
  -30.2540  -24.2990   18.8000 C   0  0  0  0  0  2  0  0  0  0  0  0
  -30.5160  -21.7920   19.1220 C   0  0  0  0  0  2  0  0  0  0  0  0
  -28.8600  -22.9930   20.4890 C   0  0  0  0  0  2  0  0  0  0  0  0
  -29.4050  -24.3930   20.0900 C   0  0  0  0  0  3  0  0  0  0  0  0
  -29.8570  -21.9120   20.4230 N   0  0  0  0  0  0  0  0  0  0  0  0
  -30.1280  -21.5180   22.6420 O   0  0  0  0  0  0  0  0  0  0  0  0
  -31.3090  -18.8720   21.7290 C   0  0  0  0  0  3  0  0  0  0  0  0
  -31.3000  -17.4590   21.6550 C   0  0  0  0  0  3  0  0  0  0  0  0
  -29.1410  -18.9480   20.6180 C   0  0  0  0  0  3  0  0  0  0  0  0
  -30.2230  -19.6260   21.2240 C   0  0  0  0  0  0  0  0  0  0  0  0
  -30.1890  -16.7890   21.0940 C   0  0  0  0  0  0  0  0  0  0  0  0
  -29.1170  -17.5390   20.5700 C   0  0  0  0  0  0  0  0  0  0  0  0
  -28.0420  -16.9020   20.0430 F   0  0  0  0  0  0  0  0  0  0  0  0
  -30.6800  -14.5010   20.3370 C   0  0  0  0  0  0  0  0  0  0  0  0
  -30.3450  -12.4140   19.0600 C   0  0  0  0  0  2  0  0  0  0  0  0
  -29.3500  -12.6650   17.9080 C   0  0  0  0  0  2  0  0  0  0  0  0
  -27.8920  -12.5120   18.3910 C   0  0  0  0  0  2  0  0  0  0  0  0
  -27.6060  -13.2910   19.7040 C   0  0  0  0  0  3  0  0  0  0  0  0
  -28.7000  -12.9920   20.7530 C   0  0  0  0  0  2  0  0  0  0  0  0
  -30.0090  -13.3310   20.1590 N   0  0  0  0  0  0  0  0  0  0  0  0
  -31.7460  -14.7630   19.7690 O   0  0  0  0  0  0  0  0  0  0  0  0
  -30.0620  -15.3770   21.1400 N   0  0  0  0  0  0  0  0  0  0  0  0
  -29.1810  -15.0390   21.4970 H   0  0  0  0  0  0  0  0  0  0  0  0
  -25.2330  -13.8820   20.5150 C   0  0  0  0  0  0  0  0  0  0  0  0
  -24.1770  -13.1000   20.9030 C   0  0  0  0  0  0  0  0  0  0  0  0
  -24.6340  -11.7500   20.8200 C   0  0  0  0  0  0  0  0  0  0  0  0
  -26.2680  -13.0070   20.2210 N   0  0  0  0  0  0  0  0  0  0  0  0
  -25.9110  -11.7180   20.4580 N   0  0  0  0  0  0  0  0  0  0  0  0
  -23.9160  -10.4820   21.0090 C   0  0  0  0  0  0  0  0  0  0  0  0
  -24.3570   -9.5150   21.9390 C   0  0  0  0  0  3  0  0  0  0  0  0
  -23.6390   -8.3120   22.1150 C   0  0  0  0  0  3  0  0  0  0  0  0
  -22.4660   -8.0680   21.3610 C   0  0  0  0  0  0  0  0  0  0  0  0
  -22.0430   -9.0260   20.4230 C   0  0  0  0  0  3  0  0  0  0  0  0
  -22.7620  -10.2200   20.2440 C   0  0  0  0  0  3  0  0  0  0  0  0
  -21.7200   -6.9180   21.4450 O   0  0  0  0  0  0  0  0  0  0  0  0
  -21.6380   -6.1960   22.6080 C   0  0  0  0  0  0  0  0  0  0  0  0
  -21.1330   -6.7590   23.8010 C   0  0  0  0  0  3  0  0  0  0  0  0
  -21.0020   -5.9600   24.9550 C   0  0  0  0  0  3  0  0  0  0  0  0
  -21.3650   -4.6010   24.9170 C   0  0  0  0  0  0  0  0  0  0  0  0
  -21.8660   -4.0390   23.7300 C   0  0  0  0  0  3  0  0  0  0  0  0
  -21.9990   -4.8330   22.5780 C   0  0  0  0  0  0  0  0  0  0  0  0
  -22.4600   -4.2800   21.4310 F   0  0  0  0  0  0  0  0  0  0  0  0
  -21.2330   -3.8330   26.0250 F   0  0  0  0  0  0  0  0  0  0  0  0
  -22.7900  -13.5710   21.2390 C   0  0  0  0  0  0  0  0  0  0  0  0
  -22.0890  -12.8510   22.1080 N   0  0  0  0  0  0  0  0  0  0  0  0
  -22.3360  -14.6120   20.7690 O   0  0  0  0  0  0  0  0  0  0  0  0
  -22.4650  -12.0090   22.5180 H   0  0  0  0  0  0  0  0  0  0  0  0
  -21.1610  -13.1520   22.3710 H   0  0  0  0  0  0  0  0  0  0  0  0
  -25.3940  -15.2570   20.3750 N   0  0  0  0  0  0  0  0  0  0  0  0
  -24.6440  -15.9120   20.5680 H   0  0  0  0  0  0  0  0  0  0  0  0
  -26.2620  -15.7130   20.1100 H   0  0  0  0  0  0  0  0  0  0  0  0
  -28.1920  -25.3340   19.8990 C   0  0  0  0  0  2  0  0  0  0  0  0
  -28.3800  -26.7370   20.1370 O   0  0  0  0  0  0  0  0  0  0  0  0
  -24.6030  -31.9260   23.2790 C   0  0  0  0  0  0  0  0  0  0  0  0
  -27.2110  -27.4870   20.1420 C   0  0  0  0  0  0  0  0  0  0  0  0
  -23.3850  -30.5410   21.6360 C   0  0  0  0  0  3  0  0  0  0  0  0
  -24.8230  -29.0180   20.1940 C   0  0  0  0  0  0  0  0  0  0  0  0
  -25.9150  -30.8880   21.4300 C   0  0  0  0  0  2  0  0  0  0  0  0
  -25.9910  -29.5220   20.7780 C   0  0  0  0  0  0  0  0  0  0  0  0
  -27.1900  -28.7660   20.7490 C   0  0  0  0  0  3  0  0  0  0  0  0
  -26.0100  -27.0080   19.5570 C   0  0  0  0  0  3  0  0  0  0  0  0
  -24.8270  -27.7590   19.5810 C   0  0  0  0  0  3  0  0  0  0  0  0
  -23.5850  -29.8820   20.2480 C   0  0  0  0  0  2  0  0  0  0  0  0
  -24.6530  -31.1300   22.1730 N   0  0  0  0  0  0  0  0  0  0  0  0
  -23.5240  -32.1990   23.8230 O   0  0  0  0  0  0  0  0  0  0  0  0
  -22.7340  -29.5110   22.5890 C   0  0  0  0  0  0  0  0  0  0  0  0
  -21.4100  -29.3240   22.4550 N   0  0  0  0  0  0  0  0  0  0  0  0
  -23.4160  -28.8870   23.4060 O   0  0  0  0  0  0  0  0  0  0  0  0
  -20.9220  -29.8800   21.7680 H   0  0  0  0  0  0  0  0  0  0  0  0
  -18.0360  -28.1290   22.9450 C   0  0  0  0  0  0  0  0  0  0  0  0
  -20.5940  -28.3820   23.2200 C   0  0  0  0  0  3  0  0  0  0  0  0
  -20.6960  -26.9540   22.6380 C   0  0  0  0  0  2  0  0  0  0  0  0
  -19.5940  -26.6360   21.6220 C   0  0  0  0  0  2  0  0  0  0  0  0
  -18.2110  -26.7810   22.2660 C   0  0  0  0  0  2  0  0  0  0  0  0
  -19.1550  -28.8870   23.3800 C   0  0  0  0  0  0  0  0  0  0  0  0
  -18.9380  -30.1490   23.9760 C   0  0  0  0  0  3  0  0  0  0  0  0
  -17.6330  -30.6520   24.1420 C   0  0  0  0  0  3  0  0  0  0  0  0
  -16.5280  -29.8900   23.7240 C   0  0  0  0  0  3  0  0  0  0  0  0
  -16.7300  -28.6310   23.1310 C   0  0  0  0  0  3  0  0  0  0  0  0
  -25.8940  -32.5490   23.8950 C   0  0  0  0  0  3  0  0  0  0  0  0
  -25.5940  -33.9470   24.2260 N   0  0  0  0  0  0  0  0  0  0  0  0
  -25.9110  -34.9960   23.4550 C   0  0  0  0  0  0  0  0  0  0  0  0
  -26.5580  -34.8870   22.4090 O   0  0  0  0  0  0  0  0  0  0  0  0
  -25.0230  -34.1080   25.0430 H   0  0  0  0  0  0  0  0  0  0  0  0
  -24.1710  -36.7810   23.1290 C   0  0  0  0  0  1  0  0  0  0  0  0
  -25.4330  -36.3860   23.9140 C   0  0  0  0  0  3  0  0  0  0  0  0
  -27.5820  -37.2820   24.6940 C   0  0  0  0  0  1  0  0  0  0  0  0
  -26.4620  -37.4390   23.7700 N   0  0  0  0  0  0  0  0  0  0  0  0
  -26.0570  -38.3600   23.9160 H   0  0  0  0  0  0  0  0  0  0  0  0
  -26.4130  -31.7700   25.1660 C   0  0  1  0  0  0  0  0  0  0  0  0
  -25.3200  -31.5230   26.2320 C   0  0  0  0  0  1  0  0  0  0  0  0
  -26.9970  -30.3950   24.7610 C   0  0  0  0  0  1  0  0  0  0  0  0
  -27.5630  -32.5620   25.8300 C   0  0  0  0  0  1  0  0  0  0  0  0
  1  8  2  0
  2  4  1  0
  3  2  1  0
  3  6  1  0
  4  7  1  0
  6 54  1  0
  6  5  1  0
  7  5  1  0
  7  1  1  0
 10  9  1  0
 11 12  1  0
 12  1  1  0
 12  9  2  0
 13 24  1  0
 13 10  2  0
 14 11  2  0
 14 13  1  0
 15 14  1  0
 16 24  1  0
 17 22  1  0
 18 19  1  0
 18 17  1  0
 20 19  1  0
 20 29  1  0
 20 21  1  0
 22 16  1  0
 22 21  1  0
 23 16  2  0
 24 25  1  0
 26 27  2  0
 27 46  1  0
 28 27  1  0
 28 31  1  0
 29 30  1  0
 29 26  1  0
 30 28  2  0
 31 32  1  0
 32 33  2  0
 34 37  1  0
 34 33  1  0
 35 34  2  0
 36 35  1  0
 36 31  2  0
 37 38  1  0
 38 39  1  0
 39 40  2  0
 41 40  1  0
 41 45  1  0
 42 41  2  0
 43 38  2  0
 43 42  1  0
 44 43  1  0
 46 47  1  0
 47 50  1  0
 47 49  1  0
 48 46  2  0
 51 26  1  0
 51 52  1  0
 53 51  1  0
 54 55  1  0
 55 57  1  0
 56 67  2  0
 57 62  1  0
 58 66  1  0
 58 68  1  0
 59 65  1  0
 59 61  1  0
 60 66  1  0
 61 60  1  0
 62 61  2  0
 63 64  1  0
 63 57  2  0
 64 59  2  0
 65 58  1  0
 66 56  1  0
 68 70  2  0
 69 68  1  0
 71 69  1  0
 72 81  2  0
 72 77  1  0
 73 69  1  0
 73 77  1  0
 74 73  1  0
 75 76  1  0
 75 74  1  0
 76 72  1  0
 77 78  2  0
 78 79  1  0
 80 79  2  0
 81 80  1  0
 82 56  1  0
 82 83  1  0
 82 92  1  0
 83 86  1  0
 84 88  1  0
 84 83  1  0
 85 84  2  0
 88 87  1  0
 90 88  1  0
 90 91  1  0
 90 89  1  0
 92 95  1  1
 92 93  1  0
 94 92  1  0
M  ISO  4  16 100  24 100  54 101  55 101
M  END
>  <TORSDO>  (43) 
F 18

>  <SCORE>  (43) 
-15.202

>  <name>  (43) 
42

>  <ligand_id>  (43) 
42

>  <original_smiles>  (43) 
[H]c1c([H])c([H])c2c(c1[H])C([H])([H])C([H])([H])C([H])([H])C2([H])N([H])C(=O)C1([H])N(C(=O)C([H])(N([H])C(=O)C([H])(N([H])C([H])([H])[H])C([H])([H])[H])C(C([H])([H])[H])(C([H])([H])[H])C([H])([H])[H])C([H])([H])c2c([H])c(OC([H])([H])C3([H])C([H])([H])N(C(=O)c4c([H])c([H])c(N([H])C(=O)N5C([H])([H])C([H])([H])C([H])([H])C([H])(n6nc(-c7c([H])c([H])c(Oc8c([H])c([H])c(F)c([H])c8F)c([H])c7[H])c(C(=O)N([H])[H])c6N([H])[H])C5([H])[H])c(F)c4[H])C([H])([H])C([H])([H])C3([H])[H])c([H])c([H])c2C1([H])[H]

>  <smiles>  (43) 
[H]c1c([H])c([H])c2c(c1[H])C([H])([H])C([H])([H])C([H])([H])C2([H])N([H])C(=O)C1([H])N(C(=O)C([H])(N([H])C(=O)C([H])(N([H])C([H])([H])[H])C([H])([H])[H])C(C([H])([H])[H])(C([H])([H])[H])C([H])([H])[H])C([H])([H])c2c([H])c(OC([H])([H])C3([H])C([H])([H])N(C(=O)c4c([H])c([H])c(N([H])C(=O)N5C([H])([H])C([H])([H])C([H])([H])C([H])(n6nc(-c7c([H])c([H])c(Oc8c([H])c([H])c(F)c([H])c8F)c([H])c7[H])c(C(=O)N([H])[H])c6N([H])[H])C5([H])[H])c(F)c4[H])C([H])([H])C([H])([H])C3([H])[H])c([H])c([H])c2C1([H])[H]

$$$$
43:0:0
     RDKit          3D

 91 99  0  0  1  0  0  0  0  0999 V2000
  -29.9850  -21.5170   20.3810 N   0  0  0  0  0  0  0  0  0  0  0  0
  -30.9240  -21.8730   20.2140 H   0  0  0  0  0  0  0  0  0  0  0  0
  -28.6940  -17.9310   20.6820 C   0  0  0  0  0  3  0  0  0  0  0  0
  -28.6950  -19.3560   20.5990 C   0  0  0  0  0  3  0  0  0  0  0  0
  -31.0860  -17.8870   20.4190 C   0  0  0  0  0  3  0  0  0  0  0  0
  -29.8820  -17.1540   20.5930 C   0  0  0  0  0  0  0  0  0  0  0  0
  -29.8980  -20.0860   20.4350 C   0  0  0  0  0  0  0  0  0  0  0  0
  -31.0910  -19.3120   20.3480 C   0  0  0  0  0  0  0  0  0  0  0  0
  -32.2750  -19.9560   20.1940 F   0  0  0  0  0  0  0  0  0  0  0  0
  -30.5780  -14.6640   20.2900 C   0  0  0  0  0  0  0  0  0  0  0  0
  -30.3420  -12.4480   19.1880 C   0  0  0  0  0  2  0  0  0  0  0  0
  -29.3700  -12.6050   17.9980 C   0  0  0  0  0  2  0  0  0  0  0  0
  -27.9050  -12.4440   18.4550 C   0  0  0  0  0  2  0  0  0  0  0  0
  -27.5780  -13.2850   19.7170 C   0  0  0  0  0  3  0  0  0  0  0  0
  -28.6600  -13.0970   20.8050 C   0  0  0  0  0  2  0  0  0  0  0  0
  -29.9600  -13.4440   20.2090 N   0  0  0  0  0  0  0  0  0  0  0  0
  -31.7260  -14.8320   19.8680 O   0  0  0  0  0  0  0  0  0  0  0  0
  -29.7800  -15.6970   20.7020 N   0  0  0  0  0  0  0  0  0  0  0  0
  -28.8820  -15.3700   21.0220 H   0  0  0  0  0  0  0  0  0  0  0  0
  -25.2020  -13.8850   20.4900 C   0  0  0  0  0  0  0  0  0  0  0  0
  -24.1400  -13.1110   20.8730 C   0  0  0  0  0  0  0  0  0  0  0  0
  -24.5960  -11.7590   20.8150 C   0  0  0  0  0  0  0  0  0  0  0  0
  -26.2380  -13.0040   20.2230 N   0  0  0  0  0  0  0  0  0  0  0  0
  -25.8790  -11.7200   20.4790 N   0  0  0  0  0  0  0  0  0  0  0  0
  -23.8690  -10.4970   21.0050 C   0  0  0  0  0  0  0  0  0  0  0  0
  -24.3010   -9.5290   21.9370 C   0  0  0  0  0  3  0  0  0  0  0  0
  -23.5750   -8.3310   22.1140 C   0  0  0  0  0  3  0  0  0  0  0  0
  -22.4030   -8.0940   21.3580 C   0  0  0  0  0  0  0  0  0  0  0  0
  -21.9900   -9.0500   20.4140 C   0  0  0  0  0  3  0  0  0  0  0  0
  -22.7170  -10.2390   20.2350 C   0  0  0  0  0  3  0  0  0  0  0  0
  -21.6490   -6.9490   21.4440 O   0  0  0  0  0  0  0  0  0  0  0  0
  -21.5720   -6.2220   22.6060 C   0  0  0  0  0  0  0  0  0  0  0  0
  -21.0960   -6.7890   23.8080 C   0  0  0  0  0  3  0  0  0  0  0  0
  -20.9690   -5.9890   24.9600 C   0  0  0  0  0  3  0  0  0  0  0  0
  -21.3060   -4.6230   24.9110 C   0  0  0  0  0  0  0  0  0  0  0  0
  -21.7760   -4.0560   23.7140 C   0  0  0  0  0  3  0  0  0  0  0  0
  -21.9050   -4.8530   22.5630 C   0  0  0  0  0  0  0  0  0  0  0  0
  -22.3380   -4.2970   21.4060 F   0  0  0  0  0  0  0  0  0  0  0  0
  -21.1760   -3.8520   26.0170 F   0  0  0  0  0  0  0  0  0  0  0  0
  -22.7490  -13.5900   21.1790 C   0  0  0  0  0  0  0  0  0  0  0  0
  -22.0380  -12.8870   22.0550 N   0  0  0  0  0  0  0  0  0  0  0  0
  -22.3040  -14.6220   20.6790 O   0  0  0  0  0  0  0  0  0  0  0  0
  -22.4120  -12.0530   22.4820 H   0  0  0  0  0  0  0  0  0  0  0  0
  -21.1080  -13.1900   22.3030 H   0  0  0  0  0  0  0  0  0  0  0  0
  -25.3670  -15.2570   20.3240 N   0  0  0  0  0  0  0  0  0  0  0  0
  -24.5950  -15.9060   20.4400 H   0  0  0  0  0  0  0  0  0  0  0  0
  -26.1900  -15.6910   19.9260 H   0  0  0  0  0  0  0  0  0  0  0  0
  -28.8630  -22.4860   20.2180 C   0  0  0  0  0  2  0  0  0  0  0  0
  -29.2510  -24.0300   20.3110 C   0  0  0  0  0  3  0  0  0  0  0  0
  -28.1050  -25.0750   19.9820 C   0  0  0  0  0  3  0  0  0  0  0  0
  -28.3290  -26.5250   20.1750 O   0  0  0  0  0  0  0  0  0  0  0  0
  -24.5980  -31.8820   23.2390 C   0  0  0  0  0  0  0  0  0  0  0  0
  -27.2040  -27.3640   20.1320 C   0  0  0  0  0  0  0  0  0  0  0  0
  -23.3880  -30.5000   21.5900 C   0  0  0  0  0  3  0  0  0  0  0  0
  -24.8340  -28.9670   20.1460 C   0  0  0  0  0  0  0  0  0  0  0  0
  -25.9270  -30.8230   21.4030 C   0  0  0  0  0  2  0  0  0  0  0  0
  -26.0050  -29.4520   20.7420 C   0  0  0  0  0  0  0  0  0  0  0  0
  -27.1920  -28.6630   20.7260 C   0  0  0  0  0  3  0  0  0  0  0  0
  -26.0060  -26.9320   19.5140 C   0  0  0  0  0  3  0  0  0  0  0  0
  -24.8360  -27.7110   19.5250 C   0  0  0  0  0  3  0  0  0  0  0  0
  -23.5990  -29.8390   20.2030 C   0  0  0  0  0  2  0  0  0  0  0  0
  -24.6570  -31.0840   22.1340 N   0  0  0  0  0  0  0  0  0  0  0  0
  -23.5150  -32.1560   23.7790 O   0  0  0  0  0  0  0  0  0  0  0  0
  -22.7280  -29.4730   22.5400 C   0  0  0  0  0  0  0  0  0  0  0  0
  -21.4020  -29.2980   22.4140 N   0  0  0  0  0  0  0  0  0  0  0  0
  -23.4080  -28.8380   23.3510 O   0  0  0  0  0  0  0  0  0  0  0  0
  -20.9130  -29.8630   21.7330 H   0  0  0  0  0  0  0  0  0  0  0  0
  -18.0210  -28.1200   22.9230 C   0  0  0  0  0  0  0  0  0  0  0  0
  -20.5830  -28.3570   23.1790 C   0  0  0  0  0  3  0  0  0  0  0  0
  -20.6700  -26.9320   22.5840 C   0  0  0  0  0  2  0  0  0  0  0  0
  -19.5590  -26.6310   21.5740 C   0  0  0  0  0  2  0  0  0  0  0  0
  -18.1830  -26.7770   22.2290 C   0  0  0  0  0  2  0  0  0  0  0  0
  -19.1480  -28.8680   23.3560 C   0  0  0  0  0  0  0  0  0  0  0  0
  -18.9430  -30.1250   23.9650 C   0  0  0  0  0  3  0  0  0  0  0  0
  -17.6420  -30.6330   24.1470 C   0  0  0  0  0  3  0  0  0  0  0  0
  -16.5290  -29.8810   23.7310 C   0  0  0  0  0  3  0  0  0  0  0  0
  -16.7200  -28.6270   23.1240 C   0  0  0  0  0  3  0  0  0  0  0  0
  -25.8830  -32.5070   23.8640 C   0  0  0  0  0  3  0  0  0  0  0  0
  -26.4000  -31.7250   25.1330 C   0  0  1  0  0  0  0  0  0  0  0  0
  -25.3070  -31.4790   26.2000 C   0  0  0  0  0  1  0  0  0  0  0  0
  -26.9810  -30.3500   24.7300 C   0  0  0  0  0  1  0  0  0  0  0  0
  -27.5510  -32.5130   25.8010 C   0  0  0  0  0  1  0  0  0  0  0  0
  -25.5760  -33.9030   24.2060 N   0  0  0  0  0  0  0  0  0  0  0  0
  -25.8850  -34.9590   23.4430 C   0  0  0  0  0  0  0  0  0  0  0  0
  -26.5300  -34.8630   22.3950 O   0  0  0  0  0  0  0  0  0  0  0  0
  -25.0010  -34.0520   25.0220 H   0  0  0  0  0  0  0  0  0  0  0  0
  -24.1340  -36.7410   23.1470 C   0  0  0  0  0  1  0  0  0  0  0  0
  -25.4040  -36.3450   23.9170 C   0  0  0  0  0  3  0  0  0  0  0  0
  -27.5570  -37.2470   24.6810 C   0  0  0  0  0  1  0  0  0  0  0  0
  -26.4250  -37.4050   23.7710 N   0  0  0  0  0  0  0  0  0  0  0  0
  -26.0170  -38.3220   23.9310 H   0  0  0  0  0  0  0  0  0  0  0  0
  1  7  1  0
  2  1  1  0
  4  3  1  0
  5  6  1  0
  6  3  2  0
  6 18  1  0
  7  4  2  0
  8  5  2  0
  8  7  1  0
  9  8  1  0
 10 18  1  0
 11 16  1  0
 12 13  1  0
 12 11  1  0
 14 13  1  0
 14 23  1  0
 14 15  1  0
 16 10  1  0
 16 15  1  0
 17 10  2  0
 18 19  1  0
 20 21  2  0
 21 40  1  0
 22 21  1  0
 22 25  1  0
 23 24  1  0
 23 20  1  0
 24 22  2  0
 25 26  1  0
 26 27  2  0
 28 31  1  0
 28 27  1  0
 29 28  2  0
 30 29  1  0
 30 25  2  0
 31 32  1  0
 32 33  1  0
 33 34  2  0
 35 34  1  0
 35 39  1  0
 36 35  2  0
 37 32  2  0
 37 36  1  0
 38 37  1  0
 40 41  1  0
 41 44  1  0
 41 43  1  0
 42 40  2  0
 45 46  1  0
 45 20  1  0
 47 45  1  0
 48 49  1  0
 48  1  1  0
 50 51  1  0
 50 49  2  0
 52 63  2  0
 53 51  1  0
 53 58  1  0
 54 62  1  0
 54 64  1  0
 55 61  1  0
 55 57  1  0
 56 62  1  0
 57 56  1  0
 58 57  2  0
 59 60  1  0
 59 53  2  0
 60 55  2  0
 61 54  1  0
 62 52  1  0
 64 66  2  0
 65 64  1  0
 67 65  1  0
 68 77  2  0
 68 73  1  0
 69 65  1  0
 69 73  1  0
 70 69  1  0
 71 72  1  0
 71 70  1  0
 72 68  1  0
 73 74  2  0
 74 75  1  0
 76 75  2  0
 77 76  1  0
 78 52  1  0
 78 83  1  0
 78 79  1  0
 79 82  1  1
 79 80  1  0
 81 79  1  0
 83 86  1  0
 84 88  1  0
 84 83  1  0
 85 84  2  0
 88 87  1  0
 90 88  1  0
 90 91  1  0
 90 89  1  0
M  ISO  4  10 100  18 100  50 101  51 101
M  END
>  <TORSDO>  (44) 
F 20

>  <SCORE>  (44) 
-13.868

>  <name>  (44) 
43

>  <ligand_id>  (44) 
43

>  <original_smiles>  (44) 
[H]c1c([H])c([H])c2c(c1[H])C([H])([H])C([H])([H])C([H])([H])C2([H])N([H])C(=O)C1([H])N(C(=O)C([H])(N([H])C(=O)C([H])(N([H])C([H])([H])[H])C([H])([H])[H])C(C([H])([H])[H])(C([H])([H])[H])C([H])([H])[H])C([H])([H])c2c([H])c(OC([H])([H])C([H])([H])C([H])([H])N([H])c3c([H])c([H])c(N([H])C(=O)N4C([H])([H])C([H])([H])C([H])([H])C([H])(n5nc(-c6c([H])c([H])c(Oc7c([H])c([H])c(F)c([H])c7F)c([H])c6[H])c(C(=O)N([H])[H])c5N([H])[H])C4([H])[H])c([H])c3F)c([H])c([H])c2C1([H])[H]

>  <smiles>  (44) 
[H]c1c([H])c([H])c2c(c1[H])C([H])([H])C([H])([H])C([H])([H])C2([H])N([H])C(=O)C1([H])N(C(=O)C([H])(N([H])C(=O)C([H])(N([H])C([H])([H])[H])C([H])([H])[H])C(C([H])([H])[H])(C([H])([H])[H])C([H])([H])[H])C([H])([H])c2c([H])c(OC([H])([H])C([H])([H])C([H])([H])N([H])c3c([H])c([H])c(N([H])C(=O)N4C([H])([H])C([H])([H])C([H])([H])C([H])(n5nc(-c6c([H])c([H])c(Oc7c([H])c([H])c(F)c([H])c7F)c([H])c6[H])c(C(=O)N([H])[H])c5N([H])[H])C4([H])[H])c([H])c3F)c([H])c([H])c2C1([H])[H]

$$$$
44:0:0
     RDKit          3D

 95104  0  0  1  0  0  0  0  0999 V2000
  -31.3930  -22.1260   20.7770 C   0  0  0  0  0  0  0  0  0  0  0  0
  -31.6320  -23.6420   20.9070 C   0  0  0  0  0  2  0  0  0  0  0  0
  -30.4000  -24.4700   21.2790 C   0  0  0  0  0  2  0  0  0  0  0  0
  -28.9500  -22.5320   20.6680 C   0  0  0  0  0  2  0  0  0  0  0  0
  -29.2590  -24.0680   20.3590 C   0  0  0  0  0  3  0  0  0  0  0  0
  -30.1300  -21.5950   20.8450 N   0  0  0  0  0  0  0  0  0  0  0  0
  -32.4060  -21.4490   20.5740 O   0  0  0  0  0  0  0  0  0  0  0  0
  -28.9620  -19.4070   20.2500 C   0  0  0  0  0  3  0  0  0  0  0  0
  -30.8360  -19.3030   21.7450 C   0  0  0  0  0  3  0  0  0  0  0  0
  -28.9740  -17.9830   20.1720 C   0  0  0  0  0  3  0  0  0  0  0  0
  -30.8610  -17.8780   21.6570 C   0  0  0  0  0  3  0  0  0  0  0  0
  -29.9620  -20.1240   20.9610 C   0  0  0  0  0  0  0  0  0  0  0  0
  -29.9860  -17.1860   20.7840 C   0  0  0  0  0  0  0  0  0  0  0  0
  -30.8550  -14.7700   20.9120 C   0  0  0  0  0  0  0  0  0  0  0  0
  -30.6950  -12.4510   20.0370 C   0  0  0  0  0  2  0  0  0  0  0  0
  -29.8660  -12.3710   18.7340 C   0  0  0  0  0  2  0  0  0  0  0  0
  -28.3580  -12.2960   19.0290 C   0  0  0  0  0  2  0  0  0  0  0  0
  -27.8810  -13.2840   20.1290 C   0  0  0  0  0  3  0  0  0  0  0  0
  -28.8340  -13.3040   21.3440 C   0  0  0  0  0  2  0  0  0  0  0  0
  -30.1830  -13.5780   20.8380 N   0  0  0  0  0  0  0  0  0  0  0  0
  -32.0890  -14.7820   20.9430 O   0  0  0  0  0  0  0  0  0  0  0  0
  -30.2420  -15.8350   20.2740 N   0  0  0  0  0  0  0  0  0  0  0  0
  -25.4320  -13.9040   20.5990 C   0  0  0  0  0  0  0  0  0  0  0  0
  -24.3340  -13.1420   20.8920 C   0  0  0  0  0  0  0  0  0  0  0  0
  -24.7970  -11.7940   20.9750 C   0  0  0  0  0  0  0  0  0  0  0  0
  -26.4950  -13.0190   20.5120 N   0  0  0  0  0  0  0  0  0  0  0  0
  -26.1130  -11.7500   20.8080 N   0  0  0  0  0  0  0  0  0  0  0  0
  -24.0560  -10.5370   21.1460 C   0  0  0  0  0  0  0  0  0  0  0  0
  -24.4350   -9.5830   22.1150 C   0  0  0  0  0  3  0  0  0  0  0  0
  -23.6960   -8.3910   22.2760 C   0  0  0  0  0  3  0  0  0  0  0  0
  -22.5620   -8.1450   21.4650 C   0  0  0  0  0  0  0  0  0  0  0  0
  -22.2030   -9.0870   20.4850 C   0  0  0  0  0  3  0  0  0  0  0  0
  -22.9420  -10.2700   20.3240 C   0  0  0  0  0  3  0  0  0  0  0  0
  -21.7990   -7.0030   21.5330 O   0  0  0  0  0  0  0  0  0  0  0  0
  -21.7280   -6.2510   22.6770 C   0  0  0  0  0  0  0  0  0  0  0  0
  -21.2780   -6.7950   23.9010 C   0  0  0  0  0  3  0  0  0  0  0  0
  -21.1560   -5.9690   25.0360 C   0  0  0  0  0  3  0  0  0  0  0  0
  -21.4710   -4.6000   24.9490 C   0  0  0  0  0  0  0  0  0  0  0  0
  -21.9140   -4.0550   23.7310 C   0  0  0  0  0  3  0  0  0  0  0  0
  -22.0390   -4.8780   22.5970 C   0  0  0  0  0  0  0  0  0  0  0  0
  -22.4460   -4.3440   21.4210 F   0  0  0  0  0  0  0  0  0  0  0  0
  -21.3470   -3.8050   26.0370 F   0  0  0  0  0  0  0  0  0  0  0  0
  -22.9150  -13.6220   20.9970 C   0  0  0  0  0  0  0  0  0  0  0  0
  -22.1100  -12.9750   21.8330 N   0  0  0  0  0  0  0  0  0  0  0  0
  -22.5250  -14.6090   20.3740 O   0  0  0  0  0  0  0  0  0  0  0  0
  -22.4380  -12.1780   22.3590 H   0  0  0  0  0  0  0  0  0  0  0  0
  -21.1540  -13.2800   21.9500 H   0  0  0  0  0  0  0  0  0  0  0  0
  -25.6150  -15.2650   20.3750 N   0  0  0  0  0  0  0  0  0  0  0  0
  -24.8470  -15.9260   20.3930 H   0  0  0  0  0  0  0  0  0  0  0  0
  -26.5030  -15.6930   20.1490 H   0  0  0  0  0  0  0  0  0  0  0  0
  -30.5610  -15.8740   18.8200 C   0  0  0  0  0  2  0  0  0  0  0  0
  -32.0830  -16.7550   16.9580 C   0  0  0  0  0  1  0  0  0  0  0  0
  -31.6150  -16.9360   18.4060 C   0  0  0  0  0  2  0  0  0  0  0  0
  -28.0510  -25.0870   20.4130 C   0  0  0  0  0  2  0  0  0  0  0  0
  -28.3030  -26.5270   20.1830 O   0  0  0  0  0  0  0  0  0  0  0  0
  -24.5210  -31.8880   23.1950 C   0  0  0  0  0  0  0  0  0  0  0  0
  -27.1790  -27.3660   20.1380 C   0  0  0  0  0  0  0  0  0  0  0  0
  -23.3340  -30.4800   21.5510 C   0  0  0  0  0  3  0  0  0  0  0  0
  -24.8020  -28.9510   20.1270 C   0  0  0  0  0  0  0  0  0  0  0  0
  -25.8720  -30.8240   21.3760 C   0  0  0  0  0  2  0  0  0  0  0  0
  -25.9660  -29.4500   20.7250 C   0  0  0  0  0  0  0  0  0  0  0  0
  -27.1620  -28.6700   20.7200 C   0  0  0  0  0  3  0  0  0  0  0  0
  -25.9910  -26.9240   19.5100 C   0  0  0  0  0  3  0  0  0  0  0  0
  -24.8160  -27.6930   19.5130 C   0  0  0  0  0  3  0  0  0  0  0  0
  -23.5570  -29.8140   20.1700 C   0  0  0  0  0  2  0  0  0  0  0  0
  -24.5940  -31.0820   22.0960 N   0  0  0  0  0  0  0  0  0  0  0  0
  -23.4360  -32.1560   23.7280 O   0  0  0  0  0  0  0  0  0  0  0  0
  -22.6840  -29.4510   22.5060 C   0  0  0  0  0  0  0  0  0  0  0  0
  -21.3540  -29.2890   22.4030 N   0  0  0  0  0  0  0  0  0  0  0  0
  -23.3720  -28.8020   23.2970 O   0  0  0  0  0  0  0  0  0  0  0  0
  -20.8560  -29.8690   21.7410 H   0  0  0  0  0  0  0  0  0  0  0  0
  -17.9730  -28.1330   22.9580 C   0  0  0  0  0  0  0  0  0  0  0  0
  -20.5400  -28.3490   23.1750 C   0  0  0  0  0  3  0  0  0  0  0  0
  -20.6060  -26.9250   22.5730 C   0  0  0  0  0  2  0  0  0  0  0  0
  -19.4770  -26.6370   21.5780 C   0  0  0  0  0  2  0  0  0  0  0  0
  -18.1120  -26.7930   22.2560 C   0  0  0  0  0  2  0  0  0  0  0  0
  -19.1130  -28.8710   23.3750 C   0  0  0  0  0  0  0  0  0  0  0  0
  -18.9290  -30.1280   23.9900 C   0  0  0  0  0  3  0  0  0  0  0  0
  -17.6370  -30.6460   24.1960 C   0  0  0  0  0  3  0  0  0  0  0  0
  -16.5110  -29.9050   23.7970 C   0  0  0  0  0  3  0  0  0  0  0  0
  -16.6800  -28.6510   23.1820 C   0  0  0  0  0  3  0  0  0  0  0  0
  -25.7990  -32.5300   23.8190 C   0  0  0  0  0  3  0  0  0  0  0  0
  -26.3270  -31.7580   25.0900 C   0  0  1  0  0  0  0  0  0  0  0  0
  -25.2380  -31.5000   26.1580 C   0  0  0  0  0  1  0  0  0  0  0  0
  -26.9300  -30.3910   24.6910 C   0  0  0  0  0  1  0  0  0  0  0  0
  -27.4670  -32.5640   25.7550 C   0  0  0  0  0  1  0  0  0  0  0  0
  -25.4740  -33.9230   24.1580 N   0  0  0  0  0  0  0  0  0  0  0  0
  -25.8140  -34.9860   23.4170 C   0  0  0  0  0  0  0  0  0  0  0  0
  -26.5030  -34.8990   22.3970 O   0  0  0  0  0  0  0  0  0  0  0  0
  -24.8630  -34.0640   24.9490 H   0  0  0  0  0  0  0  0  0  0  0  0
  -24.0990  -36.7850   23.0310 C   0  0  0  0  0  1  0  0  0  0  0  0
  -25.3090  -36.3650   23.8800 C   0  0  0  0  0  3  0  0  0  0  0  0
  -27.4050  -37.2380   24.8150 C   0  0  0  0  0  1  0  0  0  0  0  0
  -26.3430  -37.4210   23.8280 N   0  0  0  0  0  0  0  0  0  0  0  0
  -25.9290  -38.3380   23.9750 H   0  0  0  0  0  0  0  0  0  0  0  0
  1  6  1  0
  1  2  1  0
  2  3  1  0
  4  6  1  0
  5 54  1  0
  5  4  1  0
  5  3  1  0
  6 12  1  0
  7  1  2  0
  8 12  1  0
 10  8  2  0
 10 13  1  0
 11  9  1  0
 12  9  2  0
 13 11  2  0
 14 21  2  0
 15 20  1  0
 16 17  1  0
 16 15  1  0
 18 17  1  0
 18 26  1  0
 18 19  1  0
 20 14  1  0
 20 19  1  0
 22 13  1  0
 22 14  1  0
 23 24  2  0
 24 25  1  0
 24 43  1  0
 25 28  1  0
 26 23  1  0
 26 27  1  0
 27 25  2  0
 28 29  1  0
 29 30  2  0
 31 34  1  0
 31 30  1  0
 32 31  2  0
 33 32  1  0
 33 28  2  0
 34 35  1  0
 35 36  1  0
 36 37  2  0
 38 37  1  0
 38 42  1  0
 39 38  2  0
 40 35  2  0
 40 39  1  0
 41 40  1  0
 43 44  1  0
 44 47  1  0
 44 46  1  0
 45 43  2  0
 48 49  1  0
 48 23  1  0
 50 48  1  0
 51 22  1  0
 52 53  1  0
 53 51  1  0
 55 54  1  0
 56 67  2  0
 57 55  1  0
 57 62  1  0
 58 66  1  0
 58 68  1  0
 59 65  1  0
 59 61  1  0
 60 66  1  0
 61 60  1  0
 62 61  2  0
 63 64  1  0
 63 57  2  0
 64 59  2  0
 65 58  1  0
 66 56  1  0
 68 70  2  0
 69 68  1  0
 71 69  1  0
 72 81  2  0
 72 77  1  0
 73 69  1  0
 73 77  1  0
 74 73  1  0
 75 76  1  0
 75 74  1  0
 76 72  1  0
 77 78  2  0
 78 79  1  0
 80 79  2  0
 81 80  1  0
 82 56  1  0
 82 87  1  0
 82 83  1  0
 83 86  1  1
 83 84  1  0
 85 83  1  0
 87 90  1  0
 88 92  1  0
 88 87  1  0
 89 88  2  0
 92 91  1  0
 94 92  1  0
 94 95  1  0
 94 93  1  0
M  ISO  4  14 100  22 100  54 101  55 101
M  END
>  <TORSDO>  (45) 
F 20

>  <SCORE>  (45) 
-13.962

>  <name>  (45) 
44

>  <ligand_id>  (45) 
44

>  <original_smiles>  (45) 
[H]c1c([H])c([H])c2c(c1[H])C([H])([H])C([H])([H])C([H])([H])C2([H])N([H])C(=O)C1([H])N(C(=O)C([H])(N([H])C(=O)C([H])(N([H])C([H])([H])[H])C([H])([H])[H])C(C([H])([H])[H])(C([H])([H])[H])C([H])([H])[H])C([H])([H])c2c([H])c(OC([H])([H])C3([H])C([H])([H])N(c4c([H])c([H])c(N(C(=O)N5C([H])([H])C([H])([H])C([H])([H])C([H])(n6nc(-c7c([H])c([H])c(Oc8c([H])c([H])c(F)c([H])c8F)c([H])c7[H])c(C(=O)N([H])[H])c6N([H])[H])C5([H])[H])C([H])([H])C([H])([H])C([H])([H])[H])c([H])c4[H])C(=O)C([H])([H])C3([H])[H])c([H])c([H])c2C1([H])[H]

>  <smiles>  (45) 
[H]c1c([H])c([H])c2c(c1[H])C([H])([H])C([H])([H])C([H])([H])C2([H])N([H])C(=O)C1([H])N(C(=O)C([H])(N([H])C(=O)C([H])(N([H])C([H])([H])[H])C([H])([H])[H])C(C([H])([H])[H])(C([H])([H])[H])C([H])([H])[H])C([H])([H])c2c([H])c(OC([H])([H])C3([H])C([H])([H])N(c4c([H])c([H])c(N(C(=O)N5C([H])([H])C([H])([H])C([H])([H])C([H])(n6nc(-c7c([H])c([H])c(Oc8c([H])c([H])c(F)c([H])c8F)c([H])c7[H])c(C(=O)N([H])[H])c6N([H])[H])C5([H])[H])C([H])([H])C([H])([H])C([H])([H])[H])c([H])c4[H])C(=O)C([H])([H])C3([H])[H])c([H])c([H])c2C1([H])[H]

$$$$
45:0:0
     RDKit          3D

 96105  0  0  1  0  0  0  0  0999 V2000
  -31.8200  -22.1510   19.8050 C   0  0  0  0  0  0  0  0  0  0  0  0
  -32.0290  -23.6530   19.5610 C   0  0  0  0  0  2  0  0  0  0  0  0
  -31.0240  -24.5530   20.2830 C   0  0  0  0  0  2  0  0  0  0  0  0
  -29.4340  -22.5960   20.3340 C   0  0  0  0  0  2  0  0  0  0  0  0
  -29.6040  -24.1310   19.9200 C   0  0  0  0  0  3  0  0  0  0  0  0
  -30.5680  -21.6440   20.0120 N   0  0  0  0  0  0  0  0  0  0  0  0
  -32.8380  -21.4460   19.7820 O   0  0  0  0  0  0  0  0  0  0  0  0
  -30.1270  -19.5140   21.3390 C   0  0  0  0  0  3  0  0  0  0  0  0
  -30.6590  -19.3240   19.0040 C   0  0  0  0  0  3  0  0  0  0  0  0
  -30.1640  -18.0880   21.4570 C   0  0  0  0  0  0  0  0  0  0  0  0
  -30.4260  -20.1770   20.1220 C   0  0  0  0  0  0  0  0  0  0  0  0
  -30.4830  -17.2460   20.3460 C   0  0  0  0  0  0  0  0  0  0  0  0
  -30.6560  -17.8990   19.0920 C   0  0  0  0  0  0  0  0  0  0  0  0
  -29.8310  -17.4760   22.8090 C   0  0  0  0  0  1  0  0  0  0  0  0
  -31.2270  -14.7920   19.9490 C   0  0  0  0  0  0  0  0  0  0  0  0
  -30.9710  -12.6020   18.8030 C   0  0  0  0  0  2  0  0  0  0  0  0
  -29.9180  -12.7710   17.6860 C   0  0  0  0  0  2  0  0  0  0  0  0
  -28.4940  -12.5560   18.2360 C   0  0  0  0  0  2  0  0  0  0  0  0
  -28.2340  -13.3500   19.5430 C   0  0  0  0  0  3  0  0  0  0  0  0
  -29.3900  -13.1590   20.5510 C   0  0  0  0  0  2  0  0  0  0  0  0
  -30.6370  -13.5570   19.8790 N   0  0  0  0  0  0  0  0  0  0  0  0
  -32.3400  -14.9940   19.4550 O   0  0  0  0  0  0  0  0  0  0  0  0
  -30.4630  -15.7880   20.4990 N   0  0  0  0  0  0  0  0  0  0  0  0
  -29.6860  -15.4360   21.0360 H   0  0  0  0  0  0  0  0  0  0  0  0
  -25.9150  -13.8650   20.5210 C   0  0  0  0  0  0  0  0  0  0  0  0
  -24.8950  -13.0540   20.9370 C   0  0  0  0  0  0  0  0  0  0  0  0
  -25.3620  -11.7140   20.7700 C   0  0  0  0  0  0  0  0  0  0  0  0
  -26.9390  -13.0170   20.1310 N   0  0  0  0  0  0  0  0  0  0  0  0
  -26.6170  -11.7140   20.3360 N   0  0  0  0  0  0  0  0  0  0  0  0
  -24.6690  -10.4310   20.9420 C   0  0  0  0  0  0  0  0  0  0  0  0
  -25.0660   -9.5020   21.9290 C   0  0  0  0  0  3  0  0  0  0  0  0
  -24.3710   -8.2840   22.0870 C   0  0  0  0  0  3  0  0  0  0  0  0
  -23.2640   -7.9860   21.2580 C   0  0  0  0  0  0  0  0  0  0  0  0
  -22.8850   -8.9050   20.2630 C   0  0  0  0  0  3  0  0  0  0  0  0
  -23.5820  -10.1150   20.1040 C   0  0  0  0  0  3  0  0  0  0  0  0
  -22.5450   -6.8170   21.3220 O   0  0  0  0  0  0  0  0  0  0  0  0
  -22.2560   -6.2140   22.5210 C   0  0  0  0  0  0  0  0  0  0  0  0
  -21.5240   -6.8770   23.5300 C   0  0  0  0  0  3  0  0  0  0  0  0
  -21.1870   -6.1980   24.7170 C   0  0  0  0  0  3  0  0  0  0  0  0
  -21.5730   -4.8570   24.8950 C   0  0  0  0  0  0  0  0  0  0  0  0
  -22.2970   -4.1930   23.8890 C   0  0  0  0  0  3  0  0  0  0  0  0
  -22.6340   -4.8690   22.7040 C   0  0  0  0  0  0  0  0  0  0  0  0
  -23.3140   -4.2190   21.7290 F   0  0  0  0  0  0  0  0  0  0  0  0
  -21.2430   -4.2010   26.0320 F   0  0  0  0  0  0  0  0  0  0  0  0
  -23.5260  -13.4930   21.3720 C   0  0  0  0  0  0  0  0  0  0  0  0
  -22.9110  -12.7570   22.2920 N   0  0  0  0  0  0  0  0  0  0  0  0
  -23.0150  -14.5220   20.9340 O   0  0  0  0  0  0  0  0  0  0  0  0
  -23.3400  -11.9230   22.6670 H   0  0  0  0  0  0  0  0  0  0  0  0
  -21.9970  -13.0330   22.6260 H   0  0  0  0  0  0  0  0  0  0  0  0
  -26.0510  -15.2470   20.4250 N   0  0  0  0  0  0  0  0  0  0  0  0
  -25.2910  -15.8770   20.6550 H   0  0  0  0  0  0  0  0  0  0  0  0
  -26.8550  -15.7230   20.0390 H   0  0  0  0  0  0  0  0  0  0  0  0
  -30.0800  -17.5950   16.8110 C   0  0  0  0  0  1  0  0  0  0  0  0
  -30.7870  -17.1330   17.9600 O   0  0  0  0  0  0  0  0  0  0  0  0
  -28.5490  -25.1780   20.4830 C   0  0  0  0  0  2  0  0  0  0  0  0
  -28.7450  -26.6120   20.1720 O   0  0  0  0  0  0  0  0  0  0  0  0
  -24.9330  -31.8630   23.3360 C   0  0  0  0  0  0  0  0  0  0  0  0
  -27.6180  -27.4410   20.1660 C   0  0  0  0  0  0  0  0  0  0  0  0
  -23.7630  -30.5200   21.6250 C   0  0  0  0  0  3  0  0  0  0  0  0
  -25.2450  -29.0300   20.1710 C   0  0  0  0  0  0  0  0  0  0  0  0
  -26.3020  -30.8590   21.4970 C   0  0  0  0  0  2  0  0  0  0  0  0
  -26.4000  -29.5060   20.8060 C   0  0  0  0  0  0  0  0  0  0  0  0
  -27.5900  -28.7240   20.7930 C   0  0  0  0  0  3  0  0  0  0  0  0
  -26.4450  -27.0210   19.5000 C   0  0  0  0  0  3  0  0  0  0  0  0
  -25.2700  -27.7920   19.5090 C   0  0  0  0  0  3  0  0  0  0  0  0
  -24.0050  -29.8970   20.2250 C   0  0  0  0  0  2  0  0  0  0  0  0
  -25.0170  -31.0960   22.2100 N   0  0  0  0  0  0  0  0  0  0  0  0
  -23.8390  -32.1170   23.8610 O   0  0  0  0  0  0  0  0  0  0  0  0
  -23.0900  -29.4670   22.5360 C   0  0  0  0  0  0  0  0  0  0  0  0
  -21.7630  -29.3060   22.3930 N   0  0  0  0  0  0  0  0  0  0  0  0
  -23.7590  -28.7990   23.3290 O   0  0  0  0  0  0  0  0  0  0  0  0
  -21.2840  -29.8970   21.7280 H   0  0  0  0  0  0  0  0  0  0  0  0
  -18.3700  -28.1310   22.8260 C   0  0  0  0  0  0  0  0  0  0  0  0
  -20.9320  -28.3430   23.1150 C   0  0  0  0  0  3  0  0  0  0  0  0
  -21.0160  -26.9390   22.4710 C   0  0  0  0  0  2  0  0  0  0  0  0
  -19.9130  -26.6800   21.4400 C   0  0  0  0  0  2  0  0  0  0  0  0
  -18.5310  -26.8120   22.0860 C   0  0  0  0  0  2  0  0  0  0  0  0
  -19.4980  -28.8560   23.2950 C   0  0  0  0  0  0  0  0  0  0  0  0
  -19.2940  -30.0940   23.9450 C   0  0  0  0  0  3  0  0  0  0  0  0
  -17.9940  -30.6020   24.1330 C   0  0  0  0  0  3  0  0  0  0  0  0
  -16.8810  -29.8720   23.6820 C   0  0  0  0  0  3  0  0  0  0  0  0
  -17.0710  -28.6380   23.0330 C   0  0  0  0  0  3  0  0  0  0  0  0
  -26.2030  -32.4750   24.0050 C   0  0  0  0  0  3  0  0  0  0  0  0
  -26.7130  -31.6450   25.2450 C   0  0  1  0  0  0  0  0  0  0  0  0
  -25.6100  -31.3370   26.2850 C   0  0  0  0  0  1  0  0  0  0  0  0
  -27.3190  -30.2980   24.7870 C   0  0  0  0  0  1  0  0  0  0  0  0
  -27.8440  -32.4160   25.9620 C   0  0  0  0  0  1  0  0  0  0  0  0
  -25.8730  -33.8510   24.4050 N   0  0  0  0  0  0  0  0  0  0  0  0
  -26.2160  -34.9480   23.7140 C   0  0  0  0  0  0  0  0  0  0  0  0
  -26.9130  -34.9050   22.6970 O   0  0  0  0  0  0  0  0  0  0  0  0
  -25.2610  -33.9560   25.2000 H   0  0  0  0  0  0  0  0  0  0  0  0
  -24.4960  -36.7560   23.4060 C   0  0  0  0  0  1  0  0  0  0  0  0
  -25.7080  -36.3050   24.2380 C   0  0  0  0  0  3  0  0  0  0  0  0
  -27.8010  -37.1470   25.2060 C   0  0  0  0  0  1  0  0  0  0  0  0
  -26.7410  -37.3630   24.2250 N   0  0  0  0  0  0  0  0  0  0  0  0
  -26.3260  -38.2740   24.3990 H   0  0  0  0  0  0  0  0  0  0  0  0
  1  6  1  0
  2  1  1  0
  2  3  1  0
  5  3  1  0
  5  4  1  0
  5 55  1  0
  6 11  1  0
  6  4  1  0
  7  1  2  0
  8 10  1  0
  9 13  2  0
  9 11  1  0
 10 14  1  0
 11  8  2  0
 12 23  1  0
 12 10  2  0
 13 12  1  0
 15 23  1  0
 16 21  1  0
 17 18  1  0
 17 16  1  0
 19 18  1  0
 19 28  1  0
 19 20  1  0
 21 15  1  0
 21 20  1  0
 22 15  2  0
 23 24  1  0
 25 26  2  0
 26 45  1  0
 27 26  1  0
 27 30  1  0
 28 29  1  0
 28 25  1  0
 29 27  2  0
 30 31  1  0
 31 32  2  0
 33 36  1  0
 33 32  1  0
 34 33  2  0
 35 34  1  0
 35 30  2  0
 36 37  1  0
 37 42  2  0
 37 38  1  0
 38 39  2  0
 39 40  1  0
 40 44  1  0
 41 40  2  0
 42 41  1  0
 43 42  1  0
 45 46  1  0
 46 49  1  0
 46 48  1  0
 47 45  2  0
 50 25  1  0
 50 51  1  0
 52 50  1  0
 53 54  1  0
 54 13  1  0
 56 55  1  0
 57 68  2  0
 58 56  1  0
 58 63  1  0
 59 67  1  0
 59 69  1  0
 60 66  1  0
 60 62  1  0
 61 67  1  0
 62 61  1  0
 63 62  2  0
 64 65  1  0
 64 58  2  0
 65 60  2  0
 66 59  1  0
 67 57  1  0
 69 71  2  0
 70 69  1  0
 72 70  1  0
 73 82  2  0
 73 78  1  0
 74 70  1  0
 74 78  1  0
 75 74  1  0
 76 77  1  0
 76 75  1  0
 77 73  1  0
 78 79  2  0
 79 80  1  0
 81 80  2  0
 82 81  1  0
 83 57  1  0
 83 88  1  0
 83 84  1  0
 84 87  1  1
 84 85  1  0
 86 84  1  0
 88 91  1  0
 89 93  1  0
 89 88  1  0
 90 89  2  0
 93 92  1  0
 95 93  1  0
 95 96  1  0
 95 94  1  0
M  ISO  4  15 100  23 100  55 101  56 101
M  END
>  <TORSDO>  (46) 
F 19

>  <SCORE>  (46) 
-10.845

>  <name>  (46) 
45

>  <ligand_id>  (46) 
45

>  <original_smiles>  (46) 
[H]c1c([H])c([H])c2c(c1[H])C([H])([H])C([H])([H])C([H])([H])C2([H])N([H])C(=O)C1([H])N(C(=O)C([H])(N([H])C(=O)C([H])(N([H])C([H])([H])[H])C([H])([H])[H])C(C([H])([H])[H])(C([H])([H])[H])C([H])([H])[H])C([H])([H])c2c([H])c(OC([H])([H])C3([H])C([H])([H])N(c4c([H])c(OC([H])([H])[H])c(N([H])C(=O)N5C([H])([H])C([H])([H])C([H])([H])C([H])(n6nc(-c7c([H])c([H])c(Oc8c([H])c([H])c(F)c([H])c8F)c([H])c7[H])c(C(=O)N([H])[H])c6N([H])[H])C5([H])[H])c(C([H])([H])[H])c4[H])C(=O)C([H])([H])C3([H])[H])c([H])c([H])c2C1([H])[H]

>  <smiles>  (46) 
[H]c1c([H])c([H])c2c(c1[H])C([H])([H])C([H])([H])C([H])([H])C2([H])N([H])C(=O)C1([H])N(C(=O)C([H])(N([H])C(=O)C([H])(N([H])C([H])([H])[H])C([H])([H])[H])C(C([H])([H])[H])(C([H])([H])[H])C([H])([H])[H])C([H])([H])c2c([H])c(OC([H])([H])C3([H])C([H])([H])N(c4c([H])c(OC([H])([H])[H])c(N([H])C(=O)N5C([H])([H])C([H])([H])C([H])([H])C([H])(n6nc(-c7c([H])c([H])c(Oc8c([H])c([H])c(F)c([H])c8F)c([H])c7[H])c(C(=O)N([H])[H])c6N([H])[H])C5([H])[H])c(C([H])([H])[H])c4[H])C(=O)C([H])([H])C3([H])[H])c([H])c([H])c2C1([H])[H]

$$$$
46:0:0
     RDKit          3D

 96105  0  0  1  0  0  0  0  0999 V2000
  -30.9690  -17.9090   19.8640 C   0  0  0  0  0  3  0  0  0  0  0  0
  -30.9060  -19.3400   19.8240 C   0  0  0  0  0  0  0  0  0  0  0  0
  -29.8630  -17.1500   20.3280 C   0  0  0  0  0  0  0  0  0  0  0  0
  -29.7330  -20.0230   20.2550 C   0  0  0  0  0  0  0  0  0  0  0  0
  -28.7390  -17.9300   20.6970 C   0  0  0  0  0  0  0  0  0  0  0  0
  -28.9500  -23.4860   21.5210 C   0  0  0  0  0  2  0  0  0  0  0  0
  -29.4850  -22.0400   21.7090 C   0  0  0  0  0  2  0  0  0  0  0  0
  -29.0840  -22.4090   19.4150 C   0  0  0  0  0  2  0  0  0  0  0  0
  -29.1780  -23.8580   20.0460 C   0  0  0  0  0  3  0  0  0  0  0  0
  -28.6750  -19.2900   20.6820 N   0  0  0  0  0  0  0  0  0  0  0  0
  -29.6790  -21.4580   20.3820 N   0  0  0  0  0  0  0  0  0  0  0  0
  -30.5380  -14.6600   19.9150 C   0  0  0  0  0  0  0  0  0  0  0  0
  -30.2310  -12.4560   18.7970 C   0  0  0  0  0  2  0  0  0  0  0  0
  -29.1930  -12.6320   17.6640 C   0  0  0  0  0  2  0  0  0  0  0  0
  -27.7560  -12.4750   18.2010 C   0  0  0  0  0  2  0  0  0  0  0  0
  -27.5100  -13.3000   19.4910 C   0  0  0  0  0  3  0  0  0  0  0  0
  -28.6480  -13.0870   20.5140 C   0  0  0  0  0  2  0  0  0  0  0  0
  -29.9150  -13.4400   19.8530 N   0  0  0  0  0  0  0  0  0  0  0  0
  -31.6510  -14.8370   19.4120 O   0  0  0  0  0  0  0  0  0  0  0  0
  -29.7940  -15.6860   20.4360 N   0  0  0  0  0  0  0  0  0  0  0  0
  -28.9700  -15.3620   20.9180 H   0  0  0  0  0  0  0  0  0  0  0  0
  -25.1860  -13.9110   20.4010 C   0  0  0  0  0  0  0  0  0  0  0  0
  -24.1410  -13.1430   20.8410 C   0  0  0  0  0  0  0  0  0  0  0  0
  -24.5820  -11.7870   20.7440 C   0  0  0  0  0  0  0  0  0  0  0  0
  -26.1970  -13.0240   20.0680 N   0  0  0  0  0  0  0  0  0  0  0  0
  -25.8430  -11.7400   20.3340 N   0  0  0  0  0  0  0  0  0  0  0  0
  -23.8540  -10.5290   20.9610 C   0  0  0  0  0  0  0  0  0  0  0  0
  -24.3380   -9.5400   21.8450 C   0  0  0  0  0  3  0  0  0  0  0  0
  -23.6120   -8.3470   22.0510 C   0  0  0  0  0  3  0  0  0  0  0  0
  -22.3880   -8.1360   21.3720 C   0  0  0  0  0  0  0  0  0  0  0  0
  -21.9230   -9.1140   20.4760 C   0  0  0  0  0  3  0  0  0  0  0  0
  -22.6500  -10.2980   20.2690 C   0  0  0  0  0  3  0  0  0  0  0  0
  -21.6280   -6.9980   21.4920 O   0  0  0  0  0  0  0  0  0  0  0  0
  -21.6390   -6.2400   22.6360 C   0  0  0  0  0  0  0  0  0  0  0  0
  -21.2980   -6.7840   23.8930 C   0  0  0  0  0  3  0  0  0  0  0  0
  -21.2560   -5.9530   25.0310 C   0  0  0  0  0  3  0  0  0  0  0  0
  -21.5460   -4.5800   24.9130 C   0  0  0  0  0  0  0  0  0  0  0  0
  -21.8800   -4.0370   23.6610 C   0  0  0  0  0  3  0  0  0  0  0  0
  -21.9240   -4.8640   22.5250 C   0  0  0  0  0  0  0  0  0  0  0  0
  -22.2280   -4.3300   21.3160 F   0  0  0  0  0  0  0  0  0  0  0  0
  -21.4980   -3.7820   26.0040 F   0  0  0  0  0  0  0  0  0  0  0  0
  -22.7750  -13.6310   21.2270 C   0  0  0  0  0  0  0  0  0  0  0  0
  -22.1100  -12.9310   22.1390 N   0  0  0  0  0  0  0  0  0  0  0  0
  -22.3080  -14.6670   20.7560 O   0  0  0  0  0  0  0  0  0  0  0  0
  -22.5000  -12.0920   22.5420 H   0  0  0  0  0  0  0  0  0  0  0  0
  -21.1970  -13.2400   22.4410 H   0  0  0  0  0  0  0  0  0  0  0  0
  -25.3510  -15.2830   20.2300 N   0  0  0  0  0  0  0  0  0  0  0  0
  -24.5670  -15.9140   20.3580 H   0  0  0  0  0  0  0  0  0  0  0  0
  -26.0830  -15.6830   19.6580 H   0  0  0  0  0  0  0  0  0  0  0  0
  -27.5790  -17.3120   21.1420 N   0  0  0  0  0  0  0  0  0  0  0  0
  -27.3670  -16.3840   20.8060 H   0  0  0  0  0  0  0  0  0  0  0  0
  -26.7570  -17.9000   21.1850 H   0  0  0  0  0  0  0  0  0  0  0  0
  -33.0740  -20.4750   20.4980 C   0  0  0  0  0  1  0  0  0  0  0  0
  -32.1290  -20.1090   19.3460 C   0  0  0  0  0  2  0  0  0  0  0  0
  -28.2230  -25.0050   19.4710 C   0  0  0  0  0  2  0  0  0  0  0  0
  -28.3940  -26.4420   19.8220 O   0  0  0  0  0  0  0  0  0  0  0  0
  -24.5070  -31.6410   23.0010 C   0  0  0  0  0  0  0  0  0  0  0  0
  -27.2590  -27.2760   19.7800 C   0  0  0  0  0  0  0  0  0  0  0  0
  -23.3490  -30.2720   21.3050 C   0  0  0  0  0  3  0  0  0  0  0  0
  -24.8480  -28.8260   19.8230 C   0  0  0  0  0  0  0  0  0  0  0  0
  -25.8800  -30.6700   21.1460 C   0  0  0  0  0  2  0  0  0  0  0  0
  -26.0010  -29.3200   20.4450 C   0  0  0  0  0  0  0  0  0  0  0  0
  -27.2080  -28.5560   20.4170 C   0  0  0  0  0  3  0  0  0  0  0  0
  -26.0800  -26.8490   19.1220 C   0  0  0  0  0  3  0  0  0  0  0  0
  -24.8900  -27.5960   19.1530 C   0  0  0  0  0  3  0  0  0  0  0  0
  -23.5860  -29.6610   19.9000 C   0  0  0  0  0  2  0  0  0  0  0  0
  -24.5970  -30.8770   21.8750 N   0  0  0  0  0  0  0  0  0  0  0  0
  -23.4140  -31.8670   23.5410 O   0  0  0  0  0  0  0  0  0  0  0  0
  -22.7150  -29.1980   22.2210 C   0  0  0  0  0  0  0  0  0  0  0  0
  -21.3870  -29.0150   22.1100 N   0  0  0  0  0  0  0  0  0  0  0  0
  -23.4140  -28.5350   22.9920 O   0  0  0  0  0  0  0  0  0  0  0  0
  -20.8810  -29.6040   21.4630 H   0  0  0  0  0  0  0  0  0  0  0  0
  -18.0220  -27.8060   22.6560 C   0  0  0  0  0  0  0  0  0  0  0  0
  -20.5910  -28.0330   22.8470 C   0  0  0  0  0  3  0  0  0  0  0  0
  -20.6600  -26.6430   22.1720 C   0  0  0  0  0  2  0  0  0  0  0  0
  -19.5180  -26.3960   21.1810 C   0  0  0  0  0  2  0  0  0  0  0  0
  -18.1630  -26.5050   21.8850 C   0  0  0  0  0  2  0  0  0  0  0  0
  -19.1620  -28.5310   23.0950 C   0  0  0  0  0  0  0  0  0  0  0  0
  -18.9760  -29.7520   23.7780 C   0  0  0  0  0  3  0  0  0  0  0  0
  -17.6820  -30.2480   24.0270 C   0  0  0  0  0  3  0  0  0  0  0  0
  -16.5570  -29.5190   23.6050 C   0  0  0  0  0  3  0  0  0  0  0  0
  -16.7290  -28.3000   22.9250 C   0  0  0  0  0  3  0  0  0  0  0  0
  -25.7700  -32.2850   23.6520 C   0  0  0  0  0  3  0  0  0  0  0  0
  -26.3010  -31.4820   24.9010 C   0  0  1  0  0  0  0  0  0  0  0  0
  -25.2130  -31.1810   25.9570 C   0  0  0  0  0  1  0  0  0  0  0  0
  -26.9190  -30.1330   24.4640 C   0  0  0  0  0  1  0  0  0  0  0  0
  -27.4310  -32.2810   25.5940 C   0  0  0  0  0  1  0  0  0  0  0  0
  -25.4180  -33.6620   24.0320 N   0  0  0  0  0  0  0  0  0  0  0  0
  -25.7190  -34.7510   23.3130 C   0  0  0  0  0  0  0  0  0  0  0  0
  -26.3900  -34.7040   22.2790 O   0  0  0  0  0  0  0  0  0  0  0  0
  -24.8220  -33.7690   24.8400 H   0  0  0  0  0  0  0  0  0  0  0  0
  -23.9300  -36.4980   23.0320 C   0  0  0  0  0  1  0  0  0  0  0  0
  -25.1910  -36.1060   23.8200 C   0  0  0  0  0  3  0  0  0  0  0  0
  -27.3020  -37.0320   24.6660 C   0  0  0  0  0  1  0  0  0  0  0  0
  -26.1870  -37.1960   23.7360 N   0  0  0  0  0  0  0  0  0  0  0  0
  -25.7530  -38.0960   23.9200 H   0  0  0  0  0  0  0  0  0  0  0  0
  1  3  1  0
  2  1  2  0
  2  4  1  0
  3 20  1  0
  3  5  2  0
  4 11  1  0
  4 10  2  0
  5 50  1  0
  6  7  1  0
  8  9  1  0
  8 11  1  0
  9 55  1  0
  9  6  1  0
 10  5  1  0
 11  7  1  0
 12 20  1  0
 13 18  1  0
 14 15  1  0
 14 13  1  0
 16 15  1  0
 16 25  1  0
 16 17  1  0
 18 12  1  0
 18 17  1  0
 19 12  2  0
 20 21  1  0
 22 23  2  0
 23 42  1  0
 24 23  1  0
 24 27  1  0
 25 26  1  0
 25 22  1  0
 26 24  2  0
 27 28  1  0
 28 29  2  0
 30 33  1  0
 30 29  1  0
 31 30  2  0
 32 31  1  0
 32 27  2  0
 33 34  1  0
 34 35  1  0
 35 36  2  0
 37 36  1  0
 37 41  1  0
 38 37  2  0
 39 34  2  0
 39 38  1  0
 40 39  1  0
 42 43  1  0
 43 46  1  0
 43 45  1  0
 44 42  2  0
 47 48  1  0
 47 22  1  0
 49 47  1  0
 50 52  1  0
 51 50  1  0
 54  2  1  0
 54 53  1  0
 55 56  1  0
 57 68  2  0
 58 56  1  0
 58 63  1  0
 59 67  1  0
 59 69  1  0
 60 66  1  0
 60 62  1  0
 61 67  1  0
 62 61  1  0
 63 62  2  0
 64 65  1  0
 64 58  2  0
 65 60  2  0
 66 59  1  0
 67 57  1  0
 69 71  2  0
 70 69  1  0
 72 70  1  0
 73 82  2  0
 73 78  1  0
 74 70  1  0
 74 78  1  0
 75 74  1  0
 76 77  1  0
 76 75  1  0
 77 73  1  0
 78 79  2  0
 79 80  1  0
 81 80  2  0
 82 81  1  0
 83 57  1  0
 83 88  1  0
 83 84  1  0
 84 87  1  1
 84 85  1  0
 86 84  1  0
 88 91  1  0
 89 93  1  0
 89 88  1  0
 90 89  2  0
 93 92  1  0
 95 93  1  0
 95 96  1  0
 95 94  1  0
M  ISO  4  12 100  20 100  55 101  56 101
M  END
>  <TORSDO>  (47) 
F 19

>  <SCORE>  (47) 
-13.352

>  <name>  (47) 
46

>  <ligand_id>  (47) 
46

>  <original_smiles>  (47) 
[H]c1c([H])c([H])c2c(c1[H])C([H])([H])C([H])([H])C([H])([H])C2([H])N([H])C(=O)C1([H])N(C(=O)C([H])(N([H])C(=O)C([H])(N([H])C([H])([H])[H])C([H])([H])[H])C(C([H])([H])[H])(C([H])([H])[H])C([H])([H])[H])C([H])([H])c2c([H])c(OC([H])([H])C3([H])C([H])([H])N(c4nc(N([H])[H])c(N([H])C(=O)N5C([H])([H])C([H])([H])C([H])([H])C([H])(n6nc(-c7c([H])c([H])c(Oc8c([H])c([H])c(F)c([H])c8F)c([H])c7[H])c(C(=O)N([H])[H])c6N([H])[H])C5([H])[H])c([H])c4C([H])([H])C([H])([H])[H])C([H])([H])C3([H])[H])c([H])c([H])c2C1([H])[H]

>  <smiles>  (47) 
[H]c1c([H])c([H])c2c(c1[H])C([H])([H])C([H])([H])C([H])([H])C2([H])N([H])C(=O)C1([H])N(C(=O)C([H])(N([H])C(=O)C([H])(N([H])C([H])([H])[H])C([H])([H])[H])C(C([H])([H])[H])(C([H])([H])[H])C([H])([H])[H])C([H])([H])c2c([H])c(OC([H])([H])C3([H])C([H])([H])N(c4nc(N([H])[H])c(N([H])C(=O)N5C([H])([H])C([H])([H])C([H])([H])C([H])(n6nc(-c7c([H])c([H])c(Oc8c([H])c([H])c(F)c([H])c8F)c([H])c7[H])c(C(=O)N([H])[H])c6N([H])[H])C5([H])[H])c([H])c4C([H])([H])C([H])([H])[H])C([H])([H])C3([H])[H])c([H])c([H])c2C1([H])[H]

$$$$
47:0:0
     RDKit          3D

 94102  0  0  1  0  0  0  0  0999 V2000
  -31.0240  -20.7550   22.1350 C   0  0  0  0  0  1  0  0  0  0  0  0
  -31.9330  -20.8800   19.8010 C   0  0  0  0  0  1  0  0  0  0  0  0
  -30.6370  -20.8630   20.6420 C   0  0  1  0  0  0  0  0  0  0  0  0
  -27.5770  -18.5020   20.4250 C   0  0  0  0  0  3  0  0  0  0  0  0
  -28.3800  -19.6530   20.5610 C   0  0  0  0  0  3  0  0  0  0  0  0
  -28.1510  -17.2580   20.1020 C   0  0  0  0  0  3  0  0  0  0  0  0
  -30.3340  -18.3270   19.9750 C   0  0  0  0  0  3  0  0  0  0  0  0
  -29.7760  -19.5940   20.3470 C   0  0  0  0  0  0  0  0  0  0  0  0
  -29.5350  -17.1470   19.8690 C   0  0  0  0  0  0  0  0  0  0  0  0
  -30.8540  -14.9930   19.9190 C   0  0  0  0  0  0  0  0  0  0  0  0
  -30.6980  -12.6230   19.2490 C   0  0  0  0  0  2  0  0  0  0  0  0
  -29.7400  -12.5260   18.0440 C   0  0  0  0  0  2  0  0  0  0  0  0
  -28.2770  -12.3850   18.5110 C   0  0  0  0  0  2  0  0  0  0  0  0
  -27.8900  -13.4190   19.6060 C   0  0  0  0  0  3  0  0  0  0  0  0
  -28.9710  -13.5140   20.7080 C   0  0  0  0  0  2  0  0  0  0  0  0
  -30.2540  -13.7770   20.0490 N   0  0  0  0  0  0  0  0  0  0  0  0
  -32.0600  -15.1020   19.6990 O   0  0  0  0  0  0  0  0  0  0  0  0
  -30.0830  -15.9360   19.3320 N   0  0  0  0  0  0  0  0  0  0  0  0
  -30.5580  -16.1530   18.4690 H   0  0  0  0  0  0  0  0  0  0  0  0
  -25.5500  -14.0480   20.4680 C   0  0  0  0  0  0  0  0  0  0  0  0
  -24.4890  -13.2830   20.8720 C   0  0  0  0  0  0  0  0  0  0  0  0
  -24.9200  -11.9260   20.7740 C   0  0  0  0  0  0  0  0  0  0  0  0
  -26.5650  -13.1550   20.1580 N   0  0  0  0  0  0  0  0  0  0  0  0
  -26.1930  -11.8720   20.4020 N   0  0  0  0  0  0  0  0  0  0  0  0
  -24.1760  -10.6730   20.9540 C   0  0  0  0  0  0  0  0  0  0  0  0
  -24.6040   -9.6860   21.8690 C   0  0  0  0  0  3  0  0  0  0  0  0
  -23.8600   -8.4990   22.0400 C   0  0  0  0  0  3  0  0  0  0  0  0
  -22.6750   -8.2890   21.2960 C   0  0  0  0  0  0  0  0  0  0  0  0
  -22.2650   -9.2640   20.3690 C   0  0  0  0  0  3  0  0  0  0  0  0
  -23.0090  -10.4440   20.1950 C   0  0  0  0  0  3  0  0  0  0  0  0
  -21.9040   -7.1550   21.3740 O   0  0  0  0  0  0  0  0  0  0  0  0
  -21.7780   -6.4500   22.5440 C   0  0  0  0  0  0  0  0  0  0  0  0
  -21.2940   -7.0490   23.7280 C   0  0  0  0  0  3  0  0  0  0  0  0
  -21.1120   -6.2710   24.8880 C   0  0  0  0  0  3  0  0  0  0  0  0
  -21.4080   -4.8940   24.8650 C   0  0  0  0  0  0  0  0  0  0  0  0
  -21.8870   -4.2940   23.6860 C   0  0  0  0  0  3  0  0  0  0  0  0
  -22.0690   -5.0710   22.5290 C   0  0  0  0  0  0  0  0  0  0  0  0
  -22.5070   -4.4850   21.3880 F   0  0  0  0  0  0  0  0  0  0  0  0
  -21.2300   -4.1430   25.9780 F   0  0  0  0  0  0  0  0  0  0  0  0
  -23.1180  -13.7820   21.2270 C   0  0  0  0  0  0  0  0  0  0  0  0
  -22.4270  -13.0870   22.1220 N   0  0  0  0  0  0  0  0  0  0  0  0
  -22.6680  -14.8190   20.7430 O   0  0  0  0  0  0  0  0  0  0  0  0
  -22.8070  -12.2490   22.5390 H   0  0  0  0  0  0  0  0  0  0  0  0
  -21.5050  -13.3970   22.3930 H   0  0  0  0  0  0  0  0  0  0  0  0
  -25.7190  -15.4200   20.3120 N   0  0  0  0  0  0  0  0  0  0  0  0
  -24.9430  -16.0620   20.4390 H   0  0  0  0  0  0  0  0  0  0  0  0
  -26.5400  -15.8630   19.9160 H   0  0  0  0  0  0  0  0  0  0  0  0
  -30.2470  -23.4220   20.7350 C   0  0  0  0  0  0  0  0  0  0  0  0
  -29.9110  -22.1460   20.3800 N   0  0  0  0  0  0  0  0  0  0  0  0
  -31.1830  -23.6650   21.4990 O   0  0  0  0  0  0  0  0  0  0  0  0
  -29.1220  -22.0540   19.7520 H   0  0  0  0  0  0  0  0  0  0  0  0
  -29.4740  -24.6190   20.1050 C   0  0  0  0  0  2  0  0  0  0  0  0
  -29.3300  -25.9180   20.9790 C   0  0  0  0  0  2  0  0  0  0  0  0
  -29.2870  -27.1620   20.2380 O   0  0  0  0  0  0  0  0  0  0  0  0
  -24.6260  -31.6510   23.2500 C   0  0  0  0  0  0  0  0  0  0  0  0
  -28.0560  -27.7830   20.1750 C   0  0  0  0  0  0  0  0  0  0  0  0
  -23.7520  -30.2540   21.4030 C   0  0  0  0  0  3  0  0  0  0  0  0
  -25.5070  -29.0050   20.0310 C   0  0  0  0  0  0  0  0  0  0  0  0
  -26.2190  -30.9160   21.4720 C   0  0  0  0  0  2  0  0  0  0  0  0
  -26.5330  -29.6110   20.7680 C   0  0  0  0  0  0  0  0  0  0  0  0
  -27.8130  -29.0070   20.8390 C   0  0  0  0  0  3  0  0  0  0  0  0
  -27.0200  -27.1980   19.4170 C   0  0  0  0  0  3  0  0  0  0  0  0
  -25.7480  -27.8000   19.3460 C   0  0  0  0  0  3  0  0  0  0  0  0
  -24.1670  -29.7070   20.0090 C   0  0  0  0  0  2  0  0  0  0  0  0
  -24.8770  -30.9540   22.1060 N   0  0  0  0  0  0  0  0  0  0  0  0
  -23.4760  -31.7490   23.7010 O   0  0  0  0  0  0  0  0  0  0  0  0
  -23.1440  -29.0980   22.2270 C   0  0  0  0  0  0  0  0  0  0  0  0
  -21.8600  -28.7940   21.9790 N   0  0  0  0  0  0  0  0  0  0  0  0
  -23.8280  -28.4730   23.0400 O   0  0  0  0  0  0  0  0  0  0  0  0
  -21.3660  -29.3450   21.2890 H   0  0  0  0  0  0  0  0  0  0  0  0
  -18.5950  -27.2630   22.1530 C   0  0  0  0  0  0  0  0  0  0  0  0
  -21.0990  -27.7140   22.6030 C   0  0  0  0  0  3  0  0  0  0  0  0
  -21.3690  -26.3690   21.8920 C   0  0  0  0  0  2  0  0  0  0  0  0
  -20.3570  -26.0570   20.7870 C   0  0  0  0  0  2  0  0  0  0  0  0
  -18.9340  -26.0140   21.3570 C   0  0  0  0  0  2  0  0  0  0  0  0
  -19.6130  -28.0720   22.7240 C   0  0  0  0  0  0  0  0  0  0  0  0
  -19.2480  -29.2410   23.4240 C   0  0  0  0  0  3  0  0  0  0  0  0
  -17.8960  -29.6080   23.5590 C   0  0  0  0  0  3  0  0  0  0  0  0
  -16.8910  -28.7970   23.0050 C   0  0  0  0  0  3  0  0  0  0  0  0
  -17.2400  -27.6240   22.3090 C   0  0  0  0  0  3  0  0  0  0  0  0
  -25.7620  -32.3770   24.0340 C   0  0  0  0  0  3  0  0  0  0  0  0
  -26.1340  -31.6610   25.3890 C   0  0  1  0  0  0  0  0  0  0  0  0
  -24.9090  -31.3690   26.2910 C   0  0  0  0  0  1  0  0  0  0  0  0
  -26.8530  -30.3200   25.1130 C   0  0  0  0  0  1  0  0  0  0  0  0
  -27.1240  -32.5350   26.1920 C   0  0  0  0  0  1  0  0  0  0  0  0
  -25.3220  -33.7560   24.2780 N   0  0  0  0  0  0  0  0  0  0  0  0
  -25.6810  -34.8130   23.5340 C   0  0  0  0  0  0  0  0  0  0  0  0
  -26.4860  -34.7320   22.6010 O   0  0  0  0  0  0  0  0  0  0  0  0
  -24.6260  -33.8830   24.9980 H   0  0  0  0  0  0  0  0  0  0  0  0
  -23.8940  -36.4680   22.9090 C   0  0  0  0  0  1  0  0  0  0  0  0
  -25.0510  -36.1780   23.8800 C   0  0  0  0  0  3  0  0  0  0  0  0
  -27.0080  -37.2370   24.9240 C   0  0  0  0  0  1  0  0  0  0  0  0
  -26.0190  -37.2980   23.8490 N   0  0  0  0  0  0  0  0  0  0  0  0
  -25.5400  -38.1910   23.9090 H   0  0  0  0  0  0  0  0  0  0  0  0
  3  2  1  6
  3  1  1  0
  4  5  1  0
  6  4  2  0
  7  8  1  0
  8  5  2  0
  8  3  1  0
  9  7  2  0
  9  6  1  0
 10 16  1  0
 11 16  1  0
 12 13  1  0
 12 11  1  0
 14 13  1  0
 14 23  1  0
 14 15  1  0
 16 15  1  0
 17 10  2  0
 18  9  1  0
 18 10  1  0
 19 18  1  0
 20 21  2  0
 21 40  1  0
 22 21  1  0
 22 25  1  0
 23 24  1  0
 23 20  1  0
 24 22  2  0
 25 26  1  0
 26 27  2  0
 28 31  1  0
 28 27  1  0
 29 28  2  0
 30 29  1  0
 30 25  2  0
 31 32  1  0
 32 33  1  0
 33 34  2  0
 35 34  1  0
 35 39  1  0
 36 35  2  0
 37 32  2  0
 37 36  1  0
 38 37  1  0
 40 41  1  0
 41 44  1  0
 41 43  1  0
 42 40  2  0
 45 46  1  0
 45 20  1  0
 47 45  1  0
 48 50  2  0
 49  3  1  0
 49 48  1  0
 51 49  1  0
 52 48  1  0
 52 53  1  0
 54 53  1  0
 55 66  2  0
 56 54  1  0
 56 61  1  0
 57 65  1  0
 57 67  1  0
 58 60  1  0
 59 65  1  0
 60 61  2  0
 60 59  1  0
 62 56  2  0
 63 62  1  0
 63 58  2  0
 64 58  1  0
 64 57  1  0
 65 55  1  0
 67 69  2  0
 68 67  1  0
 70 68  1  0
 71 80  2  0
 71 76  1  0
 72 68  1  0
 72 76  1  0
 73 72  1  0
 74 75  1  0
 74 73  1  0
 75 71  1  0
 76 77  2  0
 77 78  1  0
 79 78  2  0
 80 79  1  0
 81 55  1  0
 81 86  1  0
 81 82  1  0
 82 85  1  1
 82 83  1  0
 84 82  1  0
 86 89  1  0
 87 91  1  0
 87 86  1  0
 88 87  2  0
 91 90  1  0
 93 91  1  0
 93 94  1  0
 93 92  1  0
M  ISO  4  10 100  18 100  53 101  54 101
M  END
>  <TORSDO>  (48) 
F 20

>  <SCORE>  (48) 
-12.819

>  <name>  (48) 
47

>  <ligand_id>  (48) 
47

>  <original_smiles>  (48) 
[H]c1c([H])c([H])c2c(c1[H])C([H])([H])C([H])([H])C([H])([H])C2([H])N([H])C(=O)C1([H])N(C(=O)C([H])(N([H])C(=O)C([H])(N([H])C([H])([H])[H])C([H])([H])[H])C(C([H])([H])[H])(C([H])([H])[H])C([H])([H])[H])C([H])([H])c2c([H])c(OC([H])([H])C([H])([H])C(=O)N([H])C(c3c([H])c([H])c([H])c(N([H])C(=O)N4C([H])([H])C([H])([H])C([H])([H])C([H])(n5nc(-c6c([H])c([H])c(Oc7c([H])c([H])c(F)c([H])c7F)c([H])c6[H])c(C(=O)N([H])[H])c5N([H])[H])C4([H])[H])c3[H])(C([H])([H])[H])C([H])([H])[H])c([H])c([H])c2C1([H])[H]

>  <smiles>  (48) 
[H]c1c([H])c([H])c2c(c1[H])C([H])([H])C([H])([H])C([H])([H])C2([H])N([H])C(=O)C1([H])N(C(=O)C([H])(N([H])C(=O)C([H])(N([H])C([H])([H])[H])C([H])([H])[H])C(C([H])([H])[H])(C([H])([H])[H])C([H])([H])[H])C([H])([H])c2c([H])c(OC([H])([H])C([H])([H])C(=O)N([H])C(c3c([H])c([H])c([H])c(N([H])C(=O)N4C([H])([H])C([H])([H])C([H])([H])C([H])(n5nc(-c6c([H])c([H])c(Oc7c([H])c([H])c(F)c([H])c7F)c([H])c6[H])c(C(=O)N([H])[H])c5N([H])[H])C4([H])[H])c3[H])(C([H])([H])[H])C([H])([H])[H])c([H])c([H])c2C1([H])[H]

$$$$
48:0:0
     RDKit          3D

 94102  0  0  1  0  0  0  0  0999 V2000
  -30.2390  -18.3230   21.6750 C   0  0  0  0  0  3  0  0  0  0  0  0
  -30.0190  -19.7010   21.4060 C   0  0  0  0  0  3  0  0  0  0  0  0
  -29.8160  -17.7750   19.3780 C   0  0  0  0  0  3  0  0  0  0  0  0
  -30.1370  -17.3070   20.6820 C   0  0  0  0  0  0  0  0  0  0  0  0
  -29.6730  -20.1580   20.1110 C   0  0  0  0  0  0  0  0  0  0  0  0
  -29.5870  -19.1660   19.0890 C   0  0  0  0  0  0  0  0  0  0  0  0
  -29.1570  -22.6600   20.5320 C   0  0  0  0  0  0  0  0  0  0  0  0
  -29.4530  -21.5640   19.7660 N   0  0  0  0  0  0  0  0  0  0  0  0
  -28.9370  -22.5640   21.7410 O   0  0  0  0  0  0  0  0  0  0  0  0
  -29.5000  -21.7460   18.7710 H   0  0  0  0  0  0  0  0  0  0  0  0
  -29.0820  -24.0910   19.8630 C   0  0  0  0  0  3  0  0  0  0  0  0
  -28.4220  -25.2690   20.7040 C   0  0  0  0  0  3  0  0  0  0  0  0
  -28.5440  -26.6590   20.2220 O   0  0  0  0  0  0  0  0  0  0  0  0
  -24.5580  -31.9010   23.1640 C   0  0  0  0  0  0  0  0  0  0  0  0
  -27.3880  -27.4400   20.1940 C   0  0  0  0  0  0  0  0  0  0  0  0
  -23.4380  -30.4630   21.4960 C   0  0  0  0  0  3  0  0  0  0  0  0
  -24.9710  -28.9490   20.1200 C   0  0  0  0  0  0  0  0  0  0  0  0
  -25.9670  -30.8640   21.3750 C   0  0  0  0  0  2  0  0  0  0  0  0
  -26.1060  -29.4880   20.7390 C   0  0  0  0  0  0  0  0  0  0  0  0
  -27.3200  -28.7460   20.7620 C   0  0  0  0  0  3  0  0  0  0  0  0
  -26.2320  -26.9390   19.5590 C   0  0  0  0  0  3  0  0  0  0  0  0
  -25.0330  -27.6770   19.5240 C   0  0  0  0  0  3  0  0  0  0  0  0
  -23.7070  -29.7840   20.1270 C   0  0  0  0  0  2  0  0  0  0  0  0
  -24.6710  -31.0940   22.0690 N   0  0  0  0  0  0  0  0  0  0  0  0
  -23.4540  -32.1490   23.6690 O   0  0  0  0  0  0  0  0  0  0  0  0
  -22.7810  -29.4310   22.4440 C   0  0  0  0  0  0  0  0  0  0  0  0
  -21.4630  -29.2190   22.2850 N   0  0  0  0  0  0  0  0  0  0  0  0
  -23.4560  -28.8240   23.2790 O   0  0  0  0  0  0  0  0  0  0  0  0
  -20.9780  -29.7630   21.5860 H   0  0  0  0  0  0  0  0  0  0  0  0
  -18.1010  -27.9610   22.7270 C   0  0  0  0  0  0  0  0  0  0  0  0
  -20.6500  -28.2630   23.0370 C   0  0  0  0  0  3  0  0  0  0  0  0
  -20.7850  -26.8380   22.4550 C   0  0  0  0  0  2  0  0  0  0  0  0
  -19.7040  -26.5010   21.4230 C   0  0  0  0  0  2  0  0  0  0  0  0
  -18.3100  -26.6200   22.0460 C   0  0  0  0  0  2  0  0  0  0  0  0
  -19.2000  -28.7400   23.1780 C   0  0  0  0  0  0  0  0  0  0  0  0
  -18.9500  -29.9950   23.7730 C   0  0  0  0  0  3  0  0  0  0  0  0
  -17.6350  -30.4740   23.9230 C   0  0  0  0  0  3  0  0  0  0  0  0
  -16.5500  -29.6920   23.4880 C   0  0  0  0  0  3  0  0  0  0  0  0
  -16.7840  -28.4380   22.8960 C   0  0  0  0  0  3  0  0  0  0  0  0
  -25.8060  -32.5720   23.8180 C   0  0  0  0  0  3  0  0  0  0  0  0
  -25.4470  -33.9610   24.1370 N   0  0  0  0  0  0  0  0  0  0  0  0
  -25.7660  -35.0220   23.3850 C   0  0  0  0  0  0  0  0  0  0  0  0
  -26.4620  -34.9380   22.3700 O   0  0  0  0  0  0  0  0  0  0  0  0
  -24.8280  -34.0960   24.9230 H   0  0  0  0  0  0  0  0  0  0  0  0
  -23.9890  -36.7600   22.9920 C   0  0  0  0  0  1  0  0  0  0  0  0
  -25.2250  -36.3960   23.8280 C   0  0  0  0  0  3  0  0  0  0  0  0
  -27.3130  -37.3490   24.7040 C   0  0  0  0  0  1  0  0  0  0  0  0
  -26.2270  -37.4790   23.7350 N   0  0  0  0  0  0  0  0  0  0  0  0
  -25.7890  -38.3870   23.8700 H   0  0  0  0  0  0  0  0  0  0  0  0
  -26.3140  -31.8180   25.1070 C   0  0  1  0  0  0  0  0  0  0  0  0
  -25.1970  -31.5240   26.1370 C   0  0  0  0  0  1  0  0  0  0  0  0
  -26.9740  -30.4710   24.7320 C   0  0  0  0  0  1  0  0  0  0  0  0
  -27.4030  -32.6600   25.8120 C   0  0  0  0  0  1  0  0  0  0  0  0
  -30.2290  -15.8250   21.0940 C   0  0  0  0  0  0  0  0  0  0  0  0
  -29.9020  -15.5260   22.2840 N   0  0  0  0  0  0  0  0  0  0  0  0
  -29.5770  -16.3450   22.7830 H   0  0  0  0  0  0  0  0  0  0  0  0
  -30.8000  -14.7240   20.1270 C   0  0  0  0  0  0  0  0  0  0  0  0
  -30.4890  -12.5610   18.9300 C   0  0  0  0  0  2  0  0  0  0  0  0
  -29.4840  -12.7530   17.7720 C   0  0  0  0  0  2  0  0  0  0  0  0
  -28.0320  -12.5770   18.2600 C   0  0  0  0  0  2  0  0  0  0  0  0
  -27.7490  -13.3760   19.5590 C   0  0  0  0  0  3  0  0  0  0  0  0
  -28.8550  -13.1200   20.6030 C   0  0  0  0  0  2  0  0  0  0  0  0
  -30.1450  -13.5170   20.0070 N   0  0  0  0  0  0  0  0  0  0  0  0
  -31.8430  -14.9490   19.5020 O   0  0  0  0  0  0  0  0  0  0  0  0
  -25.3930  -13.9640   20.4040 C   0  0  0  0  0  0  0  0  0  0  0  0
  -24.3440  -13.1840   20.8100 C   0  0  0  0  0  0  0  0  0  0  0  0
  -24.8030  -11.8320   20.7270 C   0  0  0  0  0  0  0  0  0  0  0  0
  -26.4230  -13.0880   20.0980 N   0  0  0  0  0  0  0  0  0  0  0  0
  -26.0750  -11.7990   20.3500 N   0  0  0  0  0  0  0  0  0  0  0  0
  -24.0860  -10.5670   20.9290 C   0  0  0  0  0  0  0  0  0  0  0  0
  -24.5210   -9.6150   21.8750 C   0  0  0  0  0  3  0  0  0  0  0  0
  -23.8040   -8.4130   22.0630 C   0  0  0  0  0  3  0  0  0  0  0  0
  -22.6390   -8.1550   21.3030 C   0  0  0  0  0  0  0  0  0  0  0  0
  -22.2230   -9.0980   20.3460 C   0  0  0  0  0  3  0  0  0  0  0  0
  -22.9390  -10.2900   20.1560 C   0  0  0  0  0  3  0  0  0  0  0  0
  -21.8940   -7.0050   21.3980 O   0  0  0  0  0  0  0  0  0  0  0  0
  -21.7830   -6.3150   22.5780 C   0  0  0  0  0  0  0  0  0  0  0  0
  -21.2680   -6.9170   23.7470 C   0  0  0  0  0  3  0  0  0  0  0  0
  -21.1070   -6.1530   24.9210 C   0  0  0  0  0  3  0  0  0  0  0  0
  -21.4500   -4.7870   24.9240 C   0  0  0  0  0  0  0  0  0  0  0  0
  -21.9570   -4.1850   23.7590 C   0  0  0  0  0  3  0  0  0  0  0  0
  -22.1200   -4.9470   22.5890 C   0  0  0  0  0  0  0  0  0  0  0  0
  -22.5900   -4.3570   21.4630 F   0  0  0  0  0  0  0  0  0  0  0  0
  -21.2870   -4.0490   26.0480 F   0  0  0  0  0  0  0  0  0  0  0  0
  -22.9640  -13.6560   21.1650 C   0  0  0  0  0  0  0  0  0  0  0  0
  -22.2840  -12.9460   22.0600 N   0  0  0  0  0  0  0  0  0  0  0  0
  -22.4970  -14.6880   20.6850 O   0  0  0  0  0  0  0  0  0  0  0  0
  -22.6740  -12.1100   22.4700 H   0  0  0  0  0  0  0  0  0  0  0  0
  -21.3610  -13.2450   22.3400 H   0  0  0  0  0  0  0  0  0  0  0  0
  -25.5510  -15.3380   20.2480 N   0  0  0  0  0  0  0  0  0  0  0  0
  -24.7970  -15.9930   20.4210 H   0  0  0  0  0  0  0  0  0  0  0  0
  -26.3960  -15.7860   19.9160 H   0  0  0  0  0  0  0  0  0  0  0  0
  -28.9820  -18.6790   16.8090 C   0  0  0  0  0  1  0  0  0  0  0  0
  -29.2560  -19.6300   17.8310 O   0  0  0  0  0  0  0  0  0  0  0  0
  2  1  1  0
  3  4  1  0
  4 54  1  0
  4  1  2  0
  5  2  2  0
  6  3  2  0
  6  5  1  0
  7  9  2  0
  8  5  1  0
  8  7  1  0
 10  8  1  0
 11  7  1  0
 11 12  2  0
 13 12  1  0
 14 25  2  0
 15 13  1  0
 15 20  1  0
 16 24  1  0
 16 26  1  0
 17 23  1  0
 17 19  1  0
 18 24  1  0
 19 20  2  0
 19 18  1  0
 21 15  2  0
 22 21  1  0
 22 17  2  0
 23 16  1  0
 24 14  1  0
 26 28  2  0
 27 26  1  0
 29 27  1  0
 30 39  2  0
 30 35  1  0
 31 27  1  0
 31 35  1  0
 32 31  1  0
 33 34  1  0
 33 32  1  0
 34 30  1  0
 35 36  2  0
 36 37  1  0
 38 37  2  0
 39 38  1  0
 40 14  1  0
 40 41  1  0
 40 50  1  0
 41 44  1  0
 42 46  1  0
 42 41  1  0
 43 42  2  0
 46 45  1  0
 48 46  1  0
 48 49  1  0
 48 47  1  0
 50 53  1  1
 50 51  1  0
 52 50  1  0
 54 55  2  0
 55 56  1  0
 57 54  1  0
 58 63  1  0
 59 60  1  0
 59 58  1  0
 61 60  1  0
 61 68  1  0
 61 62  1  0
 63 57  1  0
 63 62  1  0
 64 57  2  0
 65 66  2  0
 66 85  1  0
 67 66  1  0
 67 70  1  0
 68 69  1  0
 68 65  1  0
 69 67  2  0
 70 71  1  0
 71 72  2  0
 73 76  1  0
 73 72  1  0
 74 73  2  0
 75 74  1  0
 75 70  2  0
 76 77  1  0
 77 82  2  0
 77 78  1  0
 78 79  2  0
 79 80  1  0
 80 84  1  0
 81 80  2  0
 82 81  1  0
 83 82  1  0
 85 86  1  0
 86 89  1  0
 86 88  1  0
 87 85  2  0
 90 65  1  0
 90 91  1  0
 92 90  1  0
 93 94  1  0
 94  6  1  0
M  ISO  4  12 101  13 101  54 100  57 100
M  END
>  <TORSDO>  (49) 
F 21

>  <SCORE>  (49) 
-12.834

>  <name>  (49) 
48

>  <ligand_id>  (49) 
48

>  <original_smiles>  (49) 
[H]N=C(C(=O)N1C([H])([H])C([H])([H])C([H])([H])C([H])(n2nc(-c3c([H])c([H])c(Oc4c([H])c([H])c(F)c([H])c4F)c([H])c3[H])c(C(=O)N([H])[H])c2N([H])[H])C1([H])[H])c1c([H])c([H])c(N([H])C(=O)C([H])([H])C([H])([H])Oc2c([H])c([H])c3c(c2[H])C([H])([H])N(C(=O)C([H])(N([H])C(=O)C([H])(N([H])C([H])([H])[H])C([H])([H])[H])C(C([H])([H])[H])(C([H])([H])[H])C([H])([H])[H])C([H])(C(=O)N([H])C2([H])c4c([H])c([H])c([H])c([H])c4C([H])([H])C([H])([H])C2([H])[H])C3([H])[H])c(OC([H])([H])[H])c1[H]

>  <smiles>  (49) 
[H]N=C(C(=O)N1C([H])([H])C([H])([H])C([H])([H])C([H])(n2nc(-c3c([H])c([H])c(Oc4c([H])c([H])c(F)c([H])c4F)c([H])c3[H])c(C(=O)N([H])[H])c2N([H])[H])C1([H])[H])c1c([H])c([H])c(N([H])C(=O)C([H])([H])C([H])([H])Oc2c([H])c([H])c3c(c2[H])C([H])([H])N(C(=O)C([H])(N([H])C(=O)C([H])(N([H])C([H])([H])[H])C([H])([H])[H])C(C([H])([H])[H])(C([H])([H])[H])C([H])([H])[H])C([H])(C(=O)N([H])C2([H])c4c([H])c([H])c([H])c([H])c4C([H])([H])C([H])([H])C2([H])[H])C3([H])[H])c(OC([H])([H])[H])c1[H]

$$$$
49:0:0
     RDKit          3D

 95104  0  0  1  0  0  0  0  0999 V2000
  -31.9840  -22.7870   21.3460 C   0  0  0  0  0  0  0  0  0  0  0  0
  -30.9490  -23.4760   22.2390 C   0  0  0  0  0  2  0  0  0  0  0  0
  -31.6200  -22.6280   19.8730 C   0  0  0  0  0  2  0  0  0  0  0  0
  -30.3240  -24.7120   21.5570 C   0  0  0  0  0  2  0  0  0  0  0  0
  -29.2830  -23.4500   19.4350 C   0  0  0  0  0  2  0  0  0  0  0  0
  -29.1020  -24.4950   20.6120 C   0  0  0  0  0  3  0  0  0  0  0  0
  -30.2000  -22.3190   19.7160 N   0  0  0  0  0  0  0  0  0  0  0  0
  -33.0620  -22.3900   21.7950 O   0  0  0  0  0  0  0  0  0  0  0  0
  -29.8370  -18.7030   20.6100 C   0  0  0  0  0  3  0  0  0  0  0  0
  -30.4510  -18.8660   18.2780 C   0  0  0  0  0  3  0  0  0  0  0  0
  -29.6740  -20.1130   20.6660 C   0  0  0  0  0  3  0  0  0  0  0  0
  -30.2870  -20.2770   18.3340 C   0  0  0  0  0  3  0  0  0  0  0  0
  -30.2770  -18.0610   19.4320 C   0  0  0  0  0  0  0  0  0  0  0  0
  -29.9600  -20.9300   19.5470 C   0  0  0  0  0  0  0  0  0  0  0  0
  -30.7560  -16.5770   19.4540 C   0  0  0  0  0  2  0  0  0  0  0  0
  -30.3660  -14.1300   19.3470 C   0  0  0  0  0  0  0  0  0  0  0  0
  -29.8870  -11.8740   18.4460 C   0  0  0  0  0  2  0  0  0  0  0  0
  -28.7510  -11.9130   17.4080 C   0  0  0  0  0  2  0  0  0  0  0  0
  -27.3930  -11.7180   18.1090 C   0  0  0  0  0  2  0  0  0  0  0  0
  -27.2210  -12.6440   19.3390 C   0  0  0  0  0  3  0  0  0  0  0  0
  -28.4750  -12.6270   20.2520 C   0  0  0  0  0  2  0  0  0  0  0  0
  -29.6300  -12.9670   19.4100 N   0  0  0  0  0  0  0  0  0  0  0  0
  -31.5090  -14.0740   18.8930 O   0  0  0  0  0  0  0  0  0  0  0  0
  -28.4060  -15.7330   19.5930 C   0  0  0  0  0  1  0  0  0  0  0  0
  -29.8320  -15.3910   19.5840 N   0  0  0  0  0  0  0  0  0  0  0  0
  -25.0320  -13.2580   20.5320 C   0  0  0  0  0  0  0  0  0  0  0  0
  -24.0290  -12.4850   21.0500 C   0  0  0  0  0  0  0  0  0  0  0  0
  -24.4370  -11.1300   20.8590 C   0  0  0  0  0  0  0  0  0  0  0  0
  -25.9880  -12.3690   20.0650 N   0  0  0  0  0  0  0  0  0  0  0  0
  -25.6480  -11.0830   20.3220 N   0  0  0  0  0  0  0  0  0  0  0  0
  -23.7220   -9.8740   21.1030 C   0  0  0  0  0  0  0  0  0  0  0  0
  -24.2310   -8.8980   21.9880 C   0  0  0  0  0  3  0  0  0  0  0  0
  -23.5160   -7.7040   22.2240 C   0  0  0  0  0  3  0  0  0  0  0  0
  -22.2800   -7.4780   21.5750 C   0  0  0  0  0  0  0  0  0  0  0  0
  -21.7910   -8.4420   20.6760 C   0  0  0  0  0  3  0  0  0  0  0  0
  -22.5060   -9.6270   20.4390 C   0  0  0  0  0  3  0  0  0  0  0  0
  -21.5280   -6.3370   21.7250 O   0  0  0  0  0  0  0  0  0  0  0  0
  -21.5140   -5.6320   22.9010 C   0  0  0  0  0  0  0  0  0  0  0  0
  -21.0470   -6.2020   24.1060 C   0  0  0  0  0  3  0  0  0  0  0  0
  -20.9860   -5.4210   25.2760 C   0  0  0  0  0  3  0  0  0  0  0  0
  -21.3800   -4.0710   25.2440 C   0  0  0  0  0  0  0  0  0  0  0  0
  -21.8420   -3.4990   24.0450 C   0  0  0  0  0  3  0  0  0  0  0  0
  -21.9050   -4.2780   22.8760 C   0  0  0  0  0  0  0  0  0  0  0  0
  -22.3280   -3.7160   21.7180 F   0  0  0  0  0  0  0  0  0  0  0  0
  -21.3140   -3.3170   26.3670 F   0  0  0  0  0  0  0  0  0  0  0  0
  -22.7190  -12.9710   21.6000 C   0  0  0  0  0  0  0  0  0  0  0  0
  -22.1410  -12.2350   22.5430 N   0  0  0  0  0  0  0  0  0  0  0  0
  -22.2250  -14.0360   21.2300 O   0  0  0  0  0  0  0  0  0  0  0  0
  -22.5590  -11.3750   22.8630 H   0  0  0  0  0  0  0  0  0  0  0  0
  -21.2690  -12.5380   22.9530 H   0  0  0  0  0  0  0  0  0  0  0  0
  -25.1930  -14.6330   20.3960 N   0  0  0  0  0  0  0  0  0  0  0  0
  -24.4760  -15.2910   20.6850 H   0  0  0  0  0  0  0  0  0  0  0  0
  -25.9760  -15.0790   19.9360 H   0  0  0  0  0  0  0  0  0  0  0  0
  -28.6690  -25.9480   20.1820 C   0  0  0  0  0  2  0  0  0  0  0  0
  -27.5940  -26.0270   19.2500 O   0  0  0  0  0  0  0  0  0  0  0  0
  -24.3310  -31.3290   22.9050 C   0  0  0  0  0  0  0  0  0  0  0  0
  -26.5600  -26.9240   19.4420 C   0  0  0  0  0  0  0  0  0  0  0  0
  -22.9690  -30.0930   21.2540 C   0  0  0  0  0  3  0  0  0  0  0  0
  -24.2640  -28.5700   19.6680 C   0  0  0  0  0  0  0  0  0  0  0  0
  -25.5000  -30.3230   20.9450 C   0  0  0  0  0  2  0  0  0  0  0  0
  -25.4800  -28.9860   20.2260 C   0  0  0  0  0  0  0  0  0  0  0  0
  -26.6360  -28.1690   20.1210 C   0  0  0  0  0  3  0  0  0  0  0  0
  -25.3330  -26.5440   18.8680 C   0  0  0  0  0  3  0  0  0  0  0  0
  -24.1850  -27.3480   18.9850 C   0  0  0  0  0  3  0  0  0  0  0  0
  -23.0730  -29.4890   19.8290 C   0  0  0  0  0  2  0  0  0  0  0  0
  -24.2880  -30.5940   21.7590 N   0  0  0  0  0  0  0  0  0  0  0  0
  -23.2950  -31.6230   23.5170 O   0  0  0  0  0  0  0  0  0  0  0  0
  -22.3120  -29.0500   22.1880 C   0  0  0  0  0  0  0  0  0  0  0  0
  -20.9780  -28.9260   22.1080 N   0  0  0  0  0  0  0  0  0  0  0  0
  -23.0000  -28.3550   22.9420 O   0  0  0  0  0  0  0  0  0  0  0  0
  -20.4840  -29.5360   21.4700 H   0  0  0  0  0  0  0  0  0  0  0  0
  -17.5770  -27.8420   22.6840 C   0  0  0  0  0  0  0  0  0  0  0  0
  -20.1530  -27.9820   22.8630 C   0  0  0  0  0  3  0  0  0  0  0  0
  -20.1730  -26.5810   22.2110 C   0  0  0  0  0  2  0  0  0  0  0  0
  -19.0180  -26.3560   21.2290 C   0  0  0  0  0  2  0  0  0  0  0  0
  -17.6700  -26.5240   21.9370 C   0  0  0  0  0  2  0  0  0  0  0  0
  -18.7430  -28.5350   23.1060 C   0  0  0  0  0  0  0  0  0  0  0  0
  -18.6010  -29.7750   23.7670 C   0  0  0  0  0  3  0  0  0  0  0  0
  -17.3260  -30.3180   24.0110 C   0  0  0  0  0  3  0  0  0  0  0  0
  -16.1760  -29.6210   23.6060 C   0  0  0  0  0  3  0  0  0  0  0  0
  -16.3030  -28.3840   22.9480 C   0  0  0  0  0  3  0  0  0  0  0  0
  -25.6800  -31.8570   23.4890 C   0  0  0  0  0  3  0  0  0  0  0  0
  -26.2330  -30.9710   24.6730 C   0  0  1  0  0  0  0  0  0  0  0  0
  -25.1970  -30.7090   25.7900 C   0  0  0  0  0  1  0  0  0  0  0  0
  -26.7200  -29.6000   24.1470 C   0  0  0  0  0  1  0  0  0  0  0  0
  -27.4610  -31.6630   25.3110 C   0  0  0  0  0  1  0  0  0  0  0  0
  -25.4580  -33.2380   23.9330 N   0  0  0  0  0  0  0  0  0  0  0  0
  -25.8440  -34.3260   23.2530 C   0  0  0  0  0  0  0  0  0  0  0  0
  -26.4950  -34.2660   22.2060 O   0  0  0  0  0  0  0  0  0  0  0  0
  -24.8830  -33.3650   24.7520 H   0  0  0  0  0  0  0  0  0  0  0  0
  -24.2290  -36.2460   23.0590 C   0  0  0  0  0  1  0  0  0  0  0  0
  -25.4460  -35.7000   23.8260 C   0  0  0  0  0  3  0  0  0  0  0  0
  -27.6240  -36.3900   24.7230 C   0  0  0  0  0  1  0  0  0  0  0  0
  -26.5420  -36.6930   23.7900 N   0  0  0  0  0  0  0  0  0  0  0  0
  -26.1920  -37.6250   24.0010 H   0  0  0  0  0  0  0  0  0  0  0  0
  1  8  2  0
  1  2  1  0
  3  1  1  0
  4  2  1  0
  5  7  1  0
  5  6  1  0
  6 54  1  0
  6  4  1  0
  7  3  1  0
  9 11  1  0
 10 12  2  0
 10 13  1  0
 12 14  1  0
 13 15  1  0
 13  9  2  0
 14  7  1  0
 14 11  2  0
 15 25  1  0
 16 22  1  0
 16 25  1  0
 17 22  1  0
 18 19  1  0
 18 17  1  0
 20 19  1  0
 20 29  1  0
 20 21  1  0
 22 21  1  0
 23 16  2  0
 25 24  1  0
 26 27  2  0
 27 46  1  0
 28 27  1  0
 28 31  1  0
 29 30  1  0
 29 26  1  0
 30 28  2  0
 31 32  1  0
 32 33  2  0
 34 37  1  0
 34 33  1  0
 35 34  2  0
 36 35  1  0
 36 31  2  0
 37 38  1  0
 38 39  1  0
 39 40  2  0
 41 40  1  0
 41 45  1  0
 42 41  2  0
 43 38  2  0
 43 42  1  0
 44 43  1  0
 46 47  1  0
 47 49  1  0
 47 50  1  0
 48 46  2  0
 51 26  1  0
 51 52  1  0
 53 51  1  0
 55 57  1  0
 55 54  1  0
 56 67  2  0
 57 62  1  0
 58 66  1  0
 58 68  1  0
 59 65  1  0
 59 61  1  0
 60 66  1  0
 61 60  1  0
 62 61  2  0
 63 64  1  0
 63 57  2  0
 64 59  2  0
 65 58  1  0
 66 56  1  0
 68 70  2  0
 69 68  1  0
 71 69  1  0
 72 81  2  0
 72 77  1  0
 73 69  1  0
 73 77  1  0
 74 73  1  0
 75 76  1  0
 75 74  1  0
 76 72  1  0
 77 78  2  0
 78 79  1  0
 80 79  2  0
 81 80  1  0
 82 56  1  0
 82 87  1  0
 82 83  1  0
 83 86  1  1
 83 84  1  0
 85 83  1  0
 87 90  1  0
 88 92  1  0
 88 87  1  0
 89 88  2  0
 92 91  1  0
 94 92  1  0
 94 95  1  0
 94 93  1  0
M  ISO  4  16 100  25 100  54 101  55 101
M  END
>  <TORSDO>  (50) 
F 19

>  <SCORE>  (50) 
-9.661

>  <name>  (50) 
49

>  <ligand_id>  (50) 
49

>  <original_smiles>  (50) 
[H]c1c([H])c([H])c2c(c1[H])C([H])([H])C([H])([H])C([H])([H])C2([H])N([H])C(=O)C1([H])N(C(=O)C([H])(N([H])C(=O)C([H])(N([H])C([H])([H])[H])C([H])([H])[H])C(C([H])([H])[H])(C([H])([H])[H])C([H])([H])[H])C([H])([H])c2c([H])c(OC([H])([H])C3([H])C([H])([H])N(c4c([H])c([H])c(C([H])([H])N(C(=O)N5C([H])([H])C([H])([H])C([H])([H])C([H])(n6nc(-c7c([H])c([H])c(Oc8c([H])c([H])c(F)c([H])c8F)c([H])c7[H])c(C(=O)N([H])[H])c6N([H])[H])C5([H])[H])C([H])([H])[H])c([H])c4[H])C([H])([H])C(=O)C([H])([H])C3([H])[H])c([H])c([H])c2C1([H])[H]

>  <smiles>  (50) 
[H]c1c([H])c([H])c2c(c1[H])C([H])([H])C([H])([H])C([H])([H])C2([H])N([H])C(=O)C1([H])N(C(=O)C([H])(N([H])C(=O)C([H])(N([H])C([H])([H])[H])C([H])([H])[H])C(C([H])([H])[H])(C([H])([H])[H])C([H])([H])[H])C([H])([H])c2c([H])c(OC([H])([H])C3([H])C([H])([H])N(c4c([H])c([H])c(C([H])([H])N(C(=O)N5C([H])([H])C([H])([H])C([H])([H])C([H])(n6nc(-c7c([H])c([H])c(Oc8c([H])c([H])c(F)c([H])c8F)c([H])c7[H])c(C(=O)N([H])[H])c6N([H])[H])C5([H])[H])C([H])([H])[H])c([H])c4[H])C([H])([H])C(=O)C([H])([H])C3([H])[H])c([H])c([H])c2C1([H])[H]

$$$$
50:0:0
     RDKit          3D

 90 98  0  0  1  0  0  0  0  0999 V2000
  -31.3100  -17.6120   19.3310 C   0  0  0  0  0  3  0  0  0  0  0  0
  -30.9670  -20.0440   19.4680 C   0  0  0  0  0  3  0  0  0  0  0  0
  -29.5840  -18.5220   20.7690 C   0  0  0  0  0  3  0  0  0  0  0  0
  -31.6610  -18.9290   18.9550 C   0  0  0  0  0  0  0  0  0  0  0  0
  -30.2760  -17.3450   20.2640 C   0  0  0  0  0  0  0  0  0  0  0  0
  -29.8930  -19.8920   20.3720 C   0  0  0  0  0  0  0  0  0  0  0  0
  -32.8160  -19.1520   17.9930 C   0  0  0  0  0  1  0  0  0  0  0  0
  -30.6310  -14.7490   20.4120 C   0  0  0  0  0  0  0  0  0  0  0  0
  -30.3600  -12.4780   19.4220 C   0  0  0  0  0  2  0  0  0  0  0  0
  -29.4370  -12.5630   18.1870 C   0  0  0  0  0  2  0  0  0  0  0  0
  -27.9640  -12.4060   18.6090 C   0  0  0  0  0  2  0  0  0  0  0  0
  -27.5910  -13.3010   19.8200 C   0  0  0  0  0  3  0  0  0  0  0  0
  -28.6450  -13.2270   20.9480 C   0  0  0  0  0  2  0  0  0  0  0  0
  -29.9510  -13.5510   20.3580 N   0  0  0  0  0  0  0  0  0  0  0  0
  -31.8260  -14.7650   20.1120 O   0  0  0  0  0  0  0  0  0  0  0  0
  -29.9310  -15.9330   20.6230 N   0  0  0  0  0  0  0  0  0  0  0  0
  -28.9980  -15.8020   20.9840 H   0  0  0  0  0  0  0  0  0  0  0  0
  -25.1980  -13.8990   20.5190 C   0  0  0  0  0  0  0  0  0  0  0  0
  -24.1250  -13.1320   20.8810 C   0  0  0  0  0  0  0  0  0  0  0  0
  -24.5850  -11.7780   20.8650 C   0  0  0  0  0  0  0  0  0  0  0  0
  -26.2430  -13.0170   20.3010 N   0  0  0  0  0  0  0  0  0  0  0  0
  -25.8790  -11.7350   20.5730 N   0  0  0  0  0  0  0  0  0  0  0  0
  -23.8500  -10.5200   21.0520 C   0  0  0  0  0  0  0  0  0  0  0  0
  -24.2720   -9.5500   21.9880 C   0  0  0  0  0  3  0  0  0  0  0  0
  -23.5370   -8.3580   22.1670 C   0  0  0  0  0  3  0  0  0  0  0  0
  -22.3640   -8.1280   21.4090 C   0  0  0  0  0  0  0  0  0  0  0  0
  -21.9610   -9.0860   20.4620 C   0  0  0  0  0  3  0  0  0  0  0  0
  -22.6970  -10.2690   20.2820 C   0  0  0  0  0  3  0  0  0  0  0  0
  -21.6020   -6.9870   21.4960 O   0  0  0  0  0  0  0  0  0  0  0  0
  -21.5510   -6.2410   22.6460 C   0  0  0  0  0  0  0  0  0  0  0  0
  -21.1390   -6.7990   23.8770 C   0  0  0  0  0  3  0  0  0  0  0  0
  -21.0340   -5.9810   25.0210 C   0  0  0  0  0  3  0  0  0  0  0  0
  -21.3280   -4.6070   24.9340 C   0  0  0  0  0  0  0  0  0  0  0  0
  -21.7340   -4.0500   23.7080 C   0  0  0  0  0  3  0  0  0  0  0  0
  -21.8400   -4.8640   22.5680 C   0  0  0  0  0  0  0  0  0  0  0  0
  -22.2090   -4.3180   21.3840 F   0  0  0  0  0  0  0  0  0  0  0  0
  -21.2200   -3.8200   26.0300 F   0  0  0  0  0  0  0  0  0  0  0  0
  -22.7270  -13.6150   21.1350 C   0  0  0  0  0  0  0  0  0  0  0  0
  -21.9880  -12.9230   21.9950 N   0  0  0  0  0  0  0  0  0  0  0  0
  -22.3000  -14.6400   20.6050 O   0  0  0  0  0  0  0  0  0  0  0  0
  -22.3480  -12.0930   22.4410 H   0  0  0  0  0  0  0  0  0  0  0  0
  -21.0500  -13.2290   22.2130 H   0  0  0  0  0  0  0  0  0  0  0  0
  -25.3660  -15.2690   20.3340 N   0  0  0  0  0  0  0  0  0  0  0  0
  -24.5960  -15.9230   20.4250 H   0  0  0  0  0  0  0  0  0  0  0  0
  -26.2160  -15.7030   19.9950 H   0  0  0  0  0  0  0  0  0  0  0  0
  -29.2440  -21.0460   20.9030 O   0  0  0  0  0  0  0  0  0  0  0  0
  -28.9430  -22.2670   20.0920 C   0  0  0  0  0  3  0  0  0  0  0  0
  -28.9590  -23.7530   20.7390 C   0  0  0  0  0  3  0  0  0  0  0  0
  -28.1880  -24.9440   19.9640 C   0  0  0  0  0  2  0  0  0  0  0  0
  -28.3240  -26.4030   20.3150 O   0  0  0  0  0  0  0  0  0  0  0  0
  -24.6100  -31.8800   23.2500 C   0  0  0  0  0  0  0  0  0  0  0  0
  -27.2220  -27.2870   20.2040 C   0  0  0  0  0  0  0  0  0  0  0  0
  -23.4100  -30.4800   21.6090 C   0  0  0  0  0  3  0  0  0  0  0  0
  -24.8650  -28.9380   20.1730 C   0  0  0  0  0  0  0  0  0  0  0  0
  -25.9520  -30.7900   21.4350 C   0  0  0  0  0  2  0  0  0  0  0  0
  -26.0330  -29.4100   20.7850 C   0  0  0  0  0  0  0  0  0  0  0  0
  -27.2090  -28.5950   20.7950 C   0  0  0  0  0  3  0  0  0  0  0  0
  -26.0380  -26.8960   19.5340 C   0  0  0  0  0  3  0  0  0  0  0  0
  -24.8730  -27.6900   19.5330 C   0  0  0  0  0  3  0  0  0  0  0  0
  -23.6280  -29.8160   20.2240 C   0  0  0  0  0  2  0  0  0  0  0  0
  -24.6750  -31.0690   22.1550 N   0  0  0  0  0  0  0  0  0  0  0  0
  -23.5270  -32.1560   23.7850 O   0  0  0  0  0  0  0  0  0  0  0  0
  -22.7470  -29.4600   22.5670 C   0  0  0  0  0  0  0  0  0  0  0  0
  -21.4190  -29.2850   22.4430 N   0  0  0  0  0  0  0  0  0  0  0  0
  -23.4270  -28.8320   23.3830 O   0  0  0  0  0  0  0  0  0  0  0  0
  -20.9310  -29.8460   21.7580 H   0  0  0  0  0  0  0  0  0  0  0  0
  -18.0410  -28.0910   22.9450 C   0  0  0  0  0  0  0  0  0  0  0  0
  -20.5990  -28.3490   23.2130 C   0  0  0  0  0  3  0  0  0  0  0  0
  -20.7000  -26.9170   22.6390 C   0  0  0  0  0  2  0  0  0  0  0  0
  -19.5970  -26.5950   21.6260 C   0  0  0  0  0  2  0  0  0  0  0  0
  -18.2150  -26.7420   22.2690 C   0  0  0  0  0  2  0  0  0  0  0  0
  -19.1600  -28.8520   23.3740 C   0  0  0  0  0  0  0  0  0  0  0  0
  -18.9430  -30.1140   23.9690 C   0  0  0  0  0  3  0  0  0  0  0  0
  -17.6390  -30.6160   24.1370 C   0  0  0  0  0  3  0  0  0  0  0  0
  -16.5330  -29.8520   23.7250 C   0  0  0  0  0  3  0  0  0  0  0  0
  -16.7360  -28.5920   23.1350 C   0  0  0  0  0  3  0  0  0  0  0  0
  -25.8920  -32.5160   23.8700 C   0  0  0  0  0  3  0  0  0  0  0  0
  -26.4060  -31.7500   25.1520 C   0  0  1  0  0  0  0  0  0  0  0  0
  -25.3110  -31.5170   26.2190 C   0  0  0  0  0  1  0  0  0  0  0  0
  -26.9880  -30.3690   24.7690 C   0  0  0  0  0  1  0  0  0  0  0  0
  -27.5590  -32.5440   25.8100 C   0  0  0  0  0  1  0  0  0  0  0  0
  -25.5840  -33.9150   24.1970 N   0  0  0  0  0  0  0  0  0  0  0  0
  -25.9110  -34.9650   23.4320 C   0  0  0  0  0  0  0  0  0  0  0  0
  -26.5760  -34.8580   22.3990 O   0  0  0  0  0  0  0  0  0  0  0  0
  -24.9940  -34.0690   25.0020 H   0  0  0  0  0  0  0  0  0  0  0  0
  -24.1820  -36.7550   23.0780 C   0  0  0  0  0  1  0  0  0  0  0  0
  -25.4260  -36.3550   23.8860 C   0  0  0  0  0  3  0  0  0  0  0  0
  -27.5630  -37.2430   24.7030 C   0  0  0  0  0  1  0  0  0  0  0  0
  -26.4580  -37.4090   23.7640 N   0  0  0  0  0  0  0  0  0  0  0  0
  -26.0520  -38.3290   23.9140 H   0  0  0  0  0  0  0  0  0  0  0  0
  1  5  1  0
  2  6  2  0
  4  1  2  0
  4  2  1  0
  5 16  1  0
  5  3  2  0
  6  3  1  0
  6 46  1  0
  7  4  1  0
  8 16  1  0
  9 14  1  0
 10 11  1  0
 10  9  1  0
 12 11  1  0
 12 21  1  0
 12 13  1  0
 14  8  1  0
 14 13  1  0
 15  8  2  0
 16 17  1  0
 18 19  2  0
 19 38  1  0
 20 19  1  0
 20 23  1  0
 21 18  1  0
 21 22  1  0
 22 20  2  0
 23 24  1  0
 24 25  2  0
 26 29  1  0
 26 25  1  0
 27 26  2  0
 28 27  1  0
 28 23  2  0
 29 30  1  0
 30 31  1  0
 31 32  2  0
 33 32  1  0
 33 37  1  0
 34 33  2  0
 35 30  2  0
 35 34  1  0
 36 35  1  0
 38 39  1  0
 39 42  1  0
 39 41  1  0
 40 38  2  0
 43 44  1  0
 43 18  1  0
 45 43  1  0
 47 48  2  0
 47 46  1  0
 49 50  1  0
 49 48  1  0
 51 62  2  0
 52 50  1  0
 52 57  1  0
 53 61  1  0
 53 63  1  0
 54 60  1  0
 54 56  1  0
 55 61  1  0
 56 57  2  0
 56 55  1  0
 58 52  2  0
 59 58  1  0
 59 54  2  0
 60 53  1  0
 61 51  1  0
 63 65  2  0
 64 63  1  0
 66 64  1  0
 67 76  2  0
 67 72  1  0
 68 64  1  0
 68 72  1  0
 69 68  1  0
 70 71  1  0
 70 69  1  0
 71 67  1  0
 72 73  2  0
 73 74  1  0
 75 74  2  0
 76 75  1  0
 77 51  1  0
 77 82  1  0
 77 78  1  0
 78 81  1  1
 78 79  1  0
 80 78  1  0
 82 85  1  0
 83 87  1  0
 83 82  1  0
 84 83  2  0
 87 86  1  0
 89 87  1  0
 89 90  1  0
 89 88  1  0
M  ISO  4   8 100  16 100  49 101  50 101
M  END
>  <TORSDO>  (51) 
F 20

>  <SCORE>  (51) 
-13.759

>  <name>  (51) 
50

>  <ligand_id>  (51) 
50

>  <original_smiles>  (51) 
[H]c1c([H])c([H])c2c(c1[H])C([H])([H])C([H])([H])C([H])([H])C2([H])N([H])C(=O)C1([H])N(C(=O)C([H])(N([H])C(=O)C([H])(N([H])C([H])([H])[H])C([H])([H])[H])C(C([H])([H])[H])(C([H])([H])[H])C([H])([H])[H])C([H])([H])c2c([H])c(OC([H])([H])C([H])([H])C([H])([H])Oc3c([H])c(N([H])C(=O)N4C([H])([H])C([H])([H])C([H])([H])C([H])(n5nc(-c6c([H])c([H])c(Oc7c([H])c([H])c(F)c([H])c7F)c([H])c6[H])c(C(=O)N([H])[H])c5N([H])[H])C4([H])[H])c([H])c(C([H])([H])[H])c3[H])c([H])c([H])c2C1([H])[H]

>  <smiles>  (51) 
[H]c1c([H])c([H])c2c(c1[H])C([H])([H])C([H])([H])C([H])([H])C2([H])N([H])C(=O)C1([H])N(C(=O)C([H])(N([H])C(=O)C([H])(N([H])C([H])([H])[H])C([H])([H])[H])C(C([H])([H])[H])(C([H])([H])[H])C([H])([H])[H])C([H])([H])c2c([H])c(OC([H])([H])C([H])([H])C([H])([H])Oc3c([H])c(N([H])C(=O)N4C([H])([H])C([H])([H])C([H])([H])C([H])(n5nc(-c6c([H])c([H])c(Oc7c([H])c([H])c(F)c([H])c7F)c([H])c6[H])c(C(=O)N([H])[H])c5N([H])[H])C4([H])[H])c([H])c(C([H])([H])[H])c3[H])c([H])c([H])c2C1([H])[H]

$$$$
51:0:0
     RDKit          3D

 94103  0  0  1  0  0  0  0  0999 V2000
  -30.4650  -22.6430   22.6300 C   0  0  0  0  0  0  0  0  0  0  0  0
  -30.2830  -24.1390   22.9140 C   0  0  0  0  0  2  0  0  0  0  0  0
  -29.2020  -24.8040   22.0640 C   0  0  0  0  0  2  0  0  0  0  0  0
  -29.3650  -22.9170   20.4120 C   0  0  0  0  0  2  0  0  0  0  0  0
  -29.4090  -24.4700   20.5860 C   0  0  0  0  0  3  0  0  0  0  0  0
  -30.1450  -22.1340   21.4050 N   0  0  0  0  0  0  0  0  0  0  0  0
  -30.9290  -21.9570   23.5480 O   0  0  0  0  0  0  0  0  0  0  0  0
  -29.6530  -18.3980   21.0360 C   0  0  0  0  0  3  0  0  0  0  0  0
  -32.0280  -18.8920   21.1470 C   0  0  0  0  0  3  0  0  0  0  0  0
  -29.3670  -19.7880   21.0320 C   0  0  0  0  0  3  0  0  0  0  0  0
  -31.7460  -20.2730   21.1460 C   0  0  0  0  0  3  0  0  0  0  0  0
  -30.9880  -17.9370   21.1470 C   0  0  0  0  0  0  0  0  0  0  0  0
  -30.4110  -20.7400   21.1530 C   0  0  0  0  0  0  0  0  0  0  0  0
  -31.3370  -16.4710   21.4500 C   0  0  0  0  0  2  0  0  0  0  0  0
  -30.9650  -14.4520   20.0430 C   0  0  0  0  0  0  0  0  0  0  0  0
  -30.4930  -12.3110   18.8980 C   0  0  0  0  0  2  0  0  0  0  0  0
  -29.4840  -12.5130   17.7510 C   0  0  0  0  0  2  0  0  0  0  0  0
  -28.0400  -12.4180   18.2760 C   0  0  0  0  0  2  0  0  0  0  0  0
  -27.8040  -13.2930   19.5370 C   0  0  0  0  0  3  0  0  0  0  0  0
  -28.9170  -13.0680   20.5840 C   0  0  0  0  0  2  0  0  0  0  0  0
  -30.2120  -13.3230   19.9300 N   0  0  0  0  0  0  0  0  0  0  0  0
  -32.0180  -14.6090   19.4190 O   0  0  0  0  0  0  0  0  0  0  0  0
  -30.5050  -15.4030   20.8780 N   0  0  0  0  0  0  0  0  0  0  0  0
  -29.6170  -15.2270   21.3200 H   0  0  0  0  0  0  0  0  0  0  0  0
  -25.4930  -13.9890   20.4270 C   0  0  0  0  0  0  0  0  0  0  0  0
  -24.4160  -13.2570   20.8480 C   0  0  0  0  0  0  0  0  0  0  0  0
  -24.8050  -11.8860   20.7460 C   0  0  0  0  0  0  0  0  0  0  0  0
  -26.4750  -13.0660   20.1010 N   0  0  0  0  0  0  0  0  0  0  0  0
  -26.0680  -11.7950   20.3490 N   0  0  0  0  0  0  0  0  0  0  0  0
  -24.0330  -10.6540   20.9500 C   0  0  0  0  0  0  0  0  0  0  0  0
  -24.4540   -9.6590   21.8590 C   0  0  0  0  0  3  0  0  0  0  0  0
  -23.6840   -8.4920   22.0500 C   0  0  0  0  0  3  0  0  0  0  0  0
  -22.4780   -8.3110   21.3310 C   0  0  0  0  0  0  0  0  0  0  0  0
  -22.0760   -9.2940   20.4100 C   0  0  0  0  0  3  0  0  0  0  0  0
  -22.8450  -10.4530   20.2170 C   0  0  0  0  0  3  0  0  0  0  0  0
  -21.6790   -7.1990   21.4340 O   0  0  0  0  0  0  0  0  0  0  0  0
  -21.5980   -6.4740   22.5970 C   0  0  0  0  0  0  0  0  0  0  0  0
  -21.1830   -7.0610   23.8120 C   0  0  0  0  0  3  0  0  0  0  0  0
  -21.0480   -6.2650   24.9680 C   0  0  0  0  0  3  0  0  0  0  0  0
  -21.3160   -4.8850   24.9080 C   0  0  0  0  0  0  0  0  0  0  0  0
  -21.7240   -4.2980   23.6970 C   0  0  0  0  0  3  0  0  0  0  0  0
  -21.8610   -5.0900   22.5440 C   0  0  0  0  0  0  0  0  0  0  0  0
  -22.2340   -4.5170   21.3740 F   0  0  0  0  0  0  0  0  0  0  0  0
  -21.1790   -4.1180   26.0150 F   0  0  0  0  0  0  0  0  0  0  0  0
  -23.0650  -13.7900   21.2310 C   0  0  0  0  0  0  0  0  0  0  0  0
  -22.3700  -13.1080   22.1360 N   0  0  0  0  0  0  0  0  0  0  0  0
  -22.6390  -14.8450   20.7650 O   0  0  0  0  0  0  0  0  0  0  0  0
  -22.7300  -12.2520   22.5330 H   0  0  0  0  0  0  0  0  0  0  0  0
  -21.4680  -13.4460   22.4370 H   0  0  0  0  0  0  0  0  0  0  0  0
  -25.7150  -15.3550   20.2770 N   0  0  0  0  0  0  0  0  0  0  0  0
  -24.9950  -16.0470   20.4560 H   0  0  0  0  0  0  0  0  0  0  0  0
  -26.5670  -15.7570   19.9060 H   0  0  0  0  0  0  0  0  0  0  0  0
  -28.3730  -25.2220   19.7120 C   0  0  0  0  0  2  0  0  0  0  0  0
  -28.4660  -26.6570   19.8550 O   0  0  0  0  0  0  0  0  0  0  0  0
  -24.5190  -31.6630   23.0440 C   0  0  0  0  0  0  0  0  0  0  0  0
  -27.2810  -27.3710   19.8400 C   0  0  0  0  0  0  0  0  0  0  0  0
  -23.3540  -30.2760   21.3640 C   0  0  0  0  0  3  0  0  0  0  0  0
  -24.8480  -28.8240   19.8930 C   0  0  0  0  0  0  0  0  0  0  0  0
  -25.8700  -30.7060   21.1780 C   0  0  0  0  0  2  0  0  0  0  0  0
  -25.9930  -29.3570   20.4970 C   0  0  0  0  0  0  0  0  0  0  0  0
  -27.2120  -28.6390   20.4640 C   0  0  0  0  0  3  0  0  0  0  0  0
  -26.1150  -26.8630   19.2170 C   0  0  0  0  0  3  0  0  0  0  0  0
  -24.9040  -27.5780   19.2500 C   0  0  0  0  0  3  0  0  0  0  0  0
  -23.5810  -29.6460   19.9640 C   0  0  0  0  0  2  0  0  0  0  0  0
  -24.5990  -30.8960   21.9210 N   0  0  0  0  0  0  0  0  0  0  0  0
  -23.4310  -31.8890   23.5910 O   0  0  0  0  0  0  0  0  0  0  0  0
  -22.7330  -29.2080   22.2940 C   0  0  0  0  0  0  0  0  0  0  0  0
  -21.4110  -29.0010   22.1720 N   0  0  0  0  0  0  0  0  0  0  0  0
  -23.4370  -28.5680   23.0800 O   0  0  0  0  0  0  0  0  0  0  0  0
  -20.9040  -29.5720   21.5100 H   0  0  0  0  0  0  0  0  0  0  0  0
  -18.0620  -27.7460   22.6800 C   0  0  0  0  0  0  0  0  0  0  0  0
  -20.6210  -28.0230   22.9160 C   0  0  0  0  0  3  0  0  0  0  0  0
  -20.7290  -26.6180   22.2780 C   0  0  0  0  0  2  0  0  0  0  0  0
  -19.6120  -26.3260   21.2720 C   0  0  0  0  0  2  0  0  0  0  0  0
  -18.2410  -26.4270   21.9470 C   0  0  0  0  0  2  0  0  0  0  0  0
  -19.1800  -28.5030   23.1210 C   0  0  0  0  0  0  0  0  0  0  0  0
  -18.9600  -29.7380   23.7670 C   0  0  0  0  0  3  0  0  0  0  0  0
  -17.6530  -30.2170   23.9770 C   0  0  0  0  0  3  0  0  0  0  0  0
  -16.5480  -29.4570   23.5530 C   0  0  0  0  0  3  0  0  0  0  0  0
  -16.7540  -28.2240   22.9090 C   0  0  0  0  0  3  0  0  0  0  0  0
  -25.7860  -32.3140   23.6800 C   0  0  0  0  0  3  0  0  0  0  0  0
  -26.3320  -31.5180   24.9290 C   0  0  1  0  0  0  0  0  0  0  0  0
  -25.2510  -31.2090   25.9900 C   0  0  0  0  0  1  0  0  0  0  0  0
  -26.9610  -30.1770   24.4860 C   0  0  0  0  0  1  0  0  0  0  0  0
  -27.4560  -32.3290   25.6170 C   0  0  0  0  0  1  0  0  0  0  0  0
  -25.4360  -33.6910   24.0540 N   0  0  0  0  0  0  0  0  0  0  0  0
  -25.7460  -34.7770   23.3330 C   0  0  0  0  0  0  0  0  0  0  0  0
  -26.4270  -34.7260   22.3060 O   0  0  0  0  0  0  0  0  0  0  0  0
  -24.8290  -33.8020   24.8530 H   0  0  0  0  0  0  0  0  0  0  0  0
  -23.9710  -36.5300   23.0190 C   0  0  0  0  0  1  0  0  0  0  0  0
  -25.2150  -36.1340   23.8320 C   0  0  0  0  0  3  0  0  0  0  0  0
  -27.3110  -37.0500   24.7230 C   0  0  0  0  0  1  0  0  0  0  0  0
  -26.2180  -37.2190   23.7680 N   0  0  0  0  0  0  0  0  0  0  0  0
  -25.7840  -38.1220   23.9380 H   0  0  0  0  0  0  0  0  0  0  0  0
  1  2  1  0
  1  7  2  0
  3  2  1  0
  4  5  1  0
  4  6  1  0
  5 53  1  0
  5  3  1  0
  6  1  1  0
  8 12  1  0
 10  8  2  0
 10 13  1  0
 11  9  1  0
 11 13  2  0
 12  9  2  0
 12 14  1  0
 13  6  1  0
 15 23  1  0
 16 21  1  0
 17 18  1  0
 17 16  1  0
 19 18  1  0
 19 28  1  0
 19 20  1  0
 21 15  1  0
 21 20  1  0
 22 15  2  0
 23 24  1  0
 23 14  1  0
 25 26  2  0
 26 45  1  0
 27 26  1  0
 27 30  1  0
 28 29  1  0
 28 25  1  0
 29 27  2  0
 30 31  1  0
 31 32  2  0
 33 36  1  0
 33 32  1  0
 34 33  2  0
 35 34  1  0
 35 30  2  0
 36 37  1  0
 37 38  1  0
 38 39  2  0
 40 39  1  0
 40 44  1  0
 41 40  2  0
 42 37  2  0
 42 41  1  0
 43 42  1  0
 45 46  1  0
 46 49  1  0
 46 48  1  0
 47 45  2  0
 50 25  1  0
 50 51  1  0
 52 50  1  0
 53 54  1  0
 55 66  2  0
 56 54  1  0
 56 61  1  0
 57 65  1  0
 57 67  1  0
 58 64  1  0
 58 60  1  0
 59 65  1  0
 60 59  1  0
 61 60  2  0
 62 63  1  0
 62 56  2  0
 63 58  2  0
 64 57  1  0
 65 55  1  0
 67 69  2  0
 68 67  1  0
 70 68  1  0
 71 80  2  0
 71 76  1  0
 72 68  1  0
 72 76  1  0
 73 72  1  0
 74 75  1  0
 74 73  1  0
 75 71  1  0
 76 77  2  0
 77 78  1  0
 79 78  2  0
 80 79  1  0
 81 55  1  0
 81 86  1  0
 81 82  1  0
 82 85  1  1
 82 83  1  0
 84 82  1  0
 86 89  1  0
 87 91  1  0
 87 86  1  0
 88 87  2  0
 91 90  1  0
 93 91  1  0
 93 94  1  0
 93 92  1  0
M  ISO  4  15 100  23 100  53 101  54 101
M  END
>  <TORSDO>  (52) 
F 19

>  <SCORE>  (52) 
-13.595

>  <name>  (52) 
51

>  <ligand_id>  (52) 
51

>  <original_smiles>  (52) 
[H]c1c([H])c([H])c2c(c1[H])C([H])([H])C([H])([H])C([H])([H])C2([H])N([H])C(=O)C1([H])N(C(=O)C([H])(N([H])C(=O)C([H])(N([H])C([H])([H])[H])C([H])([H])[H])C(C([H])([H])[H])(C([H])([H])[H])C([H])([H])[H])C([H])([H])c2c([H])c(OC([H])([H])C3([H])C([H])([H])N(c4c([H])c([H])c(C([H])([H])N([H])C(=O)N5C([H])([H])C([H])([H])C([H])([H])C([H])(n6nc(-c7c([H])c([H])c(Oc8c([H])c([H])c(F)c([H])c8F)c([H])c7[H])c(C(=O)N([H])[H])c6N([H])[H])C5([H])[H])c([H])c4[H])C(=O)C([H])([H])C3([H])[H])c([H])c([H])c2C1([H])[H]

>  <smiles>  (52) 
[H]c1c([H])c([H])c2c(c1[H])C([H])([H])C([H])([H])C([H])([H])C2([H])N([H])C(=O)C1([H])N(C(=O)C([H])(N([H])C(=O)C([H])(N([H])C([H])([H])[H])C([H])([H])[H])C(C([H])([H])[H])(C([H])([H])[H])C([H])([H])[H])C([H])([H])c2c([H])c(OC([H])([H])C3([H])C([H])([H])N(c4c([H])c([H])c(C([H])([H])N([H])C(=O)N5C([H])([H])C([H])([H])C([H])([H])C([H])(n6nc(-c7c([H])c([H])c(Oc8c([H])c([H])c(F)c([H])c8F)c([H])c7[H])c(C(=O)N([H])[H])c6N([H])[H])C5([H])[H])c([H])c4[H])C(=O)C([H])([H])C3([H])[H])c([H])c([H])c2C1([H])[H]

$$$$
52:0:0
     RDKit          3D

 92100  0  0  1  0  0  0  0  0999 V2000
  -29.3460  -18.1290   21.2150 C   0  0  0  0  0  3  0  0  0  0  0  0
  -29.1930  -19.5250   20.9670 C   0  0  0  0  0  3  0  0  0  0  0  0
  -31.0110  -17.9680   19.5020 C   0  0  0  0  0  3  0  0  0  0  0  0
  -30.2640  -17.2940   20.5040 C   0  0  0  0  0  0  0  0  0  0  0  0
  -29.9560  -20.1850   19.9740 C   0  0  0  0  0  0  0  0  0  0  0  0
  -30.8620  -19.3640   19.2450 C   0  0  0  0  0  0  0  0  0  0  0  0
  -31.6240  -19.9370   18.2810 F   0  0  0  0  0  0  0  0  0  0  0  0
  -30.4380  -15.8160   20.9210 C   0  0  0  0  0  0  0  0  0  0  0  0
  -30.2270  -15.5170   22.1370 N   0  0  0  0  0  0  0  0  0  0  0  0
  -29.9680  -16.3380   22.6710 H   0  0  0  0  0  0  0  0  0  0  0  0
  -30.9240  -14.7080   19.9140 C   0  0  0  0  0  0  0  0  0  0  0  0
  -30.5460  -12.5350   18.7510 C   0  0  0  0  0  2  0  0  0  0  0  0
  -29.5090  -12.7140   17.6210 C   0  0  0  0  0  2  0  0  0  0  0  0
  -28.0770  -12.5350   18.1580 C   0  0  0  0  0  2  0  0  0  0  0  0
  -27.8310  -13.3520   19.4520 C   0  0  0  0  0  3  0  0  0  0  0  0
  -28.9700  -13.1310   20.4680 C   0  0  0  0  0  2  0  0  0  0  0  0
  -30.2430  -13.5110   19.8230 N   0  0  0  0  0  0  0  0  0  0  0  0
  -31.9420  -14.9060   19.2420 O   0  0  0  0  0  0  0  0  0  0  0  0
  -25.5110  -13.9340   20.3990 C   0  0  0  0  0  0  0  0  0  0  0  0
  -24.4740  -13.1530   20.8300 C   0  0  0  0  0  0  0  0  0  0  0  0
  -24.9210  -11.8010   20.7030 C   0  0  0  0  0  0  0  0  0  0  0  0
  -26.5230  -13.0580   20.0350 N   0  0  0  0  0  0  0  0  0  0  0  0
  -26.1770  -11.7680   20.2770 N   0  0  0  0  0  0  0  0  0  0  0  0
  -24.2040  -10.5360   20.9070 C   0  0  0  0  0  0  0  0  0  0  0  0
  -24.6620   -9.5680   21.8280 C   0  0  0  0  0  3  0  0  0  0  0  0
  -23.9420   -8.3680   22.0200 C   0  0  0  0  0  3  0  0  0  0  0  0
  -22.7530   -8.1280   21.2910 C   0  0  0  0  0  0  0  0  0  0  0  0
  -22.3170   -9.0850   20.3570 C   0  0  0  0  0  3  0  0  0  0  0  0
  -23.0370  -10.2760   20.1640 C   0  0  0  0  0  3  0  0  0  0  0  0
  -22.0050   -6.9790   21.3900 O   0  0  0  0  0  0  0  0  0  0  0  0
  -21.9210   -6.2770   22.5630 C   0  0  0  0  0  0  0  0  0  0  0  0
  -21.4180   -6.8590   23.7480 C   0  0  0  0  0  3  0  0  0  0  0  0
  -21.2850   -6.0810   24.9140 C   0  0  0  0  0  3  0  0  0  0  0  0
  -21.6440   -4.7190   24.8980 C   0  0  0  0  0  0  0  0  0  0  0  0
  -22.1390   -4.1360   23.7180 C   0  0  0  0  0  3  0  0  0  0  0  0
  -22.2760   -4.9130   22.5550 C   0  0  0  0  0  0  0  0  0  0  0  0
  -22.7350   -4.3400   21.4150 F   0  0  0  0  0  0  0  0  0  0  0  0
  -21.5070   -3.9690   26.0150 F   0  0  0  0  0  0  0  0  0  0  0  0
  -23.1110  -13.6240   21.2460 C   0  0  0  0  0  0  0  0  0  0  0  0
  -22.4580  -12.8980   22.1480 N   0  0  0  0  0  0  0  0  0  0  0  0
  -22.6350  -14.6700   20.8060 O   0  0  0  0  0  0  0  0  0  0  0  0
  -22.8580  -12.0510   22.5250 H   0  0  0  0  0  0  0  0  0  0  0  0
  -21.5470  -13.1930   22.4670 H   0  0  0  0  0  0  0  0  0  0  0  0
  -25.6720  -15.3100   20.2650 N   0  0  0  0  0  0  0  0  0  0  0  0
  -24.9280  -15.9670   20.4720 H   0  0  0  0  0  0  0  0  0  0  0  0
  -26.5000  -15.7550   19.8900 H   0  0  0  0  0  0  0  0  0  0  0  0
  -29.8670  -21.5850   19.6760 N   0  0  0  0  0  0  0  0  0  0  0  0
  -30.5250  -21.9140   18.9710 H   0  0  0  0  0  0  0  0  0  0  0  0
  -29.0490  -22.6140   20.3790 C   0  0  0  0  0  2  0  0  0  0  0  0
  -29.1400  -24.0940   19.7910 C   0  0  0  0  0  3  0  0  0  0  0  0
  -28.2400  -25.2090   20.4670 C   0  0  0  0  0  3  0  0  0  0  0  0
  -28.3960  -26.6040   20.0200 O   0  0  0  0  0  0  0  0  0  0  0  0
  -24.5730  -31.8590   23.1230 C   0  0  0  0  0  0  0  0  0  0  0  0
  -27.2540  -27.4070   20.0140 C   0  0  0  0  0  0  0  0  0  0  0  0
  -23.3870  -30.4710   21.4570 C   0  0  0  0  0  3  0  0  0  0  0  0
  -24.8610  -28.9610   20.0150 C   0  0  0  0  0  0  0  0  0  0  0  0
  -25.9190  -30.8350   21.2810 C   0  0  0  0  0  2  0  0  0  0  0  0
  -26.0190  -29.4690   20.6180 C   0  0  0  0  0  0  0  0  0  0  0  0
  -27.2210  -28.7040   20.6050 C   0  0  0  0  0  3  0  0  0  0  0  0
  -26.0770  -26.9450   19.3870 C   0  0  0  0  0  3  0  0  0  0  0  0
  -24.8900  -27.7040   19.3890 C   0  0  0  0  0  3  0  0  0  0  0  0
  -23.6110  -29.8160   20.0690 C   0  0  0  0  0  2  0  0  0  0  0  0
  -24.6440  -31.0700   22.0110 N   0  0  0  0  0  0  0  0  0  0  0  0
  -23.4860  -32.1150   23.6600 O   0  0  0  0  0  0  0  0  0  0  0  0
  -22.7350  -29.4320   22.4010 C   0  0  0  0  0  0  0  0  0  0  0  0
  -21.4120  -29.2420   22.2650 N   0  0  0  0  0  0  0  0  0  0  0  0
  -23.4200  -28.8020   23.2120 O   0  0  0  0  0  0  0  0  0  0  0  0
  -20.9190  -29.8030   21.5840 H   0  0  0  0  0  0  0  0  0  0  0  0
  -18.0450  -28.0050   22.7300 C   0  0  0  0  0  0  0  0  0  0  0  0
  -20.5990  -28.2860   23.0200 C   0  0  0  0  0  3  0  0  0  0  0  0
  -20.7190  -26.8630   22.4240 C   0  0  0  0  0  2  0  0  0  0  0  0
  -19.6270  -26.5440   21.3990 C   0  0  0  0  0  2  0  0  0  0  0  0
  -18.2400  -26.6660   22.0370 C   0  0  0  0  0  2  0  0  0  0  0  0
  -19.1540  -28.7720   23.1760 C   0  0  0  0  0  0  0  0  0  0  0  0
  -18.9200  -30.0250   23.7820 C   0  0  0  0  0  3  0  0  0  0  0  0
  -17.6090  -30.5110   23.9470 C   0  0  0  0  0  3  0  0  0  0  0  0
  -16.5150  -29.7400   23.5180 C   0  0  0  0  0  3  0  0  0  0  0  0
  -16.7340  -28.4900   22.9150 C   0  0  0  0  0  3  0  0  0  0  0  0
  -25.8490  -32.4920   23.7580 C   0  0  0  0  0  3  0  0  0  0  0  0
  -25.5240  -33.8820   24.1100 N   0  0  0  0  0  0  0  0  0  0  0  0
  -25.8510  -34.9510   23.3710 C   0  0  0  0  0  0  0  0  0  0  0  0
  -26.5250  -34.8710   22.3410 O   0  0  0  0  0  0  0  0  0  0  0  0
  -24.9240  -34.0160   24.9100 H   0  0  0  0  0  0  0  0  0  0  0  0
  -24.1130  -36.7400   23.0330 C   0  0  0  0  0  1  0  0  0  0  0  0
  -25.3490  -36.3270   23.8500 C   0  0  0  0  0  3  0  0  0  0  0  0
  -27.4640  -37.2150   24.7240 C   0  0  0  0  0  1  0  0  0  0  0  0
  -26.3750  -37.3900   23.7670 N   0  0  0  0  0  0  0  0  0  0  0  0
  -25.9580  -38.3040   23.9240 H   0  0  0  0  0  0  0  0  0  0  0  0
  -26.3710  -31.7040   25.0220 C   0  0  1  0  0  0  0  0  0  0  0  0
  -25.2770  -31.4270   26.0800 C   0  0  0  0  0  1  0  0  0  0  0  0
  -26.9810  -30.3450   24.6060 C   0  0  0  0  0  1  0  0  0  0  0  0
  -27.5050  -32.5050   25.7060 C   0  0  0  0  0  1  0  0  0  0  0  0
  2  1  1  0
  3  4  1  0
  4  8  1  0
  4  1  2  0
  5  2  2  0
  6  3  2  0
  6  5  1  0
  7  6  1  0
  8  9  2  0
  9 10  1  0
 11  8  1  0
 12 17  1  0
 13 14  1  0
 13 12  1  0
 15 14  1  0
 15 22  1  0
 15 16  1  0
 17 11  1  0
 17 16  1  0
 18 11  2  0
 19 20  2  0
 20 39  1  0
 21 20  1  0
 21 24  1  0
 22 23  1  0
 22 19  1  0
 23 21  2  0
 24 25  1  0
 25 26  2  0
 27 30  1  0
 27 26  1  0
 28 27  2  0
 29 28  1  0
 29 24  2  0
 30 31  1  0
 31 32  1  0
 32 33  2  0
 34 33  1  0
 34 38  1  0
 35 34  2  0
 36 31  2  0
 36 35  1  0
 37 36  1  0
 39 40  1  0
 40 43  1  0
 40 42  1  0
 41 39  2  0
 44 19  1  0
 44 45  1  0
 46 44  1  0
 47  5  1  0
 47 49  1  0
 48 47  1  0
 50 49  1  0
 50 51  2  0
 52 51  1  0
 53 64  2  0
 54 52  1  0
 54 59  1  0
 55 63  1  0
 55 65  1  0
 56 62  1  0
 56 58  1  0
 57 63  1  0
 58 57  1  0
 59 58  2  0
 60 61  1  0
 60 54  2  0
 61 56  2  0
 62 55  1  0
 63 53  1  0
 65 67  2  0
 66 65  1  0
 68 66  1  0
 69 78  2  0
 69 74  1  0
 70 66  1  0
 70 74  1  0
 71 70  1  0
 72 73  1  0
 72 71  1  0
 73 69  1  0
 74 75  2  0
 75 76  1  0
 77 76  2  0
 78 77  1  0
 79 53  1  0
 79 80  1  0
 79 89  1  0
 80 83  1  0
 81 85  1  0
 81 80  1  0
 82 81  2  0
 85 84  1  0
 87 85  1  0
 87 88  1  0
 87 86  1  0
 89 92  1  1
 89 90  1  0
 91 89  1  0
M  ISO  4   8 100  11 100  51 101  52 101
M  END
>  <TORSDO>  (53) 
F 21

>  <SCORE>  (53) 
-12.560

>  <name>  (53) 
52

>  <ligand_id>  (53) 
52

>  <original_smiles>  (53) 
[H]N=C(C(=O)N1C([H])([H])C([H])([H])C([H])([H])C([H])(n2nc(-c3c([H])c([H])c(Oc4c([H])c([H])c(F)c([H])c4F)c([H])c3[H])c(C(=O)N([H])[H])c2N([H])[H])C1([H])[H])c1c([H])c([H])c(N([H])C([H])([H])C([H])([H])C([H])([H])Oc2c([H])c([H])c3c(c2[H])C([H])([H])N(C(=O)C([H])(N([H])C(=O)C([H])(N([H])C([H])([H])[H])C([H])([H])[H])C(C([H])([H])[H])(C([H])([H])[H])C([H])([H])[H])C([H])(C(=O)N([H])C2([H])c4c([H])c([H])c([H])c([H])c4C([H])([H])C([H])([H])C2([H])[H])C3([H])[H])c(F)c1[H]

>  <smiles>  (53) 
[H]N=C(C(=O)N1C([H])([H])C([H])([H])C([H])([H])C([H])(n2nc(-c3c([H])c([H])c(Oc4c([H])c([H])c(F)c([H])c4F)c([H])c3[H])c(C(=O)N([H])[H])c2N([H])[H])C1([H])[H])c1c([H])c([H])c(N([H])C([H])([H])C([H])([H])C([H])([H])Oc2c([H])c([H])c3c(c2[H])C([H])([H])N(C(=O)C([H])(N([H])C(=O)C([H])(N([H])C([H])([H])[H])C([H])([H])[H])C(C([H])([H])[H])(C([H])([H])[H])C([H])([H])[H])C([H])(C(=O)N([H])C2([H])c4c([H])c([H])c([H])c([H])c4C([H])([H])C([H])([H])C2([H])[H])C3([H])[H])c(F)c1[H]

$$$$
53:0:0
     RDKit          3D

 94103  0  0  1  0  0  0  0  0999 V2000
  -32.2070  -24.4560   20.3260 C   0  0  0  0  0  2  0  0  0  0  0  0
  -32.1980  -23.1610   21.1170 C   0  0  0  0  0  2  0  0  0  0  0  0
  -30.8000  -25.0470   20.3710 C   0  0  0  0  0  2  0  0  0  0  0  0
  -31.2220  -22.1750   20.4710 C   0  0  0  0  0  2  0  0  0  0  0  0
  -29.6670  -24.1140   19.8430 C   0  0  0  0  0  3  0  0  0  0  0  0
  -29.8050  -22.6510   20.3770 N   0  0  1  0  0  4  0  0  0  0  0  0
  -29.4780  -22.6670   21.3320 H   0  0  0  0  0  0  0  0  0  0  0  0
  -28.9940  -21.5440   19.7010 C   0  0  0  0  0  2  0  0  0  0  0  0
  -29.9840  -19.1960   18.9350 C   0  0  0  0  0  3  0  0  0  0  0  0
  -29.0160  -19.3180   21.1270 C   0  0  0  0  0  3  0  0  0  0  0  0
  -30.2180  -17.7900   19.1080 C   0  0  0  0  0  3  0  0  0  0  0  0
  -29.2350  -17.9160   21.2920 C   0  0  0  0  0  3  0  0  0  0  0  0
  -29.3650  -20.0080   19.9350 C   0  0  0  0  0  0  0  0  0  0  0  0
  -29.8300  -17.0990   20.2890 C   0  0  0  0  0  0  0  0  0  0  0  0
  -30.5960  -14.6090   19.9550 C   0  0  0  0  0  0  0  0  0  0  0  0
  -30.3300  -12.3520   18.9300 C   0  0  0  0  0  2  0  0  0  0  0  0
  -29.3230  -12.4850   17.7600 C   0  0  0  0  0  2  0  0  0  0  0  0
  -27.8770  -12.3300   18.2680 C   0  0  0  0  0  2  0  0  0  0  0  0
  -27.5900  -13.2010   19.5180 C   0  0  0  0  0  3  0  0  0  0  0  0
  -28.7050  -13.0420   20.5800 C   0  0  0  0  0  2  0  0  0  0  0  0
  -29.9870  -13.3760   19.9400 N   0  0  0  0  0  0  0  0  0  0  0  0
  -31.7090  -14.7730   19.4450 O   0  0  0  0  0  0  0  0  0  0  0  0
  -29.8630  -15.6420   20.4950 N   0  0  0  0  0  0  0  0  0  0  0  0
  -29.1100  -15.3010   21.0700 H   0  0  0  0  0  0  0  0  0  0  0  0
  -25.2500  -13.8400   20.3720 C   0  0  0  0  0  0  0  0  0  0  0  0
  -24.1870  -13.0860   20.7880 C   0  0  0  0  0  0  0  0  0  0  0  0
  -24.6180  -11.7250   20.7210 C   0  0  0  0  0  0  0  0  0  0  0  0
  -26.2610  -12.9410   20.0720 N   0  0  0  0  0  0  0  0  0  0  0  0
  -25.8890  -11.6630   20.3400 N   0  0  0  0  0  0  0  0  0  0  0  0
  -23.8800  -10.4770   20.9420 C   0  0  0  0  0  0  0  0  0  0  0  0
  -24.3380   -9.4990   21.8530 C   0  0  0  0  0  3  0  0  0  0  0  0
  -23.6010   -8.3150   22.0630 C   0  0  0  0  0  3  0  0  0  0  0  0
  -22.3890   -8.0990   21.3630 C   0  0  0  0  0  0  0  0  0  0  0  0
  -21.9490   -9.0630   20.4400 C   0  0  0  0  0  3  0  0  0  0  0  0
  -22.6870  -10.2400   20.2290 C   0  0  0  0  0  3  0  0  0  0  0  0
  -21.6220   -6.9640   21.4810 O   0  0  0  0  0  0  0  0  0  0  0  0
  -21.6050   -6.2250   22.6350 C   0  0  0  0  0  0  0  0  0  0  0  0
  -21.2540   -6.7940   23.8790 C   0  0  0  0  0  3  0  0  0  0  0  0
  -21.1780   -5.9830   25.0290 C   0  0  0  0  0  3  0  0  0  0  0  0
  -21.4440   -4.6040   24.9380 C   0  0  0  0  0  0  0  0  0  0  0  0
  -21.7920   -4.0350   23.7000 C   0  0  0  0  0  3  0  0  0  0  0  0
  -21.8680   -4.8430   22.5530 C   0  0  0  0  0  0  0  0  0  0  0  0
  -22.1800   -4.2850   21.3580 F   0  0  0  0  0  0  0  0  0  0  0  0
  -21.3660   -3.8250   26.0420 F   0  0  0  0  0  0  0  0  0  0  0  0
  -22.8170  -13.5900   21.1400 C   0  0  0  0  0  0  0  0  0  0  0  0
  -22.1270  -12.9040   22.0440 N   0  0  0  0  0  0  0  0  0  0  0  0
  -22.3700  -14.6250   20.6480 O   0  0  0  0  0  0  0  0  0  0  0  0
  -22.5050  -12.0710   22.4670 H   0  0  0  0  0  0  0  0  0  0  0  0
  -21.2080  -13.2220   22.3210 H   0  0  0  0  0  0  0  0  0  0  0  0
  -25.4320  -15.2080   20.2040 N   0  0  0  0  0  0  0  0  0  0  0  0
  -24.6920  -15.8800   20.3780 H   0  0  0  0  0  0  0  0  0  0  0  0
  -26.2800  -15.6390   19.8570 H   0  0  0  0  0  0  0  0  0  0  0  0
  -28.3020  -24.9310   20.0930 C   0  0  0  0  0  2  0  0  0  0  0  0
  -28.3670  -26.4170   19.9280 O   0  0  0  0  0  0  0  0  0  0  0  0
  -24.4940  -31.6590   23.0820 C   0  0  0  0  0  0  0  0  0  0  0  0
  -27.2020  -27.2070   19.9420 C   0  0  0  0  0  0  0  0  0  0  0  0
  -23.3160  -30.2750   21.4070 C   0  0  0  0  0  3  0  0  0  0  0  0
  -24.7990  -28.7720   19.9600 C   0  0  0  0  0  0  0  0  0  0  0  0
  -25.8500  -30.6390   21.2380 C   0  0  0  0  0  2  0  0  0  0  0  0
  -25.9560  -29.2730   20.5670 C   0  0  0  0  0  0  0  0  0  0  0  0
  -27.1580  -28.5040   20.5450 C   0  0  0  0  0  3  0  0  0  0  0  0
  -26.0180  -26.7560   19.3160 C   0  0  0  0  0  3  0  0  0  0  0  0
  -24.8310  -27.5190   19.3270 C   0  0  0  0  0  3  0  0  0  0  0  0
  -23.5470  -29.6270   20.0150 C   0  0  0  0  0  2  0  0  0  0  0  0
  -24.5710  -30.8750   21.9660 N   0  0  0  0  0  0  0  0  0  0  0  0
  -23.4060  -31.9090   23.6210 O   0  0  0  0  0  0  0  0  0  0  0  0
  -22.6670  -29.2300   22.3460 C   0  0  0  0  0  0  0  0  0  0  0  0
  -21.3420  -29.0440   22.2200 N   0  0  0  0  0  0  0  0  0  0  0  0
  -23.3540  -28.5900   23.1440 O   0  0  0  0  0  0  0  0  0  0  0  0
  -20.8410  -29.6110   21.5500 H   0  0  0  0  0  0  0  0  0  0  0  0
  -17.9810  -27.7990   22.7020 C   0  0  0  0  0  0  0  0  0  0  0  0
  -20.5380  -28.0780   22.9710 C   0  0  0  0  0  3  0  0  0  0  0  0
  -20.6520  -26.6620   22.3600 C   0  0  0  0  0  2  0  0  0  0  0  0
  -19.5510  -26.3550   21.3400 C   0  0  0  0  0  2  0  0  0  0  0  0
  -18.1690  -26.4700   21.9910 C   0  0  0  0  0  2  0  0  0  0  0  0
  -19.0940  -28.5620   23.1490 C   0  0  0  0  0  0  0  0  0  0  0  0
  -18.8650  -29.8060   23.7750 C   0  0  0  0  0  3  0  0  0  0  0  0
  -17.5560  -30.2890   23.9560 C   0  0  0  0  0  3  0  0  0  0  0  0
  -16.4590  -29.5250   23.5260 C   0  0  0  0  0  3  0  0  0  0  0  0
  -16.6710  -28.2800   22.9070 C   0  0  0  0  0  3  0  0  0  0  0  0
  -25.7670  -32.2980   23.7200 C   0  0  0  0  0  3  0  0  0  0  0  0
  -26.3000  -31.5030   24.9750 C   0  0  1  0  0  0  0  0  0  0  0  0
  -25.2160  -31.2240   26.0410 C   0  0  0  0  0  1  0  0  0  0  0  0
  -26.9030  -30.1440   24.5460 C   0  0  0  0  0  1  0  0  0  0  0  0
  -27.4390  -32.2990   25.6540 C   0  0  0  0  0  1  0  0  0  0  0  0
  -25.4320  -33.6820   24.0920 N   0  0  0  0  0  0  0  0  0  0  0  0
  -25.7420  -34.7630   23.3630 C   0  0  0  0  0  0  0  0  0  0  0  0
  -26.4100  -34.7010   22.3270 O   0  0  0  0  0  0  0  0  0  0  0  0
  -24.8370  -33.8030   24.8990 H   0  0  0  0  0  0  0  0  0  0  0  0
  -23.9800  -36.5310   23.0670 C   0  0  0  0  0  1  0  0  0  0  0  0
  -25.2320  -36.1270   23.8620 C   0  0  0  0  0  3  0  0  0  0  0  0
  -27.3540  -37.0300   24.7040 C   0  0  0  0  0  1  0  0  0  0  0  0
  -26.2430  -37.2030   23.7730 N   0  0  0  0  0  0  0  0  0  0  0  0
  -25.8200  -38.1100   23.9460 H   0  0  0  0  0  0  0  0  0  0  0  0
  1  3  1  0
  1  2  1  0
  4  2  1  0
  5 53  1  0
  5  3  1  0
  5  6  1  0
  6  4  1  0
  6  7  1  1
  8 13  1  0
  8  6  1  0
  9 11  2  0
  9 13  1  0
 10 12  1  0
 11 14  1  0
 13 10  2  0
 14 23  1  0
 14 12  2  0
 15 23  1  0
 16 21  1  0
 17 18  1  0
 17 16  1  0
 19 18  1  0
 19 28  1  0
 19 20  1  0
 21 15  1  0
 21 20  1  0
 22 15  2  0
 23 24  1  0
 25 26  2  0
 26 45  1  0
 27 26  1  0
 27 30  1  0
 28 29  1  0
 28 25  1  0
 29 27  2  0
 30 31  1  0
 31 32  2  0
 33 36  1  0
 33 32  1  0
 34 33  2  0
 35 34  1  0
 35 30  2  0
 36 37  1  0
 37 38  1  0
 38 39  2  0
 40 39  1  0
 40 44  1  0
 41 40  2  0
 42 37  2  0
 42 41  1  0
 43 42  1  0
 45 46  1  0
 46 49  1  0
 46 48  1  0
 47 45  2  0
 50 25  1  0
 50 51  1  0
 52 50  1  0
 54 56  1  0
 54 53  1  0
 55 66  2  0
 56 61  1  0
 57 65  1  0
 57 67  1  0
 58 64  1  0
 58 60  1  0
 59 65  1  0
 60 59  1  0
 61 60  2  0
 62 63  1  0
 62 56  2  0
 63 58  2  0
 64 57  1  0
 65 55  1  0
 67 69  2  0
 68 67  1  0
 70 68  1  0
 71 80  2  0
 71 76  1  0
 72 68  1  0
 72 76  1  0
 73 72  1  0
 74 75  1  0
 74 73  1  0
 75 71  1  0
 76 77  2  0
 77 78  1  0
 79 78  2  0
 80 79  1  0
 81 55  1  0
 81 86  1  0
 81 82  1  0
 82 85  1  1
 82 83  1  0
 84 82  1  0
 86 89  1  0
 87 91  1  0
 87 86  1  0
 88 87  2  0
 91 90  1  0
 93 91  1  0
 93 94  1  0
 93 92  1  0
M  ISO  4  15 100  23 100  53 101  54 101
M  END
>  <TORSDO>  (54) 
F 19

>  <SCORE>  (54) 
-12.714

>  <name>  (54) 
53

>  <ligand_id>  (54) 
53

>  <original_smiles>  (54) 
[H]c1c([H])c([H])c2c(c1[H])C([H])([H])C([H])([H])C([H])([H])C2([H])N([H])C(=O)C1([H])N(C(=O)C([H])(N([H])C(=O)C([H])(N([H])C([H])([H])[H])C([H])([H])[H])C(C([H])([H])[H])(C([H])([H])[H])C([H])([H])[H])C([H])([H])c2c([H])c(OC([H])([H])C3([H])C([H])([H])C([H])([H])C([H])([H])C([H])([H])[N+]3([H])C([H])([H])c3c([H])c([H])c(N([H])C(=O)N4C([H])([H])C([H])([H])C([H])([H])C([H])(n5nc(-c6c([H])c([H])c(Oc7c([H])c([H])c(F)c([H])c7F)c([H])c6[H])c(C(=O)N([H])[H])c5N([H])[H])C4([H])[H])c([H])c3[H])c([H])c([H])c2C1([H])[H]

>  <smiles>  (54) 
[H]c1c([H])c([H])c2c(c1[H])C([H])([H])C([H])([H])C([H])([H])C2([H])N([H])C(=O)C1([H])N(C(=O)C([H])(N([H])C(=O)C([H])(N([H])C([H])([H])[H])C([H])([H])[H])C(C([H])([H])[H])(C([H])([H])[H])C([H])([H])[H])C([H])([H])c2c([H])c(OC([H])([H])C3([H])C([H])([H])C([H])([H])C([H])([H])C([H])([H])[N+]3([H])C([H])([H])c3c([H])c([H])c(N([H])C(=O)N4C([H])([H])C([H])([H])C([H])([H])C([H])(n5nc(-c6c([H])c([H])c(Oc7c([H])c([H])c(F)c([H])c7F)c([H])c6[H])c(C(=O)N([H])[H])c5N([H])[H])C4([H])[H])c([H])c3[H])c([H])c([H])c2C1([H])[H]

$$$$
54:0:0
     RDKit          3D

 94103  0  0  1  0  0  0  0  0999 V2000
  -29.9570  -21.0570   19.7390 C   0  0  0  0  0  0  0  0  0  0  0  0
  -30.5990  -24.3260   20.1650 C   0  0  0  0  0  2  0  0  0  0  0  0
  -31.1640  -22.9690   20.6040 C   0  0  0  0  0  2  0  0  0  0  0  0
  -28.8300  -22.8710   20.8860 C   0  0  0  0  0  2  0  0  0  0  0  0
  -29.2310  -24.3670   20.8280 C   0  0  0  0  0  3  0  0  0  0  0  0
  -30.0310  -22.0400   20.6670 N   0  0  0  0  0  0  0  0  0  0  0  0
  -29.8070  -21.3120   18.5380 O   0  0  0  0  0  0  0  0  0  0  0  0
  -29.0160  -18.7240   19.6300 C   0  0  0  0  0  3  0  0  0  0  0  0
  -29.0170  -17.3530   19.9590 C   0  0  0  0  0  3  0  0  0  0  0  0
  -30.9370  -17.7090   21.4080 C   0  0  0  0  0  3  0  0  0  0  0  0
  -29.9570  -19.6160   20.1960 C   0  0  0  0  0  0  0  0  0  0  0  0
  -29.9890  -16.8270   20.8350 C   0  0  0  0  0  0  0  0  0  0  0  0
  -30.9200  -19.0930   21.0970 C   0  0  0  0  0  0  0  0  0  0  0  0
  -31.8570  -19.9010   21.6490 F   0  0  0  0  0  0  0  0  0  0  0  0
  -30.6390  -14.4730   20.5470 C   0  0  0  0  0  0  0  0  0  0  0  0
  -30.3580  -12.3280   19.3580 C   0  0  0  0  0  2  0  0  0  0  0  0
  -29.4230  -12.5480   18.1490 C   0  0  0  0  0  2  0  0  0  0  0  0
  -27.9440  -12.4140   18.5610 C   0  0  0  0  0  2  0  0  0  0  0  0
  -27.6000  -13.2370   19.8320 C   0  0  0  0  0  3  0  0  0  0  0  0
  -28.6410  -12.9830   20.9460 C   0  0  0  0  0  2  0  0  0  0  0  0
  -29.9760  -13.2920   20.4020 N   0  0  0  0  0  0  0  0  0  0  0  0
  -31.7560  -14.6840   20.0650 O   0  0  0  0  0  0  0  0  0  0  0  0
  -29.9410  -15.4420   21.1700 N   0  0  0  0  0  0  0  0  0  0  0  0
  -29.0570  -15.1130   21.5260 H   0  0  0  0  0  0  0  0  0  0  0  0
  -25.1920  -13.8550   20.4990 C   0  0  0  0  0  0  0  0  0  0  0  0
  -24.1170  -13.0880   20.8580 C   0  0  0  0  0  0  0  0  0  0  0  0
  -24.5740  -11.7350   20.8430 C   0  0  0  0  0  0  0  0  0  0  0  0
  -26.2380  -12.9690   20.2910 N   0  0  0  0  0  0  0  0  0  0  0  0
  -25.8680  -11.6900   20.5510 N   0  0  0  0  0  0  0  0  0  0  0  0
  -23.8440  -10.4770   21.0330 C   0  0  0  0  0  0  0  0  0  0  0  0
  -24.2670   -9.5140   21.9760 C   0  0  0  0  0  3  0  0  0  0  0  0
  -23.5380   -8.3180   22.1530 C   0  0  0  0  0  3  0  0  0  0  0  0
  -22.3730   -8.0760   21.3880 C   0  0  0  0  0  0  0  0  0  0  0  0
  -21.9700   -9.0260   20.4340 C   0  0  0  0  0  3  0  0  0  0  0  0
  -22.6990  -10.2140   20.2550 C   0  0  0  0  0  3  0  0  0  0  0  0
  -21.6190   -6.9320   21.4730 O   0  0  0  0  0  0  0  0  0  0  0  0
  -21.5580   -6.1950   22.6280 C   0  0  0  0  0  0  0  0  0  0  0  0
  -21.1150   -6.7530   23.8480 C   0  0  0  0  0  3  0  0  0  0  0  0
  -21.0030   -5.9420   24.9940 C   0  0  0  0  0  3  0  0  0  0  0  0
  -21.3210   -4.5720   24.9220 C   0  0  0  0  0  0  0  0  0  0  0  0
  -21.7540   -4.0130   23.7080 C   0  0  0  0  0  3  0  0  0  0  0  0
  -21.8690   -4.8210   22.5640 C   0  0  0  0  0  0  0  0  0  0  0  0
  -22.2680   -4.2730   21.3900 F   0  0  0  0  0  0  0  0  0  0  0  0
  -21.2050   -3.7910   26.0210 F   0  0  0  0  0  0  0  0  0  0  0  0
  -22.7160  -13.5690   21.1090 C   0  0  0  0  0  0  0  0  0  0  0  0
  -21.9770  -12.8780   21.9700 N   0  0  0  0  0  0  0  0  0  0  0  0
  -22.2850  -14.5910   20.5750 O   0  0  0  0  0  0  0  0  0  0  0  0
  -22.3390  -12.0520   22.4220 H   0  0  0  0  0  0  0  0  0  0  0  0
  -21.0350  -13.1790   22.1800 H   0  0  0  0  0  0  0  0  0  0  0  0
  -25.3640  -15.2230   20.3130 N   0  0  0  0  0  0  0  0  0  0  0  0
  -24.6000  -15.8840   20.4020 H   0  0  0  0  0  0  0  0  0  0  0  0
  -26.2230  -15.6520   19.9930 H   0  0  0  0  0  0  0  0  0  0  0  0
  -28.1710  -25.2440   20.1180 C   0  0  0  0  0  2  0  0  0  0  0  0
  -28.3600  -26.6690   20.2300 O   0  0  0  0  0  0  0  0  0  0  0  0
  -24.5890  -31.9000   23.2420 C   0  0  0  0  0  0  0  0  0  0  0  0
  -27.2060  -27.4350   20.1660 C   0  0  0  0  0  0  0  0  0  0  0  0
  -23.3770  -30.5060   21.6000 C   0  0  0  0  0  3  0  0  0  0  0  0
  -24.8230  -28.9710   20.1680 C   0  0  0  0  0  0  0  0  0  0  0  0
  -25.9070  -30.8490   21.4070 C   0  0  0  0  0  2  0  0  0  0  0  0
  -25.9850  -29.4810   20.7600 C   0  0  0  0  0  0  0  0  0  0  0  0
  -27.1800  -28.7230   20.7530 C   0  0  0  0  0  3  0  0  0  0  0  0
  -26.0270  -26.9580   19.5430 C   0  0  0  0  0  3  0  0  0  0  0  0
  -24.8400  -27.7120   19.5520 C   0  0  0  0  0  3  0  0  0  0  0  0
  -23.5830  -29.8330   20.2180 C   0  0  0  0  0  2  0  0  0  0  0  0
  -24.6420  -31.1000   22.1400 N   0  0  0  0  0  0  0  0  0  0  0  0
  -23.5080  -32.1770   23.7820 O   0  0  0  0  0  0  0  0  0  0  0  0
  -22.7230  -29.4840   22.5580 C   0  0  0  0  0  0  0  0  0  0  0  0
  -21.3960  -29.3120   22.4360 N   0  0  0  0  0  0  0  0  0  0  0  0
  -23.4040  -28.8510   23.3690 O   0  0  0  0  0  0  0  0  0  0  0  0
  -20.9070  -29.8740   21.7540 H   0  0  0  0  0  0  0  0  0  0  0  0
  -18.0130  -28.1460   22.9500 C   0  0  0  0  0  0  0  0  0  0  0  0
  -20.5750  -28.3790   23.2070 C   0  0  0  0  0  3  0  0  0  0  0  0
  -20.6590  -26.9490   22.6250 C   0  0  0  0  0  2  0  0  0  0  0  0
  -19.5490  -26.6410   21.6160 C   0  0  0  0  0  2  0  0  0  0  0  0
  -18.1720  -26.7980   22.2690 C   0  0  0  0  0  2  0  0  0  0  0  0
  -19.1420  -28.8960   23.3770 C   0  0  0  0  0  0  0  0  0  0  0  0
  -18.9390  -30.1590   23.9730 C   0  0  0  0  0  3  0  0  0  0  0  0
  -17.6410  -30.6730   24.1480 C   0  0  0  0  0  3  0  0  0  0  0  0
  -16.5270  -29.9220   23.7370 C   0  0  0  0  0  3  0  0  0  0  0  0
  -16.7140  -28.6600   23.1440 C   0  0  0  0  0  3  0  0  0  0  0  0
  -25.8770  -32.5270   23.8590 C   0  0  0  0  0  3  0  0  0  0  0  0
  -25.5720  -33.9250   24.1930 N   0  0  0  0  0  0  0  0  0  0  0  0
  -25.8990  -34.9770   23.4320 C   0  0  0  0  0  0  0  0  0  0  0  0
  -26.5610  -34.8730   22.3960 O   0  0  0  0  0  0  0  0  0  0  0  0
  -24.9830  -34.0780   24.9980 H   0  0  0  0  0  0  0  0  0  0  0  0
  -24.1670  -36.7680   23.0910 C   0  0  0  0  0  1  0  0  0  0  0  0
  -25.4150  -36.3640   23.8920 C   0  0  0  0  0  3  0  0  0  0  0  0
  -27.5560  -37.2500   24.7060 C   0  0  0  0  0  1  0  0  0  0  0  0
  -26.4450  -37.4190   23.7720 N   0  0  0  0  0  0  0  0  0  0  0  0
  -26.0400  -38.3380   23.9250 H   0  0  0  0  0  0  0  0  0  0  0  0
  -26.3980  -31.7500   25.1310 C   0  0  1  0  0  0  0  0  0  0  0  0
  -25.3100  -31.5110   26.2040 C   0  0  0  0  0  1  0  0  0  0  0  0
  -26.9780  -30.3740   24.7330 C   0  0  0  0  0  1  0  0  0  0  0  0
  -27.5510  -32.5420   25.7920 C   0  0  0  0  0  1  0  0  0  0  0  0
  1 11  1  0
  1  6  1  0
  2  3  1  0
  2  5  1  0
  3  6  1  0
  5 53  1  0
  5  4  1  0
  6  4  1  0
  7  1  2  0
  8  9  2  0
  8 11  1  0
  9 12  1  0
 11 13  2  0
 12 23  1  0
 12 10  2  0
 13 10  1  0
 13 14  1  0
 15 23  1  0
 16 21  1  0
 17 18  1  0
 17 16  1  0
 19 18  1  0
 19 28  1  0
 19 20  1  0
 21 15  1  0
 21 20  1  0
 22 15  2  0
 23 24  1  0
 25 26  2  0
 26 45  1  0
 27 26  1  0
 27 30  1  0
 28 25  1  0
 28 29  1  0
 29 27  2  0
 30 31  1  0
 31 32  2  0
 33 36  1  0
 33 32  1  0
 34 33  2  0
 35 34  1  0
 35 30  2  0
 36 37  1  0
 37 38  1  0
 38 39  2  0
 40 39  1  0
 40 44  1  0
 41 40  2  0
 42 37  2  0
 42 41  1  0
 43 42  1  0
 45 46  1  0
 46 49  1  0
 46 48  1  0
 47 45  2  0
 50 51  1  0
 50 25  1  0
 52 50  1  0
 53 54  1  0
 55 66  2  0
 56 54  1  0
 56 61  1  0
 57 65  1  0
 57 67  1  0
 58 64  1  0
 58 60  1  0
 59 65  1  0
 60 59  1  0
 61 60  2  0
 62 63  1  0
 62 56  2  0
 63 58  2  0
 64 57  1  0
 65 55  1  0
 67 69  2  0
 68 67  1  0
 70 68  1  0
 71 80  2  0
 71 76  1  0
 72 68  1  0
 72 76  1  0
 73 72  1  0
 74 75  1  0
 74 73  1  0
 75 71  1  0
 76 77  2  0
 77 78  1  0
 79 78  2  0
 80 79  1  0
 81 55  1  0
 81 82  1  0
 81 91  1  0
 82 85  1  0
 83 87  1  0
 83 82  1  0
 84 83  2  0
 87 86  1  0
 89 87  1  0
 89 90  1  0
 89 88  1  0
 91 94  1  1
 91 92  1  0
 93 91  1  0
M  ISO  4  15 100  23 100  53 101  54 101
M  END
>  <TORSDO>  (55) 
F 18

>  <SCORE>  (55) 
-15.099

>  <name>  (55) 
54

>  <ligand_id>  (55) 
54

>  <original_smiles>  (55) 
[H]c1c([H])c([H])c2c(c1[H])C([H])([H])C([H])([H])C([H])([H])C2([H])N([H])C(=O)C1([H])N(C(=O)C([H])(N([H])C(=O)C([H])(N([H])C([H])([H])[H])C([H])([H])[H])C(C([H])([H])[H])(C([H])([H])[H])C([H])([H])[H])C([H])([H])c2c([H])c(OC([H])([H])C3([H])C([H])([H])N(C(=O)c4c([H])c([H])c(N([H])C(=O)N5C([H])([H])C([H])([H])C([H])([H])C([H])(n6nc(-c7c([H])c([H])c(Oc8c([H])c([H])c(F)c([H])c8F)c([H])c7[H])c(C(=O)N([H])[H])c6N([H])[H])C5([H])[H])c([H])c4F)C([H])([H])C3([H])[H])c([H])c([H])c2C1([H])[H]

>  <smiles>  (55) 
[H]c1c([H])c([H])c2c(c1[H])C([H])([H])C([H])([H])C([H])([H])C2([H])N([H])C(=O)C1([H])N(C(=O)C([H])(N([H])C(=O)C([H])(N([H])C([H])([H])[H])C([H])([H])[H])C(C([H])([H])[H])(C([H])([H])[H])C([H])([H])[H])C([H])([H])c2c([H])c(OC([H])([H])C3([H])C([H])([H])N(C(=O)c4c([H])c([H])c(N([H])C(=O)N5C([H])([H])C([H])([H])C([H])([H])C([H])(n6nc(-c7c([H])c([H])c(Oc8c([H])c([H])c(F)c([H])c8F)c([H])c7[H])c(C(=O)N([H])[H])c6N([H])[H])C5([H])[H])c([H])c4F)C([H])([H])C3([H])[H])c([H])c([H])c2C1([H])[H]

$$$$
55:0:0
     RDKit          3D

 95103  0  0  1  0  0  0  0  0999 V2000
  -30.3510  -20.8210   20.8810 C   0  0  0  0  0  0  0  0  0  0  0  0
  -29.8160  -21.8850   20.2350 N   0  0  0  0  0  0  0  0  0  0  0  0
  -30.9340  -20.9300   21.9610 O   0  0  0  0  0  0  0  0  0  0  0  0
  -29.2740  -21.6890   19.4060 H   0  0  0  0  0  0  0  0  0  0  0  0
  -30.2960  -19.3670   18.8160 C   0  0  0  0  0  3  0  0  0  0  0  0
  -30.2660  -18.1170   18.1850 C   0  0  0  0  0  3  0  0  0  0  0  0
  -30.1690  -18.2440   20.9790 C   0  0  0  0  0  3  0  0  0  0  0  0
  -30.2370  -19.4570   20.2210 C   0  0  0  0  0  0  0  0  0  0  0  0
  -30.1800  -16.9260   18.9310 C   0  0  0  0  0  0  0  0  0  0  0  0
  -30.1560  -16.9560   20.3550 C   0  0  0  0  0  0  0  0  0  0  0  0
  -30.0830  -15.6450   18.1380 C   0  0  0  0  0  1  0  0  0  0  0  0
  -30.8000  -14.6500   21.1400 C   0  0  0  0  0  0  0  0  0  0  0  0
  -30.7080  -12.3010   20.3690 C   0  0  0  0  0  2  0  0  0  0  0  0
  -29.9440  -12.2320   19.0310 C   0  0  0  0  0  2  0  0  0  0  0  0
  -28.4100  -12.2310   19.2240 C   0  0  0  0  0  2  0  0  0  0  0  0
  -27.8910  -13.1810   20.3450 C   0  0  0  0  0  3  0  0  0  0  0  0
  -28.8050  -13.1550   21.5910 C   0  0  0  0  0  2  0  0  0  0  0  0
  -30.1790  -13.4320   21.1510 N   0  0  0  0  0  0  0  0  0  0  0  0
  -32.0140  -14.7690   20.9450 O   0  0  0  0  0  0  0  0  0  0  0  0
  -29.9900  -15.7430   21.1370 N   0  0  0  0  0  0  0  0  0  0  0  0
  -29.0470  -15.5630   21.4450 H   0  0  0  0  0  0  0  0  0  0  0  0
  -25.4260  -13.7980   20.7540 C   0  0  0  0  0  0  0  0  0  0  0  0
  -24.3210  -13.0350   21.0180 C   0  0  0  0  0  0  0  0  0  0  0  0
  -24.7840  -11.6860   21.0890 C   0  0  0  0  0  0  0  0  0  0  0  0
  -26.4920  -12.9160   20.6800 N   0  0  0  0  0  0  0  0  0  0  0  0
  -26.1020  -11.6420   20.9450 N   0  0  0  0  0  0  0  0  0  0  0  0
  -24.0400  -10.4290   21.2280 C   0  0  0  0  0  0  0  0  0  0  0  0
  -24.3850   -9.4720   22.2070 C   0  0  0  0  0  3  0  0  0  0  0  0
  -23.6410   -8.2800   22.3360 C   0  0  0  0  0  3  0  0  0  0  0  0
  -22.5390   -8.0340   21.4820 C   0  0  0  0  0  0  0  0  0  0  0  0
  -22.2150   -8.9800   20.4940 C   0  0  0  0  0  3  0  0  0  0  0  0
  -22.9580  -10.1630   20.3630 C   0  0  0  0  0  3  0  0  0  0  0  0
  -21.7750   -6.8910   21.5160 O   0  0  0  0  0  0  0  0  0  0  0  0
  -21.6450   -6.1470   22.6610 C   0  0  0  0  0  0  0  0  0  0  0  0
  -21.1400   -6.7010   23.8580 C   0  0  0  0  0  3  0  0  0  0  0  0
  -20.9600   -5.8810   24.9920 C   0  0  0  0  0  3  0  0  0  0  0  0
  -21.2730   -4.5100   24.9270 C   0  0  0  0  0  0  0  0  0  0  0  0
  -21.7690   -3.9560   23.7340 C   0  0  0  0  0  3  0  0  0  0  0  0
  -21.9520   -4.7720   22.6040 C   0  0  0  0  0  0  0  0  0  0  0  0
  -22.4080   -4.2300   21.4520 F   0  0  0  0  0  0  0  0  0  0  0  0
  -21.0930   -3.7210   26.0130 F   0  0  0  0  0  0  0  0  0  0  0  0
  -22.9020  -13.5160   21.1010 C   0  0  0  0  0  0  0  0  0  0  0  0
  -22.0720  -12.8550   21.9020 N   0  0  0  0  0  0  0  0  0  0  0  0
  -22.5310  -14.5180   20.4900 O   0  0  0  0  0  0  0  0  0  0  0  0
  -22.3800  -12.0490   22.4270 H   0  0  0  0  0  0  0  0  0  0  0  0
  -21.1150  -13.1610   21.9940 H   0  0  0  0  0  0  0  0  0  0  0  0
  -25.6020  -15.1630   20.5480 N   0  0  0  0  0  0  0  0  0  0  0  0
  -24.8120  -15.7970   20.5240 H   0  0  0  0  0  0  0  0  0  0  0  0
  -26.4730  -15.6120   20.2920 H   0  0  0  0  0  0  0  0  0  0  0  0
  -31.2690  -23.8710   19.7230 C   0  0  0  0  0  1  0  0  0  0  0  0
  -30.0760  -23.3180   20.5300 C   0  0  0  0  0  3  0  0  0  0  0  0
  -28.8110  -24.2460   20.5970 C   0  0  0  0  0  0  0  0  0  0  0  0
  -28.0310  -24.1590   21.5490 O   0  0  0  0  0  0  0  0  0  0  0  0
  -28.4950  -25.2750   19.4720 C   0  0  0  0  0  2  0  0  0  0  0  0
  -28.3560  -26.6330   19.9800 O   0  0  0  0  0  0  0  0  0  0  0  0
  -24.5600  -31.8110   23.1020 C   0  0  0  0  0  0  0  0  0  0  0  0
  -27.1570  -27.3410   19.9610 C   0  0  0  0  0  0  0  0  0  0  0  0
  -23.3330  -30.4310   21.4560 C   0  0  0  0  0  3  0  0  0  0  0  0
  -24.7640  -28.8900   20.0070 C   0  0  0  0  0  0  0  0  0  0  0  0
  -25.8620  -30.7610   21.2450 C   0  0  0  0  0  2  0  0  0  0  0  0
  -25.9330  -29.3920   20.5920 C   0  0  0  0  0  0  0  0  0  0  0  0
  -27.1230  -28.6250   20.5650 C   0  0  0  0  0  3  0  0  0  0  0  0
  -25.9590  -26.8550   19.3800 C   0  0  0  0  0  3  0  0  0  0  0  0
  -24.7750  -27.6200   19.4030 C   0  0  0  0  0  3  0  0  0  0  0  0
  -23.5300  -29.7650   20.0680 C   0  0  0  0  0  2  0  0  0  0  0  0
  -24.6040  -31.0170   21.9930 N   0  0  0  0  0  0  0  0  0  0  0  0
  -23.4830  -32.0870   23.6500 O   0  0  0  0  0  0  0  0  0  0  0  0
  -22.6800  -29.4090   22.4130 C   0  0  0  0  0  0  0  0  0  0  0  0
  -21.3490  -29.2590   22.3150 N   0  0  0  0  0  0  0  0  0  0  0  0
  -23.3670  -28.7530   23.2010 O   0  0  0  0  0  0  0  0  0  0  0  0
  -20.8560  -29.8410   21.6530 H   0  0  0  0  0  0  0  0  0  0  0  0
  -17.9590  -28.1380   22.8810 C   0  0  0  0  0  0  0  0  0  0  0  0
  -20.5290  -28.3210   23.0820 C   0  0  0  0  0  3  0  0  0  0  0  0
  -20.5770  -26.9050   22.4630 C   0  0  0  0  0  2  0  0  0  0  0  0
  -19.4380  -26.6390   21.4740 C   0  0  0  0  0  2  0  0  0  0  0  0
  -18.0800  -26.8030   22.1630 C   0  0  0  0  0  2  0  0  0  0  0  0
  -19.1100  -28.8570   23.2970 C   0  0  0  0  0  0  0  0  0  0  0  0
  -18.9450  -30.1100   23.9290 C   0  0  0  0  0  3  0  0  0  0  0  0
  -17.6610  -30.6410   24.1480 C   0  0  0  0  0  3  0  0  0  0  0  0
  -16.5230  -29.9180   23.7470 C   0  0  0  0  0  3  0  0  0  0  0  0
  -16.6740  -28.6680   23.1200 C   0  0  0  0  0  3  0  0  0  0  0  0
  -25.8550  -32.4270   23.7210 C   0  0  0  0  0  3  0  0  0  0  0  0
  -26.3850  -31.6260   24.9730 C   0  0  1  0  0  0  0  0  0  0  0  0
  -25.3040  -31.3740   26.0510 C   0  0  0  0  0  1  0  0  0  0  0  0
  -26.9580  -30.2560   24.5420 C   0  0  0  0  0  1  0  0  0  0  0  0
  -27.5440  -32.4030   25.6410 C   0  0  0  0  0  1  0  0  0  0  0  0
  -25.5500  -33.8170   24.0880 N   0  0  0  0  0  0  0  0  0  0  0  0
  -25.8880  -34.8890   23.3610 C   0  0  0  0  0  0  0  0  0  0  0  0
  -26.5600  -34.8130   22.3290 O   0  0  0  0  0  0  0  0  0  0  0  0
  -24.9580  -33.9490   24.8950 H   0  0  0  0  0  0  0  0  0  0  0  0
  -24.1730  -36.7040   23.0420 C   0  0  0  0  0  1  0  0  0  0  0  0
  -25.4020  -36.2660   23.8550 C   0  0  0  0  0  3  0  0  0  0  0  0
  -27.5330  -37.1130   24.7360 C   0  0  0  0  0  1  0  0  0  0  0  0
  -26.4410  -37.3160   23.7870 N   0  0  0  0  0  0  0  0  0  0  0  0
  -26.0380  -38.2330   23.9580 H   0  0  0  0  0  0  0  0  0  0  0  0
  1  3  2  0
  2 51  1  0
  2  1  1  0
  4  2  1  0
  5  8  1  0
  6  5  2  0
  6  9  1  0
  8  1  1  0
  8  7  2  0
  9 10  2  0
 10  7  1  0
 10 20  1  0
 11  9  1  0
 12 18  1  0
 13 18  1  0
 14 15  1  0
 14 13  1  0
 16 15  1  0
 16 25  1  0
 16 17  1  0
 18 17  1  0
 19 12  2  0
 20 12  1  0
 20 21  1  0
 22 23  2  0
 23 24  1  0
 23 42  1  0
 24 27  1  0
 25 22  1  0
 25 26  1  0
 26 24  2  0
 27 28  1  0
 28 29  2  0
 30 33  1  0
 30 29  1  0
 31 30  2  0
 32 31  1  0
 32 27  2  0
 33 34  1  0
 34 35  1  0
 35 36  2  0
 37 36  1  0
 37 41  1  0
 38 37  2  0
 39 34  2  0
 39 38  1  0
 40 39  1  0
 42 43  1  0
 43 46  1  0
 43 45  1  0
 44 42  2  0
 47 22  1  0
 48 47  1  0
 49 47  1  0
 51 50  1  0
 51 52  1  0
 52 53  2  0
 54 55  1  0
 54 52  1  0
 56 67  2  0
 57 55  1  0
 57 62  1  0
 58 66  1  0
 58 68  1  0
 59 65  1  0
 59 61  1  0
 60 66  1  0
 61 60  1  0
 62 61  2  0
 63 64  1  0
 63 57  2  0
 64 59  2  0
 65 58  1  0
 66 56  1  0
 68 70  2  0
 69 68  1  0
 71 69  1  0
 72 81  2  0
 72 77  1  0
 73 69  1  0
 73 77  1  0
 74 73  1  0
 75 76  1  0
 75 74  1  0
 76 72  1  0
 77 78  2  0
 78 79  1  0
 80 79  2  0
 81 80  1  0
 82 56  1  0
 82 87  1  0
 82 83  1  0
 83 86  1  1
 83 84  1  0
 85 83  1  0
 87 90  1  0
 88 92  1  0
 88 87  1  0
 89 88  2  0
 92 91  1  0
 94 92  1  0
 94 95  1  0
 94 93  1  0
M  ISO  4  12 100  20 100  54 101  55 101
M  END
>  <TORSDO>  (56) 
F 20

>  <SCORE>  (56) 
-12.801

>  <name>  (56) 
55

>  <ligand_id>  (56) 
55

>  <original_smiles>  (56) 
[H]c1c([H])c([H])c2c(c1[H])C([H])([H])C([H])([H])C([H])([H])C2([H])N([H])C(=O)C1([H])N(C(=O)C([H])(N([H])C(=O)C([H])(N([H])C([H])([H])[H])C([H])([H])[H])C(C([H])([H])[H])(C([H])([H])[H])C([H])([H])[H])C([H])([H])c2c([H])c(OC([H])([H])C(=O)C([H])(N([H])C(=O)c3c([H])c([H])c(C([H])([H])[H])c(N([H])C(=O)N4C([H])([H])C([H])([H])C([H])([H])C([H])(n5nc(-c6c([H])c([H])c(Oc7c([H])c([H])c(F)c([H])c7F)c([H])c6[H])c(C(=O)N([H])[H])c5N([H])[H])C4([H])[H])c3[H])C([H])([H])[H])c([H])c([H])c2C1([H])[H]

>  <smiles>  (56) 
[H]c1c([H])c([H])c2c(c1[H])C([H])([H])C([H])([H])C([H])([H])C2([H])N([H])C(=O)C1([H])N(C(=O)C([H])(N([H])C(=O)C([H])(N([H])C([H])([H])[H])C([H])([H])[H])C(C([H])([H])[H])(C([H])([H])[H])C([H])([H])[H])C([H])([H])c2c([H])c(OC([H])([H])C(=O)C([H])(N([H])C(=O)c3c([H])c([H])c(C([H])([H])[H])c(N([H])C(=O)N4C([H])([H])C([H])([H])C([H])([H])C([H])(n5nc(-c6c([H])c([H])c(Oc7c([H])c([H])c(F)c([H])c7F)c([H])c6[H])c(C(=O)N([H])[H])c5N([H])[H])C4([H])[H])c3[H])C([H])([H])[H])c([H])c([H])c2C1([H])[H]

$$$$
56:0:0
     RDKit          3D

 92100  0  0  1  0  0  0  0  0999 V2000
  -29.8290  -23.3560   20.4870 C   0  0  0  0  0  0  0  0  0  0  0  0
  -29.3580  -22.4130   21.3260 N   0  0  0  0  0  0  0  0  0  0  0  0
  -30.5330  -23.0930   19.5080 O   0  0  0  0  0  0  0  0  0  0  0  0
  -28.8670  -22.7190   22.1560 H   0  0  0  0  0  0  0  0  0  0  0  0
  -29.6970  -18.9640   19.9270 C   0  0  0  0  0  3  0  0  0  0  0  0
  -29.2950  -20.3030   20.0670 C   0  0  0  0  0  3  0  0  0  0  0  0
  -30.3410  -20.3800   22.2670 C   0  0  0  0  0  3  0  0  0  0  0  0
  -30.4600  -18.3370   20.9330 C   0  0  0  0  0  0  0  0  0  0  0  0
  -30.7590  -19.0400   22.1280 C   0  0  0  0  0  0  0  0  0  0  0  0
  -29.6560  -21.0310   21.2200 C   0  0  0  0  0  0  0  0  0  0  0  0
  -31.5800  -18.4170   23.2450 C   0  0  0  0  0  1  0  0  0  0  0  0
  -31.0410  -16.9680   20.6220 C   0  0  0  0  0  2  0  0  0  0  0  0
  -30.1630  -15.7420   20.9840 C   0  0  0  0  0  2  0  0  0  0  0  0
  -30.7430  -14.4730   20.3310 C   0  0  0  0  0  0  0  0  0  0  0  0
  -30.3140  -12.3650   19.1490 C   0  0  0  0  0  2  0  0  0  0  0  0
  -29.3620  -12.6450   17.9710 C   0  0  0  0  0  2  0  0  0  0  0  0
  -27.8980  -12.5250   18.4290 C   0  0  0  0  0  2  0  0  0  0  0  0
  -27.6050  -13.3350   19.7220 C   0  0  0  0  0  3  0  0  0  0  0  0
  -28.6860  -13.0990   20.8020 C   0  0  0  0  0  2  0  0  0  0  0  0
  -30.0040  -13.3420   20.2040 N   0  0  0  0  0  0  0  0  0  0  0  0
  -31.8580  -14.5690   19.8130 O   0  0  0  0  0  0  0  0  0  0  0  0
  -25.2220  -13.9350   20.4880 C   0  0  0  0  0  0  0  0  0  0  0  0
  -24.1610  -13.1600   20.8690 C   0  0  0  0  0  0  0  0  0  0  0  0
  -24.6180  -11.8080   20.8190 C   0  0  0  0  0  0  0  0  0  0  0  0
  -26.2630  -13.0550   20.2290 N   0  0  0  0  0  0  0  0  0  0  0  0
  -25.9020  -11.7700   20.4850 N   0  0  0  0  0  0  0  0  0  0  0  0
  -23.8930  -10.5440   21.0110 C   0  0  0  0  0  0  0  0  0  0  0  0
  -24.3330   -9.5740   21.9380 C   0  0  0  0  0  3  0  0  0  0  0  0
  -23.6090   -8.3760   22.1200 C   0  0  0  0  0  3  0  0  0  0  0  0
  -22.4280   -8.1410   21.3750 C   0  0  0  0  0  0  0  0  0  0  0  0
  -22.0060   -9.1010   20.4380 C   0  0  0  0  0  3  0  0  0  0  0  0
  -22.7320  -10.2900   20.2550 C   0  0  0  0  0  3  0  0  0  0  0  0
  -21.6750   -6.9950   21.4650 O   0  0  0  0  0  0  0  0  0  0  0  0
  -21.6260   -6.2550   22.6200 C   0  0  0  0  0  0  0  0  0  0  0  0
  -21.1920   -6.8120   23.8420 C   0  0  0  0  0  3  0  0  0  0  0  0
  -21.0900   -5.9990   24.9890 C   0  0  0  0  0  3  0  0  0  0  0  0
  -21.4110   -4.6300   24.9140 C   0  0  0  0  0  0  0  0  0  0  0  0
  -21.8390   -4.0730   23.6960 C   0  0  0  0  0  3  0  0  0  0  0  0
  -21.9420   -4.8830   22.5510 C   0  0  0  0  0  0  0  0  0  0  0  0
  -22.3340   -4.3360   21.3750 F   0  0  0  0  0  0  0  0  0  0  0  0
  -21.3070   -3.8470   26.0140 F   0  0  0  0  0  0  0  0  0  0  0  0
  -22.7690  -13.6360   21.1750 C   0  0  0  0  0  0  0  0  0  0  0  0
  -22.0580  -12.9320   22.0480 N   0  0  0  0  0  0  0  0  0  0  0  0
  -22.3210  -14.6680   20.6740 O   0  0  0  0  0  0  0  0  0  0  0  0
  -22.4320  -12.0970   22.4740 H   0  0  0  0  0  0  0  0  0  0  0  0
  -21.1260  -13.2320   22.2960 H   0  0  0  0  0  0  0  0  0  0  0  0
  -25.3890  -15.3070   20.3180 N   0  0  0  0  0  0  0  0  0  0  0  0
  -24.6330  -15.9710   20.4520 H   0  0  0  0  0  0  0  0  0  0  0  0
  -26.2470  -15.7420   20.0040 H   0  0  0  0  0  0  0  0  0  0  0  0
  -29.5070  -24.8170   20.8010 C   0  0  0  0  0  2  0  0  0  0  0  0
  -28.3870  -25.4020   19.9230 C   0  0  0  0  0  2  0  0  0  0  0  0
  -28.3800  -26.8220   20.1230 O   0  0  0  0  0  0  0  0  0  0  0  0
  -24.5270  -31.9090   23.2240 C   0  0  0  0  0  0  0  0  0  0  0  0
  -27.1780  -27.4940   20.1180 C   0  0  0  0  0  0  0  0  0  0  0  0
  -23.3190  -30.5030   21.5890 C   0  0  0  0  0  3  0  0  0  0  0  0
  -24.7690  -28.9750   20.1490 C   0  0  0  0  0  0  0  0  0  0  0  0
  -25.8390  -30.8760   21.3760 C   0  0  0  0  0  2  0  0  0  0  0  0
  -25.9260  -29.5090   20.7310 C   0  0  0  0  0  0  0  0  0  0  0  0
  -27.1310  -28.7750   20.7090 C   0  0  0  0  0  3  0  0  0  0  0  0
  -26.0010  -26.9700   19.5370 C   0  0  0  0  0  3  0  0  0  0  0  0
  -24.8000  -27.7050   19.5530 C   0  0  0  0  0  3  0  0  0  0  0  0
  -23.5200  -29.8270   20.2060 C   0  0  0  0  0  2  0  0  0  0  0  0
  -24.5810  -31.1110   22.1200 N   0  0  0  0  0  0  0  0  0  0  0  0
  -23.4490  -32.1750   23.7720 O   0  0  0  0  0  0  0  0  0  0  0  0
  -22.6800  -29.4750   22.5490 C   0  0  0  0  0  0  0  0  0  0  0  0
  -21.3570  -29.2860   22.4260 N   0  0  0  0  0  0  0  0  0  0  0  0
  -23.3720  -28.8500   23.3580 O   0  0  0  0  0  0  0  0  0  0  0  0
  -20.8620  -29.8420   21.7430 H   0  0  0  0  0  0  0  0  0  0  0  0
  -17.9890  -28.0830   22.9400 C   0  0  0  0  0  0  0  0  0  0  0  0
  -20.5470  -28.3430   23.1950 C   0  0  0  0  0  3  0  0  0  0  0  0
  -20.6470  -26.9150   22.6080 C   0  0  0  0  0  2  0  0  0  0  0  0
  -19.5380  -26.5970   21.6000 C   0  0  0  0  0  2  0  0  0  0  0  0
  -18.1600  -26.7380   22.2550 C   0  0  0  0  0  2  0  0  0  0  0  0
  -19.1090  -28.8440   23.3660 C   0  0  0  0  0  0  0  0  0  0  0  0
  -18.8950  -30.1040   23.9660 C   0  0  0  0  0  3  0  0  0  0  0  0
  -17.5910  -30.6060   24.1390 C   0  0  0  0  0  3  0  0  0  0  0  0
  -16.4840  -29.8430   23.7300 C   0  0  0  0  0  3  0  0  0  0  0  0
  -16.6840  -28.5820   23.1380 C   0  0  0  0  0  3  0  0  0  0  0  0
  -25.8140  -32.5440   23.8380 C   0  0  0  0  0  3  0  0  0  0  0  0
  -25.4990  -33.9390   24.1700 N   0  0  0  0  0  0  0  0  0  0  0  0
  -25.8130  -34.9920   23.4020 C   0  0  0  0  0  0  0  0  0  0  0  0
  -26.4700  -34.8900   22.3630 O   0  0  0  0  0  0  0  0  0  0  0  0
  -24.9210  -34.0900   24.9830 H   0  0  0  0  0  0  0  0  0  0  0  0
  -24.0650  -36.7670   23.0630 C   0  0  0  0  0  1  0  0  0  0  0  0
  -25.3190  -36.3770   23.8610 C   0  0  0  0  0  3  0  0  0  0  0  0
  -27.4600  -37.2810   24.6580 C   0  0  0  0  0  1  0  0  0  0  0  0
  -26.3380  -37.4420   23.7350 N   0  0  0  0  0  0  0  0  0  0  0  0
  -25.9240  -38.3560   23.8990 H   0  0  0  0  0  0  0  0  0  0  0  0
  -26.3390  -31.7740   25.1120 C   0  0  1  0  0  0  0  0  0  0  0  0
  -25.2510  -31.5280   26.1840 C   0  0  0  0  0  1  0  0  0  0  0  0
  -26.9260  -30.4010   24.7130 C   0  0  0  0  0  1  0  0  0  0  0  0
  -27.4860  -32.5750   25.7730 C   0  0  0  0  0  1  0  0  0  0  0  0
  1 50  1  0
  1  2  1  0
  2  4  1  0
  3  1  2  0
  5  6  2  0
  5  8  1  0
  6 10  1  0
  8  9  2  0
  9  7  1  0
  9 11  1  0
 10  2  1  0
 10  7  2  0
 12  8  1  0
 12 13  1  0
 14 13  1  0
 15 20  1  0
 16 17  1  0
 16 15  1  0
 18 17  1  0
 18 25  1  0
 18 19  1  0
 20 14  1  0
 20 19  1  0
 21 14  2  0
 22 23  2  0
 23 42  1  0
 24 23  1  0
 24 27  1  0
 25 26  1  0
 25 22  1  0
 26 24  2  0
 27 28  1  0
 28 29  2  0
 30 33  1  0
 30 29  1  0
 31 30  2  0
 32 31  1  0
 32 27  2  0
 33 34  1  0
 34 35  1  0
 35 36  2  0
 37 36  1  0
 37 41  1  0
 38 37  2  0
 39 34  2  0
 39 38  1  0
 40 39  1  0
 42 43  1  0
 43 46  1  0
 43 45  1  0
 44 42  2  0
 47 48  1  0
 47 22  1  0
 49 47  1  0
 51 52  1  0
 51 50  1  0
 53 64  2  0
 54 52  1  0
 54 59  1  0
 55 63  1  0
 55 65  1  0
 56 62  1  0
 56 58  1  0
 57 63  1  0
 58 57  1  0
 59 58  2  0
 60 61  1  0
 60 54  2  0
 61 56  2  0
 62 55  1  0
 63 53  1  0
 65 67  2  0
 66 65  1  0
 68 66  1  0
 69 78  2  0
 69 74  1  0
 70 66  1  0
 70 74  1  0
 71 70  1  0
 72 73  1  0
 72 71  1  0
 73 69  1  0
 74 75  2  0
 75 76  1  0
 77 76  2  0
 78 77  1  0
 79 53  1  0
 79 80  1  0
 79 89  1  0
 80 83  1  0
 81 85  1  0
 81 80  1  0
 82 81  2  0
 85 84  1  0
 87 85  1  0
 87 88  1  0
 87 86  1  0
 89 92  1  1
 89 90  1  0
 91 89  1  0
M  ISO  4  13 100  14 100  51 101  52 101
M  END
>  <TORSDO>  (57) 
F 21

>  <SCORE>  (57) 
-12.984

>  <name>  (57) 
56

>  <ligand_id>  (57) 
56

>  <original_smiles>  (57) 
[H]c1c([H])c([H])c2c(c1[H])C([H])([H])C([H])([H])C([H])([H])C2([H])N([H])C(=O)C1([H])N(C(=O)C([H])(N([H])C(=O)C([H])(N([H])C([H])([H])[H])C([H])([H])[H])C(C([H])([H])[H])(C([H])([H])[H])C([H])([H])[H])C([H])([H])c2c([H])c(OC([H])([H])C([H])([H])C(=O)N([H])c3c([H])c([H])c(C([H])([H])C([H])([H])C(=O)N4C([H])([H])C([H])([H])C([H])([H])C([H])(n5nc(-c6c([H])c([H])c(Oc7c([H])c([H])c(F)c([H])c7F)c([H])c6[H])c(C(=O)N([H])[H])c5N([H])[H])C4([H])[H])c(C([H])([H])[H])c3[H])c([H])c([H])c2C1([H])[H]

>  <smiles>  (57) 
[H]c1c([H])c([H])c2c(c1[H])C([H])([H])C([H])([H])C([H])([H])C2([H])N([H])C(=O)C1([H])N(C(=O)C([H])(N([H])C(=O)C([H])(N([H])C([H])([H])[H])C([H])([H])[H])C(C([H])([H])[H])(C([H])([H])[H])C([H])([H])[H])C([H])([H])c2c([H])c(OC([H])([H])C([H])([H])C(=O)N([H])c3c([H])c([H])c(C([H])([H])C([H])([H])C(=O)N4C([H])([H])C([H])([H])C([H])([H])C([H])(n5nc(-c6c([H])c([H])c(Oc7c([H])c([H])c(F)c([H])c7F)c([H])c6[H])c(C(=O)N([H])[H])c5N([H])[H])C4([H])[H])c(C([H])([H])[H])c3[H])c([H])c([H])c2C1([H])[H]

$$$$
57:0:0
     RDKit          3D

 97106  0  0  1  0  0  0  0  0999 V2000
  -29.2330  -21.0500   19.1890 C   0  0  0  0  0  3  0  0  0  0  0  0
  -30.8300  -18.9970   19.3470 C   0  0  0  0  0  3  0  0  0  0  0  0
  -31.0750  -17.6420   19.6880 C   0  0  0  0  0  3  0  0  0  0  0  0
  -29.0120  -17.6010   20.9500 C   0  0  0  0  0  3  0  0  0  0  0  0
  -29.6490  -19.6670   19.7630 C   0  0  0  0  0  0  0  0  0  0  0  0
  -30.1460  -16.9040   20.4670 C   0  0  0  0  0  0  0  0  0  0  0  0
  -28.7650  -18.9530   20.6080 C   0  0  0  0  0  0  0  0  0  0  0  0
  -27.6340  -19.5500   21.0550 F   0  0  0  0  0  0  0  0  0  0  0  0
  -30.9140  -14.5110   20.0980 C   0  0  0  0  0  0  0  0  0  0  0  0
  -30.5500  -12.3740   18.9140 C   0  0  0  0  0  2  0  0  0  0  0  0
  -29.5400  -12.6300   17.7740 C   0  0  0  0  0  2  0  0  0  0  0  0
  -28.0910  -12.4940   18.2840 C   0  0  0  0  0  2  0  0  0  0  0  0
  -27.8410  -13.2890   19.5940 C   0  0  0  0  0  3  0  0  0  0  0  0
  -28.9560  -13.0080   20.6280 C   0  0  0  0  0  2  0  0  0  0  0  0
  -30.2520  -13.3240   20.0000 N   0  0  0  0  0  0  0  0  0  0  0  0
  -32.0090  -14.7020   19.5620 O   0  0  0  0  0  0  0  0  0  0  0  0
  -30.2420  -15.4920   20.7490 N   0  0  0  0  0  0  0  0  0  0  0  0
  -29.4880  -15.1290   21.3120 H   0  0  0  0  0  0  0  0  0  0  0  0
  -25.4990  -13.9130   20.4600 C   0  0  0  0  0  0  0  0  0  0  0  0
  -24.4400  -13.1480   20.8650 C   0  0  0  0  0  0  0  0  0  0  0  0
  -24.8720  -11.7890   20.7620 C   0  0  0  0  0  0  0  0  0  0  0  0
  -26.5120  -13.0210   20.1400 N   0  0  0  0  0  0  0  0  0  0  0  0
  -26.1410  -11.7380   20.3780 N   0  0  0  0  0  0  0  0  0  0  0  0
  -24.1340  -10.5340   20.9540 C   0  0  0  0  0  0  0  0  0  0  0  0
  -24.5490   -9.5700   21.8990 C   0  0  0  0  0  3  0  0  0  0  0  0
  -23.8130   -8.3800   22.0770 C   0  0  0  0  0  3  0  0  0  0  0  0
  -22.6460   -8.1440   21.3100 C   0  0  0  0  0  0  0  0  0  0  0  0
  -22.2500   -9.0970   20.3560 C   0  0  0  0  0  3  0  0  0  0  0  0
  -22.9860  -10.2790   20.1760 C   0  0  0  0  0  3  0  0  0  0  0  0
  -21.8830   -7.0050   21.3980 O   0  0  0  0  0  0  0  0  0  0  0  0
  -21.7580   -6.3100   22.5740 C   0  0  0  0  0  0  0  0  0  0  0  0
  -21.2180   -6.9040   23.7360 C   0  0  0  0  0  3  0  0  0  0  0  0
  -21.0420   -6.1340   24.9030 C   0  0  0  0  0  3  0  0  0  0  0  0
  -21.3960   -4.7730   24.9080 C   0  0  0  0  0  0  0  0  0  0  0  0
  -21.9300   -4.1780   23.7520 C   0  0  0  0  0  3  0  0  0  0  0  0
  -22.1070   -4.9450   22.5870 C   0  0  0  0  0  0  0  0  0  0  0  0
  -22.6010   -4.3630   21.4680 F   0  0  0  0  0  0  0  0  0  0  0  0
  -21.2200   -4.0300   26.0280 F   0  0  0  0  0  0  0  0  0  0  0  0
  -23.0700  -13.6390   21.2350 C   0  0  0  0  0  0  0  0  0  0  0  0
  -22.3800  -12.9260   22.1180 N   0  0  0  0  0  0  0  0  0  0  0  0
  -22.6230  -14.6910   20.7780 O   0  0  0  0  0  0  0  0  0  0  0  0
  -22.7560  -12.0750   22.5100 H   0  0  0  0  0  0  0  0  0  0  0  0
  -21.4630  -13.2360   22.4080 H   0  0  0  0  0  0  0  0  0  0  0  0
  -25.6810  -15.2860   20.3190 N   0  0  0  0  0  0  0  0  0  0  0  0
  -24.9360  -15.9500   20.4900 H   0  0  0  0  0  0  0  0  0  0  0  0
  -26.5190  -15.7180   19.9480 H   0  0  0  0  0  0  0  0  0  0  0  0
  -28.3500  -23.0970   20.4040 C   0  0  0  0  0  0  0  0  0  0  0  0
  -30.3820  -24.1860   20.9750 C   0  0  0  0  0  2  0  0  0  0  0  0
  -30.6290  -22.7120   20.5770 C   0  0  0  0  0  2  0  0  0  0  0  0
  -28.8860  -24.2260   21.2900 C   0  0  0  0  0  3  0  0  0  0  0  0
  -29.3410  -22.2370   20.0750 N   0  0  0  0  0  0  0  0  0  0  0  0
  -27.1680  -23.0130   20.0610 O   0  0  0  0  0  0  0  0  0  0  0  0
  -28.1400  -25.6030   21.3390 C   0  0  0  0  0  2  0  0  0  0  0  0
  -28.1740  -26.4870   20.1990 O   0  0  0  0  0  0  0  0  0  0  0  0
  -24.4770  -31.8630   23.1260 C   0  0  0  0  0  0  0  0  0  0  0  0
  -27.0660  -27.3100   20.1470 C   0  0  0  0  0  0  0  0  0  0  0  0
  -23.2540  -30.4380   21.5160 C   0  0  0  0  0  3  0  0  0  0  0  0
  -24.6930  -28.8520   20.1210 C   0  0  0  0  0  0  0  0  0  0  0  0
  -25.7860  -30.7610   21.3110 C   0  0  0  0  0  2  0  0  0  0  0  0
  -25.8590  -29.3730   20.7000 C   0  0  0  0  0  0  0  0  0  0  0  0
  -27.0510  -28.6090   20.7130 C   0  0  0  0  0  3  0  0  0  0  0  0
  -25.8900  -26.8090   19.5580 C   0  0  0  0  0  3  0  0  0  0  0  0
  -24.7040  -27.5690   19.5470 C   0  0  0  0  0  3  0  0  0  0  0  0
  -23.4570  -29.7240   20.1520 C   0  0  0  0  0  2  0  0  0  0  0  0
  -24.5230  -31.0360   22.0420 N   0  0  0  0  0  0  0  0  0  0  0  0
  -23.3980  -32.1600   23.6600 O   0  0  0  0  0  0  0  0  0  0  0  0
  -22.5910  -29.4470   22.5010 C   0  0  0  0  0  0  0  0  0  0  0  0
  -21.2610  -29.2900   22.3900 N   0  0  0  0  0  0  0  0  0  0  0  0
  -23.2690  -28.8220   23.3200 O   0  0  0  0  0  0  0  0  0  0  0  0
  -20.7760  -29.8450   21.6980 H   0  0  0  0  0  0  0  0  0  0  0  0
  -17.8630  -28.2010   22.9660 C   0  0  0  0  0  0  0  0  0  0  0  0
  -20.4330  -28.3820   23.1840 C   0  0  0  0  0  3  0  0  0  0  0  0
  -20.4810  -26.9460   22.6150 C   0  0  0  0  0  2  0  0  0  0  0  0
  -19.3480  -26.6510   21.6260 C   0  0  0  0  0  2  0  0  0  0  0  0
  -17.9850  -26.8420   22.2980 C   0  0  0  0  0  2  0  0  0  0  0  0
  -19.0130  -28.9310   23.3690 C   0  0  0  0  0  0  0  0  0  0  0  0
  -18.8450  -30.2040   23.9560 C   0  0  0  0  0  3  0  0  0  0  0  0
  -17.5610  -30.7460   24.1440 C   0  0  0  0  0  3  0  0  0  0  0  0
  -16.4260  -30.0130   23.7580 C   0  0  0  0  0  3  0  0  0  0  0  0
  -16.5780  -28.7420   23.1750 C   0  0  0  0  0  3  0  0  0  0  0  0
  -25.7700  -32.4930   23.7300 C   0  0  0  0  0  3  0  0  0  0  0  0
  -25.4580  -33.8830   24.0890 N   0  0  0  0  0  0  0  0  0  0  0  0
  -25.7700  -34.9500   23.3410 C   0  0  0  0  0  0  0  0  0  0  0  0
  -26.4230  -34.8680   22.2960 O   0  0  0  0  0  0  0  0  0  0  0  0
  -24.8760  -34.0210   24.9010 H   0  0  0  0  0  0  0  0  0  0  0  0
  -24.0280  -36.7390   23.0420 C   0  0  0  0  0  1  0  0  0  0  0  0
  -25.2820  -36.3280   23.8290 C   0  0  0  0  0  3  0  0  0  0  0  0
  -27.4180  -37.2160   24.6540 C   0  0  0  0  0  1  0  0  0  0  0  0
  -26.3080  -37.3890   23.7210 N   0  0  0  0  0  0  0  0  0  0  0  0
  -25.8980  -38.3040   23.8820 H   0  0  0  0  0  0  0  0  0  0  0  0
  -26.3210  -31.7040   24.9800 C   0  0  1  0  0  0  0  0  0  0  0  0
  -25.2490  -31.4240   26.0600 C   0  0  0  0  0  1  0  0  0  0  0  0
  -26.9210  -30.3460   24.5480 C   0  0  0  0  0  1  0  0  0  0  0  0
  -27.4690  -32.5030   25.6410 C   0  0  0  0  0  1  0  0  0  0  0  0
  -29.8360  -21.3410   17.7900 C   0  0  0  0  0  2  0  0  0  0  0  0
  -30.1370  -22.9780   15.8540 C   0  0  0  0  0  1  0  0  0  0  0  0
  -29.4080  -22.6840   17.1700 C   0  0  0  0  0  2  0  0  0  0  0  0
  1 95  1  0
  1  5  1  0
  1 51  1  0
  2  3  2  0
  2  5  1  0
  3  6  1  0
  5  7  2  0
  6 17  1  0
  6  4  2  0
  7  4  1  0
  7  8  1  0
  9 17  1  0
 10 15  1  0
 11 12  1  0
 11 10  1  0
 13 12  1  0
 13 22  1  0
 13 14  1  0
 15  9  1  0
 15 14  1  0
 16  9  2  0
 17 18  1  0
 19 20  2  0
 20 39  1  0
 21 20  1  0
 21 24  1  0
 22 23  1  0
 22 19  1  0
 23 21  2  0
 24 25  1  0
 25 26  2  0
 27 30  1  0
 27 26  1  0
 28 27  2  0
 29 28  1  0
 29 24  2  0
 30 31  1  0
 31 36  2  0
 31 32  1  0
 32 33  2  0
 33 34  1  0
 34 38  1  0
 35 34  2  0
 36 35  1  0
 37 36  1  0
 39 40  1  0
 40 43  1  0
 40 42  1  0
 41 39  2  0
 44 19  1  0
 44 45  1  0
 46 44  1  0
 47 50  1  0
 48 50  1  0
 49 48  1  0
 50 53  1  0
 51 47  1  0
 51 49  1  0
 52 47  2  0
 54 53  1  0
 55 66  2  0
 56 54  1  0
 56 61  1  0
 57 65  1  0
 57 67  1  0
 58 64  1  0
 58 60  1  0
 59 65  1  0
 60 61  2  0
 60 59  1  0
 62 56  2  0
 63 62  1  0
 63 58  2  0
 64 57  1  0
 65 55  1  0
 67 69  2  0
 68 67  1  0
 70 68  1  0
 71 80  2  0
 71 76  1  0
 72 68  1  0
 72 76  1  0
 73 72  1  0
 74 75  1  0
 74 73  1  0
 75 71  1  0
 76 77  2  0
 77 78  1  0
 79 78  2  0
 80 79  1  0
 81 55  1  0
 81 82  1  0
 81 91  1  0
 82 85  1  0
 83 87  1  0
 83 82  1  0
 84 83  2  0
 87 86  1  0
 89 87  1  0
 89 90  1  0
 89 88  1  0
 91 94  1  1
 91 92  1  0
 93 91  1  0
 96 97  1  0
 97 95  1  0
M  ISO  4   9 100  17 100  53 101  54 101
M  END
>  <TORSDO>  (58) 
F 21

>  <SCORE>  (58) 
-13.288

>  <name>  (58) 
57

>  <ligand_id>  (58) 
57

>  <original_smiles>  (58) 
[H]c1c([H])c([H])c2c(c1[H])C([H])([H])C([H])([H])C([H])([H])C2([H])N([H])C(=O)C1([H])N(C(=O)C([H])(N([H])C(=O)C([H])(N([H])C([H])([H])[H])C([H])([H])[H])C(C([H])([H])[H])(C([H])([H])[H])C([H])([H])[H])C([H])([H])c2c([H])c(OC([H])([H])C3([H])C(=O)N(C([H])(c4c([H])c([H])c(N([H])C(=O)N5C([H])([H])C([H])([H])C([H])([H])C([H])(n6nc(-c7c([H])c([H])c(Oc8c([H])c([H])c(F)c([H])c8F)c([H])c7[H])c(C(=O)N([H])[H])c6N([H])[H])C5([H])[H])c([H])c4F)C([H])([H])C([H])([H])C([H])([H])[H])C([H])([H])C3([H])[H])c([H])c([H])c2C1([H])[H]

>  <smiles>  (58) 
[H]c1c([H])c([H])c2c(c1[H])C([H])([H])C([H])([H])C([H])([H])C2([H])N([H])C(=O)C1([H])N(C(=O)C([H])(N([H])C(=O)C([H])(N([H])C([H])([H])[H])C([H])([H])[H])C(C([H])([H])[H])(C([H])([H])[H])C([H])([H])[H])C([H])([H])c2c([H])c(OC([H])([H])C3([H])C(=O)N(C([H])(c4c([H])c([H])c(N([H])C(=O)N5C([H])([H])C([H])([H])C([H])([H])C([H])(n6nc(-c7c([H])c([H])c(Oc8c([H])c([H])c(F)c([H])c8F)c([H])c7[H])c(C(=O)N([H])[H])c6N([H])[H])C5([H])[H])c([H])c4F)C([H])([H])C([H])([H])C([H])([H])[H])C([H])([H])C3([H])[H])c([H])c([H])c2C1([H])[H]

$$$$
58:0:0
     RDKit          3D

 93102  0  0  1  0  0  0  0  0999 V2000
  -31.3840  -22.0290   19.6700 C   0  0  0  0  0  0  0  0  0  0  0  0
  -31.6480  -23.5300   19.4700 C   0  0  0  0  0  2  0  0  0  0  0  0
  -30.7260  -24.4600   20.2700 C   0  0  0  0  0  2  0  0  0  0  0  0
  -29.0980  -22.5650   20.5140 C   0  0  0  0  0  2  0  0  0  0  0  0
  -29.2670  -24.0760   20.0390 C   0  0  0  0  0  3  0  0  0  0  0  0
  -30.1750  -21.5890   20.1170 N   0  0  0  0  0  0  0  0  0  0  0  0
  -32.3060  -21.2580   19.3770 O   0  0  0  0  0  0  0  0  0  0  0  0
  -30.5170  -18.1790   21.7960 C   0  0  0  0  0  3  0  0  0  0  0  0
  -30.5050  -19.5860   21.5890 C   0  0  0  0  0  3  0  0  0  0  0  0
  -29.5710  -19.2420   19.3900 C   0  0  0  0  0  3  0  0  0  0  0  0
  -30.0540  -17.2660   20.8120 C   0  0  0  0  0  0  0  0  0  0  0  0
  -30.0400  -20.1550   20.3760 C   0  0  0  0  0  0  0  0  0  0  0  0
  -29.5700  -17.8310   19.6050 C   0  0  0  0  0  0  0  0  0  0  0  0
  -29.0590  -17.0150   18.6510 F   0  0  0  0  0  0  0  0  0  0  0  0
  -29.8830  -15.7490   21.1640 C   0  0  0  0  0  2  0  0  0  0  0  0
  -30.6190  -14.6070   20.3600 C   0  0  0  0  0  0  0  0  0  0  0  0
  -30.3860  -12.4420   19.1340 C   0  0  0  0  0  2  0  0  0  0  0  0
  -29.4110  -12.6380   17.9510 C   0  0  0  0  0  2  0  0  0  0  0  0
  -27.9420  -12.4800   18.4000 C   0  0  0  0  0  2  0  0  0  0  0  0
  -27.6260  -13.2860   19.6880 C   0  0  0  0  0  3  0  0  0  0  0  0
  -28.7000  -13.0200   20.7660 C   0  0  0  0  0  2  0  0  0  0  0  0
  -30.0030  -13.3930   20.1940 N   0  0  0  0  0  0  0  0  0  0  0  0
  -31.7280  -14.8250   19.8580 O   0  0  0  0  0  0  0  0  0  0  0  0
  -25.2350  -13.9000   20.4120 C   0  0  0  0  0  0  0  0  0  0  0  0
  -24.1700  -13.1330   20.7950 C   0  0  0  0  0  0  0  0  0  0  0  0
  -24.6280  -11.7790   20.7710 C   0  0  0  0  0  0  0  0  0  0  0  0
  -26.2780  -13.0150   20.1790 N   0  0  0  0  0  0  0  0  0  0  0  0
  -25.9160  -11.7360   20.4520 N   0  0  0  0  0  0  0  0  0  0  0  0
  -23.9020  -10.5200   20.9770 C   0  0  0  0  0  0  0  0  0  0  0  0
  -24.3420   -9.5580   21.9120 C   0  0  0  0  0  3  0  0  0  0  0  0
  -23.6150   -8.3620   22.1050 C   0  0  0  0  0  3  0  0  0  0  0  0
  -22.4350   -8.1220   21.3620 C   0  0  0  0  0  0  0  0  0  0  0  0
  -22.0150   -9.0720   20.4150 C   0  0  0  0  0  3  0  0  0  0  0  0
  -22.7420  -10.2590   20.2210 C   0  0  0  0  0  3  0  0  0  0  0  0
  -21.6800   -6.9790   21.4640 O   0  0  0  0  0  0  0  0  0  0  0  0
  -21.6420   -6.2420   22.6210 C   0  0  0  0  0  0  0  0  0  0  0  0
  -21.2300   -6.8050   23.8490 C   0  0  0  0  0  3  0  0  0  0  0  0
  -21.1380   -5.9950   24.9990 C   0  0  0  0  0  3  0  0  0  0  0  0
  -21.4490   -4.6250   24.9220 C   0  0  0  0  0  0  0  0  0  0  0  0
  -21.8540   -4.0610   23.6990 C   0  0  0  0  0  3  0  0  0  0  0  0
  -21.9470   -4.8680   22.5520 C   0  0  0  0  0  0  0  0  0  0  0  0
  -22.3180   -4.3160   21.3710 F   0  0  0  0  0  0  0  0  0  0  0  0
  -21.3530   -3.8450   26.0240 F   0  0  0  0  0  0  0  0  0  0  0  0
  -22.7750  -13.6130   21.0770 C   0  0  0  0  0  0  0  0  0  0  0  0
  -22.0540  -12.9220   21.9540 N   0  0  0  0  0  0  0  0  0  0  0  0
  -22.3330  -14.6350   20.5540 O   0  0  0  0  0  0  0  0  0  0  0  0
  -22.4260  -12.0960   22.3990 H   0  0  0  0  0  0  0  0  0  0  0  0
  -21.1190  -13.2250   22.1860 H   0  0  0  0  0  0  0  0  0  0  0  0
  -25.4000  -15.2700   20.2240 N   0  0  0  0  0  0  0  0  0  0  0  0
  -24.6330  -15.9240   20.3270 H   0  0  0  0  0  0  0  0  0  0  0  0
  -26.2460  -15.7040   19.8750 H   0  0  0  0  0  0  0  0  0  0  0  0
  -28.2790  -25.1470   20.6630 C   0  0  0  0  0  2  0  0  0  0  0  0
  -28.4260  -26.5510   20.2360 O   0  0  0  0  0  0  0  0  0  0  0  0
  -24.6180  -31.8820   23.2420 C   0  0  0  0  0  0  0  0  0  0  0  0
  -27.2820  -27.3540   20.2220 C   0  0  0  0  0  0  0  0  0  0  0  0
  -23.4280  -30.4700   21.6010 C   0  0  0  0  0  3  0  0  0  0  0  0
  -24.8960  -28.9190   20.1970 C   0  0  0  0  0  0  0  0  0  0  0  0
  -25.9610  -30.8150   21.4210 C   0  0  0  0  0  2  0  0  0  0  0  0
  -26.0570  -29.4320   20.7890 C   0  0  0  0  0  0  0  0  0  0  0  0
  -27.2540  -28.6620   20.7880 C   0  0  0  0  0  3  0  0  0  0  0  0
  -26.1000  -26.8850   19.6070 C   0  0  0  0  0  3  0  0  0  0  0  0
  -24.9170  -27.6490   19.5980 C   0  0  0  0  0  3  0  0  0  0  0  0
  -23.6520  -29.7830   20.2280 C   0  0  0  0  0  2  0  0  0  0  0  0
  -24.6870  -31.0720   22.1460 N   0  0  0  0  0  0  0  0  0  0  0  0
  -23.5310  -32.1560   23.7720 O   0  0  0  0  0  0  0  0  0  0  0  0
  -22.7650  -29.4560   22.5630 C   0  0  0  0  0  0  0  0  0  0  0  0
  -21.4410  -29.2770   22.4300 N   0  0  0  0  0  0  0  0  0  0  0  0
  -23.4420  -28.8330   23.3850 O   0  0  0  0  0  0  0  0  0  0  0  0
  -20.9540  -29.8330   21.7390 H   0  0  0  0  0  0  0  0  0  0  0  0
  -18.0630  -28.0800   22.9120 C   0  0  0  0  0  0  0  0  0  0  0  0
  -20.6190  -28.3410   23.1980 C   0  0  0  0  0  3  0  0  0  0  0  0
  -20.7270  -26.9080   22.6280 C   0  0  0  0  0  2  0  0  0  0  0  0
  -19.6310  -26.5800   21.6080 C   0  0  0  0  0  2  0  0  0  0  0  0
  -18.2440  -26.7280   22.2430 C   0  0  0  0  0  2  0  0  0  0  0  0
  -19.1790  -28.8440   23.3460 C   0  0  0  0  0  0  0  0  0  0  0  0
  -18.9550  -30.1090   23.9330 C   0  0  0  0  0  3  0  0  0  0  0  0
  -17.6490  -30.6100   24.0900 C   0  0  0  0  0  3  0  0  0  0  0  0
  -16.5490  -29.8430   23.6730 C   0  0  0  0  0  3  0  0  0  0  0  0
  -16.7560  -28.5790   23.0900 C   0  0  0  0  0  3  0  0  0  0  0  0
  -25.8960  -32.5200   23.8700 C   0  0  0  0  0  3  0  0  0  0  0  0
  -26.4030  -31.7560   25.1540 C   0  0  1  0  0  0  0  0  0  0  0  0
  -25.3010  -31.5250   26.2140 C   0  0  0  0  0  1  0  0  0  0  0  0
  -26.9900  -30.3780   24.7730 C   0  0  0  0  0  1  0  0  0  0  0  0
  -27.5480  -32.5560   25.8220 C   0  0  0  0  0  1  0  0  0  0  0  0
  -25.5810  -33.9190   24.1910 N   0  0  0  0  0  0  0  0  0  0  0  0
  -25.9200  -34.9690   23.4290 C   0  0  0  0  0  0  0  0  0  0  0  0
  -26.5990  -34.8600   22.4050 O   0  0  0  0  0  0  0  0  0  0  0  0
  -24.9790  -34.0770   24.9850 H   0  0  0  0  0  0  0  0  0  0  0  0
  -24.1950  -36.7580   23.0500 C   0  0  0  0  0  1  0  0  0  0  0  0
  -25.4270  -36.3590   23.8760 C   0  0  0  0  0  3  0  0  0  0  0  0
  -27.5530  -37.2470   24.7280 C   0  0  0  0  0  1  0  0  0  0  0  0
  -26.4620  -37.4120   23.7720 N   0  0  0  0  0  0  0  0  0  0  0  0
  -26.0530  -38.3310   23.9130 H   0  0  0  0  0  0  0  0  0  0  0  0
  1  6  1  0
  2  1  1  0
  2  3  1  0
  5  3  1  0
  5  4  1  0
  5 52  1  0
  6 12  1  0
  6  4  1  0
  7  1  2  0
  9  8  1  0
 10 13  2  0
 10 12  1  0
 11 15  1  0
 11  8  2  0
 12  9  2  0
 13 11  1  0
 14 13  1  0
 16 15  1  0
 17 22  1  0
 18 19  1  0
 18 17  1  0
 20 19  1  0
 20 27  1  0
 20 21  1  0
 22 16  1  0
 22 21  1  0
 23 16  2  0
 24 25  2  0
 25 44  1  0
 26 25  1  0
 26 29  1  0
 27 24  1  0
 27 28  1  0
 28 26  2  0
 29 30  1  0
 30 31  2  0
 32 35  1  0
 32 31  1  0
 33 32  2  0
 34 33  1  0
 34 29  2  0
 35 36  1  0
 36 37  1  0
 37 38  2  0
 39 38  1  0
 39 43  1  0
 40 39  2  0
 41 36  2  0
 41 40  1  0
 42 41  1  0
 44 45  1  0
 45 48  1  0
 45 47  1  0
 46 44  2  0
 49 50  1  0
 49 24  1  0
 51 49  1  0
 53 52  1  0
 54 65  2  0
 55 53  1  0
 55 60  1  0
 56 64  1  0
 56 66  1  0
 57 63  1  0
 57 59  1  0
 58 64  1  0
 59 58  1  0
 60 59  2  0
 61 55  2  0
 62 61  1  0
 62 57  2  0
 63 56  1  0
 64 54  1  0
 66 68  2  0
 67 66  1  0
 69 67  1  0
 70 79  2  0
 70 75  1  0
 71 67  1  0
 71 75  1  0
 72 71  1  0
 73 74  1  0
 73 72  1  0
 74 70  1  0
 75 76  2  0
 76 77  1  0
 78 77  2  0
 79 78  1  0
 80 54  1  0
 80 85  1  0
 80 81  1  0
 81 84  1  1
 81 82  1  0
 83 81  1  0
 85 88  1  0
 86 90  1  0
 86 85  1  0
 87 86  2  0
 90 89  1  0
 92 90  1  0
 92 93  1  0
 92 91  1  0
M  ISO  4  15 100  16 100  52 101  53 101
M  END
>  <TORSDO>  (59) 
F 19

>  <SCORE>  (59) 
-14.426

>  <name>  (59) 
58

>  <ligand_id>  (59) 
58

>  <original_smiles>  (59) 
[H]c1c([H])c([H])c2c(c1[H])C([H])([H])C([H])([H])C([H])([H])C2([H])N([H])C(=O)C1([H])N(C(=O)C([H])(N([H])C(=O)C([H])(N([H])C([H])([H])[H])C([H])([H])[H])C(C([H])([H])[H])(C([H])([H])[H])C([H])([H])[H])C([H])([H])c2c([H])c(OC([H])([H])C3([H])C([H])([H])N(c4c([H])c([H])c(C([H])([H])C(=O)N5C([H])([H])C([H])([H])C([H])([H])C([H])(n6nc(-c7c([H])c([H])c(Oc8c([H])c([H])c(F)c([H])c8F)c([H])c7[H])c(C(=O)N([H])[H])c6N([H])[H])C5([H])[H])c(F)c4[H])C(=O)C([H])([H])C3([H])[H])c([H])c([H])c2C1([H])[H]

>  <smiles>  (59) 
[H]c1c([H])c([H])c2c(c1[H])C([H])([H])C([H])([H])C([H])([H])C2([H])N([H])C(=O)C1([H])N(C(=O)C([H])(N([H])C(=O)C([H])(N([H])C([H])([H])[H])C([H])([H])[H])C(C([H])([H])[H])(C([H])([H])[H])C([H])([H])[H])C([H])([H])c2c([H])c(OC([H])([H])C3([H])C([H])([H])N(c4c([H])c([H])c(C([H])([H])C(=O)N5C([H])([H])C([H])([H])C([H])([H])C([H])(n6nc(-c7c([H])c([H])c(Oc8c([H])c([H])c(F)c([H])c8F)c([H])c7[H])c(C(=O)N([H])[H])c6N([H])[H])C5([H])[H])c(F)c4[H])C(=O)C([H])([H])C3([H])[H])c([H])c([H])c2C1([H])[H]

$$$$
59:0:0
     RDKit          3D

 94102  0  0  1  0  0  0  0  0999 V2000
  -30.8620  -19.7530   20.2900 C   0  0  0  0  0  3  0  0  0  0  0  0
  -30.3030  -21.0620   20.2460 C   0  0  0  0  0  3  0  0  0  0  0  0
  -28.8830  -18.8510   19.2790 C   0  0  0  0  0  3  0  0  0  0  0  0
  -30.1780  -18.6130   19.7880 C   0  0  0  0  0  0  0  0  0  0  0  0
  -29.0130  -21.3090   19.7120 C   0  0  0  0  0  0  0  0  0  0  0  0
  -28.2940  -20.1500   19.2360 C   0  0  0  0  0  0  0  0  0  0  0  0
  -26.2130  -21.2880   18.6180 C   0  0  0  0  0  1  0  0  0  0  0  0
  -27.0440  -20.1380   18.6420 O   0  0  0  0  0  0  0  0  0  0  0  0
  -28.4580  -22.6290   19.6580 N   0  0  0  0  0  0  0  0  0  0  0  0
  -27.4770  -22.6570   19.4030 H   0  0  0  0  0  0  0  0  0  0  0  0
  -29.1360  -23.9580   19.5890 C   0  0  0  0  0  2  0  0  0  0  0  0
  -28.1700  -25.1530   19.9970 C   0  0  0  0  0  2  0  0  0  0  0  0
  -28.3990  -26.5480   19.5540 O   0  0  0  0  0  0  0  0  0  0  0  0
  -24.5830  -31.6360   22.9620 C   0  0  0  0  0  0  0  0  0  0  0  0
  -27.2740  -27.3820   19.5770 C   0  0  0  0  0  0  0  0  0  0  0  0
  -23.3970  -30.3220   21.2430 C   0  0  0  0  0  3  0  0  0  0  0  0
  -24.8690  -28.9150   19.7000 C   0  0  0  0  0  0  0  0  0  0  0  0
  -25.9260  -30.7220   21.0590 C   0  0  0  0  0  2  0  0  0  0  0  0
  -26.0320  -29.3950   20.3170 C   0  0  0  0  0  0  0  0  0  0  0  0
  -27.2390  -28.6390   20.2500 C   0  0  0  0  0  3  0  0  0  0  0  0
  -26.0960  -26.9700   18.9130 C   0  0  0  0  0  3  0  0  0  0  0  0
  -24.9020  -27.7050   18.9910 C   0  0  0  0  0  3  0  0  0  0  0  0
  -23.6100  -29.7480   19.8190 C   0  0  0  0  0  2  0  0  0  0  0  0
  -24.6550  -30.9070   21.8110 N   0  0  0  0  0  0  0  0  0  0  0  0
  -23.4990  -31.8480   23.5240 O   0  0  0  0  0  0  0  0  0  0  0  0
  -22.7740  -29.2230   22.1370 C   0  0  0  0  0  0  0  0  0  0  0  0
  -21.4470  -29.0430   22.0350 N   0  0  0  0  0  0  0  0  0  0  0  0
  -23.4840  -28.5410   22.8810 O   0  0  0  0  0  0  0  0  0  0  0  0
  -20.9350  -29.6510   21.4120 H   0  0  0  0  0  0  0  0  0  0  0  0
  -18.0840  -27.8380   22.6050 C   0  0  0  0  0  0  0  0  0  0  0  0
  -20.6580  -28.0390   22.7530 C   0  0  0  0  0  3  0  0  0  0  0  0
  -20.7030  -26.6730   22.0320 C   0  0  0  0  0  2  0  0  0  0  0  0
  -19.5400  -26.4670   21.0560 C   0  0  0  0  0  2  0  0  0  0  0  0
  -18.1970  -26.5640   21.7890 C   0  0  0  0  0  2  0  0  0  0  0  0
  -19.2380  -28.5400   23.0450 C   0  0  0  0  0  0  0  0  0  0  0  0
  -19.0760  -29.7390   23.7730 C   0  0  0  0  0  3  0  0  0  0  0  0
  -17.7920  -30.2340   24.0660 C   0  0  0  0  0  3  0  0  0  0  0  0
  -16.6530  -29.5270   23.6450 C   0  0  0  0  0  3  0  0  0  0  0  0
  -16.8000  -28.3320   22.9170 C   0  0  0  0  0  3  0  0  0  0  0  0
  -25.8570  -32.2580   23.6140 C   0  0  0  0  0  3  0  0  0  0  0  0
  -25.5200  -33.6270   24.0290 N   0  0  0  0  0  0  0  0  0  0  0  0
  -25.8070  -34.7280   23.3240 C   0  0  0  0  0  0  0  0  0  0  0  0
  -26.4560  -34.7000   22.2740 O   0  0  0  0  0  0  0  0  0  0  0  0
  -24.9410  -33.7210   24.8510 H   0  0  0  0  0  0  0  0  0  0  0  0
  -24.0140  -36.4800   23.1230 C   0  0  0  0  0  1  0  0  0  0  0  0
  -25.2960  -36.0760   23.8690 C   0  0  0  0  0  3  0  0  0  0  0  0
  -27.4260  -36.9860   24.6750 C   0  0  0  0  0  1  0  0  0  0  0  0
  -26.2910  -37.1650   23.7750 N   0  0  0  0  0  0  0  0  0  0  0  0
  -25.8630  -38.0630   23.9790 H   0  0  0  0  0  0  0  0  0  0  0  0
  -26.3970  -31.4240   24.8410 C   0  0  1  0  0  0  0  0  0  0  0  0
  -25.3170  -31.1060   25.9020 C   0  0  0  0  0  1  0  0  0  0  0  0
  -27.0040  -30.0840   24.3650 C   0  0  0  0  0  1  0  0  0  0  0  0
  -27.5390  -32.2000   25.5370 C   0  0  0  0  0  1  0  0  0  0  0  0
  -30.9310  -17.2440   19.6080 C   0  0  0  0  0  3  0  0  0  0  0  0
  -31.1120  -14.7820   20.1800 C   0  0  0  0  0  0  0  0  0  0  0  0
  -30.7720  -12.5580   19.1660 C   0  0  0  0  0  2  0  0  0  0  0  0
  -29.8320  -12.7100   17.9520 C   0  0  0  0  0  2  0  0  0  0  0  0
  -28.3600  -12.5940   18.3920 C   0  0  0  0  0  2  0  0  0  0  0  0
  -28.0300  -13.4690   19.6340 C   0  0  0  0  0  3  0  0  0  0  0  0
  -29.0990  -13.3300   20.7400 C   0  0  0  0  0  2  0  0  0  0  0  0
  -30.4050  -13.6120   20.1330 N   0  0  0  0  0  0  0  0  0  0  0  0
  -32.3080  -14.8010   19.8860 O   0  0  0  0  0  0  0  0  0  0  0  0
  -30.4170  -15.9660   20.2250 N   0  0  0  0  0  0  0  0  0  0  0  0
  -29.4370  -15.9230   20.4550 H   0  0  0  0  0  0  0  0  0  0  0  0
  -25.6550  -14.1020   20.3800 C   0  0  0  0  0  0  0  0  0  0  0  0
  -24.5780  -13.3460   20.7530 C   0  0  0  0  0  0  0  0  0  0  0  0
  -25.0160  -11.9860   20.7120 C   0  0  0  0  0  0  0  0  0  0  0  0
  -26.6820  -13.2050   20.1330 N   0  0  0  0  0  0  0  0  0  0  0  0
  -26.3030  -11.9260   20.3950 N   0  0  0  0  0  0  0  0  0  0  0  0
  -24.2670  -10.7360   20.8970 C   0  0  0  0  0  0  0  0  0  0  0  0
  -24.6610   -9.7720   21.8510 C   0  0  0  0  0  3  0  0  0  0  0  0
  -23.9130   -8.5880   22.0230 C   0  0  0  0  0  3  0  0  0  0  0  0
  -22.7560   -8.3580   21.2420 C   0  0  0  0  0  0  0  0  0  0  0  0
  -22.3810   -9.3100   20.2760 C   0  0  0  0  0  3  0  0  0  0  0  0
  -23.1310  -10.4860   20.1010 C   0  0  0  0  0  3  0  0  0  0  0  0
  -21.9810   -7.2270   21.3240 O   0  0  0  0  0  0  0  0  0  0  0  0
  -21.8550   -6.5230   22.4960 C   0  0  0  0  0  0  0  0  0  0  0  0
  -21.3620   -7.1220   23.6750 C   0  0  0  0  0  3  0  0  0  0  0  0
  -21.1840   -6.3460   24.8380 C   0  0  0  0  0  3  0  0  0  0  0  0
  -21.4890   -4.9720   24.8210 C   0  0  0  0  0  0  0  0  0  0  0  0
  -21.9750   -4.3730   23.6460 C   0  0  0  0  0  3  0  0  0  0  0  0
  -22.1550   -5.1460   22.4860 C   0  0  0  0  0  0  0  0  0  0  0  0
  -22.6040   -4.5590   21.3510 F   0  0  0  0  0  0  0  0  0  0  0  0
  -21.3100   -4.2240   25.9350 F   0  0  0  0  0  0  0  0  0  0  0  0
  -23.1910  -13.8460   21.0350 C   0  0  0  0  0  0  0  0  0  0  0  0
  -22.4580  -13.1660   21.9090 N   0  0  0  0  0  0  0  0  0  0  0  0
  -22.7660  -14.8760   20.5130 O   0  0  0  0  0  0  0  0  0  0  0  0
  -22.8170  -12.3350   22.3570 H   0  0  0  0  0  0  0  0  0  0  0  0
  -21.5250  -13.4820   22.1370 H   0  0  0  0  0  0  0  0  0  0  0  0
  -25.8430  -15.4700   20.2060 N   0  0  0  0  0  0  0  0  0  0  0  0
  -25.0870  -16.1370   20.3180 H   0  0  0  0  0  0  0  0  0  0  0  0
  -26.6880  -15.8900   19.8430 H   0  0  0  0  0  0  0  0  0  0  0  0
  -31.8650  -18.1130   17.3250 C   0  0  0  0  0  1  0  0  0  0  0  0
  -31.1440  -16.9880   18.0900 C   0  0  0  0  0  2  0  0  0  0  0  0
  2  1  1  0
  3  4  1  0
  4  1  2  0
  5  2  2  0
  6  3  2  0
  6  5  1  0
  7  8  1  0
  8  6  1  0
  9  5  1  0
 10  9  1  0
 11  9  1  0
 11 12  1  0
 13 15  1  0
 13 12  1  0
 14 25  2  0
 15 20  1  0
 16 24  1  0
 16 26  1  0
 17 23  1  0
 17 19  1  0
 18 24  1  0
 19 18  1  0
 20 19  2  0
 21 22  1  0
 21 15  2  0
 22 17  2  0
 23 16  1  0
 24 14  1  0
 26 28  2  0
 27 26  1  0
 29 27  1  0
 30 39  2  0
 30 35  1  0
 31 27  1  0
 31 35  1  0
 32 31  1  0
 33 34  1  0
 33 32  1  0
 34 30  1  0
 35 36  2  0
 36 37  1  0
 38 37  2  0
 39 38  1  0
 40 14  1  0
 40 41  1  0
 40 50  1  0
 41 44  1  0
 42 46  1  0
 42 41  1  0
 43 42  2  0
 46 45  1  0
 48 46  1  0
 48 49  1  0
 48 47  1  0
 50 53  1  1
 50 51  1  0
 52 50  1  0
 54 94  1  0
 54  4  1  0
 54 63  1  0
 55 63  1  0
 56 61  1  0
 57 58  1  0
 57 56  1  0
 59 58  1  0
 59 68  1  0
 59 60  1  0
 61 55  1  0
 61 60  1  0
 62 55  2  0
 63 64  1  0
 65 66  2  0
 66 85  1  0
 67 66  1  0
 67 70  1  0
 68 65  1  0
 68 69  1  0
 69 67  2  0
 70 71  1  0
 71 72  2  0
 73 76  1  0
 73 72  1  0
 74 73  2  0
 75 74  1  0
 75 70  2  0
 76 77  1  0
 77 78  1  0
 78 79  2  0
 80 79  1  0
 80 84  1  0
 81 80  2  0
 82 77  2  0
 82 81  1  0
 83 82  1  0
 85 86  1  0
 86 89  1  0
 86 88  1  0
 87 85  2  0
 90 91  1  0
 90 65  1  0
 92 90  1  0
 93 94  1  0
M  ISO  4  12 101  13 101  55 100  63 100
M  END
>  <TORSDO>  (60) 
F 22

>  <SCORE>  (60) 
-12.484

>  <name>  (60) 
59

>  <ligand_id>  (60) 
59

>  <original_smiles>  (60) 
[H]c1c([H])c([H])c2c(c1[H])C([H])([H])C([H])([H])C([H])([H])C2([H])N([H])C(=O)C1([H])N(C(=O)C([H])(N([H])C(=O)C([H])(N([H])C([H])([H])[H])C([H])([H])[H])C(C([H])([H])[H])(C([H])([H])[H])C([H])([H])[H])C([H])([H])c2c([H])c(OC([H])([H])C([H])([H])N([H])c3c([H])c([H])c(C([H])(N([H])C(=O)N4C([H])([H])C([H])([H])C([H])([H])C([H])(n5nc(-c6c([H])c([H])c(Oc7c([H])c([H])c(F)c([H])c7F)c([H])c6[H])c(C(=O)N([H])[H])c5N([H])[H])C4([H])[H])C([H])([H])C([H])([H])[H])c([H])c3OC([H])([H])[H])c([H])c([H])c2C1([H])[H]

>  <smiles>  (60) 
[H]c1c([H])c([H])c2c(c1[H])C([H])([H])C([H])([H])C([H])([H])C2([H])N([H])C(=O)C1([H])N(C(=O)C([H])(N([H])C(=O)C([H])(N([H])C([H])([H])[H])C([H])([H])[H])C(C([H])([H])[H])(C([H])([H])[H])C([H])([H])[H])C([H])([H])c2c([H])c(OC([H])([H])C([H])([H])N([H])c3c([H])c([H])c(C([H])(N([H])C(=O)N4C([H])([H])C([H])([H])C([H])([H])C([H])(n5nc(-c6c([H])c([H])c(Oc7c([H])c([H])c(F)c([H])c7F)c([H])c6[H])c(C(=O)N([H])[H])c5N([H])[H])C4([H])[H])C([H])([H])C([H])([H])[H])c([H])c3OC([H])([H])[H])c([H])c([H])c2C1([H])[H]

$$$$
60:0:0
     RDKit          3D

 94102  0  0  1  0  0  0  0  0999 V2000
  -31.0640  -19.1650   19.9810 C   0  0  0  0  0  3  0  0  0  0  0  0
  -30.5040  -20.4140   19.6510 C   0  0  0  0  0  3  0  0  0  0  0  0
  -28.8580  -18.1620   20.0520 C   0  0  0  0  0  3  0  0  0  0  0  0
  -30.2580  -18.0250   20.1940 C   0  0  0  0  0  0  0  0  0  0  0  0
  -28.2930  -19.4240   19.7320 C   0  0  0  0  0  0  0  0  0  0  0  0
  -29.1020  -20.5750   19.5330 C   0  0  0  0  0  0  0  0  0  0  0  0
  -30.9570  -14.3990   20.2250 C   0  0  0  0  0  0  0  0  0  0  0  0
  -30.5740  -12.1300   19.3360 C   0  0  0  0  0  2  0  0  0  0  0  0
  -29.6530  -12.1920   18.1030 C   0  0  0  0  0  2  0  0  0  0  0  0
  -28.1780  -12.1210   18.5400 C   0  0  0  0  0  2  0  0  0  0  0  0
  -27.8380  -13.1140   19.6840 C   0  0  0  0  0  3  0  0  0  0  0  0
  -28.8890  -13.0640   20.8160 C   0  0  0  0  0  2  0  0  0  0  0  0
  -30.2080  -13.2600   20.2050 N   0  0  0  0  0  0  0  0  0  0  0  0
  -32.1230  -14.3910   19.8200 O   0  0  0  0  0  0  0  0  0  0  0  0
  -30.9320  -16.7530   20.6570 C   0  0  0  0  0  0  0  0  0  0  0  0
  -30.3110  -15.5630   20.4810 N   0  0  0  0  0  0  0  0  0  0  0  0
  -32.0740  -16.8600   21.1200 O   0  0  0  0  0  0  0  0  0  0  0  0
  -29.3100  -15.5640   20.4000 H   0  0  0  0  0  0  0  0  0  0  0  0
  -25.4910  -13.8350   20.4430 C   0  0  0  0  0  0  0  0  0  0  0  0
  -24.3910  -13.1170   20.8240 C   0  0  0  0  0  0  0  0  0  0  0  0
  -24.7810  -11.7430   20.7810 C   0  0  0  0  0  0  0  0  0  0  0  0
  -26.4840  -12.9030   20.1900 N   0  0  0  0  0  0  0  0  0  0  0  0
  -26.0630  -11.6400   20.4540 N   0  0  0  0  0  0  0  0  0  0  0  0
  -23.9920  -10.5190   20.9740 C   0  0  0  0  0  0  0  0  0  0  0  0
  -24.3990   -9.5130   21.8790 C   0  0  0  0  0  3  0  0  0  0  0  0
  -23.6150   -8.3550   22.0620 C   0  0  0  0  0  3  0  0  0  0  0  0
  -22.4080   -8.1930   21.3410 C   0  0  0  0  0  0  0  0  0  0  0  0
  -22.0190   -9.1860   20.4240 C   0  0  0  0  0  3  0  0  0  0  0  0
  -22.8050  -10.3370   20.2390 C   0  0  0  0  0  3  0  0  0  0  0  0
  -21.5950   -7.0900   21.4340 O   0  0  0  0  0  0  0  0  0  0  0  0
  -21.5690   -6.3090   22.5620 C   0  0  0  0  0  0  0  0  0  0  0  0
  -21.2250   -6.8360   23.8260 C   0  0  0  0  0  3  0  0  0  0  0  0
  -21.1440   -5.9840   24.9460 C   0  0  0  0  0  3  0  0  0  0  0  0
  -21.3950   -4.6060   24.8030 C   0  0  0  0  0  0  0  0  0  0  0  0
  -21.7310   -4.0790   23.5440 C   0  0  0  0  0  3  0  0  0  0  0  0
  -21.8150   -4.9280   22.4260 C   0  0  0  0  0  0  0  0  0  0  0  0
  -22.1180   -4.4100   21.2110 F   0  0  0  0  0  0  0  0  0  0  0  0
  -21.3090   -3.7860   25.8760 F   0  0  0  0  0  0  0  0  0  0  0  0
  -23.0240  -13.6640   21.1160 C   0  0  0  0  0  0  0  0  0  0  0  0
  -22.2750  -13.0060   21.9950 N   0  0  0  0  0  0  0  0  0  0  0  0
  -22.6300  -14.7100   20.6010 O   0  0  0  0  0  0  0  0  0  0  0  0
  -22.6070  -12.1600   22.4340 H   0  0  0  0  0  0  0  0  0  0  0  0
  -21.3580  -13.3560   22.2340 H   0  0  0  0  0  0  0  0  0  0  0  0
  -25.7230  -15.1960   20.2650 N   0  0  0  0  0  0  0  0  0  0  0  0
  -24.9870  -15.8820   20.3830 H   0  0  0  0  0  0  0  0  0  0  0  0
  -26.5740  -15.5910   19.8860 H   0  0  0  0  0  0  0  0  0  0  0  0
  -26.9110  -19.5480   19.6210 N   0  0  0  0  0  0  0  0  0  0  0  0
  -26.3660  -18.7200   19.4040 H   0  0  0  0  0  0  0  0  0  0  0  0
  -26.5780  -20.3820   19.1450 H   0  0  0  0  0  0  0  0  0  0  0  0
  -28.4920  -21.7960   19.2430 O   0  0  0  0  0  0  0  0  0  0  0  0
  -29.3440  -22.9180   18.9560 C   0  0  0  0  0  2  0  0  0  0  0  0
  -28.6240  -24.2700   18.7070 C   0  0  0  0  0  2  0  0  0  0  0  0
  -28.3000  -25.1150   19.9620 C   0  0  0  0  0  2  0  0  0  0  0  0
  -28.3890  -26.5370   19.7300 O   0  0  0  0  0  0  0  0  0  0  0  0
  -24.5310  -31.5150   23.0500 C   0  0  0  0  0  0  0  0  0  0  0  0
  -27.2160  -27.2590   19.7540 C   0  0  0  0  0  0  0  0  0  0  0  0
  -23.3470  -30.2070   21.3180 C   0  0  0  0  0  3  0  0  0  0  0  0
  -24.8190  -28.7580   19.8220 C   0  0  0  0  0  0  0  0  0  0  0  0
  -25.8720  -30.5870   21.1630 C   0  0  0  0  0  2  0  0  0  0  0  0
  -25.9700  -29.2560   20.4440 C   0  0  0  0  0  0  0  0  0  0  0  0
  -27.1750  -28.5170   20.4000 C   0  0  0  0  0  3  0  0  0  0  0  0
  -26.0470  -26.7750   19.1290 C   0  0  0  0  0  3  0  0  0  0  0  0
  -24.8530  -27.5190   19.1590 C   0  0  0  0  0  3  0  0  0  0  0  0
  -23.5710  -29.6100   19.9020 C   0  0  0  0  0  2  0  0  0  0  0  0
  -24.6010  -30.7810   21.9040 N   0  0  0  0  0  0  0  0  0  0  0  0
  -23.4440  -31.7510   23.5950 O   0  0  0  0  0  0  0  0  0  0  0  0
  -22.6920  -29.1300   22.2100 C   0  0  0  0  0  0  0  0  0  0  0  0
  -21.3610  -28.9840   22.0960 N   0  0  0  0  0  0  0  0  0  0  0  0
  -23.3760  -28.4290   22.9620 O   0  0  0  0  0  0  0  0  0  0  0  0
  -20.8710  -29.6030   21.4650 H   0  0  0  0  0  0  0  0  0  0  0  0
  -17.9640  -27.8710   22.6190 C   0  0  0  0  0  0  0  0  0  0  0  0
  -20.5380  -28.0070   22.8080 C   0  0  0  0  0  3  0  0  0  0  0  0
  -20.5610  -26.6340   22.0950 C   0  0  0  0  0  2  0  0  0  0  0  0
  -19.4090  -26.4510   21.1020 C   0  0  0  0  0  2  0  0  0  0  0  0
  -18.0600  -26.5850   21.8140 C   0  0  0  0  0  2  0  0  0  0  0  0
  -19.1280  -28.5460   23.0720 C   0  0  0  0  0  0  0  0  0  0  0  0
  -18.9840  -29.7560   23.7860 C   0  0  0  0  0  3  0  0  0  0  0  0
  -17.7090  -30.2880   24.0510 C   0  0  0  0  0  3  0  0  0  0  0  0
  -16.5590  -29.6070   23.6150 C   0  0  0  0  0  3  0  0  0  0  0  0
  -16.6870  -28.4000   22.9040 C   0  0  0  0  0  3  0  0  0  0  0  0
  -25.8090  -32.1140   23.7180 C   0  0  0  0  0  3  0  0  0  0  0  0
  -25.5080  -33.5060   24.0770 N   0  0  0  0  0  0  0  0  0  0  0  0
  -25.8790  -34.5730   23.3580 C   0  0  0  0  0  0  0  0  0  0  0  0
  -26.5820  -34.4890   22.3480 O   0  0  0  0  0  0  0  0  0  0  0  0
  -24.8900  -33.6470   24.8630 H   0  0  0  0  0  0  0  0  0  0  0  0
  -24.1800  -36.3940   23.0040 C   0  0  0  0  0  1  0  0  0  0  0  0
  -25.3950  -35.9560   23.8370 C   0  0  0  0  0  3  0  0  0  0  0  0
  -27.5120  -36.8000   24.7510 C   0  0  0  0  0  1  0  0  0  0  0  0
  -26.4410  -37.0000   23.7780 N   0  0  0  0  0  0  0  0  0  0  0  0
  -26.0390  -37.9200   23.9340 H   0  0  0  0  0  0  0  0  0  0  0  0
  -26.2880  -31.3020   24.9840 C   0  0  1  0  0  0  0  0  0  0  0  0
  -25.1710  -31.0580   26.0260 C   0  0  0  0  0  1  0  0  0  0  0  0
  -26.8540  -29.9250   24.5660 C   0  0  0  0  0  1  0  0  0  0  0  0
  -27.4380  -32.0590   25.6880 C   0  0  0  0  0  1  0  0  0  0  0  0
  1  4  1  0
  2  1  2  0
  3  4  2  0
  4 15  1  0
  5  3  1  0
  6  2  1  0
  6  5  2  0
  7 16  1  0
  8 13  1  0
  9 10  1  0
  9  8  1  0
 11 10  1  0
 11 22  1  0
 11 12  1  0
 13  7  1  0
 13 12  1  0
 14  7  2  0
 15 17  2  0
 16 15  1  0
 18 16  1  0
 19 20  2  0
 20 39  1  0
 21 20  1  0
 21 24  1  0
 22 19  1  0
 22 23  1  0
 23 21  2  0
 24 25  1  0
 25 26  2  0
 27 30  1  0
 27 26  1  0
 28 27  2  0
 29 28  1  0
 29 24  2  0
 30 31  1  0
 31 32  1  0
 32 33  2  0
 34 33  1  0
 34 38  1  0
 35 34  2  0
 36 31  2  0
 36 35  1  0
 37 36  1  0
 39 40  1  0
 40 43  1  0
 40 42  1  0
 41 39  2  0
 44 45  1  0
 44 19  1  0
 46 44  1  0
 47  5  1  0
 48 47  1  0
 49 47  1  0
 50  6  1  0
 51 50  1  0
 52 51  1  0
 52 53  1  0
 54 56  1  0
 54 53  1  0
 55 66  2  0
 56 61  1  0
 57 65  1  0
 57 67  1  0
 58 64  1  0
 58 60  1  0
 59 65  1  0
 60 59  1  0
 61 60  2  0
 62 63  1  0
 62 56  2  0
 63 58  2  0
 64 57  1  0
 65 55  1  0
 67 69  2  0
 68 67  1  0
 70 68  1  0
 71 80  2  0
 71 76  1  0
 72 68  1  0
 72 76  1  0
 73 72  1  0
 74 75  1  0
 74 73  1  0
 75 71  1  0
 76 77  2  0
 77 78  1  0
 79 78  2  0
 80 79  1  0
 81 55  1  0
 81 82  1  0
 81 91  1  0
 82 85  1  0
 83 87  1  0
 83 82  1  0
 84 83  2  0
 87 86  1  0
 89 87  1  0
 89 90  1  0
 89 88  1  0
 91 94  1  1
 91 92  1  0
 93 91  1  0
M  ISO  4   7 100  16 100  53 101  54 101
M  END
>  <TORSDO>  (61) 
F 21

>  <SCORE>  (61) 
-13.234

>  <name>  (61) 
60

>  <ligand_id>  (61) 
60

>  <original_smiles>  (61) 
[H]c1c([H])c([H])c2c(c1[H])C([H])([H])C([H])([H])C([H])([H])C2([H])N([H])C(=O)C1([H])N(C(=O)C([H])(N([H])C(=O)C([H])(N([H])C([H])([H])[H])C([H])([H])[H])C(C([H])([H])[H])(C([H])([H])[H])C([H])([H])[H])C([H])([H])c2c([H])c(OC([H])([H])C([H])([H])C([H])([H])Oc3c([H])c([H])c(C(=O)N([H])C(=O)N4C([H])([H])C([H])([H])C([H])([H])C([H])(n5nc(-c6c([H])c([H])c(Oc7c([H])c([H])c(F)c([H])c7F)c([H])c6[H])c(C(=O)N([H])[H])c5N([H])[H])C4([H])[H])c([H])c3N([H])[H])c([H])c([H])c2C1([H])[H]

>  <smiles>  (61) 
[H]c1c([H])c([H])c2c(c1[H])C([H])([H])C([H])([H])C([H])([H])C2([H])N([H])C(=O)C1([H])N(C(=O)C([H])(N([H])C(=O)C([H])(N([H])C([H])([H])[H])C([H])([H])[H])C(C([H])([H])[H])(C([H])([H])[H])C([H])([H])[H])C([H])([H])c2c([H])c(OC([H])([H])C([H])([H])C([H])([H])Oc3c([H])c([H])c(C(=O)N([H])C(=O)N4C([H])([H])C([H])([H])C([H])([H])C([H])(n5nc(-c6c([H])c([H])c(Oc7c([H])c([H])c(F)c([H])c7F)c([H])c6[H])c(C(=O)N([H])[H])c5N([H])[H])C4([H])[H])c([H])c3N([H])[H])c([H])c([H])c2C1([H])[H]

$$$$
61:0:0
     RDKit          3D

 91100  0  0  1  0  0  0  0  0999 V2000
  -29.5880  -20.9940   18.5230 C   0  0  0  0  0  0  0  0  0  0  0  0
  -29.3120  -22.3320   17.8160 C   0  0  0  0  0  2  0  0  0  0  0  0
  -29.4070  -23.5840   18.7070 C   0  0  0  0  0  2  0  0  0  0  0  0
  -28.7470  -22.0300   20.6210 C   0  0  0  0  0  2  0  0  0  0  0  0
  -28.4220  -23.4740   19.8700 C   0  0  0  0  0  3  0  0  0  0  0  0
  -29.1790  -20.7760   19.8080 N   0  0  0  0  0  0  0  0  0  0  0  0
  -30.1660  -20.1300   17.8520 O   0  0  0  0  0  0  0  0  0  0  0  0
  -28.8230  -16.8720   19.9360 C   0  0  0  0  0  3  0  0  0  0  0  0
  -30.8030  -17.4350   21.1010 C   0  0  0  0  0  3  0  0  0  0  0  0
  -28.5010  -18.2820   19.8280 C   0  0  0  0  0  3  0  0  0  0  0  0
  -30.4900  -18.8470   20.9910 C   0  0  0  0  0  3  0  0  0  0  0  0
  -30.0120  -16.3630   20.5460 C   0  0  0  0  0  0  0  0  0  0  0  0
  -29.3430  -19.3450   20.2950 C   0  0  0  0  0  0  0  0  0  0  0  0
  -30.6070  -14.8870   20.3750 C   0  0  0  0  0  0  0  0  0  0  0  0
  -30.3800  -12.5560   19.4460 C   0  0  0  0  0  2  0  0  0  0  0  0
  -29.4760  -12.5320   18.1950 C   0  0  0  0  0  2  0  0  0  0  0  0
  -28.0100  -12.3220   18.6150 C   0  0  0  0  0  2  0  0  0  0  0  0
  -27.5870  -13.2680   19.7690 C   0  0  0  0  0  3  0  0  0  0  0  0
  -28.6270  -13.3400   20.9050 C   0  0  0  0  0  2  0  0  0  0  0  0
  -29.9220  -13.6790   20.3120 N   0  0  0  0  0  0  0  0  0  0  0  0
  -31.8150  -14.8480   20.1310 O   0  0  0  0  0  0  0  0  0  0  0  0
  -25.2080  -13.8590   20.5050 C   0  0  0  0  0  0  0  0  0  0  0  0
  -24.1440  -13.0920   20.8830 C   0  0  0  0  0  0  0  0  0  0  0  0
  -24.6070  -11.7400   20.8630 C   0  0  0  0  0  0  0  0  0  0  0  0
  -26.2500  -12.9780   20.2740 N   0  0  0  0  0  0  0  0  0  0  0  0
  -25.8990  -11.6990   20.5580 N   0  0  0  0  0  0  0  0  0  0  0  0
  -23.8780  -10.4830   21.0590 C   0  0  0  0  0  0  0  0  0  0  0  0
  -24.3130   -9.5130   21.9890 C   0  0  0  0  0  3  0  0  0  0  0  0
  -23.5860   -8.3180   22.1680 C   0  0  0  0  0  3  0  0  0  0  0  0
  -22.4090   -8.0850   21.4180 C   0  0  0  0  0  0  0  0  0  0  0  0
  -21.9960   -9.0410   20.4730 C   0  0  0  0  0  3  0  0  0  0  0  0
  -22.7240  -10.2270   20.2920 C   0  0  0  0  0  3  0  0  0  0  0  0
  -21.6520   -6.9420   21.5080 O   0  0  0  0  0  0  0  0  0  0  0  0
  -21.6130   -6.1940   22.6570 C   0  0  0  0  0  0  0  0  0  0  0  0
  -21.2090   -6.7450   23.8930 C   0  0  0  0  0  3  0  0  0  0  0  0
  -21.1170   -5.9230   25.0330 C   0  0  0  0  0  3  0  0  0  0  0  0
  -21.4180   -4.5510   24.9410 C   0  0  0  0  0  0  0  0  0  0  0  0
  -21.8150   -3.9990   23.7110 C   0  0  0  0  0  3  0  0  0  0  0  0
  -21.9080   -4.8180   22.5710 C   0  0  0  0  0  0  0  0  0  0  0  0
  -22.2720   -4.2750   21.3840 F   0  0  0  0  0  0  0  0  0  0  0  0
  -21.3200   -3.7610   26.0360 F   0  0  0  0  0  0  0  0  0  0  0  0
  -22.7440  -13.5740   21.1420 C   0  0  0  0  0  0  0  0  0  0  0  0
  -22.0070  -12.8880   22.0070 N   0  0  0  0  0  0  0  0  0  0  0  0
  -22.3130  -14.5980   20.6080 O   0  0  0  0  0  0  0  0  0  0  0  0
  -22.3680  -12.0640   22.4650 H   0  0  0  0  0  0  0  0  0  0  0  0
  -21.0670  -13.1940   22.2160 H   0  0  0  0  0  0  0  0  0  0  0  0
  -25.3630  -15.2270   20.3050 N   0  0  0  0  0  0  0  0  0  0  0  0
  -24.5610  -15.8460   20.3520 H   0  0  0  0  0  0  0  0  0  0  0  0
  -26.1640  -15.6550   19.8640 H   0  0  0  0  0  0  0  0  0  0  0  0
  -28.2530  -24.8980   20.7000 C   0  0  0  0  0  2  0  0  0  0  0  0
  -28.3360  -26.3220   20.1570 O   0  0  0  0  0  0  0  0  0  0  0  0
  -24.6420  -31.8610   23.2370 C   0  0  0  0  0  0  0  0  0  0  0  0
  -27.2320  -27.2170   20.1950 C   0  0  0  0  0  0  0  0  0  0  0  0
  -23.4350  -30.4580   21.6040 C   0  0  0  0  0  3  0  0  0  0  0  0
  -24.8810  -28.8870   20.1790 C   0  0  0  0  0  0  0  0  0  0  0  0
  -25.9790  -30.7550   21.4160 C   0  0  0  0  0  2  0  0  0  0  0  0
  -26.0570  -29.3650   20.7710 C   0  0  0  0  0  0  0  0  0  0  0  0
  -27.2410  -28.5480   20.7540 C   0  0  0  0  0  3  0  0  0  0  0  0
  -26.0270  -26.8080   19.5920 C   0  0  0  0  0  3  0  0  0  0  0  0
  -24.8730  -27.6210   19.5730 C   0  0  0  0  0  3  0  0  0  0  0  0
  -23.6480  -29.7740   20.2280 C   0  0  0  0  0  2  0  0  0  0  0  0
  -24.7050  -31.0450   22.1420 N   0  0  0  0  0  0  0  0  0  0  0  0
  -23.5580  -32.1410   23.7730 O   0  0  0  0  0  0  0  0  0  0  0  0
  -22.7700  -29.4490   22.5730 C   0  0  0  0  0  0  0  0  0  0  0  0
  -21.4430  -29.2740   22.4520 N   0  0  0  0  0  0  0  0  0  0  0  0
  -23.4490  -28.8250   23.3930 O   0  0  0  0  0  0  0  0  0  0  0  0
  -20.9520  -29.8240   21.7620 H   0  0  0  0  0  0  0  0  0  0  0  0
  -18.0680  -28.0720   22.9690 C   0  0  0  0  0  0  0  0  0  0  0  0
  -20.6290  -28.3370   23.2300 C   0  0  0  0  0  3  0  0  0  0  0  0
  -20.7320  -26.9040   22.6580 C   0  0  0  0  0  2  0  0  0  0  0  0
  -19.6270  -26.5770   21.6480 C   0  0  0  0  0  2  0  0  0  0  0  0
  -18.2470  -26.7210   22.2950 C   0  0  0  0  0  2  0  0  0  0  0  0
  -19.1870  -28.8360   23.3940 C   0  0  0  0  0  0  0  0  0  0  0  0
  -18.9660  -30.1000   23.9840 C   0  0  0  0  0  3  0  0  0  0  0  0
  -17.6600  -30.5990   24.1510 C   0  0  0  0  0  3  0  0  0  0  0  0
  -16.5560  -29.8280   23.7430 C   0  0  0  0  0  3  0  0  0  0  0  0
  -16.7610  -28.5670   23.1580 C   0  0  0  0  0  3  0  0  0  0  0  0
  -25.9210  -32.5010   23.8560 C   0  0  0  0  0  3  0  0  0  0  0  0
  -25.6080  -33.8970   24.1940 N   0  0  0  0  0  0  0  0  0  0  0  0
  -25.9260  -34.9540   23.4360 C   0  0  0  0  0  0  0  0  0  0  0  0
  -26.5870  -34.8560   22.3990 O   0  0  0  0  0  0  0  0  0  0  0  0
  -25.0190  -34.0430   25.0010 H   0  0  0  0  0  0  0  0  0  0  0  0
  -24.1860  -36.7410   23.1050 C   0  0  0  0  0  1  0  0  0  0  0  0
  -25.4390  -36.3410   23.9030 C   0  0  0  0  0  3  0  0  0  0  0  0
  -27.5820  -37.2310   24.7070 C   0  0  0  0  0  1  0  0  0  0  0  0
  -26.4650  -37.4000   23.7800 N   0  0  0  0  0  0  0  0  0  0  0  0
  -26.0590  -38.3200   23.9350 H   0  0  0  0  0  0  0  0  0  0  0  0
  -26.4410  -31.7310   25.1320 C   0  0  1  0  0  0  0  0  0  0  0  0
  -25.3520  -31.4950   26.2030 C   0  0  0  0  0  1  0  0  0  0  0  0
  -27.0250  -30.3530   24.7420 C   0  0  0  0  0  1  0  0  0  0  0  0
  -27.5940  -32.5270   25.7900 C   0  0  0  0  0  1  0  0  0  0  0  0
  1  6  1  0
  2  1  1  0
  2  3  1  0
  3  5  1  0
  5  4  1  0
  5 50  1  0
  6 13  1  0
  6  4  1  0
  7  1  2  0
  8 12  1  0
 10  8  2  0
 10 13  1  0
 11  9  1  0
 12  9  2  0
 13 11  2  0
 14 12  1  0
 15 20  1  0
 16 17  1  0
 16 15  1  0
 18 17  1  0
 18 25  1  0
 18 19  1  0
 20 14  1  0
 20 19  1  0
 21 14  2  0
 22 23  2  0
 23 42  1  0
 24 23  1  0
 24 27  1  0
 25 22  1  0
 25 26  1  0
 26 24  2  0
 27 28  1  0
 28 29  2  0
 30 33  1  0
 30 29  1  0
 31 30  2  0
 32 31  1  0
 32 27  2  0
 33 34  1  0
 34 35  1  0
 35 36  2  0
 37 36  1  0
 37 41  1  0
 38 37  2  0
 39 34  2  0
 39 38  1  0
 40 39  1  0
 42 43  1  0
 43 46  1  0
 43 45  1  0
 44 42  2  0
 47 48  1  0
 47 22  1  0
 49 47  1  0
 51 53  1  0
 51 50  1  0
 52 63  2  0
 53 58  1  0
 54 62  1  0
 54 64  1  0
 55 61  1  0
 55 57  1  0
 56 62  1  0
 57 56  1  0
 58 57  2  0
 59 53  2  0
 60 59  1  0
 60 55  2  0
 61 54  1  0
 62 52  1  0
 64 66  2  0
 65 64  1  0
 67 65  1  0
 68 77  2  0
 68 73  1  0
 69 65  1  0
 69 73  1  0
 70 69  1  0
 71 72  1  0
 71 70  1  0
 72 68  1  0
 73 74  2  0
 74 75  1  0
 76 75  2  0
 77 76  1  0
 78 52  1  0
 78 79  1  0
 78 88  1  0
 79 82  1  0
 80 84  1  0
 80 79  1  0
 81 80  2  0
 84 83  1  0
 86 84  1  0
 86 87  1  0
 86 85  1  0
 88 91  1  1
 88 89  1  0
 90 88  1  0
M  ISO  4  12 100  14 100  50 101  51 101
M  END
>  <TORSDO>  (62) 
F 18

>  <SCORE>  (62) 
-14.832

>  <name>  (62) 
61

>  <ligand_id>  (62) 
61

>  <original_smiles>  (62) 
[H]c1c([H])c([H])c2c(c1[H])C([H])([H])C([H])([H])C([H])([H])C2([H])N([H])C(=O)C1([H])N(C(=O)C([H])(N([H])C(=O)C([H])(N([H])C([H])([H])[H])C([H])([H])[H])C(C([H])([H])[H])(C([H])([H])[H])C([H])([H])[H])C([H])([H])c2c([H])c(OC([H])([H])C3([H])C([H])([H])N(c4c([H])c([H])c(C(=O)N5C([H])([H])C([H])([H])C([H])([H])C([H])(n6nc(-c7c([H])c([H])c(Oc8c([H])c([H])c(F)c([H])c8F)c([H])c7[H])c(C(=O)N([H])[H])c6N([H])[H])C5([H])[H])c([H])c4[H])C(=O)C([H])([H])C3([H])[H])c([H])c([H])c2C1([H])[H]

>  <smiles>  (62) 
[H]c1c([H])c([H])c2c(c1[H])C([H])([H])C([H])([H])C([H])([H])C2([H])N([H])C(=O)C1([H])N(C(=O)C([H])(N([H])C(=O)C([H])(N([H])C([H])([H])[H])C([H])([H])[H])C(C([H])([H])[H])(C([H])([H])[H])C([H])([H])[H])C([H])([H])c2c([H])c(OC([H])([H])C3([H])C([H])([H])N(c4c([H])c([H])c(C(=O)N5C([H])([H])C([H])([H])C([H])([H])C([H])(n6nc(-c7c([H])c([H])c(Oc8c([H])c([H])c(F)c([H])c8F)c([H])c7[H])c(C(=O)N([H])[H])c6N([H])[H])C5([H])[H])c([H])c4[H])C(=O)C([H])([H])C3([H])[H])c([H])c([H])c2C1([H])[H]

$$$$
62:0:0
     RDKit          3D

 93102  0  0  1  0  0  0  0  0999 V2000
  -29.8220  -22.4180   23.0660 C   0  0  0  0  0  0  0  0  0  0  0  0
  -29.7070  -23.9140   23.3720 C   0  0  0  0  0  2  0  0  0  0  0  0
  -28.8040  -24.6630   22.3980 C   0  0  0  0  0  2  0  0  0  0  0  0
  -29.2560  -22.8640   20.6900 C   0  0  0  0  0  2  0  0  0  0  0  0
  -29.2530  -24.4170   20.9610 C   0  0  0  0  0  3  0  0  0  0  0  0
  -29.8020  -21.9800   21.7710 N   0  0  0  0  0  0  0  0  0  0  0  0
  -29.9440  -21.6680   24.0400 O   0  0  0  0  0  0  0  0  0  0  0  0
  -31.0810  -18.4880   21.6500 C   0  0  0  0  0  3  0  0  0  0  0  0
  -31.0480  -19.8470   22.0980 C   0  0  0  0  0  3  0  0  0  0  0  0
  -30.1880  -18.2230   20.6470 C   0  0  0  0  0  0  0  0  0  0  0  0
  -30.1050  -20.6560   21.4880 C   0  0  0  0  0  0  0  0  0  0  0  0
  -29.2870  -19.6900   20.2600 S   0  0  0  0  0  0  0  0  0  0  0  0
  -30.0010  -16.9390   19.8600 C   0  0  0  0  0  2  0  0  0  0  0  0
  -30.7210  -14.5880   20.3350 C   0  0  0  0  0  0  0  0  0  0  0  0
  -30.4360  -12.3910   19.2600 C   0  0  0  0  0  2  0  0  0  0  0  0
  -29.4950  -12.5910   18.0510 C   0  0  0  0  0  2  0  0  0  0  0  0
  -28.0210  -12.4580   18.4810 C   0  0  0  0  0  2  0  0  0  0  0  0
  -27.6860  -13.2960   19.7440 C   0  0  0  0  0  3  0  0  0  0  0  0
  -28.7470  -13.0990   20.8530 C   0  0  0  0  0  2  0  0  0  0  0  0
  -30.0700  -13.3910   20.2770 N   0  0  0  0  0  0  0  0  0  0  0  0
  -31.8690  -14.7390   19.9090 O   0  0  0  0  0  0  0  0  0  0  0  0
  -29.9420  -15.6590   20.6070 N   0  0  0  0  0  0  0  0  0  0  0  0
  -29.0410  -15.4360   21.0020 H   0  0  0  0  0  0  0  0  0  0  0  0
  -25.2880  -13.9010   20.4520 C   0  0  0  0  0  0  0  0  0  0  0  0
  -24.2240  -13.1270   20.8320 C   0  0  0  0  0  0  0  0  0  0  0  0
  -24.6900  -11.7780   20.8130 C   0  0  0  0  0  0  0  0  0  0  0  0
  -26.3350  -13.0200   20.2290 N   0  0  0  0  0  0  0  0  0  0  0  0
  -25.9790  -11.7400   20.5040 N   0  0  0  0  0  0  0  0  0  0  0  0
  -23.9670  -10.5150   21.0180 C   0  0  0  0  0  0  0  0  0  0  0  0
  -24.4090   -9.5560   21.9560 C   0  0  0  0  0  3  0  0  0  0  0  0
  -23.6880   -8.3570   22.1470 C   0  0  0  0  0  3  0  0  0  0  0  0
  -22.5110   -8.1090   21.4010 C   0  0  0  0  0  0  0  0  0  0  0  0
  -22.0900   -9.0570   20.4520 C   0  0  0  0  0  3  0  0  0  0  0  0
  -22.8110  -10.2480   20.2590 C   0  0  0  0  0  3  0  0  0  0  0  0
  -21.7610   -6.9630   21.5020 O   0  0  0  0  0  0  0  0  0  0  0  0
  -21.7260   -6.2250   22.6580 C   0  0  0  0  0  0  0  0  0  0  0  0
  -21.3120   -6.7860   23.8860 C   0  0  0  0  0  3  0  0  0  0  0  0
  -21.2240   -5.9740   25.0360 C   0  0  0  0  0  3  0  0  0  0  0  0
  -21.5380   -4.6050   24.9570 C   0  0  0  0  0  0  0  0  0  0  0  0
  -21.9440   -4.0440   23.7330 C   0  0  0  0  0  3  0  0  0  0  0  0
  -22.0360   -4.8520   22.5860 C   0  0  0  0  0  0  0  0  0  0  0  0
  -22.4060   -4.3030   21.4040 F   0  0  0  0  0  0  0  0  0  0  0  0
  -21.4460   -3.8230   26.0580 F   0  0  0  0  0  0  0  0  0  0  0  0
  -22.8250  -13.6030   21.1020 C   0  0  0  0  0  0  0  0  0  0  0  0
  -22.1020  -12.9120   21.9770 N   0  0  0  0  0  0  0  0  0  0  0  0
  -22.3820  -14.6220   20.5740 O   0  0  0  0  0  0  0  0  0  0  0  0
  -22.4750  -12.0870   22.4260 H   0  0  0  0  0  0  0  0  0  0  0  0
  -21.1630  -13.2090   22.2010 H   0  0  0  0  0  0  0  0  0  0  0  0
  -25.4470  -15.2690   20.2590 N   0  0  0  0  0  0  0  0  0  0  0  0
  -24.6740  -15.9190   20.3540 H   0  0  0  0  0  0  0  0  0  0  0  0
  -26.2900  -15.7070   19.9090 H   0  0  0  0  0  0  0  0  0  0  0  0
  -28.3600  -25.2520   19.9860 C   0  0  0  0  0  2  0  0  0  0  0  0
  -28.4270  -26.6900   20.2110 O   0  0  0  0  0  0  0  0  0  0  0  0
  -24.6020  -31.9070   23.2520 C   0  0  0  0  0  0  0  0  0  0  0  0
  -27.2590  -27.4450   20.1630 C   0  0  0  0  0  0  0  0  0  0  0  0
  -23.4040  -30.5090   21.6020 C   0  0  0  0  0  3  0  0  0  0  0  0
  -24.8650  -28.9840   20.1670 C   0  0  0  0  0  0  0  0  0  0  0  0
  -25.9340  -30.8640   21.4170 C   0  0  0  0  0  2  0  0  0  0  0  0
  -26.0230  -29.4950   20.7660 C   0  0  0  0  0  0  0  0  0  0  0  0
  -27.2200  -28.7330   20.7600 C   0  0  0  0  0  3  0  0  0  0  0  0
  -26.0810  -26.9760   19.5320 C   0  0  0  0  0  3  0  0  0  0  0  0
  -24.8910  -27.7260   19.5460 C   0  0  0  0  0  3  0  0  0  0  0  0
  -23.6210  -29.8430   20.2170 C   0  0  0  0  0  2  0  0  0  0  0  0
  -24.6640  -31.1100   22.1490 N   0  0  0  0  0  0  0  0  0  0  0  0
  -23.5190  -32.1750   23.7910 O   0  0  0  0  0  0  0  0  0  0  0  0
  -22.7530  -29.4810   22.5560 C   0  0  0  0  0  0  0  0  0  0  0  0
  -21.4300  -29.2920   22.4240 N   0  0  0  0  0  0  0  0  0  0  0  0
  -23.4350  -28.8580   23.3730 O   0  0  0  0  0  0  0  0  0  0  0  0
  -20.9400  -29.8490   21.7380 H   0  0  0  0  0  0  0  0  0  0  0  0
  -18.0610  -28.0730   22.9020 C   0  0  0  0  0  0  0  0  0  0  0  0
  -20.6160  -28.3470   23.1870 C   0  0  0  0  0  3  0  0  0  0  0  0
  -20.7300  -26.9180   22.6080 C   0  0  0  0  0  2  0  0  0  0  0  0
  -19.6360  -26.5920   21.5870 C   0  0  0  0  0  2  0  0  0  0  0  0
  -18.2510  -26.7250   22.2250 C   0  0  0  0  0  2  0  0  0  0  0  0
  -19.1720  -28.8410   23.3400 C   0  0  0  0  0  0  0  0  0  0  0  0
  -18.9440  -30.1010   23.9320 C   0  0  0  0  0  3  0  0  0  0  0  0
  -17.6370  -30.5950   24.0960 C   0  0  0  0  0  3  0  0  0  0  0  0
  -16.5380  -29.8230   23.6750 C   0  0  0  0  0  3  0  0  0  0  0  0
  -16.7510  -28.5650   23.0840 C   0  0  0  0  0  3  0  0  0  0  0  0
  -25.8850  -32.5400   23.8770 C   0  0  0  0  0  3  0  0  0  0  0  0
  -26.4000  -31.7700   25.1540 C   0  0  1  0  0  0  0  0  0  0  0  0
  -25.3050  -31.5300   26.2190 C   0  0  0  0  0  1  0  0  0  0  0  0
  -26.9900  -30.3950   24.7620 C   0  0  0  0  0  1  0  0  0  0  0  0
  -27.5470  -32.5660   25.8190 C   0  0  0  0  0  1  0  0  0  0  0  0
  -25.5750  -33.9370   24.2050 N   0  0  0  0  0  0  0  0  0  0  0  0
  -25.9020  -34.9890   23.4440 C   0  0  0  0  0  0  0  0  0  0  0  0
  -26.5710  -34.8860   22.4120 O   0  0  0  0  0  0  0  0  0  0  0  0
  -24.9830  -34.0910   25.0100 H   0  0  0  0  0  0  0  0  0  0  0  0
  -24.1690  -36.7770   23.0890 C   0  0  0  0  0  1  0  0  0  0  0  0
  -25.4110  -36.3770   23.9000 C   0  0  0  0  0  3  0  0  0  0  0  0
  -27.5420  -37.2710   24.7280 C   0  0  0  0  0  1  0  0  0  0  0  0
  -26.4400  -37.4330   23.7840 N   0  0  0  0  0  0  0  0  0  0  0  0
  -26.0310  -38.3510   23.9310 H   0  0  0  0  0  0  0  0  0  0  0  0
  1  2  1  0
  1  7  2  0
  3  2  1  0
  4  5  1  0
  4  6  1  0
  5 52  1  0
  5  3  1  0
  6  1  1  0
  8  9  1  0
 10  8  2  0
 11  6  1  0
 11  9  2  0
 12 10  1  0
 12 11  1  0
 13 22  1  0
 13 10  1  0
 14 22  1  0
 15 20  1  0
 16 17  1  0
 16 15  1  0
 18 17  1  0
 18 27  1  0
 18 19  1  0
 20 14  1  0
 20 19  1  0
 21 14  2  0
 22 23  1  0
 24 25  2  0
 25 44  1  0
 26 25  1  0
 26 29  1  0
 27 24  1  0
 27 28  1  0
 28 26  2  0
 29 30  1  0
 30 31  2  0
 32 35  1  0
 32 31  1  0
 33 32  2  0
 34 33  1  0
 34 29  2  0
 35 36  1  0
 36 37  1  0
 37 38  2  0
 39 38  1  0
 39 43  1  0
 40 39  2  0
 41 36  2  0
 41 40  1  0
 42 41  1  0
 44 45  1  0
 45 48  1  0
 45 47  1  0
 46 44  2  0
 49 50  1  0
 49 24  1  0
 51 49  1  0
 52 53  1  0
 54 65  2  0
 55 53  1  0
 55 60  1  0
 56 64  1  0
 56 66  1  0
 57 63  1  0
 57 59  1  0
 58 64  1  0
 59 58  1  0
 60 59  2  0
 61 62  1  0
 61 55  2  0
 62 57  2  0
 63 56  1  0
 64 54  1  0
 66 68  2  0
 67 66  1  0
 69 67  1  0
 70 79  2  0
 70 75  1  0
 71 67  1  0
 71 75  1  0
 72 71  1  0
 73 74  1  0
 73 72  1  0
 74 70  1  0
 75 76  2  0
 76 77  1  0
 78 77  2  0
 79 78  1  0
 80 54  1  0
 80 85  1  0
 80 81  1  0
 81 84  1  1
 81 82  1  0
 83 81  1  0
 85 88  1  0
 86 90  1  0
 86 85  1  0
 87 86  2  0
 90 89  1  0
 92 90  1  0
 92 93  1  0
 92 91  1  0
M  ISO  4  14 100  22 100  52 101  53 101
M  END
>  <TORSDO>  (63) 
F 19

>  <SCORE>  (63) 
-14.696

>  <name>  (63) 
62

>  <ligand_id>  (63) 
62

>  <original_smiles>  (63) 
[H]c1c(N2C(=O)C([H])([H])C([H])([H])C([H])(C([H])([H])Oc3c([H])c([H])c4c(c3[H])C([H])([H])N(C(=O)C([H])(N([H])C(=O)C([H])(N([H])C([H])([H])[H])C([H])([H])[H])C(C([H])([H])[H])(C([H])([H])[H])C([H])([H])[H])C([H])(C(=O)N([H])C3([H])c5c([H])c([H])c([H])c([H])c5C([H])([H])C([H])([H])C3([H])[H])C4([H])[H])C2([H])[H])sc(C([H])([H])N([H])C(=O)N2C([H])([H])C([H])([H])C([H])([H])C([H])(n3nc(-c4c([H])c([H])c(Oc5c([H])c([H])c(F)c([H])c5F)c([H])c4[H])c(C(=O)N([H])[H])c3N([H])[H])C2([H])[H])c1[H]

>  <smiles>  (63) 
[H]c1c(N2C(=O)C([H])([H])C([H])([H])C([H])(C([H])([H])Oc3c([H])c([H])c4c(c3[H])C([H])([H])N(C(=O)C([H])(N([H])C(=O)C([H])(N([H])C([H])([H])[H])C([H])([H])[H])C(C([H])([H])[H])(C([H])([H])[H])C([H])([H])[H])C([H])(C(=O)N([H])C3([H])c5c([H])c([H])c([H])c([H])c5C([H])([H])C([H])([H])C3([H])[H])C4([H])[H])C2([H])[H])sc(C([H])([H])N([H])C(=O)N2C([H])([H])C([H])([H])C([H])([H])C([H])(n3nc(-c4c([H])c([H])c(Oc5c([H])c([H])c(F)c([H])c5F)c([H])c4[H])c(C(=O)N([H])[H])c3N([H])[H])C2([H])[H])c1[H]

$$$$
63:0:0
     RDKit          3D

 92100  0  0  1  0  0  0  0  0999 V2000
  -29.4280  -21.1270   18.7390 C   0  0  0  0  0  3  0  0  0  0  0  0
  -29.8910  -19.7850   18.5240 C   0  0  0  0  0  3  0  0  0  0  0  0
  -29.3210  -21.5010   20.0610 C   0  0  0  0  0  0  0  0  0  0  0  0
  -30.2010  -19.0950   19.6710 C   0  0  0  0  0  0  0  0  0  0  0  0
  -29.8600  -20.1240   21.0620 S   0  0  0  0  0  0  0  0  0  0  0  0
  -29.1000  -23.9480   20.0880 C   0  0  0  0  0  0  0  0  0  0  0  0
  -27.7350  -22.5340   21.5680 C   0  0  0  0  0  1  0  0  0  0  0  0
  -28.7870  -22.6820   20.5520 N   0  0  0  0  0  0  0  0  0  0  0  0
  -30.2080  -24.2120   19.6080 O   0  0  0  0  0  0  0  0  0  0  0  0
  -27.9940  -25.0640   20.0830 C   0  0  0  0  0  2  0  0  0  0  0  0
  -28.3640  -26.4940   20.1790 O   0  0  0  0  0  0  0  0  0  0  0  0
  -24.6470  -31.8830   23.2350 C   0  0  0  0  0  0  0  0  0  0  0  0
  -27.2570  -27.3610   20.1410 C   0  0  0  0  0  0  0  0  0  0  0  0
  -23.4410  -30.4920   21.5970 C   0  0  0  0  0  3  0  0  0  0  0  0
  -24.8890  -28.9640   20.1610 C   0  0  0  0  0  0  0  0  0  0  0  0
  -25.9830  -30.8190   21.4070 C   0  0  0  0  0  2  0  0  0  0  0  0
  -26.0630  -29.4470   20.7540 C   0  0  0  0  0  0  0  0  0  0  0  0
  -27.2550  -28.6600   20.7340 C   0  0  0  0  0  3  0  0  0  0  0  0
  -26.0510  -26.9430   19.5190 C   0  0  0  0  0  3  0  0  0  0  0  0
  -24.8830  -27.7150   19.5390 C   0  0  0  0  0  3  0  0  0  0  0  0
  -23.6540  -29.8340   20.2110 C   0  0  0  0  0  2  0  0  0  0  0  0
  -24.7110  -31.0810   22.1360 N   0  0  0  0  0  0  0  0  0  0  0  0
  -23.5640  -32.1530   23.7760 O   0  0  0  0  0  0  0  0  0  0  0  0
  -22.7870  -29.4630   22.5490 C   0  0  0  0  0  0  0  0  0  0  0  0
  -21.4620  -29.2770   22.4200 N   0  0  0  0  0  0  0  0  0  0  0  0
  -23.4700  -28.8360   23.3620 O   0  0  0  0  0  0  0  0  0  0  0  0
  -20.9710  -29.8340   21.7370 H   0  0  0  0  0  0  0  0  0  0  0  0
  -18.0910  -28.0610   22.9140 C   0  0  0  0  0  0  0  0  0  0  0  0
  -20.6480  -28.3360   23.1920 C   0  0  0  0  0  3  0  0  0  0  0  0
  -20.7590  -26.9020   22.6240 C   0  0  0  0  0  2  0  0  0  0  0  0
  -19.6610  -26.5690   21.6080 C   0  0  0  0  0  2  0  0  0  0  0  0
  -18.2760  -26.7110   22.2440 C   0  0  0  0  0  2  0  0  0  0  0  0
  -19.2040  -28.8310   23.3450 C   0  0  0  0  0  0  0  0  0  0  0  0
  -18.9760  -30.0970   23.9290 C   0  0  0  0  0  3  0  0  0  0  0  0
  -17.6680  -30.5900   24.0880 C   0  0  0  0  0  3  0  0  0  0  0  0
  -16.5690  -29.8190   23.6720 C   0  0  0  0  0  3  0  0  0  0  0  0
  -16.7820  -28.5560   23.0910 C   0  0  0  0  0  3  0  0  0  0  0  0
  -25.9300  -32.5180   23.8520 C   0  0  0  0  0  3  0  0  0  0  0  0
  -26.4510  -31.7460   25.1260 C   0  0  1  0  0  0  0  0  0  0  0  0
  -25.3610  -31.5020   26.1960 C   0  0  0  0  0  1  0  0  0  0  0  0
  -27.0380  -30.3720   24.7270 C   0  0  0  0  0  1  0  0  0  0  0  0
  -27.5980  -32.5430   25.7900 C   0  0  0  0  0  1  0  0  0  0  0  0
  -25.6170  -33.9150   24.1880 N   0  0  0  0  0  0  0  0  0  0  0  0
  -25.9260  -34.9690   23.4200 C   0  0  0  0  0  0  0  0  0  0  0  0
  -26.5780  -34.8690   22.3780 O   0  0  0  0  0  0  0  0  0  0  0  0
  -25.0480  -34.0660   25.0070 H   0  0  0  0  0  0  0  0  0  0  0  0
  -24.1750  -36.7430   23.0900 C   0  0  0  0  0  1  0  0  0  0  0  0
  -25.4330  -36.3530   23.8830 C   0  0  0  0  0  3  0  0  0  0  0  0
  -27.5750  -37.2570   24.6770 C   0  0  0  0  0  1  0  0  0  0  0  0
  -26.4540  -37.4160   23.7540 N   0  0  0  0  0  0  0  0  0  0  0  0
  -26.0410  -38.3320   23.9110 H   0  0  0  0  0  0  0  0  0  0  0  0
  -31.2870  -17.1650   18.2730 O   0  0  0  0  0  0  0  0  0  0  0  0
  -32.3390  -17.8290   20.4730 O   0  0  0  0  0  0  0  0  0  0  0  0
  -31.1260  -17.5070   19.7000 S   0  0  1  0  0  0  0  0  0  0  0  0
  -30.3190  -16.2810   22.0860 C   0  0  0  0  0  1  0  0  0  0  0  0
  -30.2550  -16.0470   20.5680 C   0  0  0  0  0  3  0  0  0  0  0  0
  -30.9110  -14.6670   20.1560 C   0  0  0  0  0  0  0  0  0  0  0  0
  -30.5430  -12.5020   19.0030 C   0  0  0  0  0  2  0  0  0  0  0  0
  -29.5700  -12.7170   17.8240 C   0  0  0  0  0  2  0  0  0  0  0  0
  -28.1100  -12.5750   18.2930 C   0  0  0  0  0  2  0  0  0  0  0  0
  -27.8110  -13.3910   19.5790 C   0  0  0  0  0  3  0  0  0  0  0  0
  -28.9060  -13.1870   20.6470 C   0  0  0  0  0  2  0  0  0  0  0  0
  -30.2050  -13.4990   20.0400 N   0  0  0  0  0  0  0  0  0  0  0  0
  -32.0840  -14.6920   19.7790 O   0  0  0  0  0  0  0  0  0  0  0  0
  -25.4430  -13.9800   20.3780 C   0  0  0  0  0  0  0  0  0  0  0  0
  -24.3880  -13.2030   20.7740 C   0  0  0  0  0  0  0  0  0  0  0  0
  -24.8510  -11.8510   20.7230 C   0  0  0  0  0  0  0  0  0  0  0  0
  -26.4810  -13.1030   20.1070 N   0  0  0  0  0  0  0  0  0  0  0  0
  -26.1330  -11.8170   20.3770 N   0  0  0  0  0  0  0  0  0  0  0  0
  -24.1310  -10.5880   20.9250 C   0  0  0  0  0  0  0  0  0  0  0  0
  -24.5650   -9.6330   21.8710 C   0  0  0  0  0  3  0  0  0  0  0  0
  -23.8420   -8.4340   22.0600 C   0  0  0  0  0  3  0  0  0  0  0  0
  -22.6740   -8.1820   21.3020 C   0  0  0  0  0  0  0  0  0  0  0  0
  -22.2600   -9.1260   20.3450 C   0  0  0  0  0  3  0  0  0  0  0  0
  -22.9820  -10.3150   20.1540 C   0  0  0  0  0  3  0  0  0  0  0  0
  -21.9240   -7.0340   21.3980 O   0  0  0  0  0  0  0  0  0  0  0  0
  -21.8350   -6.3300   22.5720 C   0  0  0  0  0  0  0  0  0  0  0  0
  -21.3550   -6.9190   23.7610 C   0  0  0  0  0  3  0  0  0  0  0  0
  -21.2160   -6.1400   24.9270 C   0  0  0  0  0  3  0  0  0  0  0  0
  -21.5460   -4.7720   24.9040 C   0  0  0  0  0  0  0  0  0  0  0  0
  -22.0200   -4.1820   23.7190 C   0  0  0  0  0  3  0  0  0  0  0  0
  -22.1610   -4.9570   22.5560 C   0  0  0  0  0  0  0  0  0  0  0  0
  -22.5980   -4.3780   21.4110 F   0  0  0  0  0  0  0  0  0  0  0  0
  -21.4050   -4.0210   26.0220 F   0  0  0  0  0  0  0  0  0  0  0  0
  -22.9970  -13.6760   21.0830 C   0  0  0  0  0  0  0  0  0  0  0  0
  -22.2950  -12.9810   21.9710 N   0  0  0  0  0  0  0  0  0  0  0  0
  -22.5410  -14.6990   20.5720 O   0  0  0  0  0  0  0  0  0  0  0  0
  -22.6760  -12.1510   22.4040 H   0  0  0  0  0  0  0  0  0  0  0  0
  -21.3640  -13.2790   22.2220 H   0  0  0  0  0  0  0  0  0  0  0  0
  -25.6000  -15.3520   20.2020 N   0  0  0  0  0  0  0  0  0  0  0  0
  -24.8380  -16.0030   20.3530 H   0  0  0  0  0  0  0  0  0  0  0  0
  -26.4220  -15.7900   19.8080 H   0  0  0  0  0  0  0  0  0  0  0  0
  1  3  2  0
  2  1  1  0
  2  4  2  0
  3  8  1  0
  3  5  1  0
  4 54  1  0
  4  5  1  0
  6  8  1  0
  8  7  1  0
  9  6  2  0
 10  6  1  0
 10 11  1  0
 12 23  2  0
 13 11  1  0
 13 18  1  0
 14 22  1  0
 14 24  1  0
 15 21  1  0
 15 17  1  0
 16 22  1  0
 17 16  1  0
 18 17  2  0
 19 20  1  0
 19 13  2  0
 20 15  2  0
 21 14  1  0
 22 12  1  0
 24 26  2  0
 25 24  1  0
 27 25  1  0
 28 37  2  0
 28 33  1  0
 29 25  1  0
 29 33  1  0
 30 29  1  0
 31 32  1  0
 31 30  1  0
 32 28  1  0
 33 34  2  0
 34 35  1  0
 36 35  2  0
 37 36  1  0
 38 12  1  0
 38 43  1  0
 38 39  1  0
 39 42  1  1
 39 40  1  0
 41 39  1  0
 43 46  1  0
 44 48  1  0
 44 43  1  0
 45 44  2  0
 48 47  1  0
 50 48  1  0
 50 51  1  0
 50 49  1  0
 52 54  2  0
 54 53  2  0
 54 56  1  1
 56 55  1  0
 57 56  1  0
 58 63  1  0
 59 60  1  0
 59 58  1  0
 61 60  1  0
 61 68  1  0
 61 62  1  0
 63 57  1  0
 63 62  1  0
 64 57  2  0
 65 66  2  0
 66 85  1  0
 67 66  1  0
 67 70  1  0
 68 69  1  0
 68 65  1  0
 69 67  2  0
 70 71  1  0
 71 72  2  0
 73 76  1  0
 73 72  1  0
 74 73  2  0
 75 74  1  0
 75 70  2  0
 76 77  1  0
 77 78  1  0
 78 79  2  0
 80 79  1  0
 80 84  1  0
 81 80  2  0
 82 77  2  0
 82 81  1  0
 83 82  1  0
 85 86  1  0
 86 89  1  0
 86 88  1  0
 87 85  2  0
 90 91  1  0
 90 65  1  0
 92 90  1  0
M  ISO  4  10 101  11 101  56 100  57 100
M  END
>  <TORSDO>  (64) 
F 20

>  <SCORE>  (64) 
-13.866

>  <name>  (64) 
63

>  <ligand_id>  (64) 
63

>  <original_smiles>  (64) 
[H]c1c(N(C(=O)C([H])([H])Oc2c([H])c([H])c3c(c2[H])C([H])([H])N(C(=O)C([H])(N([H])C(=O)C([H])(N([H])C([H])([H])[H])C([H])([H])[H])C(C([H])([H])[H])(C([H])([H])[H])C([H])([H])[H])C([H])(C(=O)N([H])C2([H])c4c([H])c([H])c([H])c([H])c4C([H])([H])C([H])([H])C2([H])[H])C3([H])[H])C([H])([H])[H])sc(S(=O)(=O)C([H])(C(=O)N2C([H])([H])C([H])([H])C([H])([H])C([H])(n3nc(-c4c([H])c([H])c(Oc5c([H])c([H])c(F)c([H])c5F)c([H])c4[H])c(C(=O)N([H])[H])c3N([H])[H])C2([H])[H])C([H])([H])[H])c1[H]

>  <smiles>  (64) 
[H]c1c(N(C(=O)C([H])([H])Oc2c([H])c([H])c3c(c2[H])C([H])([H])N(C(=O)C([H])(N([H])C(=O)C([H])(N([H])C([H])([H])[H])C([H])([H])[H])C(C([H])([H])[H])(C([H])([H])[H])C([H])([H])[H])C([H])(C(=O)N([H])C2([H])c4c([H])c([H])c([H])c([H])c4C([H])([H])C([H])([H])C2([H])[H])C3([H])[H])C([H])([H])[H])sc(S(=O)(=O)C([H])(C(=O)N2C([H])([H])C([H])([H])C([H])([H])C([H])(n3nc(-c4c([H])c([H])c(Oc5c([H])c([H])c(F)c([H])c5F)c([H])c4[H])c(C(=O)N([H])[H])c3N([H])[H])C2([H])[H])C([H])([H])[H])c1[H]

$$$$
64:0:0
     RDKit          3D

 93101  0  0  1  0  0  0  0  0999 V2000
  -29.2700  -20.2180   18.9490 C   0  0  0  0  0  3  0  0  0  0  0  0
  -30.0490  -20.9220   21.1020 C   0  0  0  0  0  3  0  0  0  0  0  0
  -30.1840  -18.4850   20.4920 C   0  0  0  0  0  0  0  0  0  0  0  0
  -29.6050  -18.8540   19.2370 C   0  0  0  0  0  0  0  0  0  0  0  0
  -29.4920  -21.2970   19.8540 C   0  0  0  0  0  0  0  0  0  0  0  0
  -30.3750  -19.5650   21.4140 C   0  0  0  0  0  0  0  0  0  0  0  0
  -29.3640  -17.8150   18.1450 C   0  0  0  0  0  1  0  0  0  0  0  0
  -30.9000  -19.3180   22.6390 F   0  0  0  0  0  0  0  0  0  0  0  0
  -30.8510  -14.7360   20.1090 C   0  0  0  0  0  0  0  0  0  0  0  0
  -30.4600  -12.5580   18.9720 C   0  0  0  0  0  2  0  0  0  0  0  0
  -29.4540  -12.7020   17.8130 C   0  0  0  0  0  2  0  0  0  0  0  0
  -28.0140  -12.5310   18.3340 C   0  0  0  0  0  2  0  0  0  0  0  0
  -27.7300  -13.3920   19.5950 C   0  0  0  0  0  3  0  0  0  0  0  0
  -28.8550  -13.2590   20.6470 C   0  0  0  0  0  2  0  0  0  0  0  0
  -30.1180  -13.5850   19.9770 N   0  0  0  0  0  0  0  0  0  0  0  0
  -32.0220  -14.7570   19.7240 O   0  0  0  0  0  0  0  0  0  0  0  0
  -30.7960  -17.0910   20.7840 C   0  0  0  0  0  0  0  0  0  0  0  0
  -30.1980  -15.9070   20.4140 N   0  0  0  0  0  0  0  0  0  0  0  0
  -31.8760  -17.0820   21.3910 O   0  0  0  0  0  0  0  0  0  0  0  0
  -29.2040  -15.9220   20.2740 H   0  0  0  0  0  0  0  0  0  0  0  0
  -25.3910  -13.9860   20.4650 C   0  0  0  0  0  0  0  0  0  0  0  0
  -24.3390  -13.2090   20.8730 C   0  0  0  0  0  0  0  0  0  0  0  0
  -24.7900  -11.8560   20.7870 C   0  0  0  0  0  0  0  0  0  0  0  0
  -26.4140  -13.1050   20.1540 N   0  0  0  0  0  0  0  0  0  0  0  0
  -26.0620  -11.8170   20.4090 N   0  0  0  0  0  0  0  0  0  0  0  0
  -24.0640  -10.5940   20.9830 C   0  0  0  0  0  0  0  0  0  0  0  0
  -24.5130   -9.6180   21.9000 C   0  0  0  0  0  3  0  0  0  0  0  0
  -23.7860   -8.4240   22.0870 C   0  0  0  0  0  3  0  0  0  0  0  0
  -22.5950   -8.1960   21.3580 C   0  0  0  0  0  0  0  0  0  0  0  0
  -22.1650   -9.1590   20.4300 C   0  0  0  0  0  3  0  0  0  0  0  0
  -22.8940  -10.3460   20.2410 C   0  0  0  0  0  3  0  0  0  0  0  0
  -21.8390   -7.0530   21.4550 O   0  0  0  0  0  0  0  0  0  0  0  0
  -21.7780   -6.3230   22.6160 C   0  0  0  0  0  0  0  0  0  0  0  0
  -21.2910   -6.8790   23.8190 C   0  0  0  0  0  3  0  0  0  0  0  0
  -21.1840   -6.0750   24.9710 C   0  0  0  0  0  3  0  0  0  0  0  0
  -21.5530   -4.7170   24.9220 C   0  0  0  0  0  0  0  0  0  0  0  0
  -22.0350   -4.1630   23.7220 C   0  0  0  0  0  3  0  0  0  0  0  0
  -22.1440   -4.9630   22.5720 C   0  0  0  0  0  0  0  0  0  0  0  0
  -22.5880   -4.4180   21.4150 F   0  0  0  0  0  0  0  0  0  0  0  0
  -21.4430   -3.9440   26.0270 F   0  0  0  0  0  0  0  0  0  0  0  0
  -22.9630  -13.6890   21.2260 C   0  0  0  0  0  0  0  0  0  0  0  0
  -22.2790  -12.9790   22.1190 N   0  0  0  0  0  0  0  0  0  0  0  0
  -22.5050  -14.7270   20.7520 O   0  0  0  0  0  0  0  0  0  0  0  0
  -22.6620  -12.1360   22.5160 H   0  0  0  0  0  0  0  0  0  0  0  0
  -21.3610  -13.2840   22.4070 H   0  0  0  0  0  0  0  0  0  0  0  0
  -25.5560  -15.3580   20.3110 N   0  0  0  0  0  0  0  0  0  0  0  0
  -24.7970  -16.0120   20.4710 H   0  0  0  0  0  0  0  0  0  0  0  0
  -26.3850  -15.7990   19.9320 H   0  0  0  0  0  0  0  0  0  0  0  0
  -29.1180  -22.6330   19.4640 N   0  0  0  0  0  0  0  0  0  0  0  0
  -28.8220  -22.7270   18.4940 H   0  0  0  0  0  0  0  0  0  0  0  0
  -29.3680  -23.9570   20.1360 C   0  0  0  0  0  2  0  0  0  0  0  0
  -28.3460  -25.1220   19.7200 C   0  0  0  0  0  2  0  0  0  0  0  0
  -28.4410  -26.5130   20.2460 O   0  0  0  0  0  0  0  0  0  0  0  0
  -24.6050  -31.8820   23.2560 C   0  0  0  0  0  0  0  0  0  0  0  0
  -27.3120  -27.3620   20.1840 C   0  0  0  0  0  0  0  0  0  0  0  0
  -23.4410  -30.4890   21.5850 C   0  0  0  0  0  3  0  0  0  0  0  0
  -24.9320  -28.9650   20.1660 C   0  0  0  0  0  0  0  0  0  0  0  0
  -25.9830  -30.8190   21.4540 C   0  0  0  0  0  2  0  0  0  0  0  0
  -26.0860  -29.4470   20.7970 C   0  0  0  0  0  0  0  0  0  0  0  0
  -27.2760  -28.6520   20.8060 C   0  0  0  0  0  3  0  0  0  0  0  0
  -26.1350  -26.9530   19.5140 C   0  0  0  0  0  3  0  0  0  0  0  0
  -24.9580  -27.7240   19.5160 C   0  0  0  0  0  3  0  0  0  0  0  0
  -23.6830  -29.8250   20.2030 C   0  0  0  0  0  2  0  0  0  0  0  0
  -24.6930  -31.0810   22.1560 N   0  0  0  0  0  0  0  0  0  0  0  0
  -23.5090  -32.1480   23.7730 O   0  0  0  0  0  0  0  0  0  0  0  0
  -22.7690  -29.4620   22.5260 C   0  0  0  0  0  0  0  0  0  0  0  0
  -21.4450  -29.2850   22.3840 N   0  0  0  0  0  0  0  0  0  0  0  0
  -23.4380  -28.8280   23.3450 O   0  0  0  0  0  0  0  0  0  0  0  0
  -20.9650  -29.8450   21.6950 H   0  0  0  0  0  0  0  0  0  0  0  0
  -18.0540  -28.1130   22.8660 C   0  0  0  0  0  0  0  0  0  0  0  0
  -20.6170  -28.3400   23.1330 C   0  0  0  0  0  3  0  0  0  0  0  0
  -20.7030  -26.9230   22.5200 C   0  0  0  0  0  2  0  0  0  0  0  0
  -19.5930  -26.6360   21.5040 C   0  0  0  0  0  2  0  0  0  0  0  0
  -18.2130  -26.7790   22.1560 C   0  0  0  0  0  2  0  0  0  0  0  0
  -19.1840  -28.8520   23.3100 C   0  0  0  0  0  0  0  0  0  0  0  0
  -18.9800  -30.1000   23.9370 C   0  0  0  0  0  3  0  0  0  0  0  0
  -17.6820  -30.6120   24.1220 C   0  0  0  0  0  3  0  0  0  0  0  0
  -16.5670  -29.8710   23.6930 C   0  0  0  0  0  3  0  0  0  0  0  0
  -16.7550  -28.6230   23.0740 C   0  0  0  0  0  3  0  0  0  0  0  0
  -25.8710  -32.5220   23.9050 C   0  0  0  0  0  3  0  0  0  0  0  0
  -26.3600  -31.7550   25.1960 C   0  0  1  0  0  0  0  0  0  0  0  0
  -25.2410  -31.5120   26.2360 C   0  0  0  0  0  1  0  0  0  0  0  0
  -26.9610  -30.3800   24.8250 C   0  0  0  0  0  1  0  0  0  0  0  0
  -27.4880  -32.5590   25.8850 C   0  0  0  0  0  1  0  0  0  0  0  0
  -25.5470  -33.9190   24.2250 N   0  0  0  0  0  0  0  0  0  0  0  0
  -25.8670  -34.9700   23.4570 C   0  0  0  0  0  0  0  0  0  0  0  0
  -26.5310  -34.8640   22.4220 O   0  0  0  0  0  0  0  0  0  0  0  0
  -24.9510  -34.0710   25.0250 H   0  0  0  0  0  0  0  0  0  0  0  0
  -24.1090  -36.7390   23.1190 C   0  0  0  0  0  1  0  0  0  0  0  0
  -25.3710  -36.3570   23.9090 C   0  0  0  0  0  3  0  0  0  0  0  0
  -27.5040  -37.2840   24.6960 C   0  0  0  0  0  1  0  0  0  0  0  0
  -26.3880  -37.4220   23.7650 N   0  0  0  0  0  0  0  0  0  0  0  0
  -25.9710  -38.3380   23.9040 H   0  0  0  0  0  0  0  0  0  0  0  0
  1  4  2  0
  1  5  1  0
  2  6  1  0
  3 17  1  0
  3  6  2  0
  4  3  1  0
  5  2  2  0
  6  8  1  0
  7  4  1  0
  9 18  1  0
 10 15  1  0
 11 12  1  0
 11 10  1  0
 13 12  1  0
 13 24  1  0
 13 14  1  0
 15  9  1  0
 15 14  1  0
 16  9  2  0
 17 19  2  0
 18 17  1  0
 20 18  1  0
 21 22  2  0
 22 41  1  0
 23 22  1  0
 23 26  1  0
 24 25  1  0
 24 21  1  0
 25 23  2  0
 26 27  1  0
 27 28  2  0
 29 32  1  0
 29 28  1  0
 30 29  2  0
 31 30  1  0
 31 26  2  0
 32 33  1  0
 33 34  1  0
 34 35  2  0
 36 35  1  0
 36 40  1  0
 37 36  2  0
 38 33  2  0
 38 37  1  0
 39 38  1  0
 41 42  1  0
 42 45  1  0
 42 44  1  0
 43 41  2  0
 46 21  1  0
 46 47  1  0
 48 46  1  0
 49  5  1  0
 49 51  1  0
 50 49  1  0
 52 51  1  0
 52 53  1  0
 54 65  2  0
 55 53  1  0
 55 60  1  0
 56 64  1  0
 56 66  1  0
 57 63  1  0
 57 59  1  0
 58 64  1  0
 59 60  2  0
 59 58  1  0
 61 62  1  0
 61 55  2  0
 62 57  2  0
 63 56  1  0
 64 54  1  0
 66 68  2  0
 67 66  1  0
 69 67  1  0
 70 79  2  0
 70 75  1  0
 71 67  1  0
 71 75  1  0
 72 71  1  0
 73 74  1  0
 73 72  1  0
 74 70  1  0
 75 76  2  0
 76 77  1  0
 78 77  2  0
 79 78  1  0
 80 54  1  0
 80 85  1  0
 80 81  1  0
 81 84  1  1
 81 82  1  0
 83 81  1  0
 85 88  1  0
 86 90  1  0
 86 85  1  0
 87 86  2  0
 90 89  1  0
 92 93  1  0
 92 90  1  0
 92 91  1  0
M  ISO  4   9 100  18 100  52 101  53 101
M  END
>  <TORSDO>  (65) 
F 19

>  <SCORE>  (65) 
-14.247

>  <name>  (65) 
64

>  <ligand_id>  (65) 
64

>  <original_smiles>  (65) 
[H]c1c([H])c([H])c2c(c1[H])C([H])([H])C([H])([H])C([H])([H])C2([H])N([H])C(=O)C1([H])N(C(=O)C([H])(N([H])C(=O)C([H])(N([H])C([H])([H])[H])C([H])([H])[H])C(C([H])([H])[H])(C([H])([H])[H])C([H])([H])[H])C([H])([H])c2c([H])c(OC([H])([H])C([H])([H])N([H])c3c([H])c(F)c(C(=O)N([H])C(=O)N4C([H])([H])C([H])([H])C([H])([H])C([H])(n5nc(-c6c([H])c([H])c(Oc7c([H])c([H])c(F)c([H])c7F)c([H])c6[H])c(C(=O)N([H])[H])c5N([H])[H])C4([H])[H])c(C([H])([H])[H])c3[H])c([H])c([H])c2C1([H])[H]

>  <smiles>  (65) 
[H]c1c([H])c([H])c2c(c1[H])C([H])([H])C([H])([H])C([H])([H])C2([H])N([H])C(=O)C1([H])N(C(=O)C([H])(N([H])C(=O)C([H])(N([H])C([H])([H])[H])C([H])([H])[H])C(C([H])([H])[H])(C([H])([H])[H])C([H])([H])[H])C([H])([H])c2c([H])c(OC([H])([H])C([H])([H])N([H])c3c([H])c(F)c(C(=O)N([H])C(=O)N4C([H])([H])C([H])([H])C([H])([H])C([H])(n5nc(-c6c([H])c([H])c(Oc7c([H])c([H])c(F)c([H])c7F)c([H])c6[H])c(C(=O)N([H])[H])c5N([H])[H])C4([H])[H])c(C([H])([H])[H])c3[H])c([H])c([H])c2C1([H])[H]

$$$$
65:0:0
     RDKit          3D

 97106  0  0  1  0  0  0  0  0999 V2000
  -28.0370  -20.4540   21.7800 C   0  0  0  0  0  1  0  0  0  0  0  0
  -28.9840  -20.6870   20.5790 C   0  0  0  0  0  3  0  0  0  0  0  0
  -29.8560  -23.9000   18.8710 C   0  0  0  0  0  2  0  0  0  0  0  0
  -30.2980  -22.4920   19.3410 C   0  0  0  0  0  2  0  0  0  0  0  0
  -28.3880  -23.1450   20.5760 C   0  0  0  0  0  2  0  0  0  0  0  0
  -28.9410  -24.4520   19.9740 C   0  0  0  0  0  3  0  0  0  0  0  0
  -29.4620  -22.1180   20.5130 N   0  0  1  0  0  4  0  0  0  0  0  0
  -30.0340  -22.2790   21.3280 H   0  0  0  0  0  0  0  0  0  0  0  0
  -27.7940  -25.3900   19.5010 C   0  0  0  0  0  2  0  0  0  0  0  0
  -28.0170  -26.8220   19.5090 O   0  0  0  0  0  0  0  0  0  0  0  0
  -24.4300  -31.8290   23.1340 C   0  0  0  0  0  0  0  0  0  0  0  0
  -26.8610  -27.5910   19.5940 C   0  0  0  0  0  0  0  0  0  0  0  0
  -23.1110  -30.4900   21.5300 C   0  0  0  0  0  3  0  0  0  0  0  0
  -24.4590  -29.0760   19.8970 C   0  0  0  0  0  0  0  0  0  0  0  0
  -25.6080  -30.9100   21.1360 C   0  0  0  0  0  2  0  0  0  0  0  0
  -25.6610  -29.5770   20.4120 C   0  0  0  0  0  0  0  0  0  0  0  0
  -26.8650  -28.8450   20.2580 C   0  0  0  0  0  3  0  0  0  0  0  0
  -25.6330  -27.1320   19.0530 C   0  0  0  0  0  3  0  0  0  0  0  0
  -24.4420  -27.8530   19.2130 C   0  0  0  0  0  3  0  0  0  0  0  0
  -23.2100  -29.9010   20.0990 C   0  0  0  0  0  2  0  0  0  0  0  0
  -24.4070  -31.0880   21.9890 N   0  0  0  0  0  0  0  0  0  0  0  0
  -23.3950  -32.0470   23.7790 O   0  0  0  0  0  0  0  0  0  0  0  0
  -22.5660  -29.4000   22.4820 C   0  0  0  0  0  0  0  0  0  0  0  0
  -21.2620  -29.0990   22.3670 N   0  0  0  0  0  0  0  0  0  0  0  0
  -23.3120  -28.8300   23.2830 O   0  0  0  0  0  0  0  0  0  0  0  0
  -20.7160  -29.6170   21.6920 H   0  0  0  0  0  0  0  0  0  0  0  0
  -18.0510  -27.4890   22.7710 C   0  0  0  0  0  0  0  0  0  0  0  0
  -20.5410  -28.0840   23.1340 C   0  0  0  0  0  3  0  0  0  0  0  0
  -20.8510  -26.6640   22.6080 C   0  0  0  0  0  2  0  0  0  0  0  0
  -19.8450  -26.1740   21.5620 C   0  0  0  0  0  2  0  0  0  0  0  0
  -18.4300  -26.1550   22.1480 C   0  0  0  0  0  2  0  0  0  0  0  0
  -19.0430  -28.4010   23.2200 C   0  0  0  0  0  0  0  0  0  0  0  0
  -18.6390  -29.6410   23.7590 C   0  0  0  0  0  3  0  0  0  0  0  0
  -17.2760  -29.9740   23.8570 C   0  0  0  0  0  3  0  0  0  0  0  0
  -16.2960  -29.0610   23.4270 C   0  0  0  0  0  3  0  0  0  0  0  0
  -16.6850  -27.8210   22.8890 C   0  0  0  0  0  3  0  0  0  0  0  0
  -25.7540  -32.4560   23.6710 C   0  0  0  0  0  3  0  0  0  0  0  0
  -26.3670  -31.6610   24.8900 C   0  0  1  0  0  0  0  0  0  0  0  0
  -25.3530  -31.3790   26.0230 C   0  0  0  0  0  1  0  0  0  0  0  0
  -26.9400  -30.3030   24.4220 C   0  0  0  0  0  1  0  0  0  0  0  0
  -27.5480  -32.4570   25.4930 C   0  0  0  0  0  1  0  0  0  0  0  0
  -25.4620  -33.8450   24.0500 N   0  0  0  0  0  0  0  0  0  0  0  0
  -25.7500  -34.9150   23.2970 C   0  0  0  0  0  0  0  0  0  0  0  0
  -26.3650  -34.8360   22.2300 O   0  0  0  0  0  0  0  0  0  0  0  0
  -24.9140  -33.9810   24.8870 H   0  0  0  0  0  0  0  0  0  0  0  0
  -24.0040  -36.7090   23.0670 C   0  0  0  0  0  1  0  0  0  0  0  0
  -25.2820  -36.2900   23.8100 C   0  0  0  0  0  3  0  0  0  0  0  0
  -27.4560  -37.1560   24.5540 C   0  0  0  0  0  1  0  0  0  0  0  0
  -26.3050  -37.3510   23.6760 N   0  0  0  0  0  0  0  0  0  0  0  0
  -25.9040  -38.2630   23.8780 H   0  0  0  0  0  0  0  0  0  0  0  0
  -31.4450  -19.8930   20.8110 C   0  0  0  0  0  3  0  0  0  0  0  0
  -29.6990  -18.2260   20.4800 C   0  0  0  0  0  3  0  0  0  0  0  0
  -32.0090  -17.5130   20.7480 C   0  0  0  0  0  3  0  0  0  0  0  0
  -30.0790  -19.5930   20.6010 C   0  0  0  0  0  0  0  0  0  0  0  0
  -32.4040  -18.8610   20.8690 C   0  0  0  0  0  0  0  0  0  0  0  0
  -30.6490  -17.1760   20.5550 C   0  0  0  0  0  0  0  0  0  0  0  0
  -30.9060  -14.7320   20.0830 C   0  0  0  0  0  0  0  0  0  0  0  0
  -30.6200  -12.4450   19.1940 C   0  0  0  0  0  2  0  0  0  0  0  0
  -29.6740  -12.4780   17.9760 C   0  0  0  0  0  2  0  0  0  0  0  0
  -28.2030  -12.3710   18.4240 C   0  0  0  0  0  2  0  0  0  0  0  0
  -27.8520  -13.3530   19.5730 C   0  0  0  0  0  3  0  0  0  0  0  0
  -28.9130  -13.2990   20.6960 C   0  0  0  0  0  2  0  0  0  0  0  0
  -30.2320  -13.5490   20.0870 N   0  0  0  0  0  0  0  0  0  0  0  0
  -32.0280  -14.8490   19.5850 O   0  0  0  0  0  0  0  0  0  0  0  0
  -30.2100  -15.8090   20.5060 N   0  0  0  0  0  0  0  0  0  0  0  0
  -29.2460  -15.6330   20.7420 H   0  0  0  0  0  0  0  0  0  0  0  0
  -25.4960  -14.0290   20.3540 C   0  0  0  0  0  0  0  0  0  0  0  0
  -24.4110  -13.2890   20.7410 C   0  0  0  0  0  0  0  0  0  0  0  0
  -24.8230  -11.9230   20.6790 C   0  0  0  0  0  0  0  0  0  0  0  0
  -26.5030  -13.1170   20.0840 N   0  0  0  0  0  0  0  0  0  0  0  0
  -26.1040  -11.8440   20.3360 N   0  0  0  0  0  0  0  0  0  0  0  0
  -24.0590  -10.6840   20.8710 C   0  0  0  0  0  0  0  0  0  0  0  0
  -24.4280   -9.7320   21.8470 C   0  0  0  0  0  3  0  0  0  0  0  0
  -23.6670   -8.5570   22.0260 C   0  0  0  0  0  3  0  0  0  0  0  0
  -22.5200   -8.3260   21.2290 C   0  0  0  0  0  0  0  0  0  0  0  0
  -22.1700   -9.2660   20.2440 C   0  0  0  0  0  3  0  0  0  0  0  0
  -22.9320  -10.4330   20.0640 C   0  0  0  0  0  3  0  0  0  0  0  0
  -21.7350   -7.2020   21.3150 O   0  0  0  0  0  0  0  0  0  0  0  0
  -21.5590   -6.5350   22.5010 C   0  0  0  0  0  0  0  0  0  0  0  0
  -21.0040   -7.1650   23.6350 C   0  0  0  0  0  3  0  0  0  0  0  0
  -20.7780   -6.4240   24.8120 C   0  0  0  0  0  3  0  0  0  0  0  0
  -21.0950   -5.0540   24.8550 C   0  0  0  0  0  0  0  0  0  0  0  0
  -21.6440   -4.4230   23.7230 C   0  0  0  0  0  3  0  0  0  0  0  0
  -21.8720   -5.1620   22.5490 C   0  0  0  0  0  0  0  0  0  0  0  0
  -22.3810   -4.5450   21.4560 F   0  0  0  0  0  0  0  0  0  0  0  0
  -20.8710   -4.3390   25.9820 F   0  0  0  0  0  0  0  0  0  0  0  0
  -23.0390  -13.8120   21.0560 C   0  0  0  0  0  0  0  0  0  0  0  0
  -22.3090  -13.1290   21.9320 N   0  0  0  0  0  0  0  0  0  0  0  0
  -22.6240  -14.8580   20.5610 O   0  0  0  0  0  0  0  0  0  0  0  0
  -22.6570  -12.2820   22.3550 H   0  0  0  0  0  0  0  0  0  0  0  0
  -21.3890  -13.4610   22.1850 H   0  0  0  0  0  0  0  0  0  0  0  0
  -25.7030  -15.3960   20.1890 N   0  0  0  0  0  0  0  0  0  0  0  0
  -24.9580  -16.0720   20.3190 H   0  0  0  0  0  0  0  0  0  0  0  0
  -26.5540  -15.8060   19.8270 H   0  0  0  0  0  0  0  0  0  0  0  0
  -33.7480  -19.1770   21.0590 N   0  0  0  0  0  0  0  0  0  0  0  0
  -34.0170  -20.1090   21.3630 H   0  0  0  0  0  0  0  0  0  0  0  0
  -34.4050  -18.4550   21.3450 H   0  0  0  0  0  0  0  0  0  0  0  0
  2 54  1  0
  2  1  1  0
  3  4  1  0
  3  6  1  0
  4  7  1  0
  6  9  1  0
  6  5  1  0
  7  5  1  0
  7  2  1  0
  7  8  1  1
  9 10  1  0
 10 12  1  0
 11 22  2  0
 12 17  1  0
 13 21  1  0
 13 23  1  0
 14 20  1  0
 14 16  1  0
 15 21  1  0
 16 15  1  0
 17 16  2  0
 18 19  1  0
 18 12  2  0
 19 14  2  0
 20 13  1  0
 21 11  1  0
 23 25  2  0
 24 23  1  0
 26 24  1  0
 27 36  2  0
 27 32  1  0
 28 24  1  0
 28 32  1  0
 29 28  1  0
 30 31  1  0
 30 29  1  0
 31 27  1  0
 32 33  2  0
 33 34  1  0
 35 34  2  0
 36 35  1  0
 37 11  1  0
 37 42  1  0
 37 38  1  0
 38 41  1  1
 38 39  1  0
 40 38  1  0
 42 45  1  0
 43 47  1  0
 43 42  1  0
 44 43  2  0
 47 46  1  0
 49 47  1  0
 49 50  1  0
 49 48  1  0
 51 55  1  0
 52 56  2  0
 52 54  1  0
 53 55  2  0
 54 51  2  0
 55 95  1  0
 56 53  1  0
 57 63  1  0
 57 65  1  0
 58 63  1  0
 59 60  1  0
 59 58  1  0
 61 60  1  0
 61 70  1  0
 61 62  1  0
 63 62  1  0
 64 57  2  0
 65 56  1  0
 65 66  1  0
 67 68  2  0
 68 87  1  0
 69 68  1  0
 69 72  1  0
 70 71  1  0
 70 67  1  0
 71 69  2  0
 72 73  1  0
 73 74  2  0
 75 78  1  0
 75 74  1  0
 76 75  2  0
 77 76  1  0
 77 72  2  0
 78 79  1  0
 79 84  2  0
 79 80  1  0
 80 81  2  0
 81 82  1  0
 82 86  1  0
 83 82  2  0
 84 83  1  0
 85 84  1  0
 87 88  1  0
 88 91  1  0
 88 90  1  0
 89 87  2  0
 92 93  1  0
 92 67  1  0
 94 92  1  0
 95 97  1  0
 95 96  1  0
M  ISO  4   9 101  10 101  57 100  65 100
M  END
>  <TORSDO>  (66) 
F 20

>  <SCORE>  (66) 
-12.203

>  <name>  (66) 
65

>  <ligand_id>  (66) 
65

>  <original_smiles>  (66) 
[H]c1c([H])c([H])c2c(c1[H])C([H])([H])C([H])([H])C([H])([H])C2([H])N([H])C(=O)C1([H])N(C(=O)C([H])(N([H])C(=O)C([H])(N([H])C([H])([H])[H])C([H])([H])[H])C(C([H])([H])[H])(C([H])([H])[H])C([H])([H])[H])C([H])([H])c2c([H])c(OC([H])([H])C3([H])C([H])([H])C([H])([H])[N+]([H])(C([H])(c4c([H])c(N([H])[H])c([H])c(N([H])C(=O)N5C([H])([H])C([H])([H])C([H])([H])C([H])(n6nc(-c7c([H])c([H])c(Oc8c([H])c([H])c(F)c([H])c8F)c([H])c7[H])c(C(=O)N([H])[H])c6N([H])[H])C5([H])[H])c4[H])C([H])([H])[H])C3([H])[H])c([H])c([H])c2C1([H])[H]

>  <smiles>  (66) 
[H]c1c([H])c([H])c2c(c1[H])C([H])([H])C([H])([H])C([H])([H])C2([H])N([H])C(=O)C1([H])N(C(=O)C([H])(N([H])C(=O)C([H])(N([H])C([H])([H])[H])C([H])([H])[H])C(C([H])([H])[H])(C([H])([H])[H])C([H])([H])[H])C([H])([H])c2c([H])c(OC([H])([H])C3([H])C([H])([H])C([H])([H])[N+]([H])(C([H])(c4c([H])c(N([H])[H])c([H])c(N([H])C(=O)N5C([H])([H])C([H])([H])C([H])([H])C([H])(n6nc(-c7c([H])c([H])c(Oc8c([H])c([H])c(F)c([H])c8F)c([H])c7[H])c(C(=O)N([H])[H])c6N([H])[H])C5([H])[H])c4[H])C([H])([H])[H])C3([H])[H])c([H])c([H])c2C1([H])[H]

$$$$
66:0:0
     RDKit          3D

 98107  0  0  1  0  0  0  0  0999 V2000
  -27.6860  -21.0800   20.1400 C   0  0  0  0  0  0  0  0  0  0  0  0
  -29.4960  -22.5670   20.6220 C   0  0  0  0  0  0  0  0  0  0  0  0
  -26.6790  -22.2520   20.1380 C   0  0  0  0  0  2  0  0  0  0  0  0
  -27.2860  -23.6480   19.9250 C   0  0  0  0  0  2  0  0  0  0  0  0
  -28.5060  -23.8210   20.8170 C   0  0  0  0  0  3  0  0  0  0  0  0
  -29.0260  -21.2610   20.3500 N   0  0  0  0  0  0  0  0  0  0  0  0
  -27.1840  -19.9630   19.9520 O   0  0  0  0  0  0  0  0  0  0  0  0
  -30.7010  -22.7890   20.7830 O   0  0  0  0  0  0  0  0  0  0  0  0
  -30.8600  -20.2540   19.0130 C   0  0  0  0  0  3  0  0  0  0  0  0
  -29.8050  -18.6920   20.5360 C   0  0  0  0  0  3  0  0  0  0  0  0
  -31.3910  -17.8400   18.8850 C   0  0  0  0  0  0  0  0  0  0  0  0
  -29.9070  -20.0700   20.0340 C   0  0  0  0  0  0  0  0  0  0  0  0
  -31.5720  -19.1830   18.4500 C   0  0  0  0  0  0  0  0  0  0  0  0
  -30.5530  -17.5430   20.0150 C   0  0  0  0  0  0  0  0  0  0  0  0
  -32.0440  -16.7460   18.0400 C   0  0  0  0  0  1  0  0  0  0  0  0
  -31.1120  -14.9630   20.4390 C   0  0  0  0  0  0  0  0  0  0  0  0
  -30.8940  -12.6660   19.4800 C   0  0  0  0  0  2  0  0  0  0  0  0
  -30.0030  -12.7480   18.2210 C   0  0  0  0  0  2  0  0  0  0  0  0
  -28.5160  -12.6110   18.6030 C   0  0  0  0  0  2  0  0  0  0  0  0
  -28.1190  -13.5220   19.7960 C   0  0  0  0  0  3  0  0  0  0  0  0
  -29.1390  -13.4370   20.9540 C   0  0  0  0  0  2  0  0  0  0  0  0
  -30.4610  -13.7480   20.3980 N   0  0  0  0  0  0  0  0  0  0  0  0
  -32.3280  -14.9910   20.2290 O   0  0  0  0  0  0  0  0  0  0  0  0
  -30.3500  -16.1340   20.5190 N   0  0  0  0  0  0  0  0  0  0  0  0
  -29.4340  -15.9680   20.9070 H   0  0  0  0  0  0  0  0  0  0  0  0
  -25.7320  -14.1740   20.4610 C   0  0  0  0  0  0  0  0  0  0  0  0
  -24.6340  -13.4300   20.7950 C   0  0  0  0  0  0  0  0  0  0  0  0
  -25.0600  -12.0660   20.7760 C   0  0  0  0  0  0  0  0  0  0  0  0
  -26.7560  -13.2660   20.2490 N   0  0  0  0  0  0  0  0  0  0  0  0
  -26.3580  -11.9920   20.5040 N   0  0  0  0  0  0  0  0  0  0  0  0
  -24.2900  -10.8240   20.9370 C   0  0  0  0  0  0  0  0  0  0  0  0
  -24.6650   -9.8390   21.8770 C   0  0  0  0  0  3  0  0  0  0  0  0
  -23.8970   -8.6640   22.0280 C   0  0  0  0  0  3  0  0  0  0  0  0
  -22.7410   -8.4650   21.2340 C   0  0  0  0  0  0  0  0  0  0  0  0
  -22.3850   -9.4390   20.2860 C   0  0  0  0  0  3  0  0  0  0  0  0
  -23.1540  -10.6050   20.1340 C   0  0  0  0  0  3  0  0  0  0  0  0
  -21.9490   -7.3440   21.2930 O   0  0  0  0  0  0  0  0  0  0  0  0
  -21.8100   -6.6210   22.4500 C   0  0  0  0  0  0  0  0  0  0  0  0
  -21.2520   -7.1840   23.6190 C   0  0  0  0  0  3  0  0  0  0  0  0
  -21.0640   -6.3840   24.7630 C   0  0  0  0  0  3  0  0  0  0  0  0
  -21.4220   -5.0230   24.7410 C   0  0  0  0  0  0  0  0  0  0  0  0
  -21.9730   -4.4590   23.5750 C   0  0  0  0  0  3  0  0  0  0  0  0
  -22.1620   -5.2560   22.4330 C   0  0  0  0  0  0  0  0  0  0  0  0
  -22.6730   -4.7030   21.3070 F   0  0  0  0  0  0  0  0  0  0  0  0
  -21.2340   -4.2540   25.8380 F   0  0  0  0  0  0  0  0  0  0  0  0
  -23.2430  -13.9480   21.0220 C   0  0  0  0  0  0  0  0  0  0  0  0
  -22.4790  -13.2960   21.8910 N   0  0  0  0  0  0  0  0  0  0  0  0
  -22.8410  -14.9660   20.4610 O   0  0  0  0  0  0  0  0  0  0  0  0
  -22.8130  -12.4740   22.3700 H   0  0  0  0  0  0  0  0  0  0  0  0
  -21.5450  -13.6310   22.0830 H   0  0  0  0  0  0  0  0  0  0  0  0
  -25.9390  -15.5400   20.2960 N   0  0  0  0  0  0  0  0  0  0  0  0
  -25.1880  -16.2150   20.3870 H   0  0  0  0  0  0  0  0  0  0  0  0
  -26.8010  -15.9550   19.9640 H   0  0  0  0  0  0  0  0  0  0  0  0
  -32.4280  -19.5010   17.3930 N   0  0  0  0  0  0  0  0  0  0  0  0
  -32.6340  -20.4770   17.2020 H   0  0  0  0  0  0  0  0  0  0  0  0
  -33.2030  -18.8830   17.1890 H   0  0  0  0  0  0  0  0  0  0  0  0
  -28.9420  -25.3710   21.1410 C   0  0  0  0  0  2  0  0  0  0  0  0
  -28.8590  -26.6110   20.3010 O   0  0  0  0  0  0  0  0  0  0  0  0
  -24.8210  -31.8620   23.3580 C   0  0  0  0  0  0  0  0  0  0  0  0
  -27.7240  -27.4430   20.3330 C   0  0  0  0  0  0  0  0  0  0  0  0
  -23.7440  -30.4640   21.6300 C   0  0  0  0  0  3  0  0  0  0  0  0
  -25.3150  -28.9940   20.2410 C   0  0  0  0  0  0  0  0  0  0  0  0
  -26.2780  -30.8730   21.5680 C   0  0  0  0  0  2  0  0  0  0  0  0
  -26.4390  -29.5070   20.9030 C   0  0  0  0  0  0  0  0  0  0  0  0
  -27.6500  -28.7430   20.9390 C   0  0  0  0  0  3  0  0  0  0  0  0
  -26.5840  -27.0010   19.6360 C   0  0  0  0  0  3  0  0  0  0  0  0
  -25.3910  -27.7480   19.5980 C   0  0  0  0  0  3  0  0  0  0  0  0
  -24.0480  -29.8270   20.2480 C   0  0  0  0  0  2  0  0  0  0  0  0
  -24.9630  -31.0860   22.2440 N   0  0  0  0  0  0  0  0  0  0  0  0
  -23.7060  -32.0830   23.8520 O   0  0  0  0  0  0  0  0  0  0  0  0
  -23.0790  -29.4010   22.5370 C   0  0  0  0  0  0  0  0  0  0  0  0
  -21.7620  -29.1900   22.3620 N   0  0  0  0  0  0  0  0  0  0  0  0
  -23.7470  -28.7700   23.3600 O   0  0  0  0  0  0  0  0  0  0  0  0
  -21.2790  -29.7520   21.6760 H   0  0  0  0  0  0  0  0  0  0  0  0
  -18.3950  -27.9380   22.7870 C   0  0  0  0  0  0  0  0  0  0  0  0
  -20.9510  -28.2030   23.0770 C   0  0  0  0  0  3  0  0  0  0  0  0
  -21.0650  -26.8060   22.4210 C   0  0  0  0  0  2  0  0  0  0  0  0
  -19.9680  -26.5330   21.3890 C   0  0  0  0  0  2  0  0  0  0  0  0
  -18.5840  -26.6300   22.0360 C   0  0  0  0  0  2  0  0  0  0  0  0
  -19.5070  -28.6830   23.2630 C   0  0  0  0  0  0  0  0  0  0  0  0
  -19.2750  -29.9070   23.9270 C   0  0  0  0  0  3  0  0  0  0  0  0
  -17.9650  -30.3860   24.1190 C   0  0  0  0  0  3  0  0  0  0  0  0
  -16.8690  -29.6380   23.6570 C   0  0  0  0  0  3  0  0  0  0  0  0
  -17.0850  -28.4150   22.9990 C   0  0  0  0  0  3  0  0  0  0  0  0
  -26.0500  -32.5310   24.0490 C   0  0  0  0  0  3  0  0  0  0  0  0
  -26.5200  -31.7650   25.3460 C   0  0  1  0  0  0  0  0  0  0  0  0
  -25.3720  -31.4350   26.3280 C   0  0  0  0  0  1  0  0  0  0  0  0
  -27.2170  -30.4350   24.9760 C   0  0  0  0  0  1  0  0  0  0  0  0
  -27.5670  -32.6130   26.1050 C   0  0  0  0  0  1  0  0  0  0  0  0
  -25.6800  -33.9170   24.3750 N   0  0  0  0  0  0  0  0  0  0  0  0
  -26.0010  -34.9840   23.6310 C   0  0  0  0  0  0  0  0  0  0  0  0
  -26.7080  -34.9090   22.6230 O   0  0  0  0  0  0  0  0  0  0  0  0
  -25.0580  -34.0470   25.1580 H   0  0  0  0  0  0  0  0  0  0  0  0
  -24.2230  -36.7180   23.2330 C   0  0  0  0  0  1  0  0  0  0  0  0
  -25.4540  -36.3540   24.0790 C   0  0  0  0  0  3  0  0  0  0  0  0
  -27.5200  -37.3200   24.9880 C   0  0  0  0  0  1  0  0  0  0  0  0
  -26.4520  -37.4420   23.9990 N   0  0  0  0  0  0  0  0  0  0  0  0
  -26.0070  -38.3480   24.1210 H   0  0  0  0  0  0  0  0  0  0  0  0
  1  6  1  0
  2  8  2  0
  2  5  1  0
  3  1  1  0
  4  3  1  0
  4  5  1  0
  5 57  1  0
  6  2  1  0
  7  1  2  0
  9 12  1  0
 11 14  2  0
 12  6  1  0
 12 10  2  0
 13 11  1  0
 13  9  2  0
 14 24  1  0
 14 10  1  0
 15 11  1  0
 16 24  1  0
 17 22  1  0
 18 19  1  0
 18 17  1  0
 20 19  1  0
 20 29  1  0
 20 21  1  0
 22 16  1  0
 22 21  1  0
 23 16  2  0
 24 25  1  0
 26 27  2  0
 27 46  1  0
 28 27  1  0
 28 31  1  0
 29 26  1  0
 29 30  1  0
 30 28  2  0
 31 32  1  0
 32 33  2  0
 34 37  1  0
 34 33  1  0
 35 34  2  0
 36 35  1  0
 36 31  2  0
 37 38  1  0
 38 39  1  0
 39 40  2  0
 41 40  1  0
 41 45  1  0
 42 41  2  0
 43 38  2  0
 43 42  1  0
 44 43  1  0
 46 47  1  0
 47 50  1  0
 47 49  1  0
 48 46  2  0
 51 52  1  0
 51 26  1  0
 53 51  1  0
 54 13  1  0
 55 54  1  0
 56 54  1  0
 58 60  1  0
 58 57  1  0
 59 70  2  0
 60 65  1  0
 61 69  1  0
 61 71  1  0
 62 68  1  0
 62 64  1  0
 63 69  1  0
 64 65  2  0
 64 63  1  0
 66 60  2  0
 67 66  1  0
 67 62  2  0
 68 61  1  0
 69 59  1  0
 71 73  2  0
 72 71  1  0
 74 72  1  0
 75 84  2  0
 75 80  1  0
 76 72  1  0
 76 80  1  0
 77 76  1  0
 78 79  1  0
 78 77  1  0
 79 75  1  0
 80 81  2  0
 81 82  1  0
 83 82  2  0
 84 83  1  0
 85 59  1  0
 85 90  1  0
 85 86  1  0
 86 89  1  1
 86 87  1  0
 88 86  1  0
 90 93  1  0
 91 95  1  0
 91 90  1  0
 92 91  2  0
 95 94  1  0
 97 95  1  0
 97 98  1  0
 97 96  1  0
M  ISO  4  16 100  24 100  57 101  58 101
M  END
>  <TORSDO>  (67) 
F 19

>  <SCORE>  (67) 
-13.592

>  <name>  (67) 
66

>  <ligand_id>  (67) 
66

>  <original_smiles>  (67) 
[H]c1c([H])c([H])c2c(c1[H])C([H])([H])C([H])([H])C([H])([H])C2([H])N([H])C(=O)C1([H])N(C(=O)C([H])(N([H])C(=O)C([H])(N([H])C([H])([H])[H])C([H])([H])[H])C(C([H])([H])[H])(C([H])([H])[H])C([H])([H])[H])C([H])([H])c2c([H])c(OC([H])([H])C3([H])C(=O)N(c4c([H])c(N([H])[H])c(C([H])([H])[H])c(N([H])C(=O)N5C([H])([H])C([H])([H])C([H])([H])C([H])(n6nc(-c7c([H])c([H])c(Oc8c([H])c([H])c(F)c([H])c8F)c([H])c7[H])c(C(=O)N([H])[H])c6N([H])[H])C5([H])[H])c4[H])C(=O)C([H])([H])C3([H])[H])c([H])c([H])c2C1([H])[H]

>  <smiles>  (67) 
[H]c1c([H])c([H])c2c(c1[H])C([H])([H])C([H])([H])C([H])([H])C2([H])N([H])C(=O)C1([H])N(C(=O)C([H])(N([H])C(=O)C([H])(N([H])C([H])([H])[H])C([H])([H])[H])C(C([H])([H])[H])(C([H])([H])[H])C([H])([H])[H])C([H])([H])c2c([H])c(OC([H])([H])C3([H])C(=O)N(c4c([H])c(N([H])[H])c(C([H])([H])[H])c(N([H])C(=O)N5C([H])([H])C([H])([H])C([H])([H])C([H])(n6nc(-c7c([H])c([H])c(Oc8c([H])c([H])c(F)c([H])c8F)c([H])c7[H])c(C(=O)N([H])[H])c6N([H])[H])C5([H])[H])c4[H])C(=O)C([H])([H])C3([H])[H])c([H])c([H])c2C1([H])[H]

$$$$
67:0:0
     RDKit          3D

 93101  0  0  1  0  0  0  0  0999 V2000
  -29.1350  -22.4910   20.3500 C   0  0  0  0  0  0  0  0  0  0  0  0
  -29.3460  -21.4050   19.5340 N   0  0  0  0  0  0  0  0  0  0  0  0
  -29.0960  -22.3690   21.5760 O   0  0  0  0  0  0  0  0  0  0  0  0
  -29.2330  -21.5970   18.5470 H   0  0  0  0  0  0  0  0  0  0  0  0
  -30.7560  -18.1700   21.1100 C   0  0  0  0  0  3  0  0  0  0  0  0
  -30.4380  -19.5490   20.9240 C   0  0  0  0  0  3  0  0  0  0  0  0
  -29.5820  -17.5960   19.1040 C   0  0  0  0  0  3  0  0  0  0  0  0
  -30.3260  -17.1330   20.2250 C   0  0  0  0  0  0  0  0  0  0  0  0
  -29.6700  -19.9970   19.8190 C   0  0  0  0  0  0  0  0  0  0  0  0
  -29.2690  -18.9790   18.9060 C   0  0  0  0  0  0  0  0  0  0  0  0
  -28.5520  -19.3370   17.8140 F   0  0  0  0  0  0  0  0  0  0  0  0
  -31.0020  -14.7490   19.6080 C   0  0  0  0  0  0  0  0  0  0  0  0
  -30.5920  -12.5970   18.3930 C   0  0  0  0  0  2  0  0  0  0  0  0
  -29.4750  -12.7640   17.3400 C   0  0  0  0  0  2  0  0  0  0  0  0
  -28.0870  -12.5490   17.9740 C   0  0  0  0  0  2  0  0  0  0  0  0
  -27.9130  -13.3450   19.2920 C   0  0  0  0  0  3  0  0  0  0  0  0
  -29.1210  -13.1360   20.2260 C   0  0  0  0  0  2  0  0  0  0  0  0
  -30.3340  -13.5480   19.5000 N   0  0  0  0  0  0  0  0  0  0  0  0
  -31.9850  -14.9770   18.8930 O   0  0  0  0  0  0  0  0  0  0  0  0
  -30.5630  -15.6950   20.5210 N   0  0  0  0  0  0  0  0  0  0  0  0
  -25.6990  -13.8810   20.4800 C   0  0  0  0  0  0  0  0  0  0  0  0
  -24.6810  -13.0820   20.9270 C   0  0  0  0  0  0  0  0  0  0  0  0
  -25.0820  -11.7400   20.6480 C   0  0  0  0  0  0  0  0  0  0  0  0
  -26.6550  -13.0230   19.9610 N   0  0  0  0  0  0  0  0  0  0  0  0
  -26.2990  -11.7230   20.1200 N   0  0  0  0  0  0  0  0  0  0  0  0
  -24.3520  -10.4750   20.8000 C   0  0  0  0  0  0  0  0  0  0  0  0
  -24.8300   -9.4420   21.6370 C   0  0  0  0  0  3  0  0  0  0  0  0
  -24.1010   -8.2410   21.7810 C   0  0  0  0  0  3  0  0  0  0  0  0
  -22.8790   -8.0660   21.0900 C   0  0  0  0  0  0  0  0  0  0  0  0
  -22.4190   -9.0890   20.2400 C   0  0  0  0  0  3  0  0  0  0  0  0
  -23.1490  -10.2800   20.0930 C   0  0  0  0  0  3  0  0  0  0  0  0
  -22.1150   -6.9260   21.1490 O   0  0  0  0  0  0  0  0  0  0  0  0
  -22.0340   -6.1730   22.2930 C   0  0  0  0  0  0  0  0  0  0  0  0
  -21.5940   -6.7250   23.5170 C   0  0  0  0  0  3  0  0  0  0  0  0
  -21.4580   -5.9000   24.6510 C   0  0  0  0  0  3  0  0  0  0  0  0
  -21.7500   -4.5250   24.5630 C   0  0  0  0  0  0  0  0  0  0  0  0
  -22.1820   -3.9740   23.3440 C   0  0  0  0  0  3  0  0  0  0  0  0
  -22.3200   -4.7950   22.2120 C   0  0  0  0  0  0  0  0  0  0  0  0
  -22.7160   -4.2560   21.0340 F   0  0  0  0  0  0  0  0  0  0  0  0
  -21.6130   -3.7310   25.6510 F   0  0  0  0  0  0  0  0  0  0  0  0
  -23.3680  -13.5420   21.4920 C   0  0  0  0  0  0  0  0  0  0  0  0
  -22.7870  -12.7640   22.4000 N   0  0  0  0  0  0  0  0  0  0  0  0
  -22.8740  -14.6200   21.1680 O   0  0  0  0  0  0  0  0  0  0  0  0
  -23.2020  -11.8890   22.6820 H   0  0  0  0  0  0  0  0  0  0  0  0
  -21.9150  -13.0510   22.8230 H   0  0  0  0  0  0  0  0  0  0  0  0
  -25.8830  -15.2610   20.4530 N   0  0  0  0  0  0  0  0  0  0  0  0
  -25.1750  -15.9090   20.7840 H   0  0  0  0  0  0  0  0  0  0  0  0
  -26.6930  -15.7250   20.0650 H   0  0  0  0  0  0  0  0  0  0  0  0
  -29.7590  -15.8370   22.9190 C   0  0  0  0  0  1  0  0  0  0  0  0
  -30.8400  -15.3420   21.9330 C   0  0  0  0  0  2  0  0  0  0  0  0
  -28.9360  -23.9400   19.7250 C   0  0  0  0  0  2  0  0  0  0  0  0
  -28.2820  -25.0960   20.6180 C   0  0  0  0  0  2  0  0  0  0  0  0
  -28.4950  -26.5270   20.2710 O   0  0  0  0  0  0  0  0  0  0  0  0
  -24.7250  -31.9750   23.1700 C   0  0  0  0  0  0  0  0  0  0  0  0
  -27.3780  -27.3730   20.2320 C   0  0  0  0  0  0  0  0  0  0  0  0
  -23.5470  -30.5590   21.5250 C   0  0  0  0  0  3  0  0  0  0  0  0
  -25.0190  -28.9820   20.1520 C   0  0  0  0  0  0  0  0  0  0  0  0
  -26.0890  -30.8700   21.3840 C   0  0  0  0  0  2  0  0  0  0  0  0
  -26.1780  -29.4830   20.7590 C   0  0  0  0  0  0  0  0  0  0  0  0
  -27.3650  -28.6910   20.7840 C   0  0  0  0  0  3  0  0  0  0  0  0
  -26.2020  -26.9220   19.5990 C   0  0  0  0  0  3  0  0  0  0  0  0
  -25.0330  -27.7080   19.5610 C   0  0  0  0  0  3  0  0  0  0  0  0
  -23.7840  -29.8610   20.1600 C   0  0  0  0  0  2  0  0  0  0  0  0
  -24.8050  -31.1520   22.0840 N   0  0  0  0  0  0  0  0  0  0  0  0
  -23.6320  -32.2640   23.6800 O   0  0  0  0  0  0  0  0  0  0  0  0
  -22.8620  -29.5590   22.4870 C   0  0  0  0  0  0  0  0  0  0  0  0
  -21.5360  -29.3920   22.3420 N   0  0  0  0  0  0  0  0  0  0  0  0
  -23.5230  -28.9350   23.3220 O   0  0  0  0  0  0  0  0  0  0  0  0
  -21.0640  -29.9450   21.6420 H   0  0  0  0  0  0  0  0  0  0  0  0
  -18.1410  -28.2330   22.8020 C   0  0  0  0  0  0  0  0  0  0  0  0
  -20.6980  -28.4700   23.1100 C   0  0  0  0  0  3  0  0  0  0  0  0
  -20.7940  -27.0320   22.5500 C   0  0  0  0  0  2  0  0  0  0  0  0
  -19.7050  -26.7090   21.5230 C   0  0  0  0  0  2  0  0  0  0  0  0
  -18.3150  -26.8740   22.1440 C   0  0  0  0  0  2  0  0  0  0  0  0
  -19.2600  -28.9880   23.2420 C   0  0  0  0  0  0  0  0  0  0  0  0
  -19.0440  -30.2600   23.8170 C   0  0  0  0  0  3  0  0  0  0  0  0
  -17.7410  -30.7750   23.9570 C   0  0  0  0  0  3  0  0  0  0  0  0
  -16.6360  -30.0160   23.5350 C   0  0  0  0  0  3  0  0  0  0  0  0
  -16.8380  -28.7470   22.9620 C   0  0  0  0  0  3  0  0  0  0  0  0
  -25.9980  -32.6110   23.8090 C   0  0  0  0  0  3  0  0  0  0  0  0
  -26.5230  -31.8180   25.0680 C   0  0  1  0  0  0  0  0  0  0  0  0
  -25.4230  -31.5080   26.1100 C   0  0  0  0  0  1  0  0  0  0  0  0
  -27.1590  -30.4740   24.6410 C   0  0  0  0  0  1  0  0  0  0  0  0
  -27.6350  -32.6280   25.7730 C   0  0  0  0  0  1  0  0  0  0  0  0
  -25.6690  -33.9970   24.1720 N   0  0  0  0  0  0  0  0  0  0  0  0
  -25.9830  -35.0710   23.4360 C   0  0  0  0  0  0  0  0  0  0  0  0
  -26.6490  -35.0010   22.4010 O   0  0  0  0  0  0  0  0  0  0  0  0
  -25.0760  -34.1240   24.9800 H   0  0  0  0  0  0  0  0  0  0  0  0
  -24.2250  -36.8450   23.1330 C   0  0  0  0  0  1  0  0  0  0  0  0
  -25.4770  -36.4420   23.9280 C   0  0  0  0  0  3  0  0  0  0  0  0
  -27.6060  -37.3380   24.7620 C   0  0  0  0  0  1  0  0  0  0  0  0
  -26.4930  -37.5130   23.8320 N   0  0  0  0  0  0  0  0  0  0  0  0
  -26.0760  -38.4230   24.0040 H   0  0  0  0  0  0  0  0  0  0  0  0
  1  3  2  0
  2  9  1  0
  2  1  1  0
  4  2  1  0
  6  5  1  0
  7  8  1  0
  8 20  1  0
  8  5  2  0
  9  6  2  0
 10  7  2  0
 10  9  1  0
 11 10  1  0
 12 20  1  0
 13 18  1  0
 14 15  1  0
 14 13  1  0
 16 15  1  0
 16 24  1  0
 16 17  1  0
 18 12  1  0
 18 17  1  0
 19 12  2  0
 20 50  1  0
 21 22  2  0
 22 41  1  0
 23 26  1  0
 23 22  1  0
 24 25  1  0
 24 21  1  0
 25 23  2  0
 26 27  1  0
 27 28  2  0
 29 32  1  0
 29 28  1  0
 30 29  2  0
 31 30  1  0
 31 26  2  0
 32 33  1  0
 33 34  1  0
 34 35  2  0
 36 35  1  0
 36 40  1  0
 37 36  2  0
 38 33  2  0
 38 37  1  0
 39 38  1  0
 41 42  1  0
 42 44  1  0
 42 45  1  0
 43 41  2  0
 46 21  1  0
 46 47  1  0
 48 46  1  0
 50 49  1  0
 51  1  1  0
 51 52  1  0
 53 52  1  0
 54 65  2  0
 55 53  1  0
 55 60  1  0
 56 64  1  0
 56 66  1  0
 57 63  1  0
 57 59  1  0
 58 64  1  0
 59 60  2  0
 59 58  1  0
 61 55  2  0
 62 61  1  0
 62 57  2  0
 63 56  1  0
 64 54  1  0
 66 68  2  0
 67 66  1  0
 69 67  1  0
 70 79  2  0
 70 75  1  0
 71 67  1  0
 71 75  1  0
 72 71  1  0
 73 74  1  0
 73 72  1  0
 74 70  1  0
 75 76  2  0
 76 77  1  0
 78 77  2  0
 79 78  1  0
 80 54  1  0
 80 85  1  0
 80 81  1  0
 81 84  1  1
 81 82  1  0
 83 81  1  0
 85 88  1  0
 86 90  1  0
 86 85  1  0
 87 86  2  0
 90 89  1  0
 92 90  1  0
 92 93  1  0
 92 91  1  0
M  ISO  4  12 100  20 100  52 101  53 101
M  END
>  <TORSDO>  (68) 
F 20

>  <SCORE>  (68) 
-9.703

>  <name>  (68) 
67

>  <ligand_id>  (68) 
67

>  <original_smiles>  (68) 
[H]c1c([H])c([H])c2c(c1[H])C([H])([H])C([H])([H])C([H])([H])C2([H])N([H])C(=O)C1([H])N(C(=O)C([H])(N([H])C(=O)C([H])(N([H])C([H])([H])[H])C([H])([H])[H])C(C([H])([H])[H])(C([H])([H])[H])C([H])([H])[H])C([H])([H])c2c([H])c(OC([H])([H])C([H])([H])C(=O)N([H])c3c([H])c([H])c(N(C(=O)N4C([H])([H])C([H])([H])C([H])([H])C([H])(n5nc(-c6c([H])c([H])c(Oc7c([H])c([H])c(F)c([H])c7F)c([H])c6[H])c(C(=O)N([H])[H])c5N([H])[H])C4([H])[H])C([H])([H])C([H])([H])[H])c([H])c3F)c([H])c([H])c2C1([H])[H]

>  <smiles>  (68) 
[H]c1c([H])c([H])c2c(c1[H])C([H])([H])C([H])([H])C([H])([H])C2([H])N([H])C(=O)C1([H])N(C(=O)C([H])(N([H])C(=O)C([H])(N([H])C([H])([H])[H])C([H])([H])[H])C(C([H])([H])[H])(C([H])([H])[H])C([H])([H])[H])C([H])([H])c2c([H])c(OC([H])([H])C([H])([H])C(=O)N([H])c3c([H])c([H])c(N(C(=O)N4C([H])([H])C([H])([H])C([H])([H])C([H])(n5nc(-c6c([H])c([H])c(Oc7c([H])c([H])c(F)c([H])c7F)c([H])c6[H])c(C(=O)N([H])[H])c5N([H])[H])C4([H])[H])C([H])([H])C([H])([H])[H])c([H])c3F)c([H])c([H])c2C1([H])[H]

$$$$
68:0:0
     RDKit          3D

 94102  0  0  1  0  0  0  0  0999 V2000
  -30.7050  -20.1210   21.4680 C   0  0  0  0  0  3  0  0  0  0  0  0
  -29.2710  -18.5250   20.3160 C   0  0  0  0  0  3  0  0  0  0  0  0
  -31.1670  -17.7000   21.5910 C   0  0  0  0  0  3  0  0  0  0  0  0
  -29.5760  -19.9160   20.6440 C   0  0  0  0  0  0  0  0  0  0  0  0
  -31.4770  -19.0360   21.9370 C   0  0  0  0  0  0  0  0  0  0  0  0
  -30.0590  -17.3860   20.7710 C   0  0  0  0  0  0  0  0  0  0  0  0
  -30.5350  -14.8360   20.3230 C   0  0  0  0  0  0  0  0  0  0  0  0
  -30.3470  -12.5760   19.2560 C   0  0  0  0  0  2  0  0  0  0  0  0
  -29.3940  -12.6700   18.0460 C   0  0  0  0  0  2  0  0  0  0  0  0
  -27.9290  -12.4780   18.4890 C   0  0  0  0  0  2  0  0  0  0  0  0
  -27.5640  -13.3390   19.7260 C   0  0  0  0  0  3  0  0  0  0  0  0
  -28.6350  -13.2320   20.8320 C   0  0  0  0  0  2  0  0  0  0  0  0
  -29.9180  -13.6090   20.2260 N   0  0  0  0  0  0  0  0  0  0  0  0
  -31.7240  -14.9460   20.0050 O   0  0  0  0  0  0  0  0  0  0  0  0
  -29.7310  -15.9570   20.5100 N   0  0  0  0  0  0  0  0  0  0  0  0
  -28.7440  -15.7490   20.4970 H   0  0  0  0  0  0  0  0  0  0  0  0
  -25.1770  -13.9120   20.4680 C   0  0  0  0  0  0  0  0  0  0  0  0
  -24.1220  -13.1290   20.8500 C   0  0  0  0  0  0  0  0  0  0  0  0
  -24.6000  -11.7820   20.8230 C   0  0  0  0  0  0  0  0  0  0  0  0
  -26.2270  -13.0420   20.2270 N   0  0  0  0  0  0  0  0  0  0  0  0
  -25.8880  -11.7570   20.5010 N   0  0  0  0  0  0  0  0  0  0  0  0
  -23.8880  -10.5130   21.0220 C   0  0  0  0  0  0  0  0  0  0  0  0
  -24.3360   -9.5500   21.9530 C   0  0  0  0  0  3  0  0  0  0  0  0
  -23.6200   -8.3470   22.1390 C   0  0  0  0  0  3  0  0  0  0  0  0
  -22.4430   -8.0980   21.3930 C   0  0  0  0  0  0  0  0  0  0  0  0
  -22.0140   -9.0490   20.4490 C   0  0  0  0  0  3  0  0  0  0  0  0
  -22.7320  -10.2440   20.2610 C   0  0  0  0  0  3  0  0  0  0  0  0
  -21.6980   -6.9470   21.4880 O   0  0  0  0  0  0  0  0  0  0  0  0
  -21.6620   -6.2040   22.6410 C   0  0  0  0  0  0  0  0  0  0  0  0
  -21.2390   -6.7570   23.8690 C   0  0  0  0  0  3  0  0  0  0  0  0
  -21.1540   -5.9430   25.0150 C   0  0  0  0  0  3  0  0  0  0  0  0
  -21.4840   -4.5770   24.9320 C   0  0  0  0  0  0  0  0  0  0  0  0
  -21.9020   -4.0240   23.7090 C   0  0  0  0  0  3  0  0  0  0  0  0
  -21.9890   -4.8350   22.5660 C   0  0  0  0  0  0  0  0  0  0  0  0
  -22.3730   -4.2940   21.3840 F   0  0  0  0  0  0  0  0  0  0  0  0
  -21.3930   -3.7900   26.0310 F   0  0  0  0  0  0  0  0  0  0  0  0
  -22.7220  -13.5920   21.1280 C   0  0  0  0  0  0  0  0  0  0  0  0
  -22.0050  -12.8900   21.9970 N   0  0  0  0  0  0  0  0  0  0  0  0
  -22.2710  -14.6120   20.6090 O   0  0  0  0  0  0  0  0  0  0  0  0
  -22.3810  -12.0650   22.4390 H   0  0  0  0  0  0  0  0  0  0  0  0
  -21.0660  -13.1840   22.2280 H   0  0  0  0  0  0  0  0  0  0  0  0
  -25.3230  -15.2840   20.2820 N   0  0  0  0  0  0  0  0  0  0  0  0
  -24.5410  -15.9230   20.3800 H   0  0  0  0  0  0  0  0  0  0  0  0
  -26.1500  -15.7310   19.9090 H   0  0  0  0  0  0  0  0  0  0  0  0
  -28.8260  -21.1530   20.0490 C   0  0  0  0  0  0  0  0  0  0  0  0
  -28.9190  -22.4310   20.5880 N   0  0  0  0  0  0  0  0  0  0  0  0
  -28.1440  -20.9690   19.0410 O   0  0  0  0  0  0  0  0  0  0  0  0
  -29.4490  -22.5040   21.4460 H   0  0  0  0  0  0  0  0  0  0  0  0
  -28.4970  -23.7630   19.9420 C   0  0  0  0  0  2  0  0  0  0  0  0
  -28.2490  -25.1080   20.8220 C   0  0  0  0  0  2  0  0  0  0  0  0
  -28.3320  -26.4990   20.2490 O   0  0  0  0  0  0  0  0  0  0  0  0
  -24.5940  -31.9600   23.2610 C   0  0  0  0  0  0  0  0  0  0  0  0
  -27.2130  -27.3570   20.2500 C   0  0  0  0  0  0  0  0  0  0  0  0
  -23.3910  -30.5510   21.6250 C   0  0  0  0  0  3  0  0  0  0  0  0
  -24.8470  -28.9840   20.2100 C   0  0  0  0  0  0  0  0  0  0  0  0
  -25.9300  -30.8640   21.4420 C   0  0  0  0  0  2  0  0  0  0  0  0
  -26.0160  -29.4770   20.8080 C   0  0  0  0  0  0  0  0  0  0  0  0
  -27.2010  -28.6770   20.8120 C   0  0  0  0  0  3  0  0  0  0  0  0
  -26.0260  -26.9210   19.6280 C   0  0  0  0  0  3  0  0  0  0  0  0
  -24.8570  -27.7130   19.6070 C   0  0  0  0  0  3  0  0  0  0  0  0
  -23.6090  -29.8620   20.2510 C   0  0  0  0  0  2  0  0  0  0  0  0
  -24.6570  -31.1450   22.1660 N   0  0  0  0  0  0  0  0  0  0  0  0
  -23.5100  -32.2370   23.7960 O   0  0  0  0  0  0  0  0  0  0  0  0
  -22.7260  -29.5420   22.5930 C   0  0  0  0  0  0  0  0  0  0  0  0
  -21.4020  -29.3520   22.4600 N   0  0  0  0  0  0  0  0  0  0  0  0
  -23.4050  -28.9270   23.4230 O   0  0  0  0  0  0  0  0  0  0  0  0
  -20.9110  -29.9000   21.7660 H   0  0  0  0  0  0  0  0  0  0  0  0
  -18.0350  -28.1250   22.9470 C   0  0  0  0  0  0  0  0  0  0  0  0
  -20.5890  -28.4150   23.2360 C   0  0  0  0  0  3  0  0  0  0  0  0
  -20.7100  -26.9790   22.6770 C   0  0  0  0  0  2  0  0  0  0  0  0
  -19.6210  -26.6330   21.6560 C   0  0  0  0  0  2  0  0  0  0  0  0
  -18.2310  -26.7710   22.2870 C   0  0  0  0  0  2  0  0  0  0  0  0
  -19.1420  -28.9040   23.3780 C   0  0  0  0  0  0  0  0  0  0  0  0
  -18.9040  -30.1700   23.9550 C   0  0  0  0  0  3  0  0  0  0  0  0
  -17.5920  -30.6590   24.1070 C   0  0  0  0  0  3  0  0  0  0  0  0
  -16.5010  -29.8770   23.6940 C   0  0  0  0  0  3  0  0  0  0  0  0
  -16.7220  -28.6130   23.1180 C   0  0  0  0  0  3  0  0  0  0  0  0
  -25.8760  -32.5970   23.8800 C   0  0  0  0  0  3  0  0  0  0  0  0
  -26.3880  -31.8360   25.1640 C   0  0  1  0  0  0  0  0  0  0  0  0
  -25.2940  -31.6100   26.2330 C   0  0  0  0  0  1  0  0  0  0  0  0
  -26.9700  -30.4540   24.7880 C   0  0  0  0  0  1  0  0  0  0  0  0
  -27.5390  -32.6340   25.8220 C   0  0  0  0  0  1  0  0  0  0  0  0
  -25.5680  -33.9980   24.1990 N   0  0  0  0  0  0  0  0  0  0  0  0
  -25.9070  -35.0460   23.4350 C   0  0  0  0  0  0  0  0  0  0  0  0
  -26.5790  -34.9340   22.4070 O   0  0  0  0  0  0  0  0  0  0  0  0
  -24.9770  -34.1610   25.0000 H   0  0  0  0  0  0  0  0  0  0  0  0
  -24.1910  -36.8460   23.0560 C   0  0  0  0  0  1  0  0  0  0  0  0
  -25.4220  -36.4400   23.8810 C   0  0  0  0  0  3  0  0  0  0  0  0
  -27.5500  -37.3210   24.7290 C   0  0  0  0  0  1  0  0  0  0  0  0
  -26.4600  -37.4880   23.7720 N   0  0  0  0  0  0  0  0  0  0  0  0
  -26.0570  -38.4110   23.9100 H   0  0  0  0  0  0  0  0  0  0  0  0
  -32.5740  -19.2960   22.7540 N   0  0  0  0  0  0  0  0  0  0  0  0
  -32.6730  -20.2090   23.1910 H   0  0  0  0  0  0  0  0  0  0  0  0
  -32.9860  -18.5430   23.2980 H   0  0  0  0  0  0  0  0  0  0  0  0
  1  5  1  0
  2  4  1  0
  2  6  2  0
  3  5  2  0
  4  1  2  0
  5 92  1  0
  6  3  1  0
  7 15  1  0
  8 13  1  0
  9 10  1  0
  9  8  1  0
 11 10  1  0
 11 20  1  0
 11 12  1  0
 13  7  1  0
 13 12  1  0
 14  7  2  0
 15  6  1  0
 16 15  1  0
 17 18  2  0
 18 37  1  0
 19 18  1  0
 19 22  1  0
 20 17  1  0
 20 21  1  0
 21 19  2  0
 22 23  1  0
 23 24  2  0
 25 28  1  0
 25 24  1  0
 26 25  2  0
 27 26  1  0
 27 22  2  0
 28 29  1  0
 29 30  1  0
 30 31  2  0
 32 31  1  0
 32 36  1  0
 33 32  2  0
 34 29  2  0
 34 33  1  0
 35 34  1  0
 37 38  1  0
 38 41  1  0
 38 40  1  0
 39 37  2  0
 42 43  1  0
 42 17  1  0
 44 42  1  0
 45 46  1  0
 45  4  1  0
 46 48  1  0
 47 45  2  0
 49 46  1  0
 49 50  1  0
 51 53  1  0
 51 50  1  0
 52 63  2  0
 53 58  1  0
 54 62  1  0
 54 64  1  0
 55 61  1  0
 55 57  1  0
 56 62  1  0
 57 58  2  0
 57 56  1  0
 59 53  2  0
 60 59  1  0
 60 55  2  0
 61 54  1  0
 62 52  1  0
 64 66  2  0
 65 64  1  0
 67 65  1  0
 68 77  2  0
 68 73  1  0
 69 65  1  0
 69 73  1  0
 70 69  1  0
 71 72  1  0
 71 70  1  0
 72 68  1  0
 73 74  2  0
 74 75  1  0
 76 75  2  0
 77 76  1  0
 78 52  1  0
 78 83  1  0
 78 79  1  0
 79 82  1  1
 79 80  1  0
 81 79  1  0
 83 86  1  0
 84 88  1  0
 84 83  1  0
 85 84  2  0
 88 87  1  0
 90 88  1  0
 90 91  1  0
 90 89  1  0
 92 93  1  0
 92 94  1  0
M  ISO  4   7 100  15 100  50 101  51 101
M  END
>  <TORSDO>  (69) 
F 20

>  <SCORE>  (69) 
-14.098

>  <name>  (69) 
68

>  <ligand_id>  (69) 
68

>  <original_smiles>  (69) 
[H]c1c([H])c([H])c2c(c1[H])C([H])([H])C([H])([H])C([H])([H])C2([H])N([H])C(=O)C1([H])N(C(=O)C([H])(N([H])C(=O)C([H])(N([H])C([H])([H])[H])C([H])([H])[H])C(C([H])([H])[H])(C([H])([H])[H])C([H])([H])[H])C([H])([H])c2c([H])c(OC([H])([H])C([H])([H])N([H])C(=O)c3c([H])c(N([H])[H])c([H])c(N([H])C(=O)N4C([H])([H])C([H])([H])C([H])([H])C([H])(n5nc(-c6c([H])c([H])c(Oc7c([H])c([H])c(F)c([H])c7F)c([H])c6[H])c(C(=O)N([H])[H])c5N([H])[H])C4([H])[H])c3[H])c([H])c([H])c2C1([H])[H]

>  <smiles>  (69) 
[H]c1c([H])c([H])c2c(c1[H])C([H])([H])C([H])([H])C([H])([H])C2([H])N([H])C(=O)C1([H])N(C(=O)C([H])(N([H])C(=O)C([H])(N([H])C([H])([H])[H])C([H])([H])[H])C(C([H])([H])[H])(C([H])([H])[H])C([H])([H])[H])C([H])([H])c2c([H])c(OC([H])([H])C([H])([H])N([H])C(=O)c3c([H])c(N([H])[H])c([H])c(N([H])C(=O)N4C([H])([H])C([H])([H])C([H])([H])C([H])(n5nc(-c6c([H])c([H])c(Oc7c([H])c([H])c(F)c([H])c7F)c([H])c6[H])c(C(=O)N([H])[H])c5N([H])[H])C4([H])[H])c3[H])c([H])c([H])c2C1([H])[H]

$$$$
69:0:0
     RDKit          3D

 93101  0  0  1  0  0  0  0  0999 V2000
  -30.2150  -21.7960   20.7030 C   0  0  0  0  0  2  0  0  0  0  0  0
  -31.2120  -19.4160   20.4850 C   0  0  0  0  0  3  0  0  0  0  0  0
  -31.1340  -18.0010   20.3990 C   0  0  0  0  0  3  0  0  0  0  0  0
  -28.7430  -18.1400   20.1970 C   0  0  0  0  0  3  0  0  0  0  0  0
  -30.0660  -20.2470   20.4260 C   0  0  0  0  0  0  0  0  0  0  0  0
  -29.8980  -17.3180   20.2400 C   0  0  0  0  0  0  0  0  0  0  0  0
  -28.8080  -19.5780   20.2870 C   0  0  0  0  0  0  0  0  0  0  0  0
  -30.6570  -14.8790   20.2950 C   0  0  0  0  0  0  0  0  0  0  0  0
  -30.5480  -12.5060   19.5610 C   0  0  0  0  0  2  0  0  0  0  0  0
  -29.6510  -12.3830   18.3120 C   0  0  0  0  0  2  0  0  0  0  0  0
  -28.1560  -12.2850   18.7040 C   0  0  0  0  0  2  0  0  0  0  0  0
  -27.7210  -13.2570   19.8410 C   0  0  0  0  0  3  0  0  0  0  0  0
  -28.7640  -13.3320   20.9760 C   0  0  0  0  0  2  0  0  0  0  0  0
  -30.0570  -13.6450   20.3580 N   0  0  0  0  0  0  0  0  0  0  0  0
  -31.8810  -14.9730   20.1690 O   0  0  0  0  0  0  0  0  0  0  0  0
  -29.6800  -15.8640   18.3500 C   0  0  0  0  0  1  0  0  0  0  0  0
  -29.8720  -15.9170   19.8130 N   0  0  0  0  0  0  0  0  0  0  0  0
  -25.3340  -13.8280   20.5850 C   0  0  0  0  0  0  0  0  0  0  0  0
  -24.2710  -13.0420   20.9350 C   0  0  0  0  0  0  0  0  0  0  0  0
  -24.7430  -11.6940   20.8790 C   0  0  0  0  0  0  0  0  0  0  0  0
  -26.3830  -12.9570   20.3340 N   0  0  0  0  0  0  0  0  0  0  0  0
  -26.0340  -11.6680   20.5760 N   0  0  0  0  0  0  0  0  0  0  0  0
  -24.0270  -10.4240   21.0400 C   0  0  0  0  0  0  0  0  0  0  0  0
  -24.4550   -9.4460   21.9640 C   0  0  0  0  0  3  0  0  0  0  0  0
  -23.7380   -8.2410   22.1100 C   0  0  0  0  0  3  0  0  0  0  0  0
  -22.5780   -8.0040   21.3340 C   0  0  0  0  0  0  0  0  0  0  0  0
  -22.1730   -8.9720   20.3980 C   0  0  0  0  0  3  0  0  0  0  0  0
  -22.8910  -10.1690   20.2470 C   0  0  0  0  0  3  0  0  0  0  0  0
  -21.8310   -6.8530   21.3970 O   0  0  0  0  0  0  0  0  0  0  0  0
  -21.7070   -6.1370   22.5620 C   0  0  0  0  0  0  0  0  0  0  0  0
  -21.1840   -6.7120   23.7420 C   0  0  0  0  0  3  0  0  0  0  0  0
  -21.0100   -5.9180   24.8930 C   0  0  0  0  0  3  0  0  0  0  0  0
  -21.3510   -4.5520   24.8660 C   0  0  0  0  0  0  0  0  0  0  0  0
  -21.8680   -3.9790   23.6920 C   0  0  0  0  0  3  0  0  0  0  0  0
  -22.0420   -4.7680   22.5420 C   0  0  0  0  0  0  0  0  0  0  0  0
  -22.5200   -4.2040   21.4060 F   0  0  0  0  0  0  0  0  0  0  0  0
  -21.1780   -3.7880   25.9700 F   0  0  0  0  0  0  0  0  0  0  0  0
  -22.8710  -13.5030   21.2070 C   0  0  0  0  0  0  0  0  0  0  0  0
  -22.1570  -12.8120   22.0900 N   0  0  0  0  0  0  0  0  0  0  0  0
  -22.4140  -14.5130   20.6690 O   0  0  0  0  0  0  0  0  0  0  0  0
  -22.5330  -11.9930   22.5450 H   0  0  0  0  0  0  0  0  0  0  0  0
  -21.2170  -13.1020   22.3150 H   0  0  0  0  0  0  0  0  0  0  0  0
  -25.4920  -15.2050   20.4340 N   0  0  0  0  0  0  0  0  0  0  0  0
  -24.7190  -15.8530   20.5430 H   0  0  0  0  0  0  0  0  0  0  0  0
  -26.3460  -15.6550   20.1270 H   0  0  0  0  0  0  0  0  0  0  0  0
  -26.5610  -19.9100   19.4850 C   0  0  0  0  0  1  0  0  0  0  0  0
  -27.6810  -20.3750   20.2360 O   0  0  0  0  0  0  0  0  0  0  0  0
  -29.6970  -24.2180   20.0210 C   0  0  0  0  0  0  0  0  0  0  0  0
  -29.5760  -22.8580   19.8450 N   0  0  0  0  0  0  0  0  0  0  0  0
  -30.4910  -24.6730   20.8480 O   0  0  0  0  0  0  0  0  0  0  0  0
  -28.9300  -22.5340   19.1400 H   0  0  0  0  0  0  0  0  0  0  0  0
  -28.8000  -25.2310   19.2020 C   0  0  0  0  0  2  0  0  0  0  0  0
  -28.9120  -26.6760   19.5480 O   0  0  0  0  0  0  0  0  0  0  0  0
  -24.6160  -31.3810   22.9220 C   0  0  0  0  0  0  0  0  0  0  0  0
  -27.7330  -27.4420   19.5080 C   0  0  0  0  0  0  0  0  0  0  0  0
  -23.5980  -30.0700   21.0950 C   0  0  0  0  0  3  0  0  0  0  0  0
  -25.2300  -28.8320   19.5650 C   0  0  0  0  0  0  0  0  0  0  0  0
  -26.1000  -30.6370   21.0490 C   0  0  0  0  0  2  0  0  0  0  0  0
  -26.3280  -29.3520   20.2600 C   0  0  0  0  0  0  0  0  0  0  0  0
  -27.5810  -28.6700   20.2250 C   0  0  0  0  0  3  0  0  0  0  0  0
  -26.6120  -26.9910   18.7710 C   0  0  0  0  0  3  0  0  0  0  0  0
  -25.3750  -27.6600   18.8070 C   0  0  0  0  0  3  0  0  0  0  0  0
  -23.9150  -29.5780   19.6580 C   0  0  0  0  0  2  0  0  0  0  0  0
  -24.7870  -30.7080   21.7470 N   0  0  0  0  0  0  0  0  0  0  0  0
  -23.4970  -31.4990   23.4400 O   0  0  0  0  0  0  0  0  0  0  0  0
  -23.0090  -28.8970   21.9130 C   0  0  0  0  0  0  0  0  0  0  0  0
  -21.7000  -28.6410   21.7460 N   0  0  0  0  0  0  0  0  0  0  0  0
  -23.7270  -28.2260   22.6590 O   0  0  0  0  0  0  0  0  0  0  0  0
  -21.1770  -29.2400   21.1230 H   0  0  0  0  0  0  0  0  0  0  0  0
  -18.4010  -27.2050   22.1190 C   0  0  0  0  0  0  0  0  0  0  0  0
  -20.9480  -27.5600   22.3860 C   0  0  0  0  0  3  0  0  0  0  0  0
  -21.1110  -26.2340   21.6100 C   0  0  0  0  0  2  0  0  0  0  0  0
  -20.0040  -26.0010   20.5770 C   0  0  0  0  0  2  0  0  0  0  0  0
  -18.6300  -25.9770   21.2540 C   0  0  0  0  0  2  0  0  0  0  0  0
  -19.4870  -27.9570   22.6380 C   0  0  0  0  0  0  0  0  0  0  0  0
  -19.2200  -29.1070   23.4100 C   0  0  0  0  0  3  0  0  0  0  0  0
  -17.8950  -29.5090   23.6670 C   0  0  0  0  0  3  0  0  0  0  0  0
  -16.8220  -28.7540   23.1620 C   0  0  0  0  0  3  0  0  0  0  0  0
  -17.0750  -27.6020   22.3950 C   0  0  0  0  0  3  0  0  0  0  0  0
  -25.8160  -32.0550   23.6570 C   0  0  0  0  0  3  0  0  0  0  0  0
  -26.2940  -31.2540   24.9290 C   0  0  1  0  0  0  0  0  0  0  0  0
  -25.1510  -30.9090   25.9130 C   0  0  0  0  0  1  0  0  0  0  0  0
  -26.9770  -29.9280   24.5200 C   0  0  0  0  0  1  0  0  0  0  0  0
  -27.3540  -32.0780   25.6990 C   0  0  0  0  0  1  0  0  0  0  0  0
  -25.4030  -33.4180   24.0260 N   0  0  0  0  0  0  0  0  0  0  0  0
  -25.7280  -34.5220   23.3420 C   0  0  0  0  0  0  0  0  0  0  0  0
  -26.4760  -34.5070   22.3610 O   0  0  0  0  0  0  0  0  0  0  0  0
  -24.7470  -33.5000   24.7880 H   0  0  0  0  0  0  0  0  0  0  0  0
  -23.9260  -36.2320   22.9440 C   0  0  0  0  0  1  0  0  0  0  0  0
  -25.1280  -35.8580   23.8240 C   0  0  0  0  0  3  0  0  0  0  0  0
  -27.1370  -36.8230   24.8550 C   0  0  0  0  0  1  0  0  0  0  0  0
  -26.1010  -36.9710   23.8360 N   0  0  0  0  0  0  0  0  0  0  0  0
  -25.6310  -37.8590   23.9890 H   0  0  0  0  0  0  0  0  0  0  0  0
  3  2  2  0
  4  6  2  0
  4  7  1  0
  5  2  1  0
  5  1  1  0
  6  3  1  0
  7  5  2  0
  8 14  1  0
  9 14  1  0
 10 11  1  0
 10  9  1  0
 12 11  1  0
 12 21  1  0
 12 13  1  0
 14 13  1  0
 15  8  2  0
 16 17  1  0
 17  6  1  0
 17  8  1  0
 18 19  2  0
 19 38  1  0
 20 19  1  0
 20 23  1  0
 21 22  1  0
 21 18  1  0
 22 20  2  0
 23 24  1  0
 24 25  2  0
 26 29  1  0
 26 25  1  0
 27 26  2  0
 28 27  1  0
 28 23  2  0
 29 30  1  0
 30 31  1  0
 31 32  2  0
 33 32  1  0
 33 37  1  0
 34 33  2  0
 35 30  2  0
 35 34  1  0
 36 35  1  0
 38 39  1  0
 39 42  1  0
 39 41  1  0
 40 38  2  0
 43 44  1  0
 43 18  1  0
 45 43  1  0
 46 47  1  0
 47  7  1  0
 48 50  2  0
 49 48  1  0
 49  1  1  0
 51 49  1  0
 52 53  1  0
 52 48  1  0
 54 65  2  0
 55 53  1  0
 55 60  1  0
 56 64  1  0
 56 66  1  0
 57 63  1  0
 57 59  1  0
 58 64  1  0
 59 58  1  0
 60 59  2  0
 61 62  1  0
 61 55  2  0
 62 57  2  0
 63 56  1  0
 64 54  1  0
 66 68  2  0
 67 66  1  0
 69 67  1  0
 70 79  2  0
 70 75  1  0
 71 67  1  0
 71 75  1  0
 72 71  1  0
 73 74  1  0
 73 72  1  0
 74 70  1  0
 75 76  2  0
 76 77  1  0
 78 77  2  0
 79 78  1  0
 80 54  1  0
 80 85  1  0
 80 81  1  0
 81 84  1  1
 81 82  1  0
 83 81  1  0
 85 88  1  0
 86 90  1  0
 86 85  1  0
 87 86  2  0
 90 89  1  0
 90 92  1  0
 92 93  1  0
 92 91  1  0
M  ISO  4   8 100  17 100  52 101  53 101
M  END
>  <TORSDO>  (70) 
F 20

>  <SCORE>  (70) 
-11.264

>  <name>  (70) 
69

>  <ligand_id>  (70) 
69

>  <original_smiles>  (70) 
[H]c1c([H])c([H])c2c(c1[H])C([H])([H])C([H])([H])C([H])([H])C2([H])N([H])C(=O)C1([H])N(C(=O)C([H])(N([H])C(=O)C([H])(N([H])C([H])([H])[H])C([H])([H])[H])C(C([H])([H])[H])(C([H])([H])[H])C([H])([H])[H])C([H])([H])c2c([H])c(OC([H])([H])C(=O)N([H])C([H])([H])c3c([H])c([H])c(N(C(=O)N4C([H])([H])C([H])([H])C([H])([H])C([H])(n5nc(-c6c([H])c([H])c(Oc7c([H])c([H])c(F)c([H])c7F)c([H])c6[H])c(C(=O)N([H])[H])c5N([H])[H])C4([H])[H])C([H])([H])[H])c([H])c3OC([H])([H])[H])c([H])c([H])c2C1([H])[H]

>  <smiles>  (70) 
[H]c1c([H])c([H])c2c(c1[H])C([H])([H])C([H])([H])C([H])([H])C2([H])N([H])C(=O)C1([H])N(C(=O)C([H])(N([H])C(=O)C([H])(N([H])C([H])([H])[H])C([H])([H])[H])C(C([H])([H])[H])(C([H])([H])[H])C([H])([H])[H])C([H])([H])c2c([H])c(OC([H])([H])C(=O)N([H])C([H])([H])c3c([H])c([H])c(N(C(=O)N4C([H])([H])C([H])([H])C([H])([H])C([H])(n5nc(-c6c([H])c([H])c(Oc7c([H])c([H])c(F)c([H])c7F)c([H])c6[H])c(C(=O)N([H])[H])c5N([H])[H])C4([H])[H])C([H])([H])[H])c([H])c3OC([H])([H])[H])c([H])c([H])c2C1([H])[H]

$$$$
70:0:0
     RDKit          3D

 96105  0  0  1  0  0  0  0  0999 V2000
  -28.5830  -20.4900   20.6750 C   0  0  0  0  0  2  0  0  0  0  0  0
  -27.9410  -23.7130   18.9820 C   0  0  0  0  0  2  0  0  0  0  0  0
  -28.3460  -22.2280   18.8380 C   0  0  0  0  0  2  0  0  0  0  0  0
  -28.8960  -22.9810   21.0280 C   0  0  0  0  0  2  0  0  0  0  0  0
  -28.7760  -24.2480   20.1470 C   0  0  0  0  0  3  0  0  0  0  0  0
  -29.0030  -21.8170   20.1070 N   0  0  1  0  0  4  0  0  0  0  0  0
  -29.9810  -21.7190   19.8780 H   0  0  0  0  0  0  0  0  0  0  0  0
  -28.1770  -25.4880   20.8740 C   0  0  0  0  0  2  0  0  0  0  0  0
  -28.3020  -26.7370   20.1600 O   0  0  0  0  0  0  0  0  0  0  0  0
  -24.5670  -31.9710   23.2740 C   0  0  0  0  0  0  0  0  0  0  0  0
  -27.1610  -27.5140   20.1650 C   0  0  0  0  0  0  0  0  0  0  0  0
  -23.3400  -30.5720   21.6460 C   0  0  0  0  0  3  0  0  0  0  0  0
  -24.7740  -29.0330   20.2020 C   0  0  0  0  0  0  0  0  0  0  0  0
  -25.8670  -30.9230   21.4210 C   0  0  0  0  0  2  0  0  0  0  0  0
  -25.9430  -29.5530   20.7760 C   0  0  0  0  0  0  0  0  0  0  0  0
  -27.1430  -28.8030   20.7480 C   0  0  0  0  0  3  0  0  0  0  0  0
  -25.9780  -27.0120   19.5820 C   0  0  0  0  0  3  0  0  0  0  0  0
  -24.7880  -27.7620   19.6010 C   0  0  0  0  0  3  0  0  0  0  0  0
  -23.5340  -29.8940   20.2640 C   0  0  0  0  0  2  0  0  0  0  0  0
  -24.6110  -31.1710   22.1710 N   0  0  0  0  0  0  0  0  0  0  0  0
  -23.4930  -32.2460   23.8270 O   0  0  0  0  0  0  0  0  0  0  0  0
  -22.6970  -29.5520   22.6130 C   0  0  0  0  0  0  0  0  0  0  0  0
  -21.3730  -29.3600   22.4890 N   0  0  0  0  0  0  0  0  0  0  0  0
  -23.3850  -28.9380   23.4330 O   0  0  0  0  0  0  0  0  0  0  0  0
  -20.8810  -29.9080   21.7960 H   0  0  0  0  0  0  0  0  0  0  0  0
  -18.0130  -28.1180   22.9700 C   0  0  0  0  0  0  0  0  0  0  0  0
  -20.5640  -28.4230   23.2650 C   0  0  0  0  0  3  0  0  0  0  0  0
  -20.6950  -26.9850   22.7130 C   0  0  0  0  0  2  0  0  0  0  0  0
  -19.6100  -26.6280   21.6920 C   0  0  0  0  0  2  0  0  0  0  0  0
  -18.2190  -26.7610   22.3180 C   0  0  0  0  0  2  0  0  0  0  0  0
  -19.1150  -28.9040   23.3990 C   0  0  0  0  0  0  0  0  0  0  0  0
  -18.8690  -30.1740   23.9670 C   0  0  0  0  0  3  0  0  0  0  0  0
  -17.5540  -30.6570   24.1100 C   0  0  0  0  0  3  0  0  0  0  0  0
  -16.4670  -29.8670   23.6970 C   0  0  0  0  0  3  0  0  0  0  0  0
  -16.6970  -28.6000   23.1330 C   0  0  0  0  0  3  0  0  0  0  0  0
  -25.8610  -32.6000   23.8810 C   0  0  0  0  0  3  0  0  0  0  0  0
  -26.3890  -31.8310   25.1530 C   0  0  1  0  0  0  0  0  0  0  0  0
  -25.3070  -31.5970   26.2320 C   0  0  0  0  0  1  0  0  0  0  0  0
  -26.9660  -30.4520   24.7570 C   0  0  0  0  0  1  0  0  0  0  0  0
  -27.5500  -32.6230   25.8000 C   0  0  0  0  0  1  0  0  0  0  0  0
  -25.5620  -34.0000   24.2070 N   0  0  0  0  0  0  0  0  0  0  0  0
  -25.8930  -35.0480   23.4400 C   0  0  0  0  0  0  0  0  0  0  0  0
  -26.5530  -34.9360   22.4040 O   0  0  0  0  0  0  0  0  0  0  0  0
  -24.9780  -34.1610   25.0140 H   0  0  0  0  0  0  0  0  0  0  0  0
  -24.1730  -36.8480   23.0850 C   0  0  0  0  0  1  0  0  0  0  0  0
  -25.4160  -36.4400   23.8940 C   0  0  0  0  0  3  0  0  0  0  0  0
  -27.5590  -37.3160   24.7110 C   0  0  0  0  0  1  0  0  0  0  0  0
  -26.4530  -37.4870   23.7730 N   0  0  0  0  0  0  0  0  0  0  0  0
  -26.0540  -38.4100   23.9190 H   0  0  0  0  0  0  0  0  0  0  0  0
  -31.0240  -19.7690   21.0000 C   0  0  0  0  0  3  0  0  0  0  0  0
  -29.3540  -18.0310   20.6340 C   0  0  0  0  0  3  0  0  0  0  0  0
  -31.6820  -17.4130   20.9950 C   0  0  0  0  0  3  0  0  0  0  0  0
  -29.6820  -19.4110   20.7480 C   0  0  0  0  0  0  0  0  0  0  0  0
  -32.0170  -18.7770   21.1230 C   0  0  0  0  0  0  0  0  0  0  0  0
  -30.3460  -17.0160   20.7420 C   0  0  0  0  0  0  0  0  0  0  0  0
  -30.6940  -14.5860   20.1770 C   0  0  0  0  0  0  0  0  0  0  0  0
  -30.3660  -12.4130   19.0490 C   0  0  0  0  0  2  0  0  0  0  0  0
  -29.3870  -12.6180   17.8750 C   0  0  0  0  0  2  0  0  0  0  0  0
  -27.9280  -12.4680   18.3540 C   0  0  0  0  0  2  0  0  0  0  0  0
  -27.6280  -13.3020   19.6290 C   0  0  0  0  0  3  0  0  0  0  0  0
  -28.7230  -13.0950   20.7010 C   0  0  0  0  0  2  0  0  0  0  0  0
  -30.0220  -13.4040   20.0820 N   0  0  0  0  0  0  0  0  0  0  0  0
  -31.8220  -14.7380   19.7000 O   0  0  0  0  0  0  0  0  0  0  0  0
  -29.9690  -15.6300   20.6470 N   0  0  0  0  0  0  0  0  0  0  0  0
  -29.0090  -15.4090   20.8570 H   0  0  0  0  0  0  0  0  0  0  0  0
  -25.2570  -13.8990   20.4250 C   0  0  0  0  0  0  0  0  0  0  0  0
  -24.2030  -13.1220   20.8260 C   0  0  0  0  0  0  0  0  0  0  0  0
  -24.6640  -11.7710   20.7680 C   0  0  0  0  0  0  0  0  0  0  0  0
  -26.2930  -13.0210   20.1530 N   0  0  0  0  0  0  0  0  0  0  0  0
  -25.9430  -11.7360   20.4160 N   0  0  0  0  0  0  0  0  0  0  0  0
  -23.9450  -10.5070   20.9720 C   0  0  0  0  0  0  0  0  0  0  0  0
  -24.3970   -9.5430   21.9000 C   0  0  0  0  0  3  0  0  0  0  0  0
  -23.6790   -8.3430   22.0930 C   0  0  0  0  0  3  0  0  0  0  0  0
  -22.4950   -8.0980   21.3570 C   0  0  0  0  0  0  0  0  0  0  0  0
  -22.0610   -9.0520   20.4200 C   0  0  0  0  0  3  0  0  0  0  0  0
  -22.7800  -10.2430   20.2250 C   0  0  0  0  0  3  0  0  0  0  0  0
  -21.7490   -6.9500   21.4580 O   0  0  0  0  0  0  0  0  0  0  0  0
  -21.7070   -6.2180   22.6170 C   0  0  0  0  0  0  0  0  0  0  0  0
  -21.2690   -6.7780   23.8370 C   0  0  0  0  0  3  0  0  0  0  0  0
  -21.1750   -5.9710   24.9890 C   0  0  0  0  0  3  0  0  0  0  0  0
  -21.5100   -4.6050   24.9210 C   0  0  0  0  0  0  0  0  0  0  0  0
  -21.9410   -4.0460   23.7060 C   0  0  0  0  0  3  0  0  0  0  0  0
  -22.0360   -4.8490   22.5560 C   0  0  0  0  0  0  0  0  0  0  0  0
  -22.4300   -4.3000   21.3820 F   0  0  0  0  0  0  0  0  0  0  0  0
  -21.4140   -3.8270   26.0240 F   0  0  0  0  0  0  0  0  0  0  0  0
  -22.8150  -13.5970   21.1500 C   0  0  0  0  0  0  0  0  0  0  0  0
  -22.1160  -12.8920   22.0320 N   0  0  0  0  0  0  0  0  0  0  0  0
  -22.3600  -14.6280   20.6560 O   0  0  0  0  0  0  0  0  0  0  0  0
  -22.4960  -12.0570   22.4540 H   0  0  0  0  0  0  0  0  0  0  0  0
  -21.1880  -13.1920   22.2910 H   0  0  0  0  0  0  0  0  0  0  0  0
  -25.4120  -15.2700   20.2480 N   0  0  0  0  0  0  0  0  0  0  0  0
  -24.6370  -15.9140   20.3660 H   0  0  0  0  0  0  0  0  0  0  0  0
  -26.2360  -15.7090   19.8570 H   0  0  0  0  0  0  0  0  0  0  0  0
  -33.3330  -19.1540   21.3860 N   0  0  0  0  0  0  0  0  0  0  0  0
  -33.5040  -20.0700   21.7880 H   0  0  0  0  0  0  0  0  0  0  0  0
  -33.9850  -18.4530   21.7250 H   0  0  0  0  0  0  0  0  0  0  0  0
  1 53  1  0
  2  5  1  0
  3  2  1  0
  3  6  1  0
  5  8  1  0
  5  4  1  0
  6  1  1  0
  6  4  1  0
  6  7  1  6
  9 11  1  0
  9  8  1  0
 10 21  2  0
 11 16  1  0
 12 20  1  0
 12 22  1  0
 13 19  1  0
 13 15  1  0
 14 20  1  0
 15 14  1  0
 16 15  2  0
 17 18  1  0
 17 11  2  0
 18 13  2  0
 19 12  1  0
 20 10  1  0
 22 24  2  0
 23 22  1  0
 25 23  1  0
 26 35  2  0
 26 31  1  0
 27 23  1  0
 27 31  1  0
 28 27  1  0
 29 30  1  0
 29 28  1  0
 30 26  1  0
 31 32  2  0
 32 33  1  0
 34 33  2  0
 35 34  1  0
 36 10  1  0
 36 41  1  0
 36 37  1  0
 37 40  1  1
 37 38  1  0
 39 37  1  0
 41 44  1  0
 42 46  1  0
 42 41  1  0
 43 42  2  0
 46 45  1  0
 48 46  1  0
 48 49  1  0
 48 47  1  0
 50 54  1  0
 51 55  2  0
 51 53  1  0
 52 54  2  0
 53 50  2  0
 54 94  1  0
 55 52  1  0
 56 64  1  0
 57 62  1  0
 58 59  1  0
 58 57  1  0
 60 59  1  0
 60 69  1  0
 60 61  1  0
 62 56  1  0
 62 61  1  0
 63 56  2  0
 64 55  1  0
 64 65  1  0
 66 67  2  0
 67 86  1  0
 68 67  1  0
 68 71  1  0
 69 70  1  0
 69 66  1  0
 70 68  2  0
 71 72  1  0
 72 73  2  0
 74 77  1  0
 74 73  1  0
 75 74  2  0
 76 75  1  0
 76 71  2  0
 77 78  1  0
 78 79  1  0
 79 80  2  0
 81 80  1  0
 81 85  1  0
 82 81  2  0
 83 78  2  0
 83 82  1  0
 84 83  1  0
 86 87  1  0
 87 90  1  0
 87 89  1  0
 88 86  2  0
 91 92  1  0
 91 66  1  0
 93 91  1  0
 94 96  1  0
 94 95  1  0
M  ISO  4   8 101   9 101  56 100  64 100
M  END
>  <TORSDO>  (71) 
F 20

>  <SCORE>  (71) 
-14.348

>  <name>  (71) 
70

>  <ligand_id>  (71) 
70

>  <original_smiles>  (71) 
[H]c1c([H])c([H])c2c(c1[H])C([H])([H])C([H])([H])C([H])([H])C2([H])N([H])C(=O)C1([H])N(C(=O)C([H])(N([H])C(=O)C([H])(N([H])C([H])([H])[H])C([H])([H])[H])C(C([H])([H])[H])(C([H])([H])[H])C([H])([H])[H])C([H])([H])c2c([H])c(OC([H])([H])C3([H])C([H])([H])C([H])([H])[N+]([H])(C([H])([H])c4c([H])c(N([H])[H])c([H])c(N([H])C(=O)N5C([H])([H])C([H])([H])C([H])([H])C([H])(n6nc(-c7c([H])c([H])c(Oc8c([H])c([H])c(F)c([H])c8F)c([H])c7[H])c(C(=O)N([H])[H])c6N([H])[H])C5([H])[H])c4[H])C3([H])[H])c([H])c([H])c2C1([H])[H]

>  <smiles>  (71) 
[H]c1c([H])c([H])c2c(c1[H])C([H])([H])C([H])([H])C([H])([H])C2([H])N([H])C(=O)C1([H])N(C(=O)C([H])(N([H])C(=O)C([H])(N([H])C([H])([H])[H])C([H])([H])[H])C(C([H])([H])[H])(C([H])([H])[H])C([H])([H])[H])C([H])([H])c2c([H])c(OC([H])([H])C3([H])C([H])([H])C([H])([H])[N+]([H])(C([H])([H])c4c([H])c(N([H])[H])c([H])c(N([H])C(=O)N5C([H])([H])C([H])([H])C([H])([H])C([H])(n6nc(-c7c([H])c([H])c(Oc8c([H])c([H])c(F)c([H])c8F)c([H])c7[H])c(C(=O)N([H])[H])c6N([H])[H])C5([H])[H])c4[H])C3([H])[H])c([H])c([H])c2C1([H])[H]

$$$$
71:0:0
     RDKit          3D

 95104  0  0  1  0  0  0  0  0999 V2000
  -31.1560  -22.0000   21.4200 C   0  0  0  0  0  0  0  0  0  0  0  0
  -31.3490  -23.5230   21.4980 C   0  0  0  0  0  2  0  0  0  0  0  0
  -30.0700  -24.3350   21.2710 C   0  0  0  0  0  2  0  0  0  0  0  0
  -29.1570  -22.3590   19.9980 C   0  0  0  0  0  2  0  0  0  0  0  0
  -29.4450  -23.9330   19.9400 C   0  0  0  0  0  3  0  0  0  0  0  0
  -30.2290  -21.4580   20.5760 N   0  0  0  0  0  0  0  0  0  0  0  0
  -31.8950  -21.3180   22.1400 O   0  0  0  0  0  0  0  0  0  0  0  0
  -31.3480  -19.1800   20.5330 C   0  0  0  0  0  3  0  0  0  0  0  0
  -31.3100  -17.7580   20.5600 C   0  0  0  0  0  3  0  0  0  0  0  0
  -28.9520  -19.2690   20.3520 C   0  0  0  0  0  3  0  0  0  0  0  0
  -30.1740  -19.9860   20.4550 C   0  0  0  0  0  0  0  0  0  0  0  0
  -30.0830  -17.0490   20.5050 C   0  0  0  0  0  0  0  0  0  0  0  0
  -28.8980  -17.8330   20.3930 C   0  0  0  0  0  0  0  0  0  0  0  0
  -30.6740  -14.5520   20.0520 C   0  0  0  0  0  0  0  0  0  0  0  0
  -30.3590  -12.3540   18.9280 C   0  0  0  0  0  2  0  0  0  0  0  0
  -29.3570  -12.5390   17.7670 C   0  0  0  0  0  2  0  0  0  0  0  0
  -27.9050  -12.3920   18.2650 C   0  0  0  0  0  2  0  0  0  0  0  0
  -27.6290  -13.2260   19.5450 C   0  0  0  0  0  3  0  0  0  0  0  0
  -28.7380  -13.0130   20.6000 C   0  0  0  0  0  2  0  0  0  0  0  0
  -30.0260  -13.3460   19.9700 N   0  0  0  0  0  0  0  0  0  0  0  0
  -31.8030  -14.7010   19.5740 O   0  0  0  0  0  0  0  0  0  0  0  0
  -29.9410  -15.5910   20.5560 N   0  0  0  0  0  0  0  0  0  0  0  0
  -29.0610  -15.2970   20.9520 H   0  0  0  0  0  0  0  0  0  0  0  0
  -25.2790  -13.8510   20.3760 C   0  0  0  0  0  0  0  0  0  0  0  0
  -24.2200  -13.0890   20.7870 C   0  0  0  0  0  0  0  0  0  0  0  0
  -24.6610  -11.7320   20.7220 C   0  0  0  0  0  0  0  0  0  0  0  0
  -26.2990  -12.9590   20.0880 N   0  0  0  0  0  0  0  0  0  0  0  0
  -25.9350  -11.6780   20.3530 N   0  0  0  0  0  0  0  0  0  0  0  0
  -23.9260  -10.4780   20.9340 C   0  0  0  0  0  0  0  0  0  0  0  0
  -24.3770   -9.5030   21.8510 C   0  0  0  0  0  3  0  0  0  0  0  0
  -23.6420   -8.3140   22.0510 C   0  0  0  0  0  3  0  0  0  0  0  0
  -22.4420   -8.0910   21.3330 C   0  0  0  0  0  0  0  0  0  0  0  0
  -22.0110   -9.0550   20.4040 C   0  0  0  0  0  3  0  0  0  0  0  0
  -22.7460  -10.2350   20.2030 C   0  0  0  0  0  3  0  0  0  0  0  0
  -21.6780   -6.9550   21.4430 O   0  0  0  0  0  0  0  0  0  0  0  0
  -21.6320   -6.2280   22.6050 C   0  0  0  0  0  0  0  0  0  0  0  0
  -21.2500   -6.8100   23.8340 C   0  0  0  0  0  3  0  0  0  0  0  0
  -21.1490   -6.0110   24.9900 C   0  0  0  0  0  3  0  0  0  0  0  0
  -21.4180   -4.6320   24.9200 C   0  0  0  0  0  0  0  0  0  0  0  0
  -21.7940   -4.0490   23.6960 C   0  0  0  0  0  3  0  0  0  0  0  0
  -21.8970   -4.8460   22.5410 C   0  0  0  0  0  0  0  0  0  0  0  0
  -22.2390   -4.2750   21.3610 F   0  0  0  0  0  0  0  0  0  0  0  0
  -21.3130   -3.8620   26.0280 F   0  0  0  0  0  0  0  0  0  0  0  0
  -22.8450  -13.5830   21.1330 C   0  0  0  0  0  0  0  0  0  0  0  0
  -22.1550  -12.8950   22.0370 N   0  0  0  0  0  0  0  0  0  0  0  0
  -22.3930  -14.6140   20.6380 O   0  0  0  0  0  0  0  0  0  0  0  0
  -22.5350  -12.0610   22.4590 H   0  0  0  0  0  0  0  0  0  0  0  0
  -21.2340  -13.2080   22.3110 H   0  0  0  0  0  0  0  0  0  0  0  0
  -25.4520  -15.2210   20.2050 N   0  0  0  0  0  0  0  0  0  0  0  0
  -24.6970  -15.8810   20.3570 H   0  0  0  0  0  0  0  0  0  0  0  0
  -26.3070  -15.6630   19.8920 H   0  0  0  0  0  0  0  0  0  0  0  0
  -26.5030  -17.8410   20.1450 C   0  0  0  0  0  1  0  0  0  0  0  0
  -27.7150  -17.1230   20.3480 O   0  0  0  0  0  0  0  0  0  0  0  0
  -28.2360  -24.8890   19.5550 C   0  0  0  0  0  2  0  0  0  0  0  0
  -28.4180  -26.3580   19.6170 O   0  0  0  0  0  0  0  0  0  0  0  0
  -24.5490  -31.4840   22.9110 C   0  0  0  0  0  0  0  0  0  0  0  0
  -27.2640  -27.1590   19.6230 C   0  0  0  0  0  0  0  0  0  0  0  0
  -23.3670  -30.1240   21.2220 C   0  0  0  0  0  3  0  0  0  0  0  0
  -24.8460  -28.6880   19.7130 C   0  0  0  0  0  0  0  0  0  0  0  0
  -25.8920  -30.5320   21.0240 C   0  0  0  0  0  2  0  0  0  0  0  0
  -26.0070  -29.1890   20.3160 C   0  0  0  0  0  0  0  0  0  0  0  0
  -27.2190  -28.4380   20.2600 C   0  0  0  0  0  3  0  0  0  0  0  0
  -26.0760  -26.7090   19.0030 C   0  0  0  0  0  3  0  0  0  0  0  0
  -24.8820  -27.4530   19.0490 C   0  0  0  0  0  3  0  0  0  0  0  0
  -23.5840  -29.5180   19.8110 C   0  0  0  0  0  2  0  0  0  0  0  0
  -24.6210  -30.7280   21.7760 N   0  0  0  0  0  0  0  0  0  0  0  0
  -23.4640  -31.7030   23.4690 O   0  0  0  0  0  0  0  0  0  0  0  0
  -22.7480  -29.0450   22.1410 C   0  0  0  0  0  0  0  0  0  0  0  0
  -21.4170  -28.8730   22.0590 N   0  0  0  0  0  0  0  0  0  0  0  0
  -23.4600  -28.3690   22.8870 O   0  0  0  0  0  0  0  0  0  0  0  0
  -20.9020  -29.4730   21.4310 H   0  0  0  0  0  0  0  0  0  0  0  0
  -18.0600  -27.6700   22.6550 C   0  0  0  0  0  0  0  0  0  0  0  0
  -20.6310  -27.8860   22.8000 C   0  0  0  0  0  3  0  0  0  0  0  0
  -20.6840  -26.5020   22.1140 C   0  0  0  0  0  2  0  0  0  0  0  0
  -19.5220  -26.2670   21.1410 C   0  0  0  0  0  2  0  0  0  0  0  0
  -18.1810  -26.3740   21.8710 C   0  0  0  0  0  2  0  0  0  0  0  0
  -19.2100  -28.3870   23.0790 C   0  0  0  0  0  0  0  0  0  0  0  0
  -19.0410  -29.6030   23.7750 C   0  0  0  0  0  3  0  0  0  0  0  0
  -17.7540  -30.1020   24.0520 C   0  0  0  0  0  3  0  0  0  0  0  0
  -16.6190  -29.3790   23.6450 C   0  0  0  0  0  3  0  0  0  0  0  0
  -16.7730  -28.1650   22.9520 C   0  0  0  0  0  3  0  0  0  0  0  0
  -25.8210  -32.1230   23.5480 C   0  0  0  0  0  3  0  0  0  0  0  0
  -26.3840  -31.3000   24.7730 C   0  0  1  0  0  0  0  0  0  0  0  0
  -25.3200  -30.9740   25.8450 C   0  0  0  0  0  1  0  0  0  0  0  0
  -27.0000  -29.9640   24.2980 C   0  0  0  0  0  1  0  0  0  0  0  0
  -27.5240  -32.0920   25.4560 C   0  0  0  0  0  1  0  0  0  0  0  0
  -25.4700  -33.4890   23.9610 N   0  0  0  0  0  0  0  0  0  0  0  0
  -25.7630  -34.5940   23.2630 C   0  0  0  0  0  0  0  0  0  0  0  0
  -26.4280  -34.5720   22.2240 O   0  0  0  0  0  0  0  0  0  0  0  0
  -24.8760  -33.5780   24.7720 H   0  0  0  0  0  0  0  0  0  0  0  0
  -23.9750  -36.3480   23.0280 C   0  0  0  0  0  1  0  0  0  0  0  0
  -25.2350  -35.9370   23.8030 C   0  0  0  0  0  3  0  0  0  0  0  0
  -27.3500  -36.8410   24.6670 C   0  0  0  0  0  1  0  0  0  0  0  0
  -26.2330  -37.0280   23.7450 N   0  0  0  0  0  0  0  0  0  0  0  0
  -25.7980  -37.9230   23.9520 H   0  0  0  0  0  0  0  0  0  0  0  0
  1  2  1  0
  1  7  2  0
  3  2  1  0
  4  6  1  0
  5 54  1  0
  5  4  1  0
  5  3  1  0
  6  1  1  0
  8  9  1  0
 10 13  2  0
 10 11  1  0
 11  8  2  0
 11  6  1  0
 12 22  1  0
 12  9  2  0
 13 12  1  0
 14 22  1  0
 15 20  1  0
 16 17  1  0
 16 15  1  0
 18 17  1  0
 18 27  1  0
 18 19  1  0
 20 14  1  0
 20 19  1  0
 21 14  2  0
 22 23  1  0
 24 25  2  0
 25 44  1  0
 26 25  1  0
 26 29  1  0
 27 28  1  0
 27 24  1  0
 28 26  2  0
 29 30  1  0
 30 31  2  0
 32 35  1  0
 32 31  1  0
 33 32  2  0
 34 33  1  0
 34 29  2  0
 35 36  1  0
 36 37  1  0
 37 38  2  0
 39 38  1  0
 39 43  1  0
 40 39  2  0
 41 36  2  0
 41 40  1  0
 42 41  1  0
 44 45  1  0
 45 48  1  0
 45 47  1  0
 46 44  2  0
 49 50  1  0
 49 24  1  0
 51 49  1  0
 52 53  1  0
 53 13  1  0
 54 55  1  0
 55 57  1  0
 56 67  2  0
 57 62  1  0
 58 66  1  0
 58 68  1  0
 59 65  1  0
 59 61  1  0
 60 66  1  0
 61 60  1  0
 62 61  2  0
 63 64  1  0
 63 57  2  0
 64 59  2  0
 65 58  1  0
 66 56  1  0
 68 70  2  0
 69 68  1  0
 71 69  1  0
 72 81  2  0
 72 77  1  0
 73 69  1  0
 73 77  1  0
 74 73  1  0
 75 76  1  0
 75 74  1  0
 76 72  1  0
 77 78  2  0
 78 79  1  0
 80 79  2  0
 81 80  1  0
 82 56  1  0
 82 87  1  0
 82 83  1  0
 83 86  1  1
 83 84  1  0
 85 83  1  0
 87 90  1  0
 88 92  1  0
 88 87  1  0
 89 88  2  0
 92 91  1  0
 94 92  1  0
 94 95  1  0
 94 93  1  0
M  ISO  4  14 100  22 100  54 101  55 101
M  END
>  <TORSDO>  (72) 
F 19

>  <SCORE>  (72) 
-13.534

>  <name>  (72) 
71

>  <ligand_id>  (72) 
71

>  <original_smiles>  (72) 
[H]c1c([H])c([H])c2c(c1[H])C([H])([H])C([H])([H])C([H])([H])C2([H])N([H])C(=O)C1([H])N(C(=O)C([H])(N([H])C(=O)C([H])(N([H])C([H])([H])[H])C([H])([H])[H])C(C([H])([H])[H])(C([H])([H])[H])C([H])([H])[H])C([H])([H])c2c([H])c(OC([H])([H])C3([H])C([H])([H])N(c4c([H])c([H])c(N([H])C(=O)N5C([H])([H])C([H])([H])C([H])([H])C([H])(n6nc(-c7c([H])c([H])c(Oc8c([H])c([H])c(F)c([H])c8F)c([H])c7[H])c(C(=O)N([H])[H])c6N([H])[H])C5([H])[H])c(OC([H])([H])[H])c4[H])C(=O)C([H])([H])C3([H])[H])c([H])c([H])c2C1([H])[H]

>  <smiles>  (72) 
[H]c1c([H])c([H])c2c(c1[H])C([H])([H])C([H])([H])C([H])([H])C2([H])N([H])C(=O)C1([H])N(C(=O)C([H])(N([H])C(=O)C([H])(N([H])C([H])([H])[H])C([H])([H])[H])C(C([H])([H])[H])(C([H])([H])[H])C([H])([H])[H])C([H])([H])c2c([H])c(OC([H])([H])C3([H])C([H])([H])N(c4c([H])c([H])c(N([H])C(=O)N5C([H])([H])C([H])([H])C([H])([H])C([H])(n6nc(-c7c([H])c([H])c(Oc8c([H])c([H])c(F)c([H])c8F)c([H])c7[H])c(C(=O)N([H])[H])c6N([H])[H])C5([H])[H])c(OC([H])([H])[H])c4[H])C(=O)C([H])([H])C3([H])[H])c([H])c([H])c2C1([H])[H]

$$$$
72:0:0
     RDKit          3D

 96105  0  0  1  0  0  0  0  0999 V2000
  -27.5560  -22.3810   21.7480 C   0  0  0  0  0  0  0  0  0  0  0  0
  -28.9250  -23.1040   19.9130 C   0  0  0  0  0  0  0  0  0  0  0  0
  -27.0290  -23.7980   21.9880 C   0  0  0  0  0  2  0  0  0  0  0  0
  -27.1040  -24.6620   20.7360 C   0  0  0  0  0  2  0  0  0  0  0  0
  -28.5050  -24.5940   20.1190 C   0  0  0  0  0  3  0  0  0  0  0  0
  -28.4610  -22.1240   20.7560 N   0  0  0  0  0  0  0  0  0  0  0  0
  -27.1220  -21.5050   22.5080 O   0  0  0  0  0  0  0  0  0  0  0  0
  -29.6930  -22.8420   18.9780 O   0  0  0  0  0  0  0  0  0  0  0  0
  -28.5940  -18.3650   20.3480 C   0  0  0  0  0  3  0  0  0  0  0  0
  -30.6930  -19.1250   21.2890 C   0  0  0  0  0  3  0  0  0  0  0  0
  -28.1630  -19.7050   20.2160 C   0  0  0  0  0  3  0  0  0  0  0  0
  -30.2610  -20.4650   21.1720 C   0  0  0  0  0  3  0  0  0  0  0  0
  -29.8440  -18.0510   20.9270 C   0  0  0  0  0  0  0  0  0  0  0  0
  -28.9750  -20.7730   20.6710 C   0  0  0  0  0  0  0  0  0  0  0  0
  -31.2350  -16.4200   22.3530 C   0  0  0  0  0  1  0  0  0  0  0  0
  -30.2230  -16.5800   21.1940 C   0  0  0  0  0  3  0  0  0  0  0  0
  -31.3840  -14.7780   19.8390 C   0  0  0  0  0  0  0  0  0  0  0  0
  -30.9720  -12.5860   18.8090 C   0  0  0  0  0  2  0  0  0  0  0  0
  -29.9690  -12.7820   17.6510 C   0  0  0  0  0  2  0  0  0  0  0  0
  -28.5160  -12.7040   18.1640 C   0  0  0  0  0  2  0  0  0  0  0  0
  -28.2730  -13.5780   19.4260 C   0  0  0  0  0  3  0  0  0  0  0  0
  -29.3880  -13.3600   20.4740 C   0  0  0  0  0  2  0  0  0  0  0  0
  -30.6760  -13.6170   19.8160 N   0  0  0  0  0  0  0  0  0  0  0  0
  -32.5140  -14.8780   19.3570 O   0  0  0  0  0  0  0  0  0  0  0  0
  -30.6670  -15.9100   19.9650 N   0  0  0  0  0  0  0  0  0  0  0  0
  -31.0060  -16.6020   19.3130 H   0  0  0  0  0  0  0  0  0  0  0  0
  -25.9690  -14.2710   20.3340 C   0  0  0  0  0  0  0  0  0  0  0  0
  -24.8840  -13.5380   20.7340 C   0  0  0  0  0  0  0  0  0  0  0  0
  -25.2650  -12.1670   20.6000 C   0  0  0  0  0  0  0  0  0  0  0  0
  -26.9440  -13.3500   19.9870 N   0  0  0  0  0  0  0  0  0  0  0  0
  -26.5280  -12.0760   20.2040 N   0  0  0  0  0  0  0  0  0  0  0  0
  -24.4830  -10.9370   20.7720 C   0  0  0  0  0  0  0  0  0  0  0  0
  -24.8700   -9.9400   21.6930 C   0  0  0  0  0  3  0  0  0  0  0  0
  -24.0900   -8.7730   21.8550 C   0  0  0  0  0  3  0  0  0  0  0  0
  -22.9090   -8.5990   21.0950 C   0  0  0  0  0  0  0  0  0  0  0  0
  -22.5420   -9.5850   20.1620 C   0  0  0  0  0  3  0  0  0  0  0  0
  -23.3210  -10.7420   19.9980 C   0  0  0  0  0  3  0  0  0  0  0  0
  -22.1040   -7.4870   21.1650 O   0  0  0  0  0  0  0  0  0  0  0  0
  -21.9390   -6.7920   22.3350 C   0  0  0  0  0  0  0  0  0  0  0  0
  -21.4700   -7.4140   23.5120 C   0  0  0  0  0  3  0  0  0  0  0  0
  -21.2500   -6.6480   24.6740 C   0  0  0  0  0  3  0  0  0  0  0  0
  -21.4890   -5.2600   24.6600 C   0  0  0  0  0  0  0  0  0  0  0  0
  -21.9520   -4.6390   23.4870 C   0  0  0  0  0  3  0  0  0  0  0  0
  -22.1730   -5.4020   22.3270 C   0  0  0  0  0  0  0  0  0  0  0  0
  -22.5990   -4.7940   21.1930 F   0  0  0  0  0  0  0  0  0  0  0  0
  -21.2700   -4.5210   25.7730 F   0  0  0  0  0  0  0  0  0  0  0  0
  -23.5370  -14.0740   21.1250 C   0  0  0  0  0  0  0  0  0  0  0  0
  -22.8470  -13.3890   22.0310 N   0  0  0  0  0  0  0  0  0  0  0  0
  -23.1110  -15.1330   20.6650 O   0  0  0  0  0  0  0  0  0  0  0  0
  -23.2070  -12.5290   22.4170 H   0  0  0  0  0  0  0  0  0  0  0  0
  -21.9460  -13.7250   22.3400 H   0  0  0  0  0  0  0  0  0  0  0  0
  -26.2000  -15.6370   20.2110 N   0  0  0  0  0  0  0  0  0  0  0  0
  -25.4790  -16.3260   20.3970 H   0  0  0  0  0  0  0  0  0  0  0  0
  -27.0420  -16.0300   19.8130 H   0  0  0  0  0  0  0  0  0  0  0  0
  -28.6390  -25.5050   18.8580 C   0  0  0  0  0  2  0  0  0  0  0  0
  -28.5850  -26.9170   19.1670 O   0  0  0  0  0  0  0  0  0  0  0  0
  -24.8570  -31.5760   23.0680 C   0  0  0  0  0  0  0  0  0  0  0  0
  -27.3770  -27.5790   19.3150 C   0  0  0  0  0  0  0  0  0  0  0  0
  -23.5690  -30.3230   21.3720 C   0  0  0  0  0  3  0  0  0  0  0  0
  -24.9500  -29.0000   19.6870 C   0  0  0  0  0  0  0  0  0  0  0  0
  -26.0660  -30.7820   21.0340 C   0  0  0  0  0  2  0  0  0  0  0  0
  -26.1370  -29.4930   20.2410 C   0  0  0  0  0  0  0  0  0  0  0  0
  -27.3500  -28.7890   20.0510 C   0  0  0  0  0  3  0  0  0  0  0  0
  -26.1620  -27.1050   18.7660 C   0  0  0  0  0  3  0  0  0  0  0  0
  -24.9580  -27.8040   18.9510 C   0  0  0  0  0  3  0  0  0  0  0  0
  -23.6920  -29.8060   19.9150 C   0  0  0  0  0  2  0  0  0  0  0  0
  -24.8530  -30.9030   21.8830 N   0  0  0  0  0  0  0  0  0  0  0  0
  -23.8130  -31.7480   23.7110 O   0  0  0  0  0  0  0  0  0  0  0  0
  -23.0210  -29.1790   22.2560 C   0  0  0  0  0  0  0  0  0  0  0  0
  -21.7110  -28.9080   22.1420 N   0  0  0  0  0  0  0  0  0  0  0  0
  -23.7700  -28.5420   23.0020 O   0  0  0  0  0  0  0  0  0  0  0  0
  -21.1640  -29.4780   21.5110 H   0  0  0  0  0  0  0  0  0  0  0  0
  -18.4720  -27.3530   22.5260 C   0  0  0  0  0  0  0  0  0  0  0  0
  -20.9880  -27.8510   22.8460 C   0  0  0  0  0  3  0  0  0  0  0  0
  -21.2400  -26.4720   22.1950 C   0  0  0  0  0  2  0  0  0  0  0  0
  -20.1850  -26.0950   21.1510 C   0  0  0  0  0  2  0  0  0  0  0  0
  -18.7900  -26.0660   21.7830 C   0  0  0  0  0  2  0  0  0  0  0  0
  -19.5040  -28.1980   23.0120 C   0  0  0  0  0  0  0  0  0  0  0  0
  -19.1550  -29.3980   23.6680 C   0  0  0  0  0  3  0  0  0  0  0  0
  -17.8060  -29.7590   23.8420 C   0  0  0  0  0  3  0  0  0  0  0  0
  -16.7890  -28.9120   23.3720 C   0  0  0  0  0  3  0  0  0  0  0  0
  -17.1220  -27.7100   22.7190 C   0  0  0  0  0  3  0  0  0  0  0  0
  -26.1680  -32.1820   23.6590 C   0  0  0  0  0  3  0  0  0  0  0  0
  -26.7910  -31.3100   24.8180 C   0  0  1  0  0  0  0  0  0  0  0  0
  -25.7780  -30.9230   25.9210 C   0  0  0  0  0  1  0  0  0  0  0  0
  -27.3960  -30.0020   24.2530 C   0  0  0  0  0  1  0  0  0  0  0  0
  -27.9530  -32.0820   25.4880 C   0  0  0  0  0  1  0  0  0  0  0  0
  -25.8530  -33.5340   24.1370 N   0  0  0  0  0  0  0  0  0  0  0  0
  -26.1240  -34.6600   23.4630 C   0  0  0  0  0  0  0  0  0  0  0  0
  -26.7390  -34.6700   22.3930 O   0  0  0  0  0  0  0  0  0  0  0  0
  -25.3000  -33.5970   24.9800 H   0  0  0  0  0  0  0  0  0  0  0  0
  -24.3420  -36.4350   23.3740 C   0  0  0  0  0  1  0  0  0  0  0  0
  -25.6350  -35.9880   24.0750 C   0  0  0  0  0  3  0  0  0  0  0  0
  -27.7970  -36.8460   24.8630 C   0  0  0  0  0  1  0  0  0  0  0  0
  -26.6390  -37.0730   24.0030 N   0  0  0  0  0  0  0  0  0  0  0  0
  -26.2240  -37.9650   24.2590 H   0  0  0  0  0  0  0  0  0  0  0  0
  1  3  1  0
  1  7  2  0
  2  5  1  0
  2  6  1  0
  4  3  1  0
  5 55  1  0
  5  4  1  0
  6  1  1  0
  8  2  2  0
  9 13  1  0
 11  9  2  0
 11 14  1  0
 12 10  1  0
 13 16  1  0
 13 10  2  0
 14  6  1  0
 14 12  2  0
 16 15  1  0
 17 25  1  0
 18 23  1  0
 19 20  1  0
 19 18  1  0
 21 20  1  0
 21 30  1  0
 21 22  1  0
 23 17  1  0
 23 22  1  0
 24 17  2  0
 25 16  1  0
 26 25  1  0
 27 28  2  0
 28 47  1  0
 29 28  1  0
 29 32  1  0
 30 31  1  0
 30 27  1  0
 31 29  2  0
 32 33  1  0
 33 34  2  0
 35 38  1  0
 35 34  1  0
 36 35  2  0
 37 36  1  0
 37 32  2  0
 38 39  1  0
 39 40  1  0
 40 41  2  0
 42 41  1  0
 42 46  1  0
 43 42  2  0
 44 39  2  0
 44 43  1  0
 45 44  1  0
 47 48  1  0
 48 51  1  0
 48 50  1  0
 49 47  2  0
 52 27  1  0
 52 53  1  0
 54 52  1  0
 55 56  1  0
 56 58  1  0
 57 68  2  0
 58 63  1  0
 59 67  1  0
 59 69  1  0
 60 66  1  0
 60 62  1  0
 61 67  1  0
 62 61  1  0
 63 62  2  0
 64 65  1  0
 64 58  2  0
 65 60  2  0
 66 59  1  0
 67 57  1  0
 69 71  2  0
 70 69  1  0
 72 70  1  0
 73 82  2  0
 73 78  1  0
 74 70  1  0
 74 78  1  0
 75 74  1  0
 76 77  1  0
 76 75  1  0
 77 73  1  0
 78 79  2  0
 79 80  1  0
 81 80  2  0
 82 81  1  0
 83 57  1  0
 83 88  1  0
 83 84  1  0
 84 87  1  1
 84 85  1  0
 86 84  1  0
 88 91  1  0
 89 93  1  0
 89 88  1  0
 90 89  2  0
 93 92  1  0
 95 93  1  0
 95 96  1  0
 95 94  1  0
M  ISO  4  17 100  25 100  55 101  56 101
M  END
>  <TORSDO>  (73) 
F 19

>  <SCORE>  (73) 
-10.172

>  <name>  (73) 
72

>  <ligand_id>  (73) 
72

>  <original_smiles>  (73) 
[H]c1c([H])c([H])c2c(c1[H])C([H])([H])C([H])([H])C([H])([H])C2([H])N([H])C(=O)C1([H])N(C(=O)C([H])(N([H])C(=O)C([H])(N([H])C([H])([H])[H])C([H])([H])[H])C(C([H])([H])[H])(C([H])([H])[H])C([H])([H])[H])C([H])([H])c2c([H])c(OC([H])([H])C3([H])C(=O)N(c4c([H])c([H])c(C([H])(N([H])C(=O)N5C([H])([H])C([H])([H])C([H])([H])C([H])(n6nc(-c7c([H])c([H])c(Oc8c([H])c([H])c(F)c([H])c8F)c([H])c7[H])c(C(=O)N([H])[H])c6N([H])[H])C5([H])[H])C([H])([H])[H])c([H])c4[H])C(=O)C([H])([H])C3([H])[H])c([H])c([H])c2C1([H])[H]

>  <smiles>  (73) 
[H]c1c([H])c([H])c2c(c1[H])C([H])([H])C([H])([H])C([H])([H])C2([H])N([H])C(=O)C1([H])N(C(=O)C([H])(N([H])C(=O)C([H])(N([H])C([H])([H])[H])C([H])([H])[H])C(C([H])([H])[H])(C([H])([H])[H])C([H])([H])[H])C([H])([H])c2c([H])c(OC([H])([H])C3([H])C(=O)N(c4c([H])c([H])c(C([H])(N([H])C(=O)N5C([H])([H])C([H])([H])C([H])([H])C([H])(n6nc(-c7c([H])c([H])c(Oc8c([H])c([H])c(F)c([H])c8F)c([H])c7[H])c(C(=O)N([H])[H])c6N([H])[H])C5([H])[H])C([H])([H])[H])c([H])c4[H])C(=O)C([H])([H])C3([H])[H])c([H])c([H])c2C1([H])[H]

$$$$
73:0:0
     RDKit          3D

 92100  0  0  1  0  0  0  0  0999 V2000
  -30.3030  -20.3090   19.0840 C   0  0  0  0  0  3  0  0  0  0  0  0
  -28.5570  -18.6330   19.2470 C   0  0  0  0  0  3  0  0  0  0  0  0
  -27.9950  -21.0400   19.1250 C   0  0  0  0  0  3  0  0  0  0  0  0
  -29.9410  -18.8990   19.1990 C   0  0  0  0  0  0  0  0  0  0  0  0
  -29.3560  -21.4190   19.0190 C   0  0  0  0  0  0  0  0  0  0  0  0
  -27.6050  -19.6810   19.2380 C   0  0  0  0  0  0  0  0  0  0  0  0
  -26.2490  -19.3750   19.3480 N   0  0  0  0  0  0  0  0  0  0  0  0
  -25.8990  -18.4230   19.3970 H   0  0  0  0  0  0  0  0  0  0  0  0
  -25.5490  -20.1000   19.4730 H   0  0  0  0  0  0  0  0  0  0  0  0
  -29.1460  -23.9350   19.1630 C   0  0  0  0  0  3  0  0  0  0  0  0
  -29.7620  -22.8120   18.8120 N   0  0  0  0  0  0  0  0  0  0  0  0
  -29.5840  -25.4210   18.7080 C   0  0  0  0  0  2  0  0  0  0  0  0
  -29.3250  -26.6440   19.5480 O   0  0  0  0  0  0  0  0  0  0  0  0
  -24.8550  -31.0870   23.1150 C   0  0  0  0  0  0  0  0  0  0  0  0
  -28.1210  -27.3890   19.5210 C   0  0  0  0  0  0  0  0  0  0  0  0
  -23.9060  -29.8700   21.1930 C   0  0  0  0  0  3  0  0  0  0  0  0
  -25.5920  -28.7570   19.6140 C   0  0  0  0  0  0  0  0  0  0  0  0
  -26.3950  -30.4820   21.2240 C   0  0  0  0  0  2  0  0  0  0  0  0
  -26.6650  -29.2410   20.3740 C   0  0  0  0  0  0  0  0  0  0  0  0
  -27.9250  -28.5630   20.3270 C   0  0  0  0  0  3  0  0  0  0  0  0
  -27.0140  -26.9760   18.7440 C   0  0  0  0  0  3  0  0  0  0  0  0
  -25.7730  -27.6420   18.7870 C   0  0  0  0  0  3  0  0  0  0  0  0
  -24.2520  -29.4580   19.7360 C   0  0  0  0  0  2  0  0  0  0  0  0
  -25.0690  -30.4890   21.9030 N   0  0  0  0  0  0  0  0  0  0  0  0
  -23.7230  -31.1430   23.6150 O   0  0  0  0  0  0  0  0  0  0  0  0
  -23.3340  -28.6360   21.9330 C   0  0  0  0  0  0  0  0  0  0  0  0
  -22.0470  -28.3350   21.6940 N   0  0  0  0  0  0  0  0  0  0  0  0
  -24.0510  -27.9590   22.6750 O   0  0  0  0  0  0  0  0  0  0  0  0
  -21.5080  -28.9700   21.1190 H   0  0  0  0  0  0  0  0  0  0  0  0
  -18.8520  -26.6190   21.7020 C   0  0  0  0  0  0  0  0  0  0  0  0
  -21.3290  -27.1670   22.2060 C   0  0  0  0  0  3  0  0  0  0  0  0
  -21.6770  -25.9080   21.3770 C   0  0  0  0  0  2  0  0  0  0  0  0
  -20.6650  -25.6220   20.2660 C   0  0  0  0  0  2  0  0  0  0  0  0
  -19.2600  -25.4360   20.8430 C   0  0  0  0  0  2  0  0  0  0  0  0
  -19.8250  -27.4400   22.3300 C   0  0  0  0  0  0  0  0  0  0  0  0
  -19.4010  -28.5480   23.0930 C   0  0  0  0  0  3  0  0  0  0  0  0
  -18.0320  -28.8470   23.2240 C   0  0  0  0  0  3  0  0  0  0  0  0
  -17.0700  -28.0290   22.6020 C   0  0  0  0  0  3  0  0  0  0  0  0
  -17.4810  -26.9140   21.8500 C   0  0  0  0  0  3  0  0  0  0  0  0
  -26.0180  -31.7480   23.9170 C   0  0  0  0  0  3  0  0  0  0  0  0
  -26.4010  -30.9480   25.2220 C   0  0  1  0  0  0  0  0  0  0  0  0
  -25.1950  -30.6410   26.1440 C   0  0  0  0  0  1  0  0  0  0  0  0
  -27.0700  -29.6040   24.8560 C   0  0  0  0  0  1  0  0  0  0  0  0
  -27.4360  -31.7520   26.0420 C   0  0  0  0  0  1  0  0  0  0  0  0
  -25.6020  -33.1160   24.2550 N   0  0  0  0  0  0  0  0  0  0  0  0
  -25.9920  -34.2140   23.5930 C   0  0  0  0  0  0  0  0  0  0  0  0
  -26.8090  -34.1820   22.6690 O   0  0  0  0  0  0  0  0  0  0  0  0
  -24.8870  -33.2110   24.9610 H   0  0  0  0  0  0  0  0  0  0  0  0
  -24.2390  -35.9430   23.0800 C   0  0  0  0  0  1  0  0  0  0  0  0
  -25.3840  -35.5620   24.0310 C   0  0  0  0  0  3  0  0  0  0  0  0
  -27.3450  -36.5050   25.1670 C   0  0  0  0  0  1  0  0  0  0  0  0
  -26.3720  -36.6630   24.0890 N   0  0  0  0  0  0  0  0  0  0  0  0
  -25.9060  -37.5600   24.2090 H   0  0  0  0  0  0  0  0  0  0  0  0
  -30.9840  -17.6900   19.4230 C   0  0  0  0  0  2  0  0  0  0  0  0
  -31.3940  -15.1280   19.9160 C   0  0  0  0  0  0  0  0  0  0  0  0
  -31.2980  -12.6640   19.4400 C   0  0  0  0  0  2  0  0  0  0  0  0
  -30.4110  -12.4440   18.1960 C   0  0  0  0  0  2  0  0  0  0  0  0
  -28.9250  -12.3280   18.5930 C   0  0  0  0  0  2  0  0  0  0  0  0
  -28.4870  -13.4220   19.6050 C   0  0  0  0  0  3  0  0  0  0  0  0
  -29.5080  -13.6300   20.7410 C   0  0  0  0  0  2  0  0  0  0  0  0
  -30.8060  -13.8930   20.1100 N   0  0  0  0  0  0  0  0  0  0  0  0
  -32.5950  -15.1890   19.6400 O   0  0  0  0  0  0  0  0  0  0  0  0
  -30.5870  -16.2600   19.8150 N   0  0  0  0  0  0  0  0  0  0  0  0
  -29.5960  -16.0930   19.8950 H   0  0  0  0  0  0  0  0  0  0  0  0
  -26.1600  -14.1200   20.4080 C   0  0  0  0  0  0  0  0  0  0  0  0
  -25.0580  -13.4040   20.7740 C   0  0  0  0  0  0  0  0  0  0  0  0
  -25.4340  -12.0280   20.6930 C   0  0  0  0  0  0  0  0  0  0  0  0
  -27.1410  -13.1900   20.1150 N   0  0  0  0  0  0  0  0  0  0  0  0
  -26.7150  -11.9200   20.3470 N   0  0  0  0  0  0  0  0  0  0  0  0
  -24.6300  -10.8100   20.8640 C   0  0  0  0  0  0  0  0  0  0  0  0
  -24.9310   -9.8620   21.8640 C   0  0  0  0  0  3  0  0  0  0  0  0
  -24.1300   -8.7100   22.0230 C   0  0  0  0  0  3  0  0  0  0  0  0
  -23.0140   -8.4990   21.1780 C   0  0  0  0  0  0  0  0  0  0  0  0
  -22.7330   -9.4370   20.1680 C   0  0  0  0  0  3  0  0  0  0  0  0
  -23.5340  -10.5780   20.0080 C   0  0  0  0  0  3  0  0  0  0  0  0
  -22.1970   -7.3970   21.2380 O   0  0  0  0  0  0  0  0  0  0  0  0
  -21.8890   -6.7950   22.4330 C   0  0  0  0  0  0  0  0  0  0  0  0
  -21.2180   -7.4860   23.4660 C   0  0  0  0  0  3  0  0  0  0  0  0
  -20.8570   -6.8090   24.6480 C   0  0  0  0  0  3  0  0  0  0  0  0
  -21.1580   -5.4430   24.7980 C   0  0  0  0  0  0  0  0  0  0  0  0
  -21.8240   -4.7520   23.7700 C   0  0  0  0  0  3  0  0  0  0  0  0
  -22.1870   -5.4250   22.5910 C   0  0  0  0  0  0  0  0  0  0  0  0
  -22.8070   -4.7490   21.5940 F   0  0  0  0  0  0  0  0  0  0  0  0
  -20.8070   -4.7920   25.9310 F   0  0  0  0  0  0  0  0  0  0  0  0
  -23.6990  -13.9600   21.0930 C   0  0  0  0  0  0  0  0  0  0  0  0
  -22.9620  -13.3050   21.9750 N   0  0  0  0  0  0  0  0  0  0  0  0
  -23.3080  -15.0150   20.5870 O   0  0  0  0  0  0  0  0  0  0  0  0
  -23.2910  -12.4490   22.4020 H   0  0  0  0  0  0  0  0  0  0  0  0
  -22.0490  -13.6590   22.2300 H   0  0  0  0  0  0  0  0  0  0  0  0
  -26.4030  -15.4870   20.2810 N   0  0  0  0  0  0  0  0  0  0  0  0
  -25.6810  -16.1710   20.4840 H   0  0  0  0  0  0  0  0  0  0  0  0
  -27.2650  -15.9070   19.9620 H   0  0  0  0  0  0  0  0  0  0  0  0
  1  4  1  0
  3  6  2  0
  4  2  2  0
  4 54  1  0
  5  1  2  0
  5  3  1  0
  6  2  1  0
  6  7  1  0
  7  8  1  0
  7  9  1  0
 11  5  1  0
 11 10  2  0
 12 10  1  0
 12 13  1  0
 14 25  2  0
 15 13  1  0
 15 20  1  0
 16 24  1  0
 16 26  1  0
 17 23  1  0
 17 19  1  0
 18 24  1  0
 19 18  1  0
 20 19  2  0
 21 22  1  0
 21 15  2  0
 22 17  2  0
 23 16  1  0
 24 14  1  0
 26 28  2  0
 27 26  1  0
 29 27  1  0
 30 39  2  0
 30 35  1  0
 31 27  1  0
 31 35  1  0
 32 31  1  0
 33 34  1  0
 33 32  1  0
 34 30  1  0
 35 36  2  0
 36 37  1  0
 38 37  2  0
 39 38  1  0
 40 14  1  0
 40 45  1  0
 40 41  1  0
 41 44  1  1
 41 42  1  0
 43 41  1  0
 45 48  1  0
 46 50  1  0
 46 45  1  0
 47 46  2  0
 50 49  1  0
 50 52  1  0
 52 53  1  0
 52 51  1  0
 54 63  1  0
 55 61  1  0
 56 61  1  0
 57 58  1  0
 57 56  1  0
 59 58  1  0
 59 68  1  0
 59 60  1  0
 61 60  1  0
 62 55  2  0
 63 64  1  0
 63 55  1  0
 65 66  2  0
 66 85  1  0
 67 66  1  0
 67 70  1  0
 68 69  1  0
 68 65  1  0
 69 67  2  0
 70 71  1  0
 71 72  2  0
 73 76  1  0
 73 72  1  0
 74 73  2  0
 75 74  1  0
 75 70  2  0
 76 77  1  0
 77 82  2  0
 77 78  1  0
 78 79  2  0
 79 80  1  0
 80 84  1  0
 81 80  2  0
 82 81  1  0
 83 82  1  0
 85 86  1  0
 86 89  1  0
 86 88  1  0
 87 85  2  0
 90 65  1  0
 90 91  1  0
 92 90  1  0
M  ISO  4  12 101  13 101  55 100  63 100
M  END
>  <TORSDO>  (74) 
F 20

>  <SCORE>  (74) 
-10.451

>  <name>  (74) 
73

>  <ligand_id>  (74) 
73

>  <original_smiles>  (74) 
[H]C(=Nc1c([H])c(N([H])[H])c([H])c(C([H])([H])N([H])C(=O)N2C([H])([H])C([H])([H])C([H])([H])C([H])(n3nc(-c4c([H])c([H])c(Oc5c([H])c([H])c(F)c([H])c5F)c([H])c4[H])c(C(=O)N([H])[H])c3N([H])[H])C2([H])[H])c1[H])C([H])([H])Oc1c([H])c([H])c2c(c1[H])C([H])([H])N(C(=O)C([H])(N([H])C(=O)C([H])(N([H])C([H])([H])[H])C([H])([H])[H])C(C([H])([H])[H])(C([H])([H])[H])C([H])([H])[H])C([H])(C(=O)N([H])C1([H])c3c([H])c([H])c([H])c([H])c3C([H])([H])C([H])([H])C1([H])[H])C2([H])[H]

>  <smiles>  (74) 
[H]C(=Nc1c([H])c(N([H])[H])c([H])c(C([H])([H])N([H])C(=O)N2C([H])([H])C([H])([H])C([H])([H])C([H])(n3nc(-c4c([H])c([H])c(Oc5c([H])c([H])c(F)c([H])c5F)c([H])c4[H])c(C(=O)N([H])[H])c3N([H])[H])C2([H])[H])c1[H])C([H])([H])Oc1c([H])c([H])c2c(c1[H])C([H])([H])N(C(=O)C([H])(N([H])C(=O)C([H])(N([H])C([H])([H])[H])C([H])([H])[H])C(C([H])([H])[H])(C([H])([H])[H])C([H])([H])[H])C([H])(C(=O)N([H])C1([H])c3c([H])c([H])c([H])c([H])c3C([H])([H])C([H])([H])C1([H])[H])C2([H])[H]

$$$$
74:0:0
     RDKit          3D

 93101  0  0  1  0  0  0  0  0999 V2000
  -27.4770  -19.5600   20.4230 C   0  0  0  0  0  3  0  0  0  0  0  0
  -27.9360  -20.8870   20.2780 C   0  0  0  0  0  3  0  0  0  0  0  0
  -30.1620  -19.9930   19.9650 C   0  0  0  0  0  3  0  0  0  0  0  0
  -29.7250  -18.5980   20.0720 C   0  0  0  0  0  0  0  0  0  0  0  0
  -28.3390  -18.4370   20.3640 C   0  0  0  0  0  0  0  0  0  0  0  0
  -29.3000  -21.1680   20.0770 C   0  0  0  0  0  0  0  0  0  0  0  0
  -31.0360  -14.8560   19.8450 C   0  0  0  0  0  0  0  0  0  0  0  0
  -30.7560  -12.5310   18.9540 C   0  0  0  0  0  2  0  0  0  0  0  0
  -29.7570  -12.5380   17.7770 C   0  0  0  0  0  2  0  0  0  0  0  0
  -28.3160  -12.3780   18.2960 C   0  0  0  0  0  2  0  0  0  0  0  0
  -28.0010  -13.3220   19.4890 C   0  0  0  0  0  3  0  0  0  0  0  0
  -29.1220  -13.3130   20.5510 C   0  0  0  0  0  2  0  0  0  0  0  0
  -30.3770  -13.6410   19.8630 N   0  0  0  0  0  0  0  0  0  0  0  0
  -32.2140  -14.8630   19.4780 O   0  0  0  0  0  0  0  0  0  0  0  0
  -30.7170  -17.3780   19.9280 C   0  0  0  0  0  0  0  0  0  0  0  0
  -30.3130  -16.0400   20.0290 N   0  0  0  0  0  0  0  0  0  0  0  0
  -31.8950  -17.6730   19.6960 O   0  0  0  0  0  0  0  0  0  0  0  0
  -29.3280  -15.9490   20.2350 H   0  0  0  0  0  0  0  0  0  0  0  0
  -25.6970  -13.9370   20.4320 C   0  0  0  0  0  0  0  0  0  0  0  0
  -24.6340  -13.1780   20.8350 C   0  0  0  0  0  0  0  0  0  0  0  0
  -25.0440  -11.8180   20.6890 C   0  0  0  0  0  0  0  0  0  0  0  0
  -26.6910  -13.0430   20.0700 N   0  0  0  0  0  0  0  0  0  0  0  0
  -26.3070  -11.7570   20.2850 N   0  0  0  0  0  0  0  0  0  0  0  0
  -24.2810  -10.5730   20.8560 C   0  0  0  0  0  0  0  0  0  0  0  0
  -24.6390   -9.6130   21.8280 C   0  0  0  0  0  3  0  0  0  0  0  0
  -23.8780   -8.4340   21.9820 C   0  0  0  0  0  3  0  0  0  0  0  0
  -22.7440   -8.2090   21.1650 C   0  0  0  0  0  0  0  0  0  0  0  0
  -22.4050   -9.1590   20.1850 C   0  0  0  0  0  3  0  0  0  0  0  0
  -23.1670  -10.3280   20.0280 C   0  0  0  0  0  3  0  0  0  0  0  0
  -21.9600   -7.0820   21.2270 O   0  0  0  0  0  0  0  0  0  0  0  0
  -21.6970   -6.4530   22.4170 C   0  0  0  0  0  0  0  0  0  0  0  0
  -21.0330   -7.1100   23.4760 C   0  0  0  0  0  3  0  0  0  0  0  0
  -20.7210   -6.4050   24.6570 C   0  0  0  0  0  3  0  0  0  0  0  0
  -21.0620   -5.0440   24.7750 C   0  0  0  0  0  0  0  0  0  0  0  0
  -21.7180   -4.3870   23.7190 C   0  0  0  0  0  3  0  0  0  0  0  0
  -22.0320   -5.0900   22.5430 C   0  0  0  0  0  0  0  0  0  0  0  0
  -22.6450   -4.4470   21.5200 F   0  0  0  0  0  0  0  0  0  0  0  0
  -20.7560   -4.3650   25.9040 F   0  0  0  0  0  0  0  0  0  0  0  0
  -23.2830  -13.6880   21.2440 C   0  0  0  0  0  0  0  0  0  0  0  0
  -22.5940  -12.9640   22.1190 N   0  0  0  0  0  0  0  0  0  0  0  0
  -22.8520  -14.7630   20.8280 O   0  0  0  0  0  0  0  0  0  0  0  0
  -22.9580  -12.0940   22.4780 H   0  0  0  0  0  0  0  0  0  0  0  0
  -21.6900  -13.2860   22.4350 H   0  0  0  0  0  0  0  0  0  0  0  0
  -25.8850  -15.3090   20.3280 N   0  0  0  0  0  0  0  0  0  0  0  0
  -25.1500  -15.9580   20.5820 H   0  0  0  0  0  0  0  0  0  0  0  0
  -26.7860  -15.7670   20.2090 H   0  0  0  0  0  0  0  0  0  0  0  0
  -27.7610  -17.1980   20.6490 N   0  0  0  0  0  0  0  0  0  0  0  0
  -28.1950  -16.7110   21.4270 H   0  0  0  0  0  0  0  0  0  0  0  0
  -26.7670  -17.2540   20.8550 H   0  0  0  0  0  0  0  0  0  0  0  0
  -29.7740  -22.5200   20.0770 O   0  0  0  0  0  0  0  0  0  0  0  0
  -28.9940  -23.7320   19.6290 C   0  0  0  0  0  2  0  0  0  0  0  0
  -28.7170  -25.0260   20.5870 C   0  0  0  0  0  2  0  0  0  0  0  0
  -28.7910  -26.4750   20.1600 O   0  0  0  0  0  0  0  0  0  0  0  0
  -24.6120  -31.6560   23.1320 C   0  0  0  0  0  0  0  0  0  0  0  0
  -27.6330  -27.2860   20.1310 C   0  0  0  0  0  0  0  0  0  0  0  0
  -23.5840  -30.2480   21.3840 C   0  0  0  0  0  3  0  0  0  0  0  0
  -25.1970  -28.8050   20.0120 C   0  0  0  0  0  0  0  0  0  0  0  0
  -26.1130  -30.6920   21.3640 C   0  0  0  0  0  2  0  0  0  0  0  0
  -26.3050  -29.3320   20.6880 C   0  0  0  0  0  0  0  0  0  0  0  0
  -27.5290  -28.5890   20.7280 C   0  0  0  0  0  3  0  0  0  0  0  0
  -26.5000  -26.8150   19.4380 C   0  0  0  0  0  3  0  0  0  0  0  0
  -25.3000  -27.5560   19.3750 C   0  0  0  0  0  3  0  0  0  0  0  0
  -23.9170  -29.6200   20.0050 C   0  0  0  0  0  2  0  0  0  0  0  0
  -24.7840  -30.8830   22.0190 N   0  0  0  0  0  0  0  0  0  0  0  0
  -23.4840  -31.8610   23.6070 O   0  0  0  0  0  0  0  0  0  0  0  0
  -22.9170  -29.1740   22.2760 C   0  0  0  0  0  0  0  0  0  0  0  0
  -21.5970  -28.9790   22.1090 N   0  0  0  0  0  0  0  0  0  0  0  0
  -23.5870  -28.5200   23.0800 O   0  0  0  0  0  0  0  0  0  0  0  0
  -21.1140  -29.5600   21.4380 H   0  0  0  0  0  0  0  0  0  0  0  0
  -18.2210  -27.7410   22.5250 C   0  0  0  0  0  0  0  0  0  0  0  0
  -20.7800  -27.9850   22.8090 C   0  0  0  0  0  3  0  0  0  0  0  0
  -20.8830  -26.6000   22.1290 C   0  0  0  0  0  2  0  0  0  0  0  0
  -19.7800  -26.3510   21.0960 C   0  0  0  0  0  2  0  0  0  0  0  0
  -18.4000  -26.4460   21.7500 C   0  0  0  0  0  2  0  0  0  0  0  0
  -19.3390  -28.4710   23.0080 C   0  0  0  0  0  0  0  0  0  0  0  0
  -19.1190  -29.6860   23.6920 C   0  0  0  0  0  3  0  0  0  0  0  0
  -17.8130  -30.1710   23.8970 C   0  0  0  0  0  3  0  0  0  0  0  0
  -16.7090  -29.4370   23.4290 C   0  0  0  0  0  3  0  0  0  0  0  0
  -16.9150  -28.2230   22.7480 C   0  0  0  0  0  3  0  0  0  0  0  0
  -25.8180  -32.3370   23.8500 C   0  0  0  0  0  3  0  0  0  0  0  0
  -26.2620  -31.5830   25.1650 C   0  0  1  0  0  0  0  0  0  0  0  0
  -25.1000  -31.3020   26.1440 C   0  0  0  0  0  1  0  0  0  0  0  0
  -26.9270  -30.2300   24.8220 C   0  0  0  0  0  1  0  0  0  0  0  0
  -27.3260  -32.4210   25.9140 C   0  0  0  0  0  1  0  0  0  0  0  0
  -25.4320  -33.7220   24.1560 N   0  0  0  0  0  0  0  0  0  0  0  0
  -25.7650  -34.7880   23.4180 C   0  0  0  0  0  0  0  0  0  0  0  0
  -26.4980  -34.7110   22.4270 O   0  0  0  0  0  0  0  0  0  0  0  0
  -24.7840  -33.8520   24.9200 H   0  0  0  0  0  0  0  0  0  0  0  0
  -23.9790  -36.5030   22.9720 C   0  0  0  0  0  1  0  0  0  0  0  0
  -25.1980  -36.1560   23.8420 C   0  0  0  0  0  3  0  0  0  0  0  0
  -27.2420  -37.1480   24.7760 C   0  0  0  0  0  1  0  0  0  0  0  0
  -26.1880  -37.2520   23.7700 N   0  0  0  0  0  0  0  0  0  0  0  0
  -25.7340  -38.1560   23.8800 H   0  0  0  0  0  0  0  0  0  0  0  0
  2  1  2  0
  3  4  1  0
  3  6  2  0
  4  5  2  0
  5  1  1  0
  5 47  1  0
  6  2  1  0
  7 13  1  0
  7 16  1  0
  8 13  1  0
  9 10  1  0
  9  8  1  0
 11 10  1  0
 11 22  1  0
 11 12  1  0
 13 12  1  0
 14  7  2  0
 15 16  1  0
 15  4  1  0
 16 18  1  0
 17 15  2  0
 19 20  2  0
 20 39  1  0
 21 20  1  0
 21 24  1  0
 22 23  1  0
 22 19  1  0
 23 21  2  0
 24 25  1  0
 25 26  2  0
 27 30  1  0
 27 26  1  0
 28 27  2  0
 29 28  1  0
 29 24  2  0
 30 31  1  0
 31 36  2  0
 31 32  1  0
 32 33  2  0
 33 34  1  0
 34 38  1  0
 35 34  2  0
 36 35  1  0
 37 36  1  0
 39 40  1  0
 40 43  1  0
 40 42  1  0
 41 39  2  0
 44 19  1  0
 44 45  1  0
 46 44  1  0
 47 49  1  0
 47 48  1  0
 50  6  1  0
 51 50  1  0
 51 52  1  0
 53 52  1  0
 54 65  2  0
 55 53  1  0
 55 60  1  0
 56 64  1  0
 56 66  1  0
 57 59  1  0
 58 64  1  0
 59 60  2  0
 59 58  1  0
 61 55  2  0
 62 61  1  0
 62 57  2  0
 63 57  1  0
 63 56  1  0
 64 54  1  0
 66 68  2  0
 67 66  1  0
 69 67  1  0
 70 79  2  0
 70 75  1  0
 71 67  1  0
 71 75  1  0
 72 71  1  0
 73 74  1  0
 73 72  1  0
 74 70  1  0
 75 76  2  0
 76 77  1  0
 78 77  2  0
 79 78  1  0
 80 54  1  0
 80 85  1  0
 80 81  1  0
 81 84  1  1
 81 82  1  0
 83 81  1  0
 85 88  1  0
 86 90  1  0
 86 85  1  0
 87 86  2  0
 90 89  1  0
 92 90  1  0
 92 93  1  0
 92 91  1  0
M  ISO  4   7 100  16 100  52 101  53 101
M  END
>  <TORSDO>  (75) 
F 20

>  <SCORE>  (75) 
-12.725

>  <name>  (75) 
74

>  <ligand_id>  (75) 
74

>  <original_smiles>  (75) 
[H]c1c([H])c([H])c2c(c1[H])C([H])([H])C([H])([H])C([H])([H])C2([H])N([H])C(=O)C1([H])N(C(=O)C([H])(N([H])C(=O)C([H])(N([H])C([H])([H])[H])C([H])([H])[H])C(C([H])([H])[H])(C([H])([H])[H])C([H])([H])[H])C([H])([H])c2c([H])c(OC([H])([H])C([H])([H])Oc3c([H])c([H])c(N([H])[H])c(C(=O)N([H])C(=O)N4C([H])([H])C([H])([H])C([H])([H])C([H])(n5nc(-c6c([H])c([H])c(Oc7c([H])c([H])c(F)c([H])c7F)c([H])c6[H])c(C(=O)N([H])[H])c5N([H])[H])C4([H])[H])c3[H])c([H])c([H])c2C1([H])[H]

>  <smiles>  (75) 
[H]c1c([H])c([H])c2c(c1[H])C([H])([H])C([H])([H])C([H])([H])C2([H])N([H])C(=O)C1([H])N(C(=O)C([H])(N([H])C(=O)C([H])(N([H])C([H])([H])[H])C([H])([H])[H])C(C([H])([H])[H])(C([H])([H])[H])C([H])([H])[H])C([H])([H])c2c([H])c(OC([H])([H])C([H])([H])Oc3c([H])c([H])c(N([H])[H])c(C(=O)N([H])C(=O)N4C([H])([H])C([H])([H])C([H])([H])C([H])(n5nc(-c6c([H])c([H])c(Oc7c([H])c([H])c(F)c([H])c7F)c([H])c6[H])c(C(=O)N([H])[H])c5N([H])[H])C4([H])[H])c3[H])c([H])c([H])c2C1([H])[H]

$$$$
75:0:0
     RDKit          3D

 93101  0  0  1  0  0  0  0  0999 V2000
  -29.4720  -21.1660   20.6810 C   0  0  0  0  0  0  0  0  0  0  0  0
  -28.8430  -22.3030   20.1900 N   0  0  0  0  0  0  0  0  0  0  0  0
  -30.3220  -21.2880   21.5660 O   0  0  0  0  0  0  0  0  0  0  0  0
  -28.1640  -22.1170   19.4620 H   0  0  0  0  0  0  0  0  0  0  0  0
  -28.7740  -17.0560   19.0880 C   0  0  0  0  0  3  0  0  0  0  0  0
  -28.1670  -18.1890   18.5090 C   0  0  0  0  0  3  0  0  0  0  0  0
  -29.7460  -18.5150   20.7580 C   0  0  0  0  0  3  0  0  0  0  0  0
  -29.1700  -19.7180   20.1570 C   0  0  0  0  0  0  0  0  0  0  0  0
  -29.5570  -17.1590   20.2530 C   0  0  0  0  0  0  0  0  0  0  0  0
  -28.3200  -19.5000   19.0340 C   0  0  0  0  0  0  0  0  0  0  0  0
  -30.6280  -14.7750   20.3900 C   0  0  0  0  0  0  0  0  0  0  0  0
  -30.3680  -12.4940   19.3820 C   0  0  0  0  0  2  0  0  0  0  0  0
  -29.4430  -12.5610   18.1480 C   0  0  0  0  0  2  0  0  0  0  0  0
  -27.9770  -12.3730   18.5810 C   0  0  0  0  0  2  0  0  0  0  0  0
  -27.5960  -13.2910   19.7740 C   0  0  0  0  0  3  0  0  0  0  0  0
  -28.6470  -13.2440   20.9040 C   0  0  0  0  0  2  0  0  0  0  0  0
  -29.9530  -13.5720   20.3160 N   0  0  0  0  0  0  0  0  0  0  0  0
  -31.7860  -14.8410   19.9700 O   0  0  0  0  0  0  0  0  0  0  0  0
  -30.0320  -15.9150   20.9130 N   0  0  0  0  0  0  0  0  0  0  0  0
  -30.4310  -16.1040   21.8210 H   0  0  0  0  0  0  0  0  0  0  0  0
  -25.2130  -13.9060   20.4850 C   0  0  0  0  0  0  0  0  0  0  0  0
  -24.1400  -13.1400   20.8500 C   0  0  0  0  0  0  0  0  0  0  0  0
  -24.5960  -11.7850   20.8360 C   0  0  0  0  0  0  0  0  0  0  0  0
  -26.2520  -13.0170   20.2640 N   0  0  0  0  0  0  0  0  0  0  0  0
  -25.8900  -11.7380   20.5400 N   0  0  0  0  0  0  0  0  0  0  0  0
  -23.8640  -10.5290   21.0320 C   0  0  0  0  0  0  0  0  0  0  0  0
  -24.2940   -9.5600   21.9640 C   0  0  0  0  0  3  0  0  0  0  0  0
  -23.5610   -8.3670   22.1490 C   0  0  0  0  0  3  0  0  0  0  0  0
  -22.3830   -8.1360   21.3990 C   0  0  0  0  0  0  0  0  0  0  0  0
  -21.9700   -9.0940   20.4570 C   0  0  0  0  0  3  0  0  0  0  0  0
  -22.7030  -10.2770   20.2720 C   0  0  0  0  0  3  0  0  0  0  0  0
  -21.6200   -6.9970   21.4920 O   0  0  0  0  0  0  0  0  0  0  0  0
  -21.5810   -6.2490   22.6410 C   0  0  0  0  0  0  0  0  0  0  0  0
  -21.1860   -6.8040   23.8790 C   0  0  0  0  0  3  0  0  0  0  0  0
  -21.0920   -5.9830   25.0190 C   0  0  0  0  0  3  0  0  0  0  0  0
  -21.3850   -4.6100   24.9260 C   0  0  0  0  0  0  0  0  0  0  0  0
  -21.7710   -4.0530   23.6950 C   0  0  0  0  0  3  0  0  0  0  0  0
  -21.8670   -4.8710   22.5540 C   0  0  0  0  0  0  0  0  0  0  0  0
  -22.2190   -4.3270   21.3640 F   0  0  0  0  0  0  0  0  0  0  0  0
  -21.2860   -3.8190   26.0210 F   0  0  0  0  0  0  0  0  0  0  0  0
  -22.7430  -13.6240   21.1080 C   0  0  0  0  0  0  0  0  0  0  0  0
  -22.0090  -12.9400   21.9770 N   0  0  0  0  0  0  0  0  0  0  0  0
  -22.3120  -14.6430   20.5740 O   0  0  0  0  0  0  0  0  0  0  0  0
  -22.3710  -12.1100   22.4230 H   0  0  0  0  0  0  0  0  0  0  0  0
  -21.0740  -13.2510   22.1960 H   0  0  0  0  0  0  0  0  0  0  0  0
  -25.3870  -15.2760   20.2970 N   0  0  0  0  0  0  0  0  0  0  0  0
  -24.6200  -15.9340   20.3790 H   0  0  0  0  0  0  0  0  0  0  0  0
  -26.2510  -15.7090   19.9960 H   0  0  0  0  0  0  0  0  0  0  0  0
  -26.2860  -20.3780   18.1510 C   0  0  0  0  0  1  0  0  0  0  0  0
  -27.6760  -20.5560   18.4280 O   0  0  0  0  0  0  0  0  0  0  0  0
  -29.1180  -23.7810   20.4960 C   0  0  0  0  0  3  0  0  0  0  0  0
  -28.0240  -24.9100   20.1070 C   0  0  0  0  0  3  0  0  0  0  0  0
  -28.2800  -26.3870   20.2780 O   0  0  0  0  0  0  0  0  0  0  0  0
  -24.6080  -31.9080   23.2430 C   0  0  0  0  0  0  0  0  0  0  0  0
  -27.1880  -27.2880   20.2010 C   0  0  0  0  0  0  0  0  0  0  0  0
  -23.4000  -30.5120   21.6040 C   0  0  0  0  0  3  0  0  0  0  0  0
  -24.8440  -28.9550   20.1760 C   0  0  0  0  0  0  0  0  0  0  0  0
  -25.9440  -30.8080   21.4240 C   0  0  0  0  0  2  0  0  0  0  0  0
  -26.0180  -29.4250   20.7770 C   0  0  0  0  0  0  0  0  0  0  0  0
  -27.1940  -28.6040   20.7780 C   0  0  0  0  0  3  0  0  0  0  0  0
  -25.9870  -26.8880   19.5690 C   0  0  0  0  0  3  0  0  0  0  0  0
  -24.8320  -27.6950   19.5610 C   0  0  0  0  0  3  0  0  0  0  0  0
  -23.6150  -29.8400   20.2240 C   0  0  0  0  0  2  0  0  0  0  0  0
  -24.6710  -31.0930   22.1490 N   0  0  0  0  0  0  0  0  0  0  0  0
  -23.5230  -32.1930   23.7750 O   0  0  0  0  0  0  0  0  0  0  0  0
  -22.7280  -29.5000   22.5660 C   0  0  0  0  0  0  0  0  0  0  0  0
  -21.4010  -29.3290   22.4400 N   0  0  0  0  0  0  0  0  0  0  0  0
  -23.4020  -28.8740   23.3890 O   0  0  0  0  0  0  0  0  0  0  0  0
  -20.9120  -29.8730   21.7430 H   0  0  0  0  0  0  0  0  0  0  0  0
  -18.0200  -28.1470   22.9450 C   0  0  0  0  0  0  0  0  0  0  0  0
  -20.5780  -28.4000   23.2170 C   0  0  0  0  0  3  0  0  0  0  0  0
  -20.6770  -26.9670   22.6430 C   0  0  0  0  0  2  0  0  0  0  0  0
  -19.5690  -26.6440   21.6340 C   0  0  0  0  0  2  0  0  0  0  0  0
  -18.1930  -26.7900   22.2840 C   0  0  0  0  0  2  0  0  0  0  0  0
  -19.1400  -28.9100   23.3690 C   0  0  0  0  0  0  0  0  0  0  0  0
  -18.9230  -30.1780   23.9530 C   0  0  0  0  0  3  0  0  0  0  0  0
  -17.6170  -30.6830   24.1130 C   0  0  0  0  0  3  0  0  0  0  0  0
  -16.5130  -29.9170   23.7010 C   0  0  0  0  0  3  0  0  0  0  0  0
  -16.7140  -28.6510   23.1240 C   0  0  0  0  0  3  0  0  0  0  0  0
  -25.8910  -32.5380   23.8660 C   0  0  0  0  0  3  0  0  0  0  0  0
  -26.4050  -31.7650   25.1430 C   0  0  1  0  0  0  0  0  0  0  0  0
  -25.3080  -31.5370   26.2100 C   0  0  0  0  0  1  0  0  0  0  0  0
  -26.9760  -30.3820   24.7540 C   0  0  0  0  0  1  0  0  0  0  0  0
  -27.5560  -32.5540   25.8060 C   0  0  0  0  0  1  0  0  0  0  0  0
  -25.5850  -33.9370   24.1970 N   0  0  0  0  0  0  0  0  0  0  0  0
  -25.9190  -34.9910   23.4380 C   0  0  0  0  0  0  0  0  0  0  0  0
  -26.5810  -34.8850   22.4020 O   0  0  0  0  0  0  0  0  0  0  0  0
  -24.9870  -34.0920   24.9950 H   0  0  0  0  0  0  0  0  0  0  0  0
  -24.1860  -36.7870   23.1040 C   0  0  0  0  0  1  0  0  0  0  0  0
  -25.4390  -36.3810   23.8990 C   0  0  0  0  0  3  0  0  0  0  0  0
  -27.5870  -37.2640   24.6990 C   0  0  0  0  0  1  0  0  0  0  0  0
  -26.4720  -37.4330   23.7710 N   0  0  0  0  0  0  0  0  0  0  0  0
  -26.0680  -38.3530   23.9230 H   0  0  0  0  0  0  0  0  0  0  0  0
  1  3  2  0
  2 51  1  0
  2  1  1  0
  4  2  1  0
  5  9  1  0
  6 10  1  0
  6  5  2  0
  8  1  1  0
  8  7  1  0
  9  7  2  0
  9 19  1  0
 10  8  2  0
 11 19  1  0
 12 17  1  0
 13 14  1  0
 13 12  1  0
 15 14  1  0
 15 24  1  0
 15 16  1  0
 17 11  1  0
 17 16  1  0
 18 11  2  0
 19 20  1  0
 21 22  2  0
 22 41  1  0
 23 22  1  0
 23 26  1  0
 24 21  1  0
 24 25  1  0
 25 23  2  0
 26 27  1  0
 27 28  2  0
 29 32  1  0
 29 28  1  0
 30 29  2  0
 31 30  1  0
 31 26  2  0
 32 33  1  0
 33 34  1  0
 34 35  2  0
 36 35  1  0
 36 40  1  0
 37 36  2  0
 38 33  2  0
 38 37  1  0
 39 38  1  0
 41 42  1  0
 42 45  1  0
 42 44  1  0
 43 41  2  0
 46 47  1  0
 46 21  1  0
 48 46  1  0
 49 50  1  0
 50 10  1  0
 52 53  1  0
 52 51  2  0
 54 65  2  0
 55 53  1  0
 55 60  1  0
 56 64  1  0
 56 66  1  0
 57 63  1  0
 57 59  1  0
 58 64  1  0
 59 60  2  0
 59 58  1  0
 61 55  2  0
 62 61  1  0
 62 57  2  0
 63 56  1  0
 64 54  1  0
 66 68  2  0
 67 66  1  0
 69 67  1  0
 70 79  2  0
 70 75  1  0
 71 67  1  0
 71 75  1  0
 72 71  1  0
 73 74  1  0
 73 72  1  0
 74 70  1  0
 75 76  2  0
 76 77  1  0
 78 77  2  0
 79 78  1  0
 80 54  1  0
 80 85  1  0
 80 81  1  0
 81 84  1  1
 81 82  1  0
 83 81  1  0
 85 88  1  0
 86 90  1  0
 86 85  1  0
 87 86  2  0
 90 89  1  0
 92 90  1  0
 92 93  1  0
 92 91  1  0
M  ISO  4  11 100  19 100  52 101  53 101
M  END
>  <TORSDO>  (76) 
F 20

>  <SCORE>  (76) 
-14.253

>  <name>  (76) 
75

>  <ligand_id>  (76) 
75

>  <original_smiles>  (76) 
[H]c1c([H])c([H])c2c(c1[H])C([H])([H])C([H])([H])C([H])([H])C2([H])N([H])C(=O)C1([H])N(C(=O)C([H])(N([H])C(=O)C([H])(N([H])C([H])([H])[H])C([H])([H])[H])C(C([H])([H])[H])(C([H])([H])[H])C([H])([H])[H])C([H])([H])c2c([H])c(OC([H])([H])C([H])([H])N([H])C(=O)c3c([H])c(N([H])C(=O)N4C([H])([H])C([H])([H])C([H])([H])C([H])(n5nc(-c6c([H])c([H])c(Oc7c([H])c([H])c(F)c([H])c7F)c([H])c6[H])c(C(=O)N([H])[H])c5N([H])[H])C4([H])[H])c([H])c([H])c3OC([H])([H])[H])c([H])c([H])c2C1([H])[H]

>  <smiles>  (76) 
[H]c1c([H])c([H])c2c(c1[H])C([H])([H])C([H])([H])C([H])([H])C2([H])N([H])C(=O)C1([H])N(C(=O)C([H])(N([H])C(=O)C([H])(N([H])C([H])([H])[H])C([H])([H])[H])C(C([H])([H])[H])(C([H])([H])[H])C([H])([H])[H])C([H])([H])c2c([H])c(OC([H])([H])C([H])([H])N([H])C(=O)c3c([H])c(N([H])C(=O)N4C([H])([H])C([H])([H])C([H])([H])C([H])(n5nc(-c6c([H])c([H])c(Oc7c([H])c([H])c(F)c([H])c7F)c([H])c6[H])c(C(=O)N([H])[H])c5N([H])[H])C4([H])[H])c([H])c([H])c3OC([H])([H])[H])c([H])c([H])c2C1([H])[H]

$$$$
76:0:0
     RDKit          3D

 95104  0  0  1  0  0  0  0  0999 V2000
  -28.9620  -22.6650   20.6230 C   0  0  0  0  0  0  0  0  0  0  0  0
  -27.2960  -23.3350   19.0570 C   0  0  0  0  0  2  0  0  0  0  0  0
  -27.5540  -21.8160   19.0250 C   0  0  0  0  0  2  0  0  0  0  0  0
  -28.4380  -23.9440   19.8660 C   0  0  0  0  0  3  0  0  0  0  0  0
  -28.5250  -21.4840   20.0770 N   0  0  0  0  0  0  0  0  0  0  0  0
  -29.7010  -22.7580   21.6070 O   0  0  0  0  0  0  0  0  0  0  0  0
  -28.2260  -19.0230   19.6610 C   0  0  0  0  0  3  0  0  0  0  0  0
  -30.0480  -19.6310   21.0830 C   0  0  0  0  0  3  0  0  0  0  0  0
  -28.6340  -17.6610   19.6860 C   0  0  0  0  0  0  0  0  0  0  0  0
  -28.9340  -20.0700   20.3050 C   0  0  0  0  0  0  0  0  0  0  0  0
  -29.8060  -17.2340   20.3860 C   0  0  0  0  0  0  0  0  0  0  0  0
  -30.4910  -18.2530   21.1250 C   0  0  0  0  0  0  0  0  0  0  0  0
  -27.7950  -16.7070   18.8440 C   0  0  0  0  0  1  0  0  0  0  0  0
  -30.8760  -14.9040   20.8950 C   0  0  0  0  0  0  0  0  0  0  0  0
  -30.7070  -12.6090   19.9810 C   0  0  0  0  0  2  0  0  0  0  0  0
  -29.8590  -12.6140   18.6920 C   0  0  0  0  0  2  0  0  0  0  0  0
  -28.3630  -12.4700   19.0250 C   0  0  0  0  0  2  0  0  0  0  0  0
  -27.8940  -13.4040   20.1740 C   0  0  0  0  0  3  0  0  0  0  0  0
  -28.8760  -13.4020   21.3630 C   0  0  0  0  0  2  0  0  0  0  0  0
  -30.2010  -13.7110   20.8190 N   0  0  0  0  0  0  0  0  0  0  0  0
  -32.0990  -14.8810   21.0550 O   0  0  0  0  0  0  0  0  0  0  0  0
  -31.2140  -16.0420   18.8420 C   0  0  0  0  0  1  0  0  0  0  0  0
  -30.3930  -15.9140   20.0690 N   0  0  0  0  0  0  0  0  0  0  0  0
  -25.4540  -13.9900   20.6980 C   0  0  0  0  0  0  0  0  0  0  0  0
  -24.3650  -13.2120   20.9800 C   0  0  0  0  0  0  0  0  0  0  0  0
  -24.8410  -11.8660   21.0210 C   0  0  0  0  0  0  0  0  0  0  0  0
  -26.5210  -13.1160   20.5720 N   0  0  0  0  0  0  0  0  0  0  0  0
  -26.1550  -11.8350   20.8330 N   0  0  0  0  0  0  0  0  0  0  0  0
  -24.1110  -10.6000   21.1680 C   0  0  0  0  0  0  0  0  0  0  0  0
  -24.4850   -9.6420   22.1360 C   0  0  0  0  0  3  0  0  0  0  0  0
  -23.7530   -8.4420   22.2730 C   0  0  0  0  0  3  0  0  0  0  0  0
  -22.6370   -8.1920   21.4400 C   0  0  0  0  0  0  0  0  0  0  0  0
  -22.2850   -9.1390   20.4620 C   0  0  0  0  0  3  0  0  0  0  0  0
  -23.0160  -10.3310   20.3240 C   0  0  0  0  0  3  0  0  0  0  0  0
  -21.8860   -7.0430   21.4860 O   0  0  0  0  0  0  0  0  0  0  0  0
  -21.7780   -6.2970   22.6310 C   0  0  0  0  0  0  0  0  0  0  0  0
  -21.2580   -6.8400   23.8270 C   0  0  0  0  0  3  0  0  0  0  0  0
  -21.1000   -6.0190   24.9620 C   0  0  0  0  0  3  0  0  0  0  0  0
  -21.4530   -4.6570   24.9010 C   0  0  0  0  0  0  0  0  0  0  0  0
  -21.9660   -4.1140   23.7100 C   0  0  0  0  0  3  0  0  0  0  0  0
  -22.1250   -4.9320   22.5780 C   0  0  0  0  0  0  0  0  0  0  0  0
  -22.6000   -4.3990   21.4260 F   0  0  0  0  0  0  0  0  0  0  0  0
  -21.2940   -3.8660   25.9880 F   0  0  0  0  0  0  0  0  0  0  0  0
  -22.9460  -13.6810   21.1120 C   0  0  0  0  0  0  0  0  0  0  0  0
  -22.1500  -12.9980   21.9280 N   0  0  0  0  0  0  0  0  0  0  0  0
  -22.5480  -14.6900   20.5310 O   0  0  0  0  0  0  0  0  0  0  0  0
  -22.4840  -12.1820   22.4170 H   0  0  0  0  0  0  0  0  0  0  0  0
  -21.1940  -13.2970   22.0630 H   0  0  0  0  0  0  0  0  0  0  0  0
  -25.6230  -15.3580   20.5180 N   0  0  0  0  0  0  0  0  0  0  0  0
  -24.8500  -16.0120   20.5640 H   0  0  0  0  0  0  0  0  0  0  0  0
  -26.5110  -15.8030   20.3290 H   0  0  0  0  0  0  0  0  0  0  0  0
  -32.3750  -18.8390   22.5110 C   0  0  0  0  0  1  0  0  0  0  0  0
  -31.6250  -17.8580   21.8050 O   0  0  0  0  0  0  0  0  0  0  0  0
  -28.0450  -25.2700   20.6660 C   0  0  0  0  0  2  0  0  0  0  0  0
  -28.1330  -26.5920   20.0000 O   0  0  0  0  0  0  0  0  0  0  0  0
  -24.4990  -31.9510   23.1900 C   0  0  0  0  0  0  0  0  0  0  0  0
  -27.0120  -27.4250   20.0340 C   0  0  0  0  0  0  0  0  0  0  0  0
  -23.2430  -30.5610   21.5800 C   0  0  0  0  0  3  0  0  0  0  0  0
  -24.6470  -29.0170   20.1040 C   0  0  0  0  0  0  0  0  0  0  0  0
  -25.7710  -30.8910   21.3110 C   0  0  0  0  0  2  0  0  0  0  0  0
  -25.8330  -29.5150   20.6610 C   0  0  0  0  0  0  0  0  0  0  0  0
  -27.0210  -28.7310   20.6110 C   0  0  0  0  0  3  0  0  0  0  0  0
  -25.8090  -26.9730   19.4580 C   0  0  0  0  0  3  0  0  0  0  0  0
  -24.6360  -27.7530   19.4920 C   0  0  0  0  0  3  0  0  0  0  0  0
  -23.4120  -29.8890   20.1910 C   0  0  0  0  0  2  0  0  0  0  0  0
  -24.5260  -31.1520   22.0830 N   0  0  0  0  0  0  0  0  0  0  0  0
  -23.4350  -32.2240   23.7630 O   0  0  0  0  0  0  0  0  0  0  0  0
  -22.6140  -29.5410   22.5560 C   0  0  0  0  0  0  0  0  0  0  0  0
  -21.2920  -29.3300   22.4390 N   0  0  0  0  0  0  0  0  0  0  0  0
  -23.3140  -28.9380   23.3760 O   0  0  0  0  0  0  0  0  0  0  0  0
  -20.7870  -29.8670   21.7490 H   0  0  0  0  0  0  0  0  0  0  0  0
  -17.9570  -28.0180   22.9330 C   0  0  0  0  0  0  0  0  0  0  0  0
  -20.5000  -28.3810   23.2260 C   0  0  0  0  0  3  0  0  0  0  0  0
  -20.6640  -26.9400   22.6890 C   0  0  0  0  0  2  0  0  0  0  0  0
  -19.5870  -26.5500   21.6720 C   0  0  0  0  0  2  0  0  0  0  0  0
  -18.1930  -26.6590   22.2950 C   0  0  0  0  0  2  0  0  0  0  0  0
  -19.0400  -28.8320   23.3560 C   0  0  0  0  0  0  0  0  0  0  0  0
  -18.7660  -30.1000   23.9120 C   0  0  0  0  0  3  0  0  0  0  0  0
  -17.4410  -30.5550   24.0510 C   0  0  0  0  0  3  0  0  0  0  0  0
  -16.3730  -29.7380   23.6430 C   0  0  0  0  0  3  0  0  0  0  0  0
  -16.6310  -28.4720   23.0900 C   0  0  0  0  0  3  0  0  0  0  0  0
  -25.8020  -32.5800   23.7750 C   0  0  0  0  0  3  0  0  0  0  0  0
  -26.3520  -31.8040   25.0340 C   0  0  1  0  0  0  0  0  0  0  0  0
  -25.2900  -31.5690   26.1330 C   0  0  0  0  0  1  0  0  0  0  0  0
  -26.9180  -30.4250   24.6230 C   0  0  0  0  0  1  0  0  0  0  0  0
  -27.5270  -32.5920   25.6610 C   0  0  0  0  0  1  0  0  0  0  0  0
  -25.5080  -33.9790   24.1170 N   0  0  0  0  0  0  0  0  0  0  0  0
  -25.8510  -35.0350   23.3670 C   0  0  0  0  0  0  0  0  0  0  0  0
  -26.5200  -34.9330   22.3350 O   0  0  0  0  0  0  0  0  0  0  0  0
  -24.9160  -34.1310   24.9210 H   0  0  0  0  0  0  0  0  0  0  0  0
  -24.1610  -36.8630   23.0020 C   0  0  0  0  0  1  0  0  0  0  0  0
  -25.3770  -36.4240   23.8350 C   0  0  0  0  0  3  0  0  0  0  0  0
  -27.5040  -37.2630   24.7300 C   0  0  0  0  0  1  0  0  0  0  0  0
  -26.4290  -37.4610   23.7610 N   0  0  0  0  0  0  0  0  0  0  0  0
  -26.0360  -38.3870   23.9100 H   0  0  0  0  0  0  0  0  0  0  0  0
  1  6  2  0
  2  4  1  0
  3  2  1  0
  3  5  1  0
  4  1  1  0
  4 54  1  0
  5 10  1  0
  5  1  1  0
  7  9  2  0
  7 10  1  0
  8 12  1  0
  9 11  1  0
 10  8  2  0
 11 12  2  0
 12 53  1  0
 13  9  1  0
 14 21  2  0
 15 20  1  0
 16 17  1  0
 16 15  1  0
 18 17  1  0
 18 27  1  0
 18 19  1  0
 20 14  1  0
 20 19  1  0
 22 23  1  0
 23 11  1  0
 23 14  1  0
 24 25  2  0
 25 26  1  0
 25 44  1  0
 26 29  1  0
 27 24  1  0
 27 28  1  0
 28 26  2  0
 29 30  1  0
 30 31  2  0
 32 35  1  0
 32 31  1  0
 33 32  2  0
 34 33  1  0
 34 29  2  0
 35 36  1  0
 36 37  1  0
 37 38  2  0
 39 38  1  0
 39 43  1  0
 40 39  2  0
 41 36  2  0
 41 40  1  0
 42 41  1  0
 44 45  1  0
 45 48  1  0
 45 47  1  0
 46 44  2  0
 49 50  1  0
 49 24  1  0
 51 49  1  0
 53 52  1  0
 55 57  1  0
 55 54  1  0
 56 67  2  0
 57 62  1  0
 58 66  1  0
 58 68  1  0
 59 65  1  0
 59 61  1  0
 60 66  1  0
 61 60  1  0
 62 61  2  0
 63 64  1  0
 63 57  2  0
 64 59  2  0
 65 58  1  0
 66 56  1  0
 68 70  2  0
 69 68  1  0
 71 69  1  0
 72 81  2  0
 72 77  1  0
 73 69  1  0
 73 77  1  0
 74 73  1  0
 75 76  1  0
 75 74  1  0
 76 72  1  0
 77 78  2  0
 78 79  1  0
 80 79  2  0
 81 80  1  0
 82 56  1  0
 82 87  1  0
 82 83  1  0
 83 86  1  1
 83 84  1  0
 85 83  1  0
 87 90  1  0
 88 92  1  0
 88 87  1  0
 89 88  2  0
 92 91  1  0
 94 92  1  0
 94 95  1  0
 94 93  1  0
M  ISO  4  14 100  23 100  54 101  55 101
M  END
>  <TORSDO>  (77) 
F 19

>  <SCORE>  (77) 
-14.097

>  <name>  (77) 
76

>  <ligand_id>  (77) 
76

>  <original_smiles>  (77) 
[H]c1c([H])c([H])c2c(c1[H])C([H])([H])C([H])([H])C([H])([H])C2([H])N([H])C(=O)C1([H])N(C(=O)C([H])(N([H])C(=O)C([H])(N([H])C([H])([H])[H])C([H])([H])[H])C(C([H])([H])[H])(C([H])([H])[H])C([H])([H])[H])C([H])([H])c2c([H])c(OC([H])([H])C3([H])C(=O)N(c4c([H])c(OC([H])([H])[H])c(N(C(=O)N5C([H])([H])C([H])([H])C([H])([H])C([H])(n6nc(-c7c([H])c([H])c(Oc8c([H])c([H])c(F)c([H])c8F)c([H])c7[H])c(C(=O)N([H])[H])c6N([H])[H])C5([H])[H])C([H])([H])[H])c(C([H])([H])[H])c4[H])C([H])([H])C3([H])[H])c([H])c([H])c2C1([H])[H]

>  <smiles>  (77) 
[H]c1c([H])c([H])c2c(c1[H])C([H])([H])C([H])([H])C([H])([H])C2([H])N([H])C(=O)C1([H])N(C(=O)C([H])(N([H])C(=O)C([H])(N([H])C([H])([H])[H])C([H])([H])[H])C(C([H])([H])[H])(C([H])([H])[H])C([H])([H])[H])C([H])([H])c2c([H])c(OC([H])([H])C3([H])C(=O)N(c4c([H])c(OC([H])([H])[H])c(N(C(=O)N5C([H])([H])C([H])([H])C([H])([H])C([H])(n6nc(-c7c([H])c([H])c(Oc8c([H])c([H])c(F)c([H])c8F)c([H])c7[H])c(C(=O)N([H])[H])c6N([H])[H])C5([H])[H])C([H])([H])[H])c(C([H])([H])[H])c4[H])C([H])([H])C3([H])[H])c([H])c([H])c2C1([H])[H]

$$$$
77:0:0
     RDKit          3D

 95104  0  0  1  0  0  0  0  0999 V2000
  -31.0310  -21.4320   19.0140 C   0  0  0  0  0  0  0  0  0  0  0  0
  -30.9070  -22.8400   18.3940 C   0  0  0  0  0  2  0  0  0  0  0  0
  -30.4530  -23.9570   19.3520 C   0  0  0  0  0  2  0  0  0  0  0  0
  -29.4030  -22.1570   20.7340 C   0  0  0  0  0  2  0  0  0  0  0  0
  -29.1230  -23.5760   19.9960 C   0  0  0  0  0  3  0  0  0  0  0  0
  -30.2410  -21.0510   20.0580 N   0  0  0  0  0  0  0  0  0  0  0  0
  -31.8690  -20.6880   18.4980 O   0  0  0  0  0  0  0  0  0  0  0  0
  -30.4740  -18.3690   19.8820 C   0  0  0  0  0  3  0  0  0  0  0  0
  -30.4250  -19.6600   20.6250 C   0  0  0  0  0  0  0  0  0  0  0  0
  -30.6860  -17.1970   20.6390 C   0  0  0  0  0  0  0  0  0  0  0  0
  -30.5860  -19.4190   21.9750 C   0  0  0  0  0  0  0  0  0  0  0  0
  -30.8320  -17.7000   22.3060 S   0  0  0  0  0  0  0  0  0  0  0  0
  -31.3750  -14.7130   20.3410 C   0  0  0  0  0  0  0  0  0  0  0  0
  -31.1290  -12.4000   19.4140 C   0  0  0  0  0  2  0  0  0  0  0  0
  -30.2180  -12.4620   18.1650 C   0  0  0  0  0  2  0  0  0  0  0  0
  -28.7270  -12.3940   18.5590 C   0  0  0  0  0  2  0  0  0  0  0  0
  -28.3710  -13.3500   19.7280 C   0  0  0  0  0  3  0  0  0  0  0  0
  -29.3930  -13.2290   20.8790 C   0  0  0  0  0  2  0  0  0  0  0  0
  -30.7230  -13.5010   20.3130 N   0  0  0  0  0  0  0  0  0  0  0  0
  -32.5780  -14.7880   20.0710 O   0  0  0  0  0  0  0  0  0  0  0  0
  -30.5450  -15.8230   20.3850 N   0  0  0  0  0  0  0  0  0  0  0  0
  -29.5990  -15.5070   20.5270 H   0  0  0  0  0  0  0  0  0  0  0  0
  -26.0240  -14.1250   20.4260 C   0  0  0  0  0  0  0  0  0  0  0  0
  -24.8930  -13.4350   20.7630 C   0  0  0  0  0  0  0  0  0  0  0  0
  -25.2440  -12.0510   20.7100 C   0  0  0  0  0  0  0  0  0  0  0  0
  -26.9980  -13.1670   20.1880 N   0  0  0  0  0  0  0  0  0  0  0  0
  -26.5320  -11.9120   20.4220 N   0  0  0  0  0  0  0  0  0  0  0  0
  -24.4130  -10.8500   20.8590 C   0  0  0  0  0  0  0  0  0  0  0  0
  -24.7640   -9.8150   21.7540 C   0  0  0  0  0  3  0  0  0  0  0  0
  -23.9380   -8.6780   21.8920 C   0  0  0  0  0  3  0  0  0  0  0  0
  -22.7470   -8.5690   21.1360 C   0  0  0  0  0  0  0  0  0  0  0  0
  -22.4150   -9.5900   20.2290 C   0  0  0  0  0  3  0  0  0  0  0  0
  -23.2400  -10.7190   20.0880 C   0  0  0  0  0  3  0  0  0  0  0  0
  -21.8970   -7.4910   21.1870 O   0  0  0  0  0  0  0  0  0  0  0  0
  -21.7930   -6.7100   22.3100 C   0  0  0  0  0  0  0  0  0  0  0  0
  -21.4320   -7.2520   23.5640 C   0  0  0  0  0  3  0  0  0  0  0  0
  -21.2680   -6.4030   24.6760 C   0  0  0  0  0  3  0  0  0  0  0  0
  -21.4530   -5.0140   24.5360 C   0  0  0  0  0  0  0  0  0  0  0  0
  -21.8070   -4.4720   23.2880 C   0  0  0  0  0  3  0  0  0  0  0  0
  -21.9730   -5.3190   22.1780 C   0  0  0  0  0  0  0  0  0  0  0  0
  -22.2930   -4.7880   20.9730 F   0  0  0  0  0  0  0  0  0  0  0  0
  -21.2880   -4.1970   25.6030 F   0  0  0  0  0  0  0  0  0  0  0  0
  -23.5340  -14.0190   21.0190 C   0  0  0  0  0  0  0  0  0  0  0  0
  -22.7450  -13.3850   21.8800 N   0  0  0  0  0  0  0  0  0  0  0  0
  -23.1830  -15.0750   20.4930 O   0  0  0  0  0  0  0  0  0  0  0  0
  -23.0400  -12.5300   22.3270 H   0  0  0  0  0  0  0  0  0  0  0  0
  -21.8320  -13.7600   22.0950 H   0  0  0  0  0  0  0  0  0  0  0  0
  -26.3000  -15.4800   20.2750 N   0  0  0  0  0  0  0  0  0  0  0  0
  -25.5700  -16.1810   20.3620 H   0  0  0  0  0  0  0  0  0  0  0  0
  -27.1590  -15.8570   19.8950 H   0  0  0  0  0  0  0  0  0  0  0  0
  -30.5820  -19.8540   24.4170 C   0  0  0  0  0  1  0  0  0  0  0  0
  -30.5960  -20.3260   23.0400 N   0  0  0  0  0  0  0  0  0  0  0  0
  -30.2900  -21.2840   22.8910 H   0  0  0  0  0  0  0  0  0  0  0  0
  -28.4490  -24.7950   20.8420 C   0  0  0  0  0  2  0  0  0  0  0  0
  -28.6220  -26.2550   20.5140 O   0  0  0  0  0  0  0  0  0  0  0  0
  -24.5760  -31.7080   23.1540 C   0  0  0  0  0  0  0  0  0  0  0  0
  -27.4880  -27.0960   20.4250 C   0  0  0  0  0  0  0  0  0  0  0  0
  -23.5170  -30.2350   21.4820 C   0  0  0  0  0  3  0  0  0  0  0  0
  -25.0930  -28.6710   20.2040 C   0  0  0  0  0  0  0  0  0  0  0  0
  -26.0560  -30.6030   21.4540 C   0  0  0  0  0  2  0  0  0  0  0  0
  -26.2110  -29.2040   20.8590 C   0  0  0  0  0  0  0  0  0  0  0  0
  -27.4140  -28.4310   20.9520 C   0  0  0  0  0  3  0  0  0  0  0  0
  -26.3450  -26.6230   19.7470 C   0  0  0  0  0  3  0  0  0  0  0  0
  -25.1650  -27.3870   19.6390 C   0  0  0  0  0  3  0  0  0  0  0  0
  -23.8370  -29.5210   20.1420 C   0  0  0  0  0  2  0  0  0  0  0  0
  -24.7310  -30.8700   22.0870 N   0  0  0  0  0  0  0  0  0  0  0  0
  -23.4520  -31.9750   23.6080 O   0  0  0  0  0  0  0  0  0  0  0  0
  -22.8090  -29.2340   22.4280 C   0  0  0  0  0  0  0  0  0  0  0  0
  -21.4890  -29.0600   22.2510 N   0  0  0  0  0  0  0  0  0  0  0  0
  -23.4520  -28.6160   23.2800 O   0  0  0  0  0  0  0  0  0  0  0  0
  -21.0270  -29.6090   21.5390 H   0  0  0  0  0  0  0  0  0  0  0  0
  -18.0800  -27.9190   22.6800 C   0  0  0  0  0  0  0  0  0  0  0  0
  -20.6380  -28.1320   23.0010 C   0  0  0  0  0  3  0  0  0  0  0  0
  -20.7260  -26.7010   22.4180 C   0  0  0  0  0  2  0  0  0  0  0  0
  -19.6390  -26.4050   21.3800 C   0  0  0  0  0  2  0  0  0  0  0  0
  -18.2460  -26.5720   21.9960 C   0  0  0  0  0  2  0  0  0  0  0  0
  -19.2040  -28.6580   23.1360 C   0  0  0  0  0  0  0  0  0  0  0  0
  -18.9950  -29.9210   23.7320 C   0  0  0  0  0  3  0  0  0  0  0  0
  -17.6960  -30.4450   23.8740 C   0  0  0  0  0  3  0  0  0  0  0  0
  -16.5870  -29.7020   23.4330 C   0  0  0  0  0  3  0  0  0  0  0  0
  -16.7800  -28.4410   22.8430 C   0  0  0  0  0  3  0  0  0  0  0  0
  -25.7970  -32.3910   23.8420 C   0  0  0  0  0  3  0  0  0  0  0  0
  -26.2720  -31.6440   25.1490 C   0  0  1  0  0  0  0  0  0  0  0  0
  -25.1290  -31.3590   26.1510 C   0  0  0  0  0  1  0  0  0  0  0  0
  -26.9390  -30.2950   24.7950 C   0  0  0  0  0  1  0  0  0  0  0  0
  -27.3430  -32.4910   25.8760 C   0  0  0  0  0  1  0  0  0  0  0  0
  -25.4220  -33.7790   24.1510 N   0  0  0  0  0  0  0  0  0  0  0  0
  -25.7410  -34.8410   23.3990 C   0  0  0  0  0  0  0  0  0  0  0  0
  -26.4490  -34.7570   22.3920 O   0  0  0  0  0  0  0  0  0  0  0  0
  -24.8000  -33.9160   24.9330 H   0  0  0  0  0  0  0  0  0  0  0  0
  -23.9390  -36.5440   22.9930 C   0  0  0  0  0  1  0  0  0  0  0  0
  -25.1850  -36.2120   23.8290 C   0  0  0  0  0  3  0  0  0  0  0  0
  -27.2660  -37.2030   24.6760 C   0  0  0  0  0  1  0  0  0  0  0  0
  -26.1710  -37.3090   23.7140 N   0  0  0  0  0  0  0  0  0  0  0  0
  -25.7210  -38.2130   23.8410 H   0  0  0  0  0  0  0  0  0  0  0  0
  1  6  1  0
  2  1  1  0
  2  3  1  0
  3  5  1  0
  5  4  1  0
  5 54  1  0
  6  9  1  0
  6  4  1  0
  7  1  2  0
  8  9  1  0
  8 10  2  0
  9 11  2  0
 10 12  1  0
 11 12  1  0
 11 52  1  0
 13 21  1  0
 14 19  1  0
 15 16  1  0
 15 14  1  0
 17 16  1  0
 17 26  1  0
 17 18  1  0
 19 13  1  0
 19 18  1  0
 20 13  2  0
 21 22  1  0
 21 10  1  0
 23 24  2  0
 24 43  1  0
 25 24  1  0
 25 28  1  0
 26 27  1  0
 26 23  1  0
 27 25  2  0
 28 29  1  0
 29 30  2  0
 31 34  1  0
 31 30  1  0
 32 31  2  0
 33 32  1  0
 33 28  2  0
 34 35  1  0
 35 36  1  0
 36 37  2  0
 38 37  1  0
 38 42  1  0
 39 38  2  0
 40 35  2  0
 40 39  1  0
 41 40  1  0
 43 44  1  0
 44 47  1  0
 44 46  1  0
 45 43  2  0
 48 49  1  0
 48 23  1  0
 50 48  1  0
 52 51  1  0
 53 52  1  0
 55 54  1  0
 56 67  2  0
 57 55  1  0
 57 62  1  0
 58 66  1  0
 58 68  1  0
 59 61  1  0
 60 66  1  0
 61 62  2  0
 61 60  1  0
 63 57  2  0
 64 63  1  0
 64 59  2  0
 65 59  1  0
 65 58  1  0
 66 56  1  0
 68 70  2  0
 69 68  1  0
 71 69  1  0
 72 81  2  0
 72 77  1  0
 73 69  1  0
 73 77  1  0
 74 73  1  0
 75 76  1  0
 75 74  1  0
 76 72  1  0
 77 78  2  0
 78 79  1  0
 80 79  2  0
 81 80  1  0
 82 56  1  0
 82 87  1  0
 82 83  1  0
 83 86  1  1
 83 84  1  0
 85 83  1  0
 87 90  1  0
 88 92  1  0
 88 87  1  0
 89 88  2  0
 92 91  1  0
 94 92  1  0
 94 95  1  0
 94 93  1  0
M  ISO  4  13 100  21 100  54 101  55 101
M  END
>  <TORSDO>  (78) 
F 19

>  <SCORE>  (78) 
-13.120

>  <name>  (78) 
77

>  <ligand_id>  (78) 
77

>  <original_smiles>  (78) 
[H]c1c([H])c([H])c2c(c1[H])C([H])([H])C([H])([H])C([H])([H])C2([H])N([H])C(=O)C1([H])N(C(=O)C([H])(N([H])C(=O)C([H])(N([H])C([H])([H])[H])C([H])([H])[H])C(C([H])([H])[H])(C([H])([H])[H])C([H])([H])[H])C([H])([H])c2c([H])c(OC([H])([H])C3([H])C([H])([H])N(c4c(N([H])C([H])([H])[H])sc(N([H])C(=O)N5C([H])([H])C([H])([H])C([H])([H])C([H])(n6nc(-c7c([H])c([H])c(Oc8c([H])c([H])c(F)c([H])c8F)c([H])c7[H])c(C(=O)N([H])[H])c6N([H])[H])C5([H])[H])c4[H])C(=O)C([H])([H])C3([H])[H])c([H])c([H])c2C1([H])[H]

>  <smiles>  (78) 
[H]c1c([H])c([H])c2c(c1[H])C([H])([H])C([H])([H])C([H])([H])C2([H])N([H])C(=O)C1([H])N(C(=O)C([H])(N([H])C(=O)C([H])(N([H])C([H])([H])[H])C([H])([H])[H])C(C([H])([H])[H])(C([H])([H])[H])C([H])([H])[H])C([H])([H])c2c([H])c(OC([H])([H])C3([H])C([H])([H])N(c4c(N([H])C([H])([H])[H])sc(N([H])C(=O)N5C([H])([H])C([H])([H])C([H])([H])C([H])(n6nc(-c7c([H])c([H])c(Oc8c([H])c([H])c(F)c([H])c8F)c([H])c7[H])c(C(=O)N([H])[H])c6N([H])[H])C5([H])[H])c4[H])C(=O)C([H])([H])C3([H])[H])c([H])c([H])c2C1([H])[H]

$$$$
78:0:0
     RDKit          3D

 93102  0  0  1  0  0  0  0  0999 V2000
  -28.6170  -24.2190   20.7640 C   0  0  0  0  0  0  0  0  0  0  0  0
  -28.3070  -25.5340   20.9790 C   0  0  0  0  0  3  0  0  0  0  0  0
  -28.2260  -23.1700   21.8050 C   0  0  0  0  0  2  0  0  0  0  0  0
  -29.2090  -23.6040   19.4910 C   0  0  0  0  0  2  0  0  0  0  0  0
  -29.2440  -22.0220   21.9840 C   0  0  0  0  0  2  0  0  0  0  0  0
  -30.1050  -22.3300   19.7060 C   0  0  0  0  0  2  0  0  0  0  0  0
  -29.5710  -21.3900   20.7030 N   0  0  0  0  0  0  0  0  0  0  0  0
  -29.8380  -17.7200   19.7460 C   0  0  0  0  0  3  0  0  0  0  0  0
  -30.9550  -18.0550   21.8490 C   0  0  0  0  0  3  0  0  0  0  0  0
  -29.5850  -19.1230   19.6680 C   0  0  0  0  0  3  0  0  0  0  0  0
  -30.6960  -19.4470   21.7770 C   0  0  0  0  0  3  0  0  0  0  0  0
  -30.4980  -17.1400   20.8630 C   0  0  0  0  0  0  0  0  0  0  0  0
  -29.9680  -20.0160   20.7040 C   0  0  0  0  0  0  0  0  0  0  0  0
  -30.5950  -15.6440   21.1420 C   0  0  0  0  0  0  0  0  0  0  0  0
  -30.4340  -15.2500   22.3400 N   0  0  0  0  0  0  0  0  0  0  0  0
  -30.2110  -16.0310   22.9440 H   0  0  0  0  0  0  0  0  0  0  0  0
  -30.9850  -14.6490   20.0100 C   0  0  0  0  0  0  0  0  0  0  0  0
  -30.5660  -12.5320   18.7720 C   0  0  0  0  0  2  0  0  0  0  0  0
  -29.5240  -12.7590   17.6530 C   0  0  0  0  0  2  0  0  0  0  0  0
  -28.0920  -12.5900   18.1930 C   0  0  0  0  0  2  0  0  0  0  0  0
  -27.8640  -13.3800   19.5060 C   0  0  0  0  0  3  0  0  0  0  0  0
  -29.0010  -13.1060   20.5130 C   0  0  0  0  0  2  0  0  0  0  0  0
  -30.2820  -13.4730   19.8770 N   0  0  0  0  0  0  0  0  0  0  0  0
  -31.9600  -14.9050   19.2950 O   0  0  0  0  0  0  0  0  0  0  0  0
  -25.5490  -13.9840   20.4500 C   0  0  0  0  0  0  0  0  0  0  0  0
  -24.5030  -13.2110   20.8750 C   0  0  0  0  0  0  0  0  0  0  0  0
  -24.9330  -11.8560   20.7390 C   0  0  0  0  0  0  0  0  0  0  0  0
  -26.5520  -13.1000   20.0850 N   0  0  0  0  0  0  0  0  0  0  0  0
  -26.1900  -11.8120   20.3150 N   0  0  0  0  0  0  0  0  0  0  0  0
  -24.2030  -10.5970   20.9350 C   0  0  0  0  0  0  0  0  0  0  0  0
  -24.6430   -9.6230   21.8580 C   0  0  0  0  0  3  0  0  0  0  0  0
  -23.9140   -8.4280   22.0400 C   0  0  0  0  0  3  0  0  0  0  0  0
  -22.7300   -8.1980   21.2990 C   0  0  0  0  0  0  0  0  0  0  0  0
  -22.3100   -9.1610   20.3640 C   0  0  0  0  0  3  0  0  0  0  0  0
  -23.0390  -10.3480   20.1810 C   0  0  0  0  0  3  0  0  0  0  0  0
  -21.9710   -7.0560   21.3900 O   0  0  0  0  0  0  0  0  0  0  0  0
  -21.8550   -6.3630   22.5670 C   0  0  0  0  0  0  0  0  0  0  0  0
  -21.3650   -6.9690   23.7440 C   0  0  0  0  0  3  0  0  0  0  0  0
  -21.1960   -6.2020   24.9150 C   0  0  0  0  0  3  0  0  0  0  0  0
  -21.5050   -4.8290   24.9070 C   0  0  0  0  0  0  0  0  0  0  0  0
  -21.9890   -4.2220   23.7350 C   0  0  0  0  0  3  0  0  0  0  0  0
  -22.1600   -4.9860   22.5670 C   0  0  0  0  0  0  0  0  0  0  0  0
  -22.6050   -4.3920   21.4340 F   0  0  0  0  0  0  0  0  0  0  0  0
  -21.3360   -4.0890   26.0280 F   0  0  0  0  0  0  0  0  0  0  0  0
  -23.1440  -13.6950   21.2960 C   0  0  0  0  0  0  0  0  0  0  0  0
  -22.4900  -12.9750   22.2000 N   0  0  0  0  0  0  0  0  0  0  0  0
  -22.6760  -14.7440   20.8570 O   0  0  0  0  0  0  0  0  0  0  0  0
  -22.8820  -12.1230   22.5740 H   0  0  0  0  0  0  0  0  0  0  0  0
  -21.5840  -13.2810   22.5250 H   0  0  0  0  0  0  0  0  0  0  0  0
  -25.7230  -15.3590   20.3260 N   0  0  0  0  0  0  0  0  0  0  0  0
  -24.9830  -16.0200   20.5340 H   0  0  0  0  0  0  0  0  0  0  0  0
  -26.5590  -15.8020   19.9650 H   0  0  0  0  0  0  0  0  0  0  0  0
  -28.4310  -26.6210   20.1250 O   0  0  0  0  0  0  0  0  0  0  0  0
  -24.6790  -31.9020   23.2100 C   0  0  0  0  0  0  0  0  0  0  0  0
  -27.3220  -27.4530   20.0970 C   0  0  0  0  0  0  0  0  0  0  0  0
  -23.4700  -30.5000   21.5730 C   0  0  0  0  0  3  0  0  0  0  0  0
  -24.9250  -28.9780   20.1240 C   0  0  0  0  0  0  0  0  0  0  0  0
  -25.9970  -30.8660   21.3600 C   0  0  0  0  0  2  0  0  0  0  0  0
  -26.0900  -29.4960   20.7070 C   0  0  0  0  0  0  0  0  0  0  0  0
  -27.2940  -28.7420   20.6900 C   0  0  0  0  0  3  0  0  0  0  0  0
  -26.1430  -26.9640   19.4990 C   0  0  0  0  0  3  0  0  0  0  0  0
  -24.9500  -27.7130   19.5110 C   0  0  0  0  0  3  0  0  0  0  0  0
  -23.6760  -29.8300   20.1870 C   0  0  0  0  0  2  0  0  0  0  0  0
  -24.7340  -31.1060   22.1060 N   0  0  0  0  0  0  0  0  0  0  0  0
  -23.5990  -32.1670   23.7590 O   0  0  0  0  0  0  0  0  0  0  0  0
  -22.8300  -29.4730   22.5340 C   0  0  0  0  0  0  0  0  0  0  0  0
  -21.5090  -29.2610   22.3980 N   0  0  0  0  0  0  0  0  0  0  0  0
  -23.5190  -28.8660   23.3600 O   0  0  0  0  0  0  0  0  0  0  0  0
  -21.0130  -29.8060   21.7050 H   0  0  0  0  0  0  0  0  0  0  0  0
  -18.1750  -27.9270   22.8170 C   0  0  0  0  0  0  0  0  0  0  0  0
  -20.7080  -28.3110   23.1680 C   0  0  0  0  0  3  0  0  0  0  0  0
  -20.8940  -26.8690   22.6400 C   0  0  0  0  0  2  0  0  0  0  0  0
  -19.8440  -26.4680   21.5980 C   0  0  0  0  0  2  0  0  0  0  0  0
  -18.4340  -26.5680   22.1890 C   0  0  0  0  0  2  0  0  0  0  0  0
  -19.2430  -28.7510   23.2620 C   0  0  0  0  0  0  0  0  0  0  0  0
  -18.9470  -30.0190   23.8060 C   0  0  0  0  0  3  0  0  0  0  0  0
  -17.6160  -30.4650   23.9130 C   0  0  0  0  0  3  0  0  0  0  0  0
  -16.5620  -29.6400   23.4830 C   0  0  0  0  0  3  0  0  0  0  0  0
  -16.8430  -28.3720   22.9420 C   0  0  0  0  0  3  0  0  0  0  0  0
  -25.9650  -32.5400   23.8220 C   0  0  0  0  0  3  0  0  0  0  0  0
  -25.6510  -33.9360   24.1540 N   0  0  0  0  0  0  0  0  0  0  0  0
  -25.9870  -34.9910   23.4000 C   0  0  0  0  0  0  0  0  0  0  0  0
  -26.6630  -34.8920   22.3730 O   0  0  0  0  0  0  0  0  0  0  0  0
  -25.0490  -34.0870   24.9500 H   0  0  0  0  0  0  0  0  0  0  0  0
  -24.2680  -36.7890   23.0300 C   0  0  0  0  0  1  0  0  0  0  0  0
  -25.4930  -36.3770   23.8600 C   0  0  0  0  0  3  0  0  0  0  0  0
  -27.6180  -37.2450   24.7330 C   0  0  0  0  0  1  0  0  0  0  0  0
  -26.5290  -37.4290   23.7770 N   0  0  0  0  0  0  0  0  0  0  0  0
  -26.1210  -38.3470   23.9370 H   0  0  0  0  0  0  0  0  0  0  0  0
  -26.4970  -31.7700   25.0930 C   0  0  1  0  0  0  0  0  0  0  0  0
  -25.4150  -31.5190   26.1670 C   0  0  0  0  0  1  0  0  0  0  0  0
  -27.0930  -30.4000   24.6930 C   0  0  0  0  0  1  0  0  0  0  0  0
  -27.6460  -32.5750   25.7460 C   0  0  0  0  0  1  0  0  0  0  0  0
  1  2  2  0
  1  3  1  0
  3  5  1  0
  4  6  1  0
  4  1  1  0
  6  7  1  0
  7 13  1  0
  7  5  1  0
  8 12  1  0
 10  8  2  0
 10 13  1  0
 11  9  1  0
 12 14  1  0
 12  9  2  0
 13 11  2  0
 14 15  2  0
 15 16  1  0
 17 14  1  0
 18 23  1  0
 19 20  1  0
 19 18  1  0
 21 20  1  0
 21 28  1  0
 21 22  1  0
 23 17  1  0
 23 22  1  0
 24 17  2  0
 25 26  2  0
 26 45  1  0
 27 26  1  0
 27 30  1  0
 28 29  1  0
 28 25  1  0
 29 27  2  0
 30 31  1  0
 31 32  2  0
 33 36  1  0
 33 32  1  0
 34 33  2  0
 35 34  1  0
 35 30  2  0
 36 37  1  0
 37 42  2  0
 37 38  1  0
 38 39  2  0
 40 39  1  0
 40 44  1  0
 41 40  2  0
 42 41  1  0
 43 42  1  0
 45 46  1  0
 46 49  1  0
 46 48  1  0
 47 45  2  0
 50 25  1  0
 50 51  1  0
 52 50  1  0
 53  2  1  0
 54 65  2  0
 55 53  1  0
 55 60  1  0
 56 64  1  0
 56 66  1  0
 57 63  1  0
 57 59  1  0
 58 64  1  0
 59 58  1  0
 60 59  2  0
 61 62  1  0
 61 55  2  0
 62 57  2  0
 63 56  1  0
 64 54  1  0
 66 68  2  0
 67 66  1  0
 69 67  1  0
 70 79  2  0
 70 75  1  0
 71 67  1  0
 71 75  1  0
 72 71  1  0
 73 74  1  0
 73 72  1  0
 74 70  1  0
 75 76  2  0
 76 77  1  0
 78 77  2  0
 79 78  1  0
 80 54  1  0
 80 81  1  0
 80 90  1  0
 81 84  1  0
 82 86  1  0
 82 81  1  0
 83 82  2  0
 86 85  1  0
 88 86  1  0
 88 89  1  0
 88 87  1  0
 90 93  1  1
 90 91  1  0
 92 90  1  0
M  ISO  4   2 101  14 100  17 100  53 101
M  END
>  <TORSDO>  (79) 
F 18

>  <SCORE>  (79) 
-14.036

>  <name>  (79) 
78

>  <ligand_id>  (79) 
78

>  <original_smiles>  (79) 
[H]N=C(C(=O)N1C([H])([H])C([H])([H])C([H])([H])C([H])(n2nc(-c3c([H])c([H])c(Oc4c([H])c([H])c(F)c([H])c4F)c([H])c3[H])c(C(=O)N([H])[H])c2N([H])[H])C1([H])[H])c1c([H])c([H])c(N2C([H])([H])C([H])([H])C(=C([H])Oc3c([H])c([H])c4c(c3[H])C([H])([H])N(C(=O)C([H])(N([H])C(=O)C([H])(N([H])C([H])([H])[H])C([H])([H])[H])C(C([H])([H])[H])(C([H])([H])[H])C([H])([H])[H])C([H])(C(=O)N([H])C3([H])c5c([H])c([H])c([H])c([H])c5C([H])([H])C([H])([H])C3([H])[H])C4([H])[H])C([H])([H])C2([H])[H])c([H])c1[H]

>  <smiles>  (79) 
[H]N=C(C(=O)N1C([H])([H])C([H])([H])C([H])([H])C([H])(n2nc(-c3c([H])c([H])c(Oc4c([H])c([H])c(F)c([H])c4F)c([H])c3[H])c(C(=O)N([H])[H])c2N([H])[H])C1([H])[H])c1c([H])c([H])c(N2C([H])([H])C([H])([H])C(=C([H])Oc3c([H])c([H])c4c(c3[H])C([H])([H])N(C(=O)C([H])(N([H])C(=O)C([H])(N([H])C([H])([H])[H])C([H])([H])[H])C(C([H])([H])[H])(C([H])([H])[H])C([H])([H])[H])C([H])(C(=O)N([H])C3([H])c5c([H])c([H])c([H])c([H])c5C([H])([H])C([H])([H])C3([H])[H])C4([H])[H])C([H])([H])C2([H])[H])c([H])c1[H]

$$$$
79:0:0
     RDKit          3D

 97105  0  0  1  0  0  0  0  0999 V2000
  -31.3910  -18.2490   21.3910 C   0  0  0  0  0  3  0  0  0  0  0  0
  -29.7600  -19.6240   20.2070 C   0  0  0  0  0  3  0  0  0  0  0  0
  -31.7060  -20.6680   21.2220 C   0  0  0  0  0  3  0  0  0  0  0  0
  -30.1920  -18.3470   20.6470 C   0  0  0  0  0  0  0  0  0  0  0  0
  -32.1360  -19.4090   21.6910 C   0  0  0  0  0  0  0  0  0  0  0  0
  -30.5040  -20.7930   20.4940 C   0  0  0  0  0  0  0  0  0  0  0  0
  -30.4550  -15.0550   20.2480 C   0  0  0  0  0  0  0  0  0  0  0  0
  -30.3420  -12.8120   19.2190 C   0  0  0  0  0  2  0  0  0  0  0  0
  -29.3550  -12.8810   18.0300 C   0  0  0  0  0  2  0  0  0  0  0  0
  -27.8920  -12.6850   18.4920 C   0  0  0  0  0  2  0  0  0  0  0  0
  -27.5330  -13.5600   19.7230 C   0  0  0  0  0  3  0  0  0  0  0  0
  -28.6220  -13.4220   20.8150 C   0  0  0  0  0  2  0  0  0  0  0  0
  -29.9180  -13.8040   20.2180 N   0  0  0  0  0  0  0  0  0  0  0  0
  -31.5140  -15.3500   19.6820 O   0  0  0  0  0  0  0  0  0  0  0  0
  -29.3190  -17.1440   20.3810 C   0  0  0  0  0  0  0  0  0  0  0  0
  -29.6490  -15.9370   20.8600 N   0  0  0  0  0  0  0  0  0  0  0  0
  -28.2170  -17.2970   19.8410 O   0  0  0  0  0  0  0  0  0  0  0  0
  -28.8370  -15.4350   21.1680 H   0  0  0  0  0  0  0  0  0  0  0  0
  -25.1550  -14.1030   20.5580 C   0  0  0  0  0  0  0  0  0  0  0  0
  -24.1150  -13.2940   20.9370 C   0  0  0  0  0  0  0  0  0  0  0  0
  -24.5950  -11.9550   20.8230 C   0  0  0  0  0  0  0  0  0  0  0  0
  -26.2020  -13.2490   20.2410 N   0  0  0  0  0  0  0  0  0  0  0  0
  -25.8680  -11.9500   20.4490 N   0  0  0  0  0  0  0  0  0  0  0  0
  -23.8980  -10.6690   20.9840 C   0  0  0  0  0  0  0  0  0  0  0  0
  -24.3330   -9.7050   21.9190 C   0  0  0  0  0  3  0  0  0  0  0  0
  -23.6320   -8.4890   22.0740 C   0  0  0  0  0  3  0  0  0  0  0  0
  -22.4840   -8.2270   21.2880 C   0  0  0  0  0  0  0  0  0  0  0  0
  -22.0680   -9.1810   20.3440 C   0  0  0  0  0  3  0  0  0  0  0  0
  -22.7700  -10.3880   20.1880 C   0  0  0  0  0  3  0  0  0  0  0  0
  -21.7580   -7.0620   21.3460 O   0  0  0  0  0  0  0  0  0  0  0  0
  -21.6260   -6.3550   22.5140 C   0  0  0  0  0  0  0  0  0  0  0  0
  -20.9850   -6.9030   23.6470 C   0  0  0  0  0  3  0  0  0  0  0  0
  -20.8040   -6.1170   24.8010 C   0  0  0  0  0  3  0  0  0  0  0  0
  -21.2600   -4.7850   24.8260 C   0  0  0  0  0  0  0  0  0  0  0  0
  -21.8930   -4.2370   23.6970 C   0  0  0  0  0  3  0  0  0  0  0  0
  -22.0710   -5.0180   22.5420 C   0  0  0  0  0  0  0  0  0  0  0  0
  -22.6640   -4.4750   21.4530 F   0  0  0  0  0  0  0  0  0  0  0  0
  -21.0800   -4.0310   25.9360 F   0  0  0  0  0  0  0  0  0  0  0  0
  -22.7250  -13.7340   21.3000 C   0  0  0  0  0  0  0  0  0  0  0  0
  -22.0520  -12.9860   22.1680 N   0  0  0  0  0  0  0  0  0  0  0  0
  -22.2450  -14.7770   20.8540 O   0  0  0  0  0  0  0  0  0  0  0  0
  -22.4470  -12.1340   22.5390 H   0  0  0  0  0  0  0  0  0  0  0  0
  -21.1300  -13.2710   22.4690 H   0  0  0  0  0  0  0  0  0  0  0  0
  -25.2840  -15.4840   20.4500 N   0  0  0  0  0  0  0  0  0  0  0  0
  -24.5040  -16.1000   20.6550 H   0  0  0  0  0  0  0  0  0  0  0  0
  -26.1220  -15.9860   20.1760 H   0  0  0  0  0  0  0  0  0  0  0  0
  -28.9100  -22.6190   19.8090 C   0  0  0  0  0  0  0  0  0  0  0  0
  -30.1280  -22.0970   20.0550 N   0  0  0  0  0  0  0  0  0  0  0  0
  -27.8470  -22.0200   19.9980 O   0  0  0  0  0  0  0  0  0  0  0  0
  -30.8880  -22.7560   19.9580 H   0  0  0  0  0  0  0  0  0  0  0  0
  -28.9120  -24.0660   19.2850 C   0  0  0  0  0  2  0  0  0  0  0  0
  -27.5290  -24.6220   18.8550 C   0  0  0  0  0  2  0  0  0  0  0  0
  -27.5980  -26.0540   18.2630 C   0  0  0  0  0  2  0  0  0  0  0  0
  -27.6510  -27.1020   19.2440 O   0  0  0  0  0  0  0  0  0  0  0  0
  -24.5490  -31.9080   23.5040 C   0  0  0  0  0  0  0  0  0  0  0  0
  -26.5180  -27.8570   19.4930 C   0  0  0  0  0  0  0  0  0  0  0  0
  -23.0780  -30.8620   21.8110 C   0  0  0  0  0  3  0  0  0  0  0  0
  -24.2550  -29.4840   20.0170 C   0  0  0  0  0  0  0  0  0  0  0  0
  -25.5930  -31.0910   21.3910 C   0  0  0  0  0  2  0  0  0  0  0  0
  -25.5040  -29.8340   20.5440 C   0  0  0  0  0  0  0  0  0  0  0  0
  -26.6340  -29.0230   20.2880 C   0  0  0  0  0  3  0  0  0  0  0  0
  -25.2400  -27.5080   18.9970 C   0  0  0  0  0  3  0  0  0  0  0  0
  -24.1180  -28.3190   19.2460 C   0  0  0  0  0  3  0  0  0  0  0  0
  -23.0950  -30.4010   20.3290 C   0  0  0  0  0  2  0  0  0  0  0  0
  -24.4320  -31.2920   22.2920 N   0  0  0  0  0  0  0  0  0  0  0  0
  -23.5520  -32.1530   24.1970 O   0  0  0  0  0  0  0  0  0  0  0  0
  -22.4520  -29.7400   22.6710 C   0  0  0  0  0  0  0  0  0  0  0  0
  -21.1280  -29.5570   22.5490 N   0  0  0  0  0  0  0  0  0  0  0  0
  -23.1570  -29.0410   23.4060 O   0  0  0  0  0  0  0  0  0  0  0  0
  -20.6200  -30.1760   21.9310 H   0  0  0  0  0  0  0  0  0  0  0  0
  -17.8040  -28.1760   22.8530 C   0  0  0  0  0  0  0  0  0  0  0  0
  -20.3360  -28.5350   23.2320 C   0  0  0  0  0  3  0  0  0  0  0  0
  -20.5270  -27.1490   22.5750 C   0  0  0  0  0  2  0  0  0  0  0  0
  -19.4780  -26.8400   21.5040 C   0  0  0  0  0  2  0  0  0  0  0  0
  -18.0700  -26.8800   22.1060 C   0  0  0  0  0  2  0  0  0  0  0  0
  -18.8690  -28.9610   23.3690 C   0  0  0  0  0  0  0  0  0  0  0  0
  -18.5690  -30.1730   24.0270 C   0  0  0  0  0  3  0  0  0  0  0  0
  -17.2360  -30.6030   24.1730 C   0  0  0  0  0  3  0  0  0  0  0  0
  -16.1860  -29.8150   23.6740 C   0  0  0  0  0  3  0  0  0  0  0  0
  -16.4700  -28.6030   23.0210 C   0  0  0  0  0  3  0  0  0  0  0  0
  -25.9360  -32.3560   24.0630 C   0  0  0  0  0  3  0  0  0  0  0  0
  -25.7890  -33.7300   24.5630 N   0  0  0  0  0  0  0  0  0  0  0  0
  -26.1920  -34.8260   23.9060 C   0  0  0  0  0  0  0  0  0  0  0  0
  -26.8000  -34.7770   22.8320 O   0  0  0  0  0  0  0  0  0  0  0  0
  -25.2580  -33.8470   25.4140 H   0  0  0  0  0  0  0  0  0  0  0  0
  -24.6700  -36.8230   23.8150 C   0  0  0  0  0  1  0  0  0  0  0  0
  -25.8700  -36.1910   24.5390 C   0  0  0  0  0  3  0  0  0  0  0  0
  -28.0940  -36.7390   25.4250 C   0  0  0  0  0  1  0  0  0  0  0  0
  -27.0130  -37.1320   24.5250 N   0  0  0  0  0  0  0  0  0  0  0  0
  -26.7110  -38.0680   24.7810 H   0  0  0  0  0  0  0  0  0  0  0  0
  -26.4870  -31.4070   25.1970 C   0  0  1  0  0  0  0  0  0  0  0  0
  -25.4690  -31.1380   26.3290 C   0  0  0  0  0  1  0  0  0  0  0  0
  -26.9110  -30.0420   24.6090 C   0  0  0  0  0  1  0  0  0  0  0  0
  -27.7540  -32.0270   25.8320 C   0  0  0  0  0  1  0  0  0  0  0  0
  -33.2860  -19.3050   22.4730 N   0  0  0  0  0  0  0  0  0  0  0  0
  -33.4210  -18.4510   23.0050 H   0  0  0  0  0  0  0  0  0  0  0  0
  -33.5720  -20.1260   23.0020 H   0  0  0  0  0  0  0  0  0  0  0  0
  1  5  1  0
  2  6  2  0
  2  4  1  0
  3  5  2  0
  4  1  2  0
  5 95  1  0
  6  3  1  0
  7 16  1  0
  8 13  1  0
  9 10  1  0
  9  8  1  0
 11 10  1  0
 11 22  1  0
 11 12  1  0
 13  7  1  0
 13 12  1  0
 14  7  2  0
 15  4  1  0
 15 16  1  0
 16 18  1  0
 17 15  2  0
 19 20  2  0
 20 39  1  0
 21 20  1  0
 21 24  1  0
 22 23  1  0
 22 19  1  0
 23 21  2  0
 24 25  1  0
 25 26  2  0
 27 30  1  0
 27 26  1  0
 28 27  2  0
 29 28  1  0
 29 24  2  0
 30 31  1  0
 31 36  2  0
 31 32  1  0
 32 33  2  0
 33 34  1  0
 34 38  1  0
 35 34  2  0
 36 35  1  0
 37 36  1  0
 39 40  1  0
 40 43  1  0
 40 42  1  0
 41 39  2  0
 44 19  1  0
 44 45  1  0
 46 44  1  0
 47 49  2  0
 47 48  1  0
 48  6  1  0
 50 48  1  0
 51 47  1  0
 52 51  1  0
 53 52  1  0
 53 54  1  0
 54 56  1  0
 55 66  2  0
 56 61  1  0
 57 65  1  0
 57 67  1  0
 58 64  1  0
 58 60  1  0
 59 65  1  0
 60 59  1  0
 61 60  2  0
 62 63  1  0
 62 56  2  0
 63 58  2  0
 64 57  1  0
 65 55  1  0
 67 69  2  0
 68 67  1  0
 70 68  1  0
 71 80  2  0
 71 76  1  0
 72 68  1  0
 72 76  1  0
 73 72  1  0
 74 75  1  0
 74 73  1  0
 75 71  1  0
 76 77  2  0
 77 78  1  0
 79 78  2  0
 80 79  1  0
 81 55  1  0
 81 82  1  0
 81 91  1  0
 82 85  1  0
 83 87  1  0
 83 82  1  0
 84 83  2  0
 87 86  1  0
 89 87  1  0
 89 90  1  0
 89 88  1  0
 91 94  1  1
 91 92  1  0
 93 91  1  0
 95 97  1  0
 95 96  1  0
M  ISO  4   7 100  16 100  53 101  54 101
M  END
>  <TORSDO>  (80) 
F 21

>  <SCORE>  (80) 
-12.816

>  <name>  (80) 
79

>  <ligand_id>  (80) 
79

>  <original_smiles>  (80) 
[H]c1c([H])c([H])c2c(c1[H])C([H])([H])C([H])([H])C([H])([H])C2([H])N([H])C(=O)C1([H])N(C(=O)C([H])(N([H])C(=O)C([H])(N([H])C([H])([H])[H])C([H])([H])[H])C(C([H])([H])[H])(C([H])([H])[H])C([H])([H])[H])C([H])([H])c2c([H])c(OC([H])([H])C([H])([H])C([H])([H])C(=O)N([H])c3c([H])c(C(=O)N([H])C(=O)N4C([H])([H])C([H])([H])C([H])([H])C([H])(n5nc(-c6c([H])c([H])c(Oc7c([H])c([H])c(F)c([H])c7F)c([H])c6[H])c(C(=O)N([H])[H])c5N([H])[H])C4([H])[H])c([H])c(N([H])[H])c3[H])c([H])c([H])c2C1([H])[H]

>  <smiles>  (80) 
[H]c1c([H])c([H])c2c(c1[H])C([H])([H])C([H])([H])C([H])([H])C2([H])N([H])C(=O)C1([H])N(C(=O)C([H])(N([H])C(=O)C([H])(N([H])C([H])([H])[H])C([H])([H])[H])C(C([H])([H])[H])(C([H])([H])[H])C([H])([H])[H])C([H])([H])c2c([H])c(OC([H])([H])C([H])([H])C([H])([H])C(=O)N([H])c3c([H])c(C(=O)N([H])C(=O)N4C([H])([H])C([H])([H])C([H])([H])C([H])(n5nc(-c6c([H])c([H])c(Oc7c([H])c([H])c(F)c([H])c7F)c([H])c6[H])c(C(=O)N([H])[H])c5N([H])[H])C4([H])[H])c([H])c(N([H])[H])c3[H])c([H])c([H])c2C1([H])[H]

$$$$
80:0:0
     RDKit          3D

 92101  0  0  1  0  0  0  0  0999 V2000
  -28.5160  -24.1460   19.7770 C   0  0  0  0  0  0  0  0  0  0  0  0
  -28.3920  -25.4370   19.3500 C   0  0  0  0  0  3  0  0  0  0  0  0
  -28.2740  -23.0050   18.7900 C   0  0  0  0  0  2  0  0  0  0  0  0
  -28.7140  -23.6710   21.2240 C   0  0  0  0  0  2  0  0  0  0  0  0
  -29.1050  -21.7270   19.0420 C   0  0  0  0  0  2  0  0  0  0  0  0
  -29.4880  -22.3110   21.3830 C   0  0  0  0  0  2  0  0  0  0  0  0
  -29.0280  -21.2880   20.4350 N   0  0  0  0  0  0  0  0  0  0  0  0
  -28.3070  -18.9860   20.0980 C   0  0  0  0  0  3  0  0  0  0  0  0
  -30.4180  -19.3320   21.2180 C   0  0  0  0  0  3  0  0  0  0  0  0
  -28.5450  -17.5940   20.0740 C   0  0  0  0  0  3  0  0  0  0  0  0
  -30.6690  -17.9250   21.1840 C   0  0  0  0  0  3  0  0  0  0  0  0
  -29.2560  -19.8920   20.6210 C   0  0  0  0  0  0  0  0  0  0  0  0
  -29.7520  -17.0350   20.5600 C   0  0  0  0  0  0  0  0  0  0  0  0
  -30.7640  -14.6990   20.7660 C   0  0  0  0  0  0  0  0  0  0  0  0
  -30.5980  -12.3930   19.8890 C   0  0  0  0  0  2  0  0  0  0  0  0
  -29.7430  -12.3740   18.6020 C   0  0  0  0  0  2  0  0  0  0  0  0
  -28.2360  -12.3200   18.9260 C   0  0  0  0  0  2  0  0  0  0  0  0
  -27.7920  -13.2700   20.0720 C   0  0  0  0  0  3  0  0  0  0  0  0
  -28.7730  -13.2290   21.2630 C   0  0  0  0  0  2  0  0  0  0  0  0
  -30.1180  -13.4950   20.7390 N   0  0  0  0  0  0  0  0  0  0  0  0
  -31.9960  -14.7650   20.7620 O   0  0  0  0  0  0  0  0  0  0  0  0
  -30.2500  -15.6870   18.6430 C   0  0  0  0  0  1  0  0  0  0  0  0
  -30.0830  -15.6970   20.1100 N   0  0  0  0  0  0  0  0  0  0  0  0
  -25.3560  -13.8870   20.6100 C   0  0  0  0  0  0  0  0  0  0  0  0
  -24.2630  -13.1210   20.9150 C   0  0  0  0  0  0  0  0  0  0  0  0
  -24.7290  -11.7720   20.9610 C   0  0  0  0  0  0  0  0  0  0  0  0
  -26.4160  -13.0040   20.4810 N   0  0  0  0  0  0  0  0  0  0  0  0
  -26.0390  -11.7300   20.7600 N   0  0  0  0  0  0  0  0  0  0  0  0
  -23.9930  -10.5110   21.1260 C   0  0  0  0  0  0  0  0  0  0  0  0
  -24.3760   -9.5540   22.0910 C   0  0  0  0  0  3  0  0  0  0  0  0
  -23.6410   -8.3590   22.2450 C   0  0  0  0  0  3  0  0  0  0  0  0
  -22.5090   -8.1130   21.4310 C   0  0  0  0  0  0  0  0  0  0  0  0
  -22.1460   -9.0580   20.4560 C   0  0  0  0  0  3  0  0  0  0  0  0
  -22.8820  -10.2450   20.3010 C   0  0  0  0  0  3  0  0  0  0  0  0
  -21.7490   -6.9700   21.4940 O   0  0  0  0  0  0  0  0  0  0  0  0
  -21.6580   -6.2280   22.6450 C   0  0  0  0  0  0  0  0  0  0  0  0
  -21.2080   -6.7910   23.8590 C   0  0  0  0  0  3  0  0  0  0  0  0
  -21.0620   -5.9770   25.0010 C   0  0  0  0  0  3  0  0  0  0  0  0
  -21.3550   -4.6020   24.9280 C   0  0  0  0  0  0  0  0  0  0  0  0
  -21.7980   -4.0390   23.7180 C   0  0  0  0  0  3  0  0  0  0  0  0
  -21.9460   -4.8500   22.5790 C   0  0  0  0  0  0  0  0  0  0  0  0
  -22.3520   -4.2980   21.4100 F   0  0  0  0  0  0  0  0  0  0  0  0
  -21.2080   -3.8190   26.0220 F   0  0  0  0  0  0  0  0  0  0  0  0
  -22.8480  -13.6000   21.0610 C   0  0  0  0  0  0  0  0  0  0  0  0
  -22.0550  -12.9310   21.8900 N   0  0  0  0  0  0  0  0  0  0  0  0
  -22.4500  -14.6060   20.4750 O   0  0  0  0  0  0  0  0  0  0  0  0
  -22.3870  -12.1190   22.3910 H   0  0  0  0  0  0  0  0  0  0  0  0
  -21.1030  -13.2370   22.0300 H   0  0  0  0  0  0  0  0  0  0  0  0
  -25.5320  -15.2530   20.4110 N   0  0  0  0  0  0  0  0  0  0  0  0
  -24.7630  -15.9130   20.4600 H   0  0  0  0  0  0  0  0  0  0  0  0
  -26.4170  -15.6880   20.1910 H   0  0  0  0  0  0  0  0  0  0  0  0
  -28.3500  -26.6000   20.1080 O   0  0  0  0  0  0  0  0  0  0  0  0
  -24.5220  -31.8750   23.1040 C   0  0  0  0  0  0  0  0  0  0  0  0
  -27.2020  -27.3930   20.0490 C   0  0  0  0  0  0  0  0  0  0  0  0
  -23.3320  -30.4550   21.4690 C   0  0  0  0  0  3  0  0  0  0  0  0
  -24.8000  -28.9260   20.0480 C   0  0  0  0  0  0  0  0  0  0  0  0
  -25.8610  -30.8220   21.2750 C   0  0  0  0  0  2  0  0  0  0  0  0
  -25.9600  -29.4470   20.6360 C   0  0  0  0  0  0  0  0  0  0  0  0
  -27.1620  -28.6890   20.6310 C   0  0  0  0  0  3  0  0  0  0  0  0
  -26.0100  -26.9020   19.4600 C   0  0  0  0  0  3  0  0  0  0  0  0
  -24.8240  -27.6570   19.4550 C   0  0  0  0  0  3  0  0  0  0  0  0
  -23.5500  -29.7780   20.0910 C   0  0  0  0  0  2  0  0  0  0  0  0
  -24.5900  -31.0670   22.0060 N   0  0  0  0  0  0  0  0  0  0  0  0
  -23.4370  -32.1400   23.6400 O   0  0  0  0  0  0  0  0  0  0  0  0
  -22.6880  -29.4310   22.4330 C   0  0  0  0  0  0  0  0  0  0  0  0
  -21.3580  -29.2640   22.3330 N   0  0  0  0  0  0  0  0  0  0  0  0
  -23.3800  -28.7910   23.2280 O   0  0  0  0  0  0  0  0  0  0  0  0
  -20.8610  -29.8320   21.6610 H   0  0  0  0  0  0  0  0  0  0  0  0
  -17.9800  -28.1160   22.9110 C   0  0  0  0  0  0  0  0  0  0  0  0
  -20.5480  -28.3270   23.1120 C   0  0  0  0  0  3  0  0  0  0  0  0
  -20.6100  -26.9050   22.5100 C   0  0  0  0  0  2  0  0  0  0  0  0
  -19.4730  -26.6170   21.5230 C   0  0  0  0  0  2  0  0  0  0  0  0
  -18.1130  -26.7750   22.2100 C   0  0  0  0  0  2  0  0  0  0  0  0
  -19.1220  -28.8520   23.3200 C   0  0  0  0  0  0  0  0  0  0  0  0
  -18.9430  -30.1090   23.9370 C   0  0  0  0  0  3  0  0  0  0  0  0
  -17.6520  -30.6300   24.1480 C   0  0  0  0  0  3  0  0  0  0  0  0
  -16.5230  -29.8900   23.7560 C   0  0  0  0  0  3  0  0  0  0  0  0
  -16.6880  -28.6340   23.1430 C   0  0  0  0  0  3  0  0  0  0  0  0
  -25.8000  -32.5230   23.7210 C   0  0  0  0  0  3  0  0  0  0  0  0
  -25.4620  -33.9060   24.0870 N   0  0  0  0  0  0  0  0  0  0  0  0
  -25.7720  -34.9830   23.3540 C   0  0  0  0  0  0  0  0  0  0  0  0
  -26.4420  -34.9180   22.3200 O   0  0  0  0  0  0  0  0  0  0  0  0
  -24.8680  -34.0280   24.8930 H   0  0  0  0  0  0  0  0  0  0  0  0
  -24.0130  -36.7520   23.0370 C   0  0  0  0  0  1  0  0  0  0  0  0
  -25.2560  -36.3490   23.8450 C   0  0  0  0  0  3  0  0  0  0  0  0
  -27.3710  -37.2450   24.7120 C   0  0  0  0  0  1  0  0  0  0  0  0
  -26.2710  -37.4230   23.7690 N   0  0  0  0  0  0  0  0  0  0  0  0
  -25.8480  -38.3310   23.9430 H   0  0  0  0  0  0  0  0  0  0  0  0
  -26.3530  -31.7350   24.9720 C   0  0  1  0  0  0  0  0  0  0  0  0
  -25.2820  -31.4490   26.0500 C   0  0  0  0  0  1  0  0  0  0  0  0
  -26.9590  -30.3800   24.5380 C   0  0  0  0  0  1  0  0  0  0  0  0
  -27.4970  -32.5390   25.6330 C   0  0  0  0  0  1  0  0  0  0  0  0
  1  4  1  0
  2  1  2  0
  2 52  1  0
  3  5  1  0
  3  1  1  0
  4  6  1  0
  5  7  1  0
  7 12  1  0
  7  6  1  0
  8 12  1  0
 10  8  2  0
 10 13  1  0
 11  9  1  0
 12  9  2  0
 13 11  2  0
 15 20  1  0
 16 17  1  0
 16 15  1  0
 18 17  1  0
 18 27  1  0
 18 19  1  0
 20 14  1  0
 20 19  1  0
 21 14  2  0
 22 23  1  0
 23 13  1  0
 23 14  1  0
 24 25  2  0
 25 26  1  0
 25 44  1  0
 26 29  1  0
 27 24  1  0
 27 28  1  0
 28 26  2  0
 29 30  1  0
 30 31  2  0
 32 35  1  0
 32 31  1  0
 33 32  2  0
 34 33  1  0
 34 29  2  0
 35 36  1  0
 36 37  1  0
 37 38  2  0
 39 38  1  0
 39 43  1  0
 40 39  2  0
 41 36  2  0
 41 40  1  0
 42 41  1  0
 44 45  1  0
 45 48  1  0
 45 47  1  0
 46 44  2  0
 49 50  1  0
 49 24  1  0
 51 49  1  0
 53 64  2  0
 54 52  1  0
 54 59  1  0
 55 63  1  0
 55 65  1  0
 56 62  1  0
 56 58  1  0
 57 63  1  0
 58 57  1  0
 59 58  2  0
 60 54  2  0
 61 60  1  0
 61 56  2  0
 62 55  1  0
 63 53  1  0
 65 67  2  0
 66 65  1  0
 68 66  1  0
 69 78  2  0
 69 74  1  0
 70 66  1  0
 70 74  1  0
 71 70  1  0
 72 73  1  0
 72 71  1  0
 73 69  1  0
 74 75  2  0
 75 76  1  0
 77 76  2  0
 78 77  1  0
 79 53  1  0
 79 80  1  0
 79 89  1  0
 80 83  1  0
 81 85  1  0
 81 80  1  0
 82 81  2  0
 85 84  1  0
 87 85  1  0
 87 88  1  0
 87 86  1  0
 89 92  1  1
 89 90  1  0
 91 89  1  0
M  ISO  4   2 101  14 100  23 100  52 101
M  END
>  <TORSDO>  (81) 
F 17

>  <SCORE>  (81) 
-15.069

>  <name>  (81) 
80

>  <ligand_id>  (81) 
80

>  <original_smiles>  (81) 
[H]C(Oc1c([H])c([H])c2c(c1[H])C([H])([H])N(C(=O)C([H])(N([H])C(=O)C([H])(N([H])C([H])([H])[H])C([H])([H])[H])C(C([H])([H])[H])(C([H])([H])[H])C([H])([H])[H])C([H])(C(=O)N([H])C1([H])c3c([H])c([H])c([H])c([H])c3C([H])([H])C([H])([H])C1([H])[H])C2([H])[H])=C1C([H])([H])C([H])([H])N(c2c([H])c([H])c(N(C(=O)N3C([H])([H])C([H])([H])C([H])([H])C([H])(n4nc(-c5c([H])c([H])c(Oc6c([H])c([H])c(F)c([H])c6F)c([H])c5[H])c(C(=O)N([H])[H])c4N([H])[H])C3([H])[H])C([H])([H])[H])c([H])c2[H])C([H])([H])C1([H])[H]

>  <smiles>  (81) 
[H]C(Oc1c([H])c([H])c2c(c1[H])C([H])([H])N(C(=O)C([H])(N([H])C(=O)C([H])(N([H])C([H])([H])[H])C([H])([H])[H])C(C([H])([H])[H])(C([H])([H])[H])C([H])([H])[H])C([H])(C(=O)N([H])C1([H])c3c([H])c([H])c([H])c([H])c3C([H])([H])C([H])([H])C1([H])[H])C2([H])[H])=C1C([H])([H])C([H])([H])N(c2c([H])c([H])c(N(C(=O)N3C([H])([H])C([H])([H])C([H])([H])C([H])(n4nc(-c5c([H])c([H])c(Oc6c([H])c([H])c(F)c([H])c6F)c([H])c5[H])c(C(=O)N([H])[H])c4N([H])[H])C3([H])[H])C([H])([H])[H])c([H])c2[H])C([H])([H])C1([H])[H]

$$$$
81:0:0
     RDKit          3D

 95104  0  0  1  0  0  0  0  0999 V2000
  -30.2080  -21.7300   18.3680 C   0  0  0  0  0  0  0  0  0  0  0  0
  -30.1150  -23.1810   17.8750 C   0  0  0  0  0  2  0  0  0  0  0  0
  -29.9070  -24.2080   18.9860 C   0  0  0  0  0  2  0  0  0  0  0  0
  -28.8770  -22.3620   20.3590 C   0  0  0  0  0  2  0  0  0  0  0  0
  -28.6560  -23.8450   19.7750 C   0  0  0  0  0  3  0  0  0  0  0  0
  -29.4740  -21.3040   19.4420 N   0  0  0  0  0  0  0  0  0  0  0  0
  -30.9640  -20.9910   17.7250 O   0  0  0  0  0  0  0  0  0  0  0  0
  -29.9050  -19.3750   21.0630 C   0  0  0  0  0  3  0  0  0  0  0  0
  -30.0810  -17.9810   21.3250 C   0  0  0  0  0  3  0  0  0  0  0  0
  -29.2370  -18.8240   18.8340 C   0  0  0  0  0  3  0  0  0  0  0  0
  -29.5160  -19.8570   19.7870 C   0  0  0  0  0  0  0  0  0  0  0  0
  -29.8980  -16.9500   20.3420 C   0  0  0  0  0  0  0  0  0  0  0  0
  -29.4290  -17.4290   19.0870 C   0  0  0  0  0  0  0  0  0  0  0  0
  -29.1340  -16.5480   18.1000 F   0  0  0  0  0  0  0  0  0  0  0  0
  -30.5290  -14.5480   19.7200 C   0  0  0  0  0  0  0  0  0  0  0  0
  -30.0430  -12.4240   18.4860 C   0  0  0  0  0  2  0  0  0  0  0  0
  -28.9770  -12.6670   17.3970 C   0  0  0  0  0  2  0  0  0  0  0  0
  -27.5610  -12.5060   17.9780 C   0  0  0  0  0  2  0  0  0  0  0  0
  -27.3800  -13.2870   19.3040 C   0  0  0  0  0  3  0  0  0  0  0  0
  -28.5480  -13.0380   20.2780 C   0  0  0  0  0  2  0  0  0  0  0  0
  -29.8030  -13.3830   19.5890 N   0  0  0  0  0  0  0  0  0  0  0  0
  -31.5470  -14.7210   19.0380 O   0  0  0  0  0  0  0  0  0  0  0  0
  -30.1330  -15.5080   20.6370 N   0  0  0  0  0  0  0  0  0  0  0  0
  -25.0950  -13.8900   20.3070 C   0  0  0  0  0  0  0  0  0  0  0  0
  -24.0670  -13.1190   20.7780 C   0  0  0  0  0  0  0  0  0  0  0  0
  -24.5050  -11.7630   20.6640 C   0  0  0  0  0  0  0  0  0  0  0  0
  -26.0920  -13.0040   19.9300 N   0  0  0  0  0  0  0  0  0  0  0  0
  -25.7500  -11.7190   20.2060 N   0  0  0  0  0  0  0  0  0  0  0  0
  -23.7870  -10.5060   20.9090 C   0  0  0  0  0  0  0  0  0  0  0  0
  -24.2830   -9.5310   21.8010 C   0  0  0  0  0  3  0  0  0  0  0  0
  -23.5620   -8.3390   22.0320 C   0  0  0  0  0  3  0  0  0  0  0  0
  -22.3310   -8.1140   21.3680 C   0  0  0  0  0  0  0  0  0  0  0  0
  -21.8540   -9.0790   20.4630 C   0  0  0  0  0  3  0  0  0  0  0  0
  -22.5760  -10.2620   20.2310 C   0  0  0  0  0  3  0  0  0  0  0  0
  -21.5750   -6.9750   21.5120 O   0  0  0  0  0  0  0  0  0  0  0  0
  -21.5840   -6.2460   22.6740 C   0  0  0  0  0  0  0  0  0  0  0  0
  -21.2350   -6.8200   23.9160 C   0  0  0  0  0  3  0  0  0  0  0  0
  -21.1890   -6.0170   25.0730 C   0  0  0  0  0  3  0  0  0  0  0  0
  -21.4850   -4.6430   24.9910 C   0  0  0  0  0  0  0  0  0  0  0  0
  -21.8280   -4.0700   23.7530 C   0  0  0  0  0  3  0  0  0  0  0  0
  -21.8740   -4.8690   22.5980 C   0  0  0  0  0  0  0  0  0  0  0  0
  -22.1840   -4.3070   21.4040 F   0  0  0  0  0  0  0  0  0  0  0  0
  -21.4340   -3.8690   26.1000 F   0  0  0  0  0  0  0  0  0  0  0  0
  -22.7170  -13.6060   21.2180 C   0  0  0  0  0  0  0  0  0  0  0  0
  -22.0860  -12.9020   22.1490 N   0  0  0  0  0  0  0  0  0  0  0  0
  -22.2360  -14.6460   20.7690 O   0  0  0  0  0  0  0  0  0  0  0  0
  -22.4900  -12.0600   22.5340 H   0  0  0  0  0  0  0  0  0  0  0  0
  -21.1810  -13.2070   22.4850 H   0  0  0  0  0  0  0  0  0  0  0  0
  -25.2580  -15.2630   20.1490 N   0  0  0  0  0  0  0  0  0  0  0  0
  -24.5220  -15.9220   20.3770 H   0  0  0  0  0  0  0  0  0  0  0  0
  -26.0730  -15.7020   19.7410 H   0  0  0  0  0  0  0  0  0  0  0  0
  -31.8740  -15.4270   22.4590 C   0  0  0  0  0  1  0  0  0  0  0  0
  -30.4170  -15.1500   22.0450 C   0  0  0  0  0  2  0  0  0  0  0  0
  -28.2560  -25.0280   20.7710 C   0  0  0  0  0  2  0  0  0  0  0  0
  -28.3900  -26.4360   20.3270 O   0  0  0  0  0  0  0  0  0  0  0  0
  -24.5710  -31.8220   23.2360 C   0  0  0  0  0  0  0  0  0  0  0  0
  -27.2540  -27.2490   20.2970 C   0  0  0  0  0  0  0  0  0  0  0  0
  -23.4010  -30.4020   21.5860 C   0  0  0  0  0  3  0  0  0  0  0  0
  -24.8830  -28.8330   20.2140 C   0  0  0  0  0  0  0  0  0  0  0  0
  -25.9390  -30.7330   21.4440 C   0  0  0  0  0  2  0  0  0  0  0  0
  -26.0370  -29.3460   20.8190 C   0  0  0  0  0  0  0  0  0  0  0  0
  -27.2300  -28.5660   20.8450 C   0  0  0  0  0  3  0  0  0  0  0  0
  -26.0810  -26.7760   19.6760 C   0  0  0  0  0  3  0  0  0  0  0  0
  -24.9060  -27.5530   19.6330 C   0  0  0  0  0  3  0  0  0  0  0  0
  -23.6430  -29.7040   20.2200 C   0  0  0  0  0  2  0  0  0  0  0  0
  -24.6540  -31.0040   22.1460 N   0  0  0  0  0  0  0  0  0  0  0  0
  -23.4770  -32.1040   23.7460 O   0  0  0  0  0  0  0  0  0  0  0  0
  -22.7220  -29.3970   22.5450 C   0  0  0  0  0  0  0  0  0  0  0  0
  -21.3990  -29.2190   22.3930 N   0  0  0  0  0  0  0  0  0  0  0  0
  -23.3830  -28.7800   23.3830 O   0  0  0  0  0  0  0  0  0  0  0  0
  -20.9240  -29.7660   21.6880 H   0  0  0  0  0  0  0  0  0  0  0  0
  -18.0110  -28.0300   22.8330 C   0  0  0  0  0  0  0  0  0  0  0  0
  -20.5630  -28.2920   23.1570 C   0  0  0  0  0  3  0  0  0  0  0  0
  -20.6770  -26.8540   22.6010 C   0  0  0  0  0  2  0  0  0  0  0  0
  -19.5980  -26.5190   21.5670 C   0  0  0  0  0  2  0  0  0  0  0  0
  -18.2020  -26.6730   22.1790 C   0  0  0  0  0  2  0  0  0  0  0  0
  -19.1200  -28.7980   23.2780 C   0  0  0  0  0  0  0  0  0  0  0  0
  -18.8890  -30.0680   23.8500 C   0  0  0  0  0  3  0  0  0  0  0  0
  -17.5810  -30.5710   23.9800 C   0  0  0  0  0  3  0  0  0  0  0  0
  -16.4860  -29.8010   23.5520 C   0  0  0  0  0  3  0  0  0  0  0  0
  -16.7020  -28.5330   22.9850 C   0  0  0  0  0  3  0  0  0  0  0  0
  -25.8390  -32.4640   23.8770 C   0  0  0  0  0  3  0  0  0  0  0  0
  -26.3310  -31.7060   25.1720 C   0  0  1  0  0  0  0  0  0  0  0  0
  -25.2170  -31.4740   26.2190 C   0  0  0  0  0  1  0  0  0  0  0  0
  -26.9260  -30.3270   24.8040 C   0  0  0  0  0  1  0  0  0  0  0  0
  -27.4670  -32.5090   25.8490 C   0  0  0  0  0  1  0  0  0  0  0  0
  -25.5230  -33.8650   24.1870 N   0  0  0  0  0  0  0  0  0  0  0  0
  -25.8590  -34.9090   23.4180 C   0  0  0  0  0  0  0  0  0  0  0  0
  -26.5400  -34.7960   22.3950 O   0  0  0  0  0  0  0  0  0  0  0  0
  -24.9210  -34.0280   24.9800 H   0  0  0  0  0  0  0  0  0  0  0  0
  -24.1260  -36.6900   23.0280 C   0  0  0  0  0  1  0  0  0  0  0  0
  -25.3630  -36.3030   23.8540 C   0  0  0  0  0  3  0  0  0  0  0  0
  -27.4890  -37.2030   24.6860 C   0  0  0  0  0  1  0  0  0  0  0  0
  -26.3900  -37.3590   23.7370 N   0  0  0  0  0  0  0  0  0  0  0  0
  -25.9790  -38.2780   23.8790 H   0  0  0  0  0  0  0  0  0  0  0  0
  1  6  1  0
  2  1  1  0
  2  3  1  0
  3  5  1  0
  5  4  1  0
  5 54  1  0
  6 11  1  0
  6  4  1  0
  7  1  2  0
  8  9  1  0
 10 13  2  0
 10 11  1  0
 11  8  2  0
 12 23  1  0
 12  9  2  0
 13 12  1  0
 14 13  1  0
 15 23  1  0
 16 21  1  0
 17 18  1  0
 17 16  1  0
 19 18  1  0
 19 27  1  0
 19 20  1  0
 21 15  1  0
 21 20  1  0
 22 15  2  0
 23 53  1  0
 24 25  2  0
 25 44  1  0
 26 25  1  0
 26 29  1  0
 27 28  1  0
 27 24  1  0
 28 26  2  0
 29 30  1  0
 30 31  2  0
 32 35  1  0
 32 31  1  0
 33 32  2  0
 34 33  1  0
 34 29  2  0
 35 36  1  0
 36 37  1  0
 37 38  2  0
 39 38  1  0
 39 43  1  0
 40 39  2  0
 41 36  2  0
 41 40  1  0
 42 41  1  0
 44 45  1  0
 45 48  1  0
 45 47  1  0
 46 44  2  0
 49 24  1  0
 49 50  1  0
 51 49  1  0
 53 52  1  0
 55 54  1  0
 56 67  2  0
 57 55  1  0
 57 62  1  0
 58 66  1  0
 58 68  1  0
 59 65  1  0
 59 61  1  0
 60 66  1  0
 61 62  2  0
 61 60  1  0
 63 57  2  0
 64 63  1  0
 64 59  2  0
 65 58  1  0
 66 56  1  0
 68 70  2  0
 69 68  1  0
 71 69  1  0
 72 81  2  0
 72 77  1  0
 73 69  1  0
 73 77  1  0
 74 73  1  0
 75 76  1  0
 75 74  1  0
 76 72  1  0
 77 78  2  0
 78 79  1  0
 80 79  2  0
 81 80  1  0
 82 56  1  0
 82 87  1  0
 82 83  1  0
 83 86  1  1
 83 84  1  0
 85 83  1  0
 87 90  1  0
 88 92  1  0
 88 87  1  0
 89 88  2  0
 92 91  1  0
 94 92  1  0
 94 95  1  0
 94 93  1  0
M  ISO  4  15 100  23 100  54 101  55 101
M  END
>  <TORSDO>  (82) 
F 19

>  <SCORE>  (82) 
-11.071

>  <name>  (82) 
81

>  <ligand_id>  (82) 
81

>  <original_smiles>  (82) 
[H]c1c([H])c([H])c2c(c1[H])C([H])([H])C([H])([H])C([H])([H])C2([H])N([H])C(=O)C1([H])N(C(=O)C([H])(N([H])C(=O)C([H])(N([H])C([H])([H])[H])C([H])([H])[H])C(C([H])([H])[H])(C([H])([H])[H])C([H])([H])[H])C([H])([H])c2c([H])c(OC([H])([H])C3([H])C([H])([H])N(c4c([H])c([H])c(N(C(=O)N5C([H])([H])C([H])([H])C([H])([H])C([H])(n6nc(-c7c([H])c([H])c(Oc8c([H])c([H])c(F)c([H])c8F)c([H])c7[H])c(C(=O)N([H])[H])c6N([H])[H])C5([H])[H])C([H])([H])C([H])([H])[H])c(F)c4[H])C(=O)C([H])([H])C3([H])[H])c([H])c([H])c2C1([H])[H]

>  <smiles>  (82) 
[H]c1c([H])c([H])c2c(c1[H])C([H])([H])C([H])([H])C([H])([H])C2([H])N([H])C(=O)C1([H])N(C(=O)C([H])(N([H])C(=O)C([H])(N([H])C([H])([H])[H])C([H])([H])[H])C(C([H])([H])[H])(C([H])([H])[H])C([H])([H])[H])C([H])([H])c2c([H])c(OC([H])([H])C3([H])C([H])([H])N(c4c([H])c([H])c(N(C(=O)N5C([H])([H])C([H])([H])C([H])([H])C([H])(n6nc(-c7c([H])c([H])c(Oc8c([H])c([H])c(F)c([H])c8F)c([H])c7[H])c(C(=O)N([H])[H])c6N([H])[H])C5([H])[H])C([H])([H])C([H])([H])[H])c(F)c4[H])C(=O)C([H])([H])C3([H])[H])c([H])c([H])c2C1([H])[H]

$$$$
82:0:0
     RDKit          3D

 94102  0  0  1  0  0  0  0  0999 V2000
  -30.5080  -19.0760   22.0310 C   0  0  0  0  0  3  0  0  0  0  0  0
  -29.9730  -20.3740   21.8770 C   0  0  0  0  0  3  0  0  0  0  0  0
  -28.4240  -19.5120   20.2230 C   0  0  0  0  0  3  0  0  0  0  0  0
  -30.0310  -17.9760   21.2690 C   0  0  0  0  0  0  0  0  0  0  0  0
  -28.9410  -20.6120   20.9410 C   0  0  0  0  0  0  0  0  0  0  0  0
  -28.9550  -18.2100   20.3780 C   0  0  0  0  0  0  0  0  0  0  0  0
  -28.4240  -17.2050   19.6330 F   0  0  0  0  0  0  0  0  0  0  0  0
  -30.7720  -14.5070   20.2710 C   0  0  0  0  0  0  0  0  0  0  0  0
  -30.3630  -12.4080   19.0360 C   0  0  0  0  0  2  0  0  0  0  0  0
  -29.3880  -12.6330   17.8670 C   0  0  0  0  0  2  0  0  0  0  0  0
  -27.9290  -12.4960   18.3400 C   0  0  0  0  0  2  0  0  0  0  0  0
  -27.6370  -13.3160   19.6270 C   0  0  0  0  0  3  0  0  0  0  0  0
  -28.7250  -13.0830   20.6990 C   0  0  0  0  0  2  0  0  0  0  0  0
  -30.0260  -13.3830   20.0840 N   0  0  0  0  0  0  0  0  0  0  0  0
  -31.8890  -14.6310   19.7580 O   0  0  0  0  0  0  0  0  0  0  0  0
  -30.7760  -16.6540   21.3280 C   0  0  0  0  0  0  0  0  0  0  0  0
  -30.1600  -15.5350   20.8910 N   0  0  0  0  0  0  0  0  0  0  0  0
  -31.9270  -16.6450   21.7830 O   0  0  0  0  0  0  0  0  0  0  0  0
  -29.1540  -15.5470   20.8570 H   0  0  0  0  0  0  0  0  0  0  0  0
  -25.2590  -13.9210   20.3920 C   0  0  0  0  0  0  0  0  0  0  0  0
  -24.1980  -13.1460   20.7850 C   0  0  0  0  0  0  0  0  0  0  0  0
  -24.6630  -11.7950   20.7520 C   0  0  0  0  0  0  0  0  0  0  0  0
  -26.2990  -13.0390   20.1410 N   0  0  0  0  0  0  0  0  0  0  0  0
  -25.9470  -11.7560   20.4150 N   0  0  0  0  0  0  0  0  0  0  0  0
  -23.9450  -10.5310   20.9650 C   0  0  0  0  0  0  0  0  0  0  0  0
  -24.3990   -9.5720   21.8980 C   0  0  0  0  0  3  0  0  0  0  0  0
  -23.6820   -8.3730   22.0970 C   0  0  0  0  0  3  0  0  0  0  0  0
  -22.4980   -8.1230   21.3650 C   0  0  0  0  0  0  0  0  0  0  0  0
  -22.0640   -9.0690   20.4200 C   0  0  0  0  0  3  0  0  0  0  0  0
  -22.7810  -10.2610   20.2180 C   0  0  0  0  0  3  0  0  0  0  0  0
  -21.7500   -6.9750   21.4730 O   0  0  0  0  0  0  0  0  0  0  0  0
  -21.7250   -6.2400   22.6310 C   0  0  0  0  0  0  0  0  0  0  0  0
  -21.3170   -6.8010   23.8610 C   0  0  0  0  0  3  0  0  0  0  0  0
  -21.2400   -5.9910   25.0130 C   0  0  0  0  0  3  0  0  0  0  0  0
  -21.5610   -4.6220   24.9330 C   0  0  0  0  0  0  0  0  0  0  0  0
  -21.9610   -4.0610   23.7080 C   0  0  0  0  0  3  0  0  0  0  0  0
  -22.0390   -4.8690   22.5590 C   0  0  0  0  0  0  0  0  0  0  0  0
  -22.4050   -4.3190   21.3750 F   0  0  0  0  0  0  0  0  0  0  0  0
  -21.4790   -3.8400   26.0360 F   0  0  0  0  0  0  0  0  0  0  0  0
  -22.8050  -13.6210   21.0800 C   0  0  0  0  0  0  0  0  0  0  0  0
  -22.0950  -12.9250   21.9610 N   0  0  0  0  0  0  0  0  0  0  0  0
  -22.3540  -14.6430   20.5640 O   0  0  0  0  0  0  0  0  0  0  0  0
  -22.4710  -12.0980   22.4000 H   0  0  0  0  0  0  0  0  0  0  0  0
  -21.1600  -13.2230   22.1970 H   0  0  0  0  0  0  0  0  0  0  0  0
  -25.4260  -15.2910   20.2080 N   0  0  0  0  0  0  0  0  0  0  0  0
  -24.6910  -15.9640   20.3890 H   0  0  0  0  0  0  0  0  0  0  0  0
  -26.2770  -15.7210   19.8640 H   0  0  0  0  0  0  0  0  0  0  0  0
  -28.4080  -21.8900   20.6840 N   0  0  0  0  0  0  0  0  0  0  0  0
  -27.8270  -22.0180   19.8580 H   0  0  0  0  0  0  0  0  0  0  0  0
  -28.9980  -23.1310   21.2090 C   0  0  0  0  0  2  0  0  0  0  0  0
  -28.5740  -24.3810   20.4050 C   0  0  0  0  0  0  0  0  0  0  0  0
  -28.1700  -24.2670   19.2390 O   0  0  0  0  0  0  0  0  0  0  0  0
  -28.6680  -25.7570   21.1030 C   0  0  0  0  0  2  0  0  0  0  0  0
  -28.5240  -26.8570   20.1850 O   0  0  0  0  0  0  0  0  0  0  0  0
  -24.6210  -31.9490   23.3130 C   0  0  0  0  0  0  0  0  0  0  0  0
  -27.3370  -27.5480   20.2490 C   0  0  0  0  0  0  0  0  0  0  0  0
  -23.4380  -30.5390   21.6580 C   0  0  0  0  0  3  0  0  0  0  0  0
  -24.9170  -29.0130   20.2480 C   0  0  0  0  0  0  0  0  0  0  0  0
  -25.9570  -30.9320   21.4680 C   0  0  0  0  0  2  0  0  0  0  0  0
  -26.0650  -29.5560   20.8410 C   0  0  0  0  0  0  0  0  0  0  0  0
  -27.2780  -28.8320   20.8370 C   0  0  0  0  0  3  0  0  0  0  0  0
  -26.1730  -27.0100   19.6610 C   0  0  0  0  0  3  0  0  0  0  0  0
  -24.9660  -27.7370   19.6580 C   0  0  0  0  0  3  0  0  0  0  0  0
  -23.6620  -29.8570   20.2820 C   0  0  0  0  0  2  0  0  0  0  0  0
  -24.6900  -31.1550   22.2060 N   0  0  0  0  0  0  0  0  0  0  0  0
  -23.5330  -32.2070   23.8500 O   0  0  0  0  0  0  0  0  0  0  0  0
  -22.7910  -29.5130   22.6170 C   0  0  0  0  0  0  0  0  0  0  0  0
  -21.4680  -29.3170   22.4810 N   0  0  0  0  0  0  0  0  0  0  0  0
  -23.4740  -28.8890   23.4340 O   0  0  0  0  0  0  0  0  0  0  0  0
  -20.9770  -29.8690   21.7910 H   0  0  0  0  0  0  0  0  0  0  0  0
  -18.1020  -28.0990   22.9630 C   0  0  0  0  0  0  0  0  0  0  0  0
  -20.6550  -28.3710   23.2440 C   0  0  0  0  0  3  0  0  0  0  0  0
  -20.7710  -26.9430   22.6610 C   0  0  0  0  0  2  0  0  0  0  0  0
  -19.6740  -26.6200   21.6430 C   0  0  0  0  0  2  0  0  0  0  0  0
  -18.2890  -26.7560   22.2810 C   0  0  0  0  0  2  0  0  0  0  0  0
  -19.2140  -28.8660   23.4010 C   0  0  0  0  0  0  0  0  0  0  0  0
  -18.9870  -30.1250   23.9970 C   0  0  0  0  0  3  0  0  0  0  0  0
  -17.6790  -30.6170   24.1610 C   0  0  0  0  0  3  0  0  0  0  0  0
  -16.5790  -29.8490   23.7390 C   0  0  0  0  0  3  0  0  0  0  0  0
  -16.7920  -28.5910   23.1440 C   0  0  0  0  0  3  0  0  0  0  0  0
  -25.8970  -32.5920   23.9410 C   0  0  0  0  0  3  0  0  0  0  0  0
  -26.3950  -31.8410   25.2370 C   0  0  1  0  0  0  0  0  0  0  0  0
  -25.2850  -31.6190   26.2920 C   0  0  0  0  0  1  0  0  0  0  0  0
  -26.9820  -30.4590   24.8710 C   0  0  0  0  0  1  0  0  0  0  0  0
  -27.5370  -32.6430   25.9050 C   0  0  0  0  0  1  0  0  0  0  0  0
  -25.5840  -33.9950   24.2410 N   0  0  0  0  0  0  0  0  0  0  0  0
  -25.9270  -35.0330   23.4670 C   0  0  0  0  0  0  0  0  0  0  0  0
  -26.6140  -34.9100   22.4490 O   0  0  0  0  0  0  0  0  0  0  0  0
  -24.9790  -34.1660   25.0320 H   0  0  0  0  0  0  0  0  0  0  0  0
  -24.2070  -36.8160   23.0450 C   0  0  0  0  0  1  0  0  0  0  0  0
  -25.4330  -36.4290   23.8880 C   0  0  0  0  0  3  0  0  0  0  0  0
  -27.5570  -37.3250   24.7340 C   0  0  0  0  0  1  0  0  0  0  0  0
  -26.4650  -37.4840   23.7760 N   0  0  0  0  0  0  0  0  0  0  0  0
  -26.0560  -38.4040   23.9130 H   0  0  0  0  0  0  0  0  0  0  0  0
  2  1  1  0
  3  6  2  0
  3  5  1  0
  4 16  1  0
  4  1  2  0
  5  2  2  0
  6  4  1  0
  7  6  1  0
  8 17  1  0
  9 14  1  0
 10 11  1  0
 10  9  1  0
 12 11  1  0
 12 23  1  0
 12 13  1  0
 14  8  1  0
 14 13  1  0
 15  8  2  0
 16 18  2  0
 17 16  1  0
 19 17  1  0
 20 21  2  0
 21 40  1  0
 22 21  1  0
 22 25  1  0
 23 20  1  0
 23 24  1  0
 24 22  2  0
 25 26  1  0
 26 27  2  0
 28 31  1  0
 28 27  1  0
 29 28  2  0
 30 29  1  0
 30 25  2  0
 31 32  1  0
 32 33  1  0
 33 34  2  0
 35 34  1  0
 35 39  1  0
 36 35  2  0
 37 32  2  0
 37 36  1  0
 38 37  1  0
 40 41  1  0
 41 44  1  0
 41 43  1  0
 42 40  2  0
 45 46  1  0
 45 20  1  0
 47 45  1  0
 48  5  1  0
 48 50  1  0
 49 48  1  0
 51 53  1  0
 51 50  1  0
 52 51  2  0
 54 56  1  0
 54 53  1  0
 55 66  2  0
 56 61  1  0
 57 65  1  0
 57 67  1  0
 58 64  1  0
 58 60  1  0
 59 65  1  0
 60 59  1  0
 61 60  2  0
 62 56  2  0
 63 62  1  0
 63 58  2  0
 64 57  1  0
 65 55  1  0
 67 69  2  0
 68 67  1  0
 70 68  1  0
 71 80  2  0
 71 76  1  0
 72 68  1  0
 72 76  1  0
 73 72  1  0
 74 75  1  0
 74 73  1  0
 75 71  1  0
 76 77  2  0
 77 78  1  0
 79 78  2  0
 80 79  1  0
 81 55  1  0
 81 86  1  0
 81 82  1  0
 82 85  1  1
 82 83  1  0
 84 82  1  0
 86 89  1  0
 87 91  1  0
 87 86  1  0
 88 87  2  0
 91 90  1  0
 93 91  1  0
 93 94  1  0
 93 92  1  0
M  ISO  4   8 100  17 100  53 101  54 101
M  END
>  <TORSDO>  (83) 
F 20

>  <SCORE>  (83) 
-13.609

>  <name>  (83) 
82

>  <ligand_id>  (83) 
82

>  <original_smiles>  (83) 
[H]c1c([H])c([H])c2c(c1[H])C([H])([H])C([H])([H])C([H])([H])C2([H])N([H])C(=O)C1([H])N(C(=O)C([H])(N([H])C(=O)C([H])(N([H])C([H])([H])[H])C([H])([H])[H])C(C([H])([H])[H])(C([H])([H])[H])C([H])([H])[H])C([H])([H])c2c([H])c(OC([H])([H])C(=O)C([H])([H])N([H])c3c([H])c([H])c(C(=O)N([H])C(=O)N4C([H])([H])C([H])([H])C([H])([H])C([H])(n5nc(-c6c([H])c([H])c(Oc7c([H])c([H])c(F)c([H])c7F)c([H])c6[H])c(C(=O)N([H])[H])c5N([H])[H])C4([H])[H])c(F)c3[H])c([H])c([H])c2C1([H])[H]

>  <smiles>  (83) 
[H]c1c([H])c([H])c2c(c1[H])C([H])([H])C([H])([H])C([H])([H])C2([H])N([H])C(=O)C1([H])N(C(=O)C([H])(N([H])C(=O)C([H])(N([H])C([H])([H])[H])C([H])([H])[H])C(C([H])([H])[H])(C([H])([H])[H])C([H])([H])[H])C([H])([H])c2c([H])c(OC([H])([H])C(=O)C([H])([H])N([H])c3c([H])c([H])c(C(=O)N([H])C(=O)N4C([H])([H])C([H])([H])C([H])([H])C([H])(n5nc(-c6c([H])c([H])c(Oc7c([H])c([H])c(F)c([H])c7F)c([H])c6[H])c(C(=O)N([H])[H])c5N([H])[H])C4([H])[H])c(F)c3[H])c([H])c([H])c2C1([H])[H]

$$$$
83:0:0
     RDKit          3D

 93102  0  0  1  0  0  0  0  0999 V2000
  -30.5620  -21.0190   19.2160 C   0  0  0  0  0  0  0  0  0  0  0  0
  -30.6480  -24.5080   19.5900 C   0  0  0  0  0  2  0  0  0  0  0  0
  -31.4460  -23.2230   19.8190 C   0  0  0  0  0  2  0  0  0  0  0  0
  -29.1730  -22.7640   20.3250 C   0  0  0  0  0  2  0  0  0  0  0  0
  -29.3970  -24.3050   20.4260 C   0  0  0  0  0  3  0  0  0  0  0  0
  -30.4690  -22.1360   19.9880 N   0  0  0  0  0  0  0  0  0  0  0  0
  -30.9690  -21.0830   18.0510 O   0  0  0  0  0  0  0  0  0  0  0  0
  -29.7960  -18.6240   18.9130 C   0  0  0  0  0  3  0  0  0  0  0  0
  -30.5950  -19.2630   21.1100 C   0  0  0  0  0  3  0  0  0  0  0  0
  -29.6990  -17.2780   19.3280 C   0  0  0  0  0  3  0  0  0  0  0  0
  -30.4910  -17.9100   21.5320 C   0  0  0  0  0  3  0  0  0  0  0  0
  -30.2610  -19.6390   19.7840 C   0  0  0  0  0  0  0  0  0  0  0  0
  -30.0740  -16.8960   20.6350 C   0  0  0  0  0  0  0  0  0  0  0  0
  -30.6580  -14.5000   20.4730 C   0  0  0  0  0  0  0  0  0  0  0  0
  -30.3570  -12.3340   19.3350 C   0  0  0  0  0  2  0  0  0  0  0  0
  -29.4200  -12.5520   18.1280 C   0  0  0  0  0  2  0  0  0  0  0  0
  -27.9440  -12.4190   18.5530 C   0  0  0  0  0  2  0  0  0  0  0  0
  -27.6100  -13.2460   19.8240 C   0  0  0  0  0  3  0  0  0  0  0  0
  -28.6640  -13.0150   20.9330 C   0  0  0  0  0  2  0  0  0  0  0  0
  -29.9910  -13.3160   20.3720 N   0  0  0  0  0  0  0  0  0  0  0  0
  -31.7780  -14.6760   19.9880 O   0  0  0  0  0  0  0  0  0  0  0  0
  -29.9770  -15.5230   21.0390 N   0  0  0  0  0  0  0  0  0  0  0  0
  -29.1380  -15.2620   21.5350 H   0  0  0  0  0  0  0  0  0  0  0  0
  -25.2090  -13.8570   20.5230 C   0  0  0  0  0  0  0  0  0  0  0  0
  -24.1370  -13.0860   20.8880 C   0  0  0  0  0  0  0  0  0  0  0  0
  -24.5940  -11.7330   20.8560 C   0  0  0  0  0  0  0  0  0  0  0  0
  -26.2530  -12.9740   20.2960 N   0  0  0  0  0  0  0  0  0  0  0  0
  -25.8850  -11.6910   20.5500 N   0  0  0  0  0  0  0  0  0  0  0  0
  -23.8620  -10.4740   21.0420 C   0  0  0  0  0  0  0  0  0  0  0  0
  -24.2840   -9.5050   21.9800 C   0  0  0  0  0  3  0  0  0  0  0  0
  -23.5510   -8.3110   22.1530 C   0  0  0  0  0  3  0  0  0  0  0  0
  -22.3840   -8.0760   21.3880 C   0  0  0  0  0  0  0  0  0  0  0  0
  -21.9820   -9.0330   20.4390 C   0  0  0  0  0  3  0  0  0  0  0  0
  -22.7150  -10.2180   20.2630 C   0  0  0  0  0  3  0  0  0  0  0  0
  -21.6260   -6.9330   21.4690 O   0  0  0  0  0  0  0  0  0  0  0  0
  -21.5560   -6.1980   22.6250 C   0  0  0  0  0  0  0  0  0  0  0  0
  -21.1010   -6.7570   23.8390 C   0  0  0  0  0  3  0  0  0  0  0  0
  -20.9790   -5.9480   24.9860 C   0  0  0  0  0  3  0  0  0  0  0  0
  -21.3030   -4.5790   24.9200 C   0  0  0  0  0  0  0  0  0  0  0  0
  -21.7530   -4.0180   23.7120 C   0  0  0  0  0  3  0  0  0  0  0  0
  -21.8760   -4.8260   22.5670 C   0  0  0  0  0  0  0  0  0  0  0  0
  -22.2880   -4.2760   21.3990 F   0  0  0  0  0  0  0  0  0  0  0  0
  -21.1800   -3.7990   26.0210 F   0  0  0  0  0  0  0  0  0  0  0  0
  -22.7420  -13.5680   21.1590 C   0  0  0  0  0  0  0  0  0  0  0  0
  -22.0070  -12.8710   22.0170 N   0  0  0  0  0  0  0  0  0  0  0  0
  -22.3090  -14.5980   20.6430 O   0  0  0  0  0  0  0  0  0  0  0  0
  -22.3660  -12.0360   22.4570 H   0  0  0  0  0  0  0  0  0  0  0  0
  -21.0710  -13.1790   22.2420 H   0  0  0  0  0  0  0  0  0  0  0  0
  -25.3780  -15.2290   20.3470 N   0  0  0  0  0  0  0  0  0  0  0  0
  -24.6110  -15.8840   20.4600 H   0  0  0  0  0  0  0  0  0  0  0  0
  -26.2300  -15.6680   20.0230 H   0  0  0  0  0  0  0  0  0  0  0  0
  -28.1930  -25.1920   19.9970 C   0  0  0  0  0  2  0  0  0  0  0  0
  -28.3610  -26.6200   20.1970 O   0  0  0  0  0  0  0  0  0  0  0  0
  -24.5940  -31.8720   23.2620 C   0  0  0  0  0  0  0  0  0  0  0  0
  -27.2080  -27.3970   20.1600 C   0  0  0  0  0  0  0  0  0  0  0  0
  -23.3820  -30.4830   21.6180 C   0  0  0  0  0  3  0  0  0  0  0  0
  -24.8260  -28.9500   20.1790 C   0  0  0  0  0  0  0  0  0  0  0  0
  -25.9140  -30.8220   21.4210 C   0  0  0  0  0  2  0  0  0  0  0  0
  -25.9920  -29.4540   20.7680 C   0  0  0  0  0  0  0  0  0  0  0  0
  -27.1870  -28.6870   20.7500 C   0  0  0  0  0  3  0  0  0  0  0  0
  -26.0170  -26.9270   19.5530 C   0  0  0  0  0  3  0  0  0  0  0  0
  -24.8360  -27.6900   19.5640 C   0  0  0  0  0  3  0  0  0  0  0  0
  -23.5860  -29.8140   20.2340 C   0  0  0  0  0  2  0  0  0  0  0  0
  -24.6490  -31.0740   22.1580 N   0  0  0  0  0  0  0  0  0  0  0  0
  -23.5150  -32.1470   23.8030 O   0  0  0  0  0  0  0  0  0  0  0  0
  -22.7270  -29.4590   22.5740 C   0  0  0  0  0  0  0  0  0  0  0  0
  -21.4020  -29.2790   22.4470 N   0  0  0  0  0  0  0  0  0  0  0  0
  -23.4090  -28.8290   23.3880 O   0  0  0  0  0  0  0  0  0  0  0  0
  -20.9130  -29.8410   21.7640 H   0  0  0  0  0  0  0  0  0  0  0  0
  -18.0230  -28.0930   22.9430 C   0  0  0  0  0  0  0  0  0  0  0  0
  -20.5820  -28.3410   23.2140 C   0  0  0  0  0  3  0  0  0  0  0  0
  -20.6790  -26.9110   22.6330 C   0  0  0  0  0  2  0  0  0  0  0  0
  -19.5750  -26.5970   21.6190 C   0  0  0  0  0  2  0  0  0  0  0  0
  -18.1940  -26.7450   22.2650 C   0  0  0  0  0  2  0  0  0  0  0  0
  -19.1450  -28.8490   23.3760 C   0  0  0  0  0  0  0  0  0  0  0  0
  -18.9300  -30.1120   23.9700 C   0  0  0  0  0  3  0  0  0  0  0  0
  -17.6270  -30.6170   24.1380 C   0  0  0  0  0  3  0  0  0  0  0  0
  -16.5200  -29.8570   23.7220 C   0  0  0  0  0  3  0  0  0  0  0  0
  -16.7200  -28.5970   23.1310 C   0  0  0  0  0  3  0  0  0  0  0  0
  -25.8830  -32.4970   23.8820 C   0  0  0  0  0  3  0  0  0  0  0  0
  -25.5780  -33.8940   24.2210 N   0  0  0  0  0  0  0  0  0  0  0  0
  -25.8980  -34.9480   23.4580 C   0  0  0  0  0  0  0  0  0  0  0  0
  -26.5540  -34.8490   22.4170 O   0  0  0  0  0  0  0  0  0  0  0  0
  -24.9940  -34.0450   25.0300 H   0  0  0  0  0  0  0  0  0  0  0  0
  -24.1590  -36.7370   23.1360 C   0  0  0  0  0  1  0  0  0  0  0  0
  -25.4140  -36.3340   23.9270 C   0  0  0  0  0  3  0  0  0  0  0  0
  -27.5600  -37.2240   24.7250 C   0  0  0  0  0  1  0  0  0  0  0  0
  -26.4430  -37.3900   23.7980 N   0  0  0  0  0  0  0  0  0  0  0  0
  -26.0370  -38.3090   23.9510 H   0  0  0  0  0  0  0  0  0  0  0  0
  -26.4050  -31.7180   25.1510 C   0  0  1  0  0  0  0  0  0  0  0  0
  -25.3150  -31.4720   26.2200 C   0  0  0  0  0  1  0  0  0  0  0  0
  -26.9860  -30.3430   24.7470 C   0  0  0  0  0  1  0  0  0  0  0  0
  -27.5590  -32.5060   25.8130 C   0  0  0  0  0  1  0  0  0  0  0  0
  1 12  1  0
  1  6  1  0
  2  3  1  0
  2  5  1  0
  3  6  1  0
  4  5  1  0
  5 52  1  0
  6  4  1  0
  7  1  2  0
  8 10  2  0
  8 12  1  0
  9 11  1  0
 10 13  1  0
 12  9  2  0
 13 22  1  0
 13 11  2  0
 14 22  1  0
 15 20  1  0
 16 17  1  0
 16 15  1  0
 18 17  1  0
 18 27  1  0
 18 19  1  0
 20 14  1  0
 20 19  1  0
 21 14  2  0
 22 23  1  0
 24 25  2  0
 25 44  1  0
 26 25  1  0
 26 29  1  0
 27 24  1  0
 27 28  1  0
 28 26  2  0
 29 30  1  0
 30 31  2  0
 32 35  1  0
 32 31  1  0
 33 32  2  0
 34 33  1  0
 34 29  2  0
 35 36  1  0
 36 37  1  0
 37 38  2  0
 39 38  1  0
 39 43  1  0
 40 39  2  0
 41 36  2  0
 41 40  1  0
 42 41  1  0
 44 45  1  0
 45 48  1  0
 45 47  1  0
 46 44  2  0
 49 50  1  0
 49 24  1  0
 51 49  1  0
 52 53  1  0
 54 65  2  0
 55 53  1  0
 55 60  1  0
 56 64  1  0
 56 66  1  0
 57 63  1  0
 57 59  1  0
 58 64  1  0
 59 58  1  0
 60 59  2  0
 61 62  1  0
 61 55  2  0
 62 57  2  0
 63 56  1  0
 64 54  1  0
 66 68  2  0
 67 66  1  0
 69 67  1  0
 70 79  2  0
 70 75  1  0
 71 67  1  0
 71 75  1  0
 72 71  1  0
 73 74  1  0
 73 72  1  0
 74 70  1  0
 75 76  2  0
 76 77  1  0
 78 77  2  0
 79 78  1  0
 80 54  1  0
 80 81  1  0
 80 90  1  0
 81 84  1  0
 82 86  1  0
 82 81  1  0
 83 82  2  0
 86 85  1  0
 88 86  1  0
 88 89  1  0
 88 87  1  0
 90 93  1  1
 90 91  1  0
 92 90  1  0
M  ISO  4  14 100  22 100  52 101  53 101
M  END
>  <TORSDO>  (84) 
F 18

>  <SCORE>  (84) 
-14.792

>  <name>  (84) 
83

>  <ligand_id>  (84) 
83

>  <original_smiles>  (84) 
[H]c1c([H])c([H])c2c(c1[H])C([H])([H])C([H])([H])C([H])([H])C2([H])N([H])C(=O)C1([H])N(C(=O)C([H])(N([H])C(=O)C([H])(N([H])C([H])([H])[H])C([H])([H])[H])C(C([H])([H])[H])(C([H])([H])[H])C([H])([H])[H])C([H])([H])c2c([H])c(OC([H])([H])C3([H])C([H])([H])N(C(=O)c4c([H])c([H])c(N([H])C(=O)N5C([H])([H])C([H])([H])C([H])([H])C([H])(n6nc(-c7c([H])c([H])c(Oc8c([H])c([H])c(F)c([H])c8F)c([H])c7[H])c(C(=O)N([H])[H])c6N([H])[H])C5([H])[H])c([H])c4[H])C([H])([H])C3([H])[H])c([H])c([H])c2C1([H])[H]

>  <smiles>  (84) 
[H]c1c([H])c([H])c2c(c1[H])C([H])([H])C([H])([H])C([H])([H])C2([H])N([H])C(=O)C1([H])N(C(=O)C([H])(N([H])C(=O)C([H])(N([H])C([H])([H])[H])C([H])([H])[H])C(C([H])([H])[H])(C([H])([H])[H])C([H])([H])[H])C([H])([H])c2c([H])c(OC([H])([H])C3([H])C([H])([H])N(C(=O)c4c([H])c([H])c(N([H])C(=O)N5C([H])([H])C([H])([H])C([H])([H])C([H])(n6nc(-c7c([H])c([H])c(Oc8c([H])c([H])c(F)c([H])c8F)c([H])c7[H])c(C(=O)N([H])[H])c6N([H])[H])C5([H])[H])c([H])c4[H])C([H])([H])C3([H])[H])c([H])c([H])c2C1([H])[H]

$$$$
84:0:0
     RDKit          3D

 95103  0  0  1  0  0  0  0  0999 V2000
  -28.8950  -18.5240   20.8120 C   0  0  0  0  0  3  0  0  0  0  0  0
  -28.4040  -19.8430   20.9290 C   0  0  0  0  0  3  0  0  0  0  0  0
  -30.8810  -19.4040   19.7330 C   0  0  0  0  0  3  0  0  0  0  0  0
  -30.1380  -18.2970   20.1870 C   0  0  0  0  0  0  0  0  0  0  0  0
  -30.3820  -20.7110   19.8010 C   0  0  0  0  0  0  0  0  0  0  0  0
  -29.1130  -20.9520   20.4120 C   0  0  0  0  0  0  0  0  0  0  0  0
  -31.1980  -21.6870   19.2250 N   0  0  0  0  0  0  0  0  0  0  0  0
  -30.7670  -22.5420   18.8980 H   0  0  0  0  0  0  0  0  0  0  0  0
  -31.9960  -21.4060   18.6690 H   0  0  0  0  0  0  0  0  0  0  0  0
  -30.6940  -16.9090   19.8750 C   0  0  0  0  0  3  0  0  0  0  0  0
  -31.1500  -14.7410   20.9600 C   0  0  0  0  0  0  0  0  0  0  0  0
  -30.9270  -12.5200   19.9570 C   0  0  0  0  0  2  0  0  0  0  0  0
  -30.1200  -12.6500   18.6470 C   0  0  0  0  0  2  0  0  0  0  0  0
  -28.6020  -12.6270   18.9160 C   0  0  0  0  0  2  0  0  0  0  0  0
  -28.1560  -13.5080   20.1160 C   0  0  0  0  0  3  0  0  0  0  0  0
  -29.0940  -13.3330   21.3330 C   0  0  0  0  0  2  0  0  0  0  0  0
  -30.4710  -13.5690   20.8790 N   0  0  0  0  0  0  0  0  0  0  0  0
  -32.3650  -14.8290   20.7780 O   0  0  0  0  0  0  0  0  0  0  0  0
  -30.3690  -15.8340   20.8340 N   0  0  0  0  0  0  0  0  0  0  0  0
  -29.3920  -15.6990   21.0410 H   0  0  0  0  0  0  0  0  0  0  0  0
  -25.7100  -14.1650   20.5790 C   0  0  0  0  0  0  0  0  0  0  0  0
  -24.6020  -13.4140   20.8600 C   0  0  0  0  0  0  0  0  0  0  0  0
  -25.0470  -12.0570   20.9100 C   0  0  0  0  0  0  0  0  0  0  0  0
  -26.7600  -13.2660   20.4690 N   0  0  0  0  0  0  0  0  0  0  0  0
  -26.3590  -11.9960   20.7340 N   0  0  0  0  0  0  0  0  0  0  0  0
  -24.2900  -10.8070   21.0560 C   0  0  0  0  0  0  0  0  0  0  0  0
  -24.6260   -9.8490   22.0390 C   0  0  0  0  0  3  0  0  0  0  0  0
  -23.8750   -8.6630   22.1690 C   0  0  0  0  0  3  0  0  0  0  0  0
  -22.7740   -8.4230   21.3100 C   0  0  0  0  0  0  0  0  0  0  0  0
  -22.4630   -9.3660   20.3150 C   0  0  0  0  0  3  0  0  0  0  0  0
  -23.2150  -10.5450   20.1840 C   0  0  0  0  0  3  0  0  0  0  0  0
  -22.0000   -7.2880   21.3460 O   0  0  0  0  0  0  0  0  0  0  0  0
  -21.8340   -6.5680   22.5010 C   0  0  0  0  0  0  0  0  0  0  0  0
  -21.2900   -7.1470   23.6680 C   0  0  0  0  0  3  0  0  0  0  0  0
  -21.0710   -6.3540   24.8120 C   0  0  0  0  0  3  0  0  0  0  0  0
  -21.3860   -4.9820   24.7890 C   0  0  0  0  0  0  0  0  0  0  0  0
  -21.9250   -4.4030   23.6270 C   0  0  0  0  0  3  0  0  0  0  0  0
  -22.1450   -5.1940   22.4860 C   0  0  0  0  0  0  0  0  0  0  0  0
  -22.6450   -4.6280   21.3610 F   0  0  0  0  0  0  0  0  0  0  0  0
  -21.1700   -4.2150   25.8840 F   0  0  0  0  0  0  0  0  0  0  0  0
  -23.1890  -13.9100   20.9840 C   0  0  0  0  0  0  0  0  0  0  0  0
  -22.3760  -13.2470   21.7990 N   0  0  0  0  0  0  0  0  0  0  0  0
  -22.8100  -14.9200   20.3910 O   0  0  0  0  0  0  0  0  0  0  0  0
  -22.6910  -12.4280   22.2990 H   0  0  0  0  0  0  0  0  0  0  0  0
  -21.4270  -13.5640   21.9280 H   0  0  0  0  0  0  0  0  0  0  0  0
  -25.9060  -15.5310   20.3830 N   0  0  0  0  0  0  0  0  0  0  0  0
  -25.1330  -16.1880   20.3910 H   0  0  0  0  0  0  0  0  0  0  0  0
  -26.7750  -15.9540   20.0910 H   0  0  0  0  0  0  0  0  0  0  0  0
  -30.5990  -17.3810   17.2840 C   0  0  0  0  0  1  0  0  0  0  0  0
  -30.2680  -16.4480   18.4570 C   0  0  0  0  0  2  0  0  0  0  0  0
  -28.4800  -22.1750   20.5670 O   0  0  0  0  0  0  0  0  0  0  0  0
  -28.9940  -23.3330   19.9280 C   0  0  0  0  0  2  0  0  0  0  0  0
  -28.2700  -24.5950   20.3770 C   0  0  0  0  0  2  0  0  0  0  0  0
  -28.7180  -25.7800   19.5110 C   0  0  0  0  0  2  0  0  0  0  0  0
  -28.5350  -27.0010   20.2040 O   0  0  0  0  0  0  0  0  0  0  0  0
  -24.6210  -31.9830   23.3180 C   0  0  0  0  0  0  0  0  0  0  0  0
  -27.3050  -27.6130   20.2170 C   0  0  0  0  0  0  0  0  0  0  0  0
  -23.4190  -30.5750   21.6750 C   0  0  0  0  0  3  0  0  0  0  0  0
  -24.8770  -29.0530   20.2480 C   0  0  0  0  0  0  0  0  0  0  0  0
  -25.9330  -30.9730   21.4540 C   0  0  0  0  0  2  0  0  0  0  0  0
  -26.0270  -29.6020   20.8260 C   0  0  0  0  0  0  0  0  0  0  0  0
  -27.2380  -28.8880   20.8100 C   0  0  0  0  0  3  0  0  0  0  0  0
  -26.1300  -27.0520   19.6620 C   0  0  0  0  0  3  0  0  0  0  0  0
  -24.9210  -27.7720   19.6690 C   0  0  0  0  0  3  0  0  0  0  0  0
  -23.6260  -29.9000   20.2930 C   0  0  0  0  0  2  0  0  0  0  0  0
  -24.6770  -31.1940   22.2070 N   0  0  0  0  0  0  0  0  0  0  0  0
  -23.5390  -32.2350   23.8670 O   0  0  0  0  0  0  0  0  0  0  0  0
  -22.7870  -29.5420   22.6360 C   0  0  0  0  0  0  0  0  0  0  0  0
  -21.4700  -29.3200   22.4900 N   0  0  0  0  0  0  0  0  0  0  0  0
  -23.4770  -28.9420   23.4650 O   0  0  0  0  0  0  0  0  0  0  0  0
  -20.9700  -29.8650   21.8000 H   0  0  0  0  0  0  0  0  0  0  0  0
  -18.1280  -28.0360   22.9540 C   0  0  0  0  0  0  0  0  0  0  0  0
  -20.6720  -28.3680   23.2610 C   0  0  0  0  0  3  0  0  0  0  0  0
  -20.8210  -26.9340   22.7040 C   0  0  0  0  0  2  0  0  0  0  0  0
  -19.7450  -26.5690   21.6750 C   0  0  0  0  0  2  0  0  0  0  0  0
  -18.3500  -26.6830   22.2970 C   0  0  0  0  0  2  0  0  0  0  0  0
  -19.2180  -28.8310   23.3940 C   0  0  0  0  0  0  0  0  0  0  0  0
  -18.9570  -30.0930   23.9700 C   0  0  0  0  0  3  0  0  0  0  0  0
  -17.6380  -30.5610   24.1100 C   0  0  0  0  0  3  0  0  0  0  0  0
  -16.5610  -29.7640   23.6840 C   0  0  0  0  0  3  0  0  0  0  0  0
  -16.8070  -28.5030   23.1130 C   0  0  0  0  0  3  0  0  0  0  0  0
  -25.9040  -32.6250   23.9350 C   0  0  0  0  0  3  0  0  0  0  0  0
  -25.5930  -34.0270   24.2450 N   0  0  0  0  0  0  0  0  0  0  0  0
  -25.9270  -35.0680   23.4690 C   0  0  0  0  0  0  0  0  0  0  0  0
  -26.6010  -34.9490   22.4420 O   0  0  0  0  0  0  0  0  0  0  0  0
  -25.0010  -34.1920   25.0440 H   0  0  0  0  0  0  0  0  0  0  0  0
  -24.1920  -36.8450   23.0700 C   0  0  0  0  0  1  0  0  0  0  0  0
  -25.4300  -36.4630   23.8960 C   0  0  0  0  0  3  0  0  0  0  0  0
  -27.5580  -37.3690   24.7200 C   0  0  0  0  0  1  0  0  0  0  0  0
  -26.4620  -37.5160   23.7670 N   0  0  0  0  0  0  0  0  0  0  0  0
  -26.0550  -38.4390   23.8900 H   0  0  0  0  0  0  0  0  0  0  0  0
  -26.4210  -31.8690   25.2200 C   0  0  1  0  0  0  0  0  0  0  0  0
  -25.3290  -31.6370   26.2910 C   0  0  0  0  0  1  0  0  0  0  0  0
  -27.0060  -30.4900   24.8370 C   0  0  0  0  0  1  0  0  0  0  0  0
  -27.5750  -32.6700   25.8700 C   0  0  0  0  0  1  0  0  0  0  0  0
  1  2  1  0
  3  5  2  0
  3  4  1  0
  4  1  2  0
  5  6  1  0
  6 51  1  0
  6  2  2  0
  7  5  1  0
  8  7  1  0
  9  7  1  0
 10 50  1  0
 10  4  1  0
 10 19  1  0
 12 17  1  0
 13 14  1  0
 13 12  1  0
 15 14  1  0
 15 24  1  0
 15 16  1  0
 17 11  1  0
 17 16  1  0
 18 11  2  0
 19 11  1  0
 19 20  1  0
 21 22  2  0
 22 23  1  0
 22 41  1  0
 23 26  1  0
 24 21  1  0
 24 25  1  0
 25 23  2  0
 26 27  1  0
 27 28  2  0
 29 32  1  0
 29 28  1  0
 30 29  2  0
 31 30  1  0
 31 26  2  0
 32 33  1  0
 33 34  1  0
 34 35  2  0
 36 35  1  0
 36 40  1  0
 37 36  2  0
 38 33  2  0
 38 37  1  0
 39 38  1  0
 41 42  1  0
 42 45  1  0
 42 44  1  0
 43 41  2  0
 46 47  1  0
 46 21  1  0
 48 46  1  0
 49 50  1  0
 52 53  1  0
 52 51  1  0
 54 55  1  0
 54 53  1  0
 55 57  1  0
 56 67  2  0
 57 62  1  0
 58 66  1  0
 58 68  1  0
 59 65  1  0
 59 61  1  0
 60 66  1  0
 61 60  1  0
 62 61  2  0
 63 64  1  0
 63 57  2  0
 64 59  2  0
 65 58  1  0
 66 56  1  0
 68 70  2  0
 69 68  1  0
 71 69  1  0
 72 81  2  0
 72 77  1  0
 73 69  1  0
 73 77  1  0
 74 73  1  0
 75 76  1  0
 75 74  1  0
 76 72  1  0
 77 78  2  0
 78 79  1  0
 80 79  2  0
 81 80  1  0
 82 56  1  0
 82 83  1  0
 82 92  1  0
 83 86  1  0
 84 88  1  0
 84 83  1  0
 85 84  2  0
 88 87  1  0
 90 91  1  0
 90 88  1  0
 90 89  1  0
 92 95  1  1
 92 93  1  0
 94 92  1  0
M  ISO  4  11 100  19 100  54 101  55 101
M  END
>  <TORSDO>  (85) 
F 23

>  <SCORE>  (85) 
-11.783

>  <name>  (85) 
84

>  <ligand_id>  (85) 
84

>  <original_smiles>  (85) 
[H]c1c([H])c([H])c2c(c1[H])C([H])([H])C([H])([H])C([H])([H])C2([H])N([H])C(=O)C1([H])N(C(=O)C([H])(N([H])C(=O)C([H])(N([H])C([H])([H])[H])C([H])([H])[H])C(C([H])([H])[H])(C([H])([H])[H])C([H])([H])[H])C([H])([H])c2c([H])c(OC([H])([H])C([H])([H])C([H])([H])Oc3c([H])c([H])c(C([H])(N([H])C(=O)N4C([H])([H])C([H])([H])C([H])([H])C([H])(n5nc(-c6c([H])c([H])c(Oc7c([H])c([H])c(F)c([H])c7F)c([H])c6[H])c(C(=O)N([H])[H])c5N([H])[H])C4([H])[H])C([H])([H])C([H])([H])[H])c([H])c3N([H])[H])c([H])c([H])c2C1([H])[H]

>  <smiles>  (85) 
[H]c1c([H])c([H])c2c(c1[H])C([H])([H])C([H])([H])C([H])([H])C2([H])N([H])C(=O)C1([H])N(C(=O)C([H])(N([H])C(=O)C([H])(N([H])C([H])([H])[H])C([H])([H])[H])C(C([H])([H])[H])(C([H])([H])[H])C([H])([H])[H])C([H])([H])c2c([H])c(OC([H])([H])C([H])([H])C([H])([H])Oc3c([H])c([H])c(C([H])(N([H])C(=O)N4C([H])([H])C([H])([H])C([H])([H])C([H])(n5nc(-c6c([H])c([H])c(Oc7c([H])c([H])c(F)c([H])c7F)c([H])c6[H])c(C(=O)N([H])[H])c5N([H])[H])C4([H])[H])C([H])([H])C([H])([H])[H])c([H])c3N([H])[H])c([H])c([H])c2C1([H])[H]

$$$$
85:0:0
     RDKit          3D

 96105  0  0  1  0  0  0  0  0999 V2000
  -29.2930  -21.2300   18.5260 C   0  0  0  0  0  0  0  0  0  0  0  0
  -29.0500  -22.5980   17.8470 C   0  0  0  0  0  2  0  0  0  0  0  0
  -29.2590  -23.8400   18.7290 C   0  0  0  0  0  2  0  0  0  0  0  0
  -28.9320  -22.3570   20.7080 C   0  0  0  0  0  2  0  0  0  0  0  0
  -28.4190  -23.7110   19.9900 C   0  0  0  0  0  3  0  0  0  0  0  0
  -29.2130  -21.0880   19.8830 N   0  0  0  0  0  0  0  0  0  0  0  0
  -29.5390  -20.2910   17.7620 O   0  0  0  0  0  0  0  0  0  0  0  0
  -30.3990  -19.9040   21.7330 C   0  0  0  0  0  3  0  0  0  0  0  0
  -30.9390  -18.7720   22.3750 C   0  0  0  0  0  3  0  0  0  0  0  0
  -29.4820  -18.4370   20.0360 C   0  0  0  0  0  3  0  0  0  0  0  0
  -29.6680  -19.8050   20.5270 C   0  0  0  0  0  0  0  0  0  0  0  0
  -30.7810  -17.4690   21.8600 C   0  0  0  0  0  0  0  0  0  0  0  0
  -30.0420  -17.2470   20.6680 C   0  0  0  0  0  0  0  0  0  0  0  0
  -30.5500  -14.7340   20.0820 C   0  0  0  0  0  0  0  0  0  0  0  0
  -30.3060  -12.4920   18.9990 C   0  0  0  0  0  2  0  0  0  0  0  0
  -29.3130  -12.6010   17.8210 C   0  0  0  0  0  2  0  0  0  0  0  0
  -27.8610  -12.4260   18.3110 C   0  0  0  0  0  2  0  0  0  0  0  0
  -27.5440  -13.2810   19.5660 C   0  0  0  0  0  3  0  0  0  0  0  0
  -28.6490  -13.1550   20.6350 C   0  0  0  0  0  2  0  0  0  0  0  0
  -29.9160  -13.5170   19.9900 N   0  0  0  0  0  0  0  0  0  0  0  0
  -31.7380  -14.8390   19.7680 O   0  0  0  0  0  0  0  0  0  0  0  0
  -29.7490  -15.8530   20.2510 N   0  0  0  0  0  0  0  0  0  0  0  0
  -28.7660  -15.6410   20.2040 H   0  0  0  0  0  0  0  0  0  0  0  0
  -25.1850  -13.8680   20.3830 C   0  0  0  0  0  0  0  0  0  0  0  0
  -24.1340  -13.0910   20.7870 C   0  0  0  0  0  0  0  0  0  0  0  0
  -24.5970  -11.7410   20.7360 C   0  0  0  0  0  0  0  0  0  0  0  0
  -26.2200  -12.9910   20.1050 N   0  0  0  0  0  0  0  0  0  0  0  0
  -25.8770  -11.7060   20.3810 N   0  0  0  0  0  0  0  0  0  0  0  0
  -23.8800  -10.4770   20.9450 C   0  0  0  0  0  0  0  0  0  0  0  0
  -24.3300   -9.5170   21.8800 C   0  0  0  0  0  3  0  0  0  0  0  0
  -23.6120   -8.3190   22.0770 C   0  0  0  0  0  3  0  0  0  0  0  0
  -22.4290   -8.0710   21.3400 C   0  0  0  0  0  0  0  0  0  0  0  0
  -21.9980   -9.0190   20.3950 C   0  0  0  0  0  3  0  0  0  0  0  0
  -22.7170  -10.2090   20.1960 C   0  0  0  0  0  3  0  0  0  0  0  0
  -21.6800   -6.9240   21.4470 O   0  0  0  0  0  0  0  0  0  0  0  0
  -21.6390   -6.1980   22.6090 C   0  0  0  0  0  0  0  0  0  0  0  0
  -21.1890   -6.7610   23.8230 C   0  0  0  0  0  3  0  0  0  0  0  0
  -21.0960   -5.9600   24.9800 C   0  0  0  0  0  3  0  0  0  0  0  0
  -21.4410   -4.5970   24.9220 C   0  0  0  0  0  0  0  0  0  0  0  0
  -21.8830   -4.0330   23.7120 C   0  0  0  0  0  3  0  0  0  0  0  0
  -21.9780   -4.8310   22.5580 C   0  0  0  0  0  0  0  0  0  0  0  0
  -22.3840   -4.2770   21.3900 F   0  0  0  0  0  0  0  0  0  0  0  0
  -21.3450   -3.8250   26.0300 F   0  0  0  0  0  0  0  0  0  0  0  0
  -22.7450  -13.5650   21.1070 C   0  0  0  0  0  0  0  0  0  0  0  0
  -22.0460  -12.8600   21.9890 N   0  0  0  0  0  0  0  0  0  0  0  0
  -22.2920  -14.5960   20.6130 O   0  0  0  0  0  0  0  0  0  0  0  0
  -22.4270  -12.0250   22.4090 H   0  0  0  0  0  0  0  0  0  0  0  0
  -21.1160  -13.1590   22.2460 H   0  0  0  0  0  0  0  0  0  0  0  0
  -25.3360  -15.2400   20.2020 N   0  0  0  0  0  0  0  0  0  0  0  0
  -24.5640  -15.8840   20.3350 H   0  0  0  0  0  0  0  0  0  0  0  0
  -26.1560  -15.6870   19.8170 H   0  0  0  0  0  0  0  0  0  0  0  0
  -31.3320  -16.4120   22.5860 N   0  0  0  0  0  0  0  0  0  0  0  0
  -32.0070  -16.6590   23.3020 H   0  0  0  0  0  0  0  0  0  0  0  0
  -31.6530  -15.6210   22.0400 H   0  0  0  0  0  0  0  0  0  0  0  0
  -28.3440  -25.0820   20.8520 C   0  0  0  0  0  2  0  0  0  0  0  0
  -28.4000  -26.4550   20.2620 O   0  0  0  0  0  0  0  0  0  0  0  0
  -24.5440  -31.8530   23.2170 C   0  0  0  0  0  0  0  0  0  0  0  0
  -27.2650  -27.2840   20.2630 C   0  0  0  0  0  0  0  0  0  0  0  0
  -23.3910  -30.4370   21.5550 C   0  0  0  0  0  3  0  0  0  0  0  0
  -24.8880  -28.8800   20.1800 C   0  0  0  0  0  0  0  0  0  0  0  0
  -25.9310  -30.7750   21.4260 C   0  0  0  0  0  2  0  0  0  0  0  0
  -26.0400  -29.3890   20.7930 C   0  0  0  0  0  0  0  0  0  0  0  0
  -27.2360  -28.6060   20.8140 C   0  0  0  0  0  3  0  0  0  0  0  0
  -26.0900  -26.8210   19.6400 C   0  0  0  0  0  3  0  0  0  0  0  0
  -24.9160  -27.6020   19.5940 C   0  0  0  0  0  3  0  0  0  0  0  0
  -23.6430  -29.7460   20.1880 C   0  0  0  0  0  2  0  0  0  0  0  0
  -24.6400  -31.0400   22.1240 N   0  0  0  0  0  0  0  0  0  0  0  0
  -23.4470  -32.1260   23.7260 O   0  0  0  0  0  0  0  0  0  0  0  0
  -22.7120  -29.4230   22.5070 C   0  0  0  0  0  0  0  0  0  0  0  0
  -21.3850  -29.2570   22.3680 N   0  0  0  0  0  0  0  0  0  0  0  0
  -23.3790  -28.7890   23.3290 O   0  0  0  0  0  0  0  0  0  0  0  0
  -20.9090  -29.8200   21.6770 H   0  0  0  0  0  0  0  0  0  0  0  0
  -17.9890  -28.1180   22.8700 C   0  0  0  0  0  0  0  0  0  0  0  0
  -20.5520  -28.3210   23.1250 C   0  0  0  0  0  3  0  0  0  0  0  0
  -20.6220  -26.9000   22.5210 C   0  0  0  0  0  2  0  0  0  0  0  0
  -19.5070  -26.6190   21.5080 C   0  0  0  0  0  2  0  0  0  0  0  0
  -18.1320  -26.7800   22.1650 C   0  0  0  0  0  2  0  0  0  0  0  0
  -19.1250  -28.8490   23.3060 C   0  0  0  0  0  0  0  0  0  0  0  0
  -18.9370  -30.1040   23.9250 C   0  0  0  0  0  3  0  0  0  0  0  0
  -17.6420  -30.6280   24.1100 C   0  0  0  0  0  3  0  0  0  0  0  0
  -16.5200  -29.8930   23.6910 C   0  0  0  0  0  3  0  0  0  0  0  0
  -16.6940  -28.6390   23.0770 C   0  0  0  0  0  3  0  0  0  0  0  0
  -25.8070  -32.4980   23.8680 C   0  0  0  0  0  3  0  0  0  0  0  0
  -26.2940  -31.7420   25.1660 C   0  0  1  0  0  0  0  0  0  0  0  0
  -25.1750  -31.5000   26.2050 C   0  0  0  0  0  1  0  0  0  0  0  0
  -26.9000  -30.3670   24.8000 C   0  0  0  0  0  1  0  0  0  0  0  0
  -27.4210  -32.5500   25.8520 C   0  0  0  0  0  1  0  0  0  0  0  0
  -25.4800  -33.8980   24.1820 N   0  0  0  0  0  0  0  0  0  0  0  0
  -25.8150  -34.9480   23.4210 C   0  0  0  0  0  0  0  0  0  0  0  0
  -26.5030  -34.8410   22.4010 O   0  0  0  0  0  0  0  0  0  0  0  0
  -24.8730  -34.0530   24.9730 H   0  0  0  0  0  0  0  0  0  0  0  0
  -24.0850  -36.7270   23.0180 C   0  0  0  0  0  1  0  0  0  0  0  0
  -25.3090  -36.3350   23.8600 C   0  0  0  0  0  3  0  0  0  0  0  0
  -27.4160  -37.2420   24.7360 C   0  0  0  0  0  1  0  0  0  0  0  0
  -26.3370  -37.3950   23.7630 N   0  0  0  0  0  0  0  0  0  0  0  0
  -25.9220  -38.3130   23.8930 H   0  0  0  0  0  0  0  0  0  0  0  0
  1  6  1  0
  2  1  1  0
  2  3  1  0
  3  5  1  0
  5  4  1  0
  5 55  1  0
  6 11  1  0
  6  4  1  0
  7  1  2  0
  8  9  1  0
 10 11  1  0
 10 13  2  0
 11  8  2  0
 12  9  2  0
 12 52  1  0
 13 12  1  0
 14 22  1  0
 15 20  1  0
 16 17  1  0
 16 15  1  0
 18 17  1  0
 18 27  1  0
 18 19  1  0
 20 14  1  0
 20 19  1  0
 21 14  2  0
 22 13  1  0
 23 22  1  0
 24 25  2  0
 25 44  1  0
 26 25  1  0
 26 29  1  0
 27 28  1  0
 27 24  1  0
 28 26  2  0
 29 30  1  0
 30 31  2  0
 32 35  1  0
 32 31  1  0
 33 32  2  0
 34 33  1  0
 34 29  2  0
 35 36  1  0
 36 37  1  0
 37 38  2  0
 39 38  1  0
 39 43  1  0
 40 39  2  0
 41 36  2  0
 41 40  1  0
 42 41  1  0
 44 45  1  0
 45 48  1  0
 45 47  1  0
 46 44  2  0
 49 50  1  0
 49 24  1  0
 51 49  1  0
 52 53  1  0
 54 52  1  0
 56 58  1  0
 56 55  1  0
 57 68  2  0
 58 63  1  0
 59 67  1  0
 59 69  1  0
 60 66  1  0
 60 62  1  0
 61 67  1  0
 62 63  2  0
 62 61  1  0
 64 58  2  0
 65 64  1  0
 65 60  2  0
 66 59  1  0
 67 57  1  0
 69 71  2  0
 70 69  1  0
 72 70  1  0
 73 82  2  0
 73 78  1  0
 74 70  1  0
 74 78  1  0
 75 74  1  0
 76 77  1  0
 76 75  1  0
 77 73  1  0
 78 79  2  0
 79 80  1  0
 81 80  2  0
 82 81  1  0
 83 57  1  0
 83 88  1  0
 83 84  1  0
 84 87  1  1
 84 85  1  0
 86 84  1  0
 88 91  1  0
 89 93  1  0
 89 88  1  0
 90 89  2  0
 93 92  1  0
 95 93  1  0
 95 96  1  0
 95 94  1  0
M  ISO  4  14 100  22 100  55 101  56 101
M  END
>  <TORSDO>  (86) 
F 19

>  <SCORE>  (86) 
-14.219

>  <name>  (86) 
85

>  <ligand_id>  (86) 
85

>  <original_smiles>  (86) 
[H]c1c([H])c([H])c2c(c1[H])C([H])([H])C([H])([H])C([H])([H])C2([H])N([H])C(=O)C1([H])N(C(=O)C([H])(N([H])C(=O)C([H])(N([H])C([H])([H])[H])C([H])([H])[H])C(C([H])([H])[H])(C([H])([H])[H])C([H])([H])[H])C([H])([H])c2c([H])c(OC([H])([H])C3([H])C([H])([H])N(c4c([H])c([H])c(N([H])[H])c(N([H])C(=O)N5C([H])([H])C([H])([H])C([H])([H])C([H])(n6nc(-c7c([H])c([H])c(Oc8c([H])c([H])c(F)c([H])c8F)c([H])c7[H])c(C(=O)N([H])[H])c6N([H])[H])C5([H])[H])c4[H])C(=O)C([H])([H])C3([H])[H])c([H])c([H])c2C1([H])[H]

>  <smiles>  (86) 
[H]c1c([H])c([H])c2c(c1[H])C([H])([H])C([H])([H])C([H])([H])C2([H])N([H])C(=O)C1([H])N(C(=O)C([H])(N([H])C(=O)C([H])(N([H])C([H])([H])[H])C([H])([H])[H])C(C([H])([H])[H])(C([H])([H])[H])C([H])([H])[H])C([H])([H])c2c([H])c(OC([H])([H])C3([H])C([H])([H])N(c4c([H])c([H])c(N([H])[H])c(N([H])C(=O)N5C([H])([H])C([H])([H])C([H])([H])C([H])(n6nc(-c7c([H])c([H])c(Oc8c([H])c([H])c(F)c([H])c8F)c([H])c7[H])c(C(=O)N([H])[H])c6N([H])[H])C5([H])[H])c4[H])C(=O)C([H])([H])C3([H])[H])c([H])c([H])c2C1([H])[H]

$$$$
86:0:0
     RDKit          3D

 96105  0  0  1  0  0  0  0  0999 V2000
  -29.0780  -21.2220   21.0310 C   0  0  0  0  0  2  0  0  0  0  0  0
  -27.0560  -22.3500   18.7820 C   0  0  0  0  0  2  0  0  0  0  0  0
  -26.8370  -23.2160   20.0470 C   0  0  0  0  0  2  0  0  0  0  0  0
  -28.5610  -22.0190   18.7500 C   0  0  0  0  0  2  0  0  0  0  0  0
  -28.2550  -23.6810   20.4510 C   0  0  0  0  0  3  0  0  0  0  0  0
  -29.0910  -22.4320   20.0700 N   0  0  1  0  0  4  0  0  0  0  0  0
  -30.0650  -22.6860   19.9750 H   0  0  0  0  0  0  0  0  0  0  0  0
  -28.6000  -25.1140   19.7280 C   0  0  0  0  0  2  0  0  0  0  0  0
  -28.3810  -26.4880   20.3050 O   0  0  0  0  0  0  0  0  0  0  0  0
  -24.5920  -31.9050   23.2390 C   0  0  0  0  0  0  0  0  0  0  0  0
  -27.2380  -27.3150   20.1900 C   0  0  0  0  0  0  0  0  0  0  0  0
  -23.3920  -30.5000   21.5980 C   0  0  0  0  0  3  0  0  0  0  0  0
  -24.8560  -28.9390   20.1640 C   0  0  0  0  0  0  0  0  0  0  0  0
  -25.9320  -30.8050   21.4300 C   0  0  0  0  0  2  0  0  0  0  0  0
  -26.0170  -29.4270   20.7770 C   0  0  0  0  0  0  0  0  0  0  0  0
  -27.1950  -28.6220   20.7930 C   0  0  0  0  0  3  0  0  0  0  0  0
  -26.0600  -26.9000   19.5230 C   0  0  0  0  0  3  0  0  0  0  0  0
  -24.8840  -27.6880   19.5260 C   0  0  0  0  0  3  0  0  0  0  0  0
  -23.6120  -29.8160   20.2190 C   0  0  0  0  0  2  0  0  0  0  0  0
  -24.6560  -31.0870   22.1490 N   0  0  0  0  0  0  0  0  0  0  0  0
  -23.5100  -32.1870   23.7730 O   0  0  0  0  0  0  0  0  0  0  0  0
  -22.7220  -29.4920   22.5620 C   0  0  0  0  0  0  0  0  0  0  0  0
  -21.3950  -29.3180   22.4390 N   0  0  0  0  0  0  0  0  0  0  0  0
  -23.3970  -28.8660   23.3820 O   0  0  0  0  0  0  0  0  0  0  0  0
  -20.9070  -29.8650   21.7420 H   0  0  0  0  0  0  0  0  0  0  0  0
  -18.0230  -28.1180   22.9590 C   0  0  0  0  0  0  0  0  0  0  0  0
  -20.5810  -28.3810   23.2170 C   0  0  0  0  0  3  0  0  0  0  0  0
  -20.6830  -26.9470   22.6430 C   0  0  0  0  0  2  0  0  0  0  0  0
  -19.5780  -26.6200   21.6340 C   0  0  0  0  0  2  0  0  0  0  0  0
  -18.1970  -26.7690   22.2810 C   0  0  0  0  0  2  0  0  0  0  0  0
  -19.1420  -28.8830   23.3830 C   0  0  0  0  0  0  0  0  0  0  0  0
  -18.9220  -30.1460   23.9700 C   0  0  0  0  0  3  0  0  0  0  0  0
  -17.6180  -30.6480   24.1370 C   0  0  0  0  0  3  0  0  0  0  0  0
  -16.5140  -29.8800   23.7290 C   0  0  0  0  0  3  0  0  0  0  0  0
  -16.7190  -28.6170   23.1450 C   0  0  0  0  0  3  0  0  0  0  0  0
  -25.8740  -32.5420   23.8560 C   0  0  0  0  0  3  0  0  0  0  0  0
  -26.3900  -31.7850   25.1380 C   0  0  1  0  0  0  0  0  0  0  0  0
  -25.2970  -31.5460   26.2060 C   0  0  0  0  0  1  0  0  0  0  0  0
  -26.9800  -30.4070   24.7610 C   0  0  0  0  0  1  0  0  0  0  0  0
  -27.5420  -32.5860   25.7900 C   0  0  0  0  0  1  0  0  0  0  0  0
  -25.5650  -33.9420   24.1800 N   0  0  0  0  0  0  0  0  0  0  0  0
  -25.8980  -34.9940   23.4240 C   0  0  0  0  0  0  0  0  0  0  0  0
  -26.5680  -34.8910   22.3920 O   0  0  0  0  0  0  0  0  0  0  0  0
  -24.9740  -34.1010   24.9850 H   0  0  0  0  0  0  0  0  0  0  0  0
  -24.1710  -36.7920   23.0740 C   0  0  0  0  0  1  0  0  0  0  0  0
  -25.4110  -36.3840   23.8820 C   0  0  0  0  0  3  0  0  0  0  0  0
  -27.5440  -37.2690   24.7130 C   0  0  0  0  0  1  0  0  0  0  0  0
  -26.4440  -37.4360   23.7710 N   0  0  0  0  0  0  0  0  0  0  0  0
  -26.0340  -38.3530   23.9260 H   0  0  0  0  0  0  0  0  0  0  0  0
  -31.3890  -20.1250   20.8190 C   0  0  0  0  0  3  0  0  0  0  0  0
  -29.5230  -18.5560   20.6890 C   0  0  0  0  0  3  0  0  0  0  0  0
  -31.7930  -17.7070   20.7390 C   0  0  0  0  0  3  0  0  0  0  0  0
  -29.9880  -19.9350   20.7820 C   0  0  0  0  0  0  0  0  0  0  0  0
  -32.2780  -19.0270   20.8110 C   0  0  0  0  0  0  0  0  0  0  0  0
  -30.4060  -17.3980   20.6590 C   0  0  0  0  0  0  0  0  0  0  0  0
  -30.6420  -14.7900   20.3450 C   0  0  0  0  0  0  0  0  0  0  0  0
  -30.3630  -12.5260   19.3240 C   0  0  0  0  0  2  0  0  0  0  0  0
  -29.4230  -12.6050   18.1060 C   0  0  0  0  0  2  0  0  0  0  0  0
  -27.9600  -12.4370   18.5370 C   0  0  0  0  0  2  0  0  0  0  0  0
  -27.5940  -13.3150   19.7680 C   0  0  0  0  0  3  0  0  0  0  0  0
  -28.6670  -13.2530   20.8820 C   0  0  0  0  0  2  0  0  0  0  0  0
  -29.9570  -13.5950   20.2690 N   0  0  0  0  0  0  0  0  0  0  0  0
  -31.8150  -14.8170   19.9700 O   0  0  0  0  0  0  0  0  0  0  0  0
  -29.9460  -15.9720   20.6130 N   0  0  0  0  0  0  0  0  0  0  0  0
  -28.9560  -15.8400   20.7700 H   0  0  0  0  0  0  0  0  0  0  0  0
  -25.2120  -13.8840   20.5180 C   0  0  0  0  0  0  0  0  0  0  0  0
  -24.1540  -13.1010   20.8950 C   0  0  0  0  0  0  0  0  0  0  0  0
  -24.6240  -11.7540   20.8540 C   0  0  0  0  0  0  0  0  0  0  0  0
  -26.2590  -13.0130   20.2720 N   0  0  0  0  0  0  0  0  0  0  0  0
  -25.9150  -11.7270   20.5420 N   0  0  0  0  0  0  0  0  0  0  0  0
  -23.9040  -10.4860   21.0410 C   0  0  0  0  0  0  0  0  0  0  0  0
  -24.3520   -9.5190   21.9670 C   0  0  0  0  0  3  0  0  0  0  0  0
  -23.6370   -8.3160   22.1500 C   0  0  0  0  0  3  0  0  0  0  0  0
  -22.4560   -8.0720   21.4080 C   0  0  0  0  0  0  0  0  0  0  0  0
  -22.0280   -9.0260   20.4660 C   0  0  0  0  0  3  0  0  0  0  0  0
  -22.7450  -10.2220   20.2830 C   0  0  0  0  0  3  0  0  0  0  0  0
  -21.7110   -6.9200   21.4980 O   0  0  0  0  0  0  0  0  0  0  0  0
  -21.6730   -6.1720   22.6460 C   0  0  0  0  0  0  0  0  0  0  0  0
  -21.2500   -6.7170   23.8790 C   0  0  0  0  0  3  0  0  0  0  0  0
  -21.1640   -5.8950   25.0190 C   0  0  0  0  0  3  0  0  0  0  0  0
  -21.4890   -4.5280   24.9300 C   0  0  0  0  0  0  0  0  0  0  0  0
  -21.8950   -3.9790   23.7000 C   0  0  0  0  0  3  0  0  0  0  0  0
  -21.9860   -4.8000   22.5610 C   0  0  0  0  0  0  0  0  0  0  0  0
  -22.3600   -4.2630   21.3750 F   0  0  0  0  0  0  0  0  0  0  0  0
  -21.3930   -3.7340   26.0220 F   0  0  0  0  0  0  0  0  0  0  0  0
  -22.7560  -13.5670   21.1820 C   0  0  0  0  0  0  0  0  0  0  0  0
  -22.0450  -12.8510   22.0470 N   0  0  0  0  0  0  0  0  0  0  0  0
  -22.3020  -14.5890   20.6670 O   0  0  0  0  0  0  0  0  0  0  0  0
  -22.4300  -12.0190   22.4740 H   0  0  0  0  0  0  0  0  0  0  0  0
  -21.1040  -13.1300   22.2850 H   0  0  0  0  0  0  0  0  0  0  0  0
  -25.3700  -15.2560   20.3340 N   0  0  0  0  0  0  0  0  0  0  0  0
  -24.6040  -15.9140   20.4370 H   0  0  0  0  0  0  0  0  0  0  0  0
  -26.2060  -15.6900   19.9590 H   0  0  0  0  0  0  0  0  0  0  0  0
  -33.6550  -19.2520   20.9170 N   0  0  0  0  0  0  0  0  0  0  0  0
  -33.9860  -20.1880   21.1240 H   0  0  0  0  0  0  0  0  0  0  0  0
  -34.2340  -18.5420   21.3590 H   0  0  0  0  0  0  0  0  0  0  0  0
  2  3  1  0
  3  5  1  0
  4  2  1  0
  4  6  1  0
  5  8  1  0
  6  5  1  0
  6  1  1  0
  6  7  1  6
  8  9  1  0
 10 21  2  0
 11  9  1  0
 11 16  1  0
 12 20  1  0
 12 22  1  0
 13 19  1  0
 13 15  1  0
 14 20  1  0
 15 16  2  0
 15 14  1  0
 17 18  1  0
 17 11  2  0
 18 13  2  0
 19 12  1  0
 20 10  1  0
 22 24  2  0
 23 22  1  0
 25 23  1  0
 26 35  2  0
 26 31  1  0
 27 23  1  0
 27 31  1  0
 28 27  1  0
 29 30  1  0
 29 28  1  0
 30 26  1  0
 31 32  2  0
 32 33  1  0
 34 33  2  0
 35 34  1  0
 36 10  1  0
 36 41  1  0
 36 37  1  0
 37 40  1  1
 37 38  1  0
 39 37  1  0
 41 44  1  0
 42 46  1  0
 42 41  1  0
 43 42  2  0
 46 45  1  0
 48 46  1  0
 48 49  1  0
 48 47  1  0
 51 53  1  0
 52 54  2  0
 53 50  2  0
 53  1  1  0
 54 50  1  0
 54 94  1  0
 55 51  2  0
 55 52  1  0
 56 64  1  0
 57 62  1  0
 58 59  1  0
 58 57  1  0
 60 59  1  0
 60 69  1  0
 60 61  1  0
 62 56  1  0
 62 61  1  0
 63 56  2  0
 64 55  1  0
 64 65  1  0
 66 67  2  0
 67 86  1  0
 68 67  1  0
 68 71  1  0
 69 66  1  0
 69 70  1  0
 70 68  2  0
 71 72  1  0
 72 73  2  0
 74 77  1  0
 74 73  1  0
 75 74  2  0
 76 75  1  0
 76 71  2  0
 77 78  1  0
 78 79  1  0
 79 80  2  0
 81 80  1  0
 81 85  1  0
 82 81  2  0
 83 78  2  0
 83 82  1  0
 84 83  1  0
 86 87  1  0
 87 90  1  0
 87 89  1  0
 88 86  2  0
 91 92  1  0
 91 66  1  0
 93 91  1  0
 94 95  1  0
 94 96  1  0
M  ISO  4   8 101   9 101  56 100  64 100
M  END
>  <TORSDO>  (87) 
F 20

>  <SCORE>  (87) 
-14.473

>  <name>  (87) 
86

>  <ligand_id>  (87) 
86

>  <original_smiles>  (87) 
[H]c1c([H])c([H])c2c(c1[H])C([H])([H])C([H])([H])C([H])([H])C2([H])N([H])C(=O)C1([H])N(C(=O)C([H])(N([H])C(=O)C([H])(N([H])C([H])([H])[H])C([H])([H])[H])C(C([H])([H])[H])(C([H])([H])[H])C([H])([H])[H])C([H])([H])c2c([H])c(OC([H])([H])C3([H])C([H])([H])C([H])([H])C([H])([H])[N+]3([H])C([H])([H])c3c([H])c(N([H])[H])c([H])c(N([H])C(=O)N4C([H])([H])C([H])([H])C([H])([H])C([H])(n5nc(-c6c([H])c([H])c(Oc7c([H])c([H])c(F)c([H])c7F)c([H])c6[H])c(C(=O)N([H])[H])c5N([H])[H])C4([H])[H])c3[H])c([H])c([H])c2C1([H])[H]

>  <smiles>  (87) 
[H]c1c([H])c([H])c2c(c1[H])C([H])([H])C([H])([H])C([H])([H])C2([H])N([H])C(=O)C1([H])N(C(=O)C([H])(N([H])C(=O)C([H])(N([H])C([H])([H])[H])C([H])([H])[H])C(C([H])([H])[H])(C([H])([H])[H])C([H])([H])[H])C([H])([H])c2c([H])c(OC([H])([H])C3([H])C([H])([H])C([H])([H])C([H])([H])[N+]3([H])C([H])([H])c3c([H])c(N([H])[H])c([H])c(N([H])C(=O)N4C([H])([H])C([H])([H])C([H])([H])C([H])(n5nc(-c6c([H])c([H])c(Oc7c([H])c([H])c(F)c([H])c7F)c([H])c6[H])c(C(=O)N([H])[H])c5N([H])[H])C4([H])[H])c3[H])c([H])c([H])c2C1([H])[H]

$$$$
87:0:0
     RDKit          3D

 93101  0  0  1  0  0  0  0  0999 V2000
  -31.4090  -19.1200   23.1370 C   0  0  0  0  0  3  0  0  0  0  0  0
  -31.0500  -20.4340   22.7840 C   0  0  0  0  0  3  0  0  0  0  0  0
  -31.0180  -18.0190   22.3470 C   0  0  0  0  0  0  0  0  0  0  0  0
  -30.2210  -18.2360   21.1870 C   0  0  0  0  0  0  0  0  0  0  0  0
  -30.2780  -20.6790   21.6260 C   0  0  0  0  0  0  0  0  0  0  0  0
  -29.8600  -19.5710   20.8510 C   0  0  0  0  0  0  0  0  0  0  0  0
  -31.5160  -16.6460   22.7700 C   0  0  0  0  0  1  0  0  0  0  0  0
  -29.1260  -19.8060   19.7360 F   0  0  0  0  0  0  0  0  0  0  0  0
  -29.8150  -17.1270   20.1980 C   0  0  0  0  0  2  0  0  0  0  0  0
  -30.4480  -14.7250   20.1480 C   0  0  0  0  0  0  0  0  0  0  0  0
  -30.1460  -12.6080   18.9430 C   0  0  0  0  0  2  0  0  0  0  0  0
  -29.1380  -12.8630   17.8030 C   0  0  0  0  0  2  0  0  0  0  0  0
  -27.6940  -12.6550   18.3020 C   0  0  0  0  0  2  0  0  0  0  0  0
  -27.4040  -13.4100   19.6270 C   0  0  0  0  0  3  0  0  0  0  0  0
  -28.5270  -13.1730   20.6650 C   0  0  0  0  0  2  0  0  0  0  0  0
  -29.8120  -13.5280   20.0400 N   0  0  0  0  0  0  0  0  0  0  0  0
  -31.5400  -14.9520   19.6220 O   0  0  0  0  0  0  0  0  0  0  0  0
  -29.7080  -15.7280   20.6540 N   0  0  0  0  0  0  0  0  0  0  0  0
  -28.8340  -15.4630   21.0790 H   0  0  0  0  0  0  0  0  0  0  0  0
  -25.0160  -13.8910   20.4560 C   0  0  0  0  0  0  0  0  0  0  0  0
  -24.0060  -13.0630   20.8650 C   0  0  0  0  0  0  0  0  0  0  0  0
  -24.5300  -11.7350   20.7920 C   0  0  0  0  0  0  0  0  0  0  0  0
  -26.0900  -13.0640   20.1650 N   0  0  0  0  0  0  0  0  0  0  0  0
  -25.8040  -11.7630   20.4220 N   0  0  0  0  0  0  0  0  0  0  0  0
  -23.8760  -10.4360   20.9990 C   0  0  0  0  0  0  0  0  0  0  0  0
  -24.3580   -9.5110   21.9510 C   0  0  0  0  0  3  0  0  0  0  0  0
  -23.7010   -8.2760   22.1440 C   0  0  0  0  0  3  0  0  0  0  0  0
  -22.5500   -7.9580   21.3840 C   0  0  0  0  0  0  0  0  0  0  0  0
  -22.0900   -8.8720   20.4210 C   0  0  0  0  0  3  0  0  0  0  0  0
  -22.7460  -10.0990   20.2260 C   0  0  0  0  0  3  0  0  0  0  0  0
  -21.8640   -6.7730   21.4860 O   0  0  0  0  0  0  0  0  0  0  0  0
  -21.7990   -6.0760   22.6670 C   0  0  0  0  0  0  0  0  0  0  0  0
  -21.2710   -6.6510   23.8430 C   0  0  0  0  0  3  0  0  0  0  0  0
  -21.1600   -5.8780   25.0160 C   0  0  0  0  0  3  0  0  0  0  0  0
  -21.5650   -4.5290   25.0120 C   0  0  0  0  0  0  0  0  0  0  0  0
  -22.0840   -3.9540   23.8390 C   0  0  0  0  0  3  0  0  0  0  0  0
  -22.1980   -4.7250   22.6680 C   0  0  0  0  0  0  0  0  0  0  0  0
  -22.6790   -4.1580   21.5360 F   0  0  0  0  0  0  0  0  0  0  0  0
  -21.4500   -3.7840   26.1350 F   0  0  0  0  0  0  0  0  0  0  0  0
  -22.6020  -13.4660   21.2110 C   0  0  0  0  0  0  0  0  0  0  0  0
  -21.9500  -12.7220   22.0980 N   0  0  0  0  0  0  0  0  0  0  0  0
  -22.0900  -14.4770   20.7300 O   0  0  0  0  0  0  0  0  0  0  0  0
  -22.3770  -11.9050   22.5090 H   0  0  0  0  0  0  0  0  0  0  0  0
  -21.0100  -12.9730   22.3700 H   0  0  0  0  0  0  0  0  0  0  0  0
  -25.1050  -15.2690   20.2890 N   0  0  0  0  0  0  0  0  0  0  0  0
  -24.3100  -15.8830   20.4370 H   0  0  0  0  0  0  0  0  0  0  0  0
  -25.9130  -15.7530   19.9160 H   0  0  0  0  0  0  0  0  0  0  0  0
  -29.9150  -21.9540   21.2170 O   0  0  0  0  0  0  0  0  0  0  0  0
  -30.8170  -23.0180   21.5370 C   0  0  0  0  0  2  0  0  0  0  0  0
  -30.4100  -24.3730   20.9080 C   0  0  0  0  0  2  0  0  0  0  0  0
  -29.3010  -25.1300   21.6730 C   0  0  0  0  0  2  0  0  0  0  0  0
  -29.2130  -26.6460   21.3710 C   0  0  0  0  0  2  0  0  0  0  0  0
  -28.6180  -26.9070   20.0980 O   0  0  0  0  0  0  0  0  0  0  0  0
  -24.6540  -31.9570   23.2340 C   0  0  0  0  0  0  0  0  0  0  0  0
  -27.4590  -27.6500   20.1220 C   0  0  0  0  0  0  0  0  0  0  0  0
  -23.5040  -30.5500   21.5520 C   0  0  0  0  0  3  0  0  0  0  0  0
  -25.0200  -29.0760   20.1210 C   0  0  0  0  0  0  0  0  0  0  0  0
  -26.0190  -30.9840   21.3910 C   0  0  0  0  0  2  0  0  0  0  0  0
  -26.1520  -29.6250   20.7360 C   0  0  0  0  0  0  0  0  0  0  0  0
  -27.3730  -28.9190   20.7410 C   0  0  0  0  0  3  0  0  0  0  0  0
  -26.3180  -27.1180   19.4900 C   0  0  0  0  0  3  0  0  0  0  0  0
  -25.0970  -27.8180   19.4950 C   0  0  0  0  0  3  0  0  0  0  0  0
  -23.7480  -29.8940   20.1660 C   0  0  0  0  0  2  0  0  0  0  0  0
  -24.7420  -31.1780   22.1180 N   0  0  0  0  0  0  0  0  0  0  0  0
  -23.5610  -32.1920   23.7670 O   0  0  0  0  0  0  0  0  0  0  0  0
  -22.8700  -29.4980   22.4890 C   0  0  0  0  0  0  0  0  0  0  0  0
  -21.5490  -29.2970   22.3550 N   0  0  0  0  0  0  0  0  0  0  0  0
  -23.5620  -28.8660   23.2920 O   0  0  0  0  0  0  0  0  0  0  0  0
  -21.0510  -29.8620   21.6820 H   0  0  0  0  0  0  0  0  0  0  0  0
  -18.1890  -28.0580   22.8330 C   0  0  0  0  0  0  0  0  0  0  0  0
  -20.7450  -28.3290   23.1010 C   0  0  0  0  0  3  0  0  0  0  0  0
  -20.8570  -26.9180   22.4800 C   0  0  0  0  0  2  0  0  0  0  0  0
  -19.7540  -26.6170   21.4620 C   0  0  0  0  0  2  0  0  0  0  0  0
  -18.3730  -26.7310   22.1170 C   0  0  0  0  0  2  0  0  0  0  0  0
  -19.3030  -28.8160   23.2820 C   0  0  0  0  0  0  0  0  0  0  0  0
  -19.0780  -30.0600   23.9110 C   0  0  0  0  0  3  0  0  0  0  0  0
  -17.7700  -30.5460   24.0960 C   0  0  0  0  0  3  0  0  0  0  0  0
  -16.6700  -29.7850   23.6660 C   0  0  0  0  0  3  0  0  0  0  0  0
  -16.8800  -28.5430   23.0390 C   0  0  0  0  0  3  0  0  0  0  0  0
  -25.9180  -32.6090   23.8780 C   0  0  0  0  0  3  0  0  0  0  0  0
  -25.5830  -34.0040   24.1950 N   0  0  0  0  0  0  0  0  0  0  0  0
  -25.9180  -35.0560   23.4370 C   0  0  0  0  0  0  0  0  0  0  0  0
  -26.6130  -34.9570   22.4210 O   0  0  0  0  0  0  0  0  0  0  0  0
  -24.9680  -34.1540   24.9810 H   0  0  0  0  0  0  0  0  0  0  0  0
  -24.1710  -36.8190   23.0350 C   0  0  0  0  0  1  0  0  0  0  0  0
  -25.4000  -36.4400   23.8760 C   0  0  0  0  0  3  0  0  0  0  0  0
  -27.5030  -37.3610   24.7470 C   0  0  0  0  0  1  0  0  0  0  0  0
  -26.4190  -37.5070   23.7790 N   0  0  0  0  0  0  0  0  0  0  0  0
  -25.9960  -38.4220   23.9130 H   0  0  0  0  0  0  0  0  0  0  0  0
  -26.4220  -31.8490   25.1670 C   0  0  1  0  0  0  0  0  0  0  0  0
  -25.3080  -31.5840   26.2070 C   0  0  0  0  0  1  0  0  0  0  0  0
  -27.0490  -30.4870   24.7870 C   0  0  0  0  0  1  0  0  0  0  0  0
  -27.5330  -32.6720   25.8600 C   0  0  0  0  0  1  0  0  0  0  0  0
  2  1  1  0
  3  7  1  0
  3  1  2  0
  4  3  1  0
  5  2  2  0
  6  4  2  0
  6  5  1  0
  8  6  1  0
  9 18  1  0
  9  4  1  0
 10 18  1  0
 11 16  1  0
 12 13  1  0
 12 11  1  0
 14 13  1  0
 14 23  1  0
 14 15  1  0
 16 10  1  0
 16 15  1  0
 17 10  2  0
 18 19  1  0
 20 21  2  0
 21 40  1  0
 22 21  1  0
 22 25  1  0
 23 24  1  0
 23 20  1  0
 24 22  2  0
 25 26  1  0
 26 27  2  0
 28 31  1  0
 28 27  1  0
 29 28  2  0
 30 29  1  0
 30 25  2  0
 31 32  1  0
 32 37  2  0
 32 33  1  0
 33 34  2  0
 35 34  1  0
 35 39  1  0
 36 35  2  0
 37 36  1  0
 38 37  1  0
 40 41  1  0
 41 44  1  0
 41 43  1  0
 42 40  2  0
 45 46  1  0
 45 20  1  0
 47 45  1  0
 48 49  1  0
 48  5  1  0
 50 49  1  0
 50 51  1  0
 52 51  1  0
 53 55  1  0
 53 52  1  0
 54 65  2  0
 55 60  1  0
 56 64  1  0
 56 66  1  0
 57 63  1  0
 57 59  1  0
 58 64  1  0
 59 60  2  0
 59 58  1  0
 61 62  1  0
 61 55  2  0
 62 57  2  0
 63 56  1  0
 64 54  1  0
 66 68  2  0
 67 66  1  0
 69 67  1  0
 70 79  2  0
 70 75  1  0
 71 67  1  0
 71 75  1  0
 72 71  1  0
 73 74  1  0
 73 72  1  0
 74 70  1  0
 75 76  2  0
 76 77  1  0
 78 77  2  0
 79 78  1  0
 80 54  1  0
 80 81  1  0
 80 90  1  0
 81 84  1  0
 82 86  1  0
 82 81  1  0
 83 82  2  0
 86 85  1  0
 88 86  1  0
 88 89  1  0
 88 87  1  0
 90 93  1  1
 90 91  1  0
 92 90  1  0
M  ISO  4  10 100  18 100  52 101  53 101
M  END
>  <TORSDO>  (88) 
F 22

>  <SCORE>  (88) 
-12.033

>  <name>  (88) 
87

>  <ligand_id>  (88) 
87

>  <original_smiles>  (88) 
[H]c1c([H])c([H])c2c(c1[H])C([H])([H])C([H])([H])C([H])([H])C2([H])N([H])C(=O)C1([H])N(C(=O)C([H])(N([H])C(=O)C([H])(N([H])C([H])([H])[H])C([H])([H])[H])C(C([H])([H])[H])(C([H])([H])[H])C([H])([H])[H])C([H])([H])c2c([H])c(OC([H])([H])C([H])([H])C([H])([H])C([H])([H])Oc3c([H])c([H])c(C([H])([H])[H])c(C([H])([H])N([H])C(=O)N4C([H])([H])C([H])([H])C([H])([H])C([H])(n5nc(-c6c([H])c([H])c(Oc7c([H])c([H])c(F)c([H])c7F)c([H])c6[H])c(C(=O)N([H])[H])c5N([H])[H])C4([H])[H])c3F)c([H])c([H])c2C1([H])[H]

>  <smiles>  (88) 
[H]c1c([H])c([H])c2c(c1[H])C([H])([H])C([H])([H])C([H])([H])C2([H])N([H])C(=O)C1([H])N(C(=O)C([H])(N([H])C(=O)C([H])(N([H])C([H])([H])[H])C([H])([H])[H])C(C([H])([H])[H])(C([H])([H])[H])C([H])([H])[H])C([H])([H])c2c([H])c(OC([H])([H])C([H])([H])C([H])([H])C([H])([H])Oc3c([H])c([H])c(C([H])([H])[H])c(C([H])([H])N([H])C(=O)N4C([H])([H])C([H])([H])C([H])([H])C([H])(n5nc(-c6c([H])c([H])c(Oc7c([H])c([H])c(F)c([H])c7F)c([H])c6[H])c(C(=O)N([H])[H])c5N([H])[H])C4([H])[H])c3F)c([H])c([H])c2C1([H])[H]

$$$$
88:0:0
     RDKit          3D

 92100  0  0  1  0  0  0  0  0999 V2000
  -30.7720  -19.6280   20.8810 C   0  0  0  0  0  3  0  0  0  0  0  0
  -30.2630  -20.9470   20.7170 C   0  0  0  0  0  3  0  0  0  0  0  0
  -28.1220  -20.0010   20.1850 C   0  0  0  0  0  3  0  0  0  0  0  0
  -29.9860  -18.4460   20.7070 C   0  0  0  0  0  0  0  0  0  0  0  0
  -28.9160  -21.1740   20.3600 C   0  0  0  0  0  0  0  0  0  0  0  0
  -28.6310  -18.6720   20.3530 C   0  0  0  0  0  0  0  0  0  0  0  0
  -27.8000  -17.6150   20.1650 F   0  0  0  0  0  0  0  0  0  0  0  0
  -30.6760  -14.6630   20.4070 C   0  0  0  0  0  0  0  0  0  0  0  0
  -30.3420  -12.4360   19.3530 C   0  0  0  0  0  2  0  0  0  0  0  0
  -29.4030  -12.5420   18.1360 C   0  0  0  0  0  2  0  0  0  0  0  0
  -27.9370  -12.3910   18.5830 C   0  0  0  0  0  2  0  0  0  0  0  0
  -27.5850  -13.2840   19.8040 C   0  0  0  0  0  3  0  0  0  0  0  0
  -28.6550  -13.1990   20.9150 C   0  0  0  0  0  2  0  0  0  0  0  0
  -29.9500  -13.5030   20.2970 N   0  0  0  0  0  0  0  0  0  0  0  0
  -31.8620  -14.6510   20.0680 O   0  0  0  0  0  0  0  0  0  0  0  0
  -30.6420  -17.0590   20.9220 C   0  0  0  0  0  0  0  0  0  0  0  0
  -30.0270  -15.8550   20.6500 N   0  0  0  0  0  0  0  0  0  0  0  0
  -31.7990  -17.0880   21.3630 O   0  0  0  0  0  0  0  0  0  0  0  0
  -29.0240  -15.8750   20.5600 H   0  0  0  0  0  0  0  0  0  0  0  0
  -25.2100  -13.8800   20.5640 C   0  0  0  0  0  0  0  0  0  0  0  0
  -24.1420  -13.1070   20.9340 C   0  0  0  0  0  0  0  0  0  0  0  0
  -24.5990  -11.7530   20.8870 C   0  0  0  0  0  0  0  0  0  0  0  0
  -26.2460  -12.9980   20.3090 N   0  0  0  0  0  0  0  0  0  0  0  0
  -25.8860  -11.7130   20.5680 N   0  0  0  0  0  0  0  0  0  0  0  0
  -23.8670  -10.4920   21.0710 C   0  0  0  0  0  0  0  0  0  0  0  0
  -24.3040   -9.5120   21.9890 C   0  0  0  0  0  3  0  0  0  0  0  0
  -23.5730   -8.3170   22.1630 C   0  0  0  0  0  3  0  0  0  0  0  0
  -22.3900   -8.0940   21.4170 C   0  0  0  0  0  0  0  0  0  0  0  0
  -21.9720   -9.0620   20.4880 C   0  0  0  0  0  3  0  0  0  0  0  0
  -22.7040  -10.2480   20.3130 C   0  0  0  0  0  3  0  0  0  0  0  0
  -21.6290   -6.9530   21.5010 O   0  0  0  0  0  0  0  0  0  0  0  0
  -21.5880   -6.1980   22.6460 C   0  0  0  0  0  0  0  0  0  0  0  0
  -21.1570   -6.7360   23.8780 C   0  0  0  0  0  3  0  0  0  0  0  0
  -21.0630   -5.9080   25.0140 C   0  0  0  0  0  3  0  0  0  0  0  0
  -21.3880   -4.5420   24.9200 C   0  0  0  0  0  0  0  0  0  0  0  0
  -21.8120   -4.0030   23.6910 C   0  0  0  0  0  3  0  0  0  0  0  0
  -21.9080   -4.8290   22.5580 C   0  0  0  0  0  0  0  0  0  0  0  0
  -22.2960   -4.2990   21.3730 F   0  0  0  0  0  0  0  0  0  0  0  0
  -21.2910   -3.7440   26.0080 F   0  0  0  0  0  0  0  0  0  0  0  0
  -22.7490  -13.5880   21.2200 C   0  0  0  0  0  0  0  0  0  0  0  0
  -22.0240  -12.8860   22.0830 N   0  0  0  0  0  0  0  0  0  0  0  0
  -22.3140  -14.6210   20.7130 O   0  0  0  0  0  0  0  0  0  0  0  0
  -22.3900  -12.0500   22.5150 H   0  0  0  0  0  0  0  0  0  0  0  0
  -21.0890  -13.1880   22.3150 H   0  0  0  0  0  0  0  0  0  0  0  0
  -25.3780  -15.2520   20.4010 N   0  0  0  0  0  0  0  0  0  0  0  0
  -24.6180  -15.9080   20.5440 H   0  0  0  0  0  0  0  0  0  0  0  0
  -26.2340  -15.7050   20.1050 H   0  0  0  0  0  0  0  0  0  0  0  0
  -28.3480  -22.4780   20.1680 N   0  0  0  0  0  0  0  0  0  0  0  0
  -27.3780  -22.5030   19.8630 H   0  0  0  0  0  0  0  0  0  0  0  0
  -28.9580  -23.8260   20.4210 C   0  0  0  0  0  2  0  0  0  0  0  0
  -27.9920  -25.0300   20.0280 C   0  0  0  0  0  2  0  0  0  0  0  0
  -28.2850  -26.4640   20.2900 O   0  0  0  0  0  0  0  0  0  0  0  0
  -24.6030  -31.9280   23.2630 C   0  0  0  0  0  0  0  0  0  0  0  0
  -27.1920  -27.3500   20.2160 C   0  0  0  0  0  0  0  0  0  0  0  0
  -23.3980  -30.5360   21.6200 C   0  0  0  0  0  3  0  0  0  0  0  0
  -24.8440  -28.9870   20.1970 C   0  0  0  0  0  0  0  0  0  0  0  0
  -25.9420  -30.8390   21.4490 C   0  0  0  0  0  2  0  0  0  0  0  0
  -26.0150  -29.4620   20.8010 C   0  0  0  0  0  0  0  0  0  0  0  0
  -27.1940  -28.6540   20.8040 C   0  0  0  0  0  3  0  0  0  0  0  0
  -25.9970  -26.9450   19.5740 C   0  0  0  0  0  3  0  0  0  0  0  0
  -24.8370  -27.7330   19.5760 C   0  0  0  0  0  3  0  0  0  0  0  0
  -23.6130  -29.8660   20.2410 C   0  0  0  0  0  2  0  0  0  0  0  0
  -24.6670  -31.1190   22.1670 N   0  0  0  0  0  0  0  0  0  0  0  0
  -23.5190  -32.2110   23.7930 O   0  0  0  0  0  0  0  0  0  0  0  0
  -22.7280  -29.5210   22.5770 C   0  0  0  0  0  0  0  0  0  0  0  0
  -21.4010  -29.3510   22.4460 N   0  0  0  0  0  0  0  0  0  0  0  0
  -23.4000  -28.8900   23.3960 O   0  0  0  0  0  0  0  0  0  0  0  0
  -20.9160  -29.9110   21.7590 H   0  0  0  0  0  0  0  0  0  0  0  0
  -18.0110  -28.1940   22.9530 C   0  0  0  0  0  0  0  0  0  0  0  0
  -20.5730  -28.4210   23.2170 C   0  0  0  0  0  3  0  0  0  0  0  0
  -20.6580  -26.9900   22.6370 C   0  0  0  0  0  2  0  0  0  0  0  0
  -19.5490  -26.6830   21.6250 C   0  0  0  0  0  2  0  0  0  0  0  0
  -18.1700  -26.8440   22.2730 C   0  0  0  0  0  2  0  0  0  0  0  0
  -19.1400  -28.9400   23.3820 C   0  0  0  0  0  0  0  0  0  0  0  0
  -18.9370  -30.2040   23.9780 C   0  0  0  0  0  3  0  0  0  0  0  0
  -17.6390  -30.7210   24.1500 C   0  0  0  0  0  3  0  0  0  0  0  0
  -16.5250  -29.9710   23.7380 C   0  0  0  0  0  3  0  0  0  0  0  0
  -16.7120  -28.7090   23.1440 C   0  0  0  0  0  3  0  0  0  0  0  0
  -25.8860  -32.5550   23.8880 C   0  0  0  0  0  3  0  0  0  0  0  0
  -26.3940  -31.7830   25.1670 C   0  0  1  0  0  0  0  0  0  0  0  0
  -25.2950  -31.5480   26.2290 C   0  0  0  0  0  1  0  0  0  0  0  0
  -26.9770  -30.4040   24.7790 C   0  0  0  0  0  1  0  0  0  0  0  0
  -27.5430  -32.5740   25.8340 C   0  0  0  0  0  1  0  0  0  0  0  0
  -25.5810  -33.9550   24.2160 N   0  0  0  0  0  0  0  0  0  0  0  0
  -25.9010  -35.0050   23.4480 C   0  0  0  0  0  0  0  0  0  0  0  0
  -26.5540  -34.8970   22.4070 O   0  0  0  0  0  0  0  0  0  0  0  0
  -24.9990  -34.1120   25.0260 H   0  0  0  0  0  0  0  0  0  0  0  0
  -24.1640  -36.7950   23.1180 C   0  0  0  0  0  1  0  0  0  0  0  0
  -25.4210  -36.3950   23.9080 C   0  0  0  0  0  3  0  0  0  0  0  0
  -27.5660  -37.2910   24.6980 C   0  0  0  0  0  1  0  0  0  0  0  0
  -26.4500  -37.4490   23.7710 N   0  0  0  0  0  0  0  0  0  0  0  0
  -26.0430  -38.3690   23.9160 H   0  0  0  0  0  0  0  0  0  0  0  0
  2  1  1  0
  3  6  2  0
  3  5  1  0
  4  1  2  0
  4 16  1  0
  5  2  2  0
  6  4  1  0
  7  6  1  0
  8 17  1  0
  9 14  1  0
 10 11  1  0
 10  9  1  0
 12 11  1  0
 12 23  1  0
 12 13  1  0
 14  8  1  0
 14 13  1  0
 15  8  2  0
 16 18  2  0
 17 16  1  0
 19 17  1  0
 20 21  2  0
 21 40  1  0
 22 21  1  0
 22 25  1  0
 23 20  1  0
 23 24  1  0
 24 22  2  0
 25 26  1  0
 26 27  2  0
 28 31  1  0
 28 27  1  0
 29 28  2  0
 30 29  1  0
 30 25  2  0
 31 32  1  0
 32 33  1  0
 33 34  2  0
 35 34  1  0
 35 39  1  0
 36 35  2  0
 37 32  2  0
 37 36  1  0
 38 37  1  0
 40 41  1  0
 41 44  1  0
 41 43  1  0
 42 40  2  0
 45 46  1  0
 45 20  1  0
 47 45  1  0
 48  5  1  0
 48 50  1  0
 49 48  1  0
 51 52  1  0
 51 50  1  0
 53 64  2  0
 54 52  1  0
 54 59  1  0
 55 63  1  0
 55 65  1  0
 56 62  1  0
 56 58  1  0
 57 63  1  0
 58 59  2  0
 58 57  1  0
 60 61  1  0
 60 54  2  0
 61 56  2  0
 62 55  1  0
 63 53  1  0
 65 67  2  0
 66 65  1  0
 68 66  1  0
 69 78  2  0
 69 74  1  0
 70 66  1  0
 70 74  1  0
 71 70  1  0
 72 73  1  0
 72 71  1  0
 73 69  1  0
 74 75  2  0
 75 76  1  0
 77 76  2  0
 78 77  1  0
 79 53  1  0
 79 84  1  0
 79 80  1  0
 80 83  1  1
 80 81  1  0
 82 80  1  0
 84 87  1  0
 85 89  1  0
 85 84  1  0
 86 85  2  0
 89 88  1  0
 91 89  1  0
 91 92  1  0
 91 90  1  0
M  ISO  4   8 100  17 100  51 101  52 101
M  END
>  <TORSDO>  (89) 
F 19

>  <SCORE>  (89) 
-14.548

>  <name>  (89) 
88

>  <ligand_id>  (89) 
88

>  <original_smiles>  (89) 
[H]c1c([H])c([H])c2c(c1[H])C([H])([H])C([H])([H])C([H])([H])C2([H])N([H])C(=O)C1([H])N(C(=O)C([H])(N([H])C(=O)C([H])(N([H])C([H])([H])[H])C([H])([H])[H])C(C([H])([H])[H])(C([H])([H])[H])C([H])([H])[H])C([H])([H])c2c([H])c(OC([H])([H])C([H])([H])N([H])c3c([H])c([H])c(C(=O)N([H])C(=O)N4C([H])([H])C([H])([H])C([H])([H])C([H])(n5nc(-c6c([H])c([H])c(Oc7c([H])c([H])c(F)c([H])c7F)c([H])c6[H])c(C(=O)N([H])[H])c5N([H])[H])C4([H])[H])c(F)c3[H])c([H])c([H])c2C1([H])[H]

>  <smiles>  (89) 
[H]c1c([H])c([H])c2c(c1[H])C([H])([H])C([H])([H])C([H])([H])C2([H])N([H])C(=O)C1([H])N(C(=O)C([H])(N([H])C(=O)C([H])(N([H])C([H])([H])[H])C([H])([H])[H])C(C([H])([H])[H])(C([H])([H])[H])C([H])([H])[H])C([H])([H])c2c([H])c(OC([H])([H])C([H])([H])N([H])c3c([H])c([H])c(C(=O)N([H])C(=O)N4C([H])([H])C([H])([H])C([H])([H])C([H])(n5nc(-c6c([H])c([H])c(Oc7c([H])c([H])c(F)c([H])c7F)c([H])c6[H])c(C(=O)N([H])[H])c5N([H])[H])C4([H])[H])c(F)c3[H])c([H])c([H])c2C1([H])[H]

$$$$
89:0:0
     RDKit          3D

 94103  0  0  1  0  0  0  0  0999 V2000
  -27.4990  -24.0830   22.3330 C   0  0  0  0  0  0  0  0  0  0  0  0
  -26.9000  -22.8210   21.7120 C   0  0  0  0  0  2  0  0  0  0  0  0
  -28.9710  -24.3560   22.0170 C   0  0  0  0  0  2  0  0  0  0  0  0
  -27.3310  -22.6230   20.2430 C   0  0  0  0  0  2  0  0  0  0  0  0
  -29.2670  -24.1680   20.5120 C   0  0  0  0  0  3  0  0  0  0  0  0
  -28.7830  -22.8030   20.0620 N   0  0  0  0  0  0  0  0  0  0  0  0
  -26.8350  -24.8310   23.0530 O   0  0  0  0  0  0  0  0  0  0  0  0
  -29.5140  -19.0670   19.7690 C   0  0  0  0  0  3  0  0  0  0  0  0
  -30.9780  -19.9810   21.4390 C   0  0  0  0  0  3  0  0  0  0  0  0
  -29.0250  -20.3830   19.5180 C   0  0  0  0  0  3  0  0  0  0  0  0
  -30.4790  -21.2960   21.1940 C   0  0  0  0  0  3  0  0  0  0  0  0
  -30.4940  -18.8290   20.7570 C   0  0  0  0  0  0  0  0  0  0  0  0
  -29.4510  -21.5350   20.2460 C   0  0  0  0  0  0  0  0  0  0  0  0
  -31.1180  -17.4270   21.0740 C   0  0  0  0  0  2  0  0  0  0  0  0
  -31.0460  -14.9680   20.4670 C   0  0  0  0  0  0  0  0  0  0  0  0
  -30.7310  -12.7510   19.4070 C   0  0  0  0  0  2  0  0  0  0  0  0
  -29.8300  -12.8700   18.1650 C   0  0  0  0  0  2  0  0  0  0  0  0
  -28.3490  -12.7320   18.5590 C   0  0  0  0  0  2  0  0  0  0  0  0
  -27.9640  -13.6200   19.7730 C   0  0  0  0  0  3  0  0  0  0  0  0
  -28.9970  -13.5230   20.9180 C   0  0  0  0  0  2  0  0  0  0  0  0
  -30.3240  -13.8100   20.3510 N   0  0  0  0  0  0  0  0  0  0  0  0
  -32.2320  -15.0050   20.1330 O   0  0  0  0  0  0  0  0  0  0  0  0
  -30.4080  -16.1310   20.8020 N   0  0  0  0  0  0  0  0  0  0  0  0
  -29.4170  -16.0930   20.9820 H   0  0  0  0  0  0  0  0  0  0  0  0
  -25.5730  -14.2330   20.4740 C   0  0  0  0  0  0  0  0  0  0  0  0
  -24.4850  -13.4690   20.7960 C   0  0  0  0  0  0  0  0  0  0  0  0
  -24.9260  -12.1100   20.7340 C   0  0  0  0  0  0  0  0  0  0  0  0
  -26.6060  -13.3420   20.2320 N   0  0  0  0  0  0  0  0  0  0  0  0
  -26.2200  -12.0580   20.4510 N   0  0  0  0  0  0  0  0  0  0  0  0
  -24.1730  -10.8570   20.8740 C   0  0  0  0  0  0  0  0  0  0  0  0
  -24.5400   -9.8750   21.8210 C   0  0  0  0  0  3  0  0  0  0  0  0
  -23.7890   -8.6860   21.9500 C   0  0  0  0  0  3  0  0  0  0  0  0
  -22.6560   -8.4700   21.1300 C   0  0  0  0  0  0  0  0  0  0  0  0
  -22.3070   -9.4410   20.1720 C   0  0  0  0  0  3  0  0  0  0  0  0
  -23.0590  -10.6210   20.0420 C   0  0  0  0  0  3  0  0  0  0  0  0
  -21.8830   -7.3340   21.1640 O   0  0  0  0  0  0  0  0  0  0  0  0
  -21.7240   -6.6060   22.3160 C   0  0  0  0  0  0  0  0  0  0  0  0
  -21.1650   -7.1740   23.4840 C   0  0  0  0  0  3  0  0  0  0  0  0
  -20.9560   -6.3720   24.6230 C   0  0  0  0  0  3  0  0  0  0  0  0
  -21.2910   -5.0060   24.5960 C   0  0  0  0  0  0  0  0  0  0  0  0
  -21.8440   -4.4380   23.4340 C   0  0  0  0  0  3  0  0  0  0  0  0
  -22.0550   -5.2370   22.2960 C   0  0  0  0  0  0  0  0  0  0  0  0
  -22.5670   -4.6810   21.1710 F   0  0  0  0  0  0  0  0  0  0  0  0
  -21.0830   -4.2340   25.6890 F   0  0  0  0  0  0  0  0  0  0  0  0
  -23.0910  -13.9620   21.0550 C   0  0  0  0  0  0  0  0  0  0  0  0
  -22.3340  -13.2530   21.8850 N   0  0  0  0  0  0  0  0  0  0  0  0
  -22.6800  -15.0070   20.5540 O   0  0  0  0  0  0  0  0  0  0  0  0
  -22.6800  -12.4080   22.3140 H   0  0  0  0  0  0  0  0  0  0  0  0
  -21.3980  -13.5650   22.0990 H   0  0  0  0  0  0  0  0  0  0  0  0
  -25.7650  -15.6060   20.3480 N   0  0  0  0  0  0  0  0  0  0  0  0
  -25.0140  -16.2720   20.4860 H   0  0  0  0  0  0  0  0  0  0  0  0
  -26.6350  -16.0440   20.0750 H   0  0  0  0  0  0  0  0  0  0  0  0
  -28.5930  -25.3850   19.7090 C   0  0  0  0  0  2  0  0  0  0  0  0
  -28.7260  -26.8090   20.1150 O   0  0  0  0  0  0  0  0  0  0  0  0
  -24.6340  -31.8800   23.2360 C   0  0  0  0  0  0  0  0  0  0  0  0
  -27.5760  -27.6220   20.0440 C   0  0  0  0  0  0  0  0  0  0  0  0
  -23.5530  -30.4890   21.5090 C   0  0  0  0  0  3  0  0  0  0  0  0
  -25.1260  -29.1020   20.0490 C   0  0  0  0  0  0  0  0  0  0  0  0
  -26.0750  -30.9570   21.4110 C   0  0  0  0  0  2  0  0  0  0  0  0
  -26.2500  -29.6190   20.7050 C   0  0  0  0  0  0  0  0  0  0  0  0
  -27.4760  -28.8870   20.7040 C   0  0  0  0  0  3  0  0  0  0  0  0
  -26.4320  -27.1890   19.3290 C   0  0  0  0  0  3  0  0  0  0  0  0
  -25.2180  -27.8920   19.3530 C   0  0  0  0  0  3  0  0  0  0  0  0
  -23.8400  -29.9010   20.1040 C   0  0  0  0  0  2  0  0  0  0  0  0
  -24.7700  -31.1250   22.1090 N   0  0  0  0  0  0  0  0  0  0  0  0
  -23.5230  -32.0720   23.7520 O   0  0  0  0  0  0  0  0  0  0  0  0
  -22.9310  -29.3910   22.4040 C   0  0  0  0  0  0  0  0  0  0  0  0
  -21.6210  -29.1440   22.2330 N   0  0  0  0  0  0  0  0  0  0  0  0
  -23.6240  -28.7670   23.2110 O   0  0  0  0  0  0  0  0  0  0  0  0
  -21.1180  -29.6980   21.5540 H   0  0  0  0  0  0  0  0  0  0  0  0
  -18.2970  -27.7710   22.6290 C   0  0  0  0  0  0  0  0  0  0  0  0
  -20.8400  -28.1300   22.9410 C   0  0  0  0  0  3  0  0  0  0  0  0
  -21.0120  -26.7380   22.2910 C   0  0  0  0  0  2  0  0  0  0  0  0
  -19.9360  -26.4240   21.2470 C   0  0  0  0  0  2  0  0  0  0  0  0
  -18.5430  -26.4700   21.8820 C   0  0  0  0  0  2  0  0  0  0  0  0
  -19.3760  -28.5590   23.1130 C   0  0  0  0  0  0  0  0  0  0  0  0
  -19.0960  -29.7750   23.7720 C   0  0  0  0  0  3  0  0  0  0  0  0
  -17.7680  -30.2090   23.9480 C   0  0  0  0  0  3  0  0  0  0  0  0
  -16.7030  -29.4200   23.4790 C   0  0  0  0  0  3  0  0  0  0  0  0
  -16.9680  -28.2010   22.8270 C   0  0  0  0  0  3  0  0  0  0  0  0
  -25.8620  -32.5570   23.9180 C   0  0  0  0  0  3  0  0  0  0  0  0
  -26.3290  -31.8140   25.2290 C   0  0  1  0  0  0  0  0  0  0  0  0
  -25.1840  -31.5440   26.2330 C   0  0  0  0  0  1  0  0  0  0  0  0
  -26.9830  -30.4550   24.8880 C   0  0  0  0  0  1  0  0  0  0  0  0
  -27.4130  -32.6540   25.9460 C   0  0  0  0  0  1  0  0  0  0  0  0
  -25.4950  -33.9490   24.2110 N   0  0  0  0  0  0  0  0  0  0  0  0
  -25.8180  -34.9990   23.4420 C   0  0  0  0  0  0  0  0  0  0  0  0
  -26.5250  -34.8980   22.4370 O   0  0  0  0  0  0  0  0  0  0  0  0
  -24.8620  -34.0970   24.9840 H   0  0  0  0  0  0  0  0  0  0  0  0
  -24.0320  -36.7150   23.0080 C   0  0  0  0  0  1  0  0  0  0  0  0
  -25.2690  -36.3780   23.8560 C   0  0  0  0  0  3  0  0  0  0  0  0
  -27.3450  -37.3650   24.7160 C   0  0  0  0  0  1  0  0  0  0  0  0
  -26.2640  -37.4650   23.7390 N   0  0  0  0  0  0  0  0  0  0  0  0
  -25.8190  -38.3720   23.8500 H   0  0  0  0  0  0  0  0  0  0  0  0
  1  7  2  0
  2  1  1  0
  3  1  1  0
  4  2  1  0
  5 53  1  0
  5  3  1  0
  6  4  1  0
  6 13  1  0
  6  5  1  0
  8 12  1  0
 10  8  2  0
 10 13  1  0
 11  9  1  0
 12 14  1  0
 12  9  2  0
 13 11  2  0
 15 23  1  0
 16 21  1  0
 17 18  1  0
 17 16  1  0
 19 18  1  0
 19 28  1  0
 19 20  1  0
 21 15  1  0
 21 20  1  0
 22 15  2  0
 23 24  1  0
 23 14  1  0
 25 26  2  0
 26 45  1  0
 27 26  1  0
 27 30  1  0
 28 29  1  0
 28 25  1  0
 29 27  2  0
 30 31  1  0
 31 32  2  0
 33 36  1  0
 33 32  1  0
 34 33  2  0
 35 34  1  0
 35 30  2  0
 36 37  1  0
 37 38  1  0
 38 39  2  0
 40 39  1  0
 40 44  1  0
 41 40  2  0
 42 37  2  0
 42 41  1  0
 43 42  1  0
 45 46  1  0
 46 49  1  0
 46 48  1  0
 47 45  2  0
 50 25  1  0
 50 51  1  0
 52 50  1  0
 53 54  1  0
 55 66  2  0
 56 54  1  0
 56 61  1  0
 57 65  1  0
 57 67  1  0
 58 64  1  0
 58 60  1  0
 59 65  1  0
 60 59  1  0
 61 60  2  0
 62 63  1  0
 62 56  2  0
 63 58  2  0
 64 57  1  0
 65 55  1  0
 67 69  2  0
 68 67  1  0
 70 68  1  0
 71 80  2  0
 71 76  1  0
 72 68  1  0
 72 76  1  0
 73 72  1  0
 74 75  1  0
 74 73  1  0
 75 71  1  0
 76 77  2  0
 77 78  1  0
 79 78  2  0
 80 79  1  0
 81 55  1  0
 81 86  1  0
 81 82  1  0
 82 85  1  1
 82 83  1  0
 84 82  1  0
 86 89  1  0
 87 91  1  0
 87 86  1  0
 88 87  2  0
 91 90  1  0
 93 94  1  0
 93 91  1  0
 93 92  1  0
M  ISO  4  15 100  23 100  53 101  54 101
M  END
>  <TORSDO>  (90) 
F 19

>  <SCORE>  (90) 
-13.349

>  <name>  (90) 
89

>  <ligand_id>  (90) 
89

>  <original_smiles>  (90) 
[H]c1c([H])c([H])c2c(c1[H])C([H])([H])C([H])([H])C([H])([H])C2([H])N([H])C(=O)C1([H])N(C(=O)C([H])(N([H])C(=O)C([H])(N([H])C([H])([H])[H])C([H])([H])[H])C(C([H])([H])[H])(C([H])([H])[H])C([H])([H])[H])C([H])([H])c2c([H])c(OC([H])([H])C3([H])N(c4c([H])c([H])c(C([H])([H])N([H])C(=O)N5C([H])([H])C([H])([H])C([H])([H])C([H])(n6nc(-c7c([H])c([H])c(Oc8c([H])c([H])c(F)c([H])c8F)c([H])c7[H])c(C(=O)N([H])[H])c6N([H])[H])C5([H])[H])c([H])c4[H])C([H])([H])C([H])([H])C(=O)C3([H])[H])c([H])c([H])c2C1([H])[H]

>  <smiles>  (90) 
[H]c1c([H])c([H])c2c(c1[H])C([H])([H])C([H])([H])C([H])([H])C2([H])N([H])C(=O)C1([H])N(C(=O)C([H])(N([H])C(=O)C([H])(N([H])C([H])([H])[H])C([H])([H])[H])C(C([H])([H])[H])(C([H])([H])[H])C([H])([H])[H])C([H])([H])c2c([H])c(OC([H])([H])C3([H])N(c4c([H])c([H])c(C([H])([H])N([H])C(=O)N5C([H])([H])C([H])([H])C([H])([H])C([H])(n6nc(-c7c([H])c([H])c(Oc8c([H])c([H])c(F)c([H])c8F)c([H])c7[H])c(C(=O)N([H])[H])c6N([H])[H])C5([H])[H])c([H])c4[H])C([H])([H])C([H])([H])C(=O)C3([H])[H])c([H])c([H])c2C1([H])[H]

$$$$
90:0:0
     RDKit          3D

 84 91  0  0  1  0  0  0  0  0999 V2000
  -28.9520  -22.1190   20.3010 C   0  0  0  0  0  3  0  0  0  0  0  0
  -28.7230  -20.1800   20.2690 C   0  0  0  0  0  2  0  0  0  0  0  0
  -30.2630  -15.7060   20.2050 C   0  0  0  0  0  0  0  0  0  0  0  0
  -30.3670  -13.1670   19.3690 C   0  0  0  0  0  2  0  0  0  0  0  0
  -29.4740  -12.7650   18.1610 C   0  0  0  0  0  2  0  0  0  0  0  0
  -28.0550  -12.4010   18.6220 C   0  0  0  0  0  2  0  0  0  0  0  0
  -27.5430  -13.3920   19.6920 C   0  0  0  0  0  3  0  0  0  0  0  0
  -28.5770  -13.7080   20.7990 C   0  0  0  0  0  2  0  0  0  0  0  0
  -29.7410  -14.3400   20.1330 N   0  0  0  0  0  0  0  0  0  0  0  0
  -31.4960  -15.6340   20.0390 O   0  0  0  0  0  0  0  0  0  0  0  0
  -29.7400  -18.6060   20.2540 C   0  0  0  0  0  0  0  0  0  0  0  0
  -29.4950  -17.0660   20.2690 N   0  0  0  0  0  0  0  0  0  0  0  0
  -30.9380  -18.8980   20.2140 O   0  0  0  0  0  0  0  0  0  0  0  0
  -28.5050  -16.8880   20.3260 H   0  0  0  0  0  0  0  0  0  0  0  0
  -25.1770  -13.8910   20.4650 C   0  0  0  0  0  0  0  0  0  0  0  0
  -24.1300  -13.0970   20.8350 C   0  0  0  0  0  0  0  0  0  0  0  0
  -24.6200  -11.7550   20.8050 C   0  0  0  0  0  0  0  0  0  0  0  0
  -26.2340  -13.0360   20.2180 N   0  0  0  0  0  0  0  0  0  0  0  0
  -25.9140  -11.7420   20.4910 N   0  0  0  0  0  0  0  0  0  0  0  0
  -23.9110  -10.4820   20.9960 C   0  0  0  0  0  0  0  0  0  0  0  0
  -24.3450   -9.5270   21.9400 C   0  0  0  0  0  3  0  0  0  0  0  0
  -23.6300   -8.3230   22.1220 C   0  0  0  0  0  3  0  0  0  0  0  0
  -22.4660   -8.0660   21.3590 C   0  0  0  0  0  0  0  0  0  0  0  0
  -22.0510   -9.0100   20.4040 C   0  0  0  0  0  3  0  0  0  0  0  0
  -22.7660  -10.2050   20.2210 C   0  0  0  0  0  3  0  0  0  0  0  0
  -21.7240   -6.9130   21.4490 O   0  0  0  0  0  0  0  0  0  0  0  0
  -21.6620   -6.1860   22.6110 C   0  0  0  0  0  0  0  0  0  0  0  0
  -21.1890   -6.7470   23.8170 C   0  0  0  0  0  3  0  0  0  0  0  0
  -21.0760   -5.9450   24.9700 C   0  0  0  0  0  3  0  0  0  0  0  0
  -21.4250   -4.5830   24.9180 C   0  0  0  0  0  0  0  0  0  0  0  0
  -21.8910   -4.0200   23.7170 C   0  0  0  0  0  3  0  0  0  0  0  0
  -22.0050   -4.8200   22.5660 C   0  0  0  0  0  0  0  0  0  0  0  0
  -22.4340   -4.2670   21.4050 F   0  0  0  0  0  0  0  0  0  0  0  0
  -21.3100   -3.8100   26.0240 F   0  0  0  0  0  0  0  0  0  0  0  0
  -22.7260  -13.5540   21.0980 C   0  0  0  0  0  0  0  0  0  0  0  0
  -22.0090  -12.8580   21.9710 N   0  0  0  0  0  0  0  0  0  0  0  0
  -22.2750  -14.5680   20.5650 O   0  0  0  0  0  0  0  0  0  0  0  0
  -22.3880  -12.0400   22.4240 H   0  0  0  0  0  0  0  0  0  0  0  0
  -21.0660  -13.1470   22.1910 H   0  0  0  0  0  0  0  0  0  0  0  0
  -25.3150  -15.2660   20.2830 N   0  0  0  0  0  0  0  0  0  0  0  0
  -24.5330  -15.9020   20.3840 H   0  0  0  0  0  0  0  0  0  0  0  0
  -26.1430  -15.7110   19.9090 H   0  0  0  0  0  0  0  0  0  0  0  0
  -27.9620  -23.8010   20.2170 C   0  0  0  0  0  3  0  0  0  0  0  0
  -28.1470  -25.5560   20.3110 O   0  0  0  0  0  0  0  0  0  0  0  0
  -24.6710  -31.8840   23.2040 C   0  0  0  0  0  0  0  0  0  0  0  0
  -27.1750  -26.7700   20.2530 C   0  0  0  0  0  0  0  0  0  0  0  0
  -23.4770  -30.4810   21.5770 C   0  0  0  0  0  3  0  0  0  0  0  0
  -24.9160  -28.8140   20.1770 C   0  0  0  0  0  0  0  0  0  0  0  0
  -26.0560  -30.6090   21.4550 C   0  0  0  0  0  2  0  0  0  0  0  0
  -26.1130  -29.1710   20.8090 C   0  0  0  0  0  0  0  0  0  0  0  0
  -27.2280  -28.1780   20.8120 C   0  0  0  0  0  3  0  0  0  0  0  0
  -25.9430  -26.6230   19.5650 C   0  0  0  0  0  3  0  0  0  0  0  0
  -24.8700  -27.5670   19.5320 C   0  0  0  0  0  3  0  0  0  0  0  0
  -23.7140  -29.7730   20.2110 C   0  0  0  0  0  2  0  0  0  0  0  0
  -24.7590  -31.0240   22.1310 N   0  0  0  0  0  0  0  0  0  0  0  0
  -23.5780  -32.1920   23.7110 O   0  0  0  0  0  0  0  0  0  0  0  0
  -22.7540  -29.5150   22.5540 C   0  0  0  0  0  0  0  0  0  0  0  0
  -21.4200  -29.3710   22.4320 N   0  0  0  0  0  0  0  0  0  0  0  0
  -23.4060  -28.8910   23.3950 O   0  0  0  0  0  0  0  0  0  0  0  0
  -20.9440  -29.9240   21.7320 H   0  0  0  0  0  0  0  0  0  0  0  0
  -18.0240  -28.1870   22.9540 C   0  0  0  0  0  0  0  0  0  0  0  0
  -20.5870  -28.4450   23.2100 C   0  0  0  0  0  3  0  0  0  0  0  0
  -20.6780  -27.0080   22.6470 C   0  0  0  0  0  2  0  0  0  0  0  0
  -19.5740  -26.6840   21.6370 C   0  0  0  0  0  2  0  0  0  0  0  0
  -18.1940  -26.8360   22.2810 C   0  0  0  0  0  2  0  0  0  0  0  0
  -19.1460  -28.9500   23.3770 C   0  0  0  0  0  0  0  0  0  0  0  0
  -18.9290  -30.2110   23.9720 C   0  0  0  0  0  3  0  0  0  0  0  0
  -17.6250  -30.7110   24.1460 C   0  0  0  0  0  3  0  0  0  0  0  0
  -16.5180  -29.9480   23.7370 C   0  0  0  0  0  3  0  0  0  0  0  0
  -16.7190  -28.6870   23.1480 C   0  0  0  0  0  3  0  0  0  0  0  0
  -25.9360  -32.5320   23.8420 C   0  0  0  0  0  3  0  0  0  0  0  0
  -25.6160  -33.9330   24.1810 N   0  0  0  0  0  0  0  0  0  0  0  0
  -25.9260  -34.9990   23.4310 C   0  0  0  0  0  0  0  0  0  0  0  0
  -26.5690  -34.9070   22.3830 O   0  0  0  0  0  0  0  0  0  0  0  0
  -25.0390  -34.0750   24.9970 H   0  0  0  0  0  0  0  0  0  0  0  0
  -24.1730  -36.7910   23.1690 C   0  0  0  0  0  1  0  0  0  0  0  0
  -25.4530  -36.3860   23.9180 C   0  0  0  0  0  3  0  0  0  0  0  0
  -27.6150  -37.2920   24.6560 C   0  0  0  0  0  1  0  0  0  0  0  0
  -26.4720  -37.4480   23.7600 N   0  0  0  0  0  0  0  0  0  0  0  0
  -26.0650  -38.3650   23.9210 H   0  0  0  0  0  0  0  0  0  0  0  0
  -26.4350  -31.7720   25.1350 C   0  0  1  0  0  0  0  0  0  0  0  0
  -25.3300  -31.5520   26.1960 C   0  0  0  0  0  1  0  0  0  0  0  0
  -27.0140  -30.3860   24.7760 C   0  0  0  0  0  1  0  0  0  0  0  0
  -27.5830  -32.5670   25.7990 C   0  0  0  0  0  1  0  0  0  0  0  0
  2  1  1  0
  3 12  1  0
  4  9  1  0
  5  6  1  0
  5  4  1  0
  7  6  1  0
  7 18  1  0
  7  8  1  0
  9  3  1  0
  9  8  1  0
 10  3  2  0
 11  2  1  0
 11 12  1  0
 12 14  1  0
 13 11  2  0
 15 16  2  0
 16 35  1  0
 17 16  1  0
 17 20  1  0
 18 15  1  0
 18 19  1  0
 19 17  2  0
 20 21  1  0
 21 22  2  0
 23 26  1  0
 23 22  1  0
 24 23  2  0
 25 24  1  0
 25 20  2  0
 26 27  1  0
 27 28  1  0
 28 29  2  0
 30 29  1  0
 30 34  1  0
 31 30  2  0
 32 27  2  0
 32 31  1  0
 33 32  1  0
 35 36  1  0
 36 39  1  0
 36 38  1  0
 37 35  2  0
 40 41  1  0
 40 15  1  0
 42 40  1  0
 43  1  2  0
 43 44  1  0
 45 56  2  0
 46 44  1  0
 46 51  1  0
 47 55  1  0
 47 57  1  0
 48 54  1  0
 48 50  1  0
 49 55  1  0
 50 51  2  0
 50 49  1  0
 52 46  2  0
 53 52  1  0
 53 48  2  0
 54 47  1  0
 55 45  1  0
 57 59  2  0
 58 57  1  0
 60 58  1  0
 61 70  2  0
 61 66  1  0
 62 58  1  0
 62 66  1  0
 63 62  1  0
 64 65  1  0
 64 63  1  0
 65 61  1  0
 66 67  2  0
 67 68  1  0
 69 68  2  0
 70 69  1  0
 71 45  1  0
 71 72  1  0
 71 81  1  0
 72 75  1  0
 73 77  1  0
 73 72  1  0
 74 73  2  0
 77 76  1  0
 79 77  1  0
 79 80  1  0
 79 78  1  0
 81 84  1  1
 81 82  1  0
 83 81  1  0
M  ISO  4   3 100  12 100  43 101  44 101
M  END
>  <TORSDO>  (91) 
F 18

>  <SCORE>  (91) 
-16.356

>  <name>  (91) 
90

>  <ligand_id>  (91) 
90

>  <original_smiles>  (91) 
[H]c1c([H])c([H])c2c(c1[H])C([H])([H])C([H])([H])C([H])([H])C2([H])N([H])C(=O)C1([H])N(C(=O)C([H])(N([H])C(=O)C([H])(N([H])C([H])([H])[H])C([H])([H])[H])C(C([H])([H])[H])(C([H])([H])[H])C([H])([H])[H])C([H])([H])c2c([H])c(OC([H])([H])C([H])([H])C([H])([H])C(=O)N([H])C(=O)N3C([H])([H])C([H])([H])C([H])([H])C([H])(n4nc(-c5c([H])c([H])c(Oc6c([H])c([H])c(F)c([H])c6F)c([H])c5[H])c(C(=O)N([H])[H])c4N([H])[H])C3([H])[H])c([H])c([H])c2C1([H])[H]

>  <smiles>  (91) 
[H]c1c([H])c([H])c2c(c1[H])C([H])([H])C([H])([H])C([H])([H])C2([H])N([H])C(=O)C1([H])N(C(=O)C([H])(N([H])C(=O)C([H])(N([H])C([H])([H])[H])C([H])([H])[H])C(C([H])([H])[H])(C([H])([H])[H])C([H])([H])[H])C([H])([H])c2c([H])c(OC([H])([H])C([H])([H])C([H])([H])C(=O)N([H])C(=O)N3C([H])([H])C([H])([H])C([H])([H])C([H])(n4nc(-c5c([H])c([H])c(Oc6c([H])c([H])c(F)c([H])c6F)c([H])c5[H])c(C(=O)N([H])[H])c4N([H])[H])C3([H])[H])c([H])c([H])c2C1([H])[H]

$$$$
91:0:0
     RDKit          3D

 92100  0  0  1  0  0  0  0  0999 V2000
  -29.4330  -18.3970   20.7400 C   0  0  0  0  0  3  0  0  0  0  0  0
  -29.3350  -19.7980   20.5240 C   0  0  0  0  0  3  0  0  0  0  0  0
  -31.7210  -18.6920   21.4770 C   0  0  0  0  0  3  0  0  0  0  0  0
  -30.6320  -17.8310   21.2320 C   0  0  0  0  0  0  0  0  0  0  0  0
  -30.4280  -20.6650   20.7980 C   0  0  0  0  0  0  0  0  0  0  0  0
  -31.6300  -20.0850   21.2870 C   0  0  0  0  0  0  0  0  0  0  0  0
  -32.5780  -21.9410   22.4500 C   0  0  0  0  0  1  0  0  0  0  0  0
  -32.7550  -20.8120   21.6020 O   0  0  0  0  0  0  0  0  0  0  0  0
  -30.7970  -16.3560   21.6330 C   0  0  0  0  0  2  0  0  0  0  0  0
  -30.5800  -14.3560   20.1640 C   0  0  0  0  0  0  0  0  0  0  0  0
  -30.1620  -12.2650   18.9120 C   0  0  0  0  0  2  0  0  0  0  0  0
  -29.1440  -12.5050   17.7810 C   0  0  0  0  0  2  0  0  0  0  0  0
  -27.7030  -12.3510   18.3030 C   0  0  0  0  0  2  0  0  0  0  0  0
  -27.4510  -13.1430   19.6130 C   0  0  0  0  0  3  0  0  0  0  0  0
  -28.5750  -12.8900   20.6410 C   0  0  0  0  0  2  0  0  0  0  0  0
  -29.8560  -13.2140   19.9940 N   0  0  0  0  0  0  0  0  0  0  0  0
  -31.6650  -14.5420   19.6090 O   0  0  0  0  0  0  0  0  0  0  0  0
  -30.0290  -15.3090   20.9410 N   0  0  0  0  0  0  0  0  0  0  0  0
  -29.0960  -15.1290   21.2800 H   0  0  0  0  0  0  0  0  0  0  0  0
  -25.0940  -13.7240   20.4650 C   0  0  0  0  0  0  0  0  0  0  0  0
  -24.0540  -12.9390   20.8860 C   0  0  0  0  0  0  0  0  0  0  0  0
  -24.5230  -11.5910   20.8170 C   0  0  0  0  0  0  0  0  0  0  0  0
  -26.1300  -12.8520   20.1680 N   0  0  0  0  0  0  0  0  0  0  0  0
  -25.7930  -11.5650   20.4380 N   0  0  0  0  0  0  0  0  0  0  0  0
  -23.8160  -10.3220   21.0340 C   0  0  0  0  0  0  0  0  0  0  0  0
  -24.2890   -9.3620   21.9550 C   0  0  0  0  0  3  0  0  0  0  0  0
  -23.5820   -8.1580   22.1620 C   0  0  0  0  0  3  0  0  0  0  0  0
  -22.3890   -7.9040   21.4460 C   0  0  0  0  0  0  0  0  0  0  0  0
  -21.9350   -8.8530   20.5120 C   0  0  0  0  0  3  0  0  0  0  0  0
  -22.6410  -10.0480   20.3050 C   0  0  0  0  0  3  0  0  0  0  0  0
  -21.6510   -6.7500   21.5610 O   0  0  0  0  0  0  0  0  0  0  0  0
  -21.6370   -6.0190   22.7210 C   0  0  0  0  0  0  0  0  0  0  0  0
  -21.1910   -6.5680   23.9430 C   0  0  0  0  0  3  0  0  0  0  0  0
  -21.1260   -5.7600   25.0950 C   0  0  0  0  0  3  0  0  0  0  0  0
  -21.4980   -4.4030   25.0280 C   0  0  0  0  0  0  0  0  0  0  0  0
  -21.9360   -3.8530   23.8110 C   0  0  0  0  0  3  0  0  0  0  0  0
  -22.0020   -4.6590   22.6590 C   0  0  0  0  0  0  0  0  0  0  0  0
  -22.4060   -4.1180   21.4840 F   0  0  0  0  0  0  0  0  0  0  0  0
  -21.4290   -3.6240   26.1330 F   0  0  0  0  0  0  0  0  0  0  0  0
  -22.6700  -13.4030   21.2400 C   0  0  0  0  0  0  0  0  0  0  0  0
  -21.9970  -12.6910   22.1360 N   0  0  0  0  0  0  0  0  0  0  0  0
  -22.1980  -14.4320   20.7580 O   0  0  0  0  0  0  0  0  0  0  0  0
  -22.3940  -11.8580   22.5450 H   0  0  0  0  0  0  0  0  0  0  0  0
  -21.0730  -12.9830   22.4180 H   0  0  0  0  0  0  0  0  0  0  0  0
  -25.2420  -15.0960   20.2900 N   0  0  0  0  0  0  0  0  0  0  0  0
  -24.4830  -15.7500   20.4450 H   0  0  0  0  0  0  0  0  0  0  0  0
  -26.0730  -15.5380   19.9170 H   0  0  0  0  0  0  0  0  0  0  0  0
  -30.4140  -22.0370   20.5890 O   0  0  0  0  0  0  0  0  0  0  0  0
  -29.1910  -22.7270   20.3200 C   0  0  0  0  0  2  0  0  0  0  0  0
  -29.4360  -24.2630   20.3950 C   0  0  0  0  0  2  0  0  0  0  0  0
  -28.1900  -25.1110   20.0430 C   0  0  0  0  0  2  0  0  0  0  0  0
  -28.3600  -26.5350   20.2150 O   0  0  0  0  0  0  0  0  0  0  0  0
  -24.5740  -31.8100   23.1870 C   0  0  0  0  0  0  0  0  0  0  0  0
  -27.2080  -27.3080   20.1590 C   0  0  0  0  0  0  0  0  0  0  0  0
  -23.3810  -30.4290   21.5210 C   0  0  0  0  0  3  0  0  0  0  0  0
  -24.8390  -28.8750   20.1220 C   0  0  0  0  0  0  0  0  0  0  0  0
  -25.9180  -30.7420   21.3790 C   0  0  0  0  0  2  0  0  0  0  0  0
  -25.9970  -29.3720   20.7330 C   0  0  0  0  0  0  0  0  0  0  0  0
  -27.1830  -28.5980   20.7450 C   0  0  0  0  0  3  0  0  0  0  0  0
  -26.0250  -26.8370   19.5370 C   0  0  0  0  0  3  0  0  0  0  0  0
  -24.8510  -27.6080   19.5180 C   0  0  0  0  0  3  0  0  0  0  0  0
  -23.6090  -29.7520   20.1440 C   0  0  0  0  0  2  0  0  0  0  0  0
  -24.6420  -31.0070   22.0880 N   0  0  0  0  0  0  0  0  0  0  0  0
  -23.4860  -32.1000   23.7040 O   0  0  0  0  0  0  0  0  0  0  0  0
  -22.6950  -29.4160   22.4650 C   0  0  0  0  0  0  0  0  0  0  0  0
  -21.3720  -29.2480   22.3030 N   0  0  0  0  0  0  0  0  0  0  0  0
  -23.3500  -28.7850   23.2990 O   0  0  0  0  0  0  0  0  0  0  0  0
  -20.9060  -29.8080   21.6020 H   0  0  0  0  0  0  0  0  0  0  0  0
  -17.9700  -28.1020   22.7280 C   0  0  0  0  0  0  0  0  0  0  0  0
  -20.5250  -28.3190   23.0520 C   0  0  0  0  0  3  0  0  0  0  0  0
  -20.6170  -26.8890   22.4720 C   0  0  0  0  0  2  0  0  0  0  0  0
  -19.5320  -26.5870   21.4350 C   0  0  0  0  0  2  0  0  0  0  0  0
  -18.1390  -26.7520   22.0510 C   0  0  0  0  0  2  0  0  0  0  0  0
  -19.0910  -28.8450   23.1830 C   0  0  0  0  0  0  0  0  0  0  0  0
  -18.8810  -30.1100   23.7730 C   0  0  0  0  0  3  0  0  0  0  0  0
  -17.5830  -30.6340   23.9110 C   0  0  0  0  0  3  0  0  0  0  0  0
  -16.4740  -29.8870   23.4730 C   0  0  0  0  0  3  0  0  0  0  0  0
  -16.6690  -28.6230   22.8870 C   0  0  0  0  0  3  0  0  0  0  0  0
  -25.8570  -32.4210   23.8330 C   0  0  0  0  0  3  0  0  0  0  0  0
  -25.5590  -33.8180   24.1710 N   0  0  0  0  0  0  0  0  0  0  0  0
  -25.9010  -34.8720   23.4170 C   0  0  0  0  0  0  0  0  0  0  0  0
  -26.5720  -34.7690   22.3860 O   0  0  0  0  0  0  0  0  0  0  0  0
  -24.9640  -33.9740   24.9710 H   0  0  0  0  0  0  0  0  0  0  0  0
  -24.1870  -36.6790   23.0670 C   0  0  0  0  0  1  0  0  0  0  0  0
  -25.4240  -36.2610   23.8790 C   0  0  0  0  0  3  0  0  0  0  0  0
  -27.5580  -37.1340   24.7250 C   0  0  0  0  0  1  0  0  0  0  0  0
  -26.4650  -37.3060   23.7720 N   0  0  0  0  0  0  0  0  0  0  0  0
  -26.0640  -38.2290   23.9150 H   0  0  0  0  0  0  0  0  0  0  0  0
  -26.3480  -31.6300   25.1090 C   0  0  1  0  0  0  0  0  0  0  0  0
  -25.2350  -31.3860   26.1540 C   0  0  0  0  0  1  0  0  0  0  0  0
  -26.9280  -30.2520   24.7100 C   0  0  0  0  0  1  0  0  0  0  0  0
  -27.4930  -32.4070   25.7980 C   0  0  0  0  0  1  0  0  0  0  0  0
  1  4  1  0
  2  1  2  0
  2  5  1  0
  4  3  2  0
  4  9  1  0
  5  6  2  0
  6  3  1  0
  6  8  1  0
  8  7  1  0
 10 18  1  0
 11 16  1  0
 12 13  1  0
 12 11  1  0
 14 13  1  0
 14 23  1  0
 14 15  1  0
 16 10  1  0
 16 15  1  0
 17 10  2  0
 18 19  1  0
 18  9  1  0
 20 21  2  0
 21 40  1  0
 22 21  1  0
 22 25  1  0
 23 24  1  0
 23 20  1  0
 24 22  2  0
 25 26  1  0
 26 27  2  0
 28 31  1  0
 28 27  1  0
 29 28  2  0
 30 29  1  0
 30 25  2  0
 31 32  1  0
 32 33  1  0
 33 34  2  0
 35 34  1  0
 35 39  1  0
 36 35  2  0
 37 32  2  0
 37 36  1  0
 38 37  1  0
 40 41  1  0
 41 44  1  0
 41 43  1  0
 42 40  2  0
 45 46  1  0
 45 20  1  0
 47 45  1  0
 48  5  1  0
 49 50  1  0
 49 48  1  0
 51 52  1  0
 51 50  1  0
 53 64  2  0
 54 52  1  0
 54 59  1  0
 55 63  1  0
 55 65  1  0
 56 62  1  0
 56 58  1  0
 57 63  1  0
 58 59  2  0
 58 57  1  0
 60 54  2  0
 61 60  1  0
 61 56  2  0
 62 55  1  0
 63 53  1  0
 65 67  2  0
 66 65  1  0
 68 66  1  0
 69 78  2  0
 69 74  1  0
 70 66  1  0
 70 74  1  0
 71 70  1  0
 72 73  1  0
 72 71  1  0
 73 69  1  0
 74 75  2  0
 75 76  1  0
 77 76  2  0
 78 77  1  0
 79 53  1  0
 79 80  1  0
 79 89  1  0
 80 83  1  0
 81 85  1  0
 81 80  1  0
 82 81  2  0
 85 84  1  0
 87 85  1  0
 87 88  1  0
 87 86  1  0
 89 92  1  1
 89 90  1  0
 91 89  1  0
M  ISO  4  10 100  18 100  51 101  52 101
M  END
>  <TORSDO>  (92) 
F 22

>  <SCORE>  (92) 
-12.384

>  <name>  (92) 
91

>  <ligand_id>  (92) 
91

>  <original_smiles>  (92) 
[H]c1c([H])c([H])c2c(c1[H])C([H])([H])C([H])([H])C([H])([H])C2([H])N([H])C(=O)C1([H])N(C(=O)C([H])(N([H])C(=O)C([H])(N([H])C([H])([H])[H])C([H])([H])[H])C(C([H])([H])[H])(C([H])([H])[H])C([H])([H])[H])C([H])([H])c2c([H])c(OC([H])([H])C([H])([H])C([H])([H])Oc3c([H])c([H])c(C([H])([H])N([H])C(=O)N4C([H])([H])C([H])([H])C([H])([H])C([H])(n5nc(-c6c([H])c([H])c(Oc7c([H])c([H])c(F)c([H])c7F)c([H])c6[H])c(C(=O)N([H])[H])c5N([H])[H])C4([H])[H])c([H])c3OC([H])([H])[H])c([H])c([H])c2C1([H])[H]

>  <smiles>  (92) 
[H]c1c([H])c([H])c2c(c1[H])C([H])([H])C([H])([H])C([H])([H])C2([H])N([H])C(=O)C1([H])N(C(=O)C([H])(N([H])C(=O)C([H])(N([H])C([H])([H])[H])C([H])([H])[H])C(C([H])([H])[H])(C([H])([H])[H])C([H])([H])[H])C([H])([H])c2c([H])c(OC([H])([H])C([H])([H])C([H])([H])Oc3c([H])c([H])c(C([H])([H])N([H])C(=O)N4C([H])([H])C([H])([H])C([H])([H])C([H])(n5nc(-c6c([H])c([H])c(Oc7c([H])c([H])c(F)c([H])c7F)c([H])c6[H])c(C(=O)N([H])[H])c5N([H])[H])C4([H])[H])c([H])c3OC([H])([H])[H])c([H])c([H])c2C1([H])[H]

$$$$
92:0:0
     RDKit          3D

 94103  0  0  1  0  0  0  0  0999 V2000
  -29.1010  -22.7220   19.6750 C   0  0  0  0  0  3  0  0  0  0  0  0
  -28.6580  -23.9850   20.0590 C   0  0  0  0  0  0  0  0  0  0  0  0
  -28.0930  -24.0900   21.4290 C   0  0  0  0  0  0  0  0  0  0  0  0
  -28.3200  -22.9110   22.3770 C   0  0  0  0  0  2  0  0  0  0  0  0
  -28.1850  -21.5620   21.6500 C   0  0  0  0  0  2  0  0  0  0  0  0
  -29.0190  -21.5130   20.4460 N   0  0  0  0  0  0  0  0  0  0  0  0
  -27.4580  -25.0600   21.8480 O   0  0  0  0  0  0  0  0  0  0  0  0
  -29.0140  -19.1980   19.3720 C   0  0  0  0  0  3  0  0  0  0  0  0
  -29.3690  -17.8010   19.4300 C   0  0  0  0  0  3  0  0  0  0  0  0
  -30.8730  -18.2830   21.2230 C   0  0  0  0  0  3  0  0  0  0  0  0
  -29.5570  -20.1750   20.2590 C   0  0  0  0  0  0  0  0  0  0  0  0
  -30.2860  -17.2820   20.3930 C   0  0  0  0  0  0  0  0  0  0  0  0
  -30.5260  -19.6630   21.1670 C   0  0  0  0  0  0  0  0  0  0  0  0
  -31.0980  -20.5050   22.0640 F   0  0  0  0  0  0  0  0  0  0  0  0
  -30.9670  -14.8630   19.7780 C   0  0  0  0  0  0  0  0  0  0  0  0
  -30.6000  -12.6400   18.6780 C   0  0  0  0  0  2  0  0  0  0  0  0
  -29.5240  -12.7470   17.5760 C   0  0  0  0  0  2  0  0  0  0  0  0
  -28.1140  -12.5610   18.1710 C   0  0  0  0  0  2  0  0  0  0  0  0
  -27.8920  -13.4290   19.4360 C   0  0  0  0  0  3  0  0  0  0  0  0
  -29.0640  -13.2900   20.4240 C   0  0  0  0  0  2  0  0  0  0  0  0
  -30.3040  -13.6550   19.7170 N   0  0  0  0  0  0  0  0  0  0  0  0
  -31.9710  -15.0550   19.0810 O   0  0  0  0  0  0  0  0  0  0  0  0
  -30.8400  -15.5010   22.0620 C   0  0  0  0  0  1  0  0  0  0  0  0
  -30.5270  -15.8350   20.6610 N   0  0  0  0  0  0  0  0  0  0  0  0
  -25.6300  -14.0210   20.4970 C   0  0  0  0  0  0  0  0  0  0  0  0
  -24.6030  -13.2440   20.9600 C   0  0  0  0  0  0  0  0  0  0  0  0
  -25.0270  -11.8900   20.7960 C   0  0  0  0  0  0  0  0  0  0  0  0
  -26.6120  -13.1400   20.0760 N   0  0  0  0  0  0  0  0  0  0  0  0
  -26.2640  -11.8490   20.3160 N   0  0  0  0  0  0  0  0  0  0  0  0
  -24.3020  -10.6310   21.0110 C   0  0  0  0  0  0  0  0  0  0  0  0
  -24.7440   -9.6760   21.9530 C   0  0  0  0  0  3  0  0  0  0  0  0
  -24.0200   -8.4810   22.1560 C   0  0  0  0  0  3  0  0  0  0  0  0
  -22.8400   -8.2330   21.4150 C   0  0  0  0  0  0  0  0  0  0  0  0
  -22.4170   -9.1760   20.4610 C   0  0  0  0  0  3  0  0  0  0  0  0
  -23.1420  -10.3620   20.2580 C   0  0  0  0  0  3  0  0  0  0  0  0
  -22.0860   -7.0890   21.5260 O   0  0  0  0  0  0  0  0  0  0  0  0
  -21.9300   -6.4420   22.7250 C   0  0  0  0  0  0  0  0  0  0  0  0
  -21.3610   -7.0840   23.8480 C   0  0  0  0  0  3  0  0  0  0  0  0
  -21.1550   -6.3630   25.0410 C   0  0  0  0  0  3  0  0  0  0  0  0
  -21.5060   -5.0010   25.1110 C   0  0  0  0  0  0  0  0  0  0  0  0
  -22.0660   -4.3600   23.9940 C   0  0  0  0  0  3  0  0  0  0  0  0
  -22.2750   -5.0780   22.8030 C   0  0  0  0  0  0  0  0  0  0  0  0
  -22.7970   -4.4490   21.7220 F   0  0  0  0  0  0  0  0  0  0  0  0
  -21.2990   -4.3060   26.2550 F   0  0  0  0  0  0  0  0  0  0  0  0
  -23.2640  -13.7270   21.4380 C   0  0  0  0  0  0  0  0  0  0  0  0
  -22.6550  -13.0140   22.3790 N   0  0  0  0  0  0  0  0  0  0  0  0
  -22.7720  -14.7720   21.0120 O   0  0  0  0  0  0  0  0  0  0  0  0
  -23.0690  -12.1700   22.7460 H   0  0  0  0  0  0  0  0  0  0  0  0
  -21.7620  -13.3180   22.7410 H   0  0  0  0  0  0  0  0  0  0  0  0
  -25.8040  -15.3960   20.3800 N   0  0  0  0  0  0  0  0  0  0  0  0
  -25.0800  -16.0580   20.6410 H   0  0  0  0  0  0  0  0  0  0  0  0
  -26.6310  -15.8420   20.0040 H   0  0  0  0  0  0  0  0  0  0  0  0
  -28.6670  -25.3030   19.1720 C   0  0  0  0  0  2  0  0  0  0  0  0
  -28.5460  -26.6710   19.7690 O   0  0  0  0  0  0  0  0  0  0  0  0
  -24.6070  -31.7750   23.0280 C   0  0  0  0  0  0  0  0  0  0  0  0
  -27.3660  -27.4440   19.7490 C   0  0  0  0  0  0  0  0  0  0  0  0
  -23.4310  -30.3660   21.3760 C   0  0  0  0  0  3  0  0  0  0  0  0
  -24.9180  -28.9380   19.8600 C   0  0  0  0  0  0  0  0  0  0  0  0
  -25.9450  -30.8210   21.1340 C   0  0  0  0  0  2  0  0  0  0  0  0
  -26.0770  -29.4670   20.4390 C   0  0  0  0  0  0  0  0  0  0  0  0
  -27.2990  -28.7310   20.3750 C   0  0  0  0  0  3  0  0  0  0  0  0
  -26.1750  -26.9660   19.1560 C   0  0  0  0  0  3  0  0  0  0  0  0
  -24.9700  -27.6950   19.2110 C   0  0  0  0  0  3  0  0  0  0  0  0
  -23.6400  -29.7450   19.9700 C   0  0  0  0  0  2  0  0  0  0  0  0
  -24.6810  -31.0050   21.9030 N   0  0  0  0  0  0  0  0  0  0  0  0
  -23.5260  -31.9770   23.6010 O   0  0  0  0  0  0  0  0  0  0  0  0
  -22.8510  -29.2880   22.3220 C   0  0  0  0  0  0  0  0  0  0  0  0
  -21.5360  -29.0310   22.2130 N   0  0  0  0  0  0  0  0  0  0  0  0
  -23.5810  -28.6860   23.1140 O   0  0  0  0  0  0  0  0  0  0  0  0
  -21.0010  -29.5740   21.5500 H   0  0  0  0  0  0  0  0  0  0  0  0
  -18.2480  -27.6160   22.7390 C   0  0  0  0  0  0  0  0  0  0  0  0
  -20.7900  -28.0270   22.9730 C   0  0  0  0  0  3  0  0  0  0  0  0
  -20.9680  -26.6190   22.3580 C   0  0  0  0  0  2  0  0  0  0  0  0
  -19.8700  -26.2550   21.3540 C   0  0  0  0  0  2  0  0  0  0  0  0
  -18.4940  -26.2980   22.0250 C   0  0  0  0  0  2  0  0  0  0  0  0
  -19.3250  -28.4350   23.1700 C   0  0  0  0  0  0  0  0  0  0  0  0
  -19.0400  -29.6670   23.7990 C   0  0  0  0  0  3  0  0  0  0  0  0
  -17.7100  -30.0820   24.0000 C   0  0  0  0  0  3  0  0  0  0  0  0
  -16.6470  -29.2610   23.5840 C   0  0  0  0  0  3  0  0  0  0  0  0
  -16.9170  -28.0300   22.9590 C   0  0  0  0  0  3  0  0  0  0  0  0
  -25.8720  -32.4560   23.6360 C   0  0  0  0  0  3  0  0  0  0  0  0
  -25.4890  -33.8120   24.0530 N   0  0  0  0  0  0  0  0  0  0  0  0
  -25.7210  -34.9220   23.3410 C   0  0  0  0  0  0  0  0  0  0  0  0
  -26.3490  -34.9160   22.2780 O   0  0  0  0  0  0  0  0  0  0  0  0
  -24.9220  -33.8860   24.8850 H   0  0  0  0  0  0  0  0  0  0  0  0
  -23.8750  -36.6220   23.1510 C   0  0  0  0  0  1  0  0  0  0  0  0
  -25.1690  -36.2510   23.8920 C   0  0  0  0  0  3  0  0  0  0  0  0
  -27.2740  -37.2260   24.7000 C   0  0  0  0  0  1  0  0  0  0  0  0
  -26.1310  -37.3710   23.8020 N   0  0  0  0  0  0  0  0  0  0  0  0
  -25.6750  -38.2560   24.0100 H   0  0  0  0  0  0  0  0  0  0  0  0
  -26.4840  -31.6550   24.8510 C   0  0  1  0  0  0  0  0  0  0  0  0
  -25.4470  -31.2840   25.9380 C   0  0  0  0  0  1  0  0  0  0  0  0
  -27.1450  -30.3450   24.3640 C   0  0  0  0  0  1  0  0  0  0  0  0
  -27.5990  -32.4900   25.5220 C   0  0  0  0  0  1  0  0  0  0  0  0
  1  2  2  0
  1  6  1  0
  2  3  1  0
  3  7  2  0
  3  4  1  0
  5  4  1  0
  6  5  1  0
  8  9  2  0
  8 11  1  0
  9 12  1  0
 11  6  1  0
 11 13  2  0
 12 24  1  0
 12 10  2  0
 13 10  1  0
 13 14  1  0
 15 24  1  0
 16 21  1  0
 17 18  1  0
 17 16  1  0
 19 18  1  0
 19 28  1  0
 19 20  1  0
 21 15  1  0
 21 20  1  0
 22 15  2  0
 24 23  1  0
 25 26  2  0
 26 45  1  0
 27 26  1  0
 27 30  1  0
 28 29  1  0
 28 25  1  0
 29 27  2  0
 30 31  1  0
 31 32  2  0
 33 36  1  0
 33 32  1  0
 34 33  2  0
 35 34  1  0
 35 30  2  0
 36 37  1  0
 37 42  2  0
 37 38  1  0
 38 39  2  0
 39 40  1  0
 40 44  1  0
 41 40  2  0
 42 41  1  0
 43 42  1  0
 45 46  1  0
 46 49  1  0
 46 48  1  0
 47 45  2  0
 50 25  1  0
 50 51  1  0
 52 50  1  0
 53 54  1  0
 53  2  1  0
 55 66  2  0
 56 54  1  0
 56 61  1  0
 57 65  1  0
 57 67  1  0
 58 64  1  0
 58 60  1  0
 59 65  1  0
 60 59  1  0
 61 60  2  0
 62 63  1  0
 62 56  2  0
 63 58  2  0
 64 57  1  0
 65 55  1  0
 67 69  2  0
 68 67  1  0
 70 68  1  0
 71 80  2  0
 71 76  1  0
 72 68  1  0
 72 76  1  0
 73 72  1  0
 74 75  1  0
 74 73  1  0
 75 71  1  0
 76 77  2  0
 77 78  1  0
 79 78  2  0
 80 79  1  0
 81 55  1  0
 81 82  1  0
 81 91  1  0
 82 85  1  0
 83 87  1  0
 83 82  1  0
 84 83  2  0
 87 86  1  0
 89 87  1  0
 89 90  1  0
 89 88  1  0
 91 94  1  1
 91 92  1  0
 93 91  1  0
M  ISO  4  15 100  24 100  53 101  54 101
M  END
>  <TORSDO>  (93) 
F 18

>  <SCORE>  (93) 
-13.136

>  <name>  (93) 
92

>  <ligand_id>  (93) 
92

>  <original_smiles>  (93) 
[H]C1=C(C([H])([H])Oc2c([H])c([H])c3c(c2[H])C([H])([H])N(C(=O)C([H])(N([H])C(=O)C([H])(N([H])C([H])([H])[H])C([H])([H])[H])C(C([H])([H])[H])(C([H])([H])[H])C([H])([H])[H])C([H])(C(=O)N([H])C2([H])c4c([H])c([H])c([H])c([H])c4C([H])([H])C([H])([H])C2([H])[H])C3([H])[H])C(=O)C([H])([H])C([H])([H])N1c1c([H])c([H])c(N(C(=O)N2C([H])([H])C([H])([H])C([H])([H])C([H])(n3nc(-c4c([H])c([H])c(Oc5c([H])c([H])c(F)c([H])c5F)c([H])c4[H])c(C(=O)N([H])[H])c3N([H])[H])C2([H])[H])C([H])([H])[H])c([H])c1F

>  <smiles>  (93) 
[H]C1=C(C([H])([H])Oc2c([H])c([H])c3c(c2[H])C([H])([H])N(C(=O)C([H])(N([H])C(=O)C([H])(N([H])C([H])([H])[H])C([H])([H])[H])C(C([H])([H])[H])(C([H])([H])[H])C([H])([H])[H])C([H])(C(=O)N([H])C2([H])c4c([H])c([H])c([H])c([H])c4C([H])([H])C([H])([H])C2([H])[H])C3([H])[H])C(=O)C([H])([H])C([H])([H])N1c1c([H])c([H])c(N(C(=O)N2C([H])([H])C([H])([H])C([H])([H])C([H])(n3nc(-c4c([H])c([H])c(Oc5c([H])c([H])c(F)c([H])c5F)c([H])c4[H])c(C(=O)N([H])[H])c3N([H])[H])C2([H])[H])C([H])([H])[H])c([H])c1F

$$$$
93:0:0
     RDKit          3D

 93101  0  0  1  0  0  0  0  0999 V2000
  -28.8980  -22.4830   20.3240 C   0  0  0  0  0  0  0  0  0  0  0  0
  -29.8840  -21.5360   20.2060 N   0  0  0  0  0  0  0  0  0  0  0  0
  -27.7080  -22.1670   20.4120 O   0  0  0  0  0  0  0  0  0  0  0  0
  -30.8070  -21.9130   20.0220 H   0  0  0  0  0  0  0  0  0  0  0  0
  -28.8050  -17.9020   20.8720 C   0  0  0  0  0  3  0  0  0  0  0  0
  -28.7630  -19.3200   20.7850 C   0  0  0  0  0  3  0  0  0  0  0  0
  -31.0240  -17.8920   19.9410 C   0  0  0  0  0  3  0  0  0  0  0  0
  -29.9280  -17.1430   20.4530 C   0  0  0  0  0  0  0  0  0  0  0  0
  -29.8530  -20.0710   20.2750 C   0  0  0  0  0  0  0  0  0  0  0  0
  -31.0000  -19.3300   19.8630 C   0  0  0  0  0  0  0  0  0  0  0  0
  -30.6250  -14.6570   20.1090 C   0  0  0  0  0  0  0  0  0  0  0  0
  -30.3530  -12.4610   18.9860 C   0  0  0  0  0  2  0  0  0  0  0  0
  -29.3530  -12.6420   17.8200 C   0  0  0  0  0  2  0  0  0  0  0  0
  -27.8970  -12.4830   18.3090 C   0  0  0  0  0  2  0  0  0  0  0  0
  -27.6030  -13.2950   19.5990 C   0  0  0  0  0  3  0  0  0  0  0  0
  -28.7130  -13.0800   20.6530 C   0  0  0  0  0  2  0  0  0  0  0  0
  -30.0010  -13.4400   20.0320 N   0  0  0  0  0  0  0  0  0  0  0  0
  -31.7590  -14.8310   19.6560 O   0  0  0  0  0  0  0  0  0  0  0  0
  -29.8500  -15.6860   20.5700 N   0  0  0  0  0  0  0  0  0  0  0  0
  -28.9850  -15.3490   20.9660 H   0  0  0  0  0  0  0  0  0  0  0  0
  -25.2390  -13.8730   20.4310 C   0  0  0  0  0  0  0  0  0  0  0  0
  -24.1900  -13.0930   20.8330 C   0  0  0  0  0  0  0  0  0  0  0  0
  -24.6510  -11.7430   20.7520 C   0  0  0  0  0  0  0  0  0  0  0  0
  -26.2750  -13.0020   20.1340 N   0  0  0  0  0  0  0  0  0  0  0  0
  -25.9260  -11.7120   20.3840 N   0  0  0  0  0  0  0  0  0  0  0  0
  -23.9330  -10.4770   20.9460 C   0  0  0  0  0  0  0  0  0  0  0  0
  -24.3690   -9.5180   21.8860 C   0  0  0  0  0  3  0  0  0  0  0  0
  -23.6540   -8.3140   22.0670 C   0  0  0  0  0  3  0  0  0  0  0  0
  -22.4860   -8.0620   21.3070 C   0  0  0  0  0  0  0  0  0  0  0  0
  -22.0700   -9.0100   20.3550 C   0  0  0  0  0  3  0  0  0  0  0  0
  -22.7870  -10.2040   20.1740 C   0  0  0  0  0  3  0  0  0  0  0  0
  -21.7420   -6.9120   21.3990 O   0  0  0  0  0  0  0  0  0  0  0  0
  -21.6380   -6.2110   22.5730 C   0  0  0  0  0  0  0  0  0  0  0  0
  -21.1230   -6.7980   23.7490 C   0  0  0  0  0  3  0  0  0  0  0  0
  -20.9720   -6.0210   24.9140 C   0  0  0  0  0  3  0  0  0  0  0  0
  -21.3260   -4.6570   24.9050 C   0  0  0  0  0  0  0  0  0  0  0  0
  -21.8340   -4.0700   23.7320 C   0  0  0  0  0  3  0  0  0  0  0  0
  -21.9870   -4.8450   22.5680 C   0  0  0  0  0  0  0  0  0  0  0  0
  -22.4580   -4.2680   21.4360 F   0  0  0  0  0  0  0  0  0  0  0  0
  -21.1720   -3.9080   26.0230 F   0  0  0  0  0  0  0  0  0  0  0  0
  -22.8070  -13.5630   21.1790 C   0  0  0  0  0  0  0  0  0  0  0  0
  -22.1170  -12.8510   22.0640 N   0  0  0  0  0  0  0  0  0  0  0  0
  -22.3450  -14.5970   20.6970 O   0  0  0  0  0  0  0  0  0  0  0  0
  -22.5030  -12.0150   22.4760 H   0  0  0  0  0  0  0  0  0  0  0  0
  -21.1900  -13.1480   22.3330 H   0  0  0  0  0  0  0  0  0  0  0  0
  -25.3900  -15.2490   20.2750 N   0  0  0  0  0  0  0  0  0  0  0  0
  -24.6130  -15.8840   20.4180 H   0  0  0  0  0  0  0  0  0  0  0  0
  -26.1960  -15.6960   19.8600 H   0  0  0  0  0  0  0  0  0  0  0  0
  -33.3140  -19.4330   19.1850 C   0  0  0  0  0  1  0  0  0  0  0  0
  -32.0570  -20.0760   19.3810 O   0  0  0  0  0  0  0  0  0  0  0  0
  -29.2740  -24.0190   20.3280 C   0  0  0  0  0  3  0  0  0  0  0  0
  -28.0910  -25.0570   20.1070 C   0  0  0  0  0  3  0  0  0  0  0  0
  -28.3370  -26.5160   20.2150 O   0  0  0  0  0  0  0  0  0  0  0  0
  -24.6220  -31.9030   23.2620 C   0  0  0  0  0  0  0  0  0  0  0  0
  -27.2180  -27.3670   20.1700 C   0  0  0  0  0  0  0  0  0  0  0  0
  -23.4130  -30.5280   21.6070 C   0  0  0  0  0  3  0  0  0  0  0  0
  -24.8570  -28.9850   20.1690 C   0  0  0  0  0  0  0  0  0  0  0  0
  -25.9540  -30.8370   21.4270 C   0  0  0  0  0  2  0  0  0  0  0  0
  -26.0280  -29.4630   20.7720 C   0  0  0  0  0  0  0  0  0  0  0  0
  -27.2110  -28.6660   20.7640 C   0  0  0  0  0  3  0  0  0  0  0  0
  -26.0190  -26.9420   19.5470 C   0  0  0  0  0  3  0  0  0  0  0  0
  -24.8550  -27.7280   19.5480 C   0  0  0  0  0  3  0  0  0  0  0  0
  -23.6240  -29.8610   20.2220 C   0  0  0  0  0  2  0  0  0  0  0  0
  -24.6820  -31.1070   22.1550 N   0  0  0  0  0  0  0  0  0  0  0  0
  -23.5400  -32.1810   23.7980 O   0  0  0  0  0  0  0  0  0  0  0  0
  -22.7460  -29.5050   22.5580 C   0  0  0  0  0  0  0  0  0  0  0  0
  -21.4190  -29.3320   22.4250 N   0  0  0  0  0  0  0  0  0  0  0  0
  -23.4210  -28.8700   23.3710 O   0  0  0  0  0  0  0  0  0  0  0  0
  -20.9340  -29.8970   21.7400 H   0  0  0  0  0  0  0  0  0  0  0  0
  -18.0310  -28.1650   22.9270 C   0  0  0  0  0  0  0  0  0  0  0  0
  -20.5950  -28.3950   23.1870 C   0  0  0  0  0  3  0  0  0  0  0  0
  -20.6800  -26.9690   22.5950 C   0  0  0  0  0  2  0  0  0  0  0  0
  -19.5690  -26.6700   21.5810 C   0  0  0  0  0  2  0  0  0  0  0  0
  -18.1910  -26.8230   22.2330 C   0  0  0  0  0  2  0  0  0  0  0  0
  -19.1610  -28.9100   23.3620 C   0  0  0  0  0  0  0  0  0  0  0  0
  -18.9570  -30.1670   23.9700 C   0  0  0  0  0  3  0  0  0  0  0  0
  -17.6600  -30.6820   24.1480 C   0  0  0  0  0  3  0  0  0  0  0  0
  -16.5460  -29.9350   23.7290 C   0  0  0  0  0  3  0  0  0  0  0  0
  -16.7330  -28.6780   23.1260 C   0  0  0  0  0  3  0  0  0  0  0  0
  -25.9080  -32.5240   23.8930 C   0  0  0  0  0  3  0  0  0  0  0  0
  -26.4150  -31.7380   25.1640 C   0  0  1  0  0  0  0  0  0  0  0  0
  -25.3180  -31.5020   26.2290 C   0  0  0  0  0  1  0  0  0  0  0  0
  -26.9890  -30.3600   24.7610 C   0  0  0  0  0  1  0  0  0  0  0  0
  -27.5750  -32.5140   25.8310 C   0  0  0  0  0  1  0  0  0  0  0  0
  -25.6070  -33.9200   24.2340 N   0  0  0  0  0  0  0  0  0  0  0  0
  -25.9200  -34.9740   23.4660 C   0  0  0  0  0  0  0  0  0  0  0  0
  -26.5610  -34.8710   22.4180 O   0  0  0  0  0  0  0  0  0  0  0  0
  -25.0400  -34.0760   25.0550 H   0  0  0  0  0  0  0  0  0  0  0  0
  -24.1710  -36.7540   23.1700 C   0  0  0  0  0  1  0  0  0  0  0  0
  -25.4450  -36.3620   23.9360 C   0  0  0  0  0  3  0  0  0  0  0  0
  -27.6040  -37.2620   24.6830 C   0  0  0  0  0  1  0  0  0  0  0  0
  -26.4680  -37.4180   23.7770 N   0  0  0  0  0  0  0  0  0  0  0  0
  -26.0640  -38.3380   23.9310 H   0  0  0  0  0  0  0  0  0  0  0  0
  1 51  1  0
  1  3  2  0
  2  9  1  0
  2  1  1  0
  4  2  1  0
  6  5  1  0
  7  8  1  0
  8 19  1  0
  8  5  2  0
  9  6  2  0
 10  7  2  0
 10  9  1  0
 11 19  1  0
 12 17  1  0
 13 14  1  0
 13 12  1  0
 15 14  1  0
 15 24  1  0
 15 16  1  0
 17 11  1  0
 17 16  1  0
 18 11  2  0
 19 20  1  0
 21 22  2  0
 22 41  1  0
 23 22  1  0
 23 26  1  0
 24 25  1  0
 24 21  1  0
 25 23  2  0
 26 27  1  0
 27 28  2  0
 29 32  1  0
 29 28  1  0
 30 29  2  0
 31 30  1  0
 31 26  2  0
 32 33  1  0
 33 34  1  0
 34 35  2  0
 36 35  1  0
 36 40  1  0
 37 36  2  0
 38 33  2  0
 38 37  1  0
 39 38  1  0
 41 42  1  0
 42 45  1  0
 42 44  1  0
 43 41  2  0
 46 47  1  0
 46 21  1  0
 48 46  1  0
 49 50  1  0
 50 10  1  0
 52 53  1  0
 52 51  2  0
 54 65  2  0
 55 53  1  0
 55 60  1  0
 56 64  1  0
 56 66  1  0
 57 63  1  0
 57 59  1  0
 58 64  1  0
 59 58  1  0
 60 59  2  0
 61 62  1  0
 61 55  2  0
 62 57  2  0
 63 56  1  0
 64 54  1  0
 66 68  2  0
 67 66  1  0
 69 67  1  0
 70 79  2  0
 70 75  1  0
 71 67  1  0
 71 75  1  0
 72 71  1  0
 73 74  1  0
 73 72  1  0
 74 70  1  0
 75 76  2  0
 76 77  1  0
 78 77  2  0
 79 78  1  0
 80 54  1  0
 80 85  1  0
 80 81  1  0
 81 84  1  1
 81 82  1  0
 83 81  1  0
 85 88  1  0
 86 90  1  0
 86 85  1  0
 87 86  2  0
 90 89  1  0
 92 93  1  0
 92 90  1  0
 92 91  1  0
M  ISO  4  11 100  19 100  52 101  53 101
M  END
>  <TORSDO>  (94) 
F 20

>  <SCORE>  (94) 
-13.664

>  <name>  (94) 
93

>  <ligand_id>  (94) 
93

>  <original_smiles>  (94) 
[H]c1c([H])c([H])c2c(c1[H])C([H])([H])C([H])([H])C([H])([H])C2([H])N([H])C(=O)C1([H])N(C(=O)C([H])(N([H])C(=O)C([H])(N([H])C([H])([H])[H])C([H])([H])[H])C(C([H])([H])[H])(C([H])([H])[H])C([H])([H])[H])C([H])([H])c2c([H])c(OC([H])([H])C([H])([H])C(=O)N([H])c3c([H])c([H])c(N([H])C(=O)N4C([H])([H])C([H])([H])C([H])([H])C([H])(n5nc(-c6c([H])c([H])c(Oc7c([H])c([H])c(F)c([H])c7F)c([H])c6[H])c(C(=O)N([H])[H])c5N([H])[H])C4([H])[H])c([H])c3OC([H])([H])[H])c([H])c([H])c2C1([H])[H]

>  <smiles>  (94) 
[H]c1c([H])c([H])c2c(c1[H])C([H])([H])C([H])([H])C([H])([H])C2([H])N([H])C(=O)C1([H])N(C(=O)C([H])(N([H])C(=O)C([H])(N([H])C([H])([H])[H])C([H])([H])[H])C(C([H])([H])[H])(C([H])([H])[H])C([H])([H])[H])C([H])([H])c2c([H])c(OC([H])([H])C([H])([H])C(=O)N([H])c3c([H])c([H])c(N([H])C(=O)N4C([H])([H])C([H])([H])C([H])([H])C([H])(n5nc(-c6c([H])c([H])c(Oc7c([H])c([H])c(F)c([H])c7F)c([H])c6[H])c(C(=O)N([H])[H])c5N([H])[H])C4([H])[H])c([H])c3OC([H])([H])[H])c([H])c([H])c2C1([H])[H]

$$$$
94:0:0
     RDKit          3D

 94103  0  0  1  0  0  0  0  0999 V2000
  -30.4300  -21.3620   21.2860 C   0  0  0  0  0  0  0  0  0  0  0  0
  -30.5550  -22.7660   21.9170 C   0  0  0  0  0  2  0  0  0  0  0  0
  -29.4200  -23.7660   21.6400 C   0  0  0  0  0  2  0  0  0  0  0  0
  -28.6410  -22.2550   19.8140 C   0  0  0  0  0  2  0  0  0  0  0  0
  -29.0760  -23.7750   20.1630 C   0  0  0  0  0  3  0  0  0  0  0  0
  -29.4680  -21.0760   20.3600 N   0  0  0  0  0  0  0  0  0  0  0  0
  -31.2900  -20.5470   21.6350 O   0  0  0  0  0  0  0  0  0  0  0  0
  -29.2640  -18.2540   17.7940 C   0  0  0  0  0  3  0  0  0  0  0  0
  -29.2090  -19.5210   18.4120 C   0  0  0  0  0  3  0  0  0  0  0  0
  -29.5230  -17.0830   18.5290 C   0  0  0  0  0  3  0  0  0  0  0  0
  -29.3910  -19.6790   19.8080 C   0  0  0  0  0  0  0  0  0  0  0  0
  -29.6760  -17.1240   19.9310 C   0  0  0  0  0  0  0  0  0  0  0  0
  -29.5540  -18.4290   20.5590 C   0  0  0  0  0  0  0  0  0  0  0  0
  -29.5650  -18.4710   21.9130 F   0  0  0  0  0  0  0  0  0  0  0  0
  -30.5730  -14.7310   20.3050 C   0  0  0  0  0  0  0  0  0  0  0  0
  -30.3850  -12.4670   19.2920 C   0  0  0  0  0  2  0  0  0  0  0  0
  -29.4430  -12.5920   18.0740 C   0  0  0  0  0  2  0  0  0  0  0  0
  -27.9690  -12.4370   18.5010 C   0  0  0  0  0  2  0  0  0  0  0  0
  -27.6170  -13.2950   19.7470 C   0  0  0  0  0  3  0  0  0  0  0  0
  -28.6750  -13.1410   20.8590 C   0  0  0  0  0  2  0  0  0  0  0  0
  -29.9760  -13.4930   20.2790 N   0  0  0  0  0  0  0  0  0  0  0  0
  -31.7390  -14.8670   19.9150 O   0  0  0  0  0  0  0  0  0  0  0  0
  -29.8010  -15.8300   20.6390 N   0  0  0  0  0  0  0  0  0  0  0  0
  -28.9940  -15.6060   21.2040 H   0  0  0  0  0  0  0  0  0  0  0  0
  -25.2290  -13.9060   20.4650 C   0  0  0  0  0  0  0  0  0  0  0  0
  -24.1600  -13.1410   20.8450 C   0  0  0  0  0  0  0  0  0  0  0  0
  -24.6160  -11.7880   20.8210 C   0  0  0  0  0  0  0  0  0  0  0  0
  -26.2680  -13.0200   20.2340 N   0  0  0  0  0  0  0  0  0  0  0  0
  -25.9060  -11.7400   20.5080 N   0  0  0  0  0  0  0  0  0  0  0  0
  -23.8840  -10.5310   21.0220 C   0  0  0  0  0  0  0  0  0  0  0  0
  -24.3220   -9.5630   21.9530 C   0  0  0  0  0  3  0  0  0  0  0  0
  -23.5940   -8.3670   22.1400 C   0  0  0  0  0  3  0  0  0  0  0  0
  -22.4130   -8.1340   21.3980 C   0  0  0  0  0  0  0  0  0  0  0  0
  -21.9930   -9.0890   20.4560 C   0  0  0  0  0  3  0  0  0  0  0  0
  -22.7220  -10.2770   20.2660 C   0  0  0  0  0  3  0  0  0  0  0  0
  -21.6490   -6.9950   21.4990 O   0  0  0  0  0  0  0  0  0  0  0  0
  -21.6110   -6.2530   22.6510 C   0  0  0  0  0  0  0  0  0  0  0  0
  -21.2090   -6.8080   23.8850 C   0  0  0  0  0  3  0  0  0  0  0  0
  -21.1210   -5.9930   25.0300 C   0  0  0  0  0  3  0  0  0  0  0  0
  -21.4210   -4.6190   24.9420 C   0  0  0  0  0  0  0  0  0  0  0  0
  -21.8150   -4.0630   23.7100 C   0  0  0  0  0  3  0  0  0  0  0  0
  -21.9060   -4.8760   22.5700 C   0  0  0  0  0  0  0  0  0  0  0  0
  -22.2670   -4.3290   21.3830 F   0  0  0  0  0  0  0  0  0  0  0  0
  -21.3270   -3.8340   26.0390 F   0  0  0  0  0  0  0  0  0  0  0  0
  -22.7670  -13.6270   21.1200 C   0  0  0  0  0  0  0  0  0  0  0  0
  -22.0350  -12.9420   21.9920 N   0  0  0  0  0  0  0  0  0  0  0  0
  -22.3330  -14.6500   20.5900 O   0  0  0  0  0  0  0  0  0  0  0  0
  -22.3980  -12.1140   22.4470 H   0  0  0  0  0  0  0  0  0  0  0  0
  -21.0990  -13.2490   22.2130 H   0  0  0  0  0  0  0  0  0  0  0  0
  -25.4030  -15.2720   20.2730 N   0  0  0  0  0  0  0  0  0  0  0  0
  -24.6390  -15.9320   20.3660 H   0  0  0  0  0  0  0  0  0  0  0  0
  -26.2480  -15.6960   19.9120 H   0  0  0  0  0  0  0  0  0  0  0  0
  -28.0530  -24.9740   19.8220 C   0  0  0  0  0  2  0  0  0  0  0  0
  -28.2850  -26.4110   20.1950 O   0  0  0  0  0  0  0  0  0  0  0  0
  -24.6070  -31.9080   23.2420 C   0  0  0  0  0  0  0  0  0  0  0  0
  -27.1860  -27.3020   20.1640 C   0  0  0  0  0  0  0  0  0  0  0  0
  -23.3960  -30.5130   21.6100 C   0  0  0  0  0  3  0  0  0  0  0  0
  -24.8330  -28.9520   20.1860 C   0  0  0  0  0  0  0  0  0  0  0  0
  -25.9430  -30.8040   21.4280 C   0  0  0  0  0  2  0  0  0  0  0  0
  -26.0120  -29.4240   20.7760 C   0  0  0  0  0  0  0  0  0  0  0  0
  -27.1900  -28.6100   20.7600 C   0  0  0  0  0  3  0  0  0  0  0  0
  -25.9770  -26.9020   19.5450 C   0  0  0  0  0  3  0  0  0  0  0  0
  -24.8170  -27.6950   19.5680 C   0  0  0  0  0  3  0  0  0  0  0  0
  -23.6030  -29.8350   20.2330 C   0  0  0  0  0  2  0  0  0  0  0  0
  -24.6670  -31.0940   22.1480 N   0  0  0  0  0  0  0  0  0  0  0  0
  -23.5240  -32.1940   23.7750 O   0  0  0  0  0  0  0  0  0  0  0  0
  -22.7270  -29.5030   22.5730 C   0  0  0  0  0  0  0  0  0  0  0  0
  -21.4020  -29.3320   22.4430 N   0  0  0  0  0  0  0  0  0  0  0  0
  -23.4010  -28.8810   23.3970 O   0  0  0  0  0  0  0  0  0  0  0  0
  -20.9200  -29.8830   21.7490 H   0  0  0  0  0  0  0  0  0  0  0  0
  -18.0160  -28.1480   22.9410 C   0  0  0  0  0  0  0  0  0  0  0  0
  -20.5750  -28.4020   23.2150 C   0  0  0  0  0  3  0  0  0  0  0  0
  -20.6740  -26.9680   22.6460 C   0  0  0  0  0  2  0  0  0  0  0  0
  -19.5720  -26.6400   21.6350 C   0  0  0  0  0  2  0  0  0  0  0  0
  -18.1900  -26.7940   22.2740 C   0  0  0  0  0  2  0  0  0  0  0  0
  -19.1370  -28.9080   23.3690 C   0  0  0  0  0  0  0  0  0  0  0  0
  -18.9200  -30.1750   23.9540 C   0  0  0  0  0  3  0  0  0  0  0  0
  -17.6150  -30.6780   24.1200 C   0  0  0  0  0  3  0  0  0  0  0  0
  -16.5090  -29.9130   23.7100 C   0  0  0  0  0  3  0  0  0  0  0  0
  -16.7100  -28.6510   23.1240 C   0  0  0  0  0  3  0  0  0  0  0  0
  -25.8900  -32.5390   23.8640 C   0  0  0  0  0  3  0  0  0  0  0  0
  -25.5830  -33.9360   24.1960 N   0  0  0  0  0  0  0  0  0  0  0  0
  -25.9080  -34.9900   23.4350 C   0  0  0  0  0  0  0  0  0  0  0  0
  -26.5670  -34.8870   22.3970 O   0  0  0  0  0  0  0  0  0  0  0  0
  -25.0020  -34.0900   25.0070 H   0  0  0  0  0  0  0  0  0  0  0  0
  -24.1760  -36.7830   23.1030 C   0  0  0  0  0  1  0  0  0  0  0  0
  -25.4260  -36.3780   23.8980 C   0  0  0  0  0  3  0  0  0  0  0  0
  -27.5720  -37.2630   24.6980 C   0  0  0  0  0  1  0  0  0  0  0  0
  -26.4550  -37.4330   23.7720 N   0  0  0  0  0  0  0  0  0  0  0  0
  -26.0510  -38.3530   23.9230 H   0  0  0  0  0  0  0  0  0  0  0  0
  -26.4020  -31.7650   25.1410 C   0  0  1  0  0  0  0  0  0  0  0  0
  -25.3080  -31.5310   26.2120 C   0  0  0  0  0  1  0  0  0  0  0  0
  -26.9770  -30.3840   24.7540 C   0  0  0  0  0  1  0  0  0  0  0  0
  -27.5570  -32.5570   25.7970 C   0  0  0  0  0  1  0  0  0  0  0  0
  1  7  2  0
  1  2  1  0
  3  2  1  0
  4  5  1  0
  4  6  1  0
  5 53  1  0
  5  3  1  0
  6  1  1  0
  8  9  2  0
  8 10  1  0
  9 11  1  0
 10 12  2  0
 11  6  1  0
 11 13  2  0
 12 13  1  0
 12 23  1  0
 13 14  1  0
 15 23  1  0
 16 21  1  0
 17 18  1  0
 17 16  1  0
 19 18  1  0
 19 28  1  0
 19 20  1  0
 21 15  1  0
 21 20  1  0
 22 15  2  0
 23 24  1  0
 25 26  2  0
 26 45  1  0
 27 26  1  0
 27 30  1  0
 28 25  1  0
 28 29  1  0
 29 27  2  0
 30 31  1  0
 31 32  2  0
 33 36  1  0
 33 32  1  0
 34 33  2  0
 35 34  1  0
 35 30  2  0
 36 37  1  0
 37 38  1  0
 38 39  2  0
 40 39  1  0
 40 44  1  0
 41 40  2  0
 42 37  2  0
 42 41  1  0
 43 42  1  0
 45 46  1  0
 46 49  1  0
 46 48  1  0
 47 45  2  0
 50 51  1  0
 50 25  1  0
 52 50  1  0
 53 54  1  0
 55 66  2  0
 56 54  1  0
 56 61  1  0
 57 65  1  0
 57 67  1  0
 58 64  1  0
 58 60  1  0
 59 65  1  0
 60 59  1  0
 61 60  2  0
 62 63  1  0
 62 56  2  0
 63 58  2  0
 64 57  1  0
 65 55  1  0
 67 69  2  0
 68 67  1  0
 70 68  1  0
 71 80  2  0
 71 76  1  0
 72 68  1  0
 72 76  1  0
 73 72  1  0
 74 75  1  0
 74 73  1  0
 75 71  1  0
 76 77  2  0
 77 78  1  0
 79 78  2  0
 80 79  1  0
 81 55  1  0
 81 82  1  0
 81 91  1  0
 82 85  1  0
 83 87  1  0
 83 82  1  0
 84 83  2  0
 87 86  1  0
 89 87  1  0
 89 90  1  0
 89 88  1  0
 91 94  1  1
 91 92  1  0
 93 91  1  0
M  ISO  4  15 100  23 100  53 101  54 101
M  END
>  <TORSDO>  (95) 
F 18

>  <SCORE>  (95) 
-14.575

>  <name>  (95) 
94

>  <ligand_id>  (95) 
94

>  <original_smiles>  (95) 
[H]c1c([H])c(N([H])C(=O)N2C([H])([H])C([H])([H])C([H])([H])C([H])(n3nc(-c4c([H])c([H])c(Oc5c([H])c([H])c(F)c([H])c5F)c([H])c4[H])c(C(=O)N([H])[H])c3N([H])[H])C2([H])[H])c(F)c(N2C(=O)C([H])([H])C([H])([H])C([H])(C([H])([H])Oc3c([H])c([H])c4c(c3[H])C([H])([H])N(C(=O)C([H])(N([H])C(=O)C([H])(N([H])C([H])([H])[H])C([H])([H])[H])C(C([H])([H])[H])(C([H])([H])[H])C([H])([H])[H])C([H])(C(=O)N([H])C3([H])c5c([H])c([H])c([H])c([H])c5C([H])([H])C([H])([H])C3([H])[H])C4([H])[H])C2([H])[H])c1[H]

>  <smiles>  (95) 
[H]c1c([H])c(N([H])C(=O)N2C([H])([H])C([H])([H])C([H])([H])C([H])(n3nc(-c4c([H])c([H])c(Oc5c([H])c([H])c(F)c([H])c5F)c([H])c4[H])c(C(=O)N([H])[H])c3N([H])[H])C2([H])[H])c(F)c(N2C(=O)C([H])([H])C([H])([H])C([H])(C([H])([H])Oc3c([H])c([H])c4c(c3[H])C([H])([H])N(C(=O)C([H])(N([H])C(=O)C([H])(N([H])C([H])([H])[H])C([H])([H])[H])C(C([H])([H])[H])(C([H])([H])[H])C([H])([H])[H])C([H])(C(=O)N([H])C3([H])c5c([H])c([H])c([H])c([H])c5C([H])([H])C([H])([H])C3([H])[H])C4([H])[H])C2([H])[H])c1[H]

$$$$
