0:0:0
     RDKit          3D

 93100  0  0  1  0  0  0  0  0999 V2000
  -30.0880  -18.4170   20.3280 C   0  0  0  0  0  3  0  0  0  0  0  0
  -27.3480  -18.0030   20.0210 C   0  0  0  0  0  3  0  0  0  0  0  0
  -29.5710  -17.0520   20.4670 C   0  0  0  0  0  0  0  0  0  0  0  0
  -27.8650  -19.2890   19.7910 C   0  0  0  0  0  0  0  0  0  0  0  0
  -29.2320  -19.5870   20.0500 C   0  0  0  0  0  0  0  0  0  0  0  0
  -28.1740  -16.9350   20.4000 C   0  0  0  0  0  3  0  0  0  0  0  0
  -27.6110  -15.7480   20.7190 F   0  0  0  0  0 15  0  0  0  0  0  0
  -30.7800  -14.6780   20.2350 C   0  0  0  0  0  0  0  0  0  0  0  0
  -30.5780  -12.3290   19.3570 C   0  0  0  0  0  2  0  0  0  0  0  0
  -29.6470  -12.3200   18.1220 C   0  0  0  0  0  2  0  0  0  0  0  0
  -28.1700  -12.1940   18.5420 C   0  0  0  0  0  2  0  0  0  0  0  0
  -27.7960  -13.1660   19.6940 C   0  0  0  0  0  3  0  0  0  0  0  0
  -28.8450  -13.1130   20.8320 C   0  0  0  0  0  2  0  0  0  0  0  0
  -30.1610  -13.4380   20.2540 N   0  0  0  0  0  0  0  0  0  0  0  0
  -31.8850  -14.8010   19.6990 O   0  0  0  0  0  0  0  0  0  0  0  0
  -30.1670  -15.7420   20.8740 N   0  0  0  0  0  0  0  0  0  0  0  0
  -29.5080  -15.3140   21.5100 H   0  0  0  0  0  0  0  0  0  0  0  0
  -25.4020  -13.8390   20.3510 C   0  0  0  0  0  0  0  0  0  0  0  0
  -24.3170  -13.1130   20.7480 C   0  0  0  0  0  0  0  0  0  0  0  0
  -24.7430  -11.7500   20.7650 C   0  0  0  0  0  0  0  0  0  0  0  0
  -26.4350  -12.9320   20.1760 N   0  0  0  0  0  0  0  0  0  0  0  0
  -26.0370  -11.6670   20.4750 N   0  0  0  0  0  0  0  0  0  0  0  0
  -23.9740  -10.5200   20.9830 C   0  0  0  0  0  0  0  0  0  0  0  0
  -24.3890   -9.5450   21.9160 C   0  0  0  0  0  3  0  0  0  0  0  0
  -23.6190   -8.3800   22.1210 C   0  0  0  0  0  3  0  0  0  0  0  0
  -22.4200   -8.1840   21.3970 C   0  0  0  0  0  0  0  0  0  0  0  0
  -22.0220   -9.1480   20.4540 C   0  0  0  0  0  3  0  0  0  0  0  0
  -22.7930  -10.3040   20.2450 C   0  0  0  0  0  3  0  0  0  0  0  0
  -21.6220   -7.0720   21.5120 O   0  0  0  0  0  0  0  0  0  0  0  0
  -21.6040   -6.3160   22.6570 C   0  0  0  0  0  0  0  0  0  0  0  0
  -21.2720   -6.8700   23.9110 C   0  0  0  0  0  3  0  0  0  0  0  0
  -21.1980   -6.0440   25.0500 C   0  0  0  0  0  3  0  0  0  0  0  0
  -21.4480   -4.6630   24.9350 C   0  0  0  0  0  0  0  0  0  0  0  0
  -21.7750   -4.1070   23.6850 C   0  0  0  0  0  3  0  0  0  0  0  0
  -21.8500   -4.9320   22.5490 C   0  0  0  0  0  0  0  0  0  0  0  0
  -22.1450   -4.3880   21.3430 F   0  0  0  0  0  0  0  0  0  0  0  0
  -21.3700   -3.8660   26.0260 F   0  0  0  0  0  0  0  0  0  0  0  0
  -22.9370  -13.6450   21.0060 C   0  0  0  0  0  0  0  0  0  0  0  0
  -22.1930  -13.0110   21.9040 N   0  0  0  0  0  0  0  0  0  0  0  0
  -22.5300  -14.6660   20.4510 O   0  0  0  0  0  0  0  0  0  0  0  0
  -22.5350  -12.1880   22.3790 H   0  0  0  0  0  0  0  0  0  0  0  0
  -21.2690  -13.3530   22.1230 H   0  0  0  0  0  0  0  0  0  0  0  0
  -25.5790  -15.1920   20.1060 N   0  0  0  0  0  0  0  0  0  0  0  0
  -24.8370  -15.8330   20.3570 H   0  0  0  0  0  0  0  0  0  0  0  0
  -26.5010  -15.5780   20.2780 H   0  0  0  0  0  0  0  0  0  0  0  0
  -26.9930  -20.2330   19.2490 N   0  0  0  0  0  0  0  0  0  0  0  0
  -26.1610  -19.8980   18.7760 H   0  0  0  0  0  0  0  0  0  0  0  0
  -27.4200  -21.0190   18.7700 H   0  0  0  0  0  0  0  0  0  0  0  0
  -29.6940  -20.9460   19.9320 O   0  0  0  0  0  0  0  0  0  0  0  0
  -29.0060  -22.1510   20.5430 C   0  0  0  0  0  2  0  0  0  0  0  0
  -29.0290  -23.6350   19.8550 C   0  0  0  0  0  3  0  0  0  0  0  0
  -28.2120  -24.8840   20.5190 C   0  0  0  0  0  3  0  0  0  0  0  0
  -28.4100  -26.3350   20.1410 O   0  0  0  0  0  0  0  0  0  0  0  0
  -24.6820  -31.7540   23.2850 C   0  0  0  0  0  0  0  0  0  0  0  0
  -27.3100  -27.2260   20.1470 C   0  0  0  0  0  0  0  0  0  0  0  0
  -23.5030  -30.4310   21.5670 C   0  0  0  0  0  3  0  0  0  0  0  0
  -24.9700  -28.9010   20.1260 C   0  0  0  0  0  0  0  0  0  0  0  0
  -26.0530  -30.7100   21.4580 C   0  0  0  0  0  2  0  0  0  0  0  0
  -26.1330  -29.3480   20.7670 C   0  0  0  0  0  0  0  0  0  0  0  0
  -27.3080  -28.5270   20.7600 C   0  0  0  0  0  3  0  0  0  0  0  0
  -26.1250  -26.8450   19.4830 C   0  0  0  0  0  3  0  0  0  0  0  0
  -24.9710  -27.6580   19.4720 C   0  0  0  0  0  3  0  0  0  0  0  0
  -23.7440  -29.7960   20.1710 C   0  0  0  0  0  2  0  0  0  0  0  0
  -24.7640  -30.9820   22.1620 N   0  0  0  0  0  0  0  0  0  0  0  0
  -23.5900  -32.0280   23.8030 O   0  0  0  0  0  0  0  0  0  0  0  0
  -22.7990  -29.3950   22.4780 C   0  0  0  0  0  0  0  0  0  0  0  0
  -21.4680  -29.2670   22.3370 N   0  0  0  0  0  0  0  0  0  0  0  0
  -23.4520  -28.7100   23.2700 O   0  0  0  0  0  0  0  0  0  0  0  0
  -21.0020  -29.8690   21.6730 H   0  0  0  0  0  0  0  0  0  0  0  0
  -18.0470  -28.1800   22.7980 C   0  0  0  0  0  0  0  0  0  0  0  0
  -20.6170  -28.3190   23.0590 C   0  0  0  0  0  3  0  0  0  0  0  0
  -20.6550  -26.9210   22.3970 C   0  0  0  0  0  2  0  0  0  0  0  0
  -19.5330  -26.7060   21.3760 C   0  0  0  0  0  2  0  0  0  0  0  0
  -18.1640  -26.8680   22.0410 C   0  0  0  0  0  2  0  0  0  0  0  0
  -19.2000  -28.8690   23.2630 C   0  0  0  0  0  0  0  0  0  0  0  0
  -19.0370  -30.1000   23.9330 C   0  0  0  0  0  3  0  0  0  0  0  0
  -17.7550  -30.6430   24.1420 C   0  0  0  0  0  3  0  0  0  0  0  0
  -16.6170  -29.9500   23.6930 C   0  0  0  0  0  3  0  0  0  0  0  0
  -16.7640  -28.7200   23.0270 C   0  0  0  0  0  3  0  0  0  0  0  0
  -25.9570  -32.3480   23.9620 C   0  0  0  0  0  3  0  0  0  0  0  0
  -25.6640  -33.7440   24.3160 N   0  0  0  0  0  0  0  0  0  0  0  0
  -26.0360  -34.8090   23.5940 C   0  0  0  0  0  0  0  0  0  0  0  0
  -26.7310  -34.7180   22.5780 O   0  0  0  0  0  0  0  0  0  0  0  0
  -25.0510  -33.8900   25.1050 H   0  0  0  0  0  0  0  0  0  0  0  0
  -24.3420  -36.6390   23.2540 C   0  0  0  0  0  1  0  0  0  0  0  0
  -25.5650  -36.1960   24.0740 C   0  0  0  0  0  3  0  0  0  0  0  0
  -27.6990  -37.0320   24.9550 C   0  0  0  0  0  1  0  0  0  0  0  0
  -26.6150  -37.2340   23.9980 N   0  0  0  0  0  0  0  0  0  0  0  0
  -26.2220  -38.1580   24.1560 H   0  0  0  0  0  0  0  0  0  0  0  0
  -26.4180  -31.5390   25.2360 C   0  0  1  0  0  0  0  0  0  0  0  0
  -25.2870  -31.3010   26.2640 C   0  0  0  0  0  1  0  0  0  0  0  0
  -26.9850  -30.1580   24.8330 C   0  0  0  0  0  1  0  0  0  0  0  0
  -27.5620  -32.2940   25.9520 C   0  0  0  0  0  1  0  0  0  0  0  0
  1  3  1  0
  2  6  1  0
  3 16  1  0
  4  2  2  0
  4  5  1  0
  5  1  2  0
  6  3  2  0
  8 14  1  0
  8 16  1  0
  9 14  1  0
 10 11  1  0
 10  9  1  0
 12 11  1  0
 12 21  1  0
 12 13  1  0
 14 13  1  0
 15  8  2  0
 16 17  1  0
 18 19  2  0
 19 20  1  0
 19 38  1  0
 20 23  1  0
 21 18  1  0
 21 22  1  0
 22 20  2  0
 23 24  1  0
 24 25  2  0
 26 29  1  0
 26 25  1  0
 27 26  2  0
 28 27  1  0
 28 23  2  0
 29 30  1  0
 30 31  1  0
 31 32  2  0
 33 32  1  0
 33 37  1  0
 34 33  2  0
 35 30  2  0
 35 34  1  0
 36 35  1  0
 38 39  1  0
 39 42  1  0
 39 41  1  0
 40 38  2  0
 43 45  1  0
 43 18  1  0
 43 44  1  0
 46  4  1  0
 47 46  1  0
 48 46  1  0
 49  5  1  0
 49 50  1  0
 51 52  2  0
 51 50  1  0
 53 55  1  0
 53 52  1  0
 54 65  2  0
 55 60  1  0
 56 64  1  0
 56 66  1  0
 57 63  1  0
 57 59  1  0
 58 64  1  0
 59 58  1  0
 60 59  2  0
 61 55  2  0
 62 61  1  0
 62 57  2  0
 63 56  1  0
 64 54  1  0
 66 68  2  0
 67 66  1  0
 69 67  1  0
 70 79  2  0
 70 75  1  0
 71 67  1  0
 71 75  1  0
 72 71  1  0
 73 74  1  0
 73 72  1  0
 74 70  1  0
 75 76  2  0
 76 77  1  0
 78 77  2  0
 79 78  1  0
 80 54  1  0
 80 81  1  0
 80 90  1  0
 81 84  1  0
 82 86  1  0
 82 81  1  0
 83 82  2  0
 86 85  1  0
 88 86  1  0
 88 89  1  0
 88 87  1  0
 90 93  1  1
 90 91  1  0
 92 90  1  0
M  ISO  4   8 100  16 100  52 101  53 101
M  END
>  <TORSDO>  (1) 
F 21

>  <SCORE>  (1) 
-13.760

>  <name>  (1) 
0

>  <ligand_id>  (1) 
0

>  <original_smiles>  (1) 
[H]c1c([H])c([H])c2c(c1[H])C([H])([H])C([H])([H])C([H])([H])C2([H])N([H])C(=O)C1([H])N(C(=O)C([H])(N([H])C(=O)C([H])(N([H])C([H])([H])[H])C([H])([H])[H])C(C([H])([H])[H])(C([H])([H])[H])C([H])([H])[H])C([H])([H])c2c([H])c(OC([H])([H])C([H])([H])C([H])([H])Oc3c([H])c(N([H])C(=O)N4C([H])([H])C([H])([H])C([H])([H])C([H])(n5nc(-c6c([H])c([H])c(Oc7c([H])c([H])c(F)c([H])c7F)c([H])c6[H])c(C(=O)N([H])[H])c5N([H])[H])C4([H])[H])c(F)c([H])c3N([H])[H])c([H])c([H])c2C1([H])[H]

>  <smiles>  (1) 
[H]c1c([H])c([H])c2c(c1[H])C([H])([H])C([H])([H])C([H])([H])C2([H])N([H])C(=O)C1([H])N(C(=O)C([H])(N([H])C(=O)C([H])(N([H])C([H])([H])[H])C([H])([H])[H])C(C([H])([H])[H])(C([H])([H])[H])C([H])([H])[H])C([H])([H])c2c([H])c(OC([H])([H])C([H])([H])C([H])([H])Oc3c([H])c(N([H])C(=O)N4C([H])([H])C([H])([H])C([H])([H])C([H])(n5nc(-c6c([H])c([H])c(Oc7c([H])c([H])c(F)c([H])c7F)c([H])c6[H])c(C(=O)N([H])[H])c5N([H])[H])C4([H])[H])c(F)c([H])c3N([H])[H])c([H])c([H])c2C1([H])[H]

$$$$
1:0:0
     RDKit          3D

 97106  0  0  1  0  0  0  0  0999 V2000
  -28.8310  -19.3800   20.1180 C   0  0  0  0  0  3  0  0  0  0  0  0
  -30.8990  -17.9610   21.3750 C   0  0  0  0  0  3  0  0  0  0  0  0
  -29.8180  -20.1560   20.7850 C   0  0  0  0  0  0  0  0  0  0  0  0
  -28.8560  -17.9490   20.1020 C   0  0  0  0  0  0  0  0  0  0  0  0
  -30.8690  -19.3920   21.3970 C   0  0  0  0  0  0  0  0  0  0  0  0
  -29.8860  -17.2050   20.7380 C   0  0  0  0  0  0  0  0  0  0  0  0
  -30.5860  -14.7190   20.4840 C   0  0  0  0  0  0  0  0  0  0  0  0
  -30.3910  -12.5130   19.3470 C   0  0  0  0  0  2  0  0  0  0  0  0
  -29.4370  -12.6680   18.1420 C   0  0  0  0  0  2  0  0  0  0  0  0
  -27.9650  -12.4930   18.5690 C   0  0  0  0  0  2  0  0  0  0  0  0
  -27.6080  -13.3170   19.8340 C   0  0  0  0  0  3  0  0  0  0  0  0
  -28.6730  -13.1300   20.9390 C   0  0  0  0  0  2  0  0  0  0  0  0
  -29.9790  -13.4960   20.3680 N   0  0  0  0  0  0  0  0  0  0  0  0
  -31.7540  -14.8990   20.1270 O   0  0  0  0  0  0  0  0  0  0  0  0
  -29.7540  -15.7520   20.8190 N   0  0  0  0  0  0  0  0  0  0  0  0
  -28.8000  -15.4560   20.9590 H   0  0  0  0  0  0  0  0  0  0  0  0
  -25.2100  -13.8970   20.5580 C   0  0  0  0  0  0  0  0  0  0  0  0
  -24.1480  -13.1130   20.9200 C   0  0  0  0  0  0  0  0  0  0  0  0
  -24.6190  -11.7640   20.8780 C   0  0  0  0  0  0  0  0  0  0  0  0
  -26.2610  -13.0250   20.3160 N   0  0  0  0  0  0  0  0  0  0  0  0
  -25.9100  -11.7370   20.5690 N   0  0  0  0  0  0  0  0  0  0  0  0
  -23.9000  -10.4950   21.0560 C   0  0  0  0  0  0  0  0  0  0  0  0
  -24.3220   -9.5340   22.0020 C   0  0  0  0  0  3  0  0  0  0  0  0
  -23.6050   -8.3300   22.1680 C   0  0  0  0  0  3  0  0  0  0  0  0
  -22.4520   -8.0770   21.3860 C   0  0  0  0  0  0  0  0  0  0  0  0
  -22.0500   -9.0270   20.4310 C   0  0  0  0  0  3  0  0  0  0  0  0
  -22.7670  -10.2230   20.2640 C   0  0  0  0  0  3  0  0  0  0  0  0
  -21.7070   -6.9260   21.4610 O   0  0  0  0  0  0  0  0  0  0  0  0
  -21.6160   -6.2020   22.6230 C   0  0  0  0  0  0  0  0  0  0  0  0
  -21.0290   -6.7380   23.7900 C   0  0  0  0  0  3  0  0  0  0  0  0
  -20.8920   -5.9340   24.9400 C   0  0  0  0  0  3  0  0  0  0  0  0
  -21.3320   -4.5970   24.9210 C   0  0  0  0  0  0  0  0  0  0  0  0
  -21.9120   -4.0620   23.7580 C   0  0  0  0  0  3  0  0  0  0  0  0
  -22.0510   -4.8610   22.6100 C   0  0  0  0  0  0  0  0  0  0  0  0
  -22.5900   -4.3350   21.4850 F   0  0  0  0  0  0  0  0  0  0  0  0
  -21.1940   -3.8210   26.0220 F   0  0  0  0  0  0  0  0  0  0  0  0
  -22.7470  -13.5770   21.1960 C   0  0  0  0  0  0  0  0  0  0  0  0
  -22.0190  -12.8640   22.0480 N   0  0  0  0  0  0  0  0  0  0  0  0
  -22.3050  -14.6070   20.6870 O   0  0  0  0  0  0  0  0  0  0  0  0
  -22.3860  -12.0260   22.4750 H   0  0  0  0  0  0  0  0  0  0  0  0
  -21.0800  -13.1600   22.2750 H   0  0  0  0  0  0  0  0  0  0  0  0
  -25.3570  -15.2710   20.3970 N   0  0  0  0  0  0  0  0  0  0  0  0
  -24.5670  -15.8980   20.5090 H   0  0  0  0  0  0  0  0  0  0  0  0
  -26.1990  -15.7620   20.1090 H   0  0  0  0  0  0  0  0  0  0  0  0
  -29.2960  -23.7290   21.9350 C   0  0  0  0  0  2  0  0  0  0  0  0
  -29.9910  -22.3520   22.0750 C   0  0  0  0  0  2  0  0  0  0  0  0
  -28.9810  -22.5010   19.9420 C   0  0  0  0  0  2  0  0  0  0  0  0
  -29.2000  -23.9890   20.4310 C   0  0  0  0  0  3  0  0  0  0  0  0
  -29.7650  -21.6080   20.8310 N   0  0  0  0  0  0  0  0  0  0  0  0
  -28.1430  -25.0940   19.9880 C   0  0  0  0  0  2  0  0  0  0  0  0
  -28.3410  -26.5330   20.3010 O   0  0  0  0  0  0  0  0  0  0  0  0
  -24.5820  -31.9600   23.2390 C   0  0  0  0  0  0  0  0  0  0  0  0
  -27.2180  -27.3790   20.2340 C   0  0  0  0  0  0  0  0  0  0  0  0
  -23.3880  -30.5400   21.6120 C   0  0  0  0  0  3  0  0  0  0  0  0
  -24.8470  -28.9830   20.2070 C   0  0  0  0  0  0  0  0  0  0  0  0
  -25.9300  -30.8640   21.4360 C   0  0  0  0  0  2  0  0  0  0  0  0
  -26.0140  -29.4810   20.8000 C   0  0  0  0  0  0  0  0  0  0  0  0
  -27.2020  -28.6900   20.8040 C   0  0  0  0  0  3  0  0  0  0  0  0
  -26.0230  -26.9390   19.6170 C   0  0  0  0  0  3  0  0  0  0  0  0
  -24.8540  -27.7160   19.6070 C   0  0  0  0  0  3  0  0  0  0  0  0
  -23.6070  -29.8520   20.2400 C   0  0  0  0  0  2  0  0  0  0  0  0
  -24.6520  -31.1390   22.1520 N   0  0  0  0  0  0  0  0  0  0  0  0
  -23.4950  -32.2400   23.7660 O   0  0  0  0  0  0  0  0  0  0  0  0
  -22.7270  -29.5290   22.5810 C   0  0  0  0  0  0  0  0  0  0  0  0
  -21.4040  -29.3320   22.4380 N   0  0  0  0  0  0  0  0  0  0  0  0
  -23.4020  -28.9260   23.4170 O   0  0  0  0  0  0  0  0  0  0  0  0
  -20.9180  -29.8700   21.7340 H   0  0  0  0  0  0  0  0  0  0  0  0
  -18.0260  -28.1510   22.9620 C   0  0  0  0  0  0  0  0  0  0  0  0
  -20.5860  -28.4000   23.2160 C   0  0  0  0  0  3  0  0  0  0  0  0
  -20.6790  -26.9670   22.6440 C   0  0  0  0  0  2  0  0  0  0  0  0
  -19.5700  -26.6470   21.6360 C   0  0  0  0  0  2  0  0  0  0  0  0
  -18.1920  -26.7990   22.2870 C   0  0  0  0  0  2  0  0  0  0  0  0
  -19.1500  -28.9090   23.3830 C   0  0  0  0  0  0  0  0  0  0  0  0
  -18.9400  -30.1740   23.9740 C   0  0  0  0  0  3  0  0  0  0  0  0
  -17.6380  -30.6820   24.1450 C   0  0  0  0  0  3  0  0  0  0  0  0
  -16.5280  -29.9200   23.7410 C   0  0  0  0  0  3  0  0  0  0  0  0
  -16.7230  -28.6560   23.1560 C   0  0  0  0  0  3  0  0  0  0  0  0
  -25.8600  -32.6050   23.8580 C   0  0  0  0  0  3  0  0  0  0  0  0
  -26.3960  -31.8290   25.1240 C   0  0  1  0  0  0  0  0  0  0  0  0
  -25.3090  -31.5450   26.1870 C   0  0  0  0  0  1  0  0  0  0  0  0
  -27.0160  -30.4720   24.7140 C   0  0  0  0  0  1  0  0  0  0  0  0
  -27.5270  -32.6410   25.7960 C   0  0  0  0  0  1  0  0  0  0  0  0
  -25.5300  -33.9950   24.2060 N   0  0  0  0  0  0  0  0  0  0  0  0
  -25.8470  -35.0620   23.4590 C   0  0  0  0  0  0  0  0  0  0  0  0
  -26.5170  -34.9810   22.4270 O   0  0  0  0  0  0  0  0  0  0  0  0
  -24.9370  -34.1300   25.0110 H   0  0  0  0  0  0  0  0  0  0  0  0
  -24.1220  -36.8560   23.0920 C   0  0  0  0  0  1  0  0  0  0  0  0
  -25.3390  -36.4370   23.9340 C   0  0  0  0  0  3  0  0  0  0  0  0
  -27.4310  -37.3220   24.8680 C   0  0  0  0  0  1  0  0  0  0  0  0
  -26.3710  -37.4970   23.8790 N   0  0  0  0  0  0  0  0  0  0  0  0
  -25.9550  -38.4140   24.0180 H   0  0  0  0  0  0  0  0  0  0  0  0
  -27.8490  -17.2460   19.4380 N   0  0  0  0  0  0  0  0  0  0  0  0
  -27.2470  -17.8090   18.8430 H   0  0  0  0  0  0  0  0  0  0  0  0
  -28.1870  -16.4410   18.9260 H   0  0  0  0  0  0  0  0  0  0  0  0
  -31.9270  -20.0450   22.0270 N   0  0  0  0  0  0  0  0  0  0  0  0
  -32.8190  -19.5660   22.0570 H   0  0  0  0  0  0  0  0  0  0  0  0
  -32.0200  -21.0180   21.7570 H   0  0  0  0  0  0  0  0  0  0  0  0
  1  3  1  0
  2  5  1  0
  3 49  1  0
  3  5  2  0
  4  1  2  0
  4  6  1  0
  5 95  1  0
  6 15  1  0
  6  2  2  0
  7 15  1  0
  8 13  1  0
  9 10  1  0
  9  8  1  0
 11 10  1  0
 11 20  1  0
 11 12  1  0
 13  7  1  0
 13 12  1  0
 14  7  2  0
 15 16  1  0
 17 18  2  0
 18 37  1  0
 19 18  1  0
 19 22  1  0
 20 17  1  0
 20 21  1  0
 21 19  2  0
 22 23  1  0
 23 24  2  0
 25 28  1  0
 25 24  1  0
 26 25  2  0
 27 26  1  0
 27 22  2  0
 28 29  1  0
 29 30  1  0
 30 31  2  0
 32 31  1  0
 32 36  1  0
 33 32  2  0
 34 29  2  0
 34 33  1  0
 35 34  1  0
 37 38  1  0
 38 41  1  0
 38 40  1  0
 39 37  2  0
 42 43  1  0
 42 17  1  0
 44 42  1  0
 45 46  1  0
 47 48  1  0
 47 49  1  0
 48 50  1  0
 48 45  1  0
 49 46  1  0
 50 51  1  0
 52 63  2  0
 53 51  1  0
 53 58  1  0
 54 62  1  0
 54 64  1  0
 55 61  1  0
 55 57  1  0
 56 62  1  0
 57 58  2  0
 57 56  1  0
 59 53  2  0
 60 59  1  0
 60 55  2  0
 61 54  1  0
 62 52  1  0
 64 66  2  0
 65 64  1  0
 67 65  1  0
 68 77  2  0
 68 73  1  0
 69 65  1  0
 69 73  1  0
 70 69  1  0
 71 72  1  0
 71 70  1  0
 72 68  1  0
 73 74  2  0
 74 75  1  0
 76 75  2  0
 77 76  1  0
 78 52  1  0
 78 83  1  0
 78 79  1  0
 79 82  1  1
 79 80  1  0
 81 79  1  0
 83 86  1  0
 84 88  1  0
 84 83  1  0
 85 84  2  0
 88 87  1  0
 90 88  1  0
 90 91  1  0
 90 89  1  0
 92  4  1  0
 93 92  1  0
 94 92  1  0
 95 96  1  0
 97 95  1  0
M  ISO  4   7 100  15 100  50 101  51 101
M  END
>  <TORSDO>  (2) 
F 20

>  <SCORE>  (2) 
-14.913

>  <name>  (2) 
1

>  <ligand_id>  (2) 
1

>  <original_smiles>  (2) 
[H]c1c([H])c([H])c2c(c1[H])C([H])([H])C([H])([H])C([H])([H])C2([H])N([H])C(=O)C1([H])N(C(=O)C([H])(N([H])C(=O)C([H])(N([H])C([H])([H])[H])C([H])([H])[H])C(C([H])([H])[H])(C([H])([H])[H])C([H])([H])[H])C([H])([H])c2c([H])c(OC([H])([H])C3([H])C([H])([H])N(c4c([H])c(N([H])[H])c(N([H])C(=O)N5C([H])([H])C([H])([H])C([H])([H])C([H])(n6nc(-c7c([H])c([H])c(Oc8c([H])c([H])c(F)c([H])c8F)c([H])c7[H])c(C(=O)N([H])[H])c6N([H])[H])C5([H])[H])c([H])c4N([H])[H])C([H])([H])C3([H])[H])c([H])c([H])c2C1([H])[H]

>  <smiles>  (2) 
[H]c1c([H])c([H])c2c(c1[H])C([H])([H])C([H])([H])C([H])([H])C2([H])N([H])C(=O)C1([H])N(C(=O)C([H])(N([H])C(=O)C([H])(N([H])C([H])([H])[H])C([H])([H])[H])C(C([H])([H])[H])(C([H])([H])[H])C([H])([H])[H])C([H])([H])c2c([H])c(OC([H])([H])C3([H])C([H])([H])N(c4c([H])c(N([H])[H])c(N([H])C(=O)N5C([H])([H])C([H])([H])C([H])([H])C([H])(n6nc(-c7c([H])c([H])c(Oc8c([H])c([H])c(F)c([H])c8F)c([H])c7[H])c(C(=O)N([H])[H])c6N([H])[H])C5([H])[H])c([H])c4N([H])[H])C([H])([H])C3([H])[H])c([H])c([H])c2C1([H])[H]

$$$$
2:0:0
     RDKit          3D

 95103  0  0  1  0  0  0  0  0999 V2000
  -30.2890  -20.4810   20.3580 C   0  0  0  0  0  3  0  0  0  0  0  0
  -30.7770  -19.1780   20.1540 C   0  0  0  0  0  0  0  0  0  0  0  0
  -28.9040  -20.7300   20.2660 C   0  0  0  0  0  0  0  0  0  0  0  0
  -29.8550  -18.1320   19.8630 C   0  0  0  0  0  0  0  0  0  0  0  0
  -28.0770  -19.6070   20.0570 C   0  0  0  0  0  0  0  0  0  0  0  0
  -32.2860  -18.9660   20.2220 C   0  0  0  0  0  1  0  0  0  0  0  0
  -28.5180  -18.3520   19.8550 N   0  0  0  0  0  0  0  0  0  0  0  0
  -30.8390  -14.5610   19.9700 C   0  0  0  0  0  0  0  0  0  0  0  0
  -30.4930  -12.3450   19.0150 C   0  0  0  0  0  2  0  0  0  0  0  0
  -29.5140  -12.5240   17.8350 C   0  0  0  0  0  2  0  0  0  0  0  0
  -28.0600  -12.3860   18.3280 C   0  0  0  0  0  2  0  0  0  0  0  0
  -27.7630  -13.2470   19.5870 C   0  0  0  0  0  3  0  0  0  0  0  0
  -28.8740  -13.1160   20.6530 C   0  0  0  0  0  2  0  0  0  0  0  0
  -30.1640  -13.3820   20.0070 N   0  0  0  0  0  0  0  0  0  0  0  0
  -32.0180  -14.6100   19.6050 O   0  0  0  0  0  0  0  0  0  0  0  0
  -30.3570  -16.7980   19.3570 C   0  0  0  0  0  0  0  0  0  0  0  0
  -30.1060  -15.6890   20.0880 N   0  0  0  0  0  0  0  0  0  0  0  0
  -30.9790  -16.7890   18.2850 O   0  0  0  0  0  0  0  0  0  0  0  0
  -29.3130  -15.7250   20.7060 H   0  0  0  0  0  0  0  0  0  0  0  0
  -25.4130  -13.8150   20.4640 C   0  0  0  0  0  0  0  0  0  0  0  0
  -24.3740  -13.0270   20.8780 C   0  0  0  0  0  0  0  0  0  0  0  0
  -24.8350  -11.6780   20.7740 C   0  0  0  0  0  0  0  0  0  0  0  0
  -26.4440  -12.9480   20.1410 N   0  0  0  0  0  0  0  0  0  0  0  0
  -26.1040  -11.6550   20.3860 N   0  0  0  0  0  0  0  0  0  0  0  0
  -24.1240  -10.4070   20.9670 C   0  0  0  0  0  0  0  0  0  0  0  0
  -24.5770   -9.4420   21.8910 C   0  0  0  0  0  3  0  0  0  0  0  0
  -23.8680   -8.2340   22.0740 C   0  0  0  0  0  3  0  0  0  0  0  0
  -22.6900   -7.9840   21.3280 C   0  0  0  0  0  0  0  0  0  0  0  0
  -22.2570   -8.9390   20.3900 C   0  0  0  0  0  3  0  0  0  0  0  0
  -22.9680  -10.1380   20.2090 C   0  0  0  0  0  3  0  0  0  0  0  0
  -21.9510   -6.8290   21.4190 O   0  0  0  0  0  0  0  0  0  0  0  0
  -21.8510   -6.1280   22.5940 C   0  0  0  0  0  0  0  0  0  0  0  0
  -21.3040   -6.7040   23.7600 C   0  0  0  0  0  3  0  0  0  0  0  0
  -21.1560   -5.9280   24.9270 C   0  0  0  0  0  3  0  0  0  0  0  0
  -21.5410   -4.5740   24.9260 C   0  0  0  0  0  0  0  0  0  0  0  0
  -22.0760   -3.9950   23.7620 C   0  0  0  0  0  3  0  0  0  0  0  0
  -22.2290   -4.7700   22.5980 C   0  0  0  0  0  0  0  0  0  0  0  0
  -22.7270   -4.2020   21.4740 F   0  0  0  0  0  0  0  0  0  0  0  0
  -21.3920   -3.8250   26.0440 F   0  0  0  0  0  0  0  0  0  0  0  0
  -22.9950  -13.4880   21.2550 C   0  0  0  0  0  0  0  0  0  0  0  0
  -22.3320  -12.7700   22.1540 N   0  0  0  0  0  0  0  0  0  0  0  0
  -22.5150  -14.5190   20.7850 O   0  0  0  0  0  0  0  0  0  0  0  0
  -22.7370  -11.9370   22.5560 H   0  0  0  0  0  0  0  0  0  0  0  0
  -21.4090  -13.0570   22.4490 H   0  0  0  0  0  0  0  0  0  0  0  0
  -25.5640  -15.1910   20.3140 N   0  0  0  0  0  0  0  0  0  0  0  0
  -24.8000  -15.8370   20.4770 H   0  0  0  0  0  0  0  0  0  0  0  0
  -26.3920  -15.6390   19.9430 H   0  0  0  0  0  0  0  0  0  0  0  0
  -26.7050  -19.7750   20.0070 N   0  0  0  0  0  0  0  0  0  0  0  0
  -26.3990  -20.7290   19.8560 H   0  0  0  0  0  0  0  0  0  0  0  0
  -26.1620  -19.0790   19.5160 H   0  0  0  0  0  0  0  0  0  0  0  0
  -28.3510  -21.9960   20.3960 O   0  0  0  0  0  0  0  0  0  0  0  0
  -29.0640  -23.0870   19.7960 C   0  0  0  0  0  2  0  0  0  0  0  0
  -28.5400  -24.4580   20.2800 C   0  0  0  0  0  2  0  0  0  0  0  0
  -29.1800  -25.6340   19.4990 C   0  0  0  0  0  2  0  0  0  0  0  0
  -28.9610  -26.9200   20.0940 O   0  0  0  0  0  0  0  0  0  0  0  0
  -24.7060  -31.7200   23.1400 C   0  0  0  0  0  0  0  0  0  0  0  0
  -27.7260  -27.5340   20.0400 C   0  0  0  0  0  0  0  0  0  0  0  0
  -23.6500  -30.3110   21.4020 C   0  0  0  0  0  3  0  0  0  0  0  0
  -25.2450  -28.9030   19.9960 C   0  0  0  0  0  0  0  0  0  0  0  0
  -26.1570  -30.8140   21.3260 C   0  0  0  0  0  2  0  0  0  0  0  0
  -26.3440  -29.4700   20.6520 C   0  0  0  0  0  0  0  0  0  0  0  0
  -27.5810  -28.7900   20.6730 C   0  0  0  0  0  3  0  0  0  0  0  0
  -26.6030  -26.9740   19.3860 C   0  0  0  0  0  3  0  0  0  0  0  0
  -25.3690  -27.6530   19.3650 C   0  0  0  0  0  3  0  0  0  0  0  0
  -23.9550  -29.6920   20.0120 C   0  0  0  0  0  2  0  0  0  0  0  0
  -24.8530  -30.9610   22.0170 N   0  0  0  0  0  0  0  0  0  0  0  0
  -23.5900  -31.9110   23.6420 O   0  0  0  0  0  0  0  0  0  0  0  0
  -23.0200  -29.2230   22.3000 C   0  0  0  0  0  0  0  0  0  0  0  0
  -21.7030  -29.0100   22.1500 N   0  0  0  0  0  0  0  0  0  0  0  0
  -23.7150  -28.5750   23.0890 O   0  0  0  0  0  0  0  0  0  0  0  0
  -21.1980  -29.5890   21.4920 H   0  0  0  0  0  0  0  0  0  0  0  0
  -18.3480  -27.7570   22.6140 C   0  0  0  0  0  0  0  0  0  0  0  0
  -20.9090  -28.0100   22.8620 C   0  0  0  0  0  3  0  0  0  0  0  0
  -21.0100  -26.6280   22.1770 C   0  0  0  0  0  2  0  0  0  0  0  0
  -19.8930  -26.3760   21.1600 C   0  0  0  0  0  2  0  0  0  0  0  0
  -18.5210  -26.4630   21.8360 C   0  0  0  0  0  2  0  0  0  0  0  0
  -19.4700  -28.4910   23.0830 C   0  0  0  0  0  0  0  0  0  0  0  0
  -19.2560  -29.7060   23.7700 C   0  0  0  0  0  3  0  0  0  0  0  0
  -17.9530  -30.1860   23.9940 C   0  0  0  0  0  3  0  0  0  0  0  0
  -16.8450  -29.4490   23.5420 C   0  0  0  0  0  3  0  0  0  0  0  0
  -17.0450  -28.2360   22.8570 C   0  0  0  0  0  3  0  0  0  0  0  0
  -25.9280  -32.4000   23.8340 C   0  0  0  0  0  3  0  0  0  0  0  0
  -25.5440  -33.7830   24.1490 N   0  0  0  0  0  0  0  0  0  0  0  0
  -25.8680  -34.8500   23.4060 C   0  0  0  0  0  0  0  0  0  0  0  0
  -26.5920  -34.7760   22.4090 O   0  0  0  0  0  0  0  0  0  0  0  0
  -24.9050  -33.9120   24.9190 H   0  0  0  0  0  0  0  0  0  0  0  0
  -24.0820  -36.5650   22.9640 C   0  0  0  0  0  1  0  0  0  0  0  0
  -25.2980  -36.2160   23.8360 C   0  0  0  0  0  3  0  0  0  0  0  0
  -27.3410  -37.1990   24.7780 C   0  0  0  0  0  1  0  0  0  0  0  0
  -26.2880  -37.3130   23.7730 N   0  0  0  0  0  0  0  0  0  0  0  0
  -25.8330  -38.2150   23.8910 H   0  0  0  0  0  0  0  0  0  0  0  0
  -26.4040  -31.6450   25.1350 C   0  0  1  0  0  0  0  0  0  0  0  0
  -25.2650  -31.3550   26.1410 C   0  0  0  0  0  1  0  0  0  0  0  0
  -27.0630  -30.2950   24.7690 C   0  0  0  0  0  1  0  0  0  0  0  0
  -27.4860  -32.4790   25.8610 C   0  0  0  0  0  1  0  0  0  0  0  0
  2  6  1  0
  2  1  2  0
  3  1  1  0
  3 51  1  0
  4  2  1  0
  5  3  2  0
  7  4  2  0
  7  5  1  0
  8 14  1  0
  8 17  1  0
  9 14  1  0
 10 11  1  0
 10  9  1  0
 12 11  1  0
 12 23  1  0
 12 13  1  0
 14 13  1  0
 15  8  2  0
 16  4  1  0
 16 17  1  0
 17 19  1  0
 18 16  2  0
 20 21  2  0
 21 40  1  0
 22 21  1  0
 22 25  1  0
 23 24  1  0
 23 20  1  0
 24 22  2  0
 25 26  1  0
 26 27  2  0
 28 31  1  0
 28 27  1  0
 29 28  2  0
 30 29  1  0
 30 25  2  0
 31 32  1  0
 32 37  2  0
 32 33  1  0
 33 34  2  0
 35 34  1  0
 35 39  1  0
 36 35  2  0
 37 36  1  0
 38 37  1  0
 40 41  1  0
 41 44  1  0
 41 43  1  0
 42 40  2  0
 45 20  1  0
 45 46  1  0
 47 45  1  0
 48  5  1  0
 49 48  1  0
 50 48  1  0
 52 53  1  0
 52 51  1  0
 54 55  1  0
 54 53  1  0
 56 67  2  0
 57 55  1  0
 57 62  1  0
 58 66  1  0
 58 68  1  0
 59 65  1  0
 59 61  1  0
 60 66  1  0
 61 62  2  0
 61 60  1  0
 63 57  2  0
 64 63  1  0
 64 59  2  0
 65 58  1  0
 66 56  1  0
 68 70  2  0
 69 68  1  0
 71 69  1  0
 72 81  2  0
 72 77  1  0
 73 69  1  0
 73 77  1  0
 74 73  1  0
 75 76  1  0
 75 74  1  0
 76 72  1  0
 77 78  2  0
 78 79  1  0
 80 79  2  0
 81 80  1  0
 82 56  1  0
 82 83  1  0
 82 92  1  0
 83 86  1  0
 84 88  1  0
 84 83  1  0
 85 84  2  0
 88 87  1  0
 90 88  1  0
 90 91  1  0
 90 89  1  0
 92 95  1  1
 92 93  1  0
 94 92  1  0
M  ISO  4   8 100  17 100  54 101  55 101
M  END
>  <TORSDO>  (3) 
F 21

>  <SCORE>  (3) 
-12.872

>  <name>  (3) 
2

>  <ligand_id>  (3) 
2

>  <original_smiles>  (3) 
[H]c1c([H])c([H])c2c(c1[H])C([H])([H])C([H])([H])C([H])([H])C2([H])N([H])C(=O)C1([H])N(C(=O)C([H])(N([H])C(=O)C([H])(N([H])C([H])([H])[H])C([H])([H])[H])C(C([H])([H])[H])(C([H])([H])[H])C([H])([H])[H])C([H])([H])c2c([H])c(OC([H])([H])C([H])([H])C([H])([H])Oc3c(N([H])[H])nc(C(=O)N([H])C(=O)N4C([H])([H])C([H])([H])C([H])([H])C([H])(n5nc(-c6c([H])c([H])c(Oc7c([H])c([H])c(F)c([H])c7F)c([H])c6[H])c(C(=O)N([H])[H])c5N([H])[H])C4([H])[H])c(C([H])([H])[H])c3[H])c([H])c([H])c2C1([H])[H]

>  <smiles>  (3) 
[H]c1c([H])c([H])c2c(c1[H])C([H])([H])C([H])([H])C([H])([H])C2([H])N([H])C(=O)C1([H])N(C(=O)C([H])(N([H])C(=O)C([H])(N([H])C([H])([H])[H])C([H])([H])[H])C(C([H])([H])[H])(C([H])([H])[H])C([H])([H])[H])C([H])([H])c2c([H])c(OC([H])([H])C([H])([H])C([H])([H])Oc3c(N([H])[H])nc(C(=O)N([H])C(=O)N4C([H])([H])C([H])([H])C([H])([H])C([H])(n5nc(-c6c([H])c([H])c(Oc7c([H])c([H])c(F)c([H])c7F)c([H])c6[H])c(C(=O)N([H])[H])c5N([H])[H])C4([H])[H])c(C([H])([H])[H])c3[H])c([H])c([H])c2C1([H])[H]

$$$$
3:0:0
     RDKit          3D

 96104  0  0  1  0  0  0  0  0999 V2000
  -29.2370  -23.5910   20.4190 C   0  0  0  0  0  0  0  0  0  0  0  0
  -29.6430  -22.3790   20.8920 N   0  0  0  0  0  0  0  0  0  0  0  0
  -29.3810  -23.9080   19.2380 O   0  0  0  0  0  0  0  0  0  0  0  0
  -29.5400  -22.2240   21.8830 H   0  0  0  0  0  0  0  0  0  0  0  0
  -28.3730  -25.7960   21.3100 C   0  0  0  0  0  3  0  0  0  0  0  0
  -28.6900  -24.4780   21.4630 C   0  0  0  0  0  0  0  0  0  0  0  0
  -28.4540  -23.9530   22.6770 O   0  0  0  0  0  0  0  0  0  0  0  0
  -28.3290  -23.0200   22.5620 H   0  0  0  0  0  0  0  0  0  0  0  0
  -28.4260  -26.6120   20.1920 O   0  0  0  0  0  0  0  0  0  0  0  0
  -24.6230  -31.8500   23.1910 C   0  0  0  0  0  0  0  0  0  0  0  0
  -27.3270  -27.4460   20.0940 C   0  0  0  0  0  0  0  0  0  0  0  0
  -23.4400  -30.4490   21.5280 C   0  0  0  0  0  3  0  0  0  0  0  0
  -24.9210  -28.9410   20.0900 C   0  0  0  0  0  0  0  0  0  0  0  0
  -25.9630  -30.8340   21.3470 C   0  0  0  0  0  2  0  0  0  0  0  0
  -26.0700  -29.4710   20.6910 C   0  0  0  0  0  0  0  0  0  0  0  0
  -27.2810  -28.7320   20.6870 C   0  0  0  0  0  3  0  0  0  0  0  0
  -26.1650  -26.9380   19.4800 C   0  0  0  0  0  3  0  0  0  0  0  0
  -24.9640  -27.6730   19.4780 C   0  0  0  0  0  3  0  0  0  0  0  0
  -23.6660  -29.7850   20.1420 C   0  0  0  0  0  2  0  0  0  0  0  0
  -24.6930  -31.0600   22.0810 N   0  0  0  0  0  0  0  0  0  0  0  0
  -23.5370  -32.1050   23.7300 O   0  0  0  0  0  0  0  0  0  0  0  0
  -22.7920  -29.4160   22.4770 C   0  0  0  0  0  0  0  0  0  0  0  0
  -21.4680  -29.2280   22.3460 N   0  0  0  0  0  0  0  0  0  0  0  0
  -23.4760  -28.7870   23.2890 O   0  0  0  0  0  0  0  0  0  0  0  0
  -20.9760  -29.7910   21.6670 H   0  0  0  0  0  0  0  0  0  0  0  0
  -18.1020  -27.9960   22.8160 C   0  0  0  0  0  0  0  0  0  0  0  0
  -20.6550  -28.2760   23.1050 C   0  0  0  0  0  3  0  0  0  0  0  0
  -20.7740  -26.8510   22.5170 C   0  0  0  0  0  2  0  0  0  0  0  0
  -19.6810  -26.5270   21.4950 C   0  0  0  0  0  2  0  0  0  0  0  0
  -18.2940  -26.6530   22.1320 C   0  0  0  0  0  2  0  0  0  0  0  0
  -19.2110  -28.7650   23.2580 C   0  0  0  0  0  0  0  0  0  0  0  0
  -18.9770  -30.0230   23.8570 C   0  0  0  0  0  3  0  0  0  0  0  0
  -17.6680  -30.5100   24.0190 C   0  0  0  0  0  3  0  0  0  0  0  0
  -16.5730  -29.7380   23.5940 C   0  0  0  0  0  3  0  0  0  0  0  0
  -16.7910  -28.4820   22.9980 C   0  0  0  0  0  3  0  0  0  0  0  0
  -25.9000  -32.4890   23.8220 C   0  0  0  0  0  3  0  0  0  0  0  0
  -26.4230  -31.7070   25.0880 C   0  0  1  0  0  0  0  0  0  0  0  0
  -25.3330  -31.4460   26.1530 C   0  0  0  0  0  1  0  0  0  0  0  0
  -27.0230  -30.3420   24.6780 C   0  0  0  0  0  1  0  0  0  0  0  0
  -27.5630  -32.5080   25.7620 C   0  0  0  0  0  1  0  0  0  0  0  0
  -25.5730  -33.8790   24.1680 N   0  0  0  0  0  0  0  0  0  0  0  0
  -25.8890  -34.9430   23.4190 C   0  0  0  0  0  0  0  0  0  0  0  0
  -26.5560  -34.8600   22.3830 O   0  0  0  0  0  0  0  0  0  0  0  0
  -24.9810  -34.0160   24.9740 H   0  0  0  0  0  0  0  0  0  0  0  0
  -24.1310  -36.7130   23.0910 C   0  0  0  0  0  1  0  0  0  0  0  0
  -25.3850  -36.3200   23.8920 C   0  0  0  0  0  3  0  0  0  0  0  0
  -27.5130  -37.2280   24.7150 C   0  0  0  0  0  1  0  0  0  0  0  0
  -26.4010  -37.3890   23.7800 N   0  0  0  0  0  0  0  0  0  0  0  0
  -25.9840  -38.3030   23.9370 H   0  0  0  0  0  0  0  0  0  0  0  0
  -32.0000  -21.7950   20.7320 C   0  0  0  0  0  1  0  0  0  0  0  0
  -30.5870  -21.4550   20.2200 C   0  0  0  0  0  3  0  0  0  0  0  0
  -29.5940  -19.3110   21.3650 C   0  0  0  0  0  3  0  0  0  0  0  0
  -29.4920  -17.8960   21.4550 C   0  0  0  0  0  3  0  0  0  0  0  0
  -30.8780  -17.6540   19.4920 C   0  0  0  0  0  3  0  0  0  0  0  0
  -30.3500  -19.9230   20.3330 C   0  0  0  0  0  0  0  0  0  0  0  0
  -30.1470  -17.0360   20.5380 C   0  0  0  0  0  0  0  0  0  0  0  0
  -30.9710  -19.0640   19.3930 C   0  0  0  0  0  0  0  0  0  0  0  0
  -31.6850  -19.5930   18.3700 F   0  0  0  0  0  0  0  0  0  0  0  0
  -30.6970  -14.5880   20.0990 C   0  0  0  0  0  0  0  0  0  0  0  0
  -30.3730  -12.4270   18.9350 C   0  0  0  0  0  2  0  0  0  0  0  0
  -29.3710  -12.6390   17.7790 C   0  0  0  0  0  2  0  0  0  0  0  0
  -27.9190  -12.4890   18.2760 C   0  0  0  0  0  2  0  0  0  0  0  0
  -27.6410  -13.3000   19.5690 C   0  0  0  0  0  3  0  0  0  0  0  0
  -28.7490  -13.0620   20.6200 C   0  0  0  0  0  2  0  0  0  0  0  0
  -30.0420  -13.3940   19.9980 N   0  0  0  0  0  0  0  0  0  0  0  0
  -31.8130  -14.7620   19.6000 O   0  0  0  0  0  0  0  0  0  0  0  0
  -29.9920  -15.6010   20.6690 N   0  0  0  0  0  0  0  0  0  0  0  0
  -29.1720  -15.2960   21.1670 H   0  0  0  0  0  0  0  0  0  0  0  0
  -25.2750  -13.8910   20.3930 C   0  0  0  0  0  0  0  0  0  0  0  0
  -24.2270  -13.1130   20.8020 C   0  0  0  0  0  0  0  0  0  0  0  0
  -24.6900  -11.7640   20.7400 C   0  0  0  0  0  0  0  0  0  0  0  0
  -26.3120  -13.0160   20.1070 N   0  0  0  0  0  0  0  0  0  0  0  0
  -25.9650  -11.7300   20.3730 N   0  0  0  0  0  0  0  0  0  0  0  0
  -23.9760  -10.4990   20.9520 C   0  0  0  0  0  0  0  0  0  0  0  0
  -24.4320   -9.5400   21.8840 C   0  0  0  0  0  3  0  0  0  0  0  0
  -23.7190   -8.3390   22.0830 C   0  0  0  0  0  3  0  0  0  0  0  0
  -22.5360   -8.0860   21.3490 C   0  0  0  0  0  0  0  0  0  0  0  0
  -22.1000   -9.0320   20.4050 C   0  0  0  0  0  3  0  0  0  0  0  0
  -22.8140  -10.2250   20.2040 C   0  0  0  0  0  3  0  0  0  0  0  0
  -21.7940   -6.9340   21.4540 O   0  0  0  0  0  0  0  0  0  0  0  0
  -21.7370   -6.2200   22.6240 C   0  0  0  0  0  0  0  0  0  0  0  0
  -21.2910   -6.8000   23.8320 C   0  0  0  0  0  3  0  0  0  0  0  0
  -21.1850   -6.0110   24.9950 C   0  0  0  0  0  3  0  0  0  0  0  0
  -21.5130   -4.6430   24.9500 C   0  0  0  0  0  0  0  0  0  0  0  0
  -21.9520   -4.0620   23.7470 C   0  0  0  0  0  3  0  0  0  0  0  0
  -22.0620   -4.8490   22.5870 C   0  0  0  0  0  0  0  0  0  0  0  0
  -22.4660   -4.2790   21.4260 F   0  0  0  0  0  0  0  0  0  0  0  0
  -21.4020   -3.8830   26.0650 F   0  0  0  0  0  0  0  0  0  0  0  0
  -22.8420  -13.5850   21.1390 C   0  0  0  0  0  0  0  0  0  0  0  0
  -22.1540  -12.8820   22.0320 N   0  0  0  0  0  0  0  0  0  0  0  0
  -22.3780  -14.6120   20.6440 O   0  0  0  0  0  0  0  0  0  0  0  0
  -22.5420  -12.0540   22.4590 H   0  0  0  0  0  0  0  0  0  0  0  0
  -21.2250  -13.1810   22.2940 H   0  0  0  0  0  0  0  0  0  0  0  0
  -25.4290  -15.2650   20.2220 N   0  0  0  0  0  0  0  0  0  0  0  0
  -24.6660  -15.9130   20.3780 H   0  0  0  0  0  0  0  0  0  0  0  0
  -26.2550  -15.7090   19.8420 H   0  0  0  0  0  0  0  0  0  0  0  0
  1  2  1  0
  1  6  1  0
  2  4  1  0
  3  1  2  0
  5  6  2  0
  6  7  1  0
  8  7  1  0
  9  5  1  0
 10 21  2  0
 11  9  1  0
 11 16  1  0
 12 20  1  0
 12 22  1  0
 13 19  1  0
 13 15  1  0
 14 20  1  0
 15 14  1  0
 16 15  2  0
 17 11  2  0
 18 17  1  0
 18 13  2  0
 19 12  1  0
 20 10  1  0
 22 24  2  0
 23 22  1  0
 25 23  1  0
 26 35  2  0
 26 31  1  0
 27 23  1  0
 27 31  1  0
 28 27  1  0
 29 30  1  0
 29 28  1  0
 30 26  1  0
 31 32  2  0
 32 33  1  0
 34 33  2  0
 35 34  1  0
 36 10  1  0
 36 41  1  0
 36 37  1  0
 37 40  1  1
 37 38  1  0
 39 37  1  0
 41 44  1  0
 42 46  1  0
 42 41  1  0
 43 42  2  0
 46 45  1  0
 48 46  1  0
 48 49  1  0
 48 47  1  0
 51 55  1  0
 51 50  1  0
 51  2  1  0
 52 53  1  0
 54 56  1  0
 55 52  2  0
 56 67  1  0
 56 53  2  0
 57 54  2  0
 57 55  1  0
 58 57  1  0
 59 67  1  0
 60 65  1  0
 61 62  1  0
 61 60  1  0
 63 62  1  0
 63 72  1  0
 63 64  1  0
 65 59  1  0
 65 64  1  0
 66 59  2  0
 67 68  1  0
 69 70  2  0
 70 89  1  0
 71 70  1  0
 71 74  1  0
 72 73  1  0
 72 69  1  0
 73 71  2  0
 74 75  1  0
 75 76  2  0
 77 80  1  0
 77 76  1  0
 78 77  2  0
 79 78  1  0
 79 74  2  0
 80 81  1  0
 81 82  1  0
 82 83  2  0
 84 83  1  0
 84 88  1  0
 85 84  2  0
 86 81  2  0
 86 85  1  0
 87 86  1  0
 89 90  1  0
 90 93  1  0
 90 92  1  0
 91 89  2  0
 94 95  1  0
 94 69  1  0
 96 94  1  0
M  ISO  4   5 101   9 101  59 100  67 100
M  END
>  <TORSDO>  (4) 
F 20

>  <SCORE>  (4) 
-13.693

>  <name>  (4) 
3

>  <ligand_id>  (4) 
3

>  <original_smiles>  (4) 
[H]OC(C(=O)N([H])C([H])(c1c([H])c([H])c(N([H])C(=O)N2C([H])([H])C([H])([H])C([H])([H])C([H])(n3nc(-c4c([H])c([H])c(Oc5c([H])c([H])c(F)c([H])c5F)c([H])c4[H])c(C(=O)N([H])[H])c3N([H])[H])C2([H])[H])c([H])c1F)C([H])([H])[H])=C([H])Oc1c([H])c([H])c2c(c1[H])C([H])([H])N(C(=O)C([H])(N([H])C(=O)C([H])(N([H])C([H])([H])[H])C([H])([H])[H])C(C([H])([H])[H])(C([H])([H])[H])C([H])([H])[H])C([H])(C(=O)N([H])C1([H])c3c([H])c([H])c([H])c([H])c3C([H])([H])C([H])([H])C1([H])[H])C2([H])[H]

>  <smiles>  (4) 
[H]OC(C(=O)N([H])C([H])(c1c([H])c([H])c(N([H])C(=O)N2C([H])([H])C([H])([H])C([H])([H])C([H])(n3nc(-c4c([H])c([H])c(Oc5c([H])c([H])c(F)c([H])c5F)c([H])c4[H])c(C(=O)N([H])[H])c3N([H])[H])C2([H])[H])c([H])c1F)C([H])([H])[H])=C([H])Oc1c([H])c([H])c2c(c1[H])C([H])([H])N(C(=O)C([H])(N([H])C(=O)C([H])(N([H])C([H])([H])[H])C([H])([H])[H])C(C([H])([H])[H])(C([H])([H])[H])C([H])([H])[H])C([H])(C(=O)N([H])C1([H])c3c([H])c([H])c([H])c([H])c3C([H])([H])C([H])([H])C1([H])[H])C2([H])[H]

$$$$
4:0:0
     RDKit          3D

 96105  0  0  1  0  0  0  0  0999 V2000
  -30.8570  -21.8860   19.1720 C   0  0  0  0  0  0  0  0  0  0  0  0
  -28.8650  -22.5080   20.3450 C   0  0  0  0  0  0  0  0  0  0  0  0
  -31.0110  -23.3070   18.6160 C   0  0  0  0  0  2  0  0  0  0  0  0
  -30.4150  -24.3530   19.5520 C   0  0  0  0  0  2  0  0  0  0  0  0
  -28.9530  -24.0110   19.8210 C   0  0  0  0  0  3  0  0  0  0  0  0
  -29.8050  -21.5500   19.9840 N   0  0  0  0  0  0  0  0  0  0  0  0
  -31.7250  -21.0760   18.8260 O   0  0  0  0  0  0  0  0  0  0  0  0
  -27.9080  -22.2140   21.0740 O   0  0  0  0  0  0  0  0  0  0  0  0
  -28.7530  -19.2910   19.6510 C   0  0  0  0  0  3  0  0  0  0  0  0
  -30.6270  -19.4180   21.1420 C   0  0  0  0  0  3  0  0  0  0  0  0
  -28.8360  -17.8690   19.6680 C   0  0  0  0  0  0  0  0  0  0  0  0
  -29.6930  -20.1110   20.3140 C   0  0  0  0  0  0  0  0  0  0  0  0
  -29.8770  -17.1680   20.3700 C   0  0  0  0  0  0  0  0  0  0  0  0
  -30.7160  -17.9890   21.1810 C   0  0  0  0  0  0  0  0  0  0  0  0
  -27.7890  -17.1620   18.8220 C   0  0  0  0  0  1  0  0  0  0  0  0
  -31.6830  -17.4280   21.9430 F   0  0  0  0  0  0  0  0  0  0  0  0
  -30.7800  -14.7710   20.8250 C   0  0  0  0  0  0  0  0  0  0  0  0
  -30.6290  -12.4310   20.0060 C   0  0  0  0  0  2  0  0  0  0  0  0
  -29.7930  -12.3820   18.7080 C   0  0  0  0  0  2  0  0  0  0  0  0
  -28.2830  -12.3230   19.0130 C   0  0  0  0  0  2  0  0  0  0  0  0
  -27.8220  -13.2760   20.1510 C   0  0  0  0  0  3  0  0  0  0  0  0
  -28.7970  -13.2780   21.3460 C   0  0  0  0  0  2  0  0  0  0  0  0
  -30.1300  -13.5630   20.8090 N   0  0  0  0  0  0  0  0  0  0  0  0
  -32.0100  -14.7910   20.9070 O   0  0  0  0  0  0  0  0  0  0  0  0
  -30.6270  -15.6620   18.6290 C   0  0  0  0  0  1  0  0  0  0  0  0
  -30.1900  -15.7570   20.0440 N   0  0  0  0  0  0  0  0  0  0  0  0
  -25.3820  -13.8970   20.6600 C   0  0  0  0  0  0  0  0  0  0  0  0
  -24.2850  -13.1330   20.9480 C   0  0  0  0  0  0  0  0  0  0  0  0
  -24.7460  -11.7820   21.0020 C   0  0  0  0  0  0  0  0  0  0  0  0
  -26.4420  -13.0110   20.5470 N   0  0  0  0  0  0  0  0  0  0  0  0
  -26.0600  -11.7370   20.8190 N   0  0  0  0  0  0  0  0  0  0  0  0
  -24.0030  -10.5240   21.1610 C   0  0  0  0  0  0  0  0  0  0  0  0
  -24.3740   -9.5650   22.1280 C   0  0  0  0  0  3  0  0  0  0  0  0
  -23.6320   -8.3730   22.2730 C   0  0  0  0  0  3  0  0  0  0  0  0
  -22.5070   -8.1300   21.4510 C   0  0  0  0  0  0  0  0  0  0  0  0
  -22.1570   -9.0780   20.4730 C   0  0  0  0  0  3  0  0  0  0  0  0
  -22.8990  -10.2630   20.3260 C   0  0  0  0  0  3  0  0  0  0  0  0
  -21.7460   -6.9870   21.5040 O   0  0  0  0  0  0  0  0  0  0  0  0
  -21.6490   -6.2410   22.6500 C   0  0  0  0  0  0  0  0  0  0  0  0
  -21.1950   -6.7990   23.8650 C   0  0  0  0  0  3  0  0  0  0  0  0
  -21.0400   -5.9800   25.0020 C   0  0  0  0  0  3  0  0  0  0  0  0
  -21.3320   -4.6060   24.9260 C   0  0  0  0  0  0  0  0  0  0  0  0
  -21.7820   -4.0470   23.7160 C   0  0  0  0  0  3  0  0  0  0  0  0
  -21.9360   -4.8620   22.5810 C   0  0  0  0  0  0  0  0  0  0  0  0
  -22.3460   -4.3150   21.4120 F   0  0  0  0  0  0  0  0  0  0  0  0
  -21.1800   -3.8180   26.0150 F   0  0  0  0  0  0  0  0  0  0  0  0
  -22.8690  -13.6140   21.0730 C   0  0  0  0  0  0  0  0  0  0  0  0
  -22.0650  -12.9480   21.8980 N   0  0  0  0  0  0  0  0  0  0  0  0
  -22.4780  -14.6170   20.4770 O   0  0  0  0  0  0  0  0  0  0  0  0
  -22.3920  -12.1380   22.4030 H   0  0  0  0  0  0  0  0  0  0  0  0
  -21.1120  -13.2550   22.0230 H   0  0  0  0  0  0  0  0  0  0  0  0
  -25.5630  -15.2630   20.4640 N   0  0  0  0  0  0  0  0  0  0  0  0
  -24.7940  -15.9220   20.5130 H   0  0  0  0  0  0  0  0  0  0  0  0
  -26.4560  -15.7110   20.3030 H   0  0  0  0  0  0  0  0  0  0  0  0
  -28.2580  -25.1690   20.6590 C   0  0  0  0  0  2  0  0  0  0  0  0
  -28.3850  -26.5550   20.1530 O   0  0  0  0  0  0  0  0  0  0  0  0
  -24.6490  -31.9010   23.2040 C   0  0  0  0  0  0  0  0  0  0  0  0
  -27.2500  -27.3680   20.1430 C   0  0  0  0  0  0  0  0  0  0  0  0
  -23.4270  -30.4910   21.5830 C   0  0  0  0  0  3  0  0  0  0  0  0
  -24.8700  -28.9420   20.1440 C   0  0  0  0  0  0  0  0  0  0  0  0
  -25.9570  -30.8310   21.3610 C   0  0  0  0  0  2  0  0  0  0  0  0
  -26.0380  -29.4510   20.7250 C   0  0  0  0  0  0  0  0  0  0  0  0
  -27.2330  -28.6750   20.7140 C   0  0  0  0  0  3  0  0  0  0  0  0
  -26.0640  -26.9060   19.5340 C   0  0  0  0  0  3  0  0  0  0  0  0
  -24.8830  -27.6750   19.5370 C   0  0  0  0  0  3  0  0  0  0  0  0
  -23.6250  -29.8100   20.2030 C   0  0  0  0  0  2  0  0  0  0  0  0
  -24.6960  -31.0910   22.1070 N   0  0  0  0  0  0  0  0  0  0  0  0
  -23.5730  -32.1770   23.7540 O   0  0  0  0  0  0  0  0  0  0  0  0
  -22.7850  -29.4770   22.5580 C   0  0  0  0  0  0  0  0  0  0  0  0
  -21.4600  -29.2890   22.4460 N   0  0  0  0  0  0  0  0  0  0  0  0
  -23.4780  -28.8610   23.3720 O   0  0  0  0  0  0  0  0  0  0  0  0
  -20.9590  -29.8380   21.7630 H   0  0  0  0  0  0  0  0  0  0  0  0
  -18.0990  -28.0660   22.9790 C   0  0  0  0  0  0  0  0  0  0  0  0
  -20.6560  -28.3510   23.2310 C   0  0  0  0  0  3  0  0  0  0  0  0
  -20.7700  -26.9170   22.6670 C   0  0  0  0  0  2  0  0  0  0  0  0
  -19.6640  -26.5730   21.6640 C   0  0  0  0  0  2  0  0  0  0  0  0
  -18.2840  -26.7120   22.3160 C   0  0  0  0  0  2  0  0  0  0  0  0
  -19.2130  -28.8420   23.3960 C   0  0  0  0  0  0  0  0  0  0  0  0
  -18.9860  -30.1090   23.9760 C   0  0  0  0  0  3  0  0  0  0  0  0
  -17.6780  -30.5980   24.1470 C   0  0  0  0  0  3  0  0  0  0  0  0
  -16.5790  -29.8200   23.7480 C   0  0  0  0  0  3  0  0  0  0  0  0
  -16.7900  -28.5560   23.1660 C   0  0  0  0  0  3  0  0  0  0  0  0
  -25.9400  -32.5390   23.8040 C   0  0  0  0  0  3  0  0  0  0  0  0
  -25.6220  -33.9310   24.1570 N   0  0  0  0  0  0  0  0  0  0  0  0
  -25.9300  -34.9960   23.4050 C   0  0  0  0  0  0  0  0  0  0  0  0
  -26.5830  -34.9130   22.3610 O   0  0  0  0  0  0  0  0  0  0  0  0
  -25.0390  -34.0690   24.9690 H   0  0  0  0  0  0  0  0  0  0  0  0
  -24.1800  -36.7780   23.1020 C   0  0  0  0  0  1  0  0  0  0  0  0
  -25.4370  -36.3740   23.8890 C   0  0  0  0  0  3  0  0  0  0  0  0
  -27.5760  -37.2690   24.6940 C   0  0  0  0  0  1  0  0  0  0  0  0
  -26.4570  -37.4390   23.7720 N   0  0  0  0  0  0  0  0  0  0  0  0
  -26.0450  -38.3540   23.9400 H   0  0  0  0  0  0  0  0  0  0  0  0
  -26.4900  -31.7600   25.0600 C   0  0  1  0  0  0  0  0  0  0  0  0
  -25.4230  -31.5030   26.1490 C   0  0  0  0  0  1  0  0  0  0  0  0
  -27.0750  -30.3910   24.6420 C   0  0  0  0  0  1  0  0  0  0  0  0
  -27.6460  -32.5580   25.7060 C   0  0  0  0  0  1  0  0  0  0  0  0
  1  6  1  0
  2  8  2  0
  3  1  1  0
  3  4  1  0
  4  5  1  0
  5  2  1  0
  5 55  1  0
  6 12  1  0
  6  2  1  0
  7  1  2  0
  9 11  2  0
  9 12  1  0
 10 14  1  0
 11 13  1  0
 12 10  2  0
 13 14  2  0
 14 16  1  0
 15 11  1  0
 17 24  2  0
 18 23  1  0
 19 20  1  0
 19 18  1  0
 21 20  1  0
 21 30  1  0
 21 22  1  0
 23 17  1  0
 23 22  1  0
 25 26  1  0
 26 13  1  0
 26 17  1  0
 27 28  2  0
 28 29  1  0
 28 47  1  0
 29 32  1  0
 30 27  1  0
 30 31  1  0
 31 29  2  0
 32 33  1  0
 33 34  2  0
 35 38  1  0
 35 34  1  0
 36 35  2  0
 37 36  1  0
 37 32  2  0
 38 39  1  0
 39 40  1  0
 40 41  2  0
 42 41  1  0
 42 46  1  0
 43 42  2  0
 44 39  2  0
 44 43  1  0
 45 44  1  0
 47 48  1  0
 48 51  1  0
 48 50  1  0
 49 47  2  0
 52 53  1  0
 52 27  1  0
 54 52  1  0
 56 55  1  0
 57 68  2  0
 58 56  1  0
 58 63  1  0
 59 67  1  0
 59 69  1  0
 60 66  1  0
 60 62  1  0
 61 67  1  0
 62 61  1  0
 63 62  2  0
 64 65  1  0
 64 58  2  0
 65 60  2  0
 66 59  1  0
 67 57  1  0
 69 71  2  0
 70 69  1  0
 72 70  1  0
 73 82  2  0
 73 78  1  0
 74 70  1  0
 74 78  1  0
 75 74  1  0
 76 77  1  0
 76 75  1  0
 77 73  1  0
 78 79  2  0
 79 80  1  0
 81 80  2  0
 82 81  1  0
 83 57  1  0
 83 84  1  0
 83 93  1  0
 84 87  1  0
 85 89  1  0
 85 84  1  0
 86 85  2  0
 89 88  1  0
 91 89  1  0
 91 92  1  0
 91 90  1  0
 93 96  1  1
 93 94  1  0
 95 93  1  0
M  ISO  4  17 100  26 100  55 101  56 101
M  END
>  <TORSDO>  (5) 
F 18

>  <SCORE>  (5) 
-14.813

>  <name>  (5) 
4

>  <ligand_id>  (5) 
4

>  <original_smiles>  (5) 
[H]c1c([H])c([H])c2c(c1[H])C([H])([H])C([H])([H])C([H])([H])C2([H])N([H])C(=O)C1([H])N(C(=O)C([H])(N([H])C(=O)C([H])(N([H])C([H])([H])[H])C([H])([H])[H])C(C([H])([H])[H])(C([H])([H])[H])C([H])([H])[H])C([H])([H])c2c([H])c(OC([H])([H])C3([H])C(=O)N(c4c([H])c(F)c(N(C(=O)N5C([H])([H])C([H])([H])C([H])([H])C([H])(n6nc(-c7c([H])c([H])c(Oc8c([H])c([H])c(F)c([H])c8F)c([H])c7[H])c(C(=O)N([H])[H])c6N([H])[H])C5([H])[H])C([H])([H])[H])c(C([H])([H])[H])c4[H])C(=O)C([H])([H])C3([H])[H])c([H])c([H])c2C1([H])[H]

>  <smiles>  (5) 
[H]c1c([H])c([H])c2c(c1[H])C([H])([H])C([H])([H])C([H])([H])C2([H])N([H])C(=O)C1([H])N(C(=O)C([H])(N([H])C(=O)C([H])(N([H])C([H])([H])[H])C([H])([H])[H])C(C([H])([H])[H])(C([H])([H])[H])C([H])([H])[H])C([H])([H])c2c([H])c(OC([H])([H])C3([H])C(=O)N(c4c([H])c(F)c(N(C(=O)N5C([H])([H])C([H])([H])C([H])([H])C([H])(n6nc(-c7c([H])c([H])c(Oc8c([H])c([H])c(F)c([H])c8F)c([H])c7[H])c(C(=O)N([H])[H])c6N([H])[H])C5([H])[H])C([H])([H])[H])c(C([H])([H])[H])c4[H])C(=O)C([H])([H])C3([H])[H])c([H])c([H])c2C1([H])[H]

$$$$
5:0:0
     RDKit          3D

 93101  0  0  1  0  0  0  0  0999 V2000
  -31.1620  -17.9970   19.8450 C   0  0  0  0  0  3  0  0  0  0  0  0
  -31.0440  -19.3960   19.5880 C   0  0  0  0  0  3  0  0  0  0  0  0
  -28.9090  -17.9940   20.6510 C   0  0  0  0  0  3  0  0  0  0  0  0
  -30.0980  -17.2440   20.4070 C   0  0  0  0  0  0  0  0  0  0  0  0
  -28.7800  -19.3910   20.3910 C   0  0  0  0  0  0  0  0  0  0  0  0
  -29.8720  -20.1500   19.8670 C   0  0  0  0  0  0  0  0  0  0  0  0
  -30.1790  -15.7740   20.8680 C   0  0  0  0  0  0  0  0  0  0  0  0
  -29.8420  -15.5190   22.0650 N   0  0  0  0  0  0  0  0  0  0  0  0
  -29.5590  -16.3640   22.5470 H   0  0  0  0  0  0  0  0  0  0  0  0
  -30.7070  -14.6270   19.9270 C   0  0  0  0  0  0  0  0  0  0  0  0
  -30.3470  -12.4200   18.8240 C   0  0  0  0  0  2  0  0  0  0  0  0
  -29.3210  -12.5720   17.6800 C   0  0  0  0  0  2  0  0  0  0  0  0
  -27.8800  -12.4170   18.2060 C   0  0  0  0  0  2  0  0  0  0  0  0
  -27.6250  -13.2690   19.4760 C   0  0  0  0  0  3  0  0  0  0  0  0
  -28.7530  -13.0610   20.5070 C   0  0  0  0  0  2  0  0  0  0  0  0
  -30.0330  -13.4240   19.8680 N   0  0  0  0  0  0  0  0  0  0  0  0
  -31.7370  -14.8060   19.2680 O   0  0  0  0  0  0  0  0  0  0  0  0
  -25.3080  -13.8990   20.3970 C   0  0  0  0  0  0  0  0  0  0  0  0
  -24.2580  -13.1380   20.8340 C   0  0  0  0  0  0  0  0  0  0  0  0
  -24.6850  -11.7790   20.7320 C   0  0  0  0  0  0  0  0  0  0  0  0
  -26.3110  -13.0040   20.0560 N   0  0  0  0  0  0  0  0  0  0  0  0
  -25.9450  -11.7220   20.3150 N   0  0  0  0  0  0  0  0  0  0  0  0
  -23.9500  -10.5270   20.9500 C   0  0  0  0  0  0  0  0  0  0  0  0
  -24.4220   -9.5390   21.8430 C   0  0  0  0  0  3  0  0  0  0  0  0
  -23.6870   -8.3520   22.0490 C   0  0  0  0  0  3  0  0  0  0  0  0
  -22.4660   -8.1440   21.3640 C   0  0  0  0  0  0  0  0  0  0  0  0
  -22.0120   -9.1220   20.4600 C   0  0  0  0  0  3  0  0  0  0  0  0
  -22.7470  -10.3000   20.2520 C   0  0  0  0  0  3  0  0  0  0  0  0
  -21.6970   -7.0110   21.4820 O   0  0  0  0  0  0  0  0  0  0  0  0
  -21.6880   -6.2660   22.6340 C   0  0  0  0  0  0  0  0  0  0  0  0
  -21.3160   -6.8200   23.8790 C   0  0  0  0  0  3  0  0  0  0  0  0
  -21.2520   -6.0010   25.0230 C   0  0  0  0  0  3  0  0  0  0  0  0
  -21.5490   -4.6290   24.9260 C   0  0  0  0  0  0  0  0  0  0  0  0
  -21.9150   -4.0740   23.6870 C   0  0  0  0  0  3  0  0  0  0  0  0
  -21.9800   -4.8900   22.5430 C   0  0  0  0  0  0  0  0  0  0  0  0
  -22.3120   -4.3450   21.3480 F   0  0  0  0  0  0  0  0  0  0  0  0
  -21.4810   -3.8400   26.0240 F   0  0  0  0  0  0  0  0  0  0  0  0
  -22.8980  -13.6360   21.2330 C   0  0  0  0  0  0  0  0  0  0  0  0
  -22.2310  -12.9360   22.1440 N   0  0  0  0  0  0  0  0  0  0  0  0
  -22.4380  -14.6790   20.7710 O   0  0  0  0  0  0  0  0  0  0  0  0
  -22.6170  -12.0920   22.5400 H   0  0  0  0  0  0  0  0  0  0  0  0
  -21.3230  -13.2510   22.4520 H   0  0  0  0  0  0  0  0  0  0  0  0
  -25.4880  -15.2710   20.2420 N   0  0  0  0  0  0  0  0  0  0  0  0
  -24.7480  -15.9380   20.4330 H   0  0  0  0  0  0  0  0  0  0  0  0
  -26.3230  -15.7020   19.8650 H   0  0  0  0  0  0  0  0  0  0  0  0
  -27.5450  -19.9750   20.6670 N   0  0  0  0  0  0  0  0  0  0  0  0
  -26.7380  -19.3640   20.7380 H   0  0  0  0  0  0  0  0  0  0  0  0
  -27.3290  -20.8400   20.1870 H   0  0  0  0  0  0  0  0  0  0  0  0
  -29.9220  -21.5380   19.5910 O   0  0  0  0  0  0  0  0  0  0  0  0
  -28.9280  -22.5250   20.0100 C   0  0  0  0  0  3  0  0  0  0  0  0
  -29.2320  -24.0340   19.6100 C   0  0  0  0  0  3  0  0  0  0  0  0
  -28.1880  -25.1240   20.0980 C   0  0  0  0  0  2  0  0  0  0  0  0
  -28.3490  -26.5270   19.6640 O   0  0  0  0  0  0  0  0  0  0  0  0
  -24.6670  -31.7090   23.0720 C   0  0  0  0  0  0  0  0  0  0  0  0
  -27.2150  -27.3450   19.7190 C   0  0  0  0  0  0  0  0  0  0  0  0
  -23.4170  -30.3780   21.4070 C   0  0  0  0  0  3  0  0  0  0  0  0
  -24.8310  -28.9100   19.8650 C   0  0  0  0  0  0  0  0  0  0  0  0
  -25.9440  -30.7350   21.1530 C   0  0  0  0  0  2  0  0  0  0  0  0
  -26.0130  -29.3900   20.4420 C   0  0  0  0  0  0  0  0  0  0  0  0
  -27.2100  -28.6210   20.3580 C   0  0  0  0  0  3  0  0  0  0  0  0
  -26.0120  -26.9190   19.1120 C   0  0  0  0  0  3  0  0  0  0  0  0
  -24.8310  -27.6800   19.1900 C   0  0  0  0  0  3  0  0  0  0  0  0
  -23.5880  -29.7660   19.9920 C   0  0  0  0  0  2  0  0  0  0  0  0
  -24.6960  -30.9540   21.9350 N   0  0  0  0  0  0  0  0  0  0  0  0
  -23.6010  -31.9520   23.6560 O   0  0  0  0  0  0  0  0  0  0  0  0
  -22.7950  -29.3120   22.3410 C   0  0  0  0  0  0  0  0  0  0  0  0
  -21.4670  -29.1330   22.2510 N   0  0  0  0  0  0  0  0  0  0  0  0
  -23.5050  -28.6530   23.1050 O   0  0  0  0  0  0  0  0  0  0  0  0
  -20.9530  -29.7180   21.6070 H   0  0  0  0  0  0  0  0  0  0  0  0
  -18.1110  -27.9080   22.8210 C   0  0  0  0  0  0  0  0  0  0  0  0
  -20.6790  -28.1560   23.0040 C   0  0  0  0  0  3  0  0  0  0  0  0
  -20.7560  -26.7550   22.3510 C   0  0  0  0  0  2  0  0  0  0  0  0
  -19.6140  -26.4850   21.3670 C   0  0  0  0  0  2  0  0  0  0  0  0
  -18.2590  -26.5960   22.0710 C   0  0  0  0  0  2  0  0  0  0  0  0
  -19.2470  -28.6480   23.2460 C   0  0  0  0  0  0  0  0  0  0  0  0
  -19.0530  -29.8790   23.9090 C   0  0  0  0  0  3  0  0  0  0  0  0
  -17.7560  -30.3690   24.1530 C   0  0  0  0  0  3  0  0  0  0  0  0
  -16.6350  -29.6260   23.7440 C   0  0  0  0  0  3  0  0  0  0  0  0
  -16.8150  -28.3970   23.0850 C   0  0  0  0  0  3  0  0  0  0  0  0
  -25.9670  -32.3210   23.6790 C   0  0  0  0  0  3  0  0  0  0  0  0
  -25.6620  -33.7010   24.0810 N   0  0  0  0  0  0  0  0  0  0  0  0
  -25.9530  -34.7880   23.3530 C   0  0  0  0  0  0  0  0  0  0  0  0
  -26.5760  -34.7330   22.2890 O   0  0  0  0  0  0  0  0  0  0  0  0
  -25.1040  -33.8170   24.9140 H   0  0  0  0  0  0  0  0  0  0  0  0
  -24.1880  -36.5700   23.1630 C   0  0  0  0  0  1  0  0  0  0  0  0
  -25.4760  -36.1510   23.8890 C   0  0  0  0  0  3  0  0  0  0  0  0
  -27.6420  -37.0340   24.6370 C   0  0  0  0  0  1  0  0  0  0  0  0
  -26.4890  -37.2210   23.7600 N   0  0  0  0  0  0  0  0  0  0  0  0
  -26.0820  -38.1300   23.9620 H   0  0  0  0  0  0  0  0  0  0  0  0
  -26.5280  -31.4960   24.9030 C   0  0  1  0  0  0  0  0  0  0  0  0
  -25.4720  -31.2110   25.9970 C   0  0  0  0  0  1  0  0  0  0  0  0
  -27.0980  -30.1380   24.4320 C   0  0  0  0  0  1  0  0  0  0  0  0
  -27.7010  -32.2640   25.5570 C   0  0  0  0  0  1  0  0  0  0  0  0
  1  4  1  0
  2  1  2  0
  2  6  1  0
  4  3  2  0
  4  7  1  0
  5  3  1  0
  5 46  1  0
  6  5  2  0
  7  8  2  0
  8  9  1  0
 10  7  1  0
 11 16  1  0
 12 13  1  0
 12 11  1  0
 14 13  1  0
 14 21  1  0
 14 15  1  0
 16 10  1  0
 16 15  1  0
 17 10  2  0
 18 19  2  0
 19 38  1  0
 20 19  1  0
 20 23  1  0
 21 22  1  0
 21 18  1  0
 22 20  2  0
 23 24  1  0
 24 25  2  0
 26 29  1  0
 26 25  1  0
 27 26  2  0
 28 27  1  0
 28 23  2  0
 29 30  1  0
 30 31  1  0
 31 32  2  0
 33 32  1  0
 33 37  1  0
 34 33  2  0
 35 30  2  0
 35 34  1  0
 36 35  1  0
 38 39  1  0
 39 42  1  0
 39 41  1  0
 40 38  2  0
 43 18  1  0
 43 44  1  0
 45 43  1  0
 46 47  1  0
 48 46  1  0
 49  6  1  0
 49 50  1  0
 51 50  2  0
 51 52  1  0
 53 55  1  0
 53 52  1  0
 54 65  2  0
 55 60  1  0
 56 64  1  0
 56 66  1  0
 57 63  1  0
 57 59  1  0
 58 64  1  0
 59 58  1  0
 60 59  2  0
 61 62  1  0
 61 55  2  0
 62 57  2  0
 63 56  1  0
 64 54  1  0
 66 68  2  0
 67 66  1  0
 69 67  1  0
 70 79  2  0
 70 75  1  0
 71 67  1  0
 71 75  1  0
 72 71  1  0
 73 74  1  0
 73 72  1  0
 74 70  1  0
 75 76  2  0
 76 77  1  0
 78 77  2  0
 79 78  1  0
 80 54  1  0
 80 81  1  0
 80 90  1  0
 81 84  1  0
 82 86  1  0
 82 81  1  0
 83 82  2  0
 86 85  1  0
 88 86  1  0
 88 89  1  0
 88 87  1  0
 90 93  1  1
 90 91  1  0
 92 90  1  0
M  ISO  4   7 100  10 100  52 101  53 101
M  END
>  <TORSDO>  (6) 
F 22

>  <SCORE>  (6) 
-12.601

>  <name>  (6) 
5

>  <ligand_id>  (6) 
5

>  <original_smiles>  (6) 
[H]N=C(C(=O)N1C([H])([H])C([H])([H])C([H])([H])C([H])(n2nc(-c3c([H])c([H])c(Oc4c([H])c([H])c(F)c([H])c4F)c([H])c3[H])c(C(=O)N([H])[H])c2N([H])[H])C1([H])[H])c1c([H])c([H])c(OC([H])([H])C([H])([H])C([H])([H])Oc2c([H])c([H])c3c(c2[H])C([H])([H])N(C(=O)C([H])(N([H])C(=O)C([H])(N([H])C([H])([H])[H])C([H])([H])[H])C(C([H])([H])[H])(C([H])([H])[H])C([H])([H])[H])C([H])(C(=O)N([H])C2([H])c4c([H])c([H])c([H])c([H])c4C([H])([H])C([H])([H])C2([H])[H])C3([H])[H])c(N([H])[H])c1[H]

>  <smiles>  (6) 
[H]N=C(C(=O)N1C([H])([H])C([H])([H])C([H])([H])C([H])(n2nc(-c3c([H])c([H])c(Oc4c([H])c([H])c(F)c([H])c4F)c([H])c3[H])c(C(=O)N([H])[H])c2N([H])[H])C1([H])[H])c1c([H])c([H])c(OC([H])([H])C([H])([H])C([H])([H])Oc2c([H])c([H])c3c(c2[H])C([H])([H])N(C(=O)C([H])(N([H])C(=O)C([H])(N([H])C([H])([H])[H])C([H])([H])[H])C(C([H])([H])[H])(C([H])([H])[H])C([H])([H])[H])C([H])(C(=O)N([H])C2([H])c4c([H])c([H])c([H])c([H])c4C([H])([H])C([H])([H])C2([H])[H])C3([H])[H])c(N([H])[H])c1[H]

$$$$
6:0:0
     RDKit          3D

 96101  0  0  1  0  0  0  0  0999 V2000
  -30.4010  -15.6180   19.9280 C   0  0  0  0  0  0  0  0  0  0  0  0
  -30.8280  -12.9130   20.3260 C   0  0  0  0  0  2  0  0  0  0  0  0
  -30.3480  -11.8240   19.3060 C   0  0  0  0  0  2  0  0  0  0  0  0
  -28.8810  -11.4400   19.5340 C   0  0  0  0  0  2  0  0  0  0  0  0
  -28.0560  -12.6940   19.8710 C   0  0  0  0  0  3  0  0  0  0  0  0
  -28.7130  -13.6430   20.9110 C   0  0  0  0  0  2  0  0  0  0  0  0
  -29.9600  -14.2150   20.2990 N   0  0  0  0  0  0  0  0  0  0  0  0
  -31.6350  -15.5680   20.1680 O   0  0  0  0  0  0  0  0  0  0  0  0
  -29.6600  -16.9430   19.2430 N   0  0  0  0  0  0  0  0  0  0  0  0
  -27.4730  -17.8870   18.7280 C   0  0  0  0  0  3  0  0  0  0  0  0
  -27.6690  -16.1250   20.4150 C   0  0  0  0  0  3  0  0  0  0  0  0
  -28.2510  -16.9070   19.3890 C   0  0  0  0  0  0  0  0  0  0  0  0
  -26.1290  -18.0990   19.1030 C   0  0  0  0  0  0  0  0  0  0  0  0
  -26.3190  -16.3170   20.7740 C   0  0  0  0  0  0  0  0  0  0  0  0
  -25.5570  -17.3090   20.1220 C   0  0  0  0  0  0  0  0  0  0  0  0
  -25.3560  -19.0910   18.4950 N   0  0  0  0  0  0  0  0  0  0  0  0
  -25.8560  -19.8430   18.0330 H   0  0  0  0  0  0  0  0  0  0  0  0
  -24.6120  -19.4450   19.0860 H   0  0  0  0  0  0  0  0  0  0  0  0
  -25.7290  -15.5730   21.8000 N   0  0  0  0  0  0  0  0  0  0  0  0
  -26.3520  -15.1560   22.4810 H   0  0  0  0  0  0  0  0  0  0  0  0
  -24.9540  -16.0520   22.2460 H   0  0  0  0  0  0  0  0  0  0  0  0
  -24.2190  -17.4930   20.4670 N   0  0  0  0  0  0  0  0  0  0  0  0
  -23.6870  -17.8670   19.6920 H   0  0  0  0  0  0  0  0  0  0  0  0
  -23.8040  -16.6310   20.8000 H   0  0  0  0  0  0  0  0  0  0  0  0
  -25.5910  -13.2570   19.9070 C   0  0  0  0  0  0  0  0  0  0  0  0
  -24.4630  -12.5510   20.1990 C   0  0  0  0  0  0  0  0  0  0  0  0
  -24.9080  -11.2540   20.6010 C   0  0  0  0  0  0  0  0  0  0  0  0
  -26.6530  -12.4100   20.1430 N   0  0  0  0  0  0  0  0  0  0  0  0
  -26.2400  -11.2050   20.6230 N   0  0  0  0  0  0  0  0  0  0  0  0
  -24.1300  -10.0450   20.9000 C   0  0  0  0  0  0  0  0  0  0  0  0
  -24.5060   -9.1590   21.9330 C   0  0  0  0  0  3  0  0  0  0  0  0
  -23.7250   -8.0180   22.2170 C   0  0  0  0  0  3  0  0  0  0  0  0
  -22.5530   -7.7550   21.4690 C   0  0  0  0  0  0  0  0  0  0  0  0
  -22.1950   -8.6280   20.4260 C   0  0  0  0  0  3  0  0  0  0  0  0
  -22.9770   -9.7600   20.1410 C   0  0  0  0  0  3  0  0  0  0  0  0
  -21.7480   -6.6570   21.6560 O   0  0  0  0  0  0  0  0  0  0  0  0
  -21.7120   -5.9880   22.8540 C   0  0  0  0  0  0  0  0  0  0  0  0
  -21.3530   -6.6350   24.0570 C   0  0  0  0  0  3  0  0  0  0  0  0
  -21.2610   -5.8950   25.2530 C   0  0  0  0  0  3  0  0  0  0  0  0
  -21.5180   -4.5120   25.2470 C   0  0  0  0  0  0  0  0  0  0  0  0
  -21.8710   -3.8650   24.0500 C   0  0  0  0  0  3  0  0  0  0  0  0
  -21.9650   -4.6020   22.8560 C   0  0  0  0  0  0  0  0  0  0  0  0
  -22.2840   -3.9710   21.7000 F   0  0  0  0  0  0  0  0  0  0  0  0
  -21.4230   -3.7990   26.3950 F   0  0  0  0  0  0  0  0  0  0  0  0
  -23.0530  -13.0250   20.0000 C   0  0  0  0  0  0  0  0  0  0  0  0
  -22.1450  -12.6240   20.8800 N   0  0  0  0  0  0  0  0  0  0  0  0
  -22.7610  -13.7990   19.0890 O   0  0  0  0  0  0  0  0  0  0  0  0
  -22.3910  -12.0070   21.6410 H   0  0  0  0  0  0  0  0  0  0  0  0
  -21.1890  -12.9390   20.7940 H   0  0  0  0  0  0  0  0  0  0  0  0
  -25.8080  -14.5310   19.4150 N   0  0  0  0  0  0  0  0  0  0  0  0
  -25.0490  -15.1660   19.1950 H   0  0  0  0  0  0  0  0  0  0  0  0
  -26.7160  -14.9140   19.1960 H   0  0  0  0  0  0  0  0  0  0  0  0
  -29.8370  -18.7250   18.5890 C   0  0  0  0  0  1  0  0  0  0  0  0
  -28.9120  -20.5960   18.3040 C   0  0  0  0  0 15  0  0  0  0  0  0
  -28.6880  -22.6250   18.8260 C   0  0  0  0  0 15  0  0  0  0  0  0
  -28.4770  -24.4720   18.4420 O   0  0  0  0  0  1  0  0  0  0  0  0
  -25.9570  -30.4250   23.2360 C   0  0  0  0  0  0  0  0  0  0  0  0
  -27.7110  -25.8380   18.8850 C   0  0  0  0  0  0  0  0  0  0  0  0
  -24.6290  -29.7440   21.2870 C   0  0  0  0  0  3  0  0  0  0  0  0
  -25.8380  -28.2890   19.4600 C   0  0  0  0  0  0  0  0  0  0  0  0
  -27.2000  -29.4220   21.1860 C   0  0  0  0  0  2  0  0  0  0  0  0
  -27.0530  -28.2110   20.1520 C   0  0  0  0  0  0  0  0  0  0  0  0
  -27.9720  -27.0420   19.8290 C   0  0  0  0  0  3  0  0  0  0  0  0
  -26.4980  -26.1960   18.2210 C   0  0  0  0  0  3  0  0  0  0  0  0
  -25.6180  -27.3060   18.4780 C   0  0  0  0  0  3  0  0  0  0  0  0
  -24.8130  -29.4030   19.7760 C   0  0  0  0  0  2  0  0  0  0  0  0
  -25.9600  -29.8820   21.9630 N   0  0  0  0  0  0  0  0  0  0  0  0
  -24.9060  -30.7570   23.8120 O   0  0  0  0  0  0  0  0  0  0  0  0
  -23.7140  -28.6860   21.9640 C   0  0  0  0  0  0  0  0  0  0  0  0
  -22.3770  -28.8380   21.8730 N   0  0  0  0  0  0  0  0  0  0  0  0
  -24.2230  -27.7260   22.5470 O   0  0  0  0  0  0  0  0  0  0  0  0
  -22.0210  -29.6550   21.3980 H   0  0  0  0  0  0  0  0  0  0  0  0
  -18.8120  -28.1680   22.1750 C   0  0  0  0  0  0  0  0  0  0  0  0
  -21.3770  -27.8800   22.3700 C   0  0  0  0  0  3  0  0  0  0  0  0
  -21.2080  -26.6980   21.3870 C   0  0  0  0  0  2  0  0  0  0  0  0
  -20.0720  -26.9080   20.3800 C   0  0  0  0  0  2  0  0  0  0  0  0
  -18.7370  -27.0900   21.1070 C   0  0  0  0  0  2  0  0  0  0  0  0
  -20.0510  -28.5510   22.7550 C   0  0  0  0  0  0  0  0  0  0  0  0
  -20.0620  -29.5760   23.7260 C   0  0  0  0  0  3  0  0  0  0  0  0
  -18.8680  -30.2150   24.1130 C   0  0  0  0  0  3  0  0  0  0  0  0
  -17.6440  -29.8260   23.5420 C   0  0  0  0  0  3  0  0  0  0  0  0
  -17.6170  -28.8010   22.5790 C   0  0  0  0  0  3  0  0  0  0  0  0
  -27.2750  -30.6690   24.0320 C   0  0  0  0  0  3  0  0  0  0  0  0
  -27.0450  -31.7650   24.9980 N   0  0  0  0  0  0  0  0  0  0  0  0
  -27.6140  -32.9780   24.9470 C   0  0  0  0  0  0  0  0  0  0  0  0
  -28.4380  -33.2850   24.0830 O   0  0  0  0  0  0  0  0  0  0  0  0
  -26.3350  -31.6030   25.6970 H   0  0  0  0  0  0  0  0  0  0  0  0
  -26.2850  -35.0730   25.4010 C   0  0  0  0  0  1  0  0  0  0  0  0
  -27.2120  -34.0150   26.0210 C   0  0  0  0  0  3  0  0  0  0  0  0
  -29.1490  -33.8060   27.5210 C   0  0  0  0  0  1  0  0  0  0  0  0
  -28.3680  -34.6870   26.6560 N   0  0  0  0  0  0  0  0  0  0  0  0
  -28.0640  -35.4850   27.2070 H   0  0  0  0  0  0  0  0  0  0  0  0
  -27.7730  -29.3830   24.8060 C   0  0  1  0  0  0  0  0  0  0  0  0
  -26.6910  -28.7360   25.7040 C   0  0  0  0  0  1  0  0  0  0  0  0
  -28.2690  -28.2980   23.8260 C   0  0  0  0  0  1  0  0  0  0  0  0
  -28.9820  -29.7460   25.7010 C   0  0  0  0  0  1  0  0  0  0  0  0
  1  8  2  0
  1  7  1  0
  3  4  1  0
  3  2  1  0
  5  4  1  0
  5 28  1  0
  5  6  1  0
  7  2  1  0
  7  6  1  0
  9 12  1  0
  9  1  1  0
 10 13  2  0
 10 12  1  0
 11 14  1  0
 12 11  2  0
 13 15  1  0
 14 19  1  0
 15 22  1  0
 15 14  2  0
 16 18  1  0
 16 13  1  0
 17 16  1  0
 19 21  1  0
 19 20  1  0
 22 24  1  0
 23 22  1  0
 25 28  1  0
 25 26  2  0
 26 27  1  0
 27 29  2  0
 27 30  1  0
 28 29  1  0
 30 31  1  0
 31 32  2  0
 33 36  1  0
 33 32  1  0
 34 33  2  0
 35 34  1  0
 35 30  2  0
 36 37  1  0
 37 42  2  0
 37 38  1  0
 38 39  2  0
 40 39  1  0
 40 44  1  0
 41 40  2  0
 42 41  1  0
 43 42  1  0
 45 26  1  0
 45 46  1  0
 46 48  1  0
 47 45  2  0
 49 46  1  0
 50 25  1  0
 51 50  1  0
 52 50  1  0
 53  9  1  0
 56 58  1  0
 57 68  2  0
 58 63  1  0
 59 67  1  0
 59 69  1  0
 60 66  1  0
 60 62  1  0
 61 67  1  0
 62 61  1  0
 63 62  2  0
 64 65  1  0
 64 58  2  0
 65 60  2  0
 66 59  1  0
 67 57  1  0
 69 71  2  0
 70 69  1  0
 72 70  1  0
 73 82  2  0
 73 78  1  0
 74 70  1  0
 74 78  1  0
 75 74  1  0
 76 77  1  0
 76 75  1  0
 77 73  1  0
 78 79  2  0
 79 80  1  0
 81 80  2  0
 82 81  1  0
 83 57  1  0
 83 93  1  0
 83 84  1  0
 84 87  1  0
 85 84  1  0
 85 89  1  0
 86 85  2  0
 89 88  1  0
 89 91  1  0
 91 92  1  0
 91 90  1  0
 93 96  1  1
 93 94  1  0
 95 93  1  0
M  ISO  4   1 100   9 100  55 101  56 101
M  END
>  <TORSDO>  (7) 
F 22

>  <SCORE>  (7) 
-6.206

>  <name>  (7) 
6

>  <ligand_id>  (7) 
6

>  <original_smiles>  (7) 
[H]c1c([H])c([H])c2c(c1[H])C([H])([H])C([H])([H])C([H])([H])C2([H])N([H])C(=O)C1([H])N(C(=O)C([H])(N([H])C(=O)C([H])(N([H])C([H])([H])[H])C([H])([H])[H])C(C([H])([H])[H])(C([H])([H])[H])C([H])([H])[H])C([H])([H])c2c([H])c(OC([H])([H])C([H])([H])C([H])([H])N(C(=O)N3C([H])([H])C([H])([H])C([H])([H])C([H])(n4nc(-c5c([H])c([H])c(Oc6c([H])c([H])c(F)c([H])c6F)c([H])c5[H])c(C(=O)N([H])[H])c4N([H])[H])C3([H])[H])c3c([H])c(N([H])[H])c(N([H])[H])c(N([H])[H])c3[H])c([H])c([H])c2C1([H])[H]

>  <smiles>  (7) 
[H]c1c([H])c([H])c2c(c1[H])C([H])([H])C([H])([H])C([H])([H])C2([H])N([H])C(=O)C1([H])N(C(=O)C([H])(N([H])C(=O)C([H])(N([H])C([H])([H])[H])C([H])([H])[H])C(C([H])([H])[H])(C([H])([H])[H])C([H])([H])[H])C([H])([H])c2c([H])c(OC([H])([H])C([H])([H])C([H])([H])N(C(=O)N3C([H])([H])C([H])([H])C([H])([H])C([H])(n4nc(-c5c([H])c([H])c(Oc6c([H])c([H])c(F)c([H])c6F)c([H])c5[H])c(C(=O)N([H])[H])c4N([H])[H])C3([H])[H])c3c([H])c(N([H])[H])c(N([H])[H])c(N([H])[H])c3[H])c([H])c([H])c2C1([H])[H]

$$$$
7:0:0
     RDKit          3D

 91 99  0  0  1  0  0  0  0  0999 V2000
  -30.3890  -21.9630   22.2450 C   0  0  0  0  0  1  0  0  0  0  0  0
  -30.2150  -21.7440   20.7290 C   0  0  0  0  0  3  0  0  0  0  0  0
  -31.2820  -19.3890   20.3610 C   0  0  0  0  0  3  0  0  0  0  0  0
  -31.2660  -17.9590   20.3560 C   0  0  0  0  0  3  0  0  0  0  0  0
  -28.8930  -19.4510   20.5810 C   0  0  0  0  0  3  0  0  0  0  0  0
  -30.1060  -20.1830   20.4920 C   0  0  0  0  0  0  0  0  0  0  0  0
  -30.0530  -17.2310   20.4850 C   0  0  0  0  0  0  0  0  0  0  0  0
  -28.8720  -18.0210   20.5770 C   0  0  0  0  0  0  0  0  0  0  0  0
  -27.6820  -17.3830   20.6860 F   0  0  0  0  0  0  0  0  0  0  0  0
  -30.6910  -14.7140   20.1460 C   0  0  0  0  0  0  0  0  0  0  0  0
  -30.4130  -12.4990   19.0450 C   0  0  0  0  0  2  0  0  0  0  0  0
  -29.4220  -12.6640   17.8690 C   0  0  0  0  0  2  0  0  0  0  0  0
  -27.9650  -12.5160   18.3520 C   0  0  0  0  0  2  0  0  0  0  0  0
  -27.6670  -13.3540   19.6220 C   0  0  0  0  0  3  0  0  0  0  0  0
  -28.7660  -13.1600   20.6910 C   0  0  0  0  0  2  0  0  0  0  0  0
  -30.0560  -13.5000   20.0700 N   0  0  0  0  0  0  0  0  0  0  0  0
  -31.8420  -14.8570   19.7230 O   0  0  0  0  0  0  0  0  0  0  0  0
  -29.9150  -15.7710   20.5480 N   0  0  0  0  0  0  0  0  0  0  0  0
  -29.0050  -15.4810   20.8760 H   0  0  0  0  0  0  0  0  0  0  0  0
  -25.3060  -13.9720   20.4270 C   0  0  0  0  0  0  0  0  0  0  0  0
  -24.2440  -13.2070   20.8240 C   0  0  0  0  0  0  0  0  0  0  0  0
  -24.6910  -11.8510   20.7670 C   0  0  0  0  0  0  0  0  0  0  0  0
  -26.3330  -13.0830   20.1520 N   0  0  0  0  0  0  0  0  0  0  0  0
  -25.9690  -11.8010   20.4150 N   0  0  0  0  0  0  0  0  0  0  0  0
  -23.9570  -10.5950   20.9710 C   0  0  0  0  0  0  0  0  0  0  0  0
  -24.4010   -9.6220   21.8930 C   0  0  0  0  0  3  0  0  0  0  0  0
  -23.6670   -8.4310   22.0850 C   0  0  0  0  0  3  0  0  0  0  0  0
  -22.4760   -8.2050   21.3550 C   0  0  0  0  0  0  0  0  0  0  0  0
  -22.0510   -9.1670   20.4230 C   0  0  0  0  0  3  0  0  0  0  0  0
  -22.7850  -10.3500   20.2280 C   0  0  0  0  0  3  0  0  0  0  0  0
  -21.7140   -7.0670   21.4570 O   0  0  0  0  0  0  0  0  0  0  0  0
  -21.6670   -6.3330   22.6150 C   0  0  0  0  0  0  0  0  0  0  0  0
  -21.2550   -6.8990   23.8410 C   0  0  0  0  0  3  0  0  0  0  0  0
  -21.1560   -6.0910   24.9920 C   0  0  0  0  0  3  0  0  0  0  0  0
  -21.4580   -4.7190   24.9180 C   0  0  0  0  0  0  0  0  0  0  0  0
  -21.8640   -4.1520   23.6960 C   0  0  0  0  0  3  0  0  0  0  0  0
  -21.9650   -4.9560   22.5480 C   0  0  0  0  0  0  0  0  0  0  0  0
  -22.3350   -4.4010   21.3690 F   0  0  0  0  0  0  0  0  0  0  0  0
  -21.3560   -3.9410   26.0200 F   0  0  0  0  0  0  0  0  0  0  0  0
  -22.8620  -13.6970   21.1490 C   0  0  0  0  0  0  0  0  0  0  0  0
  -22.1600  -13.0050   22.0400 N   0  0  0  0  0  0  0  0  0  0  0  0
  -22.4150  -14.7280   20.6480 O   0  0  0  0  0  0  0  0  0  0  0  0
  -22.5350  -12.1710   22.4660 H   0  0  0  0  0  0  0  0  0  0  0  0
  -21.2340  -13.3150   22.3010 H   0  0  0  0  0  0  0  0  0  0  0  0
  -25.4770  -15.3430   20.2600 N   0  0  0  0  0  0  0  0  0  0  0  0
  -24.7270  -16.0010   20.4400 H   0  0  0  0  0  0  0  0  0  0  0  0
  -26.3420  -15.7980   19.9990 H   0  0  0  0  0  0  0  0  0  0  0  0
  -29.2760  -23.9560   20.2690 C   0  0  0  0  0  3  0  0  0  0  0  0
  -29.1330  -22.6510   20.2150 N   0  0  0  0  0  0  0  0  0  0  0  0
  -28.2240  -25.0320   19.7990 C   0  0  0  0  0  2  0  0  0  0  0  0
  -28.4240  -26.4740   20.1210 O   0  0  0  0  0  0  0  0  0  0  0  0
  -24.5270  -31.7510   23.1690 C   0  0  0  0  0  0  0  0  0  0  0  0
  -27.2960  -27.3170   20.0560 C   0  0  0  0  0  0  0  0  0  0  0  0
  -23.3840  -30.3630   21.4790 C   0  0  0  0  0  3  0  0  0  0  0  0
  -24.8940  -28.8840   20.0420 C   0  0  0  0  0  0  0  0  0  0  0  0
  -25.9190  -30.7420   21.3480 C   0  0  0  0  0  2  0  0  0  0  0  0
  -26.0420  -29.3810   20.6700 C   0  0  0  0  0  0  0  0  0  0  0  0
  -27.2450  -28.6100   20.6700 C   0  0  0  0  0  3  0  0  0  0  0  0
  -26.1210  -26.8850   19.3950 C   0  0  0  0  0  3  0  0  0  0  0  0
  -24.9360  -27.6420   19.3950 C   0  0  0  0  0  3  0  0  0  0  0  0
  -23.6370  -29.7270   20.0880 C   0  0  0  0  0  2  0  0  0  0  0  0
  -24.6280  -30.9680   22.0560 N   0  0  0  0  0  0  0  0  0  0  0  0
  -23.4280  -31.9910   23.6910 O   0  0  0  0  0  0  0  0  0  0  0  0
  -22.7290  -29.3080   22.4040 C   0  0  0  0  0  0  0  0  0  0  0  0
  -21.4090  -29.1080   22.2530 N   0  0  0  0  0  0  0  0  0  0  0  0
  -23.4090  -28.6760   23.2160 O   0  0  0  0  0  0  0  0  0  0  0  0
  -20.9190  -29.6710   21.5720 H   0  0  0  0  0  0  0  0  0  0  0  0
  -18.0460  -27.8470   22.6900 C   0  0  0  0  0  0  0  0  0  0  0  0
  -20.5980  -28.1360   22.9900 C   0  0  0  0  0  3  0  0  0  0  0  0
  -20.7260  -26.7230   22.3750 C   0  0  0  0  0  2  0  0  0  0  0  0
  -19.6370  -26.4120   21.3420 C   0  0  0  0  0  2  0  0  0  0  0  0
  -18.2480  -26.5200   21.9780 C   0  0  0  0  0  2  0  0  0  0  0  0
  -19.1490  -28.6120   23.1510 C   0  0  0  0  0  0  0  0  0  0  0  0
  -18.9060  -29.8550   23.7760 C   0  0  0  0  0  3  0  0  0  0  0  0
  -17.5920  -30.3320   23.9450 C   0  0  0  0  0  3  0  0  0  0  0  0
  -16.5030  -29.5630   23.5000 C   0  0  0  0  0  3  0  0  0  0  0  0
  -16.7320  -28.3210   22.8780 C   0  0  0  0  0  3  0  0  0  0  0  0
  -25.7830  -32.4000   23.8270 C   0  0  0  0  0  3  0  0  0  0  0  0
  -26.2790  -31.6280   25.1110 C   0  0  1  0  0  0  0  0  0  0  0  0
  -25.1620  -31.3650   26.1480 C   0  0  0  0  0  1  0  0  0  0  0  0
  -26.8940  -30.2630   24.7270 C   0  0  0  0  0  1  0  0  0  0  0  0
  -27.3980  -32.4360   25.8080 C   0  0  0  0  0  1  0  0  0  0  0  0
  -25.4430  -33.7910   24.1580 N   0  0  0  0  0  0  0  0  0  0  0  0
  -25.7560  -34.8510   23.4020 C   0  0  0  0  0  0  0  0  0  0  0  0
  -26.4300  -34.7640   22.3720 O   0  0  0  0  0  0  0  0  0  0  0  0
  -24.8440  -33.9310   24.9580 H   0  0  0  0  0  0  0  0  0  0  0  0
  -23.9810  -36.6010   23.0610 C   0  0  0  0  0  1  0  0  0  0  0  0
  -25.2390  -36.2290   23.8610 C   0  0  0  0  0  3  0  0  0  0  0  0
  -27.3570  -37.1710   24.6720 C   0  0  0  0  0  1  0  0  0  0  0  0
  -26.2440  -37.3060   23.7350 N   0  0  0  0  0  0  0  0  0  0  0  0
  -25.8170  -38.2170   23.8790 H   0  0  0  0  0  0  0  0  0  0  0  0
  2  1  1  0
  3  6  1  0
  4  3  2  0
  4  7  1  0
  6  5  2  0
  6  2  1  0
  7 18  1  0
  7  8  2  0
  8  5  1  0
  8  9  1  0
 10 18  1  0
 11 16  1  0
 12 13  1  0
 12 11  1  0
 14 13  1  0
 14 23  1  0
 14 15  1  0
 16 10  1  0
 16 15  1  0
 17 10  2  0
 18 19  1  0
 20 21  2  0
 21 40  1  0
 22 21  1  0
 22 25  1  0
 23 24  1  0
 23 20  1  0
 24 22  2  0
 25 26  1  0
 26 27  2  0
 28 31  1  0
 28 27  1  0
 29 28  2  0
 30 29  1  0
 30 25  2  0
 31 32  1  0
 32 33  1  0
 33 34  2  0
 35 34  1  0
 35 39  1  0
 36 35  2  0
 37 32  2  0
 37 36  1  0
 38 37  1  0
 40 41  1  0
 41 44  1  0
 41 43  1  0
 42 40  2  0
 45 20  1  0
 45 46  1  0
 47 45  1  0
 49 48  2  0
 49  2  1  0
 50 51  1  0
 50 48  1  0
 52 63  2  0
 53 51  1  0
 53 58  1  0
 54 62  1  0
 54 64  1  0
 55 61  1  0
 55 57  1  0
 56 62  1  0
 57 58  2  0
 57 56  1  0
 59 60  1  0
 59 53  2  0
 60 55  2  0
 61 54  1  0
 62 52  1  0
 64 66  2  0
 65 64  1  0
 67 65  1  0
 68 77  2  0
 68 73  1  0
 69 65  1  0
 69 73  1  0
 70 69  1  0
 71 72  1  0
 71 70  1  0
 72 68  1  0
 73 74  2  0
 74 75  1  0
 76 75  2  0
 77 76  1  0
 78 52  1  0
 78 83  1  0
 78 79  1  0
 79 82  1  1
 79 80  1  0
 81 79  1  0
 83 86  1  0
 84 88  1  0
 84 83  1  0
 85 84  2  0
 88 87  1  0
 90 88  1  0
 90 91  1  0
 90 89  1  0
M  ISO  4  10 100  18 100  50 101  51 101
M  END
>  <TORSDO>  (8) 
F 19

>  <SCORE>  (8) 
-14.379

>  <name>  (8) 
7

>  <ligand_id>  (8) 
7

>  <original_smiles>  (8) 
[H]C(=NC([H])(c1c([H])c([H])c(N([H])C(=O)N2C([H])([H])C([H])([H])C([H])([H])C([H])(n3nc(-c4c([H])c([H])c(Oc5c([H])c([H])c(F)c([H])c5F)c([H])c4[H])c(C(=O)N([H])[H])c3N([H])[H])C2([H])[H])c(F)c1[H])C([H])([H])[H])C([H])([H])Oc1c([H])c([H])c2c(c1[H])C([H])([H])N(C(=O)C([H])(N([H])C(=O)C([H])(N([H])C([H])([H])[H])C([H])([H])[H])C(C([H])([H])[H])(C([H])([H])[H])C([H])([H])[H])C([H])(C(=O)N([H])C1([H])c3c([H])c([H])c([H])c([H])c3C([H])([H])C([H])([H])C1([H])[H])C2([H])[H]

>  <smiles>  (8) 
[H]C(=NC([H])(c1c([H])c([H])c(N([H])C(=O)N2C([H])([H])C([H])([H])C([H])([H])C([H])(n3nc(-c4c([H])c([H])c(Oc5c([H])c([H])c(F)c([H])c5F)c([H])c4[H])c(C(=O)N([H])[H])c3N([H])[H])C2([H])[H])c(F)c1[H])C([H])([H])[H])C([H])([H])Oc1c([H])c([H])c2c(c1[H])C([H])([H])N(C(=O)C([H])(N([H])C(=O)C([H])(N([H])C([H])([H])[H])C([H])([H])[H])C(C([H])([H])[H])(C([H])([H])[H])C([H])([H])[H])C([H])(C(=O)N([H])C1([H])c3c([H])c([H])c([H])c([H])c3C([H])([H])C([H])([H])C1([H])[H])C2([H])[H]

$$$$
8:0:0
     RDKit          3D

 93101  0  0  1  0  0  0  0  0999 V2000
  -29.3180  -19.1610   21.4360 C   0  0  0  0  0  3  0  0  0  0  0  0
  -29.3480  -20.3510   20.6300 C   0  0  0  0  0  0  0  0  0  0  0  0
  -30.1150  -18.2030   20.8480 C   0  0  0  0  0  0  0  0  0  0  0  0
  -30.1100  -19.9640   19.5510 C   0  0  0  0  0  0  0  0  0  0  0  0
  -30.5800  -18.6880   19.6620 O   0  0  0  0  0  0  0  0  0  0  0  0
  -30.4720  -20.6880   18.4250 N   0  0  0  0  0  0  0  0  0  0  0  0
  -30.1810  -21.6340   18.2110 H   0  0  0  0  0  0  0  0  0  0  0  0
  -31.0950  -20.3100   17.7190 H   0  0  0  0  0  0  0  0  0  0  0  0
  -28.7130  -21.6960   20.9150 C   0  0  0  0  0  0  0  0  0  0  0  0
  -27.9470  -21.8200   21.8770 O   0  0  0  0  0  0  0  0  0  0  0  0
  -29.0280  -22.9390   20.0390 C   0  0  0  0  0  2  0  0  0  0  0  0
  -28.5160  -24.3200   20.5830 C   0  0  0  0  0  2  0  0  0  0  0  0
  -28.7830  -25.5270   19.6340 C   0  0  0  0  0  2  0  0  0  0  0  0
  -28.6040  -26.8360   20.2260 O   0  0  0  0  0  0  0  0  0  0  0  0
  -24.6100  -31.9100   23.2460 C   0  0  0  0  0  0  0  0  0  0  0  0
  -27.3950  -27.5170   20.1810 C   0  0  0  0  0  0  0  0  0  0  0  0
  -23.4600  -30.4970   21.5750 C   0  0  0  0  0  3  0  0  0  0  0  0
  -24.9670  -28.9950   20.1640 C   0  0  0  0  0  0  0  0  0  0  0  0
  -25.9840  -30.9000   21.4240 C   0  0  0  0  0  2  0  0  0  0  0  0
  -26.1050  -29.5340   20.7740 C   0  0  0  0  0  0  0  0  0  0  0  0
  -27.3170  -28.8020   20.7780 C   0  0  0  0  0  3  0  0  0  0  0  0
  -26.2300  -26.9940   19.5740 C   0  0  0  0  0  3  0  0  0  0  0  0
  -25.0260  -27.7260   19.5620 C   0  0  0  0  0  3  0  0  0  0  0  0
  -23.7060  -29.8310   20.1940 C   0  0  0  0  0  2  0  0  0  0  0  0
  -24.7010  -31.1190   22.1400 N   0  0  0  0  0  0  0  0  0  0  0  0
  -23.5150  -32.1580   23.7700 O   0  0  0  0  0  0  0  0  0  0  0  0
  -22.8130  -29.4580   22.5180 C   0  0  0  0  0  0  0  0  0  0  0  0
  -21.4890  -29.2680   22.3860 N   0  0  0  0  0  0  0  0  0  0  0  0
  -23.4980  -28.8240   23.3250 O   0  0  0  0  0  0  0  0  0  0  0  0
  -20.9970  -29.8320   21.7070 H   0  0  0  0  0  0  0  0  0  0  0  0
  -18.1190  -28.0640   22.8870 C   0  0  0  0  0  0  0  0  0  0  0  0
  -20.6800  -28.3120   23.1400 C   0  0  0  0  0  3  0  0  0  0  0  0
  -20.7740  -26.8970   22.5240 C   0  0  0  0  0  2  0  0  0  0  0  0
  -19.6620  -26.6030   21.5130 C   0  0  0  0  0  2  0  0  0  0  0  0
  -18.2870  -26.7330   22.1740 C   0  0  0  0  0  2  0  0  0  0  0  0
  -19.2430  -28.8130   23.3270 C   0  0  0  0  0  0  0  0  0  0  0  0
  -19.0330  -30.0610   23.9530 C   0  0  0  0  0  3  0  0  0  0  0  0
  -17.7310  -30.5610   24.1440 C   0  0  0  0  0  3  0  0  0  0  0  0
  -16.6220  -29.8090   23.7190 C   0  0  0  0  0  3  0  0  0  0  0  0
  -16.8170  -28.5630   23.0980 C   0  0  0  0  0  3  0  0  0  0  0  0
  -25.8720  -32.5650   23.8910 C   0  0  0  0  0  3  0  0  0  0  0  0
  -25.5370  -33.9620   24.2010 N   0  0  0  0  0  0  0  0  0  0  0  0
  -25.8680  -35.0110   23.4360 C   0  0  0  0  0  0  0  0  0  0  0  0
  -26.5570  -34.9070   22.4170 O   0  0  0  0  0  0  0  0  0  0  0  0
  -24.9260  -34.1170   24.9880 H   0  0  0  0  0  0  0  0  0  0  0  0
  -24.1250  -36.7800   23.0270 C   0  0  0  0  0  1  0  0  0  0  0  0
  -25.3520  -36.3970   23.8700 C   0  0  0  0  0  3  0  0  0  0  0  0
  -27.4500  -37.3220   24.7490 C   0  0  0  0  0  1  0  0  0  0  0  0
  -26.3730  -37.4630   23.7710 N   0  0  0  0  0  0  0  0  0  0  0  0
  -25.9510  -38.3800   23.8950 H   0  0  0  0  0  0  0  0  0  0  0  0
  -26.3700  -31.8120   25.1870 C   0  0  1  0  0  0  0  0  0  0  0  0
  -25.2570  -31.5670   26.2300 C   0  0  0  0  0  1  0  0  0  0  0  0
  -26.9830  -30.4410   24.8210 C   0  0  0  0  0  1  0  0  0  0  0  0
  -27.4920  -32.6310   25.8690 C   0  0  0  0  0  1  0  0  0  0  0  0
  -30.7000  -16.8840   21.3270 C   0  0  0  0  0  2  0  0  0  0  0  0
  -30.6990  -14.6380   20.1840 C   0  0  0  0  0  0  0  0  0  0  0  0
  -30.3280  -12.5270   18.9420 C   0  0  0  0  0  2  0  0  0  0  0  0
  -29.3230  -12.7680   17.7980 C   0  0  0  0  0  2  0  0  0  0  0  0
  -27.8750  -12.6090   18.3020 C   0  0  0  0  0  2  0  0  0  0  0  0
  -27.6070  -13.3950   19.6130 C   0  0  0  0  0  3  0  0  0  0  0  0
  -28.7180  -13.1410   20.6550 C   0  0  0  0  0  2  0  0  0  0  0  0
  -30.0050  -13.4750   20.0230 N   0  0  0  0  0  0  0  0  0  0  0  0
  -31.8050  -14.8190   19.6680 O   0  0  0  0  0  0  0  0  0  0  0  0
  -30.0750  -15.6280   20.8610 N   0  0  0  0  0  0  0  0  0  0  0  0
  -29.1510  -15.4250   21.2090 H   0  0  0  0  0  0  0  0  0  0  0  0
  -25.2460  -13.9730   20.4510 C   0  0  0  0  0  0  0  0  0  0  0  0
  -24.1990  -13.1880   20.8540 C   0  0  0  0  0  0  0  0  0  0  0  0
  -24.6640  -11.8400   20.7730 C   0  0  0  0  0  0  0  0  0  0  0  0
  -26.2820  -13.1030   20.1520 N   0  0  0  0  0  0  0  0  0  0  0  0
  -25.9380  -11.8120   20.4030 N   0  0  0  0  0  0  0  0  0  0  0  0
  -23.9520  -10.5700   20.9690 C   0  0  0  0  0  0  0  0  0  0  0  0
  -24.4100   -9.6000   21.8880 C   0  0  0  0  0  3  0  0  0  0  0  0
  -23.6980   -8.3960   22.0730 C   0  0  0  0  0  3  0  0  0  0  0  0
  -22.5140   -8.1520   21.3370 C   0  0  0  0  0  0  0  0  0  0  0  0
  -22.0760   -9.1110   20.4060 C   0  0  0  0  0  3  0  0  0  0  0  0
  -22.7890  -10.3070   20.2210 C   0  0  0  0  0  3  0  0  0  0  0  0
  -21.7700   -7.0010   21.4310 O   0  0  0  0  0  0  0  0  0  0  0  0
  -21.7270   -6.2660   22.5890 C   0  0  0  0  0  0  0  0  0  0  0  0
  -21.2640   -6.8150   23.8040 C   0  0  0  0  0  3  0  0  0  0  0  0
  -21.1690   -6.0050   24.9530 C   0  0  0  0  0  3  0  0  0  0  0  0
  -21.5270   -4.6440   24.8870 C   0  0  0  0  0  0  0  0  0  0  0  0
  -21.9830   -4.0940   23.6760 C   0  0  0  0  0  3  0  0  0  0  0  0
  -22.0790   -4.9020   22.5300 C   0  0  0  0  0  0  0  0  0  0  0  0
  -22.4990   -4.3620   21.3600 F   0  0  0  0  0  0  0  0  0  0  0  0
  -21.4300   -3.8640   25.9880 F   0  0  0  0  0  0  0  0  0  0  0  0
  -22.8150  -13.6530   21.2040 C   0  0  0  0  0  0  0  0  0  0  0  0
  -22.1280  -12.9280   22.0800 N   0  0  0  0  0  0  0  0  0  0  0  0
  -22.3510  -14.6920   20.7350 O   0  0  0  0  0  0  0  0  0  0  0  0
  -22.5180  -12.0870   22.4810 H   0  0  0  0  0  0  0  0  0  0  0  0
  -21.2010  -13.2190   22.3560 H   0  0  0  0  0  0  0  0  0  0  0  0
  -25.3960  -15.3480   20.2930 N   0  0  0  0  0  0  0  0  0  0  0  0
  -24.6330  -15.9960   20.4530 H   0  0  0  0  0  0  0  0  0  0  0  0
  -26.2260  -15.7980   19.9260 H   0  0  0  0  0  0  0  0  0  0  0  0
  2  9  1  0
  2  1  1  0
  3 55  1  0
  3  1  2  0
  4  5  1  0
  4  2  2  0
  5  3  1  0
  6  4  1  0
  7  6  1  0
  8  6  1  0
  9 10  2  0
 11 12  1  0
 11  9  1  0
 13 14  1  0
 13 12  1  0
 15 26  2  0
 16 14  1  0
 16 21  1  0
 17 25  1  0
 17 27  1  0
 18 24  1  0
 18 20  1  0
 19 25  1  0
 20 21  2  0
 20 19  1  0
 22 16  2  0
 23 22  1  0
 23 18  2  0
 24 17  1  0
 25 15  1  0
 27 29  2  0
 28 27  1  0
 30 28  1  0
 31 40  2  0
 31 36  1  0
 32 28  1  0
 32 36  1  0
 33 32  1  0
 34 35  1  0
 34 33  1  0
 35 31  1  0
 36 37  2  0
 37 38  1  0
 39 38  2  0
 40 39  1  0
 41 15  1  0
 41 42  1  0
 41 51  1  0
 42 45  1  0
 43 47  1  0
 43 42  1  0
 44 43  2  0
 47 46  1  0
 49 47  1  0
 49 50  1  0
 49 48  1  0
 51 54  1  1
 51 52  1  0
 53 51  1  0
 56 64  1  0
 57 62  1  0
 58 59  1  0
 58 57  1  0
 60 59  1  0
 60 69  1  0
 60 61  1  0
 62 56  1  0
 62 61  1  0
 63 56  2  0
 64 65  1  0
 64 55  1  0
 66 67  2  0
 67 86  1  0
 68 67  1  0
 68 71  1  0
 69 70  1  0
 69 66  1  0
 70 68  2  0
 71 72  1  0
 72 73  2  0
 74 77  1  0
 74 73  1  0
 75 74  2  0
 76 75  1  0
 76 71  2  0
 77 78  1  0
 78 79  1  0
 79 80  2  0
 81 80  1  0
 81 85  1  0
 82 81  2  0
 83 78  2  0
 83 82  1  0
 84 83  1  0
 86 87  1  0
 87 90  1  0
 87 89  1  0
 88 86  2  0
 91 66  1  0
 91 92  1  0
 93 91  1  0
M  ISO  4  13 101  14 101  56 100  64 100
M  END
>  <TORSDO>  (9) 
F 22

>  <SCORE>  (9) 
-12.937

>  <name>  (9) 
8

>  <ligand_id>  (9) 
8

>  <original_smiles>  (9) 
[H]c1c([H])c([H])c2c(c1[H])C([H])([H])C([H])([H])C([H])([H])C2([H])N([H])C(=O)C1([H])N(C(=O)C([H])(N([H])C(=O)C([H])(N([H])C([H])([H])[H])C([H])([H])[H])C(C([H])([H])[H])(C([H])([H])[H])C([H])([H])[H])C([H])([H])c2c([H])c(OC([H])([H])C([H])([H])C([H])([H])C(=O)c3c(N([H])[H])oc(C([H])([H])N([H])C(=O)N4C([H])([H])C([H])([H])C([H])([H])C([H])(n5nc(-c6c([H])c([H])c(Oc7c([H])c([H])c(F)c([H])c7F)c([H])c6[H])c(C(=O)N([H])[H])c5N([H])[H])C4([H])[H])c3[H])c([H])c([H])c2C1([H])[H]

>  <smiles>  (9) 
[H]c1c([H])c([H])c2c(c1[H])C([H])([H])C([H])([H])C([H])([H])C2([H])N([H])C(=O)C1([H])N(C(=O)C([H])(N([H])C(=O)C([H])(N([H])C([H])([H])[H])C([H])([H])[H])C(C([H])([H])[H])(C([H])([H])[H])C([H])([H])[H])C([H])([H])c2c([H])c(OC([H])([H])C([H])([H])C([H])([H])C(=O)c3c(N([H])[H])oc(C([H])([H])N([H])C(=O)N4C([H])([H])C([H])([H])C([H])([H])C([H])(n5nc(-c6c([H])c([H])c(Oc7c([H])c([H])c(F)c([H])c7F)c([H])c6[H])c(C(=O)N([H])[H])c5N([H])[H])C4([H])[H])c3[H])c([H])c([H])c2C1([H])[H]

$$$$
9:0:0
     RDKit          3D

 97106  0  0  1  0  0  0  0  0999 V2000
  -29.4020  -24.0380   18.1490 C   0  0  0  0  0  0  0  0  0  0  0  0
  -29.7140  -22.7170   17.4490 C   0  0  0  0  0  2  0  0  0  0  0  0
  -30.5520  -21.7850   18.3330 C   0  0  0  0  0  2  0  0  0  0  0  0
  -29.1080  -22.5480   20.2350 C   0  0  0  0  0  2  0  0  0  0  0  0
  -29.3500  -24.0380   19.6870 C   0  0  0  0  0  3  0  0  0  0  0  0
  -29.8440  -21.4210   19.5640 N   0  0  0  0  0  0  0  0  0  0  0  0
  -29.2250  -25.0640   17.4820 O   0  0  0  0  0  0  0  0  0  0  0  0
  -31.1180  -19.3130   19.8910 C   0  0  0  0  0  3  0  0  0  0  0  0
  -31.2450  -17.9150   20.1050 C   0  0  0  0  0  3  0  0  0  0  0  0
  -28.7410  -19.2060   20.2820 C   0  0  0  0  0  0  0  0  0  0  0  0
  -29.8750  -20.0140   19.9310 C   0  0  0  0  0  0  0  0  0  0  0  0
  -30.1200  -17.1140   20.4030 C   0  0  0  0  0  0  0  0  0  0  0  0
  -28.8760  -17.7910   20.5270 C   0  0  0  0  0  0  0  0  0  0  0  0
  -27.3480  -19.8310   20.3230 C   0  0  0  0  0  1  0  0  0  0  0  0
  -30.8900  -14.6780   20.0290 C   0  0  0  0  0  0  0  0  0  0  0  0
  -30.6380  -12.4800   18.9020 C   0  0  0  0  0  2  0  0  0  0  0  0
  -29.6170  -12.6460   17.7540 C   0  0  0  0  0  2  0  0  0  0  0  0
  -28.1780  -12.4470   18.2690 C   0  0  0  0  0  2  0  0  0  0  0  0
  -27.8870  -13.2620   19.5560 C   0  0  0  0  0  3  0  0  0  0  0  0
  -29.0150  -13.0800   20.5990 C   0  0  0  0  0  2  0  0  0  0  0  0
  -30.2870  -13.4510   19.9570 N   0  0  0  0  0  0  0  0  0  0  0  0
  -31.9950  -14.8830   19.5160 O   0  0  0  0  0  0  0  0  0  0  0  0
  -30.1420  -15.6700   20.5900 N   0  0  0  0  0  0  0  0  0  0  0  0
  -29.3230  -15.3320   21.0660 H   0  0  0  0  0  0  0  0  0  0  0  0
  -25.5420  -13.8020   20.4610 C   0  0  0  0  0  0  0  0  0  0  0  0
  -24.5100  -13.0010   20.8710 C   0  0  0  0  0  0  0  0  0  0  0  0
  -24.9750  -11.6570   20.7330 C   0  0  0  0  0  0  0  0  0  0  0  0
  -26.5730  -12.9440   20.1110 N   0  0  0  0  0  0  0  0  0  0  0  0
  -26.2400  -11.6480   20.3310 N   0  0  0  0  0  0  0  0  0  0  0  0
  -24.2700  -10.3810   20.9030 C   0  0  0  0  0  0  0  0  0  0  0  0
  -24.6990   -9.4220   21.8470 C   0  0  0  0  0  3  0  0  0  0  0  0
  -23.9930   -8.2100   22.0050 C   0  0  0  0  0  3  0  0  0  0  0  0
  -22.8460   -7.9470   21.2200 C   0  0  0  0  0  0  0  0  0  0  0  0
  -22.4370   -8.8960   20.2670 C   0  0  0  0  0  3  0  0  0  0  0  0
  -23.1420  -10.1000   20.1060 C   0  0  0  0  0  3  0  0  0  0  0  0
  -22.1130   -6.7870   21.2870 O   0  0  0  0  0  0  0  0  0  0  0  0
  -21.9640   -6.0990   22.4660 C   0  0  0  0  0  0  0  0  0  0  0  0
  -21.3780   -6.6910   23.6050 C   0  0  0  0  0  3  0  0  0  0  0  0
  -21.1770   -5.9270   24.7720 C   0  0  0  0  0  3  0  0  0  0  0  0
  -21.5530   -4.5700   24.7990 C   0  0  0  0  0  0  0  0  0  0  0  0
  -22.1320   -3.9770   23.6630 C   0  0  0  0  0  3  0  0  0  0  0  0
  -22.3340   -4.7400   22.4990 C   0  0  0  0  0  0  0  0  0  0  0  0
  -22.8720   -4.1570   21.4010 F   0  0  0  0  0  0  0  0  0  0  0  0
  -21.3540   -3.8330   25.9170 F   0  0  0  0  0  0  0  0  0  0  0  0
  -23.1320  -13.4500   21.2670 C   0  0  0  0  0  0  0  0  0  0  0  0
  -22.4780  -12.7130   22.1570 N   0  0  0  0  0  0  0  0  0  0  0  0
  -22.6460  -14.4900   20.8200 O   0  0  0  0  0  0  0  0  0  0  0  0
  -22.8870  -11.8730   22.5390 H   0  0  0  0  0  0  0  0  0  0  0  0
  -21.5580  -12.9950   22.4640 H   0  0  0  0  0  0  0  0  0  0  0  0
  -25.6790  -15.1800   20.3310 N   0  0  0  0  0  0  0  0  0  0  0  0
  -24.8820  -15.7880   20.4800 H   0  0  0  0  0  0  0  0  0  0  0  0
  -26.4090  -15.6190   19.7850 H   0  0  0  0  0  0  0  0  0  0  0  0
  -27.7610  -17.0290   20.8920 N   0  0  0  0  0  0  0  0  0  0  0  0
  -26.8680  -17.5070   20.8990 H   0  0  0  0  0  0  0  0  0  0  0  0
  -27.6550  -16.0890   20.5310 H   0  0  0  0  0  0  0  0  0  0  0  0
  -28.3230  -25.1280   20.2290 C   0  0  0  0  0  2  0  0  0  0  0  0
  -28.5430  -26.5730   19.9770 O   0  0  0  0  0  0  0  0  0  0  0  0
  -24.8430  -31.8430   23.2310 C   0  0  0  0  0  0  0  0  0  0  0  0
  -27.4220  -27.4130   19.9860 C   0  0  0  0  0  0  0  0  0  0  0  0
  -23.6340  -30.5420   21.5160 C   0  0  0  0  0  3  0  0  0  0  0  0
  -25.0750  -29.0400   20.0360 C   0  0  0  0  0  0  0  0  0  0  0  0
  -26.1780  -30.8320   21.3730 C   0  0  0  0  0  2  0  0  0  0  0  0
  -26.2430  -29.4860   20.6660 C   0  0  0  0  0  0  0  0  0  0  0  0
  -27.4210  -28.6840   20.6340 C   0  0  0  0  0  3  0  0  0  0  0  0
  -26.2370  -27.0240   19.3210 C   0  0  0  0  0  3  0  0  0  0  0  0
  -25.0710  -27.8110   19.3570 C   0  0  0  0  0  3  0  0  0  0  0  0
  -23.8510  -29.9300   20.1080 C   0  0  0  0  0  2  0  0  0  0  0  0
  -24.9030  -31.0870   22.0970 N   0  0  0  0  0  0  0  0  0  0  0  0
  -23.7580  -32.1140   23.7680 O   0  0  0  0  0  0  0  0  0  0  0  0
  -22.9490  -29.4890   22.4190 C   0  0  0  0  0  0  0  0  0  0  0  0
  -21.6170  -29.3690   22.3010 N   0  0  0  0  0  0  0  0  0  0  0  0
  -23.6150  -28.7890   23.1870 O   0  0  0  0  0  0  0  0  0  0  0  0
  -21.1400  -29.9860   21.6590 H   0  0  0  0  0  0  0  0  0  0  0  0
  -18.1980  -28.3120   22.8140 C   0  0  0  0  0  0  0  0  0  0  0  0
  -20.7720  -28.4170   23.0230 C   0  0  0  0  0  3  0  0  0  0  0  0
  -20.7820  -27.0320   22.3360 C   0  0  0  0  0  2  0  0  0  0  0  0
  -19.6370  -26.8470   21.3350 C   0  0  0  0  0  2  0  0  0  0  0  0
  -18.2830  -27.0130   22.0330 C   0  0  0  0  0  2  0  0  0  0  0  0
  -19.3680  -28.9800   23.2650 C   0  0  0  0  0  0  0  0  0  0  0  0
  -19.2350  -30.2030   23.9560 C   0  0  0  0  0  3  0  0  0  0  0  0
  -17.9640  -30.7560   24.2040 C   0  0  0  0  0  3  0  0  0  0  0  0
  -16.8080  -30.0830   23.7700 C   0  0  0  0  0  3  0  0  0  0  0  0
  -16.9270  -28.8640   23.0800 C   0  0  0  0  0  3  0  0  0  0  0  0
  -26.1290  -32.4240   23.8940 C   0  0  0  0  0  3  0  0  0  0  0  0
  -26.6540  -31.5530   25.1020 C   0  0  1  0  0  0  0  0  0  0  0  0
  -25.5680  -31.2290   26.1540 C   0  0  0  0  0  1  0  0  0  0  0  0
  -27.2370  -30.2140   24.5950 C   0  0  0  0  0  1  0  0  0  0  0  0
  -27.8090  -32.2910   25.8200 C   0  0  0  0  0  1  0  0  0  0  0  0
  -25.8210  -33.7900   24.3390 N   0  0  0  0  0  0  0  0  0  0  0  0
  -26.1500  -34.9010   23.6700 C   0  0  0  0  0  0  0  0  0  0  0  0
  -26.8160  -34.8850   22.6310 O   0  0  0  0  0  0  0  0  0  0  0  0
  -25.2310  -33.8760   25.1540 H   0  0  0  0  0  0  0  0  0  0  0  0
  -24.4240  -36.7210   23.4650 C   0  0  0  0  0  1  0  0  0  0  0  0
  -25.6620  -36.2460   24.2430 C   0  0  0  0  0  3  0  0  0  0  0  0
  -27.7900  -37.0570   25.1610 C   0  0  0  0  0  1  0  0  0  0  0  0
  -26.6940  -37.3050   24.2270 N   0  0  0  0  0  0  0  0  0  0  0  0
  -26.2860  -38.2080   24.4490 H   0  0  0  0  0  0  0  0  0  0  0  0
  1  5  1  0
  2  1  1  0
  2  3  1  0
  3  6  1  0
  5 56  1  0
  5  4  1  0
  6 11  1  0
  6  4  1  0
  7  1  2  0
  8 11  2  0
  8  9  1  0
  9 12  2  0
 10 14  1  0
 10 13  2  0
 11 10  1  0
 12 13  1  0
 12 23  1  0
 13 53  1  0
 15 23  1  0
 16 21  1  0
 17 18  1  0
 17 16  1  0
 19 18  1  0
 19 28  1  0
 19 20  1  0
 21 15  1  0
 21 20  1  0
 22 15  2  0
 23 24  1  0
 25 26  2  0
 26 45  1  0
 27 26  1  0
 27 30  1  0
 28 29  1  0
 28 25  1  0
 29 27  2  0
 30 31  1  0
 31 32  2  0
 33 36  1  0
 33 32  1  0
 34 33  2  0
 35 34  1  0
 35 30  2  0
 36 37  1  0
 37 42  2  0
 37 38  1  0
 38 39  2  0
 39 40  1  0
 40 44  1  0
 41 40  2  0
 42 41  1  0
 43 42  1  0
 45 46  1  0
 46 49  1  0
 46 48  1  0
 47 45  2  0
 50 25  1  0
 50 51  1  0
 52 50  1  0
 53 54  1  0
 55 53  1  0
 57 59  1  0
 57 56  1  0
 58 69  2  0
 59 64  1  0
 60 68  1  0
 60 70  1  0
 61 67  1  0
 61 63  1  0
 62 68  1  0
 63 62  1  0
 64 63  2  0
 65 66  1  0
 65 59  2  0
 66 61  2  0
 67 60  1  0
 68 58  1  0
 70 72  2  0
 71 70  1  0
 73 71  1  0
 74 83  2  0
 74 79  1  0
 75 71  1  0
 75 79  1  0
 76 75  1  0
 77 78  1  0
 77 76  1  0
 78 74  1  0
 79 80  2  0
 80 81  1  0
 82 81  2  0
 83 82  1  0
 84 58  1  0
 84 89  1  0
 84 85  1  0
 85 88  1  1
 85 86  1  0
 87 85  1  0
 89 92  1  0
 90 94  1  0
 90 89  1  0
 91 90  2  0
 94 93  1  0
 96 94  1  0
 96 97  1  0
 96 95  1  0
M  ISO  4  15 100  23 100  56 101  57 101
M  END
>  <TORSDO>  (10) 
F 19

>  <SCORE>  (10) 
-12.983

>  <name>  (10) 
9

>  <ligand_id>  (10) 
9

>  <original_smiles>  (10) 
[H]c1c([H])c([H])c2c(c1[H])C([H])([H])C([H])([H])C([H])([H])C2([H])N([H])C(=O)C1([H])N(C(=O)C([H])(N([H])C(=O)C([H])(N([H])C([H])([H])[H])C([H])([H])[H])C(C([H])([H])[H])(C([H])([H])[H])C([H])([H])[H])C([H])([H])c2c([H])c(OC([H])([H])C3([H])C(=O)C([H])([H])C([H])([H])N(c4c([H])c([H])c(N([H])C(=O)N5C([H])([H])C([H])([H])C([H])([H])C([H])(n6nc(-c7c([H])c([H])c(Oc8c([H])c([H])c(F)c([H])c8F)c([H])c7[H])c(C(=O)N([H])[H])c6N([H])[H])C5([H])[H])c(N([H])[H])c4C([H])([H])[H])C3([H])[H])c([H])c([H])c2C1([H])[H]

>  <smiles>  (10) 
[H]c1c([H])c([H])c2c(c1[H])C([H])([H])C([H])([H])C([H])([H])C2([H])N([H])C(=O)C1([H])N(C(=O)C([H])(N([H])C(=O)C([H])(N([H])C([H])([H])[H])C([H])([H])[H])C(C([H])([H])[H])(C([H])([H])[H])C([H])([H])[H])C([H])([H])c2c([H])c(OC([H])([H])C3([H])C(=O)C([H])([H])C([H])([H])N(c4c([H])c([H])c(N([H])C(=O)N5C([H])([H])C([H])([H])C([H])([H])C([H])(n6nc(-c7c([H])c([H])c(Oc8c([H])c([H])c(F)c([H])c8F)c([H])c7[H])c(C(=O)N([H])[H])c6N([H])[H])C5([H])[H])c(N([H])[H])c4C([H])([H])[H])C3([H])[H])c([H])c([H])c2C1([H])[H]

$$$$
10:0:0
     RDKit          3D

 92100  0  0  1  0  0  0  0  0999 V2000
  -29.9370  -21.4980   19.9790 N   0  0  0  0  0  0  0  0  0  0  0  0
  -30.7860  -21.9410   19.6290 H   0  0  0  0  0  0  0  0  0  0  0  0
  -31.1200  -19.3320   19.9580 C   0  0  0  0  0  3  0  0  0  0  0  0
  -31.1790  -17.9120   20.0780 C   0  0  0  0  0  3  0  0  0  0  0  0
  -28.7590  -19.3020   20.4130 C   0  0  0  0  0  3  0  0  0  0  0  0
  -29.9170  -20.0700   20.1210 C   0  0  0  0  0  0  0  0  0  0  0  0
  -30.0200  -17.1460   20.3690 C   0  0  0  0  0  0  0  0  0  0  0  0
  -28.8140  -17.8800   20.5300 C   0  0  0  0  0  0  0  0  0  0  0  0
  -27.6750  -17.1970   20.7970 F   0  0  0  0  0  0  0  0  0  0  0  0
  -30.7240  -14.6700   20.0040 C   0  0  0  0  0  0  0  0  0  0  0  0
  -30.4410  -12.4800   18.8630 C   0  0  0  0  0  2  0  0  0  0  0  0
  -29.4120  -12.6590   17.7250 C   0  0  0  0  0  2  0  0  0  0  0  0
  -27.9730  -12.4820   18.2500 C   0  0  0  0  0  2  0  0  0  0  0  0
  -27.7040  -13.2910   19.5470 C   0  0  0  0  0  3  0  0  0  0  0  0
  -28.8380  -13.0810   20.5770 C   0  0  0  0  0  2  0  0  0  0  0  0
  -30.1060  -13.4490   19.9260 N   0  0  0  0  0  0  0  0  0  0  0  0
  -31.8480  -14.8510   19.5280 O   0  0  0  0  0  0  0  0  0  0  0  0
  -29.9570  -15.6900   20.4940 N   0  0  0  0  0  0  0  0  0  0  0  0
  -29.0960  -15.3700   20.9110 H   0  0  0  0  0  0  0  0  0  0  0  0
  -25.3580  -13.8550   20.4350 C   0  0  0  0  0  0  0  0  0  0  0  0
  -24.3210  -13.0660   20.8520 C   0  0  0  0  0  0  0  0  0  0  0  0
  -24.7880  -11.7190   20.7550 C   0  0  0  0  0  0  0  0  0  0  0  0
  -26.3910  -12.9900   20.1110 N   0  0  0  0  0  0  0  0  0  0  0  0
  -26.0560  -11.6970   20.3620 N   0  0  0  0  0  0  0  0  0  0  0  0
  -24.0830  -10.4470   20.9580 C   0  0  0  0  0  0  0  0  0  0  0  0
  -24.5300   -9.4980   21.9030 C   0  0  0  0  0  3  0  0  0  0  0  0
  -23.8240   -8.2900   22.0930 C   0  0  0  0  0  3  0  0  0  0  0  0
  -22.6560   -8.0240   21.3390 C   0  0  0  0  0  0  0  0  0  0  0  0
  -22.2290   -8.9630   20.3840 C   0  0  0  0  0  3  0  0  0  0  0  0
  -22.9350  -10.1610   20.1910 C   0  0  0  0  0  3  0  0  0  0  0  0
  -21.9220   -6.8670   21.4380 O   0  0  0  0  0  0  0  0  0  0  0  0
  -21.8200   -6.1780   22.6200 C   0  0  0  0  0  0  0  0  0  0  0  0
  -21.2870   -6.7720   23.7850 C   0  0  0  0  0  3  0  0  0  0  0  0
  -21.1360   -6.0070   24.9590 C   0  0  0  0  0  3  0  0  0  0  0  0
  -21.5080   -4.6480   24.9680 C   0  0  0  0  0  0  0  0  0  0  0  0
  -22.0330   -4.0550   23.8060 C   0  0  0  0  0  3  0  0  0  0  0  0
  -22.1860   -4.8170   22.6350 C   0  0  0  0  0  0  0  0  0  0  0  0
  -22.6730   -4.2350   21.5130 F   0  0  0  0  0  0  0  0  0  0  0  0
  -21.3560   -3.9110   26.0910 F   0  0  0  0  0  0  0  0  0  0  0  0
  -22.9430  -13.5260   21.2290 C   0  0  0  0  0  0  0  0  0  0  0  0
  -22.2770  -12.8010   22.1210 N   0  0  0  0  0  0  0  0  0  0  0  0
  -22.4650  -14.5620   20.7680 O   0  0  0  0  0  0  0  0  0  0  0  0
  -22.6770  -11.9610   22.5150 H   0  0  0  0  0  0  0  0  0  0  0  0
  -21.3550  -13.0900   22.4160 H   0  0  0  0  0  0  0  0  0  0  0  0
  -25.5010  -15.2310   20.2890 N   0  0  0  0  0  0  0  0  0  0  0  0
  -24.7480  -15.8740   20.5030 H   0  0  0  0  0  0  0  0  0  0  0  0
  -26.3500  -15.7030   20.0010 H   0  0  0  0  0  0  0  0  0  0  0  0
  -28.8510  -22.4680   20.3230 C   0  0  0  0  0  2  0  0  0  0  0  0
  -29.1550  -23.9990   20.0540 C   0  0  0  0  0  0  0  0  0  0  0  0
  -30.2250  -24.3270   19.5280 O   0  0  0  0  0  0  0  0  0  0  0  0
  -28.0880  -25.0850   20.4610 C   0  0  0  0  0  2  0  0  0  0  0  0
  -28.3750  -26.4940   20.0960 O   0  0  0  0  0  0  0  0  0  0  0  0
  -24.5730  -31.8110   23.1550 C   0  0  0  0  0  0  0  0  0  0  0  0
  -27.2620  -27.3430   20.0560 C   0  0  0  0  0  0  0  0  0  0  0  0
  -23.4060  -30.4460   21.4590 C   0  0  0  0  0  3  0  0  0  0  0  0
  -24.8920  -28.9350   20.0300 C   0  0  0  0  0  0  0  0  0  0  0  0
  -25.9470  -30.7800   21.3350 C   0  0  0  0  0  2  0  0  0  0  0  0
  -26.0450  -29.4170   20.6620 C   0  0  0  0  0  0  0  0  0  0  0  0
  -27.2360  -28.6340   20.6660 C   0  0  0  0  0  3  0  0  0  0  0  0
  -26.0910  -26.9170   19.3900 C   0  0  0  0  0  3  0  0  0  0  0  0
  -24.9150  -27.6890   19.3850 C   0  0  0  0  0  3  0  0  0  0  0  0
  -23.6500  -29.8020   20.0700 C   0  0  0  0  0  2  0  0  0  0  0  0
  -24.6590  -31.0280   22.0410 N   0  0  0  0  0  0  0  0  0  0  0  0
  -23.4780  -32.0730   23.6740 O   0  0  0  0  0  0  0  0  0  0  0  0
  -22.7290  -29.4050   22.3830 C   0  0  0  0  0  0  0  0  0  0  0  0
  -21.3970  -29.2630   22.2590 N   0  0  0  0  0  0  0  0  0  0  0  0
  -23.3980  -28.7300   23.1680 O   0  0  0  0  0  0  0  0  0  0  0  0
  -20.9170  -29.8600   21.5990 H   0  0  0  0  0  0  0  0  0  0  0  0
  -17.9870  -28.1930   22.8020 C   0  0  0  0  0  0  0  0  0  0  0  0
  -20.5610  -28.3170   22.9970 C   0  0  0  0  0  3  0  0  0  0  0  0
  -20.5760  -26.9220   22.3300 C   0  0  0  0  0  2  0  0  0  0  0  0
  -19.4280  -26.7160   21.3380 C   0  0  0  0  0  2  0  0  0  0  0  0
  -18.0760  -26.8830   22.0370 C   0  0  0  0  0  2  0  0  0  0  0  0
  -19.1540  -28.8740   23.2390 C   0  0  0  0  0  0  0  0  0  0  0  0
  -19.0140  -30.1050   23.9160 C   0  0  0  0  0  3  0  0  0  0  0  0
  -17.7410  -30.6540   24.1580 C   0  0  0  0  0  3  0  0  0  0  0  0
  -16.5880  -29.9670   23.7380 C   0  0  0  0  0  3  0  0  0  0  0  0
  -16.7120  -28.7390   23.0660 C   0  0  0  0  0  3  0  0  0  0  0  0
  -25.8410  -32.4320   23.8170 C   0  0  0  0  0  3  0  0  0  0  0  0
  -26.3210  -31.6460   25.0980 C   0  0  1  0  0  0  0  0  0  0  0  0
  -25.1970  -31.3930   26.1300 C   0  0  0  0  0  1  0  0  0  0  0  0
  -26.9180  -30.2730   24.7060 C   0  0  0  0  0  1  0  0  0  0  0  0
  -27.4500  -32.4320   25.8030 C   0  0  0  0  0  1  0  0  0  0  0  0
  -25.5290  -33.8280   24.1530 N   0  0  0  0  0  0  0  0  0  0  0  0
  -25.8790  -34.8870   23.4120 C   0  0  0  0  0  0  0  0  0  0  0  0
  -26.5680  -34.7900   22.3910 O   0  0  0  0  0  0  0  0  0  0  0  0
  -24.9210  -33.9760   24.9460 H   0  0  0  0  0  0  0  0  0  0  0  0
  -24.1630  -36.6860   23.0380 C   0  0  0  0  0  1  0  0  0  0  0  0
  -25.3860  -36.2720   23.8710 C   0  0  0  0  0  3  0  0  0  0  0  0
  -27.5010  -37.1450   24.7600 C   0  0  0  0  0  1  0  0  0  0  0  0
  -26.4240  -37.3230   23.7910 N   0  0  0  0  0  0  0  0  0  0  0  0
  -26.0160  -38.2430   23.9360 H   0  0  0  0  0  0  0  0  0  0  0  0
  1  6  1  0
  1 48  1  0
  2  1  1  0
  3  4  2  0
  3  6  1  0
  4  7  1  0
  5  8  1  0
  6  5  2  0
  7 18  1  0
  7  8  2  0
  8  9  1  0
 10 18  1  0
 11 16  1  0
 12 13  1  0
 12 11  1  0
 14 13  1  0
 14 23  1  0
 14 15  1  0
 16 10  1  0
 16 15  1  0
 17 10  2  0
 18 19  1  0
 20 21  2  0
 21 40  1  0
 22 21  1  0
 22 25  1  0
 23 24  1  0
 23 20  1  0
 24 22  2  0
 25 26  1  0
 26 27  2  0
 28 31  1  0
 28 27  1  0
 29 28  2  0
 30 29  1  0
 30 25  2  0
 31 32  1  0
 32 37  2  0
 32 33  1  0
 33 34  2  0
 34 35  1  0
 35 39  1  0
 36 35  2  0
 37 36  1  0
 38 37  1  0
 40 41  1  0
 41 44  1  0
 41 43  1  0
 42 40  2  0
 45 20  1  0
 45 46  1  0
 47 45  1  0
 49 48  1  0
 49 51  1  0
 50 49  2  0
 52 51  1  0
 53 64  2  0
 54 52  1  0
 54 59  1  0
 55 63  1  0
 55 65  1  0
 56 62  1  0
 56 58  1  0
 57 63  1  0
 58 59  2  0
 58 57  1  0
 60 54  2  0
 61 60  1  0
 61 56  2  0
 62 55  1  0
 63 53  1  0
 65 67  2  0
 66 65  1  0
 68 66  1  0
 69 78  2  0
 69 74  1  0
 70 66  1  0
 70 74  1  0
 71 70  1  0
 72 73  1  0
 72 71  1  0
 73 69  1  0
 74 75  2  0
 75 76  1  0
 77 76  2  0
 78 77  1  0
 79 53  1  0
 79 84  1  0
 79 80  1  0
 80 83  1  1
 80 81  1  0
 82 80  1  0
 84 87  1  0
 85 89  1  0
 85 84  1  0
 86 85  2  0
 89 88  1  0
 91 89  1  0
 91 92  1  0
 91 90  1  0
M  ISO  4  10 100  18 100  51 101  52 101
M  END
>  <TORSDO>  (11) 
F 20

>  <SCORE>  (11) 
-13.692

>  <name>  (11) 
10

>  <ligand_id>  (11) 
10

>  <original_smiles>  (11) 
[H]c1c([H])c([H])c2c(c1[H])C([H])([H])C([H])([H])C([H])([H])C2([H])N([H])C(=O)C1([H])N(C(=O)C([H])(N([H])C(=O)C([H])(N([H])C([H])([H])[H])C([H])([H])[H])C(C([H])([H])[H])(C([H])([H])[H])C([H])([H])[H])C([H])([H])c2c([H])c(OC([H])([H])C(=O)C([H])([H])N([H])c3c([H])c([H])c(N([H])C(=O)N4C([H])([H])C([H])([H])C([H])([H])C([H])(n5nc(-c6c([H])c([H])c(Oc7c([H])c([H])c(F)c([H])c7F)c([H])c6[H])c(C(=O)N([H])[H])c5N([H])[H])C4([H])[H])c(F)c3[H])c([H])c([H])c2C1([H])[H]

>  <smiles>  (11) 
[H]c1c([H])c([H])c2c(c1[H])C([H])([H])C([H])([H])C([H])([H])C2([H])N([H])C(=O)C1([H])N(C(=O)C([H])(N([H])C(=O)C([H])(N([H])C([H])([H])[H])C([H])([H])[H])C(C([H])([H])[H])(C([H])([H])[H])C([H])([H])[H])C([H])([H])c2c([H])c(OC([H])([H])C(=O)C([H])([H])N([H])c3c([H])c([H])c(N([H])C(=O)N4C([H])([H])C([H])([H])C([H])([H])C([H])(n5nc(-c6c([H])c([H])c(Oc7c([H])c([H])c(F)c([H])c7F)c([H])c6[H])c(C(=O)N([H])[H])c5N([H])[H])C4([H])[H])c(F)c3[H])c([H])c([H])c2C1([H])[H]

$$$$
11:0:0
     RDKit          3D

 94103  0  0  1  0  0  0  0  0999 V2000
  -31.0010  -22.0060   21.5050 C   0  0  0  0  0  0  0  0  0  0  0  0
  -31.2030  -23.5180   21.6770 C   0  0  0  0  0  2  0  0  0  0  0  0
  -29.9290  -24.3450   21.4930 C   0  0  0  0  0  2  0  0  0  0  0  0
  -29.0210  -22.4630   20.0800 C   0  0  0  0  0  2  0  0  0  0  0  0
  -29.3230  -24.0360   20.1300 C   0  0  0  0  0  3  0  0  0  0  0  0
  -30.0750  -21.5210   20.6220 N   0  0  0  0  0  0  0  0  0  0  0  0
  -31.7290  -21.2770   22.1890 O   0  0  0  0  0  0  0  0  0  0  0  0
  -31.1770  -19.2650   20.2510 C   0  0  0  0  0  3  0  0  0  0  0  0
  -31.1580  -17.8400   20.2410 C   0  0  0  0  0  3  0  0  0  0  0  0
  -28.7870  -19.3300   20.5130 C   0  0  0  0  0  3  0  0  0  0  0  0
  -30.0040  -20.0580   20.4310 C   0  0  0  0  0  0  0  0  0  0  0  0
  -29.9460  -17.1210   20.4000 C   0  0  0  0  0  0  0  0  0  0  0  0
  -28.7650  -17.9030   20.5070 C   0  0  0  0  0  0  0  0  0  0  0  0
  -27.5780  -17.2630   20.6290 F   0  0  0  0  0  0  0  0  0  0  0  0
  -30.5850  -14.6270   20.0440 C   0  0  0  0  0  0  0  0  0  0  0  0
  -30.2870  -12.4260   18.9340 C   0  0  0  0  0  2  0  0  0  0  0  0
  -29.2770  -12.6070   17.7780 C   0  0  0  0  0  2  0  0  0  0  0  0
  -27.8280  -12.4570   18.2830 C   0  0  0  0  0  2  0  0  0  0  0  0
  -27.5520  -13.2870   19.5650 C   0  0  0  0  0  3  0  0  0  0  0  0
  -28.6680  -13.0770   20.6140 C   0  0  0  0  0  2  0  0  0  0  0  0
  -29.9500  -13.4150   19.9750 N   0  0  0  0  0  0  0  0  0  0  0  0
  -31.7240  -14.7810   19.5970 O   0  0  0  0  0  0  0  0  0  0  0  0
  -29.8100  -15.6680   20.4680 N   0  0  0  0  0  0  0  0  0  0  0  0
  -28.9080  -15.3740   20.8120 H   0  0  0  0  0  0  0  0  0  0  0  0
  -25.2050  -13.8990   20.4150 C   0  0  0  0  0  0  0  0  0  0  0  0
  -24.1480  -13.1300   20.8200 C   0  0  0  0  0  0  0  0  0  0  0  0
  -24.5930  -11.7750   20.7400 C   0  0  0  0  0  0  0  0  0  0  0  0
  -26.2270  -13.0120   20.1130 N   0  0  0  0  0  0  0  0  0  0  0  0
  -25.8670  -11.7280   20.3680 N   0  0  0  0  0  0  0  0  0  0  0  0
  -23.8630  -10.5160   20.9440 C   0  0  0  0  0  0  0  0  0  0  0  0
  -24.3090   -9.5450   21.8670 C   0  0  0  0  0  3  0  0  0  0  0  0
  -23.5800   -8.3510   22.0580 C   0  0  0  0  0  3  0  0  0  0  0  0
  -22.3910   -8.1220   21.3250 C   0  0  0  0  0  0  0  0  0  0  0  0
  -21.9650   -9.0820   20.3910 C   0  0  0  0  0  3  0  0  0  0  0  0
  -22.6940  -10.2670   20.1990 C   0  0  0  0  0  3  0  0  0  0  0  0
  -21.6320   -6.9810   21.4260 O   0  0  0  0  0  0  0  0  0  0  0  0
  -21.5640   -6.2630   22.5930 C   0  0  0  0  0  0  0  0  0  0  0  0
  -21.1170   -6.8420   23.8000 C   0  0  0  0  0  3  0  0  0  0  0  0
  -20.9960   -6.0500   24.9590 C   0  0  0  0  0  3  0  0  0  0  0  0
  -21.3110   -4.6790   24.9110 C   0  0  0  0  0  0  0  0  0  0  0  0
  -21.7520   -4.0990   23.7090 C   0  0  0  0  0  3  0  0  0  0  0  0
  -21.8740   -4.8870   22.5520 C   0  0  0  0  0  0  0  0  0  0  0  0
  -22.2790   -4.3190   21.3910 F   0  0  0  0  0  0  0  0  0  0  0  0
  -21.1880   -3.9160   26.0230 F   0  0  0  0  0  0  0  0  0  0  0  0
  -22.7720  -13.6160   21.1740 C   0  0  0  0  0  0  0  0  0  0  0  0
  -22.0830  -12.9110   22.0640 N   0  0  0  0  0  0  0  0  0  0  0  0
  -22.3190  -14.6560   20.6970 O   0  0  0  0  0  0  0  0  0  0  0  0
  -22.4640  -12.0690   22.4700 H   0  0  0  0  0  0  0  0  0  0  0  0
  -21.1620  -13.2170   22.3440 H   0  0  0  0  0  0  0  0  0  0  0  0
  -25.3750  -15.2720   20.2640 N   0  0  0  0  0  0  0  0  0  0  0  0
  -24.6350  -15.9310   20.4740 H   0  0  0  0  0  0  0  0  0  0  0  0
  -26.2450  -15.7290   20.0200 H   0  0  0  0  0  0  0  0  0  0  0  0
  -28.1290  -25.0240   19.7950 C   0  0  0  0  0  2  0  0  0  0  0  0
  -28.3330  -26.4830   19.9350 O   0  0  0  0  0  0  0  0  0  0  0  0
  -24.5180  -31.7160   23.1150 C   0  0  0  0  0  0  0  0  0  0  0  0
  -27.1950  -27.3050   19.9170 C   0  0  0  0  0  0  0  0  0  0  0  0
  -23.3330  -30.3550   21.4310 C   0  0  0  0  0  3  0  0  0  0  0  0
  -24.8030  -28.8720   19.9590 C   0  0  0  0  0  0  0  0  0  0  0  0
  -25.8660  -30.7170   21.2580 C   0  0  0  0  0  2  0  0  0  0  0  0
  -25.9650  -29.3620   20.5680 C   0  0  0  0  0  0  0  0  0  0  0  0
  -27.1650  -28.5910   20.5360 C   0  0  0  0  0  3  0  0  0  0  0  0
  -26.0030  -26.8640   19.2910 C   0  0  0  0  0  3  0  0  0  0  0  0
  -24.8240  -27.6290   19.3130 C   0  0  0  0  0  3  0  0  0  0  0  0
  -23.5550  -29.7270   20.0310 C   0  0  0  0  0  2  0  0  0  0  0  0
  -24.5910  -30.9440   21.9930 N   0  0  0  0  0  0  0  0  0  0  0  0
  -23.4310  -31.9620   23.6590 O   0  0  0  0  0  0  0  0  0  0  0  0
  -22.6840  -29.2990   22.3570 C   0  0  0  0  0  0  0  0  0  0  0  0
  -21.3580  -29.1190   22.2360 N   0  0  0  0  0  0  0  0  0  0  0  0
  -23.3730  -28.6460   23.1460 O   0  0  0  0  0  0  0  0  0  0  0  0
  -20.8620  -29.7000   21.5740 H   0  0  0  0  0  0  0  0  0  0  0  0
  -17.9860  -27.9130   22.7410 C   0  0  0  0  0  0  0  0  0  0  0  0
  -20.5500  -28.1510   22.9770 C   0  0  0  0  0  3  0  0  0  0  0  0
  -20.6350  -26.7460   22.3370 C   0  0  0  0  0  2  0  0  0  0  0  0
  -19.5150  -26.4710   21.3300 C   0  0  0  0  0  2  0  0  0  0  0  0
  -18.1440  -26.5940   22.0050 C   0  0  0  0  0  2  0  0  0  0  0  0
  -19.1150  -28.6520   23.1850 C   0  0  0  0  0  0  0  0  0  0  0  0
  -18.9130  -29.8870   23.8360 C   0  0  0  0  0  3  0  0  0  0  0  0
  -17.6130  -30.3860   24.0460 C   0  0  0  0  0  3  0  0  0  0  0  0
  -16.4990  -29.6440   23.6190 C   0  0  0  0  0  3  0  0  0  0  0  0
  -16.6850  -28.4100   22.9720 C   0  0  0  0  0  3  0  0  0  0  0  0
  -25.7930  -32.3460   23.7570 C   0  0  0  0  0  3  0  0  0  0  0  0
  -25.4690  -33.7320   24.1190 N   0  0  0  0  0  0  0  0  0  0  0  0
  -25.7710  -34.8050   23.3750 C   0  0  0  0  0  0  0  0  0  0  0  0
  -26.4230  -34.7320   22.3300 O   0  0  0  0  0  0  0  0  0  0  0  0
  -24.8890  -33.8640   24.9360 H   0  0  0  0  0  0  0  0  0  0  0  0
  -24.0000  -36.5700   23.0990 C   0  0  0  0  0  1  0  0  0  0  0  0
  -25.2710  -36.1760   23.8690 C   0  0  0  0  0  3  0  0  0  0  0  0
  -27.4100  -37.0910   24.6550 C   0  0  0  0  0  1  0  0  0  0  0  0
  -26.2790  -37.2510   23.7430 N   0  0  0  0  0  0  0  0  0  0  0  0
  -25.8610  -38.1610   23.9170 H   0  0  0  0  0  0  0  0  0  0  0  0
  -26.3110  -31.5480   25.0160 C   0  0  1  0  0  0  0  0  0  0  0  0
  -25.2160  -31.2740   26.0740 C   0  0  0  0  0  1  0  0  0  0  0  0
  -26.9090  -30.1870   24.5930 C   0  0  0  0  0  1  0  0  0  0  0  0
  -27.4530  -32.3360   25.7010 C   0  0  0  0  0  1  0  0  0  0  0  0
  1  2  1  0
  1  7  2  0
  3  2  1  0
  4  5  1  0
  4  6  1  0
  5 53  1  0
  5  3  1  0
  6  1  1  0
  8 11  1  0
  9  8  2  0
  9 12  1  0
 11 10  2  0
 11  6  1  0
 12 23  1  0
 12 13  2  0
 13 10  1  0
 13 14  1  0
 15 23  1  0
 16 21  1  0
 17 18  1  0
 17 16  1  0
 19 18  1  0
 19 28  1  0
 19 20  1  0
 21 15  1  0
 21 20  1  0
 22 15  2  0
 23 24  1  0
 25 26  2  0
 26 45  1  0
 27 26  1  0
 27 30  1  0
 28 29  1  0
 28 25  1  0
 29 27  2  0
 30 31  1  0
 31 32  2  0
 33 36  1  0
 33 32  1  0
 34 33  2  0
 35 34  1  0
 35 30  2  0
 36 37  1  0
 37 38  1  0
 38 39  2  0
 40 39  1  0
 40 44  1  0
 41 40  2  0
 42 37  2  0
 42 41  1  0
 43 42  1  0
 45 46  1  0
 46 49  1  0
 46 48  1  0
 47 45  2  0
 50 25  1  0
 50 51  1  0
 52 50  1  0
 53 54  1  0
 55 66  2  0
 56 54  1  0
 56 61  1  0
 57 65  1  0
 57 67  1  0
 58 64  1  0
 58 60  1  0
 59 65  1  0
 60 59  1  0
 61 60  2  0
 62 63  1  0
 62 56  2  0
 63 58  2  0
 64 57  1  0
 65 55  1  0
 67 69  2  0
 68 67  1  0
 70 68  1  0
 71 80  2  0
 71 76  1  0
 72 68  1  0
 72 76  1  0
 73 72  1  0
 74 75  1  0
 74 73  1  0
 75 71  1  0
 76 77  2  0
 77 78  1  0
 79 78  2  0
 80 79  1  0
 81 55  1  0
 81 82  1  0
 81 91  1  0
 82 85  1  0
 83 87  1  0
 83 82  1  0
 84 83  2  0
 87 86  1  0
 89 87  1  0
 89 90  1  0
 89 88  1  0
 91 94  1  1
 91 92  1  0
 93 91  1  0
M  ISO  4  15 100  23 100  53 101  54 101
M  END
>  <TORSDO>  (12) 
F 18

>  <SCORE>  (12) 
-14.494

>  <name>  (12) 
11

>  <ligand_id>  (12) 
11

>  <original_smiles>  (12) 
[H]c1c([H])c([H])c2c(c1[H])C([H])([H])C([H])([H])C([H])([H])C2([H])N([H])C(=O)C1([H])N(C(=O)C([H])(N([H])C(=O)C([H])(N([H])C([H])([H])[H])C([H])([H])[H])C(C([H])([H])[H])(C([H])([H])[H])C([H])([H])[H])C([H])([H])c2c([H])c(OC([H])([H])C3([H])C([H])([H])N(c4c([H])c([H])c(N([H])C(=O)N5C([H])([H])C([H])([H])C([H])([H])C([H])(n6nc(-c7c([H])c([H])c(Oc8c([H])c([H])c(F)c([H])c8F)c([H])c7[H])c(C(=O)N([H])[H])c6N([H])[H])C5([H])[H])c(F)c4[H])C(=O)C([H])([H])C3([H])[H])c([H])c([H])c2C1([H])[H]

>  <smiles>  (12) 
[H]c1c([H])c([H])c2c(c1[H])C([H])([H])C([H])([H])C([H])([H])C2([H])N([H])C(=O)C1([H])N(C(=O)C([H])(N([H])C(=O)C([H])(N([H])C([H])([H])[H])C([H])([H])[H])C(C([H])([H])[H])(C([H])([H])[H])C([H])([H])[H])C([H])([H])c2c([H])c(OC([H])([H])C3([H])C([H])([H])N(c4c([H])c([H])c(N([H])C(=O)N5C([H])([H])C([H])([H])C([H])([H])C([H])(n6nc(-c7c([H])c([H])c(Oc8c([H])c([H])c(F)c([H])c8F)c([H])c7[H])c(C(=O)N([H])[H])c6N([H])[H])C5([H])[H])c(F)c4[H])C(=O)C([H])([H])C3([H])[H])c([H])c([H])c2C1([H])[H]

$$$$
12:0:0
     RDKit          3D

 95104  0  0  1  0  0  0  0  0999 V2000
  -31.6300  -22.4900   20.8130 C   0  0  0  0  0  0  0  0  0  0  0  0
  -29.4680  -22.7420   19.8300 C   0  0  0  0  0  0  0  0  0  0  0  0
  -31.7220  -24.0180   21.0780 C   0  0  0  0  0  2  0  0  0  0  0  0
  -30.7360  -24.8700   20.2660 C   0  0  0  0  0  2  0  0  0  0  0  0
  -29.3520  -24.2380   20.3410 C   0  0  0  0  0  3  0  0  0  0  0  0
  -30.5240  -21.9260   20.2190 N   0  0  0  0  0  0  0  0  0  0  0  0
  -32.6140  -21.8240   21.1820 O   0  0  0  0  0  0  0  0  0  0  0  0
  -28.6070  -22.3440   19.0380 O   0  0  0  0  0  0  0  0  0  0  0  0
  -31.4390  -19.5950   19.5180 C   0  0  0  0  0  3  0  0  0  0  0  0
  -31.3350  -18.1570   19.4980 C   0  0  0  0  0  3  0  0  0  0  0  0
  -29.2120  -18.3150   20.5870 C   0  0  0  0  0  3  0  0  0  0  0  0
  -30.4380  -20.4370   20.1000 C   0  0  0  0  0  0  0  0  0  0  0  0
  -30.2100  -17.4610   20.0370 C   0  0  0  0  0  0  0  0  0  0  0  0
  -29.3280  -19.7350   20.6400 C   0  0  0  0  0  0  0  0  0  0  0  0
  -28.3360  -20.4370   21.2360 F   0  0  0  0  0  0  0  0  0  0  0  0
  -30.5670  -14.8580   20.0510 C   0  0  0  0  0  0  0  0  0  0  0  0
  -30.2980  -12.5210   19.2050 C   0  0  0  0  0  2  0  0  0  0  0  0
  -29.3010  -12.3990   18.0290 C   0  0  0  0  0  2  0  0  0  0  0  0
  -27.8520  -12.2880   18.5460 C   0  0  0  0  0  2  0  0  0  0  0  0
  -27.5010  -13.2570   19.7060 C   0  0  0  0  0  3  0  0  0  0  0  0
  -28.6310  -13.3210   20.7620 C   0  0  0  0  0  2  0  0  0  0  0  0
  -29.8800  -13.6530   20.0580 N   0  0  0  0  0  0  0  0  0  0  0  0
  -31.7910  -14.8440   19.9470 O   0  0  0  0  0  0  0  0  0  0  0  0
  -29.0270  -16.0280   18.5470 C   0  0  0  0  0  1  0  0  0  0  0  0
  -29.8750  -16.0410   19.7450 N   0  0  0  0  0  0  0  0  0  0  0  0
  -25.1610  -13.8620   20.5650 C   0  0  0  0  0  0  0  0  0  0  0  0
  -24.1040  -13.0880   20.9640 C   0  0  0  0  0  0  0  0  0  0  0  0
  -24.5570  -11.7350   20.8940 C   0  0  0  0  0  0  0  0  0  0  0  0
  -26.1870  -12.9760   20.2780 N   0  0  0  0  0  0  0  0  0  0  0  0
  -25.8350  -11.6940   20.5420 N   0  0  0  0  0  0  0  0  0  0  0  0
  -23.8340  -10.4730   21.0860 C   0  0  0  0  0  0  0  0  0  0  0  0
  -24.3010   -9.4870   21.9820 C   0  0  0  0  0  3  0  0  0  0  0  0
  -23.5820   -8.2870   22.1670 C   0  0  0  0  0  3  0  0  0  0  0  0
  -22.3800   -8.0640   21.4520 C   0  0  0  0  0  0  0  0  0  0  0  0
  -21.9310   -9.0410   20.5460 C   0  0  0  0  0  3  0  0  0  0  0  0
  -22.6510  -10.2320   20.3600 C   0  0  0  0  0  3  0  0  0  0  0  0
  -21.6300   -6.9180   21.5500 O   0  0  0  0  0  0  0  0  0  0  0  0
  -21.6250   -6.1550   22.6900 C   0  0  0  0  0  0  0  0  0  0  0  0
  -21.2290   -6.6830   23.9380 C   0  0  0  0  0  3  0  0  0  0  0  0
  -21.1700   -5.8460   25.0690 C   0  0  0  0  0  3  0  0  0  0  0  0
  -21.4980   -4.4820   24.9550 C   0  0  0  0  0  0  0  0  0  0  0  0
  -21.8940   -3.9550   23.7120 C   0  0  0  0  0  3  0  0  0  0  0  0
  -21.9510   -4.7880   22.5820 C   0  0  0  0  0  0  0  0  0  0  0  0
  -22.3100   -4.2690   21.3820 F   0  0  0  0  0  0  0  0  0  0  0  0
  -21.4370   -3.6770   26.0400 F   0  0  0  0  0  0  0  0  0  0  0  0
  -22.7190  -13.5650   21.2900 C   0  0  0  0  0  0  0  0  0  0  0  0
  -22.0240  -12.8500   22.1690 N   0  0  0  0  0  0  0  0  0  0  0  0
  -22.2670  -14.6020   20.8100 O   0  0  0  0  0  0  0  0  0  0  0  0
  -22.4080  -12.0070   22.5700 H   0  0  0  0  0  0  0  0  0  0  0  0
  -21.0980  -13.1490   22.4400 H   0  0  0  0  0  0  0  0  0  0  0  0
  -25.3300  -15.2330   20.3950 N   0  0  0  0  0  0  0  0  0  0  0  0
  -24.5960  -15.9090   20.5720 H   0  0  0  0  0  0  0  0  0  0  0  0
  -26.1850  -15.6570   20.0570 H   0  0  0  0  0  0  0  0  0  0  0  0
  -28.2330  -25.1740   19.7160 C   0  0  0  0  0  2  0  0  0  0  0  0
  -28.3260  -26.6090   20.0430 O   0  0  0  0  0  0  0  0  0  0  0  0
  -24.5850  -31.8680   23.2290 C   0  0  0  0  0  0  0  0  0  0  0  0
  -27.1720  -27.4020   20.0260 C   0  0  0  0  0  0  0  0  0  0  0  0
  -23.3580  -30.4960   21.5810 C   0  0  0  0  0  3  0  0  0  0  0  0
  -24.7890  -28.9760   20.1010 C   0  0  0  0  0  0  0  0  0  0  0  0
  -25.8920  -30.8290   21.3670 C   0  0  0  0  0  2  0  0  0  0  0  0
  -25.9640  -29.4670   20.6860 C   0  0  0  0  0  0  0  0  0  0  0  0
  -27.1530  -28.6890   20.6410 C   0  0  0  0  0  3  0  0  0  0  0  0
  -25.9720  -26.9560   19.4210 C   0  0  0  0  0  3  0  0  0  0  0  0
  -24.7930  -27.7220   19.4680 C   0  0  0  0  0  3  0  0  0  0  0  0
  -23.5460  -29.8360   20.1880 C   0  0  0  0  0  2  0  0  0  0  0  0
  -24.6300  -31.0800   22.1150 N   0  0  0  0  0  0  0  0  0  0  0  0
  -23.5100  -32.1380   23.7830 O   0  0  0  0  0  0  0  0  0  0  0  0
  -22.7140  -29.4610   22.5310 C   0  0  0  0  0  0  0  0  0  0  0  0
  -21.3880  -29.2800   22.4120 N   0  0  0  0  0  0  0  0  0  0  0  0
  -23.4040  -28.8210   23.3270 O   0  0  0  0  0  0  0  0  0  0  0  0
  -20.8970  -29.8480   21.7360 H   0  0  0  0  0  0  0  0  0  0  0  0
  -18.0150  -28.0720   22.9200 C   0  0  0  0  0  0  0  0  0  0  0  0
  -20.5770  -28.3290   23.1710 C   0  0  0  0  0  3  0  0  0  0  0  0
  -20.6720  -26.9070   22.5670 C   0  0  0  0  0  2  0  0  0  0  0  0
  -19.5620  -26.6030   21.5560 C   0  0  0  0  0  2  0  0  0  0  0  0
  -18.1860  -26.7360   22.2170 C   0  0  0  0  0  2  0  0  0  0  0  0
  -19.1390  -28.8270   23.3520 C   0  0  0  0  0  0  0  0  0  0  0  0
  -18.9280  -30.0810   23.9650 C   0  0  0  0  0  3  0  0  0  0  0  0
  -17.6260  -30.5790   24.1530 C   0  0  0  0  0  3  0  0  0  0  0  0
  -16.5170  -29.8210   23.7410 C   0  0  0  0  0  3  0  0  0  0  0  0
  -16.7120  -28.5690   23.1310 C   0  0  0  0  0  3  0  0  0  0  0  0
  -25.8780  -32.4870   23.8430 C   0  0  0  0  0  3  0  0  0  0  0  0
  -25.5860  -33.8860   24.1820 N   0  0  0  0  0  0  0  0  0  0  0  0
  -25.9160  -34.9390   23.4210 C   0  0  0  0  0  0  0  0  0  0  0  0
  -26.5720  -34.8360   22.3820 O   0  0  0  0  0  0  0  0  0  0  0  0
  -24.9990  -34.0420   24.9890 H   0  0  0  0  0  0  0  0  0  0  0  0
  -24.1990  -36.7460   23.0880 C   0  0  0  0  0  1  0  0  0  0  0  0
  -25.4400  -36.3280   23.8900 C   0  0  0  0  0  3  0  0  0  0  0  0
  -27.5820  -37.1940   24.7200 C   0  0  0  0  0  1  0  0  0  0  0  0
  -26.4790  -37.3730   23.7790 N   0  0  0  0  0  0  0  0  0  0  0  0
  -26.0830  -38.2960   23.9280 H   0  0  0  0  0  0  0  0  0  0  0  0
  -26.4010  -31.7070   25.1130 C   0  0  1  0  0  0  0  0  0  0  0  0
  -25.3140  -31.4680   26.1870 C   0  0  0  0  0  1  0  0  0  0  0  0
  -26.9740  -30.3270   24.7120 C   0  0  0  0  0  1  0  0  0  0  0  0
  -27.5610  -32.4910   25.7700 C   0  0  0  0  0  1  0  0  0  0  0  0
  1  3  1  0
  1  7  2  0
  2  6  1  0
  2  5  1  0
  4  5  1  0
  4  3  1  0
  5 54  1  0
  6  1  1  0
  8  2  2  0
  9 12  1  0
 10  9  2  0
 10 13  1  0
 11 14  1  0
 12  6  1  0
 12 14  2  0
 13 11  2  0
 14 15  1  0
 16 22  1  0
 17 22  1  0
 18 19  1  0
 18 17  1  0
 20 19  1  0
 20 29  1  0
 20 21  1  0
 22 21  1  0
 23 16  2  0
 24 25  1  0
 25 13  1  0
 25 16  1  0
 26 27  2  0
 27 46  1  0
 28 27  1  0
 28 31  1  0
 29 30  1  0
 29 26  1  0
 30 28  2  0
 31 32  1  0
 32 33  2  0
 34 37  1  0
 34 33  1  0
 35 34  2  0
 36 35  1  0
 36 31  2  0
 37 38  1  0
 38 39  1  0
 39 40  2  0
 41 40  1  0
 41 45  1  0
 42 41  2  0
 43 38  2  0
 43 42  1  0
 44 43  1  0
 46 47  1  0
 47 50  1  0
 47 49  1  0
 48 46  2  0
 51 26  1  0
 51 52  1  0
 53 51  1  0
 54 55  1  0
 56 67  2  0
 57 55  1  0
 57 62  1  0
 58 66  1  0
 58 68  1  0
 59 65  1  0
 59 61  1  0
 60 66  1  0
 61 60  1  0
 62 61  2  0
 63 64  1  0
 63 57  2  0
 64 59  2  0
 65 58  1  0
 66 56  1  0
 68 70  2  0
 69 68  1  0
 71 69  1  0
 72 81  2  0
 72 77  1  0
 73 69  1  0
 73 77  1  0
 74 73  1  0
 75 76  1  0
 75 74  1  0
 76 72  1  0
 77 78  2  0
 78 79  1  0
 80 79  2  0
 81 80  1  0
 82 56  1  0
 82 83  1  0
 82 92  1  0
 83 86  1  0
 84 88  1  0
 84 83  1  0
 85 84  2  0
 88 87  1  0
 90 88  1  0
 90 91  1  0
 90 89  1  0
 92 95  1  1
 92 93  1  0
 94 92  1  0
M  ISO  4  16 100  25 100  54 101  55 101
M  END
>  <TORSDO>  (13) 
F 18

>  <SCORE>  (13) 
-13.934

>  <name>  (13) 
12

>  <ligand_id>  (13) 
12

>  <original_smiles>  (13) 
[H]c1c([H])c([H])c2c(c1[H])C([H])([H])C([H])([H])C([H])([H])C2([H])N([H])C(=O)C1([H])N(C(=O)C([H])(N([H])C(=O)C([H])(N([H])C([H])([H])[H])C([H])([H])[H])C(C([H])([H])[H])(C([H])([H])[H])C([H])([H])[H])C([H])([H])c2c([H])c(OC([H])([H])C3([H])C(=O)N(c4c([H])c([H])c(N(C(=O)N5C([H])([H])C([H])([H])C([H])([H])C([H])(n6nc(-c7c([H])c([H])c(Oc8c([H])c([H])c(F)c([H])c8F)c([H])c7[H])c(C(=O)N([H])[H])c6N([H])[H])C5([H])[H])C([H])([H])[H])c([H])c4F)C(=O)C([H])([H])C3([H])[H])c([H])c([H])c2C1([H])[H]

>  <smiles>  (13) 
[H]c1c([H])c([H])c2c(c1[H])C([H])([H])C([H])([H])C([H])([H])C2([H])N([H])C(=O)C1([H])N(C(=O)C([H])(N([H])C(=O)C([H])(N([H])C([H])([H])[H])C([H])([H])[H])C(C([H])([H])[H])(C([H])([H])[H])C([H])([H])[H])C([H])([H])c2c([H])c(OC([H])([H])C3([H])C(=O)N(c4c([H])c([H])c(N(C(=O)N5C([H])([H])C([H])([H])C([H])([H])C([H])(n6nc(-c7c([H])c([H])c(Oc8c([H])c([H])c(F)c([H])c8F)c([H])c7[H])c(C(=O)N([H])[H])c6N([H])[H])C5([H])[H])C([H])([H])[H])c([H])c4F)C(=O)C([H])([H])C3([H])[H])c([H])c([H])c2C1([H])[H]

$$$$
13:0:0
     RDKit          3D

 92100  0  0  1  0  0  0  0  0999 V2000
  -30.5090  -18.4400   21.2180 C   0  0  0  0  0  3  0  0  0  0  0  0
  -30.1590  -19.8280   21.0750 C   0  0  0  0  0  3  0  0  0  0  0  0
  -28.7450  -17.8220   19.7300 C   0  0  0  0  0  3  0  0  0  0  0  0
  -29.8030  -17.3800   20.5710 C   0  0  0  0  0  0  0  0  0  0  0  0
  -29.0510  -20.2510   20.2910 C   0  0  0  0  0  0  0  0  0  0  0  0
  -28.3740  -19.1980   19.6050 C   0  0  0  0  0  0  0  0  0  0  0  0
  -27.2990  -19.5110   18.8400 F   0  0  0  0  0  0  0  0  0  0  0  0
  -29.9340  -15.8960   21.0010 C   0  0  0  0  0  0  0  0  0  0  0  0
  -29.4680  -15.6370   22.1530 N   0  0  0  0  0  0  0  0  0  0  0  0
  -29.0630  -16.4680   22.5690 H   0  0  0  0  0  0  0  0  0  0  0  0
  -30.6240  -14.7530   20.1270 C   0  0  0  0  0  0  0  0  0  0  0  0
  -30.3840  -12.5660   18.9290 C   0  0  0  0  0  2  0  0  0  0  0  0
  -29.3710  -12.7300   17.7710 C   0  0  0  0  0  2  0  0  0  0  0  0
  -27.9170  -12.5520   18.2580 C   0  0  0  0  0  2  0  0  0  0  0  0
  -27.6320  -13.3370   19.5650 C   0  0  0  0  0  3  0  0  0  0  0  0
  -28.7400  -13.0690   20.5980 C   0  0  0  0  0  2  0  0  0  0  0  0
  -30.0140  -13.5140   20.0090 N   0  0  0  0  0  0  0  0  0  0  0  0
  -31.6980  -14.9720   19.5530 O   0  0  0  0  0  0  0  0  0  0  0  0
  -25.2690  -13.9150   20.3890 C   0  0  0  0  0  0  0  0  0  0  0  0
  -24.2270  -13.1350   20.8060 C   0  0  0  0  0  0  0  0  0  0  0  0
  -24.6930  -11.7860   20.7360 C   0  0  0  0  0  0  0  0  0  0  0  0
  -26.3070  -13.0430   20.1010 N   0  0  0  0  0  0  0  0  0  0  0  0
  -25.9660  -11.7550   20.3640 N   0  0  0  0  0  0  0  0  0  0  0  0
  -23.9820  -10.5190   20.9410 C   0  0  0  0  0  0  0  0  0  0  0  0
  -24.4400   -9.5570   21.8670 C   0  0  0  0  0  3  0  0  0  0  0  0
  -23.7280   -8.3530   22.0610 C   0  0  0  0  0  3  0  0  0  0  0  0
  -22.5430   -8.1040   21.3280 C   0  0  0  0  0  0  0  0  0  0  0  0
  -22.1030   -9.0550   20.3910 C   0  0  0  0  0  3  0  0  0  0  0  0
  -22.8170  -10.2500   20.1950 C   0  0  0  0  0  3  0  0  0  0  0  0
  -21.7990   -6.9530   21.4310 O   0  0  0  0  0  0  0  0  0  0  0  0
  -21.7500   -6.2320   22.5960 C   0  0  0  0  0  0  0  0  0  0  0  0
  -21.3120   -6.8050   23.8100 C   0  0  0  0  0  3  0  0  0  0  0  0
  -21.2100   -6.0090   24.9690 C   0  0  0  0  0  3  0  0  0  0  0  0
  -21.5380   -4.6410   24.9140 C   0  0  0  0  0  0  0  0  0  0  0  0
  -21.9680   -4.0670   23.7040 C   0  0  0  0  0  3  0  0  0  0  0  0
  -22.0720   -4.8600   22.5500 C   0  0  0  0  0  0  0  0  0  0  0  0
  -22.4670   -4.2980   21.3810 F   0  0  0  0  0  0  0  0  0  0  0  0
  -21.4330   -3.8720   26.0240 F   0  0  0  0  0  0  0  0  0  0  0  0
  -22.8420  -13.6020   21.1510 C   0  0  0  0  0  0  0  0  0  0  0  0
  -22.1600  -12.8910   22.0420 N   0  0  0  0  0  0  0  0  0  0  0  0
  -22.3740  -14.6320   20.6680 O   0  0  0  0  0  0  0  0  0  0  0  0
  -22.5510  -12.0590   22.4530 H   0  0  0  0  0  0  0  0  0  0  0  0
  -21.2330  -13.1840   22.3170 H   0  0  0  0  0  0  0  0  0  0  0  0
  -25.4110  -15.2870   20.2050 N   0  0  0  0  0  0  0  0  0  0  0  0
  -24.6180  -15.9130   20.2940 H   0  0  0  0  0  0  0  0  0  0  0  0
  -26.1990  -15.7090   19.7340 H   0  0  0  0  0  0  0  0  0  0  0  0
  -28.5340  -21.6000   20.1900 N   0  0  0  0  0  0  0  0  0  0  0  0
  -27.6600  -21.6520   19.6700 H   0  0  0  0  0  0  0  0  0  0  0  0
  -29.1740  -22.9340   20.4560 C   0  0  0  0  0  2  0  0  0  0  0  0
  -28.2920  -23.9700   21.2260 C   0  0  0  0  0  3  0  0  0  0  0  0
  -27.9770  -25.3180   21.1760 C   0  0  0  0  0  3  0  0  0  0  0  0
  -28.3190  -26.4230   20.3650 O   0  0  0  0  0  0  0  0  0  0  0  0
  -24.6160  -31.9150   23.2360 C   0  0  0  0  0  0  0  0  0  0  0  0
  -27.2820  -27.3600   20.2400 C   0  0  0  0  0  0  0  0  0  0  0  0
  -23.4360  -30.4940   21.5970 C   0  0  0  0  0  3  0  0  0  0  0  0
  -24.9140  -28.9520   20.1870 C   0  0  0  0  0  0  0  0  0  0  0  0
  -25.9720  -30.8460   21.4180 C   0  0  0  0  0  2  0  0  0  0  0  0
  -26.0740  -29.4600   20.7880 C   0  0  0  0  0  0  0  0  0  0  0  0
  -27.2700  -28.6740   20.8060 C   0  0  0  0  0  3  0  0  0  0  0  0
  -26.1070  -26.9120   19.6040 C   0  0  0  0  0  3  0  0  0  0  0  0
  -24.9340  -27.6870   19.5770 C   0  0  0  0  0  3  0  0  0  0  0  0
  -23.6640  -29.8100   20.2240 C   0  0  0  0  0  2  0  0  0  0  0  0
  -24.6920  -31.1020   22.1420 N   0  0  0  0  0  0  0  0  0  0  0  0
  -23.5270  -32.1810   23.7650 O   0  0  0  0  0  0  0  0  0  0  0  0
  -22.7790  -29.4770   22.5620 C   0  0  0  0  0  0  0  0  0  0  0  0
  -21.4570  -29.2820   22.4290 N   0  0  0  0  0  0  0  0  0  0  0  0
  -23.4590  -28.8680   23.3930 O   0  0  0  0  0  0  0  0  0  0  0  0
  -20.9660  -29.8250   21.7330 H   0  0  0  0  0  0  0  0  0  0  0  0
  -18.0880  -28.0520   22.9190 C   0  0  0  0  0  0  0  0  0  0  0  0
  -20.6420  -28.3410   23.2030 C   0  0  0  0  0  3  0  0  0  0  0  0
  -20.7630  -26.9070   22.6400 C   0  0  0  0  0  2  0  0  0  0  0  0
  -19.6730  -26.5640   21.6210 C   0  0  0  0  0  2  0  0  0  0  0  0
  -18.2850  -26.7000   22.2550 C   0  0  0  0  0  2  0  0  0  0  0  0
  -19.1960  -28.8310   23.3490 C   0  0  0  0  0  0  0  0  0  0  0  0
  -18.9590  -30.0950   23.9290 C   0  0  0  0  0  3  0  0  0  0  0  0
  -17.6490  -30.5830   24.0830 C   0  0  0  0  0  3  0  0  0  0  0  0
  -16.5540  -29.8030   23.6690 C   0  0  0  0  0  3  0  0  0  0  0  0
  -16.7760  -28.5390   23.0920 C   0  0  0  0  0  3  0  0  0  0  0  0
  -25.8880  -32.5670   23.8610 C   0  0  0  0  0  3  0  0  0  0  0  0
  -26.4080  -31.8040   25.1400 C   0  0  1  0  0  0  0  0  0  0  0  0
  -25.3140  -31.5470   26.2030 C   0  0  0  0  0  1  0  0  0  0  0  0
  -27.0140  -30.4360   24.7480 C   0  0  0  0  0  1  0  0  0  0  0  0
  -27.5430  -32.6150   25.8090 C   0  0  0  0  0  1  0  0  0  0  0  0
  -25.5630  -33.9650   24.1870 N   0  0  0  0  0  0  0  0  0  0  0  0
  -25.8920  -35.0190   23.4290 C   0  0  0  0  0  0  0  0  0  0  0  0
  -26.5720  -34.9210   22.4030 O   0  0  0  0  0  0  0  0  0  0  0  0
  -24.9670  -34.1160   24.9860 H   0  0  0  0  0  0  0  0  0  0  0  0
  -24.1530  -36.7950   23.0440 C   0  0  0  0  0  1  0  0  0  0  0  0
  -25.3830  -36.4030   23.8780 C   0  0  0  0  0  3  0  0  0  0  0  0
  -27.4980  -37.3020   24.7400 C   0  0  0  0  0  1  0  0  0  0  0  0
  -26.4050  -37.4680   23.7860 N   0  0  0  0  0  0  0  0  0  0  0  0
  -25.9870  -38.3810   23.9370 H   0  0  0  0  0  0  0  0  0  0  0  0
  2  1  1  0
  3  4  1  0
  4  8  1  0
  4  1  2  0
  5  2  2  0
  6  3  2  0
  6  5  1  0
  7  6  1  0
  8  9  2  0
  9 10  1  0
 11  8  1  0
 12 17  1  0
 13 14  1  0
 13 12  1  0
 15 14  1  0
 15 22  1  0
 15 16  1  0
 17 11  1  0
 17 16  1  0
 18 11  2  0
 19 20  2  0
 20 39  1  0
 21 20  1  0
 21 24  1  0
 22 23  1  0
 22 19  1  0
 23 21  2  0
 24 25  1  0
 25 26  2  0
 27 30  1  0
 27 26  1  0
 28 27  2  0
 29 28  1  0
 29 24  2  0
 30 31  1  0
 31 32  1  0
 32 33  2  0
 34 33  1  0
 34 38  1  0
 35 34  2  0
 36 31  2  0
 36 35  1  0
 37 36  1  0
 39 40  1  0
 40 43  1  0
 40 42  1  0
 41 39  2  0
 44 45  1  0
 44 19  1  0
 46 44  1  0
 47  5  1  0
 47 49  1  0
 48 47  1  0
 49 50  1  0
 51 50  2  0
 52 51  1  0
 53 64  2  0
 54 52  1  0
 54 59  1  0
 55 63  1  0
 55 65  1  0
 56 62  1  0
 56 58  1  0
 57 63  1  0
 58 59  2  0
 58 57  1  0
 60 54  2  0
 61 60  1  0
 61 56  2  0
 62 55  1  0
 63 53  1  0
 65 67  2  0
 66 65  1  0
 68 66  1  0
 69 78  2  0
 69 74  1  0
 70 66  1  0
 70 74  1  0
 71 70  1  0
 72 73  1  0
 72 71  1  0
 73 69  1  0
 74 75  2  0
 75 76  1  0
 77 76  2  0
 78 77  1  0
 79 53  1  0
 79 84  1  0
 79 80  1  0
 80 83  1  1
 80 81  1  0
 82 80  1  0
 84 87  1  0
 85 89  1  0
 85 84  1  0
 86 85  2  0
 89 88  1  0
 91 89  1  0
 91 92  1  0
 91 90  1  0
M  ISO  4   8 100  11 100  51 101  52 101
M  END
>  <TORSDO>  (14) 
F 20

>  <SCORE>  (14) 
-13.494

>  <name>  (14) 
13

>  <ligand_id>  (14) 
13

>  <original_smiles>  (14) 
[H]N=C(C(=O)N1C([H])([H])C([H])([H])C([H])([H])C([H])(n2nc(-c3c([H])c([H])c(Oc4c([H])c([H])c(F)c([H])c4F)c([H])c3[H])c(C(=O)N([H])[H])c2N([H])[H])C1([H])[H])c1c([H])c([H])c(N([H])C([H])([H])C([H])=C([H])Oc2c([H])c([H])c3c(c2[H])C([H])([H])N(C(=O)C([H])(N([H])C(=O)C([H])(N([H])C([H])([H])[H])C([H])([H])[H])C(C([H])([H])[H])(C([H])([H])[H])C([H])([H])[H])C([H])(C(=O)N([H])C2([H])c4c([H])c([H])c([H])c([H])c4C([H])([H])C([H])([H])C2([H])[H])C3([H])[H])c(F)c1[H]

>  <smiles>  (14) 
[H]N=C(C(=O)N1C([H])([H])C([H])([H])C([H])([H])C([H])(n2nc(-c3c([H])c([H])c(Oc4c([H])c([H])c(F)c([H])c4F)c([H])c3[H])c(C(=O)N([H])[H])c2N([H])[H])C1([H])[H])c1c([H])c([H])c(N([H])C([H])([H])C([H])=C([H])Oc2c([H])c([H])c3c(c2[H])C([H])([H])N(C(=O)C([H])(N([H])C(=O)C([H])(N([H])C([H])([H])[H])C([H])([H])[H])C(C([H])([H])[H])(C([H])([H])[H])C([H])([H])[H])C([H])(C(=O)N([H])C2([H])c4c([H])c([H])c([H])c([H])c4C([H])([H])C([H])([H])C2([H])[H])C3([H])[H])c(F)c1[H]

$$$$
14:0:0
     RDKit          3D

 98107  0  0  1  0  0  0  0  0999 V2000
  -31.6860  -17.7380   20.7430 C   0  0  0  0  0  3  0  0  0  0  0  0
  -29.4110  -18.5680   20.4630 C   0  0  0  0  0  0  0  0  0  0  0  0
  -29.8630  -19.9670   20.5050 C   0  0  0  0  0  0  0  0  0  0  0  0
  -30.3170  -17.4180   20.5680 C   0  0  0  0  0  0  0  0  0  0  0  0
  -32.1480  -19.0660   20.7900 C   0  0  0  0  0  0  0  0  0  0  0  0
  -31.2610  -20.1570   20.6700 C   0  0  0  0  0  0  0  0  0  0  0  0
  -27.9270  -18.2850   20.3090 C   0  0  0  0  0  1  0  0  0  0  0  0
  -30.6210  -14.8070   20.2970 C   0  0  0  0  0  0  0  0  0  0  0  0
  -30.3690  -12.5440   19.2620 C   0  0  0  0  0  2  0  0  0  0  0  0
  -29.4310  -12.6330   18.0400 C   0  0  0  0  0  2  0  0  0  0  0  0
  -27.9640  -12.4630   18.4740 C   0  0  0  0  0  2  0  0  0  0  0  0
  -27.5980  -13.3450   19.6980 C   0  0  0  0  0  3  0  0  0  0  0  0
  -28.6630  -13.2590   20.8160 C   0  0  0  0  0  2  0  0  0  0  0  0
  -29.9570  -13.6030   20.2150 N   0  0  0  0  0  0  0  0  0  0  0  0
  -31.8050  -14.8460   19.9520 O   0  0  0  0  0  0  0  0  0  0  0  0
  -29.8990  -15.9760   20.5460 N   0  0  0  0  0  0  0  0  0  0  0  0
  -28.9150  -15.8130   20.6910 H   0  0  0  0  0  0  0  0  0  0  0  0
  -25.2080  -13.9250   20.4210 C   0  0  0  0  0  0  0  0  0  0  0  0
  -24.1480  -13.1480   20.7980 C   0  0  0  0  0  0  0  0  0  0  0  0
  -24.6210  -11.7990   20.7830 C   0  0  0  0  0  0  0  0  0  0  0  0
  -26.2580  -13.0510   20.1940 N   0  0  0  0  0  0  0  0  0  0  0  0
  -25.9120  -11.7680   20.4770 N   0  0  0  0  0  0  0  0  0  0  0  0
  -23.9010  -10.5340   20.9830 C   0  0  0  0  0  0  0  0  0  0  0  0
  -24.3400   -9.5750   21.9230 C   0  0  0  0  0  3  0  0  0  0  0  0
  -23.6190   -8.3760   22.1130 C   0  0  0  0  0  3  0  0  0  0  0  0
  -22.4470   -8.1280   21.3610 C   0  0  0  0  0  0  0  0  0  0  0  0
  -22.0260   -9.0750   20.4120 C   0  0  0  0  0  3  0  0  0  0  0  0
  -22.7480  -10.2640   20.2200 C   0  0  0  0  0  3  0  0  0  0  0  0
  -21.6970   -6.9800   21.4600 O   0  0  0  0  0  0  0  0  0  0  0  0
  -21.6560   -6.2430   22.6170 C   0  0  0  0  0  0  0  0  0  0  0  0
  -21.2420   -6.8050   23.8440 C   0  0  0  0  0  3  0  0  0  0  0  0
  -21.1490   -5.9950   24.9930 C   0  0  0  0  0  3  0  0  0  0  0  0
  -21.4600   -4.6250   24.9160 C   0  0  0  0  0  0  0  0  0  0  0  0
  -21.8690   -4.0630   23.6930 C   0  0  0  0  0  3  0  0  0  0  0  0
  -21.9630   -4.8700   22.5470 C   0  0  0  0  0  0  0  0  0  0  0  0
  -22.3370   -4.3190   21.3660 F   0  0  0  0  0  0  0  0  0  0  0  0
  -21.3630   -3.8440   26.0170 F   0  0  0  0  0  0  0  0  0  0  0  0
  -22.7480  -13.6190   21.0600 C   0  0  0  0  0  0  0  0  0  0  0  0
  -22.0220  -12.9270   21.9330 N   0  0  0  0  0  0  0  0  0  0  0  0
  -22.3040  -14.6350   20.5270 O   0  0  0  0  0  0  0  0  0  0  0  0
  -22.3940  -12.1050   22.3820 H   0  0  0  0  0  0  0  0  0  0  0  0
  -21.0820  -13.2250   22.1540 H   0  0  0  0  0  0  0  0  0  0  0  0
  -25.3620  -15.2950   20.2260 N   0  0  0  0  0  0  0  0  0  0  0  0
  -24.5850  -15.9390   20.3130 H   0  0  0  0  0  0  0  0  0  0  0  0
  -26.1900  -15.7240   19.8370 H   0  0  0  0  0  0  0  0  0  0  0  0
  -28.1960  -23.1750   21.5940 C   0  0  0  0  0  2  0  0  0  0  0  0
  -28.6660  -21.7100   21.8030 C   0  0  0  0  0  2  0  0  0  0  0  0
  -29.1350  -22.3400   19.5830 C   0  0  0  0  0  2  0  0  0  0  0  0
  -28.9680  -23.7180   20.3810 C   0  0  0  0  0  3  0  0  0  0  0  0
  -28.9980  -21.1470   20.4920 N   0  0  0  0  0  0  0  0  0  0  0  0
  -28.2830  -24.9910   19.6440 C   0  0  0  0  0  2  0  0  0  0  0  0
  -28.3710  -26.4200   20.1230 O   0  0  0  0  0  0  0  0  0  0  0  0
  -24.5960  -31.8380   23.1520 C   0  0  0  0  0  0  0  0  0  0  0  0
  -27.2620  -27.3030   20.0400 C   0  0  0  0  0  0  0  0  0  0  0  0
  -23.4150  -30.4420   21.4970 C   0  0  0  0  0  3  0  0  0  0  0  0
  -24.8870  -28.9310   20.0490 C   0  0  0  0  0  0  0  0  0  0  0  0
  -25.9550  -30.7780   21.3300 C   0  0  0  0  0  2  0  0  0  0  0  0
  -26.0510  -29.4060   20.6650 C   0  0  0  0  0  0  0  0  0  0  0  0
  -27.2370  -28.6020   20.6580 C   0  0  0  0  0  3  0  0  0  0  0  0
  -26.0780  -26.9200   19.3670 C   0  0  0  0  0  3  0  0  0  0  0  0
  -24.9060  -27.6960   19.3910 C   0  0  0  0  0  3  0  0  0  0  0  0
  -23.6400  -29.7890   20.1090 C   0  0  0  0  0  2  0  0  0  0  0  0
  -24.6750  -31.0370   22.0490 N   0  0  0  0  0  0  0  0  0  0  0  0
  -23.5070  -32.0970   23.6860 O   0  0  0  0  0  0  0  0  0  0  0  0
  -22.7650  -29.4040   22.4440 C   0  0  0  0  0  0  0  0  0  0  0  0
  -21.4370  -29.2310   22.3350 N   0  0  0  0  0  0  0  0  0  0  0  0
  -23.4550  -28.7590   23.2380 O   0  0  0  0  0  0  0  0  0  0  0  0
  -20.9400  -29.8070   21.6710 H   0  0  0  0  0  0  0  0  0  0  0  0
  -18.0630  -28.0430   22.8820 C   0  0  0  0  0  0  0  0  0  0  0  0
  -20.6290  -28.2780   23.0990 C   0  0  0  0  0  3  0  0  0  0  0  0
  -20.7050  -26.8620   22.4820 C   0  0  0  0  0  2  0  0  0  0  0  0
  -19.5770  -26.5740   21.4850 C   0  0  0  0  0  2  0  0  0  0  0  0
  -18.2130  -26.7110   22.1660 C   0  0  0  0  0  2  0  0  0  0  0  0
  -19.1960  -28.7850   23.3060 C   0  0  0  0  0  0  0  0  0  0  0  0
  -19.0000  -30.0320   23.9380 C   0  0  0  0  0  3  0  0  0  0  0  0
  -17.7030  -30.5360   24.1500 C   0  0  0  0  0  3  0  0  0  0  0  0
  -16.5840  -29.7890   23.7420 C   0  0  0  0  0  3  0  0  0  0  0  0
  -16.7650  -28.5440   23.1140 C   0  0  0  0  0  3  0  0  0  0  0  0
  -25.8680  -32.4840   23.7810 C   0  0  0  0  0  3  0  0  0  0  0  0
  -26.3990  -31.7040   25.0470 C   0  0  1  0  0  0  0  0  0  0  0  0
  -25.3110  -31.4350   26.1130 C   0  0  0  0  0  1  0  0  0  0  0  0
  -27.0030  -30.3400   24.6400 C   0  0  0  0  0  1  0  0  0  0  0  0
  -27.5400  -32.5070   25.7160 C   0  0  0  0  0  1  0  0  0  0  0  0
  -25.5330  -33.8710   24.1340 N   0  0  0  0  0  0  0  0  0  0  0  0
  -25.8360  -34.9430   23.3880 C   0  0  0  0  0  0  0  0  0  0  0  0
  -26.4950  -34.8680   22.3470 O   0  0  0  0  0  0  0  0  0  0  0  0
  -24.9440  -34.0020   24.9430 H   0  0  0  0  0  0  0  0  0  0  0  0
  -24.0640  -36.7030   23.0890 C   0  0  0  0  0  1  0  0  0  0  0  0
  -25.3280  -36.3150   23.8720 C   0  0  0  0  0  3  0  0  0  0  0  0
  -27.4600  -37.2320   24.6750 C   0  0  0  0  0  1  0  0  0  0  0  0
  -26.3350  -37.3910   23.7570 N   0  0  0  0  0  0  0  0  0  0  0  0
  -25.9120  -38.3000   23.9310 H   0  0  0  0  0  0  0  0  0  0  0  0
  -33.5100  -19.3290   20.9670 N   0  0  0  0  0  0  0  0  0  0  0  0
  -34.1550  -18.6080   20.6620 H   0  0  0  0  0  0  0  0  0  0  0  0
  -33.7770  -20.2460   20.6230 H   0  0  0  0  0  0  0  0  0  0  0  0
  -31.8060  -21.4370   20.7900 N   0  0  0  0  0  0  0  0  0  0  0  0
  -31.0830  -22.1230   20.9730 H   0  0  0  0  0  0  0  0  0  0  0  0
  -32.5490  -21.4750   21.4750 H   0  0  0  0  0  0  0  0  0  0  0  0
  1  5  1  0
  2  3  2  0
  2  4  1  0
  3  6  1  0
  4  1  2  0
  5 93  1  0
  6 96  1  0
  6  5  2  0
  7  2  1  0
  8 16  1  0
  9 14  1  0
 10 11  1  0
 10  9  1  0
 12 11  1  0
 12 21  1  0
 12 13  1  0
 14  8  1  0
 14 13  1  0
 15  8  2  0
 16  4  1  0
 16 17  1  0
 18 19  2  0
 19 38  1  0
 20 19  1  0
 20 23  1  0
 21 18  1  0
 21 22  1  0
 22 20  2  0
 23 24  1  0
 24 25  2  0
 26 29  1  0
 26 25  1  0
 27 26  2  0
 28 27  1  0
 28 23  2  0
 29 30  1  0
 30 31  1  0
 31 32  2  0
 33 32  1  0
 33 37  1  0
 34 33  2  0
 35 30  2  0
 35 34  1  0
 36 35  1  0
 38 39  1  0
 39 42  1  0
 39 41  1  0
 40 38  2  0
 43 44  1  0
 43 18  1  0
 45 43  1  0
 46 47  1  0
 48 49  1  0
 48 50  1  0
 49 51  1  0
 49 46  1  0
 50  3  1  0
 50 47  1  0
 51 52  1  0
 53 64  2  0
 54 52  1  0
 54 59  1  0
 55 63  1  0
 55 65  1  0
 56 62  1  0
 56 58  1  0
 57 63  1  0
 58 57  1  0
 59 58  2  0
 60 61  1  0
 60 54  2  0
 61 56  2  0
 62 55  1  0
 63 53  1  0
 65 67  2  0
 66 65  1  0
 68 66  1  0
 69 78  2  0
 69 74  1  0
 70 66  1  0
 70 74  1  0
 71 70  1  0
 72 73  1  0
 72 71  1  0
 73 69  1  0
 74 75  2  0
 75 76  1  0
 77 76  2  0
 78 77  1  0
 79 53  1  0
 79 84  1  0
 79 80  1  0
 80 83  1  1
 80 81  1  0
 82 80  1  0
 84 87  1  0
 85 89  1  0
 85 84  1  0
 86 85  2  0
 89 88  1  0
 91 89  1  0
 91 92  1  0
 91 90  1  0
 94 93  1  0
 95 93  1  0
 96 97  1  0
 96 98  1  0
M  ISO  4   8 100  16 100  51 101  52 101
M  END
>  <TORSDO>  (15) 
F 20

>  <SCORE>  (15) 
-14.855

>  <name>  (15) 
14

>  <ligand_id>  (15) 
14

>  <original_smiles>  (15) 
[H]c1c([H])c([H])c2c(c1[H])C([H])([H])C([H])([H])C([H])([H])C2([H])N([H])C(=O)C1([H])N(C(=O)C([H])(N([H])C(=O)C([H])(N([H])C([H])([H])[H])C([H])([H])[H])C(C([H])([H])[H])(C([H])([H])[H])C([H])([H])[H])C([H])([H])c2c([H])c(OC([H])([H])C3([H])C([H])([H])N(c4c(N([H])[H])c(N([H])[H])c([H])c(N([H])C(=O)N5C([H])([H])C([H])([H])C([H])([H])C([H])(n6nc(-c7c([H])c([H])c(Oc8c([H])c([H])c(F)c([H])c8F)c([H])c7[H])c(C(=O)N([H])[H])c6N([H])[H])C5([H])[H])c4C([H])([H])[H])C([H])([H])C3([H])[H])c([H])c([H])c2C1([H])[H]

>  <smiles>  (15) 
[H]c1c([H])c([H])c2c(c1[H])C([H])([H])C([H])([H])C([H])([H])C2([H])N([H])C(=O)C1([H])N(C(=O)C([H])(N([H])C(=O)C([H])(N([H])C([H])([H])[H])C([H])([H])[H])C(C([H])([H])[H])(C([H])([H])[H])C([H])([H])[H])C([H])([H])c2c([H])c(OC([H])([H])C3([H])C([H])([H])N(c4c(N([H])[H])c(N([H])[H])c([H])c(N([H])C(=O)N5C([H])([H])C([H])([H])C([H])([H])C([H])(n6nc(-c7c([H])c([H])c(Oc8c([H])c([H])c(F)c([H])c8F)c([H])c7[H])c(C(=O)N([H])[H])c6N([H])[H])C5([H])[H])c4C([H])([H])[H])C([H])([H])C3([H])[H])c([H])c([H])c2C1([H])[H]

$$$$
15:0:0
     RDKit          3D

 96104  0  0  1  0  0  0  0  0999 V2000
  -29.5180  -19.8850   20.5640 C   0  0  0  0  0  3  0  0  0  0  0  0
  -31.5050  -20.0820   19.1890 C   0  0  0  0  0  3  0  0  0  0  0  0
  -31.1100  -18.0090   20.4540 C   0  0  0  0  0  0  0  0  0  0  0  0
  -30.3230  -20.6610   19.6950 C   0  0  0  0  0  0  0  0  0  0  0  0
  -29.9000  -18.5730   20.9440 C   0  0  0  0  0  0  0  0  0  0  0  0
  -31.8980  -18.7810   19.5660 C   0  0  0  0  0  0  0  0  0  0  0  0
  -33.0670  -18.2890   19.0860 F   0  0  0  0  0  0  0  0  0  0  0  0
  -29.0740  -17.8650   21.8240 N   0  0  0  0  0  0  0  0  0  0  0  0
  -28.3390  -18.3520   22.3260 H   0  0  0  0  0  0  0  0  0  0  0  0
  -29.4260  -17.0530   22.3170 H   0  0  0  0  0  0  0  0  0  0  0  0
  -29.9950  -21.9790   19.3120 N   0  0  0  0  0  0  0  0  0  0  0  0
  -30.6310  -22.4830   18.6960 H   0  0  0  0  0  0  0  0  0  0  0  0
  -29.2030  -22.8520   20.1890 C   0  0  0  0  0  2  0  0  0  0  0  0
  -29.3220  -24.3520   19.8330 C   0  0  0  0  0  0  0  0  0  0  0  0
  -30.0880  -24.7320   18.9380 O   0  0  0  0  0  0  0  0  0  0  0  0
  -28.4650  -25.3390   20.6480 C   0  0  0  0  0  2  0  0  0  0  0  0
  -28.6340  -26.7050   20.2170 O   0  0  0  0  0  0  0  0  0  0  0  0
  -24.7460  -31.8000   23.3310 C   0  0  0  0  0  0  0  0  0  0  0  0
  -27.4700  -27.4390   20.2120 C   0  0  0  0  0  0  0  0  0  0  0  0
  -23.5720  -30.4100   21.6560 C   0  0  0  0  0  3  0  0  0  0  0  0
  -25.0580  -28.9140   20.2200 C   0  0  0  0  0  0  0  0  0  0  0  0
  -26.0950  -30.8040   21.4860 C   0  0  0  0  0  2  0  0  0  0  0  0
  -26.2040  -29.4450   20.8260 C   0  0  0  0  0  0  0  0  0  0  0  0
  -27.4160  -28.7170   20.8150 C   0  0  0  0  0  3  0  0  0  0  0  0
  -26.3100  -26.9240   19.5940 C   0  0  0  0  0  3  0  0  0  0  0  0
  -25.1050  -27.6530   19.6010 C   0  0  0  0  0  3  0  0  0  0  0  0
  -23.8020  -29.7550   20.2680 C   0  0  0  0  0  2  0  0  0  0  0  0
  -24.8210  -31.0190   22.2160 N   0  0  0  0  0  0  0  0  0  0  0  0
  -23.6570  -32.0520   23.8650 O   0  0  0  0  0  0  0  0  0  0  0  0
  -22.9250  -29.3670   22.5940 C   0  0  0  0  0  0  0  0  0  0  0  0
  -21.6110  -29.1460   22.4270 N   0  0  0  0  0  0  0  0  0  0  0  0
  -23.6020  -28.7590   23.4270 O   0  0  0  0  0  0  0  0  0  0  0  0
  -21.1250  -29.6920   21.7300 H   0  0  0  0  0  0  0  0  0  0  0  0
  -18.2650  -27.8320   22.7980 C   0  0  0  0  0  0  0  0  0  0  0  0
  -20.7990  -28.1820   23.1690 C   0  0  0  0  0  3  0  0  0  0  0  0
  -20.9740  -26.7540   22.6030 C   0  0  0  0  0  2  0  0  0  0  0  0
  -19.9250  -26.3890   21.5470 C   0  0  0  0  0  2  0  0  0  0  0  0
  -18.5150  -26.4880   22.1350 C   0  0  0  0  0  2  0  0  0  0  0  0
  -19.3390  -28.6350   23.2680 C   0  0  0  0  0  0  0  0  0  0  0  0
  -19.0530  -29.8910   23.8450 C   0  0  0  0  0  3  0  0  0  0  0  0
  -17.7270  -30.3480   23.9560 C   0  0  0  0  0  3  0  0  0  0  0  0
  -16.6670  -29.5440   23.5020 C   0  0  0  0  0  3  0  0  0  0  0  0
  -16.9370  -28.2880   22.9300 C   0  0  0  0  0  3  0  0  0  0  0  0
  -26.0200  -32.4350   23.9730 C   0  0  0  0  0  3  0  0  0  0  0  0
  -25.7040  -33.8340   24.2900 N   0  0  0  0  0  0  0  0  0  0  0  0
  -26.0550  -34.8830   23.5320 C   0  0  0  0  0  0  0  0  0  0  0  0
  -26.7490  -34.7750   22.5180 O   0  0  0  0  0  0  0  0  0  0  0  0
  -25.0890  -33.9930   25.0730 H   0  0  0  0  0  0  0  0  0  0  0  0
  -24.3310  -36.6690   23.1320 C   0  0  0  0  0  1  0  0  0  0  0  0
  -25.5550  -36.2720   23.9710 C   0  0  0  0  0  3  0  0  0  0  0  0
  -27.6630  -37.1730   24.8510 C   0  0  0  0  0  1  0  0  0  0  0  0
  -26.5890  -37.3270   23.8740 N   0  0  0  0  0  0  0  0  0  0  0  0
  -26.1770  -38.2470   23.9990 H   0  0  0  0  0  0  0  0  0  0  0  0
  -26.5170  -31.6700   25.2590 C   0  0  1  0  0  0  0  0  0  0  0  0
  -25.3990  -31.4050   26.2960 C   0  0  0  0  0  1  0  0  0  0  0  0
  -27.1380  -30.3060   24.8770 C   0  0  0  0  0  1  0  0  0  0  0  0
  -27.6310  -32.4840   25.9580 C   0  0  0  0  0  1  0  0  0  0  0  0
  -31.6440  -16.6510   20.9460 C   0  0  0  0  0  2  0  0  0  0  0  0
  -31.3720  -14.4730   19.7390 C   0  0  0  0  0  0  0  0  0  0  0  0
  -30.8750  -12.3120   18.6480 C   0  0  0  0  0  2  0  0  0  0  0  0
  -29.8300  -12.4960   17.5290 C   0  0  0  0  0  2  0  0  0  0  0  0
  -28.4020  -12.4120   18.0990 C   0  0  0  0  0  2  0  0  0  0  0  0
  -28.2030  -13.3080   19.3520 C   0  0  0  0  0  3  0  0  0  0  0  0
  -29.3470  -13.0960   20.3680 C   0  0  0  0  0  2  0  0  0  0  0  0
  -30.6240  -13.3390   19.6720 N   0  0  0  0  0  0  0  0  0  0  0  0
  -32.4080  -14.6250   19.0880 O   0  0  0  0  0  0  0  0  0  0  0  0
  -30.9030  -15.4430   20.5400 N   0  0  0  0  0  0  0  0  0  0  0  0
  -30.0250  -15.2680   21.0010 H   0  0  0  0  0  0  0  0  0  0  0  0
  -25.9370  -14.0200   20.3410 C   0  0  0  0  0  0  0  0  0  0  0  0
  -24.8640  -13.2960   20.7840 C   0  0  0  0  0  0  0  0  0  0  0  0
  -25.2280  -11.9220   20.6370 C   0  0  0  0  0  0  0  0  0  0  0  0
  -26.8930  -13.0910   19.9590 N   0  0  0  0  0  0  0  0  0  0  0  0
  -26.4730  -11.8200   20.1920 N   0  0  0  0  0  0  0  0  0  0  0  0
  -24.4430  -10.6990   20.8430 C   0  0  0  0  0  0  0  0  0  0  0  0
  -24.8350   -9.7180   21.7800 C   0  0  0  0  0  3  0  0  0  0  0  0
  -24.0540   -8.5580   21.9720 C   0  0  0  0  0  3  0  0  0  0  0  0
  -22.8660   -8.3700   21.2250 C   0  0  0  0  0  0  0  0  0  0  0  0
  -22.4920   -9.3390   20.2770 C   0  0  0  0  0  3  0  0  0  0  0  0
  -23.2740  -10.4910   20.0840 C   0  0  0  0  0  3  0  0  0  0  0  0
  -22.0590   -7.2640   21.3260 O   0  0  0  0  0  0  0  0  0  0  0  0
  -21.8820   -6.6080   22.5170 C   0  0  0  0  0  0  0  0  0  0  0  0
  -21.3250   -7.2490   23.6450 C   0  0  0  0  0  3  0  0  0  0  0  0
  -21.0970   -6.5190   24.8300 C   0  0  0  0  0  3  0  0  0  0  0  0
  -21.4150   -5.1480   24.8850 C   0  0  0  0  0  0  0  0  0  0  0  0
  -21.9630   -4.5070   23.7600 C   0  0  0  0  0  3  0  0  0  0  0  0
  -22.1930   -5.2340   22.5790 C   0  0  0  0  0  0  0  0  0  0  0  0
  -22.7030   -4.6070   21.4920 F   0  0  0  0  0  0  0  0  0  0  0  0
  -21.1880   -4.4450   26.0180 F   0  0  0  0  0  0  0  0  0  0  0  0
  -23.5370  -13.8420   21.2280 C   0  0  0  0  0  0  0  0  0  0  0  0
  -22.8690  -13.1530   22.1470 N   0  0  0  0  0  0  0  0  0  0  0  0
  -23.1090  -14.9120   20.7970 O   0  0  0  0  0  0  0  0  0  0  0  0
  -23.2290  -12.2860   22.5150 H   0  0  0  0  0  0  0  0  0  0  0  0
  -21.9830  -13.5000   22.4880 H   0  0  0  0  0  0  0  0  0  0  0  0
  -26.1750  -15.3860   20.2150 N   0  0  0  0  0  0  0  0  0  0  0  0
  -25.4790  -16.0830   20.4530 H   0  0  0  0  0  0  0  0  0  0  0  0
  -27.0360  -15.7900   19.8670 H   0  0  0  0  0  0  0  0  0  0  0  0
  1  5  1  0
  2  6  2  0
  2  4  1  0
  3  5  2  0
  3 58  1  0
  4  1  2  0
  5  8  1  0
  6  3  1  0
  7  6  1  0
  8 10  1  0
  8  9  1  0
 11  4  1  0
 11 13  1  0
 12 11  1  0
 14 13  1  0
 14 16  1  0
 15 14  2  0
 17 16  1  0
 18 29  2  0
 19 17  1  0
 19 24  1  0
 20 28  1  0
 20 30  1  0
 21 27  1  0
 21 23  1  0
 22 28  1  0
 23 22  1  0
 24 23  2  0
 25 26  1  0
 25 19  2  0
 26 21  2  0
 27 20  1  0
 28 18  1  0
 30 32  2  0
 31 30  1  0
 33 31  1  0
 34 43  2  0
 34 39  1  0
 35 31  1  0
 35 39  1  0
 36 35  1  0
 37 38  1  0
 37 36  1  0
 38 34  1  0
 39 40  2  0
 40 41  1  0
 42 41  2  0
 43 42  1  0
 44 18  1  0
 44 45  1  0
 44 54  1  0
 45 48  1  0
 46 50  1  0
 46 45  1  0
 47 46  2  0
 50 49  1  0
 52 50  1  0
 52 53  1  0
 52 51  1  0
 54 57  1  1
 54 55  1  0
 56 54  1  0
 59 67  1  0
 60 65  1  0
 61 62  1  0
 61 60  1  0
 63 62  1  0
 63 72  1  0
 63 64  1  0
 65 59  1  0
 65 64  1  0
 66 59  2  0
 67 58  1  0
 67 68  1  0
 69 70  2  0
 70 89  1  0
 71 70  1  0
 71 74  1  0
 72 73  1  0
 72 69  1  0
 73 71  2  0
 74 75  1  0
 75 76  2  0
 77 80  1  0
 77 76  1  0
 78 77  2  0
 79 78  1  0
 79 74  2  0
 80 81  1  0
 81 86  2  0
 81 82  1  0
 82 83  2  0
 83 84  1  0
 84 88  1  0
 85 84  2  0
 86 85  1  0
 87 86  1  0
 89 90  1  0
 90 93  1  0
 90 92  1  0
 91 89  2  0
 94 69  1  0
 94 95  1  0
 96 94  1  0
M  ISO  4  16 101  17 101  59 100  67 100
M  END
>  <TORSDO>  (16) 
F 22

>  <SCORE>  (16) 
-11.881

>  <name>  (16) 
15

>  <ligand_id>  (16) 
15

>  <original_smiles>  (16) 
[H]c1c([H])c([H])c2c(c1[H])C([H])([H])C([H])([H])C([H])([H])C2([H])N([H])C(=O)C1([H])N(C(=O)C([H])(N([H])C(=O)C([H])(N([H])C([H])([H])[H])C([H])([H])[H])C(C([H])([H])[H])(C([H])([H])[H])C([H])([H])[H])C([H])([H])c2c([H])c(OC([H])([H])C(=O)C([H])([H])N([H])c3c([H])c(F)c(C([H])([H])N([H])C(=O)N4C([H])([H])C([H])([H])C([H])([H])C([H])(n5nc(-c6c([H])c([H])c(Oc7c([H])c([H])c(F)c([H])c7F)c([H])c6[H])c(C(=O)N([H])[H])c5N([H])[H])C4([H])[H])c(N([H])[H])c3[H])c([H])c([H])c2C1([H])[H]

>  <smiles>  (16) 
[H]c1c([H])c([H])c2c(c1[H])C([H])([H])C([H])([H])C([H])([H])C2([H])N([H])C(=O)C1([H])N(C(=O)C([H])(N([H])C(=O)C([H])(N([H])C([H])([H])[H])C([H])([H])[H])C(C([H])([H])[H])(C([H])([H])[H])C([H])([H])[H])C([H])([H])c2c([H])c(OC([H])([H])C(=O)C([H])([H])N([H])c3c([H])c(F)c(C([H])([H])N([H])C(=O)N4C([H])([H])C([H])([H])C([H])([H])C([H])(n5nc(-c6c([H])c([H])c(Oc7c([H])c([H])c(F)c([H])c7F)c([H])c6[H])c(C(=O)N([H])[H])c5N([H])[H])C4([H])[H])c(N([H])[H])c3[H])c([H])c([H])c2C1([H])[H]

$$$$
16:0:0
     RDKit          3D

 96105  0  0  1  0  0  0  0  0999 V2000
  -30.2490  -19.1340   20.1360 C   0  0  0  0  0  3  0  0  0  0  0  0
  -29.8280  -20.4920   19.8720 C   0  0  0  0  0  3  0  0  0  0  0  0
  -27.6010  -19.6970   19.5340 C   0  0  0  0  0  3  0  0  0  0  0  0
  -29.3590  -18.0160   20.0930 C   0  0  0  0  0  0  0  0  0  0  0  0
  -28.4840  -20.8240   19.5280 C   0  0  0  0  0  0  0  0  0  0  0  0
  -28.0050  -18.3490   19.8090 C   0  0  0  0  0  0  0  0  0  0  0  0
  -30.8050  -14.4900   19.5620 C   0  0  0  0  0  0  0  0  0  0  0  0
  -30.4350  -12.1820   18.7070 C   0  0  0  0  0  2  0  0  0  0  0  0
  -29.3850  -12.2220   17.5770 C   0  0  0  0  0  2  0  0  0  0  0  0
  -27.9640  -12.0990   18.1590 C   0  0  0  0  0  2  0  0  0  0  0  0
  -27.7250  -13.0420   19.3730 C   0  0  0  0  0  3  0  0  0  0  0  0
  -28.8930  -13.0110   20.3820 C   0  0  0  0  0  2  0  0  0  0  0  0
  -30.1200  -13.2980   19.6270 N   0  0  0  0  0  0  0  0  0  0  0  0
  -31.9590  -14.5030   19.1270 O   0  0  0  0  0  0  0  0  0  0  0  0
  -29.7700  -16.5530   20.4500 C   0  0  0  0  0  0  0  0  0  0  0  0
  -30.0950  -15.6610   19.4660 N   0  0  0  0  0  0  0  0  0  0  0  0
  -29.7640  -16.2110   21.6380 O   0  0  0  0  0  0  0  0  0  0  0  0
  -30.2320  -16.1300   18.5870 H   0  0  0  0  0  0  0  0  0  0  0  0
  -25.4810  -13.6900   20.4140 C   0  0  0  0  0  0  0  0  0  0  0  0
  -24.4260  -12.9490   20.8690 C   0  0  0  0  0  0  0  0  0  0  0  0
  -24.8080  -11.5790   20.7140 C   0  0  0  0  0  0  0  0  0  0  0  0
  -26.4410  -12.7810   20.0080 N   0  0  0  0  0  0  0  0  0  0  0  0
  -26.0460  -11.5010   20.2430 N   0  0  0  0  0  0  0  0  0  0  0  0
  -24.0390  -10.3480   20.9220 C   0  0  0  0  0  0  0  0  0  0  0  0
  -24.4800   -9.3370   21.8040 C   0  0  0  0  0  3  0  0  0  0  0  0
  -23.7140   -8.1660   21.9970 C   0  0  0  0  0  3  0  0  0  0  0  0
  -22.4920   -8.0000   21.3030 C   0  0  0  0  0  0  0  0  0  0  0  0
  -22.0700   -8.9980   20.4060 C   0  0  0  0  0  3  0  0  0  0  0  0
  -22.8360  -10.1610   20.2160 C   0  0  0  0  0  3  0  0  0  0  0  0
  -21.6920   -6.8870   21.4080 O   0  0  0  0  0  0  0  0  0  0  0  0
  -21.5990   -6.1810   22.5810 C   0  0  0  0  0  0  0  0  0  0  0  0
  -21.1500   -6.7770   23.7800 C   0  0  0  0  0  3  0  0  0  0  0  0
  -21.0010   -5.9940   24.9410 C   0  0  0  0  0  3  0  0  0  0  0  0
  -21.2940   -4.6190   24.9070 C   0  0  0  0  0  0  0  0  0  0  0  0
  -21.7370   -4.0230   23.7120 C   0  0  0  0  0  3  0  0  0  0  0  0
  -21.8810   -4.8000   22.5500 C   0  0  0  0  0  0  0  0  0  0  0  0
  -22.2870   -4.2140   21.3970 F   0  0  0  0  0  0  0  0  0  0  0  0
  -21.1490   -3.8670   26.0230 F   0  0  0  0  0  0  0  0  0  0  0  0
  -23.1020  -13.4830   21.3320 C   0  0  0  0  0  0  0  0  0  0  0  0
  -22.4450  -12.7920   22.2550 N   0  0  0  0  0  0  0  0  0  0  0  0
  -22.6580  -14.5490   20.9040 O   0  0  0  0  0  0  0  0  0  0  0  0
  -22.8090  -11.9240   22.6170 H   0  0  0  0  0  0  0  0  0  0  0  0
  -21.5590  -13.1320   22.5990 H   0  0  0  0  0  0  0  0  0  0  0  0
  -25.6860  -15.0590   20.2950 N   0  0  0  0  0  0  0  0  0  0  0  0
  -24.9540  -15.7140   20.5390 H   0  0  0  0  0  0  0  0  0  0  0  0
  -26.5330  -15.5080   19.9710 H   0  0  0  0  0  0  0  0  0  0  0  0
  -27.0720  -22.1150   18.0560 C   0  0  0  0  0  0  0  0  0  0  0  0
  -25.8690  -22.9710   18.4150 C   0  0  0  0  0  2  0  0  0  0  0  0
  -26.2780  -23.5760   19.7590 C   0  0  0  0  0  2  0  0  0  0  0  0
  -27.8120  -23.4870   19.7280 C   0  0  0  0  0  3  0  0  0  0  0  0
  -28.0260  -22.1550   19.0090 N   0  0  0  0  0  0  0  0  0  0  0  0
  -27.1170  -21.4530   17.0170 O   0  0  0  0  0  0  0  0  0  0  0  0
  -28.3140  -24.8280   18.9630 C   0  0  0  0  0  2  0  0  0  0  0  0
  -28.2680  -26.1860   19.5980 O   0  0  0  0  0  0  0  0  0  0  0  0
  -24.5870  -31.4460   22.9190 C   0  0  0  0  0  0  0  0  0  0  0  0
  -27.1530  -27.0500   19.5610 C   0  0  0  0  0  0  0  0  0  0  0  0
  -23.3680  -30.1660   21.1920 C   0  0  0  0  0  3  0  0  0  0  0  0
  -24.8040  -28.7020   19.6540 C   0  0  0  0  0  0  0  0  0  0  0  0
  -25.9070  -30.4660   21.0250 C   0  0  0  0  0  2  0  0  0  0  0  0
  -25.9740  -29.1270   20.2960 C   0  0  0  0  0  0  0  0  0  0  0  0
  -27.1440  -28.3080   20.2480 C   0  0  0  0  0  3  0  0  0  0  0  0
  -25.9690  -26.7100   18.8660 C   0  0  0  0  0  3  0  0  0  0  0  0
  -24.8100  -27.5060   18.9210 C   0  0  0  0  0  3  0  0  0  0  0  0
  -23.5680  -29.5740   19.7710 C   0  0  0  0  0  2  0  0  0  0  0  0
  -24.6410  -30.7070   21.7710 N   0  0  0  0  0  0  0  0  0  0  0  0
  -23.5070  -31.7040   23.4680 O   0  0  0  0  0  0  0  0  0  0  0  0
  -22.6920  -29.1020   22.0880 C   0  0  0  0  0  0  0  0  0  0  0  0
  -21.3540  -29.0050   22.0050 N   0  0  0  0  0  0  0  0  0  0  0  0
  -23.3680  -28.3730   22.8170 O   0  0  0  0  0  0  0  0  0  0  0  0
  -20.8700  -29.6420   21.3890 H   0  0  0  0  0  0  0  0  0  0  0  0
  -17.9360  -27.9870   22.6130 C   0  0  0  0  0  0  0  0  0  0  0  0
  -20.5200  -28.0400   22.7230 C   0  0  0  0  0  3  0  0  0  0  0  0
  -20.4760  -26.6840   21.9840 C   0  0  0  0  0  2  0  0  0  0  0  0
  -19.2900  -26.5580   21.0220 C   0  0  0  0  0  2  0  0  0  0  0  0
  -17.9670  -26.7180   21.7770 C   0  0  0  0  0  2  0  0  0  0  0  0
  -19.1350  -28.6170   23.0440 C   0  0  0  0  0  0  0  0  0  0  0  0
  -19.0510  -29.8120   23.7910 C   0  0  0  0  0  3  0  0  0  0  0  0
  -17.8010  -30.3770   24.1080 C   0  0  0  0  0  3  0  0  0  0  0  0
  -16.6190  -29.7410   23.6930 C   0  0  0  0  0  3  0  0  0  0  0  0
  -16.6870  -28.5480   22.9530 C   0  0  0  0  0  3  0  0  0  0  0  0
  -25.8750  -32.0220   23.5830 C   0  0  0  0  0  3  0  0  0  0  0  0
  -26.3750  -31.1680   24.8120 C   0  0  1  0  0  0  0  0  0  0  0  0
  -25.2790  -30.9000   25.8680 C   0  0  0  0  0  1  0  0  0  0  0  0
  -26.9210  -29.8010   24.3390 C   0  0  0  0  0  1  0  0  0  0  0  0
  -27.5470  -31.8940   25.5140 C   0  0  0  0  0  1  0  0  0  0  0  0
  -25.5850  -33.4040   23.9960 N   0  0  0  0  0  0  0  0  0  0  0  0
  -25.9530  -34.4960   23.3160 C   0  0  0  0  0  0  0  0  0  0  0  0
  -26.6400  -34.4460   22.2920 O   0  0  0  0  0  0  0  0  0  0  0  0
  -24.9720  -33.5180   24.7880 H   0  0  0  0  0  0  0  0  0  0  0  0
  -24.2650  -36.3440   23.0520 C   0  0  0  0  0  1  0  0  0  0  0  0
  -25.4840  -35.8620   23.8560 C   0  0  0  0  0  3  0  0  0  0  0  0
  -27.6170  -36.6510   24.7790 C   0  0  0  0  0  1  0  0  0  0  0  0
  -26.5360  -36.8990   23.8280 N   0  0  0  0  0  0  0  0  0  0  0  0
  -26.1460  -37.8170   24.0250 H   0  0  0  0  0  0  0  0  0  0  0  0
  -25.8470  -17.5240   20.4140 C   0  0  0  0  0  1  0  0  0  0  0  0
  -27.0820  -17.3330   19.7260 O   0  0  0  0  0  0  0  0  0  0  0  0
  2  1  2  0
  3  6  1  0
  4  1  1  0
  4 15  1  0
  5  3  2  0
  5  2  1  0
  6  4  2  0
  7 13  1  0
  8 13  1  0
  9 10  1  0
  9  8  1  0
 11 10  1  0
 11 22  1  0
 11 12  1  0
 13 12  1  0
 14  7  2  0
 15 17  2  0
 16  7  1  0
 16 15  1  0
 18 16  1  0
 19 20  2  0
 20 39  1  0
 21 20  1  0
 21 24  1  0
 22 23  1  0
 22 19  1  0
 23 21  2  0
 24 25  1  0
 25 26  2  0
 27 30  1  0
 27 26  1  0
 28 27  2  0
 29 28  1  0
 29 24  2  0
 30 31  1  0
 31 32  1  0
 32 33  2  0
 34 33  1  0
 34 38  1  0
 35 34  2  0
 36 31  2  0
 36 35  1  0
 37 36  1  0
 39 40  1  0
 40 43  1  0
 40 42  1  0
 41 39  2  0
 44 19  1  0
 44 45  1  0
 46 44  1  0
 47 48  1  0
 47 51  1  0
 48 49  1  0
 50 53  1  0
 50 49  1  0
 51  5  1  0
 51 50  1  0
 52 47  2  0
 53 54  1  0
 55 66  2  0
 56 54  1  0
 56 61  1  0
 57 65  1  0
 57 67  1  0
 58 64  1  0
 58 60  1  0
 59 65  1  0
 60 59  1  0
 61 60  2  0
 62 63  1  0
 62 56  2  0
 63 58  2  0
 64 57  1  0
 65 55  1  0
 67 69  2  0
 68 67  1  0
 70 68  1  0
 71 80  2  0
 71 76  1  0
 72 68  1  0
 72 76  1  0
 73 72  1  0
 74 75  1  0
 74 73  1  0
 75 71  1  0
 76 77  2  0
 77 78  1  0
 79 78  2  0
 80 79  1  0
 81 55  1  0
 81 86  1  0
 81 82  1  0
 82 85  1  1
 82 83  1  0
 84 82  1  0
 86 89  1  0
 87 91  1  0
 87 86  1  0
 88 87  2  0
 91 90  1  0
 93 91  1  0
 93 94  1  0
 93 92  1  0
 96  6  1  0
 96 95  1  0
M  ISO  4   7 100  16 100  53 101  54 101
M  END
>  <TORSDO>  (17) 
F 19

>  <SCORE>  (17) 
-13.221

>  <name>  (17) 
16

>  <ligand_id>  (17) 
16

>  <original_smiles>  (17) 
[H]c1c([H])c([H])c2c(c1[H])C([H])([H])C([H])([H])C([H])([H])C2([H])N([H])C(=O)C1([H])N(C(=O)C([H])(N([H])C(=O)C([H])(N([H])C([H])([H])[H])C([H])([H])[H])C(C([H])([H])[H])(C([H])([H])[H])C([H])([H])[H])C([H])([H])c2c([H])c(OC([H])([H])C3([H])N(c4c([H])c([H])c(C(=O)N([H])C(=O)N5C([H])([H])C([H])([H])C([H])([H])C([H])(n6nc(-c7c([H])c([H])c(Oc8c([H])c([H])c(F)c([H])c8F)c([H])c7[H])c(C(=O)N([H])[H])c6N([H])[H])C5([H])[H])c(OC([H])([H])[H])c4[H])C(=O)C([H])([H])C3([H])[H])c([H])c([H])c2C1([H])[H]

>  <smiles>  (17) 
[H]c1c([H])c([H])c2c(c1[H])C([H])([H])C([H])([H])C([H])([H])C2([H])N([H])C(=O)C1([H])N(C(=O)C([H])(N([H])C(=O)C([H])(N([H])C([H])([H])[H])C([H])([H])[H])C(C([H])([H])[H])(C([H])([H])[H])C([H])([H])[H])C([H])([H])c2c([H])c(OC([H])([H])C3([H])N(c4c([H])c([H])c(C(=O)N([H])C(=O)N5C([H])([H])C([H])([H])C([H])([H])C([H])(n6nc(-c7c([H])c([H])c(Oc8c([H])c([H])c(F)c([H])c8F)c([H])c7[H])c(C(=O)N([H])[H])c6N([H])[H])C5([H])[H])c(OC([H])([H])[H])c4[H])C(=O)C([H])([H])C3([H])[H])c([H])c([H])c2C1([H])[H]

$$$$
17:0:0
     RDKit          3D

 91 99  0  0  1  0  0  0  0  0999 V2000
  -29.4340  -20.9520   20.6250 C   0  0  0  0  0  3  0  0  0  0  0  0
  -29.6790  -20.7470   18.2530 C   0  0  0  0  0  3  0  0  0  0  0  0
  -29.8430  -19.5810   20.7800 C   0  0  0  0  0  0  0  0  0  0  0  0
  -30.2190  -18.7660   19.6610 C   0  0  0  0  0  0  0  0  0  0  0  0
  -29.3600  -21.5860   19.3520 C   0  0  0  0  0  0  0  0  0  0  0  0
  -30.0990  -19.3920   18.3920 C   0  0  0  0  0  0  0  0  0  0  0  0
  -29.9170  -19.0210   22.1910 C   0  0  0  0  0  1  0  0  0  0  0  0
  -30.4430  -18.7040   17.2760 F   0  0  0  0  0  0  0  0  0  0  0  0
  -28.7960  -23.9770   19.8400 C   0  0  0  0  0  3  0  0  0  0  0  0
  -28.9640  -22.9430   19.0610 N   0  0  0  0  0  0  0  0  0  0  0  0
  -28.3810  -25.3910   19.2580 C   0  0  0  0  0  2  0  0  0  0  0  0
  -28.2150  -26.5680   20.1460 O   0  0  0  0  0  0  0  0  0  0  0  0
  -24.5820  -31.9290   23.3190 C   0  0  0  0  0  0  0  0  0  0  0  0
  -27.0730  -27.3890   20.1230 C   0  0  0  0  0  0  0  0  0  0  0  0
  -23.3160  -30.5500   21.7080 C   0  0  0  0  0  3  0  0  0  0  0  0
  -24.7100  -29.0110   20.2170 C   0  0  0  0  0  0  0  0  0  0  0  0
  -25.8490  -30.8620   21.4410 C   0  0  0  0  0  2  0  0  0  0  0  0
  -25.9000  -29.4900   20.7780 C   0  0  0  0  0  0  0  0  0  0  0  0
  -27.0800  -28.6890   20.7240 C   0  0  0  0  0  3  0  0  0  0  0  0
  -25.8480  -26.9560   19.5660 C   0  0  0  0  0  3  0  0  0  0  0  0
  -24.6870  -27.7490   19.6080 C   0  0  0  0  0  3  0  0  0  0  0  0
  -23.4810  -29.8900   20.3140 C   0  0  0  0  0  2  0  0  0  0  0  0
  -24.6040  -31.1320   22.2120 N   0  0  0  0  0  0  0  0  0  0  0  0
  -23.5180  -32.2050   23.8920 O   0  0  0  0  0  0  0  0  0  0  0  0
  -22.6820  -29.5270   22.6790 C   0  0  0  0  0  0  0  0  0  0  0  0
  -21.3690  -29.2800   22.5280 N   0  0  0  0  0  0  0  0  0  0  0  0
  -23.3700  -28.9570   23.5300 O   0  0  0  0  0  0  0  0  0  0  0  0
  -20.8720  -29.7940   21.8150 H   0  0  0  0  0  0  0  0  0  0  0  0
  -18.0670  -27.8510   22.9010 C   0  0  0  0  0  0  0  0  0  0  0  0
  -20.5780  -28.3230   23.3020 C   0  0  0  0  0  3  0  0  0  0  0  0
  -20.8220  -26.8750   22.8170 C   0  0  0  0  0  2  0  0  0  0  0  0
  -19.8140  -26.4140   21.7630 C   0  0  0  0  0  2  0  0  0  0  0  0
  -18.3850  -26.4840   22.3150 C   0  0  0  0  0  2  0  0  0  0  0  0
  -19.0970  -28.7190   23.3490 C   0  0  0  0  0  0  0  0  0  0  0  0
  -18.7510  -29.9920   23.8520 C   0  0  0  0  0  3  0  0  0  0  0  0
  -17.4040  -30.3980   23.9140 C   0  0  0  0  0  3  0  0  0  0  0  0
  -16.3880  -29.5280   23.4860 C   0  0  0  0  0  3  0  0  0  0  0  0
  -16.7180  -28.2570   22.9830 C   0  0  0  0  0  3  0  0  0  0  0  0
  -25.8880  -32.5510   23.9030 C   0  0  0  0  0  3  0  0  0  0  0  0
  -26.4140  -31.7970   25.1870 C   0  0  1  0  0  0  0  0  0  0  0  0
  -25.3300  -31.5730   26.2680 C   0  0  0  0  0  1  0  0  0  0  0  0
  -26.9930  -30.4140   24.8070 C   0  0  0  0  0  1  0  0  0  0  0  0
  -27.5710  -32.6010   25.8280 C   0  0  0  0  0  1  0  0  0  0  0  0
  -25.6110  -33.9610   24.2100 N   0  0  0  0  0  0  0  0  0  0  0  0
  -25.9260  -34.9900   23.4130 C   0  0  0  0  0  0  0  0  0  0  0  0
  -26.5530  -34.8520   22.3590 O   0  0  0  0  0  0  0  0  0  0  0  0
  -25.0560  -34.1450   25.0330 H   0  0  0  0  0  0  0  0  0  0  0  0
  -24.2020  -36.7930   23.0980 C   0  0  0  0  0  1  0  0  0  0  0  0
  -25.4770  -36.3950   23.8580 C   0  0  0  0  0  3  0  0  0  0  0  0
  -27.6520  -37.2850   24.5670 C   0  0  0  0  0  1  0  0  0  0  0  0
  -26.5140  -37.4340   23.6660 N   0  0  0  0  0  0  0  0  0  0  0  0
  -26.1220  -38.3610   23.8050 H   0  0  0  0  0  0  0  0  0  0  0  0
  -30.9880  -17.3830   19.7940 C   0  0  0  0  0  2  0  0  0  0  0  0
  -31.0410  -14.8390   19.4610 C   0  0  0  0  0  0  0  0  0  0  0  0
  -30.6920  -12.5290   18.6100 C   0  0  0  0  0  2  0  0  0  0  0  0
  -29.6280  -12.5350   17.4920 C   0  0  0  0  0  2  0  0  0  0  0  0
  -28.2170  -12.3990   18.0920 C   0  0  0  0  0  2  0  0  0  0  0  0
  -27.9720  -13.3780   19.2720 C   0  0  0  0  0  3  0  0  0  0  0  0
  -29.1440  -13.3650   20.2780 C   0  0  0  0  0  2  0  0  0  0  0  0
  -30.3720  -13.6450   19.5240 N   0  0  0  0  0  0  0  0  0  0  0  0
  -32.1900  -14.8840   19.0130 O   0  0  0  0  0  0  0  0  0  0  0  0
  -30.3600  -16.0070   19.7260 N   0  0  0  0  0  0  0  0  0  0  0  0
  -29.3910  -15.9280   19.9920 H   0  0  0  0  0  0  0  0  0  0  0  0
  -25.7350  -14.0410   20.3410 C   0  0  0  0  0  0  0  0  0  0  0  0
  -24.6810  -13.2980   20.8000 C   0  0  0  0  0  0  0  0  0  0  0  0
  -25.0590  -11.9310   20.6330 C   0  0  0  0  0  0  0  0  0  0  0  0
  -26.6890  -13.1280   19.9210 N   0  0  0  0  0  0  0  0  0  0  0  0
  -26.2960  -11.8500   20.1580 N   0  0  0  0  0  0  0  0  0  0  0  0
  -24.2930  -10.6950   20.8430 C   0  0  0  0  0  0  0  0  0  0  0  0
  -24.7170   -9.7090   21.7590 C   0  0  0  0  0  3  0  0  0  0  0  0
  -23.9520   -8.5390   21.9550 C   0  0  0  0  0  3  0  0  0  0  0  0
  -22.7490   -8.3490   21.2360 C   0  0  0  0  0  0  0  0  0  0  0  0
  -22.3440   -9.3240   20.3080 C   0  0  0  0  0  3  0  0  0  0  0  0
  -23.1080  -10.4850   20.1090 C   0  0  0  0  0  3  0  0  0  0  0  0
  -21.9530   -7.2330   21.3450 O   0  0  0  0  0  0  0  0  0  0  0  0
  -21.8170   -6.5610   22.5320 C   0  0  0  0  0  0  0  0  0  0  0  0
  -21.2850   -7.1810   23.6840 C   0  0  0  0  0  3  0  0  0  0  0  0
  -21.0980   -6.4330   24.8640 C   0  0  0  0  0  3  0  0  0  0  0  0
  -21.4310   -5.0650   24.8910 C   0  0  0  0  0  0  0  0  0  0  0  0
  -21.9570   -4.4450   23.7430 C   0  0  0  0  0  3  0  0  0  0  0  0
  -22.1460   -5.1910   22.5670 C   0  0  0  0  0  0  0  0  0  0  0  0
  -22.6320   -4.5830   21.4580 F   0  0  0  0  0  0  0  0  0  0  0  0
  -21.2450   -4.3440   26.0220 F   0  0  0  0  0  0  0  0  0  0  0  0
  -23.3600  -13.8260   21.2760 C   0  0  0  0  0  0  0  0  0  0  0  0
  -22.7150  -13.1210   22.1990 N   0  0  0  0  0  0  0  0  0  0  0  0
  -22.9130  -14.8970   20.8670 O   0  0  0  0  0  0  0  0  0  0  0  0
  -23.0910  -12.2510   22.5500 H   0  0  0  0  0  0  0  0  0  0  0  0
  -21.8330  -13.4530   22.5620 H   0  0  0  0  0  0  0  0  0  0  0  0
  -25.9530  -15.4110   20.2210 N   0  0  0  0  0  0  0  0  0  0  0  0
  -25.2440  -16.0930   20.4690 H   0  0  0  0  0  0  0  0  0  0  0  0
  -26.7700  -15.8300   19.7950 H   0  0  0  0  0  0  0  0  0  0  0  0
  1  3  1  0
  2  6  2  0
  2  5  1  0
  3  7  1  0
  4 53  1  0
  4  3  2  0
  5  1  2  0
  6  4  1  0
  8  6  1  0
 10  5  1  0
 10  9  2  0
 11  9  1  0
 11 12  1  0
 13 24  2  0
 14 12  1  0
 14 19  1  0
 15 23  1  0
 15 25  1  0
 16 22  1  0
 16 18  1  0
 17 23  1  0
 18 17  1  0
 19 18  2  0
 20 21  1  0
 20 14  2  0
 21 16  2  0
 22 15  1  0
 23 13  1  0
 25 27  2  0
 26 25  1  0
 28 26  1  0
 29 38  2  0
 29 34  1  0
 30 26  1  0
 30 34  1  0
 31 30  1  0
 32 33  1  0
 32 31  1  0
 33 29  1  0
 34 35  2  0
 35 36  1  0
 37 36  2  0
 38 37  1  0
 39 13  1  0
 39 44  1  0
 39 40  1  0
 40 43  1  1
 40 41  1  0
 42 40  1  0
 44 47  1  0
 45 49  1  0
 45 44  1  0
 46 45  2  0
 49 48  1  0
 51 52  1  0
 51 49  1  0
 51 50  1  0
 54 60  1  0
 54 62  1  0
 55 60  1  0
 56 57  1  0
 56 55  1  0
 58 57  1  0
 58 67  1  0
 58 59  1  0
 60 59  1  0
 61 54  2  0
 62 53  1  0
 62 63  1  0
 64 65  2  0
 65 84  1  0
 66 65  1  0
 66 69  1  0
 67 68  1  0
 67 64  1  0
 68 66  2  0
 69 70  1  0
 70 71  2  0
 72 75  1  0
 72 71  1  0
 73 72  2  0
 74 73  1  0
 74 69  2  0
 75 76  1  0
 76 81  2  0
 76 77  1  0
 77 78  2  0
 78 79  1  0
 79 83  1  0
 80 79  2  0
 81 80  1  0
 82 81  1  0
 84 85  1  0
 85 87  1  0
 85 88  1  0
 86 84  2  0
 89 64  1  0
 89 90  1  0
 91 89  1  0
M  ISO  4  11 101  12 101  54 100  62 100
M  END
>  <TORSDO>  (18) 
F 19

>  <SCORE>  (18) 
-12.623

>  <name>  (18) 
17

>  <ligand_id>  (18) 
17

>  <original_smiles>  (18) 
[H]C(=Nc1c([H])c(F)c(C([H])([H])N([H])C(=O)N2C([H])([H])C([H])([H])C([H])([H])C([H])(n3nc(-c4c([H])c([H])c(Oc5c([H])c([H])c(F)c([H])c5F)c([H])c4[H])c(C(=O)N([H])[H])c3N([H])[H])C2([H])[H])c(C([H])([H])[H])c1[H])C([H])([H])Oc1c([H])c([H])c2c(c1[H])C([H])([H])N(C(=O)C([H])(N([H])C(=O)C([H])(N([H])C([H])([H])[H])C([H])([H])[H])C(C([H])([H])[H])(C([H])([H])[H])C([H])([H])[H])C([H])(C(=O)N([H])C1([H])c3c([H])c([H])c([H])c([H])c3C([H])([H])C([H])([H])C1([H])[H])C2([H])[H]

>  <smiles>  (18) 
[H]C(=Nc1c([H])c(F)c(C([H])([H])N([H])C(=O)N2C([H])([H])C([H])([H])C([H])([H])C([H])(n3nc(-c4c([H])c([H])c(Oc5c([H])c([H])c(F)c([H])c5F)c([H])c4[H])c(C(=O)N([H])[H])c3N([H])[H])C2([H])[H])c(C([H])([H])[H])c1[H])C([H])([H])Oc1c([H])c([H])c2c(c1[H])C([H])([H])N(C(=O)C([H])(N([H])C(=O)C([H])(N([H])C([H])([H])[H])C([H])([H])[H])C(C([H])([H])[H])(C([H])([H])[H])C([H])([H])[H])C([H])(C(=O)N([H])C1([H])c3c([H])c([H])c([H])c([H])c3C([H])([H])C([H])([H])C1([H])[H])C2([H])[H]

$$$$
18:0:0
     RDKit          3D

 97106  0  0  1  0  0  0  0  0999 V2000
  -31.7240  -22.0240   20.1510 C   0  0  0  0  0  0  0  0  0  0  0  0
  -31.9960  -23.5360   20.1050 C   0  0  0  0  0  2  0  0  0  0  0  0
  -30.8560  -24.4100   20.6340 C   0  0  0  0  0  2  0  0  0  0  0  0
  -29.2840  -22.4860   20.2430 C   0  0  0  0  0  2  0  0  0  0  0  0
  -29.5490  -24.0340   19.9460 C   0  0  0  0  0  3  0  0  0  0  0  0
  -30.4490  -21.5360   20.0820 N   0  0  0  0  0  0  0  0  0  0  0  0
  -32.7200  -21.2950   20.2320 O   0  0  0  0  0  0  0  0  0  0  0  0
  -29.8550  -19.3370   21.2110 C   0  0  0  0  0  3  0  0  0  0  0  0
  -30.6320  -19.2890   18.9370 C   0  0  0  0  0  3  0  0  0  0  0  0
  -29.8630  -17.9070   21.2370 C   0  0  0  0  0  0  0  0  0  0  0  0
  -30.2770  -20.0710   20.0730 C   0  0  0  0  0  0  0  0  0  0  0  0
  -30.6380  -17.8640   18.9460 C   0  0  0  0  0  0  0  0  0  0  0  0
  -30.2830  -17.1270   20.1150 C   0  0  0  0  0  0  0  0  0  0  0  0
  -29.4350  -17.2060   22.5160 C   0  0  0  0  0  1  0  0  0  0  0  0
  -30.9540  -14.6430   19.6630 C   0  0  0  0  0  0  0  0  0  0  0  0
  -30.6180  -12.4570   18.5360 C   0  0  0  0  0  2  0  0  0  0  0  0
  -29.5150  -12.6390   17.4710 C   0  0  0  0  0  2  0  0  0  0  0  0
  -28.1180  -12.4310   18.0870 C   0  0  0  0  0  2  0  0  0  0  0  0
  -27.9230  -13.2250   19.4060 C   0  0  0  0  0  3  0  0  0  0  0  0
  -29.1270  -13.0310   20.3570 C   0  0  0  0  0  2  0  0  0  0  0  0
  -30.3450  -13.4160   19.6250 N   0  0  0  0  0  0  0  0  0  0  0  0
  -32.0470  -14.8290   19.1190 O   0  0  0  0  0  0  0  0  0  0  0  0
  -30.2140  -15.6620   20.2000 N   0  0  0  0  0  0  0  0  0  0  0  0
  -29.4210  -15.3230   20.7170 H   0  0  0  0  0  0  0  0  0  0  0  0
  -25.6720  -13.7470   20.5280 C   0  0  0  0  0  0  0  0  0  0  0  0
  -24.6620  -12.9410   20.9770 C   0  0  0  0  0  0  0  0  0  0  0  0
  -25.0960  -11.5990   20.7470 C   0  0  0  0  0  0  0  0  0  0  0  0
  -26.6580  -12.8960   20.0560 N   0  0  0  0  0  0  0  0  0  0  0  0
  -26.3260  -11.5920   20.2470 N   0  0  0  0  0  0  0  0  0  0  0  0
  -24.3910  -10.3240   20.9230 C   0  0  0  0  0  0  0  0  0  0  0  0
  -24.7940   -9.3850   21.8990 C   0  0  0  0  0  3  0  0  0  0  0  0
  -24.0890   -8.1720   22.0600 C   0  0  0  0  0  3  0  0  0  0  0  0
  -22.9680   -7.8900   21.2450 C   0  0  0  0  0  0  0  0  0  0  0  0
  -22.5850   -8.8170   20.2590 C   0  0  0  0  0  3  0  0  0  0  0  0
  -23.2900  -10.0210   20.0960 C   0  0  0  0  0  3  0  0  0  0  0  0
  -22.2370   -6.7290   21.3130 O   0  0  0  0  0  0  0  0  0  0  0  0
  -21.9270   -6.1430   22.5140 C   0  0  0  0  0  0  0  0  0  0  0  0
  -21.1890   -6.8240   23.5080 C   0  0  0  0  0  3  0  0  0  0  0  0
  -20.8340   -6.1600   24.6990 C   0  0  0  0  0  3  0  0  0  0  0  0
  -21.2060   -4.8160   24.8960 C   0  0  0  0  0  0  0  0  0  0  0  0
  -21.9360   -4.1360   23.9060 C   0  0  0  0  0  3  0  0  0  0  0  0
  -22.2930   -4.7970   22.7170 C   0  0  0  0  0  0  0  0  0  0  0  0
  -22.9780   -4.1300   21.7570 F   0  0  0  0  0  0  0  0  0  0  0  0
  -20.8580   -4.1770   26.0360 F   0  0  0  0  0  0  0  0  0  0  0  0
  -23.3260  -13.3860   21.4980 C   0  0  0  0  0  0  0  0  0  0  0  0
  -22.7550  -12.6440   22.4400 N   0  0  0  0  0  0  0  0  0  0  0  0
  -22.8010  -14.4270   21.1050 O   0  0  0  0  0  0  0  0  0  0  0  0
  -23.1960  -11.8020   22.7810 H   0  0  0  0  0  0  0  0  0  0  0  0
  -21.8650  -12.9220   22.8280 H   0  0  0  0  0  0  0  0  0  0  0  0
  -25.8260  -15.1300   20.4630 N   0  0  0  0  0  0  0  0  0  0  0  0
  -25.0930  -15.7670   20.7540 H   0  0  0  0  0  0  0  0  0  0  0  0
  -26.6160  -15.6010   20.0420 H   0  0  0  0  0  0  0  0  0  0  0  0
  -30.9890  -17.2110   17.7670 N   0  0  0  0  0  0  0  0  0  0  0  0
  -31.5340  -17.7490   17.1030 H   0  0  0  0  0  0  0  0  0  0  0  0
  -31.4030  -16.2900   17.9240 H   0  0  0  0  0  0  0  0  0  0  0  0
  -28.4020  -25.0670   20.3130 C   0  0  0  0  0  2  0  0  0  0  0  0
  -28.5850  -26.4810   19.9170 O   0  0  0  0  0  0  0  0  0  0  0  0
  -24.7330  -31.7050   23.0490 C   0  0  0  0  0  0  0  0  0  0  0  0
  -27.4470  -27.2960   19.8970 C   0  0  0  0  0  0  0  0  0  0  0  0
  -23.5640  -30.3350   21.3570 C   0  0  0  0  0  3  0  0  0  0  0  0
  -25.0530  -28.8520   19.9020 C   0  0  0  0  0  0  0  0  0  0  0  0
  -26.0970  -30.7040   21.2070 C   0  0  0  0  0  2  0  0  0  0  0  0
  -26.2050  -29.3460   20.5260 C   0  0  0  0  0  0  0  0  0  0  0  0
  -27.4060  -28.5800   20.5140 C   0  0  0  0  0  3  0  0  0  0  0  0
  -26.2770  -26.8560   19.2370 C   0  0  0  0  0  3  0  0  0  0  0  0
  -25.0910  -27.6120   19.2480 C   0  0  0  0  0  3  0  0  0  0  0  0
  -23.8000  -29.7020   19.9610 C   0  0  0  0  0  2  0  0  0  0  0  0
  -24.8160  -30.9300   21.9290 N   0  0  0  0  0  0  0  0  0  0  0  0
  -23.6410  -31.9510   23.5810 O   0  0  0  0  0  0  0  0  0  0  0  0
  -22.9090  -29.2810   22.2810 C   0  0  0  0  0  0  0  0  0  0  0  0
  -21.5850  -29.0990   22.1450 N   0  0  0  0  0  0  0  0  0  0  0  0
  -23.5920  -28.6320   23.0780 O   0  0  0  0  0  0  0  0  0  0  0  0
  -21.0960  -29.6750   21.4750 H   0  0  0  0  0  0  0  0  0  0  0  0
  -18.2040  -27.9220   22.6570 C   0  0  0  0  0  0  0  0  0  0  0  0
  -20.7720  -28.1320   22.8820 C   0  0  0  0  0  3  0  0  0  0  0  0
  -20.8410  -26.7330   22.2250 C   0  0  0  0  0  2  0  0  0  0  0  0
  -19.7110  -26.4820   21.2210 C   0  0  0  0  0  2  0  0  0  0  0  0
  -18.3460  -26.6100   21.9030 C   0  0  0  0  0  2  0  0  0  0  0  0
  -19.3430  -28.6440   23.1010 C   0  0  0  0  0  0  0  0  0  0  0  0
  -19.1560  -29.8750   23.7660 C   0  0  0  0  0  3  0  0  0  0  0  0
  -17.8630  -30.3850   23.9880 C   0  0  0  0  0  3  0  0  0  0  0  0
  -16.7390  -29.6580   23.5600 C   0  0  0  0  0  3  0  0  0  0  0  0
  -16.9110  -28.4280   22.9000 C   0  0  0  0  0  3  0  0  0  0  0  0
  -26.0010  -32.3350   23.7010 C   0  0  0  0  0  3  0  0  0  0  0  0
  -26.5270  -31.5240   24.9490 C   0  0  1  0  0  0  0  0  0  0  0  0
  -25.4330  -31.2170   25.9980 C   0  0  0  0  0  1  0  0  0  0  0  0
  -27.1450  -30.1770   24.5080 C   0  0  0  0  0  1  0  0  0  0  0  0
  -27.6540  -32.3180   25.6520 C   0  0  0  0  0  1  0  0  0  0  0  0
  -25.6650  -33.7140   24.0830 N   0  0  0  0  0  0  0  0  0  0  0  0
  -25.9620  -34.7990   23.3560 C   0  0  0  0  0  0  0  0  0  0  0  0
  -26.6220  -34.7480   22.3150 O   0  0  0  0  0  0  0  0  0  0  0  0
  -25.0790  -33.8270   24.8970 H   0  0  0  0  0  0  0  0  0  0  0  0
  -24.1930  -36.5660   23.0770 C   0  0  0  0  0  1  0  0  0  0  0  0
  -25.4470  -36.1590   23.8670 C   0  0  0  0  0  3  0  0  0  0  0  0
  -27.5630  -37.0640   24.7240 C   0  0  0  0  0  1  0  0  0  0  0  0
  -26.4550  -37.2400   23.7880 N   0  0  0  0  0  0  0  0  0  0  0  0
  -26.0280  -38.1430   23.9700 H   0  0  0  0  0  0  0  0  0  0  0  0
  1  7  2  0
  2  1  1  0
  2  3  1  0
  5  4  1  0
  5 56  1  0
  5  3  1  0
  6  1  1  0
  6  4  1  0
  8 10  1  0
  9 12  2  0
  9 11  1  0
 10 14  1  0
 11  6  1  0
 11  8  2  0
 12 13  1  0
 13 23  1  0
 13 10  2  0
 15 23  1  0
 16 21  1  0
 17 18  1  0
 17 16  1  0
 19 18  1  0
 19 28  1  0
 19 20  1  0
 21 15  1  0
 21 20  1  0
 22 15  2  0
 23 24  1  0
 25 26  2  0
 26 45  1  0
 27 30  1  0
 27 26  1  0
 28 29  1  0
 28 25  1  0
 29 27  2  0
 30 31  1  0
 31 32  2  0
 33 36  1  0
 33 32  1  0
 34 33  2  0
 35 34  1  0
 35 30  2  0
 36 37  1  0
 37 42  2  0
 37 38  1  0
 38 39  2  0
 39 40  1  0
 40 44  1  0
 41 40  2  0
 42 41  1  0
 43 42  1  0
 45 46  1  0
 46 48  1  0
 46 49  1  0
 47 45  2  0
 50 25  1  0
 50 51  1  0
 52 50  1  0
 53 55  1  0
 53 12  1  0
 54 53  1  0
 57 56  1  0
 58 69  2  0
 59 57  1  0
 59 64  1  0
 60 68  1  0
 60 70  1  0
 61 67  1  0
 61 63  1  0
 62 68  1  0
 63 62  1  0
 64 63  2  0
 65 66  1  0
 65 59  2  0
 66 61  2  0
 67 60  1  0
 68 58  1  0
 70 72  2  0
 71 70  1  0
 73 71  1  0
 74 83  2  0
 74 79  1  0
 75 71  1  0
 75 79  1  0
 76 75  1  0
 77 78  1  0
 77 76  1  0
 78 74  1  0
 79 80  2  0
 80 81  1  0
 82 81  2  0
 83 82  1  0
 84 58  1  0
 84 89  1  0
 84 85  1  0
 85 88  1  1
 85 86  1  0
 87 85  1  0
 89 92  1  0
 90 94  1  0
 90 89  1  0
 91 90  2  0
 94 93  1  0
 96 94  1  0
 96 97  1  0
 96 95  1  0
M  ISO  4  15 100  23 100  56 101  57 101
M  END
>  <TORSDO>  (19) 
F 19

>  <SCORE>  (19) 
-11.189

>  <name>  (19) 
18

>  <ligand_id>  (19) 
18

>  <original_smiles>  (19) 
[H]c1c([H])c([H])c2c(c1[H])C([H])([H])C([H])([H])C([H])([H])C2([H])N([H])C(=O)C1([H])N(C(=O)C([H])(N([H])C(=O)C([H])(N([H])C([H])([H])[H])C([H])([H])[H])C(C([H])([H])[H])(C([H])([H])[H])C([H])([H])[H])C([H])([H])c2c([H])c(OC([H])([H])C3([H])C([H])([H])N(c4c([H])c(N([H])[H])c(N([H])C(=O)N5C([H])([H])C([H])([H])C([H])([H])C([H])(n6nc(-c7c([H])c([H])c(Oc8c([H])c([H])c(F)c([H])c8F)c([H])c7[H])c(C(=O)N([H])[H])c6N([H])[H])C5([H])[H])c(C([H])([H])[H])c4[H])C(=O)C([H])([H])C3([H])[H])c([H])c([H])c2C1([H])[H]

>  <smiles>  (19) 
[H]c1c([H])c([H])c2c(c1[H])C([H])([H])C([H])([H])C([H])([H])C2([H])N([H])C(=O)C1([H])N(C(=O)C([H])(N([H])C(=O)C([H])(N([H])C([H])([H])[H])C([H])([H])[H])C(C([H])([H])[H])(C([H])([H])[H])C([H])([H])[H])C([H])([H])c2c([H])c(OC([H])([H])C3([H])C([H])([H])N(c4c([H])c(N([H])[H])c(N([H])C(=O)N5C([H])([H])C([H])([H])C([H])([H])C([H])(n6nc(-c7c([H])c([H])c(Oc8c([H])c([H])c(F)c([H])c8F)c([H])c7[H])c(C(=O)N([H])[H])c6N([H])[H])C5([H])[H])c(C([H])([H])[H])c4[H])C(=O)C([H])([H])C3([H])[H])c([H])c([H])c2C1([H])[H]

$$$$
19:0:0
     RDKit          3D

 92100  0  0  1  0  0  0  0  0999 V2000
  -30.8420  -18.7070   20.0690 C   0  0  0  0  0  3  0  0  0  0  0  0
  -30.5990  -20.1380   19.8830 C   0  0  0  0  0  3  0  0  0  0  0  0
  -28.5610  -18.2860   19.6610 C   0  0  0  0  0  3  0  0  0  0  0  0
  -29.8300  -17.6830   19.9690 C   0  0  0  0  0  0  0  0  0  0  0  0
  -29.3150  -20.7020   19.5640 C   0  0  0  0  0  0  0  0  0  0  0  0
  -28.2990  -19.6990   19.4720 C   0  0  0  0  0  0  0  0  0  0  0  0
  -29.8600  -16.1160   20.3580 C   0  0  0  0  0  0  0  0  0  0  0  0
  -29.2650  -15.8700   21.4520 N   0  0  0  0  0  0  0  0  0  0  0  0
  -28.8860  -16.7130   21.8640 H   0  0  0  0  0  0  0  0  0  0  0  0
  -30.5380  -14.8160   19.5970 C   0  0  0  0  0  0  0  0  0  0  0  0
  -30.3560  -12.4260   18.7540 C   0  0  0  0  0  2  0  0  0  0  0  0
  -29.3100  -12.3290   17.6150 C   0  0  0  0  0  2  0  0  0  0  0  0
  -27.8880  -12.1400   18.1790 C   0  0  0  0  0  2  0  0  0  0  0  0
  -27.5940  -13.1250   19.3380 C   0  0  0  0  0  3  0  0  0  0  0  0
  -28.7370  -13.1160   20.3720 C   0  0  0  0  0  2  0  0  0  0  0  0
  -29.9680  -13.5380   19.6770 N   0  0  0  0  0  0  0  0  0  0  0  0
  -31.6000  -14.9360   18.9730 O   0  0  0  0  0  0  0  0  0  0  0  0
  -25.3240  -13.7910   20.3260 C   0  0  0  0  0  0  0  0  0  0  0  0
  -24.2700  -13.0500   20.7860 C   0  0  0  0  0  0  0  0  0  0  0  0
  -24.6680  -11.6820   20.6700 C   0  0  0  0  0  0  0  0  0  0  0  0
  -26.2970  -12.8760   19.9570 N   0  0  0  0  0  0  0  0  0  0  0  0
  -25.9160  -11.6000   20.2240 N   0  0  0  0  0  0  0  0  0  0  0  0
  -23.9130  -10.4440   20.9070 C   0  0  0  0  0  0  0  0  0  0  0  0
  -24.3910   -9.4460   21.7830 C   0  0  0  0  0  3  0  0  0  0  0  0
  -23.6390   -8.2730   22.0100 C   0  0  0  0  0  3  0  0  0  0  0  0
  -22.3940   -8.0910   21.3610 C   0  0  0  0  0  0  0  0  0  0  0  0
  -21.9330   -9.0800   20.4750 C   0  0  0  0  0  3  0  0  0  0  0  0
  -22.6840  -10.2440   20.2460 C   0  0  0  0  0  3  0  0  0  0  0  0
  -21.6090   -6.9720   21.4960 O   0  0  0  0  0  0  0  0  0  0  0  0
  -21.6190   -6.2220   22.6470 C   0  0  0  0  0  0  0  0  0  0  0  0
  -21.3070   -6.7830   23.9040 C   0  0  0  0  0  3  0  0  0  0  0  0
  -21.2590   -5.9630   25.0500 C   0  0  0  0  0  3  0  0  0  0  0  0
  -21.5140   -4.5840   24.9390 C   0  0  0  0  0  0  0  0  0  0  0  0
  -21.8170   -4.0210   23.6870 C   0  0  0  0  0  3  0  0  0  0  0  0
  -21.8670   -4.8370   22.5440 C   0  0  0  0  0  0  0  0  0  0  0  0
  -22.1410   -4.2870   21.3360 F   0  0  0  0  0  0  0  0  0  0  0  0
  -21.4610   -3.7950   26.0370 F   0  0  0  0  0  0  0  0  0  0  0  0
  -22.9330  -13.5740   21.2220 C   0  0  0  0  0  0  0  0  0  0  0  0
  -22.2850  -12.8940   22.1600 N   0  0  0  0  0  0  0  0  0  0  0  0
  -22.4780  -14.6210   20.7650 O   0  0  0  0  0  0  0  0  0  0  0  0
  -22.6710  -12.0450   22.5460 H   0  0  0  0  0  0  0  0  0  0  0  0
  -21.3950  -13.2280   22.5010 H   0  0  0  0  0  0  0  0  0  0  0  0
  -25.5320  -15.1590   20.1690 N   0  0  0  0  0  0  0  0  0  0  0  0
  -24.8170  -15.8470   20.3760 H   0  0  0  0  0  0  0  0  0  0  0  0
  -26.3740  -15.5640   19.7830 H   0  0  0  0  0  0  0  0  0  0  0  0
  -25.9160  -19.3160   19.2890 C   0  0  0  0  0  1  0  0  0  0  0  0
  -27.0370  -20.1890   19.1890 O   0  0  0  0  0  0  0  0  0  0  0  0
  -28.9050  -22.0920   19.2730 N   0  0  0  0  0  0  0  0  0  0  0  0
  -27.9010  -22.0940   19.0870 H   0  0  0  0  0  0  0  0  0  0  0  0
  -29.3900  -23.5230   19.5780 C   0  0  0  0  0  3  0  0  0  0  0  0
  -28.4590  -24.8030   19.0620 C   0  0  0  0  0  3  0  0  0  0  0  0
  -28.6150  -26.2860   19.4170 O   0  0  0  0  0  0  0  0  0  0  0  0
  -24.6600  -31.3770   22.8410 C   0  0  0  0  0  0  0  0  0  0  0  0
  -27.4840  -27.1660   19.4120 C   0  0  0  0  0  0  0  0  0  0  0  0
  -23.5210  -30.0690   21.0880 C   0  0  0  0  0  3  0  0  0  0  0  0
  -25.0430  -28.7210   19.5240 C   0  0  0  0  0  0  0  0  0  0  0  0
  -26.0490  -30.5220   20.9230 C   0  0  0  0  0  2  0  0  0  0  0  0
  -26.1980  -29.2010   20.1570 C   0  0  0  0  0  0  0  0  0  0  0  0
  -27.4200  -28.4440   20.0800 C   0  0  0  0  0  3  0  0  0  0  0  0
  -26.3000  -26.7700   18.7500 C   0  0  0  0  0  3  0  0  0  0  0  0
  -25.1040  -27.5180   18.8070 C   0  0  0  0  0  3  0  0  0  0  0  0
  -23.7630  -29.5290   19.6520 C   0  0  0  0  0  2  0  0  0  0  0  0
  -24.7630  -30.6720   21.6750 N   0  0  0  0  0  0  0  0  0  0  0  0
  -23.5670  -31.5490   23.4010 O   0  0  0  0  0  0  0  0  0  0  0  0
  -22.9130  -28.9420   21.9590 C   0  0  0  0  0  0  0  0  0  0  0  0
  -21.5920  -28.7230   21.8400 N   0  0  0  0  0  0  0  0  0  0  0  0
  -23.6300  -28.2710   22.7060 O   0  0  0  0  0  0  0  0  0  0  0  0
  -21.0690  -29.3200   21.2150 H   0  0  0  0  0  0  0  0  0  0  0  0
  -18.2690  -27.3550   22.3010 C   0  0  0  0  0  0  0  0  0  0  0  0
  -20.8260  -27.6840   22.5320 C   0  0  0  0  0  3  0  0  0  0  0  0
  -20.9600  -26.3220   21.8110 C   0  0  0  0  0  2  0  0  0  0  0  0
  -19.8410  -26.0630   20.7980 C   0  0  0  0  0  2  0  0  0  0  0  0
  -18.4730  -26.0900   21.4850 C   0  0  0  0  0  2  0  0  0  0  0  0
  -19.3730  -28.1120   22.7780 C   0  0  0  0  0  0  0  0  0  0  0  0
  -19.1260  -29.2970   23.5050 C   0  0  0  0  0  3  0  0  0  0  0  0
  -17.8090  -29.7280   23.7550 C   0  0  0  0  0  3  0  0  0  0  0  0
  -16.7220  -28.9670   23.2940 C   0  0  0  0  0  3  0  0  0  0  0  0
  -16.9530  -27.7830   22.5720 C   0  0  0  0  0  3  0  0  0  0  0  0
  -25.9090  -32.0230   23.5140 C   0  0  0  0  0  3  0  0  0  0  0  0
  -25.5320  -33.3790   23.9440 N   0  0  0  0  0  0  0  0  0  0  0  0
  -25.8280  -34.5030   23.2780 C   0  0  0  0  0  0  0  0  0  0  0  0
  -26.5130  -34.5090   22.2510 O   0  0  0  0  0  0  0  0  0  0  0  0
  -24.9160  -33.4430   24.7410 H   0  0  0  0  0  0  0  0  0  0  0  0
  -24.0220  -36.2420   23.0550 C   0  0  0  0  0  1  0  0  0  0  0  0
  -25.2800  -35.8300   23.8370 C   0  0  0  0  0  3  0  0  0  0  0  0
  -27.3740  -36.7390   24.7420 C   0  0  0  0  0  1  0  0  0  0  0  0
  -26.2650  -36.9330   23.8100 N   0  0  0  0  0  0  0  0  0  0  0  0
  -25.8190  -37.8190   24.0310 H   0  0  0  0  0  0  0  0  0  0  0  0
  -26.4550  -31.1870   24.7360 C   0  0  1  0  0  0  0  0  0  0  0  0
  -25.3710  -30.8310   25.7830 C   0  0  0  0  0  1  0  0  0  0  0  0
  -27.0920  -29.8640   24.2530 C   0  0  0  0  0  1  0  0  0  0  0  0
  -27.5830  -31.9770   25.4470 C   0  0  0  0  0  1  0  0  0  0  0  0
  2  1  2  0
  3  4  2  0
  4  1  1  0
  4  7  1  0
  5  2  1  0
  6  5  2  0
  6  3  1  0
  7  8  2  0
  8  9  1  0
 10 16  1  0
 10  7  1  0
 11 16  1  0
 12 13  1  0
 12 11  1  0
 14 13  1  0
 14 21  1  0
 14 15  1  0
 16 15  1  0
 17 10  2  0
 18 19  2  0
 19 38  1  0
 20 19  1  0
 20 23  1  0
 21 22  1  0
 21 18  1  0
 22 20  2  0
 23 24  1  0
 24 25  2  0
 26 29  1  0
 26 25  1  0
 27 26  2  0
 28 27  1  0
 28 23  2  0
 29 30  1  0
 30 31  1  0
 31 32  2  0
 33 32  1  0
 33 37  1  0
 34 33  2  0
 35 30  2  0
 35 34  1  0
 36 35  1  0
 38 39  1  0
 39 42  1  0
 39 41  1  0
 40 38  2  0
 43 18  1  0
 43 44  1  0
 45 43  1  0
 47 46  1  0
 47  6  1  0
 48  5  1  0
 48 50  1  0
 49 48  1  0
 51 52  1  0
 51 50  2  0
 53 64  2  0
 54 52  1  0
 54 59  1  0
 55 63  1  0
 55 65  1  0
 56 62  1  0
 56 58  1  0
 57 63  1  0
 58 57  1  0
 59 58  2  0
 60 61  1  0
 60 54  2  0
 61 56  2  0
 62 55  1  0
 63 53  1  0
 65 67  2  0
 66 65  1  0
 68 66  1  0
 69 78  2  0
 69 74  1  0
 70 66  1  0
 70 74  1  0
 71 70  1  0
 72 73  1  0
 72 71  1  0
 73 69  1  0
 74 75  2  0
 75 76  1  0
 77 76  2  0
 78 77  1  0
 79 53  1  0
 79 80  1  0
 79 89  1  0
 80 83  1  0
 81 85  1  0
 81 80  1  0
 82 81  2  0
 85 84  1  0
 87 85  1  0
 87 88  1  0
 87 86  1  0
 89 92  1  1
 89 90  1  0
 91 89  1  0
M  ISO  4   7 100  10 100  51 101  52 101
M  END
>  <TORSDO>  (20) 
F 21

>  <SCORE>  (20) 
-11.250

>  <name>  (20) 
19

>  <ligand_id>  (20) 
19

>  <original_smiles>  (20) 
[H]N=C(C(=O)N1C([H])([H])C([H])([H])C([H])([H])C([H])(n2nc(-c3c([H])c([H])c(Oc4c([H])c([H])c(F)c([H])c4F)c([H])c3[H])c(C(=O)N([H])[H])c2N([H])[H])C1([H])[H])c1c([H])c([H])c(N([H])C([H])([H])C([H])([H])Oc2c([H])c([H])c3c(c2[H])C([H])([H])N(C(=O)C([H])(N([H])C(=O)C([H])(N([H])C([H])([H])[H])C([H])([H])[H])C(C([H])([H])[H])(C([H])([H])[H])C([H])([H])[H])C([H])(C(=O)N([H])C2([H])c4c([H])c([H])c([H])c([H])c4C([H])([H])C([H])([H])C2([H])[H])C3([H])[H])c(OC([H])([H])[H])c1[H]

>  <smiles>  (20) 
[H]N=C(C(=O)N1C([H])([H])C([H])([H])C([H])([H])C([H])(n2nc(-c3c([H])c([H])c(Oc4c([H])c([H])c(F)c([H])c4F)c([H])c3[H])c(C(=O)N([H])[H])c2N([H])[H])C1([H])[H])c1c([H])c([H])c(N([H])C([H])([H])C([H])([H])Oc2c([H])c([H])c3c(c2[H])C([H])([H])N(C(=O)C([H])(N([H])C(=O)C([H])(N([H])C([H])([H])[H])C([H])([H])[H])C(C([H])([H])[H])(C([H])([H])[H])C([H])([H])[H])C([H])(C(=O)N([H])C2([H])c4c([H])c([H])c([H])c([H])c4C([H])([H])C([H])([H])C2([H])[H])C3([H])[H])c(OC([H])([H])[H])c1[H]

$$$$
20:0:0
     RDKit          3D

 94102  0  0  1  0  0  0  0  0999 V2000
  -30.3500  -21.7050   19.9240 C   0  0  0  0  0  0  0  0  0  0  0  0
  -29.4620  -24.0330   20.0030 C   0  0  0  0  0  0  0  0  0  0  0  0
  -29.3440  -22.6470   20.0140 N   0  0  0  0  0  0  0  0  0  0  0  0
  -31.5290  -22.0320   19.7480 O   0  0  0  0  0  0  0  0  0  0  0  0
  -30.5530  -24.6130   20.0510 O   0  0  0  0  0  0  0  0  0  0  0  0
  -28.4070  -22.2780   20.0510 H   0  0  0  0  0  0  0  0  0  0  0  0
  -29.3320  -19.5020   20.9480 C   0  0  0  0  0  3  0  0  0  0  0  0
  -30.8660  -19.3140   19.1150 C   0  0  0  0  0  3  0  0  0  0  0  0
  -30.1150  -20.1730   19.9710 C   0  0  0  0  0  0  0  0  0  0  0  0
  -30.1180  -17.2220   20.2330 C   0  0  0  0  0  0  0  0  0  0  0  0
  -29.3340  -18.0740   21.0680 C   0  0  0  0  0  0  0  0  0  0  0  0
  -30.8660  -17.8900   19.2240 C   0  0  0  0  0  0  0  0  0  0  0  0
  -28.5700  -17.5020   22.0310 F   0  0  0  0  0  0  0  0  0  0  0  0
  -31.5810  -17.1810   18.3190 F   0  0  0  0  0  0  0  0  0  0  0  0
  -30.7940  -14.7110   19.9590 C   0  0  0  0  0  0  0  0  0  0  0  0
  -30.5230  -12.4810   18.8860 C   0  0  0  0  0  2  0  0  0  0  0  0
  -29.4930  -12.6220   17.7440 C   0  0  0  0  0  2  0  0  0  0  0  0
  -28.0580  -12.4410   18.2760 C   0  0  0  0  0  2  0  0  0  0  0  0
  -27.7840  -13.2790   19.5540 C   0  0  0  0  0  3  0  0  0  0  0  0
  -28.9230  -13.1180   20.5860 C   0  0  0  0  0  2  0  0  0  0  0  0
  -30.1820  -13.4820   19.9190 N   0  0  0  0  0  0  0  0  0  0  0  0
  -31.9300  -14.8600   19.5040 O   0  0  0  0  0  0  0  0  0  0  0  0
  -30.0310  -15.7610   20.4100 N   0  0  0  0  0  0  0  0  0  0  0  0
  -29.2100  -15.4720   20.9170 H   0  0  0  0  0  0  0  0  0  0  0  0
  -25.4620  -13.8520   20.4880 C   0  0  0  0  0  0  0  0  0  0  0  0
  -24.4200  -13.0660   20.9030 C   0  0  0  0  0  0  0  0  0  0  0  0
  -24.8670  -11.7160   20.7680 C   0  0  0  0  0  0  0  0  0  0  0  0
  -26.4760  -12.9790   20.1300 N   0  0  0  0  0  0  0  0  0  0  0  0
  -26.1290  -11.6870   20.3570 N   0  0  0  0  0  0  0  0  0  0  0  0
  -24.1460  -10.4490   20.9520 C   0  0  0  0  0  0  0  0  0  0  0  0
  -24.5710   -9.4870   21.8930 C   0  0  0  0  0  3  0  0  0  0  0  0
  -23.8510   -8.2850   22.0650 C   0  0  0  0  0  3  0  0  0  0  0  0
  -22.6910   -8.0370   21.2920 C   0  0  0  0  0  0  0  0  0  0  0  0
  -22.2840   -8.9890   20.3410 C   0  0  0  0  0  3  0  0  0  0  0  0
  -23.0050  -10.1820   20.1680 C   0  0  0  0  0  3  0  0  0  0  0  0
  -21.9410   -6.8880   21.3730 O   0  0  0  0  0  0  0  0  0  0  0  0
  -21.7810   -6.2140   22.5560 C   0  0  0  0  0  0  0  0  0  0  0  0
  -21.1920   -6.8240   23.6860 C   0  0  0  0  0  3  0  0  0  0  0  0
  -20.9830   -6.0750   24.8610 C   0  0  0  0  0  3  0  0  0  0  0  0
  -21.3520   -4.7160   24.9060 C   0  0  0  0  0  0  0  0  0  0  0  0
  -21.9340   -4.1070   23.7810 C   0  0  0  0  0  3  0  0  0  0  0  0
  -22.1450   -4.8540   22.6090 C   0  0  0  0  0  0  0  0  0  0  0  0
  -22.6860   -4.2570   21.5200 F   0  0  0  0  0  0  0  0  0  0  0  0
  -21.1450   -3.9940   26.0320 F   0  0  0  0  0  0  0  0  0  0  0  0
  -23.0540  -13.5360   21.3090 C   0  0  0  0  0  0  0  0  0  0  0  0
  -22.4010  -12.8160   22.2140 N   0  0  0  0  0  0  0  0  0  0  0  0
  -22.5760  -14.5770   20.8590 O   0  0  0  0  0  0  0  0  0  0  0  0
  -22.8020  -11.9740   22.5980 H   0  0  0  0  0  0  0  0  0  0  0  0
  -21.4870  -13.1130   22.5290 H   0  0  0  0  0  0  0  0  0  0  0  0
  -25.6220  -15.2280   20.3650 N   0  0  0  0  0  0  0  0  0  0  0  0
  -24.8660  -15.8750   20.5620 H   0  0  0  0  0  0  0  0  0  0  0  0
  -26.4420  -15.6830   19.9850 H   0  0  0  0  0  0  0  0  0  0  0  0
  -28.1910  -24.9700   19.9080 C   0  0  0  0  0  2  0  0  0  0  0  0
  -28.4270  -26.4440   20.0310 O   0  0  0  0  0  0  0  0  0  0  0  0
  -24.6480  -31.7660   23.1790 C   0  0  0  0  0  0  0  0  0  0  0  0
  -27.3070  -27.3000   20.0060 C   0  0  0  0  0  0  0  0  0  0  0  0
  -23.4680  -30.4140   21.4880 C   0  0  0  0  0  3  0  0  0  0  0  0
  -24.9370  -28.9150   20.0300 C   0  0  0  0  0  0  0  0  0  0  0  0
  -26.0090  -30.7450   21.3380 C   0  0  0  0  0  2  0  0  0  0  0  0
  -26.1010  -29.3860   20.6480 C   0  0  0  0  0  0  0  0  0  0  0  0
  -27.2910  -28.5920   20.6240 C   0  0  0  0  0  3  0  0  0  0  0  0
  -26.1130  -26.8890   19.3700 C   0  0  0  0  0  3  0  0  0  0  0  0
  -24.9460  -27.6730   19.3820 C   0  0  0  0  0  3  0  0  0  0  0  0
  -23.6980  -29.7840   20.0900 C   0  0  0  0  0  2  0  0  0  0  0  0
  -24.7270  -30.9910   22.0580 N   0  0  0  0  0  0  0  0  0  0  0  0
  -23.5570  -32.0220   23.7110 O   0  0  0  0  0  0  0  0  0  0  0  0
  -22.8010  -29.3640   22.4100 C   0  0  0  0  0  0  0  0  0  0  0  0
  -21.4740  -29.1950   22.2760 N   0  0  0  0  0  0  0  0  0  0  0  0
  -23.4770  -28.7060   23.2050 O   0  0  0  0  0  0  0  0  0  0  0  0
  -20.9880  -29.7810   21.6110 H   0  0  0  0  0  0  0  0  0  0  0  0
  -18.0820  -28.0420   22.7840 C   0  0  0  0  0  0  0  0  0  0  0  0
  -20.6500  -28.2350   23.0130 C   0  0  0  0  0  3  0  0  0  0  0  0
  -20.7090  -26.8340   22.3590 C   0  0  0  0  0  2  0  0  0  0  0  0
  -19.5800  -26.5890   21.3530 C   0  0  0  0  0  2  0  0  0  0  0  0
  -18.2140  -26.7280   22.0330 C   0  0  0  0  0  2  0  0  0  0  0  0
  -19.2250  -28.7580   23.2290 C   0  0  0  0  0  0  0  0  0  0  0  0
  -19.0450  -29.9910   23.8930 C   0  0  0  0  0  3  0  0  0  0  0  0
  -17.7540  -30.5090   24.1130 C   0  0  0  0  0  3  0  0  0  0  0  0
  -16.6260  -29.7900   23.6810 C   0  0  0  0  0  3  0  0  0  0  0  0
  -16.7900  -28.5590   23.0230 C   0  0  0  0  0  3  0  0  0  0  0  0
  -25.9210  -32.3870   23.8320 C   0  0  0  0  0  3  0  0  0  0  0  0
  -25.5980  -33.7710   24.2050 N   0  0  0  0  0  0  0  0  0  0  0  0
  -25.8870  -34.8480   23.4620 C   0  0  0  0  0  0  0  0  0  0  0  0
  -26.5220  -34.7820   22.4070 O   0  0  0  0  0  0  0  0  0  0  0  0
  -25.0290  -33.8960   25.0300 H   0  0  0  0  0  0  0  0  0  0  0  0
  -24.1020  -36.6070   23.2330 C   0  0  0  0  0  1  0  0  0  0  0  0
  -25.3920  -36.2170   23.9720 C   0  0  0  0  0  3  0  0  0  0  0  0
  -27.5410  -37.1430   24.7180 C   0  0  0  0  0  1  0  0  0  0  0  0
  -26.3940  -37.2960   23.8270 N   0  0  0  0  0  0  0  0  0  0  0  0
  -25.9730  -38.2040   24.0030 H   0  0  0  0  0  0  0  0  0  0  0  0
  -26.4300  -31.5780   25.0890 C   0  0  1  0  0  0  0  0  0  0  0  0
  -25.3290  -31.2940   26.1350 C   0  0  0  0  0  1  0  0  0  0  0  0
  -27.0320  -30.2210   24.6570 C   0  0  0  0  0  1  0  0  0  0  0  0
  -27.5640  -32.3620   25.7910 C   0  0  0  0  0  1  0  0  0  0  0  0
  1  9  1  0
  1  3  1  0
  2  3  1  0
  2  5  2  0
  3  6  1  0
  4  1  2  0
  7 11  1  0
  8 12  2  0
  8  9  1  0
  9  7  2  0
 10 23  1  0
 10 11  2  0
 11 13  1  0
 12 10  1  0
 14 12  1  0
 15 23  1  0
 16 21  1  0
 17 18  1  0
 17 16  1  0
 19 18  1  0
 19 28  1  0
 19 20  1  0
 21 15  1  0
 21 20  1  0
 22 15  2  0
 23 24  1  0
 25 26  2  0
 26 45  1  0
 27 26  1  0
 27 30  1  0
 28 29  1  0
 28 25  1  0
 29 27  2  0
 30 31  1  0
 31 32  2  0
 33 36  1  0
 33 32  1  0
 34 33  2  0
 35 34  1  0
 35 30  2  0
 36 37  1  0
 37 42  2  0
 37 38  1  0
 38 39  2  0
 39 40  1  0
 40 44  1  0
 41 40  2  0
 42 41  1  0
 43 42  1  0
 45 46  1  0
 46 49  1  0
 46 48  1  0
 47 45  2  0
 50 25  1  0
 50 51  1  0
 52 50  1  0
 53  2  1  0
 53 54  1  0
 55 66  2  0
 56 54  1  0
 56 61  1  0
 57 65  1  0
 57 67  1  0
 58 64  1  0
 58 60  1  0
 59 65  1  0
 60 59  1  0
 61 60  2  0
 62 63  1  0
 62 56  2  0
 63 58  2  0
 64 57  1  0
 65 55  1  0
 67 69  2  0
 68 67  1  0
 70 68  1  0
 71 80  2  0
 71 76  1  0
 72 68  1  0
 72 76  1  0
 73 72  1  0
 74 75  1  0
 74 73  1  0
 75 71  1  0
 76 77  2  0
 77 78  1  0
 79 78  2  0
 80 79  1  0
 81 55  1  0
 81 82  1  0
 81 91  1  0
 82 85  1  0
 83 87  1  0
 83 82  1  0
 84 83  2  0
 87 86  1  0
 89 87  1  0
 89 90  1  0
 89 88  1  0
 91 94  1  1
 91 92  1  0
 93 91  1  0
M  ISO  4  15 100  23 100  53 101  54 101
M  END
>  <TORSDO>  (21) 
F 18

>  <SCORE>  (21) 
-13.078

>  <name>  (21) 
20

>  <ligand_id>  (21) 
20

>  <original_smiles>  (21) 
[H]c1c([H])c([H])c2c(c1[H])C([H])([H])C([H])([H])C([H])([H])C2([H])N([H])C(=O)C1([H])N(C(=O)C([H])(N([H])C(=O)C([H])(N([H])C([H])([H])[H])C([H])([H])[H])C(C([H])([H])[H])(C([H])([H])[H])C([H])([H])[H])C([H])([H])c2c([H])c(OC([H])([H])C(=O)N([H])C(=O)c3c([H])c(F)c(N([H])C(=O)N4C([H])([H])C([H])([H])C([H])([H])C([H])(n5nc(-c6c([H])c([H])c(Oc7c([H])c([H])c(F)c([H])c7F)c([H])c6[H])c(C(=O)N([H])[H])c5N([H])[H])C4([H])[H])c(F)c3[H])c([H])c([H])c2C1([H])[H]

>  <smiles>  (21) 
[H]c1c([H])c([H])c2c(c1[H])C([H])([H])C([H])([H])C([H])([H])C2([H])N([H])C(=O)C1([H])N(C(=O)C([H])(N([H])C(=O)C([H])(N([H])C([H])([H])[H])C([H])([H])[H])C(C([H])([H])[H])(C([H])([H])[H])C([H])([H])[H])C([H])([H])c2c([H])c(OC([H])([H])C(=O)N([H])C(=O)c3c([H])c(F)c(N([H])C(=O)N4C([H])([H])C([H])([H])C([H])([H])C([H])(n5nc(-c6c([H])c([H])c(Oc7c([H])c([H])c(F)c([H])c7F)c([H])c6[H])c(C(=O)N([H])[H])c5N([H])[H])C4([H])[H])c(F)c3[H])c([H])c([H])c2C1([H])[H]

$$$$
21:0:0
     RDKit          3D

 94102  0  0  1  0  0  0  0  0999 V2000
  -31.1820  -18.1350   20.1140 C   0  0  0  0  0  3  0  0  0  0  0  0
  -31.2470  -19.5570   20.2230 C   0  0  0  0  0  3  0  0  0  0  0  0
  -28.9050  -19.6510   20.7050 C   0  0  0  0  0  3  0  0  0  0  0  0
  -29.9610  -17.4160   20.2480 C   0  0  0  0  0  0  0  0  0  0  0  0
  -30.1030  -20.3650   20.4660 C   0  0  0  0  0  0  0  0  0  0  0  0
  -28.8440  -18.2320   20.6040 C   0  0  0  0  0  0  0  0  0  0  0  0
  -27.6320  -17.6480   20.7640 F   0  0  0  0  0  0  0  0  0  0  0  0
  -29.2950  -22.6660   20.2680 C   0  0  0  0  0  3  0  0  0  0  0  0
  -30.2360  -21.7940   20.5020 N   0  0  0  0  0  0  0  0  0  0  0  0
  -29.4130  -24.2260   20.2860 C   0  0  0  0  0  0  0  0  0  0  0  0
  -30.4880  -24.7810   20.5580 O   0  0  0  0  0  0  0  0  0  0  0  0
  -28.1650  -25.1130   19.9380 C   0  0  0  0  0  2  0  0  0  0  0  0
  -28.3620  -26.5710   20.0750 O   0  0  0  0  0  0  0  0  0  0  0  0
  -24.6070  -31.8530   23.1940 C   0  0  0  0  0  0  0  0  0  0  0  0
  -27.2220  -27.3820   20.0440 C   0  0  0  0  0  0  0  0  0  0  0  0
  -23.3960  -30.4870   21.5300 C   0  0  0  0  0  3  0  0  0  0  0  0
  -24.8440  -28.9660   20.0720 C   0  0  0  0  0  0  0  0  0  0  0  0
  -25.9310  -30.8190   21.3400 C   0  0  0  0  0  2  0  0  0  0  0  0
  -26.0110  -29.4550   20.6700 C   0  0  0  0  0  0  0  0  0  0  0  0
  -27.2030  -28.6760   20.6440 C   0  0  0  0  0  3  0  0  0  0  0  0
  -26.0280  -26.9360   19.4280 C   0  0  0  0  0  3  0  0  0  0  0  0
  -24.8530  -27.7110   19.4430 C   0  0  0  0  0  3  0  0  0  0  0  0
  -23.6050  -29.8350   20.1380 C   0  0  0  0  0  2  0  0  0  0  0  0
  -24.6630  -31.0680   22.0780 N   0  0  0  0  0  0  0  0  0  0  0  0
  -23.5260  -32.1210   23.7380 O   0  0  0  0  0  0  0  0  0  0  0  0
  -22.7370  -29.4520   22.4730 C   0  0  0  0  0  0  0  0  0  0  0  0
  -21.4090  -29.2880   22.3560 N   0  0  0  0  0  0  0  0  0  0  0  0
  -23.4190  -28.8000   23.2680 O   0  0  0  0  0  0  0  0  0  0  0  0
  -20.9170  -29.8660   21.6870 H   0  0  0  0  0  0  0  0  0  0  0  0
  -18.0230  -28.1280   22.8750 C   0  0  0  0  0  0  0  0  0  0  0  0
  -20.5890  -28.3410   23.1130 C   0  0  0  0  0  3  0  0  0  0  0  0
  -20.6600  -26.9260   22.4940 C   0  0  0  0  0  2  0  0  0  0  0  0
  -19.5380  -26.6490   21.4880 C   0  0  0  0  0  2  0  0  0  0  0  0
  -18.1690  -26.7960   22.1590 C   0  0  0  0  0  2  0  0  0  0  0  0
  -19.1600  -28.8610   23.3090 C   0  0  0  0  0  0  0  0  0  0  0  0
  -18.9700  -30.1090   23.9390 C   0  0  0  0  0  3  0  0  0  0  0  0
  -17.6750  -30.6250   24.1400 C   0  0  0  0  0  3  0  0  0  0  0  0
  -16.5530  -29.8890   23.7220 C   0  0  0  0  0  3  0  0  0  0  0  0
  -16.7280  -28.6420   23.0960 C   0  0  0  0  0  3  0  0  0  0  0  0
  -25.8940  -32.4710   23.8240 C   0  0  0  0  0  3  0  0  0  0  0  0
  -25.5920  -33.8660   24.1710 N   0  0  0  0  0  0  0  0  0  0  0  0
  -25.9180  -34.9250   23.4190 C   0  0  0  0  0  0  0  0  0  0  0  0
  -26.5740  -34.8300   22.3790 O   0  0  0  0  0  0  0  0  0  0  0  0
  -25.0090  -34.0150   24.9810 H   0  0  0  0  0  0  0  0  0  0  0  0
  -24.1840  -36.7210   23.1110 C   0  0  0  0  0  1  0  0  0  0  0  0
  -25.4390  -36.3100   23.8960 C   0  0  0  0  0  3  0  0  0  0  0  0
  -27.5880  -37.1900   24.6960 C   0  0  0  0  0  1  0  0  0  0  0  0
  -26.4700  -37.3650   23.7720 N   0  0  0  0  0  0  0  0  0  0  0  0
  -26.0670  -38.2830   23.9330 H   0  0  0  0  0  0  0  0  0  0  0  0
  -26.4070  -31.6810   25.0900 C   0  0  1  0  0  0  0  0  0  0  0  0
  -25.3120  -31.4360   26.1550 C   0  0  0  0  0  1  0  0  0  0  0  0
  -26.9810  -30.3050   24.6800 C   0  0  0  0  0  1  0  0  0  0  0  0
  -27.5620  -32.4590   25.7620 C   0  0  0  0  0  1  0  0  0  0  0  0
  -29.6880  -15.9660   19.7720 C   0  0  0  0  0  3  0  0  0  0  0  0
  -30.6650  -14.7450   20.0860 C   0  0  0  0  0  0  0  0  0  0  0  0
  -30.5100  -12.4020   19.2970 C   0  0  0  0  0  2  0  0  0  0  0  0
  -29.5560  -12.4070   18.0730 C   0  0  0  0  0  2  0  0  0  0  0  0
  -28.0780  -12.2780   18.5080 C   0  0  0  0  0  2  0  0  0  0  0  0
  -27.7040  -13.2290   19.6720 C   0  0  0  0  0  3  0  0  0  0  0  0
  -28.7780  -13.1960   20.7850 C   0  0  0  0  0  2  0  0  0  0  0  0
  -30.0960  -13.4970   20.2000 N   0  0  0  0  0  0  0  0  0  0  0  0
  -31.8680  -14.8700   19.8390 O   0  0  0  0  0  0  0  0  0  0  0  0
  -25.3440  -13.8930   20.4460 C   0  0  0  0  0  0  0  0  0  0  0  0
  -24.2680  -13.1430   20.8330 C   0  0  0  0  0  0  0  0  0  0  0  0
  -24.7020  -11.7830   20.7970 C   0  0  0  0  0  0  0  0  0  0  0  0
  -26.3640  -12.9860   20.1920 N   0  0  0  0  0  0  0  0  0  0  0  0
  -25.9860  -11.7150   20.4680 N   0  0  0  0  0  0  0  0  0  0  0  0
  -23.9560  -10.5370   20.9980 C   0  0  0  0  0  0  0  0  0  0  0  0
  -24.3930   -9.5570   21.9170 C   0  0  0  0  0  3  0  0  0  0  0  0
  -23.6490   -8.3730   22.1050 C   0  0  0  0  0  3  0  0  0  0  0  0
  -22.4550   -8.1620   21.3760 C   0  0  0  0  0  0  0  0  0  0  0  0
  -22.0390   -9.1310   20.4450 C   0  0  0  0  0  3  0  0  0  0  0  0
  -22.7830  -10.3070   20.2540 C   0  0  0  0  0  3  0  0  0  0  0  0
  -21.6810   -7.0330   21.4750 O   0  0  0  0  0  0  0  0  0  0  0  0
  -21.6450   -6.2840   22.6250 C   0  0  0  0  0  0  0  0  0  0  0  0
  -21.2540   -6.8390   23.8630 C   0  0  0  0  0  3  0  0  0  0  0  0
  -21.1650   -6.0180   25.0040 C   0  0  0  0  0  3  0  0  0  0  0  0
  -21.4570   -4.6440   24.9090 C   0  0  0  0  0  0  0  0  0  0  0  0
  -21.8440   -4.0900   23.6760 C   0  0  0  0  0  3  0  0  0  0  0  0
  -21.9340   -4.9080   22.5360 C   0  0  0  0  0  0  0  0  0  0  0  0
  -22.2850   -4.3650   21.3450 F   0  0  0  0  0  0  0  0  0  0  0  0
  -21.3630   -3.8540   26.0030 F   0  0  0  0  0  0  0  0  0  0  0  0
  -22.8850  -13.6490   21.1270 C   0  0  0  0  0  0  0  0  0  0  0  0
  -22.1590  -12.9700   22.0070 N   0  0  0  0  0  0  0  0  0  0  0  0
  -22.4590  -14.6810   20.6090 O   0  0  0  0  0  0  0  0  0  0  0  0
  -22.5170  -12.1360   22.4490 H   0  0  0  0  0  0  0  0  0  0  0  0
  -21.2310  -13.2890   22.2450 H   0  0  0  0  0  0  0  0  0  0  0  0
  -25.5280  -15.2620   20.2730 N   0  0  0  0  0  0  0  0  0  0  0  0
  -24.7690  -15.9140   20.4390 H   0  0  0  0  0  0  0  0  0  0  0  0
  -26.3870  -15.7290   20.0240 H   0  0  0  0  0  0  0  0  0  0  0  0
  -29.5930  -16.0700   18.3030 N   0  0  0  0  0  4  0  0  0  0  0  0
  -28.9170  -16.7610   18.0300 H   0  0  0  0  0  0  0  0  0  0  0  0
  -29.3560  -15.1890   17.8860 H   0  0  0  0  0  0  0  0  0  0  0  0
  -30.4910  -16.3430   17.9420 H   0  0  0  0  0  0  0  0  0  0  0  0
  1  2  2  0
  1  4  1  0
  2  5  1  0
  4  6  2  0
  5  9  1  0
  5  3  2  0
  6  3  1  0
  6  7  1  0
  8 10  1  0
  8  9  2  0
 10 11  2  0
 12 13  1  0
 12 10  1  0
 14 25  2  0
 15 13  1  0
 15 20  1  0
 16 24  1  0
 16 26  1  0
 17 23  1  0
 17 19  1  0
 18 24  1  0
 19 18  1  0
 20 19  2  0
 21 22  1  0
 21 15  2  0
 22 17  2  0
 23 16  1  0
 24 14  1  0
 26 28  2  0
 27 26  1  0
 29 27  1  0
 30 39  2  0
 30 35  1  0
 31 27  1  0
 31 35  1  0
 32 31  1  0
 33 34  1  0
 33 32  1  0
 34 30  1  0
 35 36  2  0
 36 37  1  0
 38 37  2  0
 39 38  1  0
 40 14  1  0
 40 41  1  0
 40 50  1  0
 41 44  1  0
 42 46  1  0
 42 41  1  0
 43 42  2  0
 46 45  1  0
 48 46  1  0
 48 49  1  0
 48 47  1  0
 50 53  1  1
 50 51  1  0
 52 50  1  0
 54 55  1  0
 54  4  1  0
 55 61  1  0
 56 61  1  0
 57 58  1  0
 57 56  1  0
 59 58  1  0
 59 66  1  0
 59 60  1  0
 61 60  1  0
 62 55  2  0
 63 64  2  0
 64 83  1  0
 65 64  1  0
 65 68  1  0
 66 63  1  0
 66 67  1  0
 67 65  2  0
 68 69  1  0
 69 70  2  0
 71 74  1  0
 71 70  1  0
 72 71  2  0
 73 72  1  0
 73 68  2  0
 74 75  1  0
 75 76  1  0
 76 77  2  0
 78 77  1  0
 78 82  1  0
 79 78  2  0
 80 75  2  0
 80 79  1  0
 81 80  1  0
 83 84  1  0
 84 87  1  0
 84 86  1  0
 85 83  2  0
 88 89  1  0
 88 63  1  0
 90 88  1  0
 91 54  1  0
 92 91  1  0
 93 91  1  0
 94 91  1  0
M  ISO  4  12 101  13 101  54 100  55 100
M  END
>  <TORSDO>  (22) 
F 21

>  <SCORE>  (22) 
-13.501

>  <name>  (22) 
21

>  <ligand_id>  (22) 
21

>  <original_smiles>  (22) 
[H]C(=Nc1c([H])c([H])c(C([H])(C(=O)N2C([H])([H])C([H])([H])C([H])([H])C([H])(n3nc(-c4c([H])c([H])c(Oc5c([H])c([H])c(F)c([H])c5F)c([H])c4[H])c(C(=O)N([H])[H])c3N([H])[H])C2([H])[H])[N+]([H])([H])[H])c(F)c1[H])C(=O)C([H])([H])Oc1c([H])c([H])c2c(c1[H])C([H])([H])N(C(=O)C([H])(N([H])C(=O)C([H])(N([H])C([H])([H])[H])C([H])([H])[H])C(C([H])([H])[H])(C([H])([H])[H])C([H])([H])[H])C([H])(C(=O)N([H])C1([H])c3c([H])c([H])c([H])c([H])c3C([H])([H])C([H])([H])C1([H])[H])C2([H])[H]

>  <smiles>  (22) 
[H]C(=Nc1c([H])c([H])c(C([H])(C(=O)N2C([H])([H])C([H])([H])C([H])([H])C([H])(n3nc(-c4c([H])c([H])c(Oc5c([H])c([H])c(F)c([H])c5F)c([H])c4[H])c(C(=O)N([H])[H])c3N([H])[H])C2([H])[H])[N+]([H])([H])[H])c(F)c1[H])C(=O)C([H])([H])Oc1c([H])c([H])c2c(c1[H])C([H])([H])N(C(=O)C([H])(N([H])C(=O)C([H])(N([H])C([H])([H])[H])C([H])([H])[H])C(C([H])([H])[H])(C([H])([H])[H])C([H])([H])[H])C([H])(C(=O)N([H])C1([H])c3c([H])c([H])c([H])c([H])c3C([H])([H])C([H])([H])C1([H])[H])C2([H])[H]

$$$$
22:0:0
     RDKit          3D

 94102  0  0  1  0  0  0  0  0999 V2000
  -28.9920  -21.9530   20.7930 C   0  0  0  0  0  0  0  0  0  0  0  0
  -30.0440  -21.1350   20.9940 N   0  0  0  0  0  0  0  0  0  0  0  0
  -27.9900  -21.6280   20.1500 O   0  0  0  0  0  0  0  0  0  0  0  0
  -30.7960  -21.5220   21.5530 H   0  0  0  0  0  0  0  0  0  0  0  0
  -29.7680  -19.0770   19.6010 C   0  0  0  0  0  3  0  0  0  0  0  0
  -30.3680  -18.9340   21.9570 C   0  0  0  0  0  3  0  0  0  0  0  0
  -29.7840  -17.6610   19.5100 C   0  0  0  0  0  0  0  0  0  0  0  0
  -30.0460  -19.7200   20.8340 C   0  0  0  0  0  0  0  0  0  0  0  0
  -30.0700  -16.8830   20.6670 C   0  0  0  0  0  0  0  0  0  0  0  0
  -30.3450  -17.5310   21.8870 C   0  0  0  0  0  0  0  0  0  0  0  0
  -29.4930  -16.9980   18.1680 C   0  0  0  0  0  1  0  0  0  0  0  0
  -30.5840  -16.8000   23.0030 F   0  0  0  0  0  0  0  0  0  0  0  0
  -30.7270  -14.5380   20.1100 C   0  0  0  0  0  0  0  0  0  0  0  0
  -30.4500  -12.4080   18.9090 C   0  0  0  0  0  2  0  0  0  0  0  0
  -29.4270  -12.6060   17.7710 C   0  0  0  0  0  2  0  0  0  0  0  0
  -27.9800  -12.4350   18.2720 C   0  0  0  0  0  2  0  0  0  0  0  0
  -27.7000  -13.2610   19.5560 C   0  0  0  0  0  3  0  0  0  0  0  0
  -28.8040  -13.0000   20.6080 C   0  0  0  0  0  2  0  0  0  0  0  0
  -30.1030  -13.3380   19.9930 N   0  0  0  0  0  0  0  0  0  0  0  0
  -31.8280  -14.7910   19.6040 O   0  0  0  0  0  0  0  0  0  0  0  0
  -29.9700  -15.4670   20.7110 N   0  0  0  0  0  0  0  0  0  0  0  0
  -29.2010  -15.1080   21.2590 H   0  0  0  0  0  0  0  0  0  0  0  0
  -25.3580  -13.8620   20.4370 C   0  0  0  0  0  0  0  0  0  0  0  0
  -24.3150  -13.0850   20.8520 C   0  0  0  0  0  0  0  0  0  0  0  0
  -24.7620  -11.7330   20.7470 C   0  0  0  0  0  0  0  0  0  0  0  0
  -26.3770  -12.9850   20.1080 N   0  0  0  0  0  0  0  0  0  0  0  0
  -26.0280  -11.6980   20.3490 N   0  0  0  0  0  0  0  0  0  0  0  0
  -24.0460  -10.4710   20.9450 C   0  0  0  0  0  0  0  0  0  0  0  0
  -24.4920   -9.5050   21.8750 C   0  0  0  0  0  3  0  0  0  0  0  0
  -23.7760   -8.3040   22.0560 C   0  0  0  0  0  3  0  0  0  0  0  0
  -22.6000   -8.0570   21.3080 C   0  0  0  0  0  0  0  0  0  0  0  0
  -22.1720   -9.0120   20.3670 C   0  0  0  0  0  3  0  0  0  0  0  0
  -22.8900  -10.2050   20.1830 C   0  0  0  0  0  3  0  0  0  0  0  0
  -21.8510   -6.9080   21.4050 O   0  0  0  0  0  0  0  0  0  0  0  0
  -21.7470   -6.2110   22.5800 C   0  0  0  0  0  0  0  0  0  0  0  0
  -21.2420   -6.8070   23.7570 C   0  0  0  0  0  3  0  0  0  0  0  0
  -21.0850   -6.0350   24.9260 C   0  0  0  0  0  3  0  0  0  0  0  0
  -21.4230   -4.6690   24.9190 C   0  0  0  0  0  0  0  0  0  0  0  0
  -21.9180   -4.0710   23.7480 C   0  0  0  0  0  3  0  0  0  0  0  0
  -22.0770   -4.8400   22.5810 C   0  0  0  0  0  0  0  0  0  0  0  0
  -22.5370   -4.2530   21.4490 F   0  0  0  0  0  0  0  0  0  0  0  0
  -21.2620   -3.9250   26.0390 F   0  0  0  0  0  0  0  0  0  0  0  0
  -22.9410  -13.5570   21.2380 C   0  0  0  0  0  0  0  0  0  0  0  0
  -22.2770  -12.8450   22.1410 N   0  0  0  0  0  0  0  0  0  0  0  0
  -22.4710  -14.5960   20.7750 O   0  0  0  0  0  0  0  0  0  0  0  0
  -22.6590  -12.0000   22.5350 H   0  0  0  0  0  0  0  0  0  0  0  0
  -21.3580  -13.1430   22.4360 H   0  0  0  0  0  0  0  0  0  0  0  0
  -25.5330  -15.2400   20.2980 N   0  0  0  0  0  0  0  0  0  0  0  0
  -24.8050  -15.9130   20.5060 H   0  0  0  0  0  0  0  0  0  0  0  0
  -26.3810  -15.6710   19.9520 H   0  0  0  0  0  0  0  0  0  0  0  0
  -29.0920  -23.3610   21.4020 C   0  0  0  0  0  2  0  0  0  0  0  0
  -28.5290  -24.4920   20.5170 C   0  0  0  0  0  2  0  0  0  0  0  0
  -28.7150  -25.8870   21.1490 C   0  0  0  0  0  2  0  0  0  0  0  0
  -28.6210  -26.8920   20.1500 O   0  0  0  0  0  0  0  0  0  0  0  0
  -24.5630  -31.8370   23.2410 C   0  0  0  0  0  0  0  0  0  0  0  0
  -27.4250  -27.5620   20.1600 C   0  0  0  0  0  0  0  0  0  0  0  0
  -23.4350  -30.4070   21.5610 C   0  0  0  0  0  3  0  0  0  0  0  0
  -24.9670  -28.9310   20.1650 C   0  0  0  0  0  0  0  0  0  0  0  0
  -25.9440  -30.8740   21.4050 C   0  0  0  0  0  2  0  0  0  0  0  0
  -26.0920  -29.5130   20.7630 C   0  0  0  0  0  0  0  0  0  0  0  0
  -27.3260  -28.8300   20.7640 C   0  0  0  0  0  3  0  0  0  0  0  0
  -26.2900  -26.9830   19.5590 C   0  0  0  0  0  3  0  0  0  0  0  0
  -25.0550  -27.6580   19.5700 C   0  0  0  0  0  3  0  0  0  0  0  0
  -23.6900  -29.7360   20.1870 C   0  0  0  0  0  2  0  0  0  0  0  0
  -24.6650  -31.0490   22.1310 N   0  0  0  0  0  0  0  0  0  0  0  0
  -23.4660  -32.0600   23.7660 O   0  0  0  0  0  0  0  0  0  0  0  0
  -22.8060  -29.3540   22.5020 C   0  0  0  0  0  0  0  0  0  0  0  0
  -21.4900  -29.1200   22.3490 N   0  0  0  0  0  0  0  0  0  0  0  0
  -23.4990  -28.7550   23.3290 O   0  0  0  0  0  0  0  0  0  0  0  0
  -20.9870  -29.6590   21.6610 H   0  0  0  0  0  0  0  0  0  0  0  0
  -18.1810  -27.7510   22.7140 C   0  0  0  0  0  0  0  0  0  0  0  0
  -20.7030  -28.1420   23.0980 C   0  0  0  0  0  3  0  0  0  0  0  0
  -20.9080  -26.7220   22.5320 C   0  0  0  0  0  2  0  0  0  0  0  0
  -19.8710  -26.3360   21.4730 C   0  0  0  0  0  2  0  0  0  0  0  0
  -18.4560  -26.4110   22.0540 C   0  0  0  0  0  2  0  0  0  0  0  0
  -19.2360  -28.5690   23.1930 C   0  0  0  0  0  0  0  0  0  0  0  0
  -18.9280  -29.8210   23.7690 C   0  0  0  0  0  3  0  0  0  0  0  0
  -17.5930  -30.2580   23.8640 C   0  0  0  0  0  3  0  0  0  0  0  0
  -16.5490  -29.4350   23.4080 C   0  0  0  0  0  3  0  0  0  0  0  0
  -16.8440  -28.1820   22.8410 C   0  0  0  0  0  3  0  0  0  0  0  0
  -25.8160  -32.5030   23.8930 C   0  0  0  0  0  3  0  0  0  0  0  0
  -26.3290  -31.7520   25.1830 C   0  0  1  0  0  0  0  0  0  0  0  0
  -25.2210  -31.4830   26.2280 C   0  0  0  0  0  1  0  0  0  0  0  0
  -26.9610  -30.3950   24.8000 C   0  0  0  0  0  1  0  0  0  0  0  0
  -27.4450  -32.5790   25.8650 C   0  0  0  0  0  1  0  0  0  0  0  0
  -25.4660  -33.8940   24.2070 N   0  0  0  0  0  0  0  0  0  0  0  0
  -25.7760  -34.9470   23.4390 C   0  0  0  0  0  0  0  0  0  0  0  0
  -26.4630  -34.8510   22.4170 O   0  0  0  0  0  0  0  0  0  0  0  0
  -24.8620  -34.0450   25.0030 H   0  0  0  0  0  0  0  0  0  0  0  0
  -23.9970  -36.6790   23.0440 C   0  0  0  0  0  1  0  0  0  0  0  0
  -25.2410  -36.3240   23.8750 C   0  0  0  0  0  3  0  0  0  0  0  0
  -27.3370  -37.2890   24.7160 C   0  0  0  0  0  1  0  0  0  0  0  0
  -26.2410  -37.4100   23.7590 N   0  0  0  0  0  0  0  0  0  0  0  0
  -25.8020  -38.3170   23.8870 H   0  0  0  0  0  0  0  0  0  0  0  0
  1  2  1  0
  1 51  1  0
  2  4  1  0
  3  1  2  0
  5  8  1  0
  7  5  2  0
  7  9  1  0
  8  2  1  0
  8  6  2  0
  9 21  1  0
  9 10  2  0
 10  6  1  0
 10 12  1  0
 11  7  1  0
 13 21  1  0
 14 19  1  0
 15 16  1  0
 15 14  1  0
 17 16  1  0
 17 26  1  0
 17 18  1  0
 19 13  1  0
 19 18  1  0
 20 13  2  0
 21 22  1  0
 23 24  2  0
 24 43  1  0
 25 24  1  0
 25 28  1  0
 26 27  1  0
 26 23  1  0
 27 25  2  0
 28 29  1  0
 29 30  2  0
 31 34  1  0
 31 30  1  0
 32 31  2  0
 33 32  1  0
 33 28  2  0
 34 35  1  0
 35 40  2  0
 35 36  1  0
 36 37  2  0
 38 37  1  0
 38 42  1  0
 39 38  2  0
 40 39  1  0
 41 40  1  0
 43 44  1  0
 44 47  1  0
 44 46  1  0
 45 43  2  0
 48 23  1  0
 48 49  1  0
 50 48  1  0
 52 53  1  0
 52 51  1  0
 54 56  1  0
 54 53  1  0
 55 66  2  0
 56 61  1  0
 57 65  1  0
 57 67  1  0
 58 64  1  0
 58 60  1  0
 59 65  1  0
 60 61  2  0
 60 59  1  0
 62 63  1  0
 62 56  2  0
 63 58  2  0
 64 57  1  0
 65 55  1  0
 67 69  2  0
 68 67  1  0
 70 68  1  0
 71 80  2  0
 71 76  1  0
 72 68  1  0
 72 76  1  0
 73 72  1  0
 74 75  1  0
 74 73  1  0
 75 71  1  0
 76 77  2  0
 77 78  1  0
 79 78  2  0
 80 79  1  0
 81 55  1  0
 81 86  1  0
 81 82  1  0
 82 85  1  1
 82 83  1  0
 84 82  1  0
 86 89  1  0
 87 91  1  0
 87 86  1  0
 88 87  2  0
 91 90  1  0
 93 91  1  0
 93 94  1  0
 93 92  1  0
M  ISO  4  13 100  21 100  53 101  54 101
M  END
>  <TORSDO>  (23) 
F 20

>  <SCORE>  (23) 
-13.346

>  <name>  (23) 
22

>  <ligand_id>  (23) 
22

>  <original_smiles>  (23) 
[H]c1c([H])c([H])c2c(c1[H])C([H])([H])C([H])([H])C([H])([H])C2([H])N([H])C(=O)C1([H])N(C(=O)C([H])(N([H])C(=O)C([H])(N([H])C([H])([H])[H])C([H])([H])[H])C(C([H])([H])[H])(C([H])([H])[H])C([H])([H])[H])C([H])([H])c2c([H])c(OC([H])([H])C([H])([H])C([H])([H])C(=O)N([H])c3c([H])c(F)c(N([H])C(=O)N4C([H])([H])C([H])([H])C([H])([H])C([H])(n5nc(-c6c([H])c([H])c(Oc7c([H])c([H])c(F)c([H])c7F)c([H])c6[H])c(C(=O)N([H])[H])c5N([H])[H])C4([H])[H])c(C([H])([H])[H])c3[H])c([H])c([H])c2C1([H])[H]

>  <smiles>  (23) 
[H]c1c([H])c([H])c2c(c1[H])C([H])([H])C([H])([H])C([H])([H])C2([H])N([H])C(=O)C1([H])N(C(=O)C([H])(N([H])C(=O)C([H])(N([H])C([H])([H])[H])C([H])([H])[H])C(C([H])([H])[H])(C([H])([H])[H])C([H])([H])[H])C([H])([H])c2c([H])c(OC([H])([H])C([H])([H])C([H])([H])C(=O)N([H])c3c([H])c(F)c(N([H])C(=O)N4C([H])([H])C([H])([H])C([H])([H])C([H])(n5nc(-c6c([H])c([H])c(Oc7c([H])c([H])c(F)c([H])c7F)c([H])c6[H])c(C(=O)N([H])[H])c5N([H])[H])C4([H])[H])c(C([H])([H])[H])c3[H])c([H])c([H])c2C1([H])[H]

$$$$
23:0:0
     RDKit          3D

 98107  0  0  1  0  0  0  0  0999 V2000
  -29.7360  -22.9040   17.5400 C   0  0  0  0  0  0  0  0  0  0  0  0
  -29.1810  -22.3550   20.3160 C   0  0  0  0  0  0  0  0  0  0  0  0
  -29.0590  -24.0200   18.3390 C   0  0  0  0  0  2  0  0  0  0  0  0
  -30.5340  -21.8650   18.3410 C   0  0  0  0  0  2  0  0  0  0  0  0
  -29.2670  -23.8900   19.8650 C   0  0  0  0  0  3  0  0  0  0  0  0
  -29.8030  -21.3930   19.5330 N   0  0  0  0  0  0  0  0  0  0  0  0
  -29.6510  -22.8560   16.3110 O   0  0  0  0  0  0  0  0  0  0  0  0
  -28.5590  -22.0620   21.3400 O   0  0  0  0  0  0  0  0  0  0  0  0
  -31.2540  -19.3750   19.9060 C   0  0  0  0  0  3  0  0  0  0  0  0
  -28.8810  -19.0270   19.8800 C   0  0  0  0  0  3  0  0  0  0  0  0
  -31.4790  -17.9730   20.0690 C   0  0  0  0  0  0  0  0  0  0  0  0
  -29.9580  -19.9530   19.8240 C   0  0  0  0  0  0  0  0  0  0  0  0
  -30.3930  -17.0420   20.1190 C   0  0  0  0  0  0  0  0  0  0  0  0
  -29.0920  -17.6170   20.0130 C   0  0  0  0  0  0  0  0  0  0  0  0
  -32.9200  -17.5060   20.2030 C   0  0  0  0  0  1  0  0  0  0  0  0
  -28.0160  -16.7960   20.0550 F   0  0  0  0  0  0  0  0  0  0  0  0
  -30.8510  -14.6390   19.4850 C   0  0  0  0  0  0  0  0  0  0  0  0
  -30.3260  -12.4940   18.3050 C   0  0  0  0  0  2  0  0  0  0  0  0
  -29.2050  -12.7210   17.2680 C   0  0  0  0  0  2  0  0  0  0  0  0
  -27.8210  -12.5350   17.9170 C   0  0  0  0  0  2  0  0  0  0  0  0
  -27.6910  -13.3220   19.2460 C   0  0  0  0  0  3  0  0  0  0  0  0
  -28.9100  -13.0960   20.1610 C   0  0  0  0  0  2  0  0  0  0  0  0
  -30.1390  -13.4530   19.4250 N   0  0  0  0  0  0  0  0  0  0  0  0
  -31.7900  -14.8160   18.7040 O   0  0  0  0  0  0  0  0  0  0  0  0
  -30.6780  -15.3360   21.7720 C   0  0  0  0  0  0  0  0  0  0  0  0
  -31.3850  -14.0670   22.2740 C   0  0  0  0  0  1  0  0  0  0  0  0
  -30.5700  -15.6060   20.4390 N   0  0  0  0  0  0  0  0  0  0  0  0
  -30.2210  -16.0920   22.6370 O   0  0  0  0  0  0  0  0  0  0  0  0
  -25.4910  -13.8930   20.4450 C   0  0  0  0  0  0  0  0  0  0  0  0
  -24.4800  -13.1100   20.9290 C   0  0  0  0  0  0  0  0  0  0  0  0
  -24.8790  -11.7580   20.6930 C   0  0  0  0  0  0  0  0  0  0  0  0
  -26.4420  -13.0200   19.9400 N   0  0  0  0  0  0  0  0  0  0  0  0
  -26.0900  -11.7240   20.1500 N   0  0  0  0  0  0  0  0  0  0  0  0
  -24.1500  -10.5000   20.8980 C   0  0  0  0  0  0  0  0  0  0  0  0
  -24.6250   -9.5040   21.7800 C   0  0  0  0  0  3  0  0  0  0  0  0
  -23.8950   -8.3110   21.9720 C   0  0  0  0  0  3  0  0  0  0  0  0
  -22.6750   -8.1070   21.2860 C   0  0  0  0  0  0  0  0  0  0  0  0
  -22.2180   -9.0910   20.3920 C   0  0  0  0  0  3  0  0  0  0  0  0
  -22.9490  -10.2750   20.1960 C   0  0  0  0  0  3  0  0  0  0  0  0
  -21.9110   -6.9690   21.3900 O   0  0  0  0  0  0  0  0  0  0  0  0
  -21.8300   -6.2630   22.5630 C   0  0  0  0  0  0  0  0  0  0  0  0
  -21.3680   -6.8550   23.7600 C   0  0  0  0  0  3  0  0  0  0  0  0
  -21.2360   -6.0730   24.9260 C   0  0  0  0  0  3  0  0  0  0  0  0
  -21.5550   -4.7020   24.8950 C   0  0  0  0  0  0  0  0  0  0  0  0
  -22.0100   -4.1110   23.7040 C   0  0  0  0  0  3  0  0  0  0  0  0
  -22.1440   -4.8890   22.5410 C   0  0  0  0  0  0  0  0  0  0  0  0
  -22.5630   -4.3100   21.3900 F   0  0  0  0  0  0  0  0  0  0  0  0
  -21.4200   -3.9510   26.0130 F   0  0  0  0  0  0  0  0  0  0  0  0
  -23.1740  -13.5890   21.4960 C   0  0  0  0  0  0  0  0  0  0  0  0
  -22.6020  -12.8400   22.4330 N   0  0  0  0  0  0  0  0  0  0  0  0
  -22.6770  -14.6580   21.1450 O   0  0  0  0  0  0  0  0  0  0  0  0
  -23.0180  -11.9730   22.7380 H   0  0  0  0  0  0  0  0  0  0  0  0
  -21.7330  -13.1410   22.8530 H   0  0  0  0  0  0  0  0  0  0  0  0
  -25.6720  -15.2690   20.3760 N   0  0  0  0  0  0  0  0  0  0  0  0
  -24.9830  -15.9220   20.7310 H   0  0  0  0  0  0  0  0  0  0  0  0
  -26.5310  -15.7290   20.0850 H   0  0  0  0  0  0  0  0  0  0  0  0
  -28.3790  -24.9800   20.6240 C   0  0  0  0  0  2  0  0  0  0  0  0
  -28.5960  -26.4260   20.3340 O   0  0  0  0  0  0  0  0  0  0  0  0
  -24.6940  -31.8370   23.1050 C   0  0  0  0  0  0  0  0  0  0  0  0
  -27.4680  -27.2560   20.2480 C   0  0  0  0  0  0  0  0  0  0  0  0
  -23.5580  -30.3720   21.4720 C   0  0  0  0  0  3  0  0  0  0  0  0
  -25.0750  -28.8160   20.1230 C   0  0  0  0  0  0  0  0  0  0  0  0
  -26.0930  -30.7410   21.3390 C   0  0  0  0  0  2  0  0  0  0  0  0
  -26.2180  -29.3480   20.7340 C   0  0  0  0  0  0  0  0  0  0  0  0
  -27.4200  -28.5810   20.7810 C   0  0  0  0  0  3  0  0  0  0  0  0
  -26.3070  -26.7820   19.5990 C   0  0  0  0  0  3  0  0  0  0  0  0
  -25.1220  -27.5390   19.5430 C   0  0  0  0  0  3  0  0  0  0  0  0
  -23.8180  -29.6630   20.1160 C   0  0  0  0  0  2  0  0  0  0  0  0
  -24.7990  -31.0030   22.0280 N   0  0  0  0  0  0  0  0  0  0  0  0
  -23.5920  -32.1060   23.6050 O   0  0  0  0  0  0  0  0  0  0  0  0
  -22.8940  -29.3670   22.4430 C   0  0  0  0  0  0  0  0  0  0  0  0
  -21.5640  -29.2060   22.3290 N   0  0  0  0  0  0  0  0  0  0  0  0
  -23.5740  -28.7340   23.2550 O   0  0  0  0  0  0  0  0  0  0  0  0
  -21.0780  -29.7720   21.6490 H   0  0  0  0  0  0  0  0  0  0  0  0
  -18.1690  -28.1030   22.9140 C   0  0  0  0  0  0  0  0  0  0  0  0
  -20.7410  -28.2810   23.1100 C   0  0  0  0  0  3  0  0  0  0  0  0
  -20.7800  -26.8550   22.5110 C   0  0  0  0  0  2  0  0  0  0  0  0
  -19.6390  -26.5820   21.5260 C   0  0  0  0  0  2  0  0  0  0  0  0
  -18.2830  -26.7590   22.2130 C   0  0  0  0  0  2  0  0  0  0  0  0
  -19.3220  -28.8250   23.3190 C   0  0  0  0  0  0  0  0  0  0  0  0
  -19.1600  -30.0850   23.9350 C   0  0  0  0  0  3  0  0  0  0  0  0
  -17.8770  -30.6220   24.1490 C   0  0  0  0  0  3  0  0  0  0  0  0
  -16.7370  -29.8970   23.7570 C   0  0  0  0  0  3  0  0  0  0  0  0
  -16.8840  -28.6400   23.1460 C   0  0  0  0  0  3  0  0  0  0  0  0
  -25.9470  -32.5100   23.7420 C   0  0  0  0  0  3  0  0  0  0  0  0
  -25.5730  -33.8810   24.1160 N   0  0  0  0  0  0  0  0  0  0  0  0
  -25.8360  -34.9710   23.3830 C   0  0  0  0  0  0  0  0  0  0  0  0
  -26.4900  -34.9320   22.3380 O   0  0  0  0  0  0  0  0  0  0  0  0
  -24.9880  -33.9820   24.9330 H   0  0  0  0  0  0  0  0  0  0  0  0
  -24.0040  -36.6760   23.1190 C   0  0  0  0  0  1  0  0  0  0  0  0
  -25.2860  -36.3190   23.8890 C   0  0  0  0  0  3  0  0  0  0  0  0
  -27.3920  -37.2970   24.6880 C   0  0  0  0  0  1  0  0  0  0  0  0
  -26.2570  -37.4300   23.7790 N   0  0  0  0  0  0  0  0  0  0  0  0
  -25.8050  -38.3210   23.9660 H   0  0  0  0  0  0  0  0  0  0  0  0
  -26.5060  -31.7270   24.9940 C   0  0  1  0  0  0  0  0  0  0  0  0
  -25.4290  -31.4020   26.0560 C   0  0  0  0  0  1  0  0  0  0  0  0
  -27.1590  -30.3940   24.5600 C   0  0  0  0  0  1  0  0  0  0  0  0
  -27.6140  -32.5610   25.6810 C   0  0  0  0  0  1  0  0  0  0  0  0
  1  3  1  0
  1  4  1  0
  2  8  2  0
  3  5  1  0
  4  6  1  0
  5  2  1  0
  5 57  1  0
  6 12  1  0
  6  2  1  0
  7  1  2  0
  9 11  1  0
 10 14  2  0
 11 13  2  0
 11 15  1  0
 12 10  1  0
 12  9  2  0
 13 27  1  0
 14 16  1  0
 14 13  1  0
 17 27  1  0
 18 23  1  0
 19 20  1  0
 19 18  1  0
 21 20  1  0
 21 32  1  0
 21 22  1  0
 23 17  1  0
 23 22  1  0
 24 17  2  0
 25 26  1  0
 25 28  2  0
 27 25  1  0
 29 30  2  0
 30 49  1  0
 31 34  1  0
 31 30  1  0
 32 33  1  0
 32 29  1  0
 33 31  2  0
 34 35  1  0
 35 36  2  0
 37 40  1  0
 37 36  1  0
 38 37  2  0
 39 38  1  0
 39 34  2  0
 40 41  1  0
 41 42  1  0
 42 43  2  0
 44 43  1  0
 44 48  1  0
 45 44  2  0
 46 41  2  0
 46 45  1  0
 47 46  1  0
 49 50  1  0
 50 52  1  0
 50 53  1  0
 51 49  2  0
 54 29  1  0
 54 55  1  0
 56 54  1  0
 58 57  1  0
 59 70  2  0
 60 58  1  0
 60 65  1  0
 61 69  1  0
 61 71  1  0
 62 64  1  0
 63 69  1  0
 64 65  2  0
 64 63  1  0
 66 60  2  0
 67 66  1  0
 67 62  2  0
 68 62  1  0
 68 61  1  0
 69 59  1  0
 71 73  2  0
 72 71  1  0
 74 72  1  0
 75 84  2  0
 75 80  1  0
 76 72  1  0
 76 80  1  0
 77 76  1  0
 78 79  1  0
 78 77  1  0
 79 75  1  0
 80 81  2  0
 81 82  1  0
 83 82  2  0
 84 83  1  0
 85 59  1  0
 85 86  1  0
 85 95  1  0
 86 89  1  0
 87 91  1  0
 87 86  1  0
 88 87  2  0
 91 90  1  0
 93 91  1  0
 93 94  1  0
 93 92  1  0
 95 98  1  1
 95 96  1  0
 97 95  1  0
M  ISO  4  17 100  27 100  57 101  58 101
M  END
>  <TORSDO>  (24) 
F 18

>  <SCORE>  (24) 
-12.698

>  <name>  (24) 
23

>  <ligand_id>  (24) 
23

>  <original_smiles>  (24) 
[H]c1c([H])c([H])c2c(c1[H])C([H])([H])C([H])([H])C([H])([H])C2([H])N([H])C(=O)C1([H])N(C(=O)C([H])(N([H])C(=O)C([H])(N([H])C([H])([H])[H])C([H])([H])[H])C(C([H])([H])[H])(C([H])([H])[H])C([H])([H])[H])C([H])([H])c2c([H])c(OC([H])([H])C3([H])C(=O)N(c4c([H])c(F)c(N(C(=O)N5C([H])([H])C([H])([H])C([H])([H])C([H])(n6nc(-c7c([H])c([H])c(Oc8c([H])c([H])c(F)c([H])c8F)c([H])c7[H])c(C(=O)N([H])[H])c6N([H])[H])C5([H])[H])C(=O)C([H])([H])[H])c(C([H])([H])[H])c4[H])C([H])([H])C(=O)C3([H])[H])c([H])c([H])c2C1([H])[H]

>  <smiles>  (24) 
[H]c1c([H])c([H])c2c(c1[H])C([H])([H])C([H])([H])C([H])([H])C2([H])N([H])C(=O)C1([H])N(C(=O)C([H])(N([H])C(=O)C([H])(N([H])C([H])([H])[H])C([H])([H])[H])C(C([H])([H])[H])(C([H])([H])[H])C([H])([H])[H])C([H])([H])c2c([H])c(OC([H])([H])C3([H])C(=O)N(c4c([H])c(F)c(N(C(=O)N5C([H])([H])C([H])([H])C([H])([H])C([H])(n6nc(-c7c([H])c([H])c(Oc8c([H])c([H])c(F)c([H])c8F)c([H])c7[H])c(C(=O)N([H])[H])c6N([H])[H])C5([H])[H])C(=O)C([H])([H])[H])c(C([H])([H])[H])c4[H])C([H])([H])C(=O)C3([H])[H])c([H])c([H])c2C1([H])[H]

$$$$
24:0:0
     RDKit          3D

 95103  0  0  1  0  0  0  0  0999 V2000
  -31.0870  -17.8950   20.2010 C   0  0  0  0  0  3  0  0  0  0  0  0
  -28.7150  -17.8790   20.5870 C   0  0  0  0  0  3  0  0  0  0  0  0
  -31.0510  -19.3220   20.0860 C   0  0  0  0  0  0  0  0  0  0  0  0
  -29.9180  -17.1350   20.4610 C   0  0  0  0  0  0  0  0  0  0  0  0
  -28.6630  -19.2980   20.4690 C   0  0  0  0  0  0  0  0  0  0  0  0
  -29.8350  -20.0650   20.2030 C   0  0  0  0  0  0  0  0  0  0  0  0
  -32.3610  -20.0540   19.8430 C   0  0  0  0  0  1  0  0  0  0  0  0
  -30.6470  -14.6450   20.2270 C   0  0  0  0  0  0  0  0  0  0  0  0
  -30.4060  -12.3940   19.2010 C   0  0  0  0  0  2  0  0  0  0  0  0
  -29.4420  -12.5170   17.9980 C   0  0  0  0  0  2  0  0  0  0  0  0
  -27.9730  -12.3870   18.4500 C   0  0  0  0  0  2  0  0  0  0  0  0
  -27.6460  -13.2730   19.6810 C   0  0  0  0  0  3  0  0  0  0  0  0
  -28.7170  -13.1080   20.7830 C   0  0  0  0  0  2  0  0  0  0  0  0
  -30.0260  -13.4250   20.1860 N   0  0  0  0  0  0  0  0  0  0  0  0
  -31.7960  -14.8000   19.8010 O   0  0  0  0  0  0  0  0  0  0  0  0
  -29.8510  -15.6830   20.6220 N   0  0  0  0  0  0  0  0  0  0  0  0
  -28.9670  -15.3510   20.9780 H   0  0  0  0  0  0  0  0  0  0  0  0
  -25.2830  -13.9270   20.4580 C   0  0  0  0  0  0  0  0  0  0  0  0
  -24.2030  -13.1760   20.8370 C   0  0  0  0  0  0  0  0  0  0  0  0
  -24.6260  -11.8130   20.7690 C   0  0  0  0  0  0  0  0  0  0  0  0
  -26.2970  -13.0220   20.1860 N   0  0  0  0  0  0  0  0  0  0  0  0
  -25.9080  -11.7450   20.4310 N   0  0  0  0  0  0  0  0  0  0  0  0
  -23.8680  -10.5680   20.9480 C   0  0  0  0  0  0  0  0  0  0  0  0
  -24.3090   -9.5580   21.8320 C   0  0  0  0  0  3  0  0  0  0  0  0
  -23.5530   -8.3770   22.0020 C   0  0  0  0  0  3  0  0  0  0  0  0
  -22.3450   -8.1980   21.2870 C   0  0  0  0  0  0  0  0  0  0  0  0
  -21.9240   -9.1970   20.3910 C   0  0  0  0  0  3  0  0  0  0  0  0
  -22.6790  -10.3690   20.2200 C   0  0  0  0  0  3  0  0  0  0  0  0
  -21.5600   -7.0740   21.3690 O   0  0  0  0  0  0  0  0  0  0  0  0
  -21.5510   -6.2820   22.4890 C   0  0  0  0  0  0  0  0  0  0  0  0
  -21.2200   -6.7950   23.7620 C   0  0  0  0  0  3  0  0  0  0  0  0
  -21.1560   -5.9320   24.8740 C   0  0  0  0  0  3  0  0  0  0  0  0
  -21.4130   -4.5570   24.7150 C   0  0  0  0  0  0  0  0  0  0  0  0
  -21.7380   -4.0440   23.4470 C   0  0  0  0  0  3  0  0  0  0  0  0
  -21.8040   -4.9030   22.3370 C   0  0  0  0  0  0  0  0  0  0  0  0
  -22.0970   -4.4000   21.1140 F   0  0  0  0  0  0  0  0  0  0  0  0
  -21.3440   -3.7260   25.7810 F   0  0  0  0  0  0  0  0  0  0  0  0
  -22.8250  -13.6850   21.1480 C   0  0  0  0  0  0  0  0  0  0  0  0
  -22.0990  -12.9970   22.0210 N   0  0  0  0  0  0  0  0  0  0  0  0
  -22.4010  -14.7290   20.6510 O   0  0  0  0  0  0  0  0  0  0  0  0
  -22.4530  -12.1520   22.4450 H   0  0  0  0  0  0  0  0  0  0  0  0
  -21.1750  -13.3200   22.2720 H   0  0  0  0  0  0  0  0  0  0  0  0
  -25.4810  -15.2960   20.3000 N   0  0  0  0  0  0  0  0  0  0  0  0
  -24.7260  -15.9620   20.4190 H   0  0  0  0  0  0  0  0  0  0  0  0
  -26.3140  -15.7090   19.9030 H   0  0  0  0  0  0  0  0  0  0  0  0
  -29.0080  -22.4840   19.7060 C   0  0  0  0  0  0  0  0  0  0  0  0
  -29.8780  -21.5350   20.1760 N   0  0  0  0  0  0  0  0  0  0  0  0
  -27.9620  -22.1760   19.1310 O   0  0  0  0  0  0  0  0  0  0  0  0
  -30.7430  -21.9240   20.5200 H   0  0  0  0  0  0  0  0  0  0  0  0
  -29.3500  -24.0170   19.8780 C   0  0  0  0  0  3  0  0  0  0  0  0
  -28.2180  -25.0540   19.4730 C   0  0  0  0  0  3  0  0  0  0  0  0
  -28.3960  -26.5000   19.7260 O   0  0  0  0  0  0  0  0  0  0  0  0
  -24.5340  -31.6260   23.0100 C   0  0  0  0  0  0  0  0  0  0  0  0
  -27.2450  -27.3060   19.7170 C   0  0  0  0  0  0  0  0  0  0  0  0
  -23.3520  -30.2740   21.3160 C   0  0  0  0  0  3  0  0  0  0  0  0
  -24.8310  -28.8380   19.8060 C   0  0  0  0  0  0  0  0  0  0  0  0
  -25.8790  -30.6750   21.1270 C   0  0  0  0  0  2  0  0  0  0  0  0
  -25.9910  -29.3340   20.4140 C   0  0  0  0  0  0  0  0  0  0  0  0
  -27.1990  -28.5790   20.3620 C   0  0  0  0  0  3  0  0  0  0  0  0
  -26.0580  -26.8660   19.0830 C   0  0  0  0  0  3  0  0  0  0  0  0
  -24.8660  -27.6090   19.1320 C   0  0  0  0  0  3  0  0  0  0  0  0
  -23.5710  -29.6700   19.9040 C   0  0  0  0  0  2  0  0  0  0  0  0
  -24.6080  -30.8720   21.8750 N   0  0  0  0  0  0  0  0  0  0  0  0
  -23.4490  -31.8490   23.5660 O   0  0  0  0  0  0  0  0  0  0  0  0
  -22.7290  -29.1940   22.2310 C   0  0  0  0  0  0  0  0  0  0  0  0
  -21.4030  -29.0060   22.1270 N   0  0  0  0  0  0  0  0  0  0  0  0
  -23.4350  -28.5310   22.9960 O   0  0  0  0  0  0  0  0  0  0  0  0
  -20.8910  -29.5950   21.4840 H   0  0  0  0  0  0  0  0  0  0  0  0
  -18.0470  -27.7620   22.6570 C   0  0  0  0  0  0  0  0  0  0  0  0
  -20.6120  -28.0180   22.8630 C   0  0  0  0  0  3  0  0  0  0  0  0
  -20.7020  -26.6270   22.1960 C   0  0  0  0  0  2  0  0  0  0  0  0
  -19.5700  -26.3610   21.1990 C   0  0  0  0  0  2  0  0  0  0  0  0
  -18.2080  -26.4580   21.8940 C   0  0  0  0  0  2  0  0  0  0  0  0
  -19.1770  -28.5030   23.0980 C   0  0  0  0  0  0  0  0  0  0  0  0
  -18.9720  -29.7250   23.7730 C   0  0  0  0  0  3  0  0  0  0  0  0
  -17.6710  -30.2080   24.0120 C   0  0  0  0  0  3  0  0  0  0  0  0
  -16.5570  -29.4640   23.5860 C   0  0  0  0  0  3  0  0  0  0  0  0
  -16.7460  -28.2430   22.9140 C   0  0  0  0  0  3  0  0  0  0  0  0
  -25.8060  -32.2630   23.6500 C   0  0  0  0  0  3  0  0  0  0  0  0
  -26.3520  -31.4480   24.8860 C   0  0  1  0  0  0  0  0  0  0  0  0
  -25.2760  -31.1420   25.9540 C   0  0  0  0  0  1  0  0  0  0  0  0
  -26.9600  -30.1020   24.4290 C   0  0  0  0  0  1  0  0  0  0  0  0
  -27.4930  -32.2370   25.5700 C   0  0  0  0  0  1  0  0  0  0  0  0
  -25.4640  -33.6360   24.0450 N   0  0  0  0  0  0  0  0  0  0  0  0
  -25.7530  -34.7290   23.3270 C   0  0  0  0  0  0  0  0  0  0  0  0
  -26.4070  -34.6900   22.2820 O   0  0  0  0  0  0  0  0  0  0  0  0
  -24.8800  -33.7390   24.8630 H   0  0  0  0  0  0  0  0  0  0  0  0
  -23.9630  -36.4800   23.0880 C   0  0  0  0  0  1  0  0  0  0  0  0
  -25.2350  -36.0820   23.8530 C   0  0  0  0  0  3  0  0  0  0  0  0
  -27.3620  -37.0010   24.6680 C   0  0  0  0  0  1  0  0  0  0  0  0
  -26.2320  -37.1720   23.7580 N   0  0  0  0  0  0  0  0  0  0  0  0
  -25.8020  -38.0710   23.9510 H   0  0  0  0  0  0  0  0  0  0  0  0
  -27.4330  -19.9240   20.6620 N   0  0  0  0  0  0  0  0  0  0  0  0
  -26.6070  -19.3600   20.4970 H   0  0  0  0  0  0  0  0  0  0  0  0
  -27.3700  -20.8230   20.1800 H   0  0  0  0  0  0  0  0  0  0  0  0
  1  4  1  0
  3  1  2  0
  3  6  1  0
  4  2  2  0
  4 16  1  0
  5  2  1  0
  5 93  1  0
  6  5  2  0
  7  3  1  0
  8 16  1  0
  9 14  1  0
 10 11  1  0
 10  9  1  0
 12 11  1  0
 12 21  1  0
 12 13  1  0
 14  8  1  0
 14 13  1  0
 15  8  2  0
 16 17  1  0
 18 19  2  0
 19 38  1  0
 20 19  1  0
 20 23  1  0
 21 22  1  0
 21 18  1  0
 22 20  2  0
 23 24  1  0
 24 25  2  0
 26 29  1  0
 26 25  1  0
 27 26  2  0
 28 27  1  0
 28 23  2  0
 29 30  1  0
 30 31  1  0
 31 32  2  0
 33 32  1  0
 33 37  1  0
 34 33  2  0
 35 30  2  0
 35 34  1  0
 36 35  1  0
 38 39  1  0
 39 42  1  0
 39 41  1  0
 40 38  2  0
 43 44  1  0
 43 18  1  0
 45 43  1  0
 46 50  1  0
 46 47  1  0
 47  6  1  0
 47 49  1  0
 48 46  2  0
 51 52  1  0
 51 50  2  0
 53 64  2  0
 54 52  1  0
 54 59  1  0
 55 63  1  0
 55 65  1  0
 56 62  1  0
 56 58  1  0
 57 63  1  0
 58 57  1  0
 59 58  2  0
 60 61  1  0
 60 54  2  0
 61 56  2  0
 62 55  1  0
 63 53  1  0
 65 67  2  0
 66 65  1  0
 68 66  1  0
 69 78  2  0
 69 74  1  0
 70 66  1  0
 70 74  1  0
 71 70  1  0
 72 73  1  0
 72 71  1  0
 73 69  1  0
 74 75  2  0
 75 76  1  0
 77 76  2  0
 78 77  1  0
 79 53  1  0
 79 84  1  0
 79 80  1  0
 80 83  1  1
 80 81  1  0
 82 80  1  0
 84 87  1  0
 85 89  1  0
 85 84  1  0
 86 85  2  0
 89 88  1  0
 91 89  1  0
 91 92  1  0
 91 90  1  0
 94 93  1  0
 95 93  1  0
M  ISO  4   8 100  16 100  51 101  52 101
M  END
>  <TORSDO>  (25) 
F 20

>  <SCORE>  (25) 
-13.606

>  <name>  (25) 
24

>  <ligand_id>  (25) 
24

>  <original_smiles>  (25) 
[H]c1c([H])c([H])c2c(c1[H])C([H])([H])C([H])([H])C([H])([H])C2([H])N([H])C(=O)C1([H])N(C(=O)C([H])(N([H])C(=O)C([H])(N([H])C([H])([H])[H])C([H])([H])[H])C(C([H])([H])[H])(C([H])([H])[H])C([H])([H])[H])C([H])([H])c2c([H])c(OC([H])([H])C([H])([H])C(=O)N([H])c3c(N([H])[H])c([H])c(N([H])C(=O)N4C([H])([H])C([H])([H])C([H])([H])C([H])(n5nc(-c6c([H])c([H])c(Oc7c([H])c([H])c(F)c([H])c7F)c([H])c6[H])c(C(=O)N([H])[H])c5N([H])[H])C4([H])[H])c([H])c3C([H])([H])[H])c([H])c([H])c2C1([H])[H]

>  <smiles>  (25) 
[H]c1c([H])c([H])c2c(c1[H])C([H])([H])C([H])([H])C([H])([H])C2([H])N([H])C(=O)C1([H])N(C(=O)C([H])(N([H])C(=O)C([H])(N([H])C([H])([H])[H])C([H])([H])[H])C(C([H])([H])[H])(C([H])([H])[H])C([H])([H])[H])C([H])([H])c2c([H])c(OC([H])([H])C([H])([H])C(=O)N([H])c3c(N([H])[H])c([H])c(N([H])C(=O)N4C([H])([H])C([H])([H])C([H])([H])C([H])(n5nc(-c6c([H])c([H])c(Oc7c([H])c([H])c(F)c([H])c7F)c([H])c6[H])c(C(=O)N([H])[H])c5N([H])[H])C4([H])[H])c([H])c3C([H])([H])[H])c([H])c([H])c2C1([H])[H]

$$$$
25:0:0
     RDKit          3D

 95103  0  0  1  0  0  0  0  0999 V2000
  -30.7620  -21.1810   20.6880 C   0  0  0  0  0  0  0  0  0  0  0  0
  -29.8640  -21.9450   20.0410 N   0  0  0  0  0  0  0  0  0  0  0  0
  -31.7870  -21.6540   21.1850 O   0  0  0  0  0  0  0  0  0  0  0  0
  -29.0390  -21.4680   19.7060 H   0  0  0  0  0  0  0  0  0  0  0  0
  -30.9630  -18.9770   21.9260 C   0  0  0  0  0  3  0  0  0  0  0  0
  -30.8140  -17.5750   22.0230 C   0  0  0  0  0  3  0  0  0  0  0  0
  -29.7220  -17.5520   19.8540 C   0  0  0  0  0  3  0  0  0  0  0  0
  -30.4890  -19.6920   20.7990 C   0  0  0  0  0  0  0  0  0  0  0  0
  -30.2070  -16.8460   20.9800 C   0  0  0  0  0  0  0  0  0  0  0  0
  -29.8620  -18.9570   19.7600 C   0  0  0  0  0  0  0  0  0  0  0  0
  -29.3920  -19.5840   18.6520 F   0  0  0  0  0  0  0  0  0  0  0  0
  -30.6650  -14.4810   20.4180 C   0  0  0  0  0  0  0  0  0  0  0  0
  -30.3480  -12.3480   19.2180 C   0  0  0  0  0  2  0  0  0  0  0  0
  -29.3870  -12.5850   18.0330 C   0  0  0  0  0  2  0  0  0  0  0  0
  -27.9180  -12.4450   18.4830 C   0  0  0  0  0  2  0  0  0  0  0  0
  -27.6060  -13.2550   19.7700 C   0  0  0  0  0  3  0  0  0  0  0  0
  -28.6750  -12.9920   20.8540 C   0  0  0  0  0  2  0  0  0  0  0  0
  -29.9960  -13.3030   20.2800 N   0  0  0  0  0  0  0  0  0  0  0  0
  -31.7590  -14.6990   19.8880 O   0  0  0  0  0  0  0  0  0  0  0  0
  -30.0130  -15.4380   21.1060 N   0  0  0  0  0  0  0  0  0  0  0  0
  -29.1660  -15.1400   21.5640 H   0  0  0  0  0  0  0  0  0  0  0  0
  -25.2130  -13.8630   20.5010 C   0  0  0  0  0  0  0  0  0  0  0  0
  -24.1470  -13.0900   20.8780 C   0  0  0  0  0  0  0  0  0  0  0  0
  -24.6070  -11.7390   20.8390 C   0  0  0  0  0  0  0  0  0  0  0  0
  -26.2550  -12.9820   20.2590 N   0  0  0  0  0  0  0  0  0  0  0  0
  -25.8940  -11.6990   20.5190 N   0  0  0  0  0  0  0  0  0  0  0  0
  -23.8820  -10.4770   21.0340 C   0  0  0  0  0  0  0  0  0  0  0  0
  -24.3270   -9.5050   21.9570 C   0  0  0  0  0  3  0  0  0  0  0  0
  -23.6030   -8.3060   22.1390 C   0  0  0  0  0  3  0  0  0  0  0  0
  -22.4210   -8.0720   21.4000 C   0  0  0  0  0  0  0  0  0  0  0  0
  -21.9930   -9.0330   20.4670 C   0  0  0  0  0  3  0  0  0  0  0  0
  -22.7180  -10.2230   20.2820 C   0  0  0  0  0  3  0  0  0  0  0  0
  -21.6670   -6.9270   21.4930 O   0  0  0  0  0  0  0  0  0  0  0  0
  -21.6390   -6.1740   22.6400 C   0  0  0  0  0  0  0  0  0  0  0  0
  -21.2330   -6.7180   23.8770 C   0  0  0  0  0  3  0  0  0  0  0  0
  -21.1520   -5.8920   25.0160 C   0  0  0  0  0  3  0  0  0  0  0  0
  -21.4670   -4.5230   24.9180 C   0  0  0  0  0  0  0  0  0  0  0  0
  -21.8680   -3.9790   23.6850 C   0  0  0  0  0  3  0  0  0  0  0  0
  -21.9510   -4.8020   22.5490 C   0  0  0  0  0  0  0  0  0  0  0  0
  -22.3150   -4.2690   21.3580 F   0  0  0  0  0  0  0  0  0  0  0  0
  -21.3830   -3.7290   26.0100 F   0  0  0  0  0  0  0  0  0  0  0  0
  -22.7530  -13.5680   21.1670 C   0  0  0  0  0  0  0  0  0  0  0  0
  -22.0340  -12.8700   22.0380 N   0  0  0  0  0  0  0  0  0  0  0  0
  -22.3100  -14.5970   20.6580 O   0  0  0  0  0  0  0  0  0  0  0  0
  -22.4040  -12.0380   22.4730 H   0  0  0  0  0  0  0  0  0  0  0  0
  -21.0990  -13.1730   22.2750 H   0  0  0  0  0  0  0  0  0  0  0  0
  -25.3780  -15.2340   20.3270 N   0  0  0  0  0  0  0  0  0  0  0  0
  -24.6170  -15.8920   20.4510 H   0  0  0  0  0  0  0  0  0  0  0  0
  -26.2310  -15.6720   20.0010 H   0  0  0  0  0  0  0  0  0  0  0  0
  -29.6460  -23.3110   18.0390 C   0  0  0  0  0  1  0  0  0  0  0  0
  -30.1180  -23.2990   19.5070 C   0  0  0  0  0  3  0  0  0  0  0  0
  -29.4720  -24.4400   20.3600 C   0  0  0  0  0  0  0  0  0  0  0  0
  -29.8710  -24.6710   21.5070 O   0  0  0  0  0  0  0  0  0  0  0  0
  -28.3080  -25.2950   19.7970 C   0  0  0  0  0  2  0  0  0  0  0  0
  -28.3800  -26.6750   20.2170 O   0  0  0  0  0  0  0  0  0  0  0  0
  -24.5840  -31.8920   23.2490 C   0  0  0  0  0  0  0  0  0  0  0  0
  -27.2110  -27.4190   20.1730 C   0  0  0  0  0  0  0  0  0  0  0  0
  -23.3740  -30.4920   21.6090 C   0  0  0  0  0  3  0  0  0  0  0  0
  -24.8210  -28.9530   20.1820 C   0  0  0  0  0  0  0  0  0  0  0  0
  -25.9030  -30.8370   21.4120 C   0  0  0  0  0  2  0  0  0  0  0  0
  -25.9820  -29.4650   20.7720 C   0  0  0  0  0  0  0  0  0  0  0  0
  -27.1780  -28.7060   20.7660 C   0  0  0  0  0  3  0  0  0  0  0  0
  -26.0270  -26.9330   19.5660 C   0  0  0  0  0  3  0  0  0  0  0  0
  -24.8400  -27.6870   19.5750 C   0  0  0  0  0  3  0  0  0  0  0  0
  -23.5800  -29.8150   20.2290 C   0  0  0  0  0  2  0  0  0  0  0  0
  -24.6380  -31.0890   22.1470 N   0  0  0  0  0  0  0  0  0  0  0  0
  -23.5030  -32.1680   23.7890 O   0  0  0  0  0  0  0  0  0  0  0  0
  -22.7200  -29.4720   22.5700 C   0  0  0  0  0  0  0  0  0  0  0  0
  -21.3960  -29.2920   22.4420 N   0  0  0  0  0  0  0  0  0  0  0  0
  -23.4020  -28.8480   23.3860 O   0  0  0  0  0  0  0  0  0  0  0  0
  -20.9070  -29.8480   21.7550 H   0  0  0  0  0  0  0  0  0  0  0  0
  -18.0170  -28.1090   22.9430 C   0  0  0  0  0  0  0  0  0  0  0  0
  -20.5760  -28.3570   23.2140 C   0  0  0  0  0  3  0  0  0  0  0  0
  -20.6740  -26.9260   22.6370 C   0  0  0  0  0  2  0  0  0  0  0  0
  -19.5690  -26.6070   21.6240 C   0  0  0  0  0  2  0  0  0  0  0  0
  -18.1890  -26.7580   22.2690 C   0  0  0  0  0  2  0  0  0  0  0  0
  -19.1390  -28.8670   23.3720 C   0  0  0  0  0  0  0  0  0  0  0  0
  -18.9260  -30.1310   23.9610 C   0  0  0  0  0  3  0  0  0  0  0  0
  -17.6230  -30.6380   24.1280 C   0  0  0  0  0  3  0  0  0  0  0  0
  -16.5150  -29.8770   23.7160 C   0  0  0  0  0  3  0  0  0  0  0  0
  -16.7140  -28.6140   23.1280 C   0  0  0  0  0  3  0  0  0  0  0  0
  -25.8720  -32.5200   23.8660 C   0  0  0  0  0  3  0  0  0  0  0  0
  -26.3890  -31.7510   25.1430 C   0  0  1  0  0  0  0  0  0  0  0  0
  -25.2980  -31.5180   26.2130 C   0  0  0  0  0  1  0  0  0  0  0  0
  -26.9690  -30.3720   24.7520 C   0  0  0  0  0  1  0  0  0  0  0  0
  -27.5420  -32.5460   25.8010 C   0  0  0  0  0  1  0  0  0  0  0  0
  -25.5670  -33.9200   24.1900 N   0  0  0  0  0  0  0  0  0  0  0  0
  -25.9040  -34.9690   23.4280 C   0  0  0  0  0  0  0  0  0  0  0  0
  -26.5740  -34.8610   22.3980 O   0  0  0  0  0  0  0  0  0  0  0  0
  -24.9720  -34.0790   24.9900 H   0  0  0  0  0  0  0  0  0  0  0  0
  -24.1830  -36.7670   23.0610 C   0  0  0  0  0  1  0  0  0  0  0  0
  -25.4180  -36.3600   23.8800 C   0  0  0  0  0  3  0  0  0  0  0  0
  -27.5530  -37.2370   24.7180 C   0  0  0  0  0  1  0  0  0  0  0  0
  -26.4550  -37.4100   23.7700 N   0  0  0  0  0  0  0  0  0  0  0  0
  -26.0520  -38.3310   23.9180 H   0  0  0  0  0  0  0  0  0  0  0  0
  1  8  1  0
  1  3  2  0
  2  1  1  0
  4  2  1  0
  5  6  1  0
  7  9  1  0
  8  5  2  0
  9 20  1  0
  9  6  2  0
 10  7  2  0
 10  8  1  0
 11 10  1  0
 12 20  1  0
 13 18  1  0
 14 15  1  0
 14 13  1  0
 16 15  1  0
 16 25  1  0
 16 17  1  0
 18 12  1  0
 18 17  1  0
 19 12  2  0
 20 21  1  0
 22 23  2  0
 23 42  1  0
 24 23  1  0
 24 27  1  0
 25 22  1  0
 25 26  1  0
 26 24  2  0
 27 28  1  0
 28 29  2  0
 30 33  1  0
 30 29  1  0
 31 30  2  0
 32 31  1  0
 32 27  2  0
 33 34  1  0
 34 35  1  0
 35 36  2  0
 37 36  1  0
 37 41  1  0
 38 37  2  0
 39 34  2  0
 39 38  1  0
 40 39  1  0
 42 43  1  0
 43 46  1  0
 43 45  1  0
 44 42  2  0
 47 48  1  0
 47 22  1  0
 49 47  1  0
 51 50  1  0
 51  2  1  0
 51 52  1  0
 52 53  2  0
 54 55  1  0
 54 52  1  0
 56 67  2  0
 57 55  1  0
 57 62  1  0
 58 66  1  0
 58 68  1  0
 59 65  1  0
 59 61  1  0
 60 66  1  0
 61 60  1  0
 62 61  2  0
 63 64  1  0
 63 57  2  0
 64 59  2  0
 65 58  1  0
 66 56  1  0
 68 70  2  0
 69 68  1  0
 71 69  1  0
 72 81  2  0
 72 77  1  0
 73 69  1  0
 73 77  1  0
 74 73  1  0
 75 76  1  0
 75 74  1  0
 76 72  1  0
 77 78  2  0
 78 79  1  0
 80 79  2  0
 81 80  1  0
 82 56  1  0
 82 87  1  0
 82 83  1  0
 83 86  1  1
 83 84  1  0
 85 83  1  0
 87 90  1  0
 88 92  1  0
 88 87  1  0
 89 88  2  0
 92 91  1  0
 94 92  1  0
 94 95  1  0
 94 93  1  0
M  ISO  4  12 100  20 100  54 101  55 101
M  END
>  <TORSDO>  (26) 
F 20

>  <SCORE>  (26) 
-14.218

>  <name>  (26) 
25

>  <ligand_id>  (26) 
25

>  <original_smiles>  (26) 
[H]c1c([H])c([H])c2c(c1[H])C([H])([H])C([H])([H])C([H])([H])C2([H])N([H])C(=O)C1([H])N(C(=O)C([H])(N([H])C(=O)C([H])(N([H])C([H])([H])[H])C([H])([H])[H])C(C([H])([H])[H])(C([H])([H])[H])C([H])([H])[H])C([H])([H])c2c([H])c(OC([H])([H])C(=O)C([H])(N([H])C(=O)c3c([H])c([H])c(N([H])C(=O)N4C([H])([H])C([H])([H])C([H])([H])C([H])(n5nc(-c6c([H])c([H])c(Oc7c([H])c([H])c(F)c([H])c7F)c([H])c6[H])c(C(=O)N([H])[H])c5N([H])[H])C4([H])[H])c([H])c3F)C([H])([H])[H])c([H])c([H])c2C1([H])[H]

>  <smiles>  (26) 
[H]c1c([H])c([H])c2c(c1[H])C([H])([H])C([H])([H])C([H])([H])C2([H])N([H])C(=O)C1([H])N(C(=O)C([H])(N([H])C(=O)C([H])(N([H])C([H])([H])[H])C([H])([H])[H])C(C([H])([H])[H])(C([H])([H])[H])C([H])([H])[H])C([H])([H])c2c([H])c(OC([H])([H])C(=O)C([H])(N([H])C(=O)c3c([H])c([H])c(N([H])C(=O)N4C([H])([H])C([H])([H])C([H])([H])C([H])(n5nc(-c6c([H])c([H])c(Oc7c([H])c([H])c(F)c([H])c7F)c([H])c6[H])c(C(=O)N([H])[H])c5N([H])[H])C4([H])[H])c([H])c3F)C([H])([H])[H])c([H])c([H])c2C1([H])[H]

$$$$
26:0:0
     RDKit          3D

 94102  0  0  1  0  0  0  0  0999 V2000
  -30.6220  -19.5650   20.2440 C   0  0  0  0  0  3  0  0  0  0  0  0
  -28.5800  -17.6840   20.3580 C   0  0  0  0  0  3  0  0  0  0  0  0
  -30.9470  -18.1590   20.3060 C   0  0  0  0  0  0  0  0  0  0  0  0
  -29.9040  -17.1660   20.3670 C   0  0  0  0  0  0  0  0  0  0  0  0
  -28.2790  -19.0720   20.3130 C   0  0  0  0  0  0  0  0  0  0  0  0
  -29.2880  -20.0600   20.2620 C   0  0  0  0  0  0  0  0  0  0  0  0
  -30.7300  -14.6530   19.9880 C   0  0  0  0  0  0  0  0  0  0  0  0
  -30.4560  -12.4040   18.9510 C   0  0  0  0  0  2  0  0  0  0  0  0
  -29.4420  -12.5220   17.7910 C   0  0  0  0  0  2  0  0  0  0  0  0
  -27.9980  -12.3690   18.3060 C   0  0  0  0  0  2  0  0  0  0  0  0
  -27.7130  -13.2410   19.5570 C   0  0  0  0  0  3  0  0  0  0  0  0
  -28.8340  -13.0870   20.6110 C   0  0  0  0  0  2  0  0  0  0  0  0
  -30.1100  -13.4290   19.9600 N   0  0  0  0  0  0  0  0  0  0  0  0
  -31.8540  -14.7850   19.4990 O   0  0  0  0  0  0  0  0  0  0  0  0
  -29.9720  -15.6920   20.4750 N   0  0  0  0  0  0  0  0  0  0  0  0
  -29.1440  -15.3110   20.9030 H   0  0  0  0  0  0  0  0  0  0  0  0
  -25.3860  -13.8610   20.4540 C   0  0  0  0  0  0  0  0  0  0  0  0
  -24.3280  -13.0960   20.8660 C   0  0  0  0  0  0  0  0  0  0  0  0
  -24.7570  -11.7380   20.7530 C   0  0  0  0  0  0  0  0  0  0  0  0
  -26.3920  -12.9690   20.1180 N   0  0  0  0  0  0  0  0  0  0  0  0
  -26.0220  -11.6850   20.3560 N   0  0  0  0  0  0  0  0  0  0  0  0
  -24.0150  -10.4850   20.9410 C   0  0  0  0  0  0  0  0  0  0  0  0
  -24.4740   -9.4810   21.8230 C   0  0  0  0  0  3  0  0  0  0  0  0
  -23.7350   -8.2910   22.0020 C   0  0  0  0  0  3  0  0  0  0  0  0
  -22.5210   -8.0990   21.2990 C   0  0  0  0  0  0  0  0  0  0  0  0
  -22.0810   -9.0910   20.4060 C   0  0  0  0  0  3  0  0  0  0  0  0
  -22.8210  -10.2720   20.2250 C   0  0  0  0  0  3  0  0  0  0  0  0
  -21.7490   -6.9660   21.3900 O   0  0  0  0  0  0  0  0  0  0  0  0
  -21.7240   -6.2020   22.5300 C   0  0  0  0  0  0  0  0  0  0  0  0
  -21.3450   -6.7400   23.7800 C   0  0  0  0  0  3  0  0  0  0  0  0
  -21.2670   -5.9030   24.9110 C   0  0  0  0  0  3  0  0  0  0  0  0
  -21.5560   -4.5300   24.7940 C   0  0  0  0  0  0  0  0  0  0  0  0
  -21.9280   -3.9920   23.5490 C   0  0  0  0  0  3  0  0  0  0  0  0
  -22.0080   -4.8260   22.4200 C   0  0  0  0  0  0  0  0  0  0  0  0
  -22.3460   -4.2980   21.2190 F   0  0  0  0  0  0  0  0  0  0  0  0
  -21.4730   -3.7240   25.8790 F   0  0  0  0  0  0  0  0  0  0  0  0
  -22.9640  -13.5910   21.2500 C   0  0  0  0  0  0  0  0  0  0  0  0
  -22.2820  -12.8790   22.1420 N   0  0  0  0  0  0  0  0  0  0  0  0
  -22.5130  -14.6420   20.7950 O   0  0  0  0  0  0  0  0  0  0  0  0
  -22.6610  -12.0310   22.5330 H   0  0  0  0  0  0  0  0  0  0  0  0
  -21.3670  -13.1900   22.4370 H   0  0  0  0  0  0  0  0  0  0  0  0
  -25.5690  -15.2330   20.3130 N   0  0  0  0  0  0  0  0  0  0  0  0
  -24.8160  -15.8910   20.4790 H   0  0  0  0  0  0  0  0  0  0  0  0
  -26.3760  -15.6610   19.8790 H   0  0  0  0  0  0  0  0  0  0  0  0
  -26.9470  -19.4860   20.3210 N   0  0  0  0  0  0  0  0  0  0  0  0
  -26.2370  -18.8650   20.6950 H   0  0  0  0  0  0  0  0  0  0  0  0
  -26.7860  -20.4640   20.5430 H   0  0  0  0  0  0  0  0  0  0  0  0
  -33.4640  -18.8640   20.4170 C   0  0  0  0  0  1  0  0  0  0  0  0
  -32.4160  -17.7420   20.3320 C   0  0  0  0  0  2  0  0  0  0  0  0
  -28.8950  -21.4180   20.3390 O   0  0  0  0  0  0  0  0  0  0  0  0
  -29.5170  -22.4890   19.5630 C   0  0  0  0  0  2  0  0  0  0  0  0
  -29.3800  -23.9840   20.1270 C   0  0  0  0  0  3  0  0  0  0  0  0
  -28.4180  -25.0260   19.4060 C   0  0  0  0  0  3  0  0  0  0  0  0
  -28.5150  -26.4630   19.7680 O   0  0  0  0  0  0  0  0  0  0  0  0
  -24.6390  -31.5970   23.0190 C   0  0  0  0  0  0  0  0  0  0  0  0
  -27.3670  -27.2740   19.7320 C   0  0  0  0  0  0  0  0  0  0  0  0
  -23.4670  -30.2520   21.3090 C   0  0  0  0  0  3  0  0  0  0  0  0
  -24.9560  -28.8180   19.8020 C   0  0  0  0  0  0  0  0  0  0  0  0
  -25.9960  -30.6470   21.1410 C   0  0  0  0  0  2  0  0  0  0  0  0
  -26.1100  -29.3060   20.4250 C   0  0  0  0  0  0  0  0  0  0  0  0
  -27.3150  -28.5460   20.3830 C   0  0  0  0  0  3  0  0  0  0  0  0
  -26.1890  -26.8460   19.0740 C   0  0  0  0  0  3  0  0  0  0  0  0
  -24.9970  -27.5940   19.1170 C   0  0  0  0  0  3  0  0  0  0  0  0
  -23.6960  -29.6540   19.8960 C   0  0  0  0  0  2  0  0  0  0  0  0
  -24.7200  -30.8470   21.8810 N   0  0  0  0  0  0  0  0  0  0  0  0
  -23.5500  -31.8190   23.5690 O   0  0  0  0  0  0  0  0  0  0  0  0
  -22.8340  -29.1720   22.2180 C   0  0  0  0  0  0  0  0  0  0  0  0
  -21.5060  -28.9950   22.1110 N   0  0  0  0  0  0  0  0  0  0  0  0
  -23.5350  -28.4980   22.9780 O   0  0  0  0  0  0  0  0  0  0  0  0
  -21.0010  -29.5930   21.4740 H   0  0  0  0  0  0  0  0  0  0  0  0
  -18.1420  -27.7730   22.6350 C   0  0  0  0  0  0  0  0  0  0  0  0
  -20.7090  -28.0050   22.8370 C   0  0  0  0  0  3  0  0  0  0  0  0
  -20.7840  -26.6200   22.1550 C   0  0  0  0  0  2  0  0  0  0  0  0
  -19.6470  -26.3750   21.1580 C   0  0  0  0  0  2  0  0  0  0  0  0
  -18.2880  -26.4760   21.8580 C   0  0  0  0  0  2  0  0  0  0  0  0
  -19.2790  -28.4990   23.0820 C   0  0  0  0  0  0  0  0  0  0  0  0
  -19.0870  -29.7160   23.7700 C   0  0  0  0  0  3  0  0  0  0  0  0
  -17.7910  -30.2070   24.0200 C   0  0  0  0  0  3  0  0  0  0  0  0
  -16.6700  -29.4770   23.5900 C   0  0  0  0  0  3  0  0  0  0  0  0
  -16.8460  -28.2630   22.9020 C   0  0  0  0  0  3  0  0  0  0  0  0
  -25.9050  -32.2290   23.6710 C   0  0  0  0  0  3  0  0  0  0  0  0
  -25.5660  -33.6060   24.0600 N   0  0  0  0  0  0  0  0  0  0  0  0
  -25.8780  -34.6970   23.3480 C   0  0  0  0  0  0  0  0  0  0  0  0
  -26.5520  -34.6530   22.3150 O   0  0  0  0  0  0  0  0  0  0  0  0
  -24.9630  -33.7110   24.8620 H   0  0  0  0  0  0  0  0  0  0  0  0
  -24.1070  -36.4640   23.0760 C   0  0  0  0  0  1  0  0  0  0  0  0
  -25.3610  -36.0540   23.8650 C   0  0  0  0  0  3  0  0  0  0  0  0
  -27.4770  -36.9560   24.7250 C   0  0  0  0  0  1  0  0  0  0  0  0
  -26.3680  -37.1340   23.7910 N   0  0  0  0  0  0  0  0  0  0  0  0
  -25.9420  -38.0390   23.9770 H   0  0  0  0  0  0  0  0  0  0  0  0
  -26.4350  -31.4170   24.9160 C   0  0  1  0  0  0  0  0  0  0  0  0
  -25.3480  -31.1220   25.9780 C   0  0  0  0  0  1  0  0  0  0  0  0
  -27.0380  -30.0640   24.4710 C   0  0  0  0  0  1  0  0  0  0  0  0
  -27.5730  -32.2030   25.6110 C   0  0  0  0  0  1  0  0  0  0  0  0
  1  6  2  0
  1  3  1  0
  2  4  1  0
  3 49  1  0
  3  4  2  0
  4 15  1  0
  5 45  1  0
  5  2  2  0
  6  5  1  0
  6 50  1  0
  7 15  1  0
  8 13  1  0
  9 10  1  0
  9  8  1  0
 11 10  1  0
 11 20  1  0
 11 12  1  0
 13  7  1  0
 13 12  1  0
 14  7  2  0
 15 16  1  0
 17 18  2  0
 18 37  1  0
 19 18  1  0
 19 22  1  0
 20 21  1  0
 20 17  1  0
 21 19  2  0
 22 23  1  0
 23 24  2  0
 25 28  1  0
 25 24  1  0
 26 25  2  0
 27 26  1  0
 27 22  2  0
 28 29  1  0
 29 30  1  0
 30 31  2  0
 32 31  1  0
 32 36  1  0
 33 32  2  0
 34 29  2  0
 34 33  1  0
 35 34  1  0
 37 38  1  0
 38 41  1  0
 38 40  1  0
 39 37  2  0
 42 17  1  0
 42 43  1  0
 44 42  1  0
 45 47  1  0
 45 46  1  0
 49 48  1  0
 51 52  1  0
 51 50  1  0
 53 54  1  0
 53 52  2  0
 55 66  2  0
 56 54  1  0
 56 61  1  0
 57 65  1  0
 57 67  1  0
 58 64  1  0
 58 60  1  0
 59 65  1  0
 60 59  1  0
 61 60  2  0
 62 63  1  0
 62 56  2  0
 63 58  2  0
 64 57  1  0
 65 55  1  0
 67 69  2  0
 68 67  1  0
 70 68  1  0
 71 80  2  0
 71 76  1  0
 72 68  1  0
 72 76  1  0
 73 72  1  0
 74 75  1  0
 74 73  1  0
 75 71  1  0
 76 77  2  0
 77 78  1  0
 79 78  2  0
 80 79  1  0
 81 55  1  0
 81 82  1  0
 81 91  1  0
 82 85  1  0
 83 87  1  0
 83 82  1  0
 84 83  2  0
 87 86  1  0
 89 87  1  0
 89 90  1  0
 89 88  1  0
 91 94  1  1
 91 92  1  0
 93 91  1  0
M  ISO  4   7 100  15 100  53 101  54 101
M  END
>  <TORSDO>  (27) 
F 22

>  <SCORE>  (27) 
-12.654

>  <name>  (27) 
26

>  <ligand_id>  (27) 
26

>  <original_smiles>  (27) 
[H]c1c([H])c([H])c2c(c1[H])C([H])([H])C([H])([H])C([H])([H])C2([H])N([H])C(=O)C1([H])N(C(=O)C([H])(N([H])C(=O)C([H])(N([H])C([H])([H])[H])C([H])([H])[H])C(C([H])([H])[H])(C([H])([H])[H])C([H])([H])[H])C([H])([H])c2c([H])c(OC([H])([H])C([H])([H])C([H])([H])Oc3c([H])c(C([H])([H])C([H])([H])[H])c(N([H])C(=O)N4C([H])([H])C([H])([H])C([H])([H])C([H])(n5nc(-c6c([H])c([H])c(Oc7c([H])c([H])c(F)c([H])c7F)c([H])c6[H])c(C(=O)N([H])[H])c5N([H])[H])C4([H])[H])c([H])c3N([H])[H])c([H])c([H])c2C1([H])[H]

>  <smiles>  (27) 
[H]c1c([H])c([H])c2c(c1[H])C([H])([H])C([H])([H])C([H])([H])C2([H])N([H])C(=O)C1([H])N(C(=O)C([H])(N([H])C(=O)C([H])(N([H])C([H])([H])[H])C([H])([H])[H])C(C([H])([H])[H])(C([H])([H])[H])C([H])([H])[H])C([H])([H])c2c([H])c(OC([H])([H])C([H])([H])C([H])([H])Oc3c([H])c(C([H])([H])C([H])([H])[H])c(N([H])C(=O)N4C([H])([H])C([H])([H])C([H])([H])C([H])(n5nc(-c6c([H])c([H])c(Oc7c([H])c([H])c(F)c([H])c7F)c([H])c6[H])c(C(=O)N([H])[H])c5N([H])[H])C4([H])[H])c([H])c3N([H])[H])c([H])c([H])c2C1([H])[H]

$$$$
27:0:0
     RDKit          3D

 99107  0  0  1  0  0  0  0  0999 V2000
  -29.2420  -20.8930   20.9680 C   0  0  0  0  0  3  0  0  0  0  0  0
  -30.3470  -19.8180   18.9050 C   0  0  0  0  0  3  0  0  0  0  0  0
  -30.7830  -18.7040   18.1640 C   0  0  0  0  0  3  0  0  0  0  0  0
  -29.7900  -18.3350   20.7530 C   0  0  0  0  0  3  0  0  0  0  0  0
  -29.8340  -19.6610   20.2140 C   0  0  0  0  0  0  0  0  0  0  0  0
  -30.2530  -17.2000   20.0260 C   0  0  0  0  0  0  0  0  0  0  0  0
  -30.7200  -17.4060   18.7010 C   0  0  0  0  0  0  0  0  0  0  0  0
  -31.0590  -16.3670   17.8990 F   0  0  0  0  0  0  0  0  0  0  0  0
  -30.9310  -14.8110   20.3320 C   0  0  0  0  0  0  0  0  0  0  0  0
  -30.6850  -12.5950   19.2990 C   0  0  0  0  0  2  0  0  0  0  0  0
  -29.7540  -12.7660   18.0810 C   0  0  0  0  0  2  0  0  0  0  0  0
  -28.2790  -12.6070   18.5020 C   0  0  0  0  0  2  0  0  0  0  0  0
  -27.9170  -13.4700   19.7420 C   0  0  0  0  0  3  0  0  0  0  0  0
  -28.9700  -13.3120   20.8630 C   0  0  0  0  0  2  0  0  0  0  0  0
  -30.2920  -13.6100   20.2890 N   0  0  0  0  0  0  0  0  0  0  0  0
  -32.1100  -14.9470   20.0000 O   0  0  0  0  0  0  0  0  0  0  0  0
  -30.1450  -15.8800   20.5970 N   0  0  0  0  0  0  0  0  0  0  0  0
  -29.2710  -15.6680   21.0520 H   0  0  0  0  0  0  0  0  0  0  0  0
  -25.5230  -14.0590   20.4760 C   0  0  0  0  0  0  0  0  0  0  0  0
  -24.4580  -13.2790   20.8370 C   0  0  0  0  0  0  0  0  0  0  0  0
  -24.9210  -11.9290   20.7800 C   0  0  0  0  0  0  0  0  0  0  0  0
  -26.5680  -13.1840   20.2230 N   0  0  0  0  0  0  0  0  0  0  0  0
  -26.2090  -11.8970   20.4660 N   0  0  0  0  0  0  0  0  0  0  0  0
  -24.1990  -10.6620   20.9530 C   0  0  0  0  0  0  0  0  0  0  0  0
  -24.6090   -9.6990   21.9020 C   0  0  0  0  0  3  0  0  0  0  0  0
  -23.8880   -8.4960   22.0600 C   0  0  0  0  0  3  0  0  0  0  0  0
  -22.7410   -8.2480   21.2680 C   0  0  0  0  0  0  0  0  0  0  0  0
  -22.3510   -9.1980   20.3080 C   0  0  0  0  0  3  0  0  0  0  0  0
  -23.0730  -10.3930   20.1490 C   0  0  0  0  0  3  0  0  0  0  0  0
  -21.9930   -7.0970   21.3340 O   0  0  0  0  0  0  0  0  0  0  0  0
  -21.8790   -6.3780   22.4960 C   0  0  0  0  0  0  0  0  0  0  0  0
  -21.3020   -6.9310   23.6610 C   0  0  0  0  0  3  0  0  0  0  0  0
  -21.1420   -6.1360   24.8120 C   0  0  0  0  0  3  0  0  0  0  0  0
  -21.5470   -4.7870   24.7990 C   0  0  0  0  0  0  0  0  0  0  0  0
  -22.1150   -4.2330   23.6390 C   0  0  0  0  0  3  0  0  0  0  0  0
  -22.2770   -5.0260   22.4890 C   0  0  0  0  0  0  0  0  0  0  0  0
  -22.8050   -4.4820   21.3660 F   0  0  0  0  0  0  0  0  0  0  0  0
  -21.3860   -4.0190   25.9030 F   0  0  0  0  0  0  0  0  0  0  0  0
  -23.0600  -13.7490   21.1200 C   0  0  0  0  0  0  0  0  0  0  0  0
  -22.3350  -13.0400   21.9800 N   0  0  0  0  0  0  0  0  0  0  0  0
  -22.6180  -14.7810   20.6160 O   0  0  0  0  0  0  0  0  0  0  0  0
  -22.7040  -12.2050   22.4090 H   0  0  0  0  0  0  0  0  0  0  0  0
  -21.3970  -13.3370   22.2100 H   0  0  0  0  0  0  0  0  0  0  0  0
  -25.6850  -15.4330   20.3220 N   0  0  0  0  0  0  0  0  0  0  0  0
  -24.9090  -16.0790   20.4230 H   0  0  0  0  0  0  0  0  0  0  0  0
  -26.5260  -15.8770   19.9770 H   0  0  0  0  0  0  0  0  0  0  0  0
  -29.9390  -22.2590   20.6940 C   0  0  0  0  0  0  0  0  0  0  0  0
  -29.4900  -24.5980   20.0700 C   0  0  0  0  0  0  0  0  0  0  0  0
  -29.1680  -23.2920   20.2700 N   0  0  0  0  0  0  0  0  0  0  0  0
  -31.1480  -22.3500   20.9290 O   0  0  0  0  0  0  0  0  0  0  0  0
  -30.5980  -25.0940   20.3060 O   0  0  0  0  0  0  0  0  0  0  0  0
  -28.2090  -23.0640   20.0630 H   0  0  0  0  0  0  0  0  0  0  0  0
  -28.4730  -25.5410   17.9560 C   0  0  0  0  0  1  0  0  0  0  0  0
  -28.3640  -25.4980   19.4930 C   0  0  0  0  0  3  0  0  0  0  0  0
  -28.4120  -26.8630   20.0030 O   0  0  0  0  0  0  0  0  0  0  0  0
  -24.6130  -31.9890   23.2480 C   0  0  0  0  0  0  0  0  0  0  0  0
  -27.2370  -27.6140   20.0100 C   0  0  0  0  0  0  0  0  0  0  0  0
  -23.3930  -30.6120   21.6010 C   0  0  0  0  0  3  0  0  0  0  0  0
  -24.8340  -29.1330   20.1110 C   0  0  0  0  0  0  0  0  0  0  0  0
  -25.9170  -30.9950   21.3670 C   0  0  0  0  0  2  0  0  0  0  0  0
  -26.0050  -29.6410   20.6870 C   0  0  0  0  0  0  0  0  0  0  0  0
  -27.2070  -28.8900   20.6340 C   0  0  0  0  0  3  0  0  0  0  0  0
  -26.0350  -27.1400   19.4290 C   0  0  0  0  0  3  0  0  0  0  0  0
  -24.8460  -27.8810   19.4820 C   0  0  0  0  0  3  0  0  0  0  0  0
  -23.5830  -29.9750   20.2020 C   0  0  0  0  0  2  0  0  0  0  0  0
  -24.6610  -31.2120   22.1290 N   0  0  0  0  0  0  0  0  0  0  0  0
  -23.5380  -32.2340   23.8130 O   0  0  0  0  0  0  0  0  0  0  0  0
  -22.7730  -29.5560   22.5460 C   0  0  0  0  0  0  0  0  0  0  0  0
  -21.4540  -29.3370   22.4200 N   0  0  0  0  0  0  0  0  0  0  0  0
  -23.4760  -28.9380   23.3500 O   0  0  0  0  0  0  0  0  0  0  0  0
  -20.9450  -29.8890   21.7440 H   0  0  0  0  0  0  0  0  0  0  0  0
  -18.1200  -28.0280   22.9000 C   0  0  0  0  0  0  0  0  0  0  0  0
  -20.6670  -28.3660   23.1800 C   0  0  0  0  0  3  0  0  0  0  0  0
  -20.8190  -26.9440   22.5930 C   0  0  0  0  0  2  0  0  0  0  0  0
  -19.7300  -26.5940   21.5740 C   0  0  0  0  0  2  0  0  0  0  0  0
  -18.3410  -26.6900   22.2140 C   0  0  0  0  0  2  0  0  0  0  0  0
  -19.2120  -28.8220   23.3380 C   0  0  0  0  0  0  0  0  0  0  0  0
  -18.9520  -30.0740   23.9370 C   0  0  0  0  0  3  0  0  0  0  0  0
  -17.6310  -30.5320   24.1020 C   0  0  0  0  0  3  0  0  0  0  0  0
  -16.5530  -29.7340   23.6810 C   0  0  0  0  0  3  0  0  0  0  0  0
  -16.7990  -28.4850   23.0850 C   0  0  0  0  0  3  0  0  0  0  0  0
  -25.9010  -32.6260   23.8550 C   0  0  0  0  0  3  0  0  0  0  0  0
  -26.4230  -31.8670   25.1360 C   0  0  1  0  0  0  0  0  0  0  0  0
  -25.3330  -31.6330   26.2080 C   0  0  0  0  0  1  0  0  0  0  0  0
  -27.0120  -30.4890   24.7550 C   0  0  0  0  0  1  0  0  0  0  0  0
  -27.5710  -32.6730   25.7900 C   0  0  0  0  0  1  0  0  0  0  0  0
  -25.5940  -34.0270   24.1710 N   0  0  0  0  0  0  0  0  0  0  0  0
  -25.9310  -35.0720   23.4020 C   0  0  0  0  0  0  0  0  0  0  0  0
  -26.6050  -34.9570   22.3740 O   0  0  0  0  0  0  0  0  0  0  0  0
  -24.9990  -34.1910   24.9690 H   0  0  0  0  0  0  0  0  0  0  0  0
  -24.2300  -36.8800   22.9970 C   0  0  0  0  0  1  0  0  0  0  0  0
  -25.4430  -36.4640   23.8450 C   0  0  0  0  0  3  0  0  0  0  0  0
  -27.5490  -37.3410   24.7510 C   0  0  0  0  0  1  0  0  0  0  0  0
  -26.4880  -37.5070   23.7620 N   0  0  0  0  0  0  0  0  0  0  0  0
  -26.0850  -38.4320   23.8830 H   0  0  0  0  0  0  0  0  0  0  0  0
  -29.2770  -20.7240   22.4310 N   0  0  0  0  0  4  0  0  0  0  0  0
  -30.2310  -20.6700   22.7400 H   0  0  0  0  0  0  0  0  0  0  0  0
  -28.7790  -19.9040   22.7180 H   0  0  0  0  0  0  0  0  0  0  0  0
  -28.8570  -21.5190   22.8760 H   0  0  0  0  0  0  0  0  0  0  0  0
  1 47  1  0
  1 96  1  0
  2  5  1  0
  3  7  1  0
  3  2  2  0
  5  4  2  0
  5  1  1  0
  6 17  1  0
  6  4  1  0
  7  6  2  0
  8  7  1  0
  9 17  1  0
 10 15  1  0
 11 12  1  0
 11 10  1  0
 13 12  1  0
 13 22  1  0
 13 14  1  0
 15  9  1  0
 15 14  1  0
 16  9  2  0
 17 18  1  0
 19 20  2  0
 20 39  1  0
 21 20  1  0
 21 24  1  0
 22 23  1  0
 22 19  1  0
 23 21  2  0
 24 25  1  0
 25 26  2  0
 27 30  1  0
 27 26  1  0
 28 27  2  0
 29 28  1  0
 29 24  2  0
 30 31  1  0
 31 32  1  0
 32 33  2  0
 34 33  1  0
 34 38  1  0
 35 34  2  0
 36 31  2  0
 36 35  1  0
 37 36  1  0
 39 40  1  0
 40 43  1  0
 40 42  1  0
 41 39  2  0
 44 45  1  0
 44 19  1  0
 46 44  1  0
 47 50  2  0
 48 49  1  0
 48 51  2  0
 49 47  1  0
 52 49  1  0
 54 53  1  0
 54 55  1  0
 54 48  1  0
 55 57  1  0
 56 67  2  0
 57 62  1  0
 58 66  1  0
 58 68  1  0
 59 65  1  0
 59 61  1  0
 60 66  1  0
 61 60  1  0
 62 61  2  0
 63 64  1  0
 63 57  2  0
 64 59  2  0
 65 58  1  0
 66 56  1  0
 68 70  2  0
 69 68  1  0
 71 69  1  0
 72 81  2  0
 72 77  1  0
 73 69  1  0
 73 77  1  0
 74 73  1  0
 75 76  1  0
 75 74  1  0
 76 72  1  0
 77 78  2  0
 78 79  1  0
 80 79  2  0
 81 80  1  0
 82 56  1  0
 82 87  1  0
 82 83  1  0
 83 86  1  1
 83 84  1  0
 85 83  1  0
 87 90  1  0
 88 92  1  0
 88 87  1  0
 89 88  2  0
 92 91  1  0
 94 92  1  0
 94 95  1  0
 94 93  1  0
 96 98  1  0
 96 97  1  0
 96 99  1  0
M  ISO  4   9 100  17 100  54 101  55 101
M  END
>  <TORSDO>  (28) 
F 20

>  <SCORE>  (28) 
-13.770

>  <name>  (28) 
27

>  <ligand_id>  (28) 
27

>  <original_smiles>  (28) 
[H]c1c([H])c([H])c2c(c1[H])C([H])([H])C([H])([H])C([H])([H])C2([H])N([H])C(=O)C1([H])N(C(=O)C([H])(N([H])C(=O)C([H])(N([H])C([H])([H])[H])C([H])([H])[H])C(C([H])([H])[H])(C([H])([H])[H])C([H])([H])[H])C([H])([H])c2c([H])c(OC([H])(C(=O)N([H])C(=O)C([H])(c3c([H])c([H])c(F)c(N([H])C(=O)N4C([H])([H])C([H])([H])C([H])([H])C([H])(n5nc(-c6c([H])c([H])c(Oc7c([H])c([H])c(F)c([H])c7F)c([H])c6[H])c(C(=O)N([H])[H])c5N([H])[H])C4([H])[H])c3[H])[N+]([H])([H])[H])C([H])([H])[H])c([H])c([H])c2C1([H])[H]

>  <smiles>  (28) 
[H]c1c([H])c([H])c2c(c1[H])C([H])([H])C([H])([H])C([H])([H])C2([H])N([H])C(=O)C1([H])N(C(=O)C([H])(N([H])C(=O)C([H])(N([H])C([H])([H])[H])C([H])([H])[H])C(C([H])([H])[H])(C([H])([H])[H])C([H])([H])[H])C([H])([H])c2c([H])c(OC([H])(C(=O)N([H])C(=O)C([H])(c3c([H])c([H])c(F)c(N([H])C(=O)N4C([H])([H])C([H])([H])C([H])([H])C([H])(n5nc(-c6c([H])c([H])c(Oc7c([H])c([H])c(F)c([H])c7F)c([H])c6[H])c(C(=O)N([H])[H])c5N([H])[H])C4([H])[H])c3[H])[N+]([H])([H])[H])C([H])([H])[H])c([H])c([H])c2C1([H])[H]

$$$$
28:0:0
     RDKit          3D

 94103  0  0  1  0  0  0  0  0999 V2000
  -29.8870  -21.1270   19.7540 C   0  0  0  0  0  0  0  0  0  0  0  0
  -28.0730  -23.3750   22.0880 C   0  0  0  0  0  2  0  0  0  0  0  0
  -28.3230  -21.9410   21.5810 C   0  0  0  0  0  2  0  0  0  0  0  0
  -29.2000  -23.5070   19.9870 C   0  0  0  0  0  2  0  0  0  0  0  0
  -28.1900  -24.2810   20.8560 C   0  0  0  0  0  3  0  0  0  0  0  0
  -29.1440  -22.0830   20.3780 N   0  0  0  0  0  0  0  0  0  0  0  0
  -30.6250  -21.4150   18.8070 O   0  0  0  0  0  0  0  0  0  0  0  0
  -28.7010  -18.8980   20.2720 C   0  0  0  0  0  3  0  0  0  0  0  0
  -28.7700  -17.5080   20.5410 C   0  0  0  0  0  3  0  0  0  0  0  0
  -31.1140  -19.0380   20.4780 C   0  0  0  0  0  3  0  0  0  0  0  0
  -29.8810  -19.6810   20.2170 C   0  0  0  0  0  0  0  0  0  0  0  0
  -30.0130  -16.8610   20.7520 C   0  0  0  0  0  0  0  0  0  0  0  0
  -31.1840  -17.6580   20.7720 C   0  0  0  0  0  0  0  0  0  0  0  0
  -32.3850  -17.1220   21.0870 F   0  0  0  0  0  0  0  0  0  0  0  0
  -30.6900  -14.5170   20.2320 C   0  0  0  0  0  0  0  0  0  0  0  0
  -30.3750  -12.3930   19.0100 C   0  0  0  0  0  2  0  0  0  0  0  0
  -29.3800  -12.6150   17.8510 C   0  0  0  0  0  2  0  0  0  0  0  0
  -27.9210  -12.4770   18.3320 C   0  0  0  0  0  2  0  0  0  0  0  0
  -27.6380  -13.2740   19.6340 C   0  0  0  0  0  3  0  0  0  0  0  0
  -28.7310  -12.9940   20.6880 C   0  0  0  0  0  2  0  0  0  0  0  0
  -30.0370  -13.3300   20.0930 N   0  0  0  0  0  0  0  0  0  0  0  0
  -31.7630  -14.7430   19.6660 O   0  0  0  0  0  0  0  0  0  0  0  0
  -30.0260  -15.4430   20.9610 N   0  0  0  0  0  0  0  0  0  0  0  0
  -29.2040  -15.0650   21.4040 H   0  0  0  0  0  0  0  0  0  0  0  0
  -25.2630  -13.8720   20.4380 C   0  0  0  0  0  0  0  0  0  0  0  0
  -24.2100  -13.0940   20.8370 C   0  0  0  0  0  0  0  0  0  0  0  0
  -24.6700  -11.7440   20.7680 C   0  0  0  0  0  0  0  0  0  0  0  0
  -26.2990  -12.9950   20.1550 N   0  0  0  0  0  0  0  0  0  0  0  0
  -25.9470  -11.7090   20.4090 N   0  0  0  0  0  0  0  0  0  0  0  0
  -23.9530  -10.4790   20.9630 C   0  0  0  0  0  0  0  0  0  0  0  0
  -24.3890   -9.5180   21.9000 C   0  0  0  0  0  3  0  0  0  0  0  0
  -23.6730   -8.3160   22.0810 C   0  0  0  0  0  3  0  0  0  0  0  0
  -22.5040   -8.0660   21.3250 C   0  0  0  0  0  0  0  0  0  0  0  0
  -22.0870   -9.0150   20.3740 C   0  0  0  0  0  3  0  0  0  0  0  0
  -22.8050  -10.2080   20.1910 C   0  0  0  0  0  3  0  0  0  0  0  0
  -21.7550   -6.9190   21.4190 O   0  0  0  0  0  0  0  0  0  0  0  0
  -21.6740   -6.2030   22.5850 C   0  0  0  0  0  0  0  0  0  0  0  0
  -21.1620   -6.7710   23.7730 C   0  0  0  0  0  3  0  0  0  0  0  0
  -21.0320   -5.9800   24.9320 C   0  0  0  0  0  3  0  0  0  0  0  0
  -21.4030   -4.6220   24.9050 C   0  0  0  0  0  0  0  0  0  0  0  0
  -21.9100   -4.0550   23.7230 C   0  0  0  0  0  3  0  0  0  0  0  0
  -22.0420   -4.8420   22.5660 C   0  0  0  0  0  0  0  0  0  0  0  0
  -22.5090   -4.2840   21.4240 F   0  0  0  0  0  0  0  0  0  0  0  0
  -21.2710   -3.8610   26.0160 F   0  0  0  0  0  0  0  0  0  0  0  0
  -22.8250  -13.5670   21.1690 C   0  0  0  0  0  0  0  0  0  0  0  0
  -22.1240  -12.8500   22.0400 N   0  0  0  0  0  0  0  0  0  0  0  0
  -22.3730  -14.6080   20.6920 O   0  0  0  0  0  0  0  0  0  0  0  0
  -22.5020  -12.0090   22.4500 H   0  0  0  0  0  0  0  0  0  0  0  0
  -21.1940  -13.1460   22.3020 H   0  0  0  0  0  0  0  0  0  0  0  0
  -25.4190  -15.2450   20.2750 N   0  0  0  0  0  0  0  0  0  0  0  0
  -24.6470  -15.8870   20.4150 H   0  0  0  0  0  0  0  0  0  0  0  0
  -26.2300  -15.6830   19.8590 H   0  0  0  0  0  0  0  0  0  0  0  0
  -28.5580  -25.7610   21.1900 C   0  0  0  0  0  2  0  0  0  0  0  0
  -28.4310  -26.6990   20.1050 O   0  0  0  0  0  0  0  0  0  0  0  0
  -24.6010  -31.8920   23.1700 C   0  0  0  0  0  0  0  0  0  0  0  0
  -27.2790  -27.4540   20.1150 C   0  0  0  0  0  0  0  0  0  0  0  0
  -23.4100  -30.4870   21.5150 C   0  0  0  0  0  3  0  0  0  0  0  0
  -24.8810  -28.9530   20.1000 C   0  0  0  0  0  0  0  0  0  0  0  0
  -25.9350  -30.8550   21.3350 C   0  0  0  0  0  2  0  0  0  0  0  0
  -26.0320  -29.4820   20.7000 C   0  0  0  0  0  0  0  0  0  0  0  0
  -27.2360  -28.7390   20.7070 C   0  0  0  0  0  3  0  0  0  0  0  0
  -26.1180  -26.9420   19.5040 C   0  0  0  0  0  3  0  0  0  0  0  0
  -24.9190  -27.6820   19.4990 C   0  0  0  0  0  3  0  0  0  0  0  0
  -23.6330  -29.8070   20.1370 C   0  0  0  0  0  2  0  0  0  0  0  0
  -24.6650  -31.0940   22.0640 N   0  0  0  0  0  0  0  0  0  0  0  0
  -23.5150  -32.1570   23.7050 O   0  0  0  0  0  0  0  0  0  0  0  0
  -22.7580  -29.4630   22.4740 C   0  0  0  0  0  0  0  0  0  0  0  0
  -21.4320  -29.2880   22.3560 N   0  0  0  0  0  0  0  0  0  0  0  0
  -23.4440  -28.8260   23.2790 O   0  0  0  0  0  0  0  0  0  0  0  0
  -20.9400  -29.8540   21.6790 H   0  0  0  0  0  0  0  0  0  0  0  0
  -18.0510  -28.1380   22.8980 C   0  0  0  0  0  0  0  0  0  0  0  0
  -20.6170  -28.3470   23.1230 C   0  0  0  0  0  3  0  0  0  0  0  0
  -20.6830  -26.9280   22.5130 C   0  0  0  0  0  2  0  0  0  0  0  0
  -19.5550  -26.6470   21.5140 C   0  0  0  0  0  2  0  0  0  0  0  0
  -18.1900  -26.8010   22.1900 C   0  0  0  0  0  2  0  0  0  0  0  0
  -19.1910  -28.8710   23.3220 C   0  0  0  0  0  0  0  0  0  0  0  0
  -19.0070  -30.1250   23.9460 C   0  0  0  0  0  3  0  0  0  0  0  0
  -17.7160  -30.6450   24.1490 C   0  0  0  0  0  3  0  0  0  0  0  0
  -16.5900  -29.9090   23.7420 C   0  0  0  0  0  3  0  0  0  0  0  0
  -16.7580  -28.6570   23.1220 C   0  0  0  0  0  3  0  0  0  0  0  0
  -25.8800  -32.5300   23.7960 C   0  0  0  0  0  3  0  0  0  0  0  0
  -25.5590  -33.9210   24.1390 N   0  0  0  0  0  0  0  0  0  0  0  0
  -25.8900  -34.9830   23.3900 C   0  0  0  0  0  0  0  0  0  0  0  0
  -26.5680  -34.8950   22.3630 O   0  0  0  0  0  0  0  0  0  0  0  0
  -24.9620  -34.0650   24.9390 H   0  0  0  0  0  0  0  0  0  0  0  0
  -24.1630  -36.7730   23.0270 C   0  0  0  0  0  1  0  0  0  0  0  0
  -25.3890  -36.3630   23.8580 C   0  0  0  0  0  3  0  0  0  0  0  0
  -27.4980  -37.2480   24.7500 C   0  0  0  0  0  1  0  0  0  0  0  0
  -26.4190  -37.4210   23.7800 N   0  0  0  0  0  0  0  0  0  0  0  0
  -26.0050  -38.3380   23.9240 H   0  0  0  0  0  0  0  0  0  0  0  0
  -26.4050  -31.7510   25.0650 C   0  0  1  0  0  0  0  0  0  0  0  0
  -25.3170  -31.4880   26.1300 C   0  0  0  0  0  1  0  0  0  0  0  0
  -27.0070  -30.3860   24.6560 C   0  0  0  0  0  1  0  0  0  0  0  0
  -27.5440  -32.5530   25.7400 C   0  0  0  0  0  1  0  0  0  0  0  0
  1 11  1  0
  1  6  1  0
  3  2  1  0
  4  6  1  0
  4  5  1  0
  5 53  1  0
  5  2  1  0
  6  3  1  0
  7  1  2  0
  8  9  1  0
  9 12  2  0
 10 13  2  0
 11  8  2  0
 11 10  1  0
 12 13  1  0
 12 23  1  0
 13 14  1  0
 15 23  1  0
 16 21  1  0
 17 18  1  0
 17 16  1  0
 19 18  1  0
 19 28  1  0
 19 20  1  0
 21 15  1  0
 21 20  1  0
 22 15  2  0
 23 24  1  0
 25 26  2  0
 26 45  1  0
 27 26  1  0
 27 30  1  0
 28 29  1  0
 28 25  1  0
 29 27  2  0
 30 31  1  0
 31 32  2  0
 33 36  1  0
 33 32  1  0
 34 33  2  0
 35 34  1  0
 35 30  2  0
 36 37  1  0
 37 38  1  0
 38 39  2  0
 40 39  1  0
 40 44  1  0
 41 40  2  0
 42 37  2  0
 42 41  1  0
 43 42  1  0
 45 46  1  0
 46 49  1  0
 46 48  1  0
 47 45  2  0
 50 51  1  0
 50 25  1  0
 52 50  1  0
 54 56  1  0
 54 53  1  0
 55 66  2  0
 56 61  1  0
 57 65  1  0
 57 67  1  0
 58 64  1  0
 58 60  1  0
 59 65  1  0
 60 61  2  0
 60 59  1  0
 62 56  2  0
 63 62  1  0
 63 58  2  0
 64 57  1  0
 65 55  1  0
 67 69  2  0
 68 67  1  0
 70 68  1  0
 71 80  2  0
 71 76  1  0
 72 68  1  0
 72 76  1  0
 73 72  1  0
 74 75  1  0
 74 73  1  0
 75 71  1  0
 76 77  2  0
 77 78  1  0
 79 78  2  0
 80 79  1  0
 81 55  1  0
 81 82  1  0
 81 91  1  0
 82 85  1  0
 83 87  1  0
 83 82  1  0
 84 83  2  0
 87 86  1  0
 89 87  1  0
 89 90  1  0
 89 88  1  0
 91 94  1  1
 91 92  1  0
 93 91  1  0
M  ISO  4  15 100  23 100  53 101  54 101
M  END
>  <TORSDO>  (29) 
F 18

>  <SCORE>  (29) 
-14.940

>  <name>  (29) 
28

>  <ligand_id>  (29) 
28

>  <original_smiles>  (29) 
[H]c1c([H])c([H])c2c(c1[H])C([H])([H])C([H])([H])C([H])([H])C2([H])N([H])C(=O)C1([H])N(C(=O)C([H])(N([H])C(=O)C([H])(N([H])C([H])([H])[H])C([H])([H])[H])C(C([H])([H])[H])(C([H])([H])[H])C([H])([H])[H])C([H])([H])c2c([H])c(OC([H])([H])C3([H])C([H])([H])N(C(=O)c4c([H])c([H])c(N([H])C(=O)N5C([H])([H])C([H])([H])C([H])([H])C([H])(n6nc(-c7c([H])c([H])c(Oc8c([H])c([H])c(F)c([H])c8F)c([H])c7[H])c(C(=O)N([H])[H])c6N([H])[H])C5([H])[H])c(F)c4[H])C([H])([H])C3([H])[H])c([H])c([H])c2C1([H])[H]

>  <smiles>  (29) 
[H]c1c([H])c([H])c2c(c1[H])C([H])([H])C([H])([H])C([H])([H])C2([H])N([H])C(=O)C1([H])N(C(=O)C([H])(N([H])C(=O)C([H])(N([H])C([H])([H])[H])C([H])([H])[H])C(C([H])([H])[H])(C([H])([H])[H])C([H])([H])[H])C([H])([H])c2c([H])c(OC([H])([H])C3([H])C([H])([H])N(C(=O)c4c([H])c([H])c(N([H])C(=O)N5C([H])([H])C([H])([H])C([H])([H])C([H])(n6nc(-c7c([H])c([H])c(Oc8c([H])c([H])c(F)c([H])c8F)c([H])c7[H])c(C(=O)N([H])[H])c6N([H])[H])C5([H])[H])c(F)c4[H])C([H])([H])C3([H])[H])c([H])c([H])c2C1([H])[H]

$$$$
29:0:0
     RDKit          3D

 94102  0  0  1  0  0  0  0  0999 V2000
  -29.4480  -20.7770   21.2410 C   0  0  0  0  0  0  0  0  0  0  0  0
  -28.8380  -23.1560   21.1150 C   0  0  0  0  0  0  0  0  0  0  0  0
  -29.2600  -21.9680   20.6170 N   0  0  0  0  0  0  0  0  0  0  0  0
  -29.2200  -20.5650   22.4380 O   0  0  0  0  0  0  0  0  0  0  0  0
  -28.5210  -23.3330   22.2960 O   0  0  0  0  0  0  0  0  0  0  0  0
  -29.4880  -21.9590   19.6360 H   0  0  0  0  0  0  0  0  0  0  0  0
  -30.5770  -19.9090   19.1380 C   0  0  0  0  0  3  0  0  0  0  0  0
  -31.0210  -18.8620   18.3180 C   0  0  0  0  0  3  0  0  0  0  0  0
  -29.8420  -18.2720   20.7830 C   0  0  0  0  0  3  0  0  0  0  0  0
  -29.9510  -19.6360   20.3710 C   0  0  0  0  0  0  0  0  0  0  0  0
  -30.8840  -17.5150   18.7080 C   0  0  0  0  0  0  0  0  0  0  0  0
  -30.3260  -17.1930   19.9850 C   0  0  0  0  0  0  0  0  0  0  0  0
  -31.3120  -16.4820   17.6790 C   0  0  0  0  0  1  0  0  0  0  0  0
  -30.9260  -14.7510   20.3170 C   0  0  0  0  0  0  0  0  0  0  0  0
  -30.6710  -12.5350   19.2860 C   0  0  0  0  0  2  0  0  0  0  0  0
  -29.7360  -12.6680   18.0640 C   0  0  0  0  0  2  0  0  0  0  0  0
  -28.2580  -12.5590   18.4830 C   0  0  0  0  0  2  0  0  0  0  0  0
  -27.9010  -13.4280   19.7180 C   0  0  0  0  0  3  0  0  0  0  0  0
  -28.9510  -13.2640   20.8380 C   0  0  0  0  0  2  0  0  0  0  0  0
  -30.2730  -13.5560   20.2660 N   0  0  0  0  0  0  0  0  0  0  0  0
  -32.1220  -14.8610   20.0440 O   0  0  0  0  0  0  0  0  0  0  0  0
  -30.1280  -15.8410   20.4600 N   0  0  0  0  0  0  0  0  0  0  0  0
  -29.2140  -15.6410   20.8320 H   0  0  0  0  0  0  0  0  0  0  0  0
  -25.4980  -14.0350   20.4050 C   0  0  0  0  0  0  0  0  0  0  0  0
  -24.4290  -13.2630   20.7720 C   0  0  0  0  0  0  0  0  0  0  0  0
  -24.8960  -11.9130   20.7650 C   0  0  0  0  0  0  0  0  0  0  0  0
  -26.5480  -13.1540   20.1940 N   0  0  0  0  0  0  0  0  0  0  0  0
  -26.1900  -11.8740   20.4730 N   0  0  0  0  0  0  0  0  0  0  0  0
  -24.1740  -10.6510   20.9650 C   0  0  0  0  0  0  0  0  0  0  0  0
  -24.5820   -9.7090   21.9360 C   0  0  0  0  0  3  0  0  0  0  0  0
  -23.8590   -8.5100   22.1190 C   0  0  0  0  0  3  0  0  0  0  0  0
  -22.7140   -8.2460   21.3310 C   0  0  0  0  0  0  0  0  0  0  0  0
  -22.3250   -9.1750   20.3500 C   0  0  0  0  0  3  0  0  0  0  0  0
  -23.0500  -10.3650   20.1640 C   0  0  0  0  0  3  0  0  0  0  0  0
  -21.9640   -7.0970   21.4230 O   0  0  0  0  0  0  0  0  0  0  0  0
  -21.8600   -6.3980   22.5980 C   0  0  0  0  0  0  0  0  0  0  0  0
  -21.3230   -6.9810   23.7660 C   0  0  0  0  0  3  0  0  0  0  0  0
  -21.1680   -6.2060   24.9330 C   0  0  0  0  0  3  0  0  0  0  0  0
  -21.5400   -4.8480   24.9320 C   0  0  0  0  0  0  0  0  0  0  0  0
  -22.0730   -4.2650   23.7680 C   0  0  0  0  0  3  0  0  0  0  0  0
  -22.2290   -5.0370   22.6030 C   0  0  0  0  0  0  0  0  0  0  0  0
  -22.7220   -4.4640   21.4790 F   0  0  0  0  0  0  0  0  0  0  0  0
  -21.3850   -4.1010   26.0490 F   0  0  0  0  0  0  0  0  0  0  0  0
  -23.0280  -13.7380   21.0210 C   0  0  0  0  0  0  0  0  0  0  0  0
  -22.2900  -13.0510   21.8870 N   0  0  0  0  0  0  0  0  0  0  0  0
  -22.5920  -14.7540   20.4830 O   0  0  0  0  0  0  0  0  0  0  0  0
  -22.6540  -12.2300   22.3460 H   0  0  0  0  0  0  0  0  0  0  0  0
  -21.3480  -13.3540   22.0950 H   0  0  0  0  0  0  0  0  0  0  0  0
  -25.6580  -15.4050   20.2120 N   0  0  0  0  0  0  0  0  0  0  0  0
  -24.8830  -16.0530   20.3090 H   0  0  0  0  0  0  0  0  0  0  0  0
  -26.4990  -15.8520   19.8710 H   0  0  0  0  0  0  0  0  0  0  0  0
  -28.7520  -24.3530   20.1280 C   0  0  0  0  0  2  0  0  0  0  0  0
  -28.4800  -25.7320   20.8010 C   0  0  0  0  0  2  0  0  0  0  0  0
  -28.4310  -26.8390   19.8790 O   0  0  0  0  0  0  0  0  0  0  0  0
  -24.5710  -31.8680   23.1520 C   0  0  0  0  0  0  0  0  0  0  0  0
  -27.2640  -27.5690   19.9160 C   0  0  0  0  0  0  0  0  0  0  0  0
  -23.3770  -30.5000   21.4720 C   0  0  0  0  0  3  0  0  0  0  0  0
  -24.8480  -29.0320   19.9880 C   0  0  0  0  0  0  0  0  0  0  0  0
  -25.8970  -30.9060   21.2730 C   0  0  0  0  0  2  0  0  0  0  0  0
  -26.0000  -29.5580   20.5850 C   0  0  0  0  0  0  0  0  0  0  0  0
  -27.2150  -28.8360   20.5420 C   0  0  0  0  0  3  0  0  0  0  0  0
  -26.0980  -27.0550   19.3150 C   0  0  0  0  0  3  0  0  0  0  0  0
  -24.8910  -27.7790   19.3490 C   0  0  0  0  0  3  0  0  0  0  0  0
  -23.5890  -29.8680   20.0690 C   0  0  0  0  0  2  0  0  0  0  0  0
  -24.6320  -31.1050   22.0230 N   0  0  0  0  0  0  0  0  0  0  0  0
  -23.4900  -32.1050   23.7070 O   0  0  0  0  0  0  0  0  0  0  0  0
  -22.7490  -29.4390   22.4030 C   0  0  0  0  0  0  0  0  0  0  0  0
  -21.4310  -29.2220   22.2610 N   0  0  0  0  0  0  0  0  0  0  0  0
  -23.4450  -28.8130   23.2080 O   0  0  0  0  0  0  0  0  0  0  0  0
  -20.9320  -29.7810   21.5820 H   0  0  0  0  0  0  0  0  0  0  0  0
  -18.0870  -27.9260   22.7060 C   0  0  0  0  0  0  0  0  0  0  0  0
  -20.6350  -28.2450   23.0010 C   0  0  0  0  0  3  0  0  0  0  0  0
  -20.7790  -26.8320   22.3900 C   0  0  0  0  0  2  0  0  0  0  0  0
  -19.6930  -26.5060   21.3610 C   0  0  0  0  0  2  0  0  0  0  0  0
  -18.3040  -26.5980   21.9990 C   0  0  0  0  0  2  0  0  0  0  0  0
  -19.1820  -28.7060   23.1620 C   0  0  0  0  0  0  0  0  0  0  0  0
  -18.9270  -29.9480   23.7840 C   0  0  0  0  0  3  0  0  0  0  0  0
  -17.6080  -30.4100   23.9530 C   0  0  0  0  0  3  0  0  0  0  0  0
  -16.5270  -29.6280   23.5120 C   0  0  0  0  0  3  0  0  0  0  0  0
  -16.7670  -28.3870   22.8940 C   0  0  0  0  0  3  0  0  0  0  0  0
  -25.8530  -32.4980   23.7830 C   0  0  0  0  0  3  0  0  0  0  0  0
  -26.3690  -31.7210   25.0560 C   0  0  1  0  0  0  0  0  0  0  0  0
  -25.2730  -31.4680   26.1180 C   0  0  0  0  0  1  0  0  0  0  0  0
  -26.9620  -30.3500   24.6560 C   0  0  0  0  0  1  0  0  0  0  0  0
  -27.5110  -32.5180   25.7300 C   0  0  0  0  0  1  0  0  0  0  0  0
  -25.5370  -33.8930   24.1200 N   0  0  0  0  0  0  0  0  0  0  0  0
  -25.8840  -34.9520   23.3770 C   0  0  0  0  0  0  0  0  0  0  0  0
  -26.5740  -34.8580   22.3580 O   0  0  0  0  0  0  0  0  0  0  0  0
  -24.9250  -34.0400   24.9100 H   0  0  0  0  0  0  0  0  0  0  0  0
  -24.1770  -36.7580   22.9870 C   0  0  0  0  0  1  0  0  0  0  0  0
  -25.3860  -36.3360   23.8370 C   0  0  0  0  0  3  0  0  0  0  0  0
  -27.4860  -37.2020   24.7660 C   0  0  0  0  0  1  0  0  0  0  0  0
  -26.4250  -37.3850   23.7780 N   0  0  0  0  0  0  0  0  0  0  0  0
  -26.0170  -38.3050   23.9200 H   0  0  0  0  0  0  0  0  0  0  0  0
  1  4  2  0
  2  5  2  0
  3  2  1  0
  3  1  1  0
  6  3  1  0
  7 10  1  0
  8 11  1  0
  8  7  2  0
 10  9  2  0
 10  1  1  0
 11 12  2  0
 12 22  1  0
 12  9  1  0
 13 11  1  0
 14 22  1  0
 15 20  1  0
 16 17  1  0
 16 15  1  0
 18 17  1  0
 18 27  1  0
 18 19  1  0
 20 14  1  0
 20 19  1  0
 21 14  2  0
 22 23  1  0
 24 25  2  0
 25 44  1  0
 26 25  1  0
 26 29  1  0
 27 24  1  0
 27 28  1  0
 28 26  2  0
 29 30  1  0
 30 31  2  0
 32 35  1  0
 32 31  1  0
 33 32  2  0
 34 33  1  0
 34 29  2  0
 35 36  1  0
 36 41  2  0
 36 37  1  0
 37 38  2  0
 39 38  1  0
 39 43  1  0
 40 39  2  0
 41 40  1  0
 42 41  1  0
 44 45  1  0
 45 48  1  0
 45 47  1  0
 46 44  2  0
 49 50  1  0
 49 24  1  0
 51 49  1  0
 52 53  1  0
 52  2  1  0
 54 56  1  0
 54 53  1  0
 55 66  2  0
 56 61  1  0
 57 65  1  0
 57 67  1  0
 58 64  1  0
 58 60  1  0
 59 65  1  0
 60 59  1  0
 61 60  2  0
 62 63  1  0
 62 56  2  0
 63 58  2  0
 64 57  1  0
 65 55  1  0
 67 69  2  0
 68 67  1  0
 70 68  1  0
 71 80  2  0
 71 76  1  0
 72 68  1  0
 72 76  1  0
 73 72  1  0
 74 75  1  0
 74 73  1  0
 75 71  1  0
 76 77  2  0
 77 78  1  0
 79 78  2  0
 80 79  1  0
 81 55  1  0
 81 86  1  0
 81 82  1  0
 82 85  1  1
 82 83  1  0
 84 82  1  0
 86 89  1  0
 87 91  1  0
 87 86  1  0
 88 87  2  0
 91 90  1  0
 93 91  1  0
 93 94  1  0
 93 92  1  0
M  ISO  4  14 100  22 100  53 101  54 101
M  END
>  <TORSDO>  (30) 
F 19

>  <SCORE>  (30) 
-13.367

>  <name>  (30) 
29

>  <ligand_id>  (30) 
29

>  <original_smiles>  (30) 
[H]c1c([H])c([H])c2c(c1[H])C([H])([H])C([H])([H])C([H])([H])C2([H])N([H])C(=O)C1([H])N(C(=O)C([H])(N([H])C(=O)C([H])(N([H])C([H])([H])[H])C([H])([H])[H])C(C([H])([H])[H])(C([H])([H])[H])C([H])([H])[H])C([H])([H])c2c([H])c(OC([H])([H])C([H])([H])C(=O)N([H])C(=O)c3c([H])c([H])c(C([H])([H])[H])c(N([H])C(=O)N4C([H])([H])C([H])([H])C([H])([H])C([H])(n5nc(-c6c([H])c([H])c(Oc7c([H])c([H])c(F)c([H])c7F)c([H])c6[H])c(C(=O)N([H])[H])c5N([H])[H])C4([H])[H])c3[H])c([H])c([H])c2C1([H])[H]

>  <smiles>  (30) 
[H]c1c([H])c([H])c2c(c1[H])C([H])([H])C([H])([H])C([H])([H])C2([H])N([H])C(=O)C1([H])N(C(=O)C([H])(N([H])C(=O)C([H])(N([H])C([H])([H])[H])C([H])([H])[H])C(C([H])([H])[H])(C([H])([H])[H])C([H])([H])[H])C([H])([H])c2c([H])c(OC([H])([H])C([H])([H])C(=O)N([H])C(=O)c3c([H])c([H])c(C([H])([H])[H])c(N([H])C(=O)N4C([H])([H])C([H])([H])C([H])([H])C([H])(n5nc(-c6c([H])c([H])c(Oc7c([H])c([H])c(F)c([H])c7F)c([H])c6[H])c(C(=O)N([H])[H])c5N([H])[H])C4([H])[H])c3[H])c([H])c([H])c2C1([H])[H]

$$$$
30:0:0
     RDKit          3D

 97106  0  0  1  0  0  0  0  0999 V2000
  -29.4340  -21.4460   21.8910 C   0  0  0  0  0  0  0  0  0  0  0  0
  -28.6680  -25.0250   22.3750 C   0  0  0  0  0  2  0  0  0  0  0  0
  -28.6910  -23.5650   22.8010 C   0  0  0  0  0  2  0  0  0  0  0  0
  -29.4120  -23.6770   20.5210 C   0  0  0  0  0  2  0  0  0  0  0  0
  -28.6680  -25.0170   20.8500 C   0  0  0  0  0  3  0  0  0  0  0  0
  -29.1560  -22.7670   21.6710 N   0  0  0  0  0  0  0  0  0  0  0  0
  -29.7370  -21.0710   23.0340 O   0  0  0  0  0  0  0  0  0  0  0  0
  -28.7050  -18.0230   19.2930 C   0  0  0  0  0  3  0  0  0  0  0  0
  -28.1470  -19.2690   18.9390 C   0  0  0  0  0  3  0  0  0  0  0  0
  -29.8100  -19.0690   21.1740 C   0  0  0  0  0  3  0  0  0  0  0  0
  -29.2480  -20.3440   20.8540 C   0  0  0  0  0  0  0  0  0  0  0  0
  -29.4980  -17.8950   20.4470 C   0  0  0  0  0  0  0  0  0  0  0  0
  -28.3530  -20.4190   19.7370 C   0  0  0  0  0  0  0  0  0  0  0  0
  -27.6060  -21.5580   19.4010 N   0  0  0  0  0  0  0  0  0  0  0  0
  -26.6970  -21.4520   18.9550 H   0  0  0  0  0  0  0  0  0  0  0  0
  -27.6280  -22.3730   20.0030 H   0  0  0  0  0  0  0  0  0  0  0  0
  -29.9050  -16.4940   20.9350 C   0  0  0  0  0  2  0  0  0  0  0  0
  -31.5090  -14.6580   20.1880 C   0  0  0  0  0  0  0  0  0  0  0  0
  -31.2050  -12.3490   19.3820 C   0  0  0  0  0  2  0  0  0  0  0  0
  -30.2830  -12.3650   18.1450 C   0  0  0  0  0  2  0  0  0  0  0  0
  -28.8010  -12.3230   18.5760 C   0  0  0  0  0  2  0  0  0  0  0  0
  -28.4540  -13.3320   19.7040 C   0  0  0  0  0  3  0  0  0  0  0  0
  -29.4960  -13.2390   20.8410 C   0  0  0  0  0  2  0  0  0  0  0  0
  -30.8070  -13.4850   20.2320 N   0  0  0  0  0  0  0  0  0  0  0  0
  -32.6860  -14.6970   19.8340 O   0  0  0  0  0  0  0  0  0  0  0  0
  -30.8230  -15.8090   20.0290 N   0  0  0  0  0  0  0  0  0  0  0  0
  -31.4020  -16.4760   19.5390 H   0  0  0  0  0  0  0  0  0  0  0  0
  -26.1000  -14.0810   20.4340 C   0  0  0  0  0  0  0  0  0  0  0  0
  -24.9740  -13.3780   20.7660 C   0  0  0  0  0  0  0  0  0  0  0  0
  -25.3360  -12.0010   20.6780 C   0  0  0  0  0  0  0  0  0  0  0  0
  -27.0840  -13.1420   20.1750 N   0  0  0  0  0  0  0  0  0  0  0  0
  -26.6220  -11.8780   20.3740 N   0  0  0  0  0  0  0  0  0  0  0  0
  -24.5130  -10.7920   20.8110 C   0  0  0  0  0  0  0  0  0  0  0  0
  -24.8480   -9.7740   21.7290 C   0  0  0  0  0  3  0  0  0  0  0  0
  -24.0350   -8.6290   21.8540 C   0  0  0  0  0  3  0  0  0  0  0  0
  -22.8720   -8.4950   21.0600 C   0  0  0  0  0  0  0  0  0  0  0  0
  -22.5530   -9.4990   20.1320 C   0  0  0  0  0  3  0  0  0  0  0  0
  -23.3650  -10.6380   20.0040 C   0  0  0  0  0  3  0  0  0  0  0  0
  -22.0360   -7.4040   21.0980 O   0  0  0  0  0  0  0  0  0  0  0  0
  -21.7970   -6.7210   22.2650 C   0  0  0  0  0  0  0  0  0  0  0  0
  -21.2590   -7.3590   23.4030 C   0  0  0  0  0  3  0  0  0  0  0  0
  -20.9630   -6.6090   24.5580 C   0  0  0  0  0  3  0  0  0  0  0  0
  -21.1980   -5.2190   24.5760 C   0  0  0  0  0  0  0  0  0  0  0  0
  -21.7300   -4.5810   23.4400 C   0  0  0  0  0  3  0  0  0  0  0  0
  -22.0260   -5.3320   22.2880 C   0  0  0  0  0  0  0  0  0  0  0  0
  -22.5190   -4.7090   21.1910 F   0  0  0  0  0  0  0  0  0  0  0  0
  -20.9080   -4.4950   25.6810 F   0  0  0  0  0  0  0  0  0  0  0  0
  -23.6180  -13.9550   21.0610 C   0  0  0  0  0  0  0  0  0  0  0  0
  -22.8600  -13.3170   21.9430 N   0  0  0  0  0  0  0  0  0  0  0  0
  -23.2430  -15.0070   20.5470 O   0  0  0  0  0  0  0  0  0  0  0  0
  -23.1760  -12.4730   22.4010 H   0  0  0  0  0  0  0  0  0  0  0  0
  -21.9510  -13.6880   22.1830 H   0  0  0  0  0  0  0  0  0  0  0  0
  -26.3550  -15.4420   20.3220 N   0  0  0  0  0  0  0  0  0  0  0  0
  -25.6230  -16.1380   20.4450 H   0  0  0  0  0  0  0  0  0  0  0  0
  -27.2400  -15.8290   20.0340 H   0  0  0  0  0  0  0  0  0  0  0  0
  -29.2410  -26.3810   20.3250 C   0  0  0  0  0  2  0  0  0  0  0  0
  -28.5570  -26.9800   19.2220 O   0  0  0  0  0  0  0  0  0  0  0  0
  -24.6650  -31.6350   23.1220 C   0  0  0  0  0  0  0  0  0  0  0  0
  -27.3920  -27.6850   19.4610 C   0  0  0  0  0  0  0  0  0  0  0  0
  -23.4790  -30.4260   21.3170 C   0  0  0  0  0  3  0  0  0  0  0  0
  -24.9550  -29.1130   19.6980 C   0  0  0  0  0  0  0  0  0  0  0  0
  -25.9920  -30.8580   21.1530 C   0  0  0  0  0  2  0  0  0  0  0  0
  -26.1080  -29.5820   20.3410 C   0  0  0  0  0  0  0  0  0  0  0  0
  -27.3310  -28.8760   20.2260 C   0  0  0  0  0  3  0  0  0  0  0  0
  -26.2250  -27.2360   18.8150 C   0  0  0  0  0  3  0  0  0  0  0  0
  -25.0090  -27.9390   18.9290 C   0  0  0  0  0  3  0  0  0  0  0  0
  -23.6970  -29.9350   19.8570 C   0  0  0  0  0  2  0  0  0  0  0  0
  -24.7280  -30.9900   21.9210 N   0  0  0  0  0  0  0  0  0  0  0  0
  -23.5870  -31.7990   23.7070 O   0  0  0  0  0  0  0  0  0  0  0  0
  -22.8730  -29.2700   22.1420 C   0  0  0  0  0  0  0  0  0  0  0  0
  -21.5440  -29.0760   22.0270 N   0  0  0  0  0  0  0  0  0  0  0  0
  -23.5900  -28.5530   22.8400 O   0  0  0  0  0  0  0  0  0  0  0  0
  -21.0360  -29.7020   21.4170 H   0  0  0  0  0  0  0  0  0  0  0  0
  -18.2270  -27.6770   22.3650 C   0  0  0  0  0  0  0  0  0  0  0  0
  -20.7690  -28.0220   22.6810 C   0  0  0  0  0  3  0  0  0  0  0  0
  -20.9320  -26.6670   21.9620 C   0  0  0  0  0  2  0  0  0  0  0  0
  -19.8500  -26.3820   20.9170 C   0  0  0  0  0  2  0  0  0  0  0  0
  -18.4670  -26.4120   21.5660 C   0  0  0  0  0  2  0  0  0  0  0  0
  -19.3080  -28.4300   22.8980 C   0  0  0  0  0  0  0  0  0  0  0  0
  -19.0280  -29.5990   23.6380 C   0  0  0  0  0  3  0  0  0  0  0  0
  -17.7010  -30.0130   23.8540 C   0  0  0  0  0  3  0  0  0  0  0  0
  -16.6330  -29.2550   23.3270 C   0  0  0  0  0  3  0  0  0  0  0  0
  -16.9040  -28.0910   22.5930 C   0  0  0  0  0  3  0  0  0  0  0  0
  -25.9390  -32.2100   23.8060 C   0  0  0  0  0  3  0  0  0  0  0  0
  -26.4430  -31.3460   25.0320 C   0  0  1  0  0  0  0  0  0  0  0  0
  -25.3310  -31.0370   26.0590 C   0  0  0  0  0  1  0  0  0  0  0  0
  -27.0250  -29.9970   24.5510 C   0  0  0  0  0  1  0  0  0  0  0  0
  -27.5820  -32.0810   25.7750 C   0  0  0  0  0  1  0  0  0  0  0  0
  -25.6250  -33.5820   24.2270 N   0  0  0  0  0  0  0  0  0  0  0  0
  -25.9660  -34.6830   23.5420 C   0  0  0  0  0  0  0  0  0  0  0  0
  -26.6450  -34.6470   22.5130 O   0  0  0  0  0  0  0  0  0  0  0  0
  -25.0180  -33.6850   25.0260 H   0  0  0  0  0  0  0  0  0  0  0  0
  -24.2320  -36.4950   23.2960 C   0  0  0  0  0  1  0  0  0  0  0  0
  -25.4710  -36.0390   24.0860 C   0  0  0  0  0  3  0  0  0  0  0  0
  -27.6060  -36.8780   24.9650 C   0  0  0  0  0  1  0  0  0  0  0  0
  -26.4990  -37.1010   24.0390 N   0  0  0  0  0  0  0  0  0  0  0  0
  -26.0940  -38.0100   24.2410 H   0  0  0  0  0  0  0  0  0  0  0  0
  1  7  2  0
  2  3  1  0
  4  5  1  0
  4  6  1  0
  5 56  1  0
  5  2  1  0
  6  1  1  0
  6  3  1  0
  8 12  1  0
  9  8  2  0
  9 13  1  0
 11 10  1  0
 11  1  1  0
 12 17  1  0
 12 10  2  0
 13 11  2  0
 14 13  1  0
 14 16  1  0
 15 14  1  0
 18 24  1  0
 19 24  1  0
 20 21  1  0
 20 19  1  0
 22 21  1  0
 22 31  1  0
 22 23  1  0
 24 23  1  0
 25 18  2  0
 26 18  1  0
 26 17  1  0
 27 26  1  0
 28 29  2  0
 29 48  1  0
 30 29  1  0
 30 33  1  0
 31 32  1  0
 31 28  1  0
 32 30  2  0
 33 34  1  0
 34 35  2  0
 36 39  1  0
 36 35  1  0
 37 36  2  0
 38 37  1  0
 38 33  2  0
 39 40  1  0
 40 45  2  0
 40 41  1  0
 41 42  2  0
 42 43  1  0
 43 47  1  0
 44 43  2  0
 45 44  1  0
 46 45  1  0
 48 49  1  0
 49 52  1  0
 49 51  1  0
 50 48  2  0
 53 28  1  0
 53 54  1  0
 55 53  1  0
 57 59  1  0
 57 56  1  0
 58 69  2  0
 59 64  1  0
 60 68  1  0
 60 70  1  0
 61 67  1  0
 61 63  1  0
 62 68  1  0
 63 62  1  0
 64 63  2  0
 65 66  1  0
 65 59  2  0
 66 61  2  0
 67 60  1  0
 68 58  1  0
 70 72  2  0
 71 70  1  0
 73 71  1  0
 74 83  2  0
 74 79  1  0
 75 71  1  0
 75 79  1  0
 76 75  1  0
 77 78  1  0
 77 76  1  0
 78 74  1  0
 79 80  2  0
 80 81  1  0
 82 81  2  0
 83 82  1  0
 84 58  1  0
 84 89  1  0
 84 85  1  0
 85 88  1  1
 85 86  1  0
 87 85  1  0
 89 92  1  0
 90 94  1  0
 90 89  1  0
 91 90  2  0
 94 93  1  0
 96 94  1  0
 96 97  1  0
 96 95  1  0
M  ISO  4  18 100  26 100  56 101  57 101
M  END
>  <TORSDO>  (31) 
F 20

>  <SCORE>  (31) 
-12.338

>  <name>  (31) 
30

>  <ligand_id>  (31) 
30

>  <original_smiles>  (31) 
[H]c1c([H])c([H])c2c(c1[H])C([H])([H])C([H])([H])C([H])([H])C2([H])N([H])C(=O)C1([H])N(C(=O)C([H])(N([H])C(=O)C([H])(N([H])C([H])([H])[H])C([H])([H])[H])C(C([H])([H])[H])(C([H])([H])[H])C([H])([H])[H])C([H])([H])c2c([H])c(OC([H])([H])C3([H])C([H])([H])N(C(=O)c4c([H])c(C([H])([H])N([H])C(=O)N5C([H])([H])C([H])([H])C([H])([H])C([H])(n6nc(-c7c([H])c([H])c(Oc8c([H])c([H])c(F)c([H])c8F)c([H])c7[H])c(C(=O)N([H])[H])c6N([H])[H])C5([H])[H])c([H])c([H])c4N([H])[H])C([H])([H])C3([H])[H])c([H])c([H])c2C1([H])[H]

>  <smiles>  (31) 
[H]c1c([H])c([H])c2c(c1[H])C([H])([H])C([H])([H])C([H])([H])C2([H])N([H])C(=O)C1([H])N(C(=O)C([H])(N([H])C(=O)C([H])(N([H])C([H])([H])[H])C([H])([H])[H])C(C([H])([H])[H])(C([H])([H])[H])C([H])([H])[H])C([H])([H])c2c([H])c(OC([H])([H])C3([H])C([H])([H])N(C(=O)c4c([H])c(C([H])([H])N([H])C(=O)N5C([H])([H])C([H])([H])C([H])([H])C([H])(n6nc(-c7c([H])c([H])c(Oc8c([H])c([H])c(F)c([H])c8F)c([H])c7[H])c(C(=O)N([H])[H])c6N([H])[H])C5([H])[H])c([H])c([H])c4N([H])[H])C([H])([H])C3([H])[H])c([H])c([H])c2C1([H])[H]

$$$$
31:0:0
     RDKit          3D

102104  0  0  1  0  0  0  0  0999 V2000
  -30.3140  -15.6780   18.4150 C   0  0  0  0  0  2  0  0  0  0  0  0
  -30.7500  -12.1880   18.5590 C   0  0  0  0  0  3  0  0  0  0  0  0
  -31.4740  -14.8970   17.8040 C   0  0  0  0  0  3  0  0  0  0  0  0
  -29.2630  -15.0680   19.3840 C   0  0  0  0  0  2  0  0  0  0  0  0
  -31.6490  -13.2830   17.7440 C   0  0  0  0  0  0  0  0  0  0  0  0
  -29.5020  -12.7430   19.5430 C   0  0  0  0  0  2  0  0  0  0  0  0
  -32.7770  -12.7990   17.0780 N   0  0  0  0  0  0  0  0  0  0  0  0
  -32.8410  -11.8020   16.8940 H   0  0  0  0  0  0  0  0  0  0  0  0
  -33.1840  -13.3470   16.3280 H   0  0  0  0  0  0  0  0  0  0  0  0
  -28.9870  -11.5770   20.1930 N   0  0  0  0  0  0  0  0  0  0  0  0
  -29.1840  -10.6850   19.7630 H   0  0  0  0  0  0  0  0  0  0  0  0
  -28.0200  -11.6300   20.5170 H   0  0  0  0  0  0  0  0  0  0  0  0
  -28.5670  -16.6480   19.7850 N   0  0  0  0  0  2  0  0  0  0  0  0
  -27.8380  -16.4860   20.4760 H   0  0  0  0  0  0  0  0  0  0  0  0
  -28.4430  -18.5240   19.3520 C   0  0  0  0  0 15  0  0  0  0  0  0
  -28.2670  -20.6290   19.9920 C   0  0  0  0  0 15  0  0  0  0  0  0
  -27.7750  -22.7510   19.5970 C   0  0  0  0  0 15  0  0  0  0  0  0
  -27.9040  -24.6970   19.9530 O   0  0  0  0  0  1  0  0  0  0  0  0
  -24.5840  -31.6050   22.9110 C   0  0  0  0  0  0  0  0  0  0  0  0
  -27.0640  -26.1410   19.9370 C   0  0  0  0  0  0  0  0  0  0  0  0
  -23.4330  -30.1610   21.3050 C   0  0  0  0  0  3  0  0  0  0  0  0
  -24.8820  -28.4430   19.9170 C   0  0  0  0  0  0  0  0  0  0  0  0
  -26.0280  -30.1930   21.2310 C   0  0  0  0  0  2  0  0  0  0  0  0
  -26.0860  -28.7140   20.5720 C   0  0  0  0  0  0  0  0  0  0  0  0
  -27.1480  -27.5970   20.5490 C   0  0  0  0  0  3  0  0  0  0  0  0
  -25.8340  -26.2010   19.2260 C   0  0  0  0  0  3  0  0  0  0  0  0
  -24.8170  -27.2200   19.2270 C   0  0  0  0  0  3  0  0  0  0  0  0
  -23.6940  -29.4380   19.9500 C   0  0  0  0  0  2  0  0  0  0  0  0
  -24.7130  -30.7000   21.8660 N   0  0  0  0  0  0  0  0  0  0  0  0
  -23.4750  -31.9100   23.3920 O   0  0  0  0  0  0  0  0  0  0  0  0
  -22.7000  -29.2110   22.2950 C   0  0  0  0  0  0  0  0  0  0  0  0
  -21.3620  -29.0720   22.1880 N   0  0  0  0  0  0  0  0  0  0  0  0
  -23.3510  -28.5960   23.1420 O   0  0  0  0  0  0  0  0  0  0  0  0
  -20.8800  -29.6160   21.4860 H   0  0  0  0  0  0  0  0  0  0  0  0
  -17.9760  -27.8610   22.7630 C   0  0  0  0  0  0  0  0  0  0  0  0
  -20.5420  -28.1410   22.9770 C   0  0  0  0  0  3  0  0  0  0  0  0
  -20.6340  -26.7040   22.4080 C   0  0  0  0  0  2  0  0  0  0  0  0
  -19.5190  -26.3790   21.4100 C   0  0  0  0  0  2  0  0  0  0  0  0
  -18.1460  -26.5160   22.0770 C   0  0  0  0  0  2  0  0  0  0  0  0
  -19.0990  -28.6320   23.1700 C   0  0  0  0  0  0  0  0  0  0  0  0
  -18.8810  -29.8850   23.7810 C   0  0  0  0  0  3  0  0  0  0  0  0
  -17.5760  -30.3720   23.9840 C   0  0  0  0  0  3  0  0  0  0  0  0
  -16.4680  -29.6020   23.5880 C   0  0  0  0  0  3  0  0  0  0  0  0
  -16.6700  -28.3470   22.9850 C   0  0  0  0  0  3  0  0  0  0  0  0
  -25.8120  -32.3130   23.5610 C   0  0  0  0  0  3  0  0  0  0  0  0
  -26.3500  -31.5580   24.8400 C   0  0  1  0  0  0  0  0  0  0  0  0
  -25.2650  -31.2800   25.9100 C   0  0  0  0  0  1  0  0  0  0  0  0
  -26.9820  -30.2020   24.4630 C   0  0  0  0  0  1  0  0  0  0  0  0
  -27.4720  -32.3880   25.5070 C   0  0  0  0  0  1  0  0  0  0  0  0
  -25.4210  -33.6920   23.9420 N   0  0  0  0  0  0  0  0  0  0  0  0
  -25.7530  -34.8120   23.2830 C   0  0  0  0  0  0  0  0  0  0  0  0
  -26.4690  -34.7960   22.2800 O   0  0  0  0  0  0  0  0  0  0  0  0
  -24.7840  -33.7730   24.7210 H   0  0  0  0  0  0  0  0  0  0  0  0
  -23.9960  -36.6000   22.9850 C   0  0  0  0  0  1  0  0  0  0  0  0
  -25.2140  -36.1610   23.8130 C   0  0  0  0  0  3  0  0  0  0  0  0
  -27.2880  -37.0530   24.7900 C   0  0  0  0  0  1  0  0  0  0  0  0
  -26.2220  -37.2460   23.8110 N   0  0  0  0  0  0  0  0  0  0  0  0
  -25.7840  -38.1460   23.9930 H   0  0  0  0  0  0  0  0  0  0  0  0
  -32.6200  -15.8330   18.3920 C   0  0  0  0  0  3  0  0  0  0  0  0
  -33.2840  -16.5940   17.3230 N   0  0  0  0  0  4  0  0  0  0  0  0
  -32.6580  -17.2560   16.9030 H   0  0  0  0  0  0  0  0  0  0  0  0
  -33.5970  -15.9640   16.6090 H   0  0  0  0  0  0  0  0  0  0  0  0
  -34.0850  -17.0820   17.6790 H   0  0  0  0  0  0  0  0  0  0  0  0
  -32.2750  -16.8080   19.7360 C   0  0  0  0  0  2  0  0  0  0  0  0
  -31.1260  -15.4900   21.7060 C   0  0  0  0  0  0  0  0  0  0  0  0
  -31.1610  -14.1440   20.1250 C   0  0  0  0  0  1  0  0  0  0  0  0
  -29.2230  -13.6250   17.7220 C   0  0  0  0  0  1  0  0  0  0  0  0
  -27.5500  -13.4200   18.5600 C   0  0  0  0  0  2  0  0  0  0  0  0
  -27.3680  -13.8110   20.3820 C   0  0  0  0  0  0  0  0  0  0  0  0
  -28.6460  -14.1240   21.7040 C   0  0  0  0  0  3  0  0  0  0  0  0
  -30.3030  -14.4360   21.4680 N   0  0  0  0  0  0  0  0  0  0  0  0
  -32.2490  -15.2440   22.0890 O   0  0  0  0  0  0  0  0  0  0  0  0
  -31.1650  -16.5310   20.7990 N   0  0  0  0  0  0  0  0  0  0  0  0
  -30.2340  -16.7440   20.4390 H   0  0  0  0  0  0  0  0  0  0  0  0
  -25.0440  -13.8980   20.9290 C   0  0  0  0  0  0  0  0  0  0  0  0
  -24.0680  -13.0060   21.1680 C   0  0  0  0  0  0  0  0  0  0  0  0
  -24.6560  -11.7020   21.1140 C   0  0  0  0  0  0  0  0  0  0  0  0
  -26.1790  -13.1650   20.8070 N   0  0  0  0  0  0  0  0  0  0  0  0
  -25.9780  -11.8110   20.9100 N   0  0  0  0  0  0  0  0  0  0  0  0
  -23.9770  -10.3960   21.2000 C   0  0  0  0  0  0  0  0  0  0  0  0
  -24.3180   -9.4280   22.1710 C   0  0  0  0  0  3  0  0  0  0  0  0
  -23.5840   -8.2240   22.2740 C   0  0  0  0  0  3  0  0  0  0  0  0
  -22.4940   -7.9760   21.4050 C   0  0  0  0  0  0  0  0  0  0  0  0
  -22.1740   -8.9300   20.4250 C   0  0  0  0  0  3  0  0  0  0  0  0
  -22.9070  -10.1240   20.3200 C   0  0  0  0  0  3  0  0  0  0  0  0
  -21.7400   -6.8260   21.4160 O   0  0  0  0  0  0  0  0  0  0  0  0
  -21.5460   -6.0990   22.5640 C   0  0  0  0  0  0  0  0  0  0  0  0
  -20.9480   -6.6630   23.7100 C   0  0  0  0  0  3  0  0  0  0  0  0
  -20.7050   -5.8630   24.8450 C   0  0  0  0  0  3  0  0  0  0  0  0
  -21.0480   -4.4970   24.8300 C   0  0  0  0  0  0  0  0  0  0  0  0
  -21.6350   -3.9310   23.6850 C   0  0  0  0  0  3  0  0  0  0  0  0
  -21.8810   -4.7290   22.5540 C   0  0  0  0  0  0  0  0  0  0  0  0
  -22.4290   -4.1730   21.4460 F   0  0  0  0  0  0  0  0  0  0  0  0
  -20.8080   -3.7250   25.9160 F   0  0  0  0  0  0  0  0  0  0  0  0
  -22.6460  -13.4070   21.3240 C   0  0  0  0  0  0  0  0  0  0  0  0
  -21.9020  -12.6850   22.1430 N   0  0  0  0  0  0  0  0  0  0  0  0
  -22.2180  -14.4260   20.7780 O   0  0  0  0  0  0  0  0  0  0  0  0
  -22.2780  -11.8760   22.6140 H   0  0  0  0  0  0  0  0  0  0  0  0
  -20.9400  -12.9450   22.3070 H   0  0  0  0  0  0  0  0  0  0  0  0
  -25.0230  -15.2840   20.7740 N   0  0  0  0  0  0  0  0  0  0  0  0
  -24.1400  -15.7830   20.7690 H   0  0  0  0  0  0  0  0  0  0  0  0
  -25.7930  -15.8350   20.4180 H   0  0  0  0  0  0  0  0  0  0  0  0
  1  4  1  0
  2  6  1  0
  3 59  1  0
  3  1  1  0
  4 13  1  0
  5  3  1  0
  5  2  2  0
  6 10  1  0
  7  5  1  0
  8  7  1  0
  9  7  1  0
 10 12  1  0
 11 10  1  0
 13 14  1  0
 19 30  2  0
 20 18  1  0
 20 25  1  0
 21 29  1  0
 21 31  1  0
 22 28  1  0
 22 24  1  0
 23 29  1  0
 24 23  1  0
 25 24  2  0
 26 27  1  0
 26 20  2  0
 27 22  2  0
 28 21  1  0
 29 19  1  0
 31 33  2  0
 32 31  1  0
 34 32  1  0
 35 44  2  0
 35 40  1  0
 36 32  1  0
 36 40  1  0
 37 36  1  0
 38 39  1  0
 38 37  1  0
 39 35  1  0
 40 41  2  0
 41 42  1  0
 43 42  2  0
 44 43  1  0
 45 19  1  0
 45 50  1  0
 45 46  1  0
 46 49  1  1
 46 47  1  0
 48 46  1  0
 50 53  1  0
 51 55  1  0
 51 50  1  0
 52 51  2  0
 55 54  1  0
 57 55  1  0
 57 58  1  0
 57 56  1  0
 59 64  1  0
 60 63  1  0
 60 59  1  0
 61 60  1  0
 62 60  1  0
 64 73  1  0
 65 72  2  0
 66 71  1  0
 67 68  1  0
 68 69  1  0
 69 78  1  0
 69 70  2  0
 71 70  1  0
 71 65  1  0
 73 65  1  0
 74 73  1  0
 75 76  2  0
 76 95  1  0
 77 76  1  0
 77 80  1  0
 78 79  1  0
 78 75  1  0
 79 77  2  0
 80 81  1  0
 81 82  2  0
 83 86  1  0
 83 82  1  0
 84 83  2  0
 85 84  1  0
 85 80  2  0
 86 87  1  0
 87 88  1  0
 88 89  2  0
 90 89  1  0
 90 94  1  0
 91 90  2  0
 92 87  2  0
 92 91  1  0
 93 92  1  0
 95 96  1  0
 96 99  1  0
 96 98  1  0
 97 95  2  0
100 75  1  0
101100  1  0
102100  1  0
M  ISO  4  17 101  18 101  65 100  73 100
M  END
>  <TORSDO>  (32) 
F 25

>  <SCORE>  (32) 
-12.523

>  <name>  (32) 
31

>  <ligand_id>  (32) 
31

>  <original_smiles>  (32) 
[H]c1c([H])c([H])c2c(c1[H])C([H])([H])C([H])([H])C([H])([H])C2([H])N([H])C(=O)C1([H])N(C(=O)C([H])(N([H])C(=O)C([H])(N([H])C([H])([H])[H])C([H])([H])[H])C(C([H])([H])[H])(C([H])([H])[H])C([H])([H])[H])C([H])([H])c2c([H])c(OC([H])([H])C([H])([H])C([H])([H])N([H])c3c([H])c(C([H])(C([H])([H])N([H])C(=O)N4C([H])([H])C([H])([H])C([H])([H])C([H])(n5nc(-c6c([H])c([H])c(Oc7c([H])c([H])c(F)c([H])c7F)c([H])c6[H])c(C(=O)N([H])[H])c5N([H])[H])C4([H])[H])[N+]([H])([H])[H])c(N([H])[H])c([H])c3N([H])[H])c([H])c([H])c2C1([H])[H]

>  <smiles>  (32) 
[H]c1c([H])c([H])c2c(c1[H])C([H])([H])C([H])([H])C([H])([H])C2([H])N([H])C(=O)C1([H])N(C(=O)C([H])(N([H])C(=O)C([H])(N([H])C([H])([H])[H])C([H])([H])[H])C(C([H])([H])[H])(C([H])([H])[H])C([H])([H])[H])C([H])([H])c2c([H])c(OC([H])([H])C([H])([H])C([H])([H])N([H])c3c([H])c(C([H])(C([H])([H])N([H])C(=O)N4C([H])([H])C([H])([H])C([H])([H])C([H])(n5nc(-c6c([H])c([H])c(Oc7c([H])c([H])c(F)c([H])c7F)c([H])c6[H])c(C(=O)N([H])[H])c5N([H])[H])C4([H])[H])[N+]([H])([H])[H])c(N([H])[H])c([H])c3N([H])[H])c([H])c([H])c2C1([H])[H]

$$$$
32:0:0
     RDKit          3D

 93101  0  0  1  0  0  0  0  0999 V2000
  -28.5940  -20.7300   20.9820 C   0  0  0  0  0  0  0  0  0  0  0  0
  -29.2120  -21.8690   20.5990 N   0  0  0  0  0  0  0  0  0  0  0  0
  -27.4790  -20.7550   21.5110 O   0  0  0  0  0  0  0  0  0  0  0  0
  -30.1140  -21.7810   20.1490 H   0  0  0  0  0  0  0  0  0  0  0  0
  -30.6430  -19.2240   21.2530 C   0  0  0  0  0  3  0  0  0  0  0  0
  -31.2380  -17.9390   21.2860 C   0  0  0  0  0  3  0  0  0  0  0  0
  -29.2150  -16.9720   20.3630 C   0  0  0  0  0  3  0  0  0  0  0  0
  -29.3100  -19.4010   20.8040 C   0  0  0  0  0  0  0  0  0  0  0  0
  -30.5260  -16.7950   20.8530 C   0  0  0  0  0  0  0  0  0  0  0  0
  -28.6150  -18.2540   20.3340 C   0  0  0  0  0  0  0  0  0  0  0  0
  -27.3400  -18.3520   19.8810 F   0  0  0  0  0  0  0  0  0  0  0  0
  -31.3940  -14.6330   20.0800 C   0  0  0  0  0  0  0  0  0  0  0  0
  -30.9540  -12.4790   18.9420 C   0  0  0  0  0  2  0  0  0  0  0  0
  -29.9690  -12.6560   17.7720 C   0  0  0  0  0  2  0  0  0  0  0  0
  -28.5140  -12.5540   18.2660 C   0  0  0  0  0  2  0  0  0  0  0  0
  -28.2440  -13.4440   19.5080 C   0  0  0  0  0  3  0  0  0  0  0  0
  -29.3370  -13.2500   20.5830 C   0  0  0  0  0  2  0  0  0  0  0  0
  -30.6470  -13.4990   19.9620 N   0  0  0  0  0  0  0  0  0  0  0  0
  -32.4180  -14.8270   19.4180 O   0  0  0  0  0  0  0  0  0  0  0  0
  -31.0660  -15.4870   21.0660 N   0  0  0  0  0  0  0  0  0  0  0  0
  -31.8770  -15.5560   21.6640 H   0  0  0  0  0  0  0  0  0  0  0  0
  -25.9140  -14.1320   20.3650 C   0  0  0  0  0  0  0  0  0  0  0  0
  -24.8340  -13.3970   20.7710 C   0  0  0  0  0  0  0  0  0  0  0  0
  -25.2260  -12.0270   20.6630 C   0  0  0  0  0  0  0  0  0  0  0  0
  -26.9040  -13.2140   20.0480 N   0  0  0  0  0  0  0  0  0  0  0  0
  -26.4940  -11.9400   20.2810 N   0  0  0  0  0  0  0  0  0  0  0  0
  -24.4490  -10.7950   20.8440 C   0  0  0  0  0  0  0  0  0  0  0  0
  -24.8040   -9.8340   21.8150 C   0  0  0  0  0  3  0  0  0  0  0  0
  -24.0290   -8.6660   21.9830 C   0  0  0  0  0  3  0  0  0  0  0  0
  -22.8850   -8.4510   21.1780 C   0  0  0  0  0  0  0  0  0  0  0  0
  -22.5500   -9.4010   20.1960 C   0  0  0  0  0  3  0  0  0  0  0  0
  -23.3250  -10.5590   20.0270 C   0  0  0  0  0  3  0  0  0  0  0  0
  -22.0890   -7.3340   21.2520 O   0  0  0  0  0  0  0  0  0  0  0  0
  -21.8480   -6.7000   22.4450 C   0  0  0  0  0  0  0  0  0  0  0  0
  -21.2590   -7.3700   23.5390 C   0  0  0  0  0  3  0  0  0  0  0  0
  -20.9660   -6.6630   24.7230 C   0  0  0  0  0  3  0  0  0  0  0  0
  -21.2500   -5.2860   24.8100 C   0  0  0  0  0  0  0  0  0  0  0  0
  -21.8320   -4.6160   23.7200 C   0  0  0  0  0  3  0  0  0  0  0  0
  -22.1270   -5.3210   22.5390 C   0  0  0  0  0  0  0  0  0  0  0  0
  -22.6670   -4.6660   21.4830 F   0  0  0  0  0  0  0  0  0  0  0  0
  -20.9620   -4.6050   25.9440 F   0  0  0  0  0  0  0  0  0  0  0  0
  -23.4790  -13.9300   21.1390 C   0  0  0  0  0  0  0  0  0  0  0  0
  -22.7760  -13.2500   22.0380 N   0  0  0  0  0  0  0  0  0  0  0  0
  -23.0550  -14.9820   20.6650 O   0  0  0  0  0  0  0  0  0  0  0  0
  -23.1340  -12.3990   22.4470 H   0  0  0  0  0  0  0  0  0  0  0  0
  -21.8690  -13.5890   22.3270 H   0  0  0  0  0  0  0  0  0  0  0  0
  -26.1270  -15.4970   20.2130 N   0  0  0  0  0  0  0  0  0  0  0  0
  -25.3940  -16.1770   20.3850 H   0  0  0  0  0  0  0  0  0  0  0  0
  -26.9540  -15.9100   19.8030 H   0  0  0  0  0  0  0  0  0  0  0  0
  -28.7810  -23.2180   21.0340 C   0  0  0  0  0  2  0  0  0  0  0  0
  -28.9070  -24.3640   19.9910 C   0  0  0  0  0  2  0  0  0  0  0  0
  -28.6040  -25.7510   20.6320 C   0  0  0  0  0  2  0  0  0  0  0  0
  -28.5400  -26.8560   19.7110 O   0  0  0  0  0  0  0  0  0  0  0  0
  -24.5340  -31.7610   23.0030 C   0  0  0  0  0  0  0  0  0  0  0  0
  -27.3580  -27.5620   19.7490 C   0  0  0  0  0  0  0  0  0  0  0  0
  -23.3840  -30.3720   21.3110 C   0  0  0  0  0  3  0  0  0  0  0  0
  -24.9000  -28.9560   19.8240 C   0  0  0  0  0  0  0  0  0  0  0  0
  -25.8890  -30.8540   21.1160 C   0  0  0  0  0  2  0  0  0  0  0  0
  -26.0360  -29.5120   20.4260 C   0  0  0  0  0  0  0  0  0  0  0  0
  -27.2720  -28.8240   20.3850 C   0  0  0  0  0  3  0  0  0  0  0  0
  -26.2080  -27.0190   19.1430 C   0  0  0  0  0  3  0  0  0  0  0  0
  -24.9810  -27.7090   19.1780 C   0  0  0  0  0  3  0  0  0  0  0  0
  -23.6160  -29.7540   19.9050 C   0  0  0  0  0  2  0  0  0  0  0  0
  -24.6200  -31.0090   21.8690 N   0  0  0  0  0  0  0  0  0  0  0  0
  -23.4450  -31.9610   23.5590 O   0  0  0  0  0  0  0  0  0  0  0  0
  -22.7850  -29.2860   22.2350 C   0  0  0  0  0  0  0  0  0  0  0  0
  -21.4640  -29.0670   22.1240 N   0  0  0  0  0  0  0  0  0  0  0  0
  -23.5050  -28.6460   23.0050 O   0  0  0  0  0  0  0  0  0  0  0  0
  -20.9430  -29.6400   21.4740 H   0  0  0  0  0  0  0  0  0  0  0  0
  -18.1320  -27.7760   22.6620 C   0  0  0  0  0  0  0  0  0  0  0  0
  -20.6940  -28.0690   22.8630 C   0  0  0  0  0  3  0  0  0  0  0  0
  -20.8020  -26.6780   22.1970 C   0  0  0  0  0  2  0  0  0  0  0  0
  -19.6710  -26.3960   21.2030 C   0  0  0  0  0  2  0  0  0  0  0  0
  -18.3090  -26.4740   21.9000 C   0  0  0  0  0  2  0  0  0  0  0  0
  -19.2520  -28.5330   23.1010 C   0  0  0  0  0  0  0  0  0  0  0  0
  -19.0310  -29.7550   23.7730 C   0  0  0  0  0  3  0  0  0  0  0  0
  -17.7240  -30.2200   24.0120 C   0  0  0  0  0  3  0  0  0  0  0  0
  -16.6200  -29.4590   23.5890 C   0  0  0  0  0  3  0  0  0  0  0  0
  -16.8250  -28.2390   22.9190 C   0  0  0  0  0  3  0  0  0  0  0  0
  -25.7930  -32.4250   23.6430 C   0  0  0  0  0  3  0  0  0  0  0  0
  -26.3610  -31.6220   24.8770 C   0  0  1  0  0  0  0  0  0  0  0  0
  -25.2880  -31.2590   25.9290 C   0  0  0  0  0  1  0  0  0  0  0  0
  -27.0280  -30.3080   24.4080 C   0  0  0  0  0  1  0  0  0  0  0  0
  -27.4590  -32.4520   25.5810 C   0  0  0  0  0  1  0  0  0  0  0  0
  -25.4200  -33.7900   24.0380 N   0  0  0  0  0  0  0  0  0  0  0  0
  -25.6880  -34.8900   23.3230 C   0  0  0  0  0  0  0  0  0  0  0  0
  -26.3470  -34.8650   22.2790 O   0  0  0  0  0  0  0  0  0  0  0  0
  -24.8310  -33.8780   24.8530 H   0  0  0  0  0  0  0  0  0  0  0  0
  -23.8660  -36.6040   23.0720 C   0  0  0  0  0  1  0  0  0  0  0  0
  -25.1390  -36.2300   23.8470 C   0  0  0  0  0  3  0  0  0  0  0  0
  -27.2370  -37.1880   24.6890 C   0  0  0  0  0  1  0  0  0  0  0  0
  -26.1140  -37.3380   23.7670 N   0  0  0  0  0  0  0  0  0  0  0  0
  -25.6640  -38.2300   23.9580 H   0  0  0  0  0  0  0  0  0  0  0  0
  1  3  2  0
  2  1  1  0
  2 50  1  0
  4  2  1  0
  5  6  1  0
  7  9  1  0
  8  1  1  0
  8  5  2  0
  9 20  1  0
  9  6  2  0
 10  7  2  0
 10  8  1  0
 11 10  1  0
 12 20  1  0
 13 18  1  0
 14 15  1  0
 14 13  1  0
 16 15  1  0
 16 25  1  0
 16 17  1  0
 18 12  1  0
 18 17  1  0
 19 12  2  0
 20 21  1  0
 22 23  2  0
 23 42  1  0
 24 23  1  0
 24 27  1  0
 25 26  1  0
 25 22  1  0
 26 24  2  0
 27 28  1  0
 28 29  2  0
 30 33  1  0
 30 29  1  0
 31 30  2  0
 32 31  1  0
 32 27  2  0
 33 34  1  0
 34 39  2  0
 34 35  1  0
 35 36  2  0
 36 37  1  0
 37 41  1  0
 38 37  2  0
 39 38  1  0
 40 39  1  0
 42 43  1  0
 43 46  1  0
 43 45  1  0
 44 42  2  0
 47 22  1  0
 47 48  1  0
 49 47  1  0
 51 52  1  0
 51 50  1  0
 53 55  1  0
 53 52  1  0
 54 65  2  0
 55 60  1  0
 56 64  1  0
 56 66  1  0
 57 63  1  0
 57 59  1  0
 58 64  1  0
 59 58  1  0
 60 59  2  0
 61 62  1  0
 61 55  2  0
 62 57  2  0
 63 56  1  0
 64 54  1  0
 66 68  2  0
 67 66  1  0
 69 67  1  0
 70 79  2  0
 70 75  1  0
 71 67  1  0
 71 75  1  0
 72 71  1  0
 73 74  1  0
 73 72  1  0
 74 70  1  0
 75 76  2  0
 76 77  1  0
 78 77  2  0
 79 78  1  0
 80 54  1  0
 80 85  1  0
 80 81  1  0
 81 84  1  1
 81 82  1  0
 83 81  1  0
 85 88  1  0
 86 90  1  0
 86 85  1  0
 87 86  2  0
 90 89  1  0
 92 90  1  0
 92 93  1  0
 92 91  1  0
M  ISO  4  12 100  20 100  52 101  53 101
M  END
>  <TORSDO>  (33) 
F 20

>  <SCORE>  (33) 
-12.365

>  <name>  (33) 
32

>  <ligand_id>  (33) 
32

>  <original_smiles>  (33) 
[H]c1c([H])c([H])c2c(c1[H])C([H])([H])C([H])([H])C([H])([H])C2([H])N([H])C(=O)C1([H])N(C(=O)C([H])(N([H])C(=O)C([H])(N([H])C([H])([H])[H])C([H])([H])[H])C(C([H])([H])[H])(C([H])([H])[H])C([H])([H])[H])C([H])([H])c2c([H])c(OC([H])([H])C([H])([H])C([H])([H])N([H])C(=O)c3c([H])c([H])c(N([H])C(=O)N4C([H])([H])C([H])([H])C([H])([H])C([H])(n5nc(-c6c([H])c([H])c(Oc7c([H])c([H])c(F)c([H])c7F)c([H])c6[H])c(C(=O)N([H])[H])c5N([H])[H])C4([H])[H])c([H])c3F)c([H])c([H])c2C1([H])[H]

>  <smiles>  (33) 
[H]c1c([H])c([H])c2c(c1[H])C([H])([H])C([H])([H])C([H])([H])C2([H])N([H])C(=O)C1([H])N(C(=O)C([H])(N([H])C(=O)C([H])(N([H])C([H])([H])[H])C([H])([H])[H])C(C([H])([H])[H])(C([H])([H])[H])C([H])([H])[H])C([H])([H])c2c([H])c(OC([H])([H])C([H])([H])C([H])([H])N([H])C(=O)c3c([H])c([H])c(N([H])C(=O)N4C([H])([H])C([H])([H])C([H])([H])C([H])(n5nc(-c6c([H])c([H])c(Oc7c([H])c([H])c(F)c([H])c7F)c([H])c6[H])c(C(=O)N([H])[H])c5N([H])[H])C4([H])[H])c([H])c3F)c([H])c([H])c2C1([H])[H]

$$$$
33:0:0
     RDKit          3D

 94102  0  0  1  0  0  0  0  0999 V2000
  -30.8130  -18.2260   21.6930 C   0  0  0  0  0  3  0  0  0  0  0  0
  -30.7410  -19.6350   21.5100 C   0  0  0  0  0  3  0  0  0  0  0  0
  -29.5790  -17.8900   19.6610 C   0  0  0  0  0  3  0  0  0  0  0  0
  -30.2310  -17.3030   20.7820 C   0  0  0  0  0  0  0  0  0  0  0  0
  -29.5020  -19.3080   19.4730 C   0  0  0  0  0  0  0  0  0  0  0  0
  -30.0650  -20.2200   20.4120 C   0  0  0  0  0  0  0  0  0  0  0  0
  -30.1790  -15.8120   21.1340 C   0  0  0  0  0  0  0  0  0  0  0  0
  -29.7580  -15.5260   22.2950 N   0  0  0  0  0  0  0  0  0  0  0  0
  -29.4820  -16.3670   22.7870 H   0  0  0  0  0  0  0  0  0  0  0  0
  -30.7380  -14.7120   20.1550 C   0  0  0  0  0  0  0  0  0  0  0  0
  -30.4130  -12.5780   18.9100 C   0  0  0  0  0  2  0  0  0  0  0  0
  -29.4070  -12.7900   17.7560 C   0  0  0  0  0  2  0  0  0  0  0  0
  -27.9560  -12.6080   18.2400 C   0  0  0  0  0  2  0  0  0  0  0  0
  -27.6750  -13.3810   19.5540 C   0  0  0  0  0  3  0  0  0  0  0  0
  -28.7790  -13.1040   20.5940 C   0  0  0  0  0  2  0  0  0  0  0  0
  -30.0720  -13.5120   20.0080 N   0  0  0  0  0  0  0  0  0  0  0  0
  -31.7840  -14.9340   19.5330 O   0  0  0  0  0  0  0  0  0  0  0  0
  -25.3110  -13.9610   20.3810 C   0  0  0  0  0  0  0  0  0  0  0  0
  -24.2660  -13.1750   20.7890 C   0  0  0  0  0  0  0  0  0  0  0  0
  -24.7350  -11.8280   20.7200 C   0  0  0  0  0  0  0  0  0  0  0  0
  -26.3480  -13.0880   20.0870 N   0  0  0  0  0  0  0  0  0  0  0  0
  -26.0080  -11.8000   20.3480 N   0  0  0  0  0  0  0  0  0  0  0  0
  -24.0260  -10.5590   20.9270 C   0  0  0  0  0  0  0  0  0  0  0  0
  -24.4820   -9.5990   21.8580 C   0  0  0  0  0  3  0  0  0  0  0  0
  -23.7720   -8.3930   22.0490 C   0  0  0  0  0  3  0  0  0  0  0  0
  -22.5930   -8.1410   21.3100 C   0  0  0  0  0  0  0  0  0  0  0  0
  -22.1570   -9.0880   20.3670 C   0  0  0  0  0  3  0  0  0  0  0  0
  -22.8680  -10.2840   20.1730 C   0  0  0  0  0  3  0  0  0  0  0  0
  -21.8510   -6.9880   21.4130 O   0  0  0  0  0  0  0  0  0  0  0  0
  -21.7860   -6.2760   22.5830 C   0  0  0  0  0  0  0  0  0  0  0  0
  -21.3280   -6.8580   23.7850 C   0  0  0  0  0  3  0  0  0  0  0  0
  -21.2090   -6.0720   24.9480 C   0  0  0  0  0  3  0  0  0  0  0  0
  -21.5410   -4.7040   24.9100 C   0  0  0  0  0  0  0  0  0  0  0  0
  -21.9920   -4.1210   23.7140 C   0  0  0  0  0  3  0  0  0  0  0  0
  -22.1110   -4.9050   22.5520 C   0  0  0  0  0  0  0  0  0  0  0  0
  -22.5270   -4.3330   21.3960 F   0  0  0  0  0  0  0  0  0  0  0  0
  -21.4200   -3.9450   26.0250 F   0  0  0  0  0  0  0  0  0  0  0  0
  -22.8810  -13.6400   21.1340 C   0  0  0  0  0  0  0  0  0  0  0  0
  -22.2040  -12.9300   22.0290 N   0  0  0  0  0  0  0  0  0  0  0  0
  -22.4110  -14.6650   20.6470 O   0  0  0  0  0  0  0  0  0  0  0  0
  -22.6000  -12.1000   22.4450 H   0  0  0  0  0  0  0  0  0  0  0  0
  -21.2760  -13.2210   22.3020 H   0  0  0  0  0  0  0  0  0  0  0  0
  -25.4600  -15.3340   20.2170 N   0  0  0  0  0  0  0  0  0  0  0  0
  -24.7020  -15.9870   20.3760 H   0  0  0  0  0  0  0  0  0  0  0  0
  -26.3060  -15.7830   19.8900 H   0  0  0  0  0  0  0  0  0  0  0  0
  -28.8930  -19.8050   18.3230 N   0  0  0  0  0  0  0  0  0  0  0  0
  -28.8260  -19.1850   17.5230 H   0  0  0  0  0  0  0  0  0  0  0  0
  -29.1580  -20.7470   18.0520 H   0  0  0  0  0  0  0  0  0  0  0  0
  -30.1320  -21.6130   20.2170 O   0  0  0  0  0  0  0  0  0  0  0  0
  -28.9740  -22.4750   20.4370 C   0  0  0  0  0  3  0  0  0  0  0  0
  -29.2850  -24.0430   20.4440 C   0  0  0  0  0  3  0  0  0  0  0  0
  -27.1160  -24.7880   21.5930 C   0  0  0  0  0  1  0  0  0  0  0  0
  -28.0500  -25.0430   20.3810 C   0  0  0  0  0  3  0  0  0  0  0  0
  -28.3400  -26.5030   20.2610 O   0  0  0  0  0  0  0  0  0  0  0  0
  -24.6330  -31.9110   23.2320 C   0  0  0  0  0  0  0  0  0  0  0  0
  -27.2500  -27.3830   20.1530 C   0  0  0  0  0  0  0  0  0  0  0  0
  -23.4310  -30.5020   21.6010 C   0  0  0  0  0  3  0  0  0  0  0  0
  -24.8830  -28.9800   20.1530 C   0  0  0  0  0  0  0  0  0  0  0  0
  -25.9670  -30.8460   21.4000 C   0  0  0  0  0  2  0  0  0  0  0  0
  -26.0520  -29.4720   20.7480 C   0  0  0  0  0  0  0  0  0  0  0  0
  -27.2410  -28.6830   20.7420 C   0  0  0  0  0  3  0  0  0  0  0  0
  -26.0700  -26.9690   19.4900 C   0  0  0  0  0  3  0  0  0  0  0  0
  -24.8950  -27.7340   19.5130 C   0  0  0  0  0  3  0  0  0  0  0  0
  -23.6380  -29.8370   20.2170 C   0  0  0  0  0  2  0  0  0  0  0  0
  -24.6960  -31.1030   22.1340 N   0  0  0  0  0  0  0  0  0  0  0  0
  -23.5510  -32.1770   23.7750 O   0  0  0  0  0  0  0  0  0  0  0  0
  -22.7870  -29.4740   22.5620 C   0  0  0  0  0  0  0  0  0  0  0  0
  -21.4630  -29.2780   22.4410 N   0  0  0  0  0  0  0  0  0  0  0  0
  -23.4760  -28.8580   23.3800 O   0  0  0  0  0  0  0  0  0  0  0  0
  -20.9650  -29.8290   21.7550 H   0  0  0  0  0  0  0  0  0  0  0  0
  -18.1020  -28.0430   22.9550 C   0  0  0  0  0  0  0  0  0  0  0  0
  -20.6570  -28.3330   23.2150 C   0  0  0  0  0  3  0  0  0  0  0  0
  -20.7730  -26.9010   22.6410 C   0  0  0  0  0  2  0  0  0  0  0  0
  -19.6710  -26.5620   21.6330 C   0  0  0  0  0  2  0  0  0  0  0  0
  -18.2910  -26.6940   22.2820 C   0  0  0  0  0  2  0  0  0  0  0  0
  -19.2140  -28.8190   23.3800 C   0  0  0  0  0  0  0  0  0  0  0  0
  -18.9820  -30.0810   23.9700 C   0  0  0  0  0  3  0  0  0  0  0  0
  -17.6720  -30.5670   24.1400 C   0  0  0  0  0  3  0  0  0  0  0  0
  -16.5750  -29.7880   23.7330 C   0  0  0  0  0  3  0  0  0  0  0  0
  -16.7910  -28.5270   23.1470 C   0  0  0  0  0  3  0  0  0  0  0  0
  -25.9140  -32.5560   23.8430 C   0  0  0  0  0  3  0  0  0  0  0  0
  -25.5910  -33.9480   24.1800 N   0  0  0  0  0  0  0  0  0  0  0  0
  -25.9060  -35.0070   23.4220 C   0  0  0  0  0  0  0  0  0  0  0  0
  -26.5680  -34.9140   22.3840 O   0  0  0  0  0  0  0  0  0  0  0  0
  -25.0050  -34.0950   24.9890 H   0  0  0  0  0  0  0  0  0  0  0  0
  -24.1550  -36.7840   23.0890 C   0  0  0  0  0  1  0  0  0  0  0  0
  -25.4070  -36.3880   23.8900 C   0  0  0  0  0  3  0  0  0  0  0  0
  -27.5390  -37.2920   24.7080 C   0  0  0  0  0  1  0  0  0  0  0  0
  -26.4280  -37.4530   23.7730 N   0  0  0  0  0  0  0  0  0  0  0  0
  -26.0140  -38.3690   23.9280 H   0  0  0  0  0  0  0  0  0  0  0  0
  -26.4490  -31.7870   25.1140 C   0  0  1  0  0  0  0  0  0  0  0  0
  -25.3640  -31.5250   26.1840 C   0  0  0  0  0  1  0  0  0  0  0  0
  -27.0550  -30.4220   24.7130 C   0  0  0  0  0  1  0  0  0  0  0  0
  -27.5890  -32.5980   25.7740 C   0  0  0  0  0  1  0  0  0  0  0  0
  2  1  1  0
  3  4  1  0
  4  7  1  0
  4  1  2  0
  5  3  2  0
  5  6  1  0
  6  2  2  0
  7  8  2  0
  8  9  1  0
 10  7  1  0
 11 16  1  0
 12 13  1  0
 12 11  1  0
 14 13  1  0
 14 21  1  0
 14 15  1  0
 16 10  1  0
 16 15  1  0
 17 10  2  0
 18 19  2  0
 19 38  1  0
 20 19  1  0
 20 23  1  0
 21 22  1  0
 21 18  1  0
 22 20  2  0
 23 24  1  0
 24 25  2  0
 26 29  1  0
 26 25  1  0
 27 26  2  0
 28 27  1  0
 28 23  2  0
 29 30  1  0
 30 31  1  0
 31 32  2  0
 33 32  1  0
 33 37  1  0
 34 33  2  0
 35 30  2  0
 35 34  1  0
 36 35  1  0
 38 39  1  0
 39 42  1  0
 39 41  1  0
 40 38  2  0
 43 44  1  0
 43 18  1  0
 45 43  1  0
 46  5  1  0
 47 46  1  0
 48 46  1  0
 49  6  1  0
 49 50  1  0
 50 51  2  0
 53 51  1  0
 53 52  1  0
 54 53  1  0
 55 66  2  0
 56 54  1  0
 56 61  1  0
 57 65  1  0
 57 67  1  0
 58 64  1  0
 58 60  1  0
 59 65  1  0
 60 59  1  0
 61 60  2  0
 62 63  1  0
 62 56  2  0
 63 58  2  0
 64 57  1  0
 65 55  1  0
 67 69  2  0
 68 67  1  0
 70 68  1  0
 71 80  2  0
 71 76  1  0
 72 68  1  0
 72 76  1  0
 73 72  1  0
 74 75  1  0
 74 73  1  0
 75 71  1  0
 76 77  2  0
 77 78  1  0
 79 78  2  0
 80 79  1  0
 81 55  1  0
 81 82  1  0
 81 91  1  0
 82 85  1  0
 83 87  1  0
 83 82  1  0
 84 83  2  0
 87 86  1  0
 89 87  1  0
 89 90  1  0
 89 88  1  0
 91 94  1  1
 91 92  1  0
 93 91  1  0
M  ISO  4   7 100  10 100  53 101  54 101
M  END
>  <TORSDO>  (34) 
F 22

>  <SCORE>  (34) 
-12.779

>  <name>  (34) 
33

>  <ligand_id>  (34) 
33

>  <original_smiles>  (34) 
[H]N=C(C(=O)N1C([H])([H])C([H])([H])C([H])([H])C([H])(n2nc(-c3c([H])c([H])c(Oc4c([H])c([H])c(F)c([H])c4F)c([H])c3[H])c(C(=O)N([H])[H])c2N([H])[H])C1([H])[H])c1c([H])c([H])c(OC([H])([H])C([H])([H])C([H])(Oc2c([H])c([H])c3c(c2[H])C([H])([H])N(C(=O)C([H])(N([H])C(=O)C([H])(N([H])C([H])([H])[H])C([H])([H])[H])C(C([H])([H])[H])(C([H])([H])[H])C([H])([H])[H])C([H])(C(=O)N([H])C2([H])c4c([H])c([H])c([H])c([H])c4C([H])([H])C([H])([H])C2([H])[H])C3([H])[H])C([H])([H])[H])c(N([H])[H])c1[H]

>  <smiles>  (34) 
[H]N=C(C(=O)N1C([H])([H])C([H])([H])C([H])([H])C([H])(n2nc(-c3c([H])c([H])c(Oc4c([H])c([H])c(F)c([H])c4F)c([H])c3[H])c(C(=O)N([H])[H])c2N([H])[H])C1([H])[H])c1c([H])c([H])c(OC([H])([H])C([H])([H])C([H])(Oc2c([H])c([H])c3c(c2[H])C([H])([H])N(C(=O)C([H])(N([H])C(=O)C([H])(N([H])C([H])([H])[H])C([H])([H])[H])C(C([H])([H])[H])(C([H])([H])[H])C([H])([H])[H])C([H])(C(=O)N([H])C2([H])c4c([H])c([H])c([H])c([H])c4C([H])([H])C([H])([H])C2([H])[H])C3([H])[H])C([H])([H])[H])c(N([H])[H])c1[H]

$$$$
34:0:0
     RDKit          3D

 93101  0  0  1  0  0  0  0  0999 V2000
  -29.1370  -19.8080   20.6170 C   0  0  0  0  0  3  0  0  0  0  0  0
  -30.2710  -18.6930   18.8120 C   0  0  0  0  0  3  0  0  0  0  0  0
  -29.1400  -21.2750   20.0200 C   0  0  0  0  0  0  0  0  0  0  0  0
  -29.7400  -21.1810   18.7200 C   0  0  0  0  0  0  0  0  0  0  0  0
  -29.6950  -18.4350   20.0690 C   0  0  0  0  0  0  0  0  0  0  0  0
  -30.2750  -19.9640   18.1780 C   0  0  0  0  0  0  0  0  0  0  0  0
  -30.8520  -20.0020   16.9500 F   0  0  0  0  0  0  0  0  0  0  0  0
  -30.4010  -15.5120   20.2200 C   0  0  0  0  0  0  0  0  0  0  0  0
  -30.4030  -13.0280   19.3600 C   0  0  0  0  0  2  0  0  0  0  0  0
  -29.4860  -12.7850   18.1300 C   0  0  0  0  0  2  0  0  0  0  0  0
  -28.0460  -12.4860   18.5760 C   0  0  0  0  0  2  0  0  0  0  0  0
  -27.5900  -13.4420   19.7020 C   0  0  0  0  0  3  0  0  0  0  0  0
  -28.6380  -13.6240   20.8240 C   0  0  0  0  0  2  0  0  0  0  0  0
  -29.8540  -14.1760   20.1950 N   0  0  0  0  0  0  0  0  0  0  0  0
  -31.6030  -15.4860   19.9080 O   0  0  0  0  0  0  0  0  0  0  0  0
  -29.6740  -16.8210   20.4920 N   0  0  0  0  0  0  0  0  0  0  0  0
  -28.8310  -16.6030   21.0030 H   0  0  0  0  0  0  0  0  0  0  0  0
  -25.2240  -13.9840   20.4650 C   0  0  0  0  0  0  0  0  0  0  0  0
  -24.1650  -13.2040   20.8360 C   0  0  0  0  0  0  0  0  0  0  0  0
  -24.6360  -11.8540   20.8050 C   0  0  0  0  0  0  0  0  0  0  0  0
  -26.2680  -13.1120   20.2170 N   0  0  0  0  0  0  0  0  0  0  0  0
  -25.9290  -11.8250   20.4900 N   0  0  0  0  0  0  0  0  0  0  0  0
  -23.9110  -10.5910   20.9980 C   0  0  0  0  0  0  0  0  0  0  0  0
  -24.3360   -9.6290   21.9400 C   0  0  0  0  0  3  0  0  0  0  0  0
  -23.6080   -8.4340   22.1220 C   0  0  0  0  0  3  0  0  0  0  0  0
  -22.4380   -8.1920   21.3630 C   0  0  0  0  0  0  0  0  0  0  0  0
  -22.0320   -9.1420   20.4090 C   0  0  0  0  0  3  0  0  0  0  0  0
  -22.7620  -10.3290   20.2250 C   0  0  0  0  0  3  0  0  0  0  0  0
  -21.6830   -7.0480   21.4530 O   0  0  0  0  0  0  0  0  0  0  0  0
  -21.6200   -6.3160   22.6120 C   0  0  0  0  0  0  0  0  0  0  0  0
  -21.1540   -6.8760   23.8220 C   0  0  0  0  0  3  0  0  0  0  0  0
  -21.0400   -6.0700   24.9720 C   0  0  0  0  0  3  0  0  0  0  0  0
  -21.3800   -4.7060   24.9140 C   0  0  0  0  0  0  0  0  0  0  0  0
  -21.8390   -4.1460   23.7080 C   0  0  0  0  0  3  0  0  0  0  0  0
  -21.9540   -4.9480   22.5600 C   0  0  0  0  0  0  0  0  0  0  0  0
  -22.3760   -4.3980   21.3970 F   0  0  0  0  0  0  0  0  0  0  0  0
  -21.2620   -3.9300   26.0170 F   0  0  0  0  0  0  0  0  0  0  0  0
  -22.7680  -13.6790   21.1050 C   0  0  0  0  0  0  0  0  0  0  0  0
  -22.0400  -12.9820   21.9700 N   0  0  0  0  0  0  0  0  0  0  0  0
  -22.3320  -14.7050   20.5840 O   0  0  0  0  0  0  0  0  0  0  0  0
  -22.4060  -12.1540   22.4130 H   0  0  0  0  0  0  0  0  0  0  0  0
  -21.1020  -13.2830   22.1930 H   0  0  0  0  0  0  0  0  0  0  0  0
  -25.3810  -15.3560   20.2860 N   0  0  0  0  0  0  0  0  0  0  0  0
  -24.6090  -16.0040   20.3990 H   0  0  0  0  0  0  0  0  0  0  0  0
  -26.2210  -15.7970   19.9360 H   0  0  0  0  0  0  0  0  0  0  0  0
  -29.9080  -22.4120   17.8760 C   0  0  0  0  0  0  0  0  0  0  0  0
  -28.9890  -22.6050   16.9360 N   0  0  0  0  0  0  0  0  0  0  0  0
  -30.8410  -23.1970   18.0510 O   0  0  0  0  0  0  0  0  0  0  0  0
  -28.2390  -21.9410   16.8180 H   0  0  0  0  0  0  0  0  0  0  0  0
  -29.0440  -23.4080   16.3270 H   0  0  0  0  0  0  0  0  0  0  0  0
  -28.7100  -22.9110   20.5450 C   0  0  0  0  0  3  0  0  0  0  0  0
  -28.2410  -24.2500   20.0220 C   0  0  0  0  0  3  0  0  0  0  0  0
  -28.1760  -25.7460   20.5030 O   0  0  0  0  0  0  0  0  0  0  0  0
  -24.6020  -31.8870   23.2510 C   0  0  0  0  0  0  0  0  0  0  0  0
  -27.1920  -26.8920   20.3280 C   0  0  0  0  0  0  0  0  0  0  0  0
  -23.4320  -30.4700   21.6130 C   0  0  0  0  0  3  0  0  0  0  0  0
  -24.9010  -28.8340   20.2230 C   0  0  0  0  0  0  0  0  0  0  0  0
  -26.0040  -30.6520   21.5100 C   0  0  0  0  0  2  0  0  0  0  0  0
  -26.0800  -29.2260   20.8670 C   0  0  0  0  0  0  0  0  0  0  0  0
  -27.2090  -28.2750   20.8980 C   0  0  0  0  0  3  0  0  0  0  0  0
  -25.9870  -26.6790   19.6160 C   0  0  0  0  0  3  0  0  0  0  0  0
  -24.8870  -27.5840   19.5760 C   0  0  0  0  0  3  0  0  0  0  0  0
  -23.6830  -29.7650   20.2490 C   0  0  0  0  0  2  0  0  0  0  0  0
  -24.7000  -31.0340   22.1780 N   0  0  0  0  0  0  0  0  0  0  0  0
  -23.5040  -32.1870   23.7510 O   0  0  0  0  0  0  0  0  0  0  0  0
  -22.7170  -29.4930   22.5850 C   0  0  0  0  0  0  0  0  0  0  0  0
  -21.3860  -29.3370   22.4530 N   0  0  0  0  0  0  0  0  0  0  0  0
  -23.3700  -28.8750   23.4300 O   0  0  0  0  0  0  0  0  0  0  0  0
  -20.9110  -29.8870   21.7510 H   0  0  0  0  0  0  0  0  0  0  0  0
  -17.9930  -28.1470   22.9570 C   0  0  0  0  0  0  0  0  0  0  0  0
  -20.5540  -28.4100   23.2270 C   0  0  0  0  0  3  0  0  0  0  0  0
  -20.6520  -26.9730   22.6640 C   0  0  0  0  0  2  0  0  0  0  0  0
  -19.5540  -26.6460   21.6460 C   0  0  0  0  0  2  0  0  0  0  0  0
  -18.1700  -26.7960   22.2850 C   0  0  0  0  0  2  0  0  0  0  0  0
  -19.1120  -28.9120   23.3850 C   0  0  0  0  0  0  0  0  0  0  0  0
  -18.8900  -30.1740   23.9780 C   0  0  0  0  0  3  0  0  0  0  0  0
  -17.5840  -30.6730   24.1430 C   0  0  0  0  0  3  0  0  0  0  0  0
  -16.4810  -29.9070   23.7280 C   0  0  0  0  0  3  0  0  0  0  0  0
  -16.6860  -28.6460   23.1410 C   0  0  0  0  0  3  0  0  0  0  0  0
  -25.8600  -32.5430   23.8950 C   0  0  0  0  0  3  0  0  0  0  0  0
  -25.5400  -33.9510   24.1960 N   0  0  0  0  0  0  0  0  0  0  0  0
  -25.8910  -35.0000   23.4400 C   0  0  0  0  0  0  0  0  0  0  0  0
  -26.5780  -34.8840   22.4230 O   0  0  0  0  0  0  0  0  0  0  0  0
  -24.9290  -34.1140   24.9830 H   0  0  0  0  0  0  0  0  0  0  0  0
  -24.1860  -36.8120   23.0410 C   0  0  0  0  0  1  0  0  0  0  0  0
  -25.4060  -36.3980   23.8790 C   0  0  0  0  0  3  0  0  0  0  0  0
  -27.5250  -37.2830   24.7540 C   0  0  0  0  0  1  0  0  0  0  0  0
  -26.4500  -37.4440   23.7790 N   0  0  0  0  0  0  0  0  0  0  0  0
  -26.0460  -38.3680   23.9010 H   0  0  0  0  0  0  0  0  0  0  0  0
  -26.3370  -31.8080   25.2100 C   0  0  1  0  0  0  0  0  0  0  0  0
  -25.2130  -31.6050   26.2540 C   0  0  0  0  0  1  0  0  0  0  0  0
  -26.9260  -30.4170   24.8850 C   0  0  0  0  0  1  0  0  0  0  0  0
  -27.4720  -32.6170   25.8810 C   0  0  0  0  0  1  0  0  0  0  0  0
  2  5  2  0
  3 51  1  0
  3  1  2  0
  4  3  1  0
  5 16  1  0
  5  1  1  0
  6  4  2  0
  6  2  1  0
  7  6  1  0
  8 16  1  0
  9 14  1  0
 10 11  1  0
 10  9  1  0
 12 11  1  0
 12 21  1  0
 12 13  1  0
 14  8  1  0
 14 13  1  0
 15  8  2  0
 16 17  1  0
 18 19  2  0
 19 38  1  0
 20 19  1  0
 20 23  1  0
 21 18  1  0
 21 22  1  0
 22 20  2  0
 23 24  1  0
 24 25  2  0
 26 29  1  0
 26 25  1  0
 27 26  2  0
 28 27  1  0
 28 23  2  0
 29 30  1  0
 30 31  1  0
 31 32  2  0
 33 32  1  0
 33 37  1  0
 34 33  2  0
 35 30  2  0
 35 34  1  0
 36 35  1  0
 38 39  1  0
 39 42  1  0
 39 41  1  0
 40 38  2  0
 43 44  1  0
 43 18  1  0
 45 43  1  0
 46 48  2  0
 46  4  1  0
 47 46  1  0
 49 47  1  0
 50 47  1  0
 52 53  1  0
 52 51  2  0
 54 65  2  0
 55 53  1  0
 55 60  1  0
 56 64  1  0
 56 66  1  0
 57 63  1  0
 57 59  1  0
 58 64  1  0
 59 60  2  0
 59 58  1  0
 61 55  2  0
 62 61  1  0
 62 57  2  0
 63 56  1  0
 64 54  1  0
 66 68  2  0
 67 66  1  0
 69 67  1  0
 70 79  2  0
 70 75  1  0
 71 67  1  0
 71 75  1  0
 72 71  1  0
 73 74  1  0
 73 72  1  0
 74 70  1  0
 75 76  2  0
 76 77  1  0
 78 77  2  0
 79 78  1  0
 80 54  1  0
 80 81  1  0
 80 90  1  0
 81 84  1  0
 82 86  1  0
 82 81  1  0
 83 82  2  0
 86 85  1  0
 88 86  1  0
 88 89  1  0
 88 87  1  0
 90 93  1  1
 90 91  1  0
 92 90  1  0
M  ISO  4   8 100  16 100  52 101  53 101
M  END
>  <TORSDO>  (35) 
F 18

>  <SCORE>  (35) 
-14.889

>  <name>  (35) 
34

>  <ligand_id>  (35) 
34

>  <original_smiles>  (35) 
[H]C(Oc1c([H])c([H])c2c(c1[H])C([H])([H])N(C(=O)C([H])(N([H])C(=O)C([H])(N([H])C([H])([H])[H])C([H])([H])[H])C(C([H])([H])[H])(C([H])([H])[H])C([H])([H])[H])C([H])(C(=O)N([H])C1([H])c3c([H])c([H])c([H])c([H])c3C([H])([H])C([H])([H])C1([H])[H])C2([H])[H])=C([H])c1c([H])c(N([H])C(=O)N2C([H])([H])C([H])([H])C([H])([H])C([H])(n3nc(-c4c([H])c([H])c(Oc5c([H])c([H])c(F)c([H])c5F)c([H])c4[H])c(C(=O)N([H])[H])c3N([H])[H])C2([H])[H])c([H])c(F)c1C(=O)N([H])[H]

>  <smiles>  (35) 
[H]C(Oc1c([H])c([H])c2c(c1[H])C([H])([H])N(C(=O)C([H])(N([H])C(=O)C([H])(N([H])C([H])([H])[H])C([H])([H])[H])C(C([H])([H])[H])(C([H])([H])[H])C([H])([H])[H])C([H])(C(=O)N([H])C1([H])c3c([H])c([H])c([H])c([H])c3C([H])([H])C([H])([H])C1([H])[H])C2([H])[H])=C([H])c1c([H])c(N([H])C(=O)N2C([H])([H])C([H])([H])C([H])([H])C([H])(n3nc(-c4c([H])c([H])c(Oc5c([H])c([H])c(F)c([H])c5F)c([H])c4[H])c(C(=O)N([H])[H])c3N([H])[H])C2([H])[H])c([H])c(F)c1C(=O)N([H])[H]

$$$$
35:0:0
     RDKit          3D

 92100  0  0  1  0  0  0  0  0999 V2000
  -28.9350  -22.5110   19.6670 C   0  0  0  0  0  0  0  0  0  0  0  0
  -29.4740  -21.5120   20.4320 N   0  0  0  0  0  0  0  0  0  0  0  0
  -28.2500  -22.2740   18.6690 O   0  0  0  0  0  0  0  0  0  0  0  0
  -30.0030  -21.8480   21.2260 H   0  0  0  0  0  0  0  0  0  0  0  0
  -29.0520  -17.8790   19.2250 C   0  0  0  0  0  3  0  0  0  0  0  0
  -28.8540  -19.2860   19.3120 C   0  0  0  0  0  3  0  0  0  0  0  0
  -30.5280  -17.9230   21.1280 C   0  0  0  0  0  3  0  0  0  0  0  0
  -29.9360  -17.1600   20.0900 C   0  0  0  0  0  0  0  0  0  0  0  0
  -29.5230  -20.0570   20.2990 C   0  0  0  0  0  0  0  0  0  0  0  0
  -30.3280  -19.3320   21.2220 C   0  0  0  0  0  0  0  0  0  0  0  0
  -30.9670  -20.0200   22.2000 F   0  0  0  0  0  0  0  0  0  0  0  0
  -30.8950  -14.8070   20.5580 C   0  0  0  0  0  0  0  0  0  0  0  0
  -30.7320  -12.4860   19.7310 C   0  0  0  0  0  2  0  0  0  0  0  0
  -29.8420  -12.4300   18.4680 C   0  0  0  0  0  2  0  0  0  0  0  0
  -28.3480  -12.3520   18.8350 C   0  0  0  0  0  2  0  0  0  0  0  0
  -27.9160  -13.3150   19.9760 C   0  0  0  0  0  3  0  0  0  0  0  0
  -28.9310  -13.3120   21.1370 C   0  0  0  0  0  2  0  0  0  0  0  0
  -30.2490  -13.5990   20.5590 N   0  0  0  0  0  0  0  0  0  0  0  0
  -32.1240  -14.8530   20.6430 O   0  0  0  0  0  0  0  0  0  0  0  0
  -30.7480  -15.6930   18.3430 C   0  0  0  0  0  1  0  0  0  0  0  0
  -30.3050  -15.7740   19.7570 N   0  0  0  0  0  0  0  0  0  0  0  0
  -25.4950  -13.9070   20.5950 C   0  0  0  0  0  0  0  0  0  0  0  0
  -24.4110  -13.1350   20.9140 C   0  0  0  0  0  0  0  0  0  0  0  0
  -24.8820  -11.7860   20.9270 C   0  0  0  0  0  0  0  0  0  0  0  0
  -26.5530  -13.0330   20.4240 N   0  0  0  0  0  0  0  0  0  0  0  0
  -26.1880  -11.7510   20.6930 N   0  0  0  0  0  0  0  0  0  0  0  0
  -24.1530  -10.5200   21.0950 C   0  0  0  0  0  0  0  0  0  0  0  0
  -24.5520   -9.5640   22.0560 C   0  0  0  0  0  3  0  0  0  0  0  0
  -23.8250   -8.3640   22.2130 C   0  0  0  0  0  3  0  0  0  0  0  0
  -22.6900   -8.1110   21.4080 C   0  0  0  0  0  0  0  0  0  0  0  0
  -22.3120   -9.0560   20.4380 C   0  0  0  0  0  3  0  0  0  0  0  0
  -23.0380  -10.2470   20.2790 C   0  0  0  0  0  3  0  0  0  0  0  0
  -21.9400   -6.9610   21.4710 O   0  0  0  0  0  0  0  0  0  0  0  0
  -21.8400   -6.2280   22.6270 C   0  0  0  0  0  0  0  0  0  0  0  0
  -21.3370   -6.7860   23.8220 C   0  0  0  0  0  3  0  0  0  0  0  0
  -21.1920   -5.9800   24.9670 C   0  0  0  0  0  3  0  0  0  0  0  0
  -21.5370   -4.6150   24.9190 C   0  0  0  0  0  0  0  0  0  0  0  0
  -22.0320   -4.0570   23.7270 C   0  0  0  0  0  3  0  0  0  0  0  0
  -22.1800   -4.8600   22.5840 C   0  0  0  0  0  0  0  0  0  0  0  0
  -22.6400   -4.3140   21.4320 F   0  0  0  0  0  0  0  0  0  0  0  0
  -21.3870   -3.8370   26.0160 F   0  0  0  0  0  0  0  0  0  0  0  0
  -22.9990  -13.6070   21.1050 C   0  0  0  0  0  0  0  0  0  0  0  0
  -22.2300  -12.9150   21.9400 N   0  0  0  0  0  0  0  0  0  0  0  0
  -22.5840  -14.6250   20.5500 O   0  0  0  0  0  0  0  0  0  0  0  0
  -22.5790  -12.0940   22.4120 H   0  0  0  0  0  0  0  0  0  0  0  0
  -21.2800  -13.2120   22.1090 H   0  0  0  0  0  0  0  0  0  0  0  0
  -25.6660  -15.2760   20.4100 N   0  0  0  0  0  0  0  0  0  0  0  0
  -24.8900  -15.9230   20.4840 H   0  0  0  0  0  0  0  0  0  0  0  0
  -26.5360  -15.7220   20.1440 H   0  0  0  0  0  0  0  0  0  0  0  0
  -29.2200  -24.0160   20.0540 C   0  0  0  0  0  3  0  0  0  0  0  0
  -28.0970  -25.0890   19.7430 C   0  0  0  0  0  3  0  0  0  0  0  0
  -28.3140  -26.5240   20.0500 O   0  0  0  0  0  0  0  0  0  0  0  0
  -24.5250  -31.8830   23.1130 C   0  0  0  0  0  0  0  0  0  0  0  0
  -27.1910  -27.3680   20.0230 C   0  0  0  0  0  0  0  0  0  0  0  0
  -23.3410  -30.4720   21.4760 C   0  0  0  0  0  3  0  0  0  0  0  0
  -24.8090  -28.9510   20.0430 C   0  0  0  0  0  0  0  0  0  0  0  0
  -25.8790  -30.8190   21.2980 C   0  0  0  0  0  2  0  0  0  0  0  0
  -25.9730  -29.4460   20.6420 C   0  0  0  0  0  0  0  0  0  0  0  0
  -27.1690  -28.6640   20.6270 C   0  0  0  0  0  3  0  0  0  0  0  0
  -25.9940  -26.9360   19.4000 C   0  0  0  0  0  3  0  0  0  0  0  0
  -24.8180  -27.7000   19.4190 C   0  0  0  0  0  3  0  0  0  0  0  0
  -23.5650  -29.8090   20.0930 C   0  0  0  0  0  2  0  0  0  0  0  0
  -24.6010  -31.0740   22.0180 N   0  0  0  0  0  0  0  0  0  0  0  0
  -23.4360  -32.1450   23.6470 O   0  0  0  0  0  0  0  0  0  0  0  0
  -22.6950  -29.4390   22.4310 C   0  0  0  0  0  0  0  0  0  0  0  0
  -21.3650  -29.2680   22.3260 N   0  0  0  0  0  0  0  0  0  0  0  0
  -23.3850  -28.7960   23.2260 O   0  0  0  0  0  0  0  0  0  0  0  0
  -20.8670  -29.8430   21.6620 H   0  0  0  0  0  0  0  0  0  0  0  0
  -17.9880  -28.1040   22.8930 C   0  0  0  0  0  0  0  0  0  0  0  0
  -20.5560  -28.3270   23.1000 C   0  0  0  0  0  3  0  0  0  0  0  0
  -20.6250  -26.9050   22.4940 C   0  0  0  0  0  2  0  0  0  0  0  0
  -19.4930  -26.6160   21.5030 C   0  0  0  0  0  2  0  0  0  0  0  0
  -18.1310  -26.7660   22.1870 C   0  0  0  0  0  2  0  0  0  0  0  0
  -19.1270  -28.8450   23.3070 C   0  0  0  0  0  0  0  0  0  0  0  0
  -18.9400  -30.0980   23.9290 C   0  0  0  0  0  3  0  0  0  0  0  0
  -17.6460  -30.6120   24.1400 C   0  0  0  0  0  3  0  0  0  0  0  0
  -16.5220  -29.8680   23.7410 C   0  0  0  0  0  3  0  0  0  0  0  0
  -16.6940  -28.6160   23.1240 C   0  0  0  0  0  3  0  0  0  0  0  0
  -25.8000  -32.5330   23.7360 C   0  0  0  0  0  3  0  0  0  0  0  0
  -26.3350  -31.7600   25.0050 C   0  0  1  0  0  0  0  0  0  0  0  0
  -25.2510  -31.4940   26.0750 C   0  0  0  0  0  1  0  0  0  0  0  0
  -26.9410  -30.3950   24.6010 C   0  0  0  0  0  1  0  0  0  0  0  0
  -27.4700  -32.5700   25.6730 C   0  0  0  0  0  1  0  0  0  0  0  0
  -25.4640  -33.9210   24.0800 N   0  0  0  0  0  0  0  0  0  0  0  0
  -25.7980  -34.9910   23.3460 C   0  0  0  0  0  0  0  0  0  0  0  0
  -26.4920  -34.9130   22.3270 O   0  0  0  0  0  0  0  0  0  0  0  0
  -24.8570  -34.0570   24.8750 H   0  0  0  0  0  0  0  0  0  0  0  0
  -24.0840  -36.7890   22.9520 C   0  0  0  0  0  1  0  0  0  0  0  0
  -25.2830  -36.3650   23.8150 C   0  0  0  0  0  3  0  0  0  0  0  0
  -27.3670  -37.2390   24.7780 C   0  0  0  0  0  1  0  0  0  0  0  0
  -26.3150  -37.4260   23.7830 N   0  0  0  0  0  0  0  0  0  0  0  0
  -25.8970  -38.3410   23.9320 H   0  0  0  0  0  0  0  0  0  0  0  0
  1 50  1  0
  1  2  1  0
  2  4  1  0
  3  1  2  0
  5  6  2  0
  5  8  1  0
  6  9  1  0
  7 10  1  0
  8  7  2  0
  9  2  1  0
  9 10  2  0
 10 11  1  0
 12 18  1  0
 12 19  2  0
 13 18  1  0
 14 15  1  0
 14 13  1  0
 16 15  1  0
 16 25  1  0
 16 17  1  0
 18 17  1  0
 20 21  1  0
 21  8  1  0
 21 12  1  0
 22 23  2  0
 23 24  1  0
 23 42  1  0
 24 27  1  0
 25 22  1  0
 25 26  1  0
 26 24  2  0
 27 28  1  0
 28 29  2  0
 30 33  1  0
 30 29  1  0
 31 30  2  0
 32 31  1  0
 32 27  2  0
 33 34  1  0
 34 35  1  0
 35 36  2  0
 37 36  1  0
 37 41  1  0
 38 37  2  0
 39 34  2  0
 39 38  1  0
 40 39  1  0
 42 43  1  0
 43 46  1  0
 43 45  1  0
 44 42  2  0
 47 48  1  0
 47 22  1  0
 49 47  1  0
 51 52  1  0
 51 50  2  0
 53 64  2  0
 54 52  1  0
 54 59  1  0
 55 63  1  0
 55 65  1  0
 56 62  1  0
 56 58  1  0
 57 63  1  0
 58 57  1  0
 59 58  2  0
 60 61  1  0
 60 54  2  0
 61 56  2  0
 62 55  1  0
 63 53  1  0
 65 67  2  0
 66 65  1  0
 68 66  1  0
 69 78  2  0
 69 74  1  0
 70 66  1  0
 70 74  1  0
 71 70  1  0
 72 73  1  0
 72 71  1  0
 73 69  1  0
 74 75  2  0
 75 76  1  0
 77 76  2  0
 78 77  1  0
 79 53  1  0
 79 84  1  0
 79 80  1  0
 80 83  1  1
 80 81  1  0
 82 80  1  0
 84 87  1  0
 85 89  1  0
 85 84  1  0
 86 85  2  0
 89 88  1  0
 91 89  1  0
 91 92  1  0
 91 90  1  0
M  ISO  4  12 100  21 100  51 101  52 101
M  END
>  <TORSDO>  (36) 
F 19

>  <SCORE>  (36) 
-14.026

>  <name>  (36) 
35

>  <ligand_id>  (36) 
35

>  <original_smiles>  (36) 
[H]c1c([H])c([H])c2c(c1[H])C([H])([H])C([H])([H])C([H])([H])C2([H])N([H])C(=O)C1([H])N(C(=O)C([H])(N([H])C(=O)C([H])(N([H])C([H])([H])[H])C([H])([H])[H])C(C([H])([H])[H])(C([H])([H])[H])C([H])([H])[H])C([H])([H])c2c([H])c(OC([H])([H])C([H])([H])C(=O)N([H])c3c([H])c([H])c(N(C(=O)N4C([H])([H])C([H])([H])C([H])([H])C([H])(n5nc(-c6c([H])c([H])c(Oc7c([H])c([H])c(F)c([H])c7F)c([H])c6[H])c(C(=O)N([H])[H])c5N([H])[H])C4([H])[H])C([H])([H])[H])c([H])c3F)c([H])c([H])c2C1([H])[H]

>  <smiles>  (36) 
[H]c1c([H])c([H])c2c(c1[H])C([H])([H])C([H])([H])C([H])([H])C2([H])N([H])C(=O)C1([H])N(C(=O)C([H])(N([H])C(=O)C([H])(N([H])C([H])([H])[H])C([H])([H])[H])C(C([H])([H])[H])(C([H])([H])[H])C([H])([H])[H])C([H])([H])c2c([H])c(OC([H])([H])C([H])([H])C(=O)N([H])c3c([H])c([H])c(N(C(=O)N4C([H])([H])C([H])([H])C([H])([H])C([H])(n5nc(-c6c([H])c([H])c(Oc7c([H])c([H])c(F)c([H])c7F)c([H])c6[H])c(C(=O)N([H])[H])c5N([H])[H])C4([H])[H])C([H])([H])[H])c([H])c3F)c([H])c([H])c2C1([H])[H]

$$$$
36:0:0
     RDKit          3D

 95103  0  0  1  0  0  0  0  0999 V2000
  -30.5670  -19.5980   19.0630 C   0  0  0  0  0  3  0  0  0  0  0  0
  -30.8640  -18.1860   18.9860 C   0  0  0  0  0  0  0  0  0  0  0  0
  -30.2120  -17.2530   19.8620 C   0  0  0  0  0  0  0  0  0  0  0  0
  -28.9460  -19.1940   20.7840 C   0  0  0  0  0  0  0  0  0  0  0  0
  -29.5920  -20.1400   19.9490 C   0  0  0  0  0  0  0  0  0  0  0  0
  -29.2470  -17.8040   20.7390 C   0  0  0  0  0  0  0  0  0  0  0  0
  -28.5580  -16.9630   21.5540 F   0  0  0  0  0  0  0  0  0  0  0  0
  -31.0730  -14.7880   19.3950 C   0  0  0  0  0  0  0  0  0  0  0  0
  -30.7670  -12.5340   18.3840 C   0  0  0  0  0  2  0  0  0  0  0  0
  -29.6430  -12.6330   17.3270 C   0  0  0  0  0  2  0  0  0  0  0  0
  -28.2560  -12.4590   17.9800 C   0  0  0  0  0  2  0  0  0  0  0  0
  -28.0760  -13.3390   19.2460 C   0  0  0  0  0  3  0  0  0  0  0  0
  -29.2900  -13.1850   20.1890 C   0  0  0  0  0  2  0  0  0  0  0  0
  -30.4950  -13.5460   19.4230 N   0  0  0  0  0  0  0  0  0  0  0  0
  -32.1570  -14.9760   18.8350 O   0  0  0  0  0  0  0  0  0  0  0  0
  -30.2900  -15.7850   19.9090 N   0  0  0  0  0  0  0  0  0  0  0  0
  -29.5520  -15.3930   20.4760 H   0  0  0  0  0  0  0  0  0  0  0  0
  -25.8760  -13.9530   20.4240 C   0  0  0  0  0  0  0  0  0  0  0  0
  -24.8450  -13.1840   20.8950 C   0  0  0  0  0  0  0  0  0  0  0  0
  -25.2190  -11.8280   20.6490 C   0  0  0  0  0  0  0  0  0  0  0  0
  -26.8150  -13.0630   19.9260 N   0  0  0  0  0  0  0  0  0  0  0  0
  -26.4340  -11.7740   20.1180 N   0  0  0  0  0  0  0  0  0  0  0  0
  -24.4680  -10.5790   20.8320 C   0  0  0  0  0  0  0  0  0  0  0  0
  -24.9090   -9.5760   21.7220 C   0  0  0  0  0  3  0  0  0  0  0  0
  -24.1600   -8.3930   21.8950 C   0  0  0  0  0  3  0  0  0  0  0  0
  -22.9560   -8.2050   21.1770 C   0  0  0  0  0  0  0  0  0  0  0  0
  -22.5330   -9.1960   20.2750 C   0  0  0  0  0  3  0  0  0  0  0  0
  -23.2830  -10.3710   20.1000 C   0  0  0  0  0  3  0  0  0  0  0  0
  -22.1770   -7.0760   21.2610 O   0  0  0  0  0  0  0  0  0  0  0  0
  -21.9920   -6.4160   22.4500 C   0  0  0  0  0  0  0  0  0  0  0  0
  -21.4190   -7.0500   23.5730 C   0  0  0  0  0  3  0  0  0  0  0  0
  -21.1830   -6.3160   24.7530 C   0  0  0  0  0  3  0  0  0  0  0  0
  -21.5130   -4.9480   24.8080 C   0  0  0  0  0  0  0  0  0  0  0  0
  -22.0790   -4.3130   23.6890 C   0  0  0  0  0  3  0  0  0  0  0  0
  -22.3160   -5.0460   22.5130 C   0  0  0  0  0  0  0  0  0  0  0  0
  -22.8430   -4.4250   21.4290 F   0  0  0  0  0  0  0  0  0  0  0  0
  -21.2810   -4.2390   25.9370 F   0  0  0  0  0  0  0  0  0  0  0  0
  -23.5430  -13.6820   21.4550 C   0  0  0  0  0  0  0  0  0  0  0  0
  -22.9510  -12.9410   22.3860 N   0  0  0  0  0  0  0  0  0  0  0  0
  -23.0630  -14.7580   21.1000 O   0  0  0  0  0  0  0  0  0  0  0  0
  -23.3530  -12.0670   22.6950 H   0  0  0  0  0  0  0  0  0  0  0  0
  -22.0860  -13.2570   22.8000 H   0  0  0  0  0  0  0  0  0  0  0  0
  -26.0860  -15.3270   20.3600 N   0  0  0  0  0  0  0  0  0  0  0  0
  -25.3940  -15.9980   20.6730 H   0  0  0  0  0  0  0  0  0  0  0  0
  -26.8970  -15.7620   19.9410 H   0  0  0  0  0  0  0  0  0  0  0  0
  -27.9530  -19.6340   21.6610 N   0  0  0  0  0  0  0  0  0  0  0  0
  -27.5270  -20.5220   21.4200 H   0  0  0  0  0  0  0  0  0  0  0  0
  -27.2750  -18.9290   21.9350 H   0  0  0  0  0  0  0  0  0  0  0  0
  -32.8360  -18.4570   17.4520 C   0  0  0  0  0  2  0  0  0  0  0  0
  -31.8420  -17.7240   17.9840 C   0  0  0  0  0  3  0  0  0  0  0  0
  -29.2050  -21.4970   20.0940 O   0  0  0  0  0  0  0  0  0  0  0  0
  -29.5150  -22.5890   19.1700 C   0  0  0  0  0  2  0  0  0  0  0  0
  -29.0010  -24.0230   19.6780 C   0  0  0  0  0  3  0  0  0  0  0  0
  -28.9750  -25.2630   18.6730 C   0  0  0  0  0  3  0  0  0  0  0  0
  -28.7920  -26.6430   19.1900 O   0  0  0  0  0  0  0  0  0  0  0  0
  -24.6770  -31.4000   22.7030 C   0  0  0  0  0  0  0  0  0  0  0  0
  -27.5760  -27.3480   19.2070 C   0  0  0  0  0  0  0  0  0  0  0  0
  -23.5570  -30.0930   20.9310 C   0  0  0  0  0  3  0  0  0  0  0  0
  -25.0970  -28.7790   19.3620 C   0  0  0  0  0  0  0  0  0  0  0  0
  -26.0670  -30.5900   20.7840 C   0  0  0  0  0  2  0  0  0  0  0  0
  -26.2310  -29.2880   20.0050 C   0  0  0  0  0  0  0  0  0  0  0  0
  -27.4650  -28.5820   19.9210 C   0  0  0  0  0  3  0  0  0  0  0  0
  -26.4120  -26.8810   18.5560 C   0  0  0  0  0  3  0  0  0  0  0  0
  -25.1890  -27.5810   18.6320 C   0  0  0  0  0  3  0  0  0  0  0  0
  -23.8050  -29.5620   19.4920 C   0  0  0  0  0  2  0  0  0  0  0  0
  -24.7840  -30.7100   21.5300 N   0  0  0  0  0  0  0  0  0  0  0  0
  -23.5810  -31.5550   23.2600 O   0  0  0  0  0  0  0  0  0  0  0  0
  -22.9630  -28.9520   21.7890 C   0  0  0  0  0  0  0  0  0  0  0  0
  -21.6400  -28.7460   21.6910 N   0  0  0  0  0  0  0  0  0  0  0  0
  -23.6940  -28.2570   22.5020 O   0  0  0  0  0  0  0  0  0  0  0  0
  -21.1080  -29.3600   21.0880 H   0  0  0  0  0  0  0  0  0  0  0  0
  -18.3130  -27.4370   22.2330 C   0  0  0  0  0  0  0  0  0  0  0  0
  -20.8810  -27.6990   22.3750 C   0  0  0  0  0  3  0  0  0  0  0  0
  -20.9580  -26.3640   21.5990 C   0  0  0  0  0  2  0  0  0  0  0  0
  -19.7940  -26.1670   20.6220 C   0  0  0  0  0  2  0  0  0  0  0  0
  -18.4560  -26.1970   21.3650 C   0  0  0  0  0  2  0  0  0  0  0  0
  -19.4510  -28.1490   22.6940 C   0  0  0  0  0  0  0  0  0  0  0  0
  -19.2610  -29.3140   23.4690 C   0  0  0  0  0  3  0  0  0  0  0  0
  -17.9660  -29.7660   23.7860 C   0  0  0  0  0  3  0  0  0  0  0  0
  -16.8430  -29.0460   23.3400 C   0  0  0  0  0  3  0  0  0  0  0  0
  -17.0180  -27.8830   22.5700 C   0  0  0  0  0  3  0  0  0  0  0  0
  -25.9210  -32.0490   23.3850 C   0  0  0  0  0  3  0  0  0  0  0  0
  -25.5190  -33.3770   23.8730 N   0  0  0  0  0  0  0  0  0  0  0  0
  -25.7740  -34.5300   23.2400 C   0  0  0  0  0  0  0  0  0  0  0  0
  -26.4420  -34.5920   22.2040 O   0  0  0  0  0  0  0  0  0  0  0  0
  -24.9220  -33.3990   24.6860 H   0  0  0  0  0  0  0  0  0  0  0  0
  -23.9250  -36.2280   23.1000 C   0  0  0  0  0  1  0  0  0  0  0  0
  -25.1990  -35.8210   23.8560 C   0  0  0  0  0  3  0  0  0  0  0  0
  -27.2680  -36.7550   24.7900 C   0  0  0  0  0  1  0  0  0  0  0  0
  -26.1560  -36.9490   23.8640 N   0  0  0  0  0  0  0  0  0  0  0  0
  -25.6870  -37.8170   24.1080 H   0  0  0  0  0  0  0  0  0  0  0  0
  -26.5070  -31.1800   24.5660 C   0  0  1  0  0  0  0  0  0  0  0  0
  -25.4480  -30.7590   25.6100 C   0  0  0  0  0  1  0  0  0  0  0  0
  -27.1690  -29.8920   24.0190 C   0  0  0  0  0  1  0  0  0  0  0  0
  -27.6170  -31.9700   25.2960 C   0  0  0  0  0  1  0  0  0  0  0  0
  1  5  1  0
  2  1  2  0
  2  3  1  0
  3 16  1  0
  3  6  2  0
  4 46  1  0
  5 51  1  0
  5  4  2  0
  6  4  1  0
  6  7  1  0
  8 14  1  0
  8 16  1  0
  9 14  1  0
 10 11  1  0
 10  9  1  0
 12 11  1  0
 12 21  1  0
 12 13  1  0
 14 13  1  0
 15  8  2  0
 16 17  1  0
 18 19  2  0
 19 38  1  0
 20 23  1  0
 20 19  1  0
 21 22  1  0
 21 18  1  0
 22 20  2  0
 23 24  1  0
 24 25  2  0
 26 29  1  0
 26 25  1  0
 27 26  2  0
 28 27  1  0
 28 23  2  0
 29 30  1  0
 30 35  2  0
 30 31  1  0
 31 32  2  0
 32 33  1  0
 33 37  1  0
 34 33  2  0
 35 34  1  0
 36 35  1  0
 38 39  1  0
 39 41  1  0
 39 42  1  0
 40 38  2  0
 43 18  1  0
 43 44  1  0
 45 43  1  0
 46 48  1  0
 47 46  1  0
 49 50  2  0
 50  2  1  0
 52 53  1  0
 52 51  1  0
 54 55  1  0
 54 53  2  0
 55 57  1  0
 56 67  2  0
 57 62  1  0
 58 66  1  0
 58 68  1  0
 59 65  1  0
 59 61  1  0
 60 66  1  0
 61 60  1  0
 62 61  2  0
 63 64  1  0
 63 57  2  0
 64 59  2  0
 65 58  1  0
 66 56  1  0
 68 70  2  0
 69 68  1  0
 71 69  1  0
 72 81  2  0
 72 77  1  0
 73 69  1  0
 73 77  1  0
 74 73  1  0
 75 76  1  0
 75 74  1  0
 76 72  1  0
 77 78  2  0
 78 79  1  0
 80 79  2  0
 81 80  1  0
 82 56  1  0
 82 83  1  0
 82 92  1  0
 83 86  1  0
 84 88  1  0
 84 83  1  0
 85 84  2  0
 88 87  1  0
 88 90  1  0
 90 91  1  0
 90 89  1  0
 92 95  1  1
 92 93  1  0
 94 92  1  0
M  ISO  4   8 100  16 100  54 101  55 101
M  END
>  <TORSDO>  (37) 
F 22

>  <SCORE>  (37) 
-8.959

>  <name>  (37) 
36

>  <ligand_id>  (37) 
36

>  <original_smiles>  (37) 
[H]C([H])=C([H])c1c([H])c(OC([H])([H])C([H])([H])C([H])([H])Oc2c([H])c([H])c3c(c2[H])C([H])([H])N(C(=O)C([H])(N([H])C(=O)C([H])(N([H])C([H])([H])[H])C([H])([H])[H])C(C([H])([H])[H])(C([H])([H])[H])C([H])([H])[H])C([H])(C(=O)N([H])C2([H])c4c([H])c([H])c([H])c([H])c4C([H])([H])C([H])([H])C2([H])[H])C3([H])[H])c(N([H])[H])c(F)c1N([H])C(=O)N1C([H])([H])C([H])([H])C([H])([H])C([H])(n2nc(-c3c([H])c([H])c(Oc4c([H])c([H])c(F)c([H])c4F)c([H])c3[H])c(C(=O)N([H])[H])c2N([H])[H])C1([H])[H]

>  <smiles>  (37) 
[H]C([H])=C([H])c1c([H])c(OC([H])([H])C([H])([H])C([H])([H])Oc2c([H])c([H])c3c(c2[H])C([H])([H])N(C(=O)C([H])(N([H])C(=O)C([H])(N([H])C([H])([H])[H])C([H])([H])[H])C(C([H])([H])[H])(C([H])([H])[H])C([H])([H])[H])C([H])(C(=O)N([H])C2([H])c4c([H])c([H])c([H])c([H])c4C([H])([H])C([H])([H])C2([H])[H])C3([H])[H])c(N([H])[H])c(F)c1N([H])C(=O)N1C([H])([H])C([H])([H])C([H])([H])C([H])(n2nc(-c3c([H])c([H])c(Oc4c([H])c([H])c(F)c([H])c4F)c([H])c3[H])c(C(=O)N([H])[H])c2N([H])[H])C1([H])[H]

$$$$
37:0:0
     RDKit          3D

 95103  0  0  1  0  0  0  0  0999 V2000
  -29.4800  -20.0470   21.0470 C   0  0  0  0  0  3  0  0  0  0  0  0
  -31.2100  -20.3790   19.3790 C   0  0  0  0  0  3  0  0  0  0  0  0
  -30.2740  -18.1260   19.7410 C   0  0  0  0  0  0  0  0  0  0  0  0
  -29.4280  -18.6670   20.7510 C   0  0  0  0  0  0  0  0  0  0  0  0
  -30.3350  -20.9190   20.3450 C   0  0  0  0  0  0  0  0  0  0  0  0
  -31.1850  -19.0030   19.0830 C   0  0  0  0  0  0  0  0  0  0  0  0
  -28.4110  -17.8240   21.5060 C   0  0  0  0  0  1  0  0  0  0  0  0
  -32.0570  -18.5410   18.1550 F   0  0  0  0  0  0  0  0  0  0  0  0
  -30.9900  -14.5910   20.0030 C   0  0  0  0  0  0  0  0  0  0  0  0
  -30.5950  -12.4330   18.9220 C   0  0  0  0  0  2  0  0  0  0  0  0
  -29.5860  -12.5980   17.7680 C   0  0  0  0  0  2  0  0  0  0  0  0
  -28.1480  -12.4370   18.3020 C   0  0  0  0  0  2  0  0  0  0  0  0
  -27.8640  -13.3280   19.5410 C   0  0  0  0  0  3  0  0  0  0  0  0
  -28.9820  -13.1770   20.5990 C   0  0  0  0  0  2  0  0  0  0  0  0
  -30.2760  -13.4360   19.9470 N   0  0  0  0  0  0  0  0  0  0  0  0
  -32.1520  -14.6670   19.5940 O   0  0  0  0  0  0  0  0  0  0  0  0
  -30.2010  -16.6820   19.2870 C   0  0  0  0  0  0  0  0  0  0  0  0
  -30.2940  -15.7160   20.2250 N   0  0  0  0  0  0  0  0  0  0  0  0
  -30.0840  -16.4240   18.0830 O   0  0  0  0  0  0  0  0  0  0  0  0
  -30.2540  -16.0240   21.1820 H   0  0  0  0  0  0  0  0  0  0  0  0
  -25.5150  -13.9240   20.4180 C   0  0  0  0  0  0  0  0  0  0  0  0
  -24.4620  -13.1510   20.8270 C   0  0  0  0  0  0  0  0  0  0  0  0
  -24.9120  -11.7980   20.7320 C   0  0  0  0  0  0  0  0  0  0  0  0
  -26.5410  -13.0460   20.1010 N   0  0  0  0  0  0  0  0  0  0  0  0
  -26.1850  -11.7580   20.3530 N   0  0  0  0  0  0  0  0  0  0  0  0
  -24.1930  -10.5340   20.9280 C   0  0  0  0  0  0  0  0  0  0  0  0
  -24.6130   -9.5850   21.8850 C   0  0  0  0  0  3  0  0  0  0  0  0
  -23.8950   -8.3820   22.0620 C   0  0  0  0  0  3  0  0  0  0  0  0
  -22.7390   -8.1240   21.2880 C   0  0  0  0  0  0  0  0  0  0  0  0
  -22.3380   -9.0630   20.3240 C   0  0  0  0  0  3  0  0  0  0  0  0
  -23.0570  -10.2570   20.1440 C   0  0  0  0  0  3  0  0  0  0  0  0
  -21.9920   -6.9740   21.3770 O   0  0  0  0  0  0  0  0  0  0  0  0
  -21.8240   -6.3150   22.5690 C   0  0  0  0  0  0  0  0  0  0  0  0
  -21.2240   -6.9380   23.6860 C   0  0  0  0  0  3  0  0  0  0  0  0
  -21.0080   -6.2040   24.8690 C   0  0  0  0  0  3  0  0  0  0  0  0
  -21.3810   -4.8480   24.9360 C   0  0  0  0  0  0  0  0  0  0  0  0
  -21.9750   -4.2260   23.8240 C   0  0  0  0  0  3  0  0  0  0  0  0
  -22.1940   -4.9580   22.6430 C   0  0  0  0  0  0  0  0  0  0  0  0
  -22.7460   -4.3460   21.5680 F   0  0  0  0  0  0  0  0  0  0  0  0
  -21.1660   -4.1430   26.0700 F   0  0  0  0  0  0  0  0  0  0  0  0
  -23.0860  -13.6270   21.1890 C   0  0  0  0  0  0  0  0  0  0  0  0
  -22.4050  -12.9210   22.0830 N   0  0  0  0  0  0  0  0  0  0  0  0
  -22.6300  -14.6630   20.7100 O   0  0  0  0  0  0  0  0  0  0  0  0
  -22.7940  -12.0870   22.4940 H   0  0  0  0  0  0  0  0  0  0  0  0
  -21.4840  -13.2250   22.3590 H   0  0  0  0  0  0  0  0  0  0  0  0
  -25.6820  -15.2980   20.2670 N   0  0  0  0  0  0  0  0  0  0  0  0
  -24.9220  -15.9520   20.4270 H   0  0  0  0  0  0  0  0  0  0  0  0
  -26.5140  -15.7380   19.8940 H   0  0  0  0  0  0  0  0  0  0  0  0
  -30.0220  -23.2650   19.6950 C   0  0  0  0  0  0  0  0  0  0  0  0
  -30.2960  -22.3150   20.6160 N   0  0  0  0  0  0  0  0  0  0  0  0
  -29.7600  -22.9850   18.5210 O   0  0  0  0  0  0  0  0  0  0  0  0
  -30.3690  -22.6010   21.5840 H   0  0  0  0  0  0  0  0  0  0  0  0
  -30.0210  -24.7350   20.1360 C   0  0  0  0  0  2  0  0  0  0  0  0
  -28.8460  -25.5180   19.5190 C   0  0  0  0  0  2  0  0  0  0  0  0
  -28.7850  -26.8510   20.0380 O   0  0  0  0  0  0  0  0  0  0  0  0
  -24.7400  -31.7060   23.2830 C   0  0  0  0  0  0  0  0  0  0  0  0
  -27.5750  -27.5130   20.0150 C   0  0  0  0  0  0  0  0  0  0  0  0
  -23.6140  -30.3730   21.5250 C   0  0  0  0  0  3  0  0  0  0  0  0
  -25.1400  -28.9480   20.0600 C   0  0  0  0  0  0  0  0  0  0  0  0
  -26.1330  -30.7860   21.4360 C   0  0  0  0  0  2  0  0  0  0  0  0
  -26.2650  -29.4570   20.7230 C   0  0  0  0  0  0  0  0  0  0  0  0
  -27.4830  -28.7430   20.7050 C   0  0  0  0  0  3  0  0  0  0  0  0
  -26.4390  -27.0310   19.3260 C   0  0  0  0  0  3  0  0  0  0  0  0
  -25.2170  -27.7310   19.3630 C   0  0  0  0  0  3  0  0  0  0  0  0
  -23.8790  -29.7790   20.1200 C   0  0  0  0  0  2  0  0  0  0  0  0
  -24.8430  -30.9720   22.1380 N   0  0  0  0  0  0  0  0  0  0  0  0
  -23.6440  -31.9270   23.8100 O   0  0  0  0  0  0  0  0  0  0  0  0
  -22.9570  -29.2880   22.4070 C   0  0  0  0  0  0  0  0  0  0  0  0
  -21.6430  -29.0930   22.2360 N   0  0  0  0  0  0  0  0  0  0  0  0
  -23.6330  -28.6190   23.1910 O   0  0  0  0  0  0  0  0  0  0  0  0
  -21.1620  -29.6880   21.5760 H   0  0  0  0  0  0  0  0  0  0  0  0
  -18.2720  -27.8210   22.5920 C   0  0  0  0  0  0  0  0  0  0  0  0
  -20.8220  -28.0940   22.9220 C   0  0  0  0  0  3  0  0  0  0  0  0
  -20.9520  -26.7060   22.2490 C   0  0  0  0  0  2  0  0  0  0  0  0
  -19.8680  -26.4410   21.1990 C   0  0  0  0  0  2  0  0  0  0  0  0
  -18.4760  -26.5220   21.8310 C   0  0  0  0  0  2  0  0  0  0  0  0
  -19.3750  -28.5670   23.0900 C   0  0  0  0  0  0  0  0  0  0  0  0
  -19.1320  -29.7850   23.7630 C   0  0  0  0  0  3  0  0  0  0  0  0
  -17.8180  -30.2560   23.9420 C   0  0  0  0  0  3  0  0  0  0  0  0
  -16.7280  -29.5120   23.4540 C   0  0  0  0  0  3  0  0  0  0  0  0
  -16.9590  -28.2950   22.7870 C   0  0  0  0  0  3  0  0  0  0  0  0
  -25.9950  -32.3190   23.9750 C   0  0  0  0  0  3  0  0  0  0  0  0
  -26.4490  -31.5200   25.2600 C   0  0  1  0  0  0  0  0  0  0  0  0
  -25.3050  -31.2610   26.2680 C   0  0  0  0  0  1  0  0  0  0  0  0
  -27.0560  -30.1530   24.8700 C   0  0  0  0  0  1  0  0  0  0  0  0
  -27.5730  -32.2960   25.9860 C   0  0  0  0  0  1  0  0  0  0  0  0
  -25.6850  -33.7150   24.3100 N   0  0  0  0  0  0  0  0  0  0  0  0
  -26.0170  -34.7700   23.5520 C   0  0  0  0  0  0  0  0  0  0  0  0
  -26.6950  -34.6710   22.5250 O   0  0  0  0  0  0  0  0  0  0  0  0
  -25.1090  -33.8660   25.1280 H   0  0  0  0  0  0  0  0  0  0  0  0
  -24.2760  -36.5430   23.1920 C   0  0  0  0  0  1  0  0  0  0  0  0
  -25.5230  -36.1550   24.0030 C   0  0  0  0  0  3  0  0  0  0  0  0
  -27.6430  -37.0740   24.8370 C   0  0  0  0  0  1  0  0  0  0  0  0
  -26.5490  -37.2170   23.8820 N   0  0  0  0  0  0  0  0  0  0  0  0
  -26.1340  -38.1370   24.0170 H   0  0  0  0  0  0  0  0  0  0  0  0
  2  5  1  0
  3  4  2  0
  4  1  1  0
  4  7  1  0
  5 50  1  0
  5  1  2  0
  6  2  2  0
  6  3  1  0
  8  6  1  0
  9 18  1  0
 10 15  1  0
 11 12  1  0
 11 10  1  0
 13 12  1  0
 13 24  1  0
 13 14  1  0
 15  9  1  0
 15 14  1  0
 16  9  2  0
 17  3  1  0
 17 18  1  0
 18 20  1  0
 19 17  2  0
 21 22  2  0
 22 41  1  0
 23 22  1  0
 23 26  1  0
 24 25  1  0
 24 21  1  0
 25 23  2  0
 26 27  1  0
 27 28  2  0
 29 32  1  0
 29 28  1  0
 30 29  2  0
 31 30  1  0
 31 26  2  0
 32 33  1  0
 33 38  2  0
 33 34  1  0
 34 35  2  0
 35 36  1  0
 36 40  1  0
 37 36  2  0
 38 37  1  0
 39 38  1  0
 41 42  1  0
 42 45  1  0
 42 44  1  0
 43 41  2  0
 46 21  1  0
 46 47  1  0
 48 46  1  0
 49 53  1  0
 49 50  1  0
 50 52  1  0
 51 49  2  0
 54 55  1  0
 54 53  1  0
 56 67  2  0
 57 55  1  0
 57 62  1  0
 58 66  1  0
 58 68  1  0
 59 65  1  0
 59 61  1  0
 60 66  1  0
 61 60  1  0
 62 61  2  0
 63 64  1  0
 63 57  2  0
 64 59  2  0
 65 58  1  0
 66 56  1  0
 68 70  2  0
 69 68  1  0
 71 69  1  0
 72 81  2  0
 72 77  1  0
 73 69  1  0
 73 77  1  0
 74 73  1  0
 75 76  1  0
 75 74  1  0
 76 72  1  0
 77 78  2  0
 78 79  1  0
 80 79  2  0
 81 80  1  0
 82 56  1  0
 82 87  1  0
 82 83  1  0
 83 86  1  1
 83 84  1  0
 85 83  1  0
 87 90  1  0
 88 92  1  0
 88 87  1  0
 89 88  2  0
 92 91  1  0
 94 92  1  0
 94 95  1  0
 94 93  1  0
M  ISO  4   9 100  18 100  54 101  55 101
M  END
>  <TORSDO>  (38) 
F 19

>  <SCORE>  (38) 
-11.968

>  <name>  (38) 
37

>  <ligand_id>  (38) 
37

>  <original_smiles>  (38) 
[H]c1c([H])c([H])c2c(c1[H])C([H])([H])C([H])([H])C([H])([H])C2([H])N([H])C(=O)C1([H])N(C(=O)C([H])(N([H])C(=O)C([H])(N([H])C([H])([H])[H])C([H])([H])[H])C(C([H])([H])[H])(C([H])([H])[H])C([H])([H])[H])C([H])([H])c2c([H])c(OC([H])([H])C([H])([H])C(=O)N([H])c3c([H])c(F)c(C(=O)N([H])C(=O)N4C([H])([H])C([H])([H])C([H])([H])C([H])(n5nc(-c6c([H])c([H])c(Oc7c([H])c([H])c(F)c([H])c7F)c([H])c6[H])c(C(=O)N([H])[H])c5N([H])[H])C4([H])[H])c(C([H])([H])[H])c3[H])c([H])c([H])c2C1([H])[H]

>  <smiles>  (38) 
[H]c1c([H])c([H])c2c(c1[H])C([H])([H])C([H])([H])C([H])([H])C2([H])N([H])C(=O)C1([H])N(C(=O)C([H])(N([H])C(=O)C([H])(N([H])C([H])([H])[H])C([H])([H])[H])C(C([H])([H])[H])(C([H])([H])[H])C([H])([H])[H])C([H])([H])c2c([H])c(OC([H])([H])C([H])([H])C(=O)N([H])c3c([H])c(F)c(C(=O)N([H])C(=O)N4C([H])([H])C([H])([H])C([H])([H])C([H])(n5nc(-c6c([H])c([H])c(Oc7c([H])c([H])c(F)c([H])c7F)c([H])c6[H])c(C(=O)N([H])[H])c5N([H])[H])C4([H])[H])c(C([H])([H])[H])c3[H])c([H])c([H])c2C1([H])[H]

$$$$
38:0:0
     RDKit          3D

 98107  0  0  1  0  0  0  0  0999 V2000
  -31.2250  -19.5430   20.9780 C   0  0  0  0  0  3  0  0  0  0  0  0
  -31.3630  -18.1410   20.7660 C   0  0  0  0  0  3  0  0  0  0  0  0
  -28.8310  -19.3420   20.8850 C   0  0  0  0  0  3  0  0  0  0  0  0
  -29.9580  -20.1950   21.0290 C   0  0  0  0  0  0  0  0  0  0  0  0
  -30.2380  -17.2950   20.5860 C   0  0  0  0  0  0  0  0  0  0  0  0
  -28.9660  -17.9340   20.6790 C   0  0  0  0  0  0  0  0  0  0  0  0
  -30.8950  -14.8630   20.8030 C   0  0  0  0  0  0  0  0  0  0  0  0
  -30.7310  -12.5260   19.9620 C   0  0  0  0  0  2  0  0  0  0  0  0
  -29.8750  -12.4120   18.6800 C   0  0  0  0  0  2  0  0  0  0  0  0
  -28.3760  -12.3160   19.0110 C   0  0  0  0  0  2  0  0  0  0  0  0
  -27.9010  -13.3190   20.0990 C   0  0  0  0  0  3  0  0  0  0  0  0
  -28.8830  -13.3810   21.2880 C   0  0  0  0  0  2  0  0  0  0  0  0
  -30.2130  -13.6690   20.7340 N   0  0  0  0  0  0  0  0  0  0  0  0
  -32.1110  -14.8580   20.9950 O   0  0  0  0  0  0  0  0  0  0  0  0
  -30.6030  -15.9060   18.7070 C   0  0  0  0  0  0  0  0  0  0  0  0
  -29.9320  -16.9380   17.7910 C   0  0  0  0  0  1  0  0  0  0  0  0
  -30.3890  -15.9260   20.0640 N   0  0  0  0  0  0  0  0  0  0  0  0
  -31.4220  -15.1700   18.1420 O   0  0  0  0  0  0  0  0  0  0  0  0
  -25.4520  -13.9060   20.6200 C   0  0  0  0  0  0  0  0  0  0  0  0
  -24.3640  -13.1310   20.9080 C   0  0  0  0  0  0  0  0  0  0  0  0
  -24.8430  -11.7870   20.9710 C   0  0  0  0  0  0  0  0  0  0  0  0
  -26.5260  -13.0370   20.5110 N   0  0  0  0  0  0  0  0  0  0  0  0
  -26.1590  -11.7590   20.7930 N   0  0  0  0  0  0  0  0  0  0  0  0
  -24.1160  -10.5240   21.1360 C   0  0  0  0  0  0  0  0  0  0  0  0
  -24.4860   -9.5820   22.1200 C   0  0  0  0  0  3  0  0  0  0  0  0
  -23.7570   -8.3830   22.2720 C   0  0  0  0  0  3  0  0  0  0  0  0
  -22.6450   -8.1170   21.4390 C   0  0  0  0  0  0  0  0  0  0  0  0
  -22.2950   -9.0470   20.4450 C   0  0  0  0  0  3  0  0  0  0  0  0
  -23.0250  -10.2370   20.2910 C   0  0  0  0  0  3  0  0  0  0  0  0
  -21.8920   -6.9690   21.5000 O   0  0  0  0  0  0  0  0  0  0  0  0
  -21.7770   -6.2450   22.6590 C   0  0  0  0  0  0  0  0  0  0  0  0
  -21.2360   -6.8060   23.8370 C   0  0  0  0  0  3  0  0  0  0  0  0
  -21.0710   -6.0070   24.9860 C   0  0  0  0  0  3  0  0  0  0  0  0
  -21.4350   -4.6470   24.9580 C   0  0  0  0  0  0  0  0  0  0  0  0
  -21.9700   -4.0860   23.7850 C   0  0  0  0  0  3  0  0  0  0  0  0
  -22.1370   -4.8820   22.6390 C   0  0  0  0  0  0  0  0  0  0  0  0
  -22.6340   -4.3320   21.5050 F   0  0  0  0  0  0  0  0  0  0  0  0
  -21.2710   -3.8770   26.0580 F   0  0  0  0  0  0  0  0  0  0  0  0
  -22.9430  -13.5990   21.0270 C   0  0  0  0  0  0  0  0  0  0  0  0
  -22.1500  -12.9450   21.8680 N   0  0  0  0  0  0  0  0  0  0  0  0
  -22.5400  -14.5840   20.4110 O   0  0  0  0  0  0  0  0  0  0  0  0
  -22.4870  -12.1530   22.3950 H   0  0  0  0  0  0  0  0  0  0  0  0
  -21.1940  -13.2450   21.9900 H   0  0  0  0  0  0  0  0  0  0  0  0
  -25.6020  -15.2720   20.4250 N   0  0  0  0  0  0  0  0  0  0  0  0
  -24.8140  -15.8950   20.5590 H   0  0  0  0  0  0  0  0  0  0  0  0
  -26.4910  -15.7640   20.4950 H   0  0  0  0  0  0  0  0  0  0  0  0
  -30.4020  -22.1570   22.4090 C   0  0  0  0  0  0  0  0  0  0  0  0
  -30.5400  -23.6740   22.5950 C   0  0  0  0  0  2  0  0  0  0  0  0
  -29.4060  -24.4940   21.9720 C   0  0  0  0  0  2  0  0  0  0  0  0
  -28.9950  -22.5540   20.4070 C   0  0  0  0  0  2  0  0  0  0  0  0
  -29.2420  -24.1350   20.4980 C   0  0  0  0  0  3  0  0  0  0  0  0
  -29.8520  -21.6490   21.2690 N   0  0  0  0  0  0  0  0  0  0  0  0
  -30.8310  -21.4460   23.3260 O   0  0  0  0  0  0  0  0  0  0  0  0
  -28.1700  -25.0910   19.8160 C   0  0  0  0  0  2  0  0  0  0  0  0
  -28.3770  -26.5570   19.8650 O   0  0  0  0  0  0  0  0  0  0  0  0
  -24.5210  -31.7710   23.0060 C   0  0  0  0  0  0  0  0  0  0  0  0
  -27.2400  -27.3800   19.8190 C   0  0  0  0  0  0  0  0  0  0  0  0
  -23.3540  -30.4060   21.3130 C   0  0  0  0  0  3  0  0  0  0  0  0
  -24.8430  -28.9370   19.8430 C   0  0  0  0  0  0  0  0  0  0  0  0
  -25.8870  -30.7840   21.1540 C   0  0  0  0  0  2  0  0  0  0  0  0
  -25.9980  -29.4320   20.4610 C   0  0  0  0  0  0  0  0  0  0  0  0
  -27.1990  -28.6660   20.4390 C   0  0  0  0  0  3  0  0  0  0  0  0
  -26.0610  -26.9410   19.1730 C   0  0  0  0  0  3  0  0  0  0  0  0
  -24.8760  -27.6970   19.1900 C   0  0  0  0  0  3  0  0  0  0  0  0
  -23.5890  -29.7830   19.9120 C   0  0  0  0  0  2  0  0  0  0  0  0
  -24.6070  -31.0030   21.8820 N   0  0  0  0  0  0  0  0  0  0  0  0
  -23.4300  -32.0110   23.5430 O   0  0  0  0  0  0  0  0  0  0  0  0
  -22.7080  -29.3440   22.2330 C   0  0  0  0  0  0  0  0  0  0  0  0
  -21.3740  -29.1980   22.1430 N   0  0  0  0  0  0  0  0  0  0  0  0
  -23.4020  -28.6590   22.9890 O   0  0  0  0  0  0  0  0  0  0  0  0
  -20.8760  -29.8010   21.5050 H   0  0  0  0  0  0  0  0  0  0  0  0
  -17.9860  -28.0810   22.7410 C   0  0  0  0  0  0  0  0  0  0  0  0
  -20.5640  -28.2320   22.8860 C   0  0  0  0  0  3  0  0  0  0  0  0
  -20.5800  -26.8470   22.2000 C   0  0  0  0  0  2  0  0  0  0  0  0
  -19.4130  -26.6400   21.2280 C   0  0  0  0  0  2  0  0  0  0  0  0
  -18.0740  -26.7820   21.9560 C   0  0  0  0  0  2  0  0  0  0  0  0
  -19.1550  -28.7700   23.1640 C   0  0  0  0  0  0  0  0  0  0  0  0
  -19.0160  -29.9900   23.8600 C   0  0  0  0  0  3  0  0  0  0  0  0
  -17.7420  -30.5200   24.1360 C   0  0  0  0  0  3  0  0  0  0  0  0
  -16.5880  -29.8270   23.7290 C   0  0  0  0  0  3  0  0  0  0  0  0
  -16.7120  -28.6090   23.0380 C   0  0  0  0  0  3  0  0  0  0  0  0
  -25.7890  -32.4050   23.6560 C   0  0  0  0  0  3  0  0  0  0  0  0
  -26.3310  -31.5840   24.8900 C   0  0  1  0  0  0  0  0  0  0  0  0
  -25.2490  -31.2690   25.9500 C   0  0  0  0  0  1  0  0  0  0  0  0
  -26.9440  -30.2410   24.4280 C   0  0  0  0  0  1  0  0  0  0  0  0
  -27.4670  -32.3710   25.5850 C   0  0  0  0  0  1  0  0  0  0  0  0
  -25.4430  -33.7750   24.0600 N   0  0  0  0  0  0  0  0  0  0  0  0
  -25.7930  -34.8800   23.3870 C   0  0  0  0  0  0  0  0  0  0  0  0
  -26.5120  -34.8510   22.3830 O   0  0  0  0  0  0  0  0  0  0  0  0
  -24.8100  -33.8700   24.8420 H   0  0  0  0  0  0  0  0  0  0  0  0
  -24.0910  -36.6960   23.0270 C   0  0  0  0  0  1  0  0  0  0  0  0
  -25.2620  -36.2300   23.9070 C   0  0  0  0  0  3  0  0  0  0  0  0
  -27.3090  -37.0510   24.9860 C   0  0  0  0  0  1  0  0  0  0  0  0
  -26.2970  -37.2860   23.9610 N   0  0  0  0  0  0  0  0  0  0  0  0
  -25.8750  -38.1950   24.1340 H   0  0  0  0  0  0  0  0  0  0  0  0
  -27.8190  -17.1720   20.4830 N   0  0  0  0  0  0  0  0  0  0  0  0
  -26.9790  -17.6970   20.2660 H   0  0  0  0  0  0  0  0  0  0  0  0
  -27.9390  -16.3960   19.8470 H   0  0  0  0  0  0  0  0  0  0  0  0
  1  4  1  0
  2  1  2  0
  3  4  2  0
  4 52  1  0
  5  6  2  0
  5  2  1  0
  6  3  1  0
  7 14  2  0
  8 13  1  0
  9 10  1  0
  9  8  1  0
 11 10  1  0
 11 22  1  0
 11 12  1  0
 13  7  1  0
 13 12  1  0
 15 17  1  0
 16 15  1  0
 17  5  1  0
 17  7  1  0
 18 15  2  0
 19 20  2  0
 20 21  1  0
 20 39  1  0
 21 24  1  0
 22 19  1  0
 22 23  1  0
 23 21  2  0
 24 25  1  0
 25 26  2  0
 27 30  1  0
 27 26  1  0
 28 27  2  0
 29 28  1  0
 29 24  2  0
 30 31  1  0
 31 32  1  0
 32 33  2  0
 34 33  1  0
 34 38  1  0
 35 34  2  0
 36 31  2  0
 36 35  1  0
 37 36  1  0
 39 40  1  0
 40 43  1  0
 40 42  1  0
 41 39  2  0
 44 46  1  0
 44 45  1  0
 44 19  1  0
 47 48  1  0
 47 53  2  0
 49 48  1  0
 50 51  1  0
 50 52  1  0
 51 54  1  0
 51 49  1  0
 52 47  1  0
 54 55  1  0
 56 67  2  0
 57 55  1  0
 57 62  1  0
 58 66  1  0
 58 68  1  0
 59 65  1  0
 59 61  1  0
 60 66  1  0
 61 60  1  0
 62 61  2  0
 63 64  1  0
 63 57  2  0
 64 59  2  0
 65 58  1  0
 66 56  1  0
 68 70  2  0
 69 68  1  0
 71 69  1  0
 72 81  2  0
 72 77  1  0
 73 69  1  0
 73 77  1  0
 74 73  1  0
 75 76  1  0
 75 74  1  0
 76 72  1  0
 77 78  2  0
 78 79  1  0
 80 79  2  0
 81 80  1  0
 82 56  1  0
 82 87  1  0
 82 83  1  0
 83 86  1  1
 83 84  1  0
 85 83  1  0
 87 90  1  0
 88 92  1  0
 88 87  1  0
 89 88  2  0
 92 91  1  0
 92 94  1  0
 94 95  1  0
 94 93  1  0
 96  6  1  0
 97 96  1  0
 98 96  1  0
M  ISO  4   7 100  17 100  54 101  55 101
M  END
>  <TORSDO>  (39) 
F 19

>  <SCORE>  (39) 
-13.355

>  <name>  (39) 
38

>  <ligand_id>  (39) 
38

>  <original_smiles>  (39) 
[H]c1c([H])c([H])c2c(c1[H])C([H])([H])C([H])([H])C([H])([H])C2([H])N([H])C(=O)C1([H])N(C(=O)C([H])(N([H])C(=O)C([H])(N([H])C([H])([H])[H])C([H])([H])[H])C(C([H])([H])[H])(C([H])([H])[H])C([H])([H])[H])C([H])([H])c2c([H])c(OC([H])([H])C3([H])C([H])([H])N(c4c([H])c([H])c(N(C(=O)N5C([H])([H])C([H])([H])C([H])([H])C([H])(n6nc(-c7c([H])c([H])c(Oc8c([H])c([H])c(F)c([H])c8F)c([H])c7[H])c(C(=O)N([H])[H])c6N([H])[H])C5([H])[H])C(=O)C([H])([H])[H])c(N([H])[H])c4[H])C(=O)C([H])([H])C3([H])[H])c([H])c([H])c2C1([H])[H]

>  <smiles>  (39) 
[H]c1c([H])c([H])c2c(c1[H])C([H])([H])C([H])([H])C([H])([H])C2([H])N([H])C(=O)C1([H])N(C(=O)C([H])(N([H])C(=O)C([H])(N([H])C([H])([H])[H])C([H])([H])[H])C(C([H])([H])[H])(C([H])([H])[H])C([H])([H])[H])C([H])([H])c2c([H])c(OC([H])([H])C3([H])C([H])([H])N(c4c([H])c([H])c(N(C(=O)N5C([H])([H])C([H])([H])C([H])([H])C([H])(n6nc(-c7c([H])c([H])c(Oc8c([H])c([H])c(F)c([H])c8F)c([H])c7[H])c(C(=O)N([H])[H])c6N([H])[H])C5([H])[H])C(=O)C([H])([H])[H])c(N([H])[H])c4[H])C(=O)C([H])([H])C3([H])[H])c([H])c([H])c2C1([H])[H]

$$$$
39:0:0
     RDKit          3D

 91 99  0  0  1  0  0  0  0  0999 V2000
  -30.0380  -18.8900   21.3590 C   0  0  0  0  0  3  0  0  0  0  0  0
  -29.6990  -18.5630   19.0510 C   0  0  0  0  0  3  0  0  0  0  0  0
  -29.9520  -17.9170   20.2990 C   0  0  0  0  0  0  0  0  0  0  0  0
  -29.8450  -20.3280   21.2220 C   0  0  0  0  0  0  0  0  0  0  0  0
  -29.5070  -20.9470   19.9690 C   0  0  0  0  0  0  0  0  0  0  0  0
  -29.4840  -19.9840   18.9020 C   0  0  0  0  0  0  0  0  0  0  0  0
  -29.9500  -21.1740   22.4800 C   0  0  0  0  0  1  0  0  0  0  0  0
  -29.1910  -20.4370   17.6580 F   0  0  0  0  0  0  0  0  0  0  0  0
  -29.7390  -16.3540   20.5760 C   0  0  0  0  0  0  0  0  0  0  0  0
  -28.7130  -16.1700   21.2940 N   0  0  0  0  0  0  0  0  0  0  0  0
  -28.2750  -17.0530   21.5250 H   0  0  0  0  0  0  0  0  0  0  0  0
  -30.6290  -15.0470   20.0700 C   0  0  0  0  0  0  0  0  0  0  0  0
  -30.5130  -12.7260   19.0680 C   0  0  0  0  0  2  0  0  0  0  0  0
  -29.5060  -12.7360   17.8880 C   0  0  0  0  0  2  0  0  0  0  0  0
  -28.0540  -12.5310   18.3710 C   0  0  0  0  0  2  0  0  0  0  0  0
  -27.7270  -13.3970   19.6150 C   0  0  0  0  0  3  0  0  0  0  0  0
  -28.8390  -13.2610   20.6750 C   0  0  0  0  0  2  0  0  0  0  0  0
  -30.0820  -13.7570   20.0550 N   0  0  0  0  0  0  0  0  0  0  0  0
  -31.7730  -15.1890   19.6150 O   0  0  0  0  0  0  0  0  0  0  0  0
  -25.3770  -13.9900   20.4490 C   0  0  0  0  0  0  0  0  0  0  0  0
  -24.3150  -13.2170   20.8340 C   0  0  0  0  0  0  0  0  0  0  0  0
  -24.7650  -11.8640   20.7520 C   0  0  0  0  0  0  0  0  0  0  0  0
  -26.4010  -13.1070   20.1510 N   0  0  0  0  0  0  0  0  0  0  0  0
  -26.0410  -11.8210   20.3900 N   0  0  0  0  0  0  0  0  0  0  0  0
  -24.0350  -10.6030   20.9430 C   0  0  0  0  0  0  0  0  0  0  0  0
  -24.4780   -9.6250   21.8590 C   0  0  0  0  0  3  0  0  0  0  0  0
  -23.7500   -8.4290   22.0380 C   0  0  0  0  0  3  0  0  0  0  0  0
  -22.5640   -8.2040   21.3000 C   0  0  0  0  0  0  0  0  0  0  0  0
  -22.1380   -9.1720   20.3730 C   0  0  0  0  0  3  0  0  0  0  0  0
  -22.8670  -10.3590   20.1930 C   0  0  0  0  0  3  0  0  0  0  0  0
  -21.8050   -7.0630   21.3890 O   0  0  0  0  0  0  0  0  0  0  0  0
  -21.7480   -6.3250   22.5440 C   0  0  0  0  0  0  0  0  0  0  0  0
  -21.2670   -6.8720   23.7530 C   0  0  0  0  0  3  0  0  0  0  0  0
  -21.1600   -6.0610   24.8990 C   0  0  0  0  0  3  0  0  0  0  0  0
  -21.5230   -4.7010   24.8380 C   0  0  0  0  0  0  0  0  0  0  0  0
  -21.9950   -4.1530   23.6320 C   0  0  0  0  0  3  0  0  0  0  0  0
  -22.1040   -4.9620   22.4880 C   0  0  0  0  0  0  0  0  0  0  0  0
  -22.5420   -4.4250   21.3240 F   0  0  0  0  0  0  0  0  0  0  0  0
  -21.4110   -3.9180   25.9370 F   0  0  0  0  0  0  0  0  0  0  0  0
  -22.9380  -13.7020   21.1810 C   0  0  0  0  0  0  0  0  0  0  0  0
  -22.2430  -12.9910   22.0620 N   0  0  0  0  0  0  0  0  0  0  0  0
  -22.4890  -14.7440   20.7080 O   0  0  0  0  0  0  0  0  0  0  0  0
  -22.6190  -12.1450   22.4650 H   0  0  0  0  0  0  0  0  0  0  0  0
  -21.3230  -13.3010   22.3420 H   0  0  0  0  0  0  0  0  0  0  0  0
  -25.5570  -15.3620   20.3130 N   0  0  0  0  0  0  0  0  0  0  0  0
  -24.8430  -16.0360   20.5630 H   0  0  0  0  0  0  0  0  0  0  0  0
  -26.4810  -15.7720   20.2290 H   0  0  0  0  0  0  0  0  0  0  0  0
  -29.1430  -22.3240   19.6510 O   0  0  0  0  0  0  0  0  0  0  0  0
  -29.1810  -23.6240   20.4390 C   0  0  0  0  0  3  0  0  0  0  0  0
  -28.3060  -24.9330   19.8980 C   0  0  0  0  0  3  0  0  0  0  0  0
  -28.4490  -26.4100   20.3030 O   0  0  0  0  0  0  0  0  0  0  0  0
  -24.7030  -31.9350   23.3040 C   0  0  0  0  0  0  0  0  0  0  0  0
  -27.3550  -27.3350   20.2180 C   0  0  0  0  0  0  0  0  0  0  0  0
  -23.5190  -30.5390   21.6520 C   0  0  0  0  0  3  0  0  0  0  0  0
  -24.9890  -29.0090   20.2060 C   0  0  0  0  0  0  0  0  0  0  0  0
  -26.0660  -30.8510   21.4870 C   0  0  0  0  0  2  0  0  0  0  0  0
  -26.1570  -29.4740   20.8210 C   0  0  0  0  0  0  0  0  0  0  0  0
  -27.3400  -28.6510   20.8160 C   0  0  0  0  0  3  0  0  0  0  0  0
  -26.1630  -26.9630   19.5540 C   0  0  0  0  0  3  0  0  0  0  0  0
  -25.0030  -27.7660   19.5580 C   0  0  0  0  0  3  0  0  0  0  0  0
  -23.7450  -29.8810   20.2660 C   0  0  0  0  0  2  0  0  0  0  0  0
  -24.7820  -31.1290   22.2030 N   0  0  0  0  0  0  0  0  0  0  0  0
  -23.6140  -32.2010   23.8360 O   0  0  0  0  0  0  0  0  0  0  0  0
  -22.8590  -29.5100   22.6040 C   0  0  0  0  0  0  0  0  0  0  0  0
  -21.5360  -29.3150   22.4690 N   0  0  0  0  0  0  0  0  0  0  0  0
  -23.5400  -28.8910   23.4250 O   0  0  0  0  0  0  0  0  0  0  0  0
  -21.0430  -29.8750   21.7870 H   0  0  0  0  0  0  0  0  0  0  0  0
  -18.1720  -28.0600   22.9440 C   0  0  0  0  0  0  0  0  0  0  0  0
  -20.7260  -28.3580   23.2280 C   0  0  0  0  0  3  0  0  0  0  0  0
  -20.8520  -26.9310   22.6440 C   0  0  0  0  0  2  0  0  0  0  0  0
  -19.7600  -26.6000   21.6210 C   0  0  0  0  0  2  0  0  0  0  0  0
  -18.3720  -26.7180   22.2590 C   0  0  0  0  0  2  0  0  0  0  0  0
  -19.2760  -28.8370   23.3840 C   0  0  0  0  0  0  0  0  0  0  0  0
  -19.0340  -30.0920   23.9830 C   0  0  0  0  0  3  0  0  0  0  0  0
  -17.7210  -30.5690   24.1500 C   0  0  0  0  0  3  0  0  0  0  0  0
  -16.6310  -29.7890   23.7250 C   0  0  0  0  0  3  0  0  0  0  0  0
  -16.8580  -28.5370   23.1260 C   0  0  0  0  0  3  0  0  0  0  0  0
  -25.9730  -32.5780   23.9370 C   0  0  0  0  0  3  0  0  0  0  0  0
  -26.4790  -31.8180   25.2240 C   0  0  1  0  0  0  0  0  0  0  0  0
  -25.3700  -31.5730   26.2760 C   0  0  0  0  0  1  0  0  0  0  0  0
  -27.0840  -30.4450   24.8500 C   0  0  0  0  0  1  0  0  0  0  0  0
  -27.6100  -32.6300   25.8990 C   0  0  0  0  0  1  0  0  0  0  0  0
  -25.6520  -33.9770   24.2600 N   0  0  0  0  0  0  0  0  0  0  0  0
  -25.9740  -35.0320   23.4980 C   0  0  0  0  0  0  0  0  0  0  0  0
  -26.6390  -34.9280   22.4640 O   0  0  0  0  0  0  0  0  0  0  0  0
  -25.0530  -34.1280   25.0590 H   0  0  0  0  0  0  0  0  0  0  0  0
  -24.2280  -36.8130   23.1570 C   0  0  0  0  0  1  0  0  0  0  0  0
  -25.4810  -36.4190   23.9560 C   0  0  0  0  0  3  0  0  0  0  0  0
  -27.6110  -37.3310   24.7700 C   0  0  0  0  0  1  0  0  0  0  0  0
  -26.5040  -37.4790   23.8290 N   0  0  0  0  0  0  0  0  0  0  0  0
  -26.0910  -38.3970   23.9700 H   0  0  0  0  0  0  0  0  0  0  0  0
  2  3  1  0
  3  9  1  0
  3  1  2  0
  4  1  1  0
  4  7  1  0
  5  4  2  0
  6  2  2  0
  6  5  1  0
  8  6  1  0
  9 10  2  0
 10 11  1  0
 12  9  1  0
 13 18  1  0
 14 15  1  0
 14 13  1  0
 16 15  1  0
 16 23  1  0
 16 17  1  0
 18 12  1  0
 18 17  1  0
 19 12  2  0
 20 21  2  0
 21 40  1  0
 22 21  1  0
 22 25  1  0
 23 24  1  0
 23 20  1  0
 24 22  2  0
 25 26  1  0
 26 27  2  0
 28 31  1  0
 28 27  1  0
 29 28  2  0
 30 29  1  0
 30 25  2  0
 31 32  1  0
 32 33  1  0
 33 34  2  0
 35 34  1  0
 35 39  1  0
 36 35  2  0
 37 32  2  0
 37 36  1  0
 38 37  1  0
 40 41  1  0
 41 44  1  0
 41 43  1  0
 42 40  2  0
 45 20  1  0
 45 46  1  0
 47 45  1  0
 48  5  1  0
 48 49  1  0
 50 51  1  0
 50 49  2  0
 52 63  2  0
 53 51  1  0
 53 58  1  0
 54 62  1  0
 54 64  1  0
 55 61  1  0
 55 57  1  0
 56 62  1  0
 57 56  1  0
 58 57  2  0
 59 60  1  0
 59 53  2  0
 60 55  2  0
 61 54  1  0
 62 52  1  0
 64 66  2  0
 65 64  1  0
 67 65  1  0
 68 77  2  0
 68 73  1  0
 69 65  1  0
 69 73  1  0
 70 69  1  0
 71 72  1  0
 71 70  1  0
 72 68  1  0
 73 74  2  0
 74 75  1  0
 76 75  2  0
 77 76  1  0
 78 52  1  0
 78 83  1  0
 78 79  1  0
 79 82  1  1
 79 80  1  0
 81 79  1  0
 83 86  1  0
 84 88  1  0
 84 83  1  0
 85 84  2  0
 88 87  1  0
 90 88  1  0
 90 91  1  0
 90 89  1  0
M  ISO  4   9 100  12 100  50 101  51 101
M  END
>  <TORSDO>  (40) 
F 20

>  <SCORE>  (40) 
-13.602

>  <name>  (40) 
39

>  <ligand_id>  (40) 
39

>  <original_smiles>  (40) 
[H]N=C(C(=O)N1C([H])([H])C([H])([H])C([H])([H])C([H])(n2nc(-c3c([H])c([H])c(Oc4c([H])c([H])c(F)c([H])c4F)c([H])c3[H])c(C(=O)N([H])[H])c2N([H])[H])C1([H])[H])c1c([H])c(F)c(OC([H])([H])C([H])([H])Oc2c([H])c([H])c3c(c2[H])C([H])([H])N(C(=O)C([H])(N([H])C(=O)C([H])(N([H])C([H])([H])[H])C([H])([H])[H])C(C([H])([H])[H])(C([H])([H])[H])C([H])([H])[H])C([H])(C(=O)N([H])C2([H])c4c([H])c([H])c([H])c([H])c4C([H])([H])C([H])([H])C2([H])[H])C3([H])[H])c(C([H])([H])[H])c1[H]

>  <smiles>  (40) 
[H]N=C(C(=O)N1C([H])([H])C([H])([H])C([H])([H])C([H])(n2nc(-c3c([H])c([H])c(Oc4c([H])c([H])c(F)c([H])c4F)c([H])c3[H])c(C(=O)N([H])[H])c2N([H])[H])C1([H])[H])c1c([H])c(F)c(OC([H])([H])C([H])([H])Oc2c([H])c([H])c3c(c2[H])C([H])([H])N(C(=O)C([H])(N([H])C(=O)C([H])(N([H])C([H])([H])[H])C([H])([H])[H])C(C([H])([H])[H])(C([H])([H])[H])C([H])([H])[H])C([H])(C(=O)N([H])C2([H])c4c([H])c([H])c([H])c([H])c4C([H])([H])C([H])([H])C2([H])[H])C3([H])[H])c(C([H])([H])[H])c1[H]

$$$$
40:0:0
     RDKit          3D

 95103  0  0  1  0  0  0  0  0999 V2000
  -29.1960  -20.5050   20.8510 C   0  0  0  0  0  0  0  0  0  0  0  0
  -29.5860  -21.7880   20.6410 N   0  0  0  0  0  0  0  0  0  0  0  0
  -28.0010  -20.2030   20.7910 O   0  0  0  0  0  0  0  0  0  0  0  0
  -30.5850  -21.9750   20.6860 H   0  0  0  0  0  0  0  0  0  0  0  0
  -31.9620  -17.1620   21.5210 C   0  0  0  0  0  3  0  0  0  0  0  0
  -32.4160  -18.4790   21.7230 C   0  0  0  0  0  3  0  0  0  0  0  0
  -29.7860  -18.0400   20.9160 C   0  0  0  0  0  3  0  0  0  0  0  0
  -30.2200  -19.3890   21.0940 C   0  0  0  0  0  0  0  0  0  0  0  0
  -30.6370  -16.9180   21.1000 C   0  0  0  0  0  0  0  0  0  0  0  0
  -31.5710  -19.5950   21.5160 C   0  0  0  0  0  0  0  0  0  0  0  0
  -30.6520  -14.6230   20.1030 C   0  0  0  0  0  0  0  0  0  0  0  0
  -30.2450  -12.4820   18.9170 C   0  0  0  0  0  2  0  0  0  0  0  0
  -29.2370  -12.6690   17.7640 C   0  0  0  0  0  2  0  0  0  0  0  0
  -27.7960  -12.4970   18.2750 C   0  0  0  0  0  2  0  0  0  0  0  0
  -27.5170  -13.3510   19.5410 C   0  0  0  0  0  3  0  0  0  0  0  0
  -28.6310  -13.1620   20.5980 C   0  0  0  0  0  2  0  0  0  0  0  0
  -29.9310  -13.4700   19.9680 N   0  0  0  0  0  0  0  0  0  0  0  0
  -31.6940  -14.8140   19.4690 O   0  0  0  0  0  0  0  0  0  0  0  0
  -30.1410  -15.5790   20.9150 N   0  0  0  0  0  0  0  0  0  0  0  0
  -29.2480  -15.3640   21.3320 H   0  0  0  0  0  0  0  0  0  0  0  0
  -25.1800  -13.9580   20.4310 C   0  0  0  0  0  0  0  0  0  0  0  0
  -24.1240  -13.1850   20.8370 C   0  0  0  0  0  0  0  0  0  0  0  0
  -24.5610  -11.8300   20.7240 C   0  0  0  0  0  0  0  0  0  0  0  0
  -26.1920  -13.0730   20.0930 N   0  0  0  0  0  0  0  0  0  0  0  0
  -25.8280  -11.7850   20.3290 N   0  0  0  0  0  0  0  0  0  0  0  0
  -23.8320  -10.5720   20.9230 C   0  0  0  0  0  0  0  0  0  0  0  0
  -24.2710   -9.6000   21.8510 C   0  0  0  0  0  3  0  0  0  0  0  0
  -23.5410   -8.4070   22.0360 C   0  0  0  0  0  3  0  0  0  0  0  0
  -22.3590   -8.1750   21.2930 C   0  0  0  0  0  0  0  0  0  0  0  0
  -21.9410   -9.1340   20.3550 C   0  0  0  0  0  3  0  0  0  0  0  0
  -22.6700  -10.3200   20.1690 C   0  0  0  0  0  3  0  0  0  0  0  0
  -21.6040   -7.0310   21.3840 O   0  0  0  0  0  0  0  0  0  0  0  0
  -21.5230   -6.3140   22.5500 C   0  0  0  0  0  0  0  0  0  0  0  0
  -21.0300   -6.8820   23.7430 C   0  0  0  0  0  3  0  0  0  0  0  0
  -20.8970   -6.0910   24.9010 C   0  0  0  0  0  3  0  0  0  0  0  0
  -21.2450   -4.7280   24.8660 C   0  0  0  0  0  0  0  0  0  0  0  0
  -21.7270   -4.1550   23.6760 C   0  0  0  0  0  3  0  0  0  0  0  0
  -21.8620   -4.9460   22.5200 C   0  0  0  0  0  0  0  0  0  0  0  0
  -22.3090   -4.3840   21.3710 F   0  0  0  0  0  0  0  0  0  0  0  0
  -21.1100   -3.9630   25.9750 F   0  0  0  0  0  0  0  0  0  0  0  0
  -22.7560  -13.6750   21.2160 C   0  0  0  0  0  0  0  0  0  0  0  0
  -22.0700  -12.9560   22.0970 N   0  0  0  0  0  0  0  0  0  0  0  0
  -22.3030  -14.7270   20.7650 O   0  0  0  0  0  0  0  0  0  0  0  0
  -22.4480  -12.1060   22.4890 H   0  0  0  0  0  0  0  0  0  0  0  0
  -21.1550  -13.2660   22.3950 H   0  0  0  0  0  0  0  0  0  0  0  0
  -25.3510  -15.3320   20.3040 N   0  0  0  0  0  0  0  0  0  0  0  0
  -24.6080  -15.9880   20.5260 H   0  0  0  0  0  0  0  0  0  0  0  0
  -26.2040  -15.7830   19.9960 H   0  0  0  0  0  0  0  0  0  0  0  0
  -32.1360  -20.8510   21.7530 N   0  0  0  0  0  0  0  0  0  0  0  0
  -33.1200  -20.8550   22.0090 H   0  0  0  0  0  0  0  0  0  0  0  0
  -31.6300  -21.4470   22.4010 H   0  0  0  0  0  0  0  0  0  0  0  0
  -28.6380  -22.8680   20.2610 C   0  0  0  0  0  2  0  0  0  0  0  0
  -29.0820  -24.3590   20.4190 C   0  0  0  0  0  2  0  0  0  0  0  0
  -27.9670  -25.3200   19.8860 C   0  0  0  0  0  2  0  0  0  0  0  0
  -28.1650  -26.7530   20.0080 O   0  0  0  0  0  0  0  0  0  0  0  0
  -24.5010  -31.9720   23.2120 C   0  0  0  0  0  0  0  0  0  0  0  0
  -27.0130  -27.5360   19.9880 C   0  0  0  0  0  0  0  0  0  0  0  0
  -23.2330  -30.5970   21.5950 C   0  0  0  0  0  3  0  0  0  0  0  0
  -24.6280  -29.0840   20.0880 C   0  0  0  0  0  0  0  0  0  0  0  0
  -25.7500  -30.9490   21.3050 C   0  0  0  0  0  2  0  0  0  0  0  0
  -25.8110  -29.5870   20.6410 C   0  0  0  0  0  0  0  0  0  0  0  0
  -27.0060  -28.8250   20.5830 C   0  0  0  0  0  3  0  0  0  0  0  0
  -25.8060  -27.0690   19.4150 C   0  0  0  0  0  3  0  0  0  0  0  0
  -24.6230  -27.8270   19.4670 C   0  0  0  0  0  3  0  0  0  0  0  0
  -23.3890  -29.9430   20.1960 C   0  0  0  0  0  2  0  0  0  0  0  0
  -24.5150  -31.1870   22.0960 N   0  0  0  0  0  0  0  0  0  0  0  0
  -23.4400  -32.2370   23.7960 O   0  0  0  0  0  0  0  0  0  0  0  0
  -22.6170  -29.5580   22.5620 C   0  0  0  0  0  0  0  0  0  0  0  0
  -21.2960  -29.3400   22.4440 N   0  0  0  0  0  0  0  0  0  0  0  0
  -23.3220  -28.9560   23.3770 O   0  0  0  0  0  0  0  0  0  0  0  0
  -20.7860  -29.8820   21.7610 H   0  0  0  0  0  0  0  0  0  0  0  0
  -17.9660  -28.0220   22.9360 C   0  0  0  0  0  0  0  0  0  0  0  0
  -20.5100  -28.3810   23.2220 C   0  0  0  0  0  3  0  0  0  0  0  0
  -20.6700  -26.9470   22.6640 C   0  0  0  0  0  2  0  0  0  0  0  0
  -19.5870  -26.5690   21.6480 C   0  0  0  0  0  2  0  0  0  0  0  0
  -18.1980  -26.6700   22.2830 C   0  0  0  0  0  2  0  0  0  0  0  0
  -19.0510  -28.8320   23.3640 C   0  0  0  0  0  0  0  0  0  0  0  0
  -18.7810  -30.0940   23.9340 C   0  0  0  0  0  3  0  0  0  0  0  0
  -17.4570  -30.5480   24.0850 C   0  0  0  0  0  3  0  0  0  0  0  0
  -16.3860  -29.7390   23.6730 C   0  0  0  0  0  3  0  0  0  0  0  0
  -16.6400  -28.4760   23.1050 C   0  0  0  0  0  3  0  0  0  0  0  0
  -25.8090  -32.5920   23.7900 C   0  0  0  0  0  3  0  0  0  0  0  0
  -25.5190  -33.9870   24.1440 N   0  0  0  0  0  0  0  0  0  0  0  0
  -25.8050  -35.0430   23.3700 C   0  0  0  0  0  0  0  0  0  0  0  0
  -26.4100  -34.9450   22.2980 O   0  0  0  0  0  0  0  0  0  0  0  0
  -24.9770  -34.1390   24.9830 H   0  0  0  0  0  0  0  0  0  0  0  0
  -24.0390  -36.8200   23.1350 C   0  0  0  0  0  1  0  0  0  0  0  0
  -25.3390  -36.4290   23.8580 C   0  0  0  0  0  3  0  0  0  0  0  0
  -27.5190  -37.3340   24.5380 C   0  0  0  0  0  1  0  0  0  0  0  0
  -26.3550  -37.4910   23.6680 N   0  0  0  0  0  0  0  0  0  0  0  0
  -25.9520  -38.4090   23.8390 H   0  0  0  0  0  0  0  0  0  0  0  0
  -26.3670  -31.8060   25.0380 C   0  0  1  0  0  0  0  0  0  0  0  0
  -25.3050  -31.5330   26.1290 C   0  0  0  0  0  1  0  0  0  0  0  0
  -26.9590  -30.4470   24.6020 C   0  0  0  0  0  1  0  0  0  0  0  0
  -27.5220  -32.6050   25.6850 C   0  0  0  0  0  1  0  0  0  0  0  0
  1  8  1  0
  2  4  1  0
  2  1  1  0
  3  1  2  0
  5  6  1  0
  7  8  2  0
  7  9  1  0
  8 10  1  0
  9  5  2  0
 10  6  2  0
 10 49  1  0
 11 19  1  0
 12 17  1  0
 13 14  1  0
 13 12  1  0
 15 14  1  0
 15 24  1  0
 15 16  1  0
 17 11  1  0
 17 16  1  0
 18 11  2  0
 19  9  1  0
 19 20  1  0
 21 22  2  0
 22 41  1  0
 23 22  1  0
 23 26  1  0
 24 25  1  0
 24 21  1  0
 25 23  2  0
 26 27  1  0
 27 28  2  0
 29 32  1  0
 29 28  1  0
 30 29  2  0
 31 30  1  0
 31 26  2  0
 32 33  1  0
 33 34  1  0
 34 35  2  0
 36 35  1  0
 36 40  1  0
 37 36  2  0
 38 33  2  0
 38 37  1  0
 39 38  1  0
 41 42  1  0
 42 45  1  0
 42 44  1  0
 43 41  2  0
 46 21  1  0
 46 47  1  0
 48 46  1  0
 49 50  1  0
 49 51  1  0
 52 53  1  0
 52  2  1  0
 54 55  1  0
 54 53  1  0
 56 67  2  0
 57 55  1  0
 57 62  1  0
 58 66  1  0
 58 68  1  0
 59 65  1  0
 59 61  1  0
 60 66  1  0
 61 60  1  0
 62 61  2  0
 63 64  1  0
 63 57  2  0
 64 59  2  0
 65 58  1  0
 66 56  1  0
 68 70  2  0
 69 68  1  0
 71 69  1  0
 72 81  2  0
 72 77  1  0
 73 69  1  0
 73 77  1  0
 74 73  1  0
 75 76  1  0
 75 74  1  0
 76 72  1  0
 77 78  2  0
 78 79  1  0
 80 79  2  0
 81 80  1  0
 82 56  1  0
 82 83  1  0
 82 92  1  0
 83 86  1  0
 84 88  1  0
 84 83  1  0
 85 84  2  0
 88 87  1  0
 90 91  1  0
 90 88  1  0
 90 89  1  0
 92 95  1  1
 92 93  1  0
 94 92  1  0
M  ISO  4  11 100  19 100  54 101  55 101
M  END
>  <TORSDO>  (41) 
F 21

>  <SCORE>  (41) 
-12.870

>  <name>  (41) 
40

>  <ligand_id>  (41) 
40

>  <original_smiles>  (41) 
[H]c1c([H])c([H])c2c(c1[H])C([H])([H])C([H])([H])C([H])([H])C2([H])N([H])C(=O)C1([H])N(C(=O)C([H])(N([H])C(=O)C([H])(N([H])C([H])([H])[H])C([H])([H])[H])C(C([H])([H])[H])(C([H])([H])[H])C([H])([H])[H])C([H])([H])c2c([H])c(OC([H])([H])C([H])([H])C([H])([H])N([H])C(=O)c3c([H])c(N([H])C(=O)N4C([H])([H])C([H])([H])C([H])([H])C([H])(n5nc(-c6c([H])c([H])c(Oc7c([H])c([H])c(F)c([H])c7F)c([H])c6[H])c(C(=O)N([H])[H])c5N([H])[H])C4([H])[H])c([H])c([H])c3N([H])[H])c([H])c([H])c2C1([H])[H]

>  <smiles>  (41) 
[H]c1c([H])c([H])c2c(c1[H])C([H])([H])C([H])([H])C([H])([H])C2([H])N([H])C(=O)C1([H])N(C(=O)C([H])(N([H])C(=O)C([H])(N([H])C([H])([H])[H])C([H])([H])[H])C(C([H])([H])[H])(C([H])([H])[H])C([H])([H])[H])C([H])([H])c2c([H])c(OC([H])([H])C([H])([H])C([H])([H])N([H])C(=O)c3c([H])c(N([H])C(=O)N4C([H])([H])C([H])([H])C([H])([H])C([H])(n5nc(-c6c([H])c([H])c(Oc7c([H])c([H])c(F)c([H])c7F)c([H])c6[H])c(C(=O)N([H])[H])c5N([H])[H])C4([H])[H])c([H])c([H])c3N([H])[H])c([H])c([H])c2C1([H])[H]

$$$$
41:0:0
     RDKit          3D

 95104  0  0  1  0  0  0  0  0999 V2000
  -31.3830  -21.8820   20.2240 C   0  0  0  0  0  0  0  0  0  0  0  0
  -29.0460  -22.3930   20.2290 C   0  0  0  0  0  0  0  0  0  0  0  0
  -31.7550  -23.3740   20.1920 C   0  0  0  0  0  2  0  0  0  0  0  0
  -30.6490  -24.2920   20.7130 C   0  0  0  0  0  2  0  0  0  0  0  0
  -29.3270  -23.9550   20.0260 C   0  0  0  0  0  3  0  0  0  0  0  0
  -30.0810  -21.4620   20.2590 N   0  0  0  0  0  0  0  0  0  0  0  0
  -32.3350  -21.0890   20.2060 O   0  0  0  0  0  0  0  0  0  0  0  0
  -27.8680  -22.0310   20.3390 O   0  0  0  0  0  0  0  0  0  0  0  0
  -30.0590  -19.3650   21.6620 C   0  0  0  0  0  3  0  0  0  0  0  0
  -30.1780  -17.9520   21.7920 C   0  0  0  0  0  3  0  0  0  0  0  0
  -29.8040  -19.1010   19.2930 C   0  0  0  0  0  3  0  0  0  0  0  0
  -29.9040  -19.9950   20.4030 C   0  0  0  0  0  0  0  0  0  0  0  0
  -30.1530  -17.0470   20.6840 C   0  0  0  0  0  0  0  0  0  0  0  0
  -29.9140  -17.6750   19.4250 C   0  0  0  0  0  0  0  0  0  0  0  0
  -29.7920  -16.9150   18.3090 F   0  0  0  0  0  0  0  0  0  0  0  0
  -30.7920  -14.6670   19.9530 C   0  0  0  0  0  0  0  0  0  0  0  0
  -30.4150  -12.5300   18.7020 C   0  0  0  0  0  2  0  0  0  0  0  0
  -29.3690  -12.7170   17.5850 C   0  0  0  0  0  2  0  0  0  0  0  0
  -27.9430  -12.5130   18.1330 C   0  0  0  0  0  2  0  0  0  0  0  0
  -27.6990  -13.3120   19.4390 C   0  0  0  0  0  3  0  0  0  0  0  0
  -28.8420  -13.0960   20.4450 C   0  0  0  0  0  2  0  0  0  0  0  0
  -30.1060  -13.4810   19.7940 N   0  0  0  0  0  0  0  0  0  0  0  0
  -31.8150  -14.8880   19.2960 O   0  0  0  0  0  0  0  0  0  0  0  0
  -30.5130  -15.1350   22.2790 C   0  0  0  0  0  1  0  0  0  0  0  0
  -30.3370  -15.5830   20.8860 N   0  0  0  0  0  0  0  0  0  0  0  0
  -25.3800  -13.8700   20.3930 C   0  0  0  0  0  0  0  0  0  0  0  0
  -24.3550  -13.0790   20.8350 C   0  0  0  0  0  0  0  0  0  0  0  0
  -24.8180  -11.7320   20.7180 C   0  0  0  0  0  0  0  0  0  0  0  0
  -26.4000  -13.0050   20.0310 N   0  0  0  0  0  0  0  0  0  0  0  0
  -26.0740  -11.7110   20.2880 N   0  0  0  0  0  0  0  0  0  0  0  0
  -24.1160  -10.4600   20.9340 C   0  0  0  0  0  0  0  0  0  0  0  0
  -24.5780   -9.5100   21.8710 C   0  0  0  0  0  3  0  0  0  0  0  0
  -23.8760   -8.3020   22.0730 C   0  0  0  0  0  3  0  0  0  0  0  0
  -22.6970   -8.0370   21.3370 C   0  0  0  0  0  0  0  0  0  0  0  0
  -22.2530   -8.9750   20.3880 C   0  0  0  0  0  3  0  0  0  0  0  0
  -22.9570  -10.1740   20.1850 C   0  0  0  0  0  3  0  0  0  0  0  0
  -21.9640   -6.8790   21.4470 O   0  0  0  0  0  0  0  0  0  0  0  0
  -21.8790   -6.1900   22.6290 C   0  0  0  0  0  0  0  0  0  0  0  0
  -21.3940   -6.7920   23.8100 C   0  0  0  0  0  3  0  0  0  0  0  0
  -21.2580   -6.0280   24.9870 C   0  0  0  0  0  3  0  0  0  0  0  0
  -21.6020   -4.6630   24.9830 C   0  0  0  0  0  0  0  0  0  0  0  0
  -22.0820   -4.0600   23.8080 C   0  0  0  0  0  3  0  0  0  0  0  0
  -22.2170   -4.8210   22.6340 C   0  0  0  0  0  0  0  0  0  0  0  0
  -22.6580   -4.2300   21.4980 F   0  0  0  0  0  0  0  0  0  0  0  0
  -21.4650   -3.9270   26.1110 F   0  0  0  0  0  0  0  0  0  0  0  0
  -22.9860  -13.5390   21.2470 C   0  0  0  0  0  0  0  0  0  0  0  0
  -22.3550  -12.8280   22.1740 N   0  0  0  0  0  0  0  0  0  0  0  0
  -22.4870  -14.5610   20.7790 O   0  0  0  0  0  0  0  0  0  0  0  0
  -22.7750  -12.0000   22.5720 H   0  0  0  0  0  0  0  0  0  0  0  0
  -21.4410  -13.1170   22.4920 H   0  0  0  0  0  0  0  0  0  0  0  0
  -25.5230  -15.2460   20.2470 N   0  0  0  0  0  0  0  0  0  0  0  0
  -24.7660  -15.8900   20.4470 H   0  0  0  0  0  0  0  0  0  0  0  0
  -26.3450  -15.7010   19.8680 H   0  0  0  0  0  0  0  0  0  0  0  0
  -28.1980  -25.0190   20.4140 C   0  0  0  0  0  2  0  0  0  0  0  0
  -28.4340  -26.4660   20.1320 O   0  0  0  0  0  0  0  0  0  0  0  0
  -24.6950  -31.8560   23.1760 C   0  0  0  0  0  0  0  0  0  0  0  0
  -27.3200  -27.3210   20.1030 C   0  0  0  0  0  0  0  0  0  0  0  0
  -23.4960  -30.4630   21.5280 C   0  0  0  0  0  3  0  0  0  0  0  0
  -24.9530  -28.9280   20.0930 C   0  0  0  0  0  0  0  0  0  0  0  0
  -26.0340  -30.7920   21.3480 C   0  0  0  0  0  2  0  0  0  0  0  0
  -26.1200  -29.4160   20.6950 C   0  0  0  0  0  0  0  0  0  0  0  0
  -27.3090  -28.6260   20.6890 C   0  0  0  0  0  3  0  0  0  0  0  0
  -26.1370  -26.8980   19.4590 C   0  0  0  0  0  3  0  0  0  0  0  0
  -24.9650  -27.6760   19.4630 C   0  0  0  0  0  3  0  0  0  0  0  0
  -23.7130  -29.7970   20.1440 C   0  0  0  0  0  2  0  0  0  0  0  0
  -24.7600  -31.0540   22.0730 N   0  0  0  0  0  0  0  0  0  0  0  0
  -23.6100  -32.1260   23.7120 O   0  0  0  0  0  0  0  0  0  0  0  0
  -22.8390  -29.4370   22.4810 C   0  0  0  0  0  0  0  0  0  0  0  0
  -21.5120  -29.2580   22.3540 N   0  0  0  0  0  0  0  0  0  0  0  0
  -23.5200  -28.8050   23.2920 O   0  0  0  0  0  0  0  0  0  0  0  0
  -21.0240  -29.8180   21.6710 H   0  0  0  0  0  0  0  0  0  0  0  0
  -18.1380  -28.0550   22.8510 C   0  0  0  0  0  0  0  0  0  0  0  0
  -20.6960  -28.3150   23.1200 C   0  0  0  0  0  3  0  0  0  0  0  0
  -20.7980  -26.8870   22.5360 C   0  0  0  0  0  2  0  0  0  0  0  0
  -19.6960  -26.5690   21.5200 C   0  0  0  0  0  2  0  0  0  0  0  0
  -18.3150  -26.7100   22.1670 C   0  0  0  0  0  2  0  0  0  0  0  0
  -19.2560  -28.8150   23.2840 C   0  0  0  0  0  0  0  0  0  0  0  0
  -19.0360  -30.0750   23.8830 C   0  0  0  0  0  3  0  0  0  0  0  0
  -17.7300  -30.5740   24.0540 C   0  0  0  0  0  3  0  0  0  0  0  0
  -16.6270  -29.8100   23.6360 C   0  0  0  0  0  3  0  0  0  0  0  0
  -16.8310  -28.5530   23.0400 C   0  0  0  0  0  3  0  0  0  0  0  0
  -25.9750  -32.4900   23.8010 C   0  0  0  0  0  3  0  0  0  0  0  0
  -25.6570  -33.8840   24.1450 N   0  0  0  0  0  0  0  0  0  0  0  0
  -25.9970  -34.9470   23.4040 C   0  0  0  0  0  0  0  0  0  0  0  0
  -26.6800  -34.8570   22.3800 O   0  0  0  0  0  0  0  0  0  0  0  0
  -25.0500  -34.0270   24.9390 H   0  0  0  0  0  0  0  0  0  0  0  0
  -24.2820  -36.7510   23.0380 C   0  0  0  0  0  1  0  0  0  0  0  0
  -25.5000  -36.3290   23.8730 C   0  0  0  0  0  3  0  0  0  0  0  0
  -27.6160  -37.1930   24.7730 C   0  0  0  0  0  1  0  0  0  0  0  0
  -26.5380  -37.3810   23.8050 N   0  0  0  0  0  0  0  0  0  0  0  0
  -26.1300  -38.2990   23.9590 H   0  0  0  0  0  0  0  0  0  0  0  0
  -26.4960  -31.7110   25.0700 C   0  0  1  0  0  0  0  0  0  0  0  0
  -25.4050  -31.4540   26.1360 C   0  0  0  0  0  1  0  0  0  0  0  0
  -27.0910  -30.3410   24.6670 C   0  0  0  0  0  1  0  0  0  0  0  0
  -27.6400  -32.5080   25.7410 C   0  0  0  0  0  1  0  0  0  0  0  0
  1  6  1  0
  2  6  1  0
  2  8  2  0
  3  1  1  0
  3  4  1  0
  5  2  1  0
  5 54  1  0
  5  4  1  0
  6 12  1  0
  7  1  2  0
  9 10  1  0
 11 14  2  0
 11 12  1  0
 12  9  2  0
 13 25  1  0
 13 10  2  0
 14 13  1  0
 15 14  1  0
 16 25  1  0
 17 22  1  0
 18 19  1  0
 18 17  1  0
 20 19  1  0
 20 29  1  0
 20 21  1  0
 22 16  1  0
 22 21  1  0
 23 16  2  0
 25 24  1  0
 26 27  2  0
 27 46  1  0
 28 27  1  0
 28 31  1  0
 29 30  1  0
 29 26  1  0
 30 28  2  0
 31 32  1  0
 32 33  2  0
 34 37  1  0
 34 33  1  0
 35 34  2  0
 36 35  1  0
 36 31  2  0
 37 38  1  0
 38 43  2  0
 38 39  1  0
 39 40  2  0
 41 40  1  0
 41 45  1  0
 42 41  2  0
 43 42  1  0
 44 43  1  0
 46 47  1  0
 47 50  1  0
 47 49  1  0
 48 46  2  0
 51 26  1  0
 51 52  1  0
 53 51  1  0
 55 54  1  0
 56 67  2  0
 57 55  1  0
 57 62  1  0
 58 66  1  0
 58 68  1  0
 59 65  1  0
 59 61  1  0
 60 66  1  0
 61 60  1  0
 62 61  2  0
 63 64  1  0
 63 57  2  0
 64 59  2  0
 65 58  1  0
 66 56  1  0
 68 70  2  0
 69 68  1  0
 71 69  1  0
 72 81  2  0
 72 77  1  0
 73 69  1  0
 73 77  1  0
 74 73  1  0
 75 76  1  0
 75 74  1  0
 76 72  1  0
 77 78  2  0
 78 79  1  0
 80 79  2  0
 81 80  1  0
 82 56  1  0
 82 83  1  0
 82 92  1  0
 83 86  1  0
 84 88  1  0
 84 83  1  0
 85 84  2  0
 88 87  1  0
 90 88  1  0
 90 91  1  0
 90 89  1  0
 92 95  1  1
 92 93  1  0
 94 92  1  0
M  ISO  4  16 100  25 100  54 101  55 101
M  END
>  <TORSDO>  (42) 
F 18

>  <SCORE>  (42) 
-13.202

>  <name>  (42) 
41

>  <ligand_id>  (42) 
41

>  <original_smiles>  (42) 
[H]c1c([H])c([H])c2c(c1[H])C([H])([H])C([H])([H])C([H])([H])C2([H])N([H])C(=O)C1([H])N(C(=O)C([H])(N([H])C(=O)C([H])(N([H])C([H])([H])[H])C([H])([H])[H])C(C([H])([H])[H])(C([H])([H])[H])C([H])([H])[H])C([H])([H])c2c([H])c(OC([H])([H])C3([H])C(=O)N(c4c([H])c([H])c(N(C(=O)N5C([H])([H])C([H])([H])C([H])([H])C([H])(n6nc(-c7c([H])c([H])c(Oc8c([H])c([H])c(F)c([H])c8F)c([H])c7[H])c(C(=O)N([H])[H])c6N([H])[H])C5([H])[H])C([H])([H])[H])c(F)c4[H])C(=O)C([H])([H])C3([H])[H])c([H])c([H])c2C1([H])[H]

>  <smiles>  (42) 
[H]c1c([H])c([H])c2c(c1[H])C([H])([H])C([H])([H])C([H])([H])C2([H])N([H])C(=O)C1([H])N(C(=O)C([H])(N([H])C(=O)C([H])(N([H])C([H])([H])[H])C([H])([H])[H])C(C([H])([H])[H])(C([H])([H])[H])C([H])([H])[H])C([H])([H])c2c([H])c(OC([H])([H])C3([H])C(=O)N(c4c([H])c([H])c(N(C(=O)N5C([H])([H])C([H])([H])C([H])([H])C([H])(n6nc(-c7c([H])c([H])c(Oc8c([H])c([H])c(F)c([H])c8F)c([H])c7[H])c(C(=O)N([H])[H])c6N([H])[H])C5([H])[H])C([H])([H])[H])c(F)c4[H])C(=O)C([H])([H])C3([H])[H])c([H])c([H])c2C1([H])[H]

$$$$
42:0:0
     RDKit          3D

 97106  0  0  1  0  0  0  0  0999 V2000
  -31.1500  -23.7750   20.8480 C   0  0  0  0  0  0  0  0  0  0  0  0
  -30.4430  -24.4000   19.6590 C   0  0  0  0  0  2  0  0  0  0  0  0
  -31.1610  -22.2420   20.8560 C   0  0  0  0  0  2  0  0  0  0  0  0
  -28.7300  -22.4770   20.1290 C   0  0  0  0  0  2  0  0  0  0  0  0
  -28.9560  -23.9960   19.6410 C   0  0  0  0  0  3  0  0  0  0  0  0
  -29.9540  -21.6110   20.2720 N   0  0  0  0  0  0  0  0  0  0  0  0
  -31.6790  -24.4530   21.7320 O   0  0  0  0  0  0  0  0  0  0  0  0
  -31.1640  -19.3990   20.3410 C   0  0  0  0  0  3  0  0  0  0  0  0
  -28.8260  -17.9220   20.3890 C   0  0  0  0  0  3  0  0  0  0  0  0
  -29.9480  -20.1550   20.3110 C   0  0  0  0  0  0  0  0  0  0  0  0
  -31.2240  -17.9740   20.3950 C   0  0  0  0  0  0  0  0  0  0  0  0
  -30.0410  -17.1800   20.4080 C   0  0  0  0  0  0  0  0  0  0  0  0
  -28.7710  -19.3470   20.3420 C   0  0  0  0  0  0  0  0  0  0  0  0
  -27.5450  -19.9260   20.3520 F   0  0  0  0  0  0  0  0  0  0  0  0
  -30.6950  -14.6700   20.0080 C   0  0  0  0  0  0  0  0  0  0  0  0
  -30.4010  -12.4530   18.9180 C   0  0  0  0  0  2  0  0  0  0  0  0
  -29.3760  -12.5950   17.7730 C   0  0  0  0  0  2  0  0  0  0  0  0
  -27.9380  -12.4120   18.2960 C   0  0  0  0  0  2  0  0  0  0  0  0
  -27.6570  -13.2460   19.5720 C   0  0  0  0  0  3  0  0  0  0  0  0
  -28.7930  -13.0980   20.6110 C   0  0  0  0  0  2  0  0  0  0  0  0
  -30.0600  -13.4540   19.9510 N   0  0  0  0  0  0  0  0  0  0  0  0
  -31.8100  -14.8190   19.5040 O   0  0  0  0  0  0  0  0  0  0  0  0
  -29.9560  -15.7130   20.5070 N   0  0  0  0  0  0  0  0  0  0  0  0
  -29.0770  -15.3820   20.8690 H   0  0  0  0  0  0  0  0  0  0  0  0
  -25.3110  -13.7930   20.4690 C   0  0  0  0  0  0  0  0  0  0  0  0
  -24.2790  -12.9970   20.8900 C   0  0  0  0  0  0  0  0  0  0  0  0
  -24.7510  -11.6520   20.7910 C   0  0  0  0  0  0  0  0  0  0  0  0
  -26.3460  -12.9340   20.1410 N   0  0  0  0  0  0  0  0  0  0  0  0
  -26.0180  -11.6390   20.3920 N   0  0  0  0  0  0  0  0  0  0  0  0
  -24.0500  -10.3760   20.9930 C   0  0  0  0  0  0  0  0  0  0  0  0
  -24.4990   -9.4300   21.9410 C   0  0  0  0  0  3  0  0  0  0  0  0
  -23.8010   -8.2200   22.1310 C   0  0  0  0  0  3  0  0  0  0  0  0
  -22.6380   -7.9450   21.3730 C   0  0  0  0  0  0  0  0  0  0  0  0
  -22.2070   -8.8800   20.4170 C   0  0  0  0  0  3  0  0  0  0  0  0
  -22.9050  -10.0830   20.2250 C   0  0  0  0  0  3  0  0  0  0  0  0
  -21.9090   -6.7850   21.4740 O   0  0  0  0  0  0  0  0  0  0  0  0
  -21.8090   -6.0960   22.6570 C   0  0  0  0  0  0  0  0  0  0  0  0
  -21.2610   -6.6850   23.8170 C   0  0  0  0  0  3  0  0  0  0  0  0
  -21.1130   -5.9200   24.9920 C   0  0  0  0  0  3  0  0  0  0  0  0
  -21.5010   -4.5680   25.0060 C   0  0  0  0  0  0  0  0  0  0  0  0
  -22.0430   -3.9780   23.8500 C   0  0  0  0  0  3  0  0  0  0  0  0
  -22.1930   -4.7410   22.6780 C   0  0  0  0  0  0  0  0  0  0  0  0
  -22.6960   -4.1610   21.5610 F   0  0  0  0  0  0  0  0  0  0  0  0
  -21.3510   -3.8310   26.1310 F   0  0  0  0  0  0  0  0  0  0  0  0
  -22.8990  -13.4520   21.2710 C   0  0  0  0  0  0  0  0  0  0  0  0
  -22.2330  -12.7200   22.1580 N   0  0  0  0  0  0  0  0  0  0  0  0
  -22.4210  -14.4920   20.8200 O   0  0  0  0  0  0  0  0  0  0  0  0
  -22.6280  -11.8750   22.5440 H   0  0  0  0  0  0  0  0  0  0  0  0
  -21.3150  -13.0140   22.4580 H   0  0  0  0  0  0  0  0  0  0  0  0
  -25.4460  -15.1690   20.3120 N   0  0  0  0  0  0  0  0  0  0  0  0
  -24.6660  -15.8040   20.4520 H   0  0  0  0  0  0  0  0  0  0  0  0
  -26.2300  -15.6050   19.8460 H   0  0  0  0  0  0  0  0  0  0  0  0
  -32.4800  -17.3760   20.4660 N   0  0  0  0  0  0  0  0  0  0  0  0
  -33.2620  -17.8810   20.0630 H   0  0  0  0  0  0  0  0  0  0  0  0
  -32.4900  -16.3870   20.1900 H   0  0  0  0  0  0  0  0  0  0  0  0
  -28.0600  -25.1040   20.3470 C   0  0  0  0  0  2  0  0  0  0  0  0
  -28.2250  -26.5100   19.9200 O   0  0  0  0  0  0  0  0  0  0  0  0
  -24.5750  -31.8210   23.1600 C   0  0  0  0  0  0  0  0  0  0  0  0
  -27.1000  -27.3390   19.9500 C   0  0  0  0  0  0  0  0  0  0  0  0
  -23.3310  -30.4690   21.5090 C   0  0  0  0  0  3  0  0  0  0  0  0
  -24.7440  -28.9440   20.0210 C   0  0  0  0  0  0  0  0  0  0  0  0
  -25.8650  -30.7820   21.2850 C   0  0  0  0  0  2  0  0  0  0  0  0
  -25.9250  -29.4210   20.6040 C   0  0  0  0  0  0  0  0  0  0  0  0
  -27.1080  -28.6300   20.5560 C   0  0  0  0  0  3  0  0  0  0  0  0
  -25.8990  -26.9080   19.3460 C   0  0  0  0  0  3  0  0  0  0  0  0
  -24.7310  -27.6950   19.3810 C   0  0  0  0  0  3  0  0  0  0  0  0
  -23.5140  -29.8230   20.1110 C   0  0  0  0  0  2  0  0  0  0  0  0
  -24.6100  -31.0400   22.0420 N   0  0  0  0  0  0  0  0  0  0  0  0
  -23.5040  -32.0900   23.7240 O   0  0  0  0  0  0  0  0  0  0  0  0
  -22.6810  -29.4340   22.4570 C   0  0  0  0  0  0  0  0  0  0  0  0
  -21.3520  -29.2630   22.3470 N   0  0  0  0  0  0  0  0  0  0  0  0
  -23.3690  -28.7890   23.2520 O   0  0  0  0  0  0  0  0  0  0  0  0
  -20.8550  -29.8360   21.6790 H   0  0  0  0  0  0  0  0  0  0  0  0
  -17.9780  -28.0650   22.8660 C   0  0  0  0  0  0  0  0  0  0  0  0
  -20.5410  -28.3130   23.1100 C   0  0  0  0  0  3  0  0  0  0  0  0
  -20.6310  -26.8920   22.5060 C   0  0  0  0  0  2  0  0  0  0  0  0
  -19.5170  -26.5890   21.5000 C   0  0  0  0  0  2  0  0  0  0  0  0
  -18.1430  -26.7290   22.1620 C   0  0  0  0  0  2  0  0  0  0  0  0
  -19.1030  -28.8160   23.2970 C   0  0  0  0  0  0  0  0  0  0  0  0
  -18.8950  -30.0680   23.9150 C   0  0  0  0  0  3  0  0  0  0  0  0
  -17.5950  -30.5720   24.1020 C   0  0  0  0  0  3  0  0  0  0  0  0
  -16.4840  -29.8170   23.6900 C   0  0  0  0  0  3  0  0  0  0  0  0
  -16.6770  -28.5640   23.0810 C   0  0  0  0  0  3  0  0  0  0  0  0
  -25.8740  -32.4310   23.7710 C   0  0  0  0  0  3  0  0  0  0  0  0
  -26.3980  -31.6410   25.0330 C   0  0  1  0  0  0  0  0  0  0  0  0
  -25.3170  -31.4100   26.1150 C   0  0  0  0  0  1  0  0  0  0  0  0
  -26.9580  -30.2620   24.6210 C   0  0  0  0  0  1  0  0  0  0  0  0
  -27.5660  -32.4170   25.6870 C   0  0  0  0  0  1  0  0  0  0  0  0
  -25.5870  -33.8280   24.1240 N   0  0  0  0  0  0  0  0  0  0  0  0
  -25.9280  -34.8890   23.3780 C   0  0  0  0  0  0  0  0  0  0  0  0
  -26.5890  -34.7910   22.3410 O   0  0  0  0  0  0  0  0  0  0  0  0
  -25.0110  -33.9790   24.9390 H   0  0  0  0  0  0  0  0  0  0  0  0
  -24.2390  -36.7170   23.0420 C   0  0  0  0  0  1  0  0  0  0  0  0
  -25.4630  -36.2760   23.8580 C   0  0  0  0  0  3  0  0  0  0  0  0
  -27.6060  -37.1050   24.7270 C   0  0  0  0  0  1  0  0  0  0  0  0
  -26.5170  -37.3110   23.7730 N   0  0  0  0  0  0  0  0  0  0  0  0
  -26.1290  -38.2370   23.9300 H   0  0  0  0  0  0  0  0  0  0  0  0
  1  3  1  0
  1  7  2  0
  2  1  1  0
  4  6  1  0
  5  2  1  0
  5  4  1  0
  5 56  1  0
  6 10  1  0
  6  3  1  0
  8 11  1  0
  9 12  1  0
 10  8  2  0
 10 13  1  0
 11 12  2  0
 11 53  1  0
 12 23  1  0
 13 14  1  0
 13  9  2  0
 15 23  1  0
 16 21  1  0
 17 18  1  0
 17 16  1  0
 19 18  1  0
 19 28  1  0
 19 20  1  0
 21 15  1  0
 21 20  1  0
 22 15  2  0
 23 24  1  0
 25 26  2  0
 26 45  1  0
 27 26  1  0
 27 30  1  0
 28 29  1  0
 28 25  1  0
 29 27  2  0
 30 31  1  0
 31 32  2  0
 33 36  1  0
 33 32  1  0
 34 33  2  0
 35 34  1  0
 35 30  2  0
 36 37  1  0
 37 42  2  0
 37 38  1  0
 38 39  2  0
 39 40  1  0
 40 44  1  0
 41 40  2  0
 42 41  1  0
 43 42  1  0
 45 46  1  0
 46 49  1  0
 46 48  1  0
 47 45  2  0
 50 51  1  0
 50 25  1  0
 52 50  1  0
 54 53  1  0
 55 53  1  0
 57 59  1  0
 57 56  1  0
 58 69  2  0
 59 64  1  0
 60 68  1  0
 60 70  1  0
 61 67  1  0
 61 63  1  0
 62 68  1  0
 63 62  1  0
 64 63  2  0
 65 66  1  0
 65 59  2  0
 66 61  2  0
 67 60  1  0
 68 58  1  0
 70 72  2  0
 71 70  1  0
 73 71  1  0
 74 83  2  0
 74 79  1  0
 75 71  1  0
 75 79  1  0
 76 75  1  0
 77 78  1  0
 77 76  1  0
 78 74  1  0
 79 80  2  0
 80 81  1  0
 82 81  2  0
 83 82  1  0
 84 58  1  0
 84 89  1  0
 84 85  1  0
 85 88  1  1
 85 86  1  0
 87 85  1  0
 89 92  1  0
 90 94  1  0
 90 89  1  0
 91 90  2  0
 94 93  1  0
 96 94  1  0
 96 97  1  0
 96 95  1  0
M  ISO  4  15 100  23 100  56 101  57 101
M  END
>  <TORSDO>  (43) 
F 19

>  <SCORE>  (43) 
-13.664

>  <name>  (43) 
42

>  <ligand_id>  (43) 
42

>  <original_smiles>  (43) 
[H]c1c([H])c([H])c2c(c1[H])C([H])([H])C([H])([H])C([H])([H])C2([H])N([H])C(=O)C1([H])N(C(=O)C([H])(N([H])C(=O)C([H])(N([H])C([H])([H])[H])C([H])([H])[H])C(C([H])([H])[H])(C([H])([H])[H])C([H])([H])[H])C([H])([H])c2c([H])c(OC([H])([H])C3([H])C([H])([H])C(=O)C([H])([H])N(c4c([H])c(N([H])[H])c(N([H])C(=O)N5C([H])([H])C([H])([H])C([H])([H])C([H])(n6nc(-c7c([H])c([H])c(Oc8c([H])c([H])c(F)c([H])c8F)c([H])c7[H])c(C(=O)N([H])[H])c6N([H])[H])C5([H])[H])c([H])c4F)C3([H])[H])c([H])c([H])c2C1([H])[H]

>  <smiles>  (43) 
[H]c1c([H])c([H])c2c(c1[H])C([H])([H])C([H])([H])C([H])([H])C2([H])N([H])C(=O)C1([H])N(C(=O)C([H])(N([H])C(=O)C([H])(N([H])C([H])([H])[H])C([H])([H])[H])C(C([H])([H])[H])(C([H])([H])[H])C([H])([H])[H])C([H])([H])c2c([H])c(OC([H])([H])C3([H])C([H])([H])C(=O)C([H])([H])N(c4c([H])c(N([H])[H])c(N([H])C(=O)N5C([H])([H])C([H])([H])C([H])([H])C([H])(n6nc(-c7c([H])c([H])c(Oc8c([H])c([H])c(F)c([H])c8F)c([H])c7[H])c(C(=O)N([H])[H])c6N([H])[H])C5([H])[H])c([H])c4F)C3([H])[H])c([H])c([H])c2C1([H])[H]

$$$$
43:0:0
     RDKit          3D

 94103  0  0  1  0  0  0  0  0999 V2000
  -30.5620  -23.8910   19.9780 C   0  0  0  0  0  2  0  0  0  0  0  0
  -30.6140  -22.4630   20.5390 C   0  0  0  0  0  2  0  0  0  0  0  0
  -28.3450  -23.0100   20.0060 C   0  0  0  0  0  2  0  0  0  0  0  0
  -29.1140  -24.3280   20.2120 C   0  0  0  0  0  3  0  0  0  0  0  0
  -29.2590  -21.8890   20.3630 N   0  0  1  0  0  4  0  0  0  0  0  0
  -28.9650  -21.5350   21.2610 H   0  0  0  0  0  0  0  0  0  0  0  0
  -29.1820  -20.7520   19.4050 C   0  0  0  0  0  2  0  0  0  0  0  0
  -28.5240  -18.5590   20.5260 C   0  0  0  0  0  3  0  0  0  0  0  0
  -28.8020  -17.2260   20.8860 C   0  0  0  0  0  3  0  0  0  0  0  0
  -30.8500  -18.8720   19.9020 C   0  0  0  0  0  3  0  0  0  0  0  0
  -29.5360  -19.3830   19.9890 C   0  0  0  0  0  0  0  0  0  0  0  0
  -30.0920  -16.6800   20.7110 C   0  0  0  0  0  0  0  0  0  0  0  0
  -31.1370  -17.5390   20.2720 C   0  0  0  0  0  0  0  0  0  0  0  0
  -32.4200  -17.1190   20.1890 F   0  0  0  0  0  0  0  0  0  0  0  0
  -30.7770  -14.3730   20.1560 C   0  0  0  0  0  0  0  0  0  0  0  0
  -30.3540  -12.2800   18.9270 C   0  0  0  0  0  2  0  0  0  0  0  0
  -29.3650  -12.5740   17.7810 C   0  0  0  0  0  2  0  0  0  0  0  0
  -27.9080  -12.4510   18.2690 C   0  0  0  0  0  2  0  0  0  0  0  0
  -27.6550  -13.2300   19.5880 C   0  0  0  0  0  3  0  0  0  0  0  0
  -28.7550  -12.9310   20.6340 C   0  0  0  0  0  2  0  0  0  0  0  0
  -30.0670  -13.2190   20.0240 N   0  0  0  0  0  0  0  0  0  0  0  0
  -31.8260  -14.5700   19.5390 O   0  0  0  0  0  0  0  0  0  0  0  0
  -30.2400  -15.2860   20.9820 N   0  0  0  0  0  0  0  0  0  0  0  0
  -29.4950  -14.8930   21.5360 H   0  0  0  0  0  0  0  0  0  0  0  0
  -25.2880  -13.8540   20.3890 C   0  0  0  0  0  0  0  0  0  0  0  0
  -24.2280  -13.0880   20.7940 C   0  0  0  0  0  0  0  0  0  0  0  0
  -24.6730  -11.7320   20.7340 C   0  0  0  0  0  0  0  0  0  0  0  0
  -26.3160  -12.9640   20.1130 N   0  0  0  0  0  0  0  0  0  0  0  0
  -25.9490  -11.6830   20.3720 N   0  0  0  0  0  0  0  0  0  0  0  0
  -23.9410  -10.4760   20.9440 C   0  0  0  0  0  0  0  0  0  0  0  0
  -24.3830   -9.5130   21.8780 C   0  0  0  0  0  3  0  0  0  0  0  0
  -23.6550   -8.3210   22.0750 C   0  0  0  0  0  3  0  0  0  0  0  0
  -22.4690   -8.0820   21.3420 C   0  0  0  0  0  0  0  0  0  0  0  0
  -22.0460   -9.0330   20.3960 C   0  0  0  0  0  3  0  0  0  0  0  0
  -22.7750  -10.2180   20.1960 C   0  0  0  0  0  3  0  0  0  0  0  0
  -21.7110   -6.9420   21.4490 O   0  0  0  0  0  0  0  0  0  0  0  0
  -21.6520   -6.2240   22.6180 C   0  0  0  0  0  0  0  0  0  0  0  0
  -21.2260   -6.8060   23.8300 C   0  0  0  0  0  3  0  0  0  0  0  0
  -21.1140   -6.0150   24.9900 C   0  0  0  0  0  3  0  0  0  0  0  0
  -21.4180   -4.6420   24.9390 C   0  0  0  0  0  0  0  0  0  0  0  0
  -21.8360   -4.0580   23.7300 C   0  0  0  0  0  3  0  0  0  0  0  0
  -21.9490   -4.8460   22.5720 C   0  0  0  0  0  0  0  0  0  0  0  0
  -22.3320   -4.2740   21.4040 F   0  0  0  0  0  0  0  0  0  0  0  0
  -21.3030   -3.8790   26.0510 F   0  0  0  0  0  0  0  0  0  0  0  0
  -22.8480  -13.5770   21.1280 C   0  0  0  0  0  0  0  0  0  0  0  0
  -22.1490  -12.8820   22.0180 N   0  0  0  0  0  0  0  0  0  0  0  0
  -22.4000  -14.6100   20.6320 O   0  0  0  0  0  0  0  0  0  0  0  0
  -22.5220  -12.0430   22.4380 H   0  0  0  0  0  0  0  0  0  0  0  0
  -21.2240  -13.1910   22.2840 H   0  0  0  0  0  0  0  0  0  0  0  0
  -25.4610  -15.2240   20.2170 N   0  0  0  0  0  0  0  0  0  0  0  0
  -24.7010  -15.8820   20.3490 H   0  0  0  0  0  0  0  0  0  0  0  0
  -26.3040  -15.6580   19.8650 H   0  0  0  0  0  0  0  0  0  0  0  0
  -28.6470  -25.5010   19.3060 C   0  0  0  0  0  2  0  0  0  0  0  0
  -28.4440  -26.7100   20.0560 O   0  0  0  0  0  0  0  0  0  0  0  0
  -24.5850  -31.8120   23.1720 C   0  0  0  0  0  0  0  0  0  0  0  0
  -27.2360  -27.3880   20.0430 C   0  0  0  0  0  0  0  0  0  0  0  0
  -23.3810  -30.4250   21.5160 C   0  0  0  0  0  3  0  0  0  0  0  0
  -24.8350  -28.9010   20.0830 C   0  0  0  0  0  0  0  0  0  0  0  0
  -25.9100  -30.7790   21.3310 C   0  0  0  0  0  2  0  0  0  0  0  0
  -25.9940  -29.4160   20.6730 C   0  0  0  0  0  0  0  0  0  0  0  0
  -27.1910  -28.6670   20.6510 C   0  0  0  0  0  3  0  0  0  0  0  0
  -26.0430  -26.8820   19.4690 C   0  0  0  0  0  3  0  0  0  0  0  0
  -24.8530  -27.6330   19.4840 C   0  0  0  0  0  3  0  0  0  0  0  0
  -23.5930  -29.7580   20.1330 C   0  0  0  0  0  2  0  0  0  0  0  0
  -24.6430  -31.0210   22.0630 N   0  0  0  0  0  0  0  0  0  0  0  0
  -23.5030  -32.0830   23.7100 O   0  0  0  0  0  0  0  0  0  0  0  0
  -22.7280  -29.3970   22.4670 C   0  0  0  0  0  0  0  0  0  0  0  0
  -21.4000  -29.2280   22.3480 N   0  0  0  0  0  0  0  0  0  0  0  0
  -23.4110  -28.7520   23.2670 O   0  0  0  0  0  0  0  0  0  0  0  0
  -20.9110  -29.8010   21.6750 H   0  0  0  0  0  0  0  0  0  0  0  0
  -18.0160  -28.0740   22.8630 C   0  0  0  0  0  0  0  0  0  0  0  0
  -20.5800  -28.2880   23.1090 C   0  0  0  0  0  3  0  0  0  0  0  0
  -20.6540  -26.8670   22.5050 C   0  0  0  0  0  2  0  0  0  0  0  0
  -19.5360  -26.5800   21.4980 C   0  0  0  0  0  2  0  0  0  0  0  0
  -18.1650  -26.7340   22.1610 C   0  0  0  0  0  2  0  0  0  0  0  0
  -19.1510  -28.8110   23.2940 C   0  0  0  0  0  0  0  0  0  0  0  0
  -18.9580  -30.0660   23.9090 C   0  0  0  0  0  3  0  0  0  0  0  0
  -17.6630  -30.5850   24.0960 C   0  0  0  0  0  3  0  0  0  0  0  0
  -16.5420  -29.8440   23.6830 C   0  0  0  0  0  3  0  0  0  0  0  0
  -16.7200  -28.5890   23.0720 C   0  0  0  0  0  3  0  0  0  0  0  0
  -25.8710  -32.4370   23.7980 C   0  0  0  0  0  3  0  0  0  0  0  0
  -26.4000  -31.6420   25.0550 C   0  0  1  0  0  0  0  0  0  0  0  0
  -25.3150  -31.3770   26.1250 C   0  0  0  0  0  1  0  0  0  0  0  0
  -26.9890  -30.2760   24.6310 C   0  0  0  0  0  1  0  0  0  0  0  0
  -27.5520  -32.4300   25.7260 C   0  0  0  0  0  1  0  0  0  0  0  0
  -25.5580  -33.8270   24.1560 N   0  0  0  0  0  0  0  0  0  0  0  0
  -25.8840  -34.8950   23.4160 C   0  0  0  0  0  0  0  0  0  0  0  0
  -26.5510  -34.8140   22.3810 O   0  0  0  0  0  0  0  0  0  0  0  0
  -24.9640  -33.9630   24.9620 H   0  0  0  0  0  0  0  0  0  0  0  0
  -24.1430  -36.6810   23.0980 C   0  0  0  0  0  1  0  0  0  0  0  0
  -25.3890  -36.2710   23.9010 C   0  0  0  0  0  3  0  0  0  0  0  0
  -27.5200  -37.1490   24.7440 C   0  0  0  0  0  1  0  0  0  0  0  0
  -26.4150  -37.3320   23.8060 N   0  0  0  0  0  0  0  0  0  0  0  0
  -26.0050  -38.2460   23.9760 H   0  0  0  0  0  0  0  0  0  0  0  0
  1  4  1  0
  1  2  1  0
  3  4  1  0
  3  5  1  0
  4 53  1  0
  5  2  1  0
  5  6  1  1
  7 11  1  0
  7  5  1  0
  8  9  1  0
 10 11  1  0
 10 13  2  0
 11  8  2  0
 12  9  2  0
 12 23  1  0
 13 12  1  0
 14 13  1  0
 15 23  1  0
 16 21  1  0
 17 18  1  0
 17 16  1  0
 19 18  1  0
 19 28  1  0
 19 20  1  0
 21 15  1  0
 21 20  1  0
 22 15  2  0
 23 24  1  0
 25 26  2  0
 26 45  1  0
 27 26  1  0
 27 30  1  0
 28 29  1  0
 28 25  1  0
 29 27  2  0
 30 31  1  0
 31 32  2  0
 33 36  1  0
 33 32  1  0
 34 33  2  0
 35 34  1  0
 35 30  2  0
 36 37  1  0
 37 38  1  0
 38 39  2  0
 40 39  1  0
 40 44  1  0
 41 40  2  0
 42 37  2  0
 42 41  1  0
 43 42  1  0
 45 46  1  0
 46 49  1  0
 46 48  1  0
 47 45  2  0
 50 51  1  0
 50 25  1  0
 52 50  1  0
 53 54  1  0
 55 66  2  0
 56 54  1  0
 56 61  1  0
 57 65  1  0
 57 67  1  0
 58 64  1  0
 58 60  1  0
 59 65  1  0
 60 59  1  0
 61 60  2  0
 62 63  1  0
 62 56  2  0
 63 58  2  0
 64 57  1  0
 65 55  1  0
 67 69  2  0
 68 67  1  0
 70 68  1  0
 71 80  2  0
 71 76  1  0
 72 68  1  0
 72 76  1  0
 73 72  1  0
 74 75  1  0
 74 73  1  0
 75 71  1  0
 76 77  2  0
 77 78  1  0
 79 78  2  0
 80 79  1  0
 81 55  1  0
 81 86  1  0
 81 82  1  0
 82 85  1  1
 82 83  1  0
 84 82  1  0
 86 89  1  0
 87 91  1  0
 87 86  1  0
 88 87  2  0
 91 90  1  0
 93 91  1  0
 93 94  1  0
 93 92  1  0
M  ISO  4  15 100  23 100  53 101  54 101
M  END
>  <TORSDO>  (44) 
F 19

>  <SCORE>  (44) 
-14.276

>  <name>  (44) 
43

>  <ligand_id>  (44) 
43

>  <original_smiles>  (44) 
[H]c1c([H])c([H])c2c(c1[H])C([H])([H])C([H])([H])C([H])([H])C2([H])N([H])C(=O)C1([H])N(C(=O)C([H])(N([H])C(=O)C([H])(N([H])C([H])([H])[H])C([H])([H])[H])C(C([H])([H])[H])(C([H])([H])[H])C([H])([H])[H])C([H])([H])c2c([H])c(OC([H])([H])C3([H])C([H])([H])C([H])([H])[N+]([H])(C([H])([H])c4c([H])c([H])c(N([H])C(=O)N5C([H])([H])C([H])([H])C([H])([H])C([H])(n6nc(-c7c([H])c([H])c(Oc8c([H])c([H])c(F)c([H])c8F)c([H])c7[H])c(C(=O)N([H])[H])c6N([H])[H])C5([H])[H])c(F)c4[H])C3([H])[H])c([H])c([H])c2C1([H])[H]

>  <smiles>  (44) 
[H]c1c([H])c([H])c2c(c1[H])C([H])([H])C([H])([H])C([H])([H])C2([H])N([H])C(=O)C1([H])N(C(=O)C([H])(N([H])C(=O)C([H])(N([H])C([H])([H])[H])C([H])([H])[H])C(C([H])([H])[H])(C([H])([H])[H])C([H])([H])[H])C([H])([H])c2c([H])c(OC([H])([H])C3([H])C([H])([H])C([H])([H])[N+]([H])(C([H])([H])c4c([H])c([H])c(N([H])C(=O)N5C([H])([H])C([H])([H])C([H])([H])C([H])(n6nc(-c7c([H])c([H])c(Oc8c([H])c([H])c(F)c([H])c8F)c([H])c7[H])c(C(=O)N([H])[H])c6N([H])[H])C5([H])[H])c(F)c4[H])C3([H])[H])c([H])c([H])c2C1([H])[H]

$$$$
44:0:0
     RDKit          3D

 98107  0  0  1  0  0  0  0  0999 V2000
  -31.9270  -23.8280   19.5860 C   0  0  0  0  0  0  0  0  0  0  0  0
  -32.2430  -22.5770   18.7670 C   0  0  0  0  0  2  0  0  0  0  0  0
  -30.6720  -24.6180   19.2130 C   0  0  0  0  0  2  0  0  0  0  0  0
  -30.9810  -21.9550   18.1520 C   0  0  0  0  0  2  0  0  0  0  0  0
  -28.9660  -22.5190   19.4840 C   0  0  0  0  0  2  0  0  0  0  0  0
  -29.3530  -24.0560   19.8070 C   0  0  0  0  0  3  0  0  0  0  0  0
  -30.0470  -21.5230   19.1990 N   0  0  0  0  0  0  0  0  0  0  0  0
  -32.6700  -24.2020   20.4970 O   0  0  0  0  0  0  0  0  0  0  0  0
  -28.9770  -19.4320   20.1740 C   0  0  0  0  0  3  0  0  0  0  0  0
  -31.0750  -19.2350   19.0550 C   0  0  0  0  0  3  0  0  0  0  0  0
  -28.9860  -18.0180   20.4110 C   0  0  0  0  0  0  0  0  0  0  0  0
  -30.0210  -20.0980   19.4790 C   0  0  0  0  0  0  0  0  0  0  0  0
  -31.0720  -17.8230   19.2220 C   0  0  0  0  0  0  0  0  0  0  0  0
  -30.0250  -17.1610   19.9280 C   0  0  0  0  0  0  0  0  0  0  0  0
  -27.8310  -17.4190   21.1950 C   0  0  0  0  0  1  0  0  0  0  0  0
  -30.6420  -14.6080   19.7900 C   0  0  0  0  0  0  0  0  0  0  0  0
  -30.2640  -12.4070   18.7240 C   0  0  0  0  0  2  0  0  0  0  0  0
  -29.2330  -12.6090   17.5940 C   0  0  0  0  0  2  0  0  0  0  0  0
  -27.8020  -12.4520   18.1450 C   0  0  0  0  0  2  0  0  0  0  0  0
  -27.5630  -13.2910   19.4280 C   0  0  0  0  0  3  0  0  0  0  0  0
  -28.7100  -13.1090   20.4480 C   0  0  0  0  0  2  0  0  0  0  0  0
  -29.9730  -13.4150   19.7610 N   0  0  0  0  0  0  0  0  0  0  0  0
  -31.8030  -14.6790   19.3790 O   0  0  0  0  0  0  0  0  0  0  0  0
  -29.8970  -15.7070   20.1320 N   0  0  0  0  0  0  0  0  0  0  0  0
  -29.0140  -15.4420   20.5350 H   0  0  0  0  0  0  0  0  0  0  0  0
  -25.2520  -13.8990   20.3730 C   0  0  0  0  0  0  0  0  0  0  0  0
  -24.2090  -13.1330   20.8140 C   0  0  0  0  0  0  0  0  0  0  0  0
  -24.6400  -11.7750   20.6940 C   0  0  0  0  0  0  0  0  0  0  0  0
  -26.2570  -13.0130   20.0190 N   0  0  0  0  0  0  0  0  0  0  0  0
  -25.8980  -11.7280   20.2720 N   0  0  0  0  0  0  0  0  0  0  0  0
  -23.9080  -10.5210   20.8980 C   0  0  0  0  0  0  0  0  0  0  0  0
  -24.3600   -9.5390   21.8050 C   0  0  0  0  0  3  0  0  0  0  0  0
  -23.6250   -8.3500   22.0000 C   0  0  0  0  0  3  0  0  0  0  0  0
  -22.4250   -8.1320   21.2850 C   0  0  0  0  0  0  0  0  0  0  0  0
  -21.9890   -9.1030   20.3650 C   0  0  0  0  0  3  0  0  0  0  0  0
  -22.7250  -10.2830   20.1690 C   0  0  0  0  0  3  0  0  0  0  0  0
  -21.6630   -6.9940   21.3880 O   0  0  0  0  0  0  0  0  0  0  0  0
  -21.6010   -6.2710   22.5520 C   0  0  0  0  0  0  0  0  0  0  0  0
  -21.1730   -6.8500   23.7670 C   0  0  0  0  0  3  0  0  0  0  0  0
  -21.0590   -6.0560   24.9240 C   0  0  0  0  0  3  0  0  0  0  0  0
  -21.3610   -4.6820   24.8690 C   0  0  0  0  0  0  0  0  0  0  0  0
  -21.7840   -4.1010   23.6610 C   0  0  0  0  0  3  0  0  0  0  0  0
  -21.9000   -4.8940   22.5050 C   0  0  0  0  0  0  0  0  0  0  0  0
  -22.2850   -4.3250   21.3370 F   0  0  0  0  0  0  0  0  0  0  0  0
  -21.2450   -3.9170   25.9800 F   0  0  0  0  0  0  0  0  0  0  0  0
  -22.8520  -13.6240   21.2240 C   0  0  0  0  0  0  0  0  0  0  0  0
  -22.1920  -12.9170   22.1340 N   0  0  0  0  0  0  0  0  0  0  0  0
  -22.3880  -14.6710   20.7740 O   0  0  0  0  0  0  0  0  0  0  0  0
  -22.5800  -12.0680   22.5180 H   0  0  0  0  0  0  0  0  0  0  0  0
  -21.2840  -13.2290   22.4500 H   0  0  0  0  0  0  0  0  0  0  0  0
  -25.4210  -15.2690   20.2140 N   0  0  0  0  0  0  0  0  0  0  0  0
  -24.6650  -15.9250   20.3830 H   0  0  0  0  0  0  0  0  0  0  0  0
  -26.2040  -15.6890   19.7310 H   0  0  0  0  0  0  0  0  0  0  0  0
  -32.1180  -17.1210   18.6310 N   0  0  0  0  0  0  0  0  0  0  0  0
  -33.0010  -17.6000   18.4900 H   0  0  0  0  0  0  0  0  0  0  0  0
  -32.2440  -16.1650   18.9890 H   0  0  0  0  0  0  0  0  0  0  0  0
  -28.2040  -25.0750   19.4200 C   0  0  0  0  0  2  0  0  0  0  0  0
  -28.3450  -26.5010   19.7660 O   0  0  0  0  0  0  0  0  0  0  0  0
  -24.4590  -31.6120   23.0330 C   0  0  0  0  0  0  0  0  0  0  0  0
  -27.1860  -27.2900   19.7620 C   0  0  0  0  0  0  0  0  0  0  0  0
  -23.2810  -30.2530   21.3420 C   0  0  0  0  0  3  0  0  0  0  0  0
  -24.7660  -28.8110   19.8440 C   0  0  0  0  0  0  0  0  0  0  0  0
  -25.8090  -30.6550   21.1600 C   0  0  0  0  0  2  0  0  0  0  0  0
  -25.9220  -29.3110   20.4540 C   0  0  0  0  0  0  0  0  0  0  0  0
  -27.1340  -28.5610   20.4080 C   0  0  0  0  0  3  0  0  0  0  0  0
  -26.0010  -26.8390   19.1330 C   0  0  0  0  0  3  0  0  0  0  0  0
  -24.8040  -27.5770   19.1780 C   0  0  0  0  0  3  0  0  0  0  0  0
  -23.5050  -29.6460   19.9330 C   0  0  0  0  0  2  0  0  0  0  0  0
  -24.5340  -30.8540   21.9010 N   0  0  0  0  0  0  0  0  0  0  0  0
  -23.3730  -31.8360   23.5860 O   0  0  0  0  0  0  0  0  0  0  0  0
  -22.6540  -29.1750   22.2580 C   0  0  0  0  0  0  0  0  0  0  0  0
  -21.3300  -28.9770   22.1410 N   0  0  0  0  0  0  0  0  0  0  0  0
  -23.3580  -28.5220   23.0330 O   0  0  0  0  0  0  0  0  0  0  0  0
  -20.8200  -29.5520   21.4840 H   0  0  0  0  0  0  0  0  0  0  0  0
  -17.9800  -27.7260   22.6640 C   0  0  0  0  0  0  0  0  0  0  0  0
  -20.5430  -27.9920   22.8810 C   0  0  0  0  0  3  0  0  0  0  0  0
  -20.6410  -26.5950   22.2250 C   0  0  0  0  0  2  0  0  0  0  0  0
  -19.5140  -26.3200   21.2230 C   0  0  0  0  0  2  0  0  0  0  0  0
  -18.1480  -26.4170   21.9100 C   0  0  0  0  0  2  0  0  0  0  0  0
  -19.1040  -28.4710   23.1080 C   0  0  0  0  0  0  0  0  0  0  0  0
  -18.8930  -29.6980   23.7760 C   0  0  0  0  0  3  0  0  0  0  0  0
  -17.5910  -30.1770   24.0050 C   0  0  0  0  0  3  0  0  0  0  0  0
  -16.4810  -29.4280   23.5780 C   0  0  0  0  0  3  0  0  0  0  0  0
  -16.6760  -28.2040   22.9130 C   0  0  0  0  0  3  0  0  0  0  0  0
  -25.7300  -32.2530   23.6720 C   0  0  0  0  0  3  0  0  0  0  0  0
  -26.2710  -31.4470   24.9170 C   0  0  1  0  0  0  0  0  0  0  0  0
  -25.1900  -31.1490   25.9810 C   0  0  0  0  0  1  0  0  0  0  0  0
  -26.8820  -30.0970   24.4750 C   0  0  0  0  0  1  0  0  0  0  0  0
  -27.4060  -32.2420   25.6030 C   0  0  0  0  0  1  0  0  0  0  0  0
  -25.3880  -33.6300   24.0550 N   0  0  0  0  0  0  0  0  0  0  0  0
  -25.6840  -34.7160   23.3300 C   0  0  0  0  0  0  0  0  0  0  0  0
  -26.3480  -34.6680   22.2910 O   0  0  0  0  0  0  0  0  0  0  0  0
  -24.8030  -33.7390   24.8700 H   0  0  0  0  0  0  0  0  0  0  0  0
  -23.9050  -36.4720   23.0540 C   0  0  0  0  0  1  0  0  0  0  0  0
  -25.1630  -36.0730   23.8400 C   0  0  0  0  0  3  0  0  0  0  0  0
  -27.2800  -36.9870   24.6840 C   0  0  0  0  0  1  0  0  0  0  0  0
  -26.1650  -37.1600   23.7580 N   0  0  0  0  0  0  0  0  0  0  0  0
  -25.7330  -38.0600   23.9470 H   0  0  0  0  0  0  0  0  0  0  0  0
  1  8  2  0
  2  1  1  0
  3  1  1  0
  3  6  1  0
  4  2  1  0
  4  7  1  0
  5  6  1  0
  6 57  1  0
  7 12  1  0
  7  5  1  0
  9 11  1  0
 10 13  2  0
 10 12  1  0
 11 15  1  0
 12  9  2  0
 13 14  1  0
 14 24  1  0
 14 11  2  0
 16 24  1  0
 17 22  1  0
 18 19  1  0
 18 17  1  0
 20 19  1  0
 20 29  1  0
 20 21  1  0
 22 16  1  0
 22 21  1  0
 23 16  2  0
 24 25  1  0
 26 27  2  0
 27 46  1  0
 28 27  1  0
 28 31  1  0
 29 30  1  0
 29 26  1  0
 30 28  2  0
 31 32  1  0
 32 33  2  0
 34 37  1  0
 34 33  1  0
 35 34  2  0
 36 35  1  0
 36 31  2  0
 37 38  1  0
 38 39  1  0
 39 40  2  0
 41 40  1  0
 41 45  1  0
 42 41  2  0
 43 38  2  0
 43 42  1  0
 44 43  1  0
 46 47  1  0
 47 50  1  0
 47 49  1  0
 48 46  2  0
 51 26  1  0
 51 52  1  0
 53 51  1  0
 54 56  1  0
 54 13  1  0
 55 54  1  0
 57 58  1  0
 59 70  2  0
 60 58  1  0
 60 65  1  0
 61 69  1  0
 61 71  1  0
 62 68  1  0
 62 64  1  0
 63 69  1  0
 64 63  1  0
 65 64  2  0
 66 67  1  0
 66 60  2  0
 67 62  2  0
 68 61  1  0
 69 59  1  0
 71 73  2  0
 72 71  1  0
 74 72  1  0
 75 84  2  0
 75 80  1  0
 76 72  1  0
 76 80  1  0
 77 76  1  0
 78 79  1  0
 78 77  1  0
 79 75  1  0
 80 81  2  0
 81 82  1  0
 83 82  2  0
 84 83  1  0
 85 59  1  0
 85 90  1  0
 85 86  1  0
 86 89  1  1
 86 87  1  0
 88 86  1  0
 90 93  1  0
 91 95  1  0
 91 90  1  0
 92 91  2  0
 95 94  1  0
 97 95  1  0
 97 98  1  0
 97 96  1  0
M  ISO  4  16 100  24 100  57 101  58 101
M  END
>  <TORSDO>  (45) 
F 19

>  <SCORE>  (45) 
-12.616

>  <name>  (45) 
44

>  <ligand_id>  (45) 
44

>  <original_smiles>  (45) 
[H]c1c([H])c([H])c2c(c1[H])C([H])([H])C([H])([H])C([H])([H])C2([H])N([H])C(=O)C1([H])N(C(=O)C([H])(N([H])C(=O)C([H])(N([H])C([H])([H])[H])C([H])([H])[H])C(C([H])([H])[H])(C([H])([H])[H])C([H])([H])[H])C([H])([H])c2c([H])c(OC([H])([H])C3([H])C([H])([H])C(=O)C([H])([H])C([H])([H])N(c4c([H])c(N([H])[H])c(N([H])C(=O)N5C([H])([H])C([H])([H])C([H])([H])C([H])(n6nc(-c7c([H])c([H])c(Oc8c([H])c([H])c(F)c([H])c8F)c([H])c7[H])c(C(=O)N([H])[H])c6N([H])[H])C5([H])[H])c(C([H])([H])[H])c4[H])C3([H])[H])c([H])c([H])c2C1([H])[H]

>  <smiles>  (45) 
[H]c1c([H])c([H])c2c(c1[H])C([H])([H])C([H])([H])C([H])([H])C2([H])N([H])C(=O)C1([H])N(C(=O)C([H])(N([H])C(=O)C([H])(N([H])C([H])([H])[H])C([H])([H])[H])C(C([H])([H])[H])(C([H])([H])[H])C([H])([H])[H])C([H])([H])c2c([H])c(OC([H])([H])C3([H])C([H])([H])C(=O)C([H])([H])C([H])([H])N(c4c([H])c(N([H])[H])c(N([H])C(=O)N5C([H])([H])C([H])([H])C([H])([H])C([H])(n6nc(-c7c([H])c([H])c(Oc8c([H])c([H])c(F)c([H])c8F)c([H])c7[H])c(C(=O)N([H])[H])c6N([H])[H])C5([H])[H])c(C([H])([H])[H])c4[H])C3([H])[H])c([H])c([H])c2C1([H])[H]

$$$$
45:0:0
     RDKit          3D

 94102  0  0  1  0  0  0  0  0999 V2000
  -31.3050  -18.3990   19.6960 C   0  0  0  0  0  3  0  0  0  0  0  0
  -30.9350  -19.7210   19.3580 C   0  0  0  0  0  3  0  0  0  0  0  0
  -30.0710  -20.0450   21.5990 C   0  0  0  0  0  3  0  0  0  0  0  0
  -31.0880  -17.8870   20.9940 C   0  0  0  0  0  0  0  0  0  0  0  0
  -30.3390  -20.5750   20.3130 C   0  0  0  0  0  0  0  0  0  0  0  0
  -30.4320  -18.7170   21.9430 C   0  0  0  0  0  0  0  0  0  0  0  0
  -30.1510  -18.2620   23.2340 N   0  0  0  0  0  0  0  0  0  0  0  0
  -29.4670  -18.7700   23.7870 H   0  0  0  0  0  0  0  0  0  0  0  0
  -30.1230  -17.2630   23.4080 H   0  0  0  0  0  0  0  0  0  0  0  0
  -30.0450  -21.9100   19.9510 N   0  0  0  0  0  0  0  0  0  0  0  0
  -30.4760  -22.2390   19.0910 H   0  0  0  0  0  0  0  0  0  0  0  0
  -29.8790  -22.9140   21.0070 C   0  0  0  0  0  2  0  0  0  0  0  0
  -29.9520  -24.3670   20.5350 C   0  0  0  0  0  3  0  0  0  0  0  0
  -29.0270  -25.3090   20.8170 C   0  0  0  0  0  3  0  0  0  0  0  0
  -29.1200  -26.6310   20.4290 O   0  0  0  0  0  0  0  0  0  0  0  0
  -24.9200  -31.6900   23.2240 C   0  0  0  0  0  0  0  0  0  0  0  0
  -27.9400  -27.3430   20.3520 C   0  0  0  0  0  0  0  0  0  0  0  0
  -23.8840  -30.2340   21.5150 C   0  0  0  0  0  3  0  0  0  0  0  0
  -25.4910  -28.7530   20.1990 C   0  0  0  0  0  0  0  0  0  0  0  0
  -26.4020  -30.6940   21.4830 C   0  0  0  0  0  2  0  0  0  0  0  0
  -26.5860  -29.3240   20.8610 C   0  0  0  0  0  0  0  0  0  0  0  0
  -27.8160  -28.6270   20.9340 C   0  0  0  0  0  3  0  0  0  0  0  0
  -26.8290  -26.7900   19.6790 C   0  0  0  0  0  3  0  0  0  0  0  0
  -25.6080  -27.4850   19.6050 C   0  0  0  0  0  3  0  0  0  0  0  0
  -24.2130  -29.5580   20.1570 C   0  0  0  0  0  2  0  0  0  0  0  0
  -25.0820  -30.8890   22.1330 N   0  0  0  0  0  0  0  0  0  0  0  0
  -23.7950  -31.9190   23.6910 O   0  0  0  0  0  0  0  0  0  0  0  0
  -23.2110  -29.1910   22.4370 C   0  0  0  0  0  0  0  0  0  0  0  0
  -21.9030  -28.9700   22.2380 N   0  0  0  0  0  0  0  0  0  0  0  0
  -23.8680  -28.5820   23.2860 O   0  0  0  0  0  0  0  0  0  0  0  0
  -21.4340  -29.5140   21.5270 H   0  0  0  0  0  0  0  0  0  0  0  0
  -18.5400  -27.6900   22.5630 C   0  0  0  0  0  0  0  0  0  0  0  0
  -21.0740  -28.0060   22.9600 C   0  0  0  0  0  3  0  0  0  0  0  0
  -21.2380  -26.5830   22.3760 C   0  0  0  0  0  2  0  0  0  0  0  0
  -20.1940  -26.2450   21.3080 C   0  0  0  0  0  2  0  0  0  0  0  0
  -18.7800  -26.3510   21.8870 C   0  0  0  0  0  2  0  0  0  0  0  0
  -19.6170  -28.4740   23.0540 C   0  0  0  0  0  0  0  0  0  0  0  0
  -19.3410  -29.7260   23.6440 C   0  0  0  0  0  3  0  0  0  0  0  0
  -18.0180  -30.1950   23.7510 C   0  0  0  0  0  3  0  0  0  0  0  0
  -16.9530  -29.4090   23.2770 C   0  0  0  0  0  3  0  0  0  0  0  0
  -17.2140  -28.1580   22.6900 C   0  0  0  0  0  3  0  0  0  0  0  0
  -26.1350  -32.3750   23.9250 C   0  0  0  0  0  3  0  0  0  0  0  0
  -25.7310  -33.7440   24.2710 N   0  0  0  0  0  0  0  0  0  0  0  0
  -26.0220  -34.8300   23.5440 C   0  0  0  0  0  0  0  0  0  0  0  0
  -26.7310  -34.7890   22.5330 O   0  0  0  0  0  0  0  0  0  0  0  0
  -25.1040  -33.8450   25.0560 H   0  0  0  0  0  0  0  0  0  0  0  0
  -24.1820  -36.5050   23.1820 C   0  0  0  0  0  1  0  0  0  0  0  0
  -25.4350  -36.1760   24.0080 C   0  0  0  0  0  3  0  0  0  0  0  0
  -27.4860  -37.1980   24.8910 C   0  0  0  0  0  1  0  0  0  0  0  0
  -26.3950  -37.2990   23.9260 N   0  0  0  0  0  0  0  0  0  0  0  0
  -25.9230  -38.1880   24.0710 H   0  0  0  0  0  0  0  0  0  0  0  0
  -26.6350  -31.6000   25.2050 C   0  0  1  0  0  0  0  0  0  0  0  0
  -25.5050  -31.2540   26.2040 C   0  0  0  0  0  1  0  0  0  0  0  0
  -27.3320  -30.2790   24.8050 C   0  0  0  0  0  1  0  0  0  0  0  0
  -27.6900  -32.4480   25.9520 C   0  0  0  0  0  1  0  0  0  0  0  0
  -31.6840  -16.5150   21.3600 C   0  0  0  0  0  2  0  0  0  0  0  0
  -31.4630  -14.3250   20.1500 C   0  0  0  0  0  0  0  0  0  0  0  0
  -30.9550  -12.1810   19.0240 C   0  0  0  0  0  2  0  0  0  0  0  0
  -29.9870  -12.4100   17.8470 C   0  0  0  0  0  2  0  0  0  0  0  0
  -28.5230  -12.3900   18.3300 C   0  0  0  0  0  2  0  0  0  0  0  0
  -28.2900  -13.2880   19.5740 C   0  0  0  0  0  3  0  0  0  0  0  0
  -29.3600  -13.0170   20.6540 C   0  0  0  0  0  2  0  0  0  0  0  0
  -30.6840  -13.2140   20.0370 N   0  0  0  0  0  0  0  0  0  0  0  0
  -32.5490  -14.4390   19.5760 O   0  0  0  0  0  0  0  0  0  0  0  0
  -30.9570  -15.3210   20.8980 N   0  0  0  0  0  0  0  0  0  0  0  0
  -30.0460  -15.1610   21.2960 H   0  0  0  0  0  0  0  0  0  0  0  0
  -25.9900  -14.0990   20.3970 C   0  0  0  0  0  0  0  0  0  0  0  0
  -24.8680  -13.4210   20.7900 C   0  0  0  0  0  0  0  0  0  0  0  0
  -25.1950  -12.0330   20.7040 C   0  0  0  0  0  0  0  0  0  0  0  0
  -26.9360  -13.1290   20.1020 N   0  0  0  0  0  0  0  0  0  0  0  0
  -26.4620  -11.8800   20.3420 N   0  0  0  0  0  0  0  0  0  0  0  0
  -24.3580  -10.8410   20.8920 C   0  0  0  0  0  0  0  0  0  0  0  0
  -24.7060   -9.8330   21.8200 C   0  0  0  0  0  3  0  0  0  0  0  0
  -23.8760   -8.7040   21.9940 C   0  0  0  0  0  3  0  0  0  0  0  0
  -22.6850   -8.5760   21.2410 C   0  0  0  0  0  0  0  0  0  0  0  0
  -22.3560   -9.5700   20.3040 C   0  0  0  0  0  3  0  0  0  0  0  0
  -23.1850  -10.6900   20.1260 C   0  0  0  0  0  3  0  0  0  0  0  0
  -21.8320   -7.5030   21.3260 O   0  0  0  0  0  0  0  0  0  0  0  0
  -21.6690   -6.8020   22.4930 C   0  0  0  0  0  0  0  0  0  0  0  0
  -21.2010   -7.4200   23.6740 C   0  0  0  0  0  3  0  0  0  0  0  0
  -20.9830   -6.6490   24.8330 C   0  0  0  0  0  3  0  0  0  0  0  0
  -21.2230   -5.2630   24.8130 C   0  0  0  0  0  0  0  0  0  0  0  0
  -21.6830   -4.6440   23.6360 C   0  0  0  0  0  3  0  0  0  0  0  0
  -21.9020   -5.4120   22.4800 C   0  0  0  0  0  0  0  0  0  0  0  0
  -22.3260   -4.8080   21.3440 F   0  0  0  0  0  0  0  0  0  0  0  0
  -21.0040   -4.5200   25.9230 F   0  0  0  0  0  0  0  0  0  0  0  0
  -23.5340  -14.0210   21.1320 C   0  0  0  0  0  0  0  0  0  0  0  0
  -22.7820  -13.3750   22.0160 N   0  0  0  0  0  0  0  0  0  0  0  0
  -23.1730  -15.0950   20.6550 O   0  0  0  0  0  0  0  0  0  0  0  0
  -23.0860  -12.5030   22.4230 H   0  0  0  0  0  0  0  0  0  0  0  0
  -21.8880  -13.7580   22.2900 H   0  0  0  0  0  0  0  0  0  0  0  0
  -26.2810  -15.4520   20.2490 N   0  0  0  0  0  0  0  0  0  0  0  0
  -25.5950  -16.1790   20.4160 H   0  0  0  0  0  0  0  0  0  0  0  0
  -27.1680  -15.8130   19.9170 H   0  0  0  0  0  0  0  0  0  0  0  0
  1  4  1  0
  2  1  2  0
  2  5  1  0
  3  6  1  0
  4 56  1  0
  4  6  2  0
  5  3  2  0
  6  7  1  0
  7  9  1  0
  7  8  1  0
 10  5  1  0
 10 12  1  0
 11 10  1  0
 13 14  2  0
 13 12  1  0
 15 14  1  0
 16 27  2  0
 17 15  1  0
 17 22  1  0
 18 26  1  0
 18 28  1  0
 19 21  1  0
 20 26  1  0
 21 22  2  0
 21 20  1  0
 23 17  2  0
 24 23  1  0
 24 19  2  0
 25 19  1  0
 25 18  1  0
 26 16  1  0
 28 30  2  0
 29 28  1  0
 31 29  1  0
 32 41  2  0
 32 37  1  0
 33 29  1  0
 33 37  1  0
 34 33  1  0
 35 36  1  0
 35 34  1  0
 36 32  1  0
 37 38  2  0
 38 39  1  0
 40 39  2  0
 41 40  1  0
 42 16  1  0
 42 43  1  0
 42 52  1  0
 43 46  1  0
 44 48  1  0
 44 43  1  0
 45 44  2  0
 48 47  1  0
 50 48  1  0
 50 51  1  0
 50 49  1  0
 52 55  1  1
 52 53  1  0
 54 52  1  0
 57 65  1  0
 58 63  1  0
 59 60  1  0
 59 58  1  0
 61 60  1  0
 61 70  1  0
 61 62  1  0
 63 57  1  0
 63 62  1  0
 64 57  2  0
 65 66  1  0
 65 56  1  0
 67 68  2  0
 68 87  1  0
 69 68  1  0
 69 72  1  0
 70 71  1  0
 70 67  1  0
 71 69  2  0
 72 73  1  0
 73 74  2  0
 75 78  1  0
 75 74  1  0
 76 75  2  0
 77 76  1  0
 77 72  2  0
 78 79  1  0
 79 80  1  0
 80 81  2  0
 82 81  1  0
 82 86  1  0
 83 82  2  0
 84 79  2  0
 84 83  1  0
 85 84  1  0
 87 88  1  0
 88 91  1  0
 88 90  1  0
 89 87  2  0
 92 67  1  0
 92 93  1  0
 94 92  1  0
M  ISO  4  14 101  15 101  57 100  65 100
M  END
>  <TORSDO>  (46) 
F 21

>  <SCORE>  (46) 
-11.564

>  <name>  (46) 
45

>  <ligand_id>  (46) 
45

>  <original_smiles>  (46) 
[H]C(Oc1c([H])c([H])c2c(c1[H])C([H])([H])N(C(=O)C([H])(N([H])C(=O)C([H])(N([H])C([H])([H])[H])C([H])([H])[H])C(C([H])([H])[H])(C([H])([H])[H])C([H])([H])[H])C([H])(C(=O)N([H])C1([H])c3c([H])c([H])c([H])c([H])c3C([H])([H])C([H])([H])C1([H])[H])C2([H])[H])=C([H])C([H])([H])N([H])c1c([H])c([H])c(C([H])([H])N([H])C(=O)N2C([H])([H])C([H])([H])C([H])([H])C([H])(n3nc(-c4c([H])c([H])c(Oc5c([H])c([H])c(F)c([H])c5F)c([H])c4[H])c(C(=O)N([H])[H])c3N([H])[H])C2([H])[H])c(N([H])[H])c1[H]

>  <smiles>  (46) 
[H]C(Oc1c([H])c([H])c2c(c1[H])C([H])([H])N(C(=O)C([H])(N([H])C(=O)C([H])(N([H])C([H])([H])[H])C([H])([H])[H])C(C([H])([H])[H])(C([H])([H])[H])C([H])([H])[H])C([H])(C(=O)N([H])C1([H])c3c([H])c([H])c([H])c([H])c3C([H])([H])C([H])([H])C1([H])[H])C2([H])[H])=C([H])C([H])([H])N([H])c1c([H])c([H])c(C([H])([H])N([H])C(=O)N2C([H])([H])C([H])([H])C([H])([H])C([H])(n3nc(-c4c([H])c([H])c(Oc5c([H])c([H])c(F)c([H])c5F)c([H])c4[H])c(C(=O)N([H])[H])c3N([H])[H])C2([H])[H])c(N([H])[H])c1[H]

$$$$
46:0:0
     RDKit          3D

 95103  0  0  1  0  0  0  0  0999 V2000
  -30.7420  -19.1120   21.6750 C   0  0  0  0  0  3  0  0  0  0  0  0
  -30.2140  -20.4120   21.5240 C   0  0  0  0  0  3  0  0  0  0  0  0
  -30.1970  -17.9980   20.9870 C   0  0  0  0  0  0  0  0  0  0  0  0
  -29.1110  -20.6330   20.6710 C   0  0  0  0  0  0  0  0  0  0  0  0
  -29.0700  -18.2200   20.1520 C   0  0  0  0  0  0  0  0  0  0  0  0
  -28.5410  -19.5240   20.0020 C   0  0  0  0  0  0  0  0  0  0  0  0
  -28.4840  -17.1980   19.4770 F   0  0  0  0  0  0  0  0  0  0  0  0
  -27.4730  -19.7130   19.1870 F   0  0  0  0  0  0  0  0  0  0  0  0
  -30.8580  -14.4800   20.1060 C   0  0  0  0  0  0  0  0  0  0  0  0
  -30.4240  -12.3300   18.9780 C   0  0  0  0  0  2  0  0  0  0  0  0
  -29.4180  -12.4930   17.8230 C   0  0  0  0  0  2  0  0  0  0  0  0
  -27.9700  -12.3810   18.3380 C   0  0  0  0  0  2  0  0  0  0  0  0
  -27.7080  -13.2590   19.5920 C   0  0  0  0  0  3  0  0  0  0  0  0
  -28.8230  -13.0790   20.6460 C   0  0  0  0  0  2  0  0  0  0  0  0
  -30.1080  -13.3530   19.9840 N   0  0  0  0  0  0  0  0  0  0  0  0
  -31.9700  -14.5760   19.5760 O   0  0  0  0  0  0  0  0  0  0  0  0
  -30.8880  -16.6510   21.1120 C   0  0  0  0  0  0  0  0  0  0  0  0
  -30.2550  -15.5430   20.6740 N   0  0  0  0  0  0  0  0  0  0  0  0
  -32.0260  -16.6170   21.5970 O   0  0  0  0  0  0  0  0  0  0  0  0
  -29.2500  -15.5720   20.6350 H   0  0  0  0  0  0  0  0  0  0  0  0
  -25.3740  -13.9100   20.4570 C   0  0  0  0  0  0  0  0  0  0  0  0
  -24.3080  -13.1550   20.8650 C   0  0  0  0  0  0  0  0  0  0  0  0
  -24.7330  -11.7930   20.7840 C   0  0  0  0  0  0  0  0  0  0  0  0
  -26.3820  -13.0070   20.1500 N   0  0  0  0  0  0  0  0  0  0  0  0
  -26.0030  -11.7280   20.4040 N   0  0  0  0  0  0  0  0  0  0  0  0
  -23.9870  -10.5440   20.9910 C   0  0  0  0  0  0  0  0  0  0  0  0
  -24.4330   -9.5590   21.9000 C   0  0  0  0  0  3  0  0  0  0  0  0
  -23.6890   -8.3760   22.0940 C   0  0  0  0  0  3  0  0  0  0  0  0
  -22.4850   -8.1690   21.3820 C   0  0  0  0  0  0  0  0  0  0  0  0
  -22.0570   -9.1420   20.4610 C   0  0  0  0  0  3  0  0  0  0  0  0
  -22.8010  -10.3180   20.2640 C   0  0  0  0  0  3  0  0  0  0  0  0
  -21.7070   -7.0400   21.4870 O   0  0  0  0  0  0  0  0  0  0  0  0
  -21.6790   -6.2930   22.6380 C   0  0  0  0  0  0  0  0  0  0  0  0
  -21.2690   -6.8430   23.8720 C   0  0  0  0  0  3  0  0  0  0  0  0
  -21.1860   -6.0210   25.0150 C   0  0  0  0  0  3  0  0  0  0  0  0
  -21.5020   -4.6520   24.9230 C   0  0  0  0  0  0  0  0  0  0  0  0
  -21.9050   -4.1030   23.6930 C   0  0  0  0  0  3  0  0  0  0  0  0
  -21.9890   -4.9210   22.5530 C   0  0  0  0  0  0  0  0  0  0  0  0
  -22.3560   -4.3830   21.3660 F   0  0  0  0  0  0  0  0  0  0  0  0
  -21.4170   -3.8610   26.0180 F   0  0  0  0  0  0  0  0  0  0  0  0
  -22.9400  -13.6620   21.2210 C   0  0  0  0  0  0  0  0  0  0  0  0
  -22.2460  -12.9730   22.1210 N   0  0  0  0  0  0  0  0  0  0  0  0
  -22.4950  -14.7030   20.7380 O   0  0  0  0  0  0  0  0  0  0  0  0
  -22.6160  -12.1300   22.5350 H   0  0  0  0  0  0  0  0  0  0  0  0
  -21.3290  -13.2930   22.3970 H   0  0  0  0  0  0  0  0  0  0  0  0
  -25.5720  -15.2790   20.3050 N   0  0  0  0  0  0  0  0  0  0  0  0
  -24.8480  -15.9580   20.5080 H   0  0  0  0  0  0  0  0  0  0  0  0
  -26.4420  -15.7070   20.0160 H   0  0  0  0  0  0  0  0  0  0  0  0
  -28.5560  -21.9100   20.4550 N   0  0  0  0  0  0  0  0  0  0  0  0
  -27.8590  -22.0210   19.7210 H   0  0  0  0  0  0  0  0  0  0  0  0
  -29.1090  -23.1560   20.9990 C   0  0  0  0  0  2  0  0  0  0  0  0
  -28.5030  -24.4090   20.3250 C   0  0  0  0  0  0  0  0  0  0  0  0
  -27.8890  -24.2940   19.2560 O   0  0  0  0  0  0  0  0  0  0  0  0
  -28.6780  -25.7790   21.0240 C   0  0  0  0  0  2  0  0  0  0  0  0
  -28.5540  -26.8890   20.1160 O   0  0  0  0  0  0  0  0  0  0  0  0
  -24.5630  -31.9010   23.2750 C   0  0  0  0  0  0  0  0  0  0  0  0
  -27.3690  -27.5870   20.1670 C   0  0  0  0  0  0  0  0  0  0  0  0
  -23.4310  -30.5350   21.5520 C   0  0  0  0  0  3  0  0  0  0  0  0
  -24.9550  -29.0570   20.1390 C   0  0  0  0  0  0  0  0  0  0  0  0
  -25.9540  -30.9350   21.4460 C   0  0  0  0  0  2  0  0  0  0  0  0
  -26.0820  -29.5760   20.7880 C   0  0  0  0  0  0  0  0  0  0  0  0
  -27.2910  -28.8460   20.8050 C   0  0  0  0  0  3  0  0  0  0  0  0
  -26.2300  -27.0860   19.5050 C   0  0  0  0  0  3  0  0  0  0  0  0
  -25.0230  -27.8090   19.4940 C   0  0  0  0  0  3  0  0  0  0  0  0
  -23.6960  -29.8970   20.1620 C   0  0  0  0  0  2  0  0  0  0  0  0
  -24.6670  -31.1360   22.1510 N   0  0  0  0  0  0  0  0  0  0  0  0
  -23.4610  -32.1430   23.7890 O   0  0  0  0  0  0  0  0  0  0  0  0
  -22.7610  -29.4790   22.4610 C   0  0  0  0  0  0  0  0  0  0  0  0
  -21.4370  -29.3120   22.3060 N   0  0  0  0  0  0  0  0  0  0  0  0
  -23.4270  -28.8100   23.2550 O   0  0  0  0  0  0  0  0  0  0  0  0
  -20.9600  -29.8990   21.6370 H   0  0  0  0  0  0  0  0  0  0  0  0
  -18.0360  -28.1870   22.7740 C   0  0  0  0  0  0  0  0  0  0  0  0
  -20.6020  -28.3490   23.0250 C   0  0  0  0  0  3  0  0  0  0  0  0
  -20.6570  -26.9570   22.3540 C   0  0  0  0  0  2  0  0  0  0  0  0
  -19.5320  -26.7370   21.3380 C   0  0  0  0  0  2  0  0  0  0  0  0
  -18.1630  -26.8810   22.0080 C   0  0  0  0  0  2  0  0  0  0  0  0
  -19.1820  -28.8830   23.2390 C   0  0  0  0  0  0  0  0  0  0  0  0
  -19.0110  -30.1100   23.9150 C   0  0  0  0  0  3  0  0  0  0  0  0
  -17.7260  -30.6390   24.1320 C   0  0  0  0  0  3  0  0  0  0  0  0
  -16.5920  -29.9380   23.6850 C   0  0  0  0  0  3  0  0  0  0  0  0
  -16.7480  -28.7120   23.0110 C   0  0  0  0  0  3  0  0  0  0  0  0
  -25.8190  -32.5280   23.9570 C   0  0  0  0  0  3  0  0  0  0  0  0
  -26.2560  -31.7690   25.2690 C   0  0  1  0  0  0  0  0  0  0  0  0
  -25.1020  -31.5490   26.2730 C   0  0  0  0  0  1  0  0  0  0  0  0
  -26.8500  -30.3850   24.9200 C   0  0  0  0  0  1  0  0  0  0  0  0
  -27.3760  -32.5580   25.9880 C   0  0  0  0  0  1  0  0  0  0  0  0
  -25.5080  -33.9360   24.2470 N   0  0  0  0  0  0  0  0  0  0  0  0
  -25.8790  -34.9700   23.4810 C   0  0  0  0  0  0  0  0  0  0  0  0
  -26.5920  -34.8400   22.4820 O   0  0  0  0  0  0  0  0  0  0  0  0
  -24.8840  -34.1100   25.0210 H   0  0  0  0  0  0  0  0  0  0  0  0
  -24.1770  -36.7600   23.0170 C   0  0  0  0  0  1  0  0  0  0  0  0
  -25.3820  -36.3690   23.8880 C   0  0  0  0  0  3  0  0  0  0  0  0
  -27.4840  -37.2640   24.7900 C   0  0  0  0  0  1  0  0  0  0  0  0
  -26.4220  -37.4170   23.7960 N   0  0  0  0  0  0  0  0  0  0  0  0
  -26.0130  -38.3410   23.9120 H   0  0  0  0  0  0  0  0  0  0  0  0
  2  1  1  0
  3 17  1  0
  3  1  2  0
  4  2  2  0
  5  3  1  0
  6  5  2  0
  6  4  1  0
  7  5  1  0
  8  6  1  0
  9 18  1  0
 10 15  1  0
 11 12  1  0
 11 10  1  0
 13 12  1  0
 13 24  1  0
 13 14  1  0
 15  9  1  0
 15 14  1  0
 16  9  2  0
 17 19  2  0
 18 17  1  0
 20 18  1  0
 21 22  2  0
 22 41  1  0
 23 22  1  0
 23 26  1  0
 24 25  1  0
 24 21  1  0
 25 23  2  0
 26 27  1  0
 27 28  2  0
 29 32  1  0
 29 28  1  0
 30 29  2  0
 31 30  1  0
 31 26  2  0
 32 33  1  0
 33 34  1  0
 34 35  2  0
 36 35  1  0
 36 40  1  0
 37 36  2  0
 38 33  2  0
 38 37  1  0
 39 38  1  0
 41 42  1  0
 42 45  1  0
 42 44  1  0
 43 41  2  0
 46 21  1  0
 46 47  1  0
 48 46  1  0
 49  4  1  0
 49 51  1  0
 50 49  1  0
 52 51  1  0
 52 54  1  0
 53 52  2  0
 55 57  1  0
 55 54  1  0
 56 67  2  0
 57 62  1  0
 58 66  1  0
 58 68  1  0
 59 65  1  0
 59 61  1  0
 60 66  1  0
 61 62  2  0
 61 60  1  0
 63 57  2  0
 64 63  1  0
 64 59  2  0
 65 58  1  0
 66 56  1  0
 68 70  2  0
 69 68  1  0
 71 69  1  0
 72 81  2  0
 72 77  1  0
 73 69  1  0
 73 77  1  0
 74 73  1  0
 75 76  1  0
 75 74  1  0
 76 72  1  0
 77 78  2  0
 78 79  1  0
 80 79  2  0
 81 80  1  0
 82 56  1  0
 82 87  1  0
 82 83  1  0
 83 86  1  1
 83 84  1  0
 85 83  1  0
 87 90  1  0
 88 92  1  0
 88 87  1  0
 89 88  2  0
 92 91  1  0
 94 92  1  0
 94 95  1  0
 94 93  1  0
M  ISO  4   9 100  18 100  54 101  55 101
M  END
>  <TORSDO>  (47) 
F 20

>  <SCORE>  (47) 
-14.050

>  <name>  (47) 
46

>  <ligand_id>  (47) 
46

>  <original_smiles>  (47) 
[H]c1c([H])c([H])c2c(c1[H])C([H])([H])C([H])([H])C([H])([H])C2([H])N([H])C(=O)C1([H])N(C(=O)C([H])(N([H])C(=O)C([H])(N([H])C([H])([H])[H])C([H])([H])[H])C(C([H])([H])[H])(C([H])([H])[H])C([H])([H])[H])C([H])([H])c2c([H])c(OC([H])([H])C(=O)C([H])([H])N([H])c3c([H])c([H])c(C(=O)N([H])C(=O)N4C([H])([H])C([H])([H])C([H])([H])C([H])(n5nc(-c6c([H])c([H])c(Oc7c([H])c([H])c(F)c([H])c7F)c([H])c6[H])c(C(=O)N([H])[H])c5N([H])[H])C4([H])[H])c(F)c3F)c([H])c([H])c2C1([H])[H]

>  <smiles>  (47) 
[H]c1c([H])c([H])c2c(c1[H])C([H])([H])C([H])([H])C([H])([H])C2([H])N([H])C(=O)C1([H])N(C(=O)C([H])(N([H])C(=O)C([H])(N([H])C([H])([H])[H])C([H])([H])[H])C(C([H])([H])[H])(C([H])([H])[H])C([H])([H])[H])C([H])([H])c2c([H])c(OC([H])([H])C(=O)C([H])([H])N([H])c3c([H])c([H])c(C(=O)N([H])C(=O)N4C([H])([H])C([H])([H])C([H])([H])C([H])(n5nc(-c6c([H])c([H])c(Oc7c([H])c([H])c(F)c([H])c7F)c([H])c6[H])c(C(=O)N([H])[H])c5N([H])[H])C4([H])[H])c(F)c3F)c([H])c([H])c2C1([H])[H]

$$$$
47:0:0
     RDKit          3D

 92100  0  0  1  0  0  0  0  0999 V2000
  -29.7720  -20.0580   21.0940 C   0  0  0  0  0  3  0  0  0  0  0  0
  -29.1060  -18.2340   19.1030 C   0  0  0  0  0  3  0  0  0  0  0  0
  -30.0310  -18.6220   21.2430 C   0  0  0  0  0  0  0  0  0  0  0  0
  -29.7060  -17.6230   20.2490 C   0  0  0  0  0  0  0  0  0  0  0  0
  -28.8420  -19.6550   18.9630 C   0  0  0  0  0  0  0  0  0  0  0  0
  -29.1350  -20.6550   19.9530 C   0  0  0  0  0  0  0  0  0  0  0  0
  -30.6420  -18.1380   22.5440 C   0  0  0  0  0  1  0  0  0  0  0  0
  -30.4980  -14.9830   20.1870 C   0  0  0  0  0  0  0  0  0  0  0  0
  -30.3510  -12.6430   19.2310 C   0  0  0  0  0  2  0  0  0  0  0  0
  -29.3760  -12.6380   18.0300 C   0  0  0  0  0  2  0  0  0  0  0  0
  -27.9230  -12.4400   18.5040 C   0  0  0  0  0  2  0  0  0  0  0  0
  -27.5650  -13.3480   19.7100 C   0  0  0  0  0  3  0  0  0  0  0  0
  -28.6560  -13.3120   20.8020 C   0  0  0  0  0  2  0  0  0  0  0  0
  -29.9190  -13.7160   20.1680 N   0  0  0  0  0  0  0  0  0  0  0  0
  -31.6740  -15.0850   19.8210 O   0  0  0  0  0  0  0  0  0  0  0  0
  -29.6870  -16.1060   20.4790 N   0  0  0  0  0  0  0  0  0  0  0  0
  -28.7860  -15.7900   20.8050 H   0  0  0  0  0  0  0  0  0  0  0  0
  -25.2120  -13.9400   20.5340 C   0  0  0  0  0  0  0  0  0  0  0  0
  -24.1520  -13.1690   20.9240 C   0  0  0  0  0  0  0  0  0  0  0  0
  -24.6000  -11.8140   20.8490 C   0  0  0  0  0  0  0  0  0  0  0  0
  -26.2390  -13.0550   20.2430 N   0  0  0  0  0  0  0  0  0  0  0  0
  -25.8790  -11.7700   20.4980 N   0  0  0  0  0  0  0  0  0  0  0  0
  -23.8650  -10.5560   21.0360 C   0  0  0  0  0  0  0  0  0  0  0  0
  -24.2990   -9.5740   21.9530 C   0  0  0  0  0  3  0  0  0  0  0  0
  -23.5640   -8.3830   22.1290 C   0  0  0  0  0  3  0  0  0  0  0  0
  -22.3780   -8.1640   21.3880 C   0  0  0  0  0  0  0  0  0  0  0  0
  -21.9620   -9.1340   20.4590 C   0  0  0  0  0  3  0  0  0  0  0  0
  -22.6990  -10.3170   20.2820 C   0  0  0  0  0  3  0  0  0  0  0  0
  -21.6130   -7.0260   21.4750 O   0  0  0  0  0  0  0  0  0  0  0  0
  -21.5530   -6.2850   22.6280 C   0  0  0  0  0  0  0  0  0  0  0  0
  -21.0870   -6.8340   23.8420 C   0  0  0  0  0  3  0  0  0  0  0  0
  -20.9760   -6.0190   24.9870 C   0  0  0  0  0  3  0  0  0  0  0  0
  -21.3190   -4.6560   24.9170 C   0  0  0  0  0  0  0  0  0  0  0  0
  -21.7760   -4.1060   23.7070 C   0  0  0  0  0  3  0  0  0  0  0  0
  -21.8900   -4.9180   22.5650 C   0  0  0  0  0  0  0  0  0  0  0  0
  -22.3120   -4.3770   21.3970 F   0  0  0  0  0  0  0  0  0  0  0  0
  -21.2040   -3.8710   26.0130 F   0  0  0  0  0  0  0  0  0  0  0  0
  -22.7700  -13.6550   21.2490 C   0  0  0  0  0  0  0  0  0  0  0  0
  -22.0600  -12.9500   22.1230 N   0  0  0  0  0  0  0  0  0  0  0  0
  -22.3280  -14.6950   20.7600 O   0  0  0  0  0  0  0  0  0  0  0  0
  -22.4300  -12.1090   22.5390 H   0  0  0  0  0  0  0  0  0  0  0  0
  -21.1330  -13.2570   22.3800 H   0  0  0  0  0  0  0  0  0  0  0  0
  -25.3830  -15.3120   20.3750 N   0  0  0  0  0  0  0  0  0  0  0  0
  -24.6180  -15.9640   20.5160 H   0  0  0  0  0  0  0  0  0  0  0  0
  -26.2040  -15.7480   19.9770 H   0  0  0  0  0  0  0  0  0  0  0  0
  -28.2300  -20.0990   17.7910 N   0  0  0  0  0  0  0  0  0  0  0  0
  -28.2590  -21.1020   17.6360 H   0  0  0  0  0  0  0  0  0  0  0  0
  -28.3780  -19.5650   16.9400 H   0  0  0  0  0  0  0  0  0  0  0  0
  -28.7240  -22.0410   19.6880 O   0  0  0  0  0  0  0  0  0  0  0  0
  -28.9340  -23.3710   20.4200 C   0  0  0  0  0  3  0  0  0  0  0  0
  -28.0530  -24.7430   19.9840 C   0  0  0  0  0  3  0  0  0  0  0  0
  -28.2620  -26.2400   20.3560 O   0  0  0  0  0  0  0  0  0  0  0  0
  -24.6260  -31.9340   23.2780 C   0  0  0  0  0  0  0  0  0  0  0  0
  -27.2030  -27.2140   20.2650 C   0  0  0  0  0  0  0  0  0  0  0  0
  -23.4240  -30.5330   21.6430 C   0  0  0  0  0  3  0  0  0  0  0  0
  -24.8710  -28.9520   20.2250 C   0  0  0  0  0  0  0  0  0  0  0  0
  -25.9790  -30.7960   21.4810 C   0  0  0  0  0  2  0  0  0  0  0  0
  -26.0500  -29.4020   20.8360 C   0  0  0  0  0  0  0  0  0  0  0  0
  -27.2140  -28.5470   20.8420 C   0  0  0  0  0  3  0  0  0  0  0  0
  -26.0020  -26.8700   19.6050 C   0  0  0  0  0  3  0  0  0  0  0  0
  -24.8610  -27.6990   19.5950 C   0  0  0  0  0  3  0  0  0  0  0  0
  -23.6450  -29.8480   20.2680 C   0  0  0  0  0  2  0  0  0  0  0  0
  -24.6960  -31.1090   22.1880 N   0  0  0  0  0  0  0  0  0  0  0  0
  -23.5410  -32.2230   23.8040 O   0  0  0  0  0  0  0  0  0  0  0  0
  -22.7420  -29.5330   22.6080 C   0  0  0  0  0  0  0  0  0  0  0  0
  -21.4160  -29.3560   22.4730 N   0  0  0  0  0  0  0  0  0  0  0  0
  -23.4090  -28.9180   23.4440 O   0  0  0  0  0  0  0  0  0  0  0  0
  -20.9330  -29.9030   21.7730 H   0  0  0  0  0  0  0  0  0  0  0  0
  -18.0330  -28.1550   22.9610 C   0  0  0  0  0  0  0  0  0  0  0  0
  -20.5900  -28.4250   23.2460 C   0  0  0  0  0  3  0  0  0  0  0  0
  -20.6990  -26.9870   22.6870 C   0  0  0  0  0  2  0  0  0  0  0  0
  -19.6050  -26.6530   21.6660 C   0  0  0  0  0  2  0  0  0  0  0  0
  -18.2180  -26.8000   22.2980 C   0  0  0  0  0  2  0  0  0  0  0  0
  -19.1470  -28.9240   23.3920 C   0  0  0  0  0  0  0  0  0  0  0  0
  -18.9200  -30.1910   23.9730 C   0  0  0  0  0  3  0  0  0  0  0  0
  -17.6120  -30.6880   24.1270 C   0  0  0  0  0  3  0  0  0  0  0  0
  -16.5130  -29.9170   23.7110 C   0  0  0  0  0  3  0  0  0  0  0  0
  -16.7250  -28.6520   23.1350 C   0  0  0  0  0  3  0  0  0  0  0  0
  -25.9060  -32.5690   23.9040 C   0  0  0  0  0  3  0  0  0  0  0  0
  -26.4130  -31.8030   25.1880 C   0  0  1  0  0  0  0  0  0  0  0  0
  -25.3130  -31.5690   26.2490 C   0  0  0  0  0  1  0  0  0  0  0  0
  -26.9990  -30.4230   24.8100 C   0  0  0  0  0  1  0  0  0  0  0  0
  -27.5590  -32.6000   25.8540 C   0  0  0  0  0  1  0  0  0  0  0  0
  -25.5970  -33.9700   24.2320 N   0  0  0  0  0  0  0  0  0  0  0  0
  -25.9000  -35.0200   23.4580 C   0  0  0  0  0  0  0  0  0  0  0  0
  -26.5350  -34.9130   22.4050 O   0  0  0  0  0  0  0  0  0  0  0  0
  -25.0290  -34.1260   25.0510 H   0  0  0  0  0  0  0  0  0  0  0  0
  -24.1400  -36.7960   23.1700 C   0  0  0  0  0  1  0  0  0  0  0  0
  -25.4230  -36.4100   23.9240 C   0  0  0  0  0  3  0  0  0  0  0  0
  -27.5820  -37.3310   24.6480 C   0  0  0  0  0  1  0  0  0  0  0  0
  -26.4400  -37.4720   23.7490 N   0  0  0  0  0  0  0  0  0  0  0  0
  -26.0290  -38.3890   23.8970 H   0  0  0  0  0  0  0  0  0  0  0  0
  1  3  1  0
  2  4  1  0
  3  7  1  0
  4 16  1  0
  4  3  2  0
  5  2  2  0
  5  6  1  0
  6  1  2  0
  8 16  1  0
  9 14  1  0
 10 11  1  0
 10  9  1  0
 12 11  1  0
 12 21  1  0
 12 13  1  0
 14  8  1  0
 14 13  1  0
 15  8  2  0
 16 17  1  0
 18 19  2  0
 19 38  1  0
 20 19  1  0
 20 23  1  0
 21 22  1  0
 21 18  1  0
 22 20  2  0
 23 24  1  0
 24 25  2  0
 26 29  1  0
 26 25  1  0
 27 26  2  0
 28 27  1  0
 28 23  2  0
 29 30  1  0
 30 31  1  0
 31 32  2  0
 33 32  1  0
 33 37  1  0
 34 33  2  0
 35 30  2  0
 35 34  1  0
 36 35  1  0
 38 39  1  0
 39 42  1  0
 39 41  1  0
 40 38  2  0
 43 44  1  0
 43 18  1  0
 45 43  1  0
 46  5  1  0
 47 46  1  0
 48 46  1  0
 49  6  1  0
 49 50  1  0
 51 52  1  0
 51 50  2  0
 53 64  2  0
 54 52  1  0
 54 59  1  0
 55 63  1  0
 55 65  1  0
 56 62  1  0
 56 58  1  0
 57 63  1  0
 58 59  2  0
 58 57  1  0
 60 54  2  0
 61 60  1  0
 61 56  2  0
 62 55  1  0
 63 53  1  0
 65 67  2  0
 66 65  1  0
 68 66  1  0
 69 78  2  0
 69 74  1  0
 70 66  1  0
 70 74  1  0
 71 70  1  0
 72 73  1  0
 72 71  1  0
 73 69  1  0
 74 75  2  0
 75 76  1  0
 77 76  2  0
 78 77  1  0
 79 53  1  0
 79 84  1  0
 79 80  1  0
 80 83  1  1
 80 81  1  0
 82 80  1  0
 84 87  1  0
 85 89  1  0
 85 84  1  0
 86 85  2  0
 89 88  1  0
 91 92  1  0
 91 89  1  0
 91 90  1  0
M  ISO  4   8 100  16 100  51 101  52 101
M  END
>  <TORSDO>  (48) 
F 20

>  <SCORE>  (48) 
-13.736

>  <name>  (48) 
47

>  <ligand_id>  (48) 
47

>  <original_smiles>  (48) 
[H]c1c([H])c([H])c2c(c1[H])C([H])([H])C([H])([H])C([H])([H])C2([H])N([H])C(=O)C1([H])N(C(=O)C([H])(N([H])C(=O)C([H])(N([H])C([H])([H])[H])C([H])([H])[H])C(C([H])([H])[H])(C([H])([H])[H])C([H])([H])[H])C([H])([H])c2c([H])c(OC([H])([H])C([H])([H])Oc3c([H])c(C([H])([H])[H])c(N([H])C(=O)N4C([H])([H])C([H])([H])C([H])([H])C([H])(n5nc(-c6c([H])c([H])c(Oc7c([H])c([H])c(F)c([H])c7F)c([H])c6[H])c(C(=O)N([H])[H])c5N([H])[H])C4([H])[H])c([H])c3N([H])[H])c([H])c([H])c2C1([H])[H]

>  <smiles>  (48) 
[H]c1c([H])c([H])c2c(c1[H])C([H])([H])C([H])([H])C([H])([H])C2([H])N([H])C(=O)C1([H])N(C(=O)C([H])(N([H])C(=O)C([H])(N([H])C([H])([H])[H])C([H])([H])[H])C(C([H])([H])[H])(C([H])([H])[H])C([H])([H])[H])C([H])([H])c2c([H])c(OC([H])([H])C([H])([H])Oc3c([H])c(C([H])([H])[H])c(N([H])C(=O)N4C([H])([H])C([H])([H])C([H])([H])C([H])(n5nc(-c6c([H])c([H])c(Oc7c([H])c([H])c(F)c([H])c7F)c([H])c6[H])c(C(=O)N([H])[H])c5N([H])[H])C4([H])[H])c([H])c3N([H])[H])c([H])c([H])c2C1([H])[H]

$$$$
48:0:0
     RDKit          3D

 96104  0  0  1  0  0  0  0  0999 V2000
  -30.8850  -19.7620   20.8840 C   0  0  0  0  0  3  0  0  0  0  0  0
  -31.6350  -17.4430   21.0830 C   0  0  0  0  0  3  0  0  0  0  0  0
  -29.5590  -19.3290   20.6680 C   0  0  0  0  0  0  0  0  0  0  0  0
  -31.9150  -18.8250   21.0930 C   0  0  0  0  0  0  0  0  0  0  0  0
  -30.3170  -16.9750   20.8520 C   0  0  0  0  0  0  0  0  0  0  0  0
  -29.2860  -17.9310   20.6650 C   0  0  0  0  0  0  0  0  0  0  0  0
  -28.0170  -17.4920   20.4720 F   0  0  0  0  0  0  0  0  0  0  0  0
  -30.6730  -14.5540   20.2930 C   0  0  0  0  0  0  0  0  0  0  0  0
  -30.3350  -12.4190   19.1030 C   0  0  0  0  0  2  0  0  0  0  0  0
  -29.3670  -12.6570   17.9250 C   0  0  0  0  0  2  0  0  0  0  0  0
  -27.9040  -12.5130   18.3860 C   0  0  0  0  0  2  0  0  0  0  0  0
  -27.6000  -13.3170   19.6800 C   0  0  0  0  0  3  0  0  0  0  0  0
  -28.6810  -13.0720   20.7560 C   0  0  0  0  0  2  0  0  0  0  0  0
  -29.9890  -13.3830   20.1600 N   0  0  0  0  0  0  0  0  0  0  0  0
  -31.7960  -14.7150   19.8080 O   0  0  0  0  0  0  0  0  0  0  0  0
  -29.9780  -15.5780   20.8380 N   0  0  0  0  0  0  0  0  0  0  0  0
  -29.0250  -15.3630   21.0890 H   0  0  0  0  0  0  0  0  0  0  0  0
  -25.2130  -13.9090   20.4360 C   0  0  0  0  0  0  0  0  0  0  0  0
  -24.1550  -13.1290   20.8210 C   0  0  0  0  0  0  0  0  0  0  0  0
  -24.6230  -11.7800   20.7770 C   0  0  0  0  0  0  0  0  0  0  0  0
  -26.2580  -13.0340   20.1840 N   0  0  0  0  0  0  0  0  0  0  0  0
  -25.9070  -11.7480   20.4450 N   0  0  0  0  0  0  0  0  0  0  0  0
  -23.9060  -10.5130   20.9770 C   0  0  0  0  0  0  0  0  0  0  0  0
  -24.3470   -9.5560   21.9170 C   0  0  0  0  0  3  0  0  0  0  0  0
  -23.6300   -8.3540   22.1030 C   0  0  0  0  0  3  0  0  0  0  0  0
  -22.4600   -8.1010   21.3490 C   0  0  0  0  0  0  0  0  0  0  0  0
  -22.0390   -9.0470   20.3990 C   0  0  0  0  0  3  0  0  0  0  0  0
  -22.7550  -10.2410   20.2100 C   0  0  0  0  0  3  0  0  0  0  0  0
  -21.7150   -6.9510   21.4450 O   0  0  0  0  0  0  0  0  0  0  0  0
  -21.6570   -6.2250   22.6080 C   0  0  0  0  0  0  0  0  0  0  0  0
  -21.1820   -6.7860   23.8140 C   0  0  0  0  0  3  0  0  0  0  0  0
  -21.0750   -5.9850   24.9680 C   0  0  0  0  0  3  0  0  0  0  0  0
  -21.4300   -4.6240   24.9170 C   0  0  0  0  0  0  0  0  0  0  0  0
  -21.8980   -4.0620   23.7150 C   0  0  0  0  0  3  0  0  0  0  0  0
  -22.0070   -4.8610   22.5630 C   0  0  0  0  0  0  0  0  0  0  0  0
  -22.4380   -4.3090   21.4030 F   0  0  0  0  0  0  0  0  0  0  0  0
  -21.3200   -3.8520   26.0240 F   0  0  0  0  0  0  0  0  0  0  0  0
  -22.7610  -13.5990   21.1220 C   0  0  0  0  0  0  0  0  0  0  0  0
  -22.0500  -12.8890   21.9900 N   0  0  0  0  0  0  0  0  0  0  0  0
  -22.3120  -14.6290   20.6220 O   0  0  0  0  0  0  0  0  0  0  0  0
  -22.4260  -12.0550   22.4160 H   0  0  0  0  0  0  0  0  0  0  0  0
  -21.1150  -13.1850   22.2330 H   0  0  0  0  0  0  0  0  0  0  0  0
  -25.3670  -15.2810   20.2630 N   0  0  0  0  0  0  0  0  0  0  0  0
  -24.6010  -15.9290   20.4100 H   0  0  0  0  0  0  0  0  0  0  0  0
  -26.2200  -15.7440   19.9740 H   0  0  0  0  0  0  0  0  0  0  0  0
  -33.2160  -19.2720   21.3180 N   0  0  0  0  0  0  0  0  0  0  0  0
  -33.4600  -20.2270   21.0770 H   0  0  0  0  0  0  0  0  0  0  0  0
  -33.9900  -18.6240   21.2070 H   0  0  0  0  0  0  0  0  0  0  0  0
  -28.4230  -20.3450   20.4740 C   0  0  0  0  0  2  0  0  0  0  0  0
  -28.4620  -22.8570   20.7520 C   0  0  0  0  0  0  0  0  0  0  0  0
  -28.8060  -21.7260   20.1020 N   0  0  0  0  0  0  0  0  0  0  0  0
  -27.9090  -22.8240   21.8530 O   0  0  0  0  0  0  0  0  0  0  0  0
  -29.2650  -21.8330   19.2060 H   0  0  0  0  0  0  0  0  0  0  0  0
  -28.7420  -24.2170   20.0610 C   0  0  0  0  0  2  0  0  0  0  0  0
  -28.3210  -25.4670   20.8910 C   0  0  0  0  0  2  0  0  0  0  0  0
  -28.4460  -26.7260   20.1910 O   0  0  0  0  0  0  0  0  0  0  0  0
  -24.5880  -31.8880   23.2460 C   0  0  0  0  0  0  0  0  0  0  0  0
  -27.2940  -27.4850   20.1640 C   0  0  0  0  0  0  0  0  0  0  0  0
  -23.4110  -30.4940   21.5760 C   0  0  0  0  0  3  0  0  0  0  0  0
  -24.8930  -28.9810   20.1520 C   0  0  0  0  0  0  0  0  0  0  0  0
  -25.9360  -30.8740   21.4090 C   0  0  0  0  0  2  0  0  0  0  0  0
  -26.0420  -29.5100   20.7560 C   0  0  0  0  0  0  0  0  0  0  0  0
  -27.2490  -28.7710   20.7540 C   0  0  0  0  0  3  0  0  0  0  0  0
  -26.1330  -26.9750   19.5490 C   0  0  0  0  0  3  0  0  0  0  0  0
  -24.9350  -27.7140   19.5420 C   0  0  0  0  0  3  0  0  0  0  0  0
  -23.6410  -29.8290   20.1930 C   0  0  0  0  0  2  0  0  0  0  0  0
  -24.6620  -31.1000   22.1370 N   0  0  0  0  0  0  0  0  0  0  0  0
  -23.4980  -32.1470   23.7770 O   0  0  0  0  0  0  0  0  0  0  0  0
  -22.7560  -29.4590   22.5200 C   0  0  0  0  0  0  0  0  0  0  0  0
  -21.4310  -29.2840   22.3900 N   0  0  0  0  0  0  0  0  0  0  0  0
  -23.4380  -28.8170   23.3240 O   0  0  0  0  0  0  0  0  0  0  0  0
  -20.9430  -29.8540   21.7140 H   0  0  0  0  0  0  0  0  0  0  0  0
  -18.0460  -28.1200   22.8920 C   0  0  0  0  0  0  0  0  0  0  0  0
  -20.6100  -28.3360   23.1450 C   0  0  0  0  0  3  0  0  0  0  0  0
  -20.6890  -26.9210   22.5290 C   0  0  0  0  0  2  0  0  0  0  0  0
  -19.5710  -26.6400   21.5180 C   0  0  0  0  0  2  0  0  0  0  0  0
  -18.1980  -26.7870   22.1800 C   0  0  0  0  0  2  0  0  0  0  0  0
  -19.1790  -28.8550   23.3310 C   0  0  0  0  0  0  0  0  0  0  0  0
  -18.9840  -30.1060   23.9570 C   0  0  0  0  0  3  0  0  0  0  0  0
  -17.6870  -30.6200   24.1480 C   0  0  0  0  0  3  0  0  0  0  0  0
  -16.5700  -29.8810   23.7260 C   0  0  0  0  0  3  0  0  0  0  0  0
  -16.7490  -28.6330   23.1040 C   0  0  0  0  0  3  0  0  0  0  0  0
  -25.8620  -32.5230   23.8870 C   0  0  0  0  0  3  0  0  0  0  0  0
  -25.5500  -33.9240   24.2000 N   0  0  0  0  0  0  0  0  0  0  0  0
  -25.8960  -34.9680   23.4360 C   0  0  0  0  0  0  0  0  0  0  0  0
  -26.5840  -34.8550   22.4180 O   0  0  0  0  0  0  0  0  0  0  0  0
  -24.9410  -34.0850   24.9890 H   0  0  0  0  0  0  0  0  0  0  0  0
  -24.1840  -36.7620   23.0260 C   0  0  0  0  0  1  0  0  0  0  0  0
  -25.4020  -36.3610   23.8720 C   0  0  0  0  0  3  0  0  0  0  0  0
  -27.5140  -37.2480   24.7540 C   0  0  0  0  0  1  0  0  0  0  0  0
  -26.4400  -37.4090   23.7780 N   0  0  0  0  0  0  0  0  0  0  0  0
  -26.0330  -38.3320   23.9050 H   0  0  0  0  0  0  0  0  0  0  0  0
  -26.3560  -31.7580   25.1770 C   0  0  1  0  0  0  0  0  0  0  0  0
  -25.2430  -31.5280   26.2260 C   0  0  0  0  0  1  0  0  0  0  0  0
  -26.9440  -30.3780   24.8010 C   0  0  0  0  0  1  0  0  0  0  0  0
  -27.4960  -32.5550   25.8540 C   0  0  0  0  0  1  0  0  0  0  0  0
  1  4  1  0
  2  4  2  0
  3  1  2  0
  4 46  1  0
  5  2  1  0
  6  3  1  0
  6  5  2  0
  7  6  1  0
  8 16  1  0
  9 14  1  0
 10 11  1  0
 10  9  1  0
 12 11  1  0
 12 21  1  0
 12 13  1  0
 14  8  1  0
 14 13  1  0
 15  8  2  0
 16  5  1  0
 16 17  1  0
 18 19  2  0
 19 38  1  0
 20 19  1  0
 20 23  1  0
 21 18  1  0
 21 22  1  0
 22 20  2  0
 23 24  1  0
 24 25  2  0
 26 29  1  0
 26 25  1  0
 27 26  2  0
 28 27  1  0
 28 23  2  0
 29 30  1  0
 30 31  1  0
 31 32  2  0
 33 32  1  0
 33 37  1  0
 34 33  2  0
 35 30  2  0
 35 34  1  0
 36 35  1  0
 38 39  1  0
 39 42  1  0
 39 41  1  0
 40 38  2  0
 43 44  1  0
 43 18  1  0
 45 43  1  0
 47 46  1  0
 48 46  1  0
 49  3  1  0
 50 52  2  0
 51 49  1  0
 51 50  1  0
 53 51  1  0
 54 50  1  0
 54 55  1  0
 56 55  1  0
 57 68  2  0
 58 56  1  0
 58 63  1  0
 59 67  1  0
 59 69  1  0
 60 66  1  0
 60 62  1  0
 61 67  1  0
 62 61  1  0
 63 62  2  0
 64 58  2  0
 65 64  1  0
 65 60  2  0
 66 59  1  0
 67 57  1  0
 69 71  2  0
 70 69  1  0
 72 70  1  0
 73 82  2  0
 73 78  1  0
 74 70  1  0
 74 78  1  0
 75 74  1  0
 76 77  1  0
 76 75  1  0
 77 73  1  0
 78 79  2  0
 79 80  1  0
 81 80  2  0
 82 81  1  0
 83 57  1  0
 83 84  1  0
 83 93  1  0
 84 87  1  0
 85 89  1  0
 85 84  1  0
 86 85  2  0
 89 88  1  0
 91 89  1  0
 91 92  1  0
 91 90  1  0
 93 96  1  1
 93 94  1  0
 95 93  1  0
M  ISO  4   8 100  16 100  55 101  56 101
M  END
>  <TORSDO>  (49) 
F 21

>  <SCORE>  (49) 
-14.208

>  <name>  (49) 
48

>  <ligand_id>  (49) 
48

>  <original_smiles>  (49) 
[H]c1c([H])c([H])c2c(c1[H])C([H])([H])C([H])([H])C([H])([H])C2([H])N([H])C(=O)C1([H])N(C(=O)C([H])(N([H])C(=O)C([H])(N([H])C([H])([H])[H])C([H])([H])[H])C(C([H])([H])[H])(C([H])([H])[H])C([H])([H])[H])C([H])([H])c2c([H])c(OC([H])([H])C([H])([H])C(=O)N([H])C([H])([H])c3c([H])c(N([H])[H])c([H])c(N([H])C(=O)N4C([H])([H])C([H])([H])C([H])([H])C([H])(n5nc(-c6c([H])c([H])c(Oc7c([H])c([H])c(F)c([H])c7F)c([H])c6[H])c(C(=O)N([H])[H])c5N([H])[H])C4([H])[H])c3F)c([H])c([H])c2C1([H])[H]

>  <smiles>  (49) 
[H]c1c([H])c([H])c2c(c1[H])C([H])([H])C([H])([H])C([H])([H])C2([H])N([H])C(=O)C1([H])N(C(=O)C([H])(N([H])C(=O)C([H])(N([H])C([H])([H])[H])C([H])([H])[H])C(C([H])([H])[H])(C([H])([H])[H])C([H])([H])[H])C([H])([H])c2c([H])c(OC([H])([H])C([H])([H])C(=O)N([H])C([H])([H])c3c([H])c(N([H])[H])c([H])c(N([H])C(=O)N4C([H])([H])C([H])([H])C([H])([H])C([H])(n5nc(-c6c([H])c([H])c(Oc7c([H])c([H])c(F)c([H])c7F)c([H])c6[H])c(C(=O)N([H])[H])c5N([H])[H])C4([H])[H])c3F)c([H])c([H])c2C1([H])[H]

$$$$
49:0:0
     RDKit          3D

 98106  0  0  1  0  0  0  0  0999 V2000
  -30.3830  -23.4110   19.7170 C   0  0  0  0  0  3  0  0  0  0  0  0
  -29.4840  -21.0700   19.5970 C   0  0  0  0  0  0  0  0  0  0  0  0
  -30.2630  -22.0060   20.1580 N   0  0  0  0  0  0  0  0  0  0  0  0
  -28.6070  -21.3560   18.7760 O   0  0  0  0  0  0  0  0  0  0  0  0
  -30.8980  -21.7010   20.8810 H   0  0  0  0  0  0  0  0  0  0  0  0
  -28.5950  -18.8220   20.3390 C   0  0  0  0  0  3  0  0  0  0  0  0
  -28.7520  -17.4500   20.6300 C   0  0  0  0  0  3  0  0  0  0  0  0
  -31.1420  -17.6420   20.2480 C   0  0  0  0  0  3  0  0  0  0  0  0
  -29.7060  -19.6310   20.0050 C   0  0  0  0  0  0  0  0  0  0  0  0
  -30.0210  -16.8340   20.5610 C   0  0  0  0  0  0  0  0  0  0  0  0
  -30.9870  -19.0220   19.9700 C   0  0  0  0  0  0  0  0  0  0  0  0
  -32.0840  -19.7460   19.6360 F   0  0  0  0  0  0  0  0  0  0  0  0
  -30.7370  -14.4780   20.1300 C   0  0  0  0  0  0  0  0  0  0  0  0
  -30.3850  -12.3360   18.9530 C   0  0  0  0  0  2  0  0  0  0  0  0
  -29.3780  -12.5720   17.8060 C   0  0  0  0  0  2  0  0  0  0  0  0
  -27.9280  -12.4240   18.3110 C   0  0  0  0  0  2  0  0  0  0  0  0
  -27.6650  -13.2370   19.6060 C   0  0  0  0  0  3  0  0  0  0  0  0
  -28.7740  -12.9750   20.6500 C   0  0  0  0  0  2  0  0  0  0  0  0
  -30.0740  -13.2910   20.0270 N   0  0  0  0  0  0  0  0  0  0  0  0
  -31.8100  -14.6920   19.5600 O   0  0  0  0  0  0  0  0  0  0  0  0
  -30.0870  -15.4270   20.8320 N   0  0  0  0  0  0  0  0  0  0  0  0
  -29.2960  -15.0570   21.3370 H   0  0  0  0  0  0  0  0  0  0  0  0
  -25.3140  -13.8500   20.4580 C   0  0  0  0  0  0  0  0  0  0  0  0
  -24.2580  -13.0800   20.8680 C   0  0  0  0  0  0  0  0  0  0  0  0
  -24.6990  -11.7250   20.7710 C   0  0  0  0  0  0  0  0  0  0  0  0
  -26.3350  -12.9660   20.1470 N   0  0  0  0  0  0  0  0  0  0  0  0
  -25.9700  -11.6800   20.3900 N   0  0  0  0  0  0  0  0  0  0  0  0
  -23.9690  -10.4640   20.9630 C   0  0  0  0  0  0  0  0  0  0  0  0
  -24.3970   -9.4980   21.9000 C   0  0  0  0  0  3  0  0  0  0  0  0
  -23.6690   -8.3020   22.0780 C   0  0  0  0  0  3  0  0  0  0  0  0
  -22.4970   -8.0650   21.3200 C   0  0  0  0  0  0  0  0  0  0  0  0
  -22.0880   -9.0210   20.3740 C   0  0  0  0  0  3  0  0  0  0  0  0
  -22.8170  -10.2080   20.1930 C   0  0  0  0  0  3  0  0  0  0  0  0
  -21.7400   -6.9220   21.4090 O   0  0  0  0  0  0  0  0  0  0  0  0
  -21.6370   -6.2160   22.5800 C   0  0  0  0  0  0  0  0  0  0  0  0
  -21.1120   -6.7930   23.7560 C   0  0  0  0  0  3  0  0  0  0  0  0
  -20.9610   -6.0110   24.9190 C   0  0  0  0  0  3  0  0  0  0  0  0
  -21.3270   -4.6520   24.9050 C   0  0  0  0  0  0  0  0  0  0  0  0
  -21.8470   -4.0730   23.7340 C   0  0  0  0  0  3  0  0  0  0  0  0
  -21.9990   -4.8520   22.5740 C   0  0  0  0  0  0  0  0  0  0  0  0
  -22.4810   -4.2850   21.4420 F   0  0  0  0  0  0  0  0  0  0  0  0
  -21.1760   -3.8970   26.0190 F   0  0  0  0  0  0  0  0  0  0  0  0
  -22.8850  -13.5640   21.2340 C   0  0  0  0  0  0  0  0  0  0  0  0
  -22.1940  -12.8470   22.1130 N   0  0  0  0  0  0  0  0  0  0  0  0
  -22.4340  -14.6130   20.7740 O   0  0  0  0  0  0  0  0  0  0  0  0
  -22.5690  -11.9960   22.5070 H   0  0  0  0  0  0  0  0  0  0  0  0
  -21.2760  -13.1580   22.3990 H   0  0  0  0  0  0  0  0  0  0  0  0
  -25.4850  -15.2230   20.3040 N   0  0  0  0  0  0  0  0  0  0  0  0
  -24.7190  -15.8740   20.4280 H   0  0  0  0  0  0  0  0  0  0  0  0
  -26.3000  -15.6430   19.8750 H   0  0  0  0  0  0  0  0  0  0  0  0
  -29.3980  -24.3620   20.4680 C   0  0  0  0  0  0  0  0  0  0  0  0
  -29.2860  -24.3110   21.7020 O   0  0  0  0  0  0  0  0  0  0  0  0
  -28.6170  -25.4310   19.6400 C   0  0  0  0  0  2  0  0  0  0  0  0
  -28.4550  -26.7380   20.2310 O   0  0  0  0  0  0  0  0  0  0  0  0
  -24.5950  -31.8810   23.2400 C   0  0  0  0  0  0  0  0  0  0  0  0
  -27.2600  -27.4370   20.1650 C   0  0  0  0  0  0  0  0  0  0  0  0
  -23.3980  -30.4980   21.5740 C   0  0  0  0  0  3  0  0  0  0  0  0
  -24.8590  -28.9490   20.1580 C   0  0  0  0  0  0  0  0  0  0  0  0
  -25.9260  -30.8390   21.4060 C   0  0  0  0  0  2  0  0  0  0  0  0
  -26.0090  -29.4680   20.7600 C   0  0  0  0  0  0  0  0  0  0  0  0
  -27.2060  -28.7180   20.7630 C   0  0  0  0  0  3  0  0  0  0  0  0
  -26.0900  -26.9330   19.5490 C   0  0  0  0  0  3  0  0  0  0  0  0
  -24.8930  -27.6800   19.5520 C   0  0  0  0  0  3  0  0  0  0  0  0
  -23.6170  -29.8150   20.1950 C   0  0  0  0  0  2  0  0  0  0  0  0
  -24.6570  -31.0880   22.1320 N   0  0  0  0  0  0  0  0  0  0  0  0
  -23.5110  -32.1560   23.7710 O   0  0  0  0  0  0  0  0  0  0  0  0
  -22.7250  -29.4800   22.5230 C   0  0  0  0  0  0  0  0  0  0  0  0
  -21.4070  -29.2860   22.3580 N   0  0  0  0  0  0  0  0  0  0  0  0
  -23.3880  -28.8650   23.3640 O   0  0  0  0  0  0  0  0  0  0  0  0
  -20.9340  -29.8340   21.6530 H   0  0  0  0  0  0  0  0  0  0  0  0
  -18.0300  -28.0570   22.7450 C   0  0  0  0  0  0  0  0  0  0  0  0
  -20.5740  -28.3480   23.1090 C   0  0  0  0  0  3  0  0  0  0  0  0
  -20.7150  -26.9120   22.5530 C   0  0  0  0  0  2  0  0  0  0  0  0
  -19.6550  -26.5660   21.5020 C   0  0  0  0  0  2  0  0  0  0  0  0
  -18.2480  -26.7030   22.0890 C   0  0  0  0  0  2  0  0  0  0  0  0
  -19.1240  -28.8350   23.2070 C   0  0  0  0  0  0  0  0  0  0  0  0
  -18.8700  -30.1030   23.7740 C   0  0  0  0  0  3  0  0  0  0  0  0
  -17.5540  -30.5900   23.8890 C   0  0  0  0  0  3  0  0  0  0  0  0
  -16.4740  -29.8090   23.4440 C   0  0  0  0  0  3  0  0  0  0  0  0
  -16.7130  -28.5440   22.8760 C   0  0  0  0  0  3  0  0  0  0  0  0
  -25.8790  -32.4980   23.8790 C   0  0  0  0  0  3  0  0  0  0  0  0
  -25.5810  -33.8980   24.2060 N   0  0  0  0  0  0  0  0  0  0  0  0
  -25.9180  -34.9480   23.4440 C   0  0  0  0  0  0  0  0  0  0  0  0
  -26.5830  -34.8380   22.4110 O   0  0  0  0  0  0  0  0  0  0  0  0
  -24.9960  -34.0570   25.0140 H   0  0  0  0  0  0  0  0  0  0  0  0
  -24.1940  -36.7450   23.0930 C   0  0  0  0  0  1  0  0  0  0  0  0
  -25.4390  -36.3400   23.8990 C   0  0  0  0  0  3  0  0  0  0  0  0
  -27.5810  -37.2210   24.7130 C   0  0  0  0  0  1  0  0  0  0  0  0
  -26.4750  -37.3900   23.7760 N   0  0  0  0  0  0  0  0  0  0  0  0
  -26.0730  -38.3130   23.9240 H   0  0  0  0  0  0  0  0  0  0  0  0
  -26.3710  -31.7180   25.1610 C   0  0  1  0  0  0  0  0  0  0  0  0
  -25.2610  -31.4860   26.2120 C   0  0  0  0  0  1  0  0  0  0  0  0
  -26.9480  -30.3370   24.7720 C   0  0  0  0  0  1  0  0  0  0  0  0
  -27.5170  -32.5000   25.8430 C   0  0  0  0  0  1  0  0  0  0  0  0
  -31.8200  -23.8880   20.0710 C   0  0  0  0  0  2  0  0  0  0  0  0
  -33.0250  -23.6320   17.8210 C   0  0  0  0  0  1  0  0  0  0  0  0
  -34.3310  -23.4790   19.9720 C   0  0  0  0  0  1  0  0  0  0  0  0
  -32.9760  -23.2070   19.2970 C   0  0  0  0  0  3  0  0  0  0  0  0
  1 95  1  0
  1  3  1  0
  1 51  1  0
  2  9  1  0
  2  3  1  0
  3  5  1  0
  4  2  2  0
  6  7  1  0
  8 10  1  0
  9  6  2  0
 10  7  2  0
 10 21  1  0
 11  9  1  0
 11  8  2  0
 12 11  1  0
 13 21  1  0
 14 19  1  0
 15 16  1  0
 15 14  1  0
 17 16  1  0
 17 26  1  0
 17 18  1  0
 19 13  1  0
 19 18  1  0
 20 13  2  0
 21 22  1  0
 23 24  2  0
 24 43  1  0
 25 24  1  0
 25 28  1  0
 26 27  1  0
 26 23  1  0
 27 25  2  0
 28 29  1  0
 29 30  2  0
 31 34  1  0
 31 30  1  0
 32 31  2  0
 33 32  1  0
 33 28  2  0
 34 35  1  0
 35 36  1  0
 36 37  2  0
 38 37  1  0
 38 42  1  0
 39 38  2  0
 40 35  2  0
 40 39  1  0
 41 40  1  0
 43 44  1  0
 44 47  1  0
 44 46  1  0
 45 43  2  0
 48 49  1  0
 48 23  1  0
 50 48  1  0
 51 52  2  0
 53 54  1  0
 53 51  1  0
 55 66  2  0
 56 54  1  0
 56 61  1  0
 57 65  1  0
 57 67  1  0
 58 64  1  0
 58 60  1  0
 59 65  1  0
 60 61  2  0
 60 59  1  0
 62 63  1  0
 62 56  2  0
 63 58  2  0
 64 57  1  0
 65 55  1  0
 67 69  2  0
 68 67  1  0
 70 68  1  0
 71 80  2  0
 71 76  1  0
 72 68  1  0
 72 76  1  0
 73 72  1  0
 74 75  1  0
 74 73  1  0
 75 71  1  0
 76 77  2  0
 77 78  1  0
 79 78  2  0
 80 79  1  0
 81 55  1  0
 81 82  1  0
 81 91  1  0
 82 85  1  0
 83 87  1  0
 83 82  1  0
 84 83  2  0
 87 86  1  0
 89 87  1  0
 89 90  1  0
 89 88  1  0
 91 94  1  1
 91 92  1  0
 93 91  1  0
 96 98  1  0
 98 97  1  0
 98 95  1  0
M  ISO  4  13 100  21 100  53 101  54 101
M  END
>  <TORSDO>  (50) 
F 22

>  <SCORE>  (50) 
-13.241

>  <name>  (50) 
49

>  <ligand_id>  (50) 
49

>  <original_smiles>  (50) 
[H]c1c([H])c([H])c2c(c1[H])C([H])([H])C([H])([H])C([H])([H])C2([H])N([H])C(=O)C1([H])N(C(=O)C([H])(N([H])C(=O)C([H])(N([H])C([H])([H])[H])C([H])([H])[H])C(C([H])([H])[H])(C([H])([H])[H])C([H])([H])[H])C([H])([H])c2c([H])c(OC([H])([H])C(=O)C([H])(N([H])C(=O)c3c([H])c([H])c(N([H])C(=O)N4C([H])([H])C([H])([H])C([H])([H])C([H])(n5nc(-c6c([H])c([H])c(Oc7c([H])c([H])c(F)c([H])c7F)c([H])c6[H])c(C(=O)N([H])[H])c5N([H])[H])C4([H])[H])c([H])c3F)C([H])([H])C([H])(C([H])([H])[H])C([H])([H])[H])c([H])c([H])c2C1([H])[H]

>  <smiles>  (50) 
[H]c1c([H])c([H])c2c(c1[H])C([H])([H])C([H])([H])C([H])([H])C2([H])N([H])C(=O)C1([H])N(C(=O)C([H])(N([H])C(=O)C([H])(N([H])C([H])([H])[H])C([H])([H])[H])C(C([H])([H])[H])(C([H])([H])[H])C([H])([H])[H])C([H])([H])c2c([H])c(OC([H])([H])C(=O)C([H])(N([H])C(=O)c3c([H])c([H])c(N([H])C(=O)N4C([H])([H])C([H])([H])C([H])([H])C([H])(n5nc(-c6c([H])c([H])c(Oc7c([H])c([H])c(F)c([H])c7F)c([H])c6[H])c(C(=O)N([H])[H])c5N([H])[H])C4([H])[H])c([H])c3F)C([H])([H])C([H])(C([H])([H])[H])C([H])([H])[H])c([H])c([H])c2C1([H])[H]

$$$$
50:0:0
     RDKit          3D

 97106  0  0  1  0  0  0  0  0999 V2000
  -32.1480  -21.9610   19.7240 C   0  0  0  0  0  0  0  0  0  0  0  0
  -32.3590  -23.4400   19.3780 C   0  0  0  0  0  2  0  0  0  0  0  0
  -31.2360  -24.3560   19.8600 C   0  0  0  0  0  2  0  0  0  0  0  0
  -29.7020  -22.3420   19.7730 C   0  0  0  0  0  2  0  0  0  0  0  0
  -29.8980  -23.8650   19.3160 C   0  0  0  0  0  3  0  0  0  0  0  0
  -30.8960  -21.4140   19.6820 N   0  0  0  0  0  0  0  0  0  0  0  0
  -33.1610  -21.3120   20.0100 O   0  0  0  0  0  0  0  0  0  0  0  0
  -30.3130  -19.2680   20.9450 C   0  0  0  0  0  3  0  0  0  0  0  0
  -31.2100  -19.0960   18.7210 C   0  0  0  0  0  3  0  0  0  0  0  0
  -30.7800  -19.9420   19.7840 C   0  0  0  0  0  0  0  0  0  0  0  0
  -30.8670  -17.0160   20.0150 C   0  0  0  0  0  0  0  0  0  0  0  0
  -30.3570  -17.8350   21.0640 C   0  0  0  0  0  0  0  0  0  0  0  0
  -31.2550  -17.6790   18.8210 C   0  0  0  0  0  0  0  0  0  0  0  0
  -31.6490  -16.9730   17.7350 F   0  0  0  0  0  0  0  0  0  0  0  0
  -31.5970  -14.5510   19.6640 C   0  0  0  0  0  0  0  0  0  0  0  0
  -31.2660  -12.3090   18.6540 C   0  0  0  0  0  2  0  0  0  0  0  0
  -30.1030  -12.4120   17.6410 C   0  0  0  0  0  2  0  0  0  0  0  0
  -28.7440  -12.2050   18.3410 C   0  0  0  0  0  2  0  0  0  0  0  0
  -28.6010  -13.0530   19.6310 C   0  0  0  0  0  3  0  0  0  0  0  0
  -29.8550  -12.9270   20.5240 C   0  0  0  0  0  2  0  0  0  0  0  0
  -31.0220  -13.3090   19.7120 N   0  0  0  0  0  0  0  0  0  0  0  0
  -32.6590  -14.7380   19.0670 O   0  0  0  0  0  0  0  0  0  0  0  0
  -30.8640  -15.5660   20.2110 N   0  0  0  0  0  0  0  0  0  0  0  0
  -30.1310  -15.2490   20.8260 H   0  0  0  0  0  0  0  0  0  0  0  0
  -26.6070  -13.5340   21.1830 C   0  0  0  0  0  0  0  0  0  0  0  0
  -25.5290  -12.7750   21.5510 C   0  0  0  0  0  0  0  0  0  0  0  0
  -25.6990  -11.5090   20.9100 C   0  0  0  0  0  0  0  0  0  0  0  0
  -27.3770  -12.7260   20.3590 N   0  0  0  0  0  0  0  0  0  0  0  0
  -26.8470  -11.4810   20.2440 N   0  0  0  0  0  0  0  0  0  0  0  0
  -24.8070  -10.3440   20.8440 C   0  0  0  0  0  0  0  0  0  0  0  0
  -25.0560   -9.1810   21.6050 C   0  0  0  0  0  3  0  0  0  0  0  0
  -24.1750   -8.0810   21.5410 C   0  0  0  0  0  3  0  0  0  0  0  0
  -23.0280   -8.1370   20.7140 C   0  0  0  0  0  0  0  0  0  0  0  0
  -22.7950   -9.2900   19.9420 C   0  0  0  0  0  3  0  0  0  0  0  0
  -23.6770  -10.3810   20.0030 C   0  0  0  0  0  3  0  0  0  0  0  0
  -22.1290   -7.1070   20.5700 O   0  0  0  0  0  0  0  0  0  0  0  0
  -21.6310   -6.4290   21.6530 C   0  0  0  0  0  0  0  0  0  0  0  0
  -20.9410   -7.0910   22.6930 C   0  0  0  0  0  3  0  0  0  0  0  0
  -20.3860   -6.3460   23.7530 C   0  0  0  0  0  3  0  0  0  0  0  0
  -20.5100   -4.9440   23.7700 C   0  0  0  0  0  0  0  0  0  0  0  0
  -21.1910   -4.2840   22.7320 C   0  0  0  0  0  3  0  0  0  0  0  0
  -21.7480   -5.0250   21.6760 C   0  0  0  0  0  0  0  0  0  0  0  0
  -22.3850   -4.3820   20.6660 F   0  0  0  0  0  0  0  0  0  0  0  0
  -19.9700   -4.2270   24.7830 F   0  0  0  0  0  0  0  0  0  0  0  0
  -24.3570  -13.2280   22.3720 C   0  0  0  0  0  0  0  0  0  0  0  0
  -23.7620  -12.3260   23.1430 N   0  0  0  0  0  0  0  0  0  0  0  0
  -23.9910  -14.4030   22.3680 O   0  0  0  0  0  0  0  0  0  0  0  0
  -24.0740  -11.3660   23.1600 H   0  0  0  0  0  0  0  0  0  0  0  0
  -22.9850  -12.5990   23.7260 H   0  0  0  0  0  0  0  0  0  0  0  0
  -26.9860  -14.8430   21.4630 N   0  0  0  0  0  0  0  0  0  0  0  0
  -26.4000  -15.4620   22.0120 H   0  0  0  0  0  0  0  0  0  0  0  0
  -27.8060  -15.3010   21.0870 H   0  0  0  0  0  0  0  0  0  0  0  0
  -29.9260  -17.1490   22.1820 O   0  0  0  0  0  0  0  0  0  0  0  0
  -29.4750  -16.8700   24.5020 C   0  0  0  0  0  1  0  0  0  0  0  0
  -29.6120  -17.8770   23.3590 C   0  0  0  0  0  2  0  0  0  0  0  0
  -28.7500  -24.9010   19.6750 C   0  0  0  0  0  2  0  0  0  0  0  0
  -28.9680  -26.3320   19.3580 O   0  0  0  0  0  0  0  0  0  0  0  0
  -25.1560  -31.3540   22.8750 C   0  0  0  0  0  0  0  0  0  0  0  0
  -27.8560  -27.1850   19.3920 C   0  0  0  0  0  0  0  0  0  0  0  0
  -24.0170  -30.1990   21.0130 C   0  0  0  0  0  3  0  0  0  0  0  0
  -25.5160  -28.8180   19.4710 C   0  0  0  0  0  0  0  0  0  0  0  0
  -26.5640  -30.4950   20.9920 C   0  0  0  0  0  2  0  0  0  0  0  0
  -26.6590  -29.2080   20.1820 C   0  0  0  0  0  0  0  0  0  0  0  0
  -27.8350  -28.4040   20.1330 C   0  0  0  0  0  3  0  0  0  0  0  0
  -26.6980  -26.8540   18.6550 C   0  0  0  0  0  3  0  0  0  0  0  0
  -25.5370  -27.6480   18.6990 C   0  0  0  0  0  3  0  0  0  0  0  0
  -24.2890  -29.7020   19.5690 C   0  0  0  0  0  2  0  0  0  0  0  0
  -25.2610  -30.6910   21.6870 N   0  0  0  0  0  0  0  0  0  0  0  0
  -24.0520  -31.5800   23.3890 O   0  0  0  0  0  0  0  0  0  0  0  0
  -23.2950  -29.0810   21.8010 C   0  0  0  0  0  0  0  0  0  0  0  0
  -21.9580  -29.0180   21.6750 N   0  0  0  0  0  0  0  0  0  0  0  0
  -23.9360  -28.2790   22.4850 O   0  0  0  0  0  0  0  0  0  0  0  0
  -21.5050  -29.7150   21.1020 H   0  0  0  0  0  0  0  0  0  0  0  0
  -18.5000  -28.0840   22.1710 C   0  0  0  0  0  0  0  0  0  0  0  0
  -21.0810  -28.0230   22.2940 C   0  0  0  0  0  3  0  0  0  0  0  0
  -20.9920  -26.7450   21.4300 C   0  0  0  0  0  2  0  0  0  0  0  0
  -19.8090  -26.7580   20.4570 C   0  0  0  0  0  2  0  0  0  0  0  0
  -18.4880  -26.9000   21.2190 C   0  0  0  0  0  2  0  0  0  0  0  0
  -19.7180  -28.6220   22.6630 C   0  0  0  0  0  0  0  0  0  0  0  0
  -19.6750  -29.7450   23.5170 C   0  0  0  0  0  3  0  0  0  0  0  0
  -18.4450  -30.3260   23.8810 C   0  0  0  0  0  3  0  0  0  0  0  0
  -17.2420  -29.7800   23.4030 C   0  0  0  0  0  3  0  0  0  0  0  0
  -17.2700  -28.6600   22.5530 C   0  0  0  0  0  3  0  0  0  0  0  0
  -26.4170  -31.8750   23.6330 C   0  0  0  0  0  3  0  0  0  0  0  0
  -26.9480  -30.8630   24.7220 C   0  0  1  0  0  0  0  0  0  0  0  0
  -25.8540  -30.3690   25.6960 C   0  0  0  0  0  1  0  0  0  0  0  0
  -27.5800  -29.6200   24.0520 C   0  0  0  0  0  1  0  0  0  0  0  0
  -28.0650  -31.5320   25.5580 C   0  0  0  0  0  1  0  0  0  0  0  0
  -26.0640  -33.1610   24.2500 N   0  0  0  0  0  0  0  0  0  0  0  0
  -26.3650  -34.3610   23.7360 C   0  0  0  0  0  0  0  0  0  0  0  0
  -27.0410  -34.5010   22.7140 O   0  0  0  0  0  0  0  0  0  0  0  0
  -25.4650  -33.1220   25.0610 H   0  0  0  0  0  0  0  0  0  0  0  0
  -24.5990  -36.1520   23.7330 C   0  0  0  0  0  1  0  0  0  0  0  0
  -25.8300  -35.6040   24.4730 C   0  0  0  0  0  3  0  0  0  0  0  0
  -27.9120  -36.3300   25.5530 C   0  0  0  0  0  1  0  0  0  0  0  0
  -26.8340  -36.6770   24.6320 N   0  0  0  0  0  0  0  0  0  0  0  0
  -26.3950  -37.5300   24.9680 H   0  0  0  0  0  0  0  0  0  0  0  0
  1  7  2  0
  2  1  1  0
  2  3  1  0
  5 56  1  0
  5  4  1  0
  5  3  1  0
  6  1  1  0
  6  4  1  0
  6 10  1  0
  8 12  1  0
  9 13  2  0
  9 10  1  0
 10  8  2  0
 11 23  1  0
 11 12  2  0
 12 53  1  0
 13 11  1  0
 14 13  1  0
 15 21  1  0
 15 23  1  0
 16 21  1  0
 17 18  1  0
 17 16  1  0
 19 18  1  0
 19 28  1  0
 19 20  1  0
 21 20  1  0
 22 15  2  0
 23 24  1  0
 25 50  1  0
 25 26  2  0
 26 45  1  0
 27 26  1  0
 28 25  1  0
 29 28  1  0
 29 27  2  0
 30 27  1  0
 30 31  1  0
 32 31  2  0
 33 32  1  0
 34 35  1  0
 34 33  2  0
 35 30  2  0
 36 33  1  0
 36 37  1  0
 37 42  2  0
 37 38  1  0
 38 39  2  0
 39 40  1  0
 40 44  1  0
 41 40  2  0
 42 41  1  0
 43 42  1  0
 45 46  1  0
 46 48  1  0
 46 49  1  0
 47 45  2  0
 50 51  1  0
 52 50  1  0
 53 55  1  0
 55 54  1  0
 57 59  1  0
 57 56  1  0
 58 69  2  0
 59 64  1  0
 60 68  1  0
 60 70  1  0
 61 67  1  0
 61 63  1  0
 62 68  1  0
 63 62  1  0
 64 63  2  0
 65 66  1  0
 65 59  2  0
 66 61  2  0
 67 60  1  0
 68 58  1  0
 70 72  2  0
 71 70  1  0
 73 71  1  0
 74 83  2  0
 74 79  1  0
 75 71  1  0
 75 79  1  0
 76 75  1  0
 77 78  1  0
 77 76  1  0
 78 74  1  0
 79 80  2  0
 80 81  1  0
 82 81  2  0
 83 82  1  0
 84 58  1  0
 84 89  1  0
 84 85  1  0
 85 88  1  1
 85 86  1  0
 87 85  1  0
 89 92  1  0
 90 89  1  0
 90 94  1  0
 91 90  2  0
 94 93  1  0
 94 96  1  0
 96 97  1  0
 96 95  1  0
M  ISO  4  15 100  23 100  56 101  57 101
M  END
>  <TORSDO>  (51) 
F 20

>  <SCORE>  (51) 
1.911

>  <name>  (51) 
50

>  <ligand_id>  (51) 
50

>  <original_smiles>  (51) 
[H]c1c([H])c([H])c2c(c1[H])C([H])([H])C([H])([H])C([H])([H])C2([H])N([H])C(=O)C1([H])N(C(=O)C([H])(N([H])C(=O)C([H])(N([H])C([H])([H])[H])C([H])([H])[H])C(C([H])([H])[H])(C([H])([H])[H])C([H])([H])[H])C([H])([H])c2c([H])c(OC([H])([H])C3([H])C([H])([H])N(c4c([H])c(F)c(N([H])C(=O)N5C([H])([H])C([H])([H])C([H])([H])C([H])(n6nc(-c7c([H])c([H])c(Oc8c([H])c([H])c(F)c([H])c8F)c([H])c7[H])c(C(=O)N([H])[H])c6N([H])[H])C5([H])[H])c(OC([H])([H])C([H])([H])[H])c4[H])C(=O)C([H])([H])C3([H])[H])c([H])c([H])c2C1([H])[H]

>  <smiles>  (51) 
[H]c1c([H])c([H])c2c(c1[H])C([H])([H])C([H])([H])C([H])([H])C2([H])N([H])C(=O)C1([H])N(C(=O)C([H])(N([H])C(=O)C([H])(N([H])C([H])([H])[H])C([H])([H])[H])C(C([H])([H])[H])(C([H])([H])[H])C([H])([H])[H])C([H])([H])c2c([H])c(OC([H])([H])C3([H])C([H])([H])N(c4c([H])c(F)c(N([H])C(=O)N5C([H])([H])C([H])([H])C([H])([H])C([H])(n6nc(-c7c([H])c([H])c(Oc8c([H])c([H])c(F)c([H])c8F)c([H])c7[H])c(C(=O)N([H])[H])c6N([H])[H])C5([H])[H])c(OC([H])([H])C([H])([H])[H])c4[H])C(=O)C([H])([H])C3([H])[H])c([H])c([H])c2C1([H])[H]

$$$$
51:0:0
     RDKit          3D

 94102  0  0  1  0  0  0  0  0999 V2000
  -29.4180  -19.7290   18.6260 C   0  0  0  0  0  3  0  0  0  0  0  0
  -29.6310  -18.5180   20.7300 C   0  0  0  0  0  3  0  0  0  0  0  0
  -29.6850  -17.2770   18.6440 C   0  0  0  0  0  3  0  0  0  0  0  0
  -29.4780  -19.7910   20.0340 C   0  0  0  0  0  0  0  0  0  0  0  0
  -29.5110  -18.4950   17.9410 C   0  0  0  0  0  0  0  0  0  0  0  0
  -29.7560  -17.2350   20.0570 C   0  0  0  0  0  0  0  0  0  0  0  0
  -30.5730  -14.7910   20.4100 C   0  0  0  0  0  0  0  0  0  0  0  0
  -30.4020  -12.5100   19.4330 C   0  0  0  0  0  2  0  0  0  0  0  0
  -29.4800  -12.5970   18.1980 C   0  0  0  0  0  2  0  0  0  0  0  0
  -28.0040  -12.4290   18.6030 C   0  0  0  0  0  2  0  0  0  0  0  0
  -27.6170  -13.3050   19.8230 C   0  0  0  0  0  3  0  0  0  0  0  0
  -28.6610  -13.2000   20.9590 C   0  0  0  0  0  2  0  0  0  0  0  0
  -29.9680  -13.5530   20.3900 N   0  0  0  0  0  0  0  0  0  0  0  0
  -31.7410  -14.9090   20.0330 O   0  0  0  0  0  0  0  0  0  0  0  0
  -29.8110  -15.9070   20.7250 N   0  0  0  0  0  0  0  0  0  0  0  0
  -28.9950  -15.6950   21.2810 H   0  0  0  0  0  0  0  0  0  0  0  0
  -25.2170  -13.8990   20.5100 C   0  0  0  0  0  0  0  0  0  0  0  0
  -24.1460  -13.1280   20.8700 C   0  0  0  0  0  0  0  0  0  0  0  0
  -24.6070  -11.7760   20.8520 C   0  0  0  0  0  0  0  0  0  0  0  0
  -26.2630  -13.0190   20.2910 N   0  0  0  0  0  0  0  0  0  0  0  0
  -25.9010  -11.7360   20.5560 N   0  0  0  0  0  0  0  0  0  0  0  0
  -23.8770  -10.5140   21.0400 C   0  0  0  0  0  0  0  0  0  0  0  0
  -24.2990   -9.5520   21.9820 C   0  0  0  0  0  3  0  0  0  0  0  0
  -23.5700   -8.3550   22.1570 C   0  0  0  0  0  3  0  0  0  0  0  0
  -22.4060   -8.1120   21.3920 C   0  0  0  0  0  0  0  0  0  0  0  0
  -22.0050   -9.0640   20.4390 C   0  0  0  0  0  3  0  0  0  0  0  0
  -22.7320  -10.2520   20.2600 C   0  0  0  0  0  3  0  0  0  0  0  0
  -21.6530   -6.9650   21.4750 O   0  0  0  0  0  0  0  0  0  0  0  0
  -21.5900   -6.2280   22.6300 C   0  0  0  0  0  0  0  0  0  0  0  0
  -21.1430   -6.7840   23.8480 C   0  0  0  0  0  3  0  0  0  0  0  0
  -21.0280   -5.9730   24.9950 C   0  0  0  0  0  3  0  0  0  0  0  0
  -21.3470   -4.6040   24.9240 C   0  0  0  0  0  0  0  0  0  0  0  0
  -21.7880   -4.0460   23.7100 C   0  0  0  0  0  3  0  0  0  0  0  0
  -21.9050   -4.8550   22.5670 C   0  0  0  0  0  0  0  0  0  0  0  0
  -22.3080   -4.3080   21.3960 F   0  0  0  0  0  0  0  0  0  0  0  0
  -21.2290   -3.8220   26.0220 F   0  0  0  0  0  0  0  0  0  0  0  0
  -22.7440  -13.6090   21.1220 C   0  0  0  0  0  0  0  0  0  0  0  0
  -22.0000  -12.9130   21.9750 N   0  0  0  0  0  0  0  0  0  0  0  0
  -22.3150  -14.6360   20.5970 O   0  0  0  0  0  0  0  0  0  0  0  0
  -22.3580  -12.0870   22.4310 H   0  0  0  0  0  0  0  0  0  0  0  0
  -21.0590  -13.2160   22.1800 H   0  0  0  0  0  0  0  0  0  0  0  0
  -25.3830  -15.2680   20.3300 N   0  0  0  0  0  0  0  0  0  0  0  0
  -24.6220  -15.9290   20.4350 H   0  0  0  0  0  0  0  0  0  0  0  0
  -26.2380  -15.6970   19.9970 H   0  0  0  0  0  0  0  0  0  0  0  0
  -29.4130  -18.4790   16.5480 N   0  0  0  0  0  0  0  0  0  0  0  0
  -29.0000  -19.2730   16.0680 H   0  0  0  0  0  0  0  0  0  0  0  0
  -29.2290  -17.6000   16.0750 H   0  0  0  0  0  0  0  0  0  0  0  0
  -29.4610  -21.2160   20.7540 C   0  0  0  0  0  2  0  0  0  0  0  0
  -28.9760  -23.7920   20.4900 C   0  0  0  0  0  0  0  0  0  0  0  0
  -28.7950  -22.4550   20.1510 N   0  0  0  0  0  0  0  0  0  0  0  0
  -29.8930  -24.1170   21.2460 O   0  0  0  0  0  0  0  0  0  0  0  0
  -28.0390  -22.2670   19.5070 H   0  0  0  0  0  0  0  0  0  0  0  0
  -27.9820  -24.9320   19.9610 C   0  0  0  0  0  2  0  0  0  0  0  0
  -28.2550  -26.3860   20.2730 O   0  0  0  0  0  0  0  0  0  0  0  0
  -24.6050  -31.9400   23.2410 C   0  0  0  0  0  0  0  0  0  0  0  0
  -27.1740  -27.3020   20.2020 C   0  0  0  0  0  0  0  0  0  0  0  0
  -23.3910  -30.5360   21.6180 C   0  0  0  0  0  3  0  0  0  0  0  0
  -24.8290  -28.9730   20.1900 C   0  0  0  0  0  0  0  0  0  0  0  0
  -25.9360  -30.8280   21.4280 C   0  0  0  0  0  2  0  0  0  0  0  0
  -26.0070  -29.4400   20.7890 C   0  0  0  0  0  0  0  0  0  0  0  0
  -27.1800  -28.6160   20.7900 C   0  0  0  0  0  3  0  0  0  0  0  0
  -25.9750  -26.9180   19.5560 C   0  0  0  0  0  3  0  0  0  0  0  0
  -24.8190  -27.7200   19.5640 C   0  0  0  0  0  3  0  0  0  0  0  0
  -23.5970  -29.8560   20.2400 C   0  0  0  0  0  2  0  0  0  0  0  0
  -24.6640  -31.1200   22.1510 N   0  0  0  0  0  0  0  0  0  0  0  0
  -23.5250  -32.2270   23.7780 O   0  0  0  0  0  0  0  0  0  0  0  0
  -22.7270  -29.5270   22.5880 C   0  0  0  0  0  0  0  0  0  0  0  0
  -21.4020  -29.3480   22.4640 N   0  0  0  0  0  0  0  0  0  0  0  0
  -23.4060  -28.9100   23.4130 O   0  0  0  0  0  0  0  0  0  0  0  0
  -20.9130  -29.8960   21.7700 H   0  0  0  0  0  0  0  0  0  0  0  0
  -18.0270  -28.1440   22.9700 C   0  0  0  0  0  0  0  0  0  0  0  0
  -20.5830  -28.4190   23.2460 C   0  0  0  0  0  3  0  0  0  0  0  0
  -20.6940  -26.9780   22.6930 C   0  0  0  0  0  2  0  0  0  0  0  0
  -19.5970  -26.6350   21.6800 C   0  0  0  0  0  2  0  0  0  0  0  0
  -18.2130  -26.7840   22.3170 C   0  0  0  0  0  2  0  0  0  0  0  0
  -19.1400  -28.9180   23.3930 C   0  0  0  0  0  0  0  0  0  0  0  0
  -18.9110  -30.1880   23.9660 C   0  0  0  0  0  3  0  0  0  0  0  0
  -17.6020  -30.6830   24.1210 C   0  0  0  0  0  3  0  0  0  0  0  0
  -16.5040  -29.9050   23.7130 C   0  0  0  0  0  3  0  0  0  0  0  0
  -16.7170  -28.6380   23.1420 C   0  0  0  0  0  3  0  0  0  0  0  0
  -25.8910  -32.5760   23.8530 C   0  0  0  0  0  3  0  0  0  0  0  0
  -26.4070  -31.8160   25.1370 C   0  0  1  0  0  0  0  0  0  0  0  0
  -25.3150  -31.5980   26.2100 C   0  0  0  0  0  1  0  0  0  0  0  0
  -26.9820  -30.4310   24.7620 C   0  0  0  0  0  1  0  0  0  0  0  0
  -27.5660  -32.6110   25.7840 C   0  0  0  0  0  1  0  0  0  0  0  0
  -25.5870  -33.9780   24.1700 N   0  0  0  0  0  0  0  0  0  0  0  0
  -25.9150  -35.0230   23.3980 C   0  0  0  0  0  0  0  0  0  0  0  0
  -26.5770  -34.9070   22.3620 O   0  0  0  0  0  0  0  0  0  0  0  0
  -24.9970  -34.1420   24.9730 H   0  0  0  0  0  0  0  0  0  0  0  0
  -24.1930  -36.8210   23.0400 C   0  0  0  0  0  1  0  0  0  0  0  0
  -25.4380  -36.4170   23.8460 C   0  0  0  0  0  3  0  0  0  0  0  0
  -27.5830  -37.3040   24.6520 C   0  0  0  0  0  1  0  0  0  0  0  0
  -26.4750  -37.4650   23.7140 N   0  0  0  0  0  0  0  0  0  0  0  0
  -26.0740  -38.3890   23.8530 H   0  0  0  0  0  0  0  0  0  0  0  0
  1  4  1  0
  3  6  2  0
  4  2  2  0
  4 48  1  0
  5  1  2  0
  5  3  1  0
  6 15  1  0
  6  2  1  0
  7 15  1  0
  8 13  1  0
  9 10  1  0
  9  8  1  0
 11 10  1  0
 11 20  1  0
 11 12  1  0
 13  7  1  0
 13 12  1  0
 14  7  2  0
 15 16  1  0
 17 18  2  0
 18 37  1  0
 19 18  1  0
 19 22  1  0
 20 17  1  0
 20 21  1  0
 21 19  2  0
 22 23  1  0
 23 24  2  0
 25 28  1  0
 25 24  1  0
 26 25  2  0
 27 26  1  0
 27 22  2  0
 28 29  1  0
 29 30  1  0
 30 31  2  0
 32 31  1  0
 32 36  1  0
 33 32  2  0
 34 29  2  0
 34 33  1  0
 35 34  1  0
 37 38  1  0
 38 41  1  0
 38 40  1  0
 39 37  2  0
 42 43  1  0
 42 17  1  0
 44 42  1  0
 45  5  1  0
 46 45  1  0
 47 45  1  0
 49 51  2  0
 50 49  1  0
 50 48  1  0
 52 50  1  0
 53 54  1  0
 53 49  1  0
 55 66  2  0
 56 54  1  0
 56 61  1  0
 57 65  1  0
 57 67  1  0
 58 64  1  0
 58 60  1  0
 59 65  1  0
 60 61  2  0
 60 59  1  0
 62 63  1  0
 62 56  2  0
 63 58  2  0
 64 57  1  0
 65 55  1  0
 67 69  2  0
 68 67  1  0
 70 68  1  0
 71 80  2  0
 71 76  1  0
 72 68  1  0
 72 76  1  0
 73 72  1  0
 74 75  1  0
 74 73  1  0
 75 71  1  0
 76 77  2  0
 77 78  1  0
 79 78  2  0
 80 79  1  0
 81 55  1  0
 81 86  1  0
 81 82  1  0
 82 85  1  1
 82 83  1  0
 84 82  1  0
 86 89  1  0
 87 91  1  0
 87 86  1  0
 88 87  2  0
 91 90  1  0
 93 91  1  0
 93 94  1  0
 93 92  1  0
M  ISO  4   7 100  15 100  53 101  54 101
M  END
>  <TORSDO>  (52) 
F 20

>  <SCORE>  (52) 
-14.155

>  <name>  (52) 
51

>  <ligand_id>  (52) 
51

>  <original_smiles>  (52) 
[H]c1c([H])c([H])c2c(c1[H])C([H])([H])C([H])([H])C([H])([H])C2([H])N([H])C(=O)C1([H])N(C(=O)C([H])(N([H])C(=O)C([H])(N([H])C([H])([H])[H])C([H])([H])[H])C(C([H])([H])[H])(C([H])([H])[H])C([H])([H])[H])C([H])([H])c2c([H])c(OC([H])([H])C(=O)N([H])C([H])([H])c3c([H])c(N([H])[H])c([H])c(N([H])C(=O)N4C([H])([H])C([H])([H])C([H])([H])C([H])(n5nc(-c6c([H])c([H])c(Oc7c([H])c([H])c(F)c([H])c7F)c([H])c6[H])c(C(=O)N([H])[H])c5N([H])[H])C4([H])[H])c3[H])c([H])c([H])c2C1([H])[H]

>  <smiles>  (52) 
[H]c1c([H])c([H])c2c(c1[H])C([H])([H])C([H])([H])C([H])([H])C2([H])N([H])C(=O)C1([H])N(C(=O)C([H])(N([H])C(=O)C([H])(N([H])C([H])([H])[H])C([H])([H])[H])C(C([H])([H])[H])(C([H])([H])[H])C([H])([H])[H])C([H])([H])c2c([H])c(OC([H])([H])C(=O)N([H])C([H])([H])c3c([H])c(N([H])[H])c([H])c(N([H])C(=O)N4C([H])([H])C([H])([H])C([H])([H])C([H])(n5nc(-c6c([H])c([H])c(Oc7c([H])c([H])c(F)c([H])c7F)c([H])c6[H])c(C(=O)N([H])[H])c5N([H])[H])C4([H])[H])c3[H])c([H])c([H])c2C1([H])[H]

$$$$
52:0:0
     RDKit          3D

 94102  0  0  1  0  0  0  0  0999 V2000
  -30.4330  -20.0370   19.8580 C   0  0  0  0  0  3  0  0  0  0  0  0
  -30.7050  -18.5950   19.9450 C   0  0  0  0  0  3  0  0  0  0  0  0
  -29.1200  -20.6310   19.9620 C   0  0  0  0  0  0  0  0  0  0  0  0
  -29.6890  -17.5880   20.1440 C   0  0  0  0  0  0  0  0  0  0  0  0
  -28.1290  -19.6200   20.1800 C   0  0  0  0  0  0  0  0  0  0  0  0
  -28.3990  -18.1970   20.2660 C   0  0  0  0  0  0  0  0  0  0  0  0
  -27.3470  -17.3660   20.4730 F   0  0  0  0  0  0  0  0  0  0  0  0
  -30.5730  -14.9580   19.8930 C   0  0  0  0  0  0  0  0  0  0  0  0
  -30.3960  -12.6180   18.9290 C   0  0  0  0  0  2  0  0  0  0  0  0
  -29.3750  -12.6230   17.7660 C   0  0  0  0  0  2  0  0  0  0  0  0
  -27.9390  -12.4280   18.2920 C   0  0  0  0  0  2  0  0  0  0  0  0
  -27.6300  -13.3270   19.5170 C   0  0  0  0  0  3  0  0  0  0  0  0
  -28.7620  -13.2780   20.5660 C   0  0  0  0  0  2  0  0  0  0  0  0
  -30.0020  -13.6870   19.8880 N   0  0  0  0  0  0  0  0  0  0  0  0
  -31.7300  -15.0780   19.4740 O   0  0  0  0  0  0  0  0  0  0  0  0
  -29.7500  -16.0570   20.2270 N   0  0  0  0  0  0  0  0  0  0  0  0
  -28.8770  -15.7020   20.5860 H   0  0  0  0  0  0  0  0  0  0  0  0
  -25.3140  -13.9220   20.4330 C   0  0  0  0  0  0  0  0  0  0  0  0
  -24.2640  -13.1540   20.8560 C   0  0  0  0  0  0  0  0  0  0  0  0
  -24.7010  -11.7970   20.7550 C   0  0  0  0  0  0  0  0  0  0  0  0
  -26.3240  -13.0350   20.0970 N   0  0  0  0  0  0  0  0  0  0  0  0
  -25.9670  -11.7490   20.3520 N   0  0  0  0  0  0  0  0  0  0  0  0
  -23.9670  -10.5410   20.9610 C   0  0  0  0  0  0  0  0  0  0  0  0
  -24.4250   -9.5560   21.8630 C   0  0  0  0  0  3  0  0  0  0  0  0
  -23.6910   -8.3670   22.0590 C   0  0  0  0  0  3  0  0  0  0  0  0
  -22.4840   -8.1550   21.3530 C   0  0  0  0  0  0  0  0  0  0  0  0
  -22.0430   -9.1290   20.4390 C   0  0  0  0  0  3  0  0  0  0  0  0
  -22.7790  -10.3090   20.2410 C   0  0  0  0  0  3  0  0  0  0  0  0
  -21.7190   -7.0180   21.4580 O   0  0  0  0  0  0  0  0  0  0  0  0
  -21.6780   -6.2820   22.6140 C   0  0  0  0  0  0  0  0  0  0  0  0
  -21.2750   -6.8490   23.8440 C   0  0  0  0  0  3  0  0  0  0  0  0
  -21.1800   -6.0420   24.9940 C   0  0  0  0  0  3  0  0  0  0  0  0
  -21.4770   -4.6680   24.9170 C   0  0  0  0  0  0  0  0  0  0  0  0
  -21.8730   -4.1000   23.6940 C   0  0  0  0  0  3  0  0  0  0  0  0
  -21.9700   -4.9060   22.5450 C   0  0  0  0  0  0  0  0  0  0  0  0
  -22.3310   -4.3500   21.3640 F   0  0  0  0  0  0  0  0  0  0  0  0
  -21.3790   -3.8900   26.0210 F   0  0  0  0  0  0  0  0  0  0  0  0
  -22.8980  -13.6470   21.2390 C   0  0  0  0  0  0  0  0  0  0  0  0
  -22.2250  -12.9470   22.1450 N   0  0  0  0  0  0  0  0  0  0  0  0
  -22.4390  -14.6880   20.7720 O   0  0  0  0  0  0  0  0  0  0  0  0
  -22.6090  -12.1050   22.5480 H   0  0  0  0  0  0  0  0  0  0  0  0
  -21.3120  -13.2610   22.4430 H   0  0  0  0  0  0  0  0  0  0  0  0
  -25.4840  -15.2940   20.2870 N   0  0  0  0  0  0  0  0  0  0  0  0
  -24.7440  -15.9520   20.5060 H   0  0  0  0  0  0  0  0  0  0  0  0
  -26.3390  -15.7520   20.0020 H   0  0  0  0  0  0  0  0  0  0  0  0
  -29.0890  -23.4120   19.8650 C   0  0  0  0  0  0  0  0  0  0  0  0
  -28.6400  -22.0750   19.7520 N   0  0  0  0  0  0  0  0  0  0  0  0
  -30.2300  -23.6520   20.2670 O   0  0  0  0  0  0  0  0  0  0  0  0
  -27.6620  -22.0620   19.4910 H   0  0  0  0  0  0  0  0  0  0  0  0
  -28.1150  -24.6890   19.4500 C   0  0  0  0  0  2  0  0  0  0  0  0
  -28.4020  -26.1880   19.7620 O   0  0  0  0  0  0  0  0  0  0  0  0
  -24.5940  -31.6160   23.0020 C   0  0  0  0  0  0  0  0  0  0  0  0
  -27.3220  -27.1480   19.7410 C   0  0  0  0  0  0  0  0  0  0  0  0
  -23.4390  -30.2690   21.2930 C   0  0  0  0  0  3  0  0  0  0  0  0
  -24.9370  -28.8180   19.7930 C   0  0  0  0  0  0  0  0  0  0  0  0
  -25.9840  -30.6220   21.1480 C   0  0  0  0  0  2  0  0  0  0  0  0
  -26.1010  -29.2680   20.4270 C   0  0  0  0  0  0  0  0  0  0  0  0
  -27.2930  -28.4500   20.3870 C   0  0  0  0  0  3  0  0  0  0  0  0
  -26.1250  -26.8070   19.0690 C   0  0  0  0  0  3  0  0  0  0  0  0
  -24.9610  -27.6010   19.0980 C   0  0  0  0  0  3  0  0  0  0  0  0
  -23.6810  -29.6700   19.8820 C   0  0  0  0  0  2  0  0  0  0  0  0
  -24.6910  -30.8550   21.8700 N   0  0  0  0  0  0  0  0  0  0  0  0
  -23.4990  -31.8390   23.5410 O   0  0  0  0  0  0  0  0  0  0  0  0
  -22.7900  -29.1930   22.2010 C   0  0  0  0  0  0  0  0  0  0  0  0
  -21.4620  -29.0150   22.0900 N   0  0  0  0  0  0  0  0  0  0  0  0
  -23.4850  -28.5220   22.9690 O   0  0  0  0  0  0  0  0  0  0  0  0
  -20.9560  -29.6100   21.4470 H   0  0  0  0  0  0  0  0  0  0  0  0
  -18.0960  -27.7830   22.6230 C   0  0  0  0  0  0  0  0  0  0  0  0
  -20.6650  -28.0220   22.8150 C   0  0  0  0  0  3  0  0  0  0  0  0
  -20.7390  -26.6380   22.1290 C   0  0  0  0  0  2  0  0  0  0  0  0
  -19.6000  -26.3950   21.1340 C   0  0  0  0  0  2  0  0  0  0  0  0
  -18.2430  -26.4910   21.8370 C   0  0  0  0  0  2  0  0  0  0  0  0
  -19.2330  -28.5100   23.0680 C   0  0  0  0  0  0  0  0  0  0  0  0
  -19.0390  -29.7220   23.7660 C   0  0  0  0  0  3  0  0  0  0  0  0
  -17.7430  -30.2080   24.0200 C   0  0  0  0  0  3  0  0  0  0  0  0
  -16.6210  -29.4770   23.5900 C   0  0  0  0  0  3  0  0  0  0  0  0
  -16.7990  -28.2650   22.8980 C   0  0  0  0  0  3  0  0  0  0  0  0
  -25.8510  -32.2600   23.6630 C   0  0  0  0  0  3  0  0  0  0  0  0
  -26.3700  -31.4550   24.9170 C   0  0  1  0  0  0  0  0  0  0  0  0
  -25.2730  -31.1620   25.9680 C   0  0  0  0  0  1  0  0  0  0  0  0
  -26.9810  -30.1020   24.4890 C   0  0  0  0  0  1  0  0  0  0  0  0
  -27.5010  -32.2470   25.6160 C   0  0  0  0  0  1  0  0  0  0  0  0
  -25.5010  -33.6370   24.0470 N   0  0  0  0  0  0  0  0  0  0  0  0
  -25.8010  -34.7300   23.3330 C   0  0  0  0  0  0  0  0  0  0  0  0
  -26.4700  -34.6860   22.2970 O   0  0  0  0  0  0  0  0  0  0  0  0
  -24.9050  -33.7400   24.8550 H   0  0  0  0  0  0  0  0  0  0  0  0
  -24.0180  -36.4860   23.0660 C   0  0  0  0  0  1  0  0  0  0  0  0
  -25.2800  -36.0870   23.8480 C   0  0  0  0  0  3  0  0  0  0  0  0
  -27.3960  -37.0050   24.6910 C   0  0  0  0  0  1  0  0  0  0  0  0
  -26.2800  -37.1730   23.7640 N   0  0  0  0  0  0  0  0  0  0  0  0
  -25.8490  -38.0760   23.9470 H   0  0  0  0  0  0  0  0  0  0  0  0
  -26.8030  -20.0410   20.3260 N   0  0  0  0  0  0  0  0  0  0  0  0
  -26.6870  -20.8460   20.9300 H   0  0  0  0  0  0  0  0  0  0  0  0
  -26.1920  -19.2890   20.6270 H   0  0  0  0  0  0  0  0  0  0  0  0
  1  2  2  0
  1  3  1  0
  2  4  1  0
  3  5  2  0
  4 16  1  0
  4  6  2  0
  5  6  1  0
  5 92  1  0
  6  7  1  0
  8 16  1  0
  9 14  1  0
 10 11  1  0
 10  9  1  0
 12 11  1  0
 12 21  1  0
 12 13  1  0
 14  8  1  0
 14 13  1  0
 15  8  2  0
 16 17  1  0
 18 19  2  0
 19 38  1  0
 20 19  1  0
 20 23  1  0
 21 22  1  0
 21 18  1  0
 22 20  2  0
 23 24  1  0
 24 25  2  0
 26 29  1  0
 26 25  1  0
 27 26  2  0
 28 27  1  0
 28 23  2  0
 29 30  1  0
 30 31  1  0
 31 32  2  0
 33 32  1  0
 33 37  1  0
 34 33  2  0
 35 30  2  0
 35 34  1  0
 36 35  1  0
 38 39  1  0
 39 42  1  0
 39 41  1  0
 40 38  2  0
 43 18  1  0
 43 44  1  0
 45 43  1  0
 46 48  2  0
 47 46  1  0
 47  3  1  0
 49 47  1  0
 50 51  1  0
 50 46  1  0
 52 63  2  0
 53 51  1  0
 53 58  1  0
 54 62  1  0
 54 64  1  0
 55 61  1  0
 55 57  1  0
 56 62  1  0
 57 56  1  0
 58 57  2  0
 59 60  1  0
 59 53  2  0
 60 55  2  0
 61 54  1  0
 62 52  1  0
 64 66  2  0
 65 64  1  0
 67 65  1  0
 68 77  2  0
 68 73  1  0
 69 65  1  0
 69 73  1  0
 70 69  1  0
 71 72  1  0
 71 70  1  0
 72 68  1  0
 73 74  2  0
 74 75  1  0
 76 75  2  0
 77 76  1  0
 78 52  1  0
 78 83  1  0
 78 79  1  0
 79 82  1  1
 79 80  1  0
 81 79  1  0
 83 86  1  0
 84 88  1  0
 84 83  1  0
 85 84  2  0
 88 87  1  0
 90 88  1  0
 90 91  1  0
 90 89  1  0
 92 94  1  0
 92 93  1  0
M  ISO  4   8 100  16 100  50 101  51 101
M  END
>  <TORSDO>  (53) 
F 19

>  <SCORE>  (53) 
-13.421

>  <name>  (53) 
52

>  <ligand_id>  (53) 
52

>  <original_smiles>  (53) 
[H]c1c([H])c([H])c2c(c1[H])C([H])([H])C([H])([H])C([H])([H])C2([H])N([H])C(=O)C1([H])N(C(=O)C([H])(N([H])C(=O)C([H])(N([H])C([H])([H])[H])C([H])([H])[H])C(C([H])([H])[H])(C([H])([H])[H])C([H])([H])[H])C([H])([H])c2c([H])c(OC([H])([H])C(=O)N([H])c3c([H])c([H])c(N([H])C(=O)N4C([H])([H])C([H])([H])C([H])([H])C([H])(n5nc(-c6c([H])c([H])c(Oc7c([H])c([H])c(F)c([H])c7F)c([H])c6[H])c(C(=O)N([H])[H])c5N([H])[H])C4([H])[H])c(F)c3N([H])[H])c([H])c([H])c2C1([H])[H]

>  <smiles>  (53) 
[H]c1c([H])c([H])c2c(c1[H])C([H])([H])C([H])([H])C([H])([H])C2([H])N([H])C(=O)C1([H])N(C(=O)C([H])(N([H])C(=O)C([H])(N([H])C([H])([H])[H])C([H])([H])[H])C(C([H])([H])[H])(C([H])([H])[H])C([H])([H])[H])C([H])([H])c2c([H])c(OC([H])([H])C(=O)N([H])c3c([H])c([H])c(N([H])C(=O)N4C([H])([H])C([H])([H])C([H])([H])C([H])(n5nc(-c6c([H])c([H])c(Oc7c([H])c([H])c(F)c([H])c7F)c([H])c6[H])c(C(=O)N([H])[H])c5N([H])[H])C4([H])[H])c(F)c3N([H])[H])c([H])c([H])c2C1([H])[H]

$$$$
53:0:0
     RDKit          3D

 96105  0  0  1  0  0  0  0  0999 V2000
  -26.1450  -22.6430   20.7180 C   0  0  0  0  0  0  0  0  0  0  0  0
  -28.7330  -22.7020   19.4420 C   0  0  0  0  0  0  0  0  0  0  0  0
  -26.7360  -24.0360   20.4420 C   0  0  0  0  0  2  0  0  0  0  0  0
  -26.6580  -21.4660   19.8620 C   0  0  0  0  0  2  0  0  0  0  0  0
  -27.8050  -24.0040   19.3220 C   0  0  0  0  0  3  0  0  0  0  0  0
  -28.1250  -21.4680   19.6790 N   0  0  0  0  0  0  0  0  0  0  0  0
  -25.2610  -22.4820   21.5620 O   0  0  0  0  0  0  0  0  0  0  0  0
  -29.9550  -22.8160   19.3190 O   0  0  0  0  0  0  0  0  0  0  0  0
  -29.8080  -19.8320   20.6540 C   0  0  0  0  0  3  0  0  0  0  0  0
  -30.2550  -18.4940   20.8880 C   0  0  0  0  0  3  0  0  0  0  0  0
  -28.2570  -18.9900   19.0400 C   0  0  0  0  0  3  0  0  0  0  0  0
  -28.7650  -20.1300   19.7450 C   0  0  0  0  0  0  0  0  0  0  0  0
  -29.7460  -17.3440   20.1990 C   0  0  0  0  0  0  0  0  0  0  0  0
  -28.7440  -17.6520   19.2340 C   0  0  0  0  0  0  0  0  0  0  0  0
  -28.1860  -16.6470   18.5190 F   0  0  0  0  0  0  0  0  0  0  0  0
  -30.6090  -14.9560   19.7230 C   0  0  0  0  0  0  0  0  0  0  0  0
  -30.2890  -12.7080   18.6770 C   0  0  0  0  0  2  0  0  0  0  0  0
  -29.2560  -12.8110   17.5360 C   0  0  0  0  0  2  0  0  0  0  0  0
  -27.8290  -12.6130   18.0850 C   0  0  0  0  0  2  0  0  0  0  0  0
  -27.5560  -13.4930   19.3320 C   0  0  0  0  0  3  0  0  0  0  0  0
  -28.6960  -13.4000   20.3650 C   0  0  0  0  0  2  0  0  0  0  0  0
  -29.9560  -13.7430   19.6850 N   0  0  0  0  0  0  0  0  0  0  0  0
  -31.6370  -15.1230   19.0590 O   0  0  0  0  0  0  0  0  0  0  0  0
  -30.1560  -15.9560   20.5700 N   0  0  0  0  0  0  0  0  0  0  0  0
  -25.2520  -14.0800   20.2910 C   0  0  0  0  0  0  0  0  0  0  0  0
  -24.2210  -13.3050   20.7450 C   0  0  0  0  0  0  0  0  0  0  0  0
  -24.6710  -11.9530   20.6450 C   0  0  0  0  0  0  0  0  0  0  0  0
  -26.2600  -13.2010   19.9350 N   0  0  0  0  0  0  0  0  0  0  0  0
  -25.9250  -11.9140   20.2070 N   0  0  0  0  0  0  0  0  0  0  0  0
  -23.9600  -10.6910   20.8860 C   0  0  0  0  0  0  0  0  0  0  0  0
  -24.4050   -9.7660   21.8540 C   0  0  0  0  0  3  0  0  0  0  0  0
  -23.6960   -8.5660   22.0770 C   0  0  0  0  0  3  0  0  0  0  0  0
  -22.5260   -8.2830   21.3340 C   0  0  0  0  0  0  0  0  0  0  0  0
  -22.1020   -9.1970   20.3550 C   0  0  0  0  0  3  0  0  0  0  0  0
  -22.8100  -10.3880   20.1290 C   0  0  0  0  0  3  0  0  0  0  0  0
  -21.7870   -7.1320   21.4640 O   0  0  0  0  0  0  0  0  0  0  0  0
  -21.6860   -6.4760   22.6650 C   0  0  0  0  0  0  0  0  0  0  0  0
  -21.1680   -7.1060   23.8190 C   0  0  0  0  0  3  0  0  0  0  0  0
  -21.0140   -6.3710   25.0100 C   0  0  0  0  0  3  0  0  0  0  0  0
  -21.3670   -5.0080   25.0530 C   0  0  0  0  0  0  0  0  0  0  0  0
  -21.8760   -4.3790   23.9030 C   0  0  0  0  0  3  0  0  0  0  0  0
  -22.0340   -5.1110   22.7130 C   0  0  0  0  0  0  0  0  0  0  0  0
  -22.5060   -4.4950   21.6030 F   0  0  0  0  0  0  0  0  0  0  0  0
  -21.2110   -4.3010   26.1960 F   0  0  0  0  0  0  0  0  0  0  0  0
  -22.8620  -13.7850   21.1610 C   0  0  0  0  0  0  0  0  0  0  0  0
  -22.2290  -13.0900   22.0990 N   0  0  0  0  0  0  0  0  0  0  0  0
  -22.3720  -14.8100   20.6860 O   0  0  0  0  0  0  0  0  0  0  0  0
  -22.6410  -12.2670   22.5090 H   0  0  0  0  0  0  0  0  0  0  0  0
  -21.3170  -13.3890   22.4160 H   0  0  0  0  0  0  0  0  0  0  0  0
  -25.4070  -15.4530   20.1300 N   0  0  0  0  0  0  0  0  0  0  0  0
  -24.6500  -16.1010   20.3250 H   0  0  0  0  0  0  0  0  0  0  0  0
  -26.2190  -15.8970   19.7210 H   0  0  0  0  0  0  0  0  0  0  0  0
  -32.0330  -15.9980   22.2660 C   0  0  0  0  0  1  0  0  0  0  0  0
  -30.5380  -15.7340   21.9820 C   0  0  0  0  0  2  0  0  0  0  0  0
  -28.3770  -25.4420   18.8310 C   0  0  0  0  0  2  0  0  0  0  0  0
  -28.3070  -26.7490   19.5430 O   0  0  0  0  0  0  0  0  0  0  0  0
  -24.5530  -31.7850   23.0920 C   0  0  0  0  0  0  0  0  0  0  0  0
  -27.1580  -27.5550   19.5660 C   0  0  0  0  0  0  0  0  0  0  0  0
  -23.3170  -30.4440   21.4260 C   0  0  0  0  0  3  0  0  0  0  0  0
  -24.7420  -29.0710   19.8000 C   0  0  0  0  0  0  0  0  0  0  0  0
  -25.8240  -30.8870   21.1300 C   0  0  0  0  0  2  0  0  0  0  0  0
  -25.9180  -29.5600   20.3790 C   0  0  0  0  0  0  0  0  0  0  0  0
  -27.1250  -28.8070   20.2610 C   0  0  0  0  0  3  0  0  0  0  0  0
  -25.9610  -27.1350   18.9530 C   0  0  0  0  0  3  0  0  0  0  0  0
  -24.7640  -27.8660   19.0780 C   0  0  0  0  0  3  0  0  0  0  0  0
  -23.4740  -29.8780   19.9880 C   0  0  0  0  0  2  0  0  0  0  0  0
  -24.5850  -31.0550   21.9370 N   0  0  0  0  0  0  0  0  0  0  0  0
  -23.4940  -31.9720   23.7070 O   0  0  0  0  0  0  0  0  0  0  0  0
  -22.7610  -29.3330   22.3480 C   0  0  0  0  0  0  0  0  0  0  0  0
  -21.4520  -29.0510   22.2370 N   0  0  0  0  0  0  0  0  0  0  0  0
  -23.5070  -28.7290   23.1250 O   0  0  0  0  0  0  0  0  0  0  0  0
  -20.9040  -29.5980   21.5870 H   0  0  0  0  0  0  0  0  0  0  0  0
  -18.2140  -27.5030   22.6830 C   0  0  0  0  0  0  0  0  0  0  0  0
  -20.7300  -28.0150   22.9780 C   0  0  0  0  0  3  0  0  0  0  0  0
  -20.9790  -26.6150   22.3690 C   0  0  0  0  0  2  0  0  0  0  0  0
  -19.9210  -26.2090   21.3380 C   0  0  0  0  0  2  0  0  0  0  0  0
  -18.5300  -26.1980   21.9730 C   0  0  0  0  0  2  0  0  0  0  0  0
  -19.2460  -28.3650   23.1400 C   0  0  0  0  0  0  0  0  0  0  0  0
  -18.8930  -29.5830   23.7590 C   0  0  0  0  0  3  0  0  0  0  0  0
  -17.5430  -29.9420   23.9270 C   0  0  0  0  0  3  0  0  0  0  0  0
  -16.5250  -29.0790   23.4840 C   0  0  0  0  0  3  0  0  0  0  0  0
  -16.8620  -27.8600   22.8670 C   0  0  0  0  0  3  0  0  0  0  0  0
  -25.8430  -32.4350   23.6790 C   0  0  0  0  0  3  0  0  0  0  0  0
  -26.4570  -31.6180   24.8830 C   0  0  1  0  0  0  0  0  0  0  0  0
  -25.4330  -31.2850   25.9930 C   0  0  0  0  0  1  0  0  0  0  0  0
  -27.0700  -30.2870   24.3900 C   0  0  0  0  0  1  0  0  0  0  0  0
  -27.6100  -32.4250   25.5280 C   0  0  0  0  0  1  0  0  0  0  0  0
  -25.4970  -33.7980   24.1080 N   0  0  0  0  0  0  0  0  0  0  0  0
  -25.7430  -34.9060   23.3950 C   0  0  0  0  0  0  0  0  0  0  0  0
  -26.3570  -34.8930   22.3260 O   0  0  0  0  0  0  0  0  0  0  0  0
  -24.9460  -33.8780   24.9490 H   0  0  0  0  0  0  0  0  0  0  0  0
  -23.9320  -36.6450   23.2370 C   0  0  0  0  0  1  0  0  0  0  0  0
  -25.2270  -36.2440   23.9610 C   0  0  0  0  0  3  0  0  0  0  0  0
  -27.3630  -37.1680   24.7450 C   0  0  0  0  0  1  0  0  0  0  0  0
  -26.2090  -37.3450   23.8650 N   0  0  0  0  0  0  0  0  0  0  0  0
  -25.7730  -38.2350   24.0910 H   0  0  0  0  0  0  0  0  0  0  0  0
  1  7  2  0
  2  6  1  0
  3  1  1  0
  4  1  1  0
  5 55  1  0
  5  2  1  0
  5  3  1  0
  6 12  1  0
  6  4  1  0
  8  2  2  0
  9 10  1  0
 11 14  2  0
 11 12  1  0
 12  9  2  0
 13 24  1  0
 13 10  2  0
 14 13  1  0
 15 14  1  0
 16 24  1  0
 17 22  1  0
 18 19  1  0
 18 17  1  0
 20 19  1  0
 20 28  1  0
 20 21  1  0
 22 16  1  0
 22 21  1  0
 23 16  2  0
 24 54  1  0
 25 26  2  0
 26 45  1  0
 27 26  1  0
 27 30  1  0
 28 29  1  0
 28 25  1  0
 29 27  2  0
 30 31  1  0
 31 32  2  0
 33 36  1  0
 33 32  1  0
 34 33  2  0
 35 34  1  0
 35 30  2  0
 36 37  1  0
 37 42  2  0
 37 38  1  0
 38 39  2  0
 39 40  1  0
 40 44  1  0
 41 40  2  0
 42 41  1  0
 43 42  1  0
 45 46  1  0
 46 49  1  0
 46 48  1  0
 47 45  2  0
 50 25  1  0
 50 51  1  0
 52 50  1  0
 54 53  1  0
 55 56  1  0
 56 58  1  0
 57 68  2  0
 58 63  1  0
 59 67  1  0
 59 69  1  0
 60 66  1  0
 60 62  1  0
 61 67  1  0
 62 61  1  0
 63 62  2  0
 64 65  1  0
 64 58  2  0
 65 60  2  0
 66 59  1  0
 67 57  1  0
 69 71  2  0
 70 69  1  0
 72 70  1  0
 73 82  2  0
 73 78  1  0
 74 70  1  0
 74 78  1  0
 75 74  1  0
 76 77  1  0
 76 75  1  0
 77 73  1  0
 78 79  2  0
 79 80  1  0
 81 80  2  0
 82 81  1  0
 83 57  1  0
 83 88  1  0
 83 84  1  0
 84 87  1  1
 84 85  1  0
 86 84  1  0
 88 91  1  0
 89 93  1  0
 89 88  1  0
 90 89  2  0
 93 92  1  0
 95 93  1  0
 95 96  1  0
 95 94  1  0
M  ISO  4  16 100  24 100  55 101  56 101
M  END
>  <TORSDO>  (54) 
F 19

>  <SCORE>  (54) 
-10.121

>  <name>  (54) 
53

>  <ligand_id>  (54) 
53

>  <original_smiles>  (54) 
[H]c1c([H])c([H])c2c(c1[H])C([H])([H])C([H])([H])C([H])([H])C2([H])N([H])C(=O)C1([H])N(C(=O)C([H])(N([H])C(=O)C([H])(N([H])C([H])([H])[H])C([H])([H])[H])C(C([H])([H])[H])(C([H])([H])[H])C([H])([H])[H])C([H])([H])c2c([H])c(OC([H])([H])C3([H])C(=O)N(c4c([H])c([H])c(N(C(=O)N5C([H])([H])C([H])([H])C([H])([H])C([H])(n6nc(-c7c([H])c([H])c(Oc8c([H])c([H])c(F)c([H])c8F)c([H])c7[H])c(C(=O)N([H])[H])c6N([H])[H])C5([H])[H])C([H])([H])C([H])([H])[H])c(F)c4[H])C([H])([H])C(=O)C3([H])[H])c([H])c([H])c2C1([H])[H]

>  <smiles>  (54) 
[H]c1c([H])c([H])c2c(c1[H])C([H])([H])C([H])([H])C([H])([H])C2([H])N([H])C(=O)C1([H])N(C(=O)C([H])(N([H])C(=O)C([H])(N([H])C([H])([H])[H])C([H])([H])[H])C(C([H])([H])[H])(C([H])([H])[H])C([H])([H])[H])C([H])([H])c2c([H])c(OC([H])([H])C3([H])C(=O)N(c4c([H])c([H])c(N(C(=O)N5C([H])([H])C([H])([H])C([H])([H])C([H])(n6nc(-c7c([H])c([H])c(Oc8c([H])c([H])c(F)c([H])c8F)c([H])c7[H])c(C(=O)N([H])[H])c6N([H])[H])C5([H])[H])C([H])([H])C([H])([H])[H])c(F)c4[H])C([H])([H])C(=O)C3([H])[H])c([H])c([H])c2C1([H])[H]

$$$$
54:0:0
     RDKit          3D

 94102  0  0  1  0  0  0  0  0999 V2000
  -29.3380  -18.9780   19.4460 C   0  0  0  0  0  3  0  0  0  0  0  0
  -28.9940  -20.3300   19.1630 C   0  0  0  0  0  3  0  0  0  0  0  0
  -30.0330  -18.6410   20.6360 C   0  0  0  0  0  0  0  0  0  0  0  0
  -29.3450  -21.3960   20.0400 C   0  0  0  0  0  0  0  0  0  0  0  0
  -30.2700  -19.7610   21.5020 C   0  0  0  0  0  0  0  0  0  0  0  0
  -28.7410  -23.9070   20.2010 C   0  0  0  0  0  0  0  0  0  0  0  0
  -29.8170  -22.9940   18.1910 C   0  0  0  0  0  1  0  0  0  0  0  0
  -29.9480  -21.0530   21.2180 N   0  0  0  0  0  0  0  0  0  0  0  0
  -29.2350  -22.7840   19.5350 N   0  0  0  0  0  0  0  0  0  0  0  0
  -28.2890  -23.8400   21.3480 O   0  0  0  0  0  0  0  0  0  0  0  0
  -30.9450  -19.6260   22.7130 N   0  0  0  0  0  0  0  0  0  0  0  0
  -30.9670  -18.7290   23.1820 H   0  0  0  0  0  0  0  0  0  0  0  0
  -30.9490  -20.4150   23.3510 H   0  0  0  0  0  0  0  0  0  0  0  0
  -30.7220  -17.2240   20.8560 C   0  0  0  0  0  2  0  0  0  0  0  0
  -30.7690  -14.7180   20.2650 C   0  0  0  0  0  0  0  0  0  0  0  0
  -30.4710  -12.4930   19.1890 C   0  0  0  0  0  2  0  0  0  0  0  0
  -29.5120  -12.6100   17.9870 C   0  0  0  0  0  2  0  0  0  0  0  0
  -28.0500  -12.4570   18.4480 C   0  0  0  0  0  2  0  0  0  0  0  0
  -27.7160  -13.3280   19.6900 C   0  0  0  0  0  3  0  0  0  0  0  0
  -28.7950  -13.2110   20.7870 C   0  0  0  0  0  2  0  0  0  0  0  0
  -30.0850  -13.5330   20.1660 N   0  0  0  0  0  0  0  0  0  0  0  0
  -31.9420  -14.7910   19.8950 O   0  0  0  0  0  0  0  0  0  0  0  0
  -30.0870  -15.8680   20.6060 N   0  0  0  0  0  0  0  0  0  0  0  0
  -29.1120  -15.7560   20.8400 H   0  0  0  0  0  0  0  0  0  0  0  0
  -25.3470  -13.9240   20.4650 C   0  0  0  0  0  0  0  0  0  0  0  0
  -24.2830  -13.1510   20.8460 C   0  0  0  0  0  0  0  0  0  0  0  0
  -24.7420  -11.7980   20.7980 C   0  0  0  0  0  0  0  0  0  0  0  0
  -26.3820  -13.0410   20.2050 N   0  0  0  0  0  0  0  0  0  0  0  0
  -26.0260  -11.7560   20.4670 N   0  0  0  0  0  0  0  0  0  0  0  0
  -24.0110  -10.5380   20.9950 C   0  0  0  0  0  0  0  0  0  0  0  0
  -24.4500   -9.5700   21.9250 C   0  0  0  0  0  3  0  0  0  0  0  0
  -23.7230   -8.3740   22.1090 C   0  0  0  0  0  3  0  0  0  0  0  0
  -22.5400   -8.1420   21.3670 C   0  0  0  0  0  0  0  0  0  0  0  0
  -22.1210   -9.0990   20.4270 C   0  0  0  0  0  3  0  0  0  0  0  0
  -22.8490  -10.2870   20.2420 C   0  0  0  0  0  3  0  0  0  0  0  0
  -21.7820   -7.0000   21.4610 O   0  0  0  0  0  0  0  0  0  0  0  0
  -21.7310   -6.2670   22.6170 C   0  0  0  0  0  0  0  0  0  0  0  0
  -21.2880   -6.8260   23.8360 C   0  0  0  0  0  3  0  0  0  0  0  0
  -21.1800   -6.0160   24.9850 C   0  0  0  0  0  3  0  0  0  0  0  0
  -21.5070   -4.6490   24.9150 C   0  0  0  0  0  0  0  0  0  0  0  0
  -21.9430   -4.0910   23.7010 C   0  0  0  0  0  3  0  0  0  0  0  0
  -22.0520   -4.8980   22.5560 C   0  0  0  0  0  0  0  0  0  0  0  0
  -22.4530   -4.3480   21.3830 F   0  0  0  0  0  0  0  0  0  0  0  0
  -21.3990   -3.8680   26.0170 F   0  0  0  0  0  0  0  0  0  0  0  0
  -22.8940  -13.6350   21.1440 C   0  0  0  0  0  0  0  0  0  0  0  0
  -22.1790  -12.9370   22.0200 N   0  0  0  0  0  0  0  0  0  0  0  0
  -22.4510  -14.6640   20.6380 O   0  0  0  0  0  0  0  0  0  0  0  0
  -22.5500  -12.1020   22.4440 H   0  0  0  0  0  0  0  0  0  0  0  0
  -21.2490  -13.2430   22.2650 H   0  0  0  0  0  0  0  0  0  0  0  0
  -25.5110  -15.2960   20.2940 N   0  0  0  0  0  0  0  0  0  0  0  0
  -24.7440  -15.9470   20.4150 H   0  0  0  0  0  0  0  0  0  0  0  0
  -26.3490  -15.7380   19.9370 H   0  0  0  0  0  0  0  0  0  0  0  0
  -28.6830  -25.3290   19.4680 C   0  0  0  0  0  2  0  0  0  0  0  0
  -28.4720  -26.5550   20.2760 O   0  0  0  0  0  0  0  0  0  0  0  0
  -24.6410  -31.8970   23.2410 C   0  0  0  0  0  0  0  0  0  0  0  0
  -27.3220  -27.3570   20.1880 C   0  0  0  0  0  0  0  0  0  0  0  0
  -23.4560  -30.4880   21.5920 C   0  0  0  0  0  3  0  0  0  0  0  0
  -24.9330  -28.9420   20.1720 C   0  0  0  0  0  0  0  0  0  0  0  0
  -25.9970  -30.8190   21.4290 C   0  0  0  0  0  2  0  0  0  0  0  0
  -26.0880  -29.4430   20.7820 C   0  0  0  0  0  0  0  0  0  0  0  0
  -27.2790  -28.6570   20.7830 C   0  0  0  0  0  3  0  0  0  0  0  0
  -26.1320  -26.8960   19.5820 C   0  0  0  0  0  3  0  0  0  0  0  0
  -24.9570  -27.6720   19.5700 C   0  0  0  0  0  3  0  0  0  0  0  0
  -23.6900  -29.8100   20.2120 C   0  0  0  0  0  2  0  0  0  0  0  0
  -24.7160  -31.0850   22.1440 N   0  0  0  0  0  0  0  0  0  0  0  0
  -23.5530  -32.1700   23.7680 O   0  0  0  0  0  0  0  0  0  0  0  0
  -22.7980  -29.4630   22.5480 C   0  0  0  0  0  0  0  0  0  0  0  0
  -21.4720  -29.2890   22.4290 N   0  0  0  0  0  0  0  0  0  0  0  0
  -23.4810  -28.8320   23.3620 O   0  0  0  0  0  0  0  0  0  0  0  0
  -20.9820  -29.8650   21.7580 H   0  0  0  0  0  0  0  0  0  0  0  0
  -18.0980  -28.0950   22.9360 C   0  0  0  0  0  0  0  0  0  0  0  0
  -20.6560  -28.3450   23.1930 C   0  0  0  0  0  3  0  0  0  0  0  0
  -20.7480  -26.9180   22.6030 C   0  0  0  0  0  2  0  0  0  0  0  0
  -19.6390  -26.6080   21.5910 C   0  0  0  0  0  2  0  0  0  0  0  0
  -18.2610  -26.7530   22.2410 C   0  0  0  0  0  2  0  0  0  0  0  0
  -19.2210  -28.8520   23.3650 C   0  0  0  0  0  0  0  0  0  0  0  0
  -19.0120  -30.1110   23.9710 C   0  0  0  0  0  3  0  0  0  0  0  0
  -17.7090  -30.6160   24.1470 C   0  0  0  0  0  3  0  0  0  0  0  0
  -16.6010  -29.8560   23.7330 C   0  0  0  0  0  3  0  0  0  0  0  0
  -16.7940  -28.5990   23.1340 C   0  0  0  0  0  3  0  0  0  0  0  0
  -25.9160  -32.5360   23.8710 C   0  0  0  0  0  3  0  0  0  0  0  0
  -26.4270  -31.7740   25.1580 C   0  0  1  0  0  0  0  0  0  0  0  0
  -25.3250  -31.5360   26.2220 C   0  0  0  0  0  1  0  0  0  0  0  0
  -27.0230  -30.3980   24.7750 C   0  0  0  0  0  1  0  0  0  0  0  0
  -27.5650  -32.5840   25.8220 C   0  0  0  0  0  1  0  0  0  0  0  0
  -25.5990  -33.9350   24.1930 N   0  0  0  0  0  0  0  0  0  0  0  0
  -25.9200  -34.9880   23.4310 C   0  0  0  0  0  0  0  0  0  0  0  0
  -26.5850  -34.8890   22.3960 O   0  0  0  0  0  0  0  0  0  0  0  0
  -25.0220  -34.0880   25.0070 H   0  0  0  0  0  0  0  0  0  0  0  0
  -24.1720  -36.7610   23.0850 C   0  0  0  0  0  1  0  0  0  0  0  0
  -25.4200  -36.3720   23.8880 C   0  0  0  0  0  3  0  0  0  0  0  0
  -27.5560  -37.2720   24.7040 C   0  0  0  0  0  1  0  0  0  0  0  0
  -26.4400  -37.4340   23.7740 N   0  0  0  0  0  0  0  0  0  0  0  0
  -26.0280  -38.3490   23.9340 H   0  0  0  0  0  0  0  0  0  0  0  0
  1  3  1  0
  2  1  2  0
  2  4  1  0
  3 14  1  0
  3  5  2  0
  4  8  2  0
  5 11  1  0
  6 10  2  0
  7  9  1  0
  8  5  1  0
  9  4  1  0
  9  6  1  0
 11 12  1  0
 11 13  1  0
 15 23  1  0
 16 21  1  0
 17 18  1  0
 17 16  1  0
 19 18  1  0
 19 28  1  0
 19 20  1  0
 21 15  1  0
 21 20  1  0
 22 15  2  0
 23 24  1  0
 23 14  1  0
 25 26  2  0
 26 45  1  0
 27 26  1  0
 27 30  1  0
 28 25  1  0
 28 29  1  0
 29 27  2  0
 30 31  1  0
 31 32  2  0
 33 36  1  0
 33 32  1  0
 34 33  2  0
 35 34  1  0
 35 30  2  0
 36 37  1  0
 37 38  1  0
 38 39  2  0
 40 39  1  0
 40 44  1  0
 41 40  2  0
 42 37  2  0
 42 41  1  0
 43 42  1  0
 45 46  1  0
 46 49  1  0
 46 48  1  0
 47 45  2  0
 50 51  1  0
 50 25  1  0
 52 50  1  0
 53  6  1  0
 53 54  1  0
 55 66  2  0
 56 54  1  0
 56 61  1  0
 57 65  1  0
 57 67  1  0
 58 64  1  0
 58 60  1  0
 59 65  1  0
 60 61  2  0
 60 59  1  0
 62 56  2  0
 63 62  1  0
 63 58  2  0
 64 57  1  0
 65 55  1  0
 67 69  2  0
 68 67  1  0
 70 68  1  0
 71 80  2  0
 71 76  1  0
 72 68  1  0
 72 76  1  0
 73 72  1  0
 74 75  1  0
 74 73  1  0
 75 71  1  0
 76 77  2  0
 77 78  1  0
 79 78  2  0
 80 79  1  0
 81 55  1  0
 81 86  1  0
 81 82  1  0
 82 85  1  1
 82 83  1  0
 84 82  1  0
 86 89  1  0
 87 91  1  0
 87 86  1  0
 88 87  2  0
 91 90  1  0
 93 91  1  0
 93 94  1  0
 93 92  1  0
M  ISO  4  15 100  23 100  53 101  54 101
M  END
>  <TORSDO>  (55) 
F 19

>  <SCORE>  (55) 
-14.708

>  <name>  (55) 
54

>  <ligand_id>  (55) 
54

>  <original_smiles>  (55) 
[H]c1c(N(C(=O)C([H])([H])Oc2c([H])c([H])c3c(c2[H])C([H])([H])N(C(=O)C([H])(N([H])C(=O)C([H])(N([H])C([H])([H])[H])C([H])([H])[H])C(C([H])([H])[H])(C([H])([H])[H])C([H])([H])[H])C([H])(C(=O)N([H])C2([H])c4c([H])c([H])c([H])c([H])c4C([H])([H])C([H])([H])C2([H])[H])C3([H])[H])C([H])([H])[H])nc(N([H])[H])c(C([H])([H])N([H])C(=O)N2C([H])([H])C([H])([H])C([H])([H])C([H])(n3nc(-c4c([H])c([H])c(Oc5c([H])c([H])c(F)c([H])c5F)c([H])c4[H])c(C(=O)N([H])[H])c3N([H])[H])C2([H])[H])c1[H]

>  <smiles>  (55) 
[H]c1c(N(C(=O)C([H])([H])Oc2c([H])c([H])c3c(c2[H])C([H])([H])N(C(=O)C([H])(N([H])C(=O)C([H])(N([H])C([H])([H])[H])C([H])([H])[H])C(C([H])([H])[H])(C([H])([H])[H])C([H])([H])[H])C([H])(C(=O)N([H])C2([H])c4c([H])c([H])c([H])c([H])c4C([H])([H])C([H])([H])C2([H])[H])C3([H])[H])C([H])([H])[H])nc(N([H])[H])c(C([H])([H])N([H])C(=O)N2C([H])([H])C([H])([H])C([H])([H])C([H])(n3nc(-c4c([H])c([H])c(Oc5c([H])c([H])c(F)c([H])c5F)c([H])c4[H])c(C(=O)N([H])[H])c3N([H])[H])C2([H])[H])c1[H]

$$$$
55:0:0
     RDKit          3D

 97106  0  0  1  0  0  0  0  0999 V2000
  -28.5770  -22.2340   21.9300 C   0  0  0  0  0  3  0  0  0  0  0  0
  -28.6760  -23.8190   20.2750 C   0  0  0  0  0  0  0  0  0  0  0  0
  -28.3490  -23.5610   21.6460 C   0  0  0  0  0  0  0  0  0  0  0  0
  -29.0980  -22.5720   19.7980 C   0  0  0  0  0  0  0  0  0  0  0  0
  -29.5820  -22.2070   18.4300 C   0  0  0  0  0  1  0  0  0  0  0  0
  -29.0260  -21.5730   20.7980 N   0  0  0  0  0  0  0  0  0  0  0  0
  -30.4710  -19.5130   21.2390 C   0  0  0  0  0  3  0  0  0  0  0  0
  -30.7110  -18.0990   21.1350 C   0  0  0  0  0  3  0  0  0  0  0  0
  -28.3480  -19.2450   20.1550 C   0  0  0  0  0  3  0  0  0  0  0  0
  -29.2950  -20.1320   20.7210 C   0  0  0  0  0  0  0  0  0  0  0  0
  -29.7860  -17.2160   20.5050 C   0  0  0  0  0  0  0  0  0  0  0  0
  -28.5820  -17.8400   20.0440 C   0  0  0  0  0  0  0  0  0  0  0  0
  -30.7850  -14.8070   20.7540 C   0  0  0  0  0  0  0  0  0  0  0  0
  -30.6970  -12.4600   19.9260 C   0  0  0  0  0  2  0  0  0  0  0  0
  -29.8540  -12.3780   18.6320 C   0  0  0  0  0  2  0  0  0  0  0  0
  -28.3470  -12.2860   18.9470 C   0  0  0  0  0  2  0  0  0  0  0  0
  -27.8700  -13.2460   20.0720 C   0  0  0  0  0  3  0  0  0  0  0  0
  -28.8430  -13.2610   21.2680 C   0  0  0  0  0  2  0  0  0  0  0  0
  -30.1720  -13.5780   20.7330 N   0  0  0  0  0  0  0  0  0  0  0  0
  -32.0190  -14.8730   20.7740 O   0  0  0  0  0  0  0  0  0  0  0  0
  -30.2690  -15.7520   18.6270 C   0  0  0  0  0  1  0  0  0  0  0  0
  -30.1000  -15.8240   20.0940 N   0  0  0  0  0  0  0  0  0  0  0  0
  -25.4300  -13.8370   20.6140 C   0  0  0  0  0  0  0  0  0  0  0  0
  -24.3440  -13.0610   20.9170 C   0  0  0  0  0  0  0  0  0  0  0  0
  -24.8200  -11.7160   20.9610 C   0  0  0  0  0  0  0  0  0  0  0  0
  -26.4980  -12.9630   20.4810 N   0  0  0  0  0  0  0  0  0  0  0  0
  -26.1320  -11.6840   20.7600 N   0  0  0  0  0  0  0  0  0  0  0  0
  -24.0920  -10.4520   21.1260 C   0  0  0  0  0  0  0  0  0  0  0  0
  -24.4760   -9.5000   22.0960 C   0  0  0  0  0  3  0  0  0  0  0  0
  -23.7470   -8.3020   22.2490 C   0  0  0  0  0  3  0  0  0  0  0  0
  -22.6200   -8.0470   21.4320 C   0  0  0  0  0  0  0  0  0  0  0  0
  -22.2570   -8.9870   20.4520 C   0  0  0  0  0  3  0  0  0  0  0  0
  -22.9870  -10.1770   20.2970 C   0  0  0  0  0  3  0  0  0  0  0  0
  -21.8670   -6.8980   21.4930 O   0  0  0  0  0  0  0  0  0  0  0  0
  -21.7710   -6.1600   22.6450 C   0  0  0  0  0  0  0  0  0  0  0  0
  -21.2910   -6.7190   23.8500 C   0  0  0  0  0  3  0  0  0  0  0  0
  -21.1440   -5.9080   24.9920 C   0  0  0  0  0  3  0  0  0  0  0  0
  -21.4660   -4.5390   24.9310 C   0  0  0  0  0  0  0  0  0  0  0  0
  -21.9380   -3.9790   23.7310 C   0  0  0  0  0  3  0  0  0  0  0  0
  -22.0870   -4.7880   22.5910 C   0  0  0  0  0  0  0  0  0  0  0  0
  -22.5230   -4.2400   21.4310 F   0  0  0  0  0  0  0  0  0  0  0  0
  -21.3170   -3.7580   26.0260 F   0  0  0  0  0  0  0  0  0  0  0  0
  -22.9250  -13.5320   21.0590 C   0  0  0  0  0  0  0  0  0  0  0  0
  -22.1410  -12.8580   21.8930 N   0  0  0  0  0  0  0  0  0  0  0  0
  -22.5190  -14.5310   20.4680 O   0  0  0  0  0  0  0  0  0  0  0  0
  -22.4820  -12.0520   22.3950 H   0  0  0  0  0  0  0  0  0  0  0  0
  -21.1860  -13.1550   22.0360 H   0  0  0  0  0  0  0  0  0  0  0  0
  -25.5810  -15.2050   20.4210 N   0  0  0  0  0  0  0  0  0  0  0  0
  -24.7850  -15.8300   20.4640 H   0  0  0  0  0  0  0  0  0  0  0  0
  -26.4340  -15.7000   20.1540 H   0  0  0  0  0  0  0  0  0  0  0  0
  -27.6040  -17.0740   19.4070 N   0  0  0  0  0  0  0  0  0  0  0  0
  -26.9470  -17.5840   18.8260 H   0  0  0  0  0  0  0  0  0  0  0  0
  -27.9640  -16.2580   18.9270 H   0  0  0  0  0  0  0  0  0  0  0  0
  -27.8750  -24.4780   22.5340 O   0  0  0  0  0  0  0  0  0  0  0  0
  -27.6920  -24.1110   23.3940 H   0  0  0  0  0  0  0  0  0  0  0  0
  -28.5700  -25.1730   19.4540 C   0  0  0  0  0  2  0  0  0  0  0  0
  -28.4380  -26.4990   20.1100 O   0  0  0  0  0  0  0  0  0  0  0  0
  -24.6320  -31.8450   23.0870 C   0  0  0  0  0  0  0  0  0  0  0  0
  -27.2860  -27.3030   20.0280 C   0  0  0  0  0  0  0  0  0  0  0  0
  -23.4380  -30.4360   21.4460 C   0  0  0  0  0  3  0  0  0  0  0  0
  -24.8990  -28.8960   20.0180 C   0  0  0  0  0  0  0  0  0  0  0  0
  -25.9740  -30.7770   21.2590 C   0  0  0  0  0  2  0  0  0  0  0  0
  -26.0640  -29.3980   20.6110 C   0  0  0  0  0  0  0  0  0  0  0  0
  -27.2540  -28.6120   20.6070 C   0  0  0  0  0  3  0  0  0  0  0  0
  -26.0890  -26.8470   19.4270 C   0  0  0  0  0  3  0  0  0  0  0  0
  -24.9150  -27.6260   19.4180 C   0  0  0  0  0  3  0  0  0  0  0  0
  -23.6550  -29.7600   20.0660 C   0  0  0  0  0  2  0  0  0  0  0  0
  -24.7010  -31.0360   21.9880 N   0  0  0  0  0  0  0  0  0  0  0  0
  -23.5460  -32.1150   23.6210 O   0  0  0  0  0  0  0  0  0  0  0  0
  -22.7840  -29.4150   22.4100 C   0  0  0  0  0  0  0  0  0  0  0  0
  -21.4540  -29.2530   22.3080 N   0  0  0  0  0  0  0  0  0  0  0  0
  -23.4720  -28.7720   23.2070 O   0  0  0  0  0  0  0  0  0  0  0  0
  -20.9570  -29.8220   21.6370 H   0  0  0  0  0  0  0  0  0  0  0  0
  -18.0700  -28.1140   22.8920 C   0  0  0  0  0  0  0  0  0  0  0  0
  -20.6420  -28.3140   23.0830 C   0  0  0  0  0  3  0  0  0  0  0  0
  -20.6930  -26.8960   22.4710 C   0  0  0  0  0  2  0  0  0  0  0  0
  -19.5520  -26.6210   21.4860 C   0  0  0  0  0  2  0  0  0  0  0  0
  -18.1960  -26.7800   22.1790 C   0  0  0  0  0  2  0  0  0  0  0  0
  -19.2180  -28.8440   23.3020 C   0  0  0  0  0  0  0  0  0  0  0  0
  -19.0450  -30.0960   23.9290 C   0  0  0  0  0  3  0  0  0  0  0  0
  -17.7570  -30.6200   24.1490 C   0  0  0  0  0  3  0  0  0  0  0  0
  -16.6240  -29.8890   23.7540 C   0  0  0  0  0  3  0  0  0  0  0  0
  -16.7820  -28.6370   23.1320 C   0  0  0  0  0  3  0  0  0  0  0  0
  -25.9100  -32.4890   23.7090 C   0  0  0  0  0  3  0  0  0  0  0  0
  -26.4550  -31.7010   24.9620 C   0  0  1  0  0  0  0  0  0  0  0  0
  -25.3800  -31.4220   26.0400 C   0  0  0  0  0  1  0  0  0  0  0  0
  -27.0550  -30.3410   24.5340 C   0  0  0  0  0  1  0  0  0  0  0  0
  -27.6020  -32.4990   25.6260 C   0  0  0  0  0  1  0  0  0  0  0  0
  -25.5780  -33.8730   24.0750 N   0  0  0  0  0  0  0  0  0  0  0  0
  -25.8920  -34.9520   23.3460 C   0  0  0  0  0  0  0  0  0  0  0  0
  -26.5640  -34.8870   22.3110 O   0  0  0  0  0  0  0  0  0  0  0  0
  -24.9890  -33.9980   24.8860 H   0  0  0  0  0  0  0  0  0  0  0  0
  -24.1480  -36.7340   23.0210 C   0  0  0  0  0  1  0  0  0  0  0  0
  -25.3820  -36.3190   23.8400 C   0  0  0  0  0  3  0  0  0  0  0  0
  -27.4950  -37.2000   24.7280 C   0  0  0  0  0  1  0  0  0  0  0  0
  -26.4030  -37.3880   23.7750 N   0  0  0  0  0  0  0  0  0  0  0  0
  -25.9840  -38.2980   23.9460 H   0  0  0  0  0  0  0  0  0  0  0  0
  2  3  1  0
  3  1  2  0
  3 54  1  0
  4  2  2  0
  4  6  1  0
  5  4  1  0
  6  1  1  0
  8  7  1  0
  9 10  1  0
 10  6  1  0
 10  7  2  0
 11  8  2  0
 12  9  2  0
 12 11  1  0
 13 20  2  0
 14 19  1  0
 15 16  1  0
 15 14  1  0
 17 16  1  0
 17 26  1  0
 17 18  1  0
 19 13  1  0
 19 18  1  0
 21 22  1  0
 22 11  1  0
 22 13  1  0
 23 24  2  0
 24 25  1  0
 24 43  1  0
 25 28  1  0
 26 23  1  0
 26 27  1  0
 27 25  2  0
 28 29  1  0
 29 30  2  0
 31 34  1  0
 31 30  1  0
 32 31  2  0
 33 32  1  0
 33 28  2  0
 34 35  1  0
 35 36  1  0
 36 37  2  0
 38 37  1  0
 38 42  1  0
 39 38  2  0
 40 35  2  0
 40 39  1  0
 41 40  1  0
 43 44  1  0
 44 47  1  0
 44 46  1  0
 45 43  2  0
 48 49  1  0
 48 23  1  0
 50 48  1  0
 51 12  1  0
 52 51  1  0
 53 51  1  0
 54 55  1  0
 56 57  1  0
 56  2  1  0
 58 69  2  0
 59 57  1  0
 59 64  1  0
 60 68  1  0
 60 70  1  0
 61 67  1  0
 61 63  1  0
 62 68  1  0
 63 62  1  0
 64 63  2  0
 65 59  2  0
 66 65  1  0
 66 61  2  0
 67 60  1  0
 68 58  1  0
 70 72  2  0
 71 70  1  0
 73 71  1  0
 74 83  2  0
 74 79  1  0
 75 71  1  0
 75 79  1  0
 76 75  1  0
 77 78  1  0
 77 76  1  0
 78 74  1  0
 79 80  2  0
 80 81  1  0
 82 81  2  0
 83 82  1  0
 84 58  1  0
 84 89  1  0
 84 85  1  0
 85 88  1  1
 85 86  1  0
 87 85  1  0
 89 92  1  0
 90 94  1  0
 90 89  1  0
 91 90  2  0
 94 93  1  0
 96 94  1  0
 96 97  1  0
 96 95  1  0
M  ISO  4  13 100  22 100  56 101  57 101
M  END
>  <TORSDO>  (56) 
F 20

>  <SCORE>  (56) 
-14.490

>  <name>  (56) 
55

>  <ligand_id>  (56) 
55

>  <original_smiles>  (56) 
[H]Oc1c(C([H])([H])Oc2c([H])c([H])c3c(c2[H])C([H])([H])N(C(=O)C([H])(N([H])C(=O)C([H])(N([H])C([H])([H])[H])C([H])([H])[H])C(C([H])([H])[H])(C([H])([H])[H])C([H])([H])[H])C([H])(C(=O)N([H])C2([H])c4c([H])c([H])c([H])c([H])c4C([H])([H])C([H])([H])C2([H])[H])C3([H])[H])c(C([H])([H])[H])n(-c2c([H])c([H])c(N(C(=O)N3C([H])([H])C([H])([H])C([H])([H])C([H])(n4nc(-c5c([H])c([H])c(Oc6c([H])c([H])c(F)c([H])c6F)c([H])c5[H])c(C(=O)N([H])[H])c4N([H])[H])C3([H])[H])C([H])([H])[H])c(N([H])[H])c2[H])c1[H]

>  <smiles>  (56) 
[H]Oc1c(C([H])([H])Oc2c([H])c([H])c3c(c2[H])C([H])([H])N(C(=O)C([H])(N([H])C(=O)C([H])(N([H])C([H])([H])[H])C([H])([H])[H])C(C([H])([H])[H])(C([H])([H])[H])C([H])([H])[H])C([H])(C(=O)N([H])C2([H])c4c([H])c([H])c([H])c([H])c4C([H])([H])C([H])([H])C2([H])[H])C3([H])[H])c(C([H])([H])[H])n(-c2c([H])c([H])c(N(C(=O)N3C([H])([H])C([H])([H])C([H])([H])C([H])(n4nc(-c5c([H])c([H])c(Oc6c([H])c([H])c(F)c([H])c6F)c([H])c5[H])c(C(=O)N([H])[H])c4N([H])[H])C3([H])[H])C([H])([H])[H])c(N([H])[H])c2[H])c1[H]

$$$$
56:0:0
     RDKit          3D

 94103  0  0  1  0  0  0  0  0999 V2000
  -29.9570  -21.0570   19.7390 C   0  0  0  0  0  0  0  0  0  0  0  0
  -30.5990  -24.3260   20.1650 C   0  0  0  0  0  2  0  0  0  0  0  0
  -31.1640  -22.9690   20.6040 C   0  0  0  0  0  2  0  0  0  0  0  0
  -28.8300  -22.8710   20.8860 C   0  0  0  0  0  2  0  0  0  0  0  0
  -29.2310  -24.3670   20.8280 C   0  0  0  0  0  3  0  0  0  0  0  0
  -30.0310  -22.0400   20.6670 N   0  0  0  0  0  0  0  0  0  0  0  0
  -29.8070  -21.3120   18.5380 O   0  0  0  0  0  0  0  0  0  0  0  0
  -29.0160  -18.7240   19.6300 C   0  0  0  0  0  3  0  0  0  0  0  0
  -29.0170  -17.3530   19.9590 C   0  0  0  0  0  3  0  0  0  0  0  0
  -30.9370  -17.7090   21.4080 C   0  0  0  0  0  3  0  0  0  0  0  0
  -29.9570  -19.6160   20.1960 C   0  0  0  0  0  0  0  0  0  0  0  0
  -29.9890  -16.8270   20.8350 C   0  0  0  0  0  0  0  0  0  0  0  0
  -30.9200  -19.0930   21.0970 C   0  0  0  0  0  0  0  0  0  0  0  0
  -31.8570  -19.9010   21.6490 F   0  0  0  0  0  0  0  0  0  0  0  0
  -30.6390  -14.4730   20.5470 C   0  0  0  0  0  0  0  0  0  0  0  0
  -30.3580  -12.3280   19.3580 C   0  0  0  0  0  2  0  0  0  0  0  0
  -29.4230  -12.5480   18.1490 C   0  0  0  0  0  2  0  0  0  0  0  0
  -27.9440  -12.4140   18.5610 C   0  0  0  0  0  2  0  0  0  0  0  0
  -27.6000  -13.2370   19.8320 C   0  0  0  0  0  3  0  0  0  0  0  0
  -28.6410  -12.9830   20.9460 C   0  0  0  0  0  2  0  0  0  0  0  0
  -29.9760  -13.2920   20.4020 N   0  0  0  0  0  0  0  0  0  0  0  0
  -31.7560  -14.6840   20.0650 O   0  0  0  0  0  0  0  0  0  0  0  0
  -29.9410  -15.4420   21.1700 N   0  0  0  0  0  0  0  0  0  0  0  0
  -29.0570  -15.1130   21.5260 H   0  0  0  0  0  0  0  0  0  0  0  0
  -25.1920  -13.8550   20.4990 C   0  0  0  0  0  0  0  0  0  0  0  0
  -24.1170  -13.0880   20.8580 C   0  0  0  0  0  0  0  0  0  0  0  0
  -24.5740  -11.7350   20.8430 C   0  0  0  0  0  0  0  0  0  0  0  0
  -26.2380  -12.9690   20.2910 N   0  0  0  0  0  0  0  0  0  0  0  0
  -25.8680  -11.6900   20.5510 N   0  0  0  0  0  0  0  0  0  0  0  0
  -23.8440  -10.4770   21.0330 C   0  0  0  0  0  0  0  0  0  0  0  0
  -24.2670   -9.5140   21.9760 C   0  0  0  0  0  3  0  0  0  0  0  0
  -23.5380   -8.3180   22.1530 C   0  0  0  0  0  3  0  0  0  0  0  0
  -22.3730   -8.0760   21.3880 C   0  0  0  0  0  0  0  0  0  0  0  0
  -21.9700   -9.0260   20.4340 C   0  0  0  0  0  3  0  0  0  0  0  0
  -22.6990  -10.2140   20.2550 C   0  0  0  0  0  3  0  0  0  0  0  0
  -21.6190   -6.9320   21.4730 O   0  0  0  0  0  0  0  0  0  0  0  0
  -21.5580   -6.1950   22.6280 C   0  0  0  0  0  0  0  0  0  0  0  0
  -21.1150   -6.7530   23.8480 C   0  0  0  0  0  3  0  0  0  0  0  0
  -21.0030   -5.9420   24.9940 C   0  0  0  0  0  3  0  0  0  0  0  0
  -21.3210   -4.5720   24.9220 C   0  0  0  0  0  0  0  0  0  0  0  0
  -21.7540   -4.0130   23.7080 C   0  0  0  0  0  3  0  0  0  0  0  0
  -21.8690   -4.8210   22.5640 C   0  0  0  0  0  0  0  0  0  0  0  0
  -22.2680   -4.2730   21.3900 F   0  0  0  0  0  0  0  0  0  0  0  0
  -21.2050   -3.7910   26.0210 F   0  0  0  0  0  0  0  0  0  0  0  0
  -22.7160  -13.5690   21.1090 C   0  0  0  0  0  0  0  0  0  0  0  0
  -21.9770  -12.8780   21.9700 N   0  0  0  0  0  0  0  0  0  0  0  0
  -22.2850  -14.5910   20.5750 O   0  0  0  0  0  0  0  0  0  0  0  0
  -22.3390  -12.0520   22.4220 H   0  0  0  0  0  0  0  0  0  0  0  0
  -21.0350  -13.1790   22.1800 H   0  0  0  0  0  0  0  0  0  0  0  0
  -25.3640  -15.2230   20.3130 N   0  0  0  0  0  0  0  0  0  0  0  0
  -24.6000  -15.8840   20.4020 H   0  0  0  0  0  0  0  0  0  0  0  0
  -26.2230  -15.6520   19.9930 H   0  0  0  0  0  0  0  0  0  0  0  0
  -28.1710  -25.2440   20.1180 C   0  0  0  0  0  2  0  0  0  0  0  0
  -28.3600  -26.6690   20.2300 O   0  0  0  0  0  0  0  0  0  0  0  0
  -24.5890  -31.9000   23.2420 C   0  0  0  0  0  0  0  0  0  0  0  0
  -27.2060  -27.4350   20.1660 C   0  0  0  0  0  0  0  0  0  0  0  0
  -23.3770  -30.5060   21.6000 C   0  0  0  0  0  3  0  0  0  0  0  0
  -24.8230  -28.9710   20.1680 C   0  0  0  0  0  0  0  0  0  0  0  0
  -25.9070  -30.8490   21.4070 C   0  0  0  0  0  2  0  0  0  0  0  0
  -25.9850  -29.4810   20.7600 C   0  0  0  0  0  0  0  0  0  0  0  0
  -27.1800  -28.7230   20.7530 C   0  0  0  0  0  3  0  0  0  0  0  0
  -26.0270  -26.9580   19.5430 C   0  0  0  0  0  3  0  0  0  0  0  0
  -24.8400  -27.7120   19.5520 C   0  0  0  0  0  3  0  0  0  0  0  0
  -23.5830  -29.8330   20.2180 C   0  0  0  0  0  2  0  0  0  0  0  0
  -24.6420  -31.1000   22.1400 N   0  0  0  0  0  0  0  0  0  0  0  0
  -23.5080  -32.1770   23.7820 O   0  0  0  0  0  0  0  0  0  0  0  0
  -22.7230  -29.4840   22.5580 C   0  0  0  0  0  0  0  0  0  0  0  0
  -21.3960  -29.3120   22.4360 N   0  0  0  0  0  0  0  0  0  0  0  0
  -23.4040  -28.8510   23.3690 O   0  0  0  0  0  0  0  0  0  0  0  0
  -20.9070  -29.8740   21.7540 H   0  0  0  0  0  0  0  0  0  0  0  0
  -18.0130  -28.1460   22.9500 C   0  0  0  0  0  0  0  0  0  0  0  0
  -20.5750  -28.3790   23.2070 C   0  0  0  0  0  3  0  0  0  0  0  0
  -20.6590  -26.9490   22.6250 C   0  0  0  0  0  2  0  0  0  0  0  0
  -19.5490  -26.6410   21.6160 C   0  0  0  0  0  2  0  0  0  0  0  0
  -18.1720  -26.7980   22.2690 C   0  0  0  0  0  2  0  0  0  0  0  0
  -19.1420  -28.8960   23.3770 C   0  0  0  0  0  0  0  0  0  0  0  0
  -18.9390  -30.1590   23.9730 C   0  0  0  0  0  3  0  0  0  0  0  0
  -17.6410  -30.6730   24.1480 C   0  0  0  0  0  3  0  0  0  0  0  0
  -16.5270  -29.9220   23.7370 C   0  0  0  0  0  3  0  0  0  0  0  0
  -16.7140  -28.6600   23.1440 C   0  0  0  0  0  3  0  0  0  0  0  0
  -25.8770  -32.5270   23.8590 C   0  0  0  0  0  3  0  0  0  0  0  0
  -25.5720  -33.9250   24.1930 N   0  0  0  0  0  0  0  0  0  0  0  0
  -25.8990  -34.9770   23.4320 C   0  0  0  0  0  0  0  0  0  0  0  0
  -26.5610  -34.8730   22.3960 O   0  0  0  0  0  0  0  0  0  0  0  0
  -24.9830  -34.0780   24.9980 H   0  0  0  0  0  0  0  0  0  0  0  0
  -24.1670  -36.7680   23.0910 C   0  0  0  0  0  1  0  0  0  0  0  0
  -25.4150  -36.3640   23.8920 C   0  0  0  0  0  3  0  0  0  0  0  0
  -27.5560  -37.2500   24.7060 C   0  0  0  0  0  1  0  0  0  0  0  0
  -26.4450  -37.4190   23.7720 N   0  0  0  0  0  0  0  0  0  0  0  0
  -26.0400  -38.3380   23.9250 H   0  0  0  0  0  0  0  0  0  0  0  0
  -26.3980  -31.7500   25.1310 C   0  0  1  0  0  0  0  0  0  0  0  0
  -25.3100  -31.5110   26.2040 C   0  0  0  0  0  1  0  0  0  0  0  0
  -26.9780  -30.3740   24.7330 C   0  0  0  0  0  1  0  0  0  0  0  0
  -27.5510  -32.5420   25.7920 C   0  0  0  0  0  1  0  0  0  0  0  0
  1 11  1  0
  1  6  1  0
  2  3  1  0
  2  5  1  0
  3  6  1  0
  5 53  1  0
  5  4  1  0
  6  4  1  0
  7  1  2  0
  8  9  2  0
  8 11  1  0
  9 12  1  0
 11 13  2  0
 12 23  1  0
 12 10  2  0
 13 10  1  0
 13 14  1  0
 15 23  1  0
 16 21  1  0
 17 18  1  0
 17 16  1  0
 19 18  1  0
 19 28  1  0
 19 20  1  0
 21 15  1  0
 21 20  1  0
 22 15  2  0
 23 24  1  0
 25 26  2  0
 26 45  1  0
 27 26  1  0
 27 30  1  0
 28 25  1  0
 28 29  1  0
 29 27  2  0
 30 31  1  0
 31 32  2  0
 33 36  1  0
 33 32  1  0
 34 33  2  0
 35 34  1  0
 35 30  2  0
 36 37  1  0
 37 38  1  0
 38 39  2  0
 40 39  1  0
 40 44  1  0
 41 40  2  0
 42 37  2  0
 42 41  1  0
 43 42  1  0
 45 46  1  0
 46 49  1  0
 46 48  1  0
 47 45  2  0
 50 51  1  0
 50 25  1  0
 52 50  1  0
 53 54  1  0
 55 66  2  0
 56 54  1  0
 56 61  1  0
 57 65  1  0
 57 67  1  0
 58 64  1  0
 58 60  1  0
 59 65  1  0
 60 59  1  0
 61 60  2  0
 62 63  1  0
 62 56  2  0
 63 58  2  0
 64 57  1  0
 65 55  1  0
 67 69  2  0
 68 67  1  0
 70 68  1  0
 71 80  2  0
 71 76  1  0
 72 68  1  0
 72 76  1  0
 73 72  1  0
 74 75  1  0
 74 73  1  0
 75 71  1  0
 76 77  2  0
 77 78  1  0
 79 78  2  0
 80 79  1  0
 81 55  1  0
 81 82  1  0
 81 91  1  0
 82 85  1  0
 83 87  1  0
 83 82  1  0
 84 83  2  0
 87 86  1  0
 89 87  1  0
 89 90  1  0
 89 88  1  0
 91 94  1  1
 91 92  1  0
 93 91  1  0
M  ISO  4  15 100  23 100  53 101  54 101
M  END
>  <TORSDO>  (57) 
F 18

>  <SCORE>  (57) 
-15.099

>  <name>  (57) 
56

>  <ligand_id>  (57) 
56

>  <original_smiles>  (57) 
[H]c1c([H])c([H])c2c(c1[H])C([H])([H])C([H])([H])C([H])([H])C2([H])N([H])C(=O)C1([H])N(C(=O)C([H])(N([H])C(=O)C([H])(N([H])C([H])([H])[H])C([H])([H])[H])C(C([H])([H])[H])(C([H])([H])[H])C([H])([H])[H])C([H])([H])c2c([H])c(OC([H])([H])C3([H])C([H])([H])N(C(=O)c4c([H])c([H])c(N([H])C(=O)N5C([H])([H])C([H])([H])C([H])([H])C([H])(n6nc(-c7c([H])c([H])c(Oc8c([H])c([H])c(F)c([H])c8F)c([H])c7[H])c(C(=O)N([H])[H])c6N([H])[H])C5([H])[H])c([H])c4F)C([H])([H])C3([H])[H])c([H])c([H])c2C1([H])[H]

>  <smiles>  (57) 
[H]c1c([H])c([H])c2c(c1[H])C([H])([H])C([H])([H])C([H])([H])C2([H])N([H])C(=O)C1([H])N(C(=O)C([H])(N([H])C(=O)C([H])(N([H])C([H])([H])[H])C([H])([H])[H])C(C([H])([H])[H])(C([H])([H])[H])C([H])([H])[H])C([H])([H])c2c([H])c(OC([H])([H])C3([H])C([H])([H])N(C(=O)c4c([H])c([H])c(N([H])C(=O)N5C([H])([H])C([H])([H])C([H])([H])C([H])(n6nc(-c7c([H])c([H])c(Oc8c([H])c([H])c(F)c([H])c8F)c([H])c7[H])c(C(=O)N([H])[H])c6N([H])[H])C5([H])[H])c([H])c4F)C([H])([H])C3([H])[H])c([H])c([H])c2C1([H])[H]

$$$$
57:0:0
     RDKit          3D

 92100  0  0  1  0  0  0  0  0999 V2000
  -29.5940  -21.8480   20.2670 C   0  0  0  0  0  2  0  0  0  0  0  0
  -28.9010  -23.0430   20.8450 N   0  0  0  0  0  4  0  0  0  0  0  0
  -27.9200  -22.8230   20.9260 H   0  0  0  0  0  0  0  0  0  0  0  0
  -29.2550  -23.1760   21.7800 H   0  0  0  0  0  0  0  0  0  0  0  0
  -29.0420  -24.3350   20.0950 C   0  0  0  0  0  2  0  0  0  0  0  0
  -28.3490  -25.5360   20.8070 C   0  0  0  0  0  2  0  0  0  0  0  0
  -28.4660  -26.8000   20.1070 O   0  0  0  0  0  0  0  0  0  0  0  0
  -24.6210  -31.9360   23.2260 C   0  0  0  0  0  0  0  0  0  0  0  0
  -27.3120  -27.5610   20.0930 C   0  0  0  0  0  0  0  0  0  0  0  0
  -23.4290  -30.5410   21.5670 C   0  0  0  0  0  3  0  0  0  0  0  0
  -24.9020  -29.0450   20.1160 C   0  0  0  0  0  0  0  0  0  0  0  0
  -25.9500  -30.9380   21.3670 C   0  0  0  0  0  2  0  0  0  0  0  0
  -26.0550  -29.5760   20.7080 C   0  0  0  0  0  0  0  0  0  0  0  0
  -27.2680  -28.8440   20.6890 C   0  0  0  0  0  3  0  0  0  0  0  0
  -26.1470  -27.0520   19.4810 C   0  0  0  0  0  3  0  0  0  0  0  0
  -24.9440  -27.7830   19.4960 C   0  0  0  0  0  3  0  0  0  0  0  0
  -23.6450  -29.8830   20.1780 C   0  0  0  0  0  2  0  0  0  0  0  0
  -24.6850  -31.1540   22.1120 N   0  0  0  0  0  0  0  0  0  0  0  0
  -23.5370  -32.1850   23.7740 O   0  0  0  0  0  0  0  0  0  0  0  0
  -22.7940  -29.4990   22.5180 C   0  0  0  0  0  0  0  0  0  0  0  0
  -21.4750  -29.2880   22.3830 N   0  0  0  0  0  0  0  0  0  0  0  0
  -23.4890  -28.8810   23.3290 O   0  0  0  0  0  0  0  0  0  0  0  0
  -20.9760  -29.8410   21.7000 H   0  0  0  0  0  0  0  0  0  0  0  0
  -18.1250  -28.0220   22.8560 C   0  0  0  0  0  0  0  0  0  0  0  0
  -20.6750  -28.3260   23.1410 C   0  0  0  0  0  3  0  0  0  0  0  0
  -20.8080  -26.9030   22.5500 C   0  0  0  0  0  2  0  0  0  0  0  0
  -19.7160  -26.5700   21.5280 C   0  0  0  0  0  2  0  0  0  0  0  0
  -18.3300  -26.6820   22.1680 C   0  0  0  0  0  2  0  0  0  0  0  0
  -19.2260  -28.8000   23.2990 C   0  0  0  0  0  0  0  0  0  0  0  0
  -18.9810  -30.0540   23.9000 C   0  0  0  0  0  3  0  0  0  0  0  0
  -17.6660  -30.5270   24.0660 C   0  0  0  0  0  3  0  0  0  0  0  0
  -16.5780  -29.7440   23.6400 C   0  0  0  0  0  3  0  0  0  0  0  0
  -16.8090  -28.4930   23.0390 C   0  0  0  0  0  3  0  0  0  0  0  0
  -25.8990  -32.5760   23.8510 C   0  0  0  0  0  3  0  0  0  0  0  0
  -25.5830  -33.9750   24.1730 N   0  0  0  0  0  0  0  0  0  0  0  0
  -25.9170  -35.0250   23.4120 C   0  0  0  0  0  0  0  0  0  0  0  0
  -26.5980  -34.9190   22.3870 O   0  0  0  0  0  0  0  0  0  0  0  0
  -24.9820  -34.1310   24.9690 H   0  0  0  0  0  0  0  0  0  0  0  0
  -24.1940  -36.8120   23.0230 C   0  0  0  0  0  1  0  0  0  0  0  0
  -25.4210  -36.4120   23.8600 C   0  0  0  0  0  3  0  0  0  0  0  0
  -27.5330  -37.3040   24.7360 C   0  0  0  0  0  1  0  0  0  0  0  0
  -26.4540  -37.4670   23.7640 N   0  0  0  0  0  0  0  0  0  0  0  0
  -26.0420  -38.3850   23.8960 H   0  0  0  0  0  0  0  0  0  0  0  0
  -26.4160  -31.8130   25.1320 C   0  0  1  0  0  0  0  0  0  0  0  0
  -25.3200  -31.5680   26.1950 C   0  0  0  0  0  1  0  0  0  0  0  0
  -27.0140  -30.4400   24.7440 C   0  0  0  0  0  1  0  0  0  0  0  0
  -27.5570  -32.6170   25.7990 C   0  0  0  0  0  1  0  0  0  0  0  0
  -29.9710  -20.6080   22.4850 C   0  0  0  0  0  1  0  0  0  0  0  0
  -29.3750  -20.5140   21.0680 C   0  0  0  0  0  3  0  0  0  0  0  0
  -30.6400  -19.0520   19.2380 C   0  0  0  0  0  3  0  0  0  0  0  0
  -30.8610  -17.6460   19.1300 C   0  0  0  0  0  3  0  0  0  0  0  0
  -29.9040  -19.2660   20.3740 C   0  0  0  0  0  0  0  0  0  0  0  0
  -30.2360  -17.0780   20.2090 C   0  0  0  0  0  0  0  0  0  0  0  0
  -29.6200  -18.0470   20.9610 O   0  0  0  0  0  0  0  0  0  0  0  0
  -30.8720  -14.7070   20.0410 C   0  0  0  0  0  0  0  0  0  0  0  0
  -30.5580  -12.5260   18.9430 C   0  0  0  0  0  2  0  0  0  0  0  0
  -29.5510  -12.7260   17.7900 C   0  0  0  0  0  2  0  0  0  0  0  0
  -28.1020  -12.5790   18.2950 C   0  0  0  0  0  2  0  0  0  0  0  0
  -27.8280  -13.4070   19.5800 C   0  0  0  0  0  3  0  0  0  0  0  0
  -28.9430  -13.1890   20.6270 C   0  0  0  0  0  2  0  0  0  0  0  0
  -30.2300  -13.5070   19.9890 N   0  0  0  0  0  0  0  0  0  0  0  0
  -31.9990  -14.8660   19.5600 O   0  0  0  0  0  0  0  0  0  0  0  0
  -30.1350  -15.7430   20.5110 N   0  0  0  0  0  0  0  0  0  0  0  0
  -29.3030  -15.4730   21.0120 H   0  0  0  0  0  0  0  0  0  0  0  0
  -25.4830  -13.9990   20.4600 C   0  0  0  0  0  0  0  0  0  0  0  0
  -24.4350  -13.2180   20.8690 C   0  0  0  0  0  0  0  0  0  0  0  0
  -24.8850  -11.8670   20.7630 C   0  0  0  0  0  0  0  0  0  0  0  0
  -26.5060  -13.1210   20.1340 N   0  0  0  0  0  0  0  0  0  0  0  0
  -26.1530  -11.8320   20.3740 N   0  0  0  0  0  0  0  0  0  0  0  0
  -24.1640  -10.6020   20.9560 C   0  0  0  0  0  0  0  0  0  0  0  0
  -24.5960   -9.6410   21.8970 C   0  0  0  0  0  3  0  0  0  0  0  0
  -23.8770   -8.4400   22.0760 C   0  0  0  0  0  3  0  0  0  0  0  0
  -22.7100   -8.1910   21.3160 C   0  0  0  0  0  0  0  0  0  0  0  0
  -22.2960   -9.1410   20.3640 C   0  0  0  0  0  3  0  0  0  0  0  0
  -23.0170  -10.3330   20.1820 C   0  0  0  0  0  3  0  0  0  0  0  0
  -21.9600   -7.0430   21.4050 O   0  0  0  0  0  0  0  0  0  0  0  0
  -21.8570   -6.3400   22.5790 C   0  0  0  0  0  0  0  0  0  0  0  0
  -21.3100   -6.9150   23.7470 C   0  0  0  0  0  3  0  0  0  0  0  0
  -21.1580   -6.1360   24.9110 C   0  0  0  0  0  3  0  0  0  0  0  0
  -21.5450   -4.7820   24.9080 C   0  0  0  0  0  0  0  0  0  0  0  0
  -22.0880   -4.2070   23.7450 C   0  0  0  0  0  3  0  0  0  0  0  0
  -22.2410   -4.9840   22.5830 C   0  0  0  0  0  0  0  0  0  0  0  0
  -22.7430   -4.4190   21.4580 F   0  0  0  0  0  0  0  0  0  0  0  0
  -21.3940   -4.0300   26.0230 F   0  0  0  0  0  0  0  0  0  0  0  0
  -23.0600  -13.6910   21.2450 C   0  0  0  0  0  0  0  0  0  0  0  0
  -22.3790  -12.9630   22.1220 N   0  0  0  0  0  0  0  0  0  0  0  0
  -22.6010  -14.7400   20.7950 O   0  0  0  0  0  0  0  0  0  0  0  0
  -22.7640  -12.1150   22.5090 H   0  0  0  0  0  0  0  0  0  0  0  0
  -21.4550  -13.2570   22.4100 H   0  0  0  0  0  0  0  0  0  0  0  0
  -25.6460  -15.3740   20.3180 N   0  0  0  0  0  0  0  0  0  0  0  0
  -24.8910  -16.0260   20.5010 H   0  0  0  0  0  0  0  0  0  0  0  0
  -26.4720  -15.8190   19.9390 H   0  0  0  0  0  0  0  0  0  0  0  0
  1  2  1  0
  1 49  1  0
  2  3  1  0
  2  4  1  0
  5  6  1  0
  5  2  1  0
  7  6  1  0
  8 19  2  0
  9  7  1  0
  9 14  1  0
 10 18  1  0
 10 20  1  0
 11 17  1  0
 11 13  1  0
 12 18  1  0
 13 12  1  0
 14 13  2  0
 15 16  1  0
 15  9  2  0
 16 11  2  0
 17 10  1  0
 18  8  1  0
 20 22  2  0
 21 20  1  0
 23 21  1  0
 24 33  2  0
 24 29  1  0
 25 21  1  0
 25 29  1  0
 26 25  1  0
 27 28  1  0
 27 26  1  0
 28 24  1  0
 29 30  2  0
 30 31  1  0
 32 31  2  0
 33 32  1  0
 34  8  1  0
 34 35  1  0
 34 44  1  0
 35 38  1  0
 36 40  1  0
 36 35  1  0
 37 36  2  0
 40 39  1  0
 42 40  1  0
 42 43  1  0
 42 41  1  0
 44 47  1  1
 44 45  1  0
 46 44  1  0
 49 48  1  0
 50 52  2  0
 51 50  1  0
 51 53  2  0
 52 54  1  0
 52 49  1  0
 53 63  1  0
 53 54  1  0
 55 63  1  0
 56 61  1  0
 57 58  1  0
 57 56  1  0
 59 58  1  0
 59 68  1  0
 59 60  1  0
 61 55  1  0
 61 60  1  0
 62 55  2  0
 63 64  1  0
 65 66  2  0
 66 85  1  0
 67 66  1  0
 67 70  1  0
 68 69  1  0
 68 65  1  0
 69 67  2  0
 70 71  1  0
 71 72  2  0
 73 76  1  0
 73 72  1  0
 74 73  2  0
 75 74  1  0
 75 70  2  0
 76 77  1  0
 77 82  2  0
 77 78  1  0
 78 79  2  0
 80 79  1  0
 80 84  1  0
 81 80  2  0
 82 81  1  0
 83 82  1  0
 85 86  1  0
 86 89  1  0
 86 88  1  0
 87 85  2  0
 90 65  1  0
 90 91  1  0
 92 90  1  0
M  ISO  4   6 101   7 101  55 100  63 100
M  END
>  <TORSDO>  (58) 
F 21

>  <SCORE>  (58) 
-13.002

>  <name>  (58) 
57

>  <ligand_id>  (58) 
57

>  <original_smiles>  (58) 
[H]c1c(N([H])C(=O)N2C([H])([H])C([H])([H])C([H])([H])C([H])(n3nc(-c4c([H])c([H])c(Oc5c([H])c([H])c(F)c([H])c5F)c([H])c4[H])c(C(=O)N([H])[H])c3N([H])[H])C2([H])[H])oc(C([H])(C([H])([H])[H])C([H])([H])[N+]([H])([H])C([H])([H])C([H])([H])Oc2c([H])c([H])c3c(c2[H])C([H])([H])N(C(=O)C([H])(N([H])C(=O)C([H])(N([H])C([H])([H])[H])C([H])([H])[H])C(C([H])([H])[H])(C([H])([H])[H])C([H])([H])[H])C([H])(C(=O)N([H])C2([H])c4c([H])c([H])c([H])c([H])c4C([H])([H])C([H])([H])C2([H])[H])C3([H])[H])c1[H]

>  <smiles>  (58) 
[H]c1c(N([H])C(=O)N2C([H])([H])C([H])([H])C([H])([H])C([H])(n3nc(-c4c([H])c([H])c(Oc5c([H])c([H])c(F)c([H])c5F)c([H])c4[H])c(C(=O)N([H])[H])c3N([H])[H])C2([H])[H])oc(C([H])(C([H])([H])[H])C([H])([H])[N+]([H])([H])C([H])([H])C([H])([H])Oc2c([H])c([H])c3c(c2[H])C([H])([H])N(C(=O)C([H])(N([H])C(=O)C([H])(N([H])C([H])([H])[H])C([H])([H])[H])C(C([H])([H])[H])(C([H])([H])[H])C([H])([H])[H])C([H])(C(=O)N([H])C2([H])c4c([H])c([H])c([H])c([H])c4C([H])([H])C([H])([H])C2([H])[H])C3([H])[H])c1[H]

$$$$
58:0:0
     RDKit          3D

 98106  0  0  1  0  0  0  0  0999 V2000
  -30.1690  -19.1250   21.3520 C   0  0  0  0  0  3  0  0  0  0  0  0
  -30.0030  -20.0110   18.6940 C   0  0  0  0  0  3  0  0  0  0  0  0
  -30.4440  -18.2130   20.3130 C   0  0  0  0  0  0  0  0  0  0  0  0
  -30.3460  -18.6660   18.9640 C   0  0  0  0  0  0  0  0  0  0  0  0
  -29.7580  -20.9340   19.7400 C   0  0  0  0  0  0  0  0  0  0  0  0
  -29.8550  -20.4840   21.0820 C   0  0  0  0  0  0  0  0  0  0  0  0
  -30.7930  -14.6980   19.6700 C   0  0  0  0  0  0  0  0  0  0  0  0
  -30.3530  -12.5210   18.5920 C   0  0  0  0  0  2  0  0  0  0  0  0
  -29.3020  -12.6310   17.4750 C   0  0  0  0  0  2  0  0  0  0  0  0
  -27.8820  -12.4800   18.0500 C   0  0  0  0  0  2  0  0  0  0  0  0
  -27.6380  -13.3710   19.2980 C   0  0  0  0  0  3  0  0  0  0  0  0
  -28.8000  -13.2650   20.3110 C   0  0  0  0  0  2  0  0  0  0  0  0
  -30.0510  -13.5570   19.5950 N   0  0  0  0  0  0  0  0  0  0  0  0
  -31.8570  -14.8060   19.0520 O   0  0  0  0  0  0  0  0  0  0  0  0
  -30.9780  -16.8430   20.6590 C   0  0  0  0  0  0  0  0  0  0  0  0
  -30.2550  -15.7580   20.3110 N   0  0  0  0  0  0  0  0  0  0  0  0
  -32.0820  -16.7660   21.2150 O   0  0  0  0  0  0  0  0  0  0  0  0
  -29.2520  -15.8170   20.3450 H   0  0  0  0  0  0  0  0  0  0  0  0
  -25.3390  -13.9530   20.2900 C   0  0  0  0  0  0  0  0  0  0  0  0
  -24.3130  -13.1690   20.7460 C   0  0  0  0  0  0  0  0  0  0  0  0
  -24.7630  -11.8180   20.6220 C   0  0  0  0  0  0  0  0  0  0  0  0
  -26.3480  -13.0790   19.9170 N   0  0  0  0  0  0  0  0  0  0  0  0
  -26.0110  -11.7880   20.1730 N   0  0  0  0  0  0  0  0  0  0  0  0
  -24.0540  -10.5510   20.8470 C   0  0  0  0  0  0  0  0  0  0  0  0
  -24.5330   -9.5910   21.7660 C   0  0  0  0  0  3  0  0  0  0  0  0
  -23.8240   -8.3890   21.9780 C   0  0  0  0  0  3  0  0  0  0  0  0
  -22.6230   -8.1380   21.2740 C   0  0  0  0  0  0  0  0  0  0  0  0
  -22.1640   -9.0870   20.3420 C   0  0  0  0  0  3  0  0  0  0  0  0
  -22.8730  -10.2800   20.1270 C   0  0  0  0  0  3  0  0  0  0  0  0
  -21.8810   -6.9880   21.3960 O   0  0  0  0  0  0  0  0  0  0  0  0
  -21.8390   -6.2810   22.5710 C   0  0  0  0  0  0  0  0  0  0  0  0
  -21.3380   -6.8460   23.7650 C   0  0  0  0  0  3  0  0  0  0  0  0
  -21.2500   -6.0620   24.9320 C   0  0  0  0  0  3  0  0  0  0  0  0
  -21.6510   -4.7120   24.9060 C   0  0  0  0  0  0  0  0  0  0  0  0
  -22.1460   -4.1470   23.7170 C   0  0  0  0  0  3  0  0  0  0  0  0
  -22.2350   -4.9300   22.5520 C   0  0  0  0  0  0  0  0  0  0  0  0
  -22.6920   -4.3730   21.4040 F   0  0  0  0  0  0  0  0  0  0  0  0
  -21.5600   -3.9550   26.0250 F   0  0  0  0  0  0  0  0  0  0  0  0
  -22.9570  -13.6390   21.1850 C   0  0  0  0  0  0  0  0  0  0  0  0
  -22.3300  -12.9230   22.1120 N   0  0  0  0  0  0  0  0  0  0  0  0
  -22.4640  -14.6760   20.7410 O   0  0  0  0  0  0  0  0  0  0  0  0
  -22.7440  -12.0850   22.4930 H   0  0  0  0  0  0  0  0  0  0  0  0
  -21.4220  -13.2150   22.4430 H   0  0  0  0  0  0  0  0  0  0  0  0
  -25.4900  -15.3270   20.1410 N   0  0  0  0  0  0  0  0  0  0  0  0
  -24.7400  -15.9780   20.3460 H   0  0  0  0  0  0  0  0  0  0  0  0
  -26.2980  -15.7740   19.7270 H   0  0  0  0  0  0  0  0  0  0  0  0
  -29.2750  -23.0210   18.3840 C   0  0  0  0  0  0  0  0  0  0  0  0
  -29.5370  -22.3360   19.5200 N   0  0  0  0  0  0  0  0  0  0  0  0
  -28.9350  -22.4820   17.3280 O   0  0  0  0  0  0  0  0  0  0  0  0
  -29.6180  -22.9020   20.3530 H   0  0  0  0  0  0  0  0  0  0  0  0
  -29.4250  -24.5590   18.4410 C   0  0  0  0  0  2  0  0  0  0  0  0
  -28.1410  -25.3770   18.1500 C   0  0  0  0  0  2  0  0  0  0  0  0
  -28.2030  -26.6800   18.7750 O   0  0  0  0  0  0  0  0  0  0  0  0
  -24.8350  -31.2990   23.0680 C   0  0  0  0  0  0  0  0  0  0  0  0
  -27.0430  -27.4110   18.9960 C   0  0  0  0  0  0  0  0  0  0  0  0
  -23.4390  -30.2240   21.3370 C   0  0  0  0  0  3  0  0  0  0  0  0
  -24.7030  -28.9330   19.5350 C   0  0  0  0  0  0  0  0  0  0  0  0
  -25.9500  -30.5600   20.9610 C   0  0  0  0  0  2  0  0  0  0  0  0
  -25.9300  -29.3210   20.0850 C   0  0  0  0  0  0  0  0  0  0  0  0
  -27.0980  -28.5670   19.8140 C   0  0  0  0  0  3  0  0  0  0  0  0
  -25.7930  -27.0560   18.4330 C   0  0  0  0  0  3  0  0  0  0  0  0
  -24.6290  -27.7970   18.7140 C   0  0  0  0  0  3  0  0  0  0  0  0
  -23.5000  -29.7950   19.8490 C   0  0  0  0  0  2  0  0  0  0  0  0
  -24.7660  -30.6990   21.8460 N   0  0  0  0  0  0  0  0  0  0  0  0
  -23.8170  -31.4920   23.7470 O   0  0  0  0  0  0  0  0  0  0  0  0
  -22.8440  -29.0600   22.1650 C   0  0  0  0  0  0  0  0  0  0  0  0
  -21.5270  -28.8340   22.0230 N   0  0  0  0  0  0  0  0  0  0  0  0
  -23.5650  -28.3690   22.8900 O   0  0  0  0  0  0  0  0  0  0  0  0
  -21.0030  -29.4510   21.4190 H   0  0  0  0  0  0  0  0  0  0  0  0
  -18.2490  -27.3310   22.2630 C   0  0  0  0  0  0  0  0  0  0  0  0
  -20.7630  -27.7690   22.6740 C   0  0  0  0  0  3  0  0  0  0  0  0
  -21.0080  -26.4060   21.9860 C   0  0  0  0  0  2  0  0  0  0  0  0
  -19.9770  -26.0850   20.8990 C   0  0  0  0  0  2  0  0  0  0  0  0
  -18.5630  -26.0640   21.4880 C   0  0  0  0  0  2  0  0  0  0  0  0
  -19.2810  -28.1410   22.8070 C   0  0  0  0  0  0  0  0  0  0  0  0
  -18.9350  -29.3280   23.4880 C   0  0  0  0  0  3  0  0  0  0  0  0
  -17.5870  -29.7070   23.6330 C   0  0  0  0  0  3  0  0  0  0  0  0
  -16.5680  -28.8940   23.1060 C   0  0  0  0  0  3  0  0  0  0  0  0
  -16.8990  -27.7080   22.4270 C   0  0  0  0  0  3  0  0  0  0  0  0
  -26.1910  -31.7920   23.6620 C   0  0  0  0  0  3  0  0  0  0  0  0
  -26.0010  -33.1800   24.1070 N   0  0  0  0  0  0  0  0  0  0  0  0
  -26.3650  -34.2590   23.4020 C   0  0  0  0  0  0  0  0  0  0  0  0
  -26.9690  -34.1890   22.3290 O   0  0  0  0  0  0  0  0  0  0  0  0
  -25.4640  -33.3160   24.9500 H   0  0  0  0  0  0  0  0  0  0  0  0
  -24.7580  -36.1890   23.2640 C   0  0  0  0  0  1  0  0  0  0  0  0
  -26.0010  -35.6400   23.9810 C   0  0  0  0  0  3  0  0  0  0  0  0
  -28.2220  -36.3180   24.7780 C   0  0  0  0  0  1  0  0  0  0  0  0
  -27.1020  -36.6250   23.8930 N   0  0  0  0  0  0  0  0  0  0  0  0
  -26.7670  -37.5580   24.1200 H   0  0  0  0  0  0  0  0  0  0  0  0
  -26.7160  -30.8910   24.8470 C   0  0  1  0  0  0  0  0  0  0  0  0
  -25.6670  -30.6580   25.9610 C   0  0  0  0  0  1  0  0  0  0  0  0
  -27.1660  -29.5070   24.3250 C   0  0  0  0  0  1  0  0  0  0  0  0
  -27.9630  -31.5440   25.4860 C   0  0  0  0  0  1  0  0  0  0  0  0
  -30.5990  -17.8360   17.8660 N   0  0  0  0  0  0  0  0  0  0  0  0
  -30.3370  -18.1350   16.9320 H   0  0  0  0  0  0  0  0  0  0  0  0
  -30.6210  -16.8240   17.9650 H   0  0  0  0  0  0  0  0  0  0  0  0
  -30.6110  -21.4430   23.1460 C   0  0  0  0  0  1  0  0  0  0  0  0
  -29.6710  -21.4240   22.0760 O   0  0  0  0  0  0  0  0  0  0  0  0
  2  4  2  0
  2  5  1  0
  3 15  1  0
  3  1  2  0
  4  3  1  0
  5  6  2  0
  6  1  1  0
  6 98  1  0
  7 16  1  0
  8 13  1  0
  9 10  1  0
  9  8  1  0
 11 10  1  0
 11 22  1  0
 11 12  1  0
 13  7  1  0
 13 12  1  0
 14  7  2  0
 15 17  2  0
 16 18  1  0
 16 15  1  0
 19 20  2  0
 20 39  1  0
 21 20  1  0
 21 24  1  0
 22 23  1  0
 22 19  1  0
 23 21  2  0
 24 25  1  0
 25 26  2  0
 27 30  1  0
 27 26  1  0
 28 27  2  0
 29 28  1  0
 29 24  2  0
 30 31  1  0
 31 32  1  0
 32 33  2  0
 34 33  1  0
 34 38  1  0
 35 34  2  0
 36 31  2  0
 36 35  1  0
 37 36  1  0
 39 40  1  0
 40 43  1  0
 40 42  1  0
 41 39  2  0
 44 19  1  0
 44 45  1  0
 46 44  1  0
 47 51  1  0
 47 48  1  0
 48  5  1  0
 48 50  1  0
 49 47  2  0
 52 51  1  0
 52 53  1  0
 53 55  1  0
 54 65  2  0
 55 60  1  0
 56 64  1  0
 56 66  1  0
 57 63  1  0
 57 59  1  0
 58 64  1  0
 59 58  1  0
 60 59  2  0
 61 62  1  0
 61 55  2  0
 62 57  2  0
 63 56  1  0
 64 54  1  0
 66 68  2  0
 67 66  1  0
 69 67  1  0
 70 79  2  0
 70 75  1  0
 71 67  1  0
 71 75  1  0
 72 71  1  0
 73 74  1  0
 73 72  1  0
 74 70  1  0
 75 76  2  0
 76 77  1  0
 78 77  2  0
 79 78  1  0
 80 54  1  0
 80 81  1  0
 80 90  1  0
 81 84  1  0
 82 86  1  0
 82 81  1  0
 83 82  2  0
 86 85  1  0
 88 86  1  0
 88 89  1  0
 88 87  1  0
 90 93  1  1
 90 91  1  0
 92 90  1  0
 94 96  1  0
 94  4  1  0
 95 94  1  0
 98 97  1  0
M  ISO  4   7 100  16 100  52 101  53 101
M  END
>  <TORSDO>  (59) 
F 21

>  <SCORE>  (59) 
-11.869

>  <name>  (59) 
58

>  <ligand_id>  (59) 
58

>  <original_smiles>  (59) 
[H]c1c([H])c([H])c2c(c1[H])C([H])([H])C([H])([H])C([H])([H])C2([H])N([H])C(=O)C1([H])N(C(=O)C([H])(N([H])C(=O)C([H])(N([H])C([H])([H])[H])C([H])([H])[H])C(C([H])([H])[H])(C([H])([H])[H])C([H])([H])[H])C([H])([H])c2c([H])c(OC([H])([H])C([H])([H])C(=O)N([H])c3c([H])c(N([H])[H])c(C(=O)N([H])C(=O)N4C([H])([H])C([H])([H])C([H])([H])C([H])(n5nc(-c6c([H])c([H])c(Oc7c([H])c([H])c(F)c([H])c7F)c([H])c6[H])c(C(=O)N([H])[H])c5N([H])[H])C4([H])[H])c([H])c3OC([H])([H])[H])c([H])c([H])c2C1([H])[H]

>  <smiles>  (59) 
[H]c1c([H])c([H])c2c(c1[H])C([H])([H])C([H])([H])C([H])([H])C2([H])N([H])C(=O)C1([H])N(C(=O)C([H])(N([H])C(=O)C([H])(N([H])C([H])([H])[H])C([H])([H])[H])C(C([H])([H])[H])(C([H])([H])[H])C([H])([H])[H])C([H])([H])c2c([H])c(OC([H])([H])C([H])([H])C(=O)N([H])c3c([H])c(N([H])[H])c(C(=O)N([H])C(=O)N4C([H])([H])C([H])([H])C([H])([H])C([H])(n5nc(-c6c([H])c([H])c(Oc7c([H])c([H])c(F)c([H])c7F)c([H])c6[H])c(C(=O)N([H])[H])c5N([H])[H])C4([H])[H])c([H])c3OC([H])([H])[H])c([H])c([H])c2C1([H])[H]

$$$$
59:0:0
     RDKit          3D

 96104  0  0  1  0  0  0  0  0999 V2000
  -29.4710  -18.3920   19.3890 C   0  0  0  0  0  3  0  0  0  0  0  0
  -29.4280  -20.2750   21.4660 C   0  0  0  0  0  3  0  0  0  0  0  0
  -30.1540  -18.0980   20.5890 C   0  0  0  0  0  0  0  0  0  0  0  0
  -30.0810  -19.0360   21.6620 C   0  0  0  0  0  0  0  0  0  0  0  0
  -28.8430  -20.6070   20.2200 C   0  0  0  0  0  0  0  0  0  0  0  0
  -28.8290  -19.6290   19.2030 C   0  0  0  0  0  0  0  0  0  0  0  0
  -28.2490  -19.9100   18.0110 F   0  0  0  0  0  0  0  0  0  0  0  0
  -31.1340  -14.5850   19.9030 C   0  0  0  0  0  0  0  0  0  0  0  0
  -30.6230  -12.4690   18.7390 C   0  0  0  0  0  2  0  0  0  0  0  0
  -29.6220  -12.7090   17.5940 C   0  0  0  0  0  2  0  0  0  0  0  0
  -28.1820  -12.6010   18.1230 C   0  0  0  0  0  2  0  0  0  0  0  0
  -27.9380  -13.4520   19.3930 C   0  0  0  0  0  3  0  0  0  0  0  0
  -29.0570  -13.2470   20.4410 C   0  0  0  0  0  2  0  0  0  0  0  0
  -30.3530  -13.4730   19.7830 N   0  0  0  0  0  0  0  0  0  0  0  0
  -32.2660  -14.6240   19.4230 O   0  0  0  0  0  0  0  0  0  0  0  0
  -31.0810  -16.9060   20.5730 C   0  0  0  0  0  0  0  0  0  0  0  0
  -30.5180  -15.6930   20.3740 N   0  0  0  0  0  0  0  0  0  0  0  0
  -32.2970  -17.1230   20.6770 O   0  0  0  0  0  0  0  0  0  0  0  0
  -29.5250  -15.6370   20.5240 H   0  0  0  0  0  0  0  0  0  0  0  0
  -25.5990  -14.0860   20.2580 C   0  0  0  0  0  0  0  0  0  0  0  0
  -24.5410  -13.3250   20.6780 C   0  0  0  0  0  0  0  0  0  0  0  0
  -24.9790  -11.9650   20.6090 C   0  0  0  0  0  0  0  0  0  0  0  0
  -26.6140  -13.1920   19.9580 N   0  0  0  0  0  0  0  0  0  0  0  0
  -26.2510  -11.9120   20.2340 N   0  0  0  0  0  0  0  0  0  0  0  0
  -24.2430  -10.7100   20.8220 C   0  0  0  0  0  0  0  0  0  0  0  0
  -24.6560   -9.7710   21.7920 C   0  0  0  0  0  3  0  0  0  0  0  0
  -23.9270   -8.5800   21.9950 C   0  0  0  0  0  3  0  0  0  0  0  0
  -22.7700   -8.3190   21.2220 C   0  0  0  0  0  0  0  0  0  0  0  0
  -22.3740   -9.2460   20.2440 C   0  0  0  0  0  3  0  0  0  0  0  0
  -23.1040  -10.4290   20.0410 C   0  0  0  0  0  3  0  0  0  0  0  0
  -22.0210   -7.1700   21.3260 O   0  0  0  0  0  0  0  0  0  0  0  0
  -21.8650   -6.5170   22.5230 C   0  0  0  0  0  0  0  0  0  0  0  0
  -21.3190   -7.1620   23.6550 C   0  0  0  0  0  3  0  0  0  0  0  0
  -21.1120   -6.4410   24.8480 C   0  0  0  0  0  3  0  0  0  0  0  0
  -21.4360   -5.0710   24.9080 C   0  0  0  0  0  0  0  0  0  0  0  0
  -21.9720   -4.4250   23.7800 C   0  0  0  0  0  3  0  0  0  0  0  0
  -22.1830   -5.1460   22.5890 C   0  0  0  0  0  0  0  0  0  0  0  0
  -22.6800   -4.5130   21.5010 F   0  0  0  0  0  0  0  0  0  0  0  0
  -21.2300   -4.3760   26.0500 F   0  0  0  0  0  0  0  0  0  0  0  0
  -23.1660  -13.8130   21.0300 C   0  0  0  0  0  0  0  0  0  0  0  0
  -22.4880  -13.1380   21.9510 N   0  0  0  0  0  0  0  0  0  0  0  0
  -22.7000  -14.8330   20.5200 O   0  0  0  0  0  0  0  0  0  0  0  0
  -22.8730  -12.3120   22.3870 H   0  0  0  0  0  0  0  0  0  0  0  0
  -21.5650  -13.4490   22.2220 H   0  0  0  0  0  0  0  0  0  0  0  0
  -25.7860  -15.4570   20.0810 N   0  0  0  0  0  0  0  0  0  0  0  0
  -25.0520  -16.1370   20.2290 H   0  0  0  0  0  0  0  0  0  0  0  0
  -26.6180  -15.8620   19.6750 H   0  0  0  0  0  0  0  0  0  0  0  0
  -30.6400  -18.8030   22.9240 N   0  0  0  0  0  0  0  0  0  0  0  0
  -30.3350  -19.3900   23.6950 H   0  0  0  0  0  0  0  0  0  0  0  0
  -30.8050  -17.8500   23.2280 H   0  0  0  0  0  0  0  0  0  0  0  0
  -28.2930  -21.8380   19.9280 O   0  0  0  0  0  0  0  0  0  0  0  0
  -28.5370  -22.9300   20.8230 C   0  0  0  0  0  2  0  0  0  0  0  0
  -28.5730  -24.2510   20.0310 C   0  0  0  0  0  0  0  0  0  0  0  0
  -28.7280  -24.2570   18.8030 O   0  0  0  0  0  0  0  0  0  0  0  0
  -28.4260  -25.5620   20.8240 C   0  0  0  0  0  2  0  0  0  0  0  0
  -28.6260  -26.7330   19.9930 O   0  0  0  0  0  0  0  0  0  0  0  0
  -24.6420  -31.7230   23.0450 C   0  0  0  0  0  0  0  0  0  0  0  0
  -27.4880  -27.4930   19.8910 C   0  0  0  0  0  0  0  0  0  0  0  0
  -23.5160  -30.3210   21.3460 C   0  0  0  0  0  3  0  0  0  0  0  0
  -25.0530  -28.9120   19.8780 C   0  0  0  0  0  0  0  0  0  0  0  0
  -26.0250  -30.8080   21.1830 C   0  0  0  0  0  2  0  0  0  0  0  0
  -26.1790  -29.4670   20.4970 C   0  0  0  0  0  0  0  0  0  0  0  0
  -27.4090  -28.7660   20.4960 C   0  0  0  0  0  3  0  0  0  0  0  0
  -26.3530  -26.9620   19.2430 C   0  0  0  0  0  3  0  0  0  0  0  0
  -25.1380  -27.6670   19.2330 C   0  0  0  0  0  3  0  0  0  0  0  0
  -23.7650  -29.7020   19.9430 C   0  0  0  0  0  2  0  0  0  0  0  0
  -24.7450  -30.9630   21.9180 N   0  0  0  0  0  0  0  0  0  0  0  0
  -23.5420  -31.9250   23.5830 O   0  0  0  0  0  0  0  0  0  0  0  0
  -22.9090  -29.2360   22.2650 C   0  0  0  0  0  0  0  0  0  0  0  0
  -21.5930  -29.0110   22.1380 N   0  0  0  0  0  0  0  0  0  0  0  0
  -23.6170  -28.6040   23.0520 O   0  0  0  0  0  0  0  0  0  0  0  0
  -21.0850  -29.5740   21.4700 H   0  0  0  0  0  0  0  0  0  0  0  0
  -18.2580  -27.6890   22.6020 C   0  0  0  0  0  0  0  0  0  0  0  0
  -20.8100  -28.0130   22.8690 C   0  0  0  0  0  3  0  0  0  0  0  0
  -20.9500  -26.6130   22.2290 C   0  0  0  0  0  2  0  0  0  0  0  0
  -19.8500  -26.3030   21.2080 C   0  0  0  0  0  2  0  0  0  0  0  0
  -18.4680  -26.3770   21.8660 C   0  0  0  0  0  2  0  0  0  0  0  0
  -19.3570  -28.4660   23.0590 C   0  0  0  0  0  0  0  0  0  0  0  0
  -19.1050  -29.6940   23.7100 C   0  0  0  0  0  3  0  0  0  0  0  0
  -17.7880  -30.1520   23.8980 C   0  0  0  0  0  3  0  0  0  0  0  0
  -16.7040  -29.3730   23.4600 C   0  0  0  0  0  3  0  0  0  0  0  0
  -16.9390  -28.1420   22.8220 C   0  0  0  0  0  3  0  0  0  0  0  0
  -25.8910  -32.3940   23.7010 C   0  0  0  0  0  3  0  0  0  0  0  0
  -25.5120  -33.7650   24.0660 N   0  0  0  0  0  0  0  0  0  0  0  0
  -25.8090  -34.8530   23.3410 C   0  0  0  0  0  0  0  0  0  0  0  0
  -26.5000  -34.8100   22.3200 O   0  0  0  0  0  0  0  0  0  0  0  0
  -24.8940  -33.8670   24.8580 H   0  0  0  0  0  0  0  0  0  0  0  0
  -23.9970  -36.5640   23.0210 C   0  0  0  0  0  1  0  0  0  0  0  0
  -25.2500  -36.2020   23.8320 C   0  0  0  0  0  3  0  0  0  0  0  0
  -27.3310  -37.1610   24.7050 C   0  0  0  0  0  1  0  0  0  0  0  0
  -26.2290  -37.3080   23.7590 N   0  0  0  0  0  0  0  0  0  0  0  0
  -25.7810  -38.2040   23.9330 H   0  0  0  0  0  0  0  0  0  0  0  0
  -26.4340  -31.6100   24.9580 C   0  0  1  0  0  0  0  0  0  0  0  0
  -25.3430  -31.2810   26.0060 C   0  0  0  0  0  1  0  0  0  0  0  0
  -27.0840  -30.2760   24.5230 C   0  0  0  0  0  1  0  0  0  0  0  0
  -27.5500  -32.4320   25.6470 C   0  0  0  0  0  1  0  0  0  0  0  0
  1  3  1  0
  2  4  1  0
  3  4  2  0
  4 48  1  0
  5  2  2  0
  6  1  2  0
  6  5  1  0
  7  6  1  0
  8 17  1  0
  9 14  1  0
 10 11  1  0
 10  9  1  0
 12 11  1  0
 12 23  1  0
 12 13  1  0
 14  8  1  0
 14 13  1  0
 15  8  2  0
 16  3  1  0
 16 18  2  0
 17 19  1  0
 17 16  1  0
 20 21  2  0
 21 40  1  0
 22 21  1  0
 22 25  1  0
 23 24  1  0
 23 20  1  0
 24 22  2  0
 25 26  1  0
 26 27  2  0
 28 31  1  0
 28 27  1  0
 29 28  2  0
 30 29  1  0
 30 25  2  0
 31 32  1  0
 32 37  2  0
 32 33  1  0
 33 34  2  0
 34 35  1  0
 35 39  1  0
 36 35  2  0
 37 36  1  0
 38 37  1  0
 40 41  1  0
 41 44  1  0
 41 43  1  0
 42 40  2  0
 45 46  1  0
 45 20  1  0
 47 45  1  0
 48 50  1  0
 48 49  1  0
 51  5  1  0
 51 52  1  0
 53 52  1  0
 53 55  1  0
 54 53  2  0
 56 55  1  0
 57 68  2  0
 58 56  1  0
 58 63  1  0
 59 67  1  0
 59 69  1  0
 60 66  1  0
 60 62  1  0
 61 67  1  0
 62 61  1  0
 63 62  2  0
 64 58  2  0
 65 64  1  0
 65 60  2  0
 66 59  1  0
 67 57  1  0
 69 71  2  0
 70 69  1  0
 72 70  1  0
 73 82  2  0
 73 78  1  0
 74 70  1  0
 74 78  1  0
 75 74  1  0
 76 77  1  0
 76 75  1  0
 77 73  1  0
 78 79  2  0
 79 80  1  0
 81 80  2  0
 82 81  1  0
 83 57  1  0
 83 84  1  0
 83 93  1  0
 84 87  1  0
 85 89  1  0
 85 84  1  0
 86 85  2  0
 89 88  1  0
 91 89  1  0
 91 92  1  0
 91 90  1  0
 93 96  1  1
 93 94  1  0
 95 93  1  0
M  ISO  4   8 100  17 100  55 101  56 101
M  END
>  <TORSDO>  (60) 
F 21

>  <SCORE>  (60) 
-12.663

>  <name>  (60) 
59

>  <ligand_id>  (60) 
59

>  <original_smiles>  (60) 
[H]c1c([H])c([H])c2c(c1[H])C([H])([H])C([H])([H])C([H])([H])C2([H])N([H])C(=O)C1([H])N(C(=O)C([H])(N([H])C(=O)C([H])(N([H])C([H])([H])[H])C([H])([H])[H])C(C([H])([H])[H])(C([H])([H])[H])C([H])([H])[H])C([H])([H])c2c([H])c(OC([H])([H])C(=O)C([H])([H])Oc3c([H])c(N([H])[H])c(C(=O)N([H])C(=O)N4C([H])([H])C([H])([H])C([H])([H])C([H])(n5nc(-c6c([H])c([H])c(Oc7c([H])c([H])c(F)c([H])c7F)c([H])c6[H])c(C(=O)N([H])[H])c5N([H])[H])C4([H])[H])c([H])c3F)c([H])c([H])c2C1([H])[H]

>  <smiles>  (60) 
[H]c1c([H])c([H])c2c(c1[H])C([H])([H])C([H])([H])C([H])([H])C2([H])N([H])C(=O)C1([H])N(C(=O)C([H])(N([H])C(=O)C([H])(N([H])C([H])([H])[H])C([H])([H])[H])C(C([H])([H])[H])(C([H])([H])[H])C([H])([H])[H])C([H])([H])c2c([H])c(OC([H])([H])C(=O)C([H])([H])Oc3c([H])c(N([H])[H])c(C(=O)N([H])C(=O)N4C([H])([H])C([H])([H])C([H])([H])C([H])(n5nc(-c6c([H])c([H])c(Oc7c([H])c([H])c(F)c([H])c7F)c([H])c6[H])c(C(=O)N([H])[H])c5N([H])[H])C4([H])[H])c([H])c3F)c([H])c([H])c2C1([H])[H]

$$$$
60:0:0
     RDKit          3D

 99107  0  0  1  0  0  0  0  0999 V2000
  -30.1120  -19.3620   20.6990 C   0  0  0  0  0  0  0  0  0  0  0  0
  -31.1220  -19.0720   21.6820 C   0  0  0  0  0  0  0  0  0  0  0  0
  -29.6060  -20.8210   20.6880 C   0  0  0  0  0  0  0  0  0  0  0  0
  -31.3200  -19.8830   22.8160 C   0  0  0  0  0  0  0  0  0  0  0  0
  -29.7200  -21.4870   21.9480 C   0  0  0  0  0  0  0  0  0  0  0  0
  -30.5490  -21.0320   22.9860 C   0  0  0  0  0  0  0  0  0  0  0  0
  -32.0670  -17.8790   21.5380 C   0  0  0  0  0  1  0  0  0  0  0  0
  -30.6470  -21.7610   24.1760 N   0  0  0  0  0  0  0  0  0  0  0  0
  -31.4020  -21.4440   24.7690 H   0  0  0  0  0  0  0  0  0  0  0  0
  -30.6630  -22.7630   24.0320 H   0  0  0  0  0  0  0  0  0  0  0  0
  -28.9700  -22.6220   22.2810 N   0  0  0  0  0  0  0  0  0  0  0  0
  -28.0620  -22.7020   21.8420 H   0  0  0  0  0  0  0  0  0  0  0  0
  -28.9180  -22.7330   23.2880 H   0  0  0  0  0  0  0  0  0  0  0  0
  -32.2550  -19.5550   23.8060 N   0  0  0  0  0  0  0  0  0  0  0  0
  -32.9280  -18.8430   23.5530 H   0  0  0  0  0  0  0  0  0  0  0  0
  -32.7150  -20.3450   24.2390 H   0  0  0  0  0  0  0  0  0  0  0  0
  -28.9080  -21.8590   19.5920 C   0  0  0  0  0  2  0  0  0  0  0  0
  -29.2120  -23.5620   19.5140 C   0  0  0  0  0  3  0  0  0  0  0  0
  -28.1180  -24.8580   19.3320 C   0  0  0  0  0  3  0  0  0  0  0  0
  -28.3660  -26.4080   19.4680 O   0  0  0  0  0  0  0  0  0  0  0  0
  -24.6950  -31.6800   23.1460 C   0  0  0  0  0  0  0  0  0  0  0  0
  -27.2950  -27.3840   19.5370 C   0  0  0  0  0  0  0  0  0  0  0  0
  -23.4870  -30.4560   21.3800 C   0  0  0  0  0  3  0  0  0  0  0  0
  -24.9360  -29.0880   19.7510 C   0  0  0  0  0  0  0  0  0  0  0  0
  -26.0340  -30.7930   21.1950 C   0  0  0  0  0  2  0  0  0  0  0  0
  -26.1220  -29.4840   20.3830 C   0  0  0  0  0  0  0  0  0  0  0  0
  -27.3010  -28.6510   20.2580 C   0  0  0  0  0  3  0  0  0  0  0  0
  -26.0770  -27.1030   18.8760 C   0  0  0  0  0  3  0  0  0  0  0  0
  -24.9290  -27.9150   18.9810 C   0  0  0  0  0  3  0  0  0  0  0  0
  -23.6910  -29.9450   19.9290 C   0  0  0  0  0  2  0  0  0  0  0  0
  -24.7600  -30.9930   21.9640 N   0  0  0  0  0  0  0  0  0  0  0  0
  -23.6160  -31.8770   23.7260 O   0  0  0  0  0  0  0  0  0  0  0  0
  -22.8460  -29.3320   22.2340 C   0  0  0  0  0  0  0  0  0  0  0  0
  -21.5200  -29.1440   22.1100 N   0  0  0  0  0  0  0  0  0  0  0  0
  -23.5450  -28.6330   22.9710 O   0  0  0  0  0  0  0  0  0  0  0  0
  -21.0110  -29.7630   21.4960 H   0  0  0  0  0  0  0  0  0  0  0  0
  -18.1780  -27.8020   22.5190 C   0  0  0  0  0  0  0  0  0  0  0  0
  -20.7340  -28.1060   22.7830 C   0  0  0  0  0  3  0  0  0  0  0  0
  -20.8640  -26.7480   22.0560 C   0  0  0  0  0  2  0  0  0  0  0  0
  -19.7560  -26.5070   21.0250 C   0  0  0  0  0  2  0  0  0  0  0  0
  -18.3810  -26.5420   21.6960 C   0  0  0  0  0  2  0  0  0  0  0  0
  -19.2810  -28.5460   23.0160 C   0  0  0  0  0  0  0  0  0  0  0  0
  -19.0340  -29.7280   23.7490 C   0  0  0  0  0  3  0  0  0  0  0  0
  -17.7170  -30.1660   23.9860 C   0  0  0  0  0  3  0  0  0  0  0  0
  -16.6300  -29.4180   23.5020 C   0  0  0  0  0  3  0  0  0  0  0  0
  -16.8610  -28.2380   22.7760 C   0  0  0  0  0  3  0  0  0  0  0  0
  -25.9740  -32.2670   23.8190 C   0  0  0  0  0  3  0  0  0  0  0  0
  -25.6430  -33.6140   24.3160 N   0  0  0  0  0  0  0  0  0  0  0  0
  -25.9570  -34.7570   23.6920 C   0  0  0  0  0  0  0  0  0  0  0  0
  -26.6220  -34.7880   22.6540 O   0  0  0  0  0  0  0  0  0  0  0  0
  -25.0560  -33.6610   25.1360 H   0  0  0  0  0  0  0  0  0  0  0  0
  -24.2080  -36.5630   23.5680 C   0  0  0  0  0  1  0  0  0  0  0  0
  -25.4570  -36.0750   24.3180 C   0  0  0  0  0  3  0  0  0  0  0  0
  -27.5810  -36.8810   25.2520 C   0  0  0  0  0  1  0  0  0  0  0  0
  -26.4770  -37.1460   24.3340 N   0  0  0  0  0  0  0  0  0  0  0  0
  -26.0610  -38.0370   24.5930 H   0  0  0  0  0  0  0  0  0  0  0  0
  -26.5240  -31.3660   24.9930 C   0  0  1  0  0  0  0  0  0  0  0  0
  -25.4560  -31.0000   26.0500 C   0  0  0  0  0  1  0  0  0  0  0  0
  -27.1100  -30.0460   24.4460 C   0  0  0  0  0  1  0  0  0  0  0  0
  -27.6810  -32.1000   25.7140 C   0  0  0  0  0  1  0  0  0  0  0  0
  -29.7710  -17.9930   19.8330 C   0  0  0  0  0  2  0  0  0  0  0  0
  -30.5870  -15.3320   20.3640 C   0  0  0  0  0  0  0  0  0  0  0  0
  -30.6510  -12.8690   19.7490 C   0  0  0  0  0  2  0  0  0  0  0  0
  -29.8050  -12.6300   18.4760 C   0  0  0  0  0  2  0  0  0  0  0  0
  -28.3300  -12.3850   18.8440 C   0  0  0  0  0  2  0  0  0  0  0  0
  -27.8050  -13.4140   19.8810 C   0  0  0  0  0  3  0  0  0  0  0  0
  -28.7870  -13.6220   21.0550 C   0  0  0  0  0  2  0  0  0  0  0  0
  -30.0700  -14.0380   20.4760 N   0  0  0  0  0  0  0  0  0  0  0  0
  -31.7810  -15.4180   20.0580 O   0  0  0  0  0  0  0  0  0  0  0  0
  -29.7410  -16.4870   20.4020 N   0  0  0  0  0  0  0  0  0  0  0  0
  -28.8190  -16.2410   20.7280 H   0  0  0  0  0  0  0  0  0  0  0  0
  -25.3960  -13.9640   20.5420 C   0  0  0  0  0  0  0  0  0  0  0  0
  -24.3280  -13.1810   20.8840 C   0  0  0  0  0  0  0  0  0  0  0  0
  -24.8070  -11.8340   20.8660 C   0  0  0  0  0  0  0  0  0  0  0  0
  -26.4550  -13.0980   20.3340 N   0  0  0  0  0  0  0  0  0  0  0  0
  -26.1070  -11.8100   20.5920 N   0  0  0  0  0  0  0  0  0  0  0  0
  -24.0850  -10.5650   21.0330 C   0  0  0  0  0  0  0  0  0  0  0  0
  -24.4950   -9.6020   21.9830 C   0  0  0  0  0  3  0  0  0  0  0  0
  -23.7740   -8.3990   22.1390 C   0  0  0  0  0  3  0  0  0  0  0  0
  -22.6270   -8.1510   21.3470 C   0  0  0  0  0  0  0  0  0  0  0  0
  -22.2390   -9.1020   20.3860 C   0  0  0  0  0  3  0  0  0  0  0  0
  -22.9610  -10.2960   20.2280 C   0  0  0  0  0  3  0  0  0  0  0  0
  -21.8790   -7.0000   21.4130 O   0  0  0  0  0  0  0  0  0  0  0  0
  -21.8120   -6.2510   22.5600 C   0  0  0  0  0  0  0  0  0  0  0  0
  -21.3270   -6.7850   23.7740 C   0  0  0  0  0  3  0  0  0  0  0  0
  -21.2110   -5.9600   24.9100 C   0  0  0  0  0  3  0  0  0  0  0  0
  -21.5660   -4.5990   24.8330 C   0  0  0  0  0  0  0  0  0  0  0  0
  -22.0430   -4.0640   23.6240 C   0  0  0  0  0  3  0  0  0  0  0  0
  -22.1620   -4.8870   22.4910 C   0  0  0  0  0  0  0  0  0  0  0  0
  -22.6030   -4.3610   21.3220 F   0  0  0  0  0  0  0  0  0  0  0  0
  -21.4460   -3.8050   25.9230 F   0  0  0  0  0  0  0  0  0  0  0  0
  -22.9190  -13.6450   21.1110 C   0  0  0  0  0  0  0  0  0  0  0  0
  -22.1680  -12.9430   21.9490 N   0  0  0  0  0  0  0  0  0  0  0  0
  -22.4940  -14.6690   20.5780 O   0  0  0  0  0  0  0  0  0  0  0  0
  -22.5280  -12.1160   22.4060 H   0  0  0  0  0  0  0  0  0  0  0  0
  -21.2190  -13.2340   22.1360 H   0  0  0  0  0  0  0  0  0  0  0  0
  -25.5510  -15.3360   20.3670 N   0  0  0  0  0  0  0  0  0  0  0  0
  -24.7710  -15.9780   20.4450 H   0  0  0  0  0  0  0  0  0  0  0  0
  -26.3920  -15.7770   20.0160 H   0  0  0  0  0  0  0  0  0  0  0  0
  1  2  1  0
  2  4  2  0
  3  1  2  0
  3  5  1  0
  4  6  1  0
  4 14  1  0
  5 11  1  0
  5  6  2  0
  6  8  1  0
  7  2  1  0
  8  9  1  0
 10  8  1  0
 11 13  1  0
 12 11  1  0
 14 16  1  0
 15 14  1  0
 17  3  1  0
 18 17  1  0
 19 20  1  0
 19 18  2  0
 20 22  1  0
 21 32  2  0
 22 27  1  0
 23 31  1  0
 23 33  1  0
 24 30  1  0
 24 26  1  0
 25 31  1  0
 26 25  1  0
 27 26  2  0
 28 29  1  0
 28 22  2  0
 29 24  2  0
 30 23  1  0
 31 21  1  0
 33 35  2  0
 34 33  1  0
 36 34  1  0
 37 46  2  0
 37 42  1  0
 38 34  1  0
 38 42  1  0
 39 38  1  0
 40 41  1  0
 40 39  1  0
 41 37  1  0
 42 43  2  0
 43 44  1  0
 45 44  2  0
 46 45  1  0
 47 21  1  0
 47 48  1  0
 47 57  1  0
 48 51  1  0
 49 48  1  0
 49 53  1  0
 50 49  2  0
 53 52  1  0
 53 55  1  0
 55 56  1  0
 55 54  1  0
 57 60  1  1
 57 58  1  0
 59 57  1  0
 61 70  1  0
 61  1  1  0
 62 70  1  0
 62 68  1  0
 63 68  1  0
 64 65  1  0
 64 63  1  0
 66 65  1  0
 66 75  1  0
 66 67  1  0
 68 67  1  0
 69 62  2  0
 70 71  1  0
 72 73  2  0
 73 92  1  0
 74 73  1  0
 74 77  1  0
 75 72  1  0
 75 76  1  0
 76 74  2  0
 77 78  1  0
 78 79  2  0
 80 83  1  0
 80 79  1  0
 81 80  2  0
 82 81  1  0
 82 77  2  0
 83 84  1  0
 84 85  1  0
 85 86  2  0
 87 86  1  0
 87 91  1  0
 88 87  2  0
 89 84  2  0
 89 88  1  0
 90 89  1  0
 92 93  1  0
 93 96  1  0
 93 95  1  0
 94 92  2  0
 97 98  1  0
 97 72  1  0
 99 97  1  0
M  ISO  4  19 101  20 101  62 100  70 100
M  END
>  <TORSDO>  (61) 
F 23

>  <SCORE>  (61) 
-13.417

>  <name>  (61) 
60

>  <ligand_id>  (61) 
60

>  <original_smiles>  (61) 
[H]c1c([H])c([H])c2c(c1[H])C([H])([H])C([H])([H])C([H])([H])C2([H])N([H])C(=O)C1([H])N(C(=O)C([H])(N([H])C(=O)C([H])(N([H])C([H])([H])[H])C([H])([H])[H])C(C([H])([H])[H])(C([H])([H])[H])C([H])([H])[H])C([H])([H])c2c([H])c(OC([H])([H])C([H])([H])C([H])([H])c3c(N([H])[H])c(N([H])[H])c(N([H])[H])c(C([H])([H])[H])c3C([H])([H])N([H])C(=O)N3C([H])([H])C([H])([H])C([H])([H])C([H])(n4nc(-c5c([H])c([H])c(Oc6c([H])c([H])c(F)c([H])c6F)c([H])c5[H])c(C(=O)N([H])[H])c4N([H])[H])C3([H])[H])c([H])c([H])c2C1([H])[H]

>  <smiles>  (61) 
[H]c1c([H])c([H])c2c(c1[H])C([H])([H])C([H])([H])C([H])([H])C2([H])N([H])C(=O)C1([H])N(C(=O)C([H])(N([H])C(=O)C([H])(N([H])C([H])([H])[H])C([H])([H])[H])C(C([H])([H])[H])(C([H])([H])[H])C([H])([H])[H])C([H])([H])c2c([H])c(OC([H])([H])C([H])([H])C([H])([H])c3c(N([H])[H])c(N([H])[H])c(N([H])[H])c(C([H])([H])[H])c3C([H])([H])N([H])C(=O)N3C([H])([H])C([H])([H])C([H])([H])C([H])(n4nc(-c5c([H])c([H])c(Oc6c([H])c([H])c(F)c([H])c6F)c([H])c5[H])c(C(=O)N([H])[H])c4N([H])[H])C3([H])[H])c([H])c([H])c2C1([H])[H]

$$$$
61:0:0
     RDKit          3D

 95103  0  0  1  0  0  0  0  0999 V2000
  -30.2670  -19.3380   20.1820 C   0  0  0  0  0  3  0  0  0  0  0  0
  -29.7830  -17.9780   20.2180 C   0  0  0  0  0  0  0  0  0  0  0  0
  -29.3070  -20.3230   20.0670 C   0  0  0  0  0  0  0  0  0  0  0  0
  -28.4050  -17.9260   20.1650 C   0  0  0  0  0  0  0  0  0  0  0  0
  -27.7360  -19.5440   20.0010 S   0  0  0  0  0  0  0  0  0  0  0  0
  -30.8740  -14.3880   20.3100 C   0  0  0  0  0  0  0  0  0  0  0  0
  -30.5710  -12.0420   19.6180 C   0  0  0  0  0  2  0  0  0  0  0  0
  -29.6920  -11.9680   18.3560 C   0  0  0  0  0  2  0  0  0  0  0  0
  -28.2030  -11.9110   18.7410 C   0  0  0  0  0  2  0  0  0  0  0  0
  -27.8010  -12.9900   19.7820 C   0  0  0  0  0  3  0  0  0  0  0  0
  -28.8060  -13.0540   20.9530 C   0  0  0  0  0  2  0  0  0  0  0  0
  -30.1500  -13.2320   20.3830 N   0  0  0  0  0  0  0  0  0  0  0  0
  -32.0480  -14.3610   19.9350 O   0  0  0  0  0  0  0  0  0  0  0  0
  -30.7340  -16.8130   20.3750 C   0  0  0  0  0  0  0  0  0  0  0  0
  -30.2050  -15.5600   20.4710 N   0  0  0  0  0  0  0  0  0  0  0  0
  -31.9500  -17.0480   20.3570 O   0  0  0  0  0  0  0  0  0  0  0  0
  -29.2060  -15.5090   20.5910 H   0  0  0  0  0  0  0  0  0  0  0  0
  -25.4180  -13.7240   20.4070 C   0  0  0  0  0  0  0  0  0  0  0  0
  -24.3050  -13.0160   20.7750 C   0  0  0  0  0  0  0  0  0  0  0  0
  -24.7050  -11.6460   20.8120 C   0  0  0  0  0  0  0  0  0  0  0  0
  -26.4270  -12.7910   20.2430 N   0  0  0  0  0  0  0  0  0  0  0  0
  -26.0010  -11.5360   20.5430 N   0  0  0  0  0  0  0  0  0  0  0  0
  -23.9160  -10.4280   21.0350 C   0  0  0  0  0  0  0  0  0  0  0  0
  -24.3260   -9.4420   21.9580 C   0  0  0  0  0  3  0  0  0  0  0  0
  -23.5400   -8.2880   22.1690 C   0  0  0  0  0  3  0  0  0  0  0  0
  -22.3310   -8.1120   21.4540 C   0  0  0  0  0  0  0  0  0  0  0  0
  -21.9400   -9.0880   20.5180 C   0  0  0  0  0  3  0  0  0  0  0  0
  -22.7250  -10.2330   20.3070 C   0  0  0  0  0  3  0  0  0  0  0  0
  -21.5150   -7.0130   21.5750 O   0  0  0  0  0  0  0  0  0  0  0  0
  -21.5150   -6.2370   22.7060 C   0  0  0  0  0  0  0  0  0  0  0  0
  -21.2300   -6.7780   23.9790 C   0  0  0  0  0  3  0  0  0  0  0  0
  -21.1720   -5.9320   25.1050 C   0  0  0  0  0  3  0  0  0  0  0  0
  -21.3860   -4.5490   24.9620 C   0  0  0  0  0  0  0  0  0  0  0  0
  -21.6640   -4.0080   23.6930 C   0  0  0  0  0  3  0  0  0  0  0  0
  -21.7250   -4.8500   22.5690 C   0  0  0  0  0  0  0  0  0  0  0  0
  -21.9710   -4.3210   21.3470 F   0  0  0  0  0  0  0  0  0  0  0  0
  -21.3230   -3.7360   26.0420 F   0  0  0  0  0  0  0  0  0  0  0  0
  -22.9280  -13.5680   20.9940 C   0  0  0  0  0  0  0  0  0  0  0  0
  -22.1590  -12.9540   21.8860 N   0  0  0  0  0  0  0  0  0  0  0  0
  -22.5440  -14.5820   20.4100 O   0  0  0  0  0  0  0  0  0  0  0  0
  -22.4820  -12.1330   22.3770 H   0  0  0  0  0  0  0  0  0  0  0  0
  -21.2350  -13.3110   22.0800 H   0  0  0  0  0  0  0  0  0  0  0  0
  -25.6470  -15.0770   20.1840 N   0  0  0  0  0  0  0  0  0  0  0  0
  -24.9190  -15.7670   20.3250 H   0  0  0  0  0  0  0  0  0  0  0  0
  -26.5640  -15.4900   20.0600 H   0  0  0  0  0  0  0  0  0  0  0  0
  -28.6580  -22.7150   19.9790 C   0  0  0  0  0  0  0  0  0  0  0  0
  -29.5360  -21.6790   20.0290 N   0  0  0  0  0  0  0  0  0  0  0  0
  -27.4370  -22.5520   19.9010 O   0  0  0  0  0  0  0  0  0  0  0  0
  -30.5110  -21.9500   20.0430 H   0  0  0  0  0  0  0  0  0  0  0  0
  -29.2180  -24.1660   19.9860 C   0  0  0  0  0  2  0  0  0  0  0  0
  -28.3110  -25.2140   20.7090 C   0  0  0  0  0  2  0  0  0  0  0  0
  -28.5300  -26.6030   20.3400 O   0  0  0  0  0  0  0  0  0  0  0  0
  -24.6410  -31.8270   23.2930 C   0  0  0  0  0  0  0  0  0  0  0  0
  -27.3860  -27.3810   20.2860 C   0  0  0  0  0  0  0  0  0  0  0  0
  -23.4900  -30.4220   21.6150 C   0  0  0  0  0  3  0  0  0  0  0  0
  -24.9940  -28.8990   20.2250 C   0  0  0  0  0  0  0  0  0  0  0  0
  -26.0210  -30.7920   21.4900 C   0  0  0  0  0  2  0  0  0  0  0  0
  -26.1350  -29.4220   20.8460 C   0  0  0  0  0  0  0  0  0  0  0  0
  -27.3380  -28.6740   20.8680 C   0  0  0  0  0  3  0  0  0  0  0  0
  -26.2310  -26.8860   19.6440 C   0  0  0  0  0  3  0  0  0  0  0  0
  -25.0380  -27.6330   19.6160 C   0  0  0  0  0  3  0  0  0  0  0  0
  -23.7430  -29.7510   20.2390 C   0  0  0  0  0  2  0  0  0  0  0  0
  -24.7350  -31.0280   22.1920 N   0  0  0  0  0  0  0  0  0  0  0  0
  -23.5420  -32.0930   23.8020 O   0  0  0  0  0  0  0  0  0  0  0  0
  -22.8170  -29.3950   22.5530 C   0  0  0  0  0  0  0  0  0  0  0  0
  -21.4910  -29.2340   22.4130 N   0  0  0  0  0  0  0  0  0  0  0  0
  -23.4830  -28.7490   23.3650 O   0  0  0  0  0  0  0  0  0  0  0  0
  -21.0160  -29.8040   21.7270 H   0  0  0  0  0  0  0  0  0  0  0  0
  -18.0860  -28.1220   22.9050 C   0  0  0  0  0  0  0  0  0  0  0  0
  -20.6530  -28.2970   23.1610 C   0  0  0  0  0  3  0  0  0  0  0  0
  -20.7100  -26.8840   22.5390 C   0  0  0  0  0  2  0  0  0  0  0  0
  -19.5900  -26.6250   21.5250 C   0  0  0  0  0  2  0  0  0  0  0  0
  -18.2180  -26.7890   22.1860 C   0  0  0  0  0  2  0  0  0  0  0  0
  -19.2310  -28.8370   23.3480 C   0  0  0  0  0  0  0  0  0  0  0  0
  -19.0540  -30.0870   23.9810 C   0  0  0  0  0  3  0  0  0  0  0  0
  -17.7660  -30.6200   24.1730 C   0  0  0  0  0  3  0  0  0  0  0  0
  -16.6360  -29.9010   23.7460 C   0  0  0  0  0  3  0  0  0  0  0  0
  -16.7970  -28.6520   23.1190 C   0  0  0  0  0  3  0  0  0  0  0  0
  -25.9030  -32.4630   23.9510 C   0  0  0  0  0  3  0  0  0  0  0  0
  -26.3690  -31.7110   25.2580 C   0  0  1  0  0  0  0  0  0  0  0  0
  -25.2350  -31.4870   26.2840 C   0  0  0  0  0  1  0  0  0  0  0  0
  -26.9660  -30.3280   24.9070 C   0  0  0  0  0  1  0  0  0  0  0  0
  -27.4940  -32.5140   25.9520 C   0  0  0  0  0  1  0  0  0  0  0  0
  -25.5900  -33.8690   24.2450 N   0  0  0  0  0  0  0  0  0  0  0  0
  -25.9560  -34.9040   23.4770 C   0  0  0  0  0  0  0  0  0  0  0  0
  -26.6610  -34.7770   22.4730 O   0  0  0  0  0  0  0  0  0  0  0  0
  -24.9640  -34.0410   25.0170 H   0  0  0  0  0  0  0  0  0  0  0  0
  -24.2450  -36.6920   23.0300 C   0  0  0  0  0  1  0  0  0  0  0  0
  -25.4580  -36.3030   23.8890 C   0  0  0  0  0  3  0  0  0  0  0  0
  -27.5690  -37.1980   24.7650 C   0  0  0  0  0  1  0  0  0  0  0  0
  -26.4980  -37.3500   23.7860 N   0  0  0  0  0  0  0  0  0  0  0  0
  -26.0910  -38.2740   23.9020 H   0  0  0  0  0  0  0  0  0  0  0  0
  -26.1280  -16.9500   20.0150 C   0  0  0  0  0  1  0  0  0  0  0  0
  -27.5580  -16.8100   20.2580 N   0  0  0  0  0  0  0  0  0  0  0  0
  -27.7920  -16.0480   20.8900 H   0  0  0  0  0  0  0  0  0  0  0  0
  1  2  1  0
  2 14  1  0
  3  1  2  0
  4  2  2  0
  4 94  1  0
  5  3  1  0
  5  4  1  0
  6 12  1  0
  6 15  1  0
  7 12  1  0
  8  9  1  0
  8  7  1  0
 10  9  1  0
 10 21  1  0
 10 11  1  0
 12 11  1  0
 13  6  2  0
 14 15  1  0
 15 17  1  0
 16 14  2  0
 18 19  2  0
 19 20  1  0
 19 38  1  0
 20 23  1  0
 21 18  1  0
 21 22  1  0
 22 20  2  0
 23 24  1  0
 24 25  2  0
 26 29  1  0
 26 25  1  0
 27 26  2  0
 28 27  1  0
 28 23  2  0
 29 30  1  0
 30 31  1  0
 31 32  2  0
 33 32  1  0
 33 37  1  0
 34 33  2  0
 35 30  2  0
 35 34  1  0
 36 35  1  0
 38 39  1  0
 39 42  1  0
 39 41  1  0
 40 38  2  0
 43 44  1  0
 43 18  1  0
 45 43  1  0
 46 50  1  0
 46 47  1  0
 47 49  1  0
 47  3  1  0
 48 46  2  0
 50 51  1  0
 52 51  1  0
 53 64  2  0
 54 52  1  0
 54 59  1  0
 55 63  1  0
 55 65  1  0
 56 62  1  0
 56 58  1  0
 57 63  1  0
 58 59  2  0
 58 57  1  0
 60 54  2  0
 61 60  1  0
 61 56  2  0
 62 55  1  0
 63 53  1  0
 65 67  2  0
 66 65  1  0
 68 66  1  0
 69 78  2  0
 69 74  1  0
 70 66  1  0
 70 74  1  0
 71 70  1  0
 72 73  1  0
 72 71  1  0
 73 69  1  0
 74 75  2  0
 75 76  1  0
 77 76  2  0
 78 77  1  0
 79 53  1  0
 79 84  1  0
 79 80  1  0
 80 83  1  1
 80 81  1  0
 82 80  1  0
 84 87  1  0
 85 89  1  0
 85 84  1  0
 86 85  2  0
 89 88  1  0
 91 89  1  0
 91 92  1  0
 91 90  1  0
 93 94  1  0
 94 95  1  0
M  ISO  4   6 100  15 100  51 101  52 101
M  END
>  <TORSDO>  (62) 
F 20

>  <SCORE>  (62) 
-13.790

>  <name>  (62) 
61

>  <ligand_id>  (62) 
61

>  <original_smiles>  (62) 
[H]c1c([H])c([H])c2c(c1[H])C([H])([H])C([H])([H])C([H])([H])C2([H])N([H])C(=O)C1([H])N(C(=O)C([H])(N([H])C(=O)C([H])(N([H])C([H])([H])[H])C([H])([H])[H])C(C([H])([H])[H])(C([H])([H])[H])C([H])([H])[H])C([H])([H])c2c([H])c(OC([H])([H])C([H])([H])C(=O)N([H])c3sc(N([H])C([H])([H])[H])c(C(=O)N([H])C(=O)N4C([H])([H])C([H])([H])C([H])([H])C([H])(n5nc(-c6c([H])c([H])c(Oc7c([H])c([H])c(F)c([H])c7F)c([H])c6[H])c(C(=O)N([H])[H])c5N([H])[H])C4([H])[H])c3[H])c([H])c([H])c2C1([H])[H]

>  <smiles>  (62) 
[H]c1c([H])c([H])c2c(c1[H])C([H])([H])C([H])([H])C([H])([H])C2([H])N([H])C(=O)C1([H])N(C(=O)C([H])(N([H])C(=O)C([H])(N([H])C([H])([H])[H])C([H])([H])[H])C(C([H])([H])[H])(C([H])([H])[H])C([H])([H])[H])C([H])([H])c2c([H])c(OC([H])([H])C([H])([H])C(=O)N([H])c3sc(N([H])C([H])([H])[H])c(C(=O)N([H])C(=O)N4C([H])([H])C([H])([H])C([H])([H])C([H])(n5nc(-c6c([H])c([H])c(Oc7c([H])c([H])c(F)c([H])c7F)c([H])c6[H])c(C(=O)N([H])[H])c5N([H])[H])C4([H])[H])c3[H])c([H])c([H])c2C1([H])[H]

$$$$
62:0:0
     RDKit          3D

 92100  0  0  1  0  0  0  0  0999 V2000
  -28.9660  -18.3700   19.2810 C   0  0  0  0  0  3  0  0  0  0  0  0
  -28.6670  -19.7770   19.1520 C   0  0  0  0  0  3  0  0  0  0  0  0
  -30.2040  -20.2810   20.8720 C   0  0  0  0  0  3  0  0  0  0  0  0
  -29.8700  -17.8140   20.2410 C   0  0  0  0  0  0  0  0  0  0  0  0
  -29.2360  -20.8160   19.9580 C   0  0  0  0  0  0  0  0  0  0  0  0
  -30.4980  -18.8580   21.0130 C   0  0  0  0  0  0  0  0  0  0  0  0
  -31.3580  -18.4940   21.9960 F   0  0  0  0  0  0  0  0  0  0  0  0
  -29.0000  -23.5350   20.2910 C   0  0  0  0  0  0  0  0  0  0  0  0
  -28.7200  -22.2410   19.8110 N   0  0  0  0  0  0  0  0  0  0  0  0
  -29.9850  -23.7420   21.0050 O   0  0  0  0  0  0  0  0  0  0  0  0
  -27.9200  -22.2860   19.1950 H   0  0  0  0  0  0  0  0  0  0  0  0
  -28.0100  -24.7920   19.9160 C   0  0  0  0  0  2  0  0  0  0  0  0
  -28.2870  -26.2650   20.2890 O   0  0  0  0  0  0  0  0  0  0  0  0
  -24.6300  -31.8900   23.2770 C   0  0  0  0  0  0  0  0  0  0  0  0
  -27.2230  -27.2300   20.2160 C   0  0  0  0  0  0  0  0  0  0  0  0
  -23.4300  -30.5010   21.6320 C   0  0  0  0  0  3  0  0  0  0  0  0
  -24.8810  -28.9440   20.1970 C   0  0  0  0  0  0  0  0  0  0  0  0
  -25.9820  -30.7810   21.4660 C   0  0  0  0  0  2  0  0  0  0  0  0
  -26.0580  -29.3960   20.8090 C   0  0  0  0  0  0  0  0  0  0  0  0
  -27.2290  -28.5530   20.8070 C   0  0  0  0  0  3  0  0  0  0  0  0
  -26.0190  -26.8790   19.5600 C   0  0  0  0  0  3  0  0  0  0  0  0
  -24.8730  -27.6960   19.5610 C   0  0  0  0  0  3  0  0  0  0  0  0
  -23.6500  -29.8320   20.2490 C   0  0  0  0  0  2  0  0  0  0  0  0
  -24.7000  -31.0780   22.1800 N   0  0  0  0  0  0  0  0  0  0  0  0
  -23.5440  -32.1690   23.8080 O   0  0  0  0  0  0  0  0  0  0  0  0
  -22.7570  -29.4870   22.5880 C   0  0  0  0  0  0  0  0  0  0  0  0
  -21.4300  -29.3090   22.4580 N   0  0  0  0  0  0  0  0  0  0  0  0
  -23.4300  -28.8610   23.4120 O   0  0  0  0  0  0  0  0  0  0  0  0
  -20.9440  -29.8670   21.7700 H   0  0  0  0  0  0  0  0  0  0  0  0
  -18.0510  -28.1020   22.9510 C   0  0  0  0  0  0  0  0  0  0  0  0
  -20.6090  -28.3670   23.2240 C   0  0  0  0  0  3  0  0  0  0  0  0
  -20.7130  -26.9370   22.6460 C   0  0  0  0  0  2  0  0  0  0  0  0
  -19.6130  -26.6150   21.6300 C   0  0  0  0  0  2  0  0  0  0  0  0
  -18.2310  -26.7550   22.2720 C   0  0  0  0  0  2  0  0  0  0  0  0
  -19.1670  -28.8650   23.3840 C   0  0  0  0  0  0  0  0  0  0  0  0
  -18.9440  -30.1260   23.9820 C   0  0  0  0  0  3  0  0  0  0  0  0
  -17.6370  -30.6210   24.1510 C   0  0  0  0  0  3  0  0  0  0  0  0
  -16.5360  -29.8550   23.7330 C   0  0  0  0  0  3  0  0  0  0  0  0
  -16.7430  -28.5980   23.1390 C   0  0  0  0  0  3  0  0  0  0  0  0
  -25.9090  -32.5230   23.9050 C   0  0  0  0  0  3  0  0  0  0  0  0
  -26.4050  -31.7660   25.1970 C   0  0  1  0  0  0  0  0  0  0  0  0
  -25.2980  -31.5500   26.2560 C   0  0  0  0  0  1  0  0  0  0  0  0
  -26.9860  -30.3800   24.8350 C   0  0  0  0  0  1  0  0  0  0  0  0
  -27.5510  -32.5640   25.8630 C   0  0  0  0  0  1  0  0  0  0  0  0
  -25.6060  -33.9290   24.2180 N   0  0  0  0  0  0  0  0  0  0  0  0
  -25.9350  -34.9730   23.4470 C   0  0  0  0  0  0  0  0  0  0  0  0
  -26.5960  -34.8550   22.4110 O   0  0  0  0  0  0  0  0  0  0  0  0
  -25.0220  -34.0940   25.0250 H   0  0  0  0  0  0  0  0  0  0  0  0
  -24.2100  -36.7700   23.0920 C   0  0  0  0  0  1  0  0  0  0  0  0
  -25.4590  -36.3690   23.8940 C   0  0  0  0  0  3  0  0  0  0  0  0
  -27.6000  -37.2610   24.7000 C   0  0  0  0  0  1  0  0  0  0  0  0
  -26.4940  -37.4170   23.7590 N   0  0  0  0  0  0  0  0  0  0  0  0
  -26.0910  -38.3410   23.8930 H   0  0  0  0  0  0  0  0  0  0  0  0
  -29.7990  -16.2690   20.6500 C   0  0  0  0  0  0  0  0  0  0  0  0
  -28.9030  -16.0700   21.5220 N   0  0  0  0  0  0  0  0  0  0  0  0
  -28.4420  -16.9340   21.7820 H   0  0  0  0  0  0  0  0  0  0  0  0
  -30.6680  -14.9800   20.0770 C   0  0  0  0  0  0  0  0  0  0  0  0
  -30.5140  -12.6990   18.9890 C   0  0  0  0  0  2  0  0  0  0  0  0
  -29.4900  -12.7600   17.8260 C   0  0  0  0  0  2  0  0  0  0  0  0
  -28.0430  -12.5560   18.3250 C   0  0  0  0  0  2  0  0  0  0  0  0
  -27.7410  -13.3810   19.6040 C   0  0  0  0  0  3  0  0  0  0  0  0
  -28.8670  -13.1900   20.6410 C   0  0  0  0  0  2  0  0  0  0  0  0
  -30.1090  -13.6960   20.0230 N   0  0  0  0  0  0  0  0  0  0  0  0
  -31.8050  -15.1300   19.6100 O   0  0  0  0  0  0  0  0  0  0  0  0
  -25.3970  -13.9660   20.4590 C   0  0  0  0  0  0  0  0  0  0  0  0
  -24.3440  -13.1890   20.8580 C   0  0  0  0  0  0  0  0  0  0  0  0
  -24.7970  -11.8360   20.7740 C   0  0  0  0  0  0  0  0  0  0  0  0
  -26.4220  -13.0870   20.1530 N   0  0  0  0  0  0  0  0  0  0  0  0
  -26.0710  -11.7990   20.3990 N   0  0  0  0  0  0  0  0  0  0  0  0
  -24.0750  -10.5740   20.9730 C   0  0  0  0  0  0  0  0  0  0  0  0
  -24.5280   -9.6000   21.8880 C   0  0  0  0  0  3  0  0  0  0  0  0
  -23.8060   -8.4020   22.0750 C   0  0  0  0  0  3  0  0  0  0  0  0
  -22.6140   -8.1720   21.3470 C   0  0  0  0  0  0  0  0  0  0  0  0
  -22.1770   -9.1350   20.4220 C   0  0  0  0  0  3  0  0  0  0  0  0
  -22.9010  -10.3250   20.2330 C   0  0  0  0  0  3  0  0  0  0  0  0
  -21.8610   -7.0260   21.4450 O   0  0  0  0  0  0  0  0  0  0  0  0
  -21.8070   -6.2970   22.6050 C   0  0  0  0  0  0  0  0  0  0  0  0
  -21.3440   -6.8570   23.8170 C   0  0  0  0  0  3  0  0  0  0  0  0
  -21.2400   -6.0530   24.9690 C   0  0  0  0  0  3  0  0  0  0  0  0
  -21.5870   -4.6900   24.9110 C   0  0  0  0  0  0  0  0  0  0  0  0
  -22.0430   -4.1290   23.7040 C   0  0  0  0  0  3  0  0  0  0  0  0
  -22.1500   -4.9310   22.5550 C   0  0  0  0  0  0  0  0  0  0  0  0
  -22.5700   -4.3810   21.3890 F   0  0  0  0  0  0  0  0  0  0  0  0
  -21.4790   -3.9150   26.0150 F   0  0  0  0  0  0  0  0  0  0  0  0
  -22.9660  -13.6670   21.2150 C   0  0  0  0  0  0  0  0  0  0  0  0
  -22.2840  -12.9580   22.1070 N   0  0  0  0  0  0  0  0  0  0  0  0
  -22.5060  -14.7060   20.7410 O   0  0  0  0  0  0  0  0  0  0  0  0
  -22.6700  -12.1180   22.5110 H   0  0  0  0  0  0  0  0  0  0  0  0
  -21.3630  -13.2600   22.3920 H   0  0  0  0  0  0  0  0  0  0  0  0
  -25.5660  -15.3390   20.3160 N   0  0  0  0  0  0  0  0  0  0  0  0
  -24.8410  -16.0070   20.5540 H   0  0  0  0  0  0  0  0  0  0  0  0
  -26.4740  -15.7660   20.1760 H   0  0  0  0  0  0  0  0  0  0  0  0
  1  4  1  0
  2  1  2  0
  2  5  1  0
  3  6  1  0
  4 54  1  0
  4  6  2  0
  5  3  2  0
  6  7  1  0
  8 10  2  0
  9  5  1  0
  9  8  1  0
 11  9  1  0
 12 13  1  0
 12  8  1  0
 14 25  2  0
 15 13  1  0
 15 20  1  0
 16 24  1  0
 16 26  1  0
 17 23  1  0
 17 19  1  0
 18 24  1  0
 19 18  1  0
 20 19  2  0
 21 22  1  0
 21 15  2  0
 22 17  2  0
 23 16  1  0
 24 14  1  0
 26 28  2  0
 27 26  1  0
 29 27  1  0
 30 39  2  0
 30 35  1  0
 31 27  1  0
 31 35  1  0
 32 31  1  0
 33 34  1  0
 33 32  1  0
 34 30  1  0
 35 36  2  0
 36 37  1  0
 38 37  2  0
 39 38  1  0
 40 14  1  0
 40 45  1  0
 40 41  1  0
 41 44  1  1
 41 42  1  0
 43 41  1  0
 45 48  1  0
 46 50  1  0
 46 45  1  0
 47 46  2  0
 50 49  1  0
 52 53  1  0
 52 50  1  0
 52 51  1  0
 54 55  2  0
 55 56  1  0
 57 54  1  0
 58 63  1  0
 59 60  1  0
 59 58  1  0
 61 60  1  0
 61 68  1  0
 61 62  1  0
 63 57  1  0
 63 62  1  0
 64 57  2  0
 65 66  2  0
 66 85  1  0
 67 66  1  0
 67 70  1  0
 68 69  1  0
 68 65  1  0
 69 67  2  0
 70 71  1  0
 71 72  2  0
 73 76  1  0
 73 72  1  0
 74 73  2  0
 75 74  1  0
 75 70  2  0
 76 77  1  0
 77 78  1  0
 78 79  2  0
 80 79  1  0
 80 84  1  0
 81 80  2  0
 82 77  2  0
 82 81  1  0
 83 82  1  0
 85 86  1  0
 86 89  1  0
 86 88  1  0
 87 85  2  0
 90 65  1  0
 90 91  1  0
 92 90  1  0
M  ISO  4  12 101  13 101  54 100  57 100
M  END
>  <TORSDO>  (63) 
F 19

>  <SCORE>  (63) 
-14.159

>  <name>  (63) 
62

>  <ligand_id>  (63) 
62

>  <original_smiles>  (63) 
[H]N=C(C(=O)N1C([H])([H])C([H])([H])C([H])([H])C([H])(n2nc(-c3c([H])c([H])c(Oc4c([H])c([H])c(F)c([H])c4F)c([H])c3[H])c(C(=O)N([H])[H])c2N([H])[H])C1([H])[H])c1c([H])c([H])c(N([H])C(=O)C([H])([H])Oc2c([H])c([H])c3c(c2[H])C([H])([H])N(C(=O)C([H])(N([H])C(=O)C([H])(N([H])C([H])([H])[H])C([H])([H])[H])C(C([H])([H])[H])(C([H])([H])[H])C([H])([H])[H])C([H])(C(=O)N([H])C2([H])c4c([H])c([H])c([H])c([H])c4C([H])([H])C([H])([H])C2([H])[H])C3([H])[H])c([H])c1F

>  <smiles>  (63) 
[H]N=C(C(=O)N1C([H])([H])C([H])([H])C([H])([H])C([H])(n2nc(-c3c([H])c([H])c(Oc4c([H])c([H])c(F)c([H])c4F)c([H])c3[H])c(C(=O)N([H])[H])c2N([H])[H])C1([H])[H])c1c([H])c([H])c(N([H])C(=O)C([H])([H])Oc2c([H])c([H])c3c(c2[H])C([H])([H])N(C(=O)C([H])(N([H])C(=O)C([H])(N([H])C([H])([H])[H])C([H])([H])[H])C(C([H])([H])[H])(C([H])([H])[H])C([H])([H])[H])C([H])(C(=O)N([H])C2([H])c4c([H])c([H])c([H])c([H])c4C([H])([H])C([H])([H])C2([H])[H])C3([H])[H])c([H])c1F

$$$$
63:0:0
     RDKit          3D

 92100  0  0  1  0  0  0  0  0999 V2000
  -30.0770  -17.9520   19.5520 C   0  0  0  0  0  3  0  0  0  0  0  0
  -30.0180  -19.3870   19.5170 C   0  0  0  0  0  3  0  0  0  0  0  0
  -30.6410  -18.0320   21.8890 C   0  0  0  0  0  3  0  0  0  0  0  0
  -30.3900  -17.2350   20.7430 C   0  0  0  0  0  0  0  0  0  0  0  0
  -30.6140  -19.4570   21.8470 C   0  0  0  0  0  0  0  0  0  0  0  0
  -30.2900  -20.1800   20.6680 C   0  0  0  0  0  0  0  0  0  0  0  0
  -31.0520  -14.7280   20.4850 C   0  0  0  0  0  0  0  0  0  0  0  0
  -30.8750  -12.4210   19.5570 C   0  0  0  0  0  2  0  0  0  0  0  0
  -29.9870  -12.4740   18.2930 C   0  0  0  0  0  2  0  0  0  0  0  0
  -28.4950  -12.3520   18.6640 C   0  0  0  0  0  2  0  0  0  0  0  0
  -28.0920  -13.3020   19.8240 C   0  0  0  0  0  3  0  0  0  0  0  0
  -29.0940  -13.2030   20.9960 C   0  0  0  0  0  2  0  0  0  0  0  0
  -30.4350  -13.5020   20.4650 N   0  0  0  0  0  0  0  0  0  0  0  0
  -32.2060  -14.8710   20.0690 O   0  0  0  0  0  0  0  0  0  0  0  0
  -30.2760  -15.7820   20.8930 N   0  0  0  0  0  0  0  0  0  0  0  0
  -29.4310  -15.4770   21.3520 H   0  0  0  0  0  0  0  0  0  0  0  0
  -25.6920  -13.9910   20.4380 C   0  0  0  0  0  0  0  0  0  0  0  0
  -24.5880  -13.2590   20.7790 C   0  0  0  0  0  0  0  0  0  0  0  0
  -25.0070  -11.8940   20.7880 C   0  0  0  0  0  0  0  0  0  0  0  0
  -26.7160  -13.0740   20.2590 N   0  0  0  0  0  0  0  0  0  0  0  0
  -26.3070  -11.8080   20.5300 N   0  0  0  0  0  0  0  0  0  0  0  0
  -24.2340  -10.6580   20.9730 C   0  0  0  0  0  0  0  0  0  0  0  0
  -24.6010   -9.6950   21.9380 C   0  0  0  0  0  3  0  0  0  0  0  0
  -23.8300   -8.5240   22.1090 C   0  0  0  0  0  3  0  0  0  0  0  0
  -22.6810   -8.3080   21.3140 C   0  0  0  0  0  0  0  0  0  0  0  0
  -22.3330   -9.2600   20.3380 C   0  0  0  0  0  3  0  0  0  0  0  0
  -23.1030  -10.4230   20.1660 C   0  0  0  0  0  3  0  0  0  0  0  0
  -21.8870   -7.1890   21.3910 O   0  0  0  0  0  0  0  0  0  0  0  0
  -21.7610   -6.4760   22.5570 C   0  0  0  0  0  0  0  0  0  0  0  0
  -21.2690   -7.0660   23.7410 C   0  0  0  0  0  3  0  0  0  0  0  0
  -21.0900   -6.2800   24.8980 C   0  0  0  0  0  3  0  0  0  0  0  0
  -21.3910   -4.9060   24.8690 C   0  0  0  0  0  0  0  0  0  0  0  0
  -21.8760   -4.3160   23.6890 C   0  0  0  0  0  3  0  0  0  0  0  0
  -22.0570   -5.0990   22.5340 C   0  0  0  0  0  0  0  0  0  0  0  0
  -22.5040   -4.5200   21.3940 F   0  0  0  0  0  0  0  0  0  0  0  0
  -21.2120   -4.1490   25.9760 F   0  0  0  0  0  0  0  0  0  0  0  0
  -23.1980  -13.7850   20.9920 C   0  0  0  0  0  0  0  0  0  0  0  0
  -22.4200  -13.1330   21.8500 N   0  0  0  0  0  0  0  0  0  0  0  0
  -22.8100  -14.8100   20.4320 O   0  0  0  0  0  0  0  0  0  0  0  0
  -22.7470  -12.3050   22.3250 H   0  0  0  0  0  0  0  0  0  0  0  0
  -21.4860  -13.4700   22.0350 H   0  0  0  0  0  0  0  0  0  0  0  0
  -25.9080  -15.3520   20.2430 N   0  0  0  0  0  0  0  0  0  0  0  0
  -25.1590  -16.0330   20.3140 H   0  0  0  0  0  0  0  0  0  0  0  0
  -26.7840  -15.7590   19.9420 H   0  0  0  0  0  0  0  0  0  0  0  0
  -30.8920  -20.1800   23.0080 N   0  0  0  0  0  0  0  0  0  0  0  0
  -30.6240  -21.1590   22.9810 H   0  0  0  0  0  0  0  0  0  0  0  0
  -30.6850  -19.7440   23.9000 H   0  0  0  0  0  0  0  0  0  0  0  0
  -30.3450  -21.5930   20.7300 O   0  0  0  0  0  0  0  0  0  0  0  0
  -29.4870  -22.4970   19.9640 C   0  0  0  0  0  2  0  0  0  0  0  0
  -29.6400  -24.0410   20.3690 C   0  0  0  0  0  3  0  0  0  0  0  0
  -28.5300  -25.0850   19.9010 C   0  0  0  0  0  3  0  0  0  0  0  0
  -28.6560  -26.5250   20.2520 O   0  0  0  0  0  0  0  0  0  0  0  0
  -24.6740  -31.7440   23.2590 C   0  0  0  0  0  0  0  0  0  0  0  0
  -27.5140  -27.3450   20.1690 C   0  0  0  0  0  0  0  0  0  0  0  0
  -23.5630  -30.3580   21.5440 C   0  0  0  0  0  3  0  0  0  0  0  0
  -25.1030  -28.8920   20.1230 C   0  0  0  0  0  0  0  0  0  0  0  0
  -26.0980  -30.7530   21.4530 C   0  0  0  0  0  2  0  0  0  0  0  0
  -26.2380  -29.3960   20.7720 C   0  0  0  0  0  0  0  0  0  0  0  0
  -27.4450  -28.6330   20.7880 C   0  0  0  0  0  3  0  0  0  0  0  0
  -26.3570  -26.9040   19.4860 C   0  0  0  0  0  3  0  0  0  0  0  0
  -25.1640  -27.6530   19.4720 C   0  0  0  0  0  3  0  0  0  0  0  0
  -23.8400  -29.7280   20.1540 C   0  0  0  0  0  2  0  0  0  0  0  0
  -24.7950  -30.9670   22.1420 N   0  0  0  0  0  0  0  0  0  0  0  0
  -23.5670  -31.9760   23.7660 O   0  0  0  0  0  0  0  0  0  0  0  0
  -22.9000  -29.2970   22.4540 C   0  0  0  0  0  0  0  0  0  0  0  0
  -21.5830  -29.0920   22.2850 N   0  0  0  0  0  0  0  0  0  0  0  0
  -23.5710  -28.6620   23.2730 O   0  0  0  0  0  0  0  0  0  0  0  0
  -21.0970  -29.6580   21.6030 H   0  0  0  0  0  0  0  0  0  0  0  0
  -18.2200  -27.8130   22.6650 C   0  0  0  0  0  0  0  0  0  0  0  0
  -20.7660  -28.1140   23.0060 C   0  0  0  0  0  3  0  0  0  0  0  0
  -20.9090  -26.7030   22.3880 C   0  0  0  0  0  2  0  0  0  0  0  0
  -19.8390  -26.3930   21.3370 C   0  0  0  0  0  2  0  0  0  0  0  0
  -18.4400  -26.4900   21.9520 C   0  0  0  0  0  2  0  0  0  0  0  0
  -19.3120  -28.5820   23.1460 C   0  0  0  0  0  0  0  0  0  0  0  0
  -19.0530  -29.8220   23.7720 C   0  0  0  0  0  3  0  0  0  0  0  0
  -17.7350  -30.2920   23.9210 C   0  0  0  0  0  3  0  0  0  0  0  0
  -16.6570  -29.5180   23.4570 C   0  0  0  0  0  3  0  0  0  0  0  0
  -16.9000  -28.2810   22.8350 C   0  0  0  0  0  3  0  0  0  0  0  0
  -25.9190  -32.3940   23.9380 C   0  0  0  0  0  3  0  0  0  0  0  0
  -25.5770  -33.7900   24.2460 N   0  0  0  0  0  0  0  0  0  0  0  0
  -25.9100  -34.8410   23.4860 C   0  0  0  0  0  0  0  0  0  0  0  0
  -26.6060  -34.7400   22.4720 O   0  0  0  0  0  0  0  0  0  0  0  0
  -24.9620  -33.9430   25.0320 H   0  0  0  0  0  0  0  0  0  0  0  0
  -24.1480  -36.5930   23.0880 C   0  0  0  0  0  1  0  0  0  0  0  0
  -25.3890  -36.2250   23.9180 C   0  0  0  0  0  3  0  0  0  0  0  0
  -27.4910  -37.1720   24.7630 C   0  0  0  0  0  1  0  0  0  0  0  0
  -26.4000  -37.2990   23.8010 N   0  0  0  0  0  0  0  0  0  0  0  0
  -25.9700  -38.2120   23.9270 H   0  0  0  0  0  0  0  0  0  0  0  0
  -26.3830  -31.6340   25.2410 C   0  0  1  0  0  0  0  0  0  0  0  0
  -25.2440  -31.3880   26.2570 C   0  0  0  0  0  1  0  0  0  0  0  0
  -27.0000  -30.2610   24.8850 C   0  0  0  0  0  1  0  0  0  0  0  0
  -27.4920  -32.4440   25.9540 C   0  0  0  0  0  1  0  0  0  0  0  0
  1  4  1  0
  2  1  2  0
  2  6  1  0
  4 15  1  0
  4  3  2  0
  5  3  1  0
  5 45  1  0
  6 48  1  0
  6  5  2  0
  7 15  1  0
  8 13  1  0
  9 10  1  0
  9  8  1  0
 11 10  1  0
 11 20  1  0
 11 12  1  0
 13  7  1  0
 13 12  1  0
 14  7  2  0
 15 16  1  0
 17 18  2  0
 18 19  1  0
 18 37  1  0
 19 22  1  0
 20 17  1  0
 20 21  1  0
 21 19  2  0
 22 23  1  0
 23 24  2  0
 25 28  1  0
 25 24  1  0
 26 25  2  0
 27 26  1  0
 27 22  2  0
 28 29  1  0
 29 30  1  0
 30 31  2  0
 32 31  1  0
 32 36  1  0
 33 32  2  0
 34 29  2  0
 34 33  1  0
 35 34  1  0
 37 38  1  0
 38 41  1  0
 38 40  1  0
 39 37  2  0
 42 43  1  0
 42 17  1  0
 44 42  1  0
 45 47  1  0
 46 45  1  0
 49 50  1  0
 49 48  1  0
 51 52  1  0
 51 50  2  0
 53 64  2  0
 54 52  1  0
 54 59  1  0
 55 63  1  0
 55 65  1  0
 56 62  1  0
 56 58  1  0
 57 63  1  0
 58 59  2  0
 58 57  1  0
 60 54  2  0
 61 60  1  0
 61 56  2  0
 62 55  1  0
 63 53  1  0
 65 67  2  0
 66 65  1  0
 68 66  1  0
 69 78  2  0
 69 74  1  0
 70 66  1  0
 70 74  1  0
 71 70  1  0
 72 73  1  0
 72 71  1  0
 73 69  1  0
 74 75  2  0
 75 76  1  0
 77 76  2  0
 78 77  1  0
 79 53  1  0
 79 80  1  0
 79 89  1  0
 80 83  1  0
 81 85  1  0
 81 80  1  0
 82 81  2  0
 85 84  1  0
 87 85  1  0
 87 88  1  0
 87 86  1  0
 89 92  1  1
 89 90  1  0
 91 89  1  0
M  ISO  4   7 100  15 100  51 101  52 101
M  END
>  <TORSDO>  (64) 
F 21

>  <SCORE>  (64) 
-13.339

>  <name>  (64) 
63

>  <ligand_id>  (64) 
63

>  <original_smiles>  (64) 
[H]c1c([H])c([H])c2c(c1[H])C([H])([H])C([H])([H])C([H])([H])C2([H])N([H])C(=O)C1([H])N(C(=O)C([H])(N([H])C(=O)C([H])(N([H])C([H])([H])[H])C([H])([H])[H])C(C([H])([H])[H])(C([H])([H])[H])C([H])([H])[H])C([H])([H])c2c([H])c(OC([H])([H])C([H])([H])C([H])([H])Oc3c([H])c([H])c(N([H])C(=O)N4C([H])([H])C([H])([H])C([H])([H])C([H])(n5nc(-c6c([H])c([H])c(Oc7c([H])c([H])c(F)c([H])c7F)c([H])c6[H])c(C(=O)N([H])[H])c5N([H])[H])C4([H])[H])c([H])c3N([H])[H])c([H])c([H])c2C1([H])[H]

>  <smiles>  (64) 
[H]c1c([H])c([H])c2c(c1[H])C([H])([H])C([H])([H])C([H])([H])C2([H])N([H])C(=O)C1([H])N(C(=O)C([H])(N([H])C(=O)C([H])(N([H])C([H])([H])[H])C([H])([H])[H])C(C([H])([H])[H])(C([H])([H])[H])C([H])([H])[H])C([H])([H])c2c([H])c(OC([H])([H])C([H])([H])C([H])([H])Oc3c([H])c([H])c(N([H])C(=O)N4C([H])([H])C([H])([H])C([H])([H])C([H])(n5nc(-c6c([H])c([H])c(Oc7c([H])c([H])c(F)c([H])c7F)c([H])c6[H])c(C(=O)N([H])[H])c5N([H])[H])C4([H])[H])c([H])c3N([H])[H])c([H])c([H])c2C1([H])[H]

$$$$
64:0:0
     RDKit          3D

 93101  0  0  1  0  0  0  0  0999 V2000
  -29.1350  -22.4910   20.3500 C   0  0  0  0  0  0  0  0  0  0  0  0
  -29.3460  -21.4050   19.5340 N   0  0  0  0  0  0  0  0  0  0  0  0
  -29.0960  -22.3690   21.5760 O   0  0  0  0  0  0  0  0  0  0  0  0
  -29.2330  -21.5970   18.5470 H   0  0  0  0  0  0  0  0  0  0  0  0
  -30.7560  -18.1700   21.1100 C   0  0  0  0  0  3  0  0  0  0  0  0
  -30.4380  -19.5490   20.9240 C   0  0  0  0  0  3  0  0  0  0  0  0
  -29.5820  -17.5960   19.1040 C   0  0  0  0  0  3  0  0  0  0  0  0
  -30.3260  -17.1330   20.2250 C   0  0  0  0  0  0  0  0  0  0  0  0
  -29.6700  -19.9970   19.8190 C   0  0  0  0  0  0  0  0  0  0  0  0
  -29.2690  -18.9790   18.9060 C   0  0  0  0  0  0  0  0  0  0  0  0
  -28.5520  -19.3370   17.8140 F   0  0  0  0  0  0  0  0  0  0  0  0
  -31.0020  -14.7490   19.6080 C   0  0  0  0  0  0  0  0  0  0  0  0
  -30.5920  -12.5970   18.3930 C   0  0  0  0  0  2  0  0  0  0  0  0
  -29.4750  -12.7640   17.3400 C   0  0  0  0  0  2  0  0  0  0  0  0
  -28.0870  -12.5490   17.9740 C   0  0  0  0  0  2  0  0  0  0  0  0
  -27.9130  -13.3450   19.2920 C   0  0  0  0  0  3  0  0  0  0  0  0
  -29.1210  -13.1360   20.2260 C   0  0  0  0  0  2  0  0  0  0  0  0
  -30.3340  -13.5480   19.5000 N   0  0  0  0  0  0  0  0  0  0  0  0
  -31.9850  -14.9770   18.8930 O   0  0  0  0  0  0  0  0  0  0  0  0
  -30.5630  -15.6950   20.5210 N   0  0  0  0  0  0  0  0  0  0  0  0
  -25.6990  -13.8810   20.4800 C   0  0  0  0  0  0  0  0  0  0  0  0
  -24.6810  -13.0820   20.9270 C   0  0  0  0  0  0  0  0  0  0  0  0
  -25.0820  -11.7400   20.6480 C   0  0  0  0  0  0  0  0  0  0  0  0
  -26.6550  -13.0230   19.9610 N   0  0  0  0  0  0  0  0  0  0  0  0
  -26.2990  -11.7230   20.1200 N   0  0  0  0  0  0  0  0  0  0  0  0
  -24.3520  -10.4750   20.8000 C   0  0  0  0  0  0  0  0  0  0  0  0
  -24.8300   -9.4420   21.6370 C   0  0  0  0  0  3  0  0  0  0  0  0
  -24.1010   -8.2410   21.7810 C   0  0  0  0  0  3  0  0  0  0  0  0
  -22.8790   -8.0660   21.0900 C   0  0  0  0  0  0  0  0  0  0  0  0
  -22.4190   -9.0890   20.2400 C   0  0  0  0  0  3  0  0  0  0  0  0
  -23.1490  -10.2800   20.0930 C   0  0  0  0  0  3  0  0  0  0  0  0
  -22.1150   -6.9260   21.1490 O   0  0  0  0  0  0  0  0  0  0  0  0
  -22.0340   -6.1730   22.2930 C   0  0  0  0  0  0  0  0  0  0  0  0
  -21.5940   -6.7250   23.5170 C   0  0  0  0  0  3  0  0  0  0  0  0
  -21.4580   -5.9000   24.6510 C   0  0  0  0  0  3  0  0  0  0  0  0
  -21.7500   -4.5250   24.5630 C   0  0  0  0  0  0  0  0  0  0  0  0
  -22.1820   -3.9740   23.3440 C   0  0  0  0  0  3  0  0  0  0  0  0
  -22.3200   -4.7950   22.2120 C   0  0  0  0  0  0  0  0  0  0  0  0
  -22.7160   -4.2560   21.0340 F   0  0  0  0  0  0  0  0  0  0  0  0
  -21.6130   -3.7310   25.6510 F   0  0  0  0  0  0  0  0  0  0  0  0
  -23.3680  -13.5420   21.4920 C   0  0  0  0  0  0  0  0  0  0  0  0
  -22.7870  -12.7640   22.4000 N   0  0  0  0  0  0  0  0  0  0  0  0
  -22.8740  -14.6200   21.1680 O   0  0  0  0  0  0  0  0  0  0  0  0
  -23.2020  -11.8890   22.6820 H   0  0  0  0  0  0  0  0  0  0  0  0
  -21.9150  -13.0510   22.8230 H   0  0  0  0  0  0  0  0  0  0  0  0
  -25.8830  -15.2610   20.4530 N   0  0  0  0  0  0  0  0  0  0  0  0
  -25.1750  -15.9090   20.7840 H   0  0  0  0  0  0  0  0  0  0  0  0
  -26.6930  -15.7250   20.0650 H   0  0  0  0  0  0  0  0  0  0  0  0
  -29.7590  -15.8370   22.9190 C   0  0  0  0  0  1  0  0  0  0  0  0
  -30.8400  -15.3420   21.9330 C   0  0  0  0  0  2  0  0  0  0  0  0
  -28.9360  -23.9400   19.7250 C   0  0  0  0  0  2  0  0  0  0  0  0
  -28.2820  -25.0960   20.6180 C   0  0  0  0  0  2  0  0  0  0  0  0
  -28.4950  -26.5270   20.2710 O   0  0  0  0  0  0  0  0  0  0  0  0
  -24.7250  -31.9750   23.1700 C   0  0  0  0  0  0  0  0  0  0  0  0
  -27.3780  -27.3730   20.2320 C   0  0  0  0  0  0  0  0  0  0  0  0
  -23.5470  -30.5590   21.5250 C   0  0  0  0  0  3  0  0  0  0  0  0
  -25.0190  -28.9820   20.1520 C   0  0  0  0  0  0  0  0  0  0  0  0
  -26.0890  -30.8700   21.3840 C   0  0  0  0  0  2  0  0  0  0  0  0
  -26.1780  -29.4830   20.7590 C   0  0  0  0  0  0  0  0  0  0  0  0
  -27.3650  -28.6910   20.7840 C   0  0  0  0  0  3  0  0  0  0  0  0
  -26.2020  -26.9220   19.5990 C   0  0  0  0  0  3  0  0  0  0  0  0
  -25.0330  -27.7080   19.5610 C   0  0  0  0  0  3  0  0  0  0  0  0
  -23.7840  -29.8610   20.1600 C   0  0  0  0  0  2  0  0  0  0  0  0
  -24.8050  -31.1520   22.0840 N   0  0  0  0  0  0  0  0  0  0  0  0
  -23.6320  -32.2640   23.6800 O   0  0  0  0  0  0  0  0  0  0  0  0
  -22.8620  -29.5590   22.4870 C   0  0  0  0  0  0  0  0  0  0  0  0
  -21.5360  -29.3920   22.3420 N   0  0  0  0  0  0  0  0  0  0  0  0
  -23.5230  -28.9350   23.3220 O   0  0  0  0  0  0  0  0  0  0  0  0
  -21.0640  -29.9450   21.6420 H   0  0  0  0  0  0  0  0  0  0  0  0
  -18.1410  -28.2330   22.8020 C   0  0  0  0  0  0  0  0  0  0  0  0
  -20.6980  -28.4700   23.1100 C   0  0  0  0  0  3  0  0  0  0  0  0
  -20.7940  -27.0320   22.5500 C   0  0  0  0  0  2  0  0  0  0  0  0
  -19.7050  -26.7090   21.5230 C   0  0  0  0  0  2  0  0  0  0  0  0
  -18.3150  -26.8740   22.1440 C   0  0  0  0  0  2  0  0  0  0  0  0
  -19.2600  -28.9880   23.2420 C   0  0  0  0  0  0  0  0  0  0  0  0
  -19.0440  -30.2600   23.8170 C   0  0  0  0  0  3  0  0  0  0  0  0
  -17.7410  -30.7750   23.9570 C   0  0  0  0  0  3  0  0  0  0  0  0
  -16.6360  -30.0160   23.5350 C   0  0  0  0  0  3  0  0  0  0  0  0
  -16.8380  -28.7470   22.9620 C   0  0  0  0  0  3  0  0  0  0  0  0
  -25.9980  -32.6110   23.8090 C   0  0  0  0  0  3  0  0  0  0  0  0
  -26.5230  -31.8180   25.0680 C   0  0  1  0  0  0  0  0  0  0  0  0
  -25.4230  -31.5080   26.1100 C   0  0  0  0  0  1  0  0  0  0  0  0
  -27.1590  -30.4740   24.6410 C   0  0  0  0  0  1  0  0  0  0  0  0
  -27.6350  -32.6280   25.7730 C   0  0  0  0  0  1  0  0  0  0  0  0
  -25.6690  -33.9970   24.1720 N   0  0  0  0  0  0  0  0  0  0  0  0
  -25.9830  -35.0710   23.4360 C   0  0  0  0  0  0  0  0  0  0  0  0
  -26.6490  -35.0010   22.4010 O   0  0  0  0  0  0  0  0  0  0  0  0
  -25.0760  -34.1240   24.9800 H   0  0  0  0  0  0  0  0  0  0  0  0
  -24.2250  -36.8450   23.1330 C   0  0  0  0  0  1  0  0  0  0  0  0
  -25.4770  -36.4420   23.9280 C   0  0  0  0  0  3  0  0  0  0  0  0
  -27.6060  -37.3380   24.7620 C   0  0  0  0  0  1  0  0  0  0  0  0
  -26.4930  -37.5130   23.8320 N   0  0  0  0  0  0  0  0  0  0  0  0
  -26.0760  -38.4230   24.0040 H   0  0  0  0  0  0  0  0  0  0  0  0
  1  3  2  0
  2  9  1  0
  2  1  1  0
  4  2  1  0
  6  5  1  0
  7  8  1  0
  8 20  1  0
  8  5  2  0
  9  6  2  0
 10  7  2  0
 10  9  1  0
 11 10  1  0
 12 20  1  0
 13 18  1  0
 14 15  1  0
 14 13  1  0
 16 15  1  0
 16 24  1  0
 16 17  1  0
 18 12  1  0
 18 17  1  0
 19 12  2  0
 20 50  1  0
 21 22  2  0
 22 41  1  0
 23 26  1  0
 23 22  1  0
 24 25  1  0
 24 21  1  0
 25 23  2  0
 26 27  1  0
 27 28  2  0
 29 32  1  0
 29 28  1  0
 30 29  2  0
 31 30  1  0
 31 26  2  0
 32 33  1  0
 33 34  1  0
 34 35  2  0
 36 35  1  0
 36 40  1  0
 37 36  2  0
 38 33  2  0
 38 37  1  0
 39 38  1  0
 41 42  1  0
 42 44  1  0
 42 45  1  0
 43 41  2  0
 46 21  1  0
 46 47  1  0
 48 46  1  0
 50 49  1  0
 51  1  1  0
 51 52  1  0
 53 52  1  0
 54 65  2  0
 55 53  1  0
 55 60  1  0
 56 64  1  0
 56 66  1  0
 57 63  1  0
 57 59  1  0
 58 64  1  0
 59 60  2  0
 59 58  1  0
 61 55  2  0
 62 61  1  0
 62 57  2  0
 63 56  1  0
 64 54  1  0
 66 68  2  0
 67 66  1  0
 69 67  1  0
 70 79  2  0
 70 75  1  0
 71 67  1  0
 71 75  1  0
 72 71  1  0
 73 74  1  0
 73 72  1  0
 74 70  1  0
 75 76  2  0
 76 77  1  0
 78 77  2  0
 79 78  1  0
 80 54  1  0
 80 85  1  0
 80 81  1  0
 81 84  1  1
 81 82  1  0
 83 81  1  0
 85 88  1  0
 86 90  1  0
 86 85  1  0
 87 86  2  0
 90 89  1  0
 92 90  1  0
 92 93  1  0
 92 91  1  0
M  ISO  4  12 100  20 100  52 101  53 101
M  END
>  <TORSDO>  (65) 
F 20

>  <SCORE>  (65) 
-9.703

>  <name>  (65) 
64

>  <ligand_id>  (65) 
64

>  <original_smiles>  (65) 
[H]c1c([H])c([H])c2c(c1[H])C([H])([H])C([H])([H])C([H])([H])C2([H])N([H])C(=O)C1([H])N(C(=O)C([H])(N([H])C(=O)C([H])(N([H])C([H])([H])[H])C([H])([H])[H])C(C([H])([H])[H])(C([H])([H])[H])C([H])([H])[H])C([H])([H])c2c([H])c(OC([H])([H])C([H])([H])C(=O)N([H])c3c([H])c([H])c(N(C(=O)N4C([H])([H])C([H])([H])C([H])([H])C([H])(n5nc(-c6c([H])c([H])c(Oc7c([H])c([H])c(F)c([H])c7F)c([H])c6[H])c(C(=O)N([H])[H])c5N([H])[H])C4([H])[H])C([H])([H])C([H])([H])[H])c([H])c3F)c([H])c([H])c2C1([H])[H]

>  <smiles>  (65) 
[H]c1c([H])c([H])c2c(c1[H])C([H])([H])C([H])([H])C([H])([H])C2([H])N([H])C(=O)C1([H])N(C(=O)C([H])(N([H])C(=O)C([H])(N([H])C([H])([H])[H])C([H])([H])[H])C(C([H])([H])[H])(C([H])([H])[H])C([H])([H])[H])C([H])([H])c2c([H])c(OC([H])([H])C([H])([H])C(=O)N([H])c3c([H])c([H])c(N(C(=O)N4C([H])([H])C([H])([H])C([H])([H])C([H])(n5nc(-c6c([H])c([H])c(Oc7c([H])c([H])c(F)c([H])c7F)c([H])c6[H])c(C(=O)N([H])[H])c5N([H])[H])C4([H])[H])C([H])([H])C([H])([H])[H])c([H])c3F)c([H])c([H])c2C1([H])[H]

$$$$
65:0:0
     RDKit          3D

 92100  0  0  1  0  0  0  0  0999 V2000
  -29.8960  -21.5020   20.0430 N   0  0  0  0  0  0  0  0  0  0  0  0
  -30.7050  -21.9050   19.5750 H   0  0  0  0  0  0  0  0  0  0  0  0
  -28.8650  -17.9180   20.8880 C   0  0  0  0  0  3  0  0  0  0  0  0
  -28.8150  -19.3400   20.7760 C   0  0  0  0  0  3  0  0  0  0  0  0
  -31.0410  -17.8880   19.8610 C   0  0  0  0  0  3  0  0  0  0  0  0
  -29.9720  -17.1470   20.4350 C   0  0  0  0  0  0  0  0  0  0  0  0
  -29.8790  -20.0760   20.1970 C   0  0  0  0  0  0  0  0  0  0  0  0
  -30.9920  -19.3090   19.7470 C   0  0  0  0  0  0  0  0  0  0  0  0
  -32.0430  -19.9560   19.1860 F   0  0  0  0  0  0  0  0  0  0  0  0
  -30.6850  -14.6680   20.0690 C   0  0  0  0  0  0  0  0  0  0  0  0
  -30.4170  -12.4720   18.9360 C   0  0  0  0  0  2  0  0  0  0  0  0
  -29.4050  -12.6490   17.7830 C   0  0  0  0  0  2  0  0  0  0  0  0
  -27.9580  -12.4750   18.2880 C   0  0  0  0  0  2  0  0  0  0  0  0
  -27.6730  -13.2880   19.5770 C   0  0  0  0  0  3  0  0  0  0  0  0
  -28.7920  -13.0830   20.6240 C   0  0  0  0  0  2  0  0  0  0  0  0
  -30.0690  -13.4460   19.9900 N   0  0  0  0  0  0  0  0  0  0  0  0
  -31.8120  -14.8490   19.5990 O   0  0  0  0  0  0  0  0  0  0  0  0
  -29.9140  -15.6880   20.5620 N   0  0  0  0  0  0  0  0  0  0  0  0
  -29.0670  -15.3440   20.9850 H   0  0  0  0  0  0  0  0  0  0  0  0
  -25.3200  -13.8630   20.4380 C   0  0  0  0  0  0  0  0  0  0  0  0
  -24.2750  -13.0770   20.8440 C   0  0  0  0  0  0  0  0  0  0  0  0
  -24.7380  -11.7280   20.7510 C   0  0  0  0  0  0  0  0  0  0  0  0
  -26.3520  -12.9910   20.1250 N   0  0  0  0  0  0  0  0  0  0  0  0
  -26.0090  -11.7010   20.3720 N   0  0  0  0  0  0  0  0  0  0  0  0
  -24.0240  -10.4590   20.9450 C   0  0  0  0  0  0  0  0  0  0  0  0
  -24.4650   -9.5010   21.8850 C   0  0  0  0  0  3  0  0  0  0  0  0
  -23.7530   -8.2960   22.0670 C   0  0  0  0  0  3  0  0  0  0  0  0
  -22.5850   -8.0410   21.3100 C   0  0  0  0  0  0  0  0  0  0  0  0
  -22.1640   -8.9870   20.3600 C   0  0  0  0  0  3  0  0  0  0  0  0
  -22.8760  -10.1840   20.1750 C   0  0  0  0  0  3  0  0  0  0  0  0
  -21.8430   -6.8880   21.4010 O   0  0  0  0  0  0  0  0  0  0  0  0
  -21.7530   -6.1800   22.5730 C   0  0  0  0  0  0  0  0  0  0  0  0
  -21.2300   -6.7550   23.7520 C   0  0  0  0  0  3  0  0  0  0  0  0
  -21.0910   -5.9720   24.9150 C   0  0  0  0  0  3  0  0  0  0  0  0
  -21.4650   -4.6150   24.9010 C   0  0  0  0  0  0  0  0  0  0  0  0
  -21.9820   -4.0390   23.7260 C   0  0  0  0  0  3  0  0  0  0  0  0
  -22.1220   -4.8200   22.5650 C   0  0  0  0  0  0  0  0  0  0  0  0
  -22.6000   -4.2560   21.4300 F   0  0  0  0  0  0  0  0  0  0  0  0
  -21.3250   -3.8610   26.0150 F   0  0  0  0  0  0  0  0  0  0  0  0
  -22.8930  -13.5420   21.2040 C   0  0  0  0  0  0  0  0  0  0  0  0
  -22.2110  -12.8150   22.0810 N   0  0  0  0  0  0  0  0  0  0  0  0
  -22.4300  -14.5840   20.7430 O   0  0  0  0  0  0  0  0  0  0  0  0
  -22.6000  -11.9710   22.4750 H   0  0  0  0  0  0  0  0  0  0  0  0
  -21.2860  -13.1070   22.3640 H   0  0  0  0  0  0  0  0  0  0  0  0
  -25.4720  -15.2380   20.2880 N   0  0  0  0  0  0  0  0  0  0  0  0
  -24.7050  -15.8830   20.4480 H   0  0  0  0  0  0  0  0  0  0  0  0
  -26.2890  -15.6870   19.8940 H   0  0  0  0  0  0  0  0  0  0  0  0
  -28.8580  -22.4890   20.4790 C   0  0  0  0  0  2  0  0  0  0  0  0
  -29.1470  -24.0130   20.1580 C   0  0  0  0  0  0  0  0  0  0  0  0
  -30.1830  -24.3270   19.5610 O   0  0  0  0  0  0  0  0  0  0  0  0
  -28.1070  -25.1090   20.6070 C   0  0  0  0  0  2  0  0  0  0  0  0
  -28.3810  -26.5100   20.2090 O   0  0  0  0  0  0  0  0  0  0  0  0
  -24.6250  -31.8740   23.2370 C   0  0  0  0  0  0  0  0  0  0  0  0
  -27.2650  -27.3540   20.1750 C   0  0  0  0  0  0  0  0  0  0  0  0
  -23.4280  -30.4730   21.5930 C   0  0  0  0  0  3  0  0  0  0  0  0
  -24.8890  -28.9370   20.1640 C   0  0  0  0  0  0  0  0  0  0  0  0
  -25.9650  -30.8120   21.4100 C   0  0  0  0  0  2  0  0  0  0  0  0
  -26.0530  -29.4370   20.7620 C   0  0  0  0  0  0  0  0  0  0  0  0
  -27.2470  -28.6560   20.7580 C   0  0  0  0  0  3  0  0  0  0  0  0
  -26.0830  -26.9090   19.5410 C   0  0  0  0  0  3  0  0  0  0  0  0
  -24.9040  -27.6790   19.5440 C   0  0  0  0  0  3  0  0  0  0  0  0
  -23.6460  -29.8010   20.2120 C   0  0  0  0  0  2  0  0  0  0  0  0
  -24.6910  -31.0690   22.1380 N   0  0  0  0  0  0  0  0  0  0  0  0
  -23.5390  -32.1440   23.7720 O   0  0  0  0  0  0  0  0  0  0  0  0
  -22.7720  -29.4500   22.5500 C   0  0  0  0  0  0  0  0  0  0  0  0
  -21.4460  -29.2710   22.4260 N   0  0  0  0  0  0  0  0  0  0  0  0
  -23.4540  -28.8210   23.3630 O   0  0  0  0  0  0  0  0  0  0  0  0
  -20.9550  -29.8300   21.7420 H   0  0  0  0  0  0  0  0  0  0  0  0
  -18.0690  -28.0840   22.9410 C   0  0  0  0  0  0  0  0  0  0  0  0
  -20.6290  -28.3310   23.1950 C   0  0  0  0  0  3  0  0  0  0  0  0
  -20.7210  -26.9040   22.6070 C   0  0  0  0  0  2  0  0  0  0  0  0
  -19.6110  -26.5940   21.5980 C   0  0  0  0  0  2  0  0  0  0  0  0
  -18.2350  -26.7390   22.2520 C   0  0  0  0  0  2  0  0  0  0  0  0
  -19.1930  -28.8380   23.3680 C   0  0  0  0  0  0  0  0  0  0  0  0
  -18.9830  -30.0970   23.9720 C   0  0  0  0  0  3  0  0  0  0  0  0
  -17.6810  -30.6020   24.1510 C   0  0  0  0  0  3  0  0  0  0  0  0
  -16.5710  -29.8440   23.7390 C   0  0  0  0  0  3  0  0  0  0  0  0
  -16.7660  -28.5870   23.1390 C   0  0  0  0  0  3  0  0  0  0  0  0
  -25.9050  -32.5110   23.8620 C   0  0  0  0  0  3  0  0  0  0  0  0
  -26.4170  -31.7460   25.1430 C   0  0  1  0  0  0  0  0  0  0  0  0
  -25.3190  -31.5080   26.2060 C   0  0  0  0  0  1  0  0  0  0  0  0
  -27.0070  -30.3690   24.7600 C   0  0  0  0  0  1  0  0  0  0  0  0
  -27.5610  -32.5460   25.8080 C   0  0  0  0  0  1  0  0  0  0  0  0
  -25.5920  -33.9100   24.1840 N   0  0  0  0  0  0  0  0  0  0  0  0
  -25.9270  -34.9600   23.4220 C   0  0  0  0  0  0  0  0  0  0  0  0
  -26.6020  -34.8530   22.3940 O   0  0  0  0  0  0  0  0  0  0  0  0
  -24.9940  -34.0680   24.9810 H   0  0  0  0  0  0  0  0  0  0  0  0
  -24.2100  -36.7590   23.0400 C   0  0  0  0  0  1  0  0  0  0  0  0
  -25.4360  -36.3500   23.8710 C   0  0  0  0  0  3  0  0  0  0  0  0
  -27.5570  -37.2310   24.7410 C   0  0  0  0  0  1  0  0  0  0  0  0
  -26.4740  -37.4000   23.7760 N   0  0  0  0  0  0  0  0  0  0  0  0
  -26.0680  -38.3220   23.9120 H   0  0  0  0  0  0  0  0  0  0  0  0
  1  7  1  0
  1 48  1  0
  2  1  1  0
  4  3  1  0
  5  6  1  0
  6 18  1  0
  6  3  2  0
  7  4  2  0
  8  5  2  0
  8  7  1  0
  9  8  1  0
 10 18  1  0
 11 16  1  0
 12 13  1  0
 12 11  1  0
 14 13  1  0
 14 23  1  0
 14 15  1  0
 16 10  1  0
 16 15  1  0
 17 10  2  0
 18 19  1  0
 20 21  2  0
 21 40  1  0
 22 21  1  0
 22 25  1  0
 23 24  1  0
 23 20  1  0
 24 22  2  0
 25 26  1  0
 26 27  2  0
 28 31  1  0
 28 27  1  0
 29 28  2  0
 30 29  1  0
 30 25  2  0
 31 32  1  0
 32 33  1  0
 33 34  2  0
 35 34  1  0
 35 39  1  0
 36 35  2  0
 37 32  2  0
 37 36  1  0
 38 37  1  0
 40 41  1  0
 41 44  1  0
 41 43  1  0
 42 40  2  0
 45 20  1  0
 45 46  1  0
 47 45  1  0
 49 48  1  0
 49 51  1  0
 50 49  2  0
 52 51  1  0
 53 64  2  0
 54 52  1  0
 54 59  1  0
 55 63  1  0
 55 65  1  0
 56 62  1  0
 56 58  1  0
 57 63  1  0
 58 57  1  0
 59 58  2  0
 60 61  1  0
 60 54  2  0
 61 56  2  0
 62 55  1  0
 63 53  1  0
 65 67  2  0
 66 65  1  0
 68 66  1  0
 69 78  2  0
 69 74  1  0
 70 66  1  0
 70 74  1  0
 71 70  1  0
 72 73  1  0
 72 71  1  0
 73 69  1  0
 74 75  2  0
 75 76  1  0
 77 76  2  0
 78 77  1  0
 79 53  1  0
 79 84  1  0
 79 80  1  0
 80 83  1  1
 80 81  1  0
 82 80  1  0
 84 87  1  0
 85 89  1  0
 85 84  1  0
 86 85  2  0
 89 88  1  0
 91 89  1  0
 91 92  1  0
 91 90  1  0
M  ISO  4  10 100  18 100  51 101  52 101
M  END
>  <TORSDO>  (66) 
F 20

>  <SCORE>  (66) 
-13.521

>  <name>  (66) 
65

>  <ligand_id>  (66) 
65

>  <original_smiles>  (66) 
[H]c1c([H])c([H])c2c(c1[H])C([H])([H])C([H])([H])C([H])([H])C2([H])N([H])C(=O)C1([H])N(C(=O)C([H])(N([H])C(=O)C([H])(N([H])C([H])([H])[H])C([H])([H])[H])C(C([H])([H])[H])(C([H])([H])[H])C([H])([H])[H])C([H])([H])c2c([H])c(OC([H])([H])C(=O)C([H])([H])N([H])c3c([H])c([H])c(N([H])C(=O)N4C([H])([H])C([H])([H])C([H])([H])C([H])(n5nc(-c6c([H])c([H])c(Oc7c([H])c([H])c(F)c([H])c7F)c([H])c6[H])c(C(=O)N([H])[H])c5N([H])[H])C4([H])[H])c([H])c3F)c([H])c([H])c2C1([H])[H]

>  <smiles>  (66) 
[H]c1c([H])c([H])c2c(c1[H])C([H])([H])C([H])([H])C([H])([H])C2([H])N([H])C(=O)C1([H])N(C(=O)C([H])(N([H])C(=O)C([H])(N([H])C([H])([H])[H])C([H])([H])[H])C(C([H])([H])[H])(C([H])([H])[H])C([H])([H])[H])C([H])([H])c2c([H])c(OC([H])([H])C(=O)C([H])([H])N([H])c3c([H])c([H])c(N([H])C(=O)N4C([H])([H])C([H])([H])C([H])([H])C([H])(n5nc(-c6c([H])c([H])c(Oc7c([H])c([H])c(F)c([H])c7F)c([H])c6[H])c(C(=O)N([H])[H])c5N([H])[H])C4([H])[H])c([H])c3F)c([H])c([H])c2C1([H])[H]

$$$$
66:0:0
     RDKit          3D

 94102  0  0  1  0  0  0  0  0999 V2000
  -28.8370  -20.5170   20.8250 C   0  0  0  0  0  0  0  0  0  0  0  0
  -29.1760  -21.7780   20.4810 N   0  0  0  0  0  0  0  0  0  0  0  0
  -27.6970  -20.2500   21.2140 O   0  0  0  0  0  0  0  0  0  0  0  0
  -30.1050  -21.9610   20.1280 H   0  0  0  0  0  0  0  0  0  0  0  0
  -32.2690  -18.8130   20.8680 C   0  0  0  0  0  3  0  0  0  0  0  0
  -31.2640  -19.7980   20.8440 C   0  0  0  0  0  3  0  0  0  0  0  0
  -31.9330  -17.4510   20.7990 C   0  0  0  0  0  3  0  0  0  0  0  0
  -29.8990  -19.4370   20.7450 C   0  0  0  0  0  0  0  0  0  0  0  0
  -30.5800  -17.0470   20.6850 C   0  0  0  0  0  0  0  0  0  0  0  0
  -29.5710  -18.0460   20.6680 C   0  0  0  0  0  0  0  0  0  0  0  0
  -28.2810  -17.6390   20.5750 F   0  0  0  0  0  0  0  0  0  0  0  0
  -30.8530  -14.6260   20.0670 C   0  0  0  0  0  0  0  0  0  0  0  0
  -30.4900  -12.4620   18.9340 C   0  0  0  0  0  2  0  0  0  0  0  0
  -29.4840  -12.6580   17.7820 C   0  0  0  0  0  2  0  0  0  0  0  0
  -28.0390  -12.5030   18.2950 C   0  0  0  0  0  2  0  0  0  0  0  0
  -27.7630  -13.3380   19.5740 C   0  0  0  0  0  3  0  0  0  0  0  0
  -28.8820  -13.1410   20.6230 C   0  0  0  0  0  2  0  0  0  0  0  0
  -30.1680  -13.4520   19.9770 N   0  0  0  0  0  0  0  0  0  0  0  0
  -31.9540  -14.7750   19.5320 O   0  0  0  0  0  0  0  0  0  0  0  0
  -30.1920  -15.6620   20.6310 N   0  0  0  0  0  0  0  0  0  0  0  0
  -29.2450  -15.4680   20.9170 H   0  0  0  0  0  0  0  0  0  0  0  0
  -25.4140  -13.9220   20.4410 C   0  0  0  0  0  0  0  0  0  0  0  0
  -24.3680  -13.1380   20.8500 C   0  0  0  0  0  0  0  0  0  0  0  0
  -24.8260  -11.7880   20.7580 C   0  0  0  0  0  0  0  0  0  0  0  0
  -26.4420  -13.0480   20.1260 N   0  0  0  0  0  0  0  0  0  0  0  0
  -26.0970  -11.7590   20.3750 N   0  0  0  0  0  0  0  0  0  0  0  0
  -24.1110  -10.5210   20.9580 C   0  0  0  0  0  0  0  0  0  0  0  0
  -24.5460   -9.5690   21.9070 C   0  0  0  0  0  3  0  0  0  0  0  0
  -23.8320   -8.3670   22.0940 C   0  0  0  0  0  3  0  0  0  0  0  0
  -22.6680   -8.1060   21.3320 C   0  0  0  0  0  0  0  0  0  0  0  0
  -22.2520   -9.0470   20.3730 C   0  0  0  0  0  3  0  0  0  0  0  0
  -22.9670  -10.2410   20.1840 C   0  0  0  0  0  3  0  0  0  0  0  0
  -21.9250   -6.9550   21.4270 O   0  0  0  0  0  0  0  0  0  0  0  0
  -21.8220   -6.2600   22.6060 C   0  0  0  0  0  0  0  0  0  0  0  0
  -21.2750   -6.8430   23.7690 C   0  0  0  0  0  3  0  0  0  0  0  0
  -21.1240   -6.0710   24.9390 C   0  0  0  0  0  3  0  0  0  0  0  0
  -21.5100   -4.7180   24.9460 C   0  0  0  0  0  0  0  0  0  0  0  0
  -22.0510   -4.1350   23.7870 C   0  0  0  0  0  3  0  0  0  0  0  0
  -22.2030   -4.9030   22.6190 C   0  0  0  0  0  0  0  0  0  0  0  0
  -22.7050   -4.3300   21.4980 F   0  0  0  0  0  0  0  0  0  0  0  0
  -21.3590   -3.9750   26.0670 F   0  0  0  0  0  0  0  0  0  0  0  0
  -22.9890  -13.6080   21.2170 C   0  0  0  0  0  0  0  0  0  0  0  0
  -22.3090  -12.8810   22.0960 N   0  0  0  0  0  0  0  0  0  0  0  0
  -22.5260  -14.6510   20.7600 O   0  0  0  0  0  0  0  0  0  0  0  0
  -22.6980  -12.0350   22.4870 H   0  0  0  0  0  0  0  0  0  0  0  0
  -21.3860  -13.1750   22.3840 H   0  0  0  0  0  0  0  0  0  0  0  0
  -25.5690  -15.2970   20.2920 N   0  0  0  0  0  0  0  0  0  0  0  0
  -24.8150  -15.9480   20.4810 H   0  0  0  0  0  0  0  0  0  0  0  0
  -26.4140  -15.7550   19.9740 H   0  0  0  0  0  0  0  0  0  0  0  0
  -28.2860  -22.9430   20.6660 C   0  0  0  0  0  2  0  0  0  0  0  0
  -28.9330  -24.3040   20.3190 C   0  0  0  0  0  0  0  0  0  0  0  0
  -29.9180  -24.3730   19.5740 O   0  0  0  0  0  0  0  0  0  0  0  0
  -28.3000  -25.5590   20.9690 C   0  0  0  0  0  2  0  0  0  0  0  0
  -28.5000  -26.7860   20.2250 O   0  0  0  0  0  0  0  0  0  0  0  0
  -24.6680  -31.9580   23.3050 C   0  0  0  0  0  0  0  0  0  0  0  0
  -27.3630  -27.5660   20.1930 C   0  0  0  0  0  0  0  0  0  0  0  0
  -23.4830  -30.5590   21.6450 C   0  0  0  0  0  3  0  0  0  0  0  0
  -24.9580  -29.0560   20.2050 C   0  0  0  0  0  0  0  0  0  0  0  0
  -26.0050  -30.9490   21.4570 C   0  0  0  0  0  2  0  0  0  0  0  0
  -26.1110  -29.5850   20.8010 C   0  0  0  0  0  0  0  0  0  0  0  0
  -27.3200  -28.8490   20.7890 C   0  0  0  0  0  3  0  0  0  0  0  0
  -26.1990  -27.0590   19.5810 C   0  0  0  0  0  3  0  0  0  0  0  0
  -24.9980  -27.7930   19.5890 C   0  0  0  0  0  3  0  0  0  0  0  0
  -23.7030  -29.8980   20.2590 C   0  0  0  0  0  2  0  0  0  0  0  0
  -24.7360  -31.1690   22.1950 N   0  0  0  0  0  0  0  0  0  0  0  0
  -23.5820  -32.2110   23.8460 O   0  0  0  0  0  0  0  0  0  0  0  0
  -22.8400  -29.5200   22.5940 C   0  0  0  0  0  0  0  0  0  0  0  0
  -21.5190  -29.3220   22.4600 N   0  0  0  0  0  0  0  0  0  0  0  0
  -23.5290  -28.8960   23.4050 O   0  0  0  0  0  0  0  0  0  0  0  0
  -21.0240  -29.8780   21.7770 H   0  0  0  0  0  0  0  0  0  0  0  0
  -18.1550  -28.0900   22.9420 C   0  0  0  0  0  0  0  0  0  0  0  0
  -20.7110  -28.3670   23.2190 C   0  0  0  0  0  3  0  0  0  0  0  0
  -20.8270  -26.9440   22.6220 C   0  0  0  0  0  2  0  0  0  0  0  0
  -19.7280  -26.6260   21.6030 C   0  0  0  0  0  2  0  0  0  0  0  0
  -18.3440  -26.7510   22.2490 C   0  0  0  0  0  2  0  0  0  0  0  0
  -19.2670  -28.8560   23.3830 C   0  0  0  0  0  0  0  0  0  0  0  0
  -19.0380  -30.1100   23.9900 C   0  0  0  0  0  3  0  0  0  0  0  0
  -17.7280  -30.5980   24.1620 C   0  0  0  0  0  3  0  0  0  0  0  0
  -16.6310  -29.8290   23.7380 C   0  0  0  0  0  3  0  0  0  0  0  0
  -16.8450  -28.5770   23.1340 C   0  0  0  0  0  3  0  0  0  0  0  0
  -25.9440  -32.5980   23.9350 C   0  0  0  0  0  3  0  0  0  0  0  0
  -26.4350  -31.8540   25.2370 C   0  0  1  0  0  0  0  0  0  0  0  0
  -25.3210  -31.6390   26.2880 C   0  0  0  0  0  1  0  0  0  0  0  0
  -27.0240  -30.4680   24.8850 C   0  0  0  0  0  1  0  0  0  0  0  0
  -27.5720  -32.6620   25.9050 C   0  0  0  0  0  1  0  0  0  0  0  0
  -25.6370  -34.0040   24.2240 N   0  0  0  0  0  0  0  0  0  0  0  0
  -25.9930  -35.0360   23.4460 C   0  0  0  0  0  0  0  0  0  0  0  0
  -26.6860  -34.9030   22.4330 O   0  0  0  0  0  0  0  0  0  0  0  0
  -25.0270  -34.1840   25.0070 H   0  0  0  0  0  0  0  0  0  0  0  0
  -24.2950  -36.8340   22.9950 C   0  0  0  0  0  1  0  0  0  0  0  0
  -25.5050  -36.4380   23.8570 C   0  0  0  0  0  3  0  0  0  0  0  0
  -27.6150  -37.3260   24.7430 C   0  0  0  0  0  1  0  0  0  0  0  0
  -26.5500  -37.4790   23.7550 N   0  0  0  0  0  0  0  0  0  0  0  0
  -26.1470  -38.4060   23.8650 H   0  0  0  0  0  0  0  0  0  0  0  0
  1  3  2  0
  2 50  1  0
  2  1  1  0
  4  2  1  0
  6  5  1  0
  7  5  2  0
  8  1  1  0
  8  6  2  0
  9  7  1  0
 10  9  2  0
 10  8  1  0
 11 10  1  0
 12 20  1  0
 13 18  1  0
 14 15  1  0
 14 13  1  0
 16 15  1  0
 16 25  1  0
 16 17  1  0
 18 12  1  0
 18 17  1  0
 19 12  2  0
 20  9  1  0
 20 21  1  0
 22 23  2  0
 23 42  1  0
 24 23  1  0
 24 27  1  0
 25 26  1  0
 25 22  1  0
 26 24  2  0
 27 28  1  0
 28 29  2  0
 30 33  1  0
 30 29  1  0
 31 30  2  0
 32 31  1  0
 32 27  2  0
 33 34  1  0
 34 39  2  0
 34 35  1  0
 35 36  2  0
 36 37  1  0
 37 41  1  0
 38 37  2  0
 39 38  1  0
 40 39  1  0
 42 43  1  0
 43 46  1  0
 43 45  1  0
 44 42  2  0
 47 22  1  0
 47 48  1  0
 49 47  1  0
 51 50  1  0
 51 53  1  0
 52 51  2  0
 54 53  1  0
 55 66  2  0
 56 54  1  0
 56 61  1  0
 57 65  1  0
 57 67  1  0
 58 64  1  0
 58 60  1  0
 59 65  1  0
 60 59  1  0
 61 60  2  0
 62 63  1  0
 62 56  2  0
 63 58  2  0
 64 57  1  0
 65 55  1  0
 67 69  2  0
 68 67  1  0
 70 68  1  0
 71 80  2  0
 71 76  1  0
 72 68  1  0
 72 76  1  0
 73 72  1  0
 74 75  1  0
 74 73  1  0
 75 71  1  0
 76 77  2  0
 77 78  1  0
 79 78  2  0
 80 79  1  0
 81 55  1  0
 81 86  1  0
 81 82  1  0
 82 85  1  1
 82 83  1  0
 84 82  1  0
 86 89  1  0
 87 91  1  0
 87 86  1  0
 88 87  2  0
 91 90  1  0
 93 91  1  0
 93 94  1  0
 93 92  1  0
M  ISO  4  12 100  20 100  53 101  54 101
M  END
>  <TORSDO>  (67) 
F 20

>  <SCORE>  (67) 
-13.451

>  <name>  (67) 
66

>  <ligand_id>  (67) 
66

>  <original_smiles>  (67) 
[H]c1c([H])c(C(=O)N([H])C([H])([H])C(=O)C([H])([H])Oc2c([H])c([H])c3c(c2[H])C([H])([H])N(C(=O)C([H])(N([H])C(=O)C([H])(N([H])C([H])([H])[H])C([H])([H])[H])C(C([H])([H])[H])(C([H])([H])[H])C([H])([H])[H])C([H])(C(=O)N([H])C2([H])c4c([H])c([H])c([H])c([H])c4C([H])([H])C([H])([H])C2([H])[H])C3([H])[H])c(F)c(N([H])C(=O)N2C([H])([H])C([H])([H])C([H])([H])C([H])(n3nc(-c4c([H])c([H])c(Oc5c([H])c([H])c(F)c([H])c5F)c([H])c4[H])c(C(=O)N([H])[H])c3N([H])[H])C2([H])[H])c1[H]

>  <smiles>  (67) 
[H]c1c([H])c(C(=O)N([H])C([H])([H])C(=O)C([H])([H])Oc2c([H])c([H])c3c(c2[H])C([H])([H])N(C(=O)C([H])(N([H])C(=O)C([H])(N([H])C([H])([H])[H])C([H])([H])[H])C(C([H])([H])[H])(C([H])([H])[H])C([H])([H])[H])C([H])(C(=O)N([H])C2([H])c4c([H])c([H])c([H])c([H])c4C([H])([H])C([H])([H])C2([H])[H])C3([H])[H])c(F)c(N([H])C(=O)N2C([H])([H])C([H])([H])C([H])([H])C([H])(n3nc(-c4c([H])c([H])c(Oc5c([H])c([H])c(F)c([H])c5F)c([H])c4[H])c(C(=O)N([H])[H])c3N([H])[H])C2([H])[H])c1[H]

$$$$
67:0:0
     RDKit          3D

 94103  0  0  1  0  0  0  0  0999 V2000
  -26.8010  -23.6560   20.1730 C   0  0  0  0  0  0  0  0  0  0  0  0
  -26.9770  -22.8500   21.4490 C   0  0  0  0  0  2  0  0  0  0  0  0
  -27.5540  -21.4470   21.1720 C   0  0  0  0  0  2  0  0  0  0  0  0
  -29.1680  -22.7190   19.6510 C   0  0  0  0  0  2  0  0  0  0  0  0
  -28.0510  -23.8230   19.3010 C   0  0  0  0  0  3  0  0  0  0  0  0
  -28.6530  -21.4070   20.1850 N   0  0  0  0  0  0  0  0  0  0  0  0
  -25.6860  -24.0560   19.8300 O   0  0  0  0  0  0  0  0  0  0  0  0
  -29.2220  -19.2800   18.9270 C   0  0  0  0  0  3  0  0  0  0  0  0
  -29.5870  -17.8900   18.9450 C   0  0  0  0  0  3  0  0  0  0  0  0
  -30.1960  -18.0940   21.2570 C   0  0  0  0  0  3  0  0  0  0  0  0
  -29.2890  -20.1050   20.0900 C   0  0  0  0  0  0  0  0  0  0  0  0
  -30.0210  -17.2450   20.1410 C   0  0  0  0  0  0  0  0  0  0  0  0
  -29.8800  -19.4810   21.2310 C   0  0  0  0  0  0  0  0  0  0  0  0
  -30.1220  -20.2000   22.3540 F   0  0  0  0  0  0  0  0  0  0  0  0
  -30.8450  -14.7800   19.8400 C   0  0  0  0  0  0  0  0  0  0  0  0
  -30.6450  -12.4600   18.9610 C   0  0  0  0  0  2  0  0  0  0  0  0
  -29.6240  -12.5010   17.8020 C   0  0  0  0  0  2  0  0  0  0  0  0
  -28.1860  -12.3360   18.3350 C   0  0  0  0  0  2  0  0  0  0  0  0
  -27.8840  -13.2660   19.5400 C   0  0  0  0  0  3  0  0  0  0  0  0
  -29.0140  -13.2030   20.5930 C   0  0  0  0  0  2  0  0  0  0  0  0
  -30.2770  -13.5340   19.9090 N   0  0  0  0  0  0  0  0  0  0  0  0
  -31.9290  -14.9690   19.2800 O   0  0  0  0  0  0  0  0  0  0  0  0
  -30.0990  -15.7980   20.3620 N   0  0  0  0  0  0  0  0  0  0  0  0
  -29.3750  -15.4390   20.9660 H   0  0  0  0  0  0  0  0  0  0  0  0
  -25.5740  -13.8810   20.4890 C   0  0  0  0  0  0  0  0  0  0  0  0
  -24.5220  -13.1120   20.9070 C   0  0  0  0  0  0  0  0  0  0  0  0
  -24.9430  -11.7550   20.7620 C   0  0  0  0  0  0  0  0  0  0  0  0
  -26.5710  -12.9900   20.1180 N   0  0  0  0  0  0  0  0  0  0  0  0
  -26.2010  -11.7030   20.3410 N   0  0  0  0  0  0  0  0  0  0  0  0
  -24.2020  -10.5010   20.9470 C   0  0  0  0  0  0  0  0  0  0  0  0
  -24.5980   -9.5420   21.9050 C   0  0  0  0  0  3  0  0  0  0  0  0
  -23.8560   -8.3530   22.0780 C   0  0  0  0  0  3  0  0  0  0  0  0
  -22.7020   -8.1160   21.2930 C   0  0  0  0  0  0  0  0  0  0  0  0
  -22.3260   -9.0620   20.3240 C   0  0  0  0  0  3  0  0  0  0  0  0
  -23.0690  -10.2420   20.1500 C   0  0  0  0  0  3  0  0  0  0  0  0
  -21.9380   -6.9760   21.3730 O   0  0  0  0  0  0  0  0  0  0  0  0
  -21.7200   -6.3390   22.5670 C   0  0  0  0  0  0  0  0  0  0  0  0
  -21.1260   -6.9970   23.6670 C   0  0  0  0  0  3  0  0  0  0  0  0
  -20.8580   -6.2840   24.8510 C   0  0  0  0  0  3  0  0  0  0  0  0
  -21.1700   -4.9140   24.9370 C   0  0  0  0  0  0  0  0  0  0  0  0
  -21.7580   -4.2560   23.8420 C   0  0  0  0  0  3  0  0  0  0  0  0
  -22.0290   -4.9660   22.6580 C   0  0  0  0  0  0  0  0  0  0  0  0
  -22.5750   -4.3230   21.5970 F   0  0  0  0  0  0  0  0  0  0  0  0
  -20.9060   -4.2270   26.0730 F   0  0  0  0  0  0  0  0  0  0  0  0
  -23.1680  -13.6060   21.3320 C   0  0  0  0  0  0  0  0  0  0  0  0
  -22.5110  -12.8880   22.2380 N   0  0  0  0  0  0  0  0  0  0  0  0
  -22.7050  -14.6570   20.8970 O   0  0  0  0  0  0  0  0  0  0  0  0
  -22.8970  -12.0320   22.6070 H   0  0  0  0  0  0  0  0  0  0  0  0
  -21.6130  -13.2040   22.5720 H   0  0  0  0  0  0  0  0  0  0  0  0
  -25.7600  -15.2580   20.3830 N   0  0  0  0  0  0  0  0  0  0  0  0
  -25.0270  -15.9240   20.6100 H   0  0  0  0  0  0  0  0  0  0  0  0
  -26.6070  -15.7020   20.0540 H   0  0  0  0  0  0  0  0  0  0  0  0
  -28.3920  -25.3280   18.7950 C   0  0  0  0  0  2  0  0  0  0  0  0
  -28.3310  -26.6150   19.5390 O   0  0  0  0  0  0  0  0  0  0  0  0
  -24.5730  -31.6720   23.0690 C   0  0  0  0  0  0  0  0  0  0  0  0
  -27.1930  -27.4430   19.5520 C   0  0  0  0  0  0  0  0  0  0  0  0
  -23.3450  -30.3590   21.3740 C   0  0  0  0  0  3  0  0  0  0  0  0
  -24.7840  -28.9780   19.7680 C   0  0  0  0  0  0  0  0  0  0  0  0
  -25.8640  -30.7690   21.1210 C   0  0  0  0  0  2  0  0  0  0  0  0
  -25.9580  -29.4470   20.3710 C   0  0  0  0  0  0  0  0  0  0  0  0
  -27.1590  -28.6800   20.2730 C   0  0  0  0  0  3  0  0  0  0  0  0
  -26.0050  -27.0590   18.8990 C   0  0  0  0  0  3  0  0  0  0  0  0
  -24.8100  -27.7880   19.0280 C   0  0  0  0  0  3  0  0  0  0  0  0
  -23.5200  -29.7980   19.9390 C   0  0  0  0  0  2  0  0  0  0  0  0
  -24.6140  -30.9490   21.9100 N   0  0  0  0  0  0  0  0  0  0  0  0
  -23.5050  -31.8710   23.6690 O   0  0  0  0  0  0  0  0  0  0  0  0
  -22.7570  -29.2490   22.2780 C   0  0  0  0  0  0  0  0  0  0  0  0
  -21.4420  -28.9980   22.1510 N   0  0  0  0  0  0  0  0  0  0  0  0
  -23.4810  -28.6210   23.0530 O   0  0  0  0  0  0  0  0  0  0  0  0
  -20.9150  -29.5590   21.4970 H   0  0  0  0  0  0  0  0  0  0  0  0
  -18.1690  -27.5150   22.5560 C   0  0  0  0  0  0  0  0  0  0  0  0
  -20.6940  -27.9700   22.8770 C   0  0  0  0  0  3  0  0  0  0  0  0
  -20.9210  -26.5740   22.2510 C   0  0  0  0  0  2  0  0  0  0  0  0
  -19.8610  -26.1990   21.2100 C   0  0  0  0  0  2  0  0  0  0  0  0
  -18.4620  -26.2100   21.8340 C   0  0  0  0  0  2  0  0  0  0  0  0
  -19.2180  -28.3460   23.0330 C   0  0  0  0  0  0  0  0  0  0  0  0
  -18.8890  -29.5640   23.6700 C   0  0  0  0  0  3  0  0  0  0  0  0
  -17.5460  -29.9520   23.8310 C   0  0  0  0  0  3  0  0  0  0  0  0
  -16.5130  -29.1180   23.3710 C   0  0  0  0  0  3  0  0  0  0  0  0
  -16.8240  -27.9010   22.7410 C   0  0  0  0  0  3  0  0  0  0  0  0
  -25.8600  -32.3000   23.6860 C   0  0  0  0  0  3  0  0  0  0  0  0
  -25.5190  -33.6590   24.1310 N   0  0  0  0  0  0  0  0  0  0  0  0
  -25.7780  -34.7740   23.4390 C   0  0  0  0  0  0  0  0  0  0  0  0
  -26.3980  -34.7710   22.3720 O   0  0  0  0  0  0  0  0  0  0  0  0
  -24.9560  -33.7330   24.9660 H   0  0  0  0  0  0  0  0  0  0  0  0
  -23.9650  -36.5140   23.3170 C   0  0  0  0  0  1  0  0  0  0  0  0
  -25.2680  -36.1060   24.0230 C   0  0  0  0  0  3  0  0  0  0  0  0
  -27.4130  -37.0210   24.7910 C   0  0  0  0  0  1  0  0  0  0  0  0
  -26.2510  -37.2070   23.9280 N   0  0  0  0  0  0  0  0  0  0  0  0
  -25.8190  -38.0960   24.1670 H   0  0  0  0  0  0  0  0  0  0  0  0
  -26.4530  -31.4560   24.8820 C   0  0  1  0  0  0  0  0  0  0  0  0
  -25.4120  -31.1070   25.9740 C   0  0  0  0  0  1  0  0  0  0  0  0
  -27.0570  -30.1280   24.3710 C   0  0  0  0  0  1  0  0  0  0  0  0
  -27.6080  -32.2370   25.5530 C   0  0  0  0  0  1  0  0  0  0  0  0
  1  2  1  0
  3  2  1  0
  4  6  1  0
  5 53  1  0
  5  4  1  0
  5  1  1  0
  6  3  1  0
  7  1  2  0
  8  9  2  0
  8 11  1  0
  9 12  1  0
 11  6  1  0
 11 13  2  0
 12 23  1  0
 12 10  2  0
 13 10  1  0
 13 14  1  0
 15 21  1  0
 15 23  1  0
 16 21  1  0
 17 18  1  0
 17 16  1  0
 19 18  1  0
 19 28  1  0
 19 20  1  0
 21 20  1  0
 22 15  2  0
 23 24  1  0
 25 26  2  0
 26 45  1  0
 27 26  1  0
 27 30  1  0
 28 29  1  0
 28 25  1  0
 29 27  2  0
 30 31  1  0
 31 32  2  0
 33 36  1  0
 33 32  1  0
 34 33  2  0
 35 34  1  0
 35 30  2  0
 36 37  1  0
 37 42  2  0
 37 38  1  0
 38 39  2  0
 39 40  1  0
 40 44  1  0
 41 40  2  0
 42 41  1  0
 43 42  1  0
 45 46  1  0
 46 49  1  0
 46 48  1  0
 47 45  2  0
 50 25  1  0
 50 51  1  0
 52 50  1  0
 53 54  1  0
 54 56  1  0
 55 66  2  0
 56 61  1  0
 57 65  1  0
 57 67  1  0
 58 64  1  0
 58 60  1  0
 59 65  1  0
 60 59  1  0
 61 60  2  0
 62 63  1  0
 62 56  2  0
 63 58  2  0
 64 57  1  0
 65 55  1  0
 67 69  2  0
 68 67  1  0
 70 68  1  0
 71 80  2  0
 71 76  1  0
 72 68  1  0
 72 76  1  0
 73 72  1  0
 74 75  1  0
 74 73  1  0
 75 71  1  0
 76 77  2  0
 77 78  1  0
 79 78  2  0
 80 79  1  0
 81 55  1  0
 81 82  1  0
 81 91  1  0
 82 85  1  0
 83 87  1  0
 83 82  1  0
 84 83  2  0
 87 86  1  0
 89 87  1  0
 89 90  1  0
 89 88  1  0
 91 94  1  1
 91 92  1  0
 93 91  1  0
M  ISO  4  15 100  23 100  53 101  54 101
M  END
>  <TORSDO>  (68) 
F 18

>  <SCORE>  (68) 
-13.267

>  <name>  (68) 
67

>  <ligand_id>  (68) 
67

>  <original_smiles>  (68) 
[H]c1c([H])c([H])c2c(c1[H])C([H])([H])C([H])([H])C([H])([H])C2([H])N([H])C(=O)C1([H])N(C(=O)C([H])(N([H])C(=O)C([H])(N([H])C([H])([H])[H])C([H])([H])[H])C(C([H])([H])[H])(C([H])([H])[H])C([H])([H])[H])C([H])([H])c2c([H])c(OC([H])([H])C3([H])C(=O)C([H])([H])C([H])([H])N(c4c([H])c([H])c(N([H])C(=O)N5C([H])([H])C([H])([H])C([H])([H])C([H])(n6nc(-c7c([H])c([H])c(Oc8c([H])c([H])c(F)c([H])c8F)c([H])c7[H])c(C(=O)N([H])[H])c6N([H])[H])C5([H])[H])c([H])c4F)C3([H])[H])c([H])c([H])c2C1([H])[H]

>  <smiles>  (68) 
[H]c1c([H])c([H])c2c(c1[H])C([H])([H])C([H])([H])C([H])([H])C2([H])N([H])C(=O)C1([H])N(C(=O)C([H])(N([H])C(=O)C([H])(N([H])C([H])([H])[H])C([H])([H])[H])C(C([H])([H])[H])(C([H])([H])[H])C([H])([H])[H])C([H])([H])c2c([H])c(OC([H])([H])C3([H])C(=O)C([H])([H])C([H])([H])N(c4c([H])c([H])c(N([H])C(=O)N5C([H])([H])C([H])([H])C([H])([H])C([H])(n6nc(-c7c([H])c([H])c(Oc8c([H])c([H])c(F)c([H])c8F)c([H])c7[H])c(C(=O)N([H])[H])c6N([H])[H])C5([H])[H])c([H])c4F)C3([H])[H])c([H])c([H])c2C1([H])[H]

$$$$
68:0:0
     RDKit          3D

 95104  0  0  1  0  0  0  0  0999 V2000
  -28.5840  -20.5930   19.8960 C   0  0  0  0  0  3  0  0  0  0  0  0
  -30.6520  -21.2280   21.4230 C   0  0  0  0  0  3  0  0  0  0  0  0
  -29.4180  -19.2880   20.3670 C   0  0  0  0  0  0  0  0  0  0  0  0
  -28.7240  -22.1920   20.1170 C   0  0  0  0  0  0  0  0  0  0  0  0
  -29.8330  -22.3320   20.9910 C   0  0  0  0  0  0  0  0  0  0  0  0
  -30.4880  -19.8290   21.1270 C   0  0  0  0  0  0  0  0  0  0  0  0
  -31.3800  -18.9690   21.6760 F   0  0  0  0  0  0  0  0  0  0  0  0
  -30.9300  -24.4980   21.0070 C   0  0  0  0  0  0  0  0  0  0  0  0
  -30.9590  -25.9520   21.5060 C   0  0  0  0  0  2  0  0  0  0  0  0
  -30.4830  -26.1240   22.9560 C   0  0  0  0  0  2  0  0  0  0  0  0
  -29.1560  -25.3980   23.1640 C   0  0  0  0  0  2  0  0  0  0  0  0
  -29.2820  -23.9130   22.7880 C   0  0  0  0  0  2  0  0  0  0  0  0
  -30.0530  -23.6220   21.5610 N   0  0  0  0  0  0  0  0  0  0  0  0
  -31.6950  -24.1840   20.0900 O   0  0  0  0  0  0  0  0  0  0  0  0
  -29.2570  -17.4410   20.3320 C   0  0  0  0  0  0  0  0  0  0  0  0
  -28.0580  -17.1480   20.0370 N   0  0  0  0  0  0  0  0  0  0  0  0
  -27.5110  -17.9880   19.8960 H   0  0  0  0  0  0  0  0  0  0  0  0
  -30.2720  -15.8130   20.5580 C   0  0  0  0  0  0  0  0  0  0  0  0
  -30.5120  -13.2130   19.9070 C   0  0  0  0  0  2  0  0  0  0  0  0
  -29.7210  -12.7380   18.6510 C   0  0  0  0  0  2  0  0  0  0  0  0
  -28.2740  -12.3690   19.0110 C   0  0  0  0  0  2  0  0  0  0  0  0
  -27.6680  -13.4040   19.9860 C   0  0  0  0  0  3  0  0  0  0  0  0
  -28.6070  -13.7940   21.1490 C   0  0  0  0  0  2  0  0  0  0  0  0
  -29.8140  -14.4150   20.5530 N   0  0  0  0  0  0  0  0  0  0  0  0
  -31.5200  -15.7900   20.5080 O   0  0  0  0  0  0  0  0  0  0  0  0
  -25.2760  -13.9190   20.6480 C   0  0  0  0  0  0  0  0  0  0  0  0
  -24.1980  -13.1350   20.9400 C   0  0  0  0  0  0  0  0  0  0  0  0
  -24.6660  -11.7850   20.8960 C   0  0  0  0  0  0  0  0  0  0  0  0
  -26.3270  -13.0510   20.4300 N   0  0  0  0  0  0  0  0  0  0  0  0
  -25.9710  -11.7560   20.6500 N   0  0  0  0  0  0  0  0  0  0  0  0
  -23.9270  -10.5190   21.0130 C   0  0  0  0  0  0  0  0  0  0  0  0
  -24.3150   -9.5150   21.9280 C   0  0  0  0  0  3  0  0  0  0  0  0
  -23.5720   -8.3200   22.0380 C   0  0  0  0  0  3  0  0  0  0  0  0
  -22.4250   -8.1190   21.2330 C   0  0  0  0  0  0  0  0  0  0  0  0
  -22.0600   -9.1100   20.3070 C   0  0  0  0  0  3  0  0  0  0  0  0
  -22.8010  -10.2970   20.1940 C   0  0  0  0  0  3  0  0  0  0  0  0
  -21.6600   -6.9770   21.2520 O   0  0  0  0  0  0  0  0  0  0  0  0
  -21.5690   -6.1900   22.3720 C   0  0  0  0  0  0  0  0  0  0  0  0
  -21.1250   -6.7040   23.6120 C   0  0  0  0  0  3  0  0  0  0  0  0
  -20.9790   -5.8440   24.7180 C   0  0  0  0  0  3  0  0  0  0  0  0
  -21.2690   -4.4730   24.5870 C   0  0  0  0  0  0  0  0  0  0  0  0
  -21.7080   -3.9590   23.3550 C   0  0  0  0  0  3  0  0  0  0  0  0
  -21.8520   -4.8150   22.2490 C   0  0  0  0  0  0  0  0  0  0  0  0
  -22.2540   -4.3110   21.0560 F   0  0  0  0  0  0  0  0  0  0  0  0
  -21.1230   -3.6460   25.6480 F   0  0  0  0  0  0  0  0  0  0  0  0
  -22.7900  -13.6060   21.1480 C   0  0  0  0  0  0  0  0  0  0  0  0
  -22.0210  -12.8950   21.9640 N   0  0  0  0  0  0  0  0  0  0  0  0
  -22.3810  -14.6370   20.6150 O   0  0  0  0  0  0  0  0  0  0  0  0
  -22.3680  -12.0590   22.4100 H   0  0  0  0  0  0  0  0  0  0  0  0
  -21.0720  -13.1890   22.1440 H   0  0  0  0  0  0  0  0  0  0  0  0
  -25.4520  -15.2950   20.5150 N   0  0  0  0  0  0  0  0  0  0  0  0
  -24.6920  -15.9580   20.6210 H   0  0  0  0  0  0  0  0  0  0  0  0
  -26.3310  -15.7420   20.2660 H   0  0  0  0  0  0  0  0  0  0  0  0
  -27.7940  -23.7670   19.6810 C   0  0  0  0  0  2  0  0  0  0  0  0
  -28.0030  -25.5230   19.7530 O   0  0  0  0  0  0  0  0  0  0  0  0
  -24.4700  -31.7100   22.8990 C   0  0  0  0  0  0  0  0  0  0  0  0
  -27.0170  -26.7310   19.7350 C   0  0  0  0  0  0  0  0  0  0  0  0
  -23.2660  -30.3070   21.2780 C   0  0  0  0  0  3  0  0  0  0  0  0
  -24.7080  -28.7160   19.7910 C   0  0  0  0  0  0  0  0  0  0  0  0
  -25.8360  -30.5120   21.0770 C   0  0  0  0  0  2  0  0  0  0  0  0
  -25.9120  -29.0910   20.3930 C   0  0  0  0  0  0  0  0  0  0  0  0
  -27.0500  -28.1250   20.3340 C   0  0  0  0  0  3  0  0  0  0  0  0
  -25.7700  -26.5750   19.0760 C   0  0  0  0  0  3  0  0  0  0  0  0
  -24.6750  -27.4910   19.1060 C   0  0  0  0  0  3  0  0  0  0  0  0
  -23.4770  -29.6320   19.8910 C   0  0  0  0  0  2  0  0  0  0  0  0
  -24.5500  -30.8760   21.8050 N   0  0  0  0  0  0  0  0  0  0  0  0
  -23.3850  -31.9700   23.4450 O   0  0  0  0  0  0  0  0  0  0  0  0
  -22.6090  -29.3000   22.2570 C   0  0  0  0  0  0  0  0  0  0  0  0
  -21.2770  -29.1130   22.1750 N   0  0  0  0  0  0  0  0  0  0  0  0
  -23.3120  -28.6770   23.0580 O   0  0  0  0  0  0  0  0  0  0  0  0
  -20.7620  -29.6700   21.5060 H   0  0  0  0  0  0  0  0  0  0  0  0
  -17.9460  -27.7710   22.7480 C   0  0  0  0  0  0  0  0  0  0  0  0
  -20.4990  -28.1420   22.9530 C   0  0  0  0  0  3  0  0  0  0  0  0
  -20.6440  -26.7170   22.3710 C   0  0  0  0  0  2  0  0  0  0  0  0
  -19.5340  -26.3560   21.3780 C   0  0  0  0  0  2  0  0  0  0  0  0
  -18.1620  -26.4360   22.0530 C   0  0  0  0  0  2  0  0  0  0  0  0
  -19.0420  -28.5790   23.1550 C   0  0  0  0  0  0  0  0  0  0  0  0
  -18.7840  -29.8200   23.7740 C   0  0  0  0  0  3  0  0  0  0  0  0
  -17.4630  -30.2610   23.9830 C   0  0  0  0  0  3  0  0  0  0  0  0
  -16.3810  -29.4550   23.5880 C   0  0  0  0  0  3  0  0  0  0  0  0
  -16.6240  -28.2100   22.9780 C   0  0  0  0  0  3  0  0  0  0  0  0
  -25.7350  -32.3860   23.5120 C   0  0  0  0  0  3  0  0  0  0  0  0
  -26.3410  -31.5770   24.7250 C   0  0  1  0  0  0  0  0  0  0  0  0
  -25.3090  -31.2440   25.8290 C   0  0  0  0  0  1  0  0  0  0  0  0
  -26.9620  -30.2420   24.2540 C   0  0  0  0  0  1  0  0  0  0  0  0
  -27.4850  -32.3880   25.3760 C   0  0  0  0  0  1  0  0  0  0  0  0
  -25.3620  -33.7440   23.9580 N   0  0  0  0  0  0  0  0  0  0  0  0
  -25.6530  -34.8790   23.3090 C   0  0  0  0  0  0  0  0  0  0  0  0
  -26.3160  -34.8980   22.2710 O   0  0  0  0  0  0  0  0  0  0  0  0
  -24.7660  -33.7990   24.7700 H   0  0  0  0  0  0  0  0  0  0  0  0
  -23.8620  -36.6480   23.1370 C   0  0  0  0  0  1  0  0  0  0  0  0
  -25.1210  -36.2050   23.8970 C   0  0  0  0  0  3  0  0  0  0  0  0
  -27.2340  -37.0880   24.7930 C   0  0  0  0  0  1  0  0  0  0  0  0
  -26.1170  -37.2990   23.8780 N   0  0  0  0  0  0  0  0  0  0  0  0
  -25.6830  -38.1890   24.1110 H   0  0  0  0  0  0  0  0  0  0  0  0
  1  4  2  0
  1  3  1  0
  3  6  2  0
  4  5  1  0
  5  2  2  0
  5 13  1  0
  6  2  1  0
  6  7  1  0
  8  9  1  0
  8 13  1  0
  9 10  1  0
 10 11  1  0
 12 11  1  0
 13 12  1  0
 14  8  2  0
 15  3  1  0
 15 18  1  0
 16 15  2  0
 17 16  1  0
 19 24  1  0
 20 21  1  0
 20 19  1  0
 22 21  1  0
 22 29  1  0
 22 23  1  0
 24 18  1  0
 24 23  1  0
 25 18  2  0
 26 27  2  0
 27 46  1  0
 28 27  1  0
 28 31  1  0
 29 26  1  0
 29 30  1  0
 30 28  2  0
 31 32  1  0
 32 33  2  0
 34 37  1  0
 34 33  1  0
 35 34  2  0
 36 35  1  0
 36 31  2  0
 37 38  1  0
 38 39  1  0
 39 40  2  0
 41 40  1  0
 41 45  1  0
 42 41  2  0
 43 38  2  0
 43 42  1  0
 44 43  1  0
 46 47  1  0
 47 50  1  0
 47 49  1  0
 48 46  2  0
 51 52  1  0
 51 26  1  0
 53 51  1  0
 54 55  1  0
 54  4  1  0
 56 67  2  0
 57 55  1  0
 57 62  1  0
 58 66  1  0
 58 68  1  0
 59 65  1  0
 59 61  1  0
 60 66  1  0
 61 60  1  0
 62 61  2  0
 63 64  1  0
 63 57  2  0
 64 59  2  0
 65 58  1  0
 66 56  1  0
 68 70  2  0
 69 68  1  0
 71 69  1  0
 72 81  2  0
 72 77  1  0
 73 69  1  0
 73 77  1  0
 74 73  1  0
 75 76  1  0
 75 74  1  0
 76 72  1  0
 77 78  2  0
 78 79  1  0
 80 79  2  0
 81 80  1  0
 82 56  1  0
 82 87  1  0
 82 83  1  0
 83 86  1  1
 83 84  1  0
 85 83  1  0
 87 90  1  0
 88 92  1  0
 88 87  1  0
 89 88  2  0
 92 91  1  0
 94 92  1  0
 94 95  1  0
 94 93  1  0
M  ISO  4  15 100  18 100  54 101  55 101
M  END
>  <TORSDO>  (69) 
F 19

>  <SCORE>  (69) 
-15.755

>  <name>  (69) 
68

>  <ligand_id>  (69) 
68

>  <original_smiles>  (69) 
[H]N=C(C(=O)N1C([H])([H])C([H])([H])C([H])([H])C([H])(n2nc(-c3c([H])c([H])c(Oc4c([H])c([H])c(F)c([H])c4F)c([H])c3[H])c(C(=O)N([H])[H])c2N([H])[H])C1([H])[H])c1c([H])c(C([H])([H])Oc2c([H])c([H])c3c(c2[H])C([H])([H])N(C(=O)C([H])(N([H])C(=O)C([H])(N([H])C([H])([H])[H])C([H])([H])[H])C(C([H])([H])[H])(C([H])([H])[H])C([H])([H])[H])C([H])(C(=O)N([H])C2([H])c4c([H])c([H])c([H])c([H])c4C([H])([H])C([H])([H])C2([H])[H])C3([H])[H])c(N2C(=O)C([H])([H])C([H])([H])C([H])([H])C2([H])[H])c([H])c1F

>  <smiles>  (69) 
[H]N=C(C(=O)N1C([H])([H])C([H])([H])C([H])([H])C([H])(n2nc(-c3c([H])c([H])c(Oc4c([H])c([H])c(F)c([H])c4F)c([H])c3[H])c(C(=O)N([H])[H])c2N([H])[H])C1([H])[H])c1c([H])c(C([H])([H])Oc2c([H])c([H])c3c(c2[H])C([H])([H])N(C(=O)C([H])(N([H])C(=O)C([H])(N([H])C([H])([H])[H])C([H])([H])[H])C(C([H])([H])[H])(C([H])([H])[H])C([H])([H])[H])C([H])(C(=O)N([H])C2([H])c4c([H])c([H])c([H])c([H])c4C([H])([H])C([H])([H])C2([H])[H])C3([H])[H])c(N2C(=O)C([H])([H])C([H])([H])C([H])([H])C2([H])[H])c([H])c1F

$$$$
69:0:0
     RDKit          3D

 95103  0  0  1  0  0  0  0  0999 V2000
  -31.1560  -18.1280   21.0760 C   0  0  0  0  0  3  0  0  0  0  0  0
  -31.0930  -19.5440   20.9280 C   0  0  0  0  0  3  0  0  0  0  0  0
  -28.8860  -19.3540   20.0040 C   0  0  0  0  0  3  0  0  0  0  0  0
  -30.0880  -17.2700   20.7060 C   0  0  0  0  0  0  0  0  0  0  0  0
  -29.9470  -20.2030   20.4160 C   0  0  0  0  0  0  0  0  0  0  0  0
  -28.9470  -17.9330   20.1510 C   0  0  0  0  0  0  0  0  0  0  0  0
  -28.9670  -22.5960   20.1850 C   0  0  0  0  0  0  0  0  0  0  0  0
  -29.9610  -21.6660   20.3270 N   0  0  0  0  0  0  0  0  0  0  0  0
  -27.7770  -22.2770   20.1320 O   0  0  0  0  0  0  0  0  0  0  0  0
  -30.8760  -22.0820   20.4340 H   0  0  0  0  0  0  0  0  0  0  0  0
  -29.3480  -24.1250   20.0690 C   0  0  0  0  0  3  0  0  0  0  0  0
  -28.2880  -25.1750   20.6060 C   0  0  0  0  0  3  0  0  0  0  0  0
  -28.4690  -26.6060   20.2710 O   0  0  0  0  0  0  0  0  0  0  0  0
  -24.6390  -31.9360   23.2650 C   0  0  0  0  0  0  0  0  0  0  0  0
  -27.3280  -27.4150   20.2490 C   0  0  0  0  0  0  0  0  0  0  0  0
  -23.4630  -30.5100   21.6290 C   0  0  0  0  0  3  0  0  0  0  0  0
  -24.9370  -28.9720   20.2270 C   0  0  0  0  0  0  0  0  0  0  0  0
  -25.9960  -30.8700   21.4510 C   0  0  0  0  0  2  0  0  0  0  0  0
  -26.0990  -29.4900   20.8170 C   0  0  0  0  0  0  0  0  0  0  0  0
  -27.2980  -28.7220   20.8180 C   0  0  0  0  0  3  0  0  0  0  0  0
  -26.1440  -26.9470   19.6330 C   0  0  0  0  0  3  0  0  0  0  0  0
  -24.9580  -27.7010   19.6350 C   0  0  0  0  0  3  0  0  0  0  0  0
  -23.6940  -29.8320   20.2540 C   0  0  0  0  0  2  0  0  0  0  0  0
  -24.7190  -31.1210   22.1730 N   0  0  0  0  0  0  0  0  0  0  0  0
  -23.5490  -32.2000   23.7920 O   0  0  0  0  0  0  0  0  0  0  0  0
  -22.8100  -29.4900   22.5910 C   0  0  0  0  0  0  0  0  0  0  0  0
  -21.4870  -29.2940   22.4580 N   0  0  0  0  0  0  0  0  0  0  0  0
  -23.4910  -28.8790   23.4190 O   0  0  0  0  0  0  0  0  0  0  0  0
  -20.9940  -29.8350   21.7610 H   0  0  0  0  0  0  0  0  0  0  0  0
  -18.1220  -28.0680   22.9570 C   0  0  0  0  0  0  0  0  0  0  0  0
  -20.6760  -28.3540   23.2320 C   0  0  0  0  0  3  0  0  0  0  0  0
  -20.7950  -26.9200   22.6660 C   0  0  0  0  0  2  0  0  0  0  0  0
  -19.6990  -26.5810   21.6510 C   0  0  0  0  0  2  0  0  0  0  0  0
  -18.3140  -26.7160   22.2890 C   0  0  0  0  0  2  0  0  0  0  0  0
  -19.2320  -28.8430   23.3870 C   0  0  0  0  0  0  0  0  0  0  0  0
  -18.9990  -30.1050   23.9740 C   0  0  0  0  0  3  0  0  0  0  0  0
  -17.6890  -30.5960   24.1320 C   0  0  0  0  0  3  0  0  0  0  0  0
  -16.5920  -29.8190   23.7170 C   0  0  0  0  0  3  0  0  0  0  0  0
  -16.8100  -28.5570   23.1370 C   0  0  0  0  0  3  0  0  0  0  0  0
  -25.9100  -32.5890   23.8890 C   0  0  0  0  0  3  0  0  0  0  0  0
  -25.5800  -33.9850   24.2070 N   0  0  0  0  0  0  0  0  0  0  0  0
  -25.9020  -35.0360   23.4420 C   0  0  0  0  0  0  0  0  0  0  0  0
  -26.5750  -34.9340   22.4130 O   0  0  0  0  0  0  0  0  0  0  0  0
  -24.9860  -34.1400   25.0080 H   0  0  0  0  0  0  0  0  0  0  0  0
  -24.1450  -36.7970   23.0750 C   0  0  0  0  0  1  0  0  0  0  0  0
  -25.3930  -36.4200   23.8900 C   0  0  0  0  0  3  0  0  0  0  0  0
  -27.5130  -37.3400   24.7130 C   0  0  0  0  0  1  0  0  0  0  0  0
  -26.4090  -37.4880   23.7690 N   0  0  0  0  0  0  0  0  0  0  0  0
  -25.9890  -38.4020   23.9170 H   0  0  0  0  0  0  0  0  0  0  0  0
  -26.4320  -31.8350   25.1740 C   0  0  1  0  0  0  0  0  0  0  0  0
  -25.3350  -31.5800   26.2340 C   0  0  0  0  0  1  0  0  0  0  0  0
  -27.0460  -30.4680   24.7910 C   0  0  0  0  0  1  0  0  0  0  0  0
  -27.5620  -32.6560   25.8410 C   0  0  0  0  0  1  0  0  0  0  0  0
  -30.1240  -15.7840   21.1030 C   0  0  0  0  0  0  0  0  0  0  0  0
  -29.7820  -15.4930   22.2910 N   0  0  0  0  0  0  0  0  0  0  0  0
  -29.5030  -16.3260   22.7940 H   0  0  0  0  0  0  0  0  0  0  0  0
  -30.6620  -14.6890   20.1140 C   0  0  0  0  0  0  0  0  0  0  0  0
  -30.3440  -12.5210   18.9210 C   0  0  0  0  0  2  0  0  0  0  0  0
  -29.3440  -12.7170   17.7590 C   0  0  0  0  0  2  0  0  0  0  0  0
  -27.8960  -12.5310   18.2490 C   0  0  0  0  0  2  0  0  0  0  0  0
  -27.6050  -13.3320   19.5440 C   0  0  0  0  0  3  0  0  0  0  0  0
  -28.7120  -13.0930   20.5940 C   0  0  0  0  0  2  0  0  0  0  0  0
  -30.0020  -13.4820   19.9950 N   0  0  0  0  0  0  0  0  0  0  0  0
  -31.6980  -14.9070   19.4750 O   0  0  0  0  0  0  0  0  0  0  0  0
  -25.2390  -13.9040   20.3830 C   0  0  0  0  0  0  0  0  0  0  0  0
  -24.2000  -13.1200   20.8000 C   0  0  0  0  0  0  0  0  0  0  0  0
  -24.6720  -11.7740   20.7280 C   0  0  0  0  0  0  0  0  0  0  0  0
  -26.2800  -13.0380   20.0830 N   0  0  0  0  0  0  0  0  0  0  0  0
  -25.9450  -11.7510   20.3480 N   0  0  0  0  0  0  0  0  0  0  0  0
  -23.9660  -10.5070   20.9390 C   0  0  0  0  0  0  0  0  0  0  0  0
  -24.4270   -9.5490   21.8660 C   0  0  0  0  0  3  0  0  0  0  0  0
  -23.7150   -8.3470   22.0640 C   0  0  0  0  0  3  0  0  0  0  0  0
  -22.5310   -8.0930   21.3340 C   0  0  0  0  0  0  0  0  0  0  0  0
  -22.0890   -9.0410   20.3950 C   0  0  0  0  0  3  0  0  0  0  0  0
  -22.8000  -10.2350   20.1940 C   0  0  0  0  0  3  0  0  0  0  0  0
  -21.7890   -6.9410   21.4410 O   0  0  0  0  0  0  0  0  0  0  0  0
  -21.7420   -6.2230   22.6080 C   0  0  0  0  0  0  0  0  0  0  0  0
  -21.3000   -6.7990   23.8200 C   0  0  0  0  0  3  0  0  0  0  0  0
  -21.1970   -6.0060   24.9800 C   0  0  0  0  0  3  0  0  0  0  0  0
  -21.5280   -4.6380   24.9320 C   0  0  0  0  0  0  0  0  0  0  0  0
  -21.9650   -4.0630   23.7250 C   0  0  0  0  0  3  0  0  0  0  0  0
  -22.0700   -4.8530   22.5670 C   0  0  0  0  0  0  0  0  0  0  0  0
  -22.4700   -4.2890   21.4020 F   0  0  0  0  0  0  0  0  0  0  0  0
  -21.4240   -3.8750   26.0440 F   0  0  0  0  0  0  0  0  0  0  0  0
  -22.8140  -13.5850   21.1440 C   0  0  0  0  0  0  0  0  0  0  0  0
  -22.1370  -12.8780   22.0420 N   0  0  0  0  0  0  0  0  0  0  0  0
  -22.3470  -14.6170   20.6610 O   0  0  0  0  0  0  0  0  0  0  0  0
  -22.5300  -12.0460   22.4550 H   0  0  0  0  0  0  0  0  0  0  0  0
  -21.2130  -13.1740   22.3230 H   0  0  0  0  0  0  0  0  0  0  0  0
  -25.3600  -15.2750   20.2110 N   0  0  0  0  0  0  0  0  0  0  0  0
  -24.5800  -15.8950   20.3980 H   0  0  0  0  0  0  0  0  0  0  0  0
  -26.1320  -15.7420   19.7410 H   0  0  0  0  0  0  0  0  0  0  0  0
  -27.8100  -17.2140   19.7870 N   0  0  0  0  0  0  0  0  0  0  0  0
  -27.5530  -16.4890   20.4530 H   0  0  0  0  0  0  0  0  0  0  0  0
  -26.9980  -17.7850   19.5770 H   0  0  0  0  0  0  0  0  0  0  0  0
  2  1  1  0
  3  6  2  0
  3  5  1  0
  4  1  2  0
  4 54  1  0
  5  2  2  0
  6  4  1  0
  7  8  1  0
  8  5  1  0
  8 10  1  0
  9  7  2  0
 11  7  1  0
 11 12  2  0
 13 12  1  0
 14 25  2  0
 15 13  1  0
 15 20  1  0
 16 24  1  0
 16 26  1  0
 17 23  1  0
 17 19  1  0
 18 24  1  0
 19 20  2  0
 19 18  1  0
 21 22  1  0
 21 15  2  0
 22 17  2  0
 23 16  1  0
 24 14  1  0
 26 28  2  0
 27 26  1  0
 29 27  1  0
 30 39  2  0
 30 35  1  0
 31 27  1  0
 31 35  1  0
 32 31  1  0
 33 34  1  0
 33 32  1  0
 34 30  1  0
 35 36  2  0
 36 37  1  0
 38 37  2  0
 39 38  1  0
 40 14  1  0
 40 41  1  0
 40 50  1  0
 41 44  1  0
 42 46  1  0
 42 41  1  0
 43 42  2  0
 46 45  1  0
 48 46  1  0
 48 49  1  0
 48 47  1  0
 50 53  1  1
 50 51  1  0
 52 50  1  0
 54 55  2  0
 55 56  1  0
 57 54  1  0
 58 63  1  0
 59 60  1  0
 59 58  1  0
 61 60  1  0
 61 68  1  0
 61 62  1  0
 63 57  1  0
 63 62  1  0
 64 57  2  0
 65 66  2  0
 66 85  1  0
 67 66  1  0
 67 70  1  0
 68 69  1  0
 68 65  1  0
 69 67  2  0
 70 71  1  0
 71 72  2  0
 73 76  1  0
 73 72  1  0
 74 73  2  0
 75 74  1  0
 75 70  2  0
 76 77  1  0
 77 78  1  0
 78 79  2  0
 80 79  1  0
 80 84  1  0
 81 80  2  0
 82 77  2  0
 82 81  1  0
 83 82  1  0
 85 86  1  0
 86 89  1  0
 86 88  1  0
 87 85  2  0
 90 65  1  0
 90 91  1  0
 92 90  1  0
 93  6  1  0
 93 94  1  0
 95 93  1  0
M  ISO  4  12 101  13 101  54 100  57 100
M  END
>  <TORSDO>  (70) 
F 21

>  <SCORE>  (70) 
-13.301

>  <name>  (70) 
69

>  <ligand_id>  (70) 
69

>  <original_smiles>  (70) 
[H]N=C(C(=O)N1C([H])([H])C([H])([H])C([H])([H])C([H])(n2nc(-c3c([H])c([H])c(Oc4c([H])c([H])c(F)c([H])c4F)c([H])c3[H])c(C(=O)N([H])[H])c2N([H])[H])C1([H])[H])c1c([H])c([H])c(N([H])C(=O)C([H])([H])C([H])([H])Oc2c([H])c([H])c3c(c2[H])C([H])([H])N(C(=O)C([H])(N([H])C(=O)C([H])(N([H])C([H])([H])[H])C([H])([H])[H])C(C([H])([H])[H])(C([H])([H])[H])C([H])([H])[H])C([H])(C(=O)N([H])C2([H])c4c([H])c([H])c([H])c([H])c4C([H])([H])C([H])([H])C2([H])[H])C3([H])[H])c([H])c1N([H])[H]

>  <smiles>  (70) 
[H]N=C(C(=O)N1C([H])([H])C([H])([H])C([H])([H])C([H])(n2nc(-c3c([H])c([H])c(Oc4c([H])c([H])c(F)c([H])c4F)c([H])c3[H])c(C(=O)N([H])[H])c2N([H])[H])C1([H])[H])c1c([H])c([H])c(N([H])C(=O)C([H])([H])C([H])([H])Oc2c([H])c([H])c3c(c2[H])C([H])([H])N(C(=O)C([H])(N([H])C(=O)C([H])(N([H])C([H])([H])[H])C([H])([H])[H])C(C([H])([H])[H])(C([H])([H])[H])C([H])([H])[H])C([H])(C(=O)N([H])C2([H])c4c([H])c([H])c([H])c([H])c4C([H])([H])C([H])([H])C2([H])[H])C3([H])[H])c([H])c1N([H])[H]

$$$$
70:0:0
     RDKit          3D

 92100  0  0  1  0  0  0  0  0999 V2000
  -28.0290  -20.4210   19.7920 C   0  0  0  0  0  3  0  0  0  0  0  0
  -30.4170  -19.3920   20.5880 C   0  0  0  0  0  3  0  0  0  0  0  0
  -28.8430  -21.5450   20.2540 C   0  0  0  0  0  0  0  0  0  0  0  0
  -30.0950  -20.8670   20.6410 C   0  0  0  0  0  0  0  0  0  0  0  0
  -29.5430  -18.2840   20.1780 C   0  0  0  0  0  0  0  0  0  0  0  0
  -28.3240  -18.9650   19.7680 C   0  0  0  0  0  0  0  0  0  0  0  0
  -27.3210  -18.1560   19.3480 F   0  0  0  0  0  0  0  0  0  0  0  0
  -30.4970  -15.4460   20.1810 C   0  0  0  0  0  0  0  0  0  0  0  0
  -30.5350  -12.9890   19.3160 C   0  0  0  0  0  2  0  0  0  0  0  0
  -29.6110  -12.7540   18.0920 C   0  0  0  0  0  2  0  0  0  0  0  0
  -28.1630  -12.4750   18.5360 C   0  0  0  0  0  2  0  0  0  0  0  0
  -27.7030  -13.4410   19.6550 C   0  0  0  0  0  3  0  0  0  0  0  0
  -28.7520  -13.5980   20.7760 C   0  0  0  0  0  2  0  0  0  0  0  0
  -29.9740  -14.1220   20.1380 N   0  0  0  0  0  0  0  0  0  0  0  0
  -31.7210  -15.4890   19.9770 O   0  0  0  0  0  0  0  0  0  0  0  0
  -29.6350  -16.6520   20.2290 N   0  0  0  0  0  0  0  0  0  0  0  0
  -28.6910  -16.2970   20.2280 H   0  0  0  0  0  0  0  0  0  0  0  0
  -25.3260  -13.9860   20.4070 C   0  0  0  0  0  0  0  0  0  0  0  0
  -24.2700  -13.2020   20.7800 C   0  0  0  0  0  0  0  0  0  0  0  0
  -24.7480  -11.8560   20.7550 C   0  0  0  0  0  0  0  0  0  0  0  0
  -26.3780  -13.1180   20.1660 N   0  0  0  0  0  0  0  0  0  0  0  0
  -26.0410  -11.8310   20.4450 N   0  0  0  0  0  0  0  0  0  0  0  0
  -24.0300  -10.5890   20.9490 C   0  0  0  0  0  0  0  0  0  0  0  0
  -24.4380   -9.6480   21.9210 C   0  0  0  0  0  3  0  0  0  0  0  0
  -23.7160   -8.4490   22.1040 C   0  0  0  0  0  3  0  0  0  0  0  0
  -22.5730   -8.1800   21.3140 C   0  0  0  0  0  0  0  0  0  0  0  0
  -22.1840   -9.1090   20.3320 C   0  0  0  0  0  3  0  0  0  0  0  0
  -22.9060  -10.3000   20.1480 C   0  0  0  0  0  3  0  0  0  0  0  0
  -21.8280   -7.0290   21.4020 O   0  0  0  0  0  0  0  0  0  0  0  0
  -21.7160   -6.3320   22.5790 C   0  0  0  0  0  0  0  0  0  0  0  0
  -21.1680   -6.9170   23.7410 C   0  0  0  0  0  3  0  0  0  0  0  0
  -21.0080   -6.1450   24.9090 C   0  0  0  0  0  3  0  0  0  0  0  0
  -21.3850   -4.7880   24.9150 C   0  0  0  0  0  0  0  0  0  0  0  0
  -21.9250   -4.2030   23.7560 C   0  0  0  0  0  3  0  0  0  0  0  0
  -22.0880   -4.9730   22.5900 C   0  0  0  0  0  0  0  0  0  0  0  0
  -22.5880   -4.3990   21.4700 F   0  0  0  0  0  0  0  0  0  0  0  0
  -21.2240   -4.0440   26.0330 F   0  0  0  0  0  0  0  0  0  0  0  0
  -22.8690  -13.6700   21.0410 C   0  0  0  0  0  0  0  0  0  0  0  0
  -22.1400  -12.9720   21.9040 N   0  0  0  0  0  0  0  0  0  0  0  0
  -22.4290  -14.6910   20.5150 O   0  0  0  0  0  0  0  0  0  0  0  0
  -22.5100  -12.1470   22.3520 H   0  0  0  0  0  0  0  0  0  0  0  0
  -21.1990  -13.2670   22.1200 H   0  0  0  0  0  0  0  0  0  0  0  0
  -25.4720  -15.3580   20.2200 N   0  0  0  0  0  0  0  0  0  0  0  0
  -24.6850  -15.9900   20.3220 H   0  0  0  0  0  0  0  0  0  0  0  0
  -26.2840  -15.8100   19.8210 H   0  0  0  0  0  0  0  0  0  0  0  0
  -27.9390  -24.5430   20.6350 C   0  0  0  0  0  3  0  0  0  0  0  0
  -28.1510  -23.0560   20.7030 C   0  0  0  0  0  0  0  0  0  0  0  0
  -27.2550  -22.5130   21.8300 C   0  0  0  0  0  1  0  0  0  0  0  0
  -28.2460  -25.9290   20.0750 O   0  0  0  0  0  0  0  0  0  0  0  0
  -24.6380  -31.8960   23.1300 C   0  0  0  0  0  0  0  0  0  0  0  0
  -27.2600  -27.0580   20.0900 C   0  0  0  0  0  0  0  0  0  0  0  0
  -23.4660  -30.4950   21.4820 C   0  0  0  0  0  3  0  0  0  0  0  0
  -24.9400  -28.9190   20.0560 C   0  0  0  0  0  0  0  0  0  0  0  0
  -26.0320  -30.7360   21.3450 C   0  0  0  0  0  2  0  0  0  0  0  0
  -26.1240  -29.3280   20.6840 C   0  0  0  0  0  0  0  0  0  0  0  0
  -27.2810  -28.4190   20.6790 C   0  0  0  0  0  3  0  0  0  0  0  0
  -26.0450  -26.8080   19.4160 C   0  0  0  0  0  3  0  0  0  0  0  0
  -24.9250  -27.6780   19.4020 C   0  0  0  0  0  3  0  0  0  0  0  0
  -23.7100  -29.8240   20.1030 C   0  0  0  0  0  2  0  0  0  0  0  0
  -24.7330  -31.0700   22.0380 N   0  0  0  0  0  0  0  0  0  0  0  0
  -23.5420  -32.1700   23.6480 O   0  0  0  0  0  0  0  0  0  0  0  0
  -22.7810  -29.4850   22.4400 C   0  0  0  0  0  0  0  0  0  0  0  0
  -21.4500  -29.3220   22.3250 N   0  0  0  0  0  0  0  0  0  0  0  0
  -23.4550  -28.8480   23.2530 O   0  0  0  0  0  0  0  0  0  0  0  0
  -20.9590  -29.8860   21.6450 H   0  0  0  0  0  0  0  0  0  0  0  0
  -18.0690  -28.1250   22.8790 C   0  0  0  0  0  0  0  0  0  0  0  0
  -20.6350  -28.3720   23.0910 C   0  0  0  0  0  3  0  0  0  0  0  0
  -20.7150  -26.9530   22.4820 C   0  0  0  0  0  2  0  0  0  0  0  0
  -19.5880  -26.6600   21.4850 C   0  0  0  0  0  2  0  0  0  0  0  0
  -18.2230  -26.7940   22.1630 C   0  0  0  0  0  2  0  0  0  0  0  0
  -19.2000  -28.8730   23.3010 C   0  0  0  0  0  0  0  0  0  0  0  0
  -18.9980  -30.1180   23.9360 C   0  0  0  0  0  3  0  0  0  0  0  0
  -17.6980  -30.6160   24.1490 C   0  0  0  0  0  3  0  0  0  0  0  0
  -16.5820  -29.8660   23.7390 C   0  0  0  0  0  3  0  0  0  0  0  0
  -16.7690  -28.6210   23.1110 C   0  0  0  0  0  3  0  0  0  0  0  0
  -25.8980  -32.5520   23.7710 C   0  0  0  0  0  3  0  0  0  0  0  0
  -25.5590  -33.9440   24.1170 N   0  0  0  0  0  0  0  0  0  0  0  0
  -25.8900  -35.0200   23.3900 C   0  0  0  0  0  0  0  0  0  0  0  0
  -26.5740  -34.9450   22.3660 O   0  0  0  0  0  0  0  0  0  0  0  0
  -24.9500  -34.0740   24.9120 H   0  0  0  0  0  0  0  0  0  0  0  0
  -24.1650  -36.8220   23.0380 C   0  0  0  0  0  1  0  0  0  0  0  0
  -25.3850  -36.3960   23.8720 C   0  0  0  0  0  3  0  0  0  0  0  0
  -27.4840  -37.2730   24.7970 C   0  0  0  0  0  1  0  0  0  0  0  0
  -26.4170  -37.4550   23.8160 N   0  0  0  0  0  0  0  0  0  0  0  0
  -26.0040  -38.3720   23.9640 H   0  0  0  0  0  0  0  0  0  0  0  0
  -26.4110  -31.7840   25.0520 C   0  0  1  0  0  0  0  0  0  0  0  0
  -25.3110  -31.5280   26.1100 C   0  0  0  0  0  1  0  0  0  0  0  0
  -27.0170  -30.4150   24.6700 C   0  0  0  0  0  1  0  0  0  0  0  0
  -27.5460  -32.5910   25.7270 C   0  0  0  0  0  1  0  0  0  0  0  0
  -31.0850  -21.6940   21.1690 N   0  0  0  0  0  0  0  0  0  0  0  0
  -31.9120  -21.3160   21.6200 H   0  0  0  0  0  0  0  0  0  0  0  0
  -30.8650  -22.6550   21.4180 H   0  0  0  0  0  0  0  0  0  0  0  0
  1  3  1  0
  2  4  1  0
  3  4  2  0
  3 47  1  0
  4 90  1  0
  5 16  1  0
  5  2  2  0
  6  1  2  0
  6  5  1  0
  7  6  1  0
  8 16  1  0
  9 14  1  0
 10 11  1  0
 10  9  1  0
 12 11  1  0
 12 21  1  0
 12 13  1  0
 14  8  1  0
 14 13  1  0
 15  8  2  0
 17 16  1  0
 18 19  2  0
 19 38  1  0
 20 19  1  0
 20 23  1  0
 21 18  1  0
 21 22  1  0
 22 20  2  0
 23 24  1  0
 24 25  2  0
 26 29  1  0
 26 25  1  0
 27 26  2  0
 28 27  1  0
 28 23  2  0
 29 30  1  0
 30 35  2  0
 30 31  1  0
 31 32  2  0
 32 33  1  0
 33 37  1  0
 34 33  2  0
 35 34  1  0
 36 35  1  0
 38 39  1  0
 39 42  1  0
 39 41  1  0
 40 38  2  0
 43 44  1  0
 43 18  1  0
 45 43  1  0
 46 47  2  0
 47 48  1  0
 49 51  1  0
 49 46  1  0
 50 61  2  0
 51 56  1  0
 52 60  1  0
 52 62  1  0
 53 59  1  0
 53 55  1  0
 54 60  1  0
 55 54  1  0
 56 55  2  0
 57 51  2  0
 58 57  1  0
 58 53  2  0
 59 52  1  0
 60 50  1  0
 62 64  2  0
 63 62  1  0
 65 63  1  0
 66 75  2  0
 66 71  1  0
 67 63  1  0
 67 71  1  0
 68 67  1  0
 69 70  1  0
 69 68  1  0
 70 66  1  0
 71 72  2  0
 72 73  1  0
 74 73  2  0
 75 74  1  0
 76 50  1  0
 76 77  1  0
 76 86  1  0
 77 80  1  0
 78 82  1  0
 78 77  1  0
 79 78  2  0
 82 81  1  0
 84 82  1  0
 84 85  1  0
 84 83  1  0
 86 89  1  1
 86 87  1  0
 88 86  1  0
 90 92  1  0
 90 91  1  0
M  ISO  4   8 100  16 100  46 101  49 101
M  END
>  <TORSDO>  (71) 
F 18

>  <SCORE>  (71) 
-15.259

>  <name>  (71) 
70

>  <ligand_id>  (71) 
70

>  <original_smiles>  (71) 
[H]C(Oc1c([H])c([H])c2c(c1[H])C([H])([H])N(C(=O)C([H])(N([H])C(=O)C([H])(N([H])C([H])([H])[H])C([H])([H])[H])C(C([H])([H])[H])(C([H])([H])[H])C([H])([H])[H])C([H])(C(=O)N([H])C1([H])c3c([H])c([H])c([H])c([H])c3C([H])([H])C([H])([H])C1([H])[H])C2([H])[H])=C(c1c([H])c(F)c(N([H])C(=O)N2C([H])([H])C([H])([H])C([H])([H])C([H])(n3nc(-c4c([H])c([H])c(Oc5c([H])c([H])c(F)c([H])c5F)c([H])c4[H])c(C(=O)N([H])[H])c3N([H])[H])C2([H])[H])c([H])c1N([H])[H])C([H])([H])[H]

>  <smiles>  (71) 
[H]C(Oc1c([H])c([H])c2c(c1[H])C([H])([H])N(C(=O)C([H])(N([H])C(=O)C([H])(N([H])C([H])([H])[H])C([H])([H])[H])C(C([H])([H])[H])(C([H])([H])[H])C([H])([H])[H])C([H])(C(=O)N([H])C1([H])c3c([H])c([H])c([H])c([H])c3C([H])([H])C([H])([H])C1([H])[H])C2([H])[H])=C(c1c([H])c(F)c(N([H])C(=O)N2C([H])([H])C([H])([H])C([H])([H])C([H])(n3nc(-c4c([H])c([H])c(Oc5c([H])c([H])c(F)c([H])c5F)c([H])c4[H])c(C(=O)N([H])[H])c3N([H])[H])C2([H])[H])c([H])c1N([H])[H])C([H])([H])[H]

$$$$
71:0:0
     RDKit          3D

 94102  0  0  1  0  0  0  0  0999 V2000
  -28.1830  -20.2290   18.8860 C   0  0  0  0  0  1  0  0  0  0  0  0
  -28.7840  -20.4010   20.2930 C   0  0  0  0  0  3  0  0  0  0  0  0
  -32.1090  -18.6100   21.1350 C   0  0  0  0  0  3  0  0  0  0  0  0
  -31.1650  -19.6190   20.8710 C   0  0  0  0  0  3  0  0  0  0  0  0
  -31.7280  -17.2550   21.1210 C   0  0  0  0  0  3  0  0  0  0  0  0
  -29.8150  -19.2940   20.6050 C   0  0  0  0  0  0  0  0  0  0  0  0
  -30.3890  -16.8920   20.8440 C   0  0  0  0  0  0  0  0  0  0  0  0
  -29.4350  -17.9170   20.6260 C   0  0  0  0  0  0  0  0  0  0  0  0
  -28.1440  -17.5590   20.4160 F   0  0  0  0  0  0  0  0  0  0  0  0
  -30.6140  -14.4980   20.2000 C   0  0  0  0  0  0  0  0  0  0  0  0
  -30.2330  -12.3770   18.9980 C   0  0  0  0  0  2  0  0  0  0  0  0
  -29.2470  -12.6200   17.8370 C   0  0  0  0  0  2  0  0  0  0  0  0
  -27.7930  -12.4740   18.3220 C   0  0  0  0  0  2  0  0  0  0  0  0
  -27.5100  -13.2780   19.6200 C   0  0  0  0  0  3  0  0  0  0  0  0
  -28.6080  -13.0350   20.6800 C   0  0  0  0  0  2  0  0  0  0  0  0
  -29.9090  -13.3400   20.0630 N   0  0  0  0  0  0  0  0  0  0  0  0
  -31.7230  -14.6530   19.6810 O   0  0  0  0  0  0  0  0  0  0  0  0
  -29.9710  -15.5210   20.8030 N   0  0  0  0  0  0  0  0  0  0  0  0
  -29.0110  -15.3440   21.0590 H   0  0  0  0  0  0  0  0  0  0  0  0
  -25.1370  -13.8680   20.4200 C   0  0  0  0  0  0  0  0  0  0  0  0
  -24.0850  -13.0880   20.8170 C   0  0  0  0  0  0  0  0  0  0  0  0
  -24.5490  -11.7380   20.7560 C   0  0  0  0  0  0  0  0  0  0  0  0
  -26.1760  -12.9930   20.1450 N   0  0  0  0  0  0  0  0  0  0  0  0
  -25.8280  -11.7060   20.4040 N   0  0  0  0  0  0  0  0  0  0  0  0
  -23.8330  -10.4710   20.9580 C   0  0  0  0  0  0  0  0  0  0  0  0
  -24.2750   -9.5150   21.9010 C   0  0  0  0  0  3  0  0  0  0  0  0
  -23.5580   -8.3140   22.0890 C   0  0  0  0  0  3  0  0  0  0  0  0
  -22.3880   -8.0580   21.3360 C   0  0  0  0  0  0  0  0  0  0  0  0
  -21.9680   -9.0010   20.3830 C   0  0  0  0  0  3  0  0  0  0  0  0
  -22.6840  -10.1960   20.1910 C   0  0  0  0  0  3  0  0  0  0  0  0
  -21.6440   -6.9070   21.4330 O   0  0  0  0  0  0  0  0  0  0  0  0
  -21.5830   -6.1860   22.5990 C   0  0  0  0  0  0  0  0  0  0  0  0
  -21.0680   -6.7390   23.7910 C   0  0  0  0  0  3  0  0  0  0  0  0
  -20.9590   -5.9410   24.9480 C   0  0  0  0  0  3  0  0  0  0  0  0
  -21.3550   -4.5910   24.9130 C   0  0  0  0  0  0  0  0  0  0  0  0
  -21.8630   -4.0370   23.7240 C   0  0  0  0  0  3  0  0  0  0  0  0
  -21.9740   -4.8320   22.5700 C   0  0  0  0  0  0  0  0  0  0  0  0
  -22.4450   -4.2870   21.4220 F   0  0  0  0  0  0  0  0  0  0  0  0
  -21.2440   -3.8220   26.0210 F   0  0  0  0  0  0  0  0  0  0  0  0
  -22.6960  -13.5570   21.1440 C   0  0  0  0  0  0  0  0  0  0  0  0
  -22.0010  -12.8460   22.0260 N   0  0  0  0  0  0  0  0  0  0  0  0
  -22.2370  -14.5870   20.6530 O   0  0  0  0  0  0  0  0  0  0  0  0
  -22.3860  -12.0120   22.4450 H   0  0  0  0  0  0  0  0  0  0  0  0
  -21.0720  -13.1420   22.2880 H   0  0  0  0  0  0  0  0  0  0  0  0
  -25.2920  -15.2410   20.2550 N   0  0  0  0  0  0  0  0  0  0  0  0
  -24.5310  -15.8920   20.4110 H   0  0  0  0  0  0  0  0  0  0  0  0
  -26.1390  -15.6960   19.9370 H   0  0  0  0  0  0  0  0  0  0  0  0
  -28.6360  -22.8330   20.9530 C   0  0  0  0  0  0  0  0  0  0  0  0
  -29.2840  -21.7930   20.3900 N   0  0  0  0  0  0  0  0  0  0  0  0
  -27.6150  -22.6670   21.6230 O   0  0  0  0  0  0  0  0  0  0  0  0
  -30.1280  -22.0020   19.8750 H   0  0  0  0  0  0  0  0  0  0  0  0
  -29.1700  -24.2710   20.7320 C   0  0  0  0  0  2  0  0  0  0  0  0
  -28.0910  -25.2160   20.1320 C   0  0  0  0  0  2  0  0  0  0  0  0
  -28.3270  -26.6420   20.2470 O   0  0  0  0  0  0  0  0  0  0  0  0
  -24.6050  -31.9480   23.2390 C   0  0  0  0  0  0  0  0  0  0  0  0
  -27.1900  -27.4370   20.1850 C   0  0  0  0  0  0  0  0  0  0  0  0
  -23.3830  -30.5460   21.6140 C   0  0  0  0  0  3  0  0  0  0  0  0
  -24.8190  -28.9970   20.1860 C   0  0  0  0  0  0  0  0  0  0  0  0
  -25.9150  -30.8770   21.4080 C   0  0  0  0  0  2  0  0  0  0  0  0
  -25.9870  -29.5020   20.7700 C   0  0  0  0  0  0  0  0  0  0  0  0
  -27.1780  -28.7310   20.7650 C   0  0  0  0  0  3  0  0  0  0  0  0
  -26.0010  -26.9710   19.5710 C   0  0  0  0  0  3  0  0  0  0  0  0
  -24.8230  -27.7320   19.5820 C   0  0  0  0  0  3  0  0  0  0  0  0
  -23.5820  -29.8650   20.2350 C   0  0  0  0  0  2  0  0  0  0  0  0
  -24.6530  -31.1380   22.1450 N   0  0  0  0  0  0  0  0  0  0  0  0
  -23.5270  -32.2330   23.7800 O   0  0  0  0  0  0  0  0  0  0  0  0
  -22.7270  -29.5320   22.5800 C   0  0  0  0  0  0  0  0  0  0  0  0
  -21.4030  -29.3510   22.4530 N   0  0  0  0  0  0  0  0  0  0  0  0
  -23.4080  -28.9140   23.4040 O   0  0  0  0  0  0  0  0  0  0  0  0
  -20.9150  -29.8990   21.7580 H   0  0  0  0  0  0  0  0  0  0  0  0
  -18.0200  -28.1880   22.9730 C   0  0  0  0  0  0  0  0  0  0  0  0
  -20.5820  -28.4230   23.2310 C   0  0  0  0  0  3  0  0  0  0  0  0
  -20.6680  -26.9890   22.6600 C   0  0  0  0  0  2  0  0  0  0  0  0
  -19.5580  -26.6720   21.6540 C   0  0  0  0  0  2  0  0  0  0  0  0
  -18.1810  -26.8330   22.3040 C   0  0  0  0  0  2  0  0  0  0  0  0
  -19.1480  -28.9410   23.3940 C   0  0  0  0  0  0  0  0  0  0  0  0
  -18.9440  -30.2100   23.9800 C   0  0  0  0  0  3  0  0  0  0  0  0
  -17.6460  -30.7240   24.1500 C   0  0  0  0  0  3  0  0  0  0  0  0
  -16.5320  -29.9670   23.7470 C   0  0  0  0  0  3  0  0  0  0  0  0
  -16.7210  -28.7020   23.1630 C   0  0  0  0  0  3  0  0  0  0  0  0
  -25.8970  -32.5750   23.8480 C   0  0  0  0  0  3  0  0  0  0  0  0
  -26.4180  -31.8060   25.1240 C   0  0  1  0  0  0  0  0  0  0  0  0
  -25.3280  -31.5660   26.1940 C   0  0  0  0  0  1  0  0  0  0  0  0
  -27.0040  -30.4290   24.7300 C   0  0  0  0  0  1  0  0  0  0  0  0
  -27.5680  -32.6040   25.7830 C   0  0  0  0  0  1  0  0  0  0  0  0
  -25.5980  -33.9760   24.1720 N   0  0  0  0  0  0  0  0  0  0  0  0
  -25.9400  -35.0220   23.4080 C   0  0  0  0  0  0  0  0  0  0  0  0
  -26.6120  -34.9090   22.3790 O   0  0  0  0  0  0  0  0  0  0  0  0
  -25.0040  -34.1380   24.9700 H   0  0  0  0  0  0  0  0  0  0  0  0
  -24.2460  -36.8380   23.0180 C   0  0  0  0  0  1  0  0  0  0  0  0
  -25.4620  -36.4150   23.8570 C   0  0  0  0  0  3  0  0  0  0  0  0
  -27.5770  -37.2780   24.7540 C   0  0  0  0  0  1  0  0  0  0  0  0
  -26.5100  -37.4540   23.7720 N   0  0  0  0  0  0  0  0  0  0  0  0
  -26.1120  -38.3800   23.9000 H   0  0  0  0  0  0  0  0  0  0  0  0
  2  1  1  0
  2 49  1  0
  2  6  1  0
  4  3  2  0
  5  3  1  0
  6  8  2  0
  6  4  1  0
  7  5  2  0
  8  7  1  0
  9  8  1  0
 10 18  1  0
 11 16  1  0
 12 13  1  0
 12 11  1  0
 14 13  1  0
 14 23  1  0
 14 15  1  0
 16 10  1  0
 16 15  1  0
 17 10  2  0
 18  7  1  0
 18 19  1  0
 20 21  2  0
 21 40  1  0
 22 21  1  0
 22 25  1  0
 23 24  1  0
 23 20  1  0
 24 22  2  0
 25 26  1  0
 26 27  2  0
 28 31  1  0
 28 27  1  0
 29 28  2  0
 30 29  1  0
 30 25  2  0
 31 32  1  0
 32 33  1  0
 33 34  2  0
 35 34  1  0
 35 39  1  0
 36 35  2  0
 37 32  2  0
 37 36  1  0
 38 37  1  0
 40 41  1  0
 41 44  1  0
 41 43  1  0
 42 40  2  0
 45 46  1  0
 45 20  1  0
 47 45  1  0
 48 50  2  0
 49 48  1  0
 51 49  1  0
 52 48  1  0
 53 54  1  0
 53 52  1  0
 55 66  2  0
 56 54  1  0
 56 61  1  0
 57 65  1  0
 57 67  1  0
 58 64  1  0
 58 60  1  0
 59 65  1  0
 60 59  1  0
 61 60  2  0
 62 63  1  0
 62 56  2  0
 63 58  2  0
 64 57  1  0
 65 55  1  0
 67 69  2  0
 68 67  1  0
 70 68  1  0
 71 80  2  0
 71 76  1  0
 72 68  1  0
 72 76  1  0
 73 72  1  0
 74 75  1  0
 74 73  1  0
 75 71  1  0
 76 77  2  0
 77 78  1  0
 79 78  2  0
 80 79  1  0
 81 55  1  0
 81 86  1  0
 81 82  1  0
 82 85  1  1
 82 83  1  0
 84 82  1  0
 86 89  1  0
 87 91  1  0
 87 86  1  0
 88 87  2  0
 91 90  1  0
 93 91  1  0
 93 94  1  0
 93 92  1  0
M  ISO  4  10 100  18 100  53 101  54 101
M  END
>  <TORSDO>  (72) 
F 20

>  <SCORE>  (72) 
-14.272

>  <name>  (72) 
71

>  <ligand_id>  (72) 
71

>  <original_smiles>  (72) 
[H]c1c([H])c([H])c2c(c1[H])C([H])([H])C([H])([H])C([H])([H])C2([H])N([H])C(=O)C1([H])N(C(=O)C([H])(N([H])C(=O)C([H])(N([H])C([H])([H])[H])C([H])([H])[H])C(C([H])([H])[H])(C([H])([H])[H])C([H])([H])[H])C([H])([H])c2c([H])c(OC([H])([H])C([H])([H])C(=O)N([H])C([H])(c3c([H])c([H])c([H])c(N([H])C(=O)N4C([H])([H])C([H])([H])C([H])([H])C([H])(n5nc(-c6c([H])c([H])c(Oc7c([H])c([H])c(F)c([H])c7F)c([H])c6[H])c(C(=O)N([H])[H])c5N([H])[H])C4([H])[H])c3F)C([H])([H])[H])c([H])c([H])c2C1([H])[H]

>  <smiles>  (72) 
[H]c1c([H])c([H])c2c(c1[H])C([H])([H])C([H])([H])C([H])([H])C2([H])N([H])C(=O)C1([H])N(C(=O)C([H])(N([H])C(=O)C([H])(N([H])C([H])([H])[H])C([H])([H])[H])C(C([H])([H])[H])(C([H])([H])[H])C([H])([H])[H])C([H])([H])c2c([H])c(OC([H])([H])C([H])([H])C(=O)N([H])C([H])(c3c([H])c([H])c([H])c(N([H])C(=O)N4C([H])([H])C([H])([H])C([H])([H])C([H])(n5nc(-c6c([H])c([H])c(Oc7c([H])c([H])c(F)c([H])c7F)c([H])c6[H])c(C(=O)N([H])[H])c5N([H])[H])C4([H])[H])c3F)C([H])([H])[H])c([H])c([H])c2C1([H])[H]

$$$$
72:0:0
     RDKit          3D

 93101  0  0  1  0  0  0  0  0999 V2000
  -29.1010  -19.4170   19.7350 C   0  0  0  0  0  3  0  0  0  0  0  0
  -30.5990  -17.8950   21.5570 C   0  0  0  0  0  3  0  0  0  0  0  0
  -29.1240  -17.9850   19.6490 C   0  0  0  0  0  0  0  0  0  0  0  0
  -29.8770  -17.1870   20.5650 C   0  0  0  0  0  0  0  0  0  0  0  0
  -30.5580  -19.3180   21.6500 C   0  0  0  0  0  0  0  0  0  0  0  0
  -29.8110  -20.1230   20.7440 C   0  0  0  0  0  0  0  0  0  0  0  0
  -28.3230  -17.3120   18.5460 C   0  0  0  0  0  1  0  0  0  0  0  0
  -30.5840  -14.6860   20.4020 C   0  0  0  0  0  0  0  0  0  0  0  0
  -30.4010  -12.4340   19.3650 C   0  0  0  0  0  2  0  0  0  0  0  0
  -29.4620  -12.5420   18.1430 C   0  0  0  0  0  2  0  0  0  0  0  0
  -27.9840  -12.3870   18.5600 C   0  0  0  0  0  2  0  0  0  0  0  0
  -27.6150  -13.2700   19.7810 C   0  0  0  0  0  3  0  0  0  0  0  0
  -28.6630  -13.1270   20.9070 C   0  0  0  0  0  2  0  0  0  0  0  0
  -29.9790  -13.4600   20.3360 N   0  0  0  0  0  0  0  0  0  0  0  0
  -31.7640  -14.8440   20.0760 O   0  0  0  0  0  0  0  0  0  0  0  0
  -29.7260  -15.7340   20.6170 N   0  0  0  0  0  0  0  0  0  0  0  0
  -28.7730  -15.4250   20.7290 H   0  0  0  0  0  0  0  0  0  0  0  0
  -25.2260  -13.8990   20.4910 C   0  0  0  0  0  0  0  0  0  0  0  0
  -24.1510  -13.1380   20.8630 C   0  0  0  0  0  0  0  0  0  0  0  0
  -24.6010  -11.7820   20.8360 C   0  0  0  0  0  0  0  0  0  0  0  0
  -26.2630  -13.0070   20.2600 N   0  0  0  0  0  0  0  0  0  0  0  0
  -25.8910  -11.7300   20.5310 N   0  0  0  0  0  0  0  0  0  0  0  0
  -23.8620  -10.5280   21.0260 C   0  0  0  0  0  0  0  0  0  0  0  0
  -24.2800   -9.5600   21.9660 C   0  0  0  0  0  3  0  0  0  0  0  0
  -23.5440   -8.3690   22.1420 C   0  0  0  0  0  3  0  0  0  0  0  0
  -22.3760   -8.1370   21.3780 C   0  0  0  0  0  0  0  0  0  0  0  0
  -21.9770   -9.0940   20.4280 C   0  0  0  0  0  3  0  0  0  0  0  0
  -22.7130  -10.2760   20.2490 C   0  0  0  0  0  3  0  0  0  0  0  0
  -21.6120   -6.9990   21.4640 O   0  0  0  0  0  0  0  0  0  0  0  0
  -21.5400   -6.2670   22.6230 C   0  0  0  0  0  0  0  0  0  0  0  0
  -21.0880   -6.8320   23.8350 C   0  0  0  0  0  3  0  0  0  0  0  0
  -20.9630   -6.0250   24.9840 C   0  0  0  0  0  3  0  0  0  0  0  0
  -21.2790   -4.6550   24.9210 C   0  0  0  0  0  0  0  0  0  0  0  0
  -21.7240   -4.0900   23.7130 C   0  0  0  0  0  3  0  0  0  0  0  0
  -21.8510   -4.8930   22.5670 C   0  0  0  0  0  0  0  0  0  0  0  0
  -22.2590   -4.3390   21.3990 F   0  0  0  0  0  0  0  0  0  0  0  0
  -21.1520   -3.8780   26.0220 F   0  0  0  0  0  0  0  0  0  0  0  0
  -22.7580  -13.6290   21.1300 C   0  0  0  0  0  0  0  0  0  0  0  0
  -22.0180  -12.9430   21.9930 N   0  0  0  0  0  0  0  0  0  0  0  0
  -22.3320  -14.6560   20.6030 O   0  0  0  0  0  0  0  0  0  0  0  0
  -22.3730  -12.1110   22.4420 H   0  0  0  0  0  0  0  0  0  0  0  0
  -21.0810  -13.2540   22.2100 H   0  0  0  0  0  0  0  0  0  0  0  0
  -25.3990  -15.2670   20.3050 N   0  0  0  0  0  0  0  0  0  0  0  0
  -24.6190  -15.9120   20.3770 H   0  0  0  0  0  0  0  0  0  0  0  0
  -26.2310  -15.6970   19.9280 H   0  0  0  0  0  0  0  0  0  0  0  0
  -31.2420  -19.9520   22.6870 N   0  0  0  0  0  0  0  0  0  0  0  0
  -30.9220  -20.8950   22.8920 H   0  0  0  0  0  0  0  0  0  0  0  0
  -31.4120  -19.4180   23.5340 H   0  0  0  0  0  0  0  0  0  0  0  0
  -29.8490  -21.5270   20.9210 O   0  0  0  0  0  0  0  0  0  0  0  0
  -28.9980  -22.4760   20.2030 C   0  0  0  0  0  2  0  0  0  0  0  0
  -29.2350  -24.0110   20.5860 C   0  0  0  0  0  3  0  0  0  0  0  0
  -28.2270  -25.0790   19.9840 C   0  0  0  0  0  3  0  0  0  0  0  0
  -28.3900  -26.5160   20.3090 O   0  0  0  0  0  0  0  0  0  0  0  0
  -24.6300  -31.9010   23.2790 C   0  0  0  0  0  0  0  0  0  0  0  0
  -27.2680  -27.3590   20.2260 C   0  0  0  0  0  0  0  0  0  0  0  0
  -23.4410  -30.5140   21.6190 C   0  0  0  0  0  3  0  0  0  0  0  0
  -24.9030  -28.9720   20.1970 C   0  0  0  0  0  0  0  0  0  0  0  0
  -25.9830  -30.8260   21.4670 C   0  0  0  0  0  2  0  0  0  0  0  0
  -26.0640  -29.4530   20.8130 C   0  0  0  0  0  0  0  0  0  0  0  0
  -27.2470  -28.6580   20.8210 C   0  0  0  0  0  3  0  0  0  0  0  0
  -26.0860  -26.9380   19.5700 C   0  0  0  0  0  3  0  0  0  0  0  0
  -24.9170  -27.7200   19.5670 C   0  0  0  0  0  3  0  0  0  0  0  0
  -23.6680  -29.8470   20.2370 C   0  0  0  0  0  2  0  0  0  0  0  0
  -24.7030  -31.0980   22.1780 N   0  0  0  0  0  0  0  0  0  0  0  0
  -23.5410  -32.1800   23.8020 O   0  0  0  0  0  0  0  0  0  0  0  0
  -22.7670  -29.4930   22.5650 C   0  0  0  0  0  0  0  0  0  0  0  0
  -21.4430  -29.3170   22.4170 N   0  0  0  0  0  0  0  0  0  0  0  0
  -23.4330  -28.8640   23.3920 O   0  0  0  0  0  0  0  0  0  0  0  0
  -20.9670  -29.8720   21.7200 H   0  0  0  0  0  0  0  0  0  0  0  0
  -18.0570  -28.1300   22.8720 C   0  0  0  0  0  0  0  0  0  0  0  0
  -20.6120  -28.3790   23.1750 C   0  0  0  0  0  3  0  0  0  0  0  0
  -20.7180  -26.9510   22.5940 C   0  0  0  0  0  2  0  0  0  0  0  0
  -19.6270  -26.6360   21.5660 C   0  0  0  0  0  2  0  0  0  0  0  0
  -18.2380  -26.7820   22.1940 C   0  0  0  0  0  2  0  0  0  0  0  0
  -19.1730  -28.8860   23.3190 C   0  0  0  0  0  0  0  0  0  0  0  0
  -18.9500  -30.1470   23.9120 C   0  0  0  0  0  3  0  0  0  0  0  0
  -17.6450  -30.6510   24.0670 C   0  0  0  0  0  3  0  0  0  0  0  0
  -16.5430  -29.8930   23.6350 C   0  0  0  0  0  3  0  0  0  0  0  0
  -16.7510  -28.6340   23.0440 C   0  0  0  0  0  3  0  0  0  0  0  0
  -25.9070  -32.5290   23.9190 C   0  0  0  0  0  3  0  0  0  0  0  0
  -25.6020  -33.9310   24.2360 N   0  0  0  0  0  0  0  0  0  0  0  0
  -25.9340  -34.9760   23.4670 C   0  0  0  0  0  0  0  0  0  0  0  0
  -26.6020  -34.8610   22.4360 O   0  0  0  0  0  0  0  0  0  0  0  0
  -25.0140  -34.0950   25.0410 H   0  0  0  0  0  0  0  0  0  0  0  0
  -24.2050  -36.7640   23.1050 C   0  0  0  0  0  1  0  0  0  0  0  0
  -25.4520  -36.3680   23.9130 C   0  0  0  0  0  3  0  0  0  0  0  0
  -27.5910  -37.2640   24.7210 C   0  0  0  0  0  1  0  0  0  0  0  0
  -26.4850  -37.4200   23.7790 N   0  0  0  0  0  0  0  0  0  0  0  0
  -26.0800  -38.3420   23.9140 H   0  0  0  0  0  0  0  0  0  0  0  0
  -26.3950  -31.7600   25.2090 C   0  0  1  0  0  0  0  0  0  0  0  0
  -25.2810  -31.5350   26.2570 C   0  0  0  0  0  1  0  0  0  0  0  0
  -26.9750  -30.3780   24.8340 C   0  0  0  0  0  1  0  0  0  0  0  0
  -27.5400  -32.5510   25.8860 C   0  0  0  0  0  1  0  0  0  0  0  0
  1  6  1  0
  2  5  1  0
  3  1  2  0
  3  4  1  0
  4 16  1  0
  4  2  2  0
  5 46  1  0
  6 49  1  0
  6  5  2  0
  7  3  1  0
  8 16  1  0
  9 14  1  0
 10 11  1  0
 10  9  1  0
 12 11  1  0
 12 21  1  0
 12 13  1  0
 14  8  1  0
 14 13  1  0
 15  8  2  0
 16 17  1  0
 18 19  2  0
 19 38  1  0
 20 19  1  0
 20 23  1  0
 21 18  1  0
 21 22  1  0
 22 20  2  0
 23 24  1  0
 24 25  2  0
 26 29  1  0
 26 25  1  0
 27 26  2  0
 28 27  1  0
 28 23  2  0
 29 30  1  0
 30 31  1  0
 31 32  2  0
 33 32  1  0
 33 37  1  0
 34 33  2  0
 35 30  2  0
 35 34  1  0
 36 35  1  0
 38 39  1  0
 39 42  1  0
 39 41  1  0
 40 38  2  0
 43 44  1  0
 43 18  1  0
 45 43  1  0
 46 47  1  0
 46 48  1  0
 50 51  1  0
 50 49  1  0
 52 53  1  0
 52 51  2  0
 54 65  2  0
 55 53  1  0
 55 60  1  0
 56 64  1  0
 56 66  1  0
 57 63  1  0
 57 59  1  0
 58 64  1  0
 59 60  2  0
 59 58  1  0
 61 55  2  0
 62 61  1  0
 62 57  2  0
 63 56  1  0
 64 54  1  0
 66 68  2  0
 67 66  1  0
 69 67  1  0
 70 79  2  0
 70 75  1  0
 71 67  1  0
 71 75  1  0
 72 71  1  0
 73 74  1  0
 73 72  1  0
 74 70  1  0
 75 76  2  0
 76 77  1  0
 78 77  2  0
 79 78  1  0
 80 54  1  0
 80 81  1  0
 80 90  1  0
 81 84  1  0
 82 86  1  0
 82 81  1  0
 83 82  2  0
 86 85  1  0
 88 86  1  0
 88 89  1  0
 88 87  1  0
 90 93  1  1
 90 91  1  0
 92 90  1  0
M  ISO  4   8 100  16 100  52 101  53 101
M  END
>  <TORSDO>  (73) 
F 21

>  <SCORE>  (73) 
-13.945

>  <name>  (73) 
72

>  <ligand_id>  (73) 
72

>  <original_smiles>  (73) 
[H]c1c([H])c([H])c2c(c1[H])C([H])([H])C([H])([H])C([H])([H])C2([H])N([H])C(=O)C1([H])N(C(=O)C([H])(N([H])C(=O)C([H])(N([H])C([H])([H])[H])C([H])([H])[H])C(C([H])([H])[H])(C([H])([H])[H])C([H])([H])[H])C([H])([H])c2c([H])c(OC([H])([H])C([H])([H])C([H])([H])Oc3c([H])c(C([H])([H])[H])c(N([H])C(=O)N4C([H])([H])C([H])([H])C([H])([H])C([H])(n5nc(-c6c([H])c([H])c(Oc7c([H])c([H])c(F)c([H])c7F)c([H])c6[H])c(C(=O)N([H])[H])c5N([H])[H])C4([H])[H])c([H])c3N([H])[H])c([H])c([H])c2C1([H])[H]

>  <smiles>  (73) 
[H]c1c([H])c([H])c2c(c1[H])C([H])([H])C([H])([H])C([H])([H])C2([H])N([H])C(=O)C1([H])N(C(=O)C([H])(N([H])C(=O)C([H])(N([H])C([H])([H])[H])C([H])([H])[H])C(C([H])([H])[H])(C([H])([H])[H])C([H])([H])[H])C([H])([H])c2c([H])c(OC([H])([H])C([H])([H])C([H])([H])Oc3c([H])c(C([H])([H])[H])c(N([H])C(=O)N4C([H])([H])C([H])([H])C([H])([H])C([H])(n5nc(-c6c([H])c([H])c(Oc7c([H])c([H])c(F)c([H])c7F)c([H])c6[H])c(C(=O)N([H])[H])c5N([H])[H])C4([H])[H])c([H])c3N([H])[H])c([H])c([H])c2C1([H])[H]

$$$$
73:0:0
     RDKit          3D

 95103  0  0  1  0  0  0  0  0999 V2000
  -29.2690  -19.6100   19.3020 C   0  0  0  0  0  3  0  0  0  0  0  0
  -29.6160  -20.1380   21.6470 C   0  0  0  0  0  3  0  0  0  0  0  0
  -30.2240  -17.9110   20.7950 C   0  0  0  0  0  0  0  0  0  0  0  0
  -29.7820  -18.3070   19.4980 C   0  0  0  0  0  0  0  0  0  0  0  0
  -29.2020  -20.5410   20.3590 C   0  0  0  0  0  0  0  0  0  0  0  0
  -30.1250  -18.8380   21.8630 C   0  0  0  0  0  0  0  0  0  0  0  0
  -29.8960  -17.4050   18.2730 C   0  0  0  0  0  1  0  0  0  0  0  0
  -30.5330  -18.4950   23.1120 F   0  0  0  0  0  0  0  0  0  0  0  0
  -30.8990  -14.4230   20.0460 C   0  0  0  0  0  0  0  0  0  0  0  0
  -30.3910  -12.3740   18.7770 C   0  0  0  0  0  2  0  0  0  0  0  0
  -29.3770  -12.6720   17.6560 C   0  0  0  0  0  2  0  0  0  0  0  0
  -27.9370  -12.5420   18.1890 C   0  0  0  0  0  2  0  0  0  0  0  0
  -27.7140  -13.3280   19.5090 C   0  0  0  0  0  3  0  0  0  0  0  0
  -28.8410  -13.0410   20.5280 C   0  0  0  0  0  2  0  0  0  0  0  0
  -30.1230  -13.3210   19.8680 N   0  0  0  0  0  0  0  0  0  0  0  0
  -32.0140  -14.5230   19.5250 O   0  0  0  0  0  0  0  0  0  0  0  0
  -30.9340  -16.6000   21.0180 C   0  0  0  0  0  0  0  0  0  0  0  0
  -30.2980  -15.4790   20.6250 N   0  0  0  0  0  0  0  0  0  0  0  0
  -32.0750  -16.6100   21.5010 O   0  0  0  0  0  0  0  0  0  0  0  0
  -29.2920  -15.4830   20.6270 H   0  0  0  0  0  0  0  0  0  0  0  0
  -25.3820  -13.9500   20.3910 C   0  0  0  0  0  0  0  0  0  0  0  0
  -24.3280  -13.1830   20.8110 C   0  0  0  0  0  0  0  0  0  0  0  0
  -24.7660  -11.8270   20.7180 C   0  0  0  0  0  0  0  0  0  0  0  0
  -26.3940  -13.0600   20.0710 N   0  0  0  0  0  0  0  0  0  0  0  0
  -26.0310  -11.7760   20.3270 N   0  0  0  0  0  0  0  0  0  0  0  0
  -24.0350  -10.5700   20.9260 C   0  0  0  0  0  0  0  0  0  0  0  0
  -24.4780   -9.5990   21.8500 C   0  0  0  0  0  3  0  0  0  0  0  0
  -23.7470   -8.4080   22.0440 C   0  0  0  0  0  3  0  0  0  0  0  0
  -22.5580   -8.1790   21.3130 C   0  0  0  0  0  0  0  0  0  0  0  0
  -22.1330   -9.1370   20.3770 C   0  0  0  0  0  3  0  0  0  0  0  0
  -22.8640  -10.3200   20.1810 C   0  0  0  0  0  3  0  0  0  0  0  0
  -21.7940   -7.0400   21.4180 O   0  0  0  0  0  0  0  0  0  0  0  0
  -21.7160   -6.3310   22.5900 C   0  0  0  0  0  0  0  0  0  0  0  0
  -21.2590   -6.9220   23.7880 C   0  0  0  0  0  3  0  0  0  0  0  0
  -21.1270   -6.1390   24.9520 C   0  0  0  0  0  3  0  0  0  0  0  0
  -21.4460   -4.7670   24.9190 C   0  0  0  0  0  0  0  0  0  0  0  0
  -21.8960   -4.1780   23.7240 C   0  0  0  0  0  3  0  0  0  0  0  0
  -22.0280   -4.9580   22.5620 C   0  0  0  0  0  0  0  0  0  0  0  0
  -22.4430   -4.3800   21.4090 F   0  0  0  0  0  0  0  0  0  0  0  0
  -21.3120   -4.0130   26.0350 F   0  0  0  0  0  0  0  0  0  0  0  0
  -22.9590  -13.6720   21.1840 C   0  0  0  0  0  0  0  0  0  0  0  0
  -22.2830  -12.9690   22.0850 N   0  0  0  0  0  0  0  0  0  0  0  0
  -22.5010  -14.7110   20.7100 O   0  0  0  0  0  0  0  0  0  0  0  0
  -22.6690  -12.1260   22.4830 H   0  0  0  0  0  0  0  0  0  0  0  0
  -21.3660  -13.2780   22.3780 H   0  0  0  0  0  0  0  0  0  0  0  0
  -25.5590  -15.3210   20.2320 N   0  0  0  0  0  0  0  0  0  0  0  0
  -24.8070  -15.9820   20.3890 H   0  0  0  0  0  0  0  0  0  0  0  0
  -26.3870  -15.7520   19.8410 H   0  0  0  0  0  0  0  0  0  0  0  0
  -28.7290  -21.8330   20.0730 N   0  0  0  0  0  0  0  0  0  0  0  0
  -28.6680  -22.0960   19.0900 H   0  0  0  0  0  0  0  0  0  0  0  0
  -29.0690  -22.9680   20.9370 C   0  0  0  0  0  2  0  0  0  0  0  0
  -28.9170  -24.3100   20.1970 C   0  0  0  0  0  0  0  0  0  0  0  0
  -28.9520  -24.3500   18.9610 O   0  0  0  0  0  0  0  0  0  0  0  0
  -28.7190  -25.5790   21.0430 C   0  0  0  0  0  2  0  0  0  0  0  0
  -28.7620  -26.7670   20.2360 O   0  0  0  0  0  0  0  0  0  0  0  0
  -24.6140  -31.7200   23.1760 C   0  0  0  0  0  0  0  0  0  0  0  0
  -27.5690  -27.4410   20.1820 C   0  0  0  0  0  0  0  0  0  0  0  0
  -23.5320  -30.2650   21.4930 C   0  0  0  0  0  3  0  0  0  0  0  0
  -25.1030  -28.8080   20.1120 C   0  0  0  0  0  0  0  0  0  0  0  0
  -26.0390  -30.7580   21.3720 C   0  0  0  0  0  2  0  0  0  0  0  0
  -26.2130  -29.3970   20.7310 C   0  0  0  0  0  0  0  0  0  0  0  0
  -27.4510  -28.7220   20.7600 C   0  0  0  0  0  3  0  0  0  0  0  0
  -26.4470  -26.8560   19.5590 C   0  0  0  0  0  3  0  0  0  0  0  0
  -25.2120  -27.5350   19.5240 C   0  0  0  0  0  3  0  0  0  0  0  0
  -23.8150  -29.6010   20.1220 C   0  0  0  0  0  2  0  0  0  0  0  0
  -24.7440  -30.9300   22.0730 N   0  0  0  0  0  0  0  0  0  0  0  0
  -23.5030  -31.9380   23.6800 O   0  0  0  0  0  0  0  0  0  0  0  0
  -22.9010  -29.2110   22.4300 C   0  0  0  0  0  0  0  0  0  0  0  0
  -21.5880  -28.9810   22.2680 N   0  0  0  0  0  0  0  0  0  0  0  0
  -23.5890  -28.6030   23.2520 O   0  0  0  0  0  0  0  0  0  0  0  0
  -21.0890  -29.5230   21.5760 H   0  0  0  0  0  0  0  0  0  0  0  0
  -18.2450  -27.6750   22.7060 C   0  0  0  0  0  0  0  0  0  0  0  0
  -20.7910  -28.0060   23.0130 C   0  0  0  0  0  3  0  0  0  0  0  0
  -20.9440  -26.5890   22.4140 C   0  0  0  0  0  2  0  0  0  0  0  0
  -19.8650  -26.2510   21.3810 C   0  0  0  0  0  2  0  0  0  0  0  0
  -18.4710  -26.3440   22.0070 C   0  0  0  0  0  2  0  0  0  0  0  0
  -19.3340  -28.4620   23.1610 C   0  0  0  0  0  0  0  0  0  0  0  0
  -19.0710  -29.7090   23.7680 C   0  0  0  0  0  3  0  0  0  0  0  0
  -17.7500  -30.1700   23.9250 C   0  0  0  0  0  3  0  0  0  0  0  0
  -16.6750  -29.3800   23.4850 C   0  0  0  0  0  3  0  0  0  0  0  0
  -16.9220  -28.1330   22.8830 C   0  0  0  0  0  3  0  0  0  0  0  0
  -25.8480  -32.4100   23.8380 C   0  0  0  0  0  3  0  0  0  0  0  0
  -26.3620  -31.6630   25.1280 C   0  0  1  0  0  0  0  0  0  0  0  0
  -25.2480  -31.3700   26.1600 C   0  0  0  0  0  1  0  0  0  0  0  0
  -27.0260  -30.3160   24.7560 C   0  0  0  0  0  1  0  0  0  0  0  0
  -27.4540  -32.5120   25.8260 C   0  0  0  0  0  1  0  0  0  0  0  0
  -25.4680  -33.7930   24.1520 N   0  0  0  0  0  0  0  0  0  0  0  0
  -25.7670  -34.8540   23.3900 C   0  0  0  0  0  0  0  0  0  0  0  0
  -26.4650  -34.7760   22.3750 O   0  0  0  0  0  0  0  0  0  0  0  0
  -24.8510  -33.9270   24.9410 H   0  0  0  0  0  0  0  0  0  0  0  0
  -23.9540  -36.5500   22.9890 C   0  0  0  0  0  1  0  0  0  0  0  0
  -25.2010  -36.2190   23.8240 C   0  0  0  0  0  3  0  0  0  0  0  0
  -27.2740  -37.2170   24.6810 C   0  0  0  0  0  1  0  0  0  0  0  0
  -26.1800  -37.3230   23.7190 N   0  0  0  0  0  0  0  0  0  0  0  0
  -25.7230  -38.2220   23.8560 H   0  0  0  0  0  0  0  0  0  0  0  0
  1  4  2  0
  1  5  1  0
  2  6  1  0
  3 17  1  0
  3  6  2  0
  4  3  1  0
  5  2  2  0
  6  8  1  0
  7  4  1  0
  9 18  1  0
 10 15  1  0
 11 12  1  0
 11 10  1  0
 13 12  1  0
 13 24  1  0
 13 14  1  0
 15  9  1  0
 15 14  1  0
 16  9  2  0
 17 19  2  0
 18 20  1  0
 18 17  1  0
 21 22  2  0
 22 41  1  0
 23 22  1  0
 23 26  1  0
 24 25  1  0
 24 21  1  0
 25 23  2  0
 26 27  1  0
 27 28  2  0
 29 32  1  0
 29 28  1  0
 30 29  2  0
 31 30  1  0
 31 26  2  0
 32 33  1  0
 33 34  1  0
 34 35  2  0
 36 35  1  0
 36 40  1  0
 37 36  2  0
 38 33  2  0
 38 37  1  0
 39 38  1  0
 41 42  1  0
 42 45  1  0
 42 44  1  0
 43 41  2  0
 46 47  1  0
 46 21  1  0
 48 46  1  0
 49  5  1  0
 49 51  1  0
 50 49  1  0
 52 51  1  0
 52 54  1  0
 53 52  2  0
 55 54  1  0
 56 67  2  0
 57 55  1  0
 57 62  1  0
 58 66  1  0
 58 68  1  0
 59 65  1  0
 59 61  1  0
 60 66  1  0
 61 62  2  0
 61 60  1  0
 63 57  2  0
 64 63  1  0
 64 59  2  0
 65 58  1  0
 66 56  1  0
 68 70  2  0
 69 68  1  0
 71 69  1  0
 72 81  2  0
 72 77  1  0
 73 69  1  0
 73 77  1  0
 74 73  1  0
 75 76  1  0
 75 74  1  0
 76 72  1  0
 77 78  2  0
 78 79  1  0
 80 79  2  0
 81 80  1  0
 82 56  1  0
 82 87  1  0
 82 83  1  0
 83 86  1  1
 83 84  1  0
 85 83  1  0
 87 90  1  0
 88 92  1  0
 88 87  1  0
 89 88  2  0
 92 91  1  0
 94 92  1  0
 94 95  1  0
 94 93  1  0
M  ISO  4   9 100  18 100  54 101  55 101
M  END
>  <TORSDO>  (74) 
F 20

>  <SCORE>  (74) 
-12.594

>  <name>  (74) 
73

>  <ligand_id>  (74) 
73

>  <original_smiles>  (74) 
[H]c1c([H])c([H])c2c(c1[H])C([H])([H])C([H])([H])C([H])([H])C2([H])N([H])C(=O)C1([H])N(C(=O)C([H])(N([H])C(=O)C([H])(N([H])C([H])([H])[H])C([H])([H])[H])C(C([H])([H])[H])(C([H])([H])[H])C([H])([H])[H])C([H])([H])c2c([H])c(OC([H])([H])C(=O)C([H])([H])N([H])c3c([H])c(F)c(C(=O)N([H])C(=O)N4C([H])([H])C([H])([H])C([H])([H])C([H])(n5nc(-c6c([H])c([H])c(Oc7c([H])c([H])c(F)c([H])c7F)c([H])c6[H])c(C(=O)N([H])[H])c5N([H])[H])C4([H])[H])c(C([H])([H])[H])c3[H])c([H])c([H])c2C1([H])[H]

>  <smiles>  (74) 
[H]c1c([H])c([H])c2c(c1[H])C([H])([H])C([H])([H])C([H])([H])C2([H])N([H])C(=O)C1([H])N(C(=O)C([H])(N([H])C(=O)C([H])(N([H])C([H])([H])[H])C([H])([H])[H])C(C([H])([H])[H])(C([H])([H])[H])C([H])([H])[H])C([H])([H])c2c([H])c(OC([H])([H])C(=O)C([H])([H])N([H])c3c([H])c(F)c(C(=O)N([H])C(=O)N4C([H])([H])C([H])([H])C([H])([H])C([H])(n5nc(-c6c([H])c([H])c(Oc7c([H])c([H])c(F)c([H])c7F)c([H])c6[H])c(C(=O)N([H])[H])c5N([H])[H])C4([H])[H])c(C([H])([H])[H])c3[H])c([H])c([H])c2C1([H])[H]

$$$$
74:0:0
     RDKit          3D

100109  0  0  1  0  0  0  0  0999 V2000
  -31.5060  -17.7200   21.0170 C   0  0  0  0  0  3  0  0  0  0  0  0
  -29.7420  -19.9420   20.2750 C   0  0  0  0  0  0  0  0  0  0  0  0
  -31.9210  -19.0540   21.1240 C   0  0  0  0  0  0  0  0  0  0  0  0
  -30.2140  -17.3840   20.5670 C   0  0  0  0  0  0  0  0  0  0  0  0
  -31.0840  -20.1350   20.7580 C   0  0  0  0  0  0  0  0  0  0  0  0
  -29.3410  -18.5140   20.2360 C   0  0  0  0  0  0  0  0  0  0  0  0
  -28.0720  -18.1810   19.8940 F   0  0  0  0  0  0  0  0  0  0  0  0
  -30.5870  -14.7920   20.2720 C   0  0  0  0  0  0  0  0  0  0  0  0
  -30.3460  -12.5160   19.2470 C   0  0  0  0  0  2  0  0  0  0  0  0
  -29.3970  -12.6150   18.0330 C   0  0  0  0  0  2  0  0  0  0  0  0
  -27.9350  -12.4490   18.4960 C   0  0  0  0  0  2  0  0  0  0  0  0
  -27.5910  -13.3400   19.7180 C   0  0  0  0  0  3  0  0  0  0  0  0
  -28.6620  -13.2240   20.8220 C   0  0  0  0  0  2  0  0  0  0  0  0
  -29.9480  -13.5720   20.2100 N   0  0  0  0  0  0  0  0  0  0  0  0
  -31.7640  -14.8640   19.9090 O   0  0  0  0  0  0  0  0  0  0  0  0
  -29.8280  -15.9380   20.5220 N   0  0  0  0  0  0  0  0  0  0  0  0
  -28.8440  -15.7650   20.6570 H   0  0  0  0  0  0  0  0  0  0  0  0
  -25.2280  -13.9590   20.4950 C   0  0  0  0  0  0  0  0  0  0  0  0
  -24.1600  -13.1950   20.8770 C   0  0  0  0  0  0  0  0  0  0  0  0
  -24.6050  -11.8380   20.8270 C   0  0  0  0  0  0  0  0  0  0  0  0
  -26.2560  -13.0680   20.2320 N   0  0  0  0  0  0  0  0  0  0  0  0
  -25.8890  -11.7880   20.4940 N   0  0  0  0  0  0  0  0  0  0  0  0
  -23.8690  -10.5830   21.0190 C   0  0  0  0  0  0  0  0  0  0  0  0
  -24.3140   -9.5960   21.9240 C   0  0  0  0  0  3  0  0  0  0  0  0
  -23.5800   -8.4040   22.1040 C   0  0  0  0  0  3  0  0  0  0  0  0
  -22.3840   -8.1930   21.3790 C   0  0  0  0  0  0  0  0  0  0  0  0
  -21.9570   -9.1680   20.4620 C   0  0  0  0  0  3  0  0  0  0  0  0
  -22.6920  -10.3510   20.2810 C   0  0  0  0  0  3  0  0  0  0  0  0
  -21.6150   -7.0570   21.4720 O   0  0  0  0  0  0  0  0  0  0  0  0
  -21.6010   -6.2880   22.6070 C   0  0  0  0  0  0  0  0  0  0  0  0
  -21.2410   -6.8230   23.8640 C   0  0  0  0  0  3  0  0  0  0  0  0
  -21.1720   -5.9820   24.9920 C   0  0  0  0  0  3  0  0  0  0  0  0
  -21.4540   -4.6090   24.8680 C   0  0  0  0  0  0  0  0  0  0  0  0
  -21.8060   -4.0730   23.6170 C   0  0  0  0  0  3  0  0  0  0  0  0
  -21.8770   -4.9110   22.4900 C   0  0  0  0  0  0  0  0  0  0  0  0
  -22.1990   -4.3860   21.2830 F   0  0  0  0  0  0  0  0  0  0  0  0
  -21.3800   -3.8000   25.9510 F   0  0  0  0  0  0  0  0  0  0  0  0
  -22.7730  -13.6860   21.1770 C   0  0  0  0  0  0  0  0  0  0  0  0
  -22.0580  -12.9950   22.0590 N   0  0  0  0  0  0  0  0  0  0  0  0
  -22.3370  -14.7160   20.6640 O   0  0  0  0  0  0  0  0  0  0  0  0
  -22.4260  -12.1630   22.4940 H   0  0  0  0  0  0  0  0  0  0  0  0
  -21.1260  -13.3020   22.3000 H   0  0  0  0  0  0  0  0  0  0  0  0
  -25.4060  -15.3290   20.3200 N   0  0  0  0  0  0  0  0  0  0  0  0
  -24.6460  -15.9900   20.4360 H   0  0  0  0  0  0  0  0  0  0  0  0
  -26.2340  -15.7540   19.9250 H   0  0  0  0  0  0  0  0  0  0  0  0
  -26.8710  -21.8490   18.6230 C   0  0  0  0  0  0  0  0  0  0  0  0
  -27.1510  -23.3460   18.6740 C   0  0  0  0  0  2  0  0  0  0  0  0
  -28.0870  -20.9190   18.6690 C   0  0  0  0  0  2  0  0  0  0  0  0
  -29.2630  -22.5910   20.0370 C   0  0  0  0  0  2  0  0  0  0  0  0
  -28.1640  -23.7610   19.7740 C   0  0  0  0  0  3  0  0  0  0  0  0
  -28.9040  -21.1070   19.8810 N   0  0  0  0  0  0  0  0  0  0  0  0
  -25.7230  -21.4120   18.5150 O   0  0  0  0  0  0  0  0  0  0  0  0
  -28.7180  -25.2430   19.4080 C   0  0  0  0  0  2  0  0  0  0  0  0
  -28.4750  -26.5100   20.1570 O   0  0  0  0  0  0  0  0  0  0  0  0
  -24.5330  -31.7560   23.1490 C   0  0  0  0  0  0  0  0  0  0  0  0
  -27.3280  -27.3160   20.0480 C   0  0  0  0  0  0  0  0  0  0  0  0
  -23.4000  -30.3600   21.4520 C   0  0  0  0  0  3  0  0  0  0  0  0
  -24.9200  -28.8700   20.0250 C   0  0  0  0  0  0  0  0  0  0  0  0
  -25.9320  -30.7450   21.3300 C   0  0  0  0  0  2  0  0  0  0  0  0
  -26.0620  -29.3790   20.6570 C   0  0  0  0  0  0  0  0  0  0  0  0
  -27.2640  -28.6090   20.6610 C   0  0  0  0  0  3  0  0  0  0  0  0
  -26.1680  -26.8640   19.3850 C   0  0  0  0  0  3  0  0  0  0  0  0
  -24.9770  -27.6210   19.3780 C   0  0  0  0  0  3  0  0  0  0  0  0
  -23.6580  -29.7060   20.0680 C   0  0  0  0  0  2  0  0  0  0  0  0
  -24.6390  -30.9710   22.0350 N   0  0  0  0  0  0  0  0  0  0  0  0
  -23.4320  -31.9930   23.6680 O   0  0  0  0  0  0  0  0  0  0  0  0
  -22.7460  -29.3110   22.3820 C   0  0  0  0  0  0  0  0  0  0  0  0
  -21.4240  -29.1230   22.2390 N   0  0  0  0  0  0  0  0  0  0  0  0
  -23.4260  -28.6710   23.1880 O   0  0  0  0  0  0  0  0  0  0  0  0
  -20.9390  -29.6880   21.5580 H   0  0  0  0  0  0  0  0  0  0  0  0
  -18.0510  -27.8920   22.6980 C   0  0  0  0  0  0  0  0  0  0  0  0
  -20.6090  -28.1570   22.9760 C   0  0  0  0  0  3  0  0  0  0  0  0
  -20.7190  -26.7470   22.3500 C   0  0  0  0  0  2  0  0  0  0  0  0
  -19.6180  -26.4520   21.3260 C   0  0  0  0  0  2  0  0  0  0  0  0
  -18.2360  -26.5680   21.9740 C   0  0  0  0  0  2  0  0  0  0  0  0
  -19.1660  -28.6430   23.1520 C   0  0  0  0  0  0  0  0  0  0  0  0
  -18.9400  -29.8820   23.7900 C   0  0  0  0  0  3  0  0  0  0  0  0
  -17.6330  -30.3710   23.9750 C   0  0  0  0  0  3  0  0  0  0  0  0
  -16.5330  -29.6150   23.5350 C   0  0  0  0  0  3  0  0  0  0  0  0
  -16.7430  -28.3780   22.9030 C   0  0  0  0  0  3  0  0  0  0  0  0
  -25.7840  -32.4130   23.8090 C   0  0  0  0  0  3  0  0  0  0  0  0
  -26.2790  -31.6430   25.0940 C   0  0  1  0  0  0  0  0  0  0  0  0
  -25.1610  -31.3760   26.1300 C   0  0  0  0  0  1  0  0  0  0  0  0
  -26.8960  -30.2790   24.7100 C   0  0  0  0  0  1  0  0  0  0  0  0
  -27.3970  -32.4540   25.7930 C   0  0  0  0  0  1  0  0  0  0  0  0
  -25.4370  -33.8010   24.1420 N   0  0  0  0  0  0  0  0  0  0  0  0
  -25.7650  -34.8690   23.4020 C   0  0  0  0  0  0  0  0  0  0  0  0
  -26.4620  -34.7920   22.3860 O   0  0  0  0  0  0  0  0  0  0  0  0
  -24.8250  -33.9340   24.9340 H   0  0  0  0  0  0  0  0  0  0  0  0
  -24.0050  -36.6240   23.0260 C   0  0  0  0  0  1  0  0  0  0  0  0
  -25.2390  -36.2420   23.8590 C   0  0  0  0  0  3  0  0  0  0  0  0
  -27.3340  -37.1680   24.7390 C   0  0  0  0  0  1  0  0  0  0  0  0
  -26.2480  -37.3200   23.7740 N   0  0  0  0  0  0  0  0  0  0  0  0
  -25.8170  -38.2290   23.9220 H   0  0  0  0  0  0  0  0  0  0  0  0
  -33.2050  -19.3300   21.6090 N   0  0  0  0  0  0  0  0  0  0  0  0
  -33.9000  -18.5950   21.5910 H   0  0  0  0  0  0  0  0  0  0  0  0
  -33.5720  -20.2320   21.3230 H   0  0  0  0  0  0  0  0  0  0  0  0
  -31.6850  -21.3910   20.9220 N   0  0  0  0  0  0  0  0  0  0  0  0
  -31.0290  -22.1520   21.0070 H   0  0  0  0  0  0  0  0  0  0  0  0
  -32.3550  -21.4050   21.6810 H   0  0  0  0  0  0  0  0  0  0  0  0
  1  3  1  0
  2  5  1  0
  3 95  1  0
  4  1  2  0
  5 98  1  0
  5  3  2  0
  6  2  2  0
  6  4  1  0
  7  6  1  0
  8 16  1  0
  9 14  1  0
 10 11  1  0
 10  9  1  0
 12 11  1  0
 12 21  1  0
 12 13  1  0
 14  8  1  0
 14 13  1  0
 15  8  2  0
 16  4  1  0
 16 17  1  0
 18 19  2  0
 19 38  1  0
 20 19  1  0
 20 23  1  0
 21 22  1  0
 21 18  1  0
 22 20  2  0
 23 24  1  0
 24 25  2  0
 26 29  1  0
 26 25  1  0
 27 26  2  0
 28 27  1  0
 28 23  2  0
 29 30  1  0
 30 31  1  0
 31 32  2  0
 33 32  1  0
 33 37  1  0
 34 33  2  0
 35 30  2  0
 35 34  1  0
 36 35  1  0
 38 39  1  0
 39 42  1  0
 39 41  1  0
 40 38  2  0
 43 44  1  0
 43 18  1  0
 45 43  1  0
 46 48  1  0
 46 47  1  0
 47 50  1  0
 48 51  1  0
 50 53  1  0
 50 49  1  0
 51 49  1  0
 51  2  1  0
 52 46  2  0
 53 54  1  0
 55 66  2  0
 56 54  1  0
 56 61  1  0
 57 65  1  0
 57 67  1  0
 58 64  1  0
 58 60  1  0
 59 65  1  0
 60 61  2  0
 60 59  1  0
 62 56  2  0
 63 62  1  0
 63 58  2  0
 64 57  1  0
 65 55  1  0
 67 69  2  0
 68 67  1  0
 70 68  1  0
 71 80  2  0
 71 76  1  0
 72 68  1  0
 72 76  1  0
 73 72  1  0
 74 75  1  0
 74 73  1  0
 75 71  1  0
 76 77  2  0
 77 78  1  0
 79 78  2  0
 80 79  1  0
 81 55  1  0
 81 86  1  0
 81 82  1  0
 82 85  1  1
 82 83  1  0
 84 82  1  0
 86 89  1  0
 87 91  1  0
 87 86  1  0
 88 87  2  0
 91 90  1  0
 93 91  1  0
 93 94  1  0
 93 92  1  0
 96 95  1  0
 97 95  1  0
 98 99  1  0
 98100  1  0
M  ISO  4   8 100  16 100  53 101  54 101
M  END
>  <TORSDO>  (75) 
F 20

>  <SCORE>  (75) 
-14.811

>  <name>  (75) 
74

>  <ligand_id>  (75) 
74

>  <original_smiles>  (75) 
[H]c1c([H])c([H])c2c(c1[H])C([H])([H])C([H])([H])C([H])([H])C2([H])N([H])C(=O)C1([H])N(C(=O)C([H])(N([H])C(=O)C([H])(N([H])C([H])([H])[H])C([H])([H])[H])C(C([H])([H])[H])(C([H])([H])[H])C([H])([H])[H])C([H])([H])c2c([H])c(OC([H])([H])C3([H])C([H])([H])C(=O)C([H])([H])N(c4c(F)c(N([H])C(=O)N5C([H])([H])C([H])([H])C([H])([H])C([H])(n6nc(-c7c([H])c([H])c(Oc8c([H])c([H])c(F)c([H])c8F)c([H])c7[H])c(C(=O)N([H])[H])c6N([H])[H])C5([H])[H])c([H])c(N([H])[H])c4N([H])[H])C3([H])[H])c([H])c([H])c2C1([H])[H]

>  <smiles>  (75) 
[H]c1c([H])c([H])c2c(c1[H])C([H])([H])C([H])([H])C([H])([H])C2([H])N([H])C(=O)C1([H])N(C(=O)C([H])(N([H])C(=O)C([H])(N([H])C([H])([H])[H])C([H])([H])[H])C(C([H])([H])[H])(C([H])([H])[H])C([H])([H])[H])C([H])([H])c2c([H])c(OC([H])([H])C3([H])C([H])([H])C(=O)C([H])([H])N(c4c(F)c(N([H])C(=O)N5C([H])([H])C([H])([H])C([H])([H])C([H])(n6nc(-c7c([H])c([H])c(Oc8c([H])c([H])c(F)c([H])c8F)c([H])c7[H])c(C(=O)N([H])[H])c6N([H])[H])C5([H])[H])c([H])c(N([H])[H])c4N([H])[H])C3([H])[H])c([H])c([H])c2C1([H])[H]

$$$$
75:0:0
     RDKit          3D

 94103  0  0  1  0  0  0  0  0999 V2000
  -29.8870  -21.1270   19.7540 C   0  0  0  0  0  0  0  0  0  0  0  0
  -28.0730  -23.3750   22.0880 C   0  0  0  0  0  2  0  0  0  0  0  0
  -28.3230  -21.9410   21.5810 C   0  0  0  0  0  2  0  0  0  0  0  0
  -29.2000  -23.5070   19.9870 C   0  0  0  0  0  2  0  0  0  0  0  0
  -28.1900  -24.2810   20.8560 C   0  0  0  0  0  3  0  0  0  0  0  0
  -29.1440  -22.0830   20.3780 N   0  0  0  0  0  0  0  0  0  0  0  0
  -30.6250  -21.4150   18.8070 O   0  0  0  0  0  0  0  0  0  0  0  0
  -28.7010  -18.8980   20.2720 C   0  0  0  0  0  3  0  0  0  0  0  0
  -28.7700  -17.5080   20.5410 C   0  0  0  0  0  3  0  0  0  0  0  0
  -31.1140  -19.0380   20.4780 C   0  0  0  0  0  3  0  0  0  0  0  0
  -29.8810  -19.6810   20.2170 C   0  0  0  0  0  0  0  0  0  0  0  0
  -30.0130  -16.8610   20.7520 C   0  0  0  0  0  0  0  0  0  0  0  0
  -31.1840  -17.6580   20.7720 C   0  0  0  0  0  0  0  0  0  0  0  0
  -32.3850  -17.1220   21.0870 F   0  0  0  0  0  0  0  0  0  0  0  0
  -30.6900  -14.5170   20.2320 C   0  0  0  0  0  0  0  0  0  0  0  0
  -30.3750  -12.3930   19.0100 C   0  0  0  0  0  2  0  0  0  0  0  0
  -29.3800  -12.6150   17.8510 C   0  0  0  0  0  2  0  0  0  0  0  0
  -27.9210  -12.4770   18.3320 C   0  0  0  0  0  2  0  0  0  0  0  0
  -27.6380  -13.2740   19.6340 C   0  0  0  0  0  3  0  0  0  0  0  0
  -28.7310  -12.9940   20.6880 C   0  0  0  0  0  2  0  0  0  0  0  0
  -30.0370  -13.3300   20.0930 N   0  0  0  0  0  0  0  0  0  0  0  0
  -31.7630  -14.7430   19.6660 O   0  0  0  0  0  0  0  0  0  0  0  0
  -30.0260  -15.4430   20.9610 N   0  0  0  0  0  0  0  0  0  0  0  0
  -29.2040  -15.0650   21.4040 H   0  0  0  0  0  0  0  0  0  0  0  0
  -25.2630  -13.8720   20.4380 C   0  0  0  0  0  0  0  0  0  0  0  0
  -24.2100  -13.0940   20.8370 C   0  0  0  0  0  0  0  0  0  0  0  0
  -24.6700  -11.7440   20.7680 C   0  0  0  0  0  0  0  0  0  0  0  0
  -26.2990  -12.9950   20.1550 N   0  0  0  0  0  0  0  0  0  0  0  0
  -25.9470  -11.7090   20.4090 N   0  0  0  0  0  0  0  0  0  0  0  0
  -23.9530  -10.4790   20.9630 C   0  0  0  0  0  0  0  0  0  0  0  0
  -24.3890   -9.5180   21.9000 C   0  0  0  0  0  3  0  0  0  0  0  0
  -23.6730   -8.3160   22.0810 C   0  0  0  0  0  3  0  0  0  0  0  0
  -22.5040   -8.0660   21.3250 C   0  0  0  0  0  0  0  0  0  0  0  0
  -22.0870   -9.0150   20.3740 C   0  0  0  0  0  3  0  0  0  0  0  0
  -22.8050  -10.2080   20.1910 C   0  0  0  0  0  3  0  0  0  0  0  0
  -21.7550   -6.9190   21.4190 O   0  0  0  0  0  0  0  0  0  0  0  0
  -21.6740   -6.2030   22.5850 C   0  0  0  0  0  0  0  0  0  0  0  0
  -21.1620   -6.7710   23.7730 C   0  0  0  0  0  3  0  0  0  0  0  0
  -21.0320   -5.9800   24.9320 C   0  0  0  0  0  3  0  0  0  0  0  0
  -21.4030   -4.6220   24.9050 C   0  0  0  0  0  0  0  0  0  0  0  0
  -21.9100   -4.0550   23.7230 C   0  0  0  0  0  3  0  0  0  0  0  0
  -22.0420   -4.8420   22.5660 C   0  0  0  0  0  0  0  0  0  0  0  0
  -22.5090   -4.2840   21.4240 F   0  0  0  0  0  0  0  0  0  0  0  0
  -21.2710   -3.8610   26.0160 F   0  0  0  0  0  0  0  0  0  0  0  0
  -22.8250  -13.5670   21.1690 C   0  0  0  0  0  0  0  0  0  0  0  0
  -22.1240  -12.8500   22.0400 N   0  0  0  0  0  0  0  0  0  0  0  0
  -22.3730  -14.6080   20.6920 O   0  0  0  0  0  0  0  0  0  0  0  0
  -22.5020  -12.0090   22.4500 H   0  0  0  0  0  0  0  0  0  0  0  0
  -21.1940  -13.1460   22.3020 H   0  0  0  0  0  0  0  0  0  0  0  0
  -25.4190  -15.2450   20.2750 N   0  0  0  0  0  0  0  0  0  0  0  0
  -24.6470  -15.8870   20.4150 H   0  0  0  0  0  0  0  0  0  0  0  0
  -26.2300  -15.6830   19.8590 H   0  0  0  0  0  0  0  0  0  0  0  0
  -28.5580  -25.7610   21.1900 C   0  0  0  0  0  2  0  0  0  0  0  0
  -28.4310  -26.6990   20.1050 O   0  0  0  0  0  0  0  0  0  0  0  0
  -24.6010  -31.8920   23.1700 C   0  0  0  0  0  0  0  0  0  0  0  0
  -27.2790  -27.4540   20.1150 C   0  0  0  0  0  0  0  0  0  0  0  0
  -23.4100  -30.4870   21.5150 C   0  0  0  0  0  3  0  0  0  0  0  0
  -24.8810  -28.9530   20.1000 C   0  0  0  0  0  0  0  0  0  0  0  0
  -25.9350  -30.8550   21.3350 C   0  0  0  0  0  2  0  0  0  0  0  0
  -26.0320  -29.4820   20.7000 C   0  0  0  0  0  0  0  0  0  0  0  0
  -27.2360  -28.7390   20.7070 C   0  0  0  0  0  3  0  0  0  0  0  0
  -26.1180  -26.9420   19.5040 C   0  0  0  0  0  3  0  0  0  0  0  0
  -24.9190  -27.6820   19.4990 C   0  0  0  0  0  3  0  0  0  0  0  0
  -23.6330  -29.8070   20.1370 C   0  0  0  0  0  2  0  0  0  0  0  0
  -24.6650  -31.0940   22.0640 N   0  0  0  0  0  0  0  0  0  0  0  0
  -23.5150  -32.1570   23.7050 O   0  0  0  0  0  0  0  0  0  0  0  0
  -22.7580  -29.4630   22.4740 C   0  0  0  0  0  0  0  0  0  0  0  0
  -21.4320  -29.2880   22.3560 N   0  0  0  0  0  0  0  0  0  0  0  0
  -23.4440  -28.8260   23.2790 O   0  0  0  0  0  0  0  0  0  0  0  0
  -20.9400  -29.8540   21.6790 H   0  0  0  0  0  0  0  0  0  0  0  0
  -18.0510  -28.1380   22.8980 C   0  0  0  0  0  0  0  0  0  0  0  0
  -20.6170  -28.3470   23.1230 C   0  0  0  0  0  3  0  0  0  0  0  0
  -20.6830  -26.9280   22.5130 C   0  0  0  0  0  2  0  0  0  0  0  0
  -19.5550  -26.6470   21.5140 C   0  0  0  0  0  2  0  0  0  0  0  0
  -18.1900  -26.8010   22.1900 C   0  0  0  0  0  2  0  0  0  0  0  0
  -19.1910  -28.8710   23.3220 C   0  0  0  0  0  0  0  0  0  0  0  0
  -19.0070  -30.1250   23.9460 C   0  0  0  0  0  3  0  0  0  0  0  0
  -17.7160  -30.6450   24.1490 C   0  0  0  0  0  3  0  0  0  0  0  0
  -16.5900  -29.9090   23.7420 C   0  0  0  0  0  3  0  0  0  0  0  0
  -16.7580  -28.6570   23.1220 C   0  0  0  0  0  3  0  0  0  0  0  0
  -25.8800  -32.5300   23.7960 C   0  0  0  0  0  3  0  0  0  0  0  0
  -25.5590  -33.9210   24.1390 N   0  0  0  0  0  0  0  0  0  0  0  0
  -25.8900  -34.9830   23.3900 C   0  0  0  0  0  0  0  0  0  0  0  0
  -26.5680  -34.8950   22.3630 O   0  0  0  0  0  0  0  0  0  0  0  0
  -24.9620  -34.0650   24.9390 H   0  0  0  0  0  0  0  0  0  0  0  0
  -24.1630  -36.7730   23.0270 C   0  0  0  0  0  1  0  0  0  0  0  0
  -25.3890  -36.3630   23.8580 C   0  0  0  0  0  3  0  0  0  0  0  0
  -27.4980  -37.2480   24.7500 C   0  0  0  0  0  1  0  0  0  0  0  0
  -26.4190  -37.4210   23.7800 N   0  0  0  0  0  0  0  0  0  0  0  0
  -26.0050  -38.3380   23.9240 H   0  0  0  0  0  0  0  0  0  0  0  0
  -26.4050  -31.7510   25.0650 C   0  0  1  0  0  0  0  0  0  0  0  0
  -25.3170  -31.4880   26.1300 C   0  0  0  0  0  1  0  0  0  0  0  0
  -27.0070  -30.3860   24.6560 C   0  0  0  0  0  1  0  0  0  0  0  0
  -27.5440  -32.5530   25.7400 C   0  0  0  0  0  1  0  0  0  0  0  0
  1 11  1  0
  1  6  1  0
  3  2  1  0
  4  6  1  0
  4  5  1  0
  5 53  1  0
  5  2  1  0
  6  3  1  0
  7  1  2  0
  8  9  1  0
  9 12  2  0
 10 13  2  0
 11  8  2  0
 11 10  1  0
 12 13  1  0
 12 23  1  0
 13 14  1  0
 15 23  1  0
 16 21  1  0
 17 18  1  0
 17 16  1  0
 19 18  1  0
 19 28  1  0
 19 20  1  0
 21 15  1  0
 21 20  1  0
 22 15  2  0
 23 24  1  0
 25 26  2  0
 26 45  1  0
 27 26  1  0
 27 30  1  0
 28 29  1  0
 28 25  1  0
 29 27  2  0
 30 31  1  0
 31 32  2  0
 33 36  1  0
 33 32  1  0
 34 33  2  0
 35 34  1  0
 35 30  2  0
 36 37  1  0
 37 38  1  0
 38 39  2  0
 40 39  1  0
 40 44  1  0
 41 40  2  0
 42 37  2  0
 42 41  1  0
 43 42  1  0
 45 46  1  0
 46 49  1  0
 46 48  1  0
 47 45  2  0
 50 51  1  0
 50 25  1  0
 52 50  1  0
 54 56  1  0
 54 53  1  0
 55 66  2  0
 56 61  1  0
 57 65  1  0
 57 67  1  0
 58 64  1  0
 58 60  1  0
 59 65  1  0
 60 61  2  0
 60 59  1  0
 62 56  2  0
 63 62  1  0
 63 58  2  0
 64 57  1  0
 65 55  1  0
 67 69  2  0
 68 67  1  0
 70 68  1  0
 71 80  2  0
 71 76  1  0
 72 68  1  0
 72 76  1  0
 73 72  1  0
 74 75  1  0
 74 73  1  0
 75 71  1  0
 76 77  2  0
 77 78  1  0
 79 78  2  0
 80 79  1  0
 81 55  1  0
 81 82  1  0
 81 91  1  0
 82 85  1  0
 83 87  1  0
 83 82  1  0
 84 83  2  0
 87 86  1  0
 89 87  1  0
 89 90  1  0
 89 88  1  0
 91 94  1  1
 91 92  1  0
 93 91  1  0
M  ISO  4  15 100  23 100  53 101  54 101
M  END
>  <TORSDO>  (76) 
F 18

>  <SCORE>  (76) 
-14.940

>  <name>  (76) 
75

>  <ligand_id>  (76) 
75

>  <original_smiles>  (76) 
[H]c1c([H])c([H])c2c(c1[H])C([H])([H])C([H])([H])C([H])([H])C2([H])N([H])C(=O)C1([H])N(C(=O)C([H])(N([H])C(=O)C([H])(N([H])C([H])([H])[H])C([H])([H])[H])C(C([H])([H])[H])(C([H])([H])[H])C([H])([H])[H])C([H])([H])c2c([H])c(OC([H])([H])C3([H])C([H])([H])N(C(=O)c4c([H])c([H])c(N([H])C(=O)N5C([H])([H])C([H])([H])C([H])([H])C([H])(n6nc(-c7c([H])c([H])c(Oc8c([H])c([H])c(F)c([H])c8F)c([H])c7[H])c(C(=O)N([H])[H])c6N([H])[H])C5([H])[H])c(F)c4[H])C([H])([H])C3([H])[H])c([H])c([H])c2C1([H])[H]

>  <smiles>  (76) 
[H]c1c([H])c([H])c2c(c1[H])C([H])([H])C([H])([H])C([H])([H])C2([H])N([H])C(=O)C1([H])N(C(=O)C([H])(N([H])C(=O)C([H])(N([H])C([H])([H])[H])C([H])([H])[H])C(C([H])([H])[H])(C([H])([H])[H])C([H])([H])[H])C([H])([H])c2c([H])c(OC([H])([H])C3([H])C([H])([H])N(C(=O)c4c([H])c([H])c(N([H])C(=O)N5C([H])([H])C([H])([H])C([H])([H])C([H])(n6nc(-c7c([H])c([H])c(Oc8c([H])c([H])c(F)c([H])c8F)c([H])c7[H])c(C(=O)N([H])[H])c6N([H])[H])C5([H])[H])c(F)c4[H])C([H])([H])C3([H])[H])c([H])c([H])c2C1([H])[H]

$$$$
76:0:0
     RDKit          3D

 92100  0  0  1  0  0  0  0  0999 V2000
  -30.2410  -21.7150   20.3590 C   0  0  0  0  0  0  0  0  0  0  0  0
  -29.2240  -22.6170   20.1910 N   0  0  0  0  0  0  0  0  0  0  0  0
  -31.3830  -22.1440   20.5470 O   0  0  0  0  0  0  0  0  0  0  0  0
  -28.2910  -22.2540   20.0450 H   0  0  0  0  0  0  0  0  0  0  0  0
  -31.2160  -19.3490   20.0870 C   0  0  0  0  0  3  0  0  0  0  0  0
  -31.1800  -17.9240   20.1470 C   0  0  0  0  0  3  0  0  0  0  0  0
  -28.8260  -18.0460   20.6030 C   0  0  0  0  0  3  0  0  0  0  0  0
  -30.0710  -20.1760   20.2900 C   0  0  0  0  0  0  0  0  0  0  0  0
  -29.9780  -17.2230   20.4200 C   0  0  0  0  0  0  0  0  0  0  0  0
  -28.8620  -19.4770   20.5450 C   0  0  0  0  0  0  0  0  0  0  0  0
  -27.7160  -20.1670   20.7630 F   0  0  0  0  0  0  0  0  0  0  0  0
  -30.6240  -14.7110   20.0850 C   0  0  0  0  0  0  0  0  0  0  0  0
  -30.3360  -12.5040   18.9760 C   0  0  0  0  0  2  0  0  0  0  0  0
  -29.3290  -12.6760   17.8170 C   0  0  0  0  0  2  0  0  0  0  0  0
  -27.8800  -12.5190   18.3180 C   0  0  0  0  0  2  0  0  0  0  0  0
  -27.5980  -13.3510   19.5970 C   0  0  0  0  0  3  0  0  0  0  0  0
  -28.7110  -13.1510   20.6510 C   0  0  0  0  0  2  0  0  0  0  0  0
  -29.9920  -13.4960   20.0150 N   0  0  0  0  0  0  0  0  0  0  0  0
  -31.7650  -14.8620   19.6380 O   0  0  0  0  0  0  0  0  0  0  0  0
  -29.8530  -15.7620   20.5210 N   0  0  0  0  0  0  0  0  0  0  0  0
  -28.9700  -15.4460   20.8940 H   0  0  0  0  0  0  0  0  0  0  0  0
  -25.2520  -13.9580   20.4530 C   0  0  0  0  0  0  0  0  0  0  0  0
  -24.1970  -13.1880   20.8600 C   0  0  0  0  0  0  0  0  0  0  0  0
  -24.6400  -11.8330   20.7710 C   0  0  0  0  0  0  0  0  0  0  0  0
  -26.2720  -13.0720   20.1430 N   0  0  0  0  0  0  0  0  0  0  0  0
  -25.9120  -11.7880   20.3950 N   0  0  0  0  0  0  0  0  0  0  0  0
  -23.9100  -10.5740   20.9680 C   0  0  0  0  0  0  0  0  0  0  0  0
  -24.3480   -9.6020   21.8940 C   0  0  0  0  0  3  0  0  0  0  0  0
  -23.6170   -8.4070   22.0770 C   0  0  0  0  0  3  0  0  0  0  0  0
  -22.4340   -8.1780   21.3360 C   0  0  0  0  0  0  0  0  0  0  0  0
  -22.0150   -9.1390   20.3990 C   0  0  0  0  0  3  0  0  0  0  0  0
  -22.7460  -10.3240   20.2130 C   0  0  0  0  0  3  0  0  0  0  0  0
  -21.6750   -7.0370   21.4290 O   0  0  0  0  0  0  0  0  0  0  0  0
  -21.5970   -6.3180   22.5950 C   0  0  0  0  0  0  0  0  0  0  0  0
  -21.1190   -6.8900   23.7930 C   0  0  0  0  0  3  0  0  0  0  0  0
  -20.9900   -6.0960   24.9510 C   0  0  0  0  0  3  0  0  0  0  0  0
  -21.3300   -4.7300   24.9100 C   0  0  0  0  0  0  0  0  0  0  0  0
  -21.8020   -4.1580   23.7160 C   0  0  0  0  0  3  0  0  0  0  0  0
  -21.9320   -4.9480   22.5610 C   0  0  0  0  0  0  0  0  0  0  0  0
  -22.3670   -4.3870   21.4080 F   0  0  0  0  0  0  0  0  0  0  0  0
  -21.1990   -3.9660   26.0190 F   0  0  0  0  0  0  0  0  0  0  0  0
  -22.8210  -13.6730   21.2160 C   0  0  0  0  0  0  0  0  0  0  0  0
  -22.1260  -12.9580   22.0920 N   0  0  0  0  0  0  0  0  0  0  0  0
  -22.3730  -14.7210   20.7520 O   0  0  0  0  0  0  0  0  0  0  0  0
  -22.5010  -12.1090   22.4900 H   0  0  0  0  0  0  0  0  0  0  0  0
  -21.2040  -13.2640   22.3720 H   0  0  0  0  0  0  0  0  0  0  0  0
  -25.4230  -15.3310   20.2990 N   0  0  0  0  0  0  0  0  0  0  0  0
  -24.6610  -15.9850   20.4480 H   0  0  0  0  0  0  0  0  0  0  0  0
  -26.2400  -15.7650   19.8880 H   0  0  0  0  0  0  0  0  0  0  0  0
  -29.4030  -24.1180   20.3100 C   0  0  0  0  0  3  0  0  0  0  0  0
  -28.2050  -25.0790   19.9140 C   0  0  0  0  0  3  0  0  0  0  0  0
  -28.3850  -26.5370   20.1240 O   0  0  0  0  0  0  0  0  0  0  0  0
  -24.5960  -31.8440   23.2130 C   0  0  0  0  0  0  0  0  0  0  0  0
  -27.2520  -27.3660   20.0830 C   0  0  0  0  0  0  0  0  0  0  0  0
  -23.4060  -30.4670   21.5430 C   0  0  0  0  0  3  0  0  0  0  0  0
  -24.8720  -28.9550   20.0940 C   0  0  0  0  0  0  0  0  0  0  0  0
  -25.9430  -30.8100   21.3720 C   0  0  0  0  0  2  0  0  0  0  0  0
  -26.0360  -29.4450   20.7010 C   0  0  0  0  0  0  0  0  0  0  0  0
  -27.2280  -28.6640   20.6840 C   0  0  0  0  0  3  0  0  0  0  0  0
  -26.0630  -26.9290   19.4540 C   0  0  0  0  0  3  0  0  0  0  0  0
  -24.8870  -27.7030   19.4620 C   0  0  0  0  0  3  0  0  0  0  0  0
  -23.6290  -29.8190   20.1520 C   0  0  0  0  0  2  0  0  0  0  0  0
  -24.6680  -31.0570   22.1000 N   0  0  0  0  0  0  0  0  0  0  0  0
  -23.5100  -32.1040   23.7490 O   0  0  0  0  0  0  0  0  0  0  0  0
  -22.7490  -29.4280   22.4830 C   0  0  0  0  0  0  0  0  0  0  0  0
  -21.4240  -29.2500   22.3530 N   0  0  0  0  0  0  0  0  0  0  0  0
  -23.4290  -28.7870   23.2880 O   0  0  0  0  0  0  0  0  0  0  0  0
  -20.9330  -29.8190   21.6770 H   0  0  0  0  0  0  0  0  0  0  0  0
  -18.0460  -28.0540   22.8470 C   0  0  0  0  0  0  0  0  0  0  0  0
  -20.6070  -28.2950   23.1040 C   0  0  0  0  0  3  0  0  0  0  0  0
  -20.6990  -26.8790   22.4900 C   0  0  0  0  0  2  0  0  0  0  0  0
  -19.5870  -26.5880   21.4760 C   0  0  0  0  0  2  0  0  0  0  0  0
  -18.2110  -26.7220   22.1330 C   0  0  0  0  0  2  0  0  0  0  0  0
  -19.1710  -28.8000   23.2880 C   0  0  0  0  0  0  0  0  0  0  0  0
  -18.9620  -30.0480   23.9150 C   0  0  0  0  0  3  0  0  0  0  0  0
  -17.6600  -30.5490   24.1050 C   0  0  0  0  0  3  0  0  0  0  0  0
  -16.5500  -29.8010   23.6780 C   0  0  0  0  0  3  0  0  0  0  0  0
  -16.7430  -28.5550   23.0550 C   0  0  0  0  0  3  0  0  0  0  0  0
  -25.8730  -32.4730   23.8500 C   0  0  0  0  0  3  0  0  0  0  0  0
  -26.3780  -31.6930   25.1260 C   0  0  1  0  0  0  0  0  0  0  0  0
  -25.2750  -31.4430   26.1800 C   0  0  0  0  0  1  0  0  0  0  0  0
  -26.9710  -30.3220   24.7300 C   0  0  0  0  0  1  0  0  0  0  0  0
  -27.5180  -32.4870   25.8070 C   0  0  0  0  0  1  0  0  0  0  0  0
  -25.5590  -33.8680   24.1880 N   0  0  0  0  0  0  0  0  0  0  0  0
  -25.8760  -34.9260   23.4290 C   0  0  0  0  0  0  0  0  0  0  0  0
  -26.5340  -34.8290   22.3890 O   0  0  0  0  0  0  0  0  0  0  0  0
  -24.9720  -34.0160   24.9970 H   0  0  0  0  0  0  0  0  0  0  0  0
  -24.1250  -36.7040   23.1110 C   0  0  0  0  0  1  0  0  0  0  0  0
  -25.3860  -36.3100   23.8960 C   0  0  0  0  0  3  0  0  0  0  0  0
  -27.5240  -37.2210   24.6900 C   0  0  0  0  0  1  0  0  0  0  0  0
  -26.4060  -37.3720   23.7610 N   0  0  0  0  0  0  0  0  0  0  0  0
  -25.9950  -38.2900   23.9080 H   0  0  0  0  0  0  0  0  0  0  0  0
  1  3  2  0
  2 50  1  0
  2  1  1  0
  4  2  1  0
  5  6  2  0
  5  8  1  0
  6  9  1  0
  8  1  1  0
  8 10  2  0
  9 20  1  0
  9  7  2  0
 10  7  1  0
 10 11  1  0
 12 20  1  0
 13 18  1  0
 14 15  1  0
 14 13  1  0
 16 15  1  0
 16 25  1  0
 16 17  1  0
 18 12  1  0
 18 17  1  0
 19 12  2  0
 20 21  1  0
 22 23  2  0
 23 42  1  0
 24 23  1  0
 24 27  1  0
 25 26  1  0
 25 22  1  0
 26 24  2  0
 27 28  1  0
 28 29  2  0
 30 33  1  0
 30 29  1  0
 31 30  2  0
 32 31  1  0
 32 27  2  0
 33 34  1  0
 34 35  1  0
 35 36  2  0
 37 36  1  0
 37 41  1  0
 38 37  2  0
 39 34  2  0
 39 38  1  0
 40 39  1  0
 42 43  1  0
 43 46  1  0
 43 45  1  0
 44 42  2  0
 47 48  1  0
 47 22  1  0
 49 47  1  0
 51 52  1  0
 51 50  2  0
 53 64  2  0
 54 52  1  0
 54 59  1  0
 55 63  1  0
 55 65  1  0
 56 62  1  0
 56 58  1  0
 57 63  1  0
 58 57  1  0
 59 58  2  0
 60 61  1  0
 60 54  2  0
 61 56  2  0
 62 55  1  0
 63 53  1  0
 65 67  2  0
 66 65  1  0
 68 66  1  0
 69 78  2  0
 69 74  1  0
 70 66  1  0
 70 74  1  0
 71 70  1  0
 72 73  1  0
 72 71  1  0
 73 69  1  0
 74 75  2  0
 75 76  1  0
 77 76  2  0
 78 77  1  0
 79 53  1  0
 79 84  1  0
 79 80  1  0
 80 83  1  1
 80 81  1  0
 82 80  1  0
 84 87  1  0
 85 89  1  0
 85 84  1  0
 86 85  2  0
 89 88  1  0
 91 89  1  0
 91 92  1  0
 91 90  1  0
M  ISO  4  12 100  20 100  51 101  52 101
M  END
>  <TORSDO>  (77) 
F 19

>  <SCORE>  (77) 
-14.260

>  <name>  (77) 
76

>  <ligand_id>  (77) 
76

>  <original_smiles>  (77) 
[H]c1c([H])c([H])c2c(c1[H])C([H])([H])C([H])([H])C([H])([H])C2([H])N([H])C(=O)C1([H])N(C(=O)C([H])(N([H])C(=O)C([H])(N([H])C([H])([H])[H])C([H])([H])[H])C(C([H])([H])[H])(C([H])([H])[H])C([H])([H])[H])C([H])([H])c2c([H])c(OC([H])([H])C([H])([H])N([H])C(=O)c3c([H])c([H])c(N([H])C(=O)N4C([H])([H])C([H])([H])C([H])([H])C([H])(n5nc(-c6c([H])c([H])c(Oc7c([H])c([H])c(F)c([H])c7F)c([H])c6[H])c(C(=O)N([H])[H])c5N([H])[H])C4([H])[H])c([H])c3F)c([H])c([H])c2C1([H])[H]

>  <smiles>  (77) 
[H]c1c([H])c([H])c2c(c1[H])C([H])([H])C([H])([H])C([H])([H])C2([H])N([H])C(=O)C1([H])N(C(=O)C([H])(N([H])C(=O)C([H])(N([H])C([H])([H])[H])C([H])([H])[H])C(C([H])([H])[H])(C([H])([H])[H])C([H])([H])[H])C([H])([H])c2c([H])c(OC([H])([H])C([H])([H])N([H])C(=O)c3c([H])c([H])c(N([H])C(=O)N4C([H])([H])C([H])([H])C([H])([H])C([H])(n5nc(-c6c([H])c([H])c(Oc7c([H])c([H])c(F)c([H])c7F)c([H])c6[H])c(C(=O)N([H])[H])c5N([H])[H])C4([H])[H])c([H])c3F)c([H])c([H])c2C1([H])[H]

$$$$
77:0:0
     RDKit          3D

 95104  0  0  1  0  0  0  0  0999 V2000
  -28.2900  -23.3960   19.8140 C   0  0  0  0  0  2  0  0  0  0  0  0
  -29.0000  -22.0280   19.9450 C   0  0  0  0  0  2  0  0  0  0  0  0
  -30.2100  -23.6530   21.1910 C   0  0  0  0  0  2  0  0  0  0  0  0
  -29.3360  -24.4460   20.2040 C   0  0  0  0  0  3  0  0  0  0  0  0
  -30.2540  -22.2430   20.7100 N   0  0  1  0  0  4  0  0  0  0  0  0
  -30.9980  -22.1960   20.0300 H   0  0  0  0  0  0  0  0  0  0  0  0
  -31.8760  -21.5530   22.5210 C   0  0  0  0  0  1  0  0  0  0  0  0
  -30.5680  -21.2270   21.7680 C   0  0  0  0  0  3  0  0  0  0  0  0
  -31.7810  -19.0930   20.9180 C   0  0  0  0  0  3  0  0  0  0  0  0
  -31.8040  -17.6930   20.6900 C   0  0  0  0  0  3  0  0  0  0  0  0
  -29.4050  -18.9840   21.4030 C   0  0  0  0  0  3  0  0  0  0  0  0
  -30.5860  -19.7540   21.3050 C   0  0  0  0  0  0  0  0  0  0  0  0
  -30.6230  -16.9260   20.8470 C   0  0  0  0  0  0  0  0  0  0  0  0
  -29.4270  -17.5920   21.1830 C   0  0  0  0  0  0  0  0  0  0  0  0
  -28.2880  -16.8720   21.3260 F   0  0  0  0  0  0  0  0  0  0  0  0
  -31.1790  -14.5910   20.0110 C   0  0  0  0  0  0  0  0  0  0  0  0
  -30.8150  -12.4560   18.8130 C   0  0  0  0  0  2  0  0  0  0  0  0
  -29.8130  -12.6830   17.6600 C   0  0  0  0  0  2  0  0  0  0  0  0
  -28.3560  -12.5750   18.1520 C   0  0  0  0  0  2  0  0  0  0  0  0
  -28.0980  -13.4070   19.4360 C   0  0  0  0  0  3  0  0  0  0  0  0
  -29.1890  -13.1130   20.4900 C   0  0  0  0  0  2  0  0  0  0  0  0
  -30.5010  -13.4160   19.8810 N   0  0  0  0  0  0  0  0  0  0  0  0
  -32.2560  -14.8120   19.4500 O   0  0  0  0  0  0  0  0  0  0  0  0
  -30.5210  -15.5060   20.7470 N   0  0  0  0  0  0  0  0  0  0  0  0
  -29.6710  -15.1450   21.1540 H   0  0  0  0  0  0  0  0  0  0  0  0
  -25.7470  -14.0870   20.2460 C   0  0  0  0  0  0  0  0  0  0  0  0
  -24.6710  -13.3460   20.6520 C   0  0  0  0  0  0  0  0  0  0  0  0
  -25.0870  -11.9810   20.5890 C   0  0  0  0  0  0  0  0  0  0  0  0
  -26.7550  -13.1750   19.9670 N   0  0  0  0  0  0  0  0  0  0  0  0
  -26.3610  -11.9030   20.2280 N   0  0  0  0  0  0  0  0  0  0  0  0
  -24.3290  -10.7400   20.8000 C   0  0  0  0  0  0  0  0  0  0  0  0
  -24.7220   -9.7900   21.7690 C   0  0  0  0  0  3  0  0  0  0  0  0
  -23.9670   -8.6140   21.9630 C   0  0  0  0  0  3  0  0  0  0  0  0
  -22.8070   -8.3790   21.1890 C   0  0  0  0  0  0  0  0  0  0  0  0
  -22.4340   -9.3170   20.2100 C   0  0  0  0  0  3  0  0  0  0  0  0
  -23.1890  -10.4850   20.0130 C   0  0  0  0  0  3  0  0  0  0  0  0
  -22.0260   -7.2530   21.2910 O   0  0  0  0  0  0  0  0  0  0  0  0
  -21.8540   -6.6030   22.4860 C   0  0  0  0  0  0  0  0  0  0  0  0
  -21.3350   -7.2590   23.6240 C   0  0  0  0  0  3  0  0  0  0  0  0
  -21.1090   -6.5360   24.8120 C   0  0  0  0  0  3  0  0  0  0  0  0
  -21.3940   -5.1580   24.8630 C   0  0  0  0  0  0  0  0  0  0  0  0
  -21.9050   -4.5020   23.7300 C   0  0  0  0  0  3  0  0  0  0  0  0
  -22.1320   -5.2230   22.5440 C   0  0  0  0  0  0  0  0  0  0  0  0
  -22.6060   -4.5810   21.4490 F   0  0  0  0  0  0  0  0  0  0  0  0
  -21.1700   -4.4600   26.0010 F   0  0  0  0  0  0  0  0  0  0  0  0
  -23.3020  -13.8640   20.9910 C   0  0  0  0  0  0  0  0  0  0  0  0
  -22.5980  -13.1920   21.8940 N   0  0  0  0  0  0  0  0  0  0  0  0
  -22.8690  -14.8990   20.4890 O   0  0  0  0  0  0  0  0  0  0  0  0
  -22.9640  -12.3530   22.3230 H   0  0  0  0  0  0  0  0  0  0  0  0
  -21.6810  -13.5200   22.1620 H   0  0  0  0  0  0  0  0  0  0  0  0
  -25.9490  -15.4530   20.0750 N   0  0  0  0  0  0  0  0  0  0  0  0
  -25.2260  -16.1370   20.2690 H   0  0  0  0  0  0  0  0  0  0  0  0
  -26.8370  -15.8750   19.8350 H   0  0  0  0  0  0  0  0  0  0  0  0
  -28.7620  -25.7750   20.7810 C   0  0  0  0  0  2  0  0  0  0  0  0
  -28.5820  -26.7840   19.7770 O   0  0  0  0  0  0  0  0  0  0  0  0
  -24.6370  -31.7230   23.1120 C   0  0  0  0  0  0  0  0  0  0  0  0
  -27.4010  -27.4850   19.8600 C   0  0  0  0  0  0  0  0  0  0  0  0
  -23.4600  -30.3320   21.4370 C   0  0  0  0  0  3  0  0  0  0  0  0
  -24.9530  -28.8930   19.9470 C   0  0  0  0  0  0  0  0  0  0  0  0
  -25.9670  -30.7930   21.2190 C   0  0  0  0  0  2  0  0  0  0  0  0
  -26.0970  -29.4430   20.5400 C   0  0  0  0  0  0  0  0  0  0  0  0
  -27.3270  -28.7460   20.4950 C   0  0  0  0  0  3  0  0  0  0  0  0
  -26.2440  -26.9460   19.2640 C   0  0  0  0  0  3  0  0  0  0  0  0
  -25.0200  -27.6430   19.3070 C   0  0  0  0  0  3  0  0  0  0  0  0
  -23.6760  -29.7010   20.0340 C   0  0  0  0  0  2  0  0  0  0  0  0
  -24.7060  -30.9640   21.9810 N   0  0  0  0  0  0  0  0  0  0  0  0
  -23.5540  -31.9360   23.6740 O   0  0  0  0  0  0  0  0  0  0  0  0
  -22.8570  -29.2600   22.3710 C   0  0  0  0  0  0  0  0  0  0  0  0
  -21.5390  -29.0280   22.2460 N   0  0  0  0  0  0  0  0  0  0  0  0
  -23.5690  -28.6400   23.1650 O   0  0  0  0  0  0  0  0  0  0  0  0
  -21.0230  -29.5850   21.5800 H   0  0  0  0  0  0  0  0  0  0  0  0
  -18.2260  -27.6610   22.7010 C   0  0  0  0  0  0  0  0  0  0  0  0
  -20.7660  -28.0360   22.9920 C   0  0  0  0  0  3  0  0  0  0  0  0
  -20.9410  -26.6250   22.3850 C   0  0  0  0  0  2  0  0  0  0  0  0
  -19.8610  -26.2710   21.3580 C   0  0  0  0  0  2  0  0  0  0  0  0
  -18.4700  -26.3370   21.9980 C   0  0  0  0  0  2  0  0  0  0  0  0
  -19.3040  -28.4660   23.1540 C   0  0  0  0  0  0  0  0  0  0  0  0
  -19.0230  -29.7050   23.7690 C   0  0  0  0  0  3  0  0  0  0  0  0
  -17.6950  -30.1400   23.9390 C   0  0  0  0  0  3  0  0  0  0  0  0
  -16.6310  -29.3320   23.5030 C   0  0  0  0  0  3  0  0  0  0  0  0
  -16.8970  -28.0940   22.8890 C   0  0  0  0  0  3  0  0  0  0  0  0
  -25.9070  -32.3790   23.7380 C   0  0  0  0  0  3  0  0  0  0  0  0
  -26.4660  -31.5890   24.9840 C   0  0  1  0  0  0  0  0  0  0  0  0
  -25.3970  -31.2840   26.0580 C   0  0  0  0  0  1  0  0  0  0  0  0
  -27.0880  -30.2430   24.5430 C   0  0  0  0  0  1  0  0  0  0  0  0
  -27.5980  -32.4010   25.6560 C   0  0  0  0  0  1  0  0  0  0  0  0
  -25.5570  -33.7570   24.1100 N   0  0  0  0  0  0  0  0  0  0  0  0
  -25.8390  -34.8390   23.3710 C   0  0  0  0  0  0  0  0  0  0  0  0
  -26.4930  -34.7840   22.3260 O   0  0  0  0  0  0  0  0  0  0  0  0
  -24.9730  -33.8720   24.9250 H   0  0  0  0  0  0  0  0  0  0  0  0
  -24.0430  -36.5780   23.0930 C   0  0  0  0  0  1  0  0  0  0  0  0
  -25.3120  -36.1970   23.8720 C   0  0  0  0  0  3  0  0  0  0  0  0
  -27.4280  -37.1350   24.6890 C   0  0  0  0  0  1  0  0  0  0  0  0
  -26.3060  -37.2870   23.7680 N   0  0  0  0  0  0  0  0  0  0  0  0
  -25.8700  -38.1890   23.9460 H   0  0  0  0  0  0  0  0  0  0  0  0
  1  2  1  0
  1  4  1  0
  2  5  1  0
  4 54  1  0
  4  3  1  0
  5  3  1  0
  5  8  1  0
  5  6  1  6
  8  7  1  0
  9 12  1  0
 10 13  1  0
 10  9  2  0
 12 11  2  0
 12  8  1  0
 13 14  2  0
 14 15  1  0
 14 11  1  0
 16 24  1  0
 17 22  1  0
 18 19  1  0
 18 17  1  0
 20 19  1  0
 20 29  1  0
 20 21  1  0
 22 16  1  0
 22 21  1  0
 23 16  2  0
 24 13  1  0
 24 25  1  0
 26 27  2  0
 27 46  1  0
 28 27  1  0
 28 31  1  0
 29 30  1  0
 29 26  1  0
 30 28  2  0
 31 32  1  0
 32 33  2  0
 34 37  1  0
 34 33  1  0
 35 34  2  0
 36 35  1  0
 36 31  2  0
 37 38  1  0
 38 43  2  0
 38 39  1  0
 39 40  2  0
 40 41  1  0
 41 45  1  0
 42 41  2  0
 43 42  1  0
 44 43  1  0
 46 47  1  0
 47 50  1  0
 47 49  1  0
 48 46  2  0
 51 26  1  0
 51 52  1  0
 53 51  1  0
 55 57  1  0
 55 54  1  0
 56 67  2  0
 57 62  1  0
 58 66  1  0
 58 68  1  0
 59 65  1  0
 59 61  1  0
 60 66  1  0
 61 60  1  0
 62 61  2  0
 63 64  1  0
 63 57  2  0
 64 59  2  0
 65 58  1  0
 66 56  1  0
 68 70  2  0
 69 68  1  0
 71 69  1  0
 72 81  2  0
 72 77  1  0
 73 69  1  0
 73 77  1  0
 74 73  1  0
 75 76  1  0
 75 74  1  0
 76 72  1  0
 77 78  2  0
 78 79  1  0
 80 79  2  0
 81 80  1  0
 82 56  1  0
 82 87  1  0
 82 83  1  0
 83 86  1  1
 83 84  1  0
 85 83  1  0
 87 90  1  0
 88 92  1  0
 88 87  1  0
 89 88  2  0
 92 91  1  0
 94 92  1  0
 94 95  1  0
 94 93  1  0
M  ISO  4  16 100  24 100  54 101  55 101
M  END
>  <TORSDO>  (78) 
F 19

>  <SCORE>  (78) 
-12.976

>  <name>  (78) 
77

>  <ligand_id>  (78) 
77

>  <original_smiles>  (78) 
[H]c1c([H])c([H])c2c(c1[H])C([H])([H])C([H])([H])C([H])([H])C2([H])N([H])C(=O)C1([H])N(C(=O)C([H])(N([H])C(=O)C([H])(N([H])C([H])([H])[H])C([H])([H])[H])C(C([H])([H])[H])(C([H])([H])[H])C([H])([H])[H])C([H])([H])c2c([H])c(OC([H])([H])C3([H])C([H])([H])C([H])([H])[N+]([H])(C([H])(c4c([H])c([H])c(N([H])C(=O)N5C([H])([H])C([H])([H])C([H])([H])C([H])(n6nc(-c7c([H])c([H])c(Oc8c([H])c([H])c(F)c([H])c8F)c([H])c7[H])c(C(=O)N([H])[H])c6N([H])[H])C5([H])[H])c(F)c4[H])C([H])([H])[H])C3([H])[H])c([H])c([H])c2C1([H])[H]

>  <smiles>  (78) 
[H]c1c([H])c([H])c2c(c1[H])C([H])([H])C([H])([H])C([H])([H])C2([H])N([H])C(=O)C1([H])N(C(=O)C([H])(N([H])C(=O)C([H])(N([H])C([H])([H])[H])C([H])([H])[H])C(C([H])([H])[H])(C([H])([H])[H])C([H])([H])[H])C([H])([H])c2c([H])c(OC([H])([H])C3([H])C([H])([H])C([H])([H])[N+]([H])(C([H])(c4c([H])c([H])c(N([H])C(=O)N5C([H])([H])C([H])([H])C([H])([H])C([H])(n6nc(-c7c([H])c([H])c(Oc8c([H])c([H])c(F)c([H])c8F)c([H])c7[H])c(C(=O)N([H])[H])c6N([H])[H])C5([H])[H])c(F)c4[H])C([H])([H])[H])C3([H])[H])c([H])c([H])c2C1([H])[H]

$$$$
78:0:0
     RDKit          3D

 94102  0  0  1  0  0  0  0  0999 V2000
  -29.2360  -21.9480   20.1370 C   0  0  0  0  0  0  0  0  0  0  0  0
  -30.2760  -21.0990   20.0180 N   0  0  0  0  0  0  0  0  0  0  0  0
  -28.2030  -21.6740   20.7550 O   0  0  0  0  0  0  0  0  0  0  0  0
  -31.1440  -21.4860   19.6750 H   0  0  0  0  0  0  0  0  0  0  0  0
  -31.3870  -19.0010   20.7030 C   0  0  0  0  0  3  0  0  0  0  0  0
  -29.0850  -18.9540   19.9510 C   0  0  0  0  0  3  0  0  0  0  0  0
  -31.3540  -17.5980   20.9140 C   0  0  0  0  0  0  0  0  0  0  0  0
  -29.0440  -17.5680   20.1460 C   0  0  0  0  0  0  0  0  0  0  0  0
  -30.2450  -19.6920   20.2430 C   0  0  0  0  0  0  0  0  0  0  0  0
  -30.1740  -16.8590   20.6200 C   0  0  0  0  0  0  0  0  0  0  0  0
  -32.5950  -16.9210   21.4730 C   0  0  0  0  0  1  0  0  0  0  0  0
  -27.7510  -16.8730   19.8270 C   0  0  0  0  0  1  0  0  0  0  0  0
  -30.6230  -14.4860   20.0980 C   0  0  0  0  0  0  0  0  0  0  0  0
  -30.2120  -12.3670   18.9080 C   0  0  0  0  0  2  0  0  0  0  0  0
  -29.2010  -12.6100   17.7700 C   0  0  0  0  0  2  0  0  0  0  0  0
  -27.7550  -12.4470   18.2810 C   0  0  0  0  0  2  0  0  0  0  0  0
  -27.4950  -13.2450   19.5840 C   0  0  0  0  0  3  0  0  0  0  0  0
  -28.6210  -13.0220   20.6220 C   0  0  0  0  0  2  0  0  0  0  0  0
  -29.9160  -13.3250   19.9850 N   0  0  0  0  0  0  0  0  0  0  0  0
  -31.6870  -14.6760   19.5030 O   0  0  0  0  0  0  0  0  0  0  0  0
  -30.0530  -15.4490   20.8450 N   0  0  0  0  0  0  0  0  0  0  0  0
  -29.1910  -15.1500   21.2750 H   0  0  0  0  0  0  0  0  0  0  0  0
  -25.1320  -13.8400   20.4460 C   0  0  0  0  0  0  0  0  0  0  0  0
  -24.0960  -13.0640   20.8800 C   0  0  0  0  0  0  0  0  0  0  0  0
  -24.5570  -11.7170   20.7880 C   0  0  0  0  0  0  0  0  0  0  0  0
  -26.1710  -12.9700   20.1400 N   0  0  0  0  0  0  0  0  0  0  0  0
  -25.8260  -11.6840   20.4020 N   0  0  0  0  0  0  0  0  0  0  0  0
  -23.8420  -10.4550   20.9890 C   0  0  0  0  0  0  0  0  0  0  0  0
  -24.2950   -9.4910   21.9160 C   0  0  0  0  0  3  0  0  0  0  0  0
  -23.5760   -8.2920   22.1070 C   0  0  0  0  0  3  0  0  0  0  0  0
  -22.3930   -8.0500   21.3700 C   0  0  0  0  0  0  0  0  0  0  0  0
  -21.9590   -9.0040   20.4330 C   0  0  0  0  0  3  0  0  0  0  0  0
  -22.6780  -10.1940   20.2410 C   0  0  0  0  0  3  0  0  0  0  0  0
  -21.6450   -6.9030   21.4720 O   0  0  0  0  0  0  0  0  0  0  0  0
  -21.5970   -6.1780   22.6350 C   0  0  0  0  0  0  0  0  0  0  0  0
  -21.1330   -6.7400   23.8450 C   0  0  0  0  0  3  0  0  0  0  0  0
  -21.0350   -5.9390   25.0010 C   0  0  0  0  0  3  0  0  0  0  0  0
  -21.3880   -4.5770   24.9460 C   0  0  0  0  0  0  0  0  0  0  0  0
  -21.8430   -4.0150   23.7400 C   0  0  0  0  0  3  0  0  0  0  0  0
  -21.9440   -4.8130   22.5870 C   0  0  0  0  0  0  0  0  0  0  0  0
  -22.3640   -4.2610   21.4230 F   0  0  0  0  0  0  0  0  0  0  0  0
  -21.2860   -3.8050   26.0520 F   0  0  0  0  0  0  0  0  0  0  0  0
  -22.7210  -13.5390   21.2480 C   0  0  0  0  0  0  0  0  0  0  0  0
  -22.0410  -12.8220   22.1330 N   0  0  0  0  0  0  0  0  0  0  0  0
  -22.2620  -14.5840   20.7880 O   0  0  0  0  0  0  0  0  0  0  0  0
  -22.4250  -11.9760   22.5290 H   0  0  0  0  0  0  0  0  0  0  0  0
  -21.1200  -13.1210   22.4220 H   0  0  0  0  0  0  0  0  0  0  0  0
  -25.2380  -15.2080   20.2610 N   0  0  0  0  0  0  0  0  0  0  0  0
  -24.4340  -15.8140   20.3850 H   0  0  0  0  0  0  0  0  0  0  0  0
  -26.0050  -15.6600   19.7820 H   0  0  0  0  0  0  0  0  0  0  0  0
  -29.3720  -23.3210   19.4760 C   0  0  0  0  0  2  0  0  0  0  0  0
  -28.5990  -24.4500   20.1900 C   0  0  0  0  0  2  0  0  0  0  0  0
  -28.5760  -25.7320   19.3480 C   0  0  0  0  0  2  0  0  0  0  0  0
  -28.3050  -26.8590   20.1710 O   0  0  0  0  0  0  0  0  0  0  0  0
  -24.4970  -31.9690   23.2210 C   0  0  0  0  0  0  0  0  0  0  0  0
  -27.0840  -27.4940   20.1580 C   0  0  0  0  0  0  0  0  0  0  0  0
  -23.2570  -30.5580   21.6050 C   0  0  0  0  0  3  0  0  0  0  0  0
  -24.6800  -28.9840   20.1880 C   0  0  0  0  0  0  0  0  0  0  0  0
  -25.7800  -30.8960   21.3750 C   0  0  0  0  0  2  0  0  0  0  0  0
  -25.8420  -29.5170   20.7560 C   0  0  0  0  0  0  0  0  0  0  0  0
  -27.0390  -28.7740   20.7460 C   0  0  0  0  0  3  0  0  0  0  0  0
  -25.8990  -26.9550   19.6010 C   0  0  0  0  0  3  0  0  0  0  0  0
  -24.7010  -27.6990   19.6140 C   0  0  0  0  0  3  0  0  0  0  0  0
  -23.4410  -29.8500   20.2350 C   0  0  0  0  0  2  0  0  0  0  0  0
  -24.5300  -31.1580   22.1260 N   0  0  0  0  0  0  0  0  0  0  0  0
  -23.4260  -32.2590   23.7720 O   0  0  0  0  0  0  0  0  0  0  0  0
  -22.6090  -29.5580   22.5870 C   0  0  0  0  0  0  0  0  0  0  0  0
  -21.2840  -29.3760   22.4640 N   0  0  0  0  0  0  0  0  0  0  0  0
  -23.2930  -28.9450   23.4110 O   0  0  0  0  0  0  0  0  0  0  0  0
  -20.7950  -29.9170   21.7660 H   0  0  0  0  0  0  0  0  0  0  0  0
  -17.9140  -28.1840   22.9770 C   0  0  0  0  0  0  0  0  0  0  0  0
  -20.4700  -28.4530   23.2520 C   0  0  0  0  0  3  0  0  0  0  0  0
  -20.5780  -27.0110   22.7080 C   0  0  0  0  0  2  0  0  0  0  0  0
  -19.4810  -26.6630   21.6970 C   0  0  0  0  0  2  0  0  0  0  0  0
  -18.0960  -26.8200   22.3320 C   0  0  0  0  0  2  0  0  0  0  0  0
  -19.0300  -28.9570   23.3950 C   0  0  0  0  0  0  0  0  0  0  0  0
  -18.8070  -30.2330   23.9580 C   0  0  0  0  0  3  0  0  0  0  0  0
  -17.5020  -30.7370   24.1050 C   0  0  0  0  0  3  0  0  0  0  0  0
  -16.4000  -29.9610   23.7050 C   0  0  0  0  0  3  0  0  0  0  0  0
  -16.6070  -28.6870   23.1470 C   0  0  0  0  0  3  0  0  0  0  0  0
  -25.7970  -32.5940   23.8180 C   0  0  0  0  0  3  0  0  0  0  0  0
  -26.3440  -31.8130   25.0760 C   0  0  1  0  0  0  0  0  0  0  0  0
  -25.2770  -31.5760   26.1700 C   0  0  0  0  0  1  0  0  0  0  0  0
  -26.9110  -30.4360   24.6600 C   0  0  0  0  0  1  0  0  0  0  0  0
  -27.5180  -32.5980   25.7110 C   0  0  0  0  0  1  0  0  0  0  0  0
  -25.5000  -33.9890   24.1640 N   0  0  0  0  0  0  0  0  0  0  0  0
  -25.8230  -35.0470   23.4060 C   0  0  0  0  0  0  0  0  0  0  0  0
  -26.4750  -34.9500   22.3630 O   0  0  0  0  0  0  0  0  0  0  0  0
  -24.9250  -34.1410   24.9800 H   0  0  0  0  0  0  0  0  0  0  0  0
  -24.0960  -36.8450   23.0900 C   0  0  0  0  0  1  0  0  0  0  0  0
  -25.3460  -36.4320   23.8830 C   0  0  0  0  0  3  0  0  0  0  0  0
  -27.4900  -37.3030   24.7000 C   0  0  0  0  0  1  0  0  0  0  0  0
  -26.3810  -37.4810   23.7680 N   0  0  0  0  0  0  0  0  0  0  0  0
  -25.9790  -38.4020   23.9250 H   0  0  0  0  0  0  0  0  0  0  0  0
  1  3  2  0
  2  1  1  0
  2  9  1  0
  4  2  1  0
  5  7  1  0
  6  8  2  0
  6  9  1  0
  7 11  1  0
  8 10  1  0
  9  5  2  0
 10 21  1  0
 10  7  2  0
 12  8  1  0
 13 21  1  0
 14 19  1  0
 15 16  1  0
 15 14  1  0
 17 16  1  0
 17 26  1  0
 17 18  1  0
 19 13  1  0
 19 18  1  0
 20 13  2  0
 21 22  1  0
 23 24  2  0
 24 43  1  0
 25 24  1  0
 25 28  1  0
 26 27  1  0
 26 23  1  0
 27 25  2  0
 28 29  1  0
 29 30  2  0
 31 34  1  0
 31 30  1  0
 32 31  2  0
 33 32  1  0
 33 28  2  0
 34 35  1  0
 35 36  1  0
 36 37  2  0
 38 37  1  0
 38 42  1  0
 39 38  2  0
 40 35  2  0
 40 39  1  0
 41 40  1  0
 43 44  1  0
 44 47  1  0
 44 46  1  0
 45 43  2  0
 48 49  1  0
 48 23  1  0
 50 48  1  0
 51  1  1  0
 51 52  1  0
 53 54  1  0
 53 52  1  0
 55 66  2  0
 56 54  1  0
 56 61  1  0
 57 65  1  0
 57 67  1  0
 58 64  1  0
 58 60  1  0
 59 65  1  0
 60 59  1  0
 61 60  2  0
 62 63  1  0
 62 56  2  0
 63 58  2  0
 64 57  1  0
 65 55  1  0
 67 69  2  0
 68 67  1  0
 70 68  1  0
 71 80  2  0
 71 76  1  0
 72 68  1  0
 72 76  1  0
 73 72  1  0
 74 75  1  0
 74 73  1  0
 75 71  1  0
 76 77  2  0
 77 78  1  0
 79 78  2  0
 80 79  1  0
 81 55  1  0
 81 86  1  0
 81 82  1  0
 82 85  1  1
 82 83  1  0
 84 82  1  0
 86 89  1  0
 87 91  1  0
 87 86  1  0
 88 87  2  0
 91 90  1  0
 93 91  1  0
 93 94  1  0
 93 92  1  0
M  ISO  4  13 100  21 100  53 101  54 101
M  END
>  <TORSDO>  (79) 
F 20

>  <SCORE>  (79) 
-12.709

>  <name>  (79) 
78

>  <ligand_id>  (79) 
78

>  <original_smiles>  (79) 
[H]c1c([H])c([H])c2c(c1[H])C([H])([H])C([H])([H])C([H])([H])C2([H])N([H])C(=O)C1([H])N(C(=O)C([H])(N([H])C(=O)C([H])(N([H])C([H])([H])[H])C([H])([H])[H])C(C([H])([H])[H])(C([H])([H])[H])C([H])([H])[H])C([H])([H])c2c([H])c(OC([H])([H])C([H])([H])C([H])([H])C(=O)N([H])c3c([H])c(C([H])([H])[H])c(N([H])C(=O)N4C([H])([H])C([H])([H])C([H])([H])C([H])(n5nc(-c6c([H])c([H])c(Oc7c([H])c([H])c(F)c([H])c7F)c([H])c6[H])c(C(=O)N([H])[H])c5N([H])[H])C4([H])[H])c(C([H])([H])[H])c3[H])c([H])c([H])c2C1([H])[H]

>  <smiles>  (79) 
[H]c1c([H])c([H])c2c(c1[H])C([H])([H])C([H])([H])C([H])([H])C2([H])N([H])C(=O)C1([H])N(C(=O)C([H])(N([H])C(=O)C([H])(N([H])C([H])([H])[H])C([H])([H])[H])C(C([H])([H])[H])(C([H])([H])[H])C([H])([H])[H])C([H])([H])c2c([H])c(OC([H])([H])C([H])([H])C([H])([H])C(=O)N([H])c3c([H])c(C([H])([H])[H])c(N([H])C(=O)N4C([H])([H])C([H])([H])C([H])([H])C([H])(n5nc(-c6c([H])c([H])c(Oc7c([H])c([H])c(F)c([H])c7F)c([H])c6[H])c(C(=O)N([H])[H])c5N([H])[H])C4([H])[H])c(C([H])([H])[H])c3[H])c([H])c([H])c2C1([H])[H]

$$$$
79:0:0
     RDKit          3D

 97105  0  0  1  0  0  0  0  0999 V2000
  -29.6510  -18.5130   21.7170 C   0  0  0  0  0  3  0  0  0  0  0  0
  -29.1310  -19.7640   22.1160 C   0  0  0  0  0  3  0  0  0  0  0  0
  -29.4490  -20.6520   19.8920 C   0  0  0  0  0  3  0  0  0  0  0  0
  -30.1120  -18.2980   20.4010 C   0  0  0  0  0  0  0  0  0  0  0  0
  -29.0360  -20.8600   21.2270 C   0  0  0  0  0  0  0  0  0  0  0  0
  -29.9920  -19.3990   19.4800 C   0  0  0  0  0  0  0  0  0  0  0  0
  -31.0960  -14.6100   20.3720 C   0  0  0  0  0  0  0  0  0  0  0  0
  -30.7840  -12.3270   19.5080 C   0  0  0  0  0  2  0  0  0  0  0  0
  -29.9120  -12.4050   18.2400 C   0  0  0  0  0  2  0  0  0  0  0  0
  -28.4230  -12.2980   18.6180 C   0  0  0  0  0  2  0  0  0  0  0  0
  -28.0270  -13.2600   19.7710 C   0  0  0  0  0  3  0  0  0  0  0  0
  -29.0400  -13.2230   20.9380 C   0  0  0  0  0  2  0  0  0  0  0  0
  -30.3790  -13.4460   20.3820 N   0  0  0  0  0  0  0  0  0  0  0  0
  -32.2920  -14.5800   20.0720 O   0  0  0  0  0  0  0  0  0  0  0  0
  -30.8810  -17.0120   20.0840 C   0  0  0  0  0  0  0  0  0  0  0  0
  -30.4190  -15.7900   20.5000 N   0  0  0  0  0  0  0  0  0  0  0  0
  -31.9190  -17.1540   19.4250 O   0  0  0  0  0  0  0  0  0  0  0  0
  -29.4830  -15.7570   20.8670 H   0  0  0  0  0  0  0  0  0  0  0  0
  -25.6310  -13.9160   20.4210 C   0  0  0  0  0  0  0  0  0  0  0  0
  -24.5410  -13.1720   20.7800 C   0  0  0  0  0  0  0  0  0  0  0  0
  -24.9770  -11.8120   20.7890 C   0  0  0  0  0  0  0  0  0  0  0  0
  -26.6630  -13.0130   20.2310 N   0  0  0  0  0  0  0  0  0  0  0  0
  -26.2740  -11.7440   20.5150 N   0  0  0  0  0  0  0  0  0  0  0  0
  -24.2200  -10.5680   20.9840 C   0  0  0  0  0  0  0  0  0  0  0  0
  -24.6160   -9.6050   21.9380 C   0  0  0  0  0  3  0  0  0  0  0  0
  -23.8620   -8.4250   22.1210 C   0  0  0  0  0  3  0  0  0  0  0  0
  -22.6970   -8.2000   21.3500 C   0  0  0  0  0  0  0  0  0  0  0  0
  -22.3190   -9.1520   20.3850 C   0  0  0  0  0  3  0  0  0  0  0  0
  -23.0740  -10.3220   20.2000 C   0  0  0  0  0  3  0  0  0  0  0  0
  -21.9170   -7.0720   21.4410 O   0  0  0  0  0  0  0  0  0  0  0  0
  -21.8490   -6.3360   22.5980 C   0  0  0  0  0  0  0  0  0  0  0  0
  -21.4280   -6.9050   23.8200 C   0  0  0  0  0  3  0  0  0  0  0  0
  -21.3070   -6.0940   24.9670 C   0  0  0  0  0  3  0  0  0  0  0  0
  -21.5940   -4.7190   24.8930 C   0  0  0  0  0  0  0  0  0  0  0  0
  -22.0060   -4.1500   23.6740 C   0  0  0  0  0  3  0  0  0  0  0  0
  -22.1310   -4.9560   22.5300 C   0  0  0  0  0  0  0  0  0  0  0  0
  -22.5070   -4.4000   21.3530 F   0  0  0  0  0  0  0  0  0  0  0  0
  -21.4710   -3.9390   25.9920 F   0  0  0  0  0  0  0  0  0  0  0  0
  -23.1460  -13.6830   21.0050 C   0  0  0  0  0  0  0  0  0  0  0  0
  -22.3810  -13.0220   21.8670 N   0  0  0  0  0  0  0  0  0  0  0  0
  -22.7420  -14.7030   20.4500 O   0  0  0  0  0  0  0  0  0  0  0  0
  -22.7180  -12.1940   22.3380 H   0  0  0  0  0  0  0  0  0  0  0  0
  -21.4450  -13.3500   22.0580 H   0  0  0  0  0  0  0  0  0  0  0  0
  -25.8320  -15.2790   20.2160 N   0  0  0  0  0  0  0  0  0  0  0  0
  -25.0780  -15.9530   20.2820 H   0  0  0  0  0  0  0  0  0  0  0  0
  -26.6980  -15.6870   19.8910 H   0  0  0  0  0  0  0  0  0  0  0  0
  -28.2290  -23.3480   21.4430 C   0  0  0  0  0  0  0  0  0  0  0  0
  -28.4960  -22.0650   21.7950 N   0  0  0  0  0  0  0  0  0  0  0  0
  -27.6460  -24.0050   22.3070 O   0  0  0  0  0  0  0  0  0  0  0  0
  -28.1870  -21.9250   22.7450 H   0  0  0  0  0  0  0  0  0  0  0  0
  -27.4990  -23.6710   19.0540 C   0  0  0  0  0  1  0  0  0  0  0  0
  -28.5620  -24.0670   20.0940 C   0  0  0  0  0  3  0  0  0  0  0  0
  -28.6250  -25.6440   20.3020 C   0  0  0  0  0  2  0  0  0  0  0  0
  -28.4770  -26.5640   19.1800 O   0  0  0  0  0  0  0  0  0  0  0  0
  -24.8520  -31.5480   22.8450 C   0  0  0  0  0  0  0  0  0  0  0  0
  -27.3630  -27.3850   19.2710 C   0  0  0  0  0  0  0  0  0  0  0  0
  -23.5820  -30.2830   21.1470 C   0  0  0  0  0  3  0  0  0  0  0  0
  -24.9780  -28.8960   19.5190 C   0  0  0  0  0  0  0  0  0  0  0  0
  -26.0980  -30.6730   20.8670 C   0  0  0  0  0  2  0  0  0  0  0  0
  -26.1620  -29.3640   20.1040 C   0  0  0  0  0  0  0  0  0  0  0  0
  -27.3620  -28.6160   19.9800 C   0  0  0  0  0  3  0  0  0  0  0  0
  -26.1680  -26.9590   18.6620 C   0  0  0  0  0  3  0  0  0  0  0  0
  -24.9770  -27.6950   18.7940 C   0  0  0  0  0  3  0  0  0  0  0  0
  -23.7300  -29.7320   19.7050 C   0  0  0  0  0  2  0  0  0  0  0  0
  -24.8660  -30.8450   21.6780 N   0  0  0  0  0  0  0  0  0  0  0  0
  -23.7960  -31.7610   23.4560 O   0  0  0  0  0  0  0  0  0  0  0  0
  -22.9830  -29.1730   22.0420 C   0  0  0  0  0  0  0  0  0  0  0  0
  -21.6510  -29.0080   21.9860 N   0  0  0  0  0  0  0  0  0  0  0  0
  -23.7130  -28.4680   22.7450 O   0  0  0  0  0  0  0  0  0  0  0  0
  -21.1210  -29.6300   21.3910 H   0  0  0  0  0  0  0  0  0  0  0  0
  -18.3040  -27.7980   22.6130 C   0  0  0  0  0  0  0  0  0  0  0  0
  -20.8780  -28.0010   22.7140 C   0  0  0  0  0  3  0  0  0  0  0  0
  -20.9120  -26.6380   21.9830 C   0  0  0  0  0  2  0  0  0  0  0  0
  -19.7310  -26.4350   21.0280 C   0  0  0  0  0  2  0  0  0  0  0  0
  -18.4040  -26.5270   21.7890 C   0  0  0  0  0  2  0  0  0  0  0  0
  -19.4650  -28.4980   23.0350 C   0  0  0  0  0  0  0  0  0  0  0  0
  -19.3120  -29.6950   23.7710 C   0  0  0  0  0  3  0  0  0  0  0  0
  -18.0320  -30.1880   24.0890 C   0  0  0  0  0  3  0  0  0  0  0  0
  -16.8880  -29.4810   23.6810 C   0  0  0  0  0  3  0  0  0  0  0  0
  -17.0250  -28.2890   22.9500 C   0  0  0  0  0  3  0  0  0  0  0  0
  -26.1600  -32.1410   23.4570 C   0  0  0  0  0  3  0  0  0  0  0  0
  -26.7800  -31.2370   24.5930 C   0  0  1  0  0  0  0  0  0  0  0  0
  -25.7690  -30.8410   25.6940 C   0  0  0  0  0  1  0  0  0  0  0  0
  -27.3630  -29.9350   23.9960 C   0  0  0  0  0  1  0  0  0  0  0  0
  -27.9600  -31.9780   25.2670 C   0  0  0  0  0  1  0  0  0  0  0  0
  -25.8420  -33.4790   23.9760 N   0  0  0  0  0  0  0  0  0  0  0  0
  -26.1260  -34.6260   23.3440 C   0  0  0  0  0  0  0  0  0  0  0  0
  -26.7570  -34.6690   22.2850 O   0  0  0  0  0  0  0  0  0  0  0  0
  -25.2790  -33.5180   24.8120 H   0  0  0  0  0  0  0  0  0  0  0  0
  -24.3620  -36.4170   23.2790 C   0  0  0  0  0  1  0  0  0  0  0  0
  -25.6350  -35.9340   23.9940 C   0  0  0  0  0  3  0  0  0  0  0  0
  -27.7800  -36.7420   24.8700 C   0  0  0  0  0  1  0  0  0  0  0  0
  -26.6470  -37.0110   23.9880 N   0  0  0  0  0  0  0  0  0  0  0  0
  -26.2330  -37.8960   24.2660 H   0  0  0  0  0  0  0  0  0  0  0  0
  -30.4140  -19.3140   18.1470 N   0  0  0  0  0  0  0  0  0  0  0  0
  -30.5480  -20.1790   17.6330 H   0  0  0  0  0  0  0  0  0  0  0  0
  -31.1460  -18.6370   17.9400 H   0  0  0  0  0  0  0  0  0  0  0  0
  1  2  1  0
  3  5  1  0
  4  1  2  0
  5 48  1  0
  5  2  2  0
  6  3  2  0
  6  4  1  0
  7 13  1  0
  7 16  1  0
  8 13  1  0
  9 10  1  0
  9  8  1  0
 11 10  1  0
 11 22  1  0
 11 12  1  0
 13 12  1  0
 14  7  2  0
 15  4  1  0
 15 16  1  0
 16 18  1  0
 17 15  2  0
 19 20  2  0
 20 21  1  0
 20 39  1  0
 21 24  1  0
 22 19  1  0
 22 23  1  0
 23 21  2  0
 24 25  1  0
 25 26  2  0
 27 30  1  0
 27 26  1  0
 28 27  2  0
 29 28  1  0
 29 24  2  0
 30 31  1  0
 31 32  1  0
 32 33  2  0
 34 33  1  0
 34 38  1  0
 35 34  2  0
 36 31  2  0
 36 35  1  0
 37 36  1  0
 39 40  1  0
 40 43  1  0
 40 42  1  0
 41 39  2  0
 44 45  1  0
 44 19  1  0
 46 44  1  0
 47 48  1  0
 47 49  2  0
 48 50  1  0
 52 51  1  0
 52 53  1  0
 52 47  1  0
 54 56  1  0
 54 53  1  0
 55 66  2  0
 56 61  1  0
 57 65  1  0
 57 67  1  0
 58 64  1  0
 58 60  1  0
 59 65  1  0
 60 59  1  0
 61 60  2  0
 62 63  1  0
 62 56  2  0
 63 58  2  0
 64 57  1  0
 65 55  1  0
 67 69  2  0
 68 67  1  0
 70 68  1  0
 71 80  2  0
 71 76  1  0
 72 68  1  0
 72 76  1  0
 73 72  1  0
 74 75  1  0
 74 73  1  0
 75 71  1  0
 76 77  2  0
 77 78  1  0
 79 78  2  0
 80 79  1  0
 81 55  1  0
 81 86  1  0
 81 82  1  0
 82 85  1  1
 82 83  1  0
 84 82  1  0
 86 89  1  0
 87 86  1  0
 87 91  1  0
 88 87  2  0
 91 90  1  0
 93 91  1  0
 93 94  1  0
 93 92  1  0
 95  6  1  0
 96 95  1  0
 97 95  1  0
M  ISO  4   7 100  16 100  53 101  54 101
M  END
>  <TORSDO>  (80) 
F 20

>  <SCORE>  (80) 
-10.707

>  <name>  (80) 
79

>  <ligand_id>  (80) 
79

>  <original_smiles>  (80) 
[H]c1c([H])c([H])c2c(c1[H])C([H])([H])C([H])([H])C([H])([H])C2([H])N([H])C(=O)C1([H])N(C(=O)C([H])(N([H])C(=O)C([H])(N([H])C([H])([H])[H])C([H])([H])[H])C(C([H])([H])[H])(C([H])([H])[H])C([H])([H])[H])C([H])([H])c2c([H])c(OC([H])([H])C([H])(C(=O)N([H])c3c([H])c([H])c(C(=O)N([H])C(=O)N4C([H])([H])C([H])([H])C([H])([H])C([H])(n5nc(-c6c([H])c([H])c(Oc7c([H])c([H])c(F)c([H])c7F)c([H])c6[H])c(C(=O)N([H])[H])c5N([H])[H])C4([H])[H])c(N([H])[H])c3[H])C([H])([H])[H])c([H])c([H])c2C1([H])[H]

>  <smiles>  (80) 
[H]c1c([H])c([H])c2c(c1[H])C([H])([H])C([H])([H])C([H])([H])C2([H])N([H])C(=O)C1([H])N(C(=O)C([H])(N([H])C(=O)C([H])(N([H])C([H])([H])[H])C([H])([H])[H])C(C([H])([H])[H])(C([H])([H])[H])C([H])([H])[H])C([H])([H])c2c([H])c(OC([H])([H])C([H])(C(=O)N([H])c3c([H])c([H])c(C(=O)N([H])C(=O)N4C([H])([H])C([H])([H])C([H])([H])C([H])(n5nc(-c6c([H])c([H])c(Oc7c([H])c([H])c(F)c([H])c7F)c([H])c6[H])c(C(=O)N([H])[H])c5N([H])[H])C4([H])[H])c(N([H])[H])c3[H])C([H])([H])[H])c([H])c([H])c2C1([H])[H]

$$$$
80:0:0
     RDKit          3D

 96105  0  0  1  0  0  0  0  0999 V2000
  -30.6610  -21.9970   22.0500 C   0  0  0  0  0  0  0  0  0  0  0  0
  -30.9200  -23.5020   22.1970 C   0  0  0  0  0  2  0  0  0  0  0  0
  -29.6930  -24.3520   21.8750 C   0  0  0  0  0  2  0  0  0  0  0  0
  -28.9680  -22.4870   20.3200 C   0  0  0  0  0  2  0  0  0  0  0  0
  -29.2320  -24.0620   20.4510 C   0  0  0  0  0  3  0  0  0  0  0  0
  -29.9320  -21.5280   20.9920 N   0  0  0  0  0  0  0  0  0  0  0  0
  -31.1500  -21.2690   22.9210 O   0  0  0  0  0  0  0  0  0  0  0  0
  -31.0860  -19.2570   20.8760 C   0  0  0  0  0  3  0  0  0  0  0  0
  -31.0650  -17.8340   20.7930 C   0  0  0  0  0  3  0  0  0  0  0  0
  -28.7370  -19.3620   20.3740 C   0  0  0  0  0  3  0  0  0  0  0  0
  -29.9160  -20.0690   20.7330 C   0  0  0  0  0  0  0  0  0  0  0  0
  -29.8640  -17.1390   20.5240 C   0  0  0  0  0  0  0  0  0  0  0  0
  -28.7160  -17.9370   20.2660 C   0  0  0  0  0  0  0  0  0  0  0  0
  -30.5420  -14.6350   20.3830 C   0  0  0  0  0  0  0  0  0  0  0  0
  -30.3340  -12.3900   19.3460 C   0  0  0  0  0  2  0  0  0  0  0  0
  -29.3800  -12.5140   18.1380 C   0  0  0  0  0  2  0  0  0  0  0  0
  -27.9100  -12.3580   18.5800 C   0  0  0  0  0  2  0  0  0  0  0  0
  -27.5570  -13.2270   19.8170 C   0  0  0  0  0  3  0  0  0  0  0  0
  -28.6260  -13.0780   20.9230 C   0  0  0  0  0  2  0  0  0  0  0  0
  -29.9300  -13.4120   20.3290 N   0  0  0  0  0  0  0  0  0  0  0  0
  -31.7230  -14.7830   20.0580 O   0  0  0  0  0  0  0  0  0  0  0  0
  -29.6970  -15.6920   20.5650 N   0  0  0  0  0  0  0  0  0  0  0  0
  -28.7320  -15.4230   20.6730 H   0  0  0  0  0  0  0  0  0  0  0  0
  -25.1660  -13.8250   20.5510 C   0  0  0  0  0  0  0  0  0  0  0  0
  -24.0990  -13.0500   20.9170 C   0  0  0  0  0  0  0  0  0  0  0  0
  -24.5640  -11.7000   20.8860 C   0  0  0  0  0  0  0  0  0  0  0  0
  -26.2120  -12.9470   20.3130 N   0  0  0  0  0  0  0  0  0  0  0  0
  -25.8550  -11.6640   20.5750 N   0  0  0  0  0  0  0  0  0  0  0  0
  -23.8400  -10.4380   21.0770 C   0  0  0  0  0  0  0  0  0  0  0  0
  -24.2910   -9.4610   21.9920 C   0  0  0  0  0  3  0  0  0  0  0  0
  -23.5680   -8.2630   22.1740 C   0  0  0  0  0  3  0  0  0  0  0  0
  -22.3790   -8.0340   21.4400 C   0  0  0  0  0  0  0  0  0  0  0  0
  -21.9470   -9.0000   20.5140 C   0  0  0  0  0  3  0  0  0  0  0  0
  -22.6720  -10.1900   20.3310 C   0  0  0  0  0  3  0  0  0  0  0  0
  -21.6240   -6.8890   21.5320 O   0  0  0  0  0  0  0  0  0  0  0  0
  -21.6140   -6.1230   22.6700 C   0  0  0  0  0  0  0  0  0  0  0  0
  -21.2380   -6.6560   23.9230 C   0  0  0  0  0  3  0  0  0  0  0  0
  -21.1740   -5.8170   25.0540 C   0  0  0  0  0  3  0  0  0  0  0  0
  -21.4750   -4.4480   24.9330 C   0  0  0  0  0  0  0  0  0  0  0  0
  -21.8430   -3.9140   23.6850 C   0  0  0  0  0  3  0  0  0  0  0  0
  -21.9090   -4.7500   22.5560 C   0  0  0  0  0  0  0  0  0  0  0  0
  -22.2440   -4.2280   21.3520 F   0  0  0  0  0  0  0  0  0  0  0  0
  -21.4060   -3.6400   26.0160 F   0  0  0  0  0  0  0  0  0  0  0  0
  -22.7030  -13.5270   21.1960 C   0  0  0  0  0  0  0  0  0  0  0  0
  -21.9810  -12.8320   22.0670 N   0  0  0  0  0  0  0  0  0  0  0  0
  -22.2610  -14.5520   20.6790 O   0  0  0  0  0  0  0  0  0  0  0  0
  -22.3510  -12.0010   22.5070 H   0  0  0  0  0  0  0  0  0  0  0  0
  -21.0450  -13.1330   22.2980 H   0  0  0  0  0  0  0  0  0  0  0  0
  -25.3150  -15.1990   20.3930 N   0  0  0  0  0  0  0  0  0  0  0  0
  -24.5360  -15.8260   20.5540 H   0  0  0  0  0  0  0  0  0  0  0  0
  -26.1850  -15.7080   20.2470 H   0  0  0  0  0  0  0  0  0  0  0  0
  -27.5390  -17.2970   19.8810 N   0  0  0  0  0  0  0  0  0  0  0  0
  -26.8060  -17.9300   19.5770 H   0  0  0  0  0  0  0  0  0  0  0  0
  -27.6960  -16.6050   19.1570 H   0  0  0  0  0  0  0  0  0  0  0  0
  -28.0510  -25.0430   20.0460 C   0  0  0  0  0  2  0  0  0  0  0  0
  -28.2620  -26.5010   20.1710 O   0  0  0  0  0  0  0  0  0  0  0  0
  -24.5610  -31.8750   23.2300 C   0  0  0  0  0  0  0  0  0  0  0  0
  -27.1330  -27.3340   20.1330 C   0  0  0  0  0  0  0  0  0  0  0  0
  -23.3350  -30.4850   21.5980 C   0  0  0  0  0  3  0  0  0  0  0  0
  -24.7660  -28.9370   20.1540 C   0  0  0  0  0  0  0  0  0  0  0  0
  -25.8710  -30.8030   21.3860 C   0  0  0  0  0  2  0  0  0  0  0  0
  -25.9410  -29.4270   20.7360 C   0  0  0  0  0  0  0  0  0  0  0  0
  -27.1290  -28.6370   20.7160 C   0  0  0  0  0  3  0  0  0  0  0  0
  -25.9320  -26.8930   19.5300 C   0  0  0  0  0  3  0  0  0  0  0  0
  -24.7620  -27.6750   19.5440 C   0  0  0  0  0  3  0  0  0  0  0  0
  -23.5320  -29.8130   20.2140 C   0  0  0  0  0  2  0  0  0  0  0  0
  -24.6080  -31.0710   22.1290 N   0  0  0  0  0  0  0  0  0  0  0  0
  -23.4850  -32.1510   23.7800 O   0  0  0  0  0  0  0  0  0  0  0  0
  -22.6810  -29.4670   22.5610 C   0  0  0  0  0  0  0  0  0  0  0  0
  -21.3530  -29.2930   22.4470 N   0  0  0  0  0  0  0  0  0  0  0  0
  -23.3660  -28.8390   23.3710 O   0  0  0  0  0  0  0  0  0  0  0  0
  -20.8580  -29.8560   21.7680 H   0  0  0  0  0  0  0  0  0  0  0  0
  -17.9810  -28.0930   22.9630 C   0  0  0  0  0  0  0  0  0  0  0  0
  -20.5390  -28.3570   23.2250 C   0  0  0  0  0  3  0  0  0  0  0  0
  -20.6430  -26.9220   22.6550 C   0  0  0  0  0  2  0  0  0  0  0  0
  -19.5380  -26.5910   21.6470 C   0  0  0  0  0  2  0  0  0  0  0  0
  -18.1580  -26.7400   22.2940 C   0  0  0  0  0  2  0  0  0  0  0  0
  -19.1000  -28.8570   23.3880 C   0  0  0  0  0  0  0  0  0  0  0  0
  -18.8830  -30.1230   23.9750 C   0  0  0  0  0  3  0  0  0  0  0  0
  -17.5780  -30.6240   24.1410 C   0  0  0  0  0  3  0  0  0  0  0  0
  -16.4720  -29.8570   23.7340 C   0  0  0  0  0  3  0  0  0  0  0  0
  -16.6750  -28.5920   23.1510 C   0  0  0  0  0  3  0  0  0  0  0  0
  -25.8540  -32.5010   23.8390 C   0  0  0  0  0  3  0  0  0  0  0  0
  -26.3850  -31.7220   25.1030 C   0  0  1  0  0  0  0  0  0  0  0  0
  -25.3050  -31.4810   26.1840 C   0  0  0  0  0  1  0  0  0  0  0  0
  -26.9590  -30.3450   24.6950 C   0  0  0  0  0  1  0  0  0  0  0  0
  -27.5480  -32.5060   25.7530 C   0  0  0  0  0  1  0  0  0  0  0  0
  -25.5520  -33.8980   24.1830 N   0  0  0  0  0  0  0  0  0  0  0  0
  -25.8710  -34.9550   23.4250 C   0  0  0  0  0  0  0  0  0  0  0  0
  -26.5220  -34.8580   22.3810 O   0  0  0  0  0  0  0  0  0  0  0  0
  -24.9760  -34.0480   24.9990 H   0  0  0  0  0  0  0  0  0  0  0  0
  -24.1370  -36.7470   23.1120 C   0  0  0  0  0  1  0  0  0  0  0  0
  -25.3930  -36.3410   23.8990 C   0  0  0  0  0  3  0  0  0  0  0  0
  -27.5450  -37.2190   24.6920 C   0  0  0  0  0  1  0  0  0  0  0  0
  -26.4230  -37.3950   23.7720 N   0  0  0  0  0  0  0  0  0  0  0  0
  -26.0200  -38.3140   23.9370 H   0  0  0  0  0  0  0  0  0  0  0  0
  1  2  1  0
  1  7  2  0
  3  2  1  0
  4  5  1  0
  4  6  1  0
  5 55  1  0
  5  3  1  0
  6  1  1  0
  9  8  1  0
 10 11  1  0
 11  8  2  0
 11  6  1  0
 12 22  1  0
 12  9  2  0
 13 10  2  0
 13 12  1  0
 14 22  1  0
 15 20  1  0
 16 17  1  0
 16 15  1  0
 18 17  1  0
 18 27  1  0
 18 19  1  0
 20 14  1  0
 20 19  1  0
 21 14  2  0
 22 23  1  0
 24 25  2  0
 25 44  1  0
 26 25  1  0
 26 29  1  0
 27 24  1  0
 27 28  1  0
 28 26  2  0
 29 30  1  0
 30 31  2  0
 32 35  1  0
 32 31  1  0
 33 32  2  0
 34 33  1  0
 34 29  2  0
 35 36  1  0
 36 37  1  0
 37 38  2  0
 39 38  1  0
 39 43  1  0
 40 39  2  0
 41 36  2  0
 41 40  1  0
 42 41  1  0
 44 45  1  0
 45 48  1  0
 45 47  1  0
 46 44  2  0
 49 24  1  0
 49 50  1  0
 51 49  1  0
 52 13  1  0
 53 52  1  0
 54 52  1  0
 55 56  1  0
 57 68  2  0
 58 56  1  0
 58 63  1  0
 59 67  1  0
 59 69  1  0
 60 66  1  0
 60 62  1  0
 61 67  1  0
 62 61  1  0
 63 62  2  0
 64 65  1  0
 64 58  2  0
 65 60  2  0
 66 59  1  0
 67 57  1  0
 69 71  2  0
 70 69  1  0
 72 70  1  0
 73 82  2  0
 73 78  1  0
 74 70  1  0
 74 78  1  0
 75 74  1  0
 76 77  1  0
 76 75  1  0
 77 73  1  0
 78 79  2  0
 79 80  1  0
 81 80  2  0
 82 81  1  0
 83 57  1  0
 83 88  1  0
 83 84  1  0
 84 87  1  1
 84 85  1  0
 86 84  1  0
 88 91  1  0
 89 93  1  0
 89 88  1  0
 90 89  2  0
 93 92  1  0
 95 93  1  0
 95 96  1  0
 95 94  1  0
M  ISO  4  14 100  22 100  55 101  56 101
M  END
>  <TORSDO>  (81) 
F 19

>  <SCORE>  (81) 
-14.593

>  <name>  (81) 
80

>  <ligand_id>  (81) 
80

>  <original_smiles>  (81) 
[H]c1c([H])c([H])c2c(c1[H])C([H])([H])C([H])([H])C([H])([H])C2([H])N([H])C(=O)C1([H])N(C(=O)C([H])(N([H])C(=O)C([H])(N([H])C([H])([H])[H])C([H])([H])[H])C(C([H])([H])[H])(C([H])([H])[H])C([H])([H])[H])C([H])([H])c2c([H])c(OC([H])([H])C3([H])C([H])([H])N(c4c([H])c([H])c(N([H])C(=O)N5C([H])([H])C([H])([H])C([H])([H])C([H])(n6nc(-c7c([H])c([H])c(Oc8c([H])c([H])c(F)c([H])c8F)c([H])c7[H])c(C(=O)N([H])[H])c6N([H])[H])C5([H])[H])c(N([H])[H])c4[H])C(=O)C([H])([H])C3([H])[H])c([H])c([H])c2C1([H])[H]

>  <smiles>  (81) 
[H]c1c([H])c([H])c2c(c1[H])C([H])([H])C([H])([H])C([H])([H])C2([H])N([H])C(=O)C1([H])N(C(=O)C([H])(N([H])C(=O)C([H])(N([H])C([H])([H])[H])C([H])([H])[H])C(C([H])([H])[H])(C([H])([H])[H])C([H])([H])[H])C([H])([H])c2c([H])c(OC([H])([H])C3([H])C([H])([H])N(c4c([H])c([H])c(N([H])C(=O)N5C([H])([H])C([H])([H])C([H])([H])C([H])(n6nc(-c7c([H])c([H])c(Oc8c([H])c([H])c(F)c([H])c8F)c([H])c7[H])c(C(=O)N([H])[H])c6N([H])[H])C5([H])[H])c(N([H])[H])c4[H])C(=O)C([H])([H])C3([H])[H])c([H])c([H])c2C1([H])[H]

$$$$
81:0:0
     RDKit          3D

 97105  0  0  1  0  0  0  0  0999 V2000
  -31.3910  -18.2490   21.3910 C   0  0  0  0  0  3  0  0  0  0  0  0
  -29.7600  -19.6240   20.2070 C   0  0  0  0  0  3  0  0  0  0  0  0
  -31.7060  -20.6680   21.2220 C   0  0  0  0  0  3  0  0  0  0  0  0
  -30.1920  -18.3470   20.6470 C   0  0  0  0  0  0  0  0  0  0  0  0
  -32.1360  -19.4090   21.6910 C   0  0  0  0  0  0  0  0  0  0  0  0
  -30.5040  -20.7930   20.4940 C   0  0  0  0  0  0  0  0  0  0  0  0
  -30.4550  -15.0550   20.2480 C   0  0  0  0  0  0  0  0  0  0  0  0
  -30.3420  -12.8120   19.2190 C   0  0  0  0  0  2  0  0  0  0  0  0
  -29.3550  -12.8810   18.0300 C   0  0  0  0  0  2  0  0  0  0  0  0
  -27.8920  -12.6850   18.4920 C   0  0  0  0  0  2  0  0  0  0  0  0
  -27.5330  -13.5600   19.7230 C   0  0  0  0  0  3  0  0  0  0  0  0
  -28.6220  -13.4220   20.8150 C   0  0  0  0  0  2  0  0  0  0  0  0
  -29.9180  -13.8040   20.2180 N   0  0  0  0  0  0  0  0  0  0  0  0
  -31.5140  -15.3500   19.6820 O   0  0  0  0  0  0  0  0  0  0  0  0
  -29.3190  -17.1440   20.3810 C   0  0  0  0  0  0  0  0  0  0  0  0
  -29.6490  -15.9370   20.8600 N   0  0  0  0  0  0  0  0  0  0  0  0
  -28.2170  -17.2970   19.8410 O   0  0  0  0  0  0  0  0  0  0  0  0
  -28.8370  -15.4350   21.1680 H   0  0  0  0  0  0  0  0  0  0  0  0
  -25.1550  -14.1030   20.5580 C   0  0  0  0  0  0  0  0  0  0  0  0
  -24.1150  -13.2940   20.9370 C   0  0  0  0  0  0  0  0  0  0  0  0
  -24.5950  -11.9550   20.8230 C   0  0  0  0  0  0  0  0  0  0  0  0
  -26.2020  -13.2490   20.2410 N   0  0  0  0  0  0  0  0  0  0  0  0
  -25.8680  -11.9500   20.4490 N   0  0  0  0  0  0  0  0  0  0  0  0
  -23.8980  -10.6690   20.9840 C   0  0  0  0  0  0  0  0  0  0  0  0
  -24.3330   -9.7050   21.9190 C   0  0  0  0  0  3  0  0  0  0  0  0
  -23.6320   -8.4890   22.0740 C   0  0  0  0  0  3  0  0  0  0  0  0
  -22.4840   -8.2270   21.2880 C   0  0  0  0  0  0  0  0  0  0  0  0
  -22.0680   -9.1810   20.3440 C   0  0  0  0  0  3  0  0  0  0  0  0
  -22.7700  -10.3880   20.1880 C   0  0  0  0  0  3  0  0  0  0  0  0
  -21.7580   -7.0620   21.3460 O   0  0  0  0  0  0  0  0  0  0  0  0
  -21.6260   -6.3550   22.5140 C   0  0  0  0  0  0  0  0  0  0  0  0
  -20.9850   -6.9030   23.6470 C   0  0  0  0  0  3  0  0  0  0  0  0
  -20.8040   -6.1170   24.8010 C   0  0  0  0  0  3  0  0  0  0  0  0
  -21.2600   -4.7850   24.8260 C   0  0  0  0  0  0  0  0  0  0  0  0
  -21.8930   -4.2370   23.6970 C   0  0  0  0  0  3  0  0  0  0  0  0
  -22.0710   -5.0180   22.5420 C   0  0  0  0  0  0  0  0  0  0  0  0
  -22.6640   -4.4750   21.4530 F   0  0  0  0  0  0  0  0  0  0  0  0
  -21.0800   -4.0310   25.9360 F   0  0  0  0  0  0  0  0  0  0  0  0
  -22.7250  -13.7340   21.3000 C   0  0  0  0  0  0  0  0  0  0  0  0
  -22.0520  -12.9860   22.1680 N   0  0  0  0  0  0  0  0  0  0  0  0
  -22.2450  -14.7770   20.8540 O   0  0  0  0  0  0  0  0  0  0  0  0
  -22.4470  -12.1340   22.5390 H   0  0  0  0  0  0  0  0  0  0  0  0
  -21.1300  -13.2710   22.4690 H   0  0  0  0  0  0  0  0  0  0  0  0
  -25.2840  -15.4840   20.4500 N   0  0  0  0  0  0  0  0  0  0  0  0
  -24.5040  -16.1000   20.6550 H   0  0  0  0  0  0  0  0  0  0  0  0
  -26.1220  -15.9860   20.1760 H   0  0  0  0  0  0  0  0  0  0  0  0
  -28.9100  -22.6190   19.8090 C   0  0  0  0  0  0  0  0  0  0  0  0
  -30.1280  -22.0970   20.0550 N   0  0  0  0  0  0  0  0  0  0  0  0
  -27.8470  -22.0200   19.9980 O   0  0  0  0  0  0  0  0  0  0  0  0
  -30.8880  -22.7560   19.9580 H   0  0  0  0  0  0  0  0  0  0  0  0
  -28.9120  -24.0660   19.2850 C   0  0  0  0  0  2  0  0  0  0  0  0
  -27.5290  -24.6220   18.8550 C   0  0  0  0  0  2  0  0  0  0  0  0
  -27.5980  -26.0540   18.2630 C   0  0  0  0  0  2  0  0  0  0  0  0
  -27.6510  -27.1020   19.2440 O   0  0  0  0  0  0  0  0  0  0  0  0
  -24.5490  -31.9080   23.5040 C   0  0  0  0  0  0  0  0  0  0  0  0
  -26.5180  -27.8570   19.4930 C   0  0  0  0  0  0  0  0  0  0  0  0
  -23.0780  -30.8620   21.8110 C   0  0  0  0  0  3  0  0  0  0  0  0
  -24.2550  -29.4840   20.0170 C   0  0  0  0  0  0  0  0  0  0  0  0
  -25.5930  -31.0910   21.3910 C   0  0  0  0  0  2  0  0  0  0  0  0
  -25.5040  -29.8340   20.5440 C   0  0  0  0  0  0  0  0  0  0  0  0
  -26.6340  -29.0230   20.2880 C   0  0  0  0  0  3  0  0  0  0  0  0
  -25.2400  -27.5080   18.9970 C   0  0  0  0  0  3  0  0  0  0  0  0
  -24.1180  -28.3190   19.2460 C   0  0  0  0  0  3  0  0  0  0  0  0
  -23.0950  -30.4010   20.3290 C   0  0  0  0  0  2  0  0  0  0  0  0
  -24.4320  -31.2920   22.2920 N   0  0  0  0  0  0  0  0  0  0  0  0
  -23.5520  -32.1530   24.1970 O   0  0  0  0  0  0  0  0  0  0  0  0
  -22.4520  -29.7400   22.6710 C   0  0  0  0  0  0  0  0  0  0  0  0
  -21.1280  -29.5570   22.5490 N   0  0  0  0  0  0  0  0  0  0  0  0
  -23.1570  -29.0410   23.4060 O   0  0  0  0  0  0  0  0  0  0  0  0
  -20.6200  -30.1760   21.9310 H   0  0  0  0  0  0  0  0  0  0  0  0
  -17.8040  -28.1760   22.8530 C   0  0  0  0  0  0  0  0  0  0  0  0
  -20.3360  -28.5350   23.2320 C   0  0  0  0  0  3  0  0  0  0  0  0
  -20.5270  -27.1490   22.5750 C   0  0  0  0  0  2  0  0  0  0  0  0
  -19.4780  -26.8400   21.5040 C   0  0  0  0  0  2  0  0  0  0  0  0
  -18.0700  -26.8800   22.1060 C   0  0  0  0  0  2  0  0  0  0  0  0
  -18.8690  -28.9610   23.3690 C   0  0  0  0  0  0  0  0  0  0  0  0
  -18.5690  -30.1730   24.0270 C   0  0  0  0  0  3  0  0  0  0  0  0
  -17.2360  -30.6030   24.1730 C   0  0  0  0  0  3  0  0  0  0  0  0
  -16.1860  -29.8150   23.6740 C   0  0  0  0  0  3  0  0  0  0  0  0
  -16.4700  -28.6030   23.0210 C   0  0  0  0  0  3  0  0  0  0  0  0
  -25.9360  -32.3560   24.0630 C   0  0  0  0  0  3  0  0  0  0  0  0
  -25.7890  -33.7300   24.5630 N   0  0  0  0  0  0  0  0  0  0  0  0
  -26.1920  -34.8260   23.9060 C   0  0  0  0  0  0  0  0  0  0  0  0
  -26.8000  -34.7770   22.8320 O   0  0  0  0  0  0  0  0  0  0  0  0
  -25.2580  -33.8470   25.4140 H   0  0  0  0  0  0  0  0  0  0  0  0
  -24.6700  -36.8230   23.8150 C   0  0  0  0  0  1  0  0  0  0  0  0
  -25.8700  -36.1910   24.5390 C   0  0  0  0  0  3  0  0  0  0  0  0
  -28.0940  -36.7390   25.4250 C   0  0  0  0  0  1  0  0  0  0  0  0
  -27.0130  -37.1320   24.5250 N   0  0  0  0  0  0  0  0  0  0  0  0
  -26.7110  -38.0680   24.7810 H   0  0  0  0  0  0  0  0  0  0  0  0
  -26.4870  -31.4070   25.1970 C   0  0  1  0  0  0  0  0  0  0  0  0
  -25.4690  -31.1380   26.3290 C   0  0  0  0  0  1  0  0  0  0  0  0
  -26.9110  -30.0420   24.6090 C   0  0  0  0  0  1  0  0  0  0  0  0
  -27.7540  -32.0270   25.8320 C   0  0  0  0  0  1  0  0  0  0  0  0
  -33.2860  -19.3050   22.4730 N   0  0  0  0  0  0  0  0  0  0  0  0
  -33.4210  -18.4510   23.0050 H   0  0  0  0  0  0  0  0  0  0  0  0
  -33.5720  -20.1260   23.0020 H   0  0  0  0  0  0  0  0  0  0  0  0
  1  5  1  0
  2  6  2  0
  2  4  1  0
  3  5  2  0
  4  1  2  0
  5 95  1  0
  6  3  1  0
  7 16  1  0
  8 13  1  0
  9 10  1  0
  9  8  1  0
 11 10  1  0
 11 22  1  0
 11 12  1  0
 13  7  1  0
 13 12  1  0
 14  7  2  0
 15  4  1  0
 15 16  1  0
 16 18  1  0
 17 15  2  0
 19 20  2  0
 20 39  1  0
 21 20  1  0
 21 24  1  0
 22 23  1  0
 22 19  1  0
 23 21  2  0
 24 25  1  0
 25 26  2  0
 27 30  1  0
 27 26  1  0
 28 27  2  0
 29 28  1  0
 29 24  2  0
 30 31  1  0
 31 36  2  0
 31 32  1  0
 32 33  2  0
 33 34  1  0
 34 38  1  0
 35 34  2  0
 36 35  1  0
 37 36  1  0
 39 40  1  0
 40 43  1  0
 40 42  1  0
 41 39  2  0
 44 19  1  0
 44 45  1  0
 46 44  1  0
 47 49  2  0
 47 48  1  0
 48  6  1  0
 50 48  1  0
 51 47  1  0
 52 51  1  0
 53 52  1  0
 53 54  1  0
 54 56  1  0
 55 66  2  0
 56 61  1  0
 57 65  1  0
 57 67  1  0
 58 64  1  0
 58 60  1  0
 59 65  1  0
 60 59  1  0
 61 60  2  0
 62 63  1  0
 62 56  2  0
 63 58  2  0
 64 57  1  0
 65 55  1  0
 67 69  2  0
 68 67  1  0
 70 68  1  0
 71 80  2  0
 71 76  1  0
 72 68  1  0
 72 76  1  0
 73 72  1  0
 74 75  1  0
 74 73  1  0
 75 71  1  0
 76 77  2  0
 77 78  1  0
 79 78  2  0
 80 79  1  0
 81 55  1  0
 81 82  1  0
 81 91  1  0
 82 85  1  0
 83 87  1  0
 83 82  1  0
 84 83  2  0
 87 86  1  0
 89 87  1  0
 89 90  1  0
 89 88  1  0
 91 94  1  1
 91 92  1  0
 93 91  1  0
 95 97  1  0
 95 96  1  0
M  ISO  4   7 100  16 100  53 101  54 101
M  END
>  <TORSDO>  (82) 
F 21

>  <SCORE>  (82) 
-12.816

>  <name>  (82) 
81

>  <ligand_id>  (82) 
81

>  <original_smiles>  (82) 
[H]c1c([H])c([H])c2c(c1[H])C([H])([H])C([H])([H])C([H])([H])C2([H])N([H])C(=O)C1([H])N(C(=O)C([H])(N([H])C(=O)C([H])(N([H])C([H])([H])[H])C([H])([H])[H])C(C([H])([H])[H])(C([H])([H])[H])C([H])([H])[H])C([H])([H])c2c([H])c(OC([H])([H])C([H])([H])C([H])([H])C(=O)N([H])c3c([H])c(C(=O)N([H])C(=O)N4C([H])([H])C([H])([H])C([H])([H])C([H])(n5nc(-c6c([H])c([H])c(Oc7c([H])c([H])c(F)c([H])c7F)c([H])c6[H])c(C(=O)N([H])[H])c5N([H])[H])C4([H])[H])c([H])c(N([H])[H])c3[H])c([H])c([H])c2C1([H])[H]

>  <smiles>  (82) 
[H]c1c([H])c([H])c2c(c1[H])C([H])([H])C([H])([H])C([H])([H])C2([H])N([H])C(=O)C1([H])N(C(=O)C([H])(N([H])C(=O)C([H])(N([H])C([H])([H])[H])C([H])([H])[H])C(C([H])([H])[H])(C([H])([H])[H])C([H])([H])[H])C([H])([H])c2c([H])c(OC([H])([H])C([H])([H])C([H])([H])C(=O)N([H])c3c([H])c(C(=O)N([H])C(=O)N4C([H])([H])C([H])([H])C([H])([H])C([H])(n5nc(-c6c([H])c([H])c(Oc7c([H])c([H])c(F)c([H])c7F)c([H])c6[H])c(C(=O)N([H])[H])c5N([H])[H])C4([H])[H])c([H])c(N([H])[H])c3[H])c([H])c([H])c2C1([H])[H]

$$$$
82:0:0
     RDKit          3D

 93102  0  0  1  0  0  0  0  0999 V2000
  -27.0950  -22.1250   20.0960 C   0  0  0  0  0  0  0  0  0  0  0  0
  -26.5870  -23.0600   19.0080 C   0  0  0  0  0  2  0  0  0  0  0  0
  -27.8870  -23.6560   18.4590 C   0  0  0  0  0  2  0  0  0  0  0  0
  -28.7980  -23.6180   19.6880 C   0  0  0  0  0  3  0  0  0  0  0  0
  -28.4400  -22.1800   20.2360 N   0  0  0  0  0  0  0  0  0  0  0  0
  -26.3300  -21.3820   20.7190 O   0  0  0  0  0  0  0  0  0  0  0  0
  -30.0340  -20.2110   21.0690 C   0  0  0  0  0  3  0  0  0  0  0  0
  -30.3980  -18.7950   21.1040 C   0  0  0  0  0  3  0  0  0  0  0  0
  -28.6640  -19.7820   19.1940 C   0  0  0  0  0  3  0  0  0  0  0  0
  -29.1110  -20.7910   20.1230 C   0  0  0  0  0  0  0  0  0  0  0  0
  -29.8840  -17.7900   20.2090 C   0  0  0  0  0  0  0  0  0  0  0  0
  -29.0050  -18.3730   19.2400 C   0  0  0  0  0  0  0  0  0  0  0  0
  -28.3980  -17.5440   18.3560 F   0  0  0  0  0  0  0  0  0  0  0  0
  -30.7740  -15.1960   20.0780 C   0  0  0  0  0  0  0  0  0  0  0  0
  -30.6660  -12.8540   19.1230 C   0  0  0  0  0  2  0  0  0  0  0  0
  -29.6840  -12.8190   17.9270 C   0  0  0  0  0  2  0  0  0  0  0  0
  -28.2420  -12.5910   18.4160 C   0  0  0  0  0  2  0  0  0  0  0  0
  -27.8740  -13.5200   19.6020 C   0  0  0  0  0  3  0  0  0  0  0  0
  -28.9630  -13.5110   20.6970 C   0  0  0  0  0  2  0  0  0  0  0  0
  -30.2220  -13.9230   20.0600 N   0  0  0  0  0  0  0  0  0  0  0  0
  -31.9370  -15.3340   19.6810 O   0  0  0  0  0  0  0  0  0  0  0  0
  -29.9440  -16.2820   20.4270 N   0  0  0  0  0  0  0  0  0  0  0  0
  -29.0500  -15.9220   20.7190 H   0  0  0  0  0  0  0  0  0  0  0  0
  -25.5270  -14.1040   20.4480 C   0  0  0  0  0  0  0  0  0  0  0  0
  -24.4730  -13.3260   20.8400 C   0  0  0  0  0  0  0  0  0  0  0  0
  -24.9230  -11.9740   20.7540 C   0  0  0  0  0  0  0  0  0  0  0  0
  -26.5520  -13.2240   20.1400 N   0  0  0  0  0  0  0  0  0  0  0  0
  -26.1990  -11.9360   20.3890 N   0  0  0  0  0  0  0  0  0  0  0  0
  -24.1970  -10.7100   20.9400 C   0  0  0  0  0  0  0  0  0  0  0  0
  -24.6030   -9.7590   21.9020 C   0  0  0  0  0  3  0  0  0  0  0  0
  -23.8750   -8.5620   22.0770 C   0  0  0  0  0  3  0  0  0  0  0  0
  -22.7290   -8.3080   21.2880 C   0  0  0  0  0  0  0  0  0  0  0  0
  -22.3430   -9.2460   20.3160 C   0  0  0  0  0  3  0  0  0  0  0  0
  -23.0700  -10.4350   20.1390 C   0  0  0  0  0  3  0  0  0  0  0  0
  -21.9730   -7.1630   21.3730 O   0  0  0  0  0  0  0  0  0  0  0  0
  -21.8170   -6.4880   22.5560 C   0  0  0  0  0  0  0  0  0  0  0  0
  -21.2180   -7.0900   23.6840 C   0  0  0  0  0  3  0  0  0  0  0  0
  -21.0140   -6.3380   24.8580 C   0  0  0  0  0  3  0  0  0  0  0  0
  -21.3990   -4.9850   24.9050 C   0  0  0  0  0  0  0  0  0  0  0  0
  -21.9920   -4.3830   23.7810 C   0  0  0  0  0  3  0  0  0  0  0  0
  -22.1970   -5.1320   22.6090 C   0  0  0  0  0  0  0  0  0  0  0  0
  -22.7490   -4.5410   21.5210 F   0  0  0  0  0  0  0  0  0  0  0  0
  -21.1980   -4.2590   26.0300 F   0  0  0  0  0  0  0  0  0  0  0  0
  -23.0890  -13.8040   21.1800 C   0  0  0  0  0  0  0  0  0  0  0  0
  -22.3990  -13.0890   22.0600 N   0  0  0  0  0  0  0  0  0  0  0  0
  -22.6340  -14.8400   20.6990 O   0  0  0  0  0  0  0  0  0  0  0  0
  -22.7870  -12.2500   22.4670 H   0  0  0  0  0  0  0  0  0  0  0  0
  -21.4710  -13.3800   22.3330 H   0  0  0  0  0  0  0  0  0  0  0  0
  -25.6970  -15.4780   20.3040 N   0  0  0  0  0  0  0  0  0  0  0  0
  -24.9430  -16.1340   20.4730 H   0  0  0  0  0  0  0  0  0  0  0  0
  -26.5190  -15.9160   19.9130 H   0  0  0  0  0  0  0  0  0  0  0  0
  -28.3990  -25.0310   20.5250 C   0  0  0  0  0  2  0  0  0  0  0  0
  -28.5300  -26.5030   20.0540 O   0  0  0  0  0  0  0  0  0  0  0  0
  -24.6950  -31.9480   23.1990 C   0  0  0  0  0  0  0  0  0  0  0  0
  -27.4230  -27.4180   20.0660 C   0  0  0  0  0  0  0  0  0  0  0  0
  -23.5420  -30.5640   21.5130 C   0  0  0  0  0  3  0  0  0  0  0  0
  -25.0410  -29.0720   20.0610 C   0  0  0  0  0  0  0  0  0  0  0  0
  -26.0840  -30.9170   21.3680 C   0  0  0  0  0  2  0  0  0  0  0  0
  -26.2020  -29.5470   20.6820 C   0  0  0  0  0  0  0  0  0  0  0  0
  -27.3970  -28.7390   20.6640 C   0  0  0  0  0  3  0  0  0  0  0  0
  -26.2380  -27.0340   19.4090 C   0  0  0  0  0  3  0  0  0  0  0  0
  -25.0710  -27.8290   19.4090 C   0  0  0  0  0  3  0  0  0  0  0  0
  -23.7870  -29.9290   20.1190 C   0  0  0  0  0  2  0  0  0  0  0  0
  -24.7920  -31.1650   22.0820 N   0  0  0  0  0  0  0  0  0  0  0  0
  -23.6000  -32.1820   23.7350 O   0  0  0  0  0  0  0  0  0  0  0  0
  -22.8920  -29.5090   22.4450 C   0  0  0  0  0  0  0  0  0  0  0  0
  -21.5670  -29.3040   22.3140 N   0  0  0  0  0  0  0  0  0  0  0  0
  -23.5830  -28.8780   23.2490 O   0  0  0  0  0  0  0  0  0  0  0  0
  -21.0600  -29.8740   21.6510 H   0  0  0  0  0  0  0  0  0  0  0  0
  -18.2240  -28.0030   22.7900 C   0  0  0  0  0  0  0  0  0  0  0  0
  -20.7760  -28.3190   23.0560 C   0  0  0  0  0  3  0  0  0  0  0  0
  -20.9080  -26.9090   22.4350 C   0  0  0  0  0  2  0  0  0  0  0  0
  -19.8070  -26.5890   21.4140 C   0  0  0  0  0  2  0  0  0  0  0  0
  -18.4270  -26.6820   22.0700 C   0  0  0  0  0  2  0  0  0  0  0  0
  -19.3250  -28.7780   23.2420 C   0  0  0  0  0  0  0  0  0  0  0  0
  -19.0760  -30.0150   23.8790 C   0  0  0  0  0  3  0  0  0  0  0  0
  -17.7570  -30.4730   24.0660 C   0  0  0  0  0  3  0  0  0  0  0  0
  -16.6720  -29.6940   23.6290 C   0  0  0  0  0  3  0  0  0  0  0  0
  -16.9060  -28.4620   22.9970 C   0  0  0  0  0  3  0  0  0  0  0  0
  -25.9530  -32.6030   23.8470 C   0  0  0  0  0  3  0  0  0  0  0  0
  -25.6120  -33.9960   24.1820 N   0  0  0  0  0  0  0  0  0  0  0  0
  -25.9300  -35.0620   23.4360 C   0  0  0  0  0  0  0  0  0  0  0  0
  -26.6080  -34.9770   22.4100 O   0  0  0  0  0  0  0  0  0  0  0  0
  -25.0060  -34.1310   24.9780 H   0  0  0  0  0  0  0  0  0  0  0  0
  -24.1770  -36.8320   23.0780 C   0  0  0  0  0  1  0  0  0  0  0  0
  -25.4150  -36.4380   23.9010 C   0  0  0  0  0  3  0  0  0  0  0  0
  -27.5170  -37.3580   24.7770 C   0  0  0  0  0  1  0  0  0  0  0  0
  -26.4320  -37.5090   23.8110 N   0  0  0  0  0  0  0  0  0  0  0  0
  -26.0090  -38.4230   23.9490 H   0  0  0  0  0  0  0  0  0  0  0  0
  -26.4570  -31.8380   25.1340 C   0  0  1  0  0  0  0  0  0  0  0  0
  -25.3450  -31.5780   26.1760 C   0  0  0  0  0  1  0  0  0  0  0  0
  -27.0740  -30.4710   24.7590 C   0  0  0  0  0  1  0  0  0  0  0  0
  -27.5780  -32.6530   25.8200 C   0  0  0  0  0  1  0  0  0  0  0  0
  1  5  1  0
  1  6  2  0
  2  1  1  0
  3  2  1  0
  3  4  1  0
  4  5  1  0
  4 52  1  0
  7  8  1  0
  9 12  2  0
  9 10  1  0
 10  5  1  0
 10  7  2  0
 11 22  1  0
 11  8  2  0
 12 11  1  0
 13 12  1  0
 14 22  1  0
 15 20  1  0
 16 17  1  0
 16 15  1  0
 18 17  1  0
 18 27  1  0
 18 19  1  0
 20 14  1  0
 20 19  1  0
 21 14  2  0
 22 23  1  0
 24 25  2  0
 25 44  1  0
 26 25  1  0
 26 29  1  0
 27 28  1  0
 27 24  1  0
 28 26  2  0
 29 30  1  0
 30 31  2  0
 32 35  1  0
 32 31  1  0
 33 32  2  0
 34 33  1  0
 34 29  2  0
 35 36  1  0
 36 41  2  0
 36 37  1  0
 37 38  2  0
 38 39  1  0
 39 43  1  0
 40 39  2  0
 41 40  1  0
 42 41  1  0
 44 45  1  0
 45 48  1  0
 45 47  1  0
 46 44  2  0
 49 24  1  0
 49 50  1  0
 51 49  1  0
 53 55  1  0
 53 52  1  0
 54 65  2  0
 55 60  1  0
 56 64  1  0
 56 66  1  0
 57 63  1  0
 57 59  1  0
 58 64  1  0
 59 58  1  0
 60 59  2  0
 61 55  2  0
 62 61  1  0
 62 57  2  0
 63 56  1  0
 64 54  1  0
 66 68  2  0
 67 66  1  0
 69 67  1  0
 70 79  2  0
 70 75  1  0
 71 67  1  0
 71 75  1  0
 72 71  1  0
 73 74  1  0
 73 72  1  0
 74 70  1  0
 75 76  2  0
 76 77  1  0
 78 77  2  0
 79 78  1  0
 80 54  1  0
 80 81  1  0
 80 90  1  0
 81 84  1  0
 82 86  1  0
 82 81  1  0
 83 82  2  0
 86 85  1  0
 88 86  1  0
 88 89  1  0
 88 87  1  0
 90 93  1  1
 90 91  1  0
 92 90  1  0
M  ISO  4  14 100  22 100  52 101  53 101
M  END
>  <TORSDO>  (83) 
F 18

>  <SCORE>  (83) 
-13.326

>  <name>  (83) 
82

>  <ligand_id>  (83) 
82

>  <original_smiles>  (83) 
[H]c1c([H])c([H])c2c(c1[H])C([H])([H])C([H])([H])C([H])([H])C2([H])N([H])C(=O)C1([H])N(C(=O)C([H])(N([H])C(=O)C([H])(N([H])C([H])([H])[H])C([H])([H])[H])C(C([H])([H])[H])(C([H])([H])[H])C([H])([H])[H])C([H])([H])c2c([H])c(OC([H])([H])C3([H])N(c4c([H])c([H])c(N([H])C(=O)N5C([H])([H])C([H])([H])C([H])([H])C([H])(n6nc(-c7c([H])c([H])c(Oc8c([H])c([H])c(F)c([H])c8F)c([H])c7[H])c(C(=O)N([H])[H])c6N([H])[H])C5([H])[H])c(F)c4[H])C(=O)C([H])([H])C3([H])[H])c([H])c([H])c2C1([H])[H]

>  <smiles>  (83) 
[H]c1c([H])c([H])c2c(c1[H])C([H])([H])C([H])([H])C([H])([H])C2([H])N([H])C(=O)C1([H])N(C(=O)C([H])(N([H])C(=O)C([H])(N([H])C([H])([H])[H])C([H])([H])[H])C(C([H])([H])[H])(C([H])([H])[H])C([H])([H])[H])C([H])([H])c2c([H])c(OC([H])([H])C3([H])N(c4c([H])c([H])c(N([H])C(=O)N5C([H])([H])C([H])([H])C([H])([H])C([H])(n6nc(-c7c([H])c([H])c(Oc8c([H])c([H])c(F)c([H])c8F)c([H])c7[H])c(C(=O)N([H])[H])c6N([H])[H])C5([H])[H])c(F)c4[H])C(=O)C([H])([H])C3([H])[H])c([H])c([H])c2C1([H])[H]

$$$$
84:0:0
     RDKit          3D

 95104  0  0  1  0  0  0  0  0999 V2000
  -31.3830  -21.8820   20.2240 C   0  0  0  0  0  0  0  0  0  0  0  0
  -29.0460  -22.3930   20.2290 C   0  0  0  0  0  0  0  0  0  0  0  0
  -31.7550  -23.3740   20.1920 C   0  0  0  0  0  2  0  0  0  0  0  0
  -30.6490  -24.2920   20.7130 C   0  0  0  0  0  2  0  0  0  0  0  0
  -29.3270  -23.9550   20.0260 C   0  0  0  0  0  3  0  0  0  0  0  0
  -30.0810  -21.4620   20.2590 N   0  0  0  0  0  0  0  0  0  0  0  0
  -32.3350  -21.0890   20.2060 O   0  0  0  0  0  0  0  0  0  0  0  0
  -27.8680  -22.0310   20.3390 O   0  0  0  0  0  0  0  0  0  0  0  0
  -30.0590  -19.3650   21.6620 C   0  0  0  0  0  3  0  0  0  0  0  0
  -30.1780  -17.9520   21.7920 C   0  0  0  0  0  3  0  0  0  0  0  0
  -29.8040  -19.1010   19.2930 C   0  0  0  0  0  3  0  0  0  0  0  0
  -29.9040  -19.9950   20.4030 C   0  0  0  0  0  0  0  0  0  0  0  0
  -30.1530  -17.0470   20.6840 C   0  0  0  0  0  0  0  0  0  0  0  0
  -29.9140  -17.6750   19.4250 C   0  0  0  0  0  0  0  0  0  0  0  0
  -29.7920  -16.9150   18.3090 F   0  0  0  0  0  0  0  0  0  0  0  0
  -30.7920  -14.6670   19.9530 C   0  0  0  0  0  0  0  0  0  0  0  0
  -30.4150  -12.5300   18.7020 C   0  0  0  0  0  2  0  0  0  0  0  0
  -29.3690  -12.7170   17.5850 C   0  0  0  0  0  2  0  0  0  0  0  0
  -27.9430  -12.5130   18.1330 C   0  0  0  0  0  2  0  0  0  0  0  0
  -27.6990  -13.3120   19.4390 C   0  0  0  0  0  3  0  0  0  0  0  0
  -28.8420  -13.0960   20.4450 C   0  0  0  0  0  2  0  0  0  0  0  0
  -30.1060  -13.4810   19.7940 N   0  0  0  0  0  0  0  0  0  0  0  0
  -31.8150  -14.8880   19.2960 O   0  0  0  0  0  0  0  0  0  0  0  0
  -30.5130  -15.1350   22.2790 C   0  0  0  0  0  1  0  0  0  0  0  0
  -30.3370  -15.5830   20.8860 N   0  0  0  0  0  0  0  0  0  0  0  0
  -25.3800  -13.8700   20.3930 C   0  0  0  0  0  0  0  0  0  0  0  0
  -24.3550  -13.0790   20.8350 C   0  0  0  0  0  0  0  0  0  0  0  0
  -24.8180  -11.7320   20.7180 C   0  0  0  0  0  0  0  0  0  0  0  0
  -26.4000  -13.0050   20.0310 N   0  0  0  0  0  0  0  0  0  0  0  0
  -26.0740  -11.7110   20.2880 N   0  0  0  0  0  0  0  0  0  0  0  0
  -24.1160  -10.4600   20.9340 C   0  0  0  0  0  0  0  0  0  0  0  0
  -24.5780   -9.5100   21.8710 C   0  0  0  0  0  3  0  0  0  0  0  0
  -23.8760   -8.3020   22.0730 C   0  0  0  0  0  3  0  0  0  0  0  0
  -22.6970   -8.0370   21.3370 C   0  0  0  0  0  0  0  0  0  0  0  0
  -22.2530   -8.9750   20.3880 C   0  0  0  0  0  3  0  0  0  0  0  0
  -22.9570  -10.1740   20.1850 C   0  0  0  0  0  3  0  0  0  0  0  0
  -21.9640   -6.8790   21.4470 O   0  0  0  0  0  0  0  0  0  0  0  0
  -21.8790   -6.1900   22.6290 C   0  0  0  0  0  0  0  0  0  0  0  0
  -21.3940   -6.7920   23.8100 C   0  0  0  0  0  3  0  0  0  0  0  0
  -21.2580   -6.0280   24.9870 C   0  0  0  0  0  3  0  0  0  0  0  0
  -21.6020   -4.6630   24.9830 C   0  0  0  0  0  0  0  0  0  0  0  0
  -22.0820   -4.0600   23.8080 C   0  0  0  0  0  3  0  0  0  0  0  0
  -22.2170   -4.8210   22.6340 C   0  0  0  0  0  0  0  0  0  0  0  0
  -22.6580   -4.2300   21.4980 F   0  0  0  0  0  0  0  0  0  0  0  0
  -21.4650   -3.9270   26.1110 F   0  0  0  0  0  0  0  0  0  0  0  0
  -22.9860  -13.5390   21.2470 C   0  0  0  0  0  0  0  0  0  0  0  0
  -22.3550  -12.8280   22.1740 N   0  0  0  0  0  0  0  0  0  0  0  0
  -22.4870  -14.5610   20.7790 O   0  0  0  0  0  0  0  0  0  0  0  0
  -22.7750  -12.0000   22.5720 H   0  0  0  0  0  0  0  0  0  0  0  0
  -21.4410  -13.1170   22.4920 H   0  0  0  0  0  0  0  0  0  0  0  0
  -25.5230  -15.2460   20.2470 N   0  0  0  0  0  0  0  0  0  0  0  0
  -24.7660  -15.8900   20.4470 H   0  0  0  0  0  0  0  0  0  0  0  0
  -26.3450  -15.7010   19.8680 H   0  0  0  0  0  0  0  0  0  0  0  0
  -28.1980  -25.0190   20.4140 C   0  0  0  0  0  2  0  0  0  0  0  0
  -28.4340  -26.4660   20.1320 O   0  0  0  0  0  0  0  0  0  0  0  0
  -24.6950  -31.8560   23.1760 C   0  0  0  0  0  0  0  0  0  0  0  0
  -27.3200  -27.3210   20.1030 C   0  0  0  0  0  0  0  0  0  0  0  0
  -23.4960  -30.4630   21.5280 C   0  0  0  0  0  3  0  0  0  0  0  0
  -24.9530  -28.9280   20.0930 C   0  0  0  0  0  0  0  0  0  0  0  0
  -26.0340  -30.7920   21.3480 C   0  0  0  0  0  2  0  0  0  0  0  0
  -26.1200  -29.4160   20.6950 C   0  0  0  0  0  0  0  0  0  0  0  0
  -27.3090  -28.6260   20.6890 C   0  0  0  0  0  3  0  0  0  0  0  0
  -26.1370  -26.8980   19.4590 C   0  0  0  0  0  3  0  0  0  0  0  0
  -24.9650  -27.6760   19.4630 C   0  0  0  0  0  3  0  0  0  0  0  0
  -23.7130  -29.7970   20.1440 C   0  0  0  0  0  2  0  0  0  0  0  0
  -24.7600  -31.0540   22.0730 N   0  0  0  0  0  0  0  0  0  0  0  0
  -23.6100  -32.1260   23.7120 O   0  0  0  0  0  0  0  0  0  0  0  0
  -22.8390  -29.4370   22.4810 C   0  0  0  0  0  0  0  0  0  0  0  0
  -21.5120  -29.2580   22.3540 N   0  0  0  0  0  0  0  0  0  0  0  0
  -23.5200  -28.8050   23.2920 O   0  0  0  0  0  0  0  0  0  0  0  0
  -21.0240  -29.8180   21.6710 H   0  0  0  0  0  0  0  0  0  0  0  0
  -18.1380  -28.0550   22.8510 C   0  0  0  0  0  0  0  0  0  0  0  0
  -20.6960  -28.3150   23.1200 C   0  0  0  0  0  3  0  0  0  0  0  0
  -20.7980  -26.8870   22.5360 C   0  0  0  0  0  2  0  0  0  0  0  0
  -19.6960  -26.5690   21.5200 C   0  0  0  0  0  2  0  0  0  0  0  0
  -18.3150  -26.7100   22.1670 C   0  0  0  0  0  2  0  0  0  0  0  0
  -19.2560  -28.8150   23.2840 C   0  0  0  0  0  0  0  0  0  0  0  0
  -19.0360  -30.0750   23.8830 C   0  0  0  0  0  3  0  0  0  0  0  0
  -17.7300  -30.5740   24.0540 C   0  0  0  0  0  3  0  0  0  0  0  0
  -16.6270  -29.8100   23.6360 C   0  0  0  0  0  3  0  0  0  0  0  0
  -16.8310  -28.5530   23.0400 C   0  0  0  0  0  3  0  0  0  0  0  0
  -25.9750  -32.4900   23.8010 C   0  0  0  0  0  3  0  0  0  0  0  0
  -25.6570  -33.8840   24.1450 N   0  0  0  0  0  0  0  0  0  0  0  0
  -25.9970  -34.9470   23.4040 C   0  0  0  0  0  0  0  0  0  0  0  0
  -26.6800  -34.8570   22.3800 O   0  0  0  0  0  0  0  0  0  0  0  0
  -25.0500  -34.0270   24.9390 H   0  0  0  0  0  0  0  0  0  0  0  0
  -24.2820  -36.7510   23.0380 C   0  0  0  0  0  1  0  0  0  0  0  0
  -25.5000  -36.3290   23.8730 C   0  0  0  0  0  3  0  0  0  0  0  0
  -27.6160  -37.1930   24.7730 C   0  0  0  0  0  1  0  0  0  0  0  0
  -26.5380  -37.3810   23.8050 N   0  0  0  0  0  0  0  0  0  0  0  0
  -26.1300  -38.2990   23.9590 H   0  0  0  0  0  0  0  0  0  0  0  0
  -26.4960  -31.7110   25.0700 C   0  0  1  0  0  0  0  0  0  0  0  0
  -25.4050  -31.4540   26.1360 C   0  0  0  0  0  1  0  0  0  0  0  0
  -27.0910  -30.3410   24.6670 C   0  0  0  0  0  1  0  0  0  0  0  0
  -27.6400  -32.5080   25.7410 C   0  0  0  0  0  1  0  0  0  0  0  0
  1  6  1  0
  2  6  1  0
  2  8  2  0
  3  1  1  0
  3  4  1  0
  5  2  1  0
  5 54  1  0
  5  4  1  0
  6 12  1  0
  7  1  2  0
  9 10  1  0
 11 14  2  0
 11 12  1  0
 12  9  2  0
 13 25  1  0
 13 10  2  0
 14 13  1  0
 15 14  1  0
 16 25  1  0
 17 22  1  0
 18 19  1  0
 18 17  1  0
 20 19  1  0
 20 29  1  0
 20 21  1  0
 22 16  1  0
 22 21  1  0
 23 16  2  0
 25 24  1  0
 26 27  2  0
 27 46  1  0
 28 27  1  0
 28 31  1  0
 29 30  1  0
 29 26  1  0
 30 28  2  0
 31 32  1  0
 32 33  2  0
 34 37  1  0
 34 33  1  0
 35 34  2  0
 36 35  1  0
 36 31  2  0
 37 38  1  0
 38 43  2  0
 38 39  1  0
 39 40  2  0
 41 40  1  0
 41 45  1  0
 42 41  2  0
 43 42  1  0
 44 43  1  0
 46 47  1  0
 47 50  1  0
 47 49  1  0
 48 46  2  0
 51 26  1  0
 51 52  1  0
 53 51  1  0
 55 54  1  0
 56 67  2  0
 57 55  1  0
 57 62  1  0
 58 66  1  0
 58 68  1  0
 59 65  1  0
 59 61  1  0
 60 66  1  0
 61 60  1  0
 62 61  2  0
 63 64  1  0
 63 57  2  0
 64 59  2  0
 65 58  1  0
 66 56  1  0
 68 70  2  0
 69 68  1  0
 71 69  1  0
 72 81  2  0
 72 77  1  0
 73 69  1  0
 73 77  1  0
 74 73  1  0
 75 76  1  0
 75 74  1  0
 76 72  1  0
 77 78  2  0
 78 79  1  0
 80 79  2  0
 81 80  1  0
 82 56  1  0
 82 83  1  0
 82 92  1  0
 83 86  1  0
 84 88  1  0
 84 83  1  0
 85 84  2  0
 88 87  1  0
 90 88  1  0
 90 91  1  0
 90 89  1  0
 92 95  1  1
 92 93  1  0
 94 92  1  0
M  ISO  4  16 100  25 100  54 101  55 101
M  END
>  <TORSDO>  (84) 
F 18

>  <SCORE>  (84) 
-13.202

>  <name>  (84) 
84

>  <ligand_id>  (84) 
84

>  <original_smiles>  (84) 
[H]c1c([H])c([H])c2c(c1[H])C([H])([H])C([H])([H])C([H])([H])C2([H])N([H])C(=O)C1([H])N(C(=O)C([H])(N([H])C(=O)C([H])(N([H])C([H])([H])[H])C([H])([H])[H])C(C([H])([H])[H])(C([H])([H])[H])C([H])([H])[H])C([H])([H])c2c([H])c(OC([H])([H])C3([H])C(=O)N(c4c([H])c([H])c(N(C(=O)N5C([H])([H])C([H])([H])C([H])([H])C([H])(n6nc(-c7c([H])c([H])c(Oc8c([H])c([H])c(F)c([H])c8F)c([H])c7[H])c(C(=O)N([H])[H])c6N([H])[H])C5([H])[H])C([H])([H])[H])c(F)c4[H])C(=O)C([H])([H])C3([H])[H])c([H])c([H])c2C1([H])[H]

>  <smiles>  (84) 
[H]c1c([H])c([H])c2c(c1[H])C([H])([H])C([H])([H])C([H])([H])C2([H])N([H])C(=O)C1([H])N(C(=O)C([H])(N([H])C(=O)C([H])(N([H])C([H])([H])[H])C([H])([H])[H])C(C([H])([H])[H])(C([H])([H])[H])C([H])([H])[H])C([H])([H])c2c([H])c(OC([H])([H])C3([H])C(=O)N(c4c([H])c([H])c(N(C(=O)N5C([H])([H])C([H])([H])C([H])([H])C([H])(n6nc(-c7c([H])c([H])c(Oc8c([H])c([H])c(F)c([H])c8F)c([H])c7[H])c(C(=O)N([H])[H])c6N([H])[H])C5([H])[H])C([H])([H])[H])c(F)c4[H])C(=O)C([H])([H])C3([H])[H])c([H])c([H])c2C1([H])[H]

$$$$
85:0:0
     RDKit          3D

 94103  0  0  1  0  0  0  0  0999 V2000
  -29.3580  -20.6950   21.2830 C   0  0  0  0  0  0  0  0  0  0  0  0
  -29.3070  -24.4030   21.4290 C   0  0  0  0  0  2  0  0  0  0  0  0
  -29.2800  -23.0180   22.0740 C   0  0  0  0  0  2  0  0  0  0  0  0
  -28.6700  -22.7850   19.7930 C   0  0  0  0  0  2  0  0  0  0  0  0
  -28.3740  -24.2670   20.2410 C   0  0  0  0  0  3  0  0  0  0  0  0
  -29.1110  -22.0270   20.9960 N   0  0  0  0  0  0  0  0  0  0  0  0
  -29.5600  -20.4010   22.4650 O   0  0  0  0  0  0  0  0  0  0  0  0
  -29.3330  -18.6190   17.9890 C   0  0  0  0  0  3  0  0  0  0  0  0
  -29.2690  -19.7150   18.8770 C   0  0  0  0  0  3  0  0  0  0  0  0
  -29.6130  -17.3160   18.4550 C   0  0  0  0  0  3  0  0  0  0  0  0
  -29.4610  -19.5380   20.2700 C   0  0  0  0  0  0  0  0  0  0  0  0
  -29.8520  -17.0900   19.8280 C   0  0  0  0  0  0  0  0  0  0  0  0
  -29.7520  -18.1960   20.7180 C   0  0  0  0  0  0  0  0  0  0  0  0
  -29.9400  -17.9130   22.0300 F   0  0  0  0  0  0  0  0  0  0  0  0
  -30.8180  -14.7460   19.9090 C   0  0  0  0  0  0  0  0  0  0  0  0
  -30.5620  -12.5080   18.9070 C   0  0  0  0  0  2  0  0  0  0  0  0
  -29.5240  -12.6280   17.7710 C   0  0  0  0  0  2  0  0  0  0  0  0
  -28.0910  -12.4700   18.3180 C   0  0  0  0  0  2  0  0  0  0  0  0
  -27.8240  -13.3460   19.5700 C   0  0  0  0  0  3  0  0  0  0  0  0
  -28.9640  -13.1900   20.6060 C   0  0  0  0  0  2  0  0  0  0  0  0
  -30.2310  -13.5140   19.9310 N   0  0  0  0  0  0  0  0  0  0  0  0
  -31.9280  -14.9380   19.4020 O   0  0  0  0  0  0  0  0  0  0  0  0
  -30.0450  -15.7610   20.3680 N   0  0  0  0  0  0  0  0  0  0  0  0
  -29.3530  -15.4800   21.0410 H   0  0  0  0  0  0  0  0  0  0  0  0
  -25.5140  -13.9460   20.5250 C   0  0  0  0  0  0  0  0  0  0  0  0
  -24.4650  -13.1650   20.9410 C   0  0  0  0  0  0  0  0  0  0  0  0
  -24.8960  -11.8120   20.7870 C   0  0  0  0  0  0  0  0  0  0  0  0
  -26.5150  -13.0610   20.1510 N   0  0  0  0  0  0  0  0  0  0  0  0
  -26.1540  -11.7720   20.3670 N   0  0  0  0  0  0  0  0  0  0  0  0
  -24.1650  -10.5510   20.9600 C   0  0  0  0  0  0  0  0  0  0  0  0
  -24.5820   -9.5760   21.8930 C   0  0  0  0  0  3  0  0  0  0  0  0
  -23.8500   -8.3820   22.0590 C   0  0  0  0  0  3  0  0  0  0  0  0
  -22.6860   -8.1500   21.2880 C   0  0  0  0  0  0  0  0  0  0  0  0
  -22.2890   -9.1130   20.3420 C   0  0  0  0  0  3  0  0  0  0  0  0
  -23.0240  -10.2980   20.1750 C   0  0  0  0  0  3  0  0  0  0  0  0
  -21.9270   -7.0070   21.3600 O   0  0  0  0  0  0  0  0  0  0  0  0
  -21.7650   -6.3250   22.5390 C   0  0  0  0  0  0  0  0  0  0  0  0
  -21.1620   -6.9220   23.6680 C   0  0  0  0  0  3  0  0  0  0  0  0
  -20.9480   -6.1620   24.8370 C   0  0  0  0  0  3  0  0  0  0  0  0
  -21.3310   -4.8090   24.8760 C   0  0  0  0  0  0  0  0  0  0  0  0
  -21.9260   -4.2100   23.7510 C   0  0  0  0  0  3  0  0  0  0  0  0
  -22.1410   -4.9670   22.5850 C   0  0  0  0  0  0  0  0  0  0  0  0
  -22.6940   -4.3810   21.4970 F   0  0  0  0  0  0  0  0  0  0  0  0
  -21.1210   -4.0770   25.9950 F   0  0  0  0  0  0  0  0  0  0  0  0
  -23.1080  -13.6450   21.3610 C   0  0  0  0  0  0  0  0  0  0  0  0
  -22.4450  -12.9060   22.2430 N   0  0  0  0  0  0  0  0  0  0  0  0
  -22.6470  -14.7040   20.9420 O   0  0  0  0  0  0  0  0  0  0  0  0
  -22.8300  -12.0430   22.5970 H   0  0  0  0  0  0  0  0  0  0  0  0
  -21.5370  -13.2090   22.5680 H   0  0  0  0  0  0  0  0  0  0  0  0
  -25.6950  -15.3210   20.4160 N   0  0  0  0  0  0  0  0  0  0  0  0
  -24.9560  -15.9840   20.6290 H   0  0  0  0  0  0  0  0  0  0  0  0
  -26.5250  -15.7600   20.0390 H   0  0  0  0  0  0  0  0  0  0  0  0
  -28.5480  -25.4110   19.1750 C   0  0  0  0  0  2  0  0  0  0  0  0
  -28.4750  -26.7860   19.6630 O   0  0  0  0  0  0  0  0  0  0  0  0
  -24.6310  -31.7630   23.0840 C   0  0  0  0  0  0  0  0  0  0  0  0
  -27.2790  -27.4970   19.7070 C   0  0  0  0  0  0  0  0  0  0  0  0
  -23.4100  -30.4150   21.4110 C   0  0  0  0  0  3  0  0  0  0  0  0
  -24.8560  -28.9810   19.8670 C   0  0  0  0  0  0  0  0  0  0  0  0
  -25.9230  -30.8340   21.1590 C   0  0  0  0  0  2  0  0  0  0  0  0
  -26.0210  -29.4930   20.4470 C   0  0  0  0  0  0  0  0  0  0  0  0
  -27.2340  -28.7590   20.3620 C   0  0  0  0  0  3  0  0  0  0  0  0
  -26.0830  -27.0070   19.1320 C   0  0  0  0  0  3  0  0  0  0  0  0
  -24.8840  -27.7430   19.2040 C   0  0  0  0  0  3  0  0  0  0  0  0
  -23.5980  -29.8110   19.9940 C   0  0  0  0  0  2  0  0  0  0  0  0
  -24.6740  -31.0150   21.9440 N   0  0  0  0  0  0  0  0  0  0  0  0
  -23.5600  -31.9750   23.6730 O   0  0  0  0  0  0  0  0  0  0  0  0
  -22.8110  -29.3270   22.3360 C   0  0  0  0  0  0  0  0  0  0  0  0
  -21.4960  -29.0880   22.2120 N   0  0  0  0  0  0  0  0  0  0  0  0
  -23.5330  -28.7040   23.1200 O   0  0  0  0  0  0  0  0  0  0  0  0
  -20.9740  -29.6370   21.5420 H   0  0  0  0  0  0  0  0  0  0  0  0
  -18.1900  -27.6990   22.7090 C   0  0  0  0  0  0  0  0  0  0  0  0
  -20.7360  -28.0830   22.9530 C   0  0  0  0  0  3  0  0  0  0  0  0
  -20.9090  -26.6860   22.3110 C   0  0  0  0  0  2  0  0  0  0  0  0
  -19.7960  -26.3320   21.3180 C   0  0  0  0  0  2  0  0  0  0  0  0
  -18.4310  -26.3750   22.0040 C   0  0  0  0  0  2  0  0  0  0  0  0
  -19.2740  -28.5060   23.1460 C   0  0  0  0  0  0  0  0  0  0  0  0
  -18.9990  -29.7400   23.7730 C   0  0  0  0  0  3  0  0  0  0  0  0
  -17.6740  -30.1680   23.9690 C   0  0  0  0  0  3  0  0  0  0  0  0
  -16.6060  -29.3600   23.5440 C   0  0  0  0  0  3  0  0  0  0  0  0
  -16.8640  -28.1270   22.9210 C   0  0  0  0  0  3  0  0  0  0  0  0
  -25.9170  -32.4010   23.6900 C   0  0  0  0  0  3  0  0  0  0  0  0
  -25.5850  -33.7790   24.0770 N   0  0  0  0  0  0  0  0  0  0  0  0
  -25.8810  -34.8630   23.3480 C   0  0  0  0  0  0  0  0  0  0  0  0
  -26.5320  -34.8070   22.3010 O   0  0  0  0  0  0  0  0  0  0  0  0
  -25.0060  -33.8930   24.8950 H   0  0  0  0  0  0  0  0  0  0  0  0
  -24.1210  -36.6400   23.0730 C   0  0  0  0  0  1  0  0  0  0  0  0
  -25.3750  -36.2260   23.8620 C   0  0  0  0  0  3  0  0  0  0  0  0
  -27.4940  -37.1240   24.7170 C   0  0  0  0  0  1  0  0  0  0  0  0
  -26.3870  -37.3000   23.7800 N   0  0  0  0  0  0  0  0  0  0  0  0
  -25.9660  -38.2080   23.9550 H   0  0  0  0  0  0  0  0  0  0  0  0
  -26.4850  -31.5960   24.9230 C   0  0  1  0  0  0  0  0  0  0  0  0
  -25.4250  -31.2870   26.0060 C   0  0  0  0  0  1  0  0  0  0  0  0
  -27.0980  -30.2500   24.4680 C   0  0  0  0  0  1  0  0  0  0  0  0
  -27.6280  -32.3970   25.5870 C   0  0  0  0  0  1  0  0  0  0  0  0
  1  7  2  0
  2  3  1  0
  4  5  1  0
  4  6  1  0
  5 53  1  0
  5  2  1  0
  6  1  1  0
  6  3  1  0
  8 10  2  0
  8  9  1  0
  9 11  2  0
 10 12  1  0
 11 13  1  0
 11  1  1  0
 12 23  1  0
 12 13  2  0
 13 14  1  0
 15 21  1  0
 15 23  1  0
 16 21  1  0
 17 18  1  0
 17 16  1  0
 19 18  1  0
 19 28  1  0
 19 20  1  0
 21 20  1  0
 22 15  2  0
 23 24  1  0
 25 26  2  0
 26 45  1  0
 27 26  1  0
 27 30  1  0
 28 29  1  0
 28 25  1  0
 29 27  2  0
 30 31  1  0
 31 32  2  0
 33 36  1  0
 33 32  1  0
 34 33  2  0
 35 34  1  0
 35 30  2  0
 36 37  1  0
 37 42  2  0
 37 38  1  0
 38 39  2  0
 39 40  1  0
 40 44  1  0
 41 40  2  0
 42 41  1  0
 43 42  1  0
 45 46  1  0
 46 49  1  0
 46 48  1  0
 47 45  2  0
 50 25  1  0
 50 51  1  0
 52 50  1  0
 53 54  1  0
 54 56  1  0
 55 66  2  0
 56 61  1  0
 57 65  1  0
 57 67  1  0
 58 64  1  0
 58 60  1  0
 59 65  1  0
 60 59  1  0
 61 60  2  0
 62 63  1  0
 62 56  2  0
 63 58  2  0
 64 57  1  0
 65 55  1  0
 67 69  2  0
 68 67  1  0
 70 68  1  0
 71 80  2  0
 71 76  1  0
 72 68  1  0
 72 76  1  0
 73 72  1  0
 74 75  1  0
 74 73  1  0
 75 71  1  0
 76 77  2  0
 77 78  1  0
 79 78  2  0
 80 79  1  0
 81 55  1  0
 81 82  1  0
 81 91  1  0
 82 85  1  0
 83 87  1  0
 83 82  1  0
 84 83  2  0
 87 86  1  0
 89 87  1  0
 89 90  1  0
 89 88  1  0
 91 94  1  1
 91 92  1  0
 93 91  1  0
M  ISO  4  15 100  23 100  53 101  54 101
M  END
>  <TORSDO>  (85) 
F 18

>  <SCORE>  (85) 
-13.550

>  <name>  (85) 
85

>  <ligand_id>  (85) 
85

>  <original_smiles>  (85) 
[H]c1c([H])c(C(=O)N2C([H])([H])C([H])([H])C([H])(C([H])([H])Oc3c([H])c([H])c4c(c3[H])C([H])([H])N(C(=O)C([H])(N([H])C(=O)C([H])(N([H])C([H])([H])[H])C([H])([H])[H])C(C([H])([H])[H])(C([H])([H])[H])C([H])([H])[H])C([H])(C(=O)N([H])C3([H])c5c([H])c([H])c([H])c([H])c5C([H])([H])C([H])([H])C3([H])[H])C4([H])[H])C2([H])[H])c(F)c(N([H])C(=O)N2C([H])([H])C([H])([H])C([H])([H])C([H])(n3nc(-c4c([H])c([H])c(Oc5c([H])c([H])c(F)c([H])c5F)c([H])c4[H])c(C(=O)N([H])[H])c3N([H])[H])C2([H])[H])c1[H]

>  <smiles>  (85) 
[H]c1c([H])c(C(=O)N2C([H])([H])C([H])([H])C([H])(C([H])([H])Oc3c([H])c([H])c4c(c3[H])C([H])([H])N(C(=O)C([H])(N([H])C(=O)C([H])(N([H])C([H])([H])[H])C([H])([H])[H])C(C([H])([H])[H])(C([H])([H])[H])C([H])([H])[H])C([H])(C(=O)N([H])C3([H])c5c([H])c([H])c([H])c([H])c5C([H])([H])C([H])([H])C3([H])[H])C4([H])[H])C2([H])[H])c(F)c(N([H])C(=O)N2C([H])([H])C([H])([H])C([H])([H])C([H])(n3nc(-c4c([H])c([H])c(Oc5c([H])c([H])c(F)c([H])c5F)c([H])c4[H])c(C(=O)N([H])[H])c3N([H])[H])C2([H])[H])c1[H]

$$$$
86:0:0
     RDKit          3D

 93101  0  0  1  0  0  0  0  0999 V2000
  -30.2350  -21.7530   20.5510 C   0  0  0  0  0  0  0  0  0  0  0  0
  -29.3520  -24.0790   20.3560 C   0  0  0  0  0  0  0  0  0  0  0  0
  -29.2610  -22.6930   20.2680 N   0  0  0  0  0  0  0  0  0  0  0  0
  -31.3690  -22.0950   20.9110 O   0  0  0  0  0  0  0  0  0  0  0  0
  -30.3670  -24.6590   20.7600 O   0  0  0  0  0  0  0  0  0  0  0  0
  -28.3780  -22.3180   19.9590 H   0  0  0  0  0  0  0  0  0  0  0  0
  -31.1910  -19.3770   20.2290 C   0  0  0  0  0  3  0  0  0  0  0  0
  -31.1420  -17.9490   20.2580 C   0  0  0  0  0  3  0  0  0  0  0  0
  -28.7770  -18.0820   20.6190 C   0  0  0  0  0  3  0  0  0  0  0  0
  -30.0470  -20.2160   20.4040 C   0  0  0  0  0  0  0  0  0  0  0  0
  -29.9280  -17.2480   20.4720 C   0  0  0  0  0  0  0  0  0  0  0  0
  -28.8240  -19.5170   20.5880 C   0  0  0  0  0  0  0  0  0  0  0  0
  -27.6760  -20.2150   20.7690 F   0  0  0  0  0  0  0  0  0  0  0  0
  -30.5910  -14.7210   20.1820 C   0  0  0  0  0  0  0  0  0  0  0  0
  -30.3420  -12.4910   19.0970 C   0  0  0  0  0  2  0  0  0  0  0  0
  -29.3580  -12.6370   17.9140 C   0  0  0  0  0  2  0  0  0  0  0  0
  -27.9000  -12.4770   18.3900 C   0  0  0  0  0  2  0  0  0  0  0  0
  -27.5870  -13.3230   19.6520 C   0  0  0  0  0  3  0  0  0  0  0  0
  -28.6820  -13.1490   20.7290 C   0  0  0  0  0  2  0  0  0  0  0  0
  -29.9700  -13.4970   20.1130 N   0  0  0  0  0  0  0  0  0  0  0  0
  -31.7460  -14.8650   19.7700 O   0  0  0  0  0  0  0  0  0  0  0  0
  -29.7960  -15.7800   20.5570 N   0  0  0  0  0  0  0  0  0  0  0  0
  -28.8920  -15.4670   20.8780 H   0  0  0  0  0  0  0  0  0  0  0  0
  -25.2240  -13.9310   20.4560 C   0  0  0  0  0  0  0  0  0  0  0  0
  -24.1650  -13.1620   20.8510 C   0  0  0  0  0  0  0  0  0  0  0  0
  -24.6140  -11.8080   20.7880 C   0  0  0  0  0  0  0  0  0  0  0  0
  -26.2540  -13.0450   20.1760 N   0  0  0  0  0  0  0  0  0  0  0  0
  -25.8930  -11.7630   20.4360 N   0  0  0  0  0  0  0  0  0  0  0  0
  -23.8830  -10.5480   20.9830 C   0  0  0  0  0  0  0  0  0  0  0  0
  -24.3260   -9.5730   21.9030 C   0  0  0  0  0  3  0  0  0  0  0  0
  -23.5970   -8.3780   22.0860 C   0  0  0  0  0  3  0  0  0  0  0  0
  -22.4090   -8.1520   21.3510 C   0  0  0  0  0  0  0  0  0  0  0  0
  -21.9850   -9.1160   20.4210 C   0  0  0  0  0  3  0  0  0  0  0  0
  -22.7150  -10.3020   20.2350 C   0  0  0  0  0  3  0  0  0  0  0  0
  -21.6500   -7.0110   21.4460 O   0  0  0  0  0  0  0  0  0  0  0  0
  -21.6030   -6.2710   22.6000 C   0  0  0  0  0  0  0  0  0  0  0  0
  -21.1800   -6.8280   23.8260 C   0  0  0  0  0  3  0  0  0  0  0  0
  -21.0810   -6.0140   24.9720 C   0  0  0  0  0  3  0  0  0  0  0  0
  -21.3950   -4.6430   24.8930 C   0  0  0  0  0  0  0  0  0  0  0  0
  -21.8110   -4.0860   23.6710 C   0  0  0  0  0  3  0  0  0  0  0  0
  -21.9120   -4.8970   22.5270 C   0  0  0  0  0  0  0  0  0  0  0  0
  -22.2930   -4.3500   21.3480 F   0  0  0  0  0  0  0  0  0  0  0  0
  -21.2930   -3.8600   25.9920 F   0  0  0  0  0  0  0  0  0  0  0  0
  -22.7800  -13.6460   21.1740 C   0  0  0  0  0  0  0  0  0  0  0  0
  -22.0750  -12.9460   22.0540 N   0  0  0  0  0  0  0  0  0  0  0  0
  -22.3340  -14.6800   20.6790 O   0  0  0  0  0  0  0  0  0  0  0  0
  -22.4490  -12.1090   22.4760 H   0  0  0  0  0  0  0  0  0  0  0  0
  -21.1480  -13.2520   22.3130 H   0  0  0  0  0  0  0  0  0  0  0  0
  -25.3940  -15.3030   20.2890 N   0  0  0  0  0  0  0  0  0  0  0  0
  -24.6280  -15.9560   20.4170 H   0  0  0  0  0  0  0  0  0  0  0  0
  -26.2140  -15.7330   19.8800 H   0  0  0  0  0  0  0  0  0  0  0  0
  -28.1510  -25.0210   19.9390 C   0  0  0  0  0  2  0  0  0  0  0  0
  -28.3610  -26.4870   20.1490 O   0  0  0  0  0  0  0  0  0  0  0  0
  -24.6250  -31.8620   23.2210 C   0  0  0  0  0  0  0  0  0  0  0  0
  -27.2400  -27.3380   20.1080 C   0  0  0  0  0  0  0  0  0  0  0  0
  -23.4190  -30.4770   21.5720 C   0  0  0  0  0  3  0  0  0  0  0  0
  -24.8690  -28.9480   20.1230 C   0  0  0  0  0  0  0  0  0  0  0  0
  -25.9570  -30.8050   21.3820 C   0  0  0  0  0  2  0  0  0  0  0  0
  -26.0390  -29.4330   20.7190 C   0  0  0  0  0  0  0  0  0  0  0  0
  -27.2280  -28.6410   20.6990 C   0  0  0  0  0  3  0  0  0  0  0  0
  -26.0430  -26.9100   19.4870 C   0  0  0  0  0  3  0  0  0  0  0  0
  -24.8740  -27.6930   19.4970 C   0  0  0  0  0  3  0  0  0  0  0  0
  -23.6300  -29.8180   20.1840 C   0  0  0  0  0  2  0  0  0  0  0  0
  -24.6860  -31.0640   22.1150 N   0  0  0  0  0  0  0  0  0  0  0  0
  -23.5430  -32.1300   23.7630 O   0  0  0  0  0  0  0  0  0  0  0  0
  -22.7630  -29.4480   22.5240 C   0  0  0  0  0  0  0  0  0  0  0  0
  -21.4360  -29.2710   22.4040 N   0  0  0  0  0  0  0  0  0  0  0  0
  -23.4480  -28.8120   23.3290 O   0  0  0  0  0  0  0  0  0  0  0  0
  -20.9430  -29.8370   21.7280 H   0  0  0  0  0  0  0  0  0  0  0  0
  -18.0610  -28.0760   22.9190 C   0  0  0  0  0  0  0  0  0  0  0  0
  -20.6230  -28.3250   23.1690 C   0  0  0  0  0  3  0  0  0  0  0  0
  -20.7160  -26.9010   22.5730 C   0  0  0  0  0  2  0  0  0  0  0  0
  -19.6040  -26.5950   21.5640 C   0  0  0  0  0  2  0  0  0  0  0  0
  -18.2280  -26.7350   22.2230 C   0  0  0  0  0  2  0  0  0  0  0  0
  -19.1850  -28.8300   23.3490 C   0  0  0  0  0  0  0  0  0  0  0  0
  -18.9740  -30.0850   23.9600 C   0  0  0  0  0  3  0  0  0  0  0  0
  -17.6720  -30.5860   24.1440 C   0  0  0  0  0  3  0  0  0  0  0  0
  -16.5620  -29.8290   23.7300 C   0  0  0  0  0  3  0  0  0  0  0  0
  -16.7580  -28.5750   23.1230 C   0  0  0  0  0  3  0  0  0  0  0  0
  -25.9080  -32.4920   23.8450 C   0  0  0  0  0  3  0  0  0  0  0  0
  -25.5950  -33.8860   24.1900 N   0  0  0  0  0  0  0  0  0  0  0  0
  -25.9020  -34.9470   23.4320 C   0  0  0  0  0  0  0  0  0  0  0  0
  -26.5490  -34.8550   22.3850 O   0  0  0  0  0  0  0  0  0  0  0  0
  -25.0170  -34.0310   25.0050 H   0  0  0  0  0  0  0  0  0  0  0  0
  -24.1450  -36.7230   23.1410 C   0  0  0  0  0  1  0  0  0  0  0  0
  -25.4150  -36.3290   23.9100 C   0  0  0  0  0  3  0  0  0  0  0  0
  -27.5650  -37.2360   24.6770 C   0  0  0  0  0  1  0  0  0  0  0  0
  -26.4330  -37.3930   23.7670 N   0  0  0  0  0  0  0  0  0  0  0  0
  -26.0220  -38.3090   23.9270 H   0  0  0  0  0  0  0  0  0  0  0  0
  -26.4300  -31.7110   25.1120 C   0  0  1  0  0  0  0  0  0  0  0  0
  -25.3400  -31.4590   26.1810 C   0  0  0  0  0  1  0  0  0  0  0  0
  -27.0170  -30.3390   24.7070 C   0  0  0  0  0  1  0  0  0  0  0  0
  -27.5790  -32.5030   25.7800 C   0  0  0  0  0  1  0  0  0  0  0  0
  1  4  2  0
  2  5  2  0
  3  2  1  0
  3  1  1  0
  6  3  1  0
  7  8  2  0
  7 10  1  0
  8 11  1  0
 10  1  1  0
 10 12  2  0
 11 22  1  0
 11  9  2  0
 12  9  1  0
 12 13  1  0
 14 22  1  0
 15 20  1  0
 16 17  1  0
 16 15  1  0
 18 17  1  0
 18 27  1  0
 18 19  1  0
 20 14  1  0
 20 19  1  0
 21 14  2  0
 22 23  1  0
 24 25  2  0
 25 44  1  0
 26 25  1  0
 26 29  1  0
 27 28  1  0
 27 24  1  0
 28 26  2  0
 29 30  1  0
 30 31  2  0
 32 35  1  0
 32 31  1  0
 33 32  2  0
 34 33  1  0
 34 29  2  0
 35 36  1  0
 36 37  1  0
 37 38  2  0
 39 38  1  0
 39 43  1  0
 40 39  2  0
 41 36  2  0
 41 40  1  0
 42 41  1  0
 44 45  1  0
 45 48  1  0
 45 47  1  0
 46 44  2  0
 49 50  1  0
 49 24  1  0
 51 49  1  0
 52 53  1  0
 52  2  1  0
 54 65  2  0
 55 53  1  0
 55 60  1  0
 56 64  1  0
 56 66  1  0
 57 63  1  0
 57 59  1  0
 58 64  1  0
 59 58  1  0
 60 59  2  0
 61 62  1  0
 61 55  2  0
 62 57  2  0
 63 56  1  0
 64 54  1  0
 66 68  2  0
 67 66  1  0
 69 67  1  0
 70 79  2  0
 70 75  1  0
 71 67  1  0
 71 75  1  0
 72 71  1  0
 73 74  1  0
 73 72  1  0
 74 70  1  0
 75 76  2  0
 76 77  1  0
 78 77  2  0
 79 78  1  0
 80 54  1  0
 80 81  1  0
 80 90  1  0
 81 84  1  0
 82 86  1  0
 82 81  1  0
 83 82  2  0
 86 85  1  0
 88 86  1  0
 88 89  1  0
 88 87  1  0
 90 93  1  1
 90 91  1  0
 92 90  1  0
M  ISO  4  14 100  22 100  52 101  53 101
M  END
>  <TORSDO>  (86) 
F 18

>  <SCORE>  (86) 
-14.792

>  <name>  (86) 
86

>  <ligand_id>  (86) 
86

>  <original_smiles>  (86) 
[H]c1c([H])c([H])c2c(c1[H])C([H])([H])C([H])([H])C([H])([H])C2([H])N([H])C(=O)C1([H])N(C(=O)C([H])(N([H])C(=O)C([H])(N([H])C([H])([H])[H])C([H])([H])[H])C(C([H])([H])[H])(C([H])([H])[H])C([H])([H])[H])C([H])([H])c2c([H])c(OC([H])([H])C(=O)N([H])C(=O)c3c([H])c([H])c(N([H])C(=O)N4C([H])([H])C([H])([H])C([H])([H])C([H])(n5nc(-c6c([H])c([H])c(Oc7c([H])c([H])c(F)c([H])c7F)c([H])c6[H])c(C(=O)N([H])[H])c5N([H])[H])C4([H])[H])c([H])c3F)c([H])c([H])c2C1([H])[H]

>  <smiles>  (86) 
[H]c1c([H])c([H])c2c(c1[H])C([H])([H])C([H])([H])C([H])([H])C2([H])N([H])C(=O)C1([H])N(C(=O)C([H])(N([H])C(=O)C([H])(N([H])C([H])([H])[H])C([H])([H])[H])C(C([H])([H])[H])(C([H])([H])[H])C([H])([H])[H])C([H])([H])c2c([H])c(OC([H])([H])C(=O)N([H])C(=O)c3c([H])c([H])c(N([H])C(=O)N4C([H])([H])C([H])([H])C([H])([H])C([H])(n5nc(-c6c([H])c([H])c(Oc7c([H])c([H])c(F)c([H])c7F)c([H])c6[H])c(C(=O)N([H])[H])c5N([H])[H])C4([H])[H])c([H])c3F)c([H])c([H])c2C1([H])[H]

$$$$
87:0:0
     RDKit          3D

 95103  0  0  1  0  0  0  0  0999 V2000
  -29.3010  -19.3960   20.8740 C   0  0  0  0  0  3  0  0  0  0  0  0
  -29.3970  -17.9740   21.0310 C   0  0  0  0  0  0  0  0  0  0  0  0
  -30.0690  -17.1420   20.0810 C   0  0  0  0  0  0  0  0  0  0  0  0
  -30.5170  -19.2390   18.8100 C   0  0  0  0  0  0  0  0  0  0  0  0
  -29.8590  -20.0730   19.7570 C   0  0  0  0  0  0  0  0  0  0  0  0
  -30.6210  -17.8190   18.9570 C   0  0  0  0  0  0  0  0  0  0  0  0
  -28.7490  -17.3380   22.2510 C   0  0  0  0  0  1  0  0  0  0  0  0
  -31.2230  -17.1180   17.9660 F   0  0  0  0  0  0  0  0  0  0  0  0
  -30.7790  -14.6530   19.7030 C   0  0  0  0  0  0  0  0  0  0  0  0
  -30.4300  -12.4500   18.6000 C   0  0  0  0  0  2  0  0  0  0  0  0
  -29.3490  -12.6320   17.5110 C   0  0  0  0  0  2  0  0  0  0  0  0
  -27.9350  -12.4690   18.1040 C   0  0  0  0  0  2  0  0  0  0  0  0
  -27.7380  -13.2850   19.4090 C   0  0  0  0  0  3  0  0  0  0  0  0
  -28.9190  -13.0740   20.3840 C   0  0  0  0  0  2  0  0  0  0  0  0
  -30.1550  -13.4310   19.6690 N   0  0  0  0  0  0  0  0  0  0  0  0
  -31.8840  -14.8140   19.1790 O   0  0  0  0  0  0  0  0  0  0  0  0
  -30.0580  -15.6790   20.2570 N   0  0  0  0  0  0  0  0  0  0  0  0
  -29.2850  -15.3420   20.8090 H   0  0  0  0  0  0  0  0  0  0  0  0
  -25.4820  -13.8830   20.4860 C   0  0  0  0  0  0  0  0  0  0  0  0
  -24.4420  -13.1090   20.9240 C   0  0  0  0  0  0  0  0  0  0  0  0
  -24.8430  -11.7530   20.7150 C   0  0  0  0  0  0  0  0  0  0  0  0
  -26.4520  -12.9980   20.0400 N   0  0  0  0  0  0  0  0  0  0  0  0
  -26.0800  -11.7080   20.2360 N   0  0  0  0  0  0  0  0  0  0  0  0
  -24.0980  -10.5000   20.8890 C   0  0  0  0  0  0  0  0  0  0  0  0
  -24.5440   -9.4910   21.7690 C   0  0  0  0  0  3  0  0  0  0  0  0
  -23.8000   -8.3020   21.9330 C   0  0  0  0  0  3  0  0  0  0  0  0
  -22.5950   -8.1140   21.2150 C   0  0  0  0  0  0  0  0  0  0  0  0
  -22.1670   -9.1120   20.3220 C   0  0  0  0  0  3  0  0  0  0  0  0
  -22.9110  -10.2930   20.1560 C   0  0  0  0  0  3  0  0  0  0  0  0
  -21.8210   -6.9820   21.2910 O   0  0  0  0  0  0  0  0  0  0  0  0
  -21.6990   -6.2700   22.4570 C   0  0  0  0  0  0  0  0  0  0  0  0
  -21.1980   -6.8560   23.6410 C   0  0  0  0  0  3  0  0  0  0  0  0
  -21.0250   -6.0700   24.7960 C   0  0  0  0  0  3  0  0  0  0  0  0
  -21.3430   -4.6980   24.7710 C   0  0  0  0  0  0  0  0  0  0  0  0
  -21.8370   -4.1120   23.5920 C   0  0  0  0  0  3  0  0  0  0  0  0
  -22.0120   -4.8960   22.4380 C   0  0  0  0  0  0  0  0  0  0  0  0
  -22.4690   -4.3210   21.3000 F   0  0  0  0  0  0  0  0  0  0  0  0
  -21.1700   -3.9400   25.8790 F   0  0  0  0  0  0  0  0  0  0  0  0
  -23.1110  -13.5980   21.4180 C   0  0  0  0  0  0  0  0  0  0  0  0
  -22.4760  -12.8490   22.3130 N   0  0  0  0  0  0  0  0  0  0  0  0
  -22.6480  -14.6760   21.0460 O   0  0  0  0  0  0  0  0  0  0  0  0
  -22.8640  -11.9750   22.6340 H   0  0  0  0  0  0  0  0  0  0  0  0
  -21.5870  -13.1570   22.6830 H   0  0  0  0  0  0  0  0  0  0  0  0
  -25.6760  -15.2590   20.4080 N   0  0  0  0  0  0  0  0  0  0  0  0
  -24.9490  -15.9170   20.6650 H   0  0  0  0  0  0  0  0  0  0  0  0
  -26.4770  -15.7040   19.9800 H   0  0  0  0  0  0  0  0  0  0  0  0
  -31.0720  -19.8420   17.6780 N   0  0  0  0  0  0  0  0  0  0  0  0
  -31.2710  -20.8330   17.7550 H   0  0  0  0  0  0  0  0  0  0  0  0
  -31.7940  -19.3140   17.1990 H   0  0  0  0  0  0  0  0  0  0  0  0
  -29.8140  -21.4680   19.5120 O   0  0  0  0  0  0  0  0  0  0  0  0
  -29.0780  -22.4290   20.3420 C   0  0  0  0  0  2  0  0  0  0  0  0
  -29.2180  -23.9370   19.8550 C   0  0  0  0  0  0  0  0  0  0  0  0
  -30.0110  -24.2240   18.9500 O   0  0  0  0  0  0  0  0  0  0  0  0
  -28.3430  -25.0700   20.5230 C   0  0  0  0  0  2  0  0  0  0  0  0
  -28.5920  -26.4720   20.0910 O   0  0  0  0  0  0  0  0  0  0  0  0
  -24.8550  -31.8100   23.2150 C   0  0  0  0  0  0  0  0  0  0  0  0
  -27.4790  -27.3230   20.0810 C   0  0  0  0  0  0  0  0  0  0  0  0
  -23.6540  -30.4350   21.5520 C   0  0  0  0  0  3  0  0  0  0  0  0
  -25.1080  -28.9180   20.0970 C   0  0  0  0  0  0  0  0  0  0  0  0
  -26.1900  -30.7720   21.3680 C   0  0  0  0  0  2  0  0  0  0  0  0
  -26.2750  -29.4050   20.6990 C   0  0  0  0  0  0  0  0  0  0  0  0
  -27.4660  -28.6210   20.6790 C   0  0  0  0  0  3  0  0  0  0  0  0
  -26.2940  -26.8900   19.4500 C   0  0  0  0  0  3  0  0  0  0  0  0
  -25.1200  -27.6650   19.4620 C   0  0  0  0  0  3  0  0  0  0  0  0
  -23.8670  -29.7840   20.1610 C   0  0  0  0  0  2  0  0  0  0  0  0
  -24.9180  -31.0220   22.1030 N   0  0  0  0  0  0  0  0  0  0  0  0
  -23.7730  -32.0730   23.7580 O   0  0  0  0  0  0  0  0  0  0  0  0
  -22.9970  -29.4000   22.4970 C   0  0  0  0  0  0  0  0  0  0  0  0
  -21.6700  -29.2250   22.3740 N   0  0  0  0  0  0  0  0  0  0  0  0
  -23.6800  -28.7580   23.2980 O   0  0  0  0  0  0  0  0  0  0  0  0
  -21.1780  -29.7950   21.7000 H   0  0  0  0  0  0  0  0  0  0  0  0
  -18.2940  -28.0280   22.8730 C   0  0  0  0  0  0  0  0  0  0  0  0
  -20.8550  -28.2740   23.1300 C   0  0  0  0  0  3  0  0  0  0  0  0
  -20.9470  -26.8540   22.5220 C   0  0  0  0  0  2  0  0  0  0  0  0
  -19.8370  -26.5580   21.5090 C   0  0  0  0  0  2  0  0  0  0  0  0
  -18.4610  -26.6930   22.1660 C   0  0  0  0  0  2  0  0  0  0  0  0
  -19.4180  -28.7770   23.3110 C   0  0  0  0  0  0  0  0  0  0  0  0
  -19.2070  -30.0280   23.9310 C   0  0  0  0  0  3  0  0  0  0  0  0
  -17.9040  -30.5290   24.1180 C   0  0  0  0  0  3  0  0  0  0  0  0
  -16.7950  -29.7750   23.6960 C   0  0  0  0  0  3  0  0  0  0  0  0
  -16.9910  -28.5270   23.0790 C   0  0  0  0  0  3  0  0  0  0  0  0
  -26.1380  -32.4360   23.8460 C   0  0  0  0  0  3  0  0  0  0  0  0
  -25.8190  -33.8210   24.2190 N   0  0  0  0  0  0  0  0  0  0  0  0
  -26.1340  -34.8980   23.4870 C   0  0  0  0  0  0  0  0  0  0  0  0
  -26.7930  -34.8310   22.4470 O   0  0  0  0  0  0  0  0  0  0  0  0
  -25.2330  -33.9470   25.0310 H   0  0  0  0  0  0  0  0  0  0  0  0
  -24.3790  -36.6780   23.2100 C   0  0  0  0  0  1  0  0  0  0  0  0
  -25.6380  -36.2680   23.9900 C   0  0  0  0  0  3  0  0  0  0  0  0
  -27.7770  -37.1560   24.8090 C   0  0  0  0  0  1  0  0  0  0  0  0
  -26.6560  -37.3370   23.8900 N   0  0  0  0  0  0  0  0  0  0  0  0
  -26.2410  -38.2470   24.0730 H   0  0  0  0  0  0  0  0  0  0  0  0
  -26.6690  -31.6330   25.0960 C   0  0  1  0  0  0  0  0  0  0  0  0
  -25.5840  -31.3510   26.1620 C   0  0  0  0  0  1  0  0  0  0  0  0
  -27.2660  -30.2740   24.6610 C   0  0  0  0  0  1  0  0  0  0  0  0
  -27.8140  -32.4200   25.7760 C   0  0  0  0  0  1  0  0  0  0  0  0
  1  2  1  0
  2  7  1  0
  3 17  1  0
  3  2  2  0
  4  6  2  0
  4  5  1  0
  5  1  2  0
  6  3  1  0
  8  6  1  0
  9 17  1  0
 10 15  1  0
 11 12  1  0
 11 10  1  0
 13 12  1  0
 13 22  1  0
 13 14  1  0
 15  9  1  0
 15 14  1  0
 16  9  2  0
 17 18  1  0
 19 20  2  0
 20 39  1  0
 21 24  1  0
 21 20  1  0
 22 23  1  0
 22 19  1  0
 23 21  2  0
 24 25  1  0
 25 26  2  0
 27 30  1  0
 27 26  1  0
 28 27  2  0
 29 28  1  0
 29 24  2  0
 30 31  1  0
 31 32  1  0
 32 33  2  0
 34 33  1  0
 34 38  1  0
 35 34  2  0
 36 31  2  0
 36 35  1  0
 37 36  1  0
 39 40  1  0
 40 42  1  0
 40 43  1  0
 41 39  2  0
 44 19  1  0
 44 45  1  0
 46 44  1  0
 47 48  1  0
 47  4  1  0
 49 47  1  0
 50  5  1  0
 50 51  1  0
 52 51  1  0
 52 54  1  0
 53 52  2  0
 55 54  1  0
 56 67  2  0
 57 55  1  0
 57 62  1  0
 58 66  1  0
 58 68  1  0
 59 65  1  0
 59 61  1  0
 60 66  1  0
 61 60  1  0
 62 61  2  0
 63 64  1  0
 63 57  2  0
 64 59  2  0
 65 58  1  0
 66 56  1  0
 68 70  2  0
 69 68  1  0
 71 69  1  0
 72 81  2  0
 72 77  1  0
 73 69  1  0
 73 77  1  0
 74 73  1  0
 75 76  1  0
 75 74  1  0
 76 72  1  0
 77 78  2  0
 78 79  1  0
 80 79  2  0
 81 80  1  0
 82 56  1  0
 82 83  1  0
 82 92  1  0
 83 86  1  0
 84 88  1  0
 84 83  1  0
 85 84  2  0
 88 87  1  0
 90 88  1  0
 90 91  1  0
 90 89  1  0
 92 95  1  1
 92 93  1  0
 94 92  1  0
M  ISO  4   9 100  17 100  54 101  55 101
M  END
>  <TORSDO>  (87) 
F 21

>  <SCORE>  (87) 
-10.118

>  <name>  (87) 
87

>  <ligand_id>  (87) 
87

>  <original_smiles>  (87) 
[H]c1c([H])c([H])c2c(c1[H])C([H])([H])C([H])([H])C([H])([H])C2([H])N([H])C(=O)C1([H])N(C(=O)C([H])(N([H])C(=O)C([H])(N([H])C([H])([H])[H])C([H])([H])[H])C(C([H])([H])[H])(C([H])([H])[H])C([H])([H])[H])C([H])([H])c2c([H])c(OC([H])([H])C(=O)C([H])([H])Oc3c([H])c(C([H])([H])[H])c(N([H])C(=O)N4C([H])([H])C([H])([H])C([H])([H])C([H])(n5nc(-c6c([H])c([H])c(Oc7c([H])c([H])c(F)c([H])c7F)c([H])c6[H])c(C(=O)N([H])[H])c5N([H])[H])C4([H])[H])c(F)c3N([H])[H])c([H])c([H])c2C1([H])[H]

>  <smiles>  (87) 
[H]c1c([H])c([H])c2c(c1[H])C([H])([H])C([H])([H])C([H])([H])C2([H])N([H])C(=O)C1([H])N(C(=O)C([H])(N([H])C(=O)C([H])(N([H])C([H])([H])[H])C([H])([H])[H])C(C([H])([H])[H])(C([H])([H])[H])C([H])([H])[H])C([H])([H])c2c([H])c(OC([H])([H])C(=O)C([H])([H])Oc3c([H])c(C([H])([H])[H])c(N([H])C(=O)N4C([H])([H])C([H])([H])C([H])([H])C([H])(n5nc(-c6c([H])c([H])c(Oc7c([H])c([H])c(F)c([H])c7F)c([H])c6[H])c(C(=O)N([H])[H])c5N([H])[H])C4([H])[H])c(F)c3N([H])[H])c([H])c([H])c2C1([H])[H]

$$$$
88:0:0
     RDKit          3D

 93101  0  0  1  0  0  0  0  0999 V2000
  -29.2700  -20.2180   18.9490 C   0  0  0  0  0  3  0  0  0  0  0  0
  -30.0490  -20.9220   21.1020 C   0  0  0  0  0  3  0  0  0  0  0  0
  -30.1840  -18.4850   20.4920 C   0  0  0  0  0  0  0  0  0  0  0  0
  -29.6050  -18.8540   19.2370 C   0  0  0  0  0  0  0  0  0  0  0  0
  -29.4920  -21.2970   19.8540 C   0  0  0  0  0  0  0  0  0  0  0  0
  -30.3750  -19.5650   21.4140 C   0  0  0  0  0  0  0  0  0  0  0  0
  -29.3640  -17.8150   18.1450 C   0  0  0  0  0  1  0  0  0  0  0  0
  -30.9000  -19.3180   22.6390 F   0  0  0  0  0  0  0  0  0  0  0  0
  -30.8510  -14.7360   20.1090 C   0  0  0  0  0  0  0  0  0  0  0  0
  -30.4600  -12.5580   18.9720 C   0  0  0  0  0  2  0  0  0  0  0  0
  -29.4540  -12.7020   17.8130 C   0  0  0  0  0  2  0  0  0  0  0  0
  -28.0140  -12.5310   18.3340 C   0  0  0  0  0  2  0  0  0  0  0  0
  -27.7300  -13.3920   19.5950 C   0  0  0  0  0  3  0  0  0  0  0  0
  -28.8550  -13.2590   20.6470 C   0  0  0  0  0  2  0  0  0  0  0  0
  -30.1180  -13.5850   19.9770 N   0  0  0  0  0  0  0  0  0  0  0  0
  -32.0220  -14.7570   19.7240 O   0  0  0  0  0  0  0  0  0  0  0  0
  -30.7960  -17.0910   20.7840 C   0  0  0  0  0  0  0  0  0  0  0  0
  -30.1980  -15.9070   20.4140 N   0  0  0  0  0  0  0  0  0  0  0  0
  -31.8760  -17.0820   21.3910 O   0  0  0  0  0  0  0  0  0  0  0  0
  -29.2040  -15.9220   20.2740 H   0  0  0  0  0  0  0  0  0  0  0  0
  -25.3910  -13.9860   20.4650 C   0  0  0  0  0  0  0  0  0  0  0  0
  -24.3390  -13.2090   20.8730 C   0  0  0  0  0  0  0  0  0  0  0  0
  -24.7900  -11.8560   20.7870 C   0  0  0  0  0  0  0  0  0  0  0  0
  -26.4140  -13.1050   20.1540 N   0  0  0  0  0  0  0  0  0  0  0  0
  -26.0620  -11.8170   20.4090 N   0  0  0  0  0  0  0  0  0  0  0  0
  -24.0640  -10.5940   20.9830 C   0  0  0  0  0  0  0  0  0  0  0  0
  -24.5130   -9.6180   21.9000 C   0  0  0  0  0  3  0  0  0  0  0  0
  -23.7860   -8.4240   22.0870 C   0  0  0  0  0  3  0  0  0  0  0  0
  -22.5950   -8.1960   21.3580 C   0  0  0  0  0  0  0  0  0  0  0  0
  -22.1650   -9.1590   20.4300 C   0  0  0  0  0  3  0  0  0  0  0  0
  -22.8940  -10.3460   20.2410 C   0  0  0  0  0  3  0  0  0  0  0  0
  -21.8390   -7.0530   21.4550 O   0  0  0  0  0  0  0  0  0  0  0  0
  -21.7780   -6.3230   22.6160 C   0  0  0  0  0  0  0  0  0  0  0  0
  -21.2910   -6.8790   23.8190 C   0  0  0  0  0  3  0  0  0  0  0  0
  -21.1840   -6.0750   24.9710 C   0  0  0  0  0  3  0  0  0  0  0  0
  -21.5530   -4.7170   24.9220 C   0  0  0  0  0  0  0  0  0  0  0  0
  -22.0350   -4.1630   23.7220 C   0  0  0  0  0  3  0  0  0  0  0  0
  -22.1440   -4.9630   22.5720 C   0  0  0  0  0  0  0  0  0  0  0  0
  -22.5880   -4.4180   21.4150 F   0  0  0  0  0  0  0  0  0  0  0  0
  -21.4430   -3.9440   26.0270 F   0  0  0  0  0  0  0  0  0  0  0  0
  -22.9630  -13.6890   21.2260 C   0  0  0  0  0  0  0  0  0  0  0  0
  -22.2790  -12.9790   22.1190 N   0  0  0  0  0  0  0  0  0  0  0  0
  -22.5050  -14.7270   20.7520 O   0  0  0  0  0  0  0  0  0  0  0  0
  -22.6620  -12.1360   22.5160 H   0  0  0  0  0  0  0  0  0  0  0  0
  -21.3610  -13.2840   22.4070 H   0  0  0  0  0  0  0  0  0  0  0  0
  -25.5560  -15.3580   20.3110 N   0  0  0  0  0  0  0  0  0  0  0  0
  -24.7970  -16.0120   20.4710 H   0  0  0  0  0  0  0  0  0  0  0  0
  -26.3850  -15.7990   19.9320 H   0  0  0  0  0  0  0  0  0  0  0  0
  -29.1180  -22.6330   19.4640 N   0  0  0  0  0  0  0  0  0  0  0  0
  -28.8220  -22.7270   18.4940 H   0  0  0  0  0  0  0  0  0  0  0  0
  -29.3680  -23.9570   20.1360 C   0  0  0  0  0  2  0  0  0  0  0  0
  -28.3460  -25.1220   19.7200 C   0  0  0  0  0  2  0  0  0  0  0  0
  -28.4410  -26.5130   20.2460 O   0  0  0  0  0  0  0  0  0  0  0  0
  -24.6050  -31.8820   23.2560 C   0  0  0  0  0  0  0  0  0  0  0  0
  -27.3120  -27.3620   20.1840 C   0  0  0  0  0  0  0  0  0  0  0  0
  -23.4410  -30.4890   21.5850 C   0  0  0  0  0  3  0  0  0  0  0  0
  -24.9320  -28.9650   20.1660 C   0  0  0  0  0  0  0  0  0  0  0  0
  -25.9830  -30.8190   21.4540 C   0  0  0  0  0  2  0  0  0  0  0  0
  -26.0860  -29.4470   20.7970 C   0  0  0  0  0  0  0  0  0  0  0  0
  -27.2760  -28.6520   20.8060 C   0  0  0  0  0  3  0  0  0  0  0  0
  -26.1350  -26.9530   19.5140 C   0  0  0  0  0  3  0  0  0  0  0  0
  -24.9580  -27.7240   19.5160 C   0  0  0  0  0  3  0  0  0  0  0  0
  -23.6830  -29.8250   20.2030 C   0  0  0  0  0  2  0  0  0  0  0  0
  -24.6930  -31.0810   22.1560 N   0  0  0  0  0  0  0  0  0  0  0  0
  -23.5090  -32.1480   23.7730 O   0  0  0  0  0  0  0  0  0  0  0  0
  -22.7690  -29.4620   22.5260 C   0  0  0  0  0  0  0  0  0  0  0  0
  -21.4450  -29.2850   22.3840 N   0  0  0  0  0  0  0  0  0  0  0  0
  -23.4380  -28.8280   23.3450 O   0  0  0  0  0  0  0  0  0  0  0  0
  -20.9650  -29.8450   21.6950 H   0  0  0  0  0  0  0  0  0  0  0  0
  -18.0540  -28.1130   22.8660 C   0  0  0  0  0  0  0  0  0  0  0  0
  -20.6170  -28.3400   23.1330 C   0  0  0  0  0  3  0  0  0  0  0  0
  -20.7030  -26.9230   22.5200 C   0  0  0  0  0  2  0  0  0  0  0  0
  -19.5930  -26.6360   21.5040 C   0  0  0  0  0  2  0  0  0  0  0  0
  -18.2130  -26.7790   22.1560 C   0  0  0  0  0  2  0  0  0  0  0  0
  -19.1840  -28.8520   23.3100 C   0  0  0  0  0  0  0  0  0  0  0  0
  -18.9800  -30.1000   23.9370 C   0  0  0  0  0  3  0  0  0  0  0  0
  -17.6820  -30.6120   24.1220 C   0  0  0  0  0  3  0  0  0  0  0  0
  -16.5670  -29.8710   23.6930 C   0  0  0  0  0  3  0  0  0  0  0  0
  -16.7550  -28.6230   23.0740 C   0  0  0  0  0  3  0  0  0  0  0  0
  -25.8710  -32.5220   23.9050 C   0  0  0  0  0  3  0  0  0  0  0  0
  -26.3600  -31.7550   25.1960 C   0  0  1  0  0  0  0  0  0  0  0  0
  -25.2410  -31.5120   26.2360 C   0  0  0  0  0  1  0  0  0  0  0  0
  -26.9610  -30.3800   24.8250 C   0  0  0  0  0  1  0  0  0  0  0  0
  -27.4880  -32.5590   25.8850 C   0  0  0  0  0  1  0  0  0  0  0  0
  -25.5470  -33.9190   24.2250 N   0  0  0  0  0  0  0  0  0  0  0  0
  -25.8670  -34.9700   23.4570 C   0  0  0  0  0  0  0  0  0  0  0  0
  -26.5310  -34.8640   22.4220 O   0  0  0  0  0  0  0  0  0  0  0  0
  -24.9510  -34.0710   25.0250 H   0  0  0  0  0  0  0  0  0  0  0  0
  -24.1090  -36.7390   23.1190 C   0  0  0  0  0  1  0  0  0  0  0  0
  -25.3710  -36.3570   23.9090 C   0  0  0  0  0  3  0  0  0  0  0  0
  -27.5040  -37.2840   24.6960 C   0  0  0  0  0  1  0  0  0  0  0  0
  -26.3880  -37.4220   23.7650 N   0  0  0  0  0  0  0  0  0  0  0  0
  -25.9710  -38.3380   23.9040 H   0  0  0  0  0  0  0  0  0  0  0  0
  1  4  2  0
  1  5  1  0
  2  6  1  0
  3 17  1  0
  3  6  2  0
  4  3  1  0
  5  2  2  0
  6  8  1  0
  7  4  1  0
  9 18  1  0
 10 15  1  0
 11 12  1  0
 11 10  1  0
 13 12  1  0
 13 24  1  0
 13 14  1  0
 15  9  1  0
 15 14  1  0
 16  9  2  0
 17 19  2  0
 18 17  1  0
 20 18  1  0
 21 22  2  0
 22 41  1  0
 23 22  1  0
 23 26  1  0
 24 25  1  0
 24 21  1  0
 25 23  2  0
 26 27  1  0
 27 28  2  0
 29 32  1  0
 29 28  1  0
 30 29  2  0
 31 30  1  0
 31 26  2  0
 32 33  1  0
 33 34  1  0
 34 35  2  0
 36 35  1  0
 36 40  1  0
 37 36  2  0
 38 33  2  0
 38 37  1  0
 39 38  1  0
 41 42  1  0
 42 45  1  0
 42 44  1  0
 43 41  2  0
 46 21  1  0
 46 47  1  0
 48 46  1  0
 49  5  1  0
 49 51  1  0
 50 49  1  0
 52 51  1  0
 52 53  1  0
 54 65  2  0
 55 53  1  0
 55 60  1  0
 56 64  1  0
 56 66  1  0
 57 63  1  0
 57 59  1  0
 58 64  1  0
 59 60  2  0
 59 58  1  0
 61 62  1  0
 61 55  2  0
 62 57  2  0
 63 56  1  0
 64 54  1  0
 66 68  2  0
 67 66  1  0
 69 67  1  0
 70 79  2  0
 70 75  1  0
 71 67  1  0
 71 75  1  0
 72 71  1  0
 73 74  1  0
 73 72  1  0
 74 70  1  0
 75 76  2  0
 76 77  1  0
 78 77  2  0
 79 78  1  0
 80 54  1  0
 80 85  1  0
 80 81  1  0
 81 84  1  1
 81 82  1  0
 83 81  1  0
 85 88  1  0
 86 90  1  0
 86 85  1  0
 87 86  2  0
 90 89  1  0
 92 93  1  0
 92 90  1  0
 92 91  1  0
M  ISO  4   9 100  18 100  52 101  53 101
M  END
>  <TORSDO>  (88) 
F 19

>  <SCORE>  (88) 
-14.247

>  <name>  (88) 
88

>  <ligand_id>  (88) 
88

>  <original_smiles>  (88) 
[H]c1c([H])c([H])c2c(c1[H])C([H])([H])C([H])([H])C([H])([H])C2([H])N([H])C(=O)C1([H])N(C(=O)C([H])(N([H])C(=O)C([H])(N([H])C([H])([H])[H])C([H])([H])[H])C(C([H])([H])[H])(C([H])([H])[H])C([H])([H])[H])C([H])([H])c2c([H])c(OC([H])([H])C([H])([H])N([H])c3c([H])c(F)c(C(=O)N([H])C(=O)N4C([H])([H])C([H])([H])C([H])([H])C([H])(n5nc(-c6c([H])c([H])c(Oc7c([H])c([H])c(F)c([H])c7F)c([H])c6[H])c(C(=O)N([H])[H])c5N([H])[H])C4([H])[H])c(C([H])([H])[H])c3[H])c([H])c([H])c2C1([H])[H]

>  <smiles>  (88) 
[H]c1c([H])c([H])c2c(c1[H])C([H])([H])C([H])([H])C([H])([H])C2([H])N([H])C(=O)C1([H])N(C(=O)C([H])(N([H])C(=O)C([H])(N([H])C([H])([H])[H])C([H])([H])[H])C(C([H])([H])[H])(C([H])([H])[H])C([H])([H])[H])C([H])([H])c2c([H])c(OC([H])([H])C([H])([H])N([H])c3c([H])c(F)c(C(=O)N([H])C(=O)N4C([H])([H])C([H])([H])C([H])([H])C([H])(n5nc(-c6c([H])c([H])c(Oc7c([H])c([H])c(F)c([H])c7F)c([H])c6[H])c(C(=O)N([H])[H])c5N([H])[H])C4([H])[H])c(C([H])([H])[H])c3[H])c([H])c([H])c2C1([H])[H]

$$$$
89:0:0
     RDKit          3D

 93102  0  0  1  0  0  0  0  0999 V2000
  -28.9310  -24.2880   20.8590 C   0  0  0  0  0  0  0  0  0  0  0  0
  -28.3860  -25.5390   20.9580 C   0  0  0  0  0  3  0  0  0  0  0  0
  -29.6920  -23.6940   19.6690 C   0  0  0  0  0  2  0  0  0  0  0  0
  -28.9180  -23.3480   22.0600 C   0  0  0  0  0  2  0  0  0  0  0  0
  -29.4760  -22.1520   19.4360 C   0  0  0  0  0  2  0  0  0  0  0  0
  -28.6010  -21.8770   21.7120 C   0  0  0  0  0  2  0  0  0  0  0  0
  -29.4850  -21.3450   20.6700 N   0  0  0  0  0  0  0  0  0  0  0  0
  -28.6270  -19.0440   21.0840 C   0  0  0  0  0  3  0  0  0  0  0  0
  -28.7870  -17.6380   21.0930 C   0  0  0  0  0  3  0  0  0  0  0  0
  -30.9650  -17.8650   20.0880 C   0  0  0  0  0  3  0  0  0  0  0  0
  -29.6330  -19.9160   20.5910 C   0  0  0  0  0  0  0  0  0  0  0  0
  -29.9590  -17.0110   20.6110 C   0  0  0  0  0  0  0  0  0  0  0  0
  -30.8060  -19.2840   20.0740 C   0  0  0  0  0  0  0  0  0  0  0  0
  -31.8200  -20.0420   19.5880 F   0  0  0  0  0  0  0  0  0  0  0  0
  -30.7700  -14.6130   20.0910 C   0  0  0  0  0  0  0  0  0  0  0  0
  -30.5120  -12.4380   18.9240 C   0  0  0  0  0  2  0  0  0  0  0  0
  -29.5000  -12.6350   17.7730 C   0  0  0  0  0  2  0  0  0  0  0  0
  -28.0480  -12.4720   18.2700 C   0  0  0  0  0  2  0  0  0  0  0  0
  -27.7660  -13.2750   19.5670 C   0  0  0  0  0  3  0  0  0  0  0  0
  -28.8780  -13.0250   20.6120 C   0  0  0  0  0  2  0  0  0  0  0  0
  -30.1650  -13.3910   19.9940 N   0  0  0  0  0  0  0  0  0  0  0  0
  -31.8710  -14.8460   19.5840 O   0  0  0  0  0  0  0  0  0  0  0  0
  -30.0040  -15.5640   20.6890 N   0  0  0  0  0  0  0  0  0  0  0  0
  -29.2020  -15.1530   21.1410 H   0  0  0  0  0  0  0  0  0  0  0  0
  -25.4060  -13.8630   20.4080 C   0  0  0  0  0  0  0  0  0  0  0  0
  -24.3560  -13.0810   20.8080 C   0  0  0  0  0  0  0  0  0  0  0  0
  -24.8140  -11.7300   20.7190 C   0  0  0  0  0  0  0  0  0  0  0  0
  -26.4380  -12.9880   20.1030 N   0  0  0  0  0  0  0  0  0  0  0  0
  -26.0860  -11.6990   20.3450 N   0  0  0  0  0  0  0  0  0  0  0  0
  -24.0970  -10.4640   20.9120 C   0  0  0  0  0  0  0  0  0  0  0  0
  -24.5200   -9.5150   21.8680 C   0  0  0  0  0  3  0  0  0  0  0  0
  -23.8040   -8.3110   22.0470 C   0  0  0  0  0  3  0  0  0  0  0  0
  -22.6510   -8.0490   21.2690 C   0  0  0  0  0  0  0  0  0  0  0  0
  -22.2460   -8.9870   20.3040 C   0  0  0  0  0  3  0  0  0  0  0  0
  -22.9640  -10.1810   20.1220 C   0  0  0  0  0  3  0  0  0  0  0  0
  -21.9080   -6.8960   21.3570 O   0  0  0  0  0  0  0  0  0  0  0  0
  -21.7630   -6.2210   22.5430 C   0  0  0  0  0  0  0  0  0  0  0  0
  -21.2170   -6.8370   23.6890 C   0  0  0  0  0  3  0  0  0  0  0  0
  -21.0210   -6.0870   24.8660 C   0  0  0  0  0  3  0  0  0  0  0  0
  -21.3620   -4.7220   24.8960 C   0  0  0  0  0  0  0  0  0  0  0  0
  -21.9000   -4.1050   23.7540 C   0  0  0  0  0  3  0  0  0  0  0  0
  -22.0980   -4.8520   22.5790 C   0  0  0  0  0  0  0  0  0  0  0  0
  -22.5990   -4.2470   21.4750 F   0  0  0  0  0  0  0  0  0  0  0  0
  -21.1660   -4.0000   26.0240 F   0  0  0  0  0  0  0  0  0  0  0  0
  -22.9740  -13.5500   21.1610 C   0  0  0  0  0  0  0  0  0  0  0  0
  -22.2930  -12.8360   22.0510 N   0  0  0  0  0  0  0  0  0  0  0  0
  -22.5090  -14.5840   20.6850 O   0  0  0  0  0  0  0  0  0  0  0  0
  -22.6820  -11.9990   22.4580 H   0  0  0  0  0  0  0  0  0  0  0  0
  -21.3680  -13.1320   22.3290 H   0  0  0  0  0  0  0  0  0  0  0  0
  -25.5610  -15.2380   20.2610 N   0  0  0  0  0  0  0  0  0  0  0  0
  -24.7940  -15.8810   20.4210 H   0  0  0  0  0  0  0  0  0  0  0  0
  -26.3800  -15.6880   19.8720 H   0  0  0  0  0  0  0  0  0  0  0  0
  -28.4150  -26.5830   20.0420 O   0  0  0  0  0  0  0  0  0  0  0  0
  -24.5970  -31.8430   23.1110 C   0  0  0  0  0  0  0  0  0  0  0  0
  -27.2930  -27.3970   20.0330 C   0  0  0  0  0  0  0  0  0  0  0  0
  -23.4120  -30.4230   21.4710 C   0  0  0  0  0  3  0  0  0  0  0  0
  -24.8860  -28.9060   20.0410 C   0  0  0  0  0  0  0  0  0  0  0  0
  -25.9360  -30.8090   21.2730 C   0  0  0  0  0  2  0  0  0  0  0  0
  -26.0430  -29.4360   20.6300 C   0  0  0  0  0  0  0  0  0  0  0  0
  -27.2520  -28.6900   20.6210 C   0  0  0  0  0  3  0  0  0  0  0  0
  -26.1190  -26.8950   19.4360 C   0  0  0  0  0  3  0  0  0  0  0  0
  -24.9220  -27.6360   19.4390 C   0  0  0  0  0  3  0  0  0  0  0  0
  -23.6310  -29.7500   20.0910 C   0  0  0  0  0  2  0  0  0  0  0  0
  -24.6670  -31.0420   22.0090 N   0  0  0  0  0  0  0  0  0  0  0  0
  -23.5110  -32.1010   23.6490 O   0  0  0  0  0  0  0  0  0  0  0  0
  -22.7730  -29.3940   22.4330 C   0  0  0  0  0  0  0  0  0  0  0  0
  -21.4460  -29.2130   22.3260 N   0  0  0  0  0  0  0  0  0  0  0  0
  -23.4690  -28.7630   23.2320 O   0  0  0  0  0  0  0  0  0  0  0  0
  -20.9450  -29.7750   21.6500 H   0  0  0  0  0  0  0  0  0  0  0  0
  -18.0790  -28.0190   22.8770 C   0  0  0  0  0  0  0  0  0  0  0  0
  -20.6410  -28.2680   23.1010 C   0  0  0  0  0  3  0  0  0  0  0  0
  -20.7280  -26.8440   22.5030 C   0  0  0  0  0  2  0  0  0  0  0  0
  -19.6040  -26.5380   21.5080 C   0  0  0  0  0  2  0  0  0  0  0  0
  -18.2370  -26.6780   22.1810 C   0  0  0  0  0  2  0  0  0  0  0  0
  -19.2070  -28.7730   23.2950 C   0  0  0  0  0  0  0  0  0  0  0  0
  -19.0020  -30.0290   23.9060 C   0  0  0  0  0  3  0  0  0  0  0  0
  -17.7020  -30.5300   24.1040 C   0  0  0  0  0  3  0  0  0  0  0  0
  -16.5880  -29.7730   23.7020 C   0  0  0  0  0  3  0  0  0  0  0  0
  -16.7770  -28.5190   23.0940 C   0  0  0  0  0  3  0  0  0  0  0  0
  -25.8720  -32.4930   23.7310 C   0  0  0  0  0  3  0  0  0  0  0  0
  -25.5360  -33.8790   24.0850 N   0  0  0  0  0  0  0  0  0  0  0  0
  -25.8410  -34.9490   23.3390 C   0  0  0  0  0  0  0  0  0  0  0  0
  -26.5060  -34.8750   22.3010 O   0  0  0  0  0  0  0  0  0  0  0  0
  -24.9390  -34.0080   24.8880 H   0  0  0  0  0  0  0  0  0  0  0  0
  -24.0760  -36.7120   23.0190 C   0  0  0  0  0  1  0  0  0  0  0  0
  -25.3280  -36.3200   23.8200 C   0  0  0  0  0  3  0  0  0  0  0  0
  -27.4470  -37.2340   24.6600 C   0  0  0  0  0  1  0  0  0  0  0  0
  -26.3390  -37.3950   23.7220 N   0  0  0  0  0  0  0  0  0  0  0  0
  -25.9140  -38.3040   23.8860 H   0  0  0  0  0  0  0  0  0  0  0  0
  -26.4190  -31.7140   24.9900 C   0  0  1  0  0  0  0  0  0  0  0  0
  -25.3430  -31.4370   26.0670 C   0  0  0  0  0  1  0  0  0  0  0  0
  -27.0270  -30.3550   24.5710 C   0  0  0  0  0  1  0  0  0  0  0  0
  -27.5610  -32.5220   25.6510 C   0  0  0  0  0  1  0  0  0  0  0  0
  1  2  2  0
  1  4  1  0
  3  1  1  0
  5  3  1  0
  5  7  1  0
  6  4  1  0
  7  6  1  0
  8  9  1  0
 10 12  1  0
 11  7  1  0
 11  8  2  0
 12 23  1  0
 12  9  2  0
 13 10  2  0
 13 11  1  0
 14 13  1  0
 15 23  1  0
 16 21  1  0
 17 18  1  0
 17 16  1  0
 19 18  1  0
 19 28  1  0
 19 20  1  0
 21 15  1  0
 21 20  1  0
 22 15  2  0
 23 24  1  0
 25 26  2  0
 26 45  1  0
 27 26  1  0
 27 30  1  0
 28 29  1  0
 28 25  1  0
 29 27  2  0
 30 31  1  0
 31 32  2  0
 33 36  1  0
 33 32  1  0
 34 33  2  0
 35 34  1  0
 35 30  2  0
 36 37  1  0
 37 42  2  0
 37 38  1  0
 38 39  2  0
 39 40  1  0
 40 44  1  0
 41 40  2  0
 42 41  1  0
 43 42  1  0
 45 46  1  0
 46 49  1  0
 46 48  1  0
 47 45  2  0
 50 25  1  0
 50 51  1  0
 52 50  1  0
 53  2  1  0
 54 65  2  0
 55 53  1  0
 55 60  1  0
 56 64  1  0
 56 66  1  0
 57 63  1  0
 57 59  1  0
 58 64  1  0
 59 58  1  0
 60 59  2  0
 61 62  1  0
 61 55  2  0
 62 57  2  0
 63 56  1  0
 64 54  1  0
 66 68  2  0
 67 66  1  0
 69 67  1  0
 70 79  2  0
 70 75  1  0
 71 67  1  0
 71 75  1  0
 72 71  1  0
 73 74  1  0
 73 72  1  0
 74 70  1  0
 75 76  2  0
 76 77  1  0
 78 77  2  0
 79 78  1  0
 80 54  1  0
 80 81  1  0
 80 90  1  0
 81 84  1  0
 82 86  1  0
 82 81  1  0
 83 82  2  0
 86 85  1  0
 88 86  1  0
 88 89  1  0
 88 87  1  0
 90 93  1  1
 90 91  1  0
 92 90  1  0
M  ISO  4   2 101  15 100  23 100  53 101
M  END
>  <TORSDO>  (89) 
F 17

>  <SCORE>  (89) 
-14.333

>  <name>  (89) 
89

>  <ligand_id>  (89) 
89

>  <original_smiles>  (89) 
[H]C(Oc1c([H])c([H])c2c(c1[H])C([H])([H])N(C(=O)C([H])(N([H])C(=O)C([H])(N([H])C([H])([H])[H])C([H])([H])[H])C(C([H])([H])[H])(C([H])([H])[H])C([H])([H])[H])C([H])(C(=O)N([H])C1([H])c3c([H])c([H])c([H])c([H])c3C([H])([H])C([H])([H])C1([H])[H])C2([H])[H])=C1C([H])([H])C([H])([H])N(c2c([H])c([H])c(N([H])C(=O)N3C([H])([H])C([H])([H])C([H])([H])C([H])(n4nc(-c5c([H])c([H])c(Oc6c([H])c([H])c(F)c([H])c6F)c([H])c5[H])c(C(=O)N([H])[H])c4N([H])[H])C3([H])[H])c([H])c2F)C([H])([H])C1([H])[H]

>  <smiles>  (89) 
[H]C(Oc1c([H])c([H])c2c(c1[H])C([H])([H])N(C(=O)C([H])(N([H])C(=O)C([H])(N([H])C([H])([H])[H])C([H])([H])[H])C(C([H])([H])[H])(C([H])([H])[H])C([H])([H])[H])C([H])(C(=O)N([H])C1([H])c3c([H])c([H])c([H])c([H])c3C([H])([H])C([H])([H])C1([H])[H])C2([H])[H])=C1C([H])([H])C([H])([H])N(c2c([H])c([H])c(N([H])C(=O)N3C([H])([H])C([H])([H])C([H])([H])C([H])(n4nc(-c5c([H])c([H])c(Oc6c([H])c([H])c(F)c([H])c6F)c([H])c5[H])c(C(=O)N([H])[H])c4N([H])[H])C3([H])[H])c([H])c2F)C([H])([H])C1([H])[H]

$$$$
90:0:0
     RDKit          3D

 93101  0  0  1  0  0  0  0  0999 V2000
  -29.1350  -22.4910   20.3500 C   0  0  0  0  0  0  0  0  0  0  0  0
  -29.3460  -21.4050   19.5340 N   0  0  0  0  0  0  0  0  0  0  0  0
  -29.0960  -22.3690   21.5760 O   0  0  0  0  0  0  0  0  0  0  0  0
  -29.2330  -21.5970   18.5470 H   0  0  0  0  0  0  0  0  0  0  0  0
  -30.7560  -18.1700   21.1100 C   0  0  0  0  0  3  0  0  0  0  0  0
  -30.4380  -19.5490   20.9240 C   0  0  0  0  0  3  0  0  0  0  0  0
  -29.5820  -17.5960   19.1040 C   0  0  0  0  0  3  0  0  0  0  0  0
  -30.3260  -17.1330   20.2250 C   0  0  0  0  0  0  0  0  0  0  0  0
  -29.6700  -19.9970   19.8190 C   0  0  0  0  0  0  0  0  0  0  0  0
  -29.2690  -18.9790   18.9060 C   0  0  0  0  0  0  0  0  0  0  0  0
  -28.5520  -19.3370   17.8140 F   0  0  0  0  0  0  0  0  0  0  0  0
  -31.0020  -14.7490   19.6080 C   0  0  0  0  0  0  0  0  0  0  0  0
  -30.5920  -12.5970   18.3930 C   0  0  0  0  0  2  0  0  0  0  0  0
  -29.4750  -12.7640   17.3400 C   0  0  0  0  0  2  0  0  0  0  0  0
  -28.0870  -12.5490   17.9740 C   0  0  0  0  0  2  0  0  0  0  0  0
  -27.9130  -13.3450   19.2920 C   0  0  0  0  0  3  0  0  0  0  0  0
  -29.1210  -13.1360   20.2260 C   0  0  0  0  0  2  0  0  0  0  0  0
  -30.3340  -13.5480   19.5000 N   0  0  0  0  0  0  0  0  0  0  0  0
  -31.9850  -14.9770   18.8930 O   0  0  0  0  0  0  0  0  0  0  0  0
  -30.5630  -15.6950   20.5210 N   0  0  0  0  0  0  0  0  0  0  0  0
  -25.6990  -13.8810   20.4800 C   0  0  0  0  0  0  0  0  0  0  0  0
  -24.6810  -13.0820   20.9270 C   0  0  0  0  0  0  0  0  0  0  0  0
  -25.0820  -11.7400   20.6480 C   0  0  0  0  0  0  0  0  0  0  0  0
  -26.6550  -13.0230   19.9610 N   0  0  0  0  0  0  0  0  0  0  0  0
  -26.2990  -11.7230   20.1200 N   0  0  0  0  0  0  0  0  0  0  0  0
  -24.3520  -10.4750   20.8000 C   0  0  0  0  0  0  0  0  0  0  0  0
  -24.8300   -9.4420   21.6370 C   0  0  0  0  0  3  0  0  0  0  0  0
  -24.1010   -8.2410   21.7810 C   0  0  0  0  0  3  0  0  0  0  0  0
  -22.8790   -8.0660   21.0900 C   0  0  0  0  0  0  0  0  0  0  0  0
  -22.4190   -9.0890   20.2400 C   0  0  0  0  0  3  0  0  0  0  0  0
  -23.1490  -10.2800   20.0930 C   0  0  0  0  0  3  0  0  0  0  0  0
  -22.1150   -6.9260   21.1490 O   0  0  0  0  0  0  0  0  0  0  0  0
  -22.0340   -6.1730   22.2930 C   0  0  0  0  0  0  0  0  0  0  0  0
  -21.5940   -6.7250   23.5170 C   0  0  0  0  0  3  0  0  0  0  0  0
  -21.4580   -5.9000   24.6510 C   0  0  0  0  0  3  0  0  0  0  0  0
  -21.7500   -4.5250   24.5630 C   0  0  0  0  0  0  0  0  0  0  0  0
  -22.1820   -3.9740   23.3440 C   0  0  0  0  0  3  0  0  0  0  0  0
  -22.3200   -4.7950   22.2120 C   0  0  0  0  0  0  0  0  0  0  0  0
  -22.7160   -4.2560   21.0340 F   0  0  0  0  0  0  0  0  0  0  0  0
  -21.6130   -3.7310   25.6510 F   0  0  0  0  0  0  0  0  0  0  0  0
  -23.3680  -13.5420   21.4920 C   0  0  0  0  0  0  0  0  0  0  0  0
  -22.7870  -12.7640   22.4000 N   0  0  0  0  0  0  0  0  0  0  0  0
  -22.8740  -14.6200   21.1680 O   0  0  0  0  0  0  0  0  0  0  0  0
  -23.2020  -11.8890   22.6820 H   0  0  0  0  0  0  0  0  0  0  0  0
  -21.9150  -13.0510   22.8230 H   0  0  0  0  0  0  0  0  0  0  0  0
  -25.8830  -15.2610   20.4530 N   0  0  0  0  0  0  0  0  0  0  0  0
  -25.1750  -15.9090   20.7840 H   0  0  0  0  0  0  0  0  0  0  0  0
  -26.6930  -15.7250   20.0650 H   0  0  0  0  0  0  0  0  0  0  0  0
  -29.7590  -15.8370   22.9190 C   0  0  0  0  0  1  0  0  0  0  0  0
  -30.8400  -15.3420   21.9330 C   0  0  0  0  0  2  0  0  0  0  0  0
  -28.9360  -23.9400   19.7250 C   0  0  0  0  0  2  0  0  0  0  0  0
  -28.2820  -25.0960   20.6180 C   0  0  0  0  0  2  0  0  0  0  0  0
  -28.4950  -26.5270   20.2710 O   0  0  0  0  0  0  0  0  0  0  0  0
  -24.7250  -31.9750   23.1700 C   0  0  0  0  0  0  0  0  0  0  0  0
  -27.3780  -27.3730   20.2320 C   0  0  0  0  0  0  0  0  0  0  0  0
  -23.5470  -30.5590   21.5250 C   0  0  0  0  0  3  0  0  0  0  0  0
  -25.0190  -28.9820   20.1520 C   0  0  0  0  0  0  0  0  0  0  0  0
  -26.0890  -30.8700   21.3840 C   0  0  0  0  0  2  0  0  0  0  0  0
  -26.1780  -29.4830   20.7590 C   0  0  0  0  0  0  0  0  0  0  0  0
  -27.3650  -28.6910   20.7840 C   0  0  0  0  0  3  0  0  0  0  0  0
  -26.2020  -26.9220   19.5990 C   0  0  0  0  0  3  0  0  0  0  0  0
  -25.0330  -27.7080   19.5610 C   0  0  0  0  0  3  0  0  0  0  0  0
  -23.7840  -29.8610   20.1600 C   0  0  0  0  0  2  0  0  0  0  0  0
  -24.8050  -31.1520   22.0840 N   0  0  0  0  0  0  0  0  0  0  0  0
  -23.6320  -32.2640   23.6800 O   0  0  0  0  0  0  0  0  0  0  0  0
  -22.8620  -29.5590   22.4870 C   0  0  0  0  0  0  0  0  0  0  0  0
  -21.5360  -29.3920   22.3420 N   0  0  0  0  0  0  0  0  0  0  0  0
  -23.5230  -28.9350   23.3220 O   0  0  0  0  0  0  0  0  0  0  0  0
  -21.0640  -29.9450   21.6420 H   0  0  0  0  0  0  0  0  0  0  0  0
  -18.1410  -28.2330   22.8020 C   0  0  0  0  0  0  0  0  0  0  0  0
  -20.6980  -28.4700   23.1100 C   0  0  0  0  0  3  0  0  0  0  0  0
  -20.7940  -27.0320   22.5500 C   0  0  0  0  0  2  0  0  0  0  0  0
  -19.7050  -26.7090   21.5230 C   0  0  0  0  0  2  0  0  0  0  0  0
  -18.3150  -26.8740   22.1440 C   0  0  0  0  0  2  0  0  0  0  0  0
  -19.2600  -28.9880   23.2420 C   0  0  0  0  0  0  0  0  0  0  0  0
  -19.0440  -30.2600   23.8170 C   0  0  0  0  0  3  0  0  0  0  0  0
  -17.7410  -30.7750   23.9570 C   0  0  0  0  0  3  0  0  0  0  0  0
  -16.6360  -30.0160   23.5350 C   0  0  0  0  0  3  0  0  0  0  0  0
  -16.8380  -28.7470   22.9620 C   0  0  0  0  0  3  0  0  0  0  0  0
  -25.9980  -32.6110   23.8090 C   0  0  0  0  0  3  0  0  0  0  0  0
  -26.5230  -31.8180   25.0680 C   0  0  1  0  0  0  0  0  0  0  0  0
  -25.4230  -31.5080   26.1100 C   0  0  0  0  0  1  0  0  0  0  0  0
  -27.1590  -30.4740   24.6410 C   0  0  0  0  0  1  0  0  0  0  0  0
  -27.6350  -32.6280   25.7730 C   0  0  0  0  0  1  0  0  0  0  0  0
  -25.6690  -33.9970   24.1720 N   0  0  0  0  0  0  0  0  0  0  0  0
  -25.9830  -35.0710   23.4360 C   0  0  0  0  0  0  0  0  0  0  0  0
  -26.6490  -35.0010   22.4010 O   0  0  0  0  0  0  0  0  0  0  0  0
  -25.0760  -34.1240   24.9800 H   0  0  0  0  0  0  0  0  0  0  0  0
  -24.2250  -36.8450   23.1330 C   0  0  0  0  0  1  0  0  0  0  0  0
  -25.4770  -36.4420   23.9280 C   0  0  0  0  0  3  0  0  0  0  0  0
  -27.6060  -37.3380   24.7620 C   0  0  0  0  0  1  0  0  0  0  0  0
  -26.4930  -37.5130   23.8320 N   0  0  0  0  0  0  0  0  0  0  0  0
  -26.0760  -38.4230   24.0040 H   0  0  0  0  0  0  0  0  0  0  0  0
  1  3  2  0
  2  9  1  0
  2  1  1  0
  4  2  1  0
  6  5  1  0
  7  8  1  0
  8 20  1  0
  8  5  2  0
  9  6  2  0
 10  7  2  0
 10  9  1  0
 11 10  1  0
 12 20  1  0
 13 18  1  0
 14 15  1  0
 14 13  1  0
 16 15  1  0
 16 24  1  0
 16 17  1  0
 18 12  1  0
 18 17  1  0
 19 12  2  0
 20 50  1  0
 21 22  2  0
 22 41  1  0
 23 26  1  0
 23 22  1  0
 24 25  1  0
 24 21  1  0
 25 23  2  0
 26 27  1  0
 27 28  2  0
 29 32  1  0
 29 28  1  0
 30 29  2  0
 31 30  1  0
 31 26  2  0
 32 33  1  0
 33 34  1  0
 34 35  2  0
 36 35  1  0
 36 40  1  0
 37 36  2  0
 38 33  2  0
 38 37  1  0
 39 38  1  0
 41 42  1  0
 42 44  1  0
 42 45  1  0
 43 41  2  0
 46 21  1  0
 46 47  1  0
 48 46  1  0
 50 49  1  0
 51  1  1  0
 51 52  1  0
 53 52  1  0
 54 65  2  0
 55 53  1  0
 55 60  1  0
 56 64  1  0
 56 66  1  0
 57 63  1  0
 57 59  1  0
 58 64  1  0
 59 60  2  0
 59 58  1  0
 61 55  2  0
 62 61  1  0
 62 57  2  0
 63 56  1  0
 64 54  1  0
 66 68  2  0
 67 66  1  0
 69 67  1  0
 70 79  2  0
 70 75  1  0
 71 67  1  0
 71 75  1  0
 72 71  1  0
 73 74  1  0
 73 72  1  0
 74 70  1  0
 75 76  2  0
 76 77  1  0
 78 77  2  0
 79 78  1  0
 80 54  1  0
 80 85  1  0
 80 81  1  0
 81 84  1  1
 81 82  1  0
 83 81  1  0
 85 88  1  0
 86 90  1  0
 86 85  1  0
 87 86  2  0
 90 89  1  0
 92 90  1  0
 92 93  1  0
 92 91  1  0
M  ISO  4  12 100  20 100  52 101  53 101
M  END
>  <TORSDO>  (90) 
F 20

>  <SCORE>  (90) 
-9.703

>  <name>  (90) 
90

>  <ligand_id>  (90) 
90

>  <original_smiles>  (90) 
[H]c1c([H])c([H])c2c(c1[H])C([H])([H])C([H])([H])C([H])([H])C2([H])N([H])C(=O)C1([H])N(C(=O)C([H])(N([H])C(=O)C([H])(N([H])C([H])([H])[H])C([H])([H])[H])C(C([H])([H])[H])(C([H])([H])[H])C([H])([H])[H])C([H])([H])c2c([H])c(OC([H])([H])C([H])([H])C(=O)N([H])c3c([H])c([H])c(N(C(=O)N4C([H])([H])C([H])([H])C([H])([H])C([H])(n5nc(-c6c([H])c([H])c(Oc7c([H])c([H])c(F)c([H])c7F)c([H])c6[H])c(C(=O)N([H])[H])c5N([H])[H])C4([H])[H])C([H])([H])C([H])([H])[H])c([H])c3F)c([H])c([H])c2C1([H])[H]

>  <smiles>  (90) 
[H]c1c([H])c([H])c2c(c1[H])C([H])([H])C([H])([H])C([H])([H])C2([H])N([H])C(=O)C1([H])N(C(=O)C([H])(N([H])C(=O)C([H])(N([H])C([H])([H])[H])C([H])([H])[H])C(C([H])([H])[H])(C([H])([H])[H])C([H])([H])[H])C([H])([H])c2c([H])c(OC([H])([H])C([H])([H])C(=O)N([H])c3c([H])c([H])c(N(C(=O)N4C([H])([H])C([H])([H])C([H])([H])C([H])(n5nc(-c6c([H])c([H])c(Oc7c([H])c([H])c(F)c([H])c7F)c([H])c6[H])c(C(=O)N([H])[H])c5N([H])[H])C4([H])[H])C([H])([H])C([H])([H])[H])c([H])c3F)c([H])c([H])c2C1([H])[H]

$$$$
91:0:0
     RDKit          3D

 94102  0  0  1  0  0  0  0  0999 V2000
  -31.0640  -19.1650   19.9810 C   0  0  0  0  0  3  0  0  0  0  0  0
  -30.5040  -20.4140   19.6510 C   0  0  0  0  0  3  0  0  0  0  0  0
  -28.8580  -18.1620   20.0520 C   0  0  0  0  0  3  0  0  0  0  0  0
  -30.2580  -18.0250   20.1940 C   0  0  0  0  0  0  0  0  0  0  0  0
  -28.2930  -19.4240   19.7320 C   0  0  0  0  0  0  0  0  0  0  0  0
  -29.1020  -20.5750   19.5330 C   0  0  0  0  0  0  0  0  0  0  0  0
  -30.9570  -14.3990   20.2250 C   0  0  0  0  0  0  0  0  0  0  0  0
  -30.5740  -12.1300   19.3360 C   0  0  0  0  0  2  0  0  0  0  0  0
  -29.6530  -12.1920   18.1030 C   0  0  0  0  0  2  0  0  0  0  0  0
  -28.1780  -12.1210   18.5400 C   0  0  0  0  0  2  0  0  0  0  0  0
  -27.8380  -13.1140   19.6840 C   0  0  0  0  0  3  0  0  0  0  0  0
  -28.8890  -13.0640   20.8160 C   0  0  0  0  0  2  0  0  0  0  0  0
  -30.2080  -13.2600   20.2050 N   0  0  0  0  0  0  0  0  0  0  0  0
  -32.1230  -14.3910   19.8200 O   0  0  0  0  0  0  0  0  0  0  0  0
  -30.9320  -16.7530   20.6570 C   0  0  0  0  0  0  0  0  0  0  0  0
  -30.3110  -15.5630   20.4810 N   0  0  0  0  0  0  0  0  0  0  0  0
  -32.0740  -16.8600   21.1200 O   0  0  0  0  0  0  0  0  0  0  0  0
  -29.3100  -15.5640   20.4000 H   0  0  0  0  0  0  0  0  0  0  0  0
  -25.4910  -13.8350   20.4430 C   0  0  0  0  0  0  0  0  0  0  0  0
  -24.3910  -13.1170   20.8240 C   0  0  0  0  0  0  0  0  0  0  0  0
  -24.7810  -11.7430   20.7810 C   0  0  0  0  0  0  0  0  0  0  0  0
  -26.4840  -12.9030   20.1900 N   0  0  0  0  0  0  0  0  0  0  0  0
  -26.0630  -11.6400   20.4540 N   0  0  0  0  0  0  0  0  0  0  0  0
  -23.9920  -10.5190   20.9740 C   0  0  0  0  0  0  0  0  0  0  0  0
  -24.3990   -9.5130   21.8790 C   0  0  0  0  0  3  0  0  0  0  0  0
  -23.6150   -8.3550   22.0620 C   0  0  0  0  0  3  0  0  0  0  0  0
  -22.4080   -8.1930   21.3410 C   0  0  0  0  0  0  0  0  0  0  0  0
  -22.0190   -9.1860   20.4240 C   0  0  0  0  0  3  0  0  0  0  0  0
  -22.8050  -10.3370   20.2390 C   0  0  0  0  0  3  0  0  0  0  0  0
  -21.5950   -7.0900   21.4340 O   0  0  0  0  0  0  0  0  0  0  0  0
  -21.5690   -6.3090   22.5620 C   0  0  0  0  0  0  0  0  0  0  0  0
  -21.2250   -6.8360   23.8260 C   0  0  0  0  0  3  0  0  0  0  0  0
  -21.1440   -5.9840   24.9460 C   0  0  0  0  0  3  0  0  0  0  0  0
  -21.3950   -4.6060   24.8030 C   0  0  0  0  0  0  0  0  0  0  0  0
  -21.7310   -4.0790   23.5440 C   0  0  0  0  0  3  0  0  0  0  0  0
  -21.8150   -4.9280   22.4260 C   0  0  0  0  0  0  0  0  0  0  0  0
  -22.1180   -4.4100   21.2110 F   0  0  0  0  0  0  0  0  0  0  0  0
  -21.3090   -3.7860   25.8760 F   0  0  0  0  0  0  0  0  0  0  0  0
  -23.0240  -13.6640   21.1160 C   0  0  0  0  0  0  0  0  0  0  0  0
  -22.2750  -13.0060   21.9950 N   0  0  0  0  0  0  0  0  0  0  0  0
  -22.6300  -14.7100   20.6010 O   0  0  0  0  0  0  0  0  0  0  0  0
  -22.6070  -12.1600   22.4340 H   0  0  0  0  0  0  0  0  0  0  0  0
  -21.3580  -13.3560   22.2340 H   0  0  0  0  0  0  0  0  0  0  0  0
  -25.7230  -15.1960   20.2650 N   0  0  0  0  0  0  0  0  0  0  0  0
  -24.9870  -15.8820   20.3830 H   0  0  0  0  0  0  0  0  0  0  0  0
  -26.5740  -15.5910   19.8860 H   0  0  0  0  0  0  0  0  0  0  0  0
  -26.9110  -19.5480   19.6210 N   0  0  0  0  0  0  0  0  0  0  0  0
  -26.3660  -18.7200   19.4040 H   0  0  0  0  0  0  0  0  0  0  0  0
  -26.5780  -20.3820   19.1450 H   0  0  0  0  0  0  0  0  0  0  0  0
  -28.4920  -21.7960   19.2430 O   0  0  0  0  0  0  0  0  0  0  0  0
  -29.3440  -22.9180   18.9560 C   0  0  0  0  0  2  0  0  0  0  0  0
  -28.6240  -24.2700   18.7070 C   0  0  0  0  0  2  0  0  0  0  0  0
  -28.3000  -25.1150   19.9620 C   0  0  0  0  0  2  0  0  0  0  0  0
  -28.3890  -26.5370   19.7300 O   0  0  0  0  0  0  0  0  0  0  0  0
  -24.5310  -31.5150   23.0500 C   0  0  0  0  0  0  0  0  0  0  0  0
  -27.2160  -27.2590   19.7540 C   0  0  0  0  0  0  0  0  0  0  0  0
  -23.3470  -30.2070   21.3180 C   0  0  0  0  0  3  0  0  0  0  0  0
  -24.8190  -28.7580   19.8220 C   0  0  0  0  0  0  0  0  0  0  0  0
  -25.8720  -30.5870   21.1630 C   0  0  0  0  0  2  0  0  0  0  0  0
  -25.9700  -29.2560   20.4440 C   0  0  0  0  0  0  0  0  0  0  0  0
  -27.1750  -28.5170   20.4000 C   0  0  0  0  0  3  0  0  0  0  0  0
  -26.0470  -26.7750   19.1290 C   0  0  0  0  0  3  0  0  0  0  0  0
  -24.8530  -27.5190   19.1590 C   0  0  0  0  0  3  0  0  0  0  0  0
  -23.5710  -29.6100   19.9020 C   0  0  0  0  0  2  0  0  0  0  0  0
  -24.6010  -30.7810   21.9040 N   0  0  0  0  0  0  0  0  0  0  0  0
  -23.4440  -31.7510   23.5950 O   0  0  0  0  0  0  0  0  0  0  0  0
  -22.6920  -29.1300   22.2100 C   0  0  0  0  0  0  0  0  0  0  0  0
  -21.3610  -28.9840   22.0960 N   0  0  0  0  0  0  0  0  0  0  0  0
  -23.3760  -28.4290   22.9620 O   0  0  0  0  0  0  0  0  0  0  0  0
  -20.8710  -29.6030   21.4650 H   0  0  0  0  0  0  0  0  0  0  0  0
  -17.9640  -27.8710   22.6190 C   0  0  0  0  0  0  0  0  0  0  0  0
  -20.5380  -28.0070   22.8080 C   0  0  0  0  0  3  0  0  0  0  0  0
  -20.5610  -26.6340   22.0950 C   0  0  0  0  0  2  0  0  0  0  0  0
  -19.4090  -26.4510   21.1020 C   0  0  0  0  0  2  0  0  0  0  0  0
  -18.0600  -26.5850   21.8140 C   0  0  0  0  0  2  0  0  0  0  0  0
  -19.1280  -28.5460   23.0720 C   0  0  0  0  0  0  0  0  0  0  0  0
  -18.9840  -29.7560   23.7860 C   0  0  0  0  0  3  0  0  0  0  0  0
  -17.7090  -30.2880   24.0510 C   0  0  0  0  0  3  0  0  0  0  0  0
  -16.5590  -29.6070   23.6150 C   0  0  0  0  0  3  0  0  0  0  0  0
  -16.6870  -28.4000   22.9040 C   0  0  0  0  0  3  0  0  0  0  0  0
  -25.8090  -32.1140   23.7180 C   0  0  0  0  0  3  0  0  0  0  0  0
  -25.5080  -33.5060   24.0770 N   0  0  0  0  0  0  0  0  0  0  0  0
  -25.8790  -34.5730   23.3580 C   0  0  0  0  0  0  0  0  0  0  0  0
  -26.5820  -34.4890   22.3480 O   0  0  0  0  0  0  0  0  0  0  0  0
  -24.8900  -33.6470   24.8630 H   0  0  0  0  0  0  0  0  0  0  0  0
  -24.1800  -36.3940   23.0040 C   0  0  0  0  0  1  0  0  0  0  0  0
  -25.3950  -35.9560   23.8370 C   0  0  0  0  0  3  0  0  0  0  0  0
  -27.5120  -36.8000   24.7510 C   0  0  0  0  0  1  0  0  0  0  0  0
  -26.4410  -37.0000   23.7780 N   0  0  0  0  0  0  0  0  0  0  0  0
  -26.0390  -37.9200   23.9340 H   0  0  0  0  0  0  0  0  0  0  0  0
  -26.2880  -31.3020   24.9840 C   0  0  1  0  0  0  0  0  0  0  0  0
  -25.1710  -31.0580   26.0260 C   0  0  0  0  0  1  0  0  0  0  0  0
  -26.8540  -29.9250   24.5660 C   0  0  0  0  0  1  0  0  0  0  0  0
  -27.4380  -32.0590   25.6880 C   0  0  0  0  0  1  0  0  0  0  0  0
  1  4  1  0
  2  1  2  0
  3  4  2  0
  4 15  1  0
  5  3  1  0
  6  2  1  0
  6  5  2  0
  7 16  1  0
  8 13  1  0
  9 10  1  0
  9  8  1  0
 11 10  1  0
 11 22  1  0
 11 12  1  0
 13  7  1  0
 13 12  1  0
 14  7  2  0
 15 17  2  0
 16 15  1  0
 18 16  1  0
 19 20  2  0
 20 39  1  0
 21 20  1  0
 21 24  1  0
 22 19  1  0
 22 23  1  0
 23 21  2  0
 24 25  1  0
 25 26  2  0
 27 30  1  0
 27 26  1  0
 28 27  2  0
 29 28  1  0
 29 24  2  0
 30 31  1  0
 31 32  1  0
 32 33  2  0
 34 33  1  0
 34 38  1  0
 35 34  2  0
 36 31  2  0
 36 35  1  0
 37 36  1  0
 39 40  1  0
 40 43  1  0
 40 42  1  0
 41 39  2  0
 44 45  1  0
 44 19  1  0
 46 44  1  0
 47  5  1  0
 48 47  1  0
 49 47  1  0
 50  6  1  0
 51 50  1  0
 52 51  1  0
 52 53  1  0
 54 56  1  0
 54 53  1  0
 55 66  2  0
 56 61  1  0
 57 65  1  0
 57 67  1  0
 58 64  1  0
 58 60  1  0
 59 65  1  0
 60 59  1  0
 61 60  2  0
 62 63  1  0
 62 56  2  0
 63 58  2  0
 64 57  1  0
 65 55  1  0
 67 69  2  0
 68 67  1  0
 70 68  1  0
 71 80  2  0
 71 76  1  0
 72 68  1  0
 72 76  1  0
 73 72  1  0
 74 75  1  0
 74 73  1  0
 75 71  1  0
 76 77  2  0
 77 78  1  0
 79 78  2  0
 80 79  1  0
 81 55  1  0
 81 82  1  0
 81 91  1  0
 82 85  1  0
 83 87  1  0
 83 82  1  0
 84 83  2  0
 87 86  1  0
 89 87  1  0
 89 90  1  0
 89 88  1  0
 91 94  1  1
 91 92  1  0
 93 91  1  0
M  ISO  4   7 100  16 100  53 101  54 101
M  END
>  <TORSDO>  (91) 
F 21

>  <SCORE>  (91) 
-13.234

>  <name>  (91) 
91

>  <ligand_id>  (91) 
91

>  <original_smiles>  (91) 
[H]c1c([H])c([H])c2c(c1[H])C([H])([H])C([H])([H])C([H])([H])C2([H])N([H])C(=O)C1([H])N(C(=O)C([H])(N([H])C(=O)C([H])(N([H])C([H])([H])[H])C([H])([H])[H])C(C([H])([H])[H])(C([H])([H])[H])C([H])([H])[H])C([H])([H])c2c([H])c(OC([H])([H])C([H])([H])C([H])([H])Oc3c([H])c([H])c(C(=O)N([H])C(=O)N4C([H])([H])C([H])([H])C([H])([H])C([H])(n5nc(-c6c([H])c([H])c(Oc7c([H])c([H])c(F)c([H])c7F)c([H])c6[H])c(C(=O)N([H])[H])c5N([H])[H])C4([H])[H])c([H])c3N([H])[H])c([H])c([H])c2C1([H])[H]

>  <smiles>  (91) 
[H]c1c([H])c([H])c2c(c1[H])C([H])([H])C([H])([H])C([H])([H])C2([H])N([H])C(=O)C1([H])N(C(=O)C([H])(N([H])C(=O)C([H])(N([H])C([H])([H])[H])C([H])([H])[H])C(C([H])([H])[H])(C([H])([H])[H])C([H])([H])[H])C([H])([H])c2c([H])c(OC([H])([H])C([H])([H])C([H])([H])Oc3c([H])c([H])c(C(=O)N([H])C(=O)N4C([H])([H])C([H])([H])C([H])([H])C([H])(n5nc(-c6c([H])c([H])c(Oc7c([H])c([H])c(F)c([H])c7F)c([H])c6[H])c(C(=O)N([H])[H])c5N([H])[H])C4([H])[H])c([H])c3N([H])[H])c([H])c([H])c2C1([H])[H]

$$$$
92:0:0
     RDKit          3D

 94103  0  0  1  0  0  0  0  0999 V2000
  -29.9570  -21.0570   19.7390 C   0  0  0  0  0  0  0  0  0  0  0  0
  -30.5990  -24.3260   20.1650 C   0  0  0  0  0  2  0  0  0  0  0  0
  -31.1640  -22.9690   20.6040 C   0  0  0  0  0  2  0  0  0  0  0  0
  -28.8300  -22.8710   20.8860 C   0  0  0  0  0  2  0  0  0  0  0  0
  -29.2310  -24.3670   20.8280 C   0  0  0  0  0  3  0  0  0  0  0  0
  -30.0310  -22.0400   20.6670 N   0  0  0  0  0  0  0  0  0  0  0  0
  -29.8070  -21.3120   18.5380 O   0  0  0  0  0  0  0  0  0  0  0  0
  -29.0160  -18.7240   19.6300 C   0  0  0  0  0  3  0  0  0  0  0  0
  -29.0170  -17.3530   19.9590 C   0  0  0  0  0  3  0  0  0  0  0  0
  -30.9370  -17.7090   21.4080 C   0  0  0  0  0  3  0  0  0  0  0  0
  -29.9570  -19.6160   20.1960 C   0  0  0  0  0  0  0  0  0  0  0  0
  -29.9890  -16.8270   20.8350 C   0  0  0  0  0  0  0  0  0  0  0  0
  -30.9200  -19.0930   21.0970 C   0  0  0  0  0  0  0  0  0  0  0  0
  -31.8570  -19.9010   21.6490 F   0  0  0  0  0  0  0  0  0  0  0  0
  -30.6390  -14.4730   20.5470 C   0  0  0  0  0  0  0  0  0  0  0  0
  -30.3580  -12.3280   19.3580 C   0  0  0  0  0  2  0  0  0  0  0  0
  -29.4230  -12.5480   18.1490 C   0  0  0  0  0  2  0  0  0  0  0  0
  -27.9440  -12.4140   18.5610 C   0  0  0  0  0  2  0  0  0  0  0  0
  -27.6000  -13.2370   19.8320 C   0  0  0  0  0  3  0  0  0  0  0  0
  -28.6410  -12.9830   20.9460 C   0  0  0  0  0  2  0  0  0  0  0  0
  -29.9760  -13.2920   20.4020 N   0  0  0  0  0  0  0  0  0  0  0  0
  -31.7560  -14.6840   20.0650 O   0  0  0  0  0  0  0  0  0  0  0  0
  -29.9410  -15.4420   21.1700 N   0  0  0  0  0  0  0  0  0  0  0  0
  -29.0570  -15.1130   21.5260 H   0  0  0  0  0  0  0  0  0  0  0  0
  -25.1920  -13.8550   20.4990 C   0  0  0  0  0  0  0  0  0  0  0  0
  -24.1170  -13.0880   20.8580 C   0  0  0  0  0  0  0  0  0  0  0  0
  -24.5740  -11.7350   20.8430 C   0  0  0  0  0  0  0  0  0  0  0  0
  -26.2380  -12.9690   20.2910 N   0  0  0  0  0  0  0  0  0  0  0  0
  -25.8680  -11.6900   20.5510 N   0  0  0  0  0  0  0  0  0  0  0  0
  -23.8440  -10.4770   21.0330 C   0  0  0  0  0  0  0  0  0  0  0  0
  -24.2670   -9.5140   21.9760 C   0  0  0  0  0  3  0  0  0  0  0  0
  -23.5380   -8.3180   22.1530 C   0  0  0  0  0  3  0  0  0  0  0  0
  -22.3730   -8.0760   21.3880 C   0  0  0  0  0  0  0  0  0  0  0  0
  -21.9700   -9.0260   20.4340 C   0  0  0  0  0  3  0  0  0  0  0  0
  -22.6990  -10.2140   20.2550 C   0  0  0  0  0  3  0  0  0  0  0  0
  -21.6190   -6.9320   21.4730 O   0  0  0  0  0  0  0  0  0  0  0  0
  -21.5580   -6.1950   22.6280 C   0  0  0  0  0  0  0  0  0  0  0  0
  -21.1150   -6.7530   23.8480 C   0  0  0  0  0  3  0  0  0  0  0  0
  -21.0030   -5.9420   24.9940 C   0  0  0  0  0  3  0  0  0  0  0  0
  -21.3210   -4.5720   24.9220 C   0  0  0  0  0  0  0  0  0  0  0  0
  -21.7540   -4.0130   23.7080 C   0  0  0  0  0  3  0  0  0  0  0  0
  -21.8690   -4.8210   22.5640 C   0  0  0  0  0  0  0  0  0  0  0  0
  -22.2680   -4.2730   21.3900 F   0  0  0  0  0  0  0  0  0  0  0  0
  -21.2050   -3.7910   26.0210 F   0  0  0  0  0  0  0  0  0  0  0  0
  -22.7160  -13.5690   21.1090 C   0  0  0  0  0  0  0  0  0  0  0  0
  -21.9770  -12.8780   21.9700 N   0  0  0  0  0  0  0  0  0  0  0  0
  -22.2850  -14.5910   20.5750 O   0  0  0  0  0  0  0  0  0  0  0  0
  -22.3390  -12.0520   22.4220 H   0  0  0  0  0  0  0  0  0  0  0  0
  -21.0350  -13.1790   22.1800 H   0  0  0  0  0  0  0  0  0  0  0  0
  -25.3640  -15.2230   20.3130 N   0  0  0  0  0  0  0  0  0  0  0  0
  -24.6000  -15.8840   20.4020 H   0  0  0  0  0  0  0  0  0  0  0  0
  -26.2230  -15.6520   19.9930 H   0  0  0  0  0  0  0  0  0  0  0  0
  -28.1710  -25.2440   20.1180 C   0  0  0  0  0  2  0  0  0  0  0  0
  -28.3600  -26.6690   20.2300 O   0  0  0  0  0  0  0  0  0  0  0  0
  -24.5890  -31.9000   23.2420 C   0  0  0  0  0  0  0  0  0  0  0  0
  -27.2060  -27.4350   20.1660 C   0  0  0  0  0  0  0  0  0  0  0  0
  -23.3770  -30.5060   21.6000 C   0  0  0  0  0  3  0  0  0  0  0  0
  -24.8230  -28.9710   20.1680 C   0  0  0  0  0  0  0  0  0  0  0  0
  -25.9070  -30.8490   21.4070 C   0  0  0  0  0  2  0  0  0  0  0  0
  -25.9850  -29.4810   20.7600 C   0  0  0  0  0  0  0  0  0  0  0  0
  -27.1800  -28.7230   20.7530 C   0  0  0  0  0  3  0  0  0  0  0  0
  -26.0270  -26.9580   19.5430 C   0  0  0  0  0  3  0  0  0  0  0  0
  -24.8400  -27.7120   19.5520 C   0  0  0  0  0  3  0  0  0  0  0  0
  -23.5830  -29.8330   20.2180 C   0  0  0  0  0  2  0  0  0  0  0  0
  -24.6420  -31.1000   22.1400 N   0  0  0  0  0  0  0  0  0  0  0  0
  -23.5080  -32.1770   23.7820 O   0  0  0  0  0  0  0  0  0  0  0  0
  -22.7230  -29.4840   22.5580 C   0  0  0  0  0  0  0  0  0  0  0  0
  -21.3960  -29.3120   22.4360 N   0  0  0  0  0  0  0  0  0  0  0  0
  -23.4040  -28.8510   23.3690 O   0  0  0  0  0  0  0  0  0  0  0  0
  -20.9070  -29.8740   21.7540 H   0  0  0  0  0  0  0  0  0  0  0  0
  -18.0130  -28.1460   22.9500 C   0  0  0  0  0  0  0  0  0  0  0  0
  -20.5750  -28.3790   23.2070 C   0  0  0  0  0  3  0  0  0  0  0  0
  -20.6590  -26.9490   22.6250 C   0  0  0  0  0  2  0  0  0  0  0  0
  -19.5490  -26.6410   21.6160 C   0  0  0  0  0  2  0  0  0  0  0  0
  -18.1720  -26.7980   22.2690 C   0  0  0  0  0  2  0  0  0  0  0  0
  -19.1420  -28.8960   23.3770 C   0  0  0  0  0  0  0  0  0  0  0  0
  -18.9390  -30.1590   23.9730 C   0  0  0  0  0  3  0  0  0  0  0  0
  -17.6410  -30.6730   24.1480 C   0  0  0  0  0  3  0  0  0  0  0  0
  -16.5270  -29.9220   23.7370 C   0  0  0  0  0  3  0  0  0  0  0  0
  -16.7140  -28.6600   23.1440 C   0  0  0  0  0  3  0  0  0  0  0  0
  -25.8770  -32.5270   23.8590 C   0  0  0  0  0  3  0  0  0  0  0  0
  -25.5720  -33.9250   24.1930 N   0  0  0  0  0  0  0  0  0  0  0  0
  -25.8990  -34.9770   23.4320 C   0  0  0  0  0  0  0  0  0  0  0  0
  -26.5610  -34.8730   22.3960 O   0  0  0  0  0  0  0  0  0  0  0  0
  -24.9830  -34.0780   24.9980 H   0  0  0  0  0  0  0  0  0  0  0  0
  -24.1670  -36.7680   23.0910 C   0  0  0  0  0  1  0  0  0  0  0  0
  -25.4150  -36.3640   23.8920 C   0  0  0  0  0  3  0  0  0  0  0  0
  -27.5560  -37.2500   24.7060 C   0  0  0  0  0  1  0  0  0  0  0  0
  -26.4450  -37.4190   23.7720 N   0  0  0  0  0  0  0  0  0  0  0  0
  -26.0400  -38.3380   23.9250 H   0  0  0  0  0  0  0  0  0  0  0  0
  -26.3980  -31.7500   25.1310 C   0  0  1  0  0  0  0  0  0  0  0  0
  -25.3100  -31.5110   26.2040 C   0  0  0  0  0  1  0  0  0  0  0  0
  -26.9780  -30.3740   24.7330 C   0  0  0  0  0  1  0  0  0  0  0  0
  -27.5510  -32.5420   25.7920 C   0  0  0  0  0  1  0  0  0  0  0  0
  1 11  1  0
  1  6  1  0
  2  3  1  0
  2  5  1  0
  3  6  1  0
  5 53  1  0
  5  4  1  0
  6  4  1  0
  7  1  2  0
  8  9  2  0
  8 11  1  0
  9 12  1  0
 11 13  2  0
 12 23  1  0
 12 10  2  0
 13 10  1  0
 13 14  1  0
 15 23  1  0
 16 21  1  0
 17 18  1  0
 17 16  1  0
 19 18  1  0
 19 28  1  0
 19 20  1  0
 21 15  1  0
 21 20  1  0
 22 15  2  0
 23 24  1  0
 25 26  2  0
 26 45  1  0
 27 26  1  0
 27 30  1  0
 28 25  1  0
 28 29  1  0
 29 27  2  0
 30 31  1  0
 31 32  2  0
 33 36  1  0
 33 32  1  0
 34 33  2  0
 35 34  1  0
 35 30  2  0
 36 37  1  0
 37 38  1  0
 38 39  2  0
 40 39  1  0
 40 44  1  0
 41 40  2  0
 42 37  2  0
 42 41  1  0
 43 42  1  0
 45 46  1  0
 46 49  1  0
 46 48  1  0
 47 45  2  0
 50 51  1  0
 50 25  1  0
 52 50  1  0
 53 54  1  0
 55 66  2  0
 56 54  1  0
 56 61  1  0
 57 65  1  0
 57 67  1  0
 58 64  1  0
 58 60  1  0
 59 65  1  0
 60 59  1  0
 61 60  2  0
 62 63  1  0
 62 56  2  0
 63 58  2  0
 64 57  1  0
 65 55  1  0
 67 69  2  0
 68 67  1  0
 70 68  1  0
 71 80  2  0
 71 76  1  0
 72 68  1  0
 72 76  1  0
 73 72  1  0
 74 75  1  0
 74 73  1  0
 75 71  1  0
 76 77  2  0
 77 78  1  0
 79 78  2  0
 80 79  1  0
 81 55  1  0
 81 82  1  0
 81 91  1  0
 82 85  1  0
 83 87  1  0
 83 82  1  0
 84 83  2  0
 87 86  1  0
 89 87  1  0
 89 90  1  0
 89 88  1  0
 91 94  1  1
 91 92  1  0
 93 91  1  0
M  ISO  4  15 100  23 100  53 101  54 101
M  END
>  <TORSDO>  (92) 
F 18

>  <SCORE>  (92) 
-15.099

>  <name>  (92) 
92

>  <ligand_id>  (92) 
92

>  <original_smiles>  (92) 
[H]c1c([H])c([H])c2c(c1[H])C([H])([H])C([H])([H])C([H])([H])C2([H])N([H])C(=O)C1([H])N(C(=O)C([H])(N([H])C(=O)C([H])(N([H])C([H])([H])[H])C([H])([H])[H])C(C([H])([H])[H])(C([H])([H])[H])C([H])([H])[H])C([H])([H])c2c([H])c(OC([H])([H])C3([H])C([H])([H])N(C(=O)c4c([H])c([H])c(N([H])C(=O)N5C([H])([H])C([H])([H])C([H])([H])C([H])(n6nc(-c7c([H])c([H])c(Oc8c([H])c([H])c(F)c([H])c8F)c([H])c7[H])c(C(=O)N([H])[H])c6N([H])[H])C5([H])[H])c([H])c4F)C([H])([H])C3([H])[H])c([H])c([H])c2C1([H])[H]

>  <smiles>  (92) 
[H]c1c([H])c([H])c2c(c1[H])C([H])([H])C([H])([H])C([H])([H])C2([H])N([H])C(=O)C1([H])N(C(=O)C([H])(N([H])C(=O)C([H])(N([H])C([H])([H])[H])C([H])([H])[H])C(C([H])([H])[H])(C([H])([H])[H])C([H])([H])[H])C([H])([H])c2c([H])c(OC([H])([H])C3([H])C([H])([H])N(C(=O)c4c([H])c([H])c(N([H])C(=O)N5C([H])([H])C([H])([H])C([H])([H])C([H])(n6nc(-c7c([H])c([H])c(Oc8c([H])c([H])c(F)c([H])c8F)c([H])c7[H])c(C(=O)N([H])[H])c6N([H])[H])C5([H])[H])c([H])c4F)C([H])([H])C3([H])[H])c([H])c([H])c2C1([H])[H]

$$$$
93:0:0
     RDKit          3D

 94103  0  0  1  0  0  0  0  0999 V2000
  -29.6870  -24.1220   18.3650 C   0  0  0  0  0  0  0  0  0  0  0  0
  -30.0130  -22.8220   17.6350 C   0  0  0  0  0  2  0  0  0  0  0  0
  -30.7370  -21.8260   18.5520 C   0  0  0  0  0  2  0  0  0  0  0  0
  -29.0170  -22.5110   20.2480 C   0  0  0  0  0  2  0  0  0  0  0  0
  -29.3550  -24.0280   19.8640 C   0  0  0  0  0  3  0  0  0  0  0  0
  -29.9240  -21.4400   19.7110 N   0  0  0  0  0  0  0  0  0  0  0  0
  -29.7100  -25.1980   17.7590 O   0  0  0  0  0  0  0  0  0  0  0  0
  -31.1330  -19.2840   19.9840 C   0  0  0  0  0  3  0  0  0  0  0  0
  -31.2110  -17.8720   20.1600 C   0  0  0  0  0  3  0  0  0  0  0  0
  -28.8380  -17.8270   20.5010 C   0  0  0  0  0  3  0  0  0  0  0  0
  -28.7500  -19.2410   20.3150 C   0  0  0  0  0  0  0  0  0  0  0  0
  -29.9100  -20.0240   20.0200 C   0  0  0  0  0  0  0  0  0  0  0  0
  -30.0510  -17.0990   20.4050 C   0  0  0  0  0  0  0  0  0  0  0  0
  -27.3590  -19.8470   20.3950 C   0  0  0  0  0  1  0  0  0  0  0  0
  -30.7690  -14.6380   20.0550 C   0  0  0  0  0  0  0  0  0  0  0  0
  -30.4900  -12.4470   18.9230 C   0  0  0  0  0  2  0  0  0  0  0  0
  -29.4720  -12.6270   17.7750 C   0  0  0  0  0  2  0  0  0  0  0  0
  -28.0280  -12.4490   18.2860 C   0  0  0  0  0  2  0  0  0  0  0  0
  -27.7460  -13.2580   19.5800 C   0  0  0  0  0  3  0  0  0  0  0  0
  -28.8740  -13.0550   20.6200 C   0  0  0  0  0  2  0  0  0  0  0  0
  -30.1490  -13.4200   19.9790 N   0  0  0  0  0  0  0  0  0  0  0  0
  -31.8880  -14.8250   19.5710 O   0  0  0  0  0  0  0  0  0  0  0  0
  -30.0070  -15.6510   20.5670 N   0  0  0  0  0  0  0  0  0  0  0  0
  -29.1520  -15.3030   20.9720 H   0  0  0  0  0  0  0  0  0  0  0  0
  -25.3970  -13.8200   20.4620 C   0  0  0  0  0  0  0  0  0  0  0  0
  -24.3560  -13.0280   20.8670 C   0  0  0  0  0  0  0  0  0  0  0  0
  -24.8180  -11.6810   20.7560 C   0  0  0  0  0  0  0  0  0  0  0  0
  -26.4280  -12.9540   20.1330 N   0  0  0  0  0  0  0  0  0  0  0  0
  -26.0870  -11.6600   20.3670 N   0  0  0  0  0  0  0  0  0  0  0  0
  -24.1080  -10.4100   20.9420 C   0  0  0  0  0  0  0  0  0  0  0  0
  -24.5370   -9.4550   21.8900 C   0  0  0  0  0  3  0  0  0  0  0  0
  -23.8260   -8.2480   22.0630 C   0  0  0  0  0  3  0  0  0  0  0  0
  -22.6720   -7.9870   21.2880 C   0  0  0  0  0  0  0  0  0  0  0  0
  -22.2600   -8.9300   20.3300 C   0  0  0  0  0  3  0  0  0  0  0  0
  -22.9730  -10.1280   20.1550 C   0  0  0  0  0  3  0  0  0  0  0  0
  -21.9340   -6.8300   21.3700 O   0  0  0  0  0  0  0  0  0  0  0  0
  -21.7880   -6.1510   22.5530 C   0  0  0  0  0  0  0  0  0  0  0  0
  -21.2140   -6.7550   23.6920 C   0  0  0  0  0  3  0  0  0  0  0  0
  -21.0180   -6.0000   24.8660 C   0  0  0  0  0  3  0  0  0  0  0  0
  -21.3870   -4.6420   24.9010 C   0  0  0  0  0  0  0  0  0  0  0  0
  -21.9550   -4.0370   23.7660 C   0  0  0  0  0  3  0  0  0  0  0  0
  -22.1520   -4.7890   22.5940 C   0  0  0  0  0  0  0  0  0  0  0  0
  -22.6800   -4.1960   21.4960 F   0  0  0  0  0  0  0  0  0  0  0  0
  -21.1920   -3.9150   26.0260 F   0  0  0  0  0  0  0  0  0  0  0  0
  -22.9760  -13.4900   21.2400 C   0  0  0  0  0  0  0  0  0  0  0  0
  -22.3030  -12.7580   22.1230 N   0  0  0  0  0  0  0  0  0  0  0  0
  -22.5040  -14.5310   20.7860 O   0  0  0  0  0  0  0  0  0  0  0  0
  -22.6970  -11.9150   22.5120 H   0  0  0  0  0  0  0  0  0  0  0  0
  -21.3800  -13.0490   22.4140 H   0  0  0  0  0  0  0  0  0  0  0  0
  -25.5450  -15.1970   20.3260 N   0  0  0  0  0  0  0  0  0  0  0  0
  -24.7800  -15.8380   20.5050 H   0  0  0  0  0  0  0  0  0  0  0  0
  -26.3490  -15.6480   19.9090 H   0  0  0  0  0  0  0  0  0  0  0  0
  -28.2290  -25.0780   20.2610 C   0  0  0  0  0  2  0  0  0  0  0  0
  -28.4340  -26.5310   20.0540 O   0  0  0  0  0  0  0  0  0  0  0  0
  -24.6700  -31.8450   23.1610 C   0  0  0  0  0  0  0  0  0  0  0  0
  -27.2990  -27.3550   20.0390 C   0  0  0  0  0  0  0  0  0  0  0  0
  -23.4700  -30.4680   21.4990 C   0  0  0  0  0  3  0  0  0  0  0  0
  -24.9250  -28.9440   20.0550 C   0  0  0  0  0  0  0  0  0  0  0  0
  -26.0080  -30.7990   21.3240 C   0  0  0  0  0  2  0  0  0  0  0  0
  -26.0920  -29.4320   20.6590 C   0  0  0  0  0  0  0  0  0  0  0  0
  -27.2820  -28.6470   20.6430 C   0  0  0  0  0  3  0  0  0  0  0  0
  -26.1120  -26.9270   19.4000 C   0  0  0  0  0  3  0  0  0  0  0  0
  -24.9360  -27.6950   19.4190 C   0  0  0  0  0  3  0  0  0  0  0  0
  -23.6870  -29.8140   20.1100 C   0  0  0  0  0  2  0  0  0  0  0  0
  -24.7350  -31.0540   22.0520 N   0  0  0  0  0  0  0  0  0  0  0  0
  -23.5860  -32.1140   23.6970 O   0  0  0  0  0  0  0  0  0  0  0  0
  -22.8100  -29.4350   22.4440 C   0  0  0  0  0  0  0  0  0  0  0  0
  -21.4820  -29.2720   22.3260 N   0  0  0  0  0  0  0  0  0  0  0  0
  -23.4920  -28.7830   23.2410 O   0  0  0  0  0  0  0  0  0  0  0  0
  -20.9930  -29.8500   21.6560 H   0  0  0  0  0  0  0  0  0  0  0  0
  -18.0910  -28.1390   22.8680 C   0  0  0  0  0  0  0  0  0  0  0  0
  -20.6600  -28.3280   23.0830 C   0  0  0  0  0  3  0  0  0  0  0  0
  -20.7140  -26.9150   22.4560 C   0  0  0  0  0  2  0  0  0  0  0  0
  -19.5810  -26.6530   21.4600 C   0  0  0  0  0  2  0  0  0  0  0  0
  -18.2190  -26.8090   22.1430 C   0  0  0  0  0  2  0  0  0  0  0  0
  -19.2380  -28.8580   23.2950 C   0  0  0  0  0  0  0  0  0  0  0  0
  -19.0640  -30.1050   23.9350 C   0  0  0  0  0  3  0  0  0  0  0  0
  -17.7770  -30.6310   24.1510 C   0  0  0  0  0  3  0  0  0  0  0  0
  -16.6440  -29.9070   23.7380 C   0  0  0  0  0  3  0  0  0  0  0  0
  -16.8020  -28.6610   23.1030 C   0  0  0  0  0  3  0  0  0  0  0  0
  -25.9530  -32.4680   23.7930 C   0  0  0  0  0  3  0  0  0  0  0  0
  -25.6370  -33.8580   24.1540 N   0  0  0  0  0  0  0  0  0  0  0  0
  -25.9440  -34.9260   23.4060 C   0  0  0  0  0  0  0  0  0  0  0  0
  -26.5920  -34.8470   22.3590 O   0  0  0  0  0  0  0  0  0  0  0  0
  -25.0570  -33.9930   24.9690 H   0  0  0  0  0  0  0  0  0  0  0  0
  -24.1850  -36.7030   23.1250 C   0  0  0  0  0  1  0  0  0  0  0  0
  -25.4520  -36.3020   23.8980 C   0  0  0  0  0  3  0  0  0  0  0  0
  -27.5950  -37.2010   24.6910 C   0  0  0  0  0  1  0  0  0  0  0  0
  -26.4690  -37.3680   23.7740 N   0  0  0  0  0  0  0  0  0  0  0  0
  -26.0570  -38.2810   23.9410 H   0  0  0  0  0  0  0  0  0  0  0  0
  -26.4740  -31.6730   25.0530 C   0  0  1  0  0  0  0  0  0  0  0  0
  -25.3830  -31.4070   26.1160 C   0  0  0  0  0  1  0  0  0  0  0  0
  -27.0640  -30.3060   24.6320 C   0  0  0  0  0  1  0  0  0  0  0  0
  -27.6220  -32.4570   25.7300 C   0  0  0  0  0  1  0  0  0  0  0  0
  1  5  1  0
  2  1  1  0
  2  3  1  0
  3  6  1  0
  5  4  1  0
  5 53  1  0
  6 12  1  0
  6  4  1  0
  7  1  2  0
  8 12  2  0
  8  9  1  0
  9 13  2  0
 11 14  1  0
 11 10  2  0
 12 11  1  0
 13 10  1  0
 13 23  1  0
 15 23  1  0
 16 21  1  0
 17 18  1  0
 17 16  1  0
 19 18  1  0
 19 28  1  0
 19 20  1  0
 21 15  1  0
 21 20  1  0
 22 15  2  0
 23 24  1  0
 25 26  2  0
 26 45  1  0
 27 26  1  0
 27 30  1  0
 28 29  1  0
 28 25  1  0
 29 27  2  0
 30 31  1  0
 31 32  2  0
 33 36  1  0
 33 32  1  0
 34 33  2  0
 35 34  1  0
 35 30  2  0
 36 37  1  0
 37 42  2  0
 37 38  1  0
 38 39  2  0
 39 40  1  0
 40 44  1  0
 41 40  2  0
 42 41  1  0
 43 42  1  0
 45 46  1  0
 46 49  1  0
 46 48  1  0
 47 45  2  0
 50 25  1  0
 50 51  1  0
 52 50  1  0
 54 53  1  0
 55 66  2  0
 56 54  1  0
 56 61  1  0
 57 65  1  0
 57 67  1  0
 58 64  1  0
 58 60  1  0
 59 65  1  0
 60 59  1  0
 61 60  2  0
 62 63  1  0
 62 56  2  0
 63 58  2  0
 64 57  1  0
 65 55  1  0
 67 69  2  0
 68 67  1  0
 70 68  1  0
 71 80  2  0
 71 76  1  0
 72 68  1  0
 72 76  1  0
 73 72  1  0
 74 75  1  0
 74 73  1  0
 75 71  1  0
 76 77  2  0
 77 78  1  0
 79 78  2  0
 80 79  1  0
 81 55  1  0
 81 82  1  0
 81 91  1  0
 82 85  1  0
 83 87  1  0
 83 82  1  0
 84 83  2  0
 87 86  1  0
 89 87  1  0
 89 90  1  0
 89 88  1  0
 91 94  1  1
 91 92  1  0
 93 91  1  0
M  ISO  4  15 100  23 100  53 101  54 101
M  END
>  <TORSDO>  (93) 
F 18

>  <SCORE>  (93) 
-14.029

>  <name>  (93) 
93

>  <ligand_id>  (93) 
93

>  <original_smiles>  (93) 
[H]c1c([H])c([H])c2c(c1[H])C([H])([H])C([H])([H])C([H])([H])C2([H])N([H])C(=O)C1([H])N(C(=O)C([H])(N([H])C(=O)C([H])(N([H])C([H])([H])[H])C([H])([H])[H])C(C([H])([H])[H])(C([H])([H])[H])C([H])([H])[H])C([H])([H])c2c([H])c(OC([H])([H])C3([H])C(=O)C([H])([H])C([H])([H])N(c4c([H])c([H])c(N([H])C(=O)N5C([H])([H])C([H])([H])C([H])([H])C([H])(n6nc(-c7c([H])c([H])c(Oc8c([H])c([H])c(F)c([H])c8F)c([H])c7[H])c(C(=O)N([H])[H])c6N([H])[H])C5([H])[H])c([H])c4C([H])([H])[H])C3([H])[H])c([H])c([H])c2C1([H])[H]

>  <smiles>  (93) 
[H]c1c([H])c([H])c2c(c1[H])C([H])([H])C([H])([H])C([H])([H])C2([H])N([H])C(=O)C1([H])N(C(=O)C([H])(N([H])C(=O)C([H])(N([H])C([H])([H])[H])C([H])([H])[H])C(C([H])([H])[H])(C([H])([H])[H])C([H])([H])[H])C([H])([H])c2c([H])c(OC([H])([H])C3([H])C(=O)C([H])([H])C([H])([H])N(c4c([H])c([H])c(N([H])C(=O)N5C([H])([H])C([H])([H])C([H])([H])C([H])(n6nc(-c7c([H])c([H])c(Oc8c([H])c([H])c(F)c([H])c8F)c([H])c7[H])c(C(=O)N([H])[H])c6N([H])[H])C5([H])[H])c([H])c4C([H])([H])[H])C3([H])[H])c([H])c([H])c2C1([H])[H]

$$$$
94:0:0
     RDKit          3D

 94102  0  0  1  0  0  0  0  0999 V2000
  -30.2810  -21.0960   20.2180 C   0  0  0  0  0  0  0  0  0  0  0  0
  -29.6810  -21.9340   21.0770 N   0  0  0  0  0  0  0  0  0  0  0  0
  -30.9360  -21.4910   19.2520 O   0  0  0  0  0  0  0  0  0  0  0  0
  -29.1020  -21.5210   21.7950 H   0  0  0  0  0  0  0  0  0  0  0  0
  -30.4190  -19.0650   21.7650 C   0  0  0  0  0  3  0  0  0  0  0  0
  -30.4120  -17.6650   21.9660 C   0  0  0  0  0  3  0  0  0  0  0  0
  -29.8590  -18.7320   19.4220 C   0  0  0  0  0  3  0  0  0  0  0  0
  -30.1510  -19.6160   20.4850 C   0  0  0  0  0  0  0  0  0  0  0  0
  -30.1430  -16.7860   20.8930 C   0  0  0  0  0  0  0  0  0  0  0  0
  -29.8400  -17.3360   19.6210 C   0  0  0  0  0  0  0  0  0  0  0  0
  -29.5030  -16.5260   18.5860 F   0  0  0  0  0  0  0  0  0  0  0  0
  -30.7440  -14.4550   20.3790 C   0  0  0  0  0  0  0  0  0  0  0  0
  -30.4200  -12.3540   19.1300 C   0  0  0  0  0  2  0  0  0  0  0  0
  -29.4490  -12.6290   17.9610 C   0  0  0  0  0  2  0  0  0  0  0  0
  -27.9800  -12.4940   18.4090 C   0  0  0  0  0  2  0  0  0  0  0  0
  -27.6850  -13.2620   19.7250 C   0  0  0  0  0  3  0  0  0  0  0  0
  -28.7590  -12.9530   20.7930 C   0  0  0  0  0  2  0  0  0  0  0  0
  -30.0800  -13.2780   20.2230 N   0  0  0  0  0  0  0  0  0  0  0  0
  -31.8310  -14.6930   19.8440 O   0  0  0  0  0  0  0  0  0  0  0  0
  -30.1100  -15.3780   21.1230 N   0  0  0  0  0  0  0  0  0  0  0  0
  -29.3400  -15.0370   21.6760 H   0  0  0  0  0  0  0  0  0  0  0  0
  -25.2920  -13.8570   20.4650 C   0  0  0  0  0  0  0  0  0  0  0  0
  -24.2310  -13.0760   20.8430 C   0  0  0  0  0  0  0  0  0  0  0  0
  -24.6960  -11.7260   20.7920 C   0  0  0  0  0  0  0  0  0  0  0  0
  -26.3370  -12.9800   20.2130 N   0  0  0  0  0  0  0  0  0  0  0  0
  -25.9810  -11.6930   20.4620 N   0  0  0  0  0  0  0  0  0  0  0  0
  -23.9750  -10.4600   20.9810 C   0  0  0  0  0  0  0  0  0  0  0  0
  -24.3950   -9.5080   21.9360 C   0  0  0  0  0  3  0  0  0  0  0  0
  -23.6770   -8.3050   22.1100 C   0  0  0  0  0  3  0  0  0  0  0  0
  -22.5260   -8.0480   21.3290 C   0  0  0  0  0  0  0  0  0  0  0  0
  -22.1250   -8.9880   20.3630 C   0  0  0  0  0  3  0  0  0  0  0  0
  -22.8430  -10.1830   20.1880 C   0  0  0  0  0  3  0  0  0  0  0  0
  -21.7800   -6.8960   21.4130 O   0  0  0  0  0  0  0  0  0  0  0  0
  -21.6750   -6.1890   22.5830 C   0  0  0  0  0  0  0  0  0  0  0  0
  -21.1340   -6.7660   23.7550 C   0  0  0  0  0  3  0  0  0  0  0  0
  -20.9790   -5.9850   24.9170 C   0  0  0  0  0  3  0  0  0  0  0  0
  -21.3530   -4.6270   24.9090 C   0  0  0  0  0  0  0  0  0  0  0  0
  -21.8850   -4.0500   23.7420 C   0  0  0  0  0  3  0  0  0  0  0  0
  -22.0410   -4.8290   22.5820 C   0  0  0  0  0  0  0  0  0  0  0  0
  -22.5350   -4.2630   21.4530 F   0  0  0  0  0  0  0  0  0  0  0  0
  -21.1970   -3.8730   26.0220 F   0  0  0  0  0  0  0  0  0  0  0  0
  -22.8360  -13.5460   21.1420 C   0  0  0  0  0  0  0  0  0  0  0  0
  -22.1200  -12.8330   22.0050 N   0  0  0  0  0  0  0  0  0  0  0  0
  -22.3880  -14.5780   20.6440 O   0  0  0  0  0  0  0  0  0  0  0  0
  -22.4960  -11.9980   22.4300 H   0  0  0  0  0  0  0  0  0  0  0  0
  -21.1810  -13.1250   22.2400 H   0  0  0  0  0  0  0  0  0  0  0  0
  -25.4480  -15.2290   20.2960 N   0  0  0  0  0  0  0  0  0  0  0  0
  -24.6800  -15.8810   20.4130 H   0  0  0  0  0  0  0  0  0  0  0  0
  -26.2870  -15.6710   19.9430 H   0  0  0  0  0  0  0  0  0  0  0  0
  -29.9530  -23.3800   21.1910 C   0  0  0  0  0  2  0  0  0  0  0  0
  -28.9990  -24.2920   20.3910 C   0  0  0  0  0  0  0  0  0  0  0  0
  -28.6250  -23.9890   19.2530 O   0  0  0  0  0  0  0  0  0  0  0  0
  -28.5220  -25.5900   21.0830 C   0  0  0  0  0  2  0  0  0  0  0  0
  -28.5390  -26.7300   20.2040 O   0  0  0  0  0  0  0  0  0  0  0  0
  -24.5870  -31.8700   23.2030 C   0  0  0  0  0  0  0  0  0  0  0  0
  -27.3710  -27.4570   20.2040 C   0  0  0  0  0  0  0  0  0  0  0  0
  -23.4400  -30.4430   21.5380 C   0  0  0  0  0  3  0  0  0  0  0  0
  -24.9520  -28.9160   20.1600 C   0  0  0  0  0  0  0  0  0  0  0  0
  -25.9670  -30.8370   21.4020 C   0  0  0  0  0  2  0  0  0  0  0  0
  -26.0900  -29.4670   20.7650 C   0  0  0  0  0  0  0  0  0  0  0  0
  -27.3060  -28.7450   20.7790 C   0  0  0  0  0  3  0  0  0  0  0  0
  -26.2190  -26.9150   19.6000 C   0  0  0  0  0  3  0  0  0  0  0  0
  -25.0100  -27.6370   19.5760 C   0  0  0  0  0  3  0  0  0  0  0  0
  -23.6930  -29.7550   20.1710 C   0  0  0  0  0  2  0  0  0  0  0  0
  -24.6810  -31.0660   22.1050 N   0  0  0  0  0  0  0  0  0  0  0  0
  -23.4900  -32.1300   23.7160 O   0  0  0  0  0  0  0  0  0  0  0  0
  -22.7800  -29.4190   22.4900 C   0  0  0  0  0  0  0  0  0  0  0  0
  -21.4550  -29.2440   22.3550 N   0  0  0  0  0  0  0  0  0  0  0  0
  -23.4570  -28.7830   23.3020 O   0  0  0  0  0  0  0  0  0  0  0  0
  -20.9700  -29.8100   21.6710 H   0  0  0  0  0  0  0  0  0  0  0  0
  -18.0630  -28.1100   22.8720 C   0  0  0  0  0  0  0  0  0  0  0  0
  -20.6300  -28.3050   23.1120 C   0  0  0  0  0  3  0  0  0  0  0  0
  -20.6920  -26.8880   22.4960 C   0  0  0  0  0  2  0  0  0  0  0  0
  -19.5660  -26.6150   21.4920 C   0  0  0  0  0  2  0  0  0  0  0  0
  -18.1980  -26.7750   22.1600 C   0  0  0  0  0  2  0  0  0  0  0  0
  -19.2050  -28.8360   23.3050 C   0  0  0  0  0  0  0  0  0  0  0  0
  -19.0220  -30.0890   23.9300 C   0  0  0  0  0  3  0  0  0  0  0  0
  -17.7310  -30.6130   24.1310 C   0  0  0  0  0  3  0  0  0  0  0  0
  -16.6040  -29.8810   23.7180 C   0  0  0  0  0  3  0  0  0  0  0  0
  -16.7710  -28.6320   23.0920 C   0  0  0  0  0  3  0  0  0  0  0  0
  -25.8500  -32.5200   23.8520 C   0  0  0  0  0  3  0  0  0  0  0  0
  -26.3570  -31.7550   25.1360 C   0  0  1  0  0  0  0  0  0  0  0  0
  -25.2460  -31.4870   26.1780 C   0  0  0  0  0  1  0  0  0  0  0  0
  -26.9810  -30.3930   24.7520 C   0  0  0  0  0  1  0  0  0  0  0  0
  -27.4760  -32.5710   25.8250 C   0  0  0  0  0  1  0  0  0  0  0  0
  -25.5130  -33.9130   24.1760 N   0  0  0  0  0  0  0  0  0  0  0  0
  -25.8460  -34.9700   23.4240 C   0  0  0  0  0  0  0  0  0  0  0  0
  -26.5380  -34.8770   22.4060 O   0  0  0  0  0  0  0  0  0  0  0  0
  -24.9040  -34.0590   24.9680 H   0  0  0  0  0  0  0  0  0  0  0  0
  -24.1060  -36.7400   23.0210 C   0  0  0  0  0  1  0  0  0  0  0  0
  -25.3260  -36.3500   23.8710 C   0  0  0  0  0  3  0  0  0  0  0  0
  -27.4180  -37.2610   24.7780 C   0  0  0  0  0  1  0  0  0  0  0  0
  -26.3480  -37.4160   23.7960 N   0  0  0  0  0  0  0  0  0  0  0  0
  -25.9260  -38.3300   23.9290 H   0  0  0  0  0  0  0  0  0  0  0  0
  1  8  1  0
  1  2  1  0
  2 50  1  0
  2  4  1  0
  3  1  2  0
  5  6  1  0
  7 10  2  0
  7  8  1  0
  8  5  2  0
  9 20  1  0
  9  6  2  0
 10  9  1  0
 11 10  1  0
 12 20  1  0
 13 18  1  0
 14 15  1  0
 14 13  1  0
 16 15  1  0
 16 25  1  0
 16 17  1  0
 18 12  1  0
 18 17  1  0
 19 12  2  0
 20 21  1  0
 22 23  2  0
 23 42  1  0
 24 23  1  0
 24 27  1  0
 25 26  1  0
 25 22  1  0
 26 24  2  0
 27 28  1  0
 28 29  2  0
 30 33  1  0
 30 29  1  0
 31 30  2  0
 32 31  1  0
 32 27  2  0
 33 34  1  0
 34 35  1  0
 35 36  2  0
 37 36  1  0
 37 41  1  0
 38 37  2  0
 39 34  2  0
 39 38  1  0
 40 39  1  0
 42 43  1  0
 43 46  1  0
 43 45  1  0
 44 42  2  0
 47 48  1  0
 47 22  1  0
 49 47  1  0
 51 53  1  0
 51 50  1  0
 52 51  2  0
 54 53  1  0
 55 66  2  0
 56 54  1  0
 56 61  1  0
 57 65  1  0
 57 67  1  0
 58 64  1  0
 58 60  1  0
 59 65  1  0
 60 61  2  0
 60 59  1  0
 62 56  2  0
 63 62  1  0
 63 58  2  0
 64 57  1  0
 65 55  1  0
 67 69  2  0
 68 67  1  0
 70 68  1  0
 71 80  2  0
 71 76  1  0
 72 68  1  0
 72 76  1  0
 73 72  1  0
 74 75  1  0
 74 73  1  0
 75 71  1  0
 76 77  2  0
 77 78  1  0
 79 78  2  0
 80 79  1  0
 81 55  1  0
 81 86  1  0
 81 82  1  0
 82 85  1  1
 82 83  1  0
 84 82  1  0
 86 89  1  0
 87 91  1  0
 87 86  1  0
 88 87  2  0
 91 90  1  0
 93 91  1  0
 93 94  1  0
 93 92  1  0
M  ISO  4  12 100  20 100  53 101  54 101
M  END
>  <TORSDO>  (94) 
F 20

>  <SCORE>  (94) 
-13.885

>  <name>  (94) 
94

>  <ligand_id>  (94) 
94

>  <original_smiles>  (94) 
[H]c1c([H])c([H])c2c(c1[H])C([H])([H])C([H])([H])C([H])([H])C2([H])N([H])C(=O)C1([H])N(C(=O)C([H])(N([H])C(=O)C([H])(N([H])C([H])([H])[H])C([H])([H])[H])C(C([H])([H])[H])(C([H])([H])[H])C([H])([H])[H])C([H])([H])c2c([H])c(OC([H])([H])C(=O)C([H])([H])N([H])C(=O)c3c([H])c([H])c(N([H])C(=O)N4C([H])([H])C([H])([H])C([H])([H])C([H])(n5nc(-c6c([H])c([H])c(Oc7c([H])c([H])c(F)c([H])c7F)c([H])c6[H])c(C(=O)N([H])[H])c5N([H])[H])C4([H])[H])c(F)c3[H])c([H])c([H])c2C1([H])[H]

>  <smiles>  (94) 
[H]c1c([H])c([H])c2c(c1[H])C([H])([H])C([H])([H])C([H])([H])C2([H])N([H])C(=O)C1([H])N(C(=O)C([H])(N([H])C(=O)C([H])(N([H])C([H])([H])[H])C([H])([H])[H])C(C([H])([H])[H])(C([H])([H])[H])C([H])([H])[H])C([H])([H])c2c([H])c(OC([H])([H])C(=O)C([H])([H])N([H])C(=O)c3c([H])c([H])c(N([H])C(=O)N4C([H])([H])C([H])([H])C([H])([H])C([H])(n5nc(-c6c([H])c([H])c(Oc7c([H])c([H])c(F)c([H])c7F)c([H])c6[H])c(C(=O)N([H])[H])c5N([H])[H])C4([H])[H])c(F)c3[H])c([H])c([H])c2C1([H])[H]

$$$$
