0:0:0
     RDKit          3D

 90 99  0  0  1  0  0  0  0  0999 V2000
  -28.5150  -23.5450   20.4930 C   0  0  0  0  0  0  0  0  0  0  0  0
  -29.6160  -22.8250   19.8080 C   0  0  0  0  0  0  0  0  0  0  0  0
  -27.9790  -24.8590   20.6430 C   0  0  0  0  0  3  0  0  0  0  0  0
  -28.1040  -22.1530   21.1000 C   0  0  0  0  0  2  0  0  0  0  0  0
  -29.1790  -21.5220   20.2860 N   0  0  0  0  0  0  0  0  0  0  0  0
  -30.5220  -23.2490   19.1160 O   0  0  0  0  0  0  0  0  0  0  0  0
  -28.9540  -18.7610   20.5260 C   0  0  0  0  0  3  0  0  0  0  0  0
  -31.0550  -18.2860   20.0610 C   0  0  0  0  0  3  0  0  0  0  0  0
  -29.8990  -17.6230   20.3770 C   0  0  0  0  0  0  0  0  0  0  0  0
  -29.5660  -20.0260   20.3020 C   0  0  0  0  0  0  0  0  0  0  0  0
  -30.8730  -19.6750   20.0070 O   0  0  0  0  0  0  0  0  0  0  0  0
  -30.5170  -14.9590   20.2990 C   0  0  0  0  0  0  0  0  0  0  0  0
  -30.4020  -12.6250   19.3210 C   0  0  0  0  0  2  0  0  0  0  0  0
  -29.4530  -12.6060   18.0990 C   0  0  0  0  0  2  0  0  0  0  0  0
  -27.9900  -12.3970   18.5360 C   0  0  0  0  0  2  0  0  0  0  0  0
  -27.5950  -13.3030   19.7300 C   0  0  0  0  0  3  0  0  0  0  0  0
  -28.6610  -13.2740   20.8470 C   0  0  0  0  0  2  0  0  0  0  0  0
  -29.9330  -13.6950   20.2460 N   0  0  0  0  0  0  0  0  0  0  0  0
  -31.7140  -15.0520   20.0010 O   0  0  0  0  0  0  0  0  0  0  0  0
  -29.7020  -16.1050   20.5070 N   0  0  0  0  0  0  0  0  0  0  0  0
  -28.7640  -15.8350   20.7590 H   0  0  0  0  0  0  0  0  0  0  0  0
  -25.2150  -13.8760   20.4840 C   0  0  0  0  0  0  0  0  0  0  0  0
  -24.1570  -13.0930   20.8660 C   0  0  0  0  0  0  0  0  0  0  0  0
  -24.6260  -11.7460   20.8230 C   0  0  0  0  0  0  0  0  0  0  0  0
  -26.2590  -13.0000   20.2320 N   0  0  0  0  0  0  0  0  0  0  0  0
  -25.9130  -11.7170   20.5010 N   0  0  0  0  0  0  0  0  0  0  0  0
  -23.9030  -10.4800   21.0060 C   0  0  0  0  0  0  0  0  0  0  0  0
  -24.3290   -9.5180   21.9480 C   0  0  0  0  0  3  0  0  0  0  0  0
  -23.6060   -8.3170   22.1210 C   0  0  0  0  0  3  0  0  0  0  0  0
  -22.4460   -8.0700   21.3490 C   0  0  0  0  0  0  0  0  0  0  0  0
  -22.0390   -9.0230   20.3970 C   0  0  0  0  0  3  0  0  0  0  0  0
  -22.7610  -10.2140   20.2230 C   0  0  0  0  0  3  0  0  0  0  0  0
  -21.6950   -6.9200   21.4290 O   0  0  0  0  0  0  0  0  0  0  0  0
  -21.6120   -6.1950   22.5910 C   0  0  0  0  0  0  0  0  0  0  0  0
  -21.1260   -6.7610   23.7900 C   0  0  0  0  0  3  0  0  0  0  0  0
  -20.9920   -5.9610   24.9420 C   0  0  0  0  0  3  0  0  0  0  0  0
  -21.3340   -4.5960   24.8980 C   0  0  0  0  0  0  0  0  0  0  0  0
  -21.8140   -4.0300   23.7030 C   0  0  0  0  0  3  0  0  0  0  0  0
  -21.9510   -4.8260   22.5540 C   0  0  0  0  0  0  0  0  0  0  0  0
  -22.3930   -4.2710   21.3990 F   0  0  0  0  0  0  0  0  0  0  0  0
  -21.1980   -3.8270   26.0010 F   0  0  0  0  0  0  0  0  0  0  0  0
  -22.7600  -13.5660   21.1480 C   0  0  0  0  0  0  0  0  0  0  0  0
  -22.0380  -12.8630   22.0140 N   0  0  0  0  0  0  0  0  0  0  0  0
  -22.3180  -14.5920   20.6350 O   0  0  0  0  0  0  0  0  0  0  0  0
  -22.4100  -12.0340   22.4510 H   0  0  0  0  0  0  0  0  0  0  0  0
  -21.1000  -13.1610   22.2460 H   0  0  0  0  0  0  0  0  0  0  0  0
  -25.3660  -15.2460   20.2980 N   0  0  0  0  0  0  0  0  0  0  0  0
  -24.5630  -15.8660   20.3280 H   0  0  0  0  0  0  0  0  0  0  0  0
  -26.1520  -15.6520   19.8030 H   0  0  0  0  0  0  0  0  0  0  0  0
  -28.2700  -26.2230   20.2140 O   0  0  0  0  0  0  0  0  0  0  0  0
  -24.6260  -31.8950   23.2310 C   0  0  0  0  0  0  0  0  0  0  0  0
  -27.2200  -27.2070   20.1940 C   0  0  0  0  0  0  0  0  0  0  0  0
  -23.4290  -30.4940   21.5930 C   0  0  0  0  0  3  0  0  0  0  0  0
  -24.8800  -28.9200   20.1750 C   0  0  0  0  0  0  0  0  0  0  0  0
  -25.9820  -30.7660   21.4310 C   0  0  0  0  0  2  0  0  0  0  0  0
  -26.0580  -29.3740   20.7800 C   0  0  0  0  0  0  0  0  0  0  0  0
  -27.2320  -28.5340   20.7740 C   0  0  0  0  0  3  0  0  0  0  0  0
  -26.0210  -26.8470   19.5430 C   0  0  0  0  0  3  0  0  0  0  0  0
  -24.8700  -27.6640   19.5430 C   0  0  0  0  0  3  0  0  0  0  0  0
  -23.6510  -29.8120   20.2180 C   0  0  0  0  0  2  0  0  0  0  0  0
  -24.6980  -31.0740   22.1380 N   0  0  0  0  0  0  0  0  0  0  0  0
  -23.5390  -32.1800   23.7570 O   0  0  0  0  0  0  0  0  0  0  0  0
  -22.7480  -29.4910   22.5580 C   0  0  0  0  0  0  0  0  0  0  0  0
  -21.4190  -29.3250   22.4350 N   0  0  0  0  0  0  0  0  0  0  0  0
  -23.4180  -28.8640   23.3820 O   0  0  0  0  0  0  0  0  0  0  0  0
  -20.9340  -29.8830   21.7460 H   0  0  0  0  0  0  0  0  0  0  0  0
  -18.0340  -28.1360   22.9510 C   0  0  0  0  0  0  0  0  0  0  0  0
  -20.5950  -28.3910   23.2090 C   0  0  0  0  0  3  0  0  0  0  0  0
  -20.6890  -26.9580   22.6330 C   0  0  0  0  0  2  0  0  0  0  0  0
  -19.5820  -26.6390   21.6240 C   0  0  0  0  0  2  0  0  0  0  0  0
  -18.2040  -26.7880   22.2740 C   0  0  0  0  0  2  0  0  0  0  0  0
  -19.1570  -28.8950   23.3780 C   0  0  0  0  0  0  0  0  0  0  0  0
  -18.9430  -30.1560   23.9750 C   0  0  0  0  0  3  0  0  0  0  0  0
  -17.6400  -30.6590   24.1500 C   0  0  0  0  0  3  0  0  0  0  0  0
  -16.5320  -29.8990   23.7370 C   0  0  0  0  0  3  0  0  0  0  0  0
  -16.7300  -28.6390   23.1450 C   0  0  0  0  0  3  0  0  0  0  0  0
  -25.9030  -32.5310   23.8570 C   0  0  0  0  0  3  0  0  0  0  0  0
  -25.5890  -33.9300   24.1880 N   0  0  0  0  0  0  0  0  0  0  0  0
  -25.9140  -34.9870   23.4320 C   0  0  0  0  0  0  0  0  0  0  0  0
  -26.5740  -34.8880   22.3940 O   0  0  0  0  0  0  0  0  0  0  0  0
  -24.9950  -34.0810   24.9910 H   0  0  0  0  0  0  0  0  0  0  0  0
  -24.1760  -36.7820   23.1100 C   0  0  0  0  0  1  0  0  0  0  0  0
  -25.4310  -36.3760   23.9000 C   0  0  0  0  0  3  0  0  0  0  0  0
  -27.5760  -37.2690   24.6980 C   0  0  0  0  0  1  0  0  0  0  0  0
  -26.4590  -37.4310   23.7720 N   0  0  0  0  0  0  0  0  0  0  0  0
  -26.0540  -38.3520   23.9220 H   0  0  0  0  0  0  0  0  0  0  0  0
  -26.4130  -31.7650   25.1400 C   0  0  1  0  0  0  0  0  0  0  0  0
  -25.3150  -31.5400   26.2060 C   0  0  0  0  0  1  0  0  0  0  0  0
  -26.9910  -30.3810   24.7640 C   0  0  0  0  0  1  0  0  0  0  0  0
  -27.5620  -32.5600   25.8030 C   0  0  0  0  0  1  0  0  0  0  0  0
  1  3  2  0
  1  4  1  0
  2  5  1  0
  2  1  1  0
  5 10  1  0
  5  4  1  0
  6  2  2  0
  8  9  2  0
  9 20  1  0
  9  7  1  0
 10  7  2  0
 11  8  1  0
 11 10  1  0
 12 20  1  0
 13 18  1  0
 14 15  1  0
 14 13  1  0
 16 15  1  0
 16 25  1  0
 16 17  1  0
 18 12  1  0
 18 17  1  0
 19 12  2  0
 20 21  1  0
 22 23  2  0
 23 42  1  0
 24 23  1  0
 24 27  1  0
 25 22  1  0
 25 26  1  0
 26 24  2  0
 27 28  1  0
 28 29  2  0
 30 33  1  0
 30 29  1  0
 31 30  2  0
 32 31  1  0
 32 27  2  0
 33 34  1  0
 34 35  1  0
 35 36  2  0
 37 36  1  0
 37 41  1  0
 38 37  2  0
 39 34  2  0
 39 38  1  0
 40 39  1  0
 42 43  1  0
 43 46  1  0
 43 45  1  0
 44 42  2  0
 47 48  1  0
 47 22  1  0
 49 47  1  0
 50  3  1  0
 51 62  2  0
 52 50  1  0
 52 57  1  0
 53 61  1  0
 53 63  1  0
 54 60  1  0
 54 56  1  0
 55 61  1  0
 56 55  1  0
 57 56  2  0
 58 59  1  0
 58 52  2  0
 59 54  2  0
 60 53  1  0
 61 51  1  0
 63 65  2  0
 64 63  1  0
 66 64  1  0
 67 76  2  0
 67 72  1  0
 68 64  1  0
 68 72  1  0
 69 68  1  0
 70 71  1  0
 70 69  1  0
 71 67  1  0
 72 73  2  0
 73 74  1  0
 75 74  2  0
 76 75  1  0
 77 51  1  0
 77 78  1  0
 77 87  1  0
 78 81  1  0
 79 83  1  0
 79 78  1  0
 80 79  2  0
 83 82  1  0
 85 83  1  0
 85 86  1  0
 85 84  1  0
 87 90  1  1
 87 88  1  0
 89 87  1  0
M  ISO  4   3 101  12 100  20 100  50 101
M  END
>  <TORSDO>  (1) 
F 17

>  <SCORE>  (1) 
-15.110

>  <name>  (1) 
0

>  <ligand_id>  (1) 
0

>  <original_smiles>  (1) 
[H]C(Oc1c([H])c([H])c2c(c1[H])C([H])([H])N(C(=O)C([H])(N([H])C(=O)C([H])(N([H])C([H])([H])[H])C([H])([H])[H])C(C([H])([H])[H])(C([H])([H])[H])C([H])([H])[H])C([H])(C(=O)N([H])C1([H])c3c([H])c([H])c([H])c([H])c3C([H])([H])C([H])([H])C1([H])[H])C2([H])[H])=C1C(=O)N(c2oc([H])c(N([H])C(=O)N3C([H])([H])C([H])([H])C([H])([H])C([H])(n4nc(-c5c([H])c([H])c(Oc6c([H])c([H])c(F)c([H])c6F)c([H])c5[H])c(C(=O)N([H])[H])c4N([H])[H])C3([H])[H])c2[H])C1([H])[H]

>  <smiles>  (1) 
[H]C(Oc1c([H])c([H])c2c(c1[H])C([H])([H])N(C(=O)C([H])(N([H])C(=O)C([H])(N([H])C([H])([H])[H])C([H])([H])[H])C(C([H])([H])[H])(C([H])([H])[H])C([H])([H])[H])C([H])(C(=O)N([H])C1([H])c3c([H])c([H])c([H])c([H])c3C([H])([H])C([H])([H])C1([H])[H])C2([H])[H])=C1C(=O)N(c2oc([H])c(N([H])C(=O)N3C([H])([H])C([H])([H])C([H])([H])C([H])(n4nc(-c5c([H])c([H])c(Oc6c([H])c([H])c(F)c([H])c6F)c([H])c5[H])c(C(=O)N([H])[H])c4N([H])[H])C3([H])[H])c2[H])C1([H])[H]

$$$$
1:0:0
     RDKit          3D

 97106  0  0  1  0  0  0  0  0999 V2000
  -29.9310  -24.3620   17.6390 C   0  0  0  0  0  2  0  0  0  0  0  0
  -28.7120  -24.8450   18.0810 C   0  0  0  0  0  0  0  0  0  0  0  0
  -31.0170  -23.9190   18.5400 C   0  0  0  0  0  0  0  0  0  0  0  0
  -30.6930  -23.8150   20.0570 C   0  0  0  0  0  2  0  0  0  0  0  0
  -28.5310  -24.9730   19.6150 C   0  0  0  0  0  3  0  0  0  0  0  0
  -29.2310  -23.7230   20.3310 N   0  0  0  0  0  0  0  0  0  0  0  0
  -27.6880  -25.1500   17.4340 O   0  0  0  0  0  0  0  0  0  0  0  0
  -32.1340  -23.6260   18.1200 O   0  0  0  0  0  0  0  0  0  0  0  0
  -29.6370  -19.9690   21.3710 C   0  0  0  0  0  3  0  0  0  0  0  0
  -29.1950  -19.9740   19.0610 C   0  0  0  0  0  3  0  0  0  0  0  0
  -29.3920  -21.4060   21.4040 C   0  0  0  0  0  3  0  0  0  0  0  0
  -28.9200  -21.4070   19.1040 C   0  0  0  0  0  3  0  0  0  0  0  0
  -29.5930  -19.1630   20.1850 C   0  0  0  0  0  0  0  0  0  0  0  0
  -29.0610  -22.2360   20.2730 C   0  0  0  0  0  0  0  0  0  0  0  0
  -30.5860  -15.0470   20.0600 C   0  0  0  0  0  0  0  0  0  0  0  0
  -30.3800  -12.7320   19.0740 C   0  0  0  0  0  2  0  0  0  0  0  0
  -29.3940  -12.7200   17.8830 C   0  0  0  0  0  2  0  0  0  0  0  0
  -27.9520  -12.5040   18.3750 C   0  0  0  0  0  2  0  0  0  0  0  0
  -27.6000  -13.3980   19.5920 C   0  0  0  0  0  3  0  0  0  0  0  0
  -28.7050  -13.4000   20.6710 C   0  0  0  0  0  2  0  0  0  0  0  0
  -29.9500  -13.8090   20.0100 N   0  0  0  0  0  0  0  0  0  0  0  0
  -31.7780  -15.0870   19.7200 O   0  0  0  0  0  0  0  0  0  0  0  0
  -30.2730  -17.7320   20.0370 C   0  0  0  0  0  0  0  0  0  0  0  0
  -29.8380  -16.3890   20.2570 N   0  0  0  0  0  0  0  0  0  0  0  0
  -31.5270  -17.8760   19.6050 N   0  0  0  0  0  4  0  0  0  0  0  0
  -28.8710  -16.3870   20.5340 H   0  0  0  0  0  0  0  0  0  0  0  0
  -31.9070  -18.7990   19.4590 H   0  0  0  0  0  0  0  0  0  0  0  0
  -32.1130  -17.0570   19.4880 H   0  0  0  0  0  0  0  0  0  0  0  0
  -25.2500  -13.9400   20.4470 C   0  0  0  0  0  0  0  0  0  0  0  0
  -24.2110  -13.1490   20.8520 C   0  0  0  0  0  0  0  0  0  0  0  0
  -24.6860  -11.8040   20.7790 C   0  0  0  0  0  0  0  0  0  0  0  0
  -26.2890  -13.0780   20.1460 N   0  0  0  0  0  0  0  0  0  0  0  0
  -25.9630  -11.7860   20.4130 N   0  0  0  0  0  0  0  0  0  0  0  0
  -23.9800  -10.5310   20.9750 C   0  0  0  0  0  0  0  0  0  0  0  0
  -24.4350   -9.5680   21.9030 C   0  0  0  0  0  3  0  0  0  0  0  0
  -23.7250   -8.3620   22.0890 C   0  0  0  0  0  3  0  0  0  0  0  0
  -22.5460   -8.1100   21.3480 C   0  0  0  0  0  0  0  0  0  0  0  0
  -22.1110   -9.0610   20.4080 C   0  0  0  0  0  3  0  0  0  0  0  0
  -22.8220  -10.2590   20.2200 C   0  0  0  0  0  3  0  0  0  0  0  0
  -21.8070   -6.9550   21.4440 O   0  0  0  0  0  0  0  0  0  0  0  0
  -21.7520   -6.2310   22.6070 C   0  0  0  0  0  0  0  0  0  0  0  0
  -21.2540   -6.7830   23.8080 C   0  0  0  0  0  3  0  0  0  0  0  0
  -21.1500   -5.9820   24.9620 C   0  0  0  0  0  3  0  0  0  0  0  0
  -21.5350   -4.6290   24.9180 C   0  0  0  0  0  0  0  0  0  0  0  0
  -22.0270   -4.0750   23.7230 C   0  0  0  0  0  3  0  0  0  0  0  0
  -22.1320   -4.8730   22.5700 C   0  0  0  0  0  0  0  0  0  0  0  0
  -22.5850   -4.3290   21.4150 F   0  0  0  0  0  0  0  0  0  0  0  0
  -21.4290   -3.8570   26.0250 F   0  0  0  0  0  0  0  0  0  0  0  0
  -22.8210  -13.6080   21.1850 C   0  0  0  0  0  0  0  0  0  0  0  0
  -22.1310  -12.8900   22.0630 N   0  0  0  0  0  0  0  0  0  0  0  0
  -22.3570  -14.6390   20.7000 O   0  0  0  0  0  0  0  0  0  0  0  0
  -22.5210  -12.0580   22.4800 H   0  0  0  0  0  0  0  0  0  0  0  0
  -21.1990  -13.1780   22.3240 H   0  0  0  0  0  0  0  0  0  0  0  0
  -25.3920  -15.3150   20.2800 N   0  0  0  0  0  0  0  0  0  0  0  0
  -24.6120  -15.9510   20.4140 H   0  0  0  0  0  0  0  0  0  0  0  0
  -26.1730  -15.7510   19.8090 H   0  0  0  0  0  0  0  0  0  0  0  0
  -28.3490  -26.3680   20.2060 O   0  0  0  0  0  0  0  0  0  0  0  0
  -24.6420  -31.9060   23.2320 C   0  0  0  0  0  0  0  0  0  0  0  0
  -27.2310  -27.2670   20.1050 C   0  0  0  0  0  0  0  0  0  0  0  0
  -23.4300  -30.5170   21.5940 C   0  0  0  0  0  3  0  0  0  0  0  0
  -24.8710  -28.9640   20.1340 C   0  0  0  0  0  0  0  0  0  0  0  0
  -25.9760  -30.8130   21.3920 C   0  0  0  0  0  2  0  0  0  0  0  0
  -26.0510  -29.4300   20.7230 C   0  0  0  0  0  0  0  0  0  0  0  0
  -27.2260  -28.5960   20.6910 C   0  0  0  0  0  3  0  0  0  0  0  0
  -26.0120  -26.8800   19.5110 C   0  0  0  0  0  3  0  0  0  0  0  0
  -24.8610  -27.7020   19.5160 C   0  0  0  0  0  3  0  0  0  0  0  0
  -23.6330  -29.8460   20.2070 C   0  0  0  0  0  2  0  0  0  0  0  0
  -24.7040  -31.1000   22.1280 N   0  0  0  0  0  0  0  0  0  0  0  0
  -23.5610  -32.1760   23.7770 O   0  0  0  0  0  0  0  0  0  0  0  0
  -22.7720  -29.4970   22.5560 C   0  0  0  0  0  0  0  0  0  0  0  0
  -21.4510  -29.2880   22.4150 N   0  0  0  0  0  0  0  0  0  0  0  0
  -23.4520  -28.8960   23.3920 O   0  0  0  0  0  0  0  0  0  0  0  0
  -20.9600  -29.8220   21.7120 H   0  0  0  0  0  0  0  0  0  0  0  0
  -18.1070  -27.9720   22.8630 C   0  0  0  0  0  0  0  0  0  0  0  0
  -20.6480  -28.3320   23.1820 C   0  0  0  0  0  3  0  0  0  0  0  0
  -20.8150  -26.8990   22.6300 C   0  0  0  0  0  2  0  0  0  0  0  0
  -19.7480  -26.5200   21.5980 C   0  0  0  0  0  2  0  0  0  0  0  0
  -18.3480  -26.6220   22.2100 C   0  0  0  0  0  2  0  0  0  0  0  0
  -19.1870  -28.7820   23.3050 C   0  0  0  0  0  0  0  0  0  0  0  0
  -18.9070  -30.0430   23.8760 C   0  0  0  0  0  3  0  0  0  0  0  0
  -17.5810  -30.4950   24.0110 C   0  0  0  0  0  3  0  0  0  0  0  0
  -16.5150  -29.6820   23.5840 C   0  0  0  0  0  3  0  0  0  0  0  0
  -16.7800  -28.4230   23.0170 C   0  0  0  0  0  3  0  0  0  0  0  0
  -25.9230  -32.5440   23.8510 C   0  0  0  0  0  3  0  0  0  0  0  0
  -25.6140  -33.9450   24.1810 N   0  0  0  0  0  0  0  0  0  0  0  0
  -25.9380  -34.9990   23.4200 C   0  0  0  0  0  0  0  0  0  0  0  0
  -26.5960  -34.8940   22.3820 O   0  0  0  0  0  0  0  0  0  0  0  0
  -25.0320  -34.1010   24.9910 H   0  0  0  0  0  0  0  0  0  0  0  0
  -24.2140  -36.7990   23.0770 C   0  0  0  0  0  1  0  0  0  0  0  0
  -25.4570  -36.3890   23.8820 C   0  0  0  0  0  3  0  0  0  0  0  0
  -27.5910  -37.2730   24.7160 C   0  0  0  0  0  1  0  0  0  0  0  0
  -26.4930  -37.4400   23.7680 N   0  0  0  0  0  0  0  0  0  0  0  0
  -26.0880  -38.3610   23.9090 H   0  0  0  0  0  0  0  0  0  0  0  0
  -26.4400  -31.7830   25.1340 C   0  0  1  0  0  0  0  0  0  0  0  0
  -25.3460  -31.5520   26.2030 C   0  0  0  0  0  1  0  0  0  0  0  0
  -27.0230  -30.4030   24.7540 C   0  0  0  0  0  1  0  0  0  0  0  0
  -27.5900  -32.5820   25.7910 C   0  0  0  0  0  1  0  0  0  0  0  0
  1  2  1  0
  1  3  1  0
  2  5  1  0
  3  4  1  0
  4  6  1  0
  5 57  1  0
  5  6  1  0
  7  2  2  0
  8  3  2  0
  9 11  1  0
 10 12  2  0
 10 13  1  0
 12 14  1  0
 13  9  2  0
 14  6  1  0
 14 11  2  0
 15 24  1  0
 16 21  1  0
 17 18  1  0
 17 16  1  0
 19 18  1  0
 19 32  1  0
 19 20  1  0
 21 15  1  0
 21 20  1  0
 22 15  2  0
 23 13  1  0
 23 24  1  0
 24 26  1  0
 25 23  2  0
 27 25  1  0
 28 25  1  0
 29 30  2  0
 30 49  1  0
 31 30  1  0
 31 34  1  0
 32 33  1  0
 32 29  1  0
 33 31  2  0
 34 35  1  0
 35 36  2  0
 37 40  1  0
 37 36  1  0
 38 37  2  0
 39 38  1  0
 39 34  2  0
 40 41  1  0
 41 42  1  0
 42 43  2  0
 44 43  1  0
 44 48  1  0
 45 44  2  0
 46 41  2  0
 46 45  1  0
 47 46  1  0
 49 50  1  0
 50 53  1  0
 50 52  1  0
 51 49  2  0
 54 55  1  0
 54 29  1  0
 56 54  1  0
 58 69  2  0
 59 57  1  0
 59 64  1  0
 60 68  1  0
 60 70  1  0
 61 67  1  0
 61 63  1  0
 62 68  1  0
 63 62  1  0
 64 63  2  0
 65 66  1  0
 65 59  2  0
 66 61  2  0
 67 60  1  0
 68 58  1  0
 70 72  2  0
 71 70  1  0
 73 71  1  0
 74 83  2  0
 74 79  1  0
 75 71  1  0
 75 79  1  0
 76 75  1  0
 77 78  1  0
 77 76  1  0
 78 74  1  0
 79 80  2  0
 80 81  1  0
 82 81  2  0
 83 82  1  0
 84 58  1  0
 84 85  1  0
 84 94  1  0
 85 88  1  0
 86 90  1  0
 86 85  1  0
 87 86  2  0
 90 89  1  0
 92 90  1  0
 92 93  1  0
 92 91  1  0
 94 97  1  1
 94 95  1  0
 96 94  1  0
M  ISO  4   5 101  15 100  24 100  57 101
M  END
>  <TORSDO>  (2) 
F 17

>  <SCORE>  (2) 
-15.046

>  <name>  (2) 
1

>  <ligand_id>  (2) 
1

>  <original_smiles>  (2) 
[H]C1=C([O-])C([H])(Oc2c([H])c([H])c3c(c2[H])C([H])([H])N(C(=O)C([H])(N([H])C(=O)C([H])(N([H])C([H])([H])[H])C([H])([H])[H])C(C([H])([H])[H])(C([H])([H])[H])C([H])([H])[H])C([H])(C(=O)N([H])C2([H])c4c([H])c([H])c([H])c([H])c4C([H])([H])C([H])([H])C2([H])[H])C3([H])[H])N(c2c([H])c([H])c(C(N([H])C(=O)N3C([H])([H])C([H])([H])C([H])([H])C([H])(n4nc(-c5c([H])c([H])c(Oc6c([H])c([H])c(F)c([H])c6F)c([H])c5[H])c(C(=O)N([H])[H])c4N([H])[H])C3([H])[H])=[N+]([H])[H])c([H])c2[H])C([H])([H])C1=O

>  <smiles>  (2) 
[H]C1=C([O-])C([H])(Oc2c([H])c([H])c3c(c2[H])C([H])([H])N(C(=O)C([H])(N([H])C(=O)C([H])(N([H])C([H])([H])[H])C([H])([H])[H])C(C([H])([H])[H])(C([H])([H])[H])C([H])([H])[H])C([H])(C(=O)N([H])C2([H])c4c([H])c([H])c([H])c([H])c4C([H])([H])C([H])([H])C2([H])[H])C3([H])[H])N(c2c([H])c([H])c(C(N([H])C(=O)N3C([H])([H])C([H])([H])C([H])([H])C([H])(n4nc(-c5c([H])c([H])c(Oc6c([H])c([H])c(F)c([H])c6F)c([H])c5[H])c(C(=O)N([H])[H])c4N([H])[H])C3([H])[H])=[N+]([H])[H])c([H])c2[H])C([H])([H])C1=O

$$$$
2:0:0
     RDKit          3D

 98106  0  0  1  0  0  0  0  0999 V2000
  -28.7270  -18.4650   19.7030 C   0  0  0  0  0  3  0  0  0  0  0  0
  -28.3520  -19.8280   19.5940 C   0  0  0  0  0  3  0  0  0  0  0  0
  -30.9920  -19.0540   19.0110 C   0  0  0  0  0  3  0  0  0  0  0  0
  -30.0480  -18.0640   19.3830 C   0  0  0  0  0  0  0  0  0  0  0  0
  -29.2810  -20.7870   19.1290 C   0  0  0  0  0  0  0  0  0  0  0  0
  -30.6070  -20.3940   18.8460 C   0  0  0  0  0  0  0  0  0  0  0  0
  -30.7260  -14.4210   20.3650 C   0  0  0  0  0  0  0  0  0  0  0  0
  -30.3000  -12.2660   19.3220 C   0  0  0  0  0  2  0  0  0  0  0  0
  -29.3810  -12.4930   18.1070 C   0  0  0  0  0  2  0  0  0  0  0  0
  -27.9050  -12.4000   18.5340 C   0  0  0  0  0  2  0  0  0  0  0  0
  -27.5780  -13.2520   19.7910 C   0  0  0  0  0  3  0  0  0  0  0  0
  -28.6400  -13.0930   20.9040 C   0  0  0  0  0  2  0  0  0  0  0  0
  -29.9630  -13.3020   20.3100 N   0  0  0  0  0  0  0  0  0  0  0  0
  -31.9370  -14.4070   20.1270 O   0  0  0  0  0  0  0  0  0  0  0  0
  -30.4860  -16.6550   19.3410 C   0  0  0  0  0  0  0  0  0  0  0  0
  -30.0540  -15.6880   20.2010 N   0  0  0  0  0  0  0  0  0  0  0  0
  -31.3530  -16.3630   18.3540 N   0  0  0  0  0  4  0  0  0  0  0  0
  -29.1350  -15.8530   20.5670 H   0  0  0  0  0  0  0  0  0  0  0  0
  -31.5990  -17.0490   17.6580 H   0  0  0  0  0  0  0  0  0  0  0  0
  -31.9090  -15.5220   18.4410 H   0  0  0  0  0  0  0  0  0  0  0  0
  -25.1900  -13.8640   20.5210 C   0  0  0  0  0  0  0  0  0  0  0  0
  -24.1210  -13.0960   20.8960 C   0  0  0  0  0  0  0  0  0  0  0  0
  -24.5770  -11.7430   20.8650 C   0  0  0  0  0  0  0  0  0  0  0  0
  -26.2300  -12.9800   20.2850 N   0  0  0  0  0  0  0  0  0  0  0  0
  -25.8670  -11.6990   20.5550 N   0  0  0  0  0  0  0  0  0  0  0  0
  -23.8430  -10.4840   21.0540 C   0  0  0  0  0  0  0  0  0  0  0  0
  -24.2730   -9.5110   21.9830 C   0  0  0  0  0  3  0  0  0  0  0  0
  -23.5410   -8.3160   22.1600 C   0  0  0  0  0  3  0  0  0  0  0  0
  -22.3650   -8.0870   21.4040 C   0  0  0  0  0  0  0  0  0  0  0  0
  -21.9540   -9.0480   20.4620 C   0  0  0  0  0  3  0  0  0  0  0  0
  -22.6880  -10.2340   20.2860 C   0  0  0  0  0  3  0  0  0  0  0  0
  -21.6020   -6.9470   21.4920 O   0  0  0  0  0  0  0  0  0  0  0  0
  -21.5500   -6.1990   22.6420 C   0  0  0  0  0  0  0  0  0  0  0  0
  -21.1300   -6.7520   23.8730 C   0  0  0  0  0  3  0  0  0  0  0  0
  -21.0310   -5.9330   25.0150 C   0  0  0  0  0  3  0  0  0  0  0  0
  -21.3390   -4.5620   24.9280 C   0  0  0  0  0  0  0  0  0  0  0  0
  -21.7510   -4.0080   23.7020 C   0  0  0  0  0  3  0  0  0  0  0  0
  -21.8530   -4.8250   22.5630 C   0  0  0  0  0  0  0  0  0  0  0  0
  -22.2330   -4.2820   21.3810 F   0  0  0  0  0  0  0  0  0  0  0  0
  -21.2320   -3.7730   26.0210 F   0  0  0  0  0  0  0  0  0  0  0  0
  -22.7250  -13.5790   21.1680 C   0  0  0  0  0  0  0  0  0  0  0  0
  -21.9900  -12.8860   22.0300 N   0  0  0  0  0  0  0  0  0  0  0  0
  -22.2960  -14.6100   20.6510 O   0  0  0  0  0  0  0  0  0  0  0  0
  -22.3470  -12.0500   22.4690 H   0  0  0  0  0  0  0  0  0  0  0  0
  -21.0550  -13.1960   22.2530 H   0  0  0  0  0  0  0  0  0  0  0  0
  -25.3610  -15.2330   20.3330 N   0  0  0  0  0  0  0  0  0  0  0  0
  -24.5890  -15.8850   20.4210 H   0  0  0  0  0  0  0  0  0  0  0  0
  -26.1770  -15.6470   19.9030 H   0  0  0  0  0  0  0  0  0  0  0  0
  -31.5350  -21.3270   18.3640 N   0  0  0  0  0  0  0  0  0  0  0  0
  -32.4210  -20.9460   18.0490 H   0  0  0  0  0  0  0  0  0  0  0  0
  -31.1810  -21.9860   17.6780 H   0  0  0  0  0  0  0  0  0  0  0  0
  -28.9430  -22.1190   18.8730 N   0  0  0  0  0  0  0  0  0  0  0  0
  -29.7880  -22.5870   18.5500 H   0  0  0  0  0  0  0  0  0  0  0  0
  -28.4010  -22.9230   19.9650 C   0  0  0  0  0  2  0  0  0  0  0  0
  -28.9070  -24.3730   19.8540 C   0  0  0  0  0  0  0  0  0  0  0  0
  -29.7760  -24.6720   19.0240 O   0  0  0  0  0  0  0  0  0  0  0  0
  -28.3160  -25.4160   20.8090 C   0  0  0  0  0  2  0  0  0  0  0  0
  -28.4520  -26.7370   20.2630 O   0  0  0  0  0  0  0  0  0  0  0  0
  -24.6030  -31.8940   23.2430 C   0  0  0  0  0  0  0  0  0  0  0  0
  -27.2830  -27.4550   20.2250 C   0  0  0  0  0  0  0  0  0  0  0  0
  -23.4130  -30.4780   21.5970 C   0  0  0  0  0  3  0  0  0  0  0  0
  -24.8840  -28.9400   20.1920 C   0  0  0  0  0  0  0  0  0  0  0  0
  -25.9350  -30.8530   21.4120 C   0  0  0  0  0  2  0  0  0  0  0  0
  -26.0330  -29.4790   20.7850 C   0  0  0  0  0  0  0  0  0  0  0  0
  -27.2390  -28.7450   20.7940 C   0  0  0  0  0  3  0  0  0  0  0  0
  -26.1220  -26.9250   19.6200 C   0  0  0  0  0  3  0  0  0  0  0  0
  -24.9240  -27.6620   19.6040 C   0  0  0  0  0  3  0  0  0  0  0  0
  -23.6350  -29.7880   20.2240 C   0  0  0  0  0  2  0  0  0  0  0  0
  -24.6690  -31.0890   22.1440 N   0  0  0  0  0  0  0  0  0  0  0  0
  -23.5170  -32.1650   23.7720 O   0  0  0  0  0  0  0  0  0  0  0  0
  -22.7600  -29.4600   22.5580 C   0  0  0  0  0  0  0  0  0  0  0  0
  -21.4330  -29.2860   22.4310 N   0  0  0  0  0  0  0  0  0  0  0  0
  -23.4400  -28.8300   23.3730 O   0  0  0  0  0  0  0  0  0  0  0  0
  -20.9490  -29.8420   21.7410 H   0  0  0  0  0  0  0  0  0  0  0  0
  -18.0470  -28.1380   22.9410 C   0  0  0  0  0  0  0  0  0  0  0  0
  -20.6100  -28.3550   23.2010 C   0  0  0  0  0  3  0  0  0  0  0  0
  -20.6880  -26.9280   22.6100 C   0  0  0  0  0  2  0  0  0  0  0  0
  -19.5740  -26.6290   21.6020 C   0  0  0  0  0  2  0  0  0  0  0  0
  -18.2000  -26.7920   22.2550 C   0  0  0  0  0  2  0  0  0  0  0  0
  -19.1800  -28.8800   23.3700 C   0  0  0  0  0  0  0  0  0  0  0  0
  -18.9830  -30.1430   23.9700 C   0  0  0  0  0  3  0  0  0  0  0  0
  -17.6860  -30.6630   24.1450 C   0  0  0  0  0  3  0  0  0  0  0  0
  -16.5680  -29.9160   23.7360 C   0  0  0  0  0  3  0  0  0  0  0  0
  -16.7500  -28.6560   23.1390 C   0  0  0  0  0  3  0  0  0  0  0  0
  -25.8830  -32.5310   23.8700 C   0  0  0  0  0  3  0  0  0  0  0  0
  -25.5680  -33.9280   24.1960 N   0  0  0  0  0  0  0  0  0  0  0  0
  -25.9050  -34.9790   23.4360 C   0  0  0  0  0  0  0  0  0  0  0  0
  -26.5870  -34.8750   22.4120 O   0  0  0  0  0  0  0  0  0  0  0  0
  -24.9600  -34.0830   24.9860 H   0  0  0  0  0  0  0  0  0  0  0  0
  -24.1780  -36.7670   23.0520 C   0  0  0  0  0  1  0  0  0  0  0  0
  -25.4080  -36.3670   23.8840 C   0  0  0  0  0  3  0  0  0  0  0  0
  -27.5290  -37.2550   24.7460 C   0  0  0  0  0  1  0  0  0  0  0  0
  -26.4410  -37.4230   23.7840 N   0  0  0  0  0  0  0  0  0  0  0  0
  -26.0320  -38.3430   23.9250 H   0  0  0  0  0  0  0  0  0  0  0  0
  -26.3980  -31.7580   25.1460 C   0  0  1  0  0  0  0  0  0  0  0  0
  -25.3000  -31.5090   26.2060 C   0  0  0  0  0  1  0  0  0  0  0  0
  -26.9890  -30.3860   24.7510 C   0  0  0  0  0  1  0  0  0  0  0  0
  -27.5450  -32.5540   25.8150 C   0  0  0  0  0  1  0  0  0  0  0  0
  2  1  1  0
  3  4  1  0
  4  1  2  0
  5  2  2  0
  6  3  2  0
  6  5  1  0
  8 13  1  0
  9 10  1  0
  9  8  1  0
 11 10  1  0
 11 24  1  0
 11 12  1  0
 13  7  1  0
 13 12  1  0
 14  7  2  0
 15  4  1  0
 15 16  1  0
 16  7  1  0
 16 18  1  0
 17 20  1  0
 17 15  2  0
 19 17  1  0
 21 22  2  0
 22 41  1  0
 23 22  1  0
 23 26  1  0
 24 21  1  0
 24 25  1  0
 25 23  2  0
 26 27  1  0
 27 28  2  0
 29 32  1  0
 29 28  1  0
 30 29  2  0
 31 30  1  0
 31 26  2  0
 32 33  1  0
 33 34  1  0
 34 35  2  0
 36 35  1  0
 36 40  1  0
 37 36  2  0
 38 33  2  0
 38 37  1  0
 39 38  1  0
 41 42  1  0
 42 45  1  0
 42 44  1  0
 43 41  2  0
 46 47  1  0
 46 21  1  0
 48 46  1  0
 49  6  1  0
 50 49  1  0
 51 49  1  0
 52  5  1  0
 52 54  1  0
 53 52  1  0
 55 54  1  0
 55 57  1  0
 56 55  2  0
 58 57  1  0
 59 70  2  0
 60 58  1  0
 60 65  1  0
 61 69  1  0
 61 71  1  0
 62 68  1  0
 62 64  1  0
 63 69  1  0
 64 65  2  0
 64 63  1  0
 66 60  2  0
 67 66  1  0
 67 62  2  0
 68 61  1  0
 69 59  1  0
 71 73  2  0
 72 71  1  0
 74 72  1  0
 75 84  2  0
 75 80  1  0
 76 72  1  0
 76 80  1  0
 77 76  1  0
 78 79  1  0
 78 77  1  0
 79 75  1  0
 80 81  2  0
 81 82  1  0
 83 82  2  0
 84 83  1  0
 85 59  1  0
 85 86  1  0
 85 95  1  0
 86 89  1  0
 87 91  1  0
 87 86  1  0
 88 87  2  0
 91 90  1  0
 93 91  1  0
 93 94  1  0
 93 92  1  0
 95 98  1  1
 95 96  1  0
 97 95  1  0
M  ISO  4   7 100  16 100  57 101  58 101
M  END
>  <TORSDO>  (3) 
F 21

>  <SCORE>  (3) 
-13.849

>  <name>  (3) 
2

>  <ligand_id>  (3) 
2

>  <original_smiles>  (3) 
[H]c1c([H])c([H])c2c(c1[H])C([H])([H])C([H])([H])C([H])([H])C2([H])N([H])C(=O)C1([H])N(C(=O)C([H])(N([H])C(=O)C([H])(N([H])C([H])([H])[H])C([H])([H])[H])C(C([H])([H])[H])(C([H])([H])[H])C([H])([H])[H])C([H])([H])c2c([H])c(OC([H])([H])C(=O)C([H])([H])N([H])c3c([H])c([H])c(C(N([H])C(=O)N4C([H])([H])C([H])([H])C([H])([H])C([H])(n5nc(-c6c([H])c([H])c(Oc7c([H])c([H])c(F)c([H])c7F)c([H])c6[H])c(C(=O)N([H])[H])c5N([H])[H])C4([H])[H])=[N+]([H])[H])c([H])c3N([H])[H])c([H])c([H])c2C1([H])[H]

>  <smiles>  (3) 
[H]c1c([H])c([H])c2c(c1[H])C([H])([H])C([H])([H])C([H])([H])C2([H])N([H])C(=O)C1([H])N(C(=O)C([H])(N([H])C(=O)C([H])(N([H])C([H])([H])[H])C([H])([H])[H])C(C([H])([H])[H])(C([H])([H])[H])C([H])([H])[H])C([H])([H])c2c([H])c(OC([H])([H])C(=O)C([H])([H])N([H])c3c([H])c([H])c(C(N([H])C(=O)N4C([H])([H])C([H])([H])C([H])([H])C([H])(n5nc(-c6c([H])c([H])c(Oc7c([H])c([H])c(F)c([H])c7F)c([H])c6[H])c(C(=O)N([H])[H])c5N([H])[H])C4([H])[H])=[N+]([H])[H])c([H])c3N([H])[H])c([H])c([H])c2C1([H])[H]

$$$$
3:0:0
     RDKit          3D

 92100  0  0  1  0  0  0  0  0999 V2000
  -30.1540  -21.6960   20.5780 C   0  0  0  0  0  0  0  0  0  0  0  0
  -29.1800  -22.5970   20.2390 N   0  0  0  0  0  0  0  0  0  0  0  0
  -31.2290  -22.1220   21.0090 O   0  0  0  0  0  0  0  0  0  0  0  0
  -28.3030  -22.2470   19.8780 H   0  0  0  0  0  0  0  0  0  0  0  0
  -31.2010  -19.3550   20.3740 C   0  0  0  0  0  3  0  0  0  0  0  0
  -31.1730  -17.9280   20.3800 C   0  0  0  0  0  3  0  0  0  0  0  0
  -28.8010  -19.4450   20.4500 C   0  0  0  0  0  3  0  0  0  0  0  0
  -30.0260  -20.1630   20.4170 C   0  0  0  0  0  0  0  0  0  0  0  0
  -29.9490  -17.2140   20.4350 C   0  0  0  0  0  0  0  0  0  0  0  0
  -28.7700  -18.0130   20.4580 C   0  0  0  0  0  0  0  0  0  0  0  0
  -27.5720  -17.3840   20.5040 F   0  0  0  0  0  0  0  0  0  0  0  0
  -30.5780  -14.7090   20.0550 C   0  0  0  0  0  0  0  0  0  0  0  0
  -30.2750  -12.5140   18.9210 C   0  0  0  0  0  2  0  0  0  0  0  0
  -29.2600  -12.7020   17.7720 C   0  0  0  0  0  2  0  0  0  0  0  0
  -27.8150  -12.5410   18.2850 C   0  0  0  0  0  2  0  0  0  0  0  0
  -27.5450  -13.3600   19.5760 C   0  0  0  0  0  3  0  0  0  0  0  0
  -28.6670  -13.1470   20.6170 C   0  0  0  0  0  2  0  0  0  0  0  0
  -29.9430  -13.4960   19.9730 N   0  0  0  0  0  0  0  0  0  0  0  0
  -31.7180  -14.8600   19.6060 O   0  0  0  0  0  0  0  0  0  0  0  0
  -29.8090  -15.7550   20.4910 N   0  0  0  0  0  0  0  0  0  0  0  0
  -28.9030  -15.4620   20.8260 H   0  0  0  0  0  0  0  0  0  0  0  0
  -25.2020  -13.9640   20.4430 C   0  0  0  0  0  0  0  0  0  0  0  0
  -24.1490  -13.1930   20.8520 C   0  0  0  0  0  0  0  0  0  0  0  0
  -24.5940  -11.8380   20.7620 C   0  0  0  0  0  0  0  0  0  0  0  0
  -26.2230  -13.0800   20.1310 N   0  0  0  0  0  0  0  0  0  0  0  0
  -25.8650  -11.7940   20.3810 N   0  0  0  0  0  0  0  0  0  0  0  0
  -23.8650  -10.5790   20.9610 C   0  0  0  0  0  0  0  0  0  0  0  0
  -24.3100   -9.6050   21.8820 C   0  0  0  0  0  3  0  0  0  0  0  0
  -23.5810   -8.4110   22.0690 C   0  0  0  0  0  3  0  0  0  0  0  0
  -22.3930   -8.1820   21.3370 C   0  0  0  0  0  0  0  0  0  0  0  0
  -21.9650   -9.1450   20.4050 C   0  0  0  0  0  3  0  0  0  0  0  0
  -22.6950  -10.3310   20.2150 C   0  0  0  0  0  3  0  0  0  0  0  0
  -21.6330   -7.0410   21.4330 O   0  0  0  0  0  0  0  0  0  0  0  0
  -21.5640   -6.3210   22.5990 C   0  0  0  0  0  0  0  0  0  0  0  0
  -21.1030   -6.8940   23.8030 C   0  0  0  0  0  3  0  0  0  0  0  0
  -20.9810   -6.0990   24.9610 C   0  0  0  0  0  3  0  0  0  0  0  0
  -21.3110   -4.7320   24.9140 C   0  0  0  0  0  0  0  0  0  0  0  0
  -21.7650   -4.1570   23.7140 C   0  0  0  0  0  3  0  0  0  0  0  0
  -21.8880   -4.9490   22.5580 C   0  0  0  0  0  0  0  0  0  0  0  0
  -22.3050   -4.3860   21.3990 F   0  0  0  0  0  0  0  0  0  0  0  0
  -21.1870   -3.9650   26.0230 F   0  0  0  0  0  0  0  0  0  0  0  0
  -22.7760  -13.6780   21.2170 C   0  0  0  0  0  0  0  0  0  0  0  0
  -22.0920  -12.9670   22.1060 N   0  0  0  0  0  0  0  0  0  0  0  0
  -22.3200  -14.7200   20.7490 O   0  0  0  0  0  0  0  0  0  0  0  0
  -22.4730  -12.1230   22.5070 H   0  0  0  0  0  0  0  0  0  0  0  0
  -21.1720  -13.2740   22.3920 H   0  0  0  0  0  0  0  0  0  0  0  0
  -25.3700  -15.3370   20.2950 N   0  0  0  0  0  0  0  0  0  0  0  0
  -24.6230  -15.9930   20.4960 H   0  0  0  0  0  0  0  0  0  0  0  0
  -26.2270  -15.7990   20.0180 H   0  0  0  0  0  0  0  0  0  0  0  0
  -29.3480  -24.0970   20.3960 C   0  0  0  0  0  3  0  0  0  0  0  0
  -28.1900  -25.0720   19.9160 C   0  0  0  0  0  3  0  0  0  0  0  0
  -28.3700  -26.5270   20.1480 O   0  0  0  0  0  0  0  0  0  0  0  0
  -24.6040  -31.8730   23.1920 C   0  0  0  0  0  0  0  0  0  0  0  0
  -27.2410  -27.3600   20.0970 C   0  0  0  0  0  0  0  0  0  0  0  0
  -23.4070  -30.4820   21.5410 C   0  0  0  0  0  3  0  0  0  0  0  0
  -24.8640  -28.9530   20.1010 C   0  0  0  0  0  0  0  0  0  0  0  0
  -25.9430  -30.8190   21.3560 C   0  0  0  0  0  2  0  0  0  0  0  0
  -26.0300  -29.4460   20.7000 C   0  0  0  0  0  0  0  0  0  0  0  0
  -27.2210  -28.6610   20.6880 C   0  0  0  0  0  3  0  0  0  0  0  0
  -26.0500  -26.9220   19.4710 C   0  0  0  0  0  3  0  0  0  0  0  0
  -24.8760  -27.6960   19.4780 C   0  0  0  0  0  3  0  0  0  0  0  0
  -23.6220  -29.8190   20.1550 C   0  0  0  0  0  2  0  0  0  0  0  0
  -24.6700  -31.0740   22.0870 N   0  0  0  0  0  0  0  0  0  0  0  0
  -23.5200  -32.1410   23.7290 O   0  0  0  0  0  0  0  0  0  0  0  0
  -22.7510  -29.4530   22.4930 C   0  0  0  0  0  0  0  0  0  0  0  0
  -21.4240  -29.2800   22.3730 N   0  0  0  0  0  0  0  0  0  0  0  0
  -23.4340  -28.8160   23.2980 O   0  0  0  0  0  0  0  0  0  0  0  0
  -20.9320  -29.8460   21.6960 H   0  0  0  0  0  0  0  0  0  0  0  0
  -18.0430  -28.1060   22.9010 C   0  0  0  0  0  0  0  0  0  0  0  0
  -20.6070  -28.3350   23.1370 C   0  0  0  0  0  3  0  0  0  0  0  0
  -20.6870  -26.9150   22.5310 C   0  0  0  0  0  2  0  0  0  0  0  0
  -19.5660  -26.6230   21.5290 C   0  0  0  0  0  2  0  0  0  0  0  0
  -18.1950  -26.7690   22.1970 C   0  0  0  0  0  2  0  0  0  0  0  0
  -19.1760  -28.8490   23.3280 C   0  0  0  0  0  0  0  0  0  0  0  0
  -18.9780  -30.1020   23.9480 C   0  0  0  0  0  3  0  0  0  0  0  0
  -17.6810  -30.6130   24.1440 C   0  0  0  0  0  3  0  0  0  0  0  0
  -16.5630  -29.8670   23.7320 C   0  0  0  0  0  3  0  0  0  0  0  0
  -16.7450  -28.6150   23.1170 C   0  0  0  0  0  3  0  0  0  0  0  0
  -25.8840  -32.5060   23.8180 C   0  0  0  0  0  3  0  0  0  0  0  0
  -26.3910  -31.7390   25.1020 C   0  0  1  0  0  0  0  0  0  0  0  0
  -25.2900  -31.5050   26.1620 C   0  0  0  0  0  1  0  0  0  0  0  0
  -26.9770  -30.3610   24.7180 C   0  0  0  0  0  1  0  0  0  0  0  0
  -27.5370  -32.5360   25.7700 C   0  0  0  0  0  1  0  0  0  0  0  0
  -25.5750  -33.9070   24.1420 N   0  0  0  0  0  0  0  0  0  0  0  0
  -25.8980  -34.9550   23.3730 C   0  0  0  0  0  0  0  0  0  0  0  0
  -26.5600  -34.8460   22.3370 O   0  0  0  0  0  0  0  0  0  0  0  0
  -24.9870  -34.0650   24.9470 H   0  0  0  0  0  0  0  0  0  0  0  0
  -24.1610  -36.7400   23.0240 C   0  0  0  0  0  1  0  0  0  0  0  0
  -25.4130  -36.3450   23.8250 C   0  0  0  0  0  3  0  0  0  0  0  0
  -27.5500  -37.2460   24.6320 C   0  0  0  0  0  1  0  0  0  0  0  0
  -26.4410  -37.4010   23.6930 N   0  0  0  0  0  0  0  0  0  0  0  0
  -26.0330  -38.3210   23.8330 H   0  0  0  0  0  0  0  0  0  0  0  0
  1  3  2  0
  2 50  1  0
  2  1  1  0
  4  2  1  0
  5  6  2  0
  5  8  1  0
  6  9  1  0
  7 10  1  0
  8  7  2  0
  8  1  1  0
  9 10  2  0
  9 20  1  0
 10 11  1  0
 12 20  1  0
 13 18  1  0
 14 15  1  0
 14 13  1  0
 16 15  1  0
 16 25  1  0
 16 17  1  0
 18 12  1  0
 18 17  1  0
 19 12  2  0
 20 21  1  0
 22 23  2  0
 23 42  1  0
 24 23  1  0
 24 27  1  0
 25 26  1  0
 25 22  1  0
 26 24  2  0
 27 28  1  0
 28 29  2  0
 30 33  1  0
 30 29  1  0
 31 30  2  0
 32 31  1  0
 32 27  2  0
 33 34  1  0
 34 35  1  0
 35 36  2  0
 37 36  1  0
 37 41  1  0
 38 37  2  0
 39 34  2  0
 39 38  1  0
 40 39  1  0
 42 43  1  0
 43 46  1  0
 43 45  1  0
 44 42  2  0
 47 22  1  0
 47 48  1  0
 49 47  1  0
 51 52  1  0
 51 50  2  0
 53 64  2  0
 54 52  1  0
 54 59  1  0
 55 63  1  0
 55 65  1  0
 56 62  1  0
 56 58  1  0
 57 63  1  0
 58 57  1  0
 59 58  2  0
 60 61  1  0
 60 54  2  0
 61 56  2  0
 62 55  1  0
 63 53  1  0
 65 67  2  0
 66 65  1  0
 68 66  1  0
 69 78  2  0
 69 74  1  0
 70 66  1  0
 70 74  1  0
 71 70  1  0
 72 73  1  0
 72 71  1  0
 73 69  1  0
 74 75  2  0
 75 76  1  0
 77 76  2  0
 78 77  1  0
 79 53  1  0
 79 84  1  0
 79 80  1  0
 80 83  1  1
 80 81  1  0
 82 80  1  0
 84 87  1  0
 85 89  1  0
 85 84  1  0
 86 85  2  0
 89 88  1  0
 91 89  1  0
 91 92  1  0
 91 90  1  0
M  ISO  4  12 100  20 100  51 101  52 101
M  END
>  <TORSDO>  (4) 
F 19

>  <SCORE>  (4) 
-14.373

>  <name>  (4) 
3

>  <ligand_id>  (4) 
3

>  <original_smiles>  (4) 
[H]c1c([H])c([H])c2c(c1[H])C([H])([H])C([H])([H])C([H])([H])C2([H])N([H])C(=O)C1([H])N(C(=O)C([H])(N([H])C(=O)C([H])(N([H])C([H])([H])[H])C([H])([H])[H])C(C([H])([H])[H])(C([H])([H])[H])C([H])([H])[H])C([H])([H])c2c([H])c(OC([H])([H])C([H])([H])N([H])C(=O)c3c([H])c([H])c(N([H])C(=O)N4C([H])([H])C([H])([H])C([H])([H])C([H])(n5nc(-c6c([H])c([H])c(Oc7c([H])c([H])c(F)c([H])c7F)c([H])c6[H])c(C(=O)N([H])[H])c5N([H])[H])C4([H])[H])c(F)c3[H])c([H])c([H])c2C1([H])[H]

>  <smiles>  (4) 
[H]c1c([H])c([H])c2c(c1[H])C([H])([H])C([H])([H])C([H])([H])C2([H])N([H])C(=O)C1([H])N(C(=O)C([H])(N([H])C(=O)C([H])(N([H])C([H])([H])[H])C([H])([H])[H])C(C([H])([H])[H])(C([H])([H])[H])C([H])([H])[H])C([H])([H])c2c([H])c(OC([H])([H])C([H])([H])N([H])C(=O)c3c([H])c([H])c(N([H])C(=O)N4C([H])([H])C([H])([H])C([H])([H])C([H])(n5nc(-c6c([H])c([H])c(Oc7c([H])c([H])c(F)c([H])c7F)c([H])c6[H])c(C(=O)N([H])[H])c5N([H])[H])C4([H])[H])c(F)c3[H])c([H])c([H])c2C1([H])[H]

$$$$
4:0:0
     RDKit          3D

 90 98  0  0  1  0  0  0  0  0999 V2000
  -29.3280  -23.3270   21.0070 C   0  0  0  0  0  0  0  0  0  0  0  0
  -29.7080  -21.9960   21.1090 N   0  0  0  0  0  0  0  0  0  0  0  0
  -29.6150  -24.0630   21.9520 O   0  0  0  0  0  0  0  0  0  0  0  0
  -30.3650  -21.9090   21.8700 H   0  0  0  0  0  0  0  0  0  0  0  0
  -28.2660  -18.8850   19.9690 C   0  0  0  0  0  3  0  0  0  0  0  0
  -28.1820  -20.3220   20.0840 C   0  0  0  0  0  3  0  0  0  0  0  0
  -29.5010  -18.4540   20.4030 C   0  0  0  0  0  0  0  0  0  0  0  0
  -29.3750  -20.7400   20.6070 C   0  0  0  0  0  0  0  0  0  0  0  0
  -30.1820  -19.6110   20.8100 O   0  0  0  0  0  0  0  0  0  0  0  0
  -30.2180  -17.1130   20.4920 C   0  0  0  0  0  3  0  0  0  0  0  0
  -29.7270  -15.8920   20.5400 N   0  0  0  0  0  0  0  0  0  0  0  0
  -30.5790  -14.7480   20.3580 C   0  0  0  0  0  0  0  0  0  0  0  0
  -30.3950  -12.4620   19.3790 C   0  0  0  0  0  2  0  0  0  0  0  0
  -29.4690  -12.5470   18.1440 C   0  0  0  0  0  2  0  0  0  0  0  0
  -27.9920  -12.3810   18.5550 C   0  0  0  0  0  2  0  0  0  0  0  0
  -27.6080  -13.2720   19.7660 C   0  0  0  0  0  3  0  0  0  0  0  0
  -28.6540  -13.1810   20.8950 C   0  0  0  0  0  2  0  0  0  0  0  0
  -29.9680  -13.5150   20.3280 N   0  0  0  0  0  0  0  0  0  0  0  0
  -31.7730  -14.8140   20.0560 O   0  0  0  0  0  0  0  0  0  0  0  0
  -25.2110  -13.8650   20.4660 C   0  0  0  0  0  0  0  0  0  0  0  0
  -24.1430  -13.0930   20.8340 C   0  0  0  0  0  0  0  0  0  0  0  0
  -24.6110  -11.7430   20.8260 C   0  0  0  0  0  0  0  0  0  0  0  0
  -26.2600  -12.9870   20.2490 N   0  0  0  0  0  0  0  0  0  0  0  0
  -25.9050  -11.7050   20.5290 N   0  0  0  0  0  0  0  0  0  0  0  0
  -23.8860  -10.4820   21.0270 C   0  0  0  0  0  0  0  0  0  0  0  0
  -24.3250   -9.5160   21.9600 C   0  0  0  0  0  3  0  0  0  0  0  0
  -23.6010   -8.3200   22.1470 C   0  0  0  0  0  3  0  0  0  0  0  0
  -22.4220   -8.0790   21.4030 C   0  0  0  0  0  0  0  0  0  0  0  0
  -22.0010   -9.0320   20.4590 C   0  0  0  0  0  3  0  0  0  0  0  0
  -22.7270  -10.2200   20.2690 C   0  0  0  0  0  3  0  0  0  0  0  0
  -21.6670   -6.9350   21.4990 O   0  0  0  0  0  0  0  0  0  0  0  0
  -21.6440   -6.1840   22.6470 C   0  0  0  0  0  0  0  0  0  0  0  0
  -21.2590   -6.7340   23.8890 C   0  0  0  0  0  3  0  0  0  0  0  0
  -21.1810   -5.9100   25.0290 C   0  0  0  0  0  3  0  0  0  0  0  0
  -21.4770   -4.5380   24.9300 C   0  0  0  0  0  0  0  0  0  0  0  0
  -21.8530   -3.9870   23.6930 C   0  0  0  0  0  3  0  0  0  0  0  0
  -21.9330   -4.8070   22.5540 C   0  0  0  0  0  0  0  0  0  0  0  0
  -22.2770   -4.2680   21.3590 F   0  0  0  0  0  0  0  0  0  0  0  0
  -21.3940   -3.7440   26.0240 F   0  0  0  0  0  0  0  0  0  0  0  0
  -22.7420  -13.5700   21.0850 C   0  0  0  0  0  0  0  0  0  0  0  0
  -22.0100  -12.8860   21.9560 N   0  0  0  0  0  0  0  0  0  0  0  0
  -22.3050  -14.5850   20.5450 O   0  0  0  0  0  0  0  0  0  0  0  0
  -22.3740  -12.0650   22.4160 H   0  0  0  0  0  0  0  0  0  0  0  0
  -21.0680  -13.1880   22.1670 H   0  0  0  0  0  0  0  0  0  0  0  0
  -25.3770  -15.2340   20.2760 N   0  0  0  0  0  0  0  0  0  0  0  0
  -24.6210  -15.9000   20.3860 H   0  0  0  0  0  0  0  0  0  0  0  0
  -26.2530  -15.6640   20.0050 H   0  0  0  0  0  0  0  0  0  0  0  0
  -28.6610  -23.8670   19.8040 C   0  0  0  0  0  3  0  0  0  0  0  0
  -28.2700  -25.1700   19.5130 C   0  0  0  0  0  3  0  0  0  0  0  0
  -28.3120  -26.4040   20.2170 O   0  0  0  0  0  0  0  0  0  0  0  0
  -24.6220  -31.8780   23.2500 C   0  0  0  0  0  0  0  0  0  0  0  0
  -27.2130  -27.2980   20.1560 C   0  0  0  0  0  0  0  0  0  0  0  0
  -23.4110  -30.4850   21.6150 C   0  0  0  0  0  3  0  0  0  0  0  0
  -24.8520  -28.9430   20.1730 C   0  0  0  0  0  0  0  0  0  0  0  0
  -25.9540  -30.7940   21.4200 C   0  0  0  0  0  2  0  0  0  0  0  0
  -26.0300  -29.4170   20.7640 C   0  0  0  0  0  0  0  0  0  0  0  0
  -27.2110  -28.6080   20.7460 C   0  0  0  0  0  3  0  0  0  0  0  0
  -25.9960  -26.8840   19.5620 C   0  0  0  0  0  3  0  0  0  0  0  0
  -24.8400  -27.6820   19.5640 C   0  0  0  0  0  3  0  0  0  0  0  0
  -23.6180  -29.8190   20.2310 C   0  0  0  0  0  2  0  0  0  0  0  0
  -24.6830  -31.0700   22.1510 N   0  0  0  0  0  0  0  0  0  0  0  0
  -23.5420  -32.1540   23.7900 O   0  0  0  0  0  0  0  0  0  0  0  0
  -22.7530  -29.4630   22.5750 C   0  0  0  0  0  0  0  0  0  0  0  0
  -21.4260  -29.2830   22.4530 N   0  0  0  0  0  0  0  0  0  0  0  0
  -23.4360  -28.8370   23.3890 O   0  0  0  0  0  0  0  0  0  0  0  0
  -20.9340  -29.8400   21.7690 H   0  0  0  0  0  0  0  0  0  0  0  0
  -18.0550  -28.0670   22.9540 C   0  0  0  0  0  0  0  0  0  0  0  0
  -20.6120  -28.3440   23.2260 C   0  0  0  0  0  3  0  0  0  0  0  0
  -20.7230  -26.9110   22.6540 C   0  0  0  0  0  2  0  0  0  0  0  0
  -19.6240  -26.5790   21.6400 C   0  0  0  0  0  2  0  0  0  0  0  0
  -18.2410  -26.7170   22.2830 C   0  0  0  0  0  2  0  0  0  0  0  0
  -19.1690  -28.8380   23.3830 C   0  0  0  0  0  0  0  0  0  0  0  0
  -18.9420  -30.1010   23.9720 C   0  0  0  0  0  3  0  0  0  0  0  0
  -17.6340  -30.5940   24.1350 C   0  0  0  0  0  3  0  0  0  0  0  0
  -16.5340  -29.8220   23.7230 C   0  0  0  0  0  3  0  0  0  0  0  0
  -16.7460  -28.5590   23.1380 C   0  0  0  0  0  3  0  0  0  0  0  0
  -25.9070  -32.5100   23.8660 C   0  0  0  0  0  3  0  0  0  0  0  0
  -26.4290  -31.7380   25.1400 C   0  0  1  0  0  0  0  0  0  0  0  0
  -25.3400  -31.5030   26.2140 C   0  0  0  0  0  1  0  0  0  0  0  0
  -27.0070  -30.3600   24.7480 C   0  0  0  0  0  1  0  0  0  0  0  0
  -27.5830  -32.5310   25.7960 C   0  0  0  0  0  1  0  0  0  0  0  0
  -25.5970  -33.9080   24.2010 N   0  0  0  0  0  0  0  0  0  0  0  0
  -25.9180  -34.9630   23.4400 C   0  0  0  0  0  0  0  0  0  0  0  0
  -26.5750  -34.8620   22.3990 O   0  0  0  0  0  0  0  0  0  0  0  0
  -25.0130  -34.0610   25.0090 H   0  0  0  0  0  0  0  0  0  0  0  0
  -24.1770  -36.7510   23.1150 C   0  0  0  0  0  1  0  0  0  0  0  0
  -25.4340  -36.3500   23.9050 C   0  0  0  0  0  3  0  0  0  0  0  0
  -27.5810  -37.2420   24.6960 C   0  0  0  0  0  1  0  0  0  0  0  0
  -26.4600  -37.4070   23.7730 N   0  0  0  0  0  0  0  0  0  0  0  0
  -26.0540  -38.3260   23.9280 H   0  0  0  0  0  0  0  0  0  0  0  0
  1  2  1  0
  1  3  2  0
  2  4  1  0
  5  6  1  0
  5  7  2  0
  6  8  2  0
  7 10  1  0
  7  9  1  0
  8  9  1  0
  8  2  1  0
 10 11  2  0
 12 11  1  0
 13 18  1  0
 14 15  1  0
 14 13  1  0
 16 15  1  0
 16 23  1  0
 16 17  1  0
 18 12  1  0
 18 17  1  0
 19 12  2  0
 20 21  2  0
 21 40  1  0
 22 21  1  0
 22 25  1  0
 23 20  1  0
 23 24  1  0
 24 22  2  0
 25 26  1  0
 26 27  2  0
 28 31  1  0
 28 27  1  0
 29 28  2  0
 30 29  1  0
 30 25  2  0
 31 32  1  0
 32 33  1  0
 33 34  2  0
 35 34  1  0
 35 39  1  0
 36 35  2  0
 37 32  2  0
 37 36  1  0
 38 37  1  0
 40 41  1  0
 41 44  1  0
 41 43  1  0
 42 40  2  0
 45 46  1  0
 45 20  1  0
 47 45  1  0
 48  1  1  0
 49 48  2  0
 49 50  1  0
 51 62  2  0
 52 50  1  0
 52 57  1  0
 53 61  1  0
 53 63  1  0
 54 60  1  0
 54 56  1  0
 55 61  1  0
 56 55  1  0
 57 56  2  0
 58 59  1  0
 58 52  2  0
 59 54  2  0
 60 53  1  0
 61 51  1  0
 63 65  2  0
 64 63  1  0
 66 64  1  0
 67 76  2  0
 67 72  1  0
 68 64  1  0
 68 72  1  0
 69 68  1  0
 70 71  1  0
 70 69  1  0
 71 67  1  0
 72 73  2  0
 73 74  1  0
 75 74  2  0
 76 75  1  0
 77 51  1  0
 77 82  1  0
 77 78  1  0
 78 81  1  1
 78 79  1  0
 80 78  1  0
 82 85  1  0
 83 87  1  0
 83 82  1  0
 84 83  2  0
 87 86  1  0
 89 87  1  0
 89 90  1  0
 89 88  1  0
M  ISO  4  11 100  12 100  49 101  50 101
M  END
>  <TORSDO>  (5) 
F 19

>  <SCORE>  (5) 
-14.355

>  <name>  (5) 
4

>  <ligand_id>  (5) 
4

>  <original_smiles>  (5) 
[H]C(=NC(=O)N1C([H])([H])C([H])([H])C([H])([H])C([H])(n2nc(-c3c([H])c([H])c(Oc4c([H])c([H])c(F)c([H])c4F)c([H])c3[H])c(C(=O)N([H])[H])c2N([H])[H])C1([H])[H])c1oc(N([H])C(=O)C([H])=C([H])Oc2c([H])c([H])c3c(c2[H])C([H])([H])N(C(=O)C([H])(N([H])C(=O)C([H])(N([H])C([H])([H])[H])C([H])([H])[H])C(C([H])([H])[H])(C([H])([H])[H])C([H])([H])[H])C([H])(C(=O)N([H])C2([H])c4c([H])c([H])c([H])c([H])c4C([H])([H])C([H])([H])C2([H])[H])C3([H])[H])c([H])c1[H]

>  <smiles>  (5) 
[H]C(=NC(=O)N1C([H])([H])C([H])([H])C([H])([H])C([H])(n2nc(-c3c([H])c([H])c(Oc4c([H])c([H])c(F)c([H])c4F)c([H])c3[H])c(C(=O)N([H])[H])c2N([H])[H])C1([H])[H])c1oc(N([H])C(=O)C([H])=C([H])Oc2c([H])c([H])c3c(c2[H])C([H])([H])N(C(=O)C([H])(N([H])C(=O)C([H])(N([H])C([H])([H])[H])C([H])([H])[H])C(C([H])([H])[H])(C([H])([H])[H])C([H])([H])[H])C([H])(C(=O)N([H])C2([H])c4c([H])c([H])c([H])c([H])c4C([H])([H])C([H])([H])C2([H])[H])C3([H])[H])c([H])c1[H]

$$$$
5:0:0
     RDKit          3D

 95104  0  0  1  0  0  0  0  0999 V2000
  -30.3780  -23.9530   20.6310 C   0  0  0  0  0  3  0  0  0  0  0  0
  -28.7290  -22.4930   20.4160 C   0  0  0  0  0  3  0  0  0  0  0  0
  -28.9850  -23.8650   20.3870 C   0  0  0  0  0  0  0  0  0  0  0  0
  -30.8730  -22.6860   20.8140 C   0  0  0  0  0  0  0  0  0  0  0  0
  -29.8900  -21.7040   20.6200 N   0  0  0  0  0  0  0  0  0  0  0  0
  -28.9870  -19.4650   19.8990 C   0  0  0  0  0  3  0  0  0  0  0  0
  -30.9630  -17.9640   21.1650 C   0  0  0  0  0  3  0  0  0  0  0  0
  -28.9860  -18.0380   19.8180 C   0  0  0  0  0  0  0  0  0  0  0  0
  -29.9710  -20.2160   20.6050 C   0  0  0  0  0  0  0  0  0  0  0  0
  -29.9330  -17.2350   20.5170 C   0  0  0  0  0  0  0  0  0  0  0  0
  -30.9920  -19.3990   21.2080 C   0  0  0  0  0  0  0  0  0  0  0  0
  -27.9820  -17.3820   18.8890 C   0  0  0  0  0  1  0  0  0  0  0  0
  -32.0290  -19.9440   21.8840 F   0  0  0  0  0  0  0  0  0  0  0  0
  -30.5740  -14.6920   20.5420 C   0  0  0  0  0  0  0  0  0  0  0  0
  -30.3720  -12.4150   19.5570 C   0  0  0  0  0  2  0  0  0  0  0  0
  -29.4590  -12.5030   18.3110 C   0  0  0  0  0  2  0  0  0  0  0  0
  -27.9750  -12.3570   18.6970 C   0  0  0  0  0  2  0  0  0  0  0  0
  -27.5760  -13.2530   19.8990 C   0  0  0  0  0  3  0  0  0  0  0  0
  -28.6110  -13.1790   21.0470 C   0  0  0  0  0  2  0  0  0  0  0  0
  -29.9420  -13.4770   20.4860 N   0  0  0  0  0  0  0  0  0  0  0  0
  -31.7770  -14.8100   20.2940 O   0  0  0  0  0  0  0  0  0  0  0  0
  -29.7410  -15.7770   20.6010 N   0  0  0  0  0  0  0  0  0  0  0  0
  -28.7780  -15.4830   20.5900 H   0  0  0  0  0  0  0  0  0  0  0  0
  -25.1670  -13.8500   20.5700 C   0  0  0  0  0  0  0  0  0  0  0  0
  -24.0930  -13.0820   20.9190 C   0  0  0  0  0  0  0  0  0  0  0  0
  -24.5570  -11.7310   20.9120 C   0  0  0  0  0  0  0  0  0  0  0  0
  -26.2200  -12.9720   20.3640 N   0  0  0  0  0  0  0  0  0  0  0  0
  -25.8570  -11.6920   20.6360 N   0  0  0  0  0  0  0  0  0  0  0  0
  -23.8230  -10.4720   21.0940 C   0  0  0  0  0  0  0  0  0  0  0  0
  -24.2370   -9.5020   22.0350 C   0  0  0  0  0  3  0  0  0  0  0  0
  -23.5030   -8.3070   22.2020 C   0  0  0  0  0  3  0  0  0  0  0  0
  -22.3420   -8.0750   21.4280 C   0  0  0  0  0  0  0  0  0  0  0  0
  -21.9460   -9.0320   20.4740 C   0  0  0  0  0  3  0  0  0  0  0  0
  -22.6810  -10.2180   20.3080 C   0  0  0  0  0  3  0  0  0  0  0  0
  -21.5820   -6.9340   21.5080 O   0  0  0  0  0  0  0  0  0  0  0  0
  -21.5260   -6.1810   22.6530 C   0  0  0  0  0  0  0  0  0  0  0  0
  -21.0940   -6.7280   23.8810 C   0  0  0  0  0  3  0  0  0  0  0  0
  -20.9860   -5.9050   25.0190 C   0  0  0  0  0  3  0  0  0  0  0  0
  -21.2990   -4.5350   24.9300 C   0  0  0  0  0  0  0  0  0  0  0  0
  -21.7220   -3.9860   23.7060 C   0  0  0  0  0  3  0  0  0  0  0  0
  -21.8300   -4.8080   22.5690 C   0  0  0  0  0  0  0  0  0  0  0  0
  -22.2210   -4.2730   21.3870 F   0  0  0  0  0  0  0  0  0  0  0  0
  -21.1840   -3.7400   26.0190 F   0  0  0  0  0  0  0  0  0  0  0  0
  -22.6880  -13.5620   21.1510 C   0  0  0  0  0  0  0  0  0  0  0  0
  -21.9370  -12.8790   22.0050 N   0  0  0  0  0  0  0  0  0  0  0  0
  -22.2670  -14.5800   20.6030 O   0  0  0  0  0  0  0  0  0  0  0  0
  -22.2910  -12.0540   22.4650 H   0  0  0  0  0  0  0  0  0  0  0  0
  -20.9980  -13.1900   22.2020 H   0  0  0  0  0  0  0  0  0  0  0  0
  -25.3280  -15.2220   20.3880 N   0  0  0  0  0  0  0  0  0  0  0  0
  -24.5440  -15.8620   20.4440 H   0  0  0  0  0  0  0  0  0  0  0  0
  -26.1710  -15.6600   20.0470 H   0  0  0  0  0  0  0  0  0  0  0  0
  -32.1540  -22.3980   21.1450 O   0  0  0  0  0  0  0  0  0  0  0  0
  -32.5350  -23.2120   21.4660 H   0  0  0  0  0  0  0  0  0  0  0  0
  -27.9530  -25.0060   20.1170 C   0  0  0  0  0  2  0  0  0  0  0  0
  -28.2770  -26.4490   20.2680 O   0  0  0  0  0  0  0  0  0  0  0  0
  -24.6160  -31.9070   23.2800 C   0  0  0  0  0  0  0  0  0  0  0  0
  -27.1810  -27.3330   20.2050 C   0  0  0  0  0  0  0  0  0  0  0  0
  -23.3950  -30.5260   21.6400 C   0  0  0  0  0  3  0  0  0  0  0  0
  -24.8280  -28.9760   20.2050 C   0  0  0  0  0  0  0  0  0  0  0  0
  -25.9360  -30.8320   21.4370 C   0  0  0  0  0  2  0  0  0  0  0  0
  -26.0070  -29.4520   20.7910 C   0  0  0  0  0  0  0  0  0  0  0  0
  -27.1900  -28.6490   20.7710 C   0  0  0  0  0  3  0  0  0  0  0  0
  -25.9640  -26.9170   19.6030 C   0  0  0  0  0  3  0  0  0  0  0  0
  -24.8080  -27.7160   19.6030 C   0  0  0  0  0  3  0  0  0  0  0  0
  -23.6040  -29.8650   20.2550 C   0  0  0  0  0  2  0  0  0  0  0  0
  -24.6700  -31.1020   22.1770 N   0  0  0  0  0  0  0  0  0  0  0  0
  -23.5370  -32.1910   23.8210 O   0  0  0  0  0  0  0  0  0  0  0  0
  -22.7240  -29.5080   22.5960 C   0  0  0  0  0  0  0  0  0  0  0  0
  -21.3950  -29.3430   22.4750 N   0  0  0  0  0  0  0  0  0  0  0  0
  -23.3990  -28.8710   23.4090 O   0  0  0  0  0  0  0  0  0  0  0  0
  -20.9060  -29.9170   21.8020 H   0  0  0  0  0  0  0  0  0  0  0  0
  -18.0120  -28.1490   22.9650 C   0  0  0  0  0  0  0  0  0  0  0  0
  -20.5710  -28.4090   23.2470 C   0  0  0  0  0  3  0  0  0  0  0  0
  -20.6720  -26.9730   22.6820 C   0  0  0  0  0  2  0  0  0  0  0  0
  -19.5750  -26.6450   21.6650 C   0  0  0  0  0  2  0  0  0  0  0  0
  -18.1890  -26.7950   22.2970 C   0  0  0  0  0  2  0  0  0  0  0  0
  -19.1300  -28.9120   23.3970 C   0  0  0  0  0  0  0  0  0  0  0  0
  -18.9090  -30.1770   23.9830 C   0  0  0  0  0  3  0  0  0  0  0  0
  -17.6050  -30.6840   24.1350 C   0  0  0  0  0  3  0  0  0  0  0  0
  -16.5020  -29.9210   23.7150 C   0  0  0  0  0  3  0  0  0  0  0  0
  -16.7060  -28.6540   23.1390 C   0  0  0  0  0  3  0  0  0  0  0  0
  -25.9050  -32.5300   23.8960 C   0  0  0  0  0  3  0  0  0  0  0  0
  -26.4180  -31.7500   25.1690 C   0  0  1  0  0  0  0  0  0  0  0  0
  -25.3250  -31.5160   26.2380 C   0  0  0  0  0  1  0  0  0  0  0  0
  -26.9900  -30.3710   24.7690 C   0  0  0  0  0  1  0  0  0  0  0  0
  -27.5750  -32.5290   25.8350 C   0  0  0  0  0  1  0  0  0  0  0  0
  -25.6060  -33.9300   24.2300 N   0  0  0  0  0  0  0  0  0  0  0  0
  -25.9200  -34.9810   23.4600 C   0  0  0  0  0  0  0  0  0  0  0  0
  -26.5640  -34.8720   22.4130 O   0  0  0  0  0  0  0  0  0  0  0  0
  -25.0270  -34.0850   25.0430 H   0  0  0  0  0  0  0  0  0  0  0  0
  -24.1810  -36.7720   23.1540 C   0  0  0  0  0  1  0  0  0  0  0  0
  -25.4470  -36.3710   23.9250 C   0  0  0  0  0  3  0  0  0  0  0  0
  -27.6070  -37.2650   24.6770 C   0  0  0  0  0  1  0  0  0  0  0  0
  -26.4720  -37.4250   23.7720 N   0  0  0  0  0  0  0  0  0  0  0  0
  -26.0690  -38.3440   23.9320 H   0  0  0  0  0  0  0  0  0  0  0  0
  1  4  2  0
  2  5  1  0
  3  2  2  0
  3  1  1  0
  4 52  1  0
  5  4  1  0
  6  9  1  0
  7 11  1  0
  8  6  2  0
  8 10  1  0
  9  5  1  0
  9 11  2  0
 10 22  1  0
 10  7  2  0
 11 13  1  0
 12  8  1  0
 14 22  1  0
 15 20  1  0
 16 17  1  0
 16 15  1  0
 18 17  1  0
 18 27  1  0
 18 19  1  0
 20 14  1  0
 20 19  1  0
 21 14  2  0
 23 22  1  0
 24 25  2  0
 25 44  1  0
 26 25  1  0
 26 29  1  0
 27 24  1  0
 27 28  1  0
 28 26  2  0
 29 30  1  0
 30 31  2  0
 32 35  1  0
 32 31  1  0
 33 32  2  0
 34 33  1  0
 34 29  2  0
 35 36  1  0
 36 37  1  0
 37 38  2  0
 39 38  1  0
 39 43  1  0
 40 39  2  0
 41 36  2  0
 41 40  1  0
 42 41  1  0
 44 45  1  0
 45 48  1  0
 45 47  1  0
 46 44  2  0
 49 50  1  0
 49 24  1  0
 51 49  1  0
 52 53  1  0
 54 55  1  0
 54  3  1  0
 56 67  2  0
 57 55  1  0
 57 62  1  0
 58 66  1  0
 58 68  1  0
 59 65  1  0
 59 61  1  0
 60 66  1  0
 61 60  1  0
 62 61  2  0
 63 64  1  0
 63 57  2  0
 64 59  2  0
 65 58  1  0
 66 56  1  0
 68 70  2  0
 69 68  1  0
 71 69  1  0
 72 81  2  0
 72 77  1  0
 73 69  1  0
 73 77  1  0
 74 73  1  0
 75 76  1  0
 75 74  1  0
 76 72  1  0
 77 78  2  0
 78 79  1  0
 80 79  2  0
 81 80  1  0
 82 56  1  0
 82 87  1  0
 82 83  1  0
 83 86  1  1
 83 84  1  0
 85 83  1  0
 87 90  1  0
 88 92  1  0
 88 87  1  0
 89 88  2  0
 92 91  1  0
 94 92  1  0
 94 95  1  0
 94 93  1  0
M  ISO  4  14 100  22 100  54 101  55 101
M  END
>  <TORSDO>  (6) 
F 19

>  <SCORE>  (6) 
-15.068

>  <name>  (6) 
5

>  <ligand_id>  (6) 
5

>  <original_smiles>  (6) 
[H]Oc1c([H])c(C([H])([H])Oc2c([H])c([H])c3c(c2[H])C([H])([H])N(C(=O)C([H])(N([H])C(=O)C([H])(N([H])C([H])([H])[H])C([H])([H])[H])C(C([H])([H])[H])(C([H])([H])[H])C([H])([H])[H])C([H])(C(=O)N([H])C2([H])c4c([H])c([H])c([H])c([H])c4C([H])([H])C([H])([H])C2([H])[H])C3([H])[H])c([H])n1-c1c([H])c(C([H])([H])[H])c(N([H])C(=O)N2C([H])([H])C([H])([H])C([H])([H])C([H])(n3nc(-c4c([H])c([H])c(Oc5c([H])c([H])c(F)c([H])c5F)c([H])c4[H])c(C(=O)N([H])[H])c3N([H])[H])C2([H])[H])c([H])c1F

>  <smiles>  (6) 
[H]Oc1c([H])c(C([H])([H])Oc2c([H])c([H])c3c(c2[H])C([H])([H])N(C(=O)C([H])(N([H])C(=O)C([H])(N([H])C([H])([H])[H])C([H])([H])[H])C(C([H])([H])[H])(C([H])([H])[H])C([H])([H])[H])C([H])(C(=O)N([H])C2([H])c4c([H])c([H])c([H])c([H])c4C([H])([H])C([H])([H])C2([H])[H])C3([H])[H])c([H])n1-c1c([H])c(C([H])([H])[H])c(N([H])C(=O)N2C([H])([H])C([H])([H])C([H])([H])C([H])(n3nc(-c4c([H])c([H])c(Oc5c([H])c([H])c(F)c([H])c5F)c([H])c4[H])c(C(=O)N([H])[H])c3N([H])[H])C2([H])[H])c([H])c1F

$$$$
6:0:0
     RDKit          3D

 94103  0  0  1  0  0  0  0  0999 V2000
  -27.8470  -23.4860   21.0380 C   0  0  0  0  0  3  0  0  0  0  0  0
  -28.5570  -23.8900   19.8700 C   0  0  0  0  0  0  0  0  0  0  0  0
  -29.1780  -22.7040   19.4330 C   0  0  0  0  0  0  0  0  0  0  0  0
  -28.0550  -22.1450   21.2500 C   0  0  0  0  0  0  0  0  0  0  0  0
  -30.0550  -22.4960   18.2390 C   0  0  0  0  0  1  0  0  0  0  0  0
  -28.8880  -21.5960   20.2800 N   0  0  0  0  0  0  0  0  0  0  0  0
  -30.1460  -19.6760   21.3030 C   0  0  0  0  0  3  0  0  0  0  0  0
  -28.9610  -19.2030   19.2850 C   0  0  0  0  0  3  0  0  0  0  0  0
  -30.4990  -18.2980   21.4140 C   0  0  0  0  0  3  0  0  0  0  0  0
  -29.3230  -17.8080   19.3920 C   0  0  0  0  0  3  0  0  0  0  0  0
  -29.3410  -20.1840   20.2520 C   0  0  0  0  0  0  0  0  0  0  0  0
  -30.0880  -17.2920   20.4840 C   0  0  0  0  0  0  0  0  0  0  0  0
  -30.8360  -14.8640   19.9040 C   0  0  0  0  0  0  0  0  0  0  0  0
  -30.5190  -12.6340   18.7920 C   0  0  0  0  0  2  0  0  0  0  0  0
  -29.4630  -12.7250   17.6690 C   0  0  0  0  0  2  0  0  0  0  0  0
  -28.0460  -12.5200   18.2350 C   0  0  0  0  0  2  0  0  0  0  0  0
  -27.7890  -13.3840   19.4960 C   0  0  0  0  0  3  0  0  0  0  0  0
  -28.9420  -13.2600   20.5090 C   0  0  0  0  0  2  0  0  0  0  0  0
  -30.1880  -13.6460   19.8250 N   0  0  0  0  0  0  0  0  0  0  0  0
  -31.8630  -15.0570   19.2430 O   0  0  0  0  0  0  0  0  0  0  0  0
  -30.5970  -15.5180   22.1800 C   0  0  0  0  0  1  0  0  0  0  0  0
  -30.3500  -15.8430   20.7620 N   0  0  0  0  0  0  0  0  0  0  0  0
  -25.5250  -13.9560   20.5580 C   0  0  0  0  0  0  0  0  0  0  0  0
  -24.4840  -13.1730   20.9790 C   0  0  0  0  0  0  0  0  0  0  0  0
  -24.8950  -11.8220   20.7630 C   0  0  0  0  0  0  0  0  0  0  0  0
  -26.5000  -13.0810   20.1110 N   0  0  0  0  0  0  0  0  0  0  0  0
  -26.1350  -11.7860   20.2950 N   0  0  0  0  0  0  0  0  0  0  0  0
  -24.1540  -10.5630   20.9200 C   0  0  0  0  0  0  0  0  0  0  0  0
  -24.6080   -9.5400   21.7810 C   0  0  0  0  0  3  0  0  0  0  0  0
  -23.8700   -8.3470   21.9280 C   0  0  0  0  0  3  0  0  0  0  0  0
  -22.6610   -8.1680   21.2110 C   0  0  0  0  0  0  0  0  0  0  0  0
  -22.2250   -9.1800   20.3390 C   0  0  0  0  0  3  0  0  0  0  0  0
  -22.9650  -10.3660   20.1900 C   0  0  0  0  0  3  0  0  0  0  0  0
  -21.8900   -7.0330   21.2710 O   0  0  0  0  0  0  0  0  0  0  0  0
  -21.8060   -6.2790   22.4140 C   0  0  0  0  0  0  0  0  0  0  0  0
  -21.3480   -6.8230   23.6340 C   0  0  0  0  0  3  0  0  0  0  0  0
  -21.2120   -5.9950   24.7680 C   0  0  0  0  0  3  0  0  0  0  0  0
  -21.5220   -4.6250   24.6810 C   0  0  0  0  0  0  0  0  0  0  0  0
  -21.9710   -4.0800   23.4640 C   0  0  0  0  0  3  0  0  0  0  0  0
  -22.1100   -4.9050   22.3340 C   0  0  0  0  0  0  0  0  0  0  0  0
  -22.5220   -4.3700   21.1590 F   0  0  0  0  0  0  0  0  0  0  0  0
  -21.3850   -3.8280   25.7660 F   0  0  0  0  0  0  0  0  0  0  0  0
  -23.1460  -13.6510   21.4660 C   0  0  0  0  0  0  0  0  0  0  0  0
  -22.5210  -12.9050   22.3700 N   0  0  0  0  0  0  0  0  0  0  0  0
  -22.6700  -14.7180   21.0810 O   0  0  0  0  0  0  0  0  0  0  0  0
  -22.9220  -12.0400   22.7000 H   0  0  0  0  0  0  0  0  0  0  0  0
  -21.6290  -13.2040   22.7380 H   0  0  0  0  0  0  0  0  0  0  0  0
  -25.7160  -15.3340   20.4970 N   0  0  0  0  0  0  0  0  0  0  0  0
  -25.0020  -15.9950   20.7800 H   0  0  0  0  0  0  0  0  0  0  0  0
  -26.5510  -15.7790   20.1400 H   0  0  0  0  0  0  0  0  0  0  0  0
  -27.5440  -21.3670   22.2410 O   0  0  0  0  0  0  0  0  0  0  0  0
  -26.9220  -21.8960   22.7310 H   0  0  0  0  0  0  0  0  0  0  0  0
  -28.5440  -25.3290   19.1880 C   0  0  0  0  0  2  0  0  0  0  0  0
  -28.4080  -26.5940   19.9680 O   0  0  0  0  0  0  0  0  0  0  0  0
  -24.6940  -31.9310   23.1310 C   0  0  0  0  0  0  0  0  0  0  0  0
  -27.2680  -27.4220   19.9340 C   0  0  0  0  0  0  0  0  0  0  0  0
  -23.4590  -30.5350   21.5120 C   0  0  0  0  0  3  0  0  0  0  0  0
  -24.8840  -29.0210   20.0180 C   0  0  0  0  0  0  0  0  0  0  0  0
  -25.9890  -30.8850   21.2540 C   0  0  0  0  0  2  0  0  0  0  0  0
  -26.0640  -29.5140   20.5880 C   0  0  0  0  0  0  0  0  0  0  0  0
  -27.2540  -28.7230   20.5380 C   0  0  0  0  0  3  0  0  0  0  0  0
  -26.0560  -26.9840   19.3530 C   0  0  0  0  0  3  0  0  0  0  0  0
  -24.8840  -27.7640   19.3940 C   0  0  0  0  0  3  0  0  0  0  0  0
  -23.6380  -29.8780   20.1170 C   0  0  0  0  0  2  0  0  0  0  0  0
  -24.7350  -31.1350   22.0210 N   0  0  0  0  0  0  0  0  0  0  0  0
  -23.6230  -32.1870   23.7010 O   0  0  0  0  0  0  0  0  0  0  0  0
  -22.8390  -29.4990   22.4800 C   0  0  0  0  0  0  0  0  0  0  0  0
  -21.5180  -29.2800   22.3690 N   0  0  0  0  0  0  0  0  0  0  0  0
  -23.5470  -28.8950   23.2910 O   0  0  0  0  0  0  0  0  0  0  0  0
  -21.0040  -29.8210   21.6880 H   0  0  0  0  0  0  0  0  0  0  0  0
  -18.1940  -27.9430   22.8770 C   0  0  0  0  0  0  0  0  0  0  0  0
  -20.7380  -28.3170   23.1500 C   0  0  0  0  0  3  0  0  0  0  0  0
  -20.9040  -26.8840   22.5920 C   0  0  0  0  0  2  0  0  0  0  0  0
  -19.8200  -26.5030   21.5790 C   0  0  0  0  0  2  0  0  0  0  0  0
  -18.4310  -26.5960   22.2160 C   0  0  0  0  0  2  0  0  0  0  0  0
  -19.2770  -28.7590   23.3010 C   0  0  0  0  0  0  0  0  0  0  0  0
  -19.0040  -30.0180   23.8790 C   0  0  0  0  0  3  0  0  0  0  0  0
  -17.6780  -30.4650   24.0350 C   0  0  0  0  0  3  0  0  0  0  0  0
  -16.6090  -29.6470   23.6280 C   0  0  0  0  0  3  0  0  0  0  0  0
  -16.8680  -28.3890   23.0570 C   0  0  0  0  0  3  0  0  0  0  0  0
  -25.9850  -32.5760   23.7210 C   0  0  0  0  0  3  0  0  0  0  0  0
  -26.5640  -31.7830   24.9560 C   0  0  1  0  0  0  0  0  0  0  0  0
  -25.5120  -31.4750   26.0480 C   0  0  0  0  0  1  0  0  0  0  0  0
  -27.1800  -30.4380   24.5060 C   0  0  0  0  0  1  0  0  0  0  0  0
  -27.7090  -32.5930   25.6090 C   0  0  0  0  0  1  0  0  0  0  0  0
  -25.6580  -33.9580   24.1030 N   0  0  0  0  0  0  0  0  0  0  0  0
  -25.9340  -35.0390   23.3630 C   0  0  0  0  0  0  0  0  0  0  0  0
  -26.5630  -34.9810   22.3020 O   0  0  0  0  0  0  0  0  0  0  0  0
  -25.0960  -34.0760   24.9330 H   0  0  0  0  0  0  0  0  0  0  0  0
  -24.1570  -36.8050   23.1270 C   0  0  0  0  0  1  0  0  0  0  0  0
  -25.4350  -36.4020   23.8800 C   0  0  0  0  0  3  0  0  0  0  0  0
  -27.5810  -37.3050   24.6600 C   0  0  0  0  0  1  0  0  0  0  0  0
  -26.4400  -37.4830   23.7680 N   0  0  0  0  0  0  0  0  0  0  0  0
  -26.0180  -38.3850   23.9690 H   0  0  0  0  0  0  0  0  0  0  0  0
  1  4  2  0
  2  1  1  0
  3  2  2  0
  3  6  1  0
  4 51  1  0
  5  3  1  0
  6  4  1  0
  7  9  1  0
  8 10  2  0
  8 11  1  0
 10 12  1  0
 11  6  1  0
 11  7  2  0
 12 22  1  0
 12  9  2  0
 13 22  1  0
 14 19  1  0
 15 16  1  0
 15 14  1  0
 17 16  1  0
 17 26  1  0
 17 18  1  0
 19 13  1  0
 19 18  1  0
 20 13  2  0
 22 21  1  0
 23 24  2  0
 24 43  1  0
 25 28  1  0
 25 24  1  0
 26 27  1  0
 26 23  1  0
 27 25  2  0
 28 29  1  0
 29 30  2  0
 31 34  1  0
 31 30  1  0
 32 31  2  0
 33 32  1  0
 33 28  2  0
 34 35  1  0
 35 36  1  0
 36 37  2  0
 38 37  1  0
 38 42  1  0
 39 38  2  0
 40 35  2  0
 40 39  1  0
 41 40  1  0
 43 44  1  0
 44 46  1  0
 44 47  1  0
 45 43  2  0
 48 23  1  0
 48 49  1  0
 50 48  1  0
 51 52  1  0
 53  2  1  0
 53 54  1  0
 55 66  2  0
 56 54  1  0
 56 61  1  0
 57 65  1  0
 57 67  1  0
 58 64  1  0
 58 60  1  0
 59 65  1  0
 60 59  1  0
 61 60  2  0
 62 63  1  0
 62 56  2  0
 63 58  2  0
 64 57  1  0
 65 55  1  0
 67 69  2  0
 68 67  1  0
 70 68  1  0
 71 80  2  0
 71 76  1  0
 72 68  1  0
 72 76  1  0
 73 72  1  0
 74 75  1  0
 74 73  1  0
 75 71  1  0
 76 77  2  0
 77 78  1  0
 79 78  2  0
 80 79  1  0
 81 55  1  0
 81 86  1  0
 81 82  1  0
 82 85  1  1
 82 83  1  0
 84 82  1  0
 86 89  1  0
 87 91  1  0
 87 86  1  0
 88 87  2  0
 91 90  1  0
 93 91  1  0
 93 94  1  0
 93 92  1  0
M  ISO  4  13 100  22 100  53 101  54 101
M  END
>  <TORSDO>  (7) 
F 19

>  <SCORE>  (7) 
-13.141

>  <name>  (7) 
6

>  <ligand_id>  (7) 
6

>  <original_smiles>  (7) 
[H]Oc1c([H])c(C([H])([H])Oc2c([H])c([H])c3c(c2[H])C([H])([H])N(C(=O)C([H])(N([H])C(=O)C([H])(N([H])C([H])([H])[H])C([H])([H])[H])C(C([H])([H])[H])(C([H])([H])[H])C([H])([H])[H])C([H])(C(=O)N([H])C2([H])c4c([H])c([H])c([H])c([H])c4C([H])([H])C([H])([H])C2([H])[H])C3([H])[H])c(C([H])([H])[H])n1-c1c([H])c([H])c(N(C(=O)N2C([H])([H])C([H])([H])C([H])([H])C([H])(n3nc(-c4c([H])c([H])c(Oc5c([H])c([H])c(F)c([H])c5F)c([H])c4[H])c(C(=O)N([H])[H])c3N([H])[H])C2([H])[H])C([H])([H])[H])c([H])c1[H]

>  <smiles>  (7) 
[H]Oc1c([H])c(C([H])([H])Oc2c([H])c([H])c3c(c2[H])C([H])([H])N(C(=O)C([H])(N([H])C(=O)C([H])(N([H])C([H])([H])[H])C([H])([H])[H])C(C([H])([H])[H])(C([H])([H])[H])C([H])([H])[H])C([H])(C(=O)N([H])C2([H])c4c([H])c([H])c([H])c([H])c4C([H])([H])C([H])([H])C2([H])[H])C3([H])[H])c(C([H])([H])[H])n1-c1c([H])c([H])c(N(C(=O)N2C([H])([H])C([H])([H])C([H])([H])C([H])(n3nc(-c4c([H])c([H])c(Oc5c([H])c([H])c(F)c([H])c5F)c([H])c4[H])c(C(=O)N([H])[H])c3N([H])[H])C2([H])[H])C([H])([H])[H])c([H])c1[H]

$$$$
7:0:0
     RDKit          3D

 97105  0  0  1  0  0  0  0  0999 V2000
  -29.7550  -23.2350   20.9240 C   0  0  0  0  0  0  0  0  0  0  0  0
  -29.2210  -22.2950   20.1150 N   0  0  0  0  0  0  0  0  0  0  0  0
  -30.3390  -22.9460   21.9710 O   0  0  0  0  0  0  0  0  0  0  0  0
  -28.6120  -22.6100   19.3730 H   0  0  0  0  0  0  0  0  0  0  0  0
  -28.7230  -18.6270   19.4910 C   0  0  0  0  0  3  0  0  0  0  0  0
  -28.4650  -20.0100   19.6340 C   0  0  0  0  0  3  0  0  0  0  0  0
  -30.6920  -20.3270   20.5600 C   0  0  0  0  0  3  0  0  0  0  0  0
  -29.9780  -18.0940   19.8540 C   0  0  0  0  0  0  0  0  0  0  0  0
  -29.4540  -20.8810   20.1480 C   0  0  0  0  0  0  0  0  0  0  0  0
  -30.9500  -18.9500   20.4160 C   0  0  0  0  0  0  0  0  0  0  0  0
  -32.1710  -18.4670   20.7540 F   0  0  0  0  0  0  0  0  0  0  0  0
  -30.3530  -16.6670   19.4720 C   0  0  0  0  0  2  0  0  0  0  0  0
  -30.6880  -14.4530   20.4380 C   0  0  0  0  0  0  0  0  0  0  0  0
  -30.3320  -12.2790   19.3970 C   0  0  0  0  0  2  0  0  0  0  0  0
  -29.4170  -12.5050   18.1740 C   0  0  0  0  0  2  0  0  0  0  0  0
  -27.9360  -12.4050   18.5890 C   0  0  0  0  0  2  0  0  0  0  0  0
  -27.5960  -13.2560   19.8430 C   0  0  0  0  0  3  0  0  0  0  0  0
  -28.6450  -13.0690   20.9650 C   0  0  0  0  0  2  0  0  0  0  0  0
  -29.9770  -13.2990   20.3920 N   0  0  0  0  0  0  0  0  0  0  0  0
  -31.8880  -14.5050   20.1690 O   0  0  0  0  0  0  0  0  0  0  0  0
  -29.9510  -15.5770   20.3770 N   0  0  0  0  0  0  0  0  0  0  0  0
  -28.9710  -15.4950   20.5950 H   0  0  0  0  0  0  0  0  0  0  0  0
  -25.1930  -13.8780   20.5230 C   0  0  0  0  0  0  0  0  0  0  0  0
  -24.1170  -13.1140   20.8840 C   0  0  0  0  0  0  0  0  0  0  0  0
  -24.5700  -11.7600   20.8720 C   0  0  0  0  0  0  0  0  0  0  0  0
  -26.2380  -12.9900   20.3130 N   0  0  0  0  0  0  0  0  0  0  0  0
  -25.8660  -11.7120   20.5830 N   0  0  0  0  0  0  0  0  0  0  0  0
  -23.8340  -10.5030   21.0620 C   0  0  0  0  0  0  0  0  0  0  0  0
  -24.2600   -9.5310   21.9950 C   0  0  0  0  0  3  0  0  0  0  0  0
  -23.5240   -8.3400   22.1730 C   0  0  0  0  0  3  0  0  0  0  0  0
  -22.3500   -8.1110   21.4170 C   0  0  0  0  0  0  0  0  0  0  0  0
  -21.9440   -9.0700   20.4730 C   0  0  0  0  0  3  0  0  0  0  0  0
  -22.6800  -10.2540   20.2930 C   0  0  0  0  0  3  0  0  0  0  0  0
  -21.5860   -6.9720   21.5060 O   0  0  0  0  0  0  0  0  0  0  0  0
  -21.5440   -6.2190   22.6520 C   0  0  0  0  0  0  0  0  0  0  0  0
  -21.1500   -6.7710   23.8910 C   0  0  0  0  0  3  0  0  0  0  0  0
  -21.0530   -5.9470   25.0290 C   0  0  0  0  0  3  0  0  0  0  0  0
  -21.3410   -4.5720   24.9320 C   0  0  0  0  0  0  0  0  0  0  0  0
  -21.7280   -4.0200   23.6980 C   0  0  0  0  0  3  0  0  0  0  0  0
  -21.8270   -4.8410   22.5620 C   0  0  0  0  0  0  0  0  0  0  0  0
  -22.1790   -4.3010   21.3700 F   0  0  0  0  0  0  0  0  0  0  0  0
  -21.2420   -3.7780   26.0230 F   0  0  0  0  0  0  0  0  0  0  0  0
  -22.7180  -13.6010   21.1320 C   0  0  0  0  0  0  0  0  0  0  0  0
  -21.9760  -12.9160   21.9950 N   0  0  0  0  0  0  0  0  0  0  0  0
  -22.2920  -14.6230   20.5960 O   0  0  0  0  0  0  0  0  0  0  0  0
  -22.3340  -12.0890   22.4490 H   0  0  0  0  0  0  0  0  0  0  0  0
  -21.0360  -13.2220   22.2030 H   0  0  0  0  0  0  0  0  0  0  0  0
  -25.3660  -15.2460   20.3340 N   0  0  0  0  0  0  0  0  0  0  0  0
  -24.6010  -15.9050   20.4290 H   0  0  0  0  0  0  0  0  0  0  0  0
  -26.2180  -15.6790   20.0020 H   0  0  0  0  0  0  0  0  0  0  0  0
  -29.6900  -24.7230   20.5170 C   0  0  0  0  0  3  0  0  0  0  0  0
  -30.6270  -25.0050   19.4120 N   0  0  0  0  0  4  0  0  0  0  0  0
  -30.3560  -24.5500   18.5590 H   0  0  0  0  0  0  0  0  0  0  0  0
  -31.5510  -24.6920   19.6620 H   0  0  0  0  0  0  0  0  0  0  0  0
  -30.6620  -25.9970   19.2470 H   0  0  0  0  0  0  0  0  0  0  0  0
  -28.2820  -25.2830   20.2180 C   0  0  0  0  0  2  0  0  0  0  0  0
  -28.3810  -26.7180   20.1380 O   0  0  0  0  0  0  0  0  0  0  0  0
  -24.5990  -31.8840   23.2260 C   0  0  0  0  0  0  0  0  0  0  0  0
  -27.2020  -27.4320   20.1320 C   0  0  0  0  0  0  0  0  0  0  0  0
  -23.3770  -30.4910   21.5900 C   0  0  0  0  0  3  0  0  0  0  0  0
  -24.8120  -28.9460   20.1590 C   0  0  0  0  0  0  0  0  0  0  0  0
  -25.9020  -30.8380   21.3780 C   0  0  0  0  0  2  0  0  0  0  0  0
  -25.9770  -29.4670   20.7370 C   0  0  0  0  0  0  0  0  0  0  0  0
  -27.1750  -28.7220   20.7140 C   0  0  0  0  0  3  0  0  0  0  0  0
  -26.0170  -26.9220   19.5520 C   0  0  0  0  0  3  0  0  0  0  0  0
  -24.8260  -27.6740   19.5640 C   0  0  0  0  0  3  0  0  0  0  0  0
  -23.5760  -29.8150   20.2070 C   0  0  0  0  0  2  0  0  0  0  0  0
  -24.6450  -31.0850   22.1230 N   0  0  0  0  0  0  0  0  0  0  0  0
  -23.5210  -32.1560   23.7720 O   0  0  0  0  0  0  0  0  0  0  0  0
  -22.7290  -29.4670   22.5490 C   0  0  0  0  0  0  0  0  0  0  0  0
  -21.4040  -29.2920   22.4290 N   0  0  0  0  0  0  0  0  0  0  0  0
  -23.4160  -28.8330   23.3550 O   0  0  0  0  0  0  0  0  0  0  0  0
  -20.9150  -29.8540   21.7470 H   0  0  0  0  0  0  0  0  0  0  0  0
  -18.0240  -28.1150   22.9470 C   0  0  0  0  0  0  0  0  0  0  0  0
  -20.5860  -28.3560   23.2000 C   0  0  0  0  0  3  0  0  0  0  0  0
  -20.6750  -26.9260   22.6230 C   0  0  0  0  0  2  0  0  0  0  0  0
  -19.5640  -26.6130   21.6150 C   0  0  0  0  0  2  0  0  0  0  0  0
  -18.1870  -26.7660   22.2660 C   0  0  0  0  0  2  0  0  0  0  0  0
  -19.1510  -28.8690   23.3710 C   0  0  0  0  0  0  0  0  0  0  0  0
  -18.9440  -30.1330   23.9650 C   0  0  0  0  0  3  0  0  0  0  0  0
  -17.6430  -30.6410   24.1440 C   0  0  0  0  0  3  0  0  0  0  0  0
  -16.5330  -29.8850   23.7320 C   0  0  0  0  0  3  0  0  0  0  0  0
  -16.7230  -28.6240   23.1380 C   0  0  0  0  0  3  0  0  0  0  0  0
  -25.8890  -32.5070   23.8420 C   0  0  0  0  0  3  0  0  0  0  0  0
  -25.5840  -33.9010   24.1910 N   0  0  0  0  0  0  0  0  0  0  0  0
  -25.9010  -34.9600   23.4350 C   0  0  0  0  0  0  0  0  0  0  0  0
  -26.5560  -34.8670   22.3930 O   0  0  0  0  0  0  0  0  0  0  0  0
  -25.0090  -34.0480   25.0070 H   0  0  0  0  0  0  0  0  0  0  0  0
  -24.1620  -36.7480   23.1200 C   0  0  0  0  0  1  0  0  0  0  0  0
  -25.4170  -36.3440   23.9110 C   0  0  0  0  0  3  0  0  0  0  0  0
  -27.5610  -37.2260   24.7120 C   0  0  0  0  0  1  0  0  0  0  0  0
  -26.4420  -37.4020   23.7900 N   0  0  0  0  0  0  0  0  0  0  0  0
  -26.0360  -38.3200   23.9570 H   0  0  0  0  0  0  0  0  0  0  0  0
  -26.4160  -31.7220   25.1050 C   0  0  1  0  0  0  0  0  0  0  0  0
  -25.3350  -31.4710   26.1820 C   0  0  0  0  0  1  0  0  0  0  0  0
  -26.9910  -30.3480   24.6860 C   0  0  0  0  0  1  0  0  0  0  0  0
  -27.5750  -32.5070   25.7650 C   0  0  0  0  0  1  0  0  0  0  0  0
  1  3  2  0
  2  9  1  0
  2  1  1  0
  4  2  1  0
  5  6  2  0
  5  8  1  0
  6  9  1  0
  8 10  2  0
  9  7  2  0
 10  7  1  0
 10 11  1  0
 12  8  1  0
 12 21  1  0
 14 19  1  0
 15 16  1  0
 15 14  1  0
 17 16  1  0
 17 26  1  0
 17 18  1  0
 19 13  1  0
 19 18  1  0
 20 13  2  0
 21 13  1  0
 21 22  1  0
 23 24  2  0
 24 43  1  0
 25 24  1  0
 25 28  1  0
 26 23  1  0
 26 27  1  0
 27 25  2  0
 28 29  1  0
 29 30  2  0
 31 34  1  0
 31 30  1  0
 32 31  2  0
 33 32  1  0
 33 28  2  0
 34 35  1  0
 35 36  1  0
 36 37  2  0
 38 37  1  0
 38 42  1  0
 39 38  2  0
 40 35  2  0
 40 39  1  0
 41 40  1  0
 43 44  1  0
 44 47  1  0
 44 46  1  0
 45 43  2  0
 48 49  1  0
 48 23  1  0
 50 48  1  0
 51 56  1  0
 51  1  1  0
 52 54  1  0
 52 51  1  0
 53 52  1  0
 55 52  1  0
 57 56  1  0
 58 69  2  0
 59 57  1  0
 59 64  1  0
 60 68  1  0
 60 70  1  0
 61 67  1  0
 61 63  1  0
 62 68  1  0
 63 62  1  0
 64 63  2  0
 65 66  1  0
 65 59  2  0
 66 61  2  0
 67 60  1  0
 68 58  1  0
 70 72  2  0
 71 70  1  0
 73 71  1  0
 74 83  2  0
 74 79  1  0
 75 71  1  0
 75 79  1  0
 76 75  1  0
 77 78  1  0
 77 76  1  0
 78 74  1  0
 79 80  2  0
 80 81  1  0
 82 81  2  0
 83 82  1  0
 84 58  1  0
 84 85  1  0
 84 94  1  0
 85 88  1  0
 86 90  1  0
 86 85  1  0
 87 86  2  0
 90 89  1  0
 92 90  1  0
 92 93  1  0
 92 91  1  0
 94 97  1  1
 94 95  1  0
 96 94  1  0
M  ISO  4  13 100  21 100  56 101  57 101
M  END
>  <TORSDO>  (8) 
F 21

>  <SCORE>  (8) 
-13.861

>  <name>  (8) 
7

>  <ligand_id>  (8) 
7

>  <original_smiles>  (8) 
[H]c1c([H])c([H])c2c(c1[H])C([H])([H])C([H])([H])C([H])([H])C2([H])N([H])C(=O)C1([H])N(C(=O)C([H])(N([H])C(=O)C([H])(N([H])C([H])([H])[H])C([H])([H])[H])C(C([H])([H])[H])(C([H])([H])[H])C([H])([H])[H])C([H])([H])c2c([H])c(OC([H])([H])C([H])(C(=O)N([H])c3c([H])c([H])c(C([H])([H])N([H])C(=O)N4C([H])([H])C([H])([H])C([H])([H])C([H])(n5nc(-c6c([H])c([H])c(Oc7c([H])c([H])c(F)c([H])c7F)c([H])c6[H])c(C(=O)N([H])[H])c5N([H])[H])C4([H])[H])c(F)c3[H])[N+]([H])([H])[H])c([H])c([H])c2C1([H])[H]

>  <smiles>  (8) 
[H]c1c([H])c([H])c2c(c1[H])C([H])([H])C([H])([H])C([H])([H])C2([H])N([H])C(=O)C1([H])N(C(=O)C([H])(N([H])C(=O)C([H])(N([H])C([H])([H])[H])C([H])([H])[H])C(C([H])([H])[H])(C([H])([H])[H])C([H])([H])[H])C([H])([H])c2c([H])c(OC([H])([H])C([H])(C(=O)N([H])c3c([H])c([H])c(C([H])([H])N([H])C(=O)N4C([H])([H])C([H])([H])C([H])([H])C([H])(n5nc(-c6c([H])c([H])c(Oc7c([H])c([H])c(F)c([H])c7F)c([H])c6[H])c(C(=O)N([H])[H])c5N([H])[H])C4([H])[H])c(F)c3[H])[N+]([H])([H])[H])c([H])c([H])c2C1([H])[H]

$$$$
8:0:0
     RDKit          3D

 93101  0  0  1  0  0  0  0  0999 V2000
  -29.7630  -23.0160   20.4710 C   0  0  0  0  0  0  0  0  0  0  0  0
  -29.4490  -21.6800   20.5640 N   0  0  0  0  0  0  0  0  0  0  0  0
  -30.9200  -23.4180   20.3100 O   0  0  0  0  0  0  0  0  0  0  0  0
  -28.4760  -21.5120   20.7890 H   0  0  0  0  0  0  0  0  0  0  0  0
  -32.1070  -19.2510   19.3270 C   0  0  0  0  0  3  0  0  0  0  0  0
  -31.7410  -18.0490   19.9680 C   0  0  0  0  0  3  0  0  0  0  0  0
  -31.3740  -20.4420   19.5210 C   0  0  0  0  0  3  0  0  0  0  0  0
  -29.8760  -19.2230   20.9840 C   0  0  0  0  0  3  0  0  0  0  0  0
  -30.5960  -17.9910   20.7830 C   0  0  0  0  0  0  0  0  0  0  0  0
  -30.2470  -20.4700   20.3770 C   0  0  0  0  0  0  0  0  0  0  0  0
  -30.7880  -14.6130   20.2000 C   0  0  0  0  0  0  0  0  0  0  0  0
  -30.4650  -12.4740   18.9310 C   0  0  0  0  0  2  0  0  0  0  0  0
  -29.4550  -12.7290   17.7920 C   0  0  0  0  0  2  0  0  0  0  0  0
  -28.0070  -12.5560   18.2920 C   0  0  0  0  0  2  0  0  0  0  0  0
  -27.7490  -13.3200   19.6160 C   0  0  0  0  0  3  0  0  0  0  0  0
  -28.8620  -13.0500   20.6520 C   0  0  0  0  0  2  0  0  0  0  0  0
  -30.1570  -13.4060   20.0380 N   0  0  0  0  0  0  0  0  0  0  0  0
  -31.8130  -14.8780   19.5620 O   0  0  0  0  0  0  0  0  0  0  0  0
  -30.1840  -16.7200   21.5420 C   0  0  0  0  0  0  0  0  0  0  0  0
  -30.1770  -15.4250   21.1060 N   0  0  0  0  0  0  0  0  0  0  0  0
  -29.6670  -16.9030   22.6450 O   0  0  0  0  0  0  0  0  0  0  0  0
  -29.5520  -14.8910   21.6920 H   0  0  0  0  0  0  0  0  0  0  0  0
  -25.4080  -13.9090   20.5060 C   0  0  0  0  0  0  0  0  0  0  0  0
  -24.3640  -13.1250   20.9160 C   0  0  0  0  0  0  0  0  0  0  0  0
  -24.8140  -11.7750   20.8030 C   0  0  0  0  0  0  0  0  0  0  0  0
  -26.4270  -13.0340   20.1670 N   0  0  0  0  0  0  0  0  0  0  0  0
  -26.0800  -11.7420   20.4040 N   0  0  0  0  0  0  0  0  0  0  0  0
  -24.0930  -10.5080   20.9900 C   0  0  0  0  0  0  0  0  0  0  0  0
  -24.5520   -9.5260   21.8950 C   0  0  0  0  0  3  0  0  0  0  0  0
  -23.8300   -8.3260   22.0690 C   0  0  0  0  0  3  0  0  0  0  0  0
  -22.6390   -8.0990   21.3400 C   0  0  0  0  0  0  0  0  0  0  0  0
  -22.2000   -9.0700   20.4230 C   0  0  0  0  0  3  0  0  0  0  0  0
  -22.9210  -10.2640   20.2470 C   0  0  0  0  0  3  0  0  0  0  0  0
  -21.8890   -6.9530   21.4260 O   0  0  0  0  0  0  0  0  0  0  0  0
  -21.8230   -6.2190   22.5830 C   0  0  0  0  0  0  0  0  0  0  0  0
  -21.3840   -6.7810   23.8000 C   0  0  0  0  0  3  0  0  0  0  0  0
  -21.2680   -5.9730   24.9480 C   0  0  0  0  0  3  0  0  0  0  0  0
  -21.5810   -4.6020   24.8820 C   0  0  0  0  0  0  0  0  0  0  0  0
  -22.0110   -4.0370   23.6700 C   0  0  0  0  0  3  0  0  0  0  0  0
  -22.1280   -4.8420   22.5230 C   0  0  0  0  0  0  0  0  0  0  0  0
  -22.5260   -4.2890   21.3500 F   0  0  0  0  0  0  0  0  0  0  0  0
  -21.4610   -3.8230   25.9830 F   0  0  0  0  0  0  0  0  0  0  0  0
  -22.9920  -13.5980   21.2980 C   0  0  0  0  0  0  0  0  0  0  0  0
  -22.3250  -12.8880   22.2000 N   0  0  0  0  0  0  0  0  0  0  0  0
  -22.5190  -14.6320   20.8240 O   0  0  0  0  0  0  0  0  0  0  0  0
  -22.7180  -12.0600   22.6200 H   0  0  0  0  0  0  0  0  0  0  0  0
  -21.4010  -13.1810   22.4790 H   0  0  0  0  0  0  0  0  0  0  0  0
  -25.5630  -15.2860   20.3840 N   0  0  0  0  0  0  0  0  0  0  0  0
  -24.8020  -15.9220   20.5880 H   0  0  0  0  0  0  0  0  0  0  0  0
  -26.4000  -15.7610   20.0640 H   0  0  0  0  0  0  0  0  0  0  0  0
  -28.5790  -24.0550   20.5760 C   0  0  0  0  0  2  0  0  0  0  0  0
  -28.7660  -25.5610   21.0500 C   0  0  0  0  0  2  0  0  0  0  0  0
  -28.5040  -26.6280   20.0850 O   0  0  0  0  0  0  0  0  0  0  0  0
  -24.7220  -31.9080   23.2390 C   0  0  0  0  0  0  0  0  0  0  0  0
  -27.3360  -27.3820   20.1850 C   0  0  0  0  0  0  0  0  0  0  0  0
  -23.5030  -30.5190   21.5920 C   0  0  0  0  0  3  0  0  0  0  0  0
  -24.9500  -28.9390   20.1890 C   0  0  0  0  0  0  0  0  0  0  0  0
  -26.0370  -30.8330   21.4020 C   0  0  0  0  0  2  0  0  0  0  0  0
  -26.1150  -29.4470   20.7800 C   0  0  0  0  0  0  0  0  0  0  0  0
  -27.3080  -28.6770   20.7730 C   0  0  0  0  0  3  0  0  0  0  0  0
  -26.1520  -26.8980   19.5910 C   0  0  0  0  0  3  0  0  0  0  0  0
  -24.9670  -27.6650   19.5940 C   0  0  0  0  0  3  0  0  0  0  0  0
  -23.7180  -29.8220   20.2190 C   0  0  0  0  0  2  0  0  0  0  0  0
  -24.7720  -31.1030   22.1360 N   0  0  0  0  0  0  0  0  0  0  0  0
  -23.6440  -32.1930   23.7800 O   0  0  0  0  0  0  0  0  0  0  0  0
  -22.8290  -29.5160   22.5590 C   0  0  0  0  0  0  0  0  0  0  0  0
  -21.4990  -29.3660   22.4460 N   0  0  0  0  0  0  0  0  0  0  0  0
  -23.5030  -28.8700   23.3660 O   0  0  0  0  0  0  0  0  0  0  0  0
  -21.0090  -29.9440   21.7750 H   0  0  0  0  0  0  0  0  0  0  0  0
  -18.1070  -28.2280   22.9660 C   0  0  0  0  0  0  0  0  0  0  0  0
  -20.6700  -28.4400   23.2200 C   0  0  0  0  0  3  0  0  0  0  0  0
  -20.7430  -27.0070   22.6420 C   0  0  0  0  0  2  0  0  0  0  0  0
  -19.6310  -26.7080   21.6320 C   0  0  0  0  0  2  0  0  0  0  0  0
  -18.2560  -26.8780   22.2870 C   0  0  0  0  0  2  0  0  0  0  0  0
  -19.2420  -28.9690   23.3920 C   0  0  0  0  0  0  0  0  0  0  0  0
  -19.0530  -30.2320   23.9920 C   0  0  0  0  0  3  0  0  0  0  0  0
  -17.7600  -30.7600   24.1670 C   0  0  0  0  0  3  0  0  0  0  0  0
  -16.6380  -30.0170   23.7580 C   0  0  0  0  0  3  0  0  0  0  0  0
  -16.8120  -28.7530   23.1640 C   0  0  0  0  0  3  0  0  0  0  0  0
  -26.0140  -32.5290   23.8570 C   0  0  0  0  0  3  0  0  0  0  0  0
  -26.5260  -31.7560   25.1350 C   0  0  1  0  0  0  0  0  0  0  0  0
  -25.4320  -31.5380   26.2060 C   0  0  0  0  0  1  0  0  0  0  0  0
  -27.0850  -30.3690   24.7390 C   0  0  0  0  0  1  0  0  0  0  0  0
  -27.6850  -32.5360   25.7960 C   0  0  0  0  0  1  0  0  0  0  0  0
  -25.7230  -33.9320   24.1850 N   0  0  0  0  0  0  0  0  0  0  0  0
  -26.0800  -34.9790   23.4320 C   0  0  0  0  0  0  0  0  0  0  0  0
  -26.7540  -34.8660   22.4040 O   0  0  0  0  0  0  0  0  0  0  0  0
  -25.1180  -34.0940   24.9780 H   0  0  0  0  0  0  0  0  0  0  0  0
  -24.3890  -36.8080   23.0650 C   0  0  0  0  0  1  0  0  0  0  0  0
  -25.6130  -36.3750   23.8880 C   0  0  0  0  0  3  0  0  0  0  0  0
  -27.7540  -37.2200   24.7450 C   0  0  0  0  0  1  0  0  0  0  0  0
  -26.6650  -37.4100   23.7930 N   0  0  0  0  0  0  0  0  0  0  0  0
  -26.2730  -38.3350   23.9460 H   0  0  0  0  0  0  0  0  0  0  0  0
  1  2  1  0
  1 51  1  0
  2  4  1  0
  3  1  2  0
  5  7  2  0
  5  6  1  0
  6  9  2  0
  7 10  1  0
  9  8  1  0
  9 19  1  0
 10  2  1  0
 10  8  2  0
 11 20  1  0
 12 17  1  0
 13 14  1  0
 13 12  1  0
 15 14  1  0
 15 26  1  0
 15 16  1  0
 17 11  1  0
 17 16  1  0
 18 11  2  0
 19 21  2  0
 20 19  1  0
 20 22  1  0
 23 24  2  0
 24 43  1  0
 25 24  1  0
 25 28  1  0
 26 27  1  0
 26 23  1  0
 27 25  2  0
 28 29  1  0
 29 30  2  0
 31 34  1  0
 31 30  1  0
 32 31  2  0
 33 32  1  0
 33 28  2  0
 34 35  1  0
 35 36  1  0
 36 37  2  0
 38 37  1  0
 38 42  1  0
 39 38  2  0
 40 35  2  0
 40 39  1  0
 41 40  1  0
 43 44  1  0
 44 47  1  0
 44 46  1  0
 45 43  2  0
 48 23  1  0
 48 49  1  0
 50 48  1  0
 51 52  1  0
 53 55  1  0
 53 52  1  0
 54 65  2  0
 55 60  1  0
 56 64  1  0
 56 66  1  0
 57 63  1  0
 57 59  1  0
 58 64  1  0
 59 58  1  0
 60 59  2  0
 61 62  1  0
 61 55  2  0
 62 57  2  0
 63 56  1  0
 64 54  1  0
 66 68  2  0
 67 66  1  0
 69 67  1  0
 70 79  2  0
 70 75  1  0
 71 67  1  0
 71 75  1  0
 72 71  1  0
 73 74  1  0
 73 72  1  0
 74 70  1  0
 75 76  2  0
 76 77  1  0
 78 77  2  0
 79 78  1  0
 80 54  1  0
 80 85  1  0
 80 81  1  0
 81 84  1  1
 81 82  1  0
 83 81  1  0
 85 88  1  0
 86 90  1  0
 86 85  1  0
 87 86  2  0
 90 89  1  0
 92 90  1  0
 92 93  1  0
 92 91  1  0
M  ISO  4  11 100  20 100  52 101  53 101
M  END
>  <TORSDO>  (9) 
F 19

>  <SCORE>  (9) 
-13.711

>  <name>  (9) 
8

>  <ligand_id>  (9) 
8

>  <original_smiles>  (9) 
[H]c1c([H])c(C(=O)N([H])C(=O)N2C([H])([H])C([H])([H])C([H])([H])C([H])(n3nc(-c4c([H])c([H])c(Oc5c([H])c([H])c(F)c([H])c5F)c([H])c4[H])c(C(=O)N([H])[H])c3N([H])[H])C2([H])[H])c([H])c(N([H])C(=O)C([H])([H])C([H])([H])Oc2c([H])c([H])c3c(c2[H])C([H])([H])N(C(=O)C([H])(N([H])C(=O)C([H])(N([H])C([H])([H])[H])C([H])([H])[H])C(C([H])([H])[H])(C([H])([H])[H])C([H])([H])[H])C([H])(C(=O)N([H])C2([H])c4c([H])c([H])c([H])c([H])c4C([H])([H])C([H])([H])C2([H])[H])C3([H])[H])c1[H]

>  <smiles>  (9) 
[H]c1c([H])c(C(=O)N([H])C(=O)N2C([H])([H])C([H])([H])C([H])([H])C([H])(n3nc(-c4c([H])c([H])c(Oc5c([H])c([H])c(F)c([H])c5F)c([H])c4[H])c(C(=O)N([H])[H])c3N([H])[H])C2([H])[H])c([H])c(N([H])C(=O)C([H])([H])C([H])([H])Oc2c([H])c([H])c3c(c2[H])C([H])([H])N(C(=O)C([H])(N([H])C(=O)C([H])(N([H])C([H])([H])[H])C([H])([H])[H])C(C([H])([H])[H])(C([H])([H])[H])C([H])([H])[H])C([H])(C(=O)N([H])C2([H])c4c([H])c([H])c([H])c([H])c4C([H])([H])C([H])([H])C2([H])[H])C3([H])[H])c1[H]

$$$$
9:0:0
     RDKit          3D

 94103  0  0  1  0  0  0  0  0999 V2000
  -30.3580  -23.8430   20.6400 C   0  0  0  0  0  3  0  0  0  0  0  0
  -28.8130  -22.5060   19.7730 C   0  0  0  0  0  3  0  0  0  0  0  0
  -29.0950  -23.8560   19.9780 C   0  0  0  0  0  0  0  0  0  0  0  0
  -30.7550  -22.5360   20.8020 C   0  0  0  0  0  0  0  0  0  0  0  0
  -29.8180  -21.6530   20.2740 N   0  0  0  0  0  0  0  0  0  0  0  0
  -31.0640  -19.4450   20.0300 C   0  0  0  0  0  3  0  0  0  0  0  0
  -31.1230  -18.0130   20.0810 C   0  0  0  0  0  3  0  0  0  0  0  0
  -28.7850  -17.9670   20.6160 C   0  0  0  0  0  3  0  0  0  0  0  0
  -29.8650  -20.1810   20.2740 C   0  0  0  0  0  0  0  0  0  0  0  0
  -29.9790  -17.2270   20.3860 C   0  0  0  0  0  0  0  0  0  0  0  0
  -28.7220  -19.3920   20.5610 C   0  0  0  0  0  0  0  0  0  0  0  0
  -27.5320  -19.9950   20.8090 F   0  0  0  0  0  0  0  0  0  0  0  0
  -30.6970  -14.7250   20.0260 C   0  0  0  0  0  0  0  0  0  0  0  0
  -30.4180  -12.5080   18.9250 C   0  0  0  0  0  2  0  0  0  0  0  0
  -29.4020  -12.6750   17.7730 C   0  0  0  0  0  2  0  0  0  0  0  0
  -27.9580  -12.5020   18.2850 C   0  0  0  0  0  2  0  0  0  0  0  0
  -27.6780  -13.3330   19.5650 C   0  0  0  0  0  3  0  0  0  0  0  0
  -28.8030  -13.1460   20.6100 C   0  0  0  0  0  2  0  0  0  0  0  0
  -30.0780  -13.5010   19.9640 N   0  0  0  0  0  0  0  0  0  0  0  0
  -31.8290  -14.8930   19.5620 O   0  0  0  0  0  0  0  0  0  0  0  0
  -29.9170  -15.7590   20.4800 N   0  0  0  0  0  0  0  0  0  0  0  0
  -29.0500  -15.4130   20.8630 H   0  0  0  0  0  0  0  0  0  0  0  0
  -25.3400  -13.9280   20.4510 C   0  0  0  0  0  0  0  0  0  0  0  0
  -24.2890  -13.1520   20.8590 C   0  0  0  0  0  0  0  0  0  0  0  0
  -24.7330  -11.7980   20.7540 C   0  0  0  0  0  0  0  0  0  0  0  0
  -26.3590  -13.0460   20.1230 N   0  0  0  0  0  0  0  0  0  0  0  0
  -26.0020  -11.7580   20.3640 N   0  0  0  0  0  0  0  0  0  0  0  0
  -24.0040  -10.5370   20.9460 C   0  0  0  0  0  0  0  0  0  0  0  0
  -24.4390   -9.5680   21.8770 C   0  0  0  0  0  3  0  0  0  0  0  0
  -23.7140   -8.3710   22.0560 C   0  0  0  0  0  3  0  0  0  0  0  0
  -22.5380   -8.1340   21.3060 C   0  0  0  0  0  0  0  0  0  0  0  0
  -22.1220   -9.0910   20.3630 C   0  0  0  0  0  3  0  0  0  0  0  0
  -22.8480  -10.2800   20.1820 C   0  0  0  0  0  3  0  0  0  0  0  0
  -21.7830   -6.9900   21.3950 O   0  0  0  0  0  0  0  0  0  0  0  0
  -21.6710   -6.2890   22.5690 C   0  0  0  0  0  0  0  0  0  0  0  0
  -21.1720   -6.8860   23.7480 C   0  0  0  0  0  3  0  0  0  0  0  0
  -21.0110   -6.1120   24.9150 C   0  0  0  0  0  3  0  0  0  0  0  0
  -21.3380   -4.7430   24.9030 C   0  0  0  0  0  0  0  0  0  0  0  0
  -21.8310   -4.1470   23.7290 C   0  0  0  0  0  3  0  0  0  0  0  0
  -21.9950   -4.9180   22.5660 C   0  0  0  0  0  0  0  0  0  0  0  0
  -22.4500   -4.3330   21.4310 F   0  0  0  0  0  0  0  0  0  0  0  0
  -21.1750   -3.9980   26.0210 F   0  0  0  0  0  0  0  0  0  0  0  0
  -22.9160  -13.6320   21.2330 C   0  0  0  0  0  0  0  0  0  0  0  0
  -22.2340  -12.9170   22.1220 N   0  0  0  0  0  0  0  0  0  0  0  0
  -22.4570  -14.6760   20.7710 O   0  0  0  0  0  0  0  0  0  0  0  0
  -22.6170  -12.0720   22.5180 H   0  0  0  0  0  0  0  0  0  0  0  0
  -21.3160  -13.2240   22.4120 H   0  0  0  0  0  0  0  0  0  0  0  0
  -25.5120  -15.3020   20.3130 N   0  0  0  0  0  0  0  0  0  0  0  0
  -24.7580  -15.9580   20.4860 H   0  0  0  0  0  0  0  0  0  0  0  0
  -26.3380  -15.7400   19.9290 H   0  0  0  0  0  0  0  0  0  0  0  0
  -31.8820  -22.0740   21.4090 O   0  0  0  0  0  0  0  0  0  0  0  0
  -32.3550  -22.8250   21.7510 H   0  0  0  0  0  0  0  0  0  0  0  0
  -28.1930  -25.0640   19.5440 C   0  0  0  0  0  2  0  0  0  0  0  0
  -28.4180  -26.4690   19.9830 O   0  0  0  0  0  0  0  0  0  0  0  0
  -24.5290  -31.7230   23.1150 C   0  0  0  0  0  0  0  0  0  0  0  0
  -27.2950  -27.3270   19.9300 C   0  0  0  0  0  0  0  0  0  0  0  0
  -23.3820  -30.3430   21.4250 C   0  0  0  0  0  3  0  0  0  0  0  0
  -24.8870  -28.8890   19.9600 C   0  0  0  0  0  0  0  0  0  0  0  0
  -25.9160  -30.7320   21.2790 C   0  0  0  0  0  2  0  0  0  0  0  0
  -26.0400  -29.3790   20.5870 C   0  0  0  0  0  0  0  0  0  0  0  0
  -27.2440  -28.6080   20.5700 C   0  0  0  0  0  3  0  0  0  0  0  0
  -26.1140  -26.9140   19.2610 C   0  0  0  0  0  3  0  0  0  0  0  0
  -24.9270  -27.6630   19.2890 C   0  0  0  0  0  3  0  0  0  0  0  0
  -23.6260  -29.7250   20.0260 C   0  0  0  0  0  2  0  0  0  0  0  0
  -24.6270  -30.9470   21.9970 N   0  0  0  0  0  0  0  0  0  0  0  0
  -23.4330  -31.9560   23.6450 O   0  0  0  0  0  0  0  0  0  0  0  0
  -22.7390  -29.2750   22.3440 C   0  0  0  0  0  0  0  0  0  0  0  0
  -21.4150  -29.0830   22.2130 N   0  0  0  0  0  0  0  0  0  0  0  0
  -23.4310  -28.6280   23.1330 O   0  0  0  0  0  0  0  0  0  0  0  0
  -20.9170  -29.6580   21.5510 H   0  0  0  0  0  0  0  0  0  0  0  0
  -18.0510  -27.8520   22.7160 C   0  0  0  0  0  0  0  0  0  0  0  0
  -20.6140  -28.1050   22.9500 C   0  0  0  0  0  3  0  0  0  0  0  0
  -20.7070  -26.7060   22.2990 C   0  0  0  0  0  2  0  0  0  0  0  0
  -19.5870  -26.4310   21.2920 C   0  0  0  0  0  2  0  0  0  0  0  0
  -18.2170  -26.5400   21.9680 C   0  0  0  0  0  2  0  0  0  0  0  0
  -19.1760  -28.5950   23.1620 C   0  0  0  0  0  0  0  0  0  0  0  0
  -18.9650  -29.8260   23.8210 C   0  0  0  0  0  3  0  0  0  0  0  0
  -17.6620  -30.3130   24.0370 C   0  0  0  0  0  3  0  0  0  0  0  0
  -16.5530  -29.5660   23.6080 C   0  0  0  0  0  3  0  0  0  0  0  0
  -16.7470  -28.3370   22.9520 C   0  0  0  0  0  3  0  0  0  0  0  0
  -25.7880  -32.3700   23.7690 C   0  0  0  0  0  3  0  0  0  0  0  0
  -26.2970  -31.5910   25.0440 C   0  0  1  0  0  0  0  0  0  0  0  0
  -25.1890  -31.3150   26.0870 C   0  0  0  0  0  1  0  0  0  0  0  0
  -26.9120  -30.2300   24.6440 C   0  0  0  0  0  1  0  0  0  0  0  0
  -27.4220  -32.3950   25.7360 C   0  0  0  0  0  1  0  0  0  0  0  0
  -25.4460  -33.7580   24.1140 N   0  0  0  0  0  0  0  0  0  0  0  0
  -25.7440  -34.8260   23.3600 C   0  0  0  0  0  0  0  0  0  0  0  0
  -26.4080  -34.7480   22.3230 O   0  0  0  0  0  0  0  0  0  0  0  0
  -24.8550  -33.8910   24.9210 H   0  0  0  0  0  0  0  0  0  0  0  0
  -23.9540  -36.5640   23.0480 C   0  0  0  0  0  1  0  0  0  0  0  0
  -25.2240  -36.1970   23.8330 C   0  0  0  0  0  3  0  0  0  0  0  0
  -27.3430  -37.1470   24.6290 C   0  0  0  0  0  1  0  0  0  0  0  0
  -26.2210  -37.2810   23.7040 N   0  0  0  0  0  0  0  0  0  0  0  0
  -25.7900  -38.1890   23.8570 H   0  0  0  0  0  0  0  0  0  0  0  0
  1  4  2  0
  2  3  2  0
  2  5  1  0
  3  1  1  0
  4 51  1  0
  5  4  1  0
  6  7  2  0
  6  9  1  0
  7 10  1  0
  9  5  1  0
  9 11  2  0
 10 21  1  0
 10  8  2  0
 11  8  1  0
 11 12  1  0
 13 21  1  0
 14 19  1  0
 15 16  1  0
 15 14  1  0
 17 16  1  0
 17 26  1  0
 17 18  1  0
 19 13  1  0
 19 18  1  0
 20 13  2  0
 21 22  1  0
 23 24  2  0
 24 43  1  0
 25 24  1  0
 25 28  1  0
 26 27  1  0
 26 23  1  0
 27 25  2  0
 28 29  1  0
 29 30  2  0
 31 34  1  0
 31 30  1  0
 32 31  2  0
 33 32  1  0
 33 28  2  0
 34 35  1  0
 35 36  1  0
 36 37  2  0
 38 37  1  0
 38 42  1  0
 39 38  2  0
 40 35  2  0
 40 39  1  0
 41 40  1  0
 43 44  1  0
 44 47  1  0
 44 46  1  0
 45 43  2  0
 48 23  1  0
 48 49  1  0
 50 48  1  0
 51 52  1  0
 53  3  1  0
 53 54  1  0
 55 66  2  0
 56 54  1  0
 56 61  1  0
 57 65  1  0
 57 67  1  0
 58 64  1  0
 58 60  1  0
 59 65  1  0
 60 59  1  0
 61 60  2  0
 62 63  1  0
 62 56  2  0
 63 58  2  0
 64 57  1  0
 65 55  1  0
 67 69  2  0
 68 67  1  0
 70 68  1  0
 71 80  2  0
 71 76  1  0
 72 68  1  0
 72 76  1  0
 73 72  1  0
 74 75  1  0
 74 73  1  0
 75 71  1  0
 76 77  2  0
 77 78  1  0
 79 78  2  0
 80 79  1  0
 81 55  1  0
 81 86  1  0
 81 82  1  0
 82 85  1  1
 82 83  1  0
 84 82  1  0
 86 89  1  0
 87 91  1  0
 87 86  1  0
 88 87  2  0
 91 90  1  0
 93 91  1  0
 93 94  1  0
 93 92  1  0
M  ISO  4  13 100  21 100  53 101  54 101
M  END
>  <TORSDO>  (10) 
F 19

>  <SCORE>  (10) 
-14.390

>  <name>  (10) 
9

>  <ligand_id>  (10) 
9

>  <original_smiles>  (10) 
[H]Oc1c([H])c(C([H])([H])Oc2c([H])c([H])c3c(c2[H])C([H])([H])N(C(=O)C([H])(N([H])C(=O)C([H])(N([H])C([H])([H])[H])C([H])([H])[H])C(C([H])([H])[H])(C([H])([H])[H])C([H])([H])[H])C([H])(C(=O)N([H])C2([H])c4c([H])c([H])c([H])c([H])c4C([H])([H])C([H])([H])C2([H])[H])C3([H])[H])c([H])n1-c1c([H])c([H])c(N([H])C(=O)N2C([H])([H])C([H])([H])C([H])([H])C([H])(n3nc(-c4c([H])c([H])c(Oc5c([H])c([H])c(F)c([H])c5F)c([H])c4[H])c(C(=O)N([H])[H])c3N([H])[H])C2([H])[H])c([H])c1F

>  <smiles>  (10) 
[H]Oc1c([H])c(C([H])([H])Oc2c([H])c([H])c3c(c2[H])C([H])([H])N(C(=O)C([H])(N([H])C(=O)C([H])(N([H])C([H])([H])[H])C([H])([H])[H])C(C([H])([H])[H])(C([H])([H])[H])C([H])([H])[H])C([H])(C(=O)N([H])C2([H])c4c([H])c([H])c([H])c([H])c4C([H])([H])C([H])([H])C2([H])[H])C3([H])[H])c([H])n1-c1c([H])c([H])c(N([H])C(=O)N2C([H])([H])C([H])([H])C([H])([H])C([H])(n3nc(-c4c([H])c([H])c(Oc5c([H])c([H])c(F)c([H])c5F)c([H])c4[H])c(C(=O)N([H])[H])c3N([H])[H])C2([H])[H])c([H])c1F

$$$$
10:0:0
     RDKit          3D

 92100  0  0  1  0  0  0  0  0999 V2000
  -30.0800  -21.7020   20.4120 C   0  0  0  0  0  0  0  0  0  0  0  0
  -31.3490  -22.0490   21.1950 C   0  0  0  0  0  1  0  0  0  0  0  0
  -29.2140  -22.6150   20.0040 N   0  0  0  0  0  0  0  0  0  0  0  0
  -31.1180  -19.3830   19.8530 C   0  0  0  0  0  3  0  0  0  0  0  0
  -31.1470  -17.9510   19.9040 C   0  0  0  0  0  3  0  0  0  0  0  0
  -28.8700  -19.3970   20.6710 C   0  0  0  0  0  3  0  0  0  0  0  0
  -29.9920  -20.1630   20.2600 C   0  0  0  0  0  0  0  0  0  0  0  0
  -30.0340  -17.1990   20.3650 C   0  0  0  0  0  0  0  0  0  0  0  0
  -28.8910  -17.9670   20.7240 C   0  0  0  0  0  0  0  0  0  0  0  0
  -27.7870  -17.3130   21.1550 F   0  0  0  0  0  0  0  0  0  0  0  0
  -30.6920  -14.6980   19.9410 C   0  0  0  0  0  0  0  0  0  0  0  0
  -30.3920  -12.4920   18.8210 C   0  0  0  0  0  2  0  0  0  0  0  0
  -29.3680  -12.6700   17.6770 C   0  0  0  0  0  2  0  0  0  0  0  0
  -27.9250  -12.5200   18.1980 C   0  0  0  0  0  2  0  0  0  0  0  0
  -27.6650  -13.3350   19.4920 C   0  0  0  0  0  3  0  0  0  0  0  0
  -28.7950  -13.1210   20.5240 C   0  0  0  0  0  2  0  0  0  0  0  0
  -30.0650  -13.4770   19.8740 N   0  0  0  0  0  0  0  0  0  0  0  0
  -31.8090  -14.8620   19.4410 O   0  0  0  0  0  0  0  0  0  0  0  0
  -29.9560  -15.7320   20.4660 N   0  0  0  0  0  0  0  0  0  0  0  0
  -29.1300  -15.4190   20.9530 H   0  0  0  0  0  0  0  0  0  0  0  0
  -25.3380  -13.9470   20.3890 C   0  0  0  0  0  0  0  0  0  0  0  0
  -24.2850  -13.1790   20.8070 C   0  0  0  0  0  0  0  0  0  0  0  0
  -24.7200  -11.8220   20.7010 C   0  0  0  0  0  0  0  0  0  0  0  0
  -26.3480  -13.0580   20.0560 N   0  0  0  0  0  0  0  0  0  0  0  0
  -25.9850  -11.7740   20.3030 N   0  0  0  0  0  0  0  0  0  0  0  0
  -23.9840  -10.5670   20.9010 C   0  0  0  0  0  0  0  0  0  0  0  0
  -24.4160   -9.5980   21.8340 C   0  0  0  0  0  3  0  0  0  0  0  0
  -23.6820   -8.4070   22.0220 C   0  0  0  0  0  3  0  0  0  0  0  0
  -22.5020   -8.1750   21.2770 C   0  0  0  0  0  0  0  0  0  0  0  0
  -22.0880   -9.1320   20.3340 C   0  0  0  0  0  3  0  0  0  0  0  0
  -22.8220  -10.3150   20.1440 C   0  0  0  0  0  3  0  0  0  0  0  0
  -21.7400   -7.0350   21.3740 O   0  0  0  0  0  0  0  0  0  0  0  0
  -21.6310   -6.3400   22.5510 C   0  0  0  0  0  0  0  0  0  0  0  0
  -21.1340   -6.9420   23.7270 C   0  0  0  0  0  3  0  0  0  0  0  0
  -20.9710   -6.1730   24.8970 C   0  0  0  0  0  3  0  0  0  0  0  0
  -21.2970   -4.8030   24.8910 C   0  0  0  0  0  0  0  0  0  0  0  0
  -21.7860   -4.2010   23.7190 C   0  0  0  0  0  3  0  0  0  0  0  0
  -21.9510   -4.9670   22.5510 C   0  0  0  0  0  0  0  0  0  0  0  0
  -22.4030   -4.3770   21.4180 F   0  0  0  0  0  0  0  0  0  0  0  0
  -21.1330   -4.0630   26.0120 F   0  0  0  0  0  0  0  0  0  0  0  0
  -22.9200  -13.6700   21.1930 C   0  0  0  0  0  0  0  0  0  0  0  0
  -22.2480  -12.9710   22.1020 N   0  0  0  0  0  0  0  0  0  0  0  0
  -22.4580  -14.7080   20.7230 O   0  0  0  0  0  0  0  0  0  0  0  0
  -22.6350  -12.1320   22.5070 H   0  0  0  0  0  0  0  0  0  0  0  0
  -21.3350  -13.2850   22.3990 H   0  0  0  0  0  0  0  0  0  0  0  0
  -25.5160  -15.3200   20.2470 N   0  0  0  0  0  0  0  0  0  0  0  0
  -24.7780  -15.9860   20.4450 H   0  0  0  0  0  0  0  0  0  0  0  0
  -26.3620  -15.7580   19.9080 H   0  0  0  0  0  0  0  0  0  0  0  0
  -29.3820  -24.0350   20.1990 C   0  0  0  0  0  0  0  0  0  0  0  0
  -30.3440  -24.6040   20.7180 O   0  0  0  0  0  0  0  0  0  0  0  0
  -28.2220  -24.9840   19.6940 C   0  0  0  0  0  2  0  0  0  0  0  0
  -28.3820  -26.4390   19.9910 O   0  0  0  0  0  0  0  0  0  0  0  0
  -24.4640  -31.6600   23.1040 C   0  0  0  0  0  0  0  0  0  0  0  0
  -27.2410  -27.2610   19.9460 C   0  0  0  0  0  0  0  0  0  0  0  0
  -23.3180  -30.2690   21.4170 C   0  0  0  0  0  3  0  0  0  0  0  0
  -24.8270  -28.8070   19.9600 C   0  0  0  0  0  0  0  0  0  0  0  0
  -25.8490  -30.6670   21.2680 C   0  0  0  0  0  2  0  0  0  0  0  0
  -25.9760  -29.3110   20.5820 C   0  0  0  0  0  0  0  0  0  0  0  0
  -27.1850  -28.5510   20.5660 C   0  0  0  0  0  3  0  0  0  0  0  0
  -26.0660  -26.8160   19.2960 C   0  0  0  0  0  3  0  0  0  0  0  0
  -24.8740  -27.5650   19.3080 C   0  0  0  0  0  3  0  0  0  0  0  0
  -23.5630  -29.6410   20.0200 C   0  0  0  0  0  2  0  0  0  0  0  0
  -24.5610  -30.8820   21.9870 N   0  0  0  0  0  0  0  0  0  0  0  0
  -23.3680  -31.8890   23.6370 O   0  0  0  0  0  0  0  0  0  0  0  0
  -22.6800  -29.2060   22.3440 C   0  0  0  0  0  0  0  0  0  0  0  0
  -21.3600  -28.9930   22.2040 N   0  0  0  0  0  0  0  0  0  0  0  0
  -23.3720  -28.5770   23.1480 O   0  0  0  0  0  0  0  0  0  0  0  0
  -20.8580  -29.5550   21.5310 H   0  0  0  0  0  0  0  0  0  0  0  0
  -18.0110  -27.7120   22.6780 C   0  0  0  0  0  0  0  0  0  0  0  0
  -20.5650  -28.0120   22.9460 C   0  0  0  0  0  3  0  0  0  0  0  0
  -20.6920  -26.6040   22.3170 C   0  0  0  0  0  2  0  0  0  0  0  0
  -19.5910  -26.2960   21.2970 C   0  0  0  0  0  2  0  0  0  0  0  0
  -18.2110  -26.3920   21.9520 C   0  0  0  0  0  2  0  0  0  0  0  0
  -19.1170  -28.4800   23.1310 C   0  0  0  0  0  0  0  0  0  0  0  0
  -18.8760  -29.7150   23.7700 C   0  0  0  0  0  3  0  0  0  0  0  0
  -17.5630  -30.1820   23.9620 C   0  0  0  0  0  3  0  0  0  0  0  0
  -16.4710  -29.4120   23.5270 C   0  0  0  0  0  3  0  0  0  0  0  0
  -16.6970  -28.1790   22.8900 C   0  0  0  0  0  3  0  0  0  0  0  0
  -25.7220  -32.3150   23.7520 C   0  0  0  0  0  3  0  0  0  0  0  0
  -26.2340  -31.5430   25.0290 C   0  0  1  0  0  0  0  0  0  0  0  0
  -25.1290  -31.2700   26.0760 C   0  0  0  0  0  1  0  0  0  0  0  0
  -26.8590  -30.1840   24.6380 C   0  0  0  0  0  1  0  0  0  0  0  0
  -27.3540  -32.3590   25.7190 C   0  0  0  0  0  1  0  0  0  0  0  0
  -25.3740  -33.7030   24.0920 N   0  0  0  0  0  0  0  0  0  0  0  0
  -25.6720  -34.7690   23.3390 C   0  0  0  0  0  0  0  0  0  0  0  0
  -26.3380  -34.6910   22.3030 O   0  0  0  0  0  0  0  0  0  0  0  0
  -24.7810  -33.8340   24.8970 H   0  0  0  0  0  0  0  0  0  0  0  0
  -23.8800  -36.5070   23.0220 C   0  0  0  0  0  1  0  0  0  0  0  0
  -25.1500  -36.1400   23.8080 C   0  0  0  0  0  3  0  0  0  0  0  0
  -27.2660  -37.1000   24.6030 C   0  0  0  0  0  1  0  0  0  0  0  0
  -26.1440  -37.2280   23.6760 N   0  0  0  0  0  0  0  0  0  0  0  0
  -25.7090  -38.1340   23.8280 H   0  0  0  0  0  0  0  0  0  0  0  0
  1  2  1  0
  3 49  1  0
  3  1  2  0
  4  5  2  0
  4  7  1  0
  5  8  1  0
  6  9  1  0
  7  1  1  0
  7  6  2  0
  8 19  1  0
  8  9  2  0
  9 10  1  0
 11 19  1  0
 12 17  1  0
 13 14  1  0
 13 12  1  0
 15 14  1  0
 15 24  1  0
 15 16  1  0
 17 11  1  0
 17 16  1  0
 18 11  2  0
 19 20  1  0
 21 22  2  0
 22 41  1  0
 23 22  1  0
 23 26  1  0
 24 25  1  0
 24 21  1  0
 25 23  2  0
 26 27  1  0
 27 28  2  0
 29 32  1  0
 29 28  1  0
 30 29  2  0
 31 30  1  0
 31 26  2  0
 32 33  1  0
 33 38  2  0
 33 34  1  0
 34 35  2  0
 36 35  1  0
 36 40  1  0
 37 36  2  0
 38 37  1  0
 39 38  1  0
 41 42  1  0
 42 45  1  0
 42 44  1  0
 43 41  2  0
 46 21  1  0
 46 47  1  0
 48 46  1  0
 49 50  2  0
 51 52  1  0
 51 49  1  0
 53 64  2  0
 54 52  1  0
 54 59  1  0
 55 63  1  0
 55 65  1  0
 56 62  1  0
 56 58  1  0
 57 63  1  0
 58 57  1  0
 59 58  2  0
 60 61  1  0
 60 54  2  0
 61 56  2  0
 62 55  1  0
 63 53  1  0
 65 67  2  0
 66 65  1  0
 68 66  1  0
 69 78  2  0
 69 74  1  0
 70 66  1  0
 70 74  1  0
 71 70  1  0
 72 73  1  0
 72 71  1  0
 73 69  1  0
 74 75  2  0
 75 76  1  0
 77 76  2  0
 78 77  1  0
 79 53  1  0
 79 84  1  0
 79 80  1  0
 80 83  1  1
 80 81  1  0
 82 80  1  0
 84 87  1  0
 85 89  1  0
 85 84  1  0
 86 85  2  0
 89 88  1  0
 91 89  1  0
 91 92  1  0
 91 90  1  0
M  ISO  4  11 100  19 100  51 101  52 101
M  END
>  <TORSDO>  (11) 
F 19

>  <SCORE>  (11) 
-13.549

>  <name>  (11) 
10

>  <ligand_id>  (11) 
10

>  <original_smiles>  (11) 
[H]c1c([H])c([H])c2c(c1[H])C([H])([H])C([H])([H])C([H])([H])C2([H])N([H])C(=O)C1([H])N(C(=O)C([H])(N([H])C(=O)C([H])(N([H])C([H])([H])[H])C([H])([H])[H])C(C([H])([H])[H])(C([H])([H])[H])C([H])([H])[H])C([H])([H])c2c([H])c(OC([H])([H])C(=O)N=C(c3c([H])c([H])c(N([H])C(=O)N4C([H])([H])C([H])([H])C([H])([H])C([H])(n5nc(-c6c([H])c([H])c(Oc7c([H])c([H])c(F)c([H])c7F)c([H])c6[H])c(C(=O)N([H])[H])c5N([H])[H])C4([H])[H])c(F)c3[H])C([H])([H])[H])c([H])c([H])c2C1([H])[H]

>  <smiles>  (11) 
[H]c1c([H])c([H])c2c(c1[H])C([H])([H])C([H])([H])C([H])([H])C2([H])N([H])C(=O)C1([H])N(C(=O)C([H])(N([H])C(=O)C([H])(N([H])C([H])([H])[H])C([H])([H])[H])C(C([H])([H])[H])(C([H])([H])[H])C([H])([H])[H])C([H])([H])c2c([H])c(OC([H])([H])C(=O)N=C(c3c([H])c([H])c(N([H])C(=O)N4C([H])([H])C([H])([H])C([H])([H])C([H])(n5nc(-c6c([H])c([H])c(Oc7c([H])c([H])c(F)c([H])c7F)c([H])c6[H])c(C(=O)N([H])[H])c5N([H])[H])C4([H])[H])c(F)c3[H])C([H])([H])[H])c([H])c([H])c2C1([H])[H]

$$$$
11:0:0
     RDKit          3D

 91 99  0  0  1  0  0  0  0  0999 V2000
  -29.7520  -21.6520   19.7650 C   0  0  0  0  0  0  0  0  0  0  0  0
  -30.5710  -21.9590   18.8950 O   0  0  0  0  0  0  0  0  0  0  0  0
  -30.9650  -19.4110   20.2650 C   0  0  0  0  0  3  0  0  0  0  0  0
  -31.0130  -17.9870   20.4210 C   0  0  0  0  0  3  0  0  0  0  0  0
  -28.5670  -19.3560   20.1950 C   0  0  0  0  0  3  0  0  0  0  0  0
  -29.7470  -20.1440   20.1340 C   0  0  0  0  0  0  0  0  0  0  0  0
  -29.8290  -17.2040   20.4610 C   0  0  0  0  0  0  0  0  0  0  0  0
  -28.6120  -17.9350   20.3600 C   0  0  0  0  0  0  0  0  0  0  0  0
  -27.4480  -17.2450   20.3930 F   0  0  0  0  0  0  0  0  0  0  0  0
  -30.5760  -14.6950   20.3010 C   0  0  0  0  0  0  0  0  0  0  0  0
  -30.3750  -12.4530   19.2300 C   0  0  0  0  0  2  0  0  0  0  0  0
  -29.4130  -12.5800   18.0260 C   0  0  0  0  0  2  0  0  0  0  0  0
  -27.9450  -12.4130   18.4700 C   0  0  0  0  0  2  0  0  0  0  0  0
  -27.5980  -13.2650   19.7210 C   0  0  0  0  0  3  0  0  0  0  0  0
  -28.6720  -13.1050   20.8210 C   0  0  0  0  0  2  0  0  0  0  0  0
  -29.9710  -13.4630   20.2290 N   0  0  0  0  0  0  0  0  0  0  0  0
  -31.7410  -14.8540   19.9270 O   0  0  0  0  0  0  0  0  0  0  0  0
  -29.7510  -15.7440   20.6290 N   0  0  0  0  0  0  0  0  0  0  0  0
  -28.8230  -15.4340   20.8760 H   0  0  0  0  0  0  0  0  0  0  0  0
  -25.2070  -13.8520   20.4550 C   0  0  0  0  0  0  0  0  0  0  0  0
  -24.1470  -13.0750   20.8330 C   0  0  0  0  0  0  0  0  0  0  0  0
  -24.6170  -11.7260   20.8060 C   0  0  0  0  0  0  0  0  0  0  0  0
  -26.2560  -12.9780   20.2180 N   0  0  0  0  0  0  0  0  0  0  0  0
  -25.9060  -11.6930   20.4890 N   0  0  0  0  0  0  0  0  0  0  0  0
  -23.8980  -10.4610   21.0060 C   0  0  0  0  0  0  0  0  0  0  0  0
  -24.3430   -9.4980   21.9380 C   0  0  0  0  0  3  0  0  0  0  0  0
  -23.6230   -8.2990   22.1250 C   0  0  0  0  0  3  0  0  0  0  0  0
  -22.4440   -8.0540   21.3810 C   0  0  0  0  0  0  0  0  0  0  0  0
  -22.0190   -9.0060   20.4390 C   0  0  0  0  0  3  0  0  0  0  0  0
  -22.7390  -10.1970   20.2490 C   0  0  0  0  0  3  0  0  0  0  0  0
  -21.6960   -6.9060   21.4780 O   0  0  0  0  0  0  0  0  0  0  0  0
  -21.6640   -6.1620   22.6310 C   0  0  0  0  0  0  0  0  0  0  0  0
  -21.2460   -6.7150   23.8620 C   0  0  0  0  0  3  0  0  0  0  0  0
  -21.1620   -5.8980   25.0070 C   0  0  0  0  0  3  0  0  0  0  0  0
  -21.4840   -4.5300   24.9220 C   0  0  0  0  0  0  0  0  0  0  0  0
  -21.8960   -3.9770   23.6970 C   0  0  0  0  0  3  0  0  0  0  0  0
  -21.9820   -4.7920   22.5530 C   0  0  0  0  0  0  0  0  0  0  0  0
  -22.3580   -4.2500   21.3700 F   0  0  0  0  0  0  0  0  0  0  0  0
  -21.3960   -3.7430   26.0200 F   0  0  0  0  0  0  0  0  0  0  0  0
  -22.7490  -13.5470   21.1130 C   0  0  0  0  0  0  0  0  0  0  0  0
  -22.0320  -12.8500   21.9870 N   0  0  0  0  0  0  0  0  0  0  0  0
  -22.3030  -14.5690   20.5950 O   0  0  0  0  0  0  0  0  0  0  0  0
  -22.4050  -12.0230   22.4290 H   0  0  0  0  0  0  0  0  0  0  0  0
  -21.0940  -13.1490   22.2180 H   0  0  0  0  0  0  0  0  0  0  0  0
  -25.3570  -15.2230   20.2790 N   0  0  0  0  0  0  0  0  0  0  0  0
  -24.5850  -15.8640   20.4260 H   0  0  0  0  0  0  0  0  0  0  0  0
  -26.2160  -15.7060   20.0370 H   0  0  0  0  0  0  0  0  0  0  0  0
  -28.9780  -23.8700   20.0900 C   0  0  0  0  0  3  0  0  0  0  0  0
  -28.9160  -22.5970   20.4280 N   0  0  0  0  0  0  0  0  0  0  0  0
  -28.1110  -25.0530   20.6870 C   0  0  0  0  0  2  0  0  0  0  0  0
  -28.3360  -26.4520   20.2160 O   0  0  0  0  0  0  0  0  0  0  0  0
  -24.6040  -31.8760   23.2410 C   0  0  0  0  0  0  0  0  0  0  0  0
  -27.2260  -27.3130   20.1950 C   0  0  0  0  0  0  0  0  0  0  0  0
  -23.4030  -30.4730   21.6020 C   0  0  0  0  0  3  0  0  0  0  0  0
  -24.8580  -28.9240   20.1780 C   0  0  0  0  0  0  0  0  0  0  0  0
  -25.9430  -30.7960   21.4180 C   0  0  0  0  0  2  0  0  0  0  0  0
  -26.0260  -29.4160   20.7740 C   0  0  0  0  0  0  0  0  0  0  0  0
  -27.2160  -28.6240   20.7700 C   0  0  0  0  0  3  0  0  0  0  0  0
  -26.0380  -26.8810   19.5650 C   0  0  0  0  0  3  0  0  0  0  0  0
  -24.8660  -27.6610   19.5630 C   0  0  0  0  0  3  0  0  0  0  0  0
  -23.6190  -29.7960   20.2230 C   0  0  0  0  0  2  0  0  0  0  0  0
  -24.6690  -31.0660   22.1440 N   0  0  0  0  0  0  0  0  0  0  0  0
  -23.5200  -32.1530   23.7750 O   0  0  0  0  0  0  0  0  0  0  0  0
  -22.7420  -29.4570   22.5640 C   0  0  0  0  0  0  0  0  0  0  0  0
  -21.4150  -29.2820   22.4400 N   0  0  0  0  0  0  0  0  0  0  0  0
  -23.4210  -28.8300   23.3800 O   0  0  0  0  0  0  0  0  0  0  0  0
  -20.9260  -29.8410   21.7540 H   0  0  0  0  0  0  0  0  0  0  0  0
  -18.0370  -28.0920   22.9490 C   0  0  0  0  0  0  0  0  0  0  0  0
  -20.5960  -28.3460   23.2120 C   0  0  0  0  0  3  0  0  0  0  0  0
  -20.6940  -26.9140   22.6350 C   0  0  0  0  0  2  0  0  0  0  0  0
  -19.5890  -26.5940   21.6240 C   0  0  0  0  0  2  0  0  0  0  0  0
  -18.2090  -26.7420   22.2720 C   0  0  0  0  0  2  0  0  0  0  0  0
  -19.1580  -28.8520   23.3760 C   0  0  0  0  0  0  0  0  0  0  0  0
  -18.9420  -30.1140   23.9690 C   0  0  0  0  0  3  0  0  0  0  0  0
  -17.6390  -30.6170   24.1390 C   0  0  0  0  0  3  0  0  0  0  0  0
  -16.5320  -29.8550   23.7280 C   0  0  0  0  0  3  0  0  0  0  0  0
  -16.7330  -28.5930   23.1380 C   0  0  0  0  0  3  0  0  0  0  0  0
  -25.8860  -32.5110   23.8630 C   0  0  0  0  0  3  0  0  0  0  0  0
  -26.4020  -31.7430   25.1410 C   0  0  1  0  0  0  0  0  0  0  0  0
  -25.3080  -31.5070   26.2100 C   0  0  0  0  0  1  0  0  0  0  0  0
  -26.9860  -30.3650   24.7530 C   0  0  0  0  0  1  0  0  0  0  0  0
  -27.5520  -32.5390   25.8020 C   0  0  0  0  0  1  0  0  0  0  0  0
  -25.5740  -33.9090   24.1910 N   0  0  0  0  0  0  0  0  0  0  0  0
  -25.9070  -34.9630   23.4330 C   0  0  0  0  0  0  0  0  0  0  0  0
  -26.5770  -34.8590   22.4030 O   0  0  0  0  0  0  0  0  0  0  0  0
  -24.9780  -34.0630   24.9910 H   0  0  0  0  0  0  0  0  0  0  0  0
  -24.1810  -36.7580   23.0740 C   0  0  0  0  0  1  0  0  0  0  0  0
  -25.4190  -36.3510   23.8900 C   0  0  0  0  0  3  0  0  0  0  0  0
  -27.5500  -37.2350   24.7300 C   0  0  0  0  0  1  0  0  0  0  0  0
  -26.4540  -37.4030   23.7800 N   0  0  0  0  0  0  0  0  0  0  0  0
  -26.0480  -38.3240   23.9230 H   0  0  0  0  0  0  0  0  0  0  0  0
  1  6  1  0
  1 49  1  0
  2  1  2  0
  3  4  1  0
  4  7  2  0
  5  8  2  0
  6  5  1  0
  6  3  2  0
  7 18  1  0
  8  9  1  0
  8  7  1  0
 10 18  1  0
 11 16  1  0
 12 13  1  0
 12 11  1  0
 14 13  1  0
 14 23  1  0
 14 15  1  0
 16 10  1  0
 16 15  1  0
 17 10  2  0
 18 19  1  0
 20 21  2  0
 21 40  1  0
 22 21  1  0
 22 25  1  0
 23 20  1  0
 23 24  1  0
 24 22  2  0
 25 26  1  0
 26 27  2  0
 28 31  1  0
 28 27  1  0
 29 28  2  0
 30 29  1  0
 30 25  2  0
 31 32  1  0
 32 33  1  0
 33 34  2  0
 35 34  1  0
 35 39  1  0
 36 35  2  0
 37 32  2  0
 37 36  1  0
 38 37  1  0
 40 41  1  0
 41 44  1  0
 41 43  1  0
 42 40  2  0
 45 46  1  0
 45 20  1  0
 47 45  1  0
 48 49  2  0
 48 50  1  0
 51 50  1  0
 52 63  2  0
 53 51  1  0
 53 58  1  0
 54 62  1  0
 54 64  1  0
 55 61  1  0
 55 57  1  0
 56 62  1  0
 57 56  1  0
 58 57  2  0
 59 53  2  0
 60 59  1  0
 60 55  2  0
 61 54  1  0
 62 52  1  0
 64 66  2  0
 65 64  1  0
 67 65  1  0
 68 77  2  0
 68 73  1  0
 69 65  1  0
 69 73  1  0
 70 69  1  0
 71 72  1  0
 71 70  1  0
 72 68  1  0
 73 74  2  0
 74 75  1  0
 76 75  2  0
 77 76  1  0
 78 52  1  0
 78 83  1  0
 78 79  1  0
 79 82  1  1
 79 80  1  0
 81 79  1  0
 83 86  1  0
 84 88  1  0
 84 83  1  0
 85 84  2  0
 88 87  1  0
 90 88  1  0
 90 91  1  0
 90 89  1  0
M  ISO  4  10 100  18 100  50 101  51 101
M  END
>  <TORSDO>  (12) 
F 19

>  <SCORE>  (12) 
-14.481

>  <name>  (12) 
11

>  <ligand_id>  (12) 
11

>  <original_smiles>  (12) 
[H]C(=NC(=O)c1c([H])c([H])c(N([H])C(=O)N2C([H])([H])C([H])([H])C([H])([H])C([H])(n3nc(-c4c([H])c([H])c(Oc5c([H])c([H])c(F)c([H])c5F)c([H])c4[H])c(C(=O)N([H])[H])c3N([H])[H])C2([H])[H])c(F)c1[H])C([H])([H])Oc1c([H])c([H])c2c(c1[H])C([H])([H])N(C(=O)C([H])(N([H])C(=O)C([H])(N([H])C([H])([H])[H])C([H])([H])[H])C(C([H])([H])[H])(C([H])([H])[H])C([H])([H])[H])C([H])(C(=O)N([H])C1([H])c3c([H])c([H])c([H])c([H])c3C([H])([H])C([H])([H])C1([H])[H])C2([H])[H]

>  <smiles>  (12) 
[H]C(=NC(=O)c1c([H])c([H])c(N([H])C(=O)N2C([H])([H])C([H])([H])C([H])([H])C([H])(n3nc(-c4c([H])c([H])c(Oc5c([H])c([H])c(F)c([H])c5F)c([H])c4[H])c(C(=O)N([H])[H])c3N([H])[H])C2([H])[H])c(F)c1[H])C([H])([H])Oc1c([H])c([H])c2c(c1[H])C([H])([H])N(C(=O)C([H])(N([H])C(=O)C([H])(N([H])C([H])([H])[H])C([H])([H])[H])C(C([H])([H])[H])(C([H])([H])[H])C([H])([H])[H])C([H])(C(=O)N([H])C1([H])c3c([H])c([H])c([H])c([H])c3C([H])([H])C([H])([H])C1([H])[H])C2([H])[H]

$$$$
12:0:0
     RDKit          3D

 94102  0  0  1  0  0  0  0  0999 V2000
  -29.1020  -22.6880   20.3540 C   0  0  0  0  0  0  0  0  0  0  0  0
  -28.9030  -21.3030   20.5720 N   0  0  0  0  0  0  0  0  0  0  0  0
  -30.0430  -23.0970   19.6740 O   0  0  0  0  0  0  0  0  0  0  0  0
  -27.9730  -21.0790   20.8960 H   0  0  0  0  0  0  0  0  0  0  0  0
  -32.0750  -19.1930   20.2820 C   0  0  0  0  0  3  0  0  0  0  0  0
  -31.1810  -20.2790   20.3230 C   0  0  0  0  0  3  0  0  0  0  0  0
  -31.6380  -17.8570   20.3580 C   0  0  0  0  0  3  0  0  0  0  0  0
  -29.7880  -20.0870   20.4480 C   0  0  0  0  0  0  0  0  0  0  0  0
  -30.2680  -17.5120   20.4710 C   0  0  0  0  0  0  0  0  0  0  0  0
  -29.3590  -18.6740   20.5270 C   0  0  0  0  0  0  0  0  0  0  0  0
  -28.0340  -18.4270   20.6680 F   0  0  0  0  0  0  0  0  0  0  0  0
  -30.5890  -14.8550   20.3380 C   0  0  0  0  0  0  0  0  0  0  0  0
  -30.3680  -12.5540   19.3500 C   0  0  0  0  0  2  0  0  0  0  0  0
  -29.4240  -12.5850   18.1280 C   0  0  0  0  0  2  0  0  0  0  0  0
  -27.9630  -12.3930   18.5750 C   0  0  0  0  0  2  0  0  0  0  0  0
  -27.5880  -13.2950   19.7820 C   0  0  0  0  0  3  0  0  0  0  0  0
  -28.6570  -13.2640   20.8940 C   0  0  0  0  0  2  0  0  0  0  0  0
  -29.9370  -13.6340   20.2770 N   0  0  0  0  0  0  0  0  0  0  0  0
  -31.7800  -14.8720   20.0170 O   0  0  0  0  0  0  0  0  0  0  0  0
  -29.8690  -16.0490   20.5440 N   0  0  0  0  0  0  0  0  0  0  0  0
  -28.8880  -15.9010   20.7270 H   0  0  0  0  0  0  0  0  0  0  0  0
  -25.2090  -13.8660   20.5420 C   0  0  0  0  0  0  0  0  0  0  0  0
  -24.1510  -13.0860   20.9190 C   0  0  0  0  0  0  0  0  0  0  0  0
  -24.6200  -11.7360   20.8790 C   0  0  0  0  0  0  0  0  0  0  0  0
  -26.2550  -12.9930   20.2910 N   0  0  0  0  0  0  0  0  0  0  0  0
  -25.9090  -11.7060   20.5590 N   0  0  0  0  0  0  0  0  0  0  0  0
  -23.8990  -10.4710   21.0700 C   0  0  0  0  0  0  0  0  0  0  0  0
  -24.3420   -9.4990   21.9940 C   0  0  0  0  0  3  0  0  0  0  0  0
  -23.6190   -8.3000   22.1750 C   0  0  0  0  0  3  0  0  0  0  0  0
  -22.4400   -8.0620   21.4300 C   0  0  0  0  0  0  0  0  0  0  0  0
  -22.0150   -9.0230   20.4940 C   0  0  0  0  0  3  0  0  0  0  0  0
  -22.7380  -10.2140   20.3120 C   0  0  0  0  0  3  0  0  0  0  0  0
  -21.6880   -6.9160   21.5190 O   0  0  0  0  0  0  0  0  0  0  0  0
  -21.6560   -6.1630   22.6660 C   0  0  0  0  0  0  0  0  0  0  0  0
  -21.2410   -6.7060   23.9020 C   0  0  0  0  0  3  0  0  0  0  0  0
  -21.1570   -5.8820   25.0410 C   0  0  0  0  0  3  0  0  0  0  0  0
  -21.4780   -4.5140   24.9460 C   0  0  0  0  0  0  0  0  0  0  0  0
  -21.8860   -3.9700   23.7150 C   0  0  0  0  0  3  0  0  0  0  0  0
  -21.9710   -4.7930   22.5770 C   0  0  0  0  0  0  0  0  0  0  0  0
  -22.3450   -4.2600   21.3890 F   0  0  0  0  0  0  0  0  0  0  0  0
  -21.3900   -3.7180   26.0370 F   0  0  0  0  0  0  0  0  0  0  0  0
  -22.7550  -13.5570   21.2020 C   0  0  0  0  0  0  0  0  0  0  0  0
  -22.0360  -12.8550   22.0700 N   0  0  0  0  0  0  0  0  0  0  0  0
  -22.3100  -14.5830   20.6890 O   0  0  0  0  0  0  0  0  0  0  0  0
  -22.4090  -12.0250   22.5080 H   0  0  0  0  0  0  0  0  0  0  0  0
  -21.0990  -13.1520   22.3030 H   0  0  0  0  0  0  0  0  0  0  0  0
  -25.3650  -15.2380   20.3670 N   0  0  0  0  0  0  0  0  0  0  0  0
  -24.5930  -15.8840   20.4880 H   0  0  0  0  0  0  0  0  0  0  0  0
  -26.2020  -15.6860   20.0170 H   0  0  0  0  0  0  0  0  0  0  0  0
  -27.8020  -25.0100   20.9270 C   0  0  0  0  0  3  0  0  0  0  0  0
  -28.0880  -23.6280   20.9910 C   0  0  0  0  0  0  0  0  0  0  0  0
  -27.2980  -22.9950   21.8750 O   0  0  0  0  0  0  0  0  0  0  0  0
  -27.7560  -22.2090   22.1430 H   0  0  0  0  0  0  0  0  0  0  0  0
  -28.2190  -26.2290   20.2860 O   0  0  0  0  0  0  0  0  0  0  0  0
  -24.6180  -31.8790   23.2330 C   0  0  0  0  0  0  0  0  0  0  0  0
  -27.2130  -27.2370   20.1970 C   0  0  0  0  0  0  0  0  0  0  0  0
  -23.4180  -30.4780   21.5970 C   0  0  0  0  0  3  0  0  0  0  0  0
  -24.8730  -28.9210   20.1660 C   0  0  0  0  0  0  0  0  0  0  0  0
  -25.9660  -30.7720   21.4210 C   0  0  0  0  0  2  0  0  0  0  0  0
  -26.0480  -29.3860   20.7730 C   0  0  0  0  0  0  0  0  0  0  0  0
  -27.2230  -28.5560   20.7810 C   0  0  0  0  0  3  0  0  0  0  0  0
  -26.0200  -26.8620   19.5400 C   0  0  0  0  0  3  0  0  0  0  0  0
  -24.8670  -27.6690   19.5350 C   0  0  0  0  0  3  0  0  0  0  0  0
  -23.6370  -29.8020   20.2170 C   0  0  0  0  0  2  0  0  0  0  0  0
  -24.6870  -31.0630   22.1380 N   0  0  0  0  0  0  0  0  0  0  0  0
  -23.5330  -32.1590   23.7650 O   0  0  0  0  0  0  0  0  0  0  0  0
  -22.7500  -29.4660   22.5600 C   0  0  0  0  0  0  0  0  0  0  0  0
  -21.4220  -29.2880   22.4370 N   0  0  0  0  0  0  0  0  0  0  0  0
  -23.4270  -28.8420   23.3820 O   0  0  0  0  0  0  0  0  0  0  0  0
  -20.9320  -29.8420   21.7470 H   0  0  0  0  0  0  0  0  0  0  0  0
  -18.0450  -28.0840   22.9450 C   0  0  0  0  0  0  0  0  0  0  0  0
  -20.6040  -28.3520   23.2110 C   0  0  0  0  0  3  0  0  0  0  0  0
  -20.7090  -26.9180   22.6410 C   0  0  0  0  0  2  0  0  0  0  0  0
  -19.6070  -26.5890   21.6290 C   0  0  0  0  0  2  0  0  0  0  0  0
  -18.2250  -26.7330   22.2740 C   0  0  0  0  0  2  0  0  0  0  0  0
  -19.1630  -28.8510   23.3720 C   0  0  0  0  0  0  0  0  0  0  0  0
  -18.9390  -30.1140   23.9610 C   0  0  0  0  0  3  0  0  0  0  0  0
  -17.6330  -30.6120   24.1270 C   0  0  0  0  0  3  0  0  0  0  0  0
  -16.5310  -29.8420   23.7160 C   0  0  0  0  0  3  0  0  0  0  0  0
  -16.7380  -28.5800   23.1310 C   0  0  0  0  0  3  0  0  0  0  0  0
  -25.8980  -32.5170   23.8530 C   0  0  0  0  0  3  0  0  0  0  0  0
  -26.4130  -31.7530   25.1350 C   0  0  1  0  0  0  0  0  0  0  0  0
  -25.3180  -31.5230   26.2040 C   0  0  0  0  0  1  0  0  0  0  0  0
  -26.9950  -30.3720   24.7550 C   0  0  0  0  0  1  0  0  0  0  0  0
  -27.5630  -32.5500   25.7930 C   0  0  0  0  0  1  0  0  0  0  0  0
  -25.5860  -33.9160   24.1810 N   0  0  0  0  0  0  0  0  0  0  0  0
  -25.9130  -34.9690   23.4190 C   0  0  0  0  0  0  0  0  0  0  0  0
  -26.5800  -34.8640   22.3870 O   0  0  0  0  0  0  0  0  0  0  0  0
  -24.9940  -34.0710   24.9840 H   0  0  0  0  0  0  0  0  0  0  0  0
  -24.1850  -36.7630   23.0680 C   0  0  0  0  0  1  0  0  0  0  0  0
  -25.4280  -36.3580   23.8770 C   0  0  0  0  0  3  0  0  0  0  0  0
  -27.5650  -37.2460   24.7020 C   0  0  0  0  0  1  0  0  0  0  0  0
  -26.4610  -37.4120   23.7610 N   0  0  0  0  0  0  0  0  0  0  0  0
  -26.0550  -38.3320   23.9070 H   0  0  0  0  0  0  0  0  0  0  0  0
  1  2  1  0
  1 51  1  0
  2  4  1  0
  3  1  2  0
  5  6  2  0
  5  7  1  0
  6  8  1  0
  7  9  2  0
  8 10  2  0
  8  2  1  0
  9 10  1  0
  9 20  1  0
 10 11  1  0
 12 20  1  0
 13 18  1  0
 14 15  1  0
 14 13  1  0
 16 15  1  0
 16 25  1  0
 16 17  1  0
 18 12  1  0
 18 17  1  0
 19 12  2  0
 20 21  1  0
 22 23  2  0
 23 42  1  0
 24 23  1  0
 24 27  1  0
 25 22  1  0
 25 26  1  0
 26 24  2  0
 27 28  1  0
 28 29  2  0
 30 33  1  0
 30 29  1  0
 31 30  2  0
 32 31  1  0
 32 27  2  0
 33 34  1  0
 34 35  1  0
 35 36  2  0
 37 36  1  0
 37 41  1  0
 38 37  2  0
 39 34  2  0
 39 38  1  0
 40 39  1  0
 42 43  1  0
 43 46  1  0
 43 45  1  0
 44 42  2  0
 47 48  1  0
 47 22  1  0
 49 47  1  0
 50 51  2  0
 51 52  1  0
 52 53  1  0
 54 50  1  0
 55 66  2  0
 56 54  1  0
 56 61  1  0
 57 65  1  0
 57 67  1  0
 58 64  1  0
 58 60  1  0
 59 65  1  0
 60 61  2  0
 60 59  1  0
 62 56  2  0
 63 62  1  0
 63 58  2  0
 64 57  1  0
 65 55  1  0
 67 69  2  0
 68 67  1  0
 70 68  1  0
 71 80  2  0
 71 76  1  0
 72 68  1  0
 72 76  1  0
 73 72  1  0
 74 75  1  0
 74 73  1  0
 75 71  1  0
 76 77  2  0
 77 78  1  0
 79 78  2  0
 80 79  1  0
 81 55  1  0
 81 86  1  0
 81 82  1  0
 82 85  1  1
 82 83  1  0
 84 82  1  0
 86 89  1  0
 87 91  1  0
 87 86  1  0
 88 87  2  0
 91 90  1  0
 93 91  1  0
 93 94  1  0
 93 92  1  0
M  ISO  4  12 100  20 100  50 101  54 101
M  END
>  <TORSDO>  (13) 
F 19

>  <SCORE>  (13) 
-14.932

>  <name>  (13) 
12

>  <ligand_id>  (13) 
12

>  <original_smiles>  (13) 
[H]OC(C(=O)N([H])c1c([H])c([H])c([H])c(N([H])C(=O)N2C([H])([H])C([H])([H])C([H])([H])C([H])(n3nc(-c4c([H])c([H])c(Oc5c([H])c([H])c(F)c([H])c5F)c([H])c4[H])c(C(=O)N([H])[H])c3N([H])[H])C2([H])[H])c1F)=C([H])Oc1c([H])c([H])c2c(c1[H])C([H])([H])N(C(=O)C([H])(N([H])C(=O)C([H])(N([H])C([H])([H])[H])C([H])([H])[H])C(C([H])([H])[H])(C([H])([H])[H])C([H])([H])[H])C([H])(C(=O)N([H])C1([H])c3c([H])c([H])c([H])c([H])c3C([H])([H])C([H])([H])C1([H])[H])C2([H])[H]

>  <smiles>  (13) 
[H]OC(C(=O)N([H])c1c([H])c([H])c([H])c(N([H])C(=O)N2C([H])([H])C([H])([H])C([H])([H])C([H])(n3nc(-c4c([H])c([H])c(Oc5c([H])c([H])c(F)c([H])c5F)c([H])c4[H])c(C(=O)N([H])[H])c3N([H])[H])C2([H])[H])c1F)=C([H])Oc1c([H])c([H])c2c(c1[H])C([H])([H])N(C(=O)C([H])(N([H])C(=O)C([H])(N([H])C([H])([H])[H])C([H])([H])[H])C(C([H])([H])[H])(C([H])([H])[H])C([H])([H])[H])C([H])(C(=O)N([H])C1([H])c3c([H])c([H])c([H])c([H])c3C([H])([H])C([H])([H])C1([H])[H])C2([H])[H]

$$$$
13:0:0
     RDKit          3D

 93102  0  0  1  0  0  0  0  0999 V2000
  -28.1720  -23.6650   20.7200 C   0  0  0  0  0  0  0  0  0  0  0  0
  -29.2450  -22.7930   20.1290 C   0  0  0  0  0  0  0  0  0  0  0  0
  -27.8320  -25.0360   20.7320 C   0  0  0  0  0  3  0  0  0  0  0  0
  -27.2700  -22.7120   21.4680 C   0  0  0  0  0  3  0  0  0  0  0  0
  -27.7800  -21.2960   21.1670 C   0  0  0  0  0  3  0  0  0  0  0  0
  -29.0470  -21.4290   20.4530 N   0  0  0  0  0  0  0  0  0  0  0  0
  -30.1740  -23.2170   19.4350 O   0  0  0  0  0  0  0  0  0  0  0  0
  -32.1330  -19.2910   19.6910 C   0  0  0  0  0  3  0  0  0  0  0  0
  -31.2510  -20.3730   19.8660 C   0  0  0  0  0  3  0  0  0  0  0  0
  -31.7260  -17.9560   19.8680 C   0  0  0  0  0  3  0  0  0  0  0  0
  -29.8980  -20.1870   20.2340 C   0  0  0  0  0  0  0  0  0  0  0  0
  -30.4020  -17.6100   20.2320 C   0  0  0  0  0  0  0  0  0  0  0  0
  -29.5040  -18.7680   20.4140 C   0  0  0  0  0  0  0  0  0  0  0  0
  -28.2260  -18.4890   20.7670 F   0  0  0  0  0  0  0  0  0  0  0  0
  -30.7440  -14.9530   20.1820 C   0  0  0  0  0  0  0  0  0  0  0  0
  -30.5210  -12.6530   19.1980 C   0  0  0  0  0  2  0  0  0  0  0  0
  -29.5600  -12.6840   17.9910 C   0  0  0  0  0  2  0  0  0  0  0  0
  -28.1080  -12.4750   18.4590 C   0  0  0  0  0  2  0  0  0  0  0  0
  -27.7410  -13.3690   19.6750 C   0  0  0  0  0  3  0  0  0  0  0  0
  -28.8310  -13.3470   20.7710 C   0  0  0  0  0  2  0  0  0  0  0  0
  -30.0970  -13.7290   20.1340 N   0  0  0  0  0  0  0  0  0  0  0  0
  -31.9330  -14.9700   19.8550 O   0  0  0  0  0  0  0  0  0  0  0  0
  -30.0270  -16.1480   20.3950 N   0  0  0  0  0  0  0  0  0  0  0  0
  -29.0620  -16.0010   20.6500 H   0  0  0  0  0  0  0  0  0  0  0  0
  -25.3750  -13.9150   20.4910 C   0  0  0  0  0  0  0  0  0  0  0  0
  -24.3270  -13.1230   20.8730 C   0  0  0  0  0  0  0  0  0  0  0  0
  -24.8020  -11.7770   20.8010 C   0  0  0  0  0  0  0  0  0  0  0  0
  -26.4200  -13.0510   20.2040 N   0  0  0  0  0  0  0  0  0  0  0  0
  -26.0840  -11.7580   20.4550 N   0  0  0  0  0  0  0  0  0  0  0  0
  -24.0900  -10.5040   20.9830 C   0  0  0  0  0  0  0  0  0  0  0  0
  -24.5170   -9.5480   21.9310 C   0  0  0  0  0  3  0  0  0  0  0  0
  -23.8020   -8.3420   22.1020 C   0  0  0  0  0  3  0  0  0  0  0  0
  -22.6470   -8.0850   21.3260 C   0  0  0  0  0  0  0  0  0  0  0  0
  -22.2390   -9.0300   20.3690 C   0  0  0  0  0  3  0  0  0  0  0  0
  -22.9530  -10.2270   20.1960 C   0  0  0  0  0  3  0  0  0  0  0  0
  -21.9060   -6.9300   21.4060 O   0  0  0  0  0  0  0  0  0  0  0  0
  -21.7960   -6.2250   22.5790 C   0  0  0  0  0  0  0  0  0  0  0  0
  -21.2680   -6.8080   23.7510 C   0  0  0  0  0  3  0  0  0  0  0  0
  -21.1070   -6.0280   24.9130 C   0  0  0  0  0  3  0  0  0  0  0  0
  -21.4640   -4.6660   24.9040 C   0  0  0  0  0  0  0  0  0  0  0  0
  -21.9840   -4.0820   23.7360 C   0  0  0  0  0  3  0  0  0  0  0  0
  -22.1470   -4.8600   22.5750 C   0  0  0  0  0  0  0  0  0  0  0  0
  -22.6290   -4.2870   21.4450 F   0  0  0  0  0  0  0  0  0  0  0  0
  -21.3020   -3.9140   26.0180 F   0  0  0  0  0  0  0  0  0  0  0  0
  -22.9340  -13.5830   21.1910 C   0  0  0  0  0  0  0  0  0  0  0  0
  -22.2330  -12.8620   22.0570 N   0  0  0  0  0  0  0  0  0  0  0  0
  -22.4770  -14.6170   20.7060 O   0  0  0  0  0  0  0  0  0  0  0  0
  -22.6170  -12.0260   22.4730 H   0  0  0  0  0  0  0  0  0  0  0  0
  -21.2980  -13.1510   22.3100 H   0  0  0  0  0  0  0  0  0  0  0  0
  -25.5220  -15.2900   20.3380 N   0  0  0  0  0  0  0  0  0  0  0  0
  -24.7530  -15.9340   20.4880 H   0  0  0  0  0  0  0  0  0  0  0  0
  -26.3560  -15.7510   19.9970 H   0  0  0  0  0  0  0  0  0  0  0  0
  -28.2630  -26.3110   20.2180 O   0  0  0  0  0  0  0  0  0  0  0  0
  -24.6330  -31.9150   23.2250 C   0  0  0  0  0  0  0  0  0  0  0  0
  -27.2460  -27.3110   20.1450 C   0  0  0  0  0  0  0  0  0  0  0  0
  -23.4370  -30.5220   21.5790 C   0  0  0  0  0  3  0  0  0  0  0  0
  -24.8960  -28.9860   20.1330 C   0  0  0  0  0  0  0  0  0  0  0  0
  -25.9820  -30.8310   21.4030 C   0  0  0  0  0  2  0  0  0  0  0  0
  -26.0700  -29.4500   20.7440 C   0  0  0  0  0  0  0  0  0  0  0  0
  -27.2490  -28.6240   20.7440 C   0  0  0  0  0  3  0  0  0  0  0  0
  -26.0560  -26.9410   19.4820 C   0  0  0  0  0  3  0  0  0  0  0  0
  -24.8960  -27.7410   19.4890 C   0  0  0  0  0  3  0  0  0  0  0  0
  -23.6560  -29.8600   20.1930 C   0  0  0  0  0  2  0  0  0  0  0  0
  -24.7030  -31.1070   22.1250 N   0  0  0  0  0  0  0  0  0  0  0  0
  -23.5470  -32.1860   23.7610 O   0  0  0  0  0  0  0  0  0  0  0  0
  -22.7730  -29.4980   22.5340 C   0  0  0  0  0  0  0  0  0  0  0  0
  -21.4470  -29.3140   22.4060 N   0  0  0  0  0  0  0  0  0  0  0  0
  -23.4530  -28.8740   23.3520 O   0  0  0  0  0  0  0  0  0  0  0  0
  -20.9560  -29.8700   21.7200 H   0  0  0  0  0  0  0  0  0  0  0  0
  -18.0770  -28.0880   22.9060 C   0  0  0  0  0  0  0  0  0  0  0  0
  -20.6340  -28.3680   23.1740 C   0  0  0  0  0  3  0  0  0  0  0  0
  -20.7470  -26.9390   22.5930 C   0  0  0  0  0  2  0  0  0  0  0  0
  -19.6470  -26.6130   21.5760 C   0  0  0  0  0  2  0  0  0  0  0  0
  -18.2650  -26.7440   22.2230 C   0  0  0  0  0  2  0  0  0  0  0  0
  -19.1910  -28.8580   23.3380 C   0  0  0  0  0  0  0  0  0  0  0  0
  -18.9610  -30.1140   23.9380 C   0  0  0  0  0  3  0  0  0  0  0  0
  -17.6530  -30.6030   24.1100 C   0  0  0  0  0  3  0  0  0  0  0  0
  -16.5540  -29.8300   23.6930 C   0  0  0  0  0  3  0  0  0  0  0  0
  -16.7680  -28.5750   23.0970 C   0  0  0  0  0  3  0  0  0  0  0  0
  -25.9110  -32.5530   23.8500 C   0  0  0  0  0  3  0  0  0  0  0  0
  -25.5960  -33.9510   24.1820 N   0  0  0  0  0  0  0  0  0  0  0  0
  -25.9200  -35.0080   23.4240 C   0  0  0  0  0  0  0  0  0  0  0  0
  -26.5860  -34.9070   22.3900 O   0  0  0  0  0  0  0  0  0  0  0  0
  -25.0080  -34.1030   24.9890 H   0  0  0  0  0  0  0  0  0  0  0  0
  -24.1890  -36.8000   23.0740 C   0  0  0  0  0  1  0  0  0  0  0  0
  -25.4320  -36.3950   23.8840 C   0  0  0  0  0  3  0  0  0  0  0  0
  -27.5630  -37.2850   24.7200 C   0  0  0  0  0  1  0  0  0  0  0  0
  -26.4620  -37.4500   23.7720 N   0  0  0  0  0  0  0  0  0  0  0  0
  -26.0550  -38.3700   23.9160 H   0  0  0  0  0  0  0  0  0  0  0  0
  -26.4260  -31.7840   25.1280 C   0  0  1  0  0  0  0  0  0  0  0  0
  -25.3310  -31.5470   26.1950 C   0  0  0  0  0  1  0  0  0  0  0  0
  -27.0120  -30.4060   24.7420 C   0  0  0  0  0  1  0  0  0  0  0  0
  -27.5740  -32.5800   25.7930 C   0  0  0  0  0  1  0  0  0  0  0  0
  1  3  2  0
  1  4  1  0
  2  6  1  0
  2  1  1  0
  5  4  2  0
  6  5  1  0
  7  2  2  0
  8  9  2  0
  8 10  1  0
  9 11  1  0
 10 12  2  0
 11 13  2  0
 11  6  1  0
 12 23  1  0
 12 13  1  0
 13 14  1  0
 15 23  1  0
 16 21  1  0
 17 18  1  0
 17 16  1  0
 19 18  1  0
 19 28  1  0
 19 20  1  0
 21 15  1  0
 21 20  1  0
 22 15  2  0
 23 24  1  0
 25 26  2  0
 26 45  1  0
 27 26  1  0
 27 30  1  0
 28 29  1  0
 28 25  1  0
 29 27  2  0
 30 31  1  0
 31 32  2  0
 33 36  1  0
 33 32  1  0
 34 33  2  0
 35 34  1  0
 35 30  2  0
 36 37  1  0
 37 38  1  0
 38 39  2  0
 40 39  1  0
 40 44  1  0
 41 40  2  0
 42 37  2  0
 42 41  1  0
 43 42  1  0
 45 46  1  0
 46 49  1  0
 46 48  1  0
 47 45  2  0
 50 51  1  0
 50 25  1  0
 52 50  1  0
 53  3  1  0
 54 65  2  0
 55 53  1  0
 55 60  1  0
 56 64  1  0
 56 66  1  0
 57 63  1  0
 57 59  1  0
 58 64  1  0
 59 60  2  0
 59 58  1  0
 61 62  1  0
 61 55  2  0
 62 57  2  0
 63 56  1  0
 64 54  1  0
 66 68  2  0
 67 66  1  0
 69 67  1  0
 70 79  2  0
 70 75  1  0
 71 67  1  0
 71 75  1  0
 72 71  1  0
 73 74  1  0
 73 72  1  0
 74 70  1  0
 75 76  2  0
 76 77  1  0
 78 77  2  0
 79 78  1  0
 80 54  1  0
 80 81  1  0
 80 90  1  0
 81 84  1  0
 82 86  1  0
 82 81  1  0
 83 82  2  0
 86 85  1  0
 88 86  1  0
 88 89  1  0
 88 87  1  0
 90 93  1  1
 90 91  1  0
 92 90  1  0
M  ISO  4   3 101  15 100  23 100  53 101
M  END
>  <TORSDO>  (14) 
F 17

>  <SCORE>  (14) 
-15.100

>  <name>  (14) 
13

>  <ligand_id>  (14) 
13

>  <original_smiles>  (14) 
[H]C(Oc1c([H])c([H])c2c(c1[H])C([H])([H])N(C(=O)C([H])(N([H])C(=O)C([H])(N([H])C([H])([H])[H])C([H])([H])[H])C(C([H])([H])[H])(C([H])([H])[H])C([H])([H])[H])C([H])(C(=O)N([H])C1([H])c3c([H])c([H])c([H])c([H])c3C([H])([H])C([H])([H])C1([H])[H])C2([H])[H])=C1C(=O)N(c2c([H])c([H])c([H])c(N([H])C(=O)N3C([H])([H])C([H])([H])C([H])([H])C([H])(n4nc(-c5c([H])c([H])c(Oc6c([H])c([H])c(F)c([H])c6F)c([H])c5[H])c(C(=O)N([H])[H])c4N([H])[H])C3([H])[H])c2F)C([H])([H])C1([H])[H]

>  <smiles>  (14) 
[H]C(Oc1c([H])c([H])c2c(c1[H])C([H])([H])N(C(=O)C([H])(N([H])C(=O)C([H])(N([H])C([H])([H])[H])C([H])([H])[H])C(C([H])([H])[H])(C([H])([H])[H])C([H])([H])[H])C([H])(C(=O)N([H])C1([H])c3c([H])c([H])c([H])c([H])c3C([H])([H])C([H])([H])C1([H])[H])C2([H])[H])=C1C(=O)N(c2c([H])c([H])c([H])c(N([H])C(=O)N3C([H])([H])C([H])([H])C([H])([H])C([H])(n4nc(-c5c([H])c([H])c(Oc6c([H])c([H])c(F)c([H])c6F)c([H])c5[H])c(C(=O)N([H])[H])c4N([H])[H])C3([H])[H])c2F)C([H])([H])C1([H])[H]

$$$$
14:0:0
     RDKit          3D

 93101  0  0  1  0  0  0  0  0999 V2000
  -29.9210  -21.5710   19.0810 C   0  0  0  0  0  0  0  0  0  0  0  0
  -30.8430  -21.4340   17.6940 S   0  0  0  0  0  0  0  0  0  0  0  0
  -30.9770  -19.5020   20.2420 C   0  0  0  0  0  3  0  0  0  0  0  0
  -30.9960  -18.0900   20.5020 C   0  0  0  0  0  3  0  0  0  0  0  0
  -28.6140  -19.4600   19.9320 C   0  0  0  0  0  3  0  0  0  0  0  0
  -29.8020  -20.2460   19.8880 C   0  0  0  0  0  0  0  0  0  0  0  0
  -29.8160  -17.3010   20.4470 C   0  0  0  0  0  0  0  0  0  0  0  0
  -28.6250  -18.0480   20.2020 C   0  0  0  0  0  0  0  0  0  0  0  0
  -27.4520  -17.3700   20.1610 F   0  0  0  0  0  0  0  0  0  0  0  0
  -30.5570  -14.7640   20.3940 C   0  0  0  0  0  0  0  0  0  0  0  0
  -30.3900  -12.4890   19.3680 C   0  0  0  0  0  2  0  0  0  0  0  0
  -29.4500  -12.5750   18.1450 C   0  0  0  0  0  2  0  0  0  0  0  0
  -27.9770  -12.4030   18.5680 C   0  0  0  0  0  2  0  0  0  0  0  0
  -27.6010  -13.2820   19.7900 C   0  0  0  0  0  3  0  0  0  0  0  0
  -28.6560  -13.1640   20.9140 C   0  0  0  0  0  2  0  0  0  0  0  0
  -29.9590  -13.5250   20.3340 N   0  0  0  0  0  0  0  0  0  0  0  0
  -31.7370  -14.9040   20.0560 O   0  0  0  0  0  0  0  0  0  0  0  0
  -29.7250  -15.8360   20.6550 N   0  0  0  0  0  0  0  0  0  0  0  0
  -28.7830  -15.5350   20.8550 H   0  0  0  0  0  0  0  0  0  0  0  0
  -25.2060  -13.8770   20.5000 C   0  0  0  0  0  0  0  0  0  0  0  0
  -24.1380  -13.1040   20.8630 C   0  0  0  0  0  0  0  0  0  0  0  0
  -24.6020  -11.7530   20.8380 C   0  0  0  0  0  0  0  0  0  0  0  0
  -26.2530  -12.9970   20.2720 N   0  0  0  0  0  0  0  0  0  0  0  0
  -25.8940  -11.7130   20.5380 N   0  0  0  0  0  0  0  0  0  0  0  0
  -23.8730  -10.4910   21.0270 C   0  0  0  0  0  0  0  0  0  0  0  0
  -24.2950   -9.5290   21.9710 C   0  0  0  0  0  3  0  0  0  0  0  0
  -23.5660   -8.3320   22.1470 C   0  0  0  0  0  3  0  0  0  0  0  0
  -22.4030   -8.0890   21.3800 C   0  0  0  0  0  0  0  0  0  0  0  0
  -22.0010   -9.0400   20.4250 C   0  0  0  0  0  3  0  0  0  0  0  0
  -22.7300  -10.2280   20.2470 C   0  0  0  0  0  3  0  0  0  0  0  0
  -21.6490   -6.9450   21.4640 O   0  0  0  0  0  0  0  0  0  0  0  0
  -21.5790   -6.2120   22.6220 C   0  0  0  0  0  0  0  0  0  0  0  0
  -21.1180   -6.7730   23.8320 C   0  0  0  0  0  3  0  0  0  0  0  0
  -20.9970   -5.9660   24.9820 C   0  0  0  0  0  3  0  0  0  0  0  0
  -21.3270   -4.6000   24.9210 C   0  0  0  0  0  0  0  0  0  0  0  0
  -21.7820   -4.0380   23.7150 C   0  0  0  0  0  3  0  0  0  0  0  0
  -21.9050   -4.8410   22.5680 C   0  0  0  0  0  0  0  0  0  0  0  0
  -22.3230   -4.2910   21.4030 F   0  0  0  0  0  0  0  0  0  0  0  0
  -21.2050   -3.8220   26.0220 F   0  0  0  0  0  0  0  0  0  0  0  0
  -22.7390  -13.5820   21.1250 C   0  0  0  0  0  0  0  0  0  0  0  0
  -22.0020  -12.8820   21.9810 N   0  0  0  0  0  0  0  0  0  0  0  0
  -22.3070  -14.6100   20.6070 O   0  0  0  0  0  0  0  0  0  0  0  0
  -22.3650  -12.0500   22.4230 H   0  0  0  0  0  0  0  0  0  0  0  0
  -21.0630  -13.1840   22.1990 H   0  0  0  0  0  0  0  0  0  0  0  0
  -25.3660  -15.2480   20.3250 N   0  0  0  0  0  0  0  0  0  0  0  0
  -24.5930  -15.8910   20.4500 H   0  0  0  0  0  0  0  0  0  0  0  0
  -26.2170  -15.7200   20.0410 H   0  0  0  0  0  0  0  0  0  0  0  0
  -28.8390  -23.7440   20.0870 C   0  0  0  0  0  0  0  0  0  0  0  0
  -29.3550  -22.8380   19.1890 N   0  0  0  0  0  0  0  0  0  0  0  0
  -28.6660  -23.5130   21.2890 O   0  0  0  0  0  0  0  0  0  0  0  0
  -29.4850  -23.3170   18.3120 H   0  0  0  0  0  0  0  0  0  0  0  0
  -28.4680  -25.1710   19.4340 C   0  0  0  0  0  2  0  0  0  0  0  0
  -28.3290  -26.4170   20.2640 O   0  0  0  0  0  0  0  0  0  0  0  0
  -24.5970  -31.8820   23.2500 C   0  0  0  0  0  0  0  0  0  0  0  0
  -27.2120  -27.2870   20.1790 C   0  0  0  0  0  0  0  0  0  0  0  0
  -23.3960  -30.4860   21.6090 C   0  0  0  0  0  3  0  0  0  0  0  0
  -24.8480  -28.9370   20.1780 C   0  0  0  0  0  0  0  0  0  0  0  0
  -25.9400  -30.7920   21.4320 C   0  0  0  0  0  2  0  0  0  0  0  0
  -26.0190  -29.4120   20.7790 C   0  0  0  0  0  0  0  0  0  0  0  0
  -27.1980  -28.5980   20.7730 C   0  0  0  0  0  3  0  0  0  0  0  0
  -26.0020  -26.8750   19.5690 C   0  0  0  0  0  3  0  0  0  0  0  0
  -24.8440  -27.6760   19.5660 C   0  0  0  0  0  3  0  0  0  0  0  0
  -23.6120  -29.8140   20.2270 C   0  0  0  0  0  2  0  0  0  0  0  0
  -24.6640  -31.0710   22.1530 N   0  0  0  0  0  0  0  0  0  0  0  0
  -23.5120  -32.1600   23.7820 O   0  0  0  0  0  0  0  0  0  0  0  0
  -22.7310  -29.4680   22.5680 C   0  0  0  0  0  0  0  0  0  0  0  0
  -21.4040  -29.2910   22.4400 N   0  0  0  0  0  0  0  0  0  0  0  0
  -23.4070  -28.8420   23.3880 O   0  0  0  0  0  0  0  0  0  0  0  0
  -20.9170  -29.8470   21.7520 H   0  0  0  0  0  0  0  0  0  0  0  0
  -18.0250  -28.0980   22.9450 C   0  0  0  0  0  0  0  0  0  0  0  0
  -20.5850  -28.3520   23.2090 C   0  0  0  0  0  3  0  0  0  0  0  0
  -20.6820  -26.9220   22.6290 C   0  0  0  0  0  2  0  0  0  0  0  0
  -19.5770  -26.6040   21.6170 C   0  0  0  0  0  2  0  0  0  0  0  0
  -18.1980  -26.7500   22.2660 C   0  0  0  0  0  2  0  0  0  0  0  0
  -19.1470  -28.8560   23.3750 C   0  0  0  0  0  0  0  0  0  0  0  0
  -18.9310  -30.1170   23.9720 C   0  0  0  0  0  3  0  0  0  0  0  0
  -17.6270  -30.6200   24.1440 C   0  0  0  0  0  3  0  0  0  0  0  0
  -16.5210  -29.8570   23.7300 C   0  0  0  0  0  3  0  0  0  0  0  0
  -16.7200  -28.5980   23.1370 C   0  0  0  0  0  3  0  0  0  0  0  0
  -25.8780  -32.5160   23.8740 C   0  0  0  0  0  3  0  0  0  0  0  0
  -26.3820  -31.7560   25.1630 C   0  0  1  0  0  0  0  0  0  0  0  0
  -25.2800  -31.5350   26.2250 C   0  0  0  0  0  1  0  0  0  0  0  0
  -26.9620  -30.3730   24.7910 C   0  0  0  0  0  1  0  0  0  0  0  0
  -27.5300  -32.5530   25.8240 C   0  0  0  0  0  1  0  0  0  0  0  0
  -25.5700  -33.9190   24.1900 N   0  0  0  0  0  0  0  0  0  0  0  0
  -25.9060  -34.9650   23.4230 C   0  0  0  0  0  0  0  0  0  0  0  0
  -26.5750  -34.8510   22.3930 O   0  0  0  0  0  0  0  0  0  0  0  0
  -24.9750  -34.0820   24.9890 H   0  0  0  0  0  0  0  0  0  0  0  0
  -24.1860  -36.7640   23.0510 C   0  0  0  0  0  1  0  0  0  0  0  0
  -25.4230  -36.3590   23.8690 C   0  0  0  0  0  3  0  0  0  0  0  0
  -27.5560  -37.2430   24.7040 C   0  0  0  0  0  1  0  0  0  0  0  0
  -26.4600  -37.4070   23.7520 N   0  0  0  0  0  0  0  0  0  0  0  0
  -26.0580  -38.3300   23.8890 H   0  0  0  0  0  0  0  0  0  0  0  0
  1 49  1  0
  1  6  1  0
  2  1  2  0
  3  4  1  0
  5  8  2  0
  6  5  1  0
  6  3  2  0
  7  4  2  0
  7 18  1  0
  8  7  1  0
  9  8  1  0
 10 18  1  0
 11 16  1  0
 12 13  1  0
 12 11  1  0
 14 13  1  0
 14 23  1  0
 14 15  1  0
 16 10  1  0
 16 15  1  0
 17 10  2  0
 18 19  1  0
 20 21  2  0
 21 40  1  0
 22 21  1  0
 22 25  1  0
 23 20  1  0
 23 24  1  0
 24 22  2  0
 25 26  1  0
 26 27  2  0
 28 31  1  0
 28 27  1  0
 29 28  2  0
 30 29  1  0
 30 25  2  0
 31 32  1  0
 32 33  1  0
 33 34  2  0
 35 34  1  0
 35 39  1  0
 36 35  2  0
 37 32  2  0
 37 36  1  0
 38 37  1  0
 40 41  1  0
 41 44  1  0
 41 43  1  0
 42 40  2  0
 45 46  1  0
 45 20  1  0
 47 45  1  0
 48 50  2  0
 49 48  1  0
 51 49  1  0
 52 48  1  0
 52 53  1  0
 54 65  2  0
 55 53  1  0
 55 60  1  0
 56 64  1  0
 56 66  1  0
 57 63  1  0
 57 59  1  0
 58 64  1  0
 59 58  1  0
 60 59  2  0
 61 55  2  0
 62 61  1  0
 62 57  2  0
 63 56  1  0
 64 54  1  0
 66 68  2  0
 67 66  1  0
 69 67  1  0
 70 79  2  0
 70 75  1  0
 71 67  1  0
 71 75  1  0
 72 71  1  0
 73 74  1  0
 73 72  1  0
 74 70  1  0
 75 76  2  0
 76 77  1  0
 78 77  2  0
 79 78  1  0
 80 54  1  0
 80 85  1  0
 80 81  1  0
 81 84  1  1
 81 82  1  0
 83 81  1  0
 85 88  1  0
 86 90  1  0
 86 85  1  0
 87 86  2  0
 90 89  1  0
 92 90  1  0
 92 93  1  0
 92 91  1  0
M  ISO  4  10 100  18 100  52 101  53 101
M  END
>  <TORSDO>  (15) 
F 19

>  <SCORE>  (15) 
-14.481

>  <name>  (15) 
14

>  <ligand_id>  (15) 
14

>  <original_smiles>  (15) 
[H]c1c([H])c([H])c2c(c1[H])C([H])([H])C([H])([H])C([H])([H])C2([H])N([H])C(=O)C1([H])N(C(=O)C([H])(N([H])C(=O)C([H])(N([H])C([H])([H])[H])C([H])([H])[H])C(C([H])([H])[H])(C([H])([H])[H])C([H])([H])[H])C([H])([H])c2c([H])c(OC([H])([H])C(=O)N([H])C(=S)c3c([H])c([H])c(N([H])C(=O)N4C([H])([H])C([H])([H])C([H])([H])C([H])(n5nc(-c6c([H])c([H])c(Oc7c([H])c([H])c(F)c([H])c7F)c([H])c6[H])c(C(=O)N([H])[H])c5N([H])[H])C4([H])[H])c(F)c3[H])c([H])c([H])c2C1([H])[H]

>  <smiles>  (15) 
[H]c1c([H])c([H])c2c(c1[H])C([H])([H])C([H])([H])C([H])([H])C2([H])N([H])C(=O)C1([H])N(C(=O)C([H])(N([H])C(=O)C([H])(N([H])C([H])([H])[H])C([H])([H])[H])C(C([H])([H])[H])(C([H])([H])[H])C([H])([H])[H])C([H])([H])c2c([H])c(OC([H])([H])C(=O)N([H])C(=S)c3c([H])c([H])c(N([H])C(=O)N4C([H])([H])C([H])([H])C([H])([H])C([H])(n5nc(-c6c([H])c([H])c(Oc7c([H])c([H])c(F)c([H])c7F)c([H])c6[H])c(C(=O)N([H])[H])c5N([H])[H])C4([H])[H])c(F)c3[H])c([H])c([H])c2C1([H])[H]

$$$$
15:0:0
     RDKit          3D

 95104  0  0  1  0  0  0  0  0999 V2000
  -29.2460  -22.6980   20.1430 C   0  0  0  0  0  3  0  0  0  0  0  0
  -29.3220  -24.0720   20.2050 C   0  0  0  0  0  0  0  0  0  0  0  0
  -31.8530  -23.8640   20.2470 C   0  0  0  0  0  0  0  0  0  0  0  0
  -30.6410  -24.7660   20.5040 C   0  0  0  0  0  2  0  0  0  0  0  0
  -31.6970  -22.3390   20.4000 C   0  0  0  0  0  2  0  0  0  0  0  0
  -30.3330  -21.7850   20.2770 N   0  0  0  0  0  0  0  0  0  0  0  0
  -32.9530  -24.3570   19.9820 O   0  0  0  0  0  0  0  0  0  0  0  0
  -31.4410  -18.1090   20.7020 C   0  0  0  0  0  3  0  0  0  0  0  0
  -31.4690  -19.5300   20.5870 C   0  0  0  0  0  3  0  0  0  0  0  0
  -29.1240  -19.5650   20.1430 C   0  0  0  0  0  3  0  0  0  0  0  0
  -30.2440  -17.3600   20.5720 C   0  0  0  0  0  0  0  0  0  0  0  0
  -30.3070  -20.3300   20.3310 C   0  0  0  0  0  0  0  0  0  0  0  0
  -29.0900  -18.1390   20.2590 C   0  0  0  0  0  0  0  0  0  0  0  0
  -27.8930  -17.5190   20.1110 F   0  0  0  0  0  0  0  0  0  0  0  0
  -30.1350  -15.8780   20.9810 C   0  0  0  0  0  0  0  0  0  0  0  0
  -29.5240  -15.6550   22.0700 N   0  0  0  0  0  0  0  0  0  0  0  0
  -29.1780  -16.5120   22.4830 H   0  0  0  0  0  0  0  0  0  0  0  0
  -30.7860  -14.7090   20.1250 C   0  0  0  0  0  0  0  0  0  0  0  0
  -30.4890  -12.5370   18.9230 C   0  0  0  0  0  2  0  0  0  0  0  0
  -29.4690  -12.7170   17.7720 C   0  0  0  0  0  2  0  0  0  0  0  0
  -28.0170  -12.5520   18.2690 C   0  0  0  0  0  2  0  0  0  0  0  0
  -27.7460  -13.3380   19.5770 C   0  0  0  0  0  3  0  0  0  0  0  0
  -28.8620  -13.0480   20.6010 C   0  0  0  0  0  2  0  0  0  0  0  0
  -30.1430  -13.4860   20.0090 N   0  0  0  0  0  0  0  0  0  0  0  0
  -31.8560  -14.9060   19.5380 O   0  0  0  0  0  0  0  0  0  0  0  0
  -25.3920  -13.9280   20.4280 C   0  0  0  0  0  0  0  0  0  0  0  0
  -24.3440  -13.1490   20.8360 C   0  0  0  0  0  0  0  0  0  0  0  0
  -24.8000  -11.7980   20.7520 C   0  0  0  0  0  0  0  0  0  0  0  0
  -26.4220  -13.0520   20.1220 N   0  0  0  0  0  0  0  0  0  0  0  0
  -26.0710  -11.7640   20.3710 N   0  0  0  0  0  0  0  0  0  0  0  0
  -24.0820  -10.5330   20.9530 C   0  0  0  0  0  0  0  0  0  0  0  0
  -24.5290   -9.5680   21.8820 C   0  0  0  0  0  3  0  0  0  0  0  0
  -23.8080   -8.3690   22.0710 C   0  0  0  0  0  3  0  0  0  0  0  0
  -22.6280   -8.1250   21.3290 C   0  0  0  0  0  0  0  0  0  0  0  0
  -22.2010   -9.0790   20.3880 C   0  0  0  0  0  3  0  0  0  0  0  0
  -22.9210  -10.2690   20.1980 C   0  0  0  0  0  3  0  0  0  0  0  0
  -21.8780   -6.9780   21.4270 O   0  0  0  0  0  0  0  0  0  0  0  0
  -21.7980   -6.2690   22.5990 C   0  0  0  0  0  0  0  0  0  0  0  0
  -21.3390   -6.8580   23.7980 C   0  0  0  0  0  3  0  0  0  0  0  0
  -21.2060   -6.0750   24.9620 C   0  0  0  0  0  3  0  0  0  0  0  0
  -21.5240   -4.7040   24.9280 C   0  0  0  0  0  0  0  0  0  0  0  0
  -21.9770   -4.1150   23.7350 C   0  0  0  0  0  3  0  0  0  0  0  0
  -22.1110   -4.8940   22.5740 C   0  0  0  0  0  0  0  0  0  0  0  0
  -22.5270   -4.3180   21.4200 F   0  0  0  0  0  0  0  0  0  0  0  0
  -21.3900   -3.9490   26.0440 F   0  0  0  0  0  0  0  0  0  0  0  0
  -22.9640  -13.6220   21.1950 C   0  0  0  0  0  0  0  0  0  0  0  0
  -22.2860  -12.9130   22.0910 N   0  0  0  0  0  0  0  0  0  0  0  0
  -22.4990  -14.6560   20.7170 O   0  0  0  0  0  0  0  0  0  0  0  0
  -22.6740  -12.0750   22.5000 H   0  0  0  0  0  0  0  0  0  0  0  0
  -21.3640  -13.2130   22.3740 H   0  0  0  0  0  0  0  0  0  0  0  0
  -25.5480  -15.3030   20.2740 N   0  0  0  0  0  0  0  0  0  0  0  0
  -24.7940  -15.9570   20.4540 H   0  0  0  0  0  0  0  0  0  0  0  0
  -26.4070  -15.7630   19.9960 H   0  0  0  0  0  0  0  0  0  0  0  0
  -28.1040  -25.0380   20.0080 C   0  0  0  0  0  2  0  0  0  0  0  0
  -28.2960  -26.4960   20.1990 O   0  0  0  0  0  0  0  0  0  0  0  0
  -24.5540  -31.8880   23.2130 C   0  0  0  0  0  0  0  0  0  0  0  0
  -27.1600  -27.3250   20.1540 C   0  0  0  0  0  0  0  0  0  0  0  0
  -23.3370  -30.4770   21.5930 C   0  0  0  0  0  3  0  0  0  0  0  0
  -24.7800  -28.9220   20.1620 C   0  0  0  0  0  0  0  0  0  0  0  0
  -25.8730  -30.8020   21.3820 C   0  0  0  0  0  2  0  0  0  0  0  0
  -25.9530  -29.4220   20.7420 C   0  0  0  0  0  0  0  0  0  0  0  0
  -27.1440  -28.6360   20.7260 C   0  0  0  0  0  3  0  0  0  0  0  0
  -25.9570  -26.8770   19.5570 C   0  0  0  0  0  3  0  0  0  0  0  0
  -24.7840  -27.6550   19.5620 C   0  0  0  0  0  3  0  0  0  0  0  0
  -23.5400  -29.7910   20.2150 C   0  0  0  0  0  2  0  0  0  0  0  0
  -24.6070  -31.0720   22.1190 N   0  0  0  0  0  0  0  0  0  0  0  0
  -23.4760  -32.1670   23.7570 O   0  0  0  0  0  0  0  0  0  0  0  0
  -22.6860  -29.4660   22.5650 C   0  0  0  0  0  0  0  0  0  0  0  0
  -21.3590  -29.2840   22.4490 N   0  0  0  0  0  0  0  0  0  0  0  0
  -23.3710  -28.8460   23.3830 O   0  0  0  0  0  0  0  0  0  0  0  0
  -20.8660  -29.8380   21.7630 H   0  0  0  0  0  0  0  0  0  0  0  0
  -17.9880  -28.0780   22.9730 C   0  0  0  0  0  0  0  0  0  0  0  0
  -20.5460  -28.3500   23.2310 C   0  0  0  0  0  3  0  0  0  0  0  0
  -20.6510  -26.9140   22.6710 C   0  0  0  0  0  2  0  0  0  0  0  0
  -19.5480  -26.5770   21.6630 C   0  0  0  0  0  2  0  0  0  0  0  0
  -18.1670  -26.7220   22.3100 C   0  0  0  0  0  2  0  0  0  0  0  0
  -19.1060  -28.8500   23.3900 C   0  0  0  0  0  0  0  0  0  0  0  0
  -18.8840  -30.1160   23.9730 C   0  0  0  0  0  3  0  0  0  0  0  0
  -17.5790  -30.6140   24.1380 C   0  0  0  0  0  3  0  0  0  0  0  0
  -16.4760  -29.8420   23.7370 C   0  0  0  0  0  3  0  0  0  0  0  0
  -16.6810  -28.5750   23.1610 C   0  0  0  0  0  3  0  0  0  0  0  0
  -25.8420  -32.5240   23.8210 C   0  0  0  0  0  3  0  0  0  0  0  0
  -26.3870  -31.7450   25.0820 C   0  0  1  0  0  0  0  0  0  0  0  0
  -25.3130  -31.4890   26.1640 C   0  0  0  0  0  1  0  0  0  0  0  0
  -26.9760  -30.3780   24.6670 C   0  0  0  0  0  1  0  0  0  0  0  0
  -27.5420  -32.5430   25.7310 C   0  0  0  0  0  1  0  0  0  0  0  0
  -25.5270  -33.9160   24.1700 N   0  0  0  0  0  0  0  0  0  0  0  0
  -25.8300  -34.9790   23.4140 C   0  0  0  0  0  0  0  0  0  0  0  0
  -26.4750  -34.8920   22.3650 O   0  0  0  0  0  0  0  0  0  0  0  0
  -24.9500  -34.0590   24.9870 H   0  0  0  0  0  0  0  0  0  0  0  0
  -24.0730  -36.7560   23.1230 C   0  0  0  0  0  1  0  0  0  0  0  0
  -25.3400  -36.3580   23.8970 C   0  0  0  0  0  3  0  0  0  0  0  0
  -27.4880  -37.2560   24.6770 C   0  0  0  0  0  1  0  0  0  0  0  0
  -26.3580  -37.4250   23.7680 N   0  0  0  0  0  0  0  0  0  0  0  0
  -25.9450  -38.3380   23.9430 H   0  0  0  0  0  0  0  0  0  0  0  0
  1  2  2  0
  1  6  1  0
  2  4  1  0
  3  5  1  0
  3  4  1  0
  6 12  1  0
  6  5  1  0
  7  3  2  0
  9  8  1  0
 10 13  2  0
 10 12  1  0
 11  8  2  0
 11 15  1  0
 12  9  2  0
 13 11  1  0
 14 13  1  0
 15 16  2  0
 16 17  1  0
 18 15  1  0
 19 24  1  0
 20 21  1  0
 20 19  1  0
 22 21  1  0
 22 29  1  0
 22 23  1  0
 24 18  1  0
 24 23  1  0
 25 18  2  0
 26 27  2  0
 27 46  1  0
 28 27  1  0
 28 31  1  0
 29 30  1  0
 29 26  1  0
 30 28  2  0
 31 32  1  0
 32 33  2  0
 34 37  1  0
 34 33  1  0
 35 34  2  0
 36 35  1  0
 36 31  2  0
 37 38  1  0
 38 39  1  0
 39 40  2  0
 41 40  1  0
 41 45  1  0
 42 41  2  0
 43 38  2  0
 43 42  1  0
 44 43  1  0
 46 47  1  0
 47 50  1  0
 47 49  1  0
 48 46  2  0
 51 26  1  0
 51 52  1  0
 53 51  1  0
 54 55  1  0
 54  2  1  0
 56 67  2  0
 57 55  1  0
 57 62  1  0
 58 66  1  0
 58 68  1  0
 59 65  1  0
 59 61  1  0
 60 66  1  0
 61 60  1  0
 62 61  2  0
 63 64  1  0
 63 57  2  0
 64 59  2  0
 65 58  1  0
 66 56  1  0
 68 70  2  0
 69 68  1  0
 71 69  1  0
 72 81  2  0
 72 77  1  0
 73 69  1  0
 73 77  1  0
 74 73  1  0
 75 76  1  0
 75 74  1  0
 76 72  1  0
 77 78  2  0
 78 79  1  0
 80 79  2  0
 81 80  1  0
 82 56  1  0
 82 87  1  0
 82 83  1  0
 83 86  1  1
 83 84  1  0
 85 83  1  0
 87 90  1  0
 88 92  1  0
 88 87  1  0
 89 88  2  0
 92 91  1  0
 94 92  1  0
 94 95  1  0
 94 93  1  0
M  ISO  4  15 100  18 100  54 101  55 101
M  END
>  <TORSDO>  (16) 
F 19

>  <SCORE>  (16) 
-14.078

>  <name>  (16) 
15

>  <ligand_id>  (16) 
15

>  <original_smiles>  (16) 
[H]N=C(C(=O)N1C([H])([H])C([H])([H])C([H])([H])C([H])(n2nc(-c3c([H])c([H])c(Oc4c([H])c([H])c(F)c([H])c4F)c([H])c3[H])c(C(=O)N([H])[H])c2N([H])[H])C1([H])[H])c1c([H])c([H])c(N2C([H])=C(C([H])([H])Oc3c([H])c([H])c4c(c3[H])C([H])([H])N(C(=O)C([H])(N([H])C(=O)C([H])(N([H])C([H])([H])[H])C([H])([H])[H])C(C([H])([H])[H])(C([H])([H])[H])C([H])([H])[H])C([H])(C(=O)N([H])C3([H])c5c([H])c([H])c([H])c([H])c5C([H])([H])C([H])([H])C3([H])[H])C4([H])[H])C([H])([H])C(=O)C2([H])[H])c([H])c1F

>  <smiles>  (16) 
[H]N=C(C(=O)N1C([H])([H])C([H])([H])C([H])([H])C([H])(n2nc(-c3c([H])c([H])c(Oc4c([H])c([H])c(F)c([H])c4F)c([H])c3[H])c(C(=O)N([H])[H])c2N([H])[H])C1([H])[H])c1c([H])c([H])c(N2C([H])=C(C([H])([H])Oc3c([H])c([H])c4c(c3[H])C([H])([H])N(C(=O)C([H])(N([H])C(=O)C([H])(N([H])C([H])([H])[H])C([H])([H])[H])C(C([H])([H])[H])(C([H])([H])[H])C([H])([H])[H])C([H])(C(=O)N([H])C3([H])c5c([H])c([H])c([H])c([H])c5C([H])([H])C([H])([H])C3([H])[H])C4([H])[H])C([H])([H])C(=O)C2([H])[H])c([H])c1F

$$$$
16:0:0
     RDKit          3D

 95104  0  0  1  0  0  0  0  0999 V2000
  -27.7320  -23.4270   20.3710 C   0  0  0  0  0  3  0  0  0  0  0  0
  -28.7760  -23.8880   19.5230 C   0  0  0  0  0  0  0  0  0  0  0  0
  -29.5390  -22.7300   19.2740 C   0  0  0  0  0  0  0  0  0  0  0  0
  -27.8640  -22.0750   20.5530 C   0  0  0  0  0  0  0  0  0  0  0  0
  -30.7740  -22.6110   18.4350 C   0  0  0  0  0  1  0  0  0  0  0  0
  -28.9960  -21.5670   19.9080 N   0  0  0  0  0  0  0  0  0  0  0  0
  -29.8700  -19.3450   18.8360 C   0  0  0  0  0  3  0  0  0  0  0  0
  -30.2460  -17.9520   18.9510 C   0  0  0  0  0  3  0  0  0  0  0  0
  -29.4230  -19.4120   21.1660 C   0  0  0  0  0  3  0  0  0  0  0  0
  -29.4440  -20.1400   19.9470 C   0  0  0  0  0  0  0  0  0  0  0  0
  -30.2240  -17.2310   20.1890 C   0  0  0  0  0  0  0  0  0  0  0  0
  -29.7640  -18.0330   21.2860 C   0  0  0  0  0  0  0  0  0  0  0  0
  -29.6130  -17.4910   22.5190 F   0  0  0  0  0  0  0  0  0  0  0  0
  -31.0680  -14.8440   19.4940 C   0  0  0  0  0  0  0  0  0  0  0  0
  -30.6860  -12.6100   18.4110 C   0  0  0  0  0  2  0  0  0  0  0  0
  -29.5650  -12.7060   17.3530 C   0  0  0  0  0  2  0  0  0  0  0  0
  -28.1850  -12.5030   18.0060 C   0  0  0  0  0  2  0  0  0  0  0  0
  -28.0060  -13.3670   19.2810 C   0  0  0  0  0  3  0  0  0  0  0  0
  -29.2200  -13.2420   20.2230 C   0  0  0  0  0  2  0  0  0  0  0  0
  -30.4220  -13.6220   19.4640 N   0  0  0  0  0  0  0  0  0  0  0  0
  -32.0500  -15.0370   18.7670 O   0  0  0  0  0  0  0  0  0  0  0  0
  -31.1330  -15.4760   21.7660 C   0  0  0  0  0  1  0  0  0  0  0  0
  -30.6600  -15.8060   20.4060 N   0  0  0  0  0  0  0  0  0  0  0  0
  -25.8120  -13.9430   20.4840 C   0  0  0  0  0  0  0  0  0  0  0  0
  -24.7950  -13.1630   20.9620 C   0  0  0  0  0  0  0  0  0  0  0  0
  -25.1820  -11.8110   20.7110 C   0  0  0  0  0  0  0  0  0  0  0  0
  -26.7550  -13.0660   19.9720 N   0  0  0  0  0  0  0  0  0  0  0  0
  -26.3940  -11.7720   20.1680 N   0  0  0  0  0  0  0  0  0  0  0  0
  -24.4460  -10.5540   20.9020 C   0  0  0  0  0  0  0  0  0  0  0  0
  -24.8780   -9.5770   21.8240 C   0  0  0  0  0  3  0  0  0  0  0  0
  -24.1410   -8.3850   22.0040 C   0  0  0  0  0  3  0  0  0  0  0  0
  -22.9580   -8.1650   21.2600 C   0  0  0  0  0  0  0  0  0  0  0  0
  -22.5450   -9.1310   20.3260 C   0  0  0  0  0  3  0  0  0  0  0  0
  -23.2820  -10.3140   20.1450 C   0  0  0  0  0  3  0  0  0  0  0  0
  -22.1920   -7.0270   21.3470 O   0  0  0  0  0  0  0  0  0  0  0  0
  -22.0010   -6.3790   22.5410 C   0  0  0  0  0  0  0  0  0  0  0  0
  -21.4340   -7.0280   23.6590 C   0  0  0  0  0  3  0  0  0  0  0  0
  -21.1920   -6.3050   24.8450 C   0  0  0  0  0  3  0  0  0  0  0  0
  -21.5060   -4.9340   24.9110 C   0  0  0  0  0  0  0  0  0  0  0  0
  -22.0650   -4.2860   23.7970 C   0  0  0  0  0  3  0  0  0  0  0  0
  -22.3090   -5.0050   22.6140 C   0  0  0  0  0  0  0  0  0  0  0  0
  -22.8280   -4.3700   21.5360 F   0  0  0  0  0  0  0  0  0  0  0  0
  -21.2670   -4.2380   26.0470 F   0  0  0  0  0  0  0  0  0  0  0  0
  -23.4910  -13.6450   21.5310 C   0  0  0  0  0  0  0  0  0  0  0  0
  -22.9310  -12.9100   22.4870 N   0  0  0  0  0  0  0  0  0  0  0  0
  -22.9860  -14.7050   21.1640 O   0  0  0  0  0  0  0  0  0  0  0  0
  -23.3560  -12.0520   22.8030 H   0  0  0  0  0  0  0  0  0  0  0  0
  -22.0660  -13.2140   22.9100 H   0  0  0  0  0  0  0  0  0  0  0  0
  -26.0060  -15.3200   20.4210 N   0  0  0  0  0  0  0  0  0  0  0  0
  -25.3130  -15.9830   20.7460 H   0  0  0  0  0  0  0  0  0  0  0  0
  -26.8210  -15.7640   20.0140 H   0  0  0  0  0  0  0  0  0  0  0  0
  -27.0140  -21.2640   21.2400 O   0  0  0  0  0  0  0  0  0  0  0  0
  -26.3040  -21.8040   21.5680 H   0  0  0  0  0  0  0  0  0  0  0  0
  -28.8870  -25.3570   18.9160 C   0  0  0  0  0  2  0  0  0  0  0  0
  -28.6920  -26.5940   19.7230 O   0  0  0  0  0  0  0  0  0  0  0  0
  -24.8260  -31.6820   23.0890 C   0  0  0  0  0  0  0  0  0  0  0  0
  -27.5340  -27.3980   19.7000 C   0  0  0  0  0  0  0  0  0  0  0  0
  -23.6440  -30.3630   21.3690 C   0  0  0  0  0  3  0  0  0  0  0  0
  -25.1220  -28.9490   19.8220 C   0  0  0  0  0  0  0  0  0  0  0  0
  -26.1720  -30.7580   21.1870 C   0  0  0  0  0  2  0  0  0  0  0  0
  -26.2810  -29.4270   20.4450 C   0  0  0  0  0  0  0  0  0  0  0  0
  -27.4830  -28.6600   20.3800 C   0  0  0  0  0  3  0  0  0  0  0  0
  -26.3480  -26.9740   19.0620 C   0  0  0  0  0  3  0  0  0  0  0  0
  -25.1590  -27.7300   19.1230 C   0  0  0  0  0  3  0  0  0  0  0  0
  -23.8610  -29.7820   19.9440 C   0  0  0  0  0  2  0  0  0  0  0  0
  -24.9010  -30.9490   21.9390 N   0  0  0  0  0  0  0  0  0  0  0  0
  -23.7430  -31.8920   23.6520 O   0  0  0  0  0  0  0  0  0  0  0  0
  -23.0180  -29.2680   22.2670 C   0  0  0  0  0  0  0  0  0  0  0  0
  -21.6990  -29.0510   22.1270 N   0  0  0  0  0  0  0  0  0  0  0  0
  -23.7190  -28.6200   23.0480 O   0  0  0  0  0  0  0  0  0  0  0  0
  -21.1900  -29.6270   21.4720 H   0  0  0  0  0  0  0  0  0  0  0  0
  -18.3700  -27.7000   22.5380 C   0  0  0  0  0  0  0  0  0  0  0  0
  -20.9150  -28.0390   22.8390 C   0  0  0  0  0  3  0  0  0  0  0  0
  -21.0750  -26.6490   22.1800 C   0  0  0  0  0  2  0  0  0  0  0  0
  -19.9910  -26.3460   21.1410 C   0  0  0  0  0  2  0  0  0  0  0  0
  -18.6000  -26.4000   21.7840 C   0  0  0  0  0  2  0  0  0  0  0  0
  -19.4560  -28.4780   23.0180 C   0  0  0  0  0  0  0  0  0  0  0  0
  -19.1860  -29.6940   23.6830 C   0  0  0  0  0  3  0  0  0  0  0  0
  -17.8620  -30.1330   23.8700 C   0  0  0  0  0  3  0  0  0  0  0  0
  -16.7900  -29.3500   23.4090 C   0  0  0  0  0  3  0  0  0  0  0  0
  -17.0440  -28.1360   22.7480 C   0  0  0  0  0  3  0  0  0  0  0  0
  -26.0990  -32.3070   23.7410 C   0  0  0  0  0  3  0  0  0  0  0  0
  -26.6790  -31.4420   24.9260 C   0  0  1  0  0  0  0  0  0  0  0  0
  -25.6200  -31.0420   25.9810 C   0  0  0  0  0  1  0  0  0  0  0  0
  -27.3220  -30.1430   24.3920 C   0  0  0  0  0  1  0  0  0  0  0  0
  -27.8020  -32.2250   25.6490 C   0  0  0  0  0  1  0  0  0  0  0  0
  -25.7420  -33.6530   24.2150 N   0  0  0  0  0  0  0  0  0  0  0  0
  -26.0190  -34.7890   23.5630 C   0  0  0  0  0  0  0  0  0  0  0  0
  -26.6720  -34.8180   22.5160 O   0  0  0  0  0  0  0  0  0  0  0  0
  -25.1620  -33.7010   25.0400 H   0  0  0  0  0  0  0  0  0  0  0  0
  -24.2370  -36.5560   23.3970 C   0  0  0  0  0  1  0  0  0  0  0  0
  -25.4870  -36.1020   24.1680 C   0  0  0  0  0  3  0  0  0  0  0  0
  -27.5890  -36.9580   25.1050 C   0  0  0  0  0  1  0  0  0  0  0  0
  -26.4830  -37.1950   24.1810 N   0  0  0  0  0  0  0  0  0  0  0  0
  -26.0450  -38.0770   24.4340 H   0  0  0  0  0  0  0  0  0  0  0  0
  1  4  2  0
  2  1  1  0
  3  2  2  0
  3  6  1  0
  4 52  1  0
  5  3  1  0
  6 10  1  0
  6  4  1  0
  7  8  2  0
  7 10  1  0
  8 11  1  0
  9 12  1  0
 10  9  2  0
 11 23  1  0
 11 12  2  0
 12 13  1  0
 14 23  1  0
 15 20  1  0
 16 17  1  0
 16 15  1  0
 18 17  1  0
 18 27  1  0
 18 19  1  0
 20 14  1  0
 20 19  1  0
 21 14  2  0
 23 22  1  0
 24 25  2  0
 25 44  1  0
 26 29  1  0
 26 25  1  0
 27 28  1  0
 27 24  1  0
 28 26  2  0
 29 30  1  0
 30 31  2  0
 32 35  1  0
 32 31  1  0
 33 32  2  0
 34 33  1  0
 34 29  2  0
 35 36  1  0
 36 41  2  0
 36 37  1  0
 37 38  2  0
 38 39  1  0
 39 43  1  0
 40 39  2  0
 41 40  1  0
 42 41  1  0
 44 45  1  0
 45 47  1  0
 45 48  1  0
 46 44  2  0
 49 24  1  0
 49 50  1  0
 51 49  1  0
 52 53  1  0
 54  2  1  0
 54 55  1  0
 56 67  2  0
 57 55  1  0
 57 62  1  0
 58 66  1  0
 58 68  1  0
 59 65  1  0
 59 61  1  0
 60 66  1  0
 61 60  1  0
 62 61  2  0
 63 64  1  0
 63 57  2  0
 64 59  2  0
 65 58  1  0
 66 56  1  0
 68 70  2  0
 69 68  1  0
 71 69  1  0
 72 81  2  0
 72 77  1  0
 73 69  1  0
 73 77  1  0
 74 73  1  0
 75 76  1  0
 75 74  1  0
 76 72  1  0
 77 78  2  0
 78 79  1  0
 80 79  2  0
 81 80  1  0
 82 56  1  0
 82 87  1  0
 82 83  1  0
 83 86  1  1
 83 84  1  0
 85 83  1  0
 87 90  1  0
 88 92  1  0
 88 87  1  0
 89 88  2  0
 92 91  1  0
 92 94  1  0
 94 95  1  0
 94 93  1  0
M  ISO  4  14 100  23 100  54 101  55 101
M  END
>  <TORSDO>  (17) 
F 19

>  <SCORE>  (17) 
-11.150

>  <name>  (17) 
16

>  <ligand_id>  (17) 
16

>  <original_smiles>  (17) 
[H]Oc1c([H])c(C([H])([H])Oc2c([H])c([H])c3c(c2[H])C([H])([H])N(C(=O)C([H])(N([H])C(=O)C([H])(N([H])C([H])([H])[H])C([H])([H])[H])C(C([H])([H])[H])(C([H])([H])[H])C([H])([H])[H])C([H])(C(=O)N([H])C2([H])c4c([H])c([H])c([H])c([H])c4C([H])([H])C([H])([H])C2([H])[H])C3([H])[H])c(C([H])([H])[H])n1-c1c([H])c([H])c(N(C(=O)N2C([H])([H])C([H])([H])C([H])([H])C([H])(n3nc(-c4c([H])c([H])c(Oc5c([H])c([H])c(F)c([H])c5F)c([H])c4[H])c(C(=O)N([H])[H])c3N([H])[H])C2([H])[H])C([H])([H])[H])c(F)c1[H]

>  <smiles>  (17) 
[H]Oc1c([H])c(C([H])([H])Oc2c([H])c([H])c3c(c2[H])C([H])([H])N(C(=O)C([H])(N([H])C(=O)C([H])(N([H])C([H])([H])[H])C([H])([H])[H])C(C([H])([H])[H])(C([H])([H])[H])C([H])([H])[H])C([H])(C(=O)N([H])C2([H])c4c([H])c([H])c([H])c([H])c4C([H])([H])C([H])([H])C2([H])[H])C3([H])[H])c(C([H])([H])[H])n1-c1c([H])c([H])c(N(C(=O)N2C([H])([H])C([H])([H])C([H])([H])C([H])(n3nc(-c4c([H])c([H])c(Oc5c([H])c([H])c(F)c([H])c5F)c([H])c4[H])c(C(=O)N([H])[H])c3N([H])[H])C2([H])[H])C([H])([H])[H])c(F)c1[H]

$$$$
17:0:0
     RDKit          3D

 96105  0  0  1  0  0  0  0  0999 V2000
  -29.1100  -19.3150   20.8050 C   0  0  0  0  0  3  0  0  0  0  0  0
  -30.7620  -19.4030   19.0780 C   0  0  0  0  0  3  0  0  0  0  0  0
  -29.2520  -17.8940   20.8690 C   0  0  0  0  0  0  0  0  0  0  0  0
  -29.8530  -20.1280   19.9040 C   0  0  0  0  0  0  0  0  0  0  0  0
  -30.9150  -17.9810   19.1270 C   0  0  0  0  0  0  0  0  0  0  0  0
  -30.1570  -17.1740   20.0300 C   0  0  0  0  0  0  0  0  0  0  0  0
  -28.3900  -17.1350   21.8650 C   0  0  0  0  0  1  0  0  0  0  0  0
  -30.9010  -14.6750   19.5920 C   0  0  0  0  0  0  0  0  0  0  0  0
  -30.5680  -12.4740   18.4810 C   0  0  0  0  0  2  0  0  0  0  0  0
  -29.4880  -12.6560   17.3920 C   0  0  0  0  0  2  0  0  0  0  0  0
  -28.0740  -12.4730   17.9820 C   0  0  0  0  0  2  0  0  0  0  0  0
  -27.8660  -13.2810   19.2910 C   0  0  0  0  0  3  0  0  0  0  0  0
  -29.0500  -13.0810   20.2660 C   0  0  0  0  0  2  0  0  0  0  0  0
  -30.2840  -13.4500   19.5530 N   0  0  0  0  0  0  0  0  0  0  0  0
  -32.0130  -14.8410   19.0820 O   0  0  0  0  0  0  0  0  0  0  0  0
  -30.1470  -15.7010   20.1050 N   0  0  0  0  0  0  0  0  0  0  0  0
  -29.3410  -15.3440   20.5890 H   0  0  0  0  0  0  0  0  0  0  0  0
  -25.5840  -13.8460   20.3290 C   0  0  0  0  0  0  0  0  0  0  0  0
  -24.5610  -13.0570   20.7810 C   0  0  0  0  0  0  0  0  0  0  0  0
  -25.0010  -11.7080   20.6150 C   0  0  0  0  0  0  0  0  0  0  0  0
  -26.5830  -12.9770   19.9190 N   0  0  0  0  0  0  0  0  0  0  0  0
  -26.2440  -11.6820   20.1510 N   0  0  0  0  0  0  0  0  0  0  0  0
  -24.2860  -10.4410   20.8170 C   0  0  0  0  0  0  0  0  0  0  0  0
  -24.7250   -9.4890   21.7630 C   0  0  0  0  0  3  0  0  0  0  0  0
  -24.0110   -8.2860   21.9540 C   0  0  0  0  0  3  0  0  0  0  0  0
  -22.8430   -8.0280   21.1970 C   0  0  0  0  0  0  0  0  0  0  0  0
  -22.4240   -8.9680   20.2400 C   0  0  0  0  0  3  0  0  0  0  0  0
  -23.1380  -10.1610   20.0490 C   0  0  0  0  0  3  0  0  0  0  0  0
  -22.1000   -6.8760   21.2940 O   0  0  0  0  0  0  0  0  0  0  0  0
  -21.9110   -6.2410   22.4960 C   0  0  0  0  0  0  0  0  0  0  0  0
  -21.2970   -6.8880   23.5920 C   0  0  0  0  0  3  0  0  0  0  0  0
  -21.0590   -6.1760   24.7860 C   0  0  0  0  0  3  0  0  0  0  0  0
  -21.4250   -4.8200   24.8820 C   0  0  0  0  0  0  0  0  0  0  0  0
  -22.0310   -4.1740   23.7910 C   0  0  0  0  0  3  0  0  0  0  0  0
  -22.2700   -4.8820   22.6000 C   0  0  0  0  0  0  0  0  0  0  0  0
  -22.8350   -4.2490   21.5430 F   0  0  0  0  0  0  0  0  0  0  0  0
  -21.1900   -4.1340   26.0260 F   0  0  0  0  0  0  0  0  0  0  0  0
  -23.2130  -13.5250   21.2460 C   0  0  0  0  0  0  0  0  0  0  0  0
  -22.5940  -12.7940   22.1660 N   0  0  0  0  0  0  0  0  0  0  0  0
  -22.7200  -14.5720   20.8300 O   0  0  0  0  0  0  0  0  0  0  0  0
  -23.0050  -11.9450   22.5240 H   0  0  0  0  0  0  0  0  0  0  0  0
  -21.6940  -13.0890   22.5180 H   0  0  0  0  0  0  0  0  0  0  0  0
  -25.7390  -15.2240   20.2090 N   0  0  0  0  0  0  0  0  0  0  0  0
  -24.9900  -15.8680   20.4390 H   0  0  0  0  0  0  0  0  0  0  0  0
  -26.5260  -15.6760   19.7640 H   0  0  0  0  0  0  0  0  0  0  0  0
  -29.9810  -23.7890   18.9980 C   0  0  0  0  0  3  0  0  0  0  0  0
  -29.1090  -23.8670   20.0000 C   0  0  0  0  0  0  0  0  0  0  0  0
  -28.9340  -22.4870   20.5140 C   0  0  0  0  0  0  0  0  0  0  0  0
  -30.4410  -22.3690   18.7700 C   0  0  0  0  0  2  0  0  0  0  0  0
  -29.7080  -21.6020   19.7890 N   0  0  0  0  0  0  0  0  0  0  0  0
  -28.2030  -22.1780   21.4580 O   0  0  0  0  0  0  0  0  0  0  0  0
  -28.3610  -25.1260   20.5620 C   0  0  0  0  0  2  0  0  0  0  0  0
  -28.5820  -26.4600   19.9520 O   0  0  0  0  0  0  0  0  0  0  0  0
  -24.7270  -31.7190   23.0510 C   0  0  0  0  0  0  0  0  0  0  0  0
  -27.4610  -27.2990   19.9270 C   0  0  0  0  0  0  0  0  0  0  0  0
  -23.5630  -30.3180   21.3840 C   0  0  0  0  0  3  0  0  0  0  0  0
  -25.0560  -28.8360   19.9330 C   0  0  0  0  0  0  0  0  0  0  0  0
  -26.0910  -30.7150   21.2080 C   0  0  0  0  0  2  0  0  0  0  0  0
  -26.2110  -29.3520   20.5360 C   0  0  0  0  0  0  0  0  0  0  0  0
  -27.4210  -28.5960   20.5220 C   0  0  0  0  0  3  0  0  0  0  0  0
  -26.2880  -26.8360   19.2920 C   0  0  0  0  0  3  0  0  0  0  0  0
  -25.0950  -27.5840   19.3010 C   0  0  0  0  0  3  0  0  0  0  0  0
  -23.7960  -29.6750   19.9930 C   0  0  0  0  0  2  0  0  0  0  0  0
  -24.8120  -30.9340   21.9390 N   0  0  0  0  0  0  0  0  0  0  0  0
  -23.6360  -31.9580   23.5910 O   0  0  0  0  0  0  0  0  0  0  0  0
  -22.9260  -29.2680   22.3250 C   0  0  0  0  0  0  0  0  0  0  0  0
  -21.6030  -29.0670   22.2000 N   0  0  0  0  0  0  0  0  0  0  0  0
  -23.6210  -28.6370   23.1260 O   0  0  0  0  0  0  0  0  0  0  0  0
  -21.0990  -29.6270   21.5260 H   0  0  0  0  0  0  0  0  0  0  0  0
  -18.2480  -27.8100   22.7060 C   0  0  0  0  0  0  0  0  0  0  0  0
  -20.8050  -28.0980   22.9550 C   0  0  0  0  0  3  0  0  0  0  0  0
  -20.9220  -26.6840   22.3410 C   0  0  0  0  0  2  0  0  0  0  0  0
  -19.8130  -26.3730   21.3300 C   0  0  0  0  0  2  0  0  0  0  0  0
  -18.4360  -26.4830   21.9920 C   0  0  0  0  0  2  0  0  0  0  0  0
  -19.3620  -28.5770   23.1430 C   0  0  0  0  0  0  0  0  0  0  0  0
  -19.1320  -29.8200   23.7700 C   0  0  0  0  0  3  0  0  0  0  0  0
  -17.8220  -30.2980   23.9650 C   0  0  0  0  0  3  0  0  0  0  0  0
  -16.7240  -29.5290   23.5450 C   0  0  0  0  0  3  0  0  0  0  0  0
  -16.9380  -28.2870   22.9190 C   0  0  0  0  0  3  0  0  0  0  0  0
  -25.9920  -32.3740   23.6860 C   0  0  0  0  0  3  0  0  0  0  0  0
  -26.5430  -31.5800   24.9340 C   0  0  1  0  0  0  0  0  0  0  0  0
  -25.4630  -31.2640   25.9950 C   0  0  0  0  0  1  0  0  0  0  0  0
  -27.1780  -30.2410   24.4940 C   0  0  0  0  0  1  0  0  0  0  0  0
  -27.6620  -32.3970   25.6210 C   0  0  0  0  0  1  0  0  0  0  0  0
  -25.6400  -33.7490   24.0630 N   0  0  0  0  0  0  0  0  0  0  0  0
  -25.9260  -34.8360   23.3340 C   0  0  0  0  0  0  0  0  0  0  0  0
  -26.5850  -34.7890   22.2910 O   0  0  0  0  0  0  0  0  0  0  0  0
  -25.0560  -33.8580   24.8790 H   0  0  0  0  0  0  0  0  0  0  0  0
  -24.1320  -36.5770   23.0570 C   0  0  0  0  0  1  0  0  0  0  0  0
  -25.3960  -36.1920   23.8420 C   0  0  0  0  0  3  0  0  0  0  0  0
  -27.5070  -37.1270   24.6790 C   0  0  0  0  0  1  0  0  0  0  0  0
  -26.3890  -37.2850   23.7520 N   0  0  0  0  0  0  0  0  0  0  0  0
  -25.9520  -38.1830   23.9350 H   0  0  0  0  0  0  0  0  0  0  0  0
  -31.8120  -17.3990   18.2380 N   0  0  0  0  0  0  0  0  0  0  0  0
  -32.5870  -17.9760   17.9290 H   0  0  0  0  0  0  0  0  0  0  0  0
  -32.1210  -16.4590   18.5050 H   0  0  0  0  0  0  0  0  0  0  0  0
  1  3  1  0
  2  5  2  0
  2  4  1  0
  3  7  1  0
  4  1  2  0
  5  6  1  0
  6 16  1  0
  6  3  2  0
  8 16  1  0
  9 14  1  0
 10 11  1  0
 10  9  1  0
 12 11  1  0
 12 21  1  0
 12 13  1  0
 14  8  1  0
 14 13  1  0
 15  8  2  0
 16 17  1  0
 18 19  2  0
 19 38  1  0
 20 19  1  0
 20 23  1  0
 21 22  1  0
 21 18  1  0
 22 20  2  0
 23 24  1  0
 24 25  2  0
 26 29  1  0
 26 25  1  0
 27 26  2  0
 28 27  1  0
 28 23  2  0
 29 30  1  0
 30 35  2  0
 30 31  1  0
 31 32  2  0
 32 33  1  0
 33 37  1  0
 34 33  2  0
 35 34  1  0
 36 35  1  0
 38 39  1  0
 39 42  1  0
 39 41  1  0
 40 38  2  0
 43 18  1  0
 43 44  1  0
 45 43  1  0
 46 47  2  0
 47 48  1  0
 47 52  1  0
 48 51  2  0
 49 46  1  0
 49 50  1  0
 50  4  1  0
 50 48  1  0
 53 52  1  0
 54 65  2  0
 55 53  1  0
 55 60  1  0
 56 64  1  0
 56 66  1  0
 57 63  1  0
 57 59  1  0
 58 64  1  0
 59 58  1  0
 60 59  2  0
 61 62  1  0
 61 55  2  0
 62 57  2  0
 63 56  1  0
 64 54  1  0
 66 68  2  0
 67 66  1  0
 69 67  1  0
 70 79  2  0
 70 75  1  0
 71 67  1  0
 71 75  1  0
 72 71  1  0
 73 74  1  0
 73 72  1  0
 74 70  1  0
 75 76  2  0
 76 77  1  0
 78 77  2  0
 79 78  1  0
 80 54  1  0
 80 85  1  0
 80 81  1  0
 81 84  1  1
 81 82  1  0
 83 81  1  0
 85 88  1  0
 86 90  1  0
 86 85  1  0
 87 86  2  0
 90 89  1  0
 92 90  1  0
 92 93  1  0
 92 91  1  0
 94 96  1  0
 94  5  1  0
 95 94  1  0
M  ISO  4   8 100  16 100  52 101  53 101
M  END
>  <TORSDO>  (18) 
F 19

>  <SCORE>  (18) 
-10.945

>  <name>  (18) 
17

>  <ligand_id>  (18) 
17

>  <original_smiles>  (18) 
[H]C1=C(C([H])([H])Oc2c([H])c([H])c3c(c2[H])C([H])([H])N(C(=O)C([H])(N([H])C(=O)C([H])(N([H])C([H])([H])[H])C([H])([H])[H])C(C([H])([H])[H])(C([H])([H])[H])C([H])([H])[H])C([H])(C(=O)N([H])C2([H])c4c([H])c([H])c([H])c([H])c4C([H])([H])C([H])([H])C2([H])[H])C3([H])[H])C(=O)N(c2c([H])c(N([H])[H])c(N([H])C(=O)N3C([H])([H])C([H])([H])C([H])([H])C([H])(n4nc(-c5c([H])c([H])c(Oc6c([H])c([H])c(F)c([H])c6F)c([H])c5[H])c(C(=O)N([H])[H])c4N([H])[H])C3([H])[H])c(C([H])([H])[H])c2[H])C1([H])[H]

>  <smiles>  (18) 
[H]C1=C(C([H])([H])Oc2c([H])c([H])c3c(c2[H])C([H])([H])N(C(=O)C([H])(N([H])C(=O)C([H])(N([H])C([H])([H])[H])C([H])([H])[H])C(C([H])([H])[H])(C([H])([H])[H])C([H])([H])[H])C([H])(C(=O)N([H])C2([H])c4c([H])c([H])c([H])c([H])c4C([H])([H])C([H])([H])C2([H])[H])C3([H])[H])C(=O)N(c2c([H])c(N([H])[H])c(N([H])C(=O)N3C([H])([H])C([H])([H])C([H])([H])C([H])(n4nc(-c5c([H])c([H])c(Oc6c([H])c([H])c(F)c([H])c6F)c([H])c5[H])c(C(=O)N([H])[H])c4N([H])[H])C3([H])[H])c(C([H])([H])[H])c2[H])C1([H])[H]

$$$$
18:0:0
     RDKit          3D

 92100  0  0  1  0  0  0  0  0999 V2000
  -29.6930  -18.6980   19.3430 C   0  0  0  0  0  3  0  0  0  0  0  0
  -29.5050  -20.1470   19.3660 C   0  0  0  0  0  3  0  0  0  0  0  0
  -30.4760  -18.7530   21.5680 C   0  0  0  0  0  3  0  0  0  0  0  0
  -30.1650  -17.9110   20.4550 C   0  0  0  0  0  0  0  0  0  0  0  0
  -30.2790  -20.1820   21.6020 C   0  0  0  0  0  0  0  0  0  0  0  0
  -29.7530  -20.9600   20.5210 C   0  0  0  0  0  0  0  0  0  0  0  0
  -29.9300  -16.3490   20.6850 C   0  0  0  0  0  0  0  0  0  0  0  0
  -28.8170  -16.1850   21.2640 N   0  0  0  0  0  0  0  0  0  0  0  0
  -28.3840  -17.0840   21.4400 H   0  0  0  0  0  0  0  0  0  0  0  0
  -30.8710  -15.0260   20.3080 C   0  0  0  0  0  0  0  0  0  0  0  0
  -30.7690  -12.7160   19.2710 C   0  0  0  0  0  2  0  0  0  0  0  0
  -29.8110  -12.7310   18.0520 C   0  0  0  0  0  2  0  0  0  0  0  0
  -28.3410  -12.5350   18.4800 C   0  0  0  0  0  2  0  0  0  0  0  0
  -27.9670  -13.4160   19.6980 C   0  0  0  0  0  3  0  0  0  0  0  0
  -29.0290  -13.2700   20.8090 C   0  0  0  0  0  2  0  0  0  0  0  0
  -30.3040  -13.7470   20.2430 N   0  0  0  0  0  0  0  0  0  0  0  0
  -32.0520  -15.1470   19.9560 O   0  0  0  0  0  0  0  0  0  0  0  0
  -25.5820  -14.0580   20.3990 C   0  0  0  0  0  0  0  0  0  0  0  0
  -24.5000  -13.3060   20.7630 C   0  0  0  0  0  0  0  0  0  0  0  0
  -24.9450  -11.9480   20.7530 C   0  0  0  0  0  0  0  0  0  0  0  0
  -26.6150  -13.1580   20.1820 N   0  0  0  0  0  0  0  0  0  0  0  0
  -26.2370  -11.8850   20.4560 N   0  0  0  0  0  0  0  0  0  0  0  0
  -24.2010  -10.7000   20.9530 C   0  0  0  0  0  0  0  0  0  0  0  0
  -24.6070   -9.7420   21.9080 C   0  0  0  0  0  3  0  0  0  0  0  0
  -23.8650   -8.5560   22.0930 C   0  0  0  0  0  3  0  0  0  0  0  0
  -22.7030   -8.3210   21.3210 C   0  0  0  0  0  0  0  0  0  0  0  0
  -22.3140   -9.2670   20.3570 C   0  0  0  0  0  3  0  0  0  0  0  0
  -23.0570  -10.4440   20.1700 C   0  0  0  0  0  3  0  0  0  0  0  0
  -21.9330   -7.1850   21.4150 O   0  0  0  0  0  0  0  0  0  0  0  0
  -21.8400   -6.4730   22.5830 C   0  0  0  0  0  0  0  0  0  0  0  0
  -21.3770   -7.0620   23.7800 C   0  0  0  0  0  3  0  0  0  0  0  0
  -21.2330   -6.2770   24.9400 C   0  0  0  0  0  3  0  0  0  0  0  0
  -21.5400   -4.9030   24.9050 C   0  0  0  0  0  0  0  0  0  0  0  0
  -21.9960   -4.3140   23.7120 C   0  0  0  0  0  3  0  0  0  0  0  0
  -22.1430   -5.0960   22.5540 C   0  0  0  0  0  0  0  0  0  0  0  0
  -22.5630   -4.5190   21.4020 F   0  0  0  0  0  0  0  0  0  0  0  0
  -21.3940   -4.1460   26.0170 F   0  0  0  0  0  0  0  0  0  0  0  0
  -23.1080  -13.8060   21.0210 C   0  0  0  0  0  0  0  0  0  0  0  0
  -22.3700  -13.1390   21.9020 N   0  0  0  0  0  0  0  0  0  0  0  0
  -22.6830  -14.8240   20.4770 O   0  0  0  0  0  0  0  0  0  0  0  0
  -22.7270  -12.3160   22.3650 H   0  0  0  0  0  0  0  0  0  0  0  0
  -21.4360  -13.4560   22.1170 H   0  0  0  0  0  0  0  0  0  0  0  0
  -25.7760  -15.4220   20.2170 N   0  0  0  0  0  0  0  0  0  0  0  0
  -25.0670  -16.1100   20.4400 H   0  0  0  0  0  0  0  0  0  0  0  0
  -26.7180  -15.8050   20.1930 H   0  0  0  0  0  0  0  0  0  0  0  0
  -30.5700  -20.8570   22.7860 N   0  0  0  0  0  0  0  0  0  0  0  0
  -30.5400  -20.3360   23.6560 H   0  0  0  0  0  0  0  0  0  0  0  0
  -30.1730  -21.7890   22.8700 H   0  0  0  0  0  0  0  0  0  0  0  0
  -29.4980  -22.3720   20.7690 O   0  0  0  0  0  0  0  0  0  0  0  0
  -29.1760  -23.5360   19.8520 C   0  0  0  0  0  2  0  0  0  0  0  0
  -28.4630  -24.9000   20.4940 C   0  0  0  0  0  2  0  0  0  0  0  0
  -28.6090  -26.3700   20.0640 O   0  0  0  0  0  0  0  0  0  0  0  0
  -24.6460  -31.7370   23.1420 C   0  0  0  0  0  0  0  0  0  0  0  0
  -27.4810  -27.2500   20.0620 C   0  0  0  0  0  0  0  0  0  0  0  0
  -23.5290  -30.3170   21.4640 C   0  0  0  0  0  3  0  0  0  0  0  0
  -25.0640  -28.8380   20.0340 C   0  0  0  0  0  0  0  0  0  0  0  0
  -26.0640  -30.7180   21.3290 C   0  0  0  0  0  2  0  0  0  0  0  0
  -26.2100  -29.3450   20.6590 C   0  0  0  0  0  0  0  0  0  0  0  0
  -27.4220  -28.5670   20.6550 C   0  0  0  0  0  3  0  0  0  0  0  0
  -26.3060  -26.8250   19.4080 C   0  0  0  0  0  3  0  0  0  0  0  0
  -25.1190  -27.5890   19.3960 C   0  0  0  0  0  3  0  0  0  0  0  0
  -23.7930  -29.6720   20.0780 C   0  0  0  0  0  2  0  0  0  0  0  0
  -24.7650  -30.9450   22.0340 N   0  0  0  0  0  0  0  0  0  0  0  0
  -23.5440  -31.9620   23.6630 O   0  0  0  0  0  0  0  0  0  0  0  0
  -22.8880  -29.2630   22.4010 C   0  0  0  0  0  0  0  0  0  0  0  0
  -21.5690  -29.0380   22.2570 N   0  0  0  0  0  0  0  0  0  0  0  0
  -23.5790  -28.6500   23.2190 O   0  0  0  0  0  0  0  0  0  0  0  0
  -21.0680  -29.5880   21.5730 H   0  0  0  0  0  0  0  0  0  0  0  0
  -18.2360  -27.6920   22.7020 C   0  0  0  0  0  0  0  0  0  0  0  0
  -20.7800  -28.0540   23.0010 C   0  0  0  0  0  3  0  0  0  0  0  0
  -20.9460  -26.6380   22.4010 C   0  0  0  0  0  2  0  0  0  0  0  0
  -19.8670  -26.2900   21.3690 C   0  0  0  0  0  2  0  0  0  0  0  0
  -18.4750  -26.3650   22.0010 C   0  0  0  0  0  2  0  0  0  0  0  0
  -19.3190  -28.4930   23.1570 C   0  0  0  0  0  0  0  0  0  0  0  0
  -19.0410  -29.7330   23.7720 C   0  0  0  0  0  3  0  0  0  0  0  0
  -17.7140  -30.1760   23.9350 C   0  0  0  0  0  3  0  0  0  0  0  0
  -16.6470  -29.3730   23.4970 C   0  0  0  0  0  3  0  0  0  0  0  0
  -16.9080  -28.1340   22.8860 C   0  0  0  0  0  3  0  0  0  0  0  0
  -25.8880  -32.4160   23.7960 C   0  0  0  0  0  3  0  0  0  0  0  0
  -25.5180  -33.7990   24.1320 N   0  0  0  0  0  0  0  0  0  0  0  0
  -25.8230  -34.8740   23.3910 C   0  0  0  0  0  0  0  0  0  0  0  0
  -26.5120  -34.8070   22.3710 O   0  0  0  0  0  0  0  0  0  0  0  0
  -24.9050  -33.9220   24.9250 H   0  0  0  0  0  0  0  0  0  0  0  0
  -24.0300  -36.6050   23.0350 C   0  0  0  0  0  1  0  0  0  0  0  0
  -25.2770  -36.2390   23.8560 C   0  0  0  0  0  3  0  0  0  0  0  0
  -27.3650  -37.1990   24.7220 C   0  0  0  0  0  1  0  0  0  0  0  0
  -26.2700  -37.3320   23.7650 N   0  0  0  0  0  0  0  0  0  0  0  0
  -25.8260  -38.2340   23.9130 H   0  0  0  0  0  0  0  0  0  0  0  0
  -26.4070  -31.6590   25.0790 C   0  0  1  0  0  0  0  0  0  0  0  0
  -25.3040  -31.3780   26.1270 C   0  0  0  0  0  1  0  0  0  0  0  0
  -27.0450  -30.3030   24.6980 C   0  0  0  0  0  1  0  0  0  0  0  0
  -27.5170  -32.4900   25.7650 C   0  0  0  0  0  1  0  0  0  0  0  0
  1  2  2  0
  1  4  1  0
  2  6  1  0
  3  5  1  0
  4  7  1  0
  4  3  2  0
  5 46  1  0
  6 49  1  0
  6  5  2  0
  7  8  2  0
  8  9  1  0
 10  7  1  0
 11 16  1  0
 12 13  1  0
 12 11  1  0
 14 13  1  0
 14 21  1  0
 14 15  1  0
 16 10  1  0
 16 15  1  0
 17 10  2  0
 18 19  2  0
 19 38  1  0
 20 19  1  0
 20 23  1  0
 21 18  1  0
 21 22  1  0
 22 20  2  0
 23 24  1  0
 24 25  2  0
 26 29  1  0
 26 25  1  0
 27 26  2  0
 28 27  1  0
 28 23  2  0
 29 30  1  0
 30 31  1  0
 31 32  2  0
 33 32  1  0
 33 37  1  0
 34 33  2  0
 35 30  2  0
 35 34  1  0
 36 35  1  0
 38 39  1  0
 39 42  1  0
 39 41  1  0
 40 38  2  0
 43 18  1  0
 43 44  1  0
 45 43  1  0
 46 48  1  0
 46 47  1  0
 50 51  1  0
 50 49  1  0
 52 51  1  0
 53 64  2  0
 54 52  1  0
 54 59  1  0
 55 63  1  0
 55 65  1  0
 56 62  1  0
 56 58  1  0
 57 63  1  0
 58 57  1  0
 59 58  2  0
 60 54  2  0
 61 60  1  0
 61 56  2  0
 62 55  1  0
 63 53  1  0
 65 67  2  0
 66 65  1  0
 68 66  1  0
 69 78  2  0
 69 74  1  0
 70 66  1  0
 70 74  1  0
 71 70  1  0
 72 73  1  0
 72 71  1  0
 73 69  1  0
 74 75  2  0
 75 76  1  0
 77 76  2  0
 78 77  1  0
 79 53  1  0
 79 80  1  0
 79 89  1  0
 80 83  1  0
 81 85  1  0
 81 80  1  0
 82 81  2  0
 85 84  1  0
 87 85  1  0
 87 88  1  0
 87 86  1  0
 89 92  1  1
 89 90  1  0
 91 89  1  0
M  ISO  4   7 100  10 100  51 101  52 101
M  END
>  <TORSDO>  (19) 
F 21

>  <SCORE>  (19) 
-13.332

>  <name>  (19) 
18

>  <ligand_id>  (19) 
18

>  <original_smiles>  (19) 
[H]N=C(C(=O)N1C([H])([H])C([H])([H])C([H])([H])C([H])(n2nc(-c3c([H])c([H])c(Oc4c([H])c([H])c(F)c([H])c4F)c([H])c3[H])c(C(=O)N([H])[H])c2N([H])[H])C1([H])[H])c1c([H])c([H])c(OC([H])([H])C([H])([H])Oc2c([H])c([H])c3c(c2[H])C([H])([H])N(C(=O)C([H])(N([H])C(=O)C([H])(N([H])C([H])([H])[H])C([H])([H])[H])C(C([H])([H])[H])(C([H])([H])[H])C([H])([H])[H])C([H])(C(=O)N([H])C2([H])c4c([H])c([H])c([H])c([H])c4C([H])([H])C([H])([H])C2([H])[H])C3([H])[H])c(N([H])[H])c1[H]

>  <smiles>  (19) 
[H]N=C(C(=O)N1C([H])([H])C([H])([H])C([H])([H])C([H])(n2nc(-c3c([H])c([H])c(Oc4c([H])c([H])c(F)c([H])c4F)c([H])c3[H])c(C(=O)N([H])[H])c2N([H])[H])C1([H])[H])c1c([H])c([H])c(OC([H])([H])C([H])([H])Oc2c([H])c([H])c3c(c2[H])C([H])([H])N(C(=O)C([H])(N([H])C(=O)C([H])(N([H])C([H])([H])[H])C([H])([H])[H])C(C([H])([H])[H])(C([H])([H])[H])C([H])([H])[H])C([H])(C(=O)N([H])C2([H])c4c([H])c([H])c([H])c([H])c4C([H])([H])C([H])([H])C2([H])[H])C3([H])[H])c(N([H])[H])c1[H]

$$$$
19:0:0
     RDKit          3D

 94103  0  0  1  0  0  0  0  0999 V2000
  -28.3690  -23.7090   20.6180 C   0  0  0  0  0  0  0  0  0  0  0  0
  -27.7650  -22.8020   21.5900 C   0  0  0  0  0  0  0  0  0  0  0  0
  -29.2230  -22.7910   19.7790 C   0  0  0  0  0  0  0  0  0  0  0  0
  -28.0320  -25.0840   20.6940 C   0  0  0  0  0  3  0  0  0  0  0  0
  -28.2510  -21.3780   21.3700 C   0  0  0  0  0  2  0  0  0  0  0  0
  -29.1340  -21.4390   20.2050 N   0  0  0  0  0  0  0  0  0  0  0  0
  -26.9700  -23.0930   22.4920 O   0  0  0  0  0  0  0  0  0  0  0  0
  -29.9220  -23.1760   18.8340 O   0  0  0  0  0  0  0  0  0  0  0  0
  -30.9210  -18.9780   17.8380 C   0  0  0  0  0  3  0  0  0  0  0  0
  -30.3820  -20.1480   18.4150 C   0  0  0  0  0  3  0  0  0  0  0  0
  -30.8660  -17.7250   18.4790 C   0  0  0  0  0  3  0  0  0  0  0  0
  -29.7330  -20.1370   19.6720 C   0  0  0  0  0  0  0  0  0  0  0  0
  -30.2800  -17.5570   19.7560 C   0  0  0  0  0  0  0  0  0  0  0  0
  -29.6980  -18.8040   20.3160 C   0  0  0  0  0  0  0  0  0  0  0  0
  -29.0700  -18.7210   21.5120 F   0  0  0  0  0  0  0  0  0  0  0  0
  -30.9360  -14.9910   19.8910 C   0  0  0  0  0  0  0  0  0  0  0  0
  -30.6540  -12.7220   18.8230 C   0  0  0  0  0  2  0  0  0  0  0  0
  -29.6370  -12.7830   17.6600 C   0  0  0  0  0  2  0  0  0  0  0  0
  -28.2000  -12.5850   18.1780 C   0  0  0  0  0  2  0  0  0  0  0  0
  -27.9020  -13.4460   19.4320 C   0  0  0  0  0  3  0  0  0  0  0  0
  -29.0300  -13.3430   20.4770 C   0  0  0  0  0  2  0  0  0  0  0  0
  -30.2780  -13.7650   19.8190 N   0  0  0  0  0  0  0  0  0  0  0  0
  -32.0680  -15.0570   19.4000 O   0  0  0  0  0  0  0  0  0  0  0  0
  -30.0370  -16.1250   21.8270 C   0  0  0  0  0  1  0  0  0  0  0  0
  -30.3070  -16.1630   20.3840 N   0  0  0  0  0  0  0  0  0  0  0  0
  -25.5810  -14.0160   20.3570 C   0  0  0  0  0  0  0  0  0  0  0  0
  -24.5380  -13.2340   20.7720 C   0  0  0  0  0  0  0  0  0  0  0  0
  -24.9870  -11.8820   20.6550 C   0  0  0  0  0  0  0  0  0  0  0  0
  -26.5970  -13.1410   20.0090 N   0  0  0  0  0  0  0  0  0  0  0  0
  -26.2510  -11.8490   20.2530 N   0  0  0  0  0  0  0  0  0  0  0  0
  -24.2640  -10.6180   20.8500 C   0  0  0  0  0  0  0  0  0  0  0  0
  -24.6830   -9.6650   21.8050 C   0  0  0  0  0  3  0  0  0  0  0  0
  -23.9600   -8.4670   21.9860 C   0  0  0  0  0  3  0  0  0  0  0  0
  -22.8040   -8.2110   21.2120 C   0  0  0  0  0  0  0  0  0  0  0  0
  -22.4040   -9.1520   20.2450 C   0  0  0  0  0  3  0  0  0  0  0  0
  -23.1280  -10.3420   20.0630 C   0  0  0  0  0  3  0  0  0  0  0  0
  -22.0540   -7.0640   21.3000 O   0  0  0  0  0  0  0  0  0  0  0  0
  -21.8840   -6.4040   22.4910 C   0  0  0  0  0  0  0  0  0  0  0  0
  -21.3300   -7.0400   23.6230 C   0  0  0  0  0  3  0  0  0  0  0  0
  -21.1100   -6.3060   24.8060 C   0  0  0  0  0  3  0  0  0  0  0  0
  -21.4330   -4.9380   24.8550 C   0  0  0  0  0  0  0  0  0  0  0  0
  -21.9800   -4.3010   23.7270 C   0  0  0  0  0  3  0  0  0  0  0  0
  -22.2020   -5.0310   22.5480 C   0  0  0  0  0  0  0  0  0  0  0  0
  -22.7090   -4.4090   21.4570 F   0  0  0  0  0  0  0  0  0  0  0  0
  -21.2150   -4.2300   25.9880 F   0  0  0  0  0  0  0  0  0  0  0  0
  -23.1670  -13.7090   21.1600 C   0  0  0  0  0  0  0  0  0  0  0  0
  -22.5040  -12.9950   22.0630 N   0  0  0  0  0  0  0  0  0  0  0  0
  -22.6970  -14.7470   20.6970 O   0  0  0  0  0  0  0  0  0  0  0  0
  -22.9010  -12.1550   22.4570 H   0  0  0  0  0  0  0  0  0  0  0  0
  -21.5880  -13.2940   22.3650 H   0  0  0  0  0  0  0  0  0  0  0  0
  -25.7470  -15.3910   20.2240 N   0  0  0  0  0  0  0  0  0  0  0  0
  -25.0040  -16.0510   20.4250 H   0  0  0  0  0  0  0  0  0  0  0  0
  -26.5910  -15.8360   19.8840 H   0  0  0  0  0  0  0  0  0  0  0  0
  -28.3370  -26.3360   20.0530 O   0  0  0  0  0  0  0  0  0  0  0  0
  -24.6690  -31.8780   23.1700 C   0  0  0  0  0  0  0  0  0  0  0  0
  -27.2980  -27.3140   20.0360 C   0  0  0  0  0  0  0  0  0  0  0  0
  -23.4800  -30.5070   21.4990 C   0  0  0  0  0  3  0  0  0  0  0  0
  -24.9450  -28.9840   20.0440 C   0  0  0  0  0  0  0  0  0  0  0  0
  -26.0280  -30.8160   21.3380 C   0  0  0  0  0  2  0  0  0  0  0  0
  -26.1170  -29.4440   20.6600 C   0  0  0  0  0  0  0  0  0  0  0  0
  -27.2990  -28.6210   20.6460 C   0  0  0  0  0  3  0  0  0  0  0  0
  -26.1030  -26.9360   19.3900 C   0  0  0  0  0  3  0  0  0  0  0  0
  -24.9460  -27.7390   19.3960 C   0  0  0  0  0  3  0  0  0  0  0  0
  -23.7060  -29.8590   20.1070 C   0  0  0  0  0  2  0  0  0  0  0  0
  -24.7460  -31.0860   22.0580 N   0  0  0  0  0  0  0  0  0  0  0  0
  -23.5810  -32.1410   23.7040 O   0  0  0  0  0  0  0  0  0  0  0  0
  -22.8130  -29.4720   22.4390 C   0  0  0  0  0  0  0  0  0  0  0  0
  -21.4850  -29.3030   22.3170 N   0  0  0  0  0  0  0  0  0  0  0  0
  -23.4930  -28.8250   23.2400 O   0  0  0  0  0  0  0  0  0  0  0  0
  -20.9950  -29.8780   21.6460 H   0  0  0  0  0  0  0  0  0  0  0  0
  -18.1050  -28.1050   22.8230 C   0  0  0  0  0  0  0  0  0  0  0  0
  -20.6680  -28.3490   23.0710 C   0  0  0  0  0  3  0  0  0  0  0  0
  -20.7570  -26.9330   22.4550 C   0  0  0  0  0  2  0  0  0  0  0  0
  -19.6420  -26.6430   21.4440 C   0  0  0  0  0  2  0  0  0  0  0  0
  -18.2680  -26.7760   22.1060 C   0  0  0  0  0  2  0  0  0  0  0  0
  -19.2320  -28.8510   23.2610 C   0  0  0  0  0  0  0  0  0  0  0  0
  -19.0230  -30.0960   23.8930 C   0  0  0  0  0  3  0  0  0  0  0  0
  -17.7230  -30.5960   24.0890 C   0  0  0  0  0  3  0  0  0  0  0  0
  -16.6110  -29.8470   23.6660 C   0  0  0  0  0  3  0  0  0  0  0  0
  -16.8020  -28.6040   23.0390 C   0  0  0  0  0  3  0  0  0  0  0  0
  -25.9440  -32.5080   23.8090 C   0  0  0  0  0  3  0  0  0  0  0  0
  -25.6200  -33.8960   24.1750 N   0  0  0  0  0  0  0  0  0  0  0  0
  -25.9420  -34.9740   23.4470 C   0  0  0  0  0  0  0  0  0  0  0  0
  -26.6110  -34.9040   22.4120 O   0  0  0  0  0  0  0  0  0  0  0  0
  -25.0260  -34.0240   24.9820 H   0  0  0  0  0  0  0  0  0  0  0  0
  -24.2010  -36.7650   23.1440 C   0  0  0  0  0  1  0  0  0  0  0  0
  -25.4450  -36.3450   23.9440 C   0  0  0  0  0  3  0  0  0  0  0  0
  -27.5730  -37.2220   24.7990 C   0  0  0  0  0  1  0  0  0  0  0  0
  -26.4700  -37.4090   23.8610 N   0  0  0  0  0  0  0  0  0  0  0  0
  -26.0560  -38.3220   24.0340 H   0  0  0  0  0  0  0  0  0  0  0  0
  -26.4630  -31.7130   25.0690 C   0  0  1  0  0  0  0  0  0  0  0  0
  -25.3710  -31.4430   26.1290 C   0  0  0  0  0  1  0  0  0  0  0  0
  -27.0600  -30.3490   24.6510 C   0  0  0  0  0  1  0  0  0  0  0  0
  -27.6060  -32.5020   25.7510 C   0  0  0  0  0  1  0  0  0  0  0  0
  1  4  2  0
  1  2  1  0
  2  7  2  0
  3  6  1  0
  3  1  1  0
  5  2  1  0
  6  5  1  0
  8  3  2  0
  9 10  2  0
  9 11  1  0
 10 12  1  0
 11 13  2  0
 12  6  1  0
 12 14  2  0
 13 14  1  0
 13 25  1  0
 14 15  1  0
 16 25  1  0
 17 22  1  0
 18 19  1  0
 18 17  1  0
 20 19  1  0
 20 29  1  0
 20 21  1  0
 22 16  1  0
 22 21  1  0
 23 16  2  0
 25 24  1  0
 26 27  2  0
 27 46  1  0
 28 27  1  0
 28 31  1  0
 29 30  1  0
 29 26  1  0
 30 28  2  0
 31 32  1  0
 32 33  2  0
 34 37  1  0
 34 33  1  0
 35 34  2  0
 36 35  1  0
 36 31  2  0
 37 38  1  0
 38 43  2  0
 38 39  1  0
 39 40  2  0
 40 41  1  0
 41 45  1  0
 42 41  2  0
 43 42  1  0
 44 43  1  0
 46 47  1  0
 47 50  1  0
 47 49  1  0
 48 46  2  0
 51 26  1  0
 51 52  1  0
 53 51  1  0
 54  4  1  0
 55 66  2  0
 56 54  1  0
 56 61  1  0
 57 65  1  0
 57 67  1  0
 58 64  1  0
 58 60  1  0
 59 65  1  0
 60 59  1  0
 61 60  2  0
 62 63  1  0
 62 56  2  0
 63 58  2  0
 64 57  1  0
 65 55  1  0
 67 69  2  0
 68 67  1  0
 70 68  1  0
 71 80  2  0
 71 76  1  0
 72 68  1  0
 72 76  1  0
 73 72  1  0
 74 75  1  0
 74 73  1  0
 75 71  1  0
 76 77  2  0
 77 78  1  0
 79 78  2  0
 80 79  1  0
 81 55  1  0
 81 82  1  0
 81 91  1  0
 82 85  1  0
 83 87  1  0
 83 82  1  0
 84 83  2  0
 87 86  1  0
 89 87  1  0
 89 90  1  0
 89 88  1  0
 91 94  1  1
 91 92  1  0
 93 91  1  0
M  ISO  4   4 101  16 100  25 100  54 101
M  END
>  <TORSDO>  (20) 
F 17

>  <SCORE>  (20) 
-13.915

>  <name>  (20) 
19

>  <ligand_id>  (20) 
19

>  <original_smiles>  (20) 
[H]C(Oc1c([H])c([H])c2c(c1[H])C([H])([H])N(C(=O)C([H])(N([H])C(=O)C([H])(N([H])C([H])([H])[H])C([H])([H])[H])C(C([H])([H])[H])(C([H])([H])[H])C([H])([H])[H])C([H])(C(=O)N([H])C1([H])c3c([H])c([H])c([H])c([H])c3C([H])([H])C([H])([H])C1([H])[H])C2([H])[H])=C1C(=O)N(c2c([H])c([H])c([H])c(N(C(=O)N3C([H])([H])C([H])([H])C([H])([H])C([H])(n4nc(-c5c([H])c([H])c(Oc6c([H])c([H])c(F)c([H])c6F)c([H])c5[H])c(C(=O)N([H])[H])c4N([H])[H])C3([H])[H])C([H])([H])[H])c2F)C([H])([H])C1=O

>  <smiles>  (20) 
[H]C(Oc1c([H])c([H])c2c(c1[H])C([H])([H])N(C(=O)C([H])(N([H])C(=O)C([H])(N([H])C([H])([H])[H])C([H])([H])[H])C(C([H])([H])[H])(C([H])([H])[H])C([H])([H])[H])C([H])(C(=O)N([H])C1([H])c3c([H])c([H])c([H])c([H])c3C([H])([H])C([H])([H])C1([H])[H])C2([H])[H])=C1C(=O)N(c2c([H])c([H])c([H])c(N(C(=O)N3C([H])([H])C([H])([H])C([H])([H])C([H])(n4nc(-c5c([H])c([H])c(Oc6c([H])c([H])c(F)c([H])c6F)c([H])c5[H])c(C(=O)N([H])[H])c4N([H])[H])C3([H])[H])C([H])([H])[H])c2F)C([H])([H])C1=O

$$$$
20:0:0
     RDKit          3D

 96104  0  0  1  0  0  0  0  0999 V2000
  -31.4910  -20.9790   20.3110 C   0  0  0  0  0  0  0  0  0  0  0  0
  -32.5000  -21.1620   19.4550 N   0  0  0  0  0  4  0  0  0  0  0  0
  -30.9130  -22.0640   20.8620 N   0  0  0  0  0  0  0  0  0  0  0  0
  -32.9010  -20.3620   18.9880 H   0  0  0  0  0  0  0  0  0  0  0  0
  -32.8470  -22.0730   19.2090 H   0  0  0  0  0  0  0  0  0  0  0  0
  -30.2070  -21.8860   21.5650 H   0  0  0  0  0  0  0  0  0  0  0  0
  -32.0730  -18.6470   20.9110 C   0  0  0  0  0  3  0  0  0  0  0  0
  -31.7390  -17.2940   21.1060 C   0  0  0  0  0  3  0  0  0  0  0  0
  -29.3900  -17.8250   20.7900 C   0  0  0  0  0  3  0  0  0  0  0  0
  -31.0740  -19.6040   20.6260 C   0  0  0  0  0  0  0  0  0  0  0  0
  -30.3980  -16.8540   20.9950 C   0  0  0  0  0  0  0  0  0  0  0  0
  -29.7210  -19.1880   20.5990 C   0  0  0  0  0  0  0  0  0  0  0  0
  -28.7280  -20.0790   20.3550 F   0  0  0  0  0  0  0  0  0  0  0  0
  -30.6740  -14.4610   20.4450 C   0  0  0  0  0  0  0  0  0  0  0  0
  -30.3130  -12.3450   19.2450 C   0  0  0  0  0  2  0  0  0  0  0  0
  -29.3600  -12.5890   18.0580 C   0  0  0  0  0  2  0  0  0  0  0  0
  -27.8940  -12.4460   18.5050 C   0  0  0  0  0  2  0  0  0  0  0  0
  -27.5780  -13.2620   19.7880 C   0  0  0  0  0  3  0  0  0  0  0  0
  -28.6450  -13.0170   20.8800 C   0  0  0  0  0  2  0  0  0  0  0  0
  -29.9670  -13.3090   20.3010 N   0  0  0  0  0  0  0  0  0  0  0  0
  -31.7810  -14.6200   19.9230 O   0  0  0  0  0  0  0  0  0  0  0  0
  -30.0450  -15.4700   21.0790 N   0  0  0  0  0  0  0  0  0  0  0  0
  -29.1180  -15.2540   21.4120 H   0  0  0  0  0  0  0  0  0  0  0  0
  -25.1830  -13.8600   20.5170 C   0  0  0  0  0  0  0  0  0  0  0  0
  -24.1190  -13.0840   20.8940 C   0  0  0  0  0  0  0  0  0  0  0  0
  -24.5840  -11.7340   20.8580 C   0  0  0  0  0  0  0  0  0  0  0  0
  -26.2290  -12.9820   20.2780 N   0  0  0  0  0  0  0  0  0  0  0  0
  -25.8720  -11.6980   20.5380 N   0  0  0  0  0  0  0  0  0  0  0  0
  -23.8620  -10.4700   21.0510 C   0  0  0  0  0  0  0  0  0  0  0  0
  -24.3070   -9.5020   21.9790 C   0  0  0  0  0  3  0  0  0  0  0  0
  -23.5870   -8.3020   22.1620 C   0  0  0  0  0  3  0  0  0  0  0  0
  -22.4080   -8.0620   21.4170 C   0  0  0  0  0  0  0  0  0  0  0  0
  -21.9810   -9.0180   20.4780 C   0  0  0  0  0  3  0  0  0  0  0  0
  -22.7020  -10.2110   20.2950 C   0  0  0  0  0  3  0  0  0  0  0  0
  -21.6570   -6.9130   21.5080 O   0  0  0  0  0  0  0  0  0  0  0  0
  -21.6310   -6.1620   22.6550 C   0  0  0  0  0  0  0  0  0  0  0  0
  -21.2220   -6.7030   23.8930 C   0  0  0  0  0  3  0  0  0  0  0  0
  -21.1440   -5.8770   25.0320 C   0  0  0  0  0  3  0  0  0  0  0  0
  -21.4630   -4.5090   24.9340 C   0  0  0  0  0  0  0  0  0  0  0  0
  -21.8660   -3.9660   23.7010 C   0  0  0  0  0  3  0  0  0  0  0  0
  -21.9460   -4.7900   22.5640 C   0  0  0  0  0  0  0  0  0  0  0  0
  -22.3140   -4.2570   21.3740 F   0  0  0  0  0  0  0  0  0  0  0  0
  -21.3800   -3.7130   26.0250 F   0  0  0  0  0  0  0  0  0  0  0  0
  -22.7230  -13.5590   21.1790 C   0  0  0  0  0  0  0  0  0  0  0  0
  -22.0020  -12.8560   22.0440 N   0  0  0  0  0  0  0  0  0  0  0  0
  -22.2810  -14.5890   20.6690 O   0  0  0  0  0  0  0  0  0  0  0  0
  -22.3710  -12.0230   22.4760 H   0  0  0  0  0  0  0  0  0  0  0  0
  -21.0640  -13.1520   22.2730 H   0  0  0  0  0  0  0  0  0  0  0  0
  -25.3420  -15.2310   20.3410 N   0  0  0  0  0  0  0  0  0  0  0  0
  -24.5670  -15.8780   20.4420 H   0  0  0  0  0  0  0  0  0  0  0  0
  -26.1780  -15.6680   19.9740 H   0  0  0  0  0  0  0  0  0  0  0  0
  -31.2930  -23.4720   20.6290 C   0  0  0  0  0  2  0  0  0  0  0  0
  -30.1870  -24.4720   21.0010 C   0  0  0  0  0  2  0  0  0  0  0  0
  -30.5720  -25.9080   20.5810 C   0  0  0  0  0  2  0  0  0  0  0  0
  -29.5030  -26.9740   20.8680 C   0  0  0  0  0  2  0  0  0  0  0  0
  -28.3670  -26.6690   20.0720 O   0  0  0  0  0  0  0  0  0  0  0  0
  -24.5740  -31.8880   23.2130 C   0  0  0  0  0  0  0  0  0  0  0  0
  -27.2430  -27.4600   20.1560 C   0  0  0  0  0  0  0  0  0  0  0  0
  -23.3700  -30.4750   21.5760 C   0  0  0  0  0  3  0  0  0  0  0  0
  -24.8320  -28.9340   20.1670 C   0  0  0  0  0  0  0  0  0  0  0  0
  -25.8900  -30.8470   21.3740 C   0  0  0  0  0  2  0  0  0  0  0  0
  -25.9850  -29.4690   20.7560 C   0  0  0  0  0  0  0  0  0  0  0  0
  -27.1920  -28.7390   20.7610 C   0  0  0  0  0  3  0  0  0  0  0  0
  -26.0750  -26.9350   19.5680 C   0  0  0  0  0  3  0  0  0  0  0  0
  -24.8690  -27.6600   19.5760 C   0  0  0  0  0  3  0  0  0  0  0  0
  -23.5850  -29.7850   20.2010 C   0  0  0  0  0  2  0  0  0  0  0  0
  -24.6300  -31.0860   22.1140 N   0  0  0  0  0  0  0  0  0  0  0  0
  -23.4930  -32.1620   23.7520 O   0  0  0  0  0  0  0  0  0  0  0  0
  -22.7200  -29.4590   22.5420 C   0  0  0  0  0  0  0  0  0  0  0  0
  -21.3960  -29.2770   22.4140 N   0  0  0  0  0  0  0  0  0  0  0  0
  -23.4040  -28.8380   23.3600 O   0  0  0  0  0  0  0  0  0  0  0  0
  -20.9080  -29.8310   21.7240 H   0  0  0  0  0  0  0  0  0  0  0  0
  -18.0190  -28.0950   22.9170 C   0  0  0  0  0  0  0  0  0  0  0  0
  -20.5780  -28.3420   23.1860 C   0  0  0  0  0  3  0  0  0  0  0  0
  -20.6760  -26.9100   22.6120 C   0  0  0  0  0  2  0  0  0  0  0  0
  -19.5710  -26.5920   21.5990 C   0  0  0  0  0  2  0  0  0  0  0  0
  -18.1900  -26.7440   22.2430 C   0  0  0  0  0  2  0  0  0  0  0  0
  -19.1410  -28.8520   23.3450 C   0  0  0  0  0  0  0  0  0  0  0  0
  -18.9290  -30.1180   23.9340 C   0  0  0  0  0  3  0  0  0  0  0  0
  -17.6270  -30.6260   24.0990 C   0  0  0  0  0  3  0  0  0  0  0  0
  -16.5190  -29.8650   23.6860 C   0  0  0  0  0  3  0  0  0  0  0  0
  -16.7160  -28.6010   23.1000 C   0  0  0  0  0  3  0  0  0  0  0  0
  -25.8600  -32.5200   23.8310 C   0  0  0  0  0  3  0  0  0  0  0  0
  -25.5540  -33.9200   24.1560 N   0  0  0  0  0  0  0  0  0  0  0  0
  -25.8910  -34.9670   23.3940 C   0  0  0  0  0  0  0  0  0  0  0  0
  -26.5670  -34.8600   22.3670 O   0  0  0  0  0  0  0  0  0  0  0  0
  -24.9530  -34.0780   24.9530 H   0  0  0  0  0  0  0  0  0  0  0  0
  -24.1740  -36.7620   23.0110 C   0  0  0  0  0  1  0  0  0  0  0  0
  -25.4020  -36.3580   23.8420 C   0  0  0  0  0  3  0  0  0  0  0  0
  -27.5290  -37.2350   24.6990 C   0  0  0  0  0  1  0  0  0  0  0  0
  -26.4400  -37.4070   23.7420 N   0  0  0  0  0  0  0  0  0  0  0  0
  -26.0340  -38.3290   23.8860 H   0  0  0  0  0  0  0  0  0  0  0  0
  -26.3830  -31.7480   25.1050 C   0  0  1  0  0  0  0  0  0  0  0  0
  -25.2920  -31.5080   26.1730 C   0  0  0  0  0  1  0  0  0  0  0  0
  -26.9660  -30.3720   24.7060 C   0  0  0  0  0  1  0  0  0  0  0  0
  -27.5360  -32.5410   25.7640 C   0  0  0  0  0  1  0  0  0  0  0  0
  1 10  1  0
  1  3  1  0
  2  1  2  0
  3  6  1  0
  4  2  1  0
  5  2  1  0
  7  8  1  0
  9 11  1  0
 10  7  2  0
 11 22  1  0
 11  8  2  0
 12 10  1  0
 12  9  2  0
 13 12  1  0
 14 22  1  0
 15 20  1  0
 16 17  1  0
 16 15  1  0
 18 17  1  0
 18 27  1  0
 18 19  1  0
 20 14  1  0
 20 19  1  0
 21 14  2  0
 22 23  1  0
 24 25  2  0
 25 44  1  0
 26 25  1  0
 26 29  1  0
 27 24  1  0
 27 28  1  0
 28 26  2  0
 29 30  1  0
 30 31  2  0
 32 35  1  0
 32 31  1  0
 33 32  2  0
 34 33  1  0
 34 29  2  0
 35 36  1  0
 36 37  1  0
 37 38  2  0
 39 38  1  0
 39 43  1  0
 40 39  2  0
 41 36  2  0
 41 40  1  0
 42 41  1  0
 44 45  1  0
 45 48  1  0
 45 47  1  0
 46 44  2  0
 49 50  1  0
 49 24  1  0
 51 49  1  0
 52  3  1  0
 52 53  1  0
 54 55  1  0
 54 53  1  0
 56 58  1  0
 56 55  1  0
 57 68  2  0
 58 63  1  0
 59 67  1  0
 59 69  1  0
 60 66  1  0
 60 62  1  0
 61 67  1  0
 62 63  2  0
 62 61  1  0
 64 65  1  0
 64 58  2  0
 65 60  2  0
 66 59  1  0
 67 57  1  0
 69 71  2  0
 70 69  1  0
 72 70  1  0
 73 82  2  0
 73 78  1  0
 74 70  1  0
 74 78  1  0
 75 74  1  0
 76 77  1  0
 76 75  1  0
 77 73  1  0
 78 79  2  0
 79 80  1  0
 81 80  2  0
 82 81  1  0
 83 57  1  0
 83 84  1  0
 83 93  1  0
 84 87  1  0
 85 89  1  0
 85 84  1  0
 86 85  2  0
 89 88  1  0
 91 89  1  0
 91 92  1  0
 91 90  1  0
 93 96  1  1
 93 94  1  0
 95 93  1  0
M  ISO  4  14 100  22 100  55 101  56 101
M  END
>  <TORSDO>  (21) 
F 21

>  <SCORE>  (21) 
-13.800

>  <name>  (21) 
20

>  <ligand_id>  (21) 
20

>  <original_smiles>  (21) 
[H]c1c([H])c([H])c2c(c1[H])C([H])([H])C([H])([H])C([H])([H])C2([H])N([H])C(=O)C1([H])N(C(=O)C([H])(N([H])C(=O)C([H])(N([H])C([H])([H])[H])C([H])([H])[H])C(C([H])([H])[H])(C([H])([H])[H])C([H])([H])[H])C([H])([H])c2c([H])c(OC([H])([H])C([H])([H])C([H])([H])C([H])([H])[N+]([H])=C(c3c([H])c([H])c(N([H])C(=O)N4C([H])([H])C([H])([H])C([H])([H])C([H])(n5nc(-c6c([H])c([H])c(Oc7c([H])c([H])c(F)c([H])c7F)c([H])c6[H])c(C(=O)N([H])[H])c5N([H])[H])C4([H])[H])c([H])c3F)N([H])[H])c([H])c([H])c2C1([H])[H]

>  <smiles>  (21) 
[H]c1c([H])c([H])c2c(c1[H])C([H])([H])C([H])([H])C([H])([H])C2([H])N([H])C(=O)C1([H])N(C(=O)C([H])(N([H])C(=O)C([H])(N([H])C([H])([H])[H])C([H])([H])[H])C(C([H])([H])[H])(C([H])([H])[H])C([H])([H])[H])C([H])([H])c2c([H])c(OC([H])([H])C([H])([H])C([H])([H])C([H])([H])[N+]([H])=C(c3c([H])c([H])c(N([H])C(=O)N4C([H])([H])C([H])([H])C([H])([H])C([H])(n5nc(-c6c([H])c([H])c(Oc7c([H])c([H])c(F)c([H])c7F)c([H])c6[H])c(C(=O)N([H])[H])c5N([H])[H])C4([H])[H])c([H])c3F)N([H])[H])c([H])c([H])c2C1([H])[H]

$$$$
21:0:0
     RDKit          3D

 96105  0  0  1  0  0  0  0  0999 V2000
  -30.5970  -19.6330   19.2680 C   0  0  0  0  0  3  0  0  0  0  0  0
  -29.9880  -20.9090   19.3410 C   0  0  0  0  0  3  0  0  0  0  0  0
  -29.9470  -18.5040   19.8250 C   0  0  0  0  0  0  0  0  0  0  0  0
  -28.7250  -21.0230   19.9650 C   0  0  0  0  0  0  0  0  0  0  0  0
  -26.6850  -24.7640   20.8160 C   0  0  0  0  0  3  0  0  0  0  0  0
  -27.8230  -24.8490   20.0980 C   0  0  0  0  0  0  0  0  0  0  0  0
  -26.0100  -23.4890   21.0750 C   0  0  0  0  0  0  0  0  0  0  0  0
  -26.6780  -22.1750   20.6620 C   0  0  0  0  0  2  0  0  0  0  0  0
  -28.5260  -23.5660   19.5480 C   0  0  0  0  0  3  0  0  0  0  0  0
  -28.3890  -23.5170   18.0180 C   0  0  0  0  0  1  0  0  0  0  0  0
  -28.7160  -18.6610   20.3850 N   0  0  0  0  0  0  0  0  0  0  0  0
  -28.1300  -19.8800   20.4390 N   0  0  0  0  0  0  0  0  0  0  0  0
  -28.0520  -22.2780   20.1410 N   0  0  0  0  0  0  0  0  0  0  0  0
  -24.9070  -23.4460   21.6220 O   0  0  0  0  0  0  0  0  0  0  0  0
  -30.7840  -14.8090   19.9730 C   0  0  0  0  0  0  0  0  0  0  0  0
  -30.4370  -12.4460   19.3200 C   0  0  0  0  0  2  0  0  0  0  0  0
  -29.5000  -12.3350   18.1040 C   0  0  0  0  0  2  0  0  0  0  0  0
  -28.0390  -12.2550   18.5750 C   0  0  0  0  0  2  0  0  0  0  0  0
  -27.6820  -13.3780   19.5860 C   0  0  0  0  0  3  0  0  0  0  0  0
  -28.7380  -13.4780   20.7110 C   0  0  0  0  0  2  0  0  0  0  0  0
  -30.0540  -13.6570   20.0810 N   0  0  0  0  0  0  0  0  0  0  0  0
  -31.9280  -14.7490   19.5190 O   0  0  0  0  0  0  0  0  0  0  0  0
  -30.7690  -17.2310   20.0350 C   0  0  0  0  0  0  0  0  0  0  0  0
  -30.1720  -16.0100   20.1990 N   0  0  0  0  0  0  0  0  0  0  0  0
  -31.9990  -17.3870   19.9830 O   0  0  0  0  0  0  0  0  0  0  0  0
  -29.1910  -16.0110   20.4130 H   0  0  0  0  0  0  0  0  0  0  0  0
  -25.3390  -14.1370   20.3190 C   0  0  0  0  0  0  0  0  0  0  0  0
  -24.2440  -13.4370   20.7540 C   0  0  0  0  0  0  0  0  0  0  0  0
  -24.6400  -12.0660   20.7870 C   0  0  0  0  0  0  0  0  0  0  0  0
  -26.3340  -13.1960   20.1180 N   0  0  0  0  0  0  0  0  0  0  0  0
  -25.9210  -11.9480   20.4600 N   0  0  0  0  0  0  0  0  0  0  0  0
  -23.8620  -10.8500   21.0580 C   0  0  0  0  0  0  0  0  0  0  0  0
  -24.3460   -9.8410   21.9180 C   0  0  0  0  0  3  0  0  0  0  0  0
  -23.5710   -8.6930   22.1810 C   0  0  0  0  0  3  0  0  0  0  0  0
  -22.2960   -8.5440   21.5870 C   0  0  0  0  0  0  0  0  0  0  0  0
  -21.8280   -9.5430   20.7130 C   0  0  0  0  0  3  0  0  0  0  0  0
  -22.6040  -10.6830   20.4490 C   0  0  0  0  0  3  0  0  0  0  0  0
  -21.4860   -7.4500   21.7620 O   0  0  0  0  0  0  0  0  0  0  0  0
  -21.6020   -6.6390   22.8620 C   0  0  0  0  0  0  0  0  0  0  0  0
  -21.4620   -7.1380   24.1770 C   0  0  0  0  0  3  0  0  0  0  0  0
  -21.5200   -6.2570   25.2740 C   0  0  0  0  0  3  0  0  0  0  0  0
  -21.7060   -4.8780   25.0630 C   0  0  0  0  0  0  0  0  0  0  0  0
  -21.8410   -4.3800   23.7540 C   0  0  0  0  0  3  0  0  0  0  0  0
  -21.7840   -5.2580   22.6580 C   0  0  0  0  0  0  0  0  0  0  0  0
  -21.8920   -4.7690   21.3980 F   0  0  0  0  0  0  0  0  0  0  0  0
  -21.7550   -4.0300   26.1160 F   0  0  0  0  0  0  0  0  0  0  0  0
  -22.8770  -13.9980   21.0270 C   0  0  0  0  0  0  0  0  0  0  0  0
  -22.1740  -13.4410   22.0070 N   0  0  0  0  0  0  0  0  0  0  0  0
  -22.4460  -14.9650   20.4040 O   0  0  0  0  0  0  0  0  0  0  0  0
  -22.5400  -12.6640   22.5360 H   0  0  0  0  0  0  0  0  0  0  0  0
  -21.2570  -13.8030   22.2340 H   0  0  0  0  0  0  0  0  0  0  0  0
  -25.5650  -15.4860   20.0600 N   0  0  0  0  0  0  0  0  0  0  0  0
  -24.8290  -16.1790   20.1380 H   0  0  0  0  0  0  0  0  0  0  0  0
  -26.4250  -15.8630   19.6800 H   0  0  0  0  0  0  0  0  0  0  0  0
  -28.5030  -26.2470   19.9710 C   0  0  0  0  0  2  0  0  0  0  0  0
  -27.9240  -27.2000   19.0420 O   0  0  0  0  0  0  0  0  0  0  0  0
  -24.9060  -31.3580   24.0730 C   0  0  0  0  0  0  0  0  0  0  0  0
  -26.8880  -28.0150   19.4710 C   0  0  0  0  0  0  0  0  0  0  0  0
  -23.4620  -30.6700   22.1890 C   0  0  0  0  0  3  0  0  0  0  0  0
  -24.6630  -29.6210   20.1910 C   0  0  0  0  0  0  0  0  0  0  0  0
  -25.9900  -30.9090   21.8700 C   0  0  0  0  0  2  0  0  0  0  0  0
  -25.9050  -29.8290   20.8090 C   0  0  0  0  0  0  0  0  0  0  0  0
  -27.0220  -29.0330   20.4490 C   0  0  0  0  0  3  0  0  0  0  0  0
  -25.6400  -27.8470   18.8390 C   0  0  0  0  0  3  0  0  0  0  0  0
  -24.5280  -28.6330   19.2000 C   0  0  0  0  0  3  0  0  0  0  0  0
  -23.5040  -30.4830   20.6480 C   0  0  0  0  0  2  0  0  0  0  0  0
  -24.8100  -30.9740   22.7690 N   0  0  0  0  0  0  0  0  0  0  0  0
  -23.8980  -31.4930   24.7810 O   0  0  0  0  0  0  0  0  0  0  0  0
  -22.7940  -29.4230   22.8180 C   0  0  0  0  0  0  0  0  0  0  0  0
  -21.4680  -29.3030   22.6510 N   0  0  0  0  0  0  0  0  0  0  0  0
  -23.4690  -28.5810   23.4160 O   0  0  0  0  0  0  0  0  0  0  0  0
  -20.9880  -30.0330   22.1450 H   0  0  0  0  0  0  0  0  0  0  0  0
  -18.1640  -27.8430   22.4710 C   0  0  0  0  0  0  0  0  0  0  0  0
  -20.6410  -28.1900   23.1220 C   0  0  0  0  0  3  0  0  0  0  0  0
  -20.9290  -26.9050   22.3130 C   0  0  0  0  0  2  0  0  0  0  0  0
  -19.9860  -26.7190   21.1200 C   0  0  0  0  0  2  0  0  0  0  0  0
  -18.5280  -26.6620   21.5870 C   0  0  0  0  0  2  0  0  0  0  0  0
  -19.1590  -28.5710   23.1780 C   0  0  0  0  0  0  0  0  0  0  0  0
  -18.7680  -29.6850   23.9500 C   0  0  0  0  0  3  0  0  0  0  0  0
  -17.4180  -30.0710   24.0310 C   0  0  0  0  0  3  0  0  0  0  0  0
  -16.4350  -29.3340   23.3460 C   0  0  0  0  0  3  0  0  0  0  0  0
  -16.8100  -28.2230   22.5720 C   0  0  0  0  0  3  0  0  0  0  0  0
  -26.2870  -31.6660   24.7330 C   0  0  0  0  0  3  0  0  0  0  0  0
  -26.2580  -33.0640   25.1800 N   0  0  0  0  0  0  0  0  0  0  0  0
  -26.9060  -34.0690   24.5770 C   0  0  0  0  0  0  0  0  0  0  0  0
  -27.6550  -33.8990   23.6110 O   0  0  0  0  0  0  0  0  0  0  0  0
  -25.6200  -33.2860   25.9300 H   0  0  0  0  0  0  0  0  0  0  0  0
  -25.7910  -36.2870   24.1630 C   0  0  0  0  0  1  0  0  0  0  0  0
  -26.6830  -35.4910   25.1300 C   0  0  0  0  0  3  0  0  0  0  0  0
  -28.7220  -35.6950   26.4810 C   0  0  0  0  0  1  0  0  0  0  0  0
  -27.9400  -36.2340   25.3710 N   0  0  0  0  0  0  0  0  0  0  0  0
  -27.7520  -37.2140   25.5600 H   0  0  0  0  0  0  0  0  0  0  0  0
  -26.6300  -30.7050   25.9380 C   0  0  1  0  0  0  0  0  0  0  0  0
  -25.5050  -30.6080   26.9950 C   0  0  0  0  0  1  0  0  0  0  0  0
  -26.9270  -29.2710   25.4380 C   0  0  0  0  0  1  0  0  0  0  0  0
  -27.9200  -31.1930   26.6390 C   0  0  0  0  0  1  0  0  0  0  0  0
  1  2  2  0
  1  3  1  0
  2  4  1  0
  3 23  1  0
  3 11  2  0
  4 13  1  0
  4 12  2  0
  5  7  1  0
  6  5  2  0
  7 14  2  0
  8  7  1  0
  9 10  1  0
  9  6  1  0
  9 13  1  0
 11 12  1  0
 13  8  1  0
 15 21  1  0
 15 24  1  0
 16 21  1  0
 17 18  1  0
 17 16  1  0
 19 18  1  0
 19 30  1  0
 19 20  1  0
 21 20  1  0
 22 15  2  0
 23 24  1  0
 24 26  1  0
 25 23  2  0
 27 28  2  0
 28 29  1  0
 28 47  1  0
 29 32  1  0
 30 27  1  0
 30 31  1  0
 31 29  2  0
 32 33  1  0
 33 34  2  0
 35 38  1  0
 35 34  1  0
 36 35  2  0
 37 36  1  0
 37 32  2  0
 38 39  1  0
 39 40  1  0
 40 41  2  0
 42 41  1  0
 42 46  1  0
 43 42  2  0
 44 39  2  0
 44 43  1  0
 45 44  1  0
 47 48  1  0
 48 51  1  0
 48 50  1  0
 49 47  2  0
 52 53  1  0
 52 27  1  0
 54 52  1  0
 55  6  1  0
 56 58  1  0
 56 55  1  0
 57 68  2  0
 58 63  1  0
 59 67  1  0
 59 69  1  0
 60 66  1  0
 60 62  1  0
 61 67  1  0
 62 61  1  0
 63 62  2  0
 64 65  1  0
 64 58  2  0
 65 60  2  0
 66 59  1  0
 67 57  1  0
 69 71  2  0
 70 69  1  0
 72 70  1  0
 73 82  2  0
 73 78  1  0
 74 70  1  0
 74 78  1  0
 75 74  1  0
 76 77  1  0
 76 75  1  0
 77 73  1  0
 78 79  2  0
 79 80  1  0
 81 80  2  0
 82 81  1  0
 83 57  1  0
 83 84  1  0
 83 93  1  0
 84 87  1  0
 85 89  1  0
 85 84  1  0
 86 85  2  0
 89 88  1  0
 89 91  1  0
 91 92  1  0
 91 90  1  0
 93 96  1  1
 93 94  1  0
 95 93  1  0
M  ISO  4  15 100  24 100  55 101  56 101
M  END
>  <TORSDO>  (22) 
F 17

>  <SCORE>  (22) 
-12.502

>  <name>  (22) 
21

>  <ligand_id>  (22) 
21

>  <original_smiles>  (22) 
[H]C1=C(C([H])([H])Oc2c([H])c([H])c3c(c2[H])C([H])([H])N(C(=O)C([H])(N([H])C(=O)C([H])(N([H])C([H])([H])[H])C([H])([H])[H])C(C([H])([H])[H])(C([H])([H])[H])C([H])([H])[H])C([H])(C(=O)N([H])C2([H])c4c([H])c([H])c([H])c([H])c4C([H])([H])C([H])([H])C2([H])[H])C3([H])[H])C([H])(C([H])([H])[H])N(c2nnc(C(=O)N([H])C(=O)N3C([H])([H])C([H])([H])C([H])([H])C([H])(n4nc(-c5c([H])c([H])c(Oc6c([H])c([H])c(F)c([H])c6F)c([H])c5[H])c(C(=O)N([H])[H])c4N([H])[H])C3([H])[H])c([H])c2[H])C([H])([H])C1=O

>  <smiles>  (22) 
[H]C1=C(C([H])([H])Oc2c([H])c([H])c3c(c2[H])C([H])([H])N(C(=O)C([H])(N([H])C(=O)C([H])(N([H])C([H])([H])[H])C([H])([H])[H])C(C([H])([H])[H])(C([H])([H])[H])C([H])([H])[H])C([H])(C(=O)N([H])C2([H])c4c([H])c([H])c([H])c([H])c4C([H])([H])C([H])([H])C2([H])[H])C3([H])[H])C([H])(C([H])([H])[H])N(c2nnc(C(=O)N([H])C(=O)N3C([H])([H])C([H])([H])C([H])([H])C([H])(n4nc(-c5c([H])c([H])c(Oc6c([H])c([H])c(F)c([H])c6F)c([H])c5[H])c(C(=O)N([H])[H])c4N([H])[H])C3([H])[H])c([H])c2[H])C([H])([H])C1=O

$$$$
22:0:0
     RDKit          3D

 96104  0  0  1  0  0  0  0  0999 V2000
  -29.8540  -21.2930   19.3570 C   0  0  0  0  0  0  0  0  0  0  0  0
  -29.1120  -23.5660   19.9400 C   0  0  0  0  0  0  0  0  0  0  0  0
  -29.2590  -22.2250   20.1440 N   0  0  0  0  0  0  0  0  0  0  0  0
  -30.4210  -21.5600   18.2920 O   0  0  0  0  0  0  0  0  0  0  0  0
  -29.4050  -24.1450   18.8880 O   0  0  0  0  0  0  0  0  0  0  0  0
  -28.9130  -21.9180   21.0420 H   0  0  0  0  0  0  0  0  0  0  0  0
  -31.0950  -19.1040   19.7500 C   0  0  0  0  0  3  0  0  0  0  0  0
  -31.1450  -17.7150   20.0300 C   0  0  0  0  0  3  0  0  0  0  0  0
  -28.7170  -19.1320   20.1890 C   0  0  0  0  0  3  0  0  0  0  0  0
  -29.8840  -19.8410   19.8180 C   0  0  0  0  0  0  0  0  0  0  0  0
  -29.9690  -16.9990   20.3630 C   0  0  0  0  0  0  0  0  0  0  0  0
  -28.7610  -17.7380   20.4500 C   0  0  0  0  0  0  0  0  0  0  0  0
  -27.6160  -17.0830   20.7550 F   0  0  0  0  0  0  0  0  0  0  0  0
  -30.6360  -14.5530   20.0930 C   0  0  0  0  0  0  0  0  0  0  0  0
  -30.2980  -12.4050   18.9240 C   0  0  0  0  0  2  0  0  0  0  0  0
  -29.2880  -12.6490   17.7810 C   0  0  0  0  0  2  0  0  0  0  0  0
  -27.8380  -12.5040   18.2860 C   0  0  0  0  0  2  0  0  0  0  0  0
  -27.5800  -13.2910   19.6000 C   0  0  0  0  0  3  0  0  0  0  0  0
  -28.6980  -13.0280   20.6340 C   0  0  0  0  0  2  0  0  0  0  0  0
  -29.9850  -13.3570   20.0020 N   0  0  0  0  0  0  0  0  0  0  0  0
  -31.7610  -14.7200   19.6140 O   0  0  0  0  0  0  0  0  0  0  0  0
  -29.9020  -15.5740   20.6050 N   0  0  0  0  0  0  0  0  0  0  0  0
  -29.0260  -15.2770   21.0090 H   0  0  0  0  0  0  0  0  0  0  0  0
  -25.2260  -13.8840   20.4490 C   0  0  0  0  0  0  0  0  0  0  0  0
  -24.1740  -13.1050   20.8520 C   0  0  0  0  0  0  0  0  0  0  0  0
  -24.6300  -11.7540   20.7680 C   0  0  0  0  0  0  0  0  0  0  0  0
  -26.2540  -13.0060   20.1450 N   0  0  0  0  0  0  0  0  0  0  0  0
  -25.9020  -11.7180   20.3940 N   0  0  0  0  0  0  0  0  0  0  0  0
  -23.9090  -10.4900   20.9680 C   0  0  0  0  0  0  0  0  0  0  0  0
  -24.3610   -9.5190   21.8890 C   0  0  0  0  0  3  0  0  0  0  0  0
  -23.6400   -8.3200   22.0770 C   0  0  0  0  0  3  0  0  0  0  0  0
  -22.4530   -8.0840   21.3430 C   0  0  0  0  0  0  0  0  0  0  0  0
  -22.0200   -9.0420   20.4110 C   0  0  0  0  0  3  0  0  0  0  0  0
  -22.7410  -10.2330   20.2230 C   0  0  0  0  0  3  0  0  0  0  0  0
  -21.7010   -6.9380   21.4400 O   0  0  0  0  0  0  0  0  0  0  0  0
  -21.6450   -6.2120   22.6030 C   0  0  0  0  0  0  0  0  0  0  0  0
  -21.1730   -6.7710   23.8100 C   0  0  0  0  0  3  0  0  0  0  0  0
  -21.0660   -5.9690   24.9630 C   0  0  0  0  0  3  0  0  0  0  0  0
  -21.4210   -4.6080   24.9100 C   0  0  0  0  0  0  0  0  0  0  0  0
  -21.8850   -4.0470   23.7070 C   0  0  0  0  0  3  0  0  0  0  0  0
  -21.9940   -4.8470   22.5560 C   0  0  0  0  0  0  0  0  0  0  0  0
  -22.4220   -4.2970   21.3940 F   0  0  0  0  0  0  0  0  0  0  0  0
  -21.3100   -3.8350   26.0160 F   0  0  0  0  0  0  0  0  0  0  0  0
  -22.7970  -13.5800   21.2130 C   0  0  0  0  0  0  0  0  0  0  0  0
  -22.1120  -12.8610   22.0960 N   0  0  0  0  0  0  0  0  0  0  0  0
  -22.3380  -14.6230   20.7480 O   0  0  0  0  0  0  0  0  0  0  0  0
  -22.4950  -12.0170   22.4920 H   0  0  0  0  0  0  0  0  0  0  0  0
  -21.1900  -13.1620   22.3790 H   0  0  0  0  0  0  0  0  0  0  0  0
  -25.3830  -15.2580   20.3010 N   0  0  0  0  0  0  0  0  0  0  0  0
  -24.6350  -15.9080   20.5160 H   0  0  0  0  0  0  0  0  0  0  0  0
  -26.2540  -15.7270   20.0830 H   0  0  0  0  0  0  0  0  0  0  0  0
  -28.2690  -25.5790   21.2120 C   0  0  0  0  0  3  0  0  0  0  0  0
  -28.5650  -24.2480   21.1270 C   0  0  0  0  0  0  0  0  0  0  0  0
  -28.3350  -23.4950   22.2180 O   0  0  0  0  0  0  0  0  0  0  0  0
  -27.9850  -24.0660   22.8890 H   0  0  0  0  0  0  0  0  0  0  0  0
  -28.3800  -26.5800   20.2610 O   0  0  0  0  0  0  0  0  0  0  0  0
  -24.5960  -31.8800   23.2430 C   0  0  0  0  0  0  0  0  0  0  0  0
  -27.2780  -27.4120   20.2030 C   0  0  0  0  0  0  0  0  0  0  0  0
  -23.4150  -30.4730   21.5880 C   0  0  0  0  0  3  0  0  0  0  0  0
  -24.8910  -28.9390   20.1770 C   0  0  0  0  0  0  0  0  0  0  0  0
  -25.9450  -30.8310   21.4230 C   0  0  0  0  0  2  0  0  0  0  0  0
  -26.0440  -29.4580   20.7820 C   0  0  0  0  0  0  0  0  0  0  0  0
  -27.2460  -28.7030   20.7920 C   0  0  0  0  0  3  0  0  0  0  0  0
  -26.1110  -26.9170   19.5890 C   0  0  0  0  0  3  0  0  0  0  0  0
  -24.9210  -27.6680   19.5760 C   0  0  0  0  0  3  0  0  0  0  0  0
  -23.6470  -29.7980   20.2090 C   0  0  0  0  0  2  0  0  0  0  0  0
  -24.6700  -31.0760   22.1420 N   0  0  0  0  0  0  0  0  0  0  0  0
  -23.5070  -32.1500   23.7680 O   0  0  0  0  0  0  0  0  0  0  0  0
  -22.7520  -29.4520   22.5400 C   0  0  0  0  0  0  0  0  0  0  0  0
  -21.4260  -29.2830   22.4090 N   0  0  0  0  0  0  0  0  0  0  0  0
  -23.4270  -28.8160   23.3530 O   0  0  0  0  0  0  0  0  0  0  0  0
  -20.9430  -29.8440   21.7230 H   0  0  0  0  0  0  0  0  0  0  0  0
  -18.0350  -28.1360   22.9200 C   0  0  0  0  0  0  0  0  0  0  0  0
  -20.6000  -28.3470   23.1730 C   0  0  0  0  0  3  0  0  0  0  0  0
  -20.6730  -26.9230   22.5730 C   0  0  0  0  0  2  0  0  0  0  0  0
  -19.5580  -26.6360   21.5640 C   0  0  0  0  0  2  0  0  0  0  0  0
  -18.1830  -26.7950   22.2220 C   0  0  0  0  0  2  0  0  0  0  0  0
  -19.1710  -28.8720   23.3530 C   0  0  0  0  0  0  0  0  0  0  0  0
  -18.9790  -30.1290   23.9650 C   0  0  0  0  0  3  0  0  0  0  0  0
  -17.6840  -30.6510   24.1480 C   0  0  0  0  0  3  0  0  0  0  0  0
  -16.5630  -29.9110   23.7310 C   0  0  0  0  0  3  0  0  0  0  0  0
  -16.7400  -28.6560   23.1230 C   0  0  0  0  0  3  0  0  0  0  0  0
  -25.8720  -32.5130   23.8780 C   0  0  0  0  0  3  0  0  0  0  0  0
  -26.3700  -31.7490   25.1660 C   0  0  1  0  0  0  0  0  0  0  0  0
  -25.2600  -31.5110   26.2160 C   0  0  0  0  0  1  0  0  0  0  0  0
  -26.9640  -30.3720   24.7880 C   0  0  0  0  0  1  0  0  0  0  0  0
  -27.5070  -32.5490   25.8430 C   0  0  0  0  0  1  0  0  0  0  0  0
  -25.5600  -33.9140   24.1930 N   0  0  0  0  0  0  0  0  0  0  0  0
  -25.9060  -34.9590   23.4300 C   0  0  0  0  0  0  0  0  0  0  0  0
  -26.5930  -34.8460   22.4100 O   0  0  0  0  0  0  0  0  0  0  0  0
  -24.9500  -34.0770   24.9810 H   0  0  0  0  0  0  0  0  0  0  0  0
  -24.1910  -36.7540   23.0250 C   0  0  0  0  0  1  0  0  0  0  0  0
  -25.4140  -36.3520   23.8670 C   0  0  0  0  0  3  0  0  0  0  0  0
  -27.5300  -37.2380   24.7420 C   0  0  0  0  0  1  0  0  0  0  0  0
  -26.4510  -37.4020   23.7700 N   0  0  0  0  0  0  0  0  0  0  0  0
  -26.0440  -38.3240   23.9020 H   0  0  0  0  0  0  0  0  0  0  0  0
  1 10  1  0
  1  3  1  0
  2  3  1  0
  2 53  1  0
  3  6  1  0
  4  1  2  0
  5  2  2  0
  7 10  2  0
  7  8  1  0
  8 11  2  0
  9 12  2  0
 10  9  1  0
 11 12  1  0
 11 22  1  0
 12 13  1  0
 14 22  1  0
 15 20  1  0
 16 17  1  0
 16 15  1  0
 18 17  1  0
 18 27  1  0
 18 19  1  0
 20 14  1  0
 20 19  1  0
 21 14  2  0
 22 23  1  0
 24 25  2  0
 25 44  1  0
 26 25  1  0
 26 29  1  0
 27 28  1  0
 27 24  1  0
 28 26  2  0
 29 30  1  0
 30 31  2  0
 32 35  1  0
 32 31  1  0
 33 32  2  0
 34 33  1  0
 34 29  2  0
 35 36  1  0
 36 37  1  0
 37 38  2  0
 39 38  1  0
 39 43  1  0
 40 39  2  0
 41 36  2  0
 41 40  1  0
 42 41  1  0
 44 45  1  0
 45 48  1  0
 45 47  1  0
 46 44  2  0
 49 24  1  0
 49 50  1  0
 51 49  1  0
 53 52  2  0
 53 54  1  0
 54 55  1  0
 56 52  1  0
 57 68  2  0
 58 56  1  0
 58 63  1  0
 59 67  1  0
 59 69  1  0
 60 66  1  0
 60 62  1  0
 61 67  1  0
 62 63  2  0
 62 61  1  0
 64 58  2  0
 65 64  1  0
 65 60  2  0
 66 59  1  0
 67 57  1  0
 69 71  2  0
 70 69  1  0
 72 70  1  0
 73 82  2  0
 73 78  1  0
 74 70  1  0
 74 78  1  0
 75 74  1  0
 76 77  1  0
 76 75  1  0
 77 73  1  0
 78 79  2  0
 79 80  1  0
 81 80  2  0
 82 81  1  0
 83 57  1  0
 83 88  1  0
 83 84  1  0
 84 87  1  1
 84 85  1  0
 86 84  1  0
 88 91  1  0
 89 93  1  0
 89 88  1  0
 90 89  2  0
 93 92  1  0
 95 93  1  0
 95 96  1  0
 95 94  1  0
M  ISO  4  14 100  22 100  52 101  56 101
M  END
>  <TORSDO>  (23) 
F 19

>  <SCORE>  (23) 
-14.799

>  <name>  (23) 
22

>  <ligand_id>  (23) 
22

>  <original_smiles>  (23) 
[H]OC(C(=O)N([H])C(=O)c1c([H])c([H])c(N([H])C(=O)N2C([H])([H])C([H])([H])C([H])([H])C([H])(n3nc(-c4c([H])c([H])c(Oc5c([H])c([H])c(F)c([H])c5F)c([H])c4[H])c(C(=O)N([H])[H])c3N([H])[H])C2([H])[H])c(F)c1[H])=C([H])Oc1c([H])c([H])c2c(c1[H])C([H])([H])N(C(=O)C([H])(N([H])C(=O)C([H])(N([H])C([H])([H])[H])C([H])([H])[H])C(C([H])([H])[H])(C([H])([H])[H])C([H])([H])[H])C([H])(C(=O)N([H])C1([H])c3c([H])c([H])c([H])c([H])c3C([H])([H])C([H])([H])C1([H])[H])C2([H])[H]

>  <smiles>  (23) 
[H]OC(C(=O)N([H])C(=O)c1c([H])c([H])c(N([H])C(=O)N2C([H])([H])C([H])([H])C([H])([H])C([H])(n3nc(-c4c([H])c([H])c(Oc5c([H])c([H])c(F)c([H])c5F)c([H])c4[H])c(C(=O)N([H])[H])c3N([H])[H])C2([H])[H])c(F)c1[H])=C([H])Oc1c([H])c([H])c2c(c1[H])C([H])([H])N(C(=O)C([H])(N([H])C(=O)C([H])(N([H])C([H])([H])[H])C([H])([H])[H])C(C([H])([H])[H])(C([H])([H])[H])C([H])([H])[H])C([H])(C(=O)N([H])C1([H])c3c([H])c([H])c([H])c([H])c3C([H])([H])C([H])([H])C1([H])[H])C2([H])[H]

$$$$
23:0:0
     RDKit          3D

 95104  0  0  1  0  0  0  0  0999 V2000
  -28.7040  -24.1040   20.2680 C   0  0  0  0  0  0  0  0  0  0  0  0
  -28.2590  -25.2650   19.6890 C   0  0  0  0  0  3  0  0  0  0  0  0
  -29.3100  -23.9640   21.6390 C   0  0  0  0  0  2  0  0  0  0  0  0
  -29.3050  -22.4480   21.9210 C   0  0  0  0  0  2  0  0  0  0  0  0
  -28.6670  -22.6730   19.6730 C   0  0  0  0  0  3  0  0  0  0  0  0
  -29.2790  -22.5890   18.2680 C   0  0  0  0  0  1  0  0  0  0  0  0
  -29.3080  -21.7410   20.6370 N   0  0  0  0  0  0  0  0  0  0  0  0
  -28.9510  -19.4010   20.2040 C   0  0  0  0  0  3  0  0  0  0  0  0
  -29.0520  -18.0390   20.1710 C   0  0  0  0  0  3  0  0  0  0  0  0
  -31.8010  -19.0370   20.9290 C   0  0  0  0  0  3  0  0  0  0  0  0
  -31.1540  -20.2020   20.6540 C   0  0  0  0  0  0  0  0  0  0  0  0
  -29.8190  -20.4160   20.4670 C   0  0  0  0  0  0  0  0  0  0  0  0
  -30.0190  -17.1300   20.4840 C   0  0  0  0  0  0  0  0  0  0  0  0
  -31.3000  -17.6430   21.0470 C   0  0  0  0  0  0  0  0  0  0  0  0
  -32.0950  -21.4050   20.5360 C   0  0  0  0  0  1  0  0  0  0  0  0
  -32.0070  -16.8790   21.7110 O   0  0  0  0  0  0  0  0  0  0  0  0
  -30.5190  -14.6630   20.0560 C   0  0  0  0  0  0  0  0  0  0  0  0
  -30.2300  -12.4720   18.9200 C   0  0  0  0  0  2  0  0  0  0  0  0
  -29.2120  -12.6430   17.7720 C   0  0  0  0  0  2  0  0  0  0  0  0
  -27.7700  -12.4610   18.2880 C   0  0  0  0  0  2  0  0  0  0  0  0
  -27.4880  -13.2780   19.5770 C   0  0  0  0  0  3  0  0  0  0  0  0
  -28.6160  -13.0930   20.6180 C   0  0  0  0  0  2  0  0  0  0  0  0
  -29.8850  -13.4520   19.9680 N   0  0  0  0  0  0  0  0  0  0  0  0
  -31.6550  -14.8170   19.5970 O   0  0  0  0  0  0  0  0  0  0  0  0
  -29.7360  -15.7170   20.4480 N   0  0  0  0  0  0  0  0  0  0  0  0
  -28.7690  -15.4730   20.5860 H   0  0  0  0  0  0  0  0  0  0  0  0
  -25.1370  -13.8380   20.4510 C   0  0  0  0  0  0  0  0  0  0  0  0
  -24.1010  -13.0450   20.8660 C   0  0  0  0  0  0  0  0  0  0  0  0
  -24.5720  -11.7000   20.7750 C   0  0  0  0  0  0  0  0  0  0  0  0
  -26.1730  -12.9730   20.1350 N   0  0  0  0  0  0  0  0  0  0  0  0
  -25.8420  -11.6820   20.3890 N   0  0  0  0  0  0  0  0  0  0  0  0
  -23.8690  -10.4260   20.9770 C   0  0  0  0  0  0  0  0  0  0  0  0
  -24.3350   -9.4640   21.9000 C   0  0  0  0  0  3  0  0  0  0  0  0
  -23.6310   -8.2550   22.0900 C   0  0  0  0  0  3  0  0  0  0  0  0
  -22.4480   -8.0000   21.3570 C   0  0  0  0  0  0  0  0  0  0  0  0
  -22.0020   -8.9510   20.4220 C   0  0  0  0  0  3  0  0  0  0  0  0
  -22.7070  -10.1510   20.2310 C   0  0  0  0  0  3  0  0  0  0  0  0
  -21.7140   -6.8430   21.4560 O   0  0  0  0  0  0  0  0  0  0  0  0
  -21.6730   -6.1150   22.6180 C   0  0  0  0  0  0  0  0  0  0  0  0
  -21.2070   -6.6690   23.8290 C   0  0  0  0  0  3  0  0  0  0  0  0
  -21.1170   -5.8650   24.9830 C   0  0  0  0  0  3  0  0  0  0  0  0
  -21.4810   -4.5070   24.9260 C   0  0  0  0  0  0  0  0  0  0  0  0
  -21.9410   -3.9520   23.7190 C   0  0  0  0  0  3  0  0  0  0  0  0
  -22.0330   -4.7520   22.5670 C   0  0  0  0  0  0  0  0  0  0  0  0
  -22.4560   -4.2070   21.4010 F   0  0  0  0  0  0  0  0  0  0  0  0
  -21.3880   -3.7320   26.0320 F   0  0  0  0  0  0  0  0  0  0  0  0
  -22.7190  -13.5020   21.2310 C   0  0  0  0  0  0  0  0  0  0  0  0
  -22.0470  -12.7760   22.1190 N   0  0  0  0  0  0  0  0  0  0  0  0
  -22.2430  -14.5370   20.7640 O   0  0  0  0  0  0  0  0  0  0  0  0
  -22.4460  -11.9390   22.5180 H   0  0  0  0  0  0  0  0  0  0  0  0
  -21.1220  -13.0630   22.4050 H   0  0  0  0  0  0  0  0  0  0  0  0
  -25.2760  -15.2140   20.2940 N   0  0  0  0  0  0  0  0  0  0  0  0
  -24.5030  -15.8500   20.4550 H   0  0  0  0  0  0  0  0  0  0  0  0
  -26.0770  -15.6670   19.8750 H   0  0  0  0  0  0  0  0  0  0  0  0
  -28.2950  -26.5630   20.2280 O   0  0  0  0  0  0  0  0  0  0  0  0
  -24.6200  -31.9170   23.3350 C   0  0  0  0  0  0  0  0  0  0  0  0
  -27.1660  -27.3920   20.1880 C   0  0  0  0  0  0  0  0  0  0  0  0
  -23.3870  -30.5530   21.6880 C   0  0  0  0  0  3  0  0  0  0  0  0
  -24.8070  -29.0100   20.2290 C   0  0  0  0  0  0  0  0  0  0  0  0
  -25.9250  -30.8530   21.4850 C   0  0  0  0  0  2  0  0  0  0  0  0
  -25.9850  -29.4840   20.8200 C   0  0  0  0  0  0  0  0  0  0  0  0
  -27.1640  -28.6850   20.7940 C   0  0  0  0  0  3  0  0  0  0  0  0
  -25.9560  -26.9610   19.5900 C   0  0  0  0  0  3  0  0  0  0  0  0
  -24.7930  -27.7510   19.6090 C   0  0  0  0  0  3  0  0  0  0  0  0
  -23.5790  -29.8940   20.2970 C   0  0  0  0  0  2  0  0  0  0  0  0
  -24.6640  -31.1230   22.2260 N   0  0  0  0  0  0  0  0  0  0  0  0
  -23.5440  -32.1990   23.8830 O   0  0  0  0  0  0  0  0  0  0  0  0
  -22.7220  -29.5300   22.6400 C   0  0  0  0  0  0  0  0  0  0  0  0
  -21.3980  -29.3500   22.5030 N   0  0  0  0  0  0  0  0  0  0  0  0
  -23.3980  -28.9030   23.4600 O   0  0  0  0  0  0  0  0  0  0  0  0
  -20.9130  -29.9080   21.8140 H   0  0  0  0  0  0  0  0  0  0  0  0
  -18.0220  -28.1350   22.9600 C   0  0  0  0  0  0  0  0  0  0  0  0
  -20.5750  -28.4100   23.2640 C   0  0  0  0  0  3  0  0  0  0  0  0
  -20.6930  -26.9770   22.6940 C   0  0  0  0  0  2  0  0  0  0  0  0
  -19.6070  -26.6450   21.6650 C   0  0  0  0  0  2  0  0  0  0  0  0
  -18.2160  -26.7850   22.2900 C   0  0  0  0  0  2  0  0  0  0  0  0
  -19.1310  -28.9040   23.4030 C   0  0  0  0  0  0  0  0  0  0  0  0
  -18.8970  -30.1680   23.9880 C   0  0  0  0  0  3  0  0  0  0  0  0
  -17.5870  -30.6620   24.1350 C   0  0  0  0  0  3  0  0  0  0  0  0
  -16.4930  -29.8900   23.7090 C   0  0  0  0  0  3  0  0  0  0  0  0
  -16.7110  -28.6280   23.1270 C   0  0  0  0  0  3  0  0  0  0  0  0
  -25.9160  -32.5250   23.9540 C   0  0  0  0  0  3  0  0  0  0  0  0
  -25.6350  -33.9320   24.2770 N   0  0  0  0  0  0  0  0  0  0  0  0
  -25.9590  -34.9720   23.4960 C   0  0  0  0  0  0  0  0  0  0  0  0
  -26.5970  -34.8470   22.4470 O   0  0  0  0  0  0  0  0  0  0  0  0
  -25.0660  -34.1030   25.0930 H   0  0  0  0  0  0  0  0  0  0  0  0
  -24.2290  -36.7720   23.1930 C   0  0  0  0  0  1  0  0  0  0  0  0
  -25.5040  -36.3720   23.9510 C   0  0  0  0  0  3  0  0  0  0  0  0
  -27.6780  -37.2570   24.6690 C   0  0  0  0  0  1  0  0  0  0  0  0
  -26.5370  -37.4140   23.7710 N   0  0  0  0  0  0  0  0  0  0  0  0
  -26.1440  -38.3400   23.9160 H   0  0  0  0  0  0  0  0  0  0  0  0
  -26.4150  -31.7510   25.2350 C   0  0  1  0  0  0  0  0  0  0  0  0
  -25.3160  -31.5390   26.3020 C   0  0  0  0  0  1  0  0  0  0  0  0
  -26.9740  -30.3610   24.8510 C   0  0  0  0  0  1  0  0  0  0  0  0
  -27.5790  -32.5270   25.8970 C   0  0  0  0  0  1  0  0  0  0  0  0
  1  3  1  0
  2 55  1  0
  2  1  2  0
  3  4  1  0
  5  6  1  0
  5  1  1  0
  5  7  1  0
  7  4  1  0
  8 12  2  0
  9  8  1  0
  9 13  2  0
 10 14  1  0
 11 10  2  0
 12  7  1  0
 12 11  1  0
 13 14  1  0
 14 16  2  0
 15 11  1  0
 17 25  1  0
 18 23  1  0
 19 20  1  0
 19 18  1  0
 21 20  1  0
 21 30  1  0
 21 22  1  0
 23 17  1  0
 23 22  1  0
 24 17  2  0
 25 13  1  0
 25 26  1  0
 27 28  2  0
 28 47  1  0
 29 28  1  0
 29 32  1  0
 30 31  1  0
 30 27  1  0
 31 29  2  0
 32 33  1  0
 33 34  2  0
 35 38  1  0
 35 34  1  0
 36 35  2  0
 37 36  1  0
 37 32  2  0
 38 39  1  0
 39 40  1  0
 40 41  2  0
 42 41  1  0
 42 46  1  0
 43 42  2  0
 44 39  2  0
 44 43  1  0
 45 44  1  0
 47 48  1  0
 48 51  1  0
 48 50  1  0
 49 47  2  0
 52 27  1  0
 52 53  1  0
 54 52  1  0
 56 67  2  0
 57 55  1  0
 57 62  1  0
 58 66  1  0
 58 68  1  0
 59 65  1  0
 59 61  1  0
 60 66  1  0
 61 60  1  0
 62 61  2  0
 63 64  1  0
 63 57  2  0
 64 59  2  0
 65 58  1  0
 66 56  1  0
 68 70  2  0
 69 68  1  0
 71 69  1  0
 72 81  2  0
 72 77  1  0
 73 69  1  0
 73 77  1  0
 74 73  1  0
 75 76  1  0
 75 74  1  0
 76 72  1  0
 77 78  2  0
 78 79  1  0
 80 79  2  0
 81 80  1  0
 82 56  1  0
 82 83  1  0
 82 92  1  0
 83 86  1  0
 84 88  1  0
 84 83  1  0
 85 84  2  0
 88 87  1  0
 90 91  1  0
 90 88  1  0
 90 89  1  0
 92 95  1  1
 92 93  1  0
 94 92  1  0
M  ISO  4   2 101  17 100  25 100  55 101
M  END
>  <TORSDO>  (24) 
F 17

>  <SCORE>  (24) 
-15.214

>  <name>  (24) 
23

>  <ligand_id>  (24) 
23

>  <original_smiles>  (24) 
[H]C(Oc1c([H])c([H])c2c(c1[H])C([H])([H])N(C(=O)C([H])(N([H])C(=O)C([H])(N([H])C([H])([H])[H])C([H])([H])[H])C(C([H])([H])[H])(C([H])([H])[H])C([H])([H])[H])C([H])(C(=O)N([H])C1([H])c3c([H])c([H])c([H])c([H])c3C([H])([H])C([H])([H])C1([H])[H])C2([H])[H])=C1C([H])([H])C([H])([H])N(c2c([H])c([H])c(N([H])C(=O)N3C([H])([H])C([H])([H])C([H])([H])C([H])(n4nc(-c5c([H])c([H])c(Oc6c([H])c([H])c(F)c([H])c6F)c([H])c5[H])c(C(=O)N([H])[H])c4N([H])[H])C3([H])[H])c(=O)c([H])c2C([H])([H])[H])C1([H])C([H])([H])[H]

>  <smiles>  (24) 
[H]C(Oc1c([H])c([H])c2c(c1[H])C([H])([H])N(C(=O)C([H])(N([H])C(=O)C([H])(N([H])C([H])([H])[H])C([H])([H])[H])C(C([H])([H])[H])(C([H])([H])[H])C([H])([H])[H])C([H])(C(=O)N([H])C1([H])c3c([H])c([H])c([H])c([H])c3C([H])([H])C([H])([H])C1([H])[H])C2([H])[H])=C1C([H])([H])C([H])([H])N(c2c([H])c([H])c(N([H])C(=O)N3C([H])([H])C([H])([H])C([H])([H])C([H])(n4nc(-c5c([H])c([H])c(Oc6c([H])c([H])c(F)c([H])c6F)c([H])c5[H])c(C(=O)N([H])[H])c4N([H])[H])C3([H])[H])c(=O)c([H])c2C([H])([H])[H])C1([H])C([H])([H])[H]

$$$$
24:0:0
     RDKit          3D

 99108  0  0  1  0  0  0  0  0999 V2000
  -29.9210  -23.8010   20.1730 C   0  0  0  0  0  3  0  0  0  0  0  0
  -28.7640  -24.3110   20.6500 C   0  0  0  0  0  0  0  0  0  0  0  0
  -27.7320  -23.3600   21.0680 C   0  0  0  0  0  3  0  0  0  0  0  0
  -28.0390  -21.9940   21.0500 C   0  0  0  0  0  0  0  0  0  0  0  0
  -30.2090  -22.3640   20.0480 C   0  0  0  0  0  0  0  0  0  0  0  0
  -26.3740  -23.8440   21.5640 C   0  0  0  0  0  1  0  0  0  0  0  0
  -29.2870  -21.4860   20.5490 N   0  0  0  0  0  0  0  0  0  0  0  0
  -27.3390  -21.0300   21.4410 O   0  0  0  0  0  0  0  0  0  0  0  0
  -31.2480  -21.9680   19.5120 O   0  0  0  0  0  0  0  0  0  0  0  0
  -28.8210  -19.1720   19.6590 C   0  0  0  0  0  3  0  0  0  0  0  0
  -30.8280  -18.0290   21.2580 C   0  0  0  0  0  3  0  0  0  0  0  0
  -29.5820  -20.0390   20.4850 C   0  0  0  0  0  0  0  0  0  0  0  0
  -29.0330  -17.7700   19.6540 C   0  0  0  0  0  0  0  0  0  0  0  0
  -30.0300  -17.1670   20.4630 C   0  0  0  0  0  0  0  0  0  0  0  0
  -30.6040  -19.4380   21.2710 C   0  0  0  0  0  0  0  0  0  0  0  0
  -31.3560  -20.2110   22.0920 F   0  0  0  0  0  0  0  0  0  0  0  0
  -30.8190  -14.7510   20.0950 C   0  0  0  0  0  0  0  0  0  0  0  0
  -30.5650  -12.5620   18.9480 C   0  0  0  0  0  2  0  0  0  0  0  0
  -29.5440  -12.7360   17.8000 C   0  0  0  0  0  2  0  0  0  0  0  0
  -28.0980  -12.5630   18.3090 C   0  0  0  0  0  2  0  0  0  0  0  0
  -27.8170  -13.3780   19.5980 C   0  0  0  0  0  3  0  0  0  0  0  0
  -28.9360  -13.1630   20.6420 C   0  0  0  0  0  2  0  0  0  0  0  0
  -30.2150  -13.5280   20.0050 N   0  0  0  0  0  0  0  0  0  0  0  0
  -31.9420  -14.9700   19.6260 O   0  0  0  0  0  0  0  0  0  0  0  0
  -30.0190  -15.7270   20.6000 N   0  0  0  0  0  0  0  0  0  0  0  0
  -29.1050  -15.3710   20.8310 H   0  0  0  0  0  0  0  0  0  0  0  0
  -25.4720  -13.9820   20.4640 C   0  0  0  0  0  0  0  0  0  0  0  0
  -24.4200  -13.2060   20.8690 C   0  0  0  0  0  0  0  0  0  0  0  0
  -24.8670  -11.8530   20.7670 C   0  0  0  0  0  0  0  0  0  0  0  0
  -26.4940  -13.1010   20.1440 N   0  0  0  0  0  0  0  0  0  0  0  0
  -26.1370  -11.8130   20.3820 N   0  0  0  0  0  0  0  0  0  0  0  0
  -24.1450  -10.5890   20.9590 C   0  0  0  0  0  0  0  0  0  0  0  0
  -24.5820   -9.6240   21.8930 C   0  0  0  0  0  3  0  0  0  0  0  0
  -23.8610   -8.4230   22.0700 C   0  0  0  0  0  3  0  0  0  0  0  0
  -22.6910   -8.1810   21.3130 C   0  0  0  0  0  0  0  0  0  0  0  0
  -22.2760   -9.1340   20.3670 C   0  0  0  0  0  3  0  0  0  0  0  0
  -22.9970  -10.3250   20.1880 C   0  0  0  0  0  3  0  0  0  0  0  0
  -21.9400   -7.0330   21.4010 O   0  0  0  0  0  0  0  0  0  0  0  0
  -21.8390   -6.3260   22.5720 C   0  0  0  0  0  0  0  0  0  0  0  0
  -21.3090   -6.9030   23.7480 C   0  0  0  0  0  3  0  0  0  0  0  0
  -21.1590   -6.1210   24.9100 C   0  0  0  0  0  3  0  0  0  0  0  0
  -21.5280   -4.7630   24.8980 C   0  0  0  0  0  0  0  0  0  0  0  0
  -22.0510   -4.1850   23.7270 C   0  0  0  0  0  3  0  0  0  0  0  0
  -22.2040   -4.9640   22.5670 C   0  0  0  0  0  0  0  0  0  0  0  0
  -22.6880   -4.3990   21.4360 F   0  0  0  0  0  0  0  0  0  0  0  0
  -21.3770   -4.0070   26.0110 F   0  0  0  0  0  0  0  0  0  0  0  0
  -23.0450  -13.6810   21.2390 C   0  0  0  0  0  0  0  0  0  0  0  0
  -22.3580  -12.9570   22.1160 N   0  0  0  0  0  0  0  0  0  0  0  0
  -22.5870  -14.7310   20.7870 O   0  0  0  0  0  0  0  0  0  0  0  0
  -22.7380  -12.1070   22.5070 H   0  0  0  0  0  0  0  0  0  0  0  0
  -21.4390  -13.2600   22.4070 H   0  0  0  0  0  0  0  0  0  0  0  0
  -25.6330  -15.3570   20.3240 N   0  0  0  0  0  0  0  0  0  0  0  0
  -24.8730  -16.0030   20.5010 H   0  0  0  0  0  0  0  0  0  0  0  0
  -26.4720  -15.8300   19.9840 H   0  0  0  0  0  0  0  0  0  0  0  0
  -28.2330  -16.9630   18.8470 N   0  0  0  0  0  0  0  0  0  0  0  0
  -27.7150  -17.4510   18.1240 H   0  0  0  0  0  0  0  0  0  0  0  0
  -28.7120  -16.1610   18.4600 H   0  0  0  0  0  0  0  0  0  0  0  0
  -28.6510  -25.8380   20.9560 C   0  0  0  0  0  2  0  0  0  0  0  0
  -28.3890  -26.7200   19.8380 O   0  0  0  0  0  0  0  0  0  0  0  0
  -24.5660  -31.8710   23.0960 C   0  0  0  0  0  0  0  0  0  0  0  0
  -27.2440  -27.4960   19.9130 C   0  0  0  0  0  0  0  0  0  0  0  0
  -23.3700  -30.4910   21.4280 C   0  0  0  0  0  3  0  0  0  0  0  0
  -24.8400  -29.0010   19.9600 C   0  0  0  0  0  0  0  0  0  0  0  0
  -25.8940  -30.8790   21.2290 C   0  0  0  0  0  2  0  0  0  0  0  0
  -25.9960  -29.5180   20.5600 C   0  0  0  0  0  0  0  0  0  0  0  0
  -27.2040  -28.7720   20.5370 C   0  0  0  0  0  3  0  0  0  0  0  0
  -26.0750  -27.0090   19.2990 C   0  0  0  0  0  3  0  0  0  0  0  0
  -24.8760  -27.7480   19.3240 C   0  0  0  0  0  3  0  0  0  0  0  0
  -23.5830  -29.8430   20.0330 C   0  0  0  0  0  2  0  0  0  0  0  0
  -24.6280  -31.0960   21.9760 N   0  0  0  0  0  0  0  0  0  0  0  0
  -23.4840  -32.1160   23.6490 O   0  0  0  0  0  0  0  0  0  0  0  0
  -22.7350  -29.4410   22.3710 C   0  0  0  0  0  0  0  0  0  0  0  0
  -21.4070  -29.2640   22.2660 N   0  0  0  0  0  0  0  0  0  0  0  0
  -23.4350  -28.7890   23.1510 O   0  0  0  0  0  0  0  0  0  0  0  0
  -20.9030  -29.8400   21.6060 H   0  0  0  0  0  0  0  0  0  0  0  0
  -18.0370  -28.0860   22.8360 C   0  0  0  0  0  0  0  0  0  0  0  0
  -20.6060  -28.3010   23.0220 C   0  0  0  0  0  3  0  0  0  0  0  0
  -20.6670  -26.8980   22.3760 C   0  0  0  0  0  2  0  0  0  0  0  0
  -19.5260  -26.6370   21.3890 C   0  0  0  0  0  2  0  0  0  0  0  0
  -18.1700  -26.7690   22.0900 C   0  0  0  0  0  2  0  0  0  0  0  0
  -19.1820  -28.8140   23.2590 C   0  0  0  0  0  0  0  0  0  0  0  0
  -19.0030  -30.0500   23.9150 C   0  0  0  0  0  3  0  0  0  0  0  0
  -17.7130  -30.5610   24.1510 C   0  0  0  0  0  3  0  0  0  0  0  0
  -16.5830  -29.8290   23.7470 C   0  0  0  0  0  3  0  0  0  0  0  0
  -16.7470  -28.5930   23.0950 C   0  0  0  0  0  3  0  0  0  0  0  0
  -25.8470  -32.5060   23.7230 C   0  0  0  0  0  3  0  0  0  0  0  0
  -26.3850  -31.7120   24.9770 C   0  0  1  0  0  0  0  0  0  0  0  0
  -25.3020  -31.4310   26.0450 C   0  0  0  0  0  1  0  0  0  0  0  0
  -26.9850  -30.3540   24.5450 C   0  0  0  0  0  1  0  0  0  0  0  0
  -27.5280  -32.5070   25.6500 C   0  0  0  0  0  1  0  0  0  0  0  0
  -25.5210  -33.8930   24.0870 N   0  0  0  0  0  0  0  0  0  0  0  0
  -25.8430  -34.9680   23.3550 C   0  0  0  0  0  0  0  0  0  0  0  0
  -26.5150  -34.8980   22.3240 O   0  0  0  0  0  0  0  0  0  0  0  0
  -24.9200  -34.0180   24.8890 H   0  0  0  0  0  0  0  0  0  0  0  0
  -24.0980  -36.7520   23.0420 C   0  0  0  0  0  1  0  0  0  0  0  0
  -25.3390  -36.3380   23.8480 C   0  0  0  0  0  3  0  0  0  0  0  0
  -27.4580  -37.2240   24.7180 C   0  0  0  0  0  1  0  0  0  0  0  0
  -26.3620  -37.4040   23.7690 N   0  0  0  0  0  0  0  0  0  0  0  0
  -25.9450  -38.3170   23.9350 H   0  0  0  0  0  0  0  0  0  0  0  0
  1  2  2  0
  2 58  1  0
  2  3  1  0
  3  6  1  0
  4  3  1  0
  4  8  2  0
  5  1  1  0
  5  7  1  0
  7  4  1  0
  9  5  2  0
 10 12  1  0
 11 15  1  0
 12  7  1  0
 12 15  2  0
 13 10  2  0
 13 14  1  0
 14 25  1  0
 14 11  2  0
 15 16  1  0
 17 25  1  0
 18 23  1  0
 19 20  1  0
 19 18  1  0
 21 20  1  0
 21 30  1  0
 21 22  1  0
 23 17  1  0
 23 22  1  0
 24 17  2  0
 25 26  1  0
 27 28  2  0
 28 47  1  0
 29 28  1  0
 29 32  1  0
 30 31  1  0
 30 27  1  0
 31 29  2  0
 32 33  1  0
 33 34  2  0
 35 38  1  0
 35 34  1  0
 36 35  2  0
 37 36  1  0
 37 32  2  0
 38 39  1  0
 39 40  1  0
 40 41  2  0
 42 41  1  0
 42 46  1  0
 43 42  2  0
 44 39  2  0
 44 43  1  0
 45 44  1  0
 47 48  1  0
 48 51  1  0
 48 50  1  0
 49 47  2  0
 52 27  1  0
 52 53  1  0
 54 52  1  0
 55 13  1  0
 56 55  1  0
 57 55  1  0
 59 61  1  0
 59 58  1  0
 60 71  2  0
 61 66  1  0
 62 70  1  0
 62 72  1  0
 63 69  1  0
 63 65  1  0
 64 70  1  0
 65 64  1  0
 66 65  2  0
 67 68  1  0
 67 61  2  0
 68 63  2  0
 69 62  1  0
 70 60  1  0
 72 74  2  0
 73 72  1  0
 75 73  1  0
 76 85  2  0
 76 81  1  0
 77 73  1  0
 77 81  1  0
 78 77  1  0
 79 80  1  0
 79 78  1  0
 80 76  1  0
 81 82  2  0
 82 83  1  0
 84 83  2  0
 85 84  1  0
 86 60  1  0
 86 91  1  0
 86 87  1  0
 87 90  1  1
 87 88  1  0
 89 87  1  0
 91 94  1  0
 92 96  1  0
 92 91  1  0
 93 92  2  0
 96 95  1  0
 98 96  1  0
 98 99  1  0
 98 97  1  0
M  ISO  4  17 100  25 100  58 101  59 101
M  END
>  <TORSDO>  (25) 
F 19

>  <SCORE>  (25) 
-14.328

>  <name>  (25) 
24

>  <ligand_id>  (25) 
24

>  <original_smiles>  (25) 
[H]c1c([H])c([H])c2c(c1[H])C([H])([H])C([H])([H])C([H])([H])C2([H])N([H])C(=O)C1([H])N(C(=O)C([H])(N([H])C(=O)C([H])(N([H])C([H])([H])[H])C([H])([H])[H])C(C([H])([H])[H])(C([H])([H])[H])C([H])([H])[H])C([H])([H])c2c([H])c(OC([H])([H])c3c(C([H])([H])[H])c([O-])n(-c4c([H])c(N([H])[H])c(N([H])C(=O)N5C([H])([H])C([H])([H])C([H])([H])C([H])(n6nc(-c7c([H])c([H])c(Oc8c([H])c([H])c(F)c([H])c8F)c([H])c7[H])c(C(=O)N([H])[H])c6N([H])[H])C5([H])[H])c([H])c4F)c(=O)c3[H])c([H])c([H])c2C1([H])[H]

>  <smiles>  (25) 
[H]c1c([H])c([H])c2c(c1[H])C([H])([H])C([H])([H])C([H])([H])C2([H])N([H])C(=O)C1([H])N(C(=O)C([H])(N([H])C(=O)C([H])(N([H])C([H])([H])[H])C([H])([H])[H])C(C([H])([H])[H])(C([H])([H])[H])C([H])([H])[H])C([H])([H])c2c([H])c(OC([H])([H])c3c(C([H])([H])[H])c([O-])n(-c4c([H])c(N([H])[H])c(N([H])C(=O)N5C([H])([H])C([H])([H])C([H])([H])C([H])(n6nc(-c7c([H])c([H])c(Oc8c([H])c([H])c(F)c([H])c8F)c([H])c7[H])c(C(=O)N([H])[H])c6N([H])[H])C5([H])[H])c([H])c4F)c(=O)c3[H])c([H])c([H])c2C1([H])[H]

$$$$
25:0:0
     RDKit          3D

 97106  0  0  1  0  0  0  0  0999 V2000
  -27.8190  -21.4280   20.2000 C   0  0  0  0  0  3  0  0  0  0  0  0
  -28.4790  -23.6300   19.9670 C   0  0  0  0  0  0  0  0  0  0  0  0
  -27.3720  -22.7210   20.0210 C   0  0  0  0  0  0  0  0  0  0  0  0
  -29.5760  -22.7880   20.2280 C   0  0  0  0  0  0  0  0  0  0  0  0
  -30.9860  -23.3070   20.3500 C   0  0  0  0  0  1  0  0  0  0  0  0
  -29.2040  -21.3790   20.3110 N   0  0  0  0  0  0  0  0  0  0  0  0
  -31.3910  -20.1850   20.7030 C   0  0  0  0  0  3  0  0  0  0  0  0
  -29.4980  -18.7100   20.4040 C   0  0  0  0  0  3  0  0  0  0  0  0
  -31.6980  -17.7570   20.8190 C   0  0  0  0  0  3  0  0  0  0  0  0
  -29.9970  -20.0970   20.4670 C   0  0  0  0  0  0  0  0  0  0  0  0
  -32.2160  -19.0610   20.8820 C   0  0  0  0  0  0  0  0  0  0  0  0
  -30.3330  -17.5010   20.5560 C   0  0  0  0  0  0  0  0  0  0  0  0
  -30.6060  -14.8750   20.2490 C   0  0  0  0  0  0  0  0  0  0  0  0
  -30.3670  -12.5880   19.2400 C   0  0  0  0  0  2  0  0  0  0  0  0
  -29.4090  -12.6340   18.0300 C   0  0  0  0  0  2  0  0  0  0  0  0
  -27.9550  -12.4430   18.5000 C   0  0  0  0  0  2  0  0  0  0  0  0
  -27.5970  -13.3420   19.7140 C   0  0  0  0  0  3  0  0  0  0  0  0
  -28.6790  -13.2950   20.8160 C   0  0  0  0  0  2  0  0  0  0  0  0
  -29.9530  -13.6570   20.1870 N   0  0  0  0  0  0  0  0  0  0  0  0
  -31.7820  -14.9160   19.8730 O   0  0  0  0  0  0  0  0  0  0  0  0
  -29.8900  -16.0580   20.5130 N   0  0  0  0  0  0  0  0  0  0  0  0
  -28.9140  -15.9050   20.7120 H   0  0  0  0  0  0  0  0  0  0  0  0
  -25.2250  -13.9170   20.4960 C   0  0  0  0  0  0  0  0  0  0  0  0
  -24.1690  -13.1340   20.8820 C   0  0  0  0  0  0  0  0  0  0  0  0
  -24.6390  -11.7850   20.8320 C   0  0  0  0  0  0  0  0  0  0  0  0
  -26.2660  -13.0430   20.2320 N   0  0  0  0  0  0  0  0  0  0  0  0
  -25.9230  -11.7570   20.5000 N   0  0  0  0  0  0  0  0  0  0  0  0
  -23.9200  -10.5180   21.0220 C   0  0  0  0  0  0  0  0  0  0  0  0
  -24.3600   -9.5450   21.9470 C   0  0  0  0  0  3  0  0  0  0  0  0
  -23.6350   -8.3490   22.1250 C   0  0  0  0  0  3  0  0  0  0  0  0
  -22.4570   -8.1140   21.3770 C   0  0  0  0  0  0  0  0  0  0  0  0
  -22.0360   -9.0740   20.4390 C   0  0  0  0  0  3  0  0  0  0  0  0
  -22.7630  -10.2630   20.2580 C   0  0  0  0  0  3  0  0  0  0  0  0
  -21.7040   -6.9660   21.4660 O   0  0  0  0  0  0  0  0  0  0  0  0
  -21.6480   -6.2290   22.6210 C   0  0  0  0  0  0  0  0  0  0  0  0
  -21.1890   -6.7830   23.8370 C   0  0  0  0  0  3  0  0  0  0  0  0
  -21.0800   -5.9730   24.9850 C   0  0  0  0  0  3  0  0  0  0  0  0
  -21.4240   -4.6080   24.9190 C   0  0  0  0  0  0  0  0  0  0  0  0
  -21.8760   -4.0530   23.7080 C   0  0  0  0  0  3  0  0  0  0  0  0
  -21.9840   -4.8610   22.5630 C   0  0  0  0  0  0  0  0  0  0  0  0
  -22.4000   -4.3150   21.3950 F   0  0  0  0  0  0  0  0  0  0  0  0
  -21.3130   -3.8280   26.0190 F   0  0  0  0  0  0  0  0  0  0  0  0
  -22.7740  -13.6060   21.1810 C   0  0  0  0  0  0  0  0  0  0  0  0
  -22.0620  -12.8990   22.0510 N   0  0  0  0  0  0  0  0  0  0  0  0
  -22.3260  -14.6340   20.6780 O   0  0  0  0  0  0  0  0  0  0  0  0
  -22.4350  -12.0630   22.4740 H   0  0  0  0  0  0  0  0  0  0  0  0
  -21.1300  -13.1990   22.2960 H   0  0  0  0  0  0  0  0  0  0  0  0
  -25.3760  -15.2880   20.3180 N   0  0  0  0  0  0  0  0  0  0  0  0
  -24.6040  -15.9380   20.4320 H   0  0  0  0  0  0  0  0  0  0  0  0
  -26.1980  -15.7230   19.9160 H   0  0  0  0  0  0  0  0  0  0  0  0
  -33.5780  -19.2420   21.1350 N   0  0  0  0  0  0  0  0  0  0  0  0
  -33.8940  -20.1700   21.4010 H   0  0  0  0  0  0  0  0  0  0  0  0
  -34.0470  -18.5160   21.6700 H   0  0  0  0  0  0  0  0  0  0  0  0
  -26.0640  -23.0690   19.8450 O   0  0  0  0  0  0  0  0  0  0  0  0
  -25.4510  -22.3620   20.0350 H   0  0  0  0  0  0  0  0  0  0  0  0
  -28.4380  -25.1720   19.4560 C   0  0  0  0  0  2  0  0  0  0  0  0
  -28.2780  -26.4170   20.2930 O   0  0  0  0  0  0  0  0  0  0  0  0
  -24.5820  -31.9340   23.2450 C   0  0  0  0  0  0  0  0  0  0  0  0
  -27.1790  -27.3110   20.1910 C   0  0  0  0  0  0  0  0  0  0  0  0
  -23.3700  -30.5270   21.6190 C   0  0  0  0  0  3  0  0  0  0  0  0
  -24.8170  -28.9720   20.1770 C   0  0  0  0  0  0  0  0  0  0  0  0
  -25.9110  -30.8370   21.4160 C   0  0  0  0  0  2  0  0  0  0  0  0
  -25.9890  -29.4500   20.7760 C   0  0  0  0  0  0  0  0  0  0  0  0
  -27.1670  -28.6300   20.7750 C   0  0  0  0  0  3  0  0  0  0  0  0
  -25.9760  -26.9060   19.5670 C   0  0  0  0  0  3  0  0  0  0  0  0
  -24.8200  -27.7120   19.5590 C   0  0  0  0  0  3  0  0  0  0  0  0
  -23.5700  -29.8390   20.2420 C   0  0  0  0  0  2  0  0  0  0  0  0
  -24.6410  -31.1170   22.1500 N   0  0  0  0  0  0  0  0  0  0  0  0
  -23.4990  -32.2150   23.7820 O   0  0  0  0  0  0  0  0  0  0  0  0
  -22.7110  -29.5180   22.5890 C   0  0  0  0  0  0  0  0  0  0  0  0
  -21.3840  -29.3390   22.4680 N   0  0  0  0  0  0  0  0  0  0  0  0
  -23.3920  -28.8980   23.4090 O   0  0  0  0  0  0  0  0  0  0  0  0
  -20.8920  -29.8950   21.7830 H   0  0  0  0  0  0  0  0  0  0  0  0
  -18.0110  -28.1250   22.9740 C   0  0  0  0  0  0  0  0  0  0  0  0
  -20.5690  -28.3990   23.2410 C   0  0  0  0  0  3  0  0  0  0  0  0
  -20.6750  -26.9650   22.6710 C   0  0  0  0  0  2  0  0  0  0  0  0
  -19.5750  -26.6330   21.6580 C   0  0  0  0  0  2  0  0  0  0  0  0
  -18.1920  -26.7750   22.3010 C   0  0  0  0  0  2  0  0  0  0  0  0
  -19.1260  -28.8960   23.3980 C   0  0  0  0  0  0  0  0  0  0  0  0
  -18.8990  -30.1620   23.9810 C   0  0  0  0  0  3  0  0  0  0  0  0
  -17.5920  -30.6560   24.1450 C   0  0  0  0  0  3  0  0  0  0  0  0
  -16.4910  -29.8810   23.7380 C   0  0  0  0  0  3  0  0  0  0  0  0
  -16.7030  -28.6180   23.1580 C   0  0  0  0  0  3  0  0  0  0  0  0
  -25.8640  -32.5720   23.8610 C   0  0  0  0  0  3  0  0  0  0  0  0
  -26.3820  -31.8070   25.1390 C   0  0  1  0  0  0  0  0  0  0  0  0
  -25.2900  -31.5730   26.2080 C   0  0  0  0  0  1  0  0  0  0  0  0
  -26.9600  -30.4250   24.7520 C   0  0  0  0  0  1  0  0  0  0  0  0
  -27.5340  -32.6040   25.7960 C   0  0  0  0  0  1  0  0  0  0  0  0
  -25.5550  -33.9730   24.1850 N   0  0  0  0  0  0  0  0  0  0  0  0
  -25.8880  -35.0240   23.4230 C   0  0  0  0  0  0  0  0  0  0  0  0
  -26.5580  -34.9170   22.3930 O   0  0  0  0  0  0  0  0  0  0  0  0
  -24.9590  -34.1330   24.9840 H   0  0  0  0  0  0  0  0  0  0  0  0
  -24.1680  -36.8270   23.0550 C   0  0  0  0  0  1  0  0  0  0  0  0
  -25.4020  -36.4170   23.8750 C   0  0  0  0  0  3  0  0  0  0  0  0
  -27.5330  -37.2930   24.7240 C   0  0  0  0  0  1  0  0  0  0  0  0
  -26.4400  -37.4660   23.7700 N   0  0  0  0  0  0  0  0  0  0  0  0
  -26.0360  -38.3860   23.9150 H   0  0  0  0  0  0  0  0  0  0  0  0
  1  6  1  0
  2  3  1  0
  2  4  2  0
  3  1  2  0
  4  6  1  0
  4  5  1  0
  6 10  1  0
  7 11  1  0
  8 10  1  0
  8 12  2  0
  9 11  2  0
 10  7  2  0
 11 51  1  0
 12  9  1  0
 13 21  1  0
 14 19  1  0
 15 16  1  0
 15 14  1  0
 17 16  1  0
 17 26  1  0
 17 18  1  0
 19 13  1  0
 19 18  1  0
 20 13  2  0
 21 12  1  0
 21 22  1  0
 23 24  2  0
 24 43  1  0
 25 24  1  0
 25 28  1  0
 26 23  1  0
 26 27  1  0
 27 25  2  0
 28 29  1  0
 29 30  2  0
 31 34  1  0
 31 30  1  0
 32 31  2  0
 33 32  1  0
 33 28  2  0
 34 35  1  0
 35 36  1  0
 36 37  2  0
 38 37  1  0
 38 42  1  0
 39 38  2  0
 40 35  2  0
 40 39  1  0
 41 40  1  0
 43 44  1  0
 44 47  1  0
 44 46  1  0
 45 43  2  0
 48 49  1  0
 48 23  1  0
 50 48  1  0
 51 52  1  0
 51 53  1  0
 54  3  1  0
 54 55  1  0
 56  2  1  0
 56 57  1  0
 58 69  2  0
 59 57  1  0
 59 64  1  0
 60 68  1  0
 60 70  1  0
 61 67  1  0
 61 63  1  0
 62 68  1  0
 63 62  1  0
 64 63  2  0
 65 59  2  0
 66 65  1  0
 66 61  2  0
 67 60  1  0
 68 58  1  0
 70 72  2  0
 71 70  1  0
 73 71  1  0
 74 83  2  0
 74 79  1  0
 75 71  1  0
 75 79  1  0
 76 75  1  0
 77 78  1  0
 77 76  1  0
 78 74  1  0
 79 80  2  0
 80 81  1  0
 82 81  2  0
 83 82  1  0
 84 58  1  0
 84 89  1  0
 84 85  1  0
 85 88  1  1
 85 86  1  0
 87 85  1  0
 89 92  1  0
 90 94  1  0
 90 89  1  0
 91 90  2  0
 94 93  1  0
 96 94  1  0
 96 97  1  0
 96 95  1  0
M  ISO  4  13 100  21 100  56 101  57 101
M  END
>  <TORSDO>  (26) 
F 20

>  <SCORE>  (26) 
-14.659

>  <name>  (26) 
25

>  <ligand_id>  (26) 
25

>  <original_smiles>  (26) 
[H]Oc1c(C([H])([H])Oc2c([H])c([H])c3c(c2[H])C([H])([H])N(C(=O)C([H])(N([H])C(=O)C([H])(N([H])C([H])([H])[H])C([H])([H])[H])C(C([H])([H])[H])(C([H])([H])[H])C([H])([H])[H])C([H])(C(=O)N([H])C2([H])c4c([H])c([H])c([H])c([H])c4C([H])([H])C([H])([H])C2([H])[H])C3([H])[H])c(C([H])([H])[H])n(-c2c([H])c(N([H])[H])c([H])c(N([H])C(=O)N3C([H])([H])C([H])([H])C([H])([H])C([H])(n4nc(-c5c([H])c([H])c(Oc6c([H])c([H])c(F)c([H])c6F)c([H])c5[H])c(C(=O)N([H])[H])c4N([H])[H])C3([H])[H])c2[H])c1[H]

>  <smiles>  (26) 
[H]Oc1c(C([H])([H])Oc2c([H])c([H])c3c(c2[H])C([H])([H])N(C(=O)C([H])(N([H])C(=O)C([H])(N([H])C([H])([H])[H])C([H])([H])[H])C(C([H])([H])[H])(C([H])([H])[H])C([H])([H])[H])C([H])(C(=O)N([H])C2([H])c4c([H])c([H])c([H])c([H])c4C([H])([H])C([H])([H])C2([H])[H])C3([H])[H])c(C([H])([H])[H])n(-c2c([H])c(N([H])[H])c([H])c(N([H])C(=O)N3C([H])([H])C([H])([H])C([H])([H])C([H])(n4nc(-c5c([H])c([H])c(Oc6c([H])c([H])c(F)c([H])c6F)c([H])c5[H])c(C(=O)N([H])[H])c4N([H])[H])C3([H])[H])c2[H])c1[H]

$$$$
26:0:0
     RDKit          3D

 94103  0  0  1  0  0  0  0  0999 V2000
  -28.8030  -23.8680   20.3570 C   0  0  0  0  0  0  0  0  0  0  0  0
  -29.5920  -23.9550   21.6010 C   0  0  0  0  0  0  0  0  0  0  0  0
  -28.2180  -25.0180   19.8230 C   0  0  0  0  0  3  0  0  0  0  0  0
  -28.7280  -22.3880   19.7420 C   0  0  0  0  0  2  0  0  0  0  0  0
  -30.5870  -22.8280   21.8750 C   0  0  0  0  0  2  0  0  0  0  0  0
  -29.9630  -21.4250   21.7460 C   0  0  0  0  0  2  0  0  0  0  0  0
  -29.3690  -21.1790   20.4290 N   0  0  0  0  0  0  0  0  0  0  0  0
  -29.5090  -24.8850   22.4100 O   0  0  0  0  0  0  0  0  0  0  0  0
  -29.2780  -18.3980   17.8600 C   0  0  0  0  0  3  0  0  0  0  0  0
  -29.1860  -19.6520   18.5000 C   0  0  0  0  0  3  0  0  0  0  0  0
  -29.6190  -17.2240   18.5610 C   0  0  0  0  0  3  0  0  0  0  0  0
  -29.4360  -19.8120   19.8810 C   0  0  0  0  0  0  0  0  0  0  0  0
  -29.8710  -17.2390   19.9500 C   0  0  0  0  0  0  0  0  0  0  0  0
  -29.7580  -18.5600   20.5920 C   0  0  0  0  0  0  0  0  0  0  0  0
  -29.9470  -18.6310   21.9310 F   0  0  0  0  0  0  0  0  0  0  0  0
  -30.7600  -14.8000   20.0270 C   0  0  0  0  0  0  0  0  0  0  0  0
  -30.4370  -12.5590   18.9440 C   0  0  0  0  0  2  0  0  0  0  0  0
  -29.4250  -12.6630   17.7810 C   0  0  0  0  0  2  0  0  0  0  0  0
  -27.9860  -12.4880   18.3000 C   0  0  0  0  0  2  0  0  0  0  0  0
  -27.7000  -13.3530   19.5540 C   0  0  0  0  0  3  0  0  0  0  0  0
  -28.8210  -13.2310   20.6040 C   0  0  0  0  0  2  0  0  0  0  0  0
  -30.0860  -13.5950   19.9480 N   0  0  0  0  0  0  0  0  0  0  0  0
  -31.8700  -14.9010   19.4950 O   0  0  0  0  0  0  0  0  0  0  0  0
  -30.2400  -15.9160   22.0840 C   0  0  0  0  0  1  0  0  0  0  0  0
  -30.1640  -15.9210   20.6190 N   0  0  0  0  0  0  0  0  0  0  0  0
  -25.3740  -13.9530   20.4520 C   0  0  0  0  0  0  0  0  0  0  0  0
  -24.3240  -13.1830   20.8710 C   0  0  0  0  0  0  0  0  0  0  0  0
  -24.7650  -11.8270   20.7760 C   0  0  0  0  0  0  0  0  0  0  0  0
  -26.3870  -13.0680   20.1240 N   0  0  0  0  0  0  0  0  0  0  0  0
  -26.0320  -11.7820   20.3800 N   0  0  0  0  0  0  0  0  0  0  0  0
  -24.0350  -10.5700   20.9810 C   0  0  0  0  0  0  0  0  0  0  0  0
  -24.4960   -9.5850   21.8830 C   0  0  0  0  0  3  0  0  0  0  0  0
  -23.7660   -8.3940   22.0780 C   0  0  0  0  0  3  0  0  0  0  0  0
  -22.5580   -8.1780   21.3700 C   0  0  0  0  0  0  0  0  0  0  0  0
  -22.1160   -9.1500   20.4570 C   0  0  0  0  0  3  0  0  0  0  0  0
  -22.8470  -10.3340   20.2610 C   0  0  0  0  0  3  0  0  0  0  0  0
  -21.7960   -7.0390   21.4750 O   0  0  0  0  0  0  0  0  0  0  0  0
  -21.7620   -6.3010   22.6310 C   0  0  0  0  0  0  0  0  0  0  0  0
  -21.3790   -6.8680   23.8660 C   0  0  0  0  0  3  0  0  0  0  0  0
  -21.2890   -6.0580   25.0160 C   0  0  0  0  0  3  0  0  0  0  0  0
  -21.5710   -4.6810   24.9310 C   0  0  0  0  0  0  0  0  0  0  0  0
  -21.9470   -4.1130   23.7000 C   0  0  0  0  0  3  0  0  0  0  0  0
  -22.0380   -4.9220   22.5530 C   0  0  0  0  0  0  0  0  0  0  0  0
  -22.3800   -4.3650   21.3660 F   0  0  0  0  0  0  0  0  0  0  0  0
  -21.4770   -3.9000   26.0330 F   0  0  0  0  0  0  0  0  0  0  0  0
  -22.9550  -13.6700   21.2450 C   0  0  0  0  0  0  0  0  0  0  0  0
  -22.2810  -12.9680   22.1500 N   0  0  0  0  0  0  0  0  0  0  0  0
  -22.4940  -14.7080   20.7710 O   0  0  0  0  0  0  0  0  0  0  0  0
  -22.6680  -12.1280   22.5530 H   0  0  0  0  0  0  0  0  0  0  0  0
  -21.3650  -13.2760   22.4440 H   0  0  0  0  0  0  0  0  0  0  0  0
  -25.5470  -15.3260   20.3020 N   0  0  0  0  0  0  0  0  0  0  0  0
  -24.8030  -15.9900   20.4840 H   0  0  0  0  0  0  0  0  0  0  0  0
  -26.3910  -15.7630   19.9530 H   0  0  0  0  0  0  0  0  0  0  0  0
  -28.2920  -26.3890   20.2450 O   0  0  0  0  0  0  0  0  0  0  0  0
  -24.6070  -31.9010   23.2370 C   0  0  0  0  0  0  0  0  0  0  0  0
  -27.1880  -27.2800   20.1760 C   0  0  0  0  0  0  0  0  0  0  0  0
  -23.3960  -30.5040   21.6030 C   0  0  0  0  0  3  0  0  0  0  0  0
  -24.8370  -28.9460   20.1720 C   0  0  0  0  0  0  0  0  0  0  0  0
  -25.9410  -30.8000   21.4180 C   0  0  0  0  0  2  0  0  0  0  0  0
  -26.0120  -29.4170   20.7690 C   0  0  0  0  0  0  0  0  0  0  0  0
  -27.1870  -28.5940   20.7630 C   0  0  0  0  0  3  0  0  0  0  0  0
  -25.9820  -26.8810   19.5550 C   0  0  0  0  0  3  0  0  0  0  0  0
  -24.8270  -27.6870   19.5560 C   0  0  0  0  0  3  0  0  0  0  0  0
  -23.6060  -29.8300   20.2230 C   0  0  0  0  0  2  0  0  0  0  0  0
  -24.6670  -31.0880   22.1420 N   0  0  0  0  0  0  0  0  0  0  0  0
  -23.5240  -32.1830   23.7730 O   0  0  0  0  0  0  0  0  0  0  0  0
  -22.7320  -29.4910   22.5670 C   0  0  0  0  0  0  0  0  0  0  0  0
  -21.4040  -29.3190   22.4470 N   0  0  0  0  0  0  0  0  0  0  0  0
  -23.4100  -28.8640   23.3850 O   0  0  0  0  0  0  0  0  0  0  0  0
  -20.9140  -29.8760   21.7620 H   0  0  0  0  0  0  0  0  0  0  0  0
  -18.0260  -28.1260   22.9600 C   0  0  0  0  0  0  0  0  0  0  0  0
  -20.5850  -28.3840   23.2220 C   0  0  0  0  0  3  0  0  0  0  0  0
  -20.6850  -26.9510   22.6520 C   0  0  0  0  0  2  0  0  0  0  0  0
  -19.5800  -26.6250   21.6410 C   0  0  0  0  0  2  0  0  0  0  0  0
  -18.1990  -26.7740   22.2880 C   0  0  0  0  0  2  0  0  0  0  0  0
  -19.1460  -28.8880   23.3850 C   0  0  0  0  0  0  0  0  0  0  0  0
  -18.9290  -30.1520   23.9750 C   0  0  0  0  0  3  0  0  0  0  0  0
  -17.6250  -30.6550   24.1430 C   0  0  0  0  0  3  0  0  0  0  0  0
  -16.5190  -29.8900   23.7340 C   0  0  0  0  0  3  0  0  0  0  0  0
  -16.7200  -28.6260   23.1480 C   0  0  0  0  0  3  0  0  0  0  0  0
  -25.8910  -32.5340   23.8540 C   0  0  0  0  0  3  0  0  0  0  0  0
  -25.5820  -33.9330   24.1860 N   0  0  0  0  0  0  0  0  0  0  0  0
  -25.9090  -34.9870   23.4270 C   0  0  0  0  0  0  0  0  0  0  0  0
  -26.5720  -34.8840   22.3910 O   0  0  0  0  0  0  0  0  0  0  0  0
  -24.9930  -34.0860   24.9910 H   0  0  0  0  0  0  0  0  0  0  0  0
  -24.1780  -36.7820   23.0910 C   0  0  0  0  0  1  0  0  0  0  0  0
  -25.4270  -36.3760   23.8900 C   0  0  0  0  0  3  0  0  0  0  0  0
  -27.5690  -37.2610   24.7000 C   0  0  0  0  0  1  0  0  0  0  0  0
  -26.4590  -37.4290   23.7670 N   0  0  0  0  0  0  0  0  0  0  0  0
  -26.0540  -38.3490   23.9160 H   0  0  0  0  0  0  0  0  0  0  0  0
  -26.4090  -31.7650   25.1310 C   0  0  1  0  0  0  0  0  0  0  0  0
  -25.3180  -31.5310   26.2020 C   0  0  0  0  0  1  0  0  0  0  0  0
  -26.9900  -30.3850   24.7430 C   0  0  0  0  0  1  0  0  0  0  0  0
  -27.5630  -32.5580   25.7890 C   0  0  0  0  0  1  0  0  0  0  0  0
  1  2  1  0
  2  5  1  0
  2  8  2  0
  3 54  1  0
  3  1  2  0
  4  1  1  0
  4  7  1  0
  6  5  1  0
  7  6  1  0
  9 10  2  0
  9 11  1  0
 10 12  1  0
 11 13  2  0
 12  7  1  0
 12 14  2  0
 13 14  1  0
 13 25  1  0
 14 15  1  0
 16 25  1  0
 17 22  1  0
 18 19  1  0
 18 17  1  0
 20 19  1  0
 20 29  1  0
 20 21  1  0
 22 16  1  0
 22 21  1  0
 23 16  2  0
 25 24  1  0
 26 27  2  0
 27 46  1  0
 28 27  1  0
 28 31  1  0
 29 30  1  0
 29 26  1  0
 30 28  2  0
 31 32  1  0
 32 33  2  0
 34 37  1  0
 34 33  1  0
 35 34  2  0
 36 35  1  0
 36 31  2  0
 37 38  1  0
 38 39  1  0
 39 40  2  0
 41 40  1  0
 41 45  1  0
 42 41  2  0
 43 38  2  0
 43 42  1  0
 44 43  1  0
 46 47  1  0
 47 50  1  0
 47 49  1  0
 48 46  2  0
 51 26  1  0
 51 52  1  0
 53 51  1  0
 55 66  2  0
 56 54  1  0
 56 61  1  0
 57 65  1  0
 57 67  1  0
 58 64  1  0
 58 60  1  0
 59 65  1  0
 60 59  1  0
 61 60  2  0
 62 63  1  0
 62 56  2  0
 63 58  2  0
 64 57  1  0
 65 55  1  0
 67 69  2  0
 68 67  1  0
 70 68  1  0
 71 80  2  0
 71 76  1  0
 72 68  1  0
 72 76  1  0
 73 72  1  0
 74 75  1  0
 74 73  1  0
 75 71  1  0
 76 77  2  0
 77 78  1  0
 79 78  2  0
 80 79  1  0
 81 55  1  0
 81 82  1  0
 81 91  1  0
 82 85  1  0
 83 87  1  0
 83 82  1  0
 84 83  2  0
 87 86  1  0
 89 87  1  0
 89 90  1  0
 89 88  1  0
 91 94  1  1
 91 92  1  0
 93 91  1  0
M  ISO  4   3 101  16 100  25 100  54 101
M  END
>  <TORSDO>  (27) 
F 17

>  <SCORE>  (27) 
-14.898

>  <name>  (27) 
26

>  <ligand_id>  (27) 
26

>  <original_smiles>  (27) 
[H]C(Oc1c([H])c([H])c2c(c1[H])C([H])([H])N(C(=O)C([H])(N([H])C(=O)C([H])(N([H])C([H])([H])[H])C([H])([H])[H])C(C([H])([H])[H])(C([H])([H])[H])C([H])([H])[H])C([H])(C(=O)N([H])C1([H])c3c([H])c([H])c([H])c([H])c3C([H])([H])C([H])([H])C1([H])[H])C2([H])[H])=C1C(=O)C([H])([H])C([H])([H])N(c2c([H])c([H])c([H])c(N(C(=O)N3C([H])([H])C([H])([H])C([H])([H])C([H])(n4nc(-c5c([H])c([H])c(Oc6c([H])c([H])c(F)c([H])c6F)c([H])c5[H])c(C(=O)N([H])[H])c4N([H])[H])C3([H])[H])C([H])([H])[H])c2F)C1([H])[H]

>  <smiles>  (27) 
[H]C(Oc1c([H])c([H])c2c(c1[H])C([H])([H])N(C(=O)C([H])(N([H])C(=O)C([H])(N([H])C([H])([H])[H])C([H])([H])[H])C(C([H])([H])[H])(C([H])([H])[H])C([H])([H])[H])C([H])(C(=O)N([H])C1([H])c3c([H])c([H])c([H])c([H])c3C([H])([H])C([H])([H])C1([H])[H])C2([H])[H])=C1C(=O)C([H])([H])C([H])([H])N(c2c([H])c([H])c([H])c(N(C(=O)N3C([H])([H])C([H])([H])C([H])([H])C([H])(n4nc(-c5c([H])c([H])c(Oc6c([H])c([H])c(F)c([H])c6F)c([H])c5[H])c(C(=O)N([H])[H])c4N([H])[H])C3([H])[H])C([H])([H])[H])c2F)C1([H])[H]

$$$$
27:0:0
     RDKit          3D

 98107  0  0  1  0  0  0  0  0999 V2000
  -28.6570  -24.2410   21.4850 C   0  0  0  0  0  3  0  0  0  0  0  0
  -28.7330  -24.0090   20.1590 C   0  0  0  0  0  0  0  0  0  0  0  0
  -28.8130  -23.1540   22.4580 C   0  0  0  0  0  0  0  0  0  0  0  0
  -28.7440  -21.7190   21.9300 C   0  0  0  0  0  2  0  0  0  0  0  0
  -29.0780  -22.5640   19.5990 C   0  0  0  0  0  3  0  0  0  0  0  0
  -27.9130  -22.0460   18.7400 C   0  0  0  0  0  1  0  0  0  0  0  0
  -29.4300  -21.5440   20.6460 N   0  0  0  0  0  0  0  0  0  0  0  0
  -28.9720  -23.3580   23.6630 O   0  0  0  0  0  0  0  0  0  0  0  0
  -29.2090  -17.7480   20.6630 C   0  0  0  0  0  3  0  0  0  0  0  0
  -28.8330  -19.1180   20.5810 C   0  0  0  0  0  3  0  0  0  0  0  0
  -31.5020  -18.3410   20.2830 C   0  0  0  0  0  3  0  0  0  0  0  0
  -30.5580  -17.3130   20.5670 C   0  0  0  0  0  0  0  0  0  0  0  0
  -29.7840  -20.1590   20.4130 C   0  0  0  0  0  0  0  0  0  0  0  0
  -31.1280  -19.7240   20.2170 C   0  0  0  0  0  0  0  0  0  0  0  0
  -30.9130  -15.8870   21.0160 C   0  0  0  0  0  0  0  0  0  0  0  0
  -30.8190  -15.6420   22.2580 N   0  0  0  0  0  0  0  0  0  0  0  0
  -30.5080  -16.4630   22.7640 H   0  0  0  0  0  0  0  0  0  0  0  0
  -31.4030  -14.7730   20.0280 C   0  0  0  0  0  0  0  0  0  0  0  0
  -30.9890  -12.5970   18.8800 C   0  0  0  0  0  2  0  0  0  0  0  0
  -29.9870  -12.8020   17.7220 C   0  0  0  0  0  2  0  0  0  0  0  0
  -28.5330  -12.6960   18.2240 C   0  0  0  0  0  2  0  0  0  0  0  0
  -28.2900  -13.5380   19.5030 C   0  0  0  0  0  3  0  0  0  0  0  0
  -29.3910  -13.2750   20.5500 C   0  0  0  0  0  2  0  0  0  0  0  0
  -30.6930  -13.5950   19.9330 N   0  0  0  0  0  0  0  0  0  0  0  0
  -32.4440  -14.9450   19.3830 O   0  0  0  0  0  0  0  0  0  0  0  0
  -25.9860  -14.2450   20.3980 C   0  0  0  0  0  0  0  0  0  0  0  0
  -24.8970  -13.5190   20.7990 C   0  0  0  0  0  0  0  0  0  0  0  0
  -25.2680  -12.1470   20.6690 C   0  0  0  0  0  0  0  0  0  0  0  0
  -26.9550  -13.3160   20.0530 N   0  0  0  0  0  0  0  0  0  0  0  0
  -26.5310  -12.0450   20.2720 N   0  0  0  0  0  0  0  0  0  0  0  0
  -24.4760  -10.9220   20.8420 C   0  0  0  0  0  0  0  0  0  0  0  0
  -24.8440   -9.9290   21.7760 C   0  0  0  0  0  3  0  0  0  0  0  0
  -24.0560   -8.7690   21.9390 C   0  0  0  0  0  3  0  0  0  0  0  0
  -22.8830   -8.5950   21.1660 C   0  0  0  0  0  0  0  0  0  0  0  0
  -22.5330   -9.5750   20.2210 C   0  0  0  0  0  3  0  0  0  0  0  0
  -23.3210  -10.7270   20.0570 C   0  0  0  0  0  3  0  0  0  0  0  0
  -22.0710   -7.4880   21.2350 O   0  0  0  0  0  0  0  0  0  0  0  0
  -21.8880   -6.8030   22.4090 C   0  0  0  0  0  0  0  0  0  0  0  0
  -21.3920   -7.4330   23.5710 C   0  0  0  0  0  3  0  0  0  0  0  0
  -21.1540   -6.6760   24.7350 C   0  0  0  0  0  3  0  0  0  0  0  0
  -21.4020   -5.2900   24.7390 C   0  0  0  0  0  0  0  0  0  0  0  0
  -21.8920   -4.6600   23.5810 C   0  0  0  0  0  3  0  0  0  0  0  0
  -22.1320   -5.4150   22.4190 C   0  0  0  0  0  0  0  0  0  0  0  0
  -22.5840   -4.7980   21.3000 F   0  0  0  0  0  0  0  0  0  0  0  0
  -21.1660   -4.5610   25.8540 F   0  0  0  0  0  0  0  0  0  0  0  0
  -23.5530  -14.0650   21.1860 C   0  0  0  0  0  0  0  0  0  0  0  0
  -22.8580  -13.3910   22.0970 N   0  0  0  0  0  0  0  0  0  0  0  0
  -23.1320  -15.1220   20.7180 O   0  0  0  0  0  0  0  0  0  0  0  0
  -23.2130  -12.5360   22.4960 H   0  0  0  0  0  0  0  0  0  0  0  0
  -21.9580  -13.7380   22.4000 H   0  0  0  0  0  0  0  0  0  0  0  0
  -26.2240  -15.6110   20.2760 N   0  0  0  0  0  0  0  0  0  0  0  0
  -25.5020  -16.2990   20.4530 H   0  0  0  0  0  0  0  0  0  0  0  0
  -27.0620  -16.0070   19.8710 H   0  0  0  0  0  0  0  0  0  0  0  0
  -32.1160  -20.6950   20.0670 N   0  0  0  0  0  0  0  0  0  0  0  0
  -33.0360  -20.4700   20.4320 H   0  0  0  0  0  0  0  0  0  0  0  0
  -31.8000  -21.6130   20.3670 H   0  0  0  0  0  0  0  0  0  0  0  0
  -28.5180  -25.2050   19.1670 C   0  0  0  0  0  2  0  0  0  0  0  0
  -28.4040  -26.5670   19.7360 O   0  0  0  0  0  0  0  0  0  0  0  0
  -24.6010  -31.6820   23.0750 C   0  0  0  0  0  0  0  0  0  0  0  0
  -27.2170  -27.3110   19.7600 C   0  0  0  0  0  0  0  0  0  0  0  0
  -23.3670  -30.3040   21.4380 C   0  0  0  0  0  3  0  0  0  0  0  0
  -24.7980  -28.8350   19.9080 C   0  0  0  0  0  0  0  0  0  0  0  0
  -25.8850  -30.7000   21.1630 C   0  0  0  0  0  2  0  0  0  0  0  0
  -25.9730  -29.3450   20.4720 C   0  0  0  0  0  0  0  0  0  0  0  0
  -27.1780  -28.5920   20.3910 C   0  0  0  0  0  3  0  0  0  0  0  0
  -26.0080  -26.8380   19.1970 C   0  0  0  0  0  3  0  0  0  0  0  0
  -24.8160  -27.5870   19.2660 C   0  0  0  0  0  3  0  0  0  0  0  0
  -23.5400  -29.6720   20.0310 C   0  0  0  0  0  2  0  0  0  0  0  0
  -24.6390  -30.9120   21.9490 N   0  0  0  0  0  0  0  0  0  0  0  0
  -23.5320  -31.9150   23.6590 O   0  0  0  0  0  0  0  0  0  0  0  0
  -22.7690  -29.2420   22.3910 C   0  0  0  0  0  0  0  0  0  0  0  0
  -21.4530  -28.9990   22.2730 N   0  0  0  0  0  0  0  0  0  0  0  0
  -23.4860  -28.6410   23.1950 O   0  0  0  0  0  0  0  0  0  0  0  0
  -20.9320  -29.5390   21.5970 H   0  0  0  0  0  0  0  0  0  0  0  0
  -18.1570  -27.5860   22.7420 C   0  0  0  0  0  0  0  0  0  0  0  0
  -20.6900  -28.0100   23.0350 C   0  0  0  0  0  3  0  0  0  0  0  0
  -20.8890  -26.5890   22.4590 C   0  0  0  0  0  2  0  0  0  0  0  0
  -19.8190  -26.1960   21.4350 C   0  0  0  0  0  2  0  0  0  0  0  0
  -18.4260  -26.2510   22.0680 C   0  0  0  0  0  2  0  0  0  0  0  0
  -19.2200  -28.4180   23.1820 C   0  0  0  0  0  0  0  0  0  0  0  0
  -18.9150  -29.6640   23.7730 C   0  0  0  0  0  3  0  0  0  0  0  0
  -17.5800  -30.0800   23.9270 C   0  0  0  0  0  3  0  0  0  0  0  0
  -16.5310  -29.2470   23.5040 C   0  0  0  0  0  3  0  0  0  0  0  0
  -16.8200  -28.0010   22.9180 C   0  0  0  0  0  3  0  0  0  0  0  0
  -25.8910  -32.3260   23.6690 C   0  0  0  0  0  3  0  0  0  0  0  0
  -26.4920  -31.5090   24.8780 C   0  0  1  0  0  0  0  0  0  0  0  0
  -25.4560  -31.1630   25.9730 C   0  0  0  0  0  1  0  0  0  0  0  0
  -27.1180  -30.1830   24.3850 C   0  0  0  0  0  1  0  0  0  0  0  0
  -27.6350  -32.3170   25.5390 C   0  0  0  0  0  1  0  0  0  0  0  0
  -25.5530  -33.6940   24.0860 N   0  0  0  0  0  0  0  0  0  0  0  0
  -25.8360  -34.7970   23.3800 C   0  0  0  0  0  0  0  0  0  0  0  0
  -26.4780  -34.7700   22.3260 O   0  0  0  0  0  0  0  0  0  0  0  0
  -24.9770  -33.7870   24.9100 H   0  0  0  0  0  0  0  0  0  0  0  0
  -24.0620  -36.5670   23.1600 C   0  0  0  0  0  1  0  0  0  0  0  0
  -25.3250  -36.1440   23.9280 C   0  0  0  0  0  3  0  0  0  0  0  0
  -27.4530  -37.0260   24.7800 C   0  0  0  0  0  1  0  0  0  0  0  0
  -26.3330  -37.2250   23.8630 N   0  0  0  0  0  0  0  0  0  0  0  0
  -25.9100  -38.1260   24.0690 H   0  0  0  0  0  0  0  0  0  0  0  0
  1  3  1  0
  2  1  2  0
  3  8  2  0
  4  3  1  0
  5  6  1  0
  5  2  1  0
  5  7  1  0
  7  4  1  0
 10  9  1  0
 11 12  1  0
 12  9  2  0
 12 15  1  0
 13 10  2  0
 13  7  1  0
 14 11  2  0
 14 13  1  0
 15 16  2  0
 16 17  1  0
 18 15  1  0
 19 24  1  0
 20 21  1  0
 20 19  1  0
 22 21  1  0
 22 29  1  0
 22 23  1  0
 24 18  1  0
 24 23  1  0
 25 18  2  0
 26 27  2  0
 27 46  1  0
 28 27  1  0
 28 31  1  0
 29 30  1  0
 29 26  1  0
 30 28  2  0
 31 32  1  0
 32 33  2  0
 34 37  1  0
 34 33  1  0
 35 34  2  0
 36 35  1  0
 36 31  2  0
 37 38  1  0
 38 43  2  0
 38 39  1  0
 39 40  2  0
 40 41  1  0
 41 45  1  0
 42 41  2  0
 43 42  1  0
 44 43  1  0
 46 47  1  0
 47 50  1  0
 47 49  1  0
 48 46  2  0
 51 26  1  0
 51 52  1  0
 53 51  1  0
 54 14  1  0
 54 56  1  0
 54 55  1  0
 57 58  1  0
 57  2  1  0
 58 60  1  0
 59 70  2  0
 60 65  1  0
 61 69  1  0
 61 71  1  0
 62 68  1  0
 62 64  1  0
 63 69  1  0
 64 63  1  0
 65 64  2  0
 66 67  1  0
 66 60  2  0
 67 62  2  0
 68 61  1  0
 69 59  1  0
 71 73  2  0
 72 71  1  0
 74 72  1  0
 75 84  2  0
 75 80  1  0
 76 72  1  0
 76 80  1  0
 77 76  1  0
 78 79  1  0
 78 77  1  0
 79 75  1  0
 80 81  2  0
 81 82  1  0
 83 82  2  0
 84 83  1  0
 85 59  1  0
 85 90  1  0
 85 86  1  0
 86 89  1  1
 86 87  1  0
 88 86  1  0
 90 93  1  0
 91 95  1  0
 91 90  1  0
 92 91  2  0
 95 94  1  0
 97 95  1  0
 97 98  1  0
 97 96  1  0
M  ISO  4  15 100  18 100  57 101  58 101
M  END
>  <TORSDO>  (28) 
F 20

>  <SCORE>  (28) 
-12.724

>  <name>  (28) 
27

>  <ligand_id>  (28) 
27

>  <original_smiles>  (28) 
[H]N=C(C(=O)N1C([H])([H])C([H])([H])C([H])([H])C([H])(n2nc(-c3c([H])c([H])c(Oc4c([H])c([H])c(F)c([H])c4F)c([H])c3[H])c(C(=O)N([H])[H])c2N([H])[H])C1([H])[H])c1c([H])c([H])c(N2C([H])([H])C(=O)C([H])=C(C([H])([H])Oc3c([H])c([H])c4c(c3[H])C([H])([H])N(C(=O)C([H])(N([H])C(=O)C([H])(N([H])C([H])([H])[H])C([H])([H])[H])C(C([H])([H])[H])(C([H])([H])[H])C([H])([H])[H])C([H])(C(=O)N([H])C3([H])c5c([H])c([H])c([H])c([H])c5C([H])([H])C([H])([H])C3([H])[H])C4([H])[H])C2([H])C([H])([H])[H])c(N([H])[H])c1[H]

>  <smiles>  (28) 
[H]N=C(C(=O)N1C([H])([H])C([H])([H])C([H])([H])C([H])(n2nc(-c3c([H])c([H])c(Oc4c([H])c([H])c(F)c([H])c4F)c([H])c3[H])c(C(=O)N([H])[H])c2N([H])[H])C1([H])[H])c1c([H])c([H])c(N2C([H])([H])C(=O)C([H])=C(C([H])([H])Oc3c([H])c([H])c4c(c3[H])C([H])([H])N(C(=O)C([H])(N([H])C(=O)C([H])(N([H])C([H])([H])[H])C([H])([H])[H])C(C([H])([H])[H])(C([H])([H])[H])C([H])([H])[H])C([H])(C(=O)N([H])C3([H])c5c([H])c([H])c([H])c([H])c5C([H])([H])C([H])([H])C3([H])[H])C4([H])[H])C2([H])C([H])([H])[H])c(N([H])[H])c1[H]

$$$$
28:0:0
     RDKit          3D

 95104  0  0  1  0  0  0  0  0999 V2000
  -29.5510  -23.9280   19.6140 C   0  0  0  0  0  0  0  0  0  0  0  0
  -29.3500  -22.5410   20.1120 C   0  0  0  0  0  0  0  0  0  0  0  0
  -28.9250  -25.0560   20.1180 C   0  0  0  0  0  3  0  0  0  0  0  0
  -30.5270  -23.8720   18.4770 C   0  0  0  0  0  3  0  0  0  0  0  0
  -30.7990  -22.3600   18.3000 C   0  0  0  0  0  3  0  0  0  0  0  0
  -30.0960  -21.6390   19.3740 N   0  0  0  0  0  0  0  0  0  0  0  0
  -28.6120  -22.2290   21.0520 O   0  0  0  0  0  0  0  0  0  0  0  0
  -30.4400  -19.4610   20.7240 C   0  0  0  0  0  3  0  0  0  0  0  0
  -30.1830  -19.2930   18.3590 C   0  0  0  0  0  3  0  0  0  0  0  0
  -30.5870  -18.0320   20.8190 C   0  0  0  0  0  0  0  0  0  0  0  0
  -30.2300  -20.1550   19.4980 C   0  0  0  0  0  0  0  0  0  0  0  0
  -30.5040  -17.1850   19.6640 C   0  0  0  0  0  0  0  0  0  0  0  0
  -30.3000  -17.8670   18.4310 C   0  0  0  0  0  0  0  0  0  0  0  0
  -30.1630  -17.1580   17.2850 F   0  0  0  0  0  0  0  0  0  0  0  0
  -31.1970  -14.6670   19.2470 C   0  0  0  0  0  0  0  0  0  0  0  0
  -30.8030  -12.3960   18.2870 C   0  0  0  0  0  2  0  0  0  0  0  0
  -29.6280  -12.4880   17.2850 C   0  0  0  0  0  2  0  0  0  0  0  0
  -28.2750  -12.3320   18.0060 C   0  0  0  0  0  2  0  0  0  0  0  0
  -28.1710  -13.2200   19.2730 C   0  0  0  0  0  3  0  0  0  0  0  0
  -29.4330  -13.0880   20.1560 C   0  0  0  0  0  2  0  0  0  0  0  0
  -30.5960  -13.4330   19.3210 N   0  0  0  0  0  0  0  0  0  0  0  0
  -32.2470  -14.8140   18.6150 O   0  0  0  0  0  0  0  0  0  0  0  0
  -30.5110  -15.7110   19.8260 N   0  0  0  0  0  0  0  0  0  0  0  0
  -29.7850  -15.3830   20.4420 H   0  0  0  0  0  0  0  0  0  0  0  0
  -26.1100  -13.8500   20.6700 C   0  0  0  0  0  0  0  0  0  0  0  0
  -25.0690  -13.1080   21.1540 C   0  0  0  0  0  0  0  0  0  0  0  0
  -25.3330  -11.7580   20.7670 C   0  0  0  0  0  0  0  0  0  0  0  0
  -26.9490  -12.9540   20.0250 N   0  0  0  0  0  0  0  0  0  0  0  0
  -26.4990  -11.6790   20.1390 N   0  0  0  0  0  0  0  0  0  0  0  0
  -24.5130  -10.5460   20.9070 C   0  0  0  0  0  0  0  0  0  0  0  0
  -24.8480   -9.5310   21.8300 C   0  0  0  0  0  3  0  0  0  0  0  0
  -24.0350   -8.3850   21.9590 C   0  0  0  0  0  3  0  0  0  0  0  0
  -22.8720   -8.2450   21.1640 C   0  0  0  0  0  0  0  0  0  0  0  0
  -22.5560   -9.2490   20.2320 C   0  0  0  0  0  3  0  0  0  0  0  0
  -23.3690  -10.3880   20.1000 C   0  0  0  0  0  3  0  0  0  0  0  0
  -22.0370   -7.1550   21.2040 O   0  0  0  0  0  0  0  0  0  0  0  0
  -21.6600   -6.5790   22.3910 C   0  0  0  0  0  0  0  0  0  0  0  0
  -21.0310   -7.3220   23.4130 C   0  0  0  0  0  3  0  0  0  0  0  0
  -20.5980   -6.6750   24.5880 C   0  0  0  0  0  3  0  0  0  0  0  0
  -20.7840   -5.2890   24.7390 C   0  0  0  0  0  0  0  0  0  0  0  0
  -21.4070   -4.5450   23.7200 C   0  0  0  0  0  3  0  0  0  0  0  0
  -21.8400   -5.1900   22.5480 C   0  0  0  0  0  0  0  0  0  0  0  0
  -22.4200   -4.4660   21.5600 F   0  0  0  0  0  0  0  0  0  0  0  0
  -20.3610   -4.6660   25.8640 F   0  0  0  0  0  0  0  0  0  0  0  0
  -23.8460  -13.6320   21.8530 C   0  0  0  0  0  0  0  0  0  0  0  0
  -23.2700  -12.8440   22.7540 N   0  0  0  0  0  0  0  0  0  0  0  0
  -23.4250  -14.7670   21.6360 O   0  0  0  0  0  0  0  0  0  0  0  0
  -23.6300  -11.9210   22.9470 H   0  0  0  0  0  0  0  0  0  0  0  0
  -22.4590  -13.1700   23.2600 H   0  0  0  0  0  0  0  0  0  0  0  0
  -26.4060  -15.2100   20.7040 N   0  0  0  0  0  0  0  0  0  0  0  0
  -25.7830  -15.8880   21.1270 H   0  0  0  0  0  0  0  0  0  0  0  0
  -27.2070  -15.6360   20.2560 H   0  0  0  0  0  0  0  0  0  0  0  0
  -30.5110  -17.9750   23.3410 C   0  0  0  0  0  2  0  0  0  0  0  0
  -30.7920  -17.4170   22.1500 C   0  0  0  0  0  3  0  0  0  0  0  0
  -29.0680  -26.4140   19.7250 O   0  0  0  0  0  0  0  0  0  0  0  0
  -25.1180  -31.5340   23.0180 C   0  0  0  0  0  0  0  0  0  0  0  0
  -27.9330  -27.2460   19.7490 C   0  0  0  0  0  0  0  0  0  0  0  0
  -23.9830  -30.1770   21.2960 C   0  0  0  0  0  3  0  0  0  0  0  0
  -25.5050  -28.7640   19.8000 C   0  0  0  0  0  0  0  0  0  0  0  0
  -26.5090  -30.6060   21.1510 C   0  0  0  0  0  2  0  0  0  0  0  0
  -26.6500  -29.2670   20.4340 C   0  0  0  0  0  0  0  0  0  0  0  0
  -27.8680  -28.5200   20.4000 C   0  0  0  0  0  3  0  0  0  0  0  0
  -26.7660  -26.8000   19.0930 C   0  0  0  0  0  3  0  0  0  0  0  0
  -25.5650  -27.5370   19.1200 C   0  0  0  0  0  3  0  0  0  0  0  0
  -24.2340  -29.5860   19.8830 C   0  0  0  0  0  2  0  0  0  0  0  0
  -25.2220  -30.7880   21.8790 N   0  0  0  0  0  0  0  0  0  0  0  0
  -24.0220  -31.7370   23.5590 O   0  0  0  0  0  0  0  0  0  0  0  0
  -23.3570  -29.0860   22.1960 C   0  0  0  0  0  0  0  0  0  0  0  0
  -22.0260  -28.9210   22.1100 N   0  0  0  0  0  0  0  0  0  0  0  0
  -24.0650  -28.3940   22.9320 O   0  0  0  0  0  0  0  0  0  0  0  0
  -21.5120  -29.5310   21.4880 H   0  0  0  0  0  0  0  0  0  0  0  0
  -18.6620  -27.7140   22.6800 C   0  0  0  0  0  0  0  0  0  0  0  0
  -21.2350  -27.9240   22.8340 C   0  0  0  0  0  3  0  0  0  0  0  0
  -21.2860  -26.5510   22.1240 C   0  0  0  0  0  2  0  0  0  0  0  0
  -20.1280  -26.3340   21.1460 C   0  0  0  0  0  2  0  0  0  0  0  0
  -18.7840  -26.4310   21.8740 C   0  0  0  0  0  2  0  0  0  0  0  0
  -19.8130  -28.4220   23.1180 C   0  0  0  0  0  0  0  0  0  0  0  0
  -19.6430  -29.6270   23.8350 C   0  0  0  0  0  3  0  0  0  0  0  0
  -18.3550  -30.1210   24.1180 C   0  0  0  0  0  3  0  0  0  0  0  0
  -17.2200  -29.4080   23.6940 C   0  0  0  0  0  3  0  0  0  0  0  0
  -17.3750  -28.2060   22.9820 C   0  0  0  0  0  3  0  0  0  0  0  0
  -26.3710  -32.1840   23.6820 C   0  0  0  0  0  3  0  0  0  0  0  0
  -25.9650  -33.4950   24.2060 N   0  0  0  0  0  0  0  0  0  0  0  0
  -26.2260  -34.6680   23.6130 C   0  0  0  0  0  0  0  0  0  0  0  0
  -26.9040  -34.7610   22.5860 O   0  0  0  0  0  0  0  0  0  0  0  0
  -25.3580  -33.4910   25.0130 H   0  0  0  0  0  0  0  0  0  0  0  0
  -24.3870  -36.3800   23.4970 C   0  0  0  0  0  1  0  0  0  0  0  0
  -25.6450  -35.9390   24.2610 C   0  0  0  0  0  3  0  0  0  0  0  0
  -27.7080  -36.8280   25.2540 C   0  0  0  0  0  1  0  0  0  0  0  0
  -26.6060  -37.0620   24.3250 N   0  0  0  0  0  0  0  0  0  0  0  0
  -26.1370  -37.9210   24.5990 H   0  0  0  0  0  0  0  0  0  0  0  0
  -26.9950  -31.2980   24.8300 C   0  0  1  0  0  0  0  0  0  0  0  0
  -25.9610  -30.8120   25.8730 C   0  0  0  0  0  1  0  0  0  0  0  0
  -27.6920  -30.0490   24.2410 C   0  0  0  0  0  1  0  0  0  0  0  0
  -28.0860  -32.1010   25.5750 C   0  0  0  0  0  1  0  0  0  0  0  0
  1  2  1  0
  1  3  2  0
  2  7  2  0
  4  1  1  0
  5  4  2  0
  5  6  1  0
  6 11  1  0
  6  2  1  0
  8 10  1  0
  9 13  2  0
  9 11  1  0
 10 54  1  0
 11  8  2  0
 12 23  1  0
 12 10  2  0
 13 12  1  0
 14 13  1  0
 15 21  1  0
 15 23  1  0
 16 21  1  0
 17 18  1  0
 17 16  1  0
 19 18  1  0
 19 28  1  0
 19 20  1  0
 21 20  1  0
 22 15  2  0
 23 24  1  0
 25 50  1  0
 25 26  2  0
 26 45  1  0
 27 30  1  0
 27 26  1  0
 28 29  1  0
 28 25  1  0
 29 27  2  0
 30 31  1  0
 31 32  2  0
 33 36  1  0
 33 32  1  0
 34 33  2  0
 35 34  1  0
 35 30  2  0
 36 37  1  0
 37 42  2  0
 37 38  1  0
 38 39  2  0
 39 40  1  0
 40 44  1  0
 41 40  2  0
 42 41  1  0
 43 42  1  0
 45 46  1  0
 46 48  1  0
 46 49  1  0
 47 45  2  0
 50 51  1  0
 52 50  1  0
 54 53  2  0
 55 57  1  0
 55  3  1  0
 56 67  2  0
 57 62  1  0
 58 66  1  0
 58 68  1  0
 59 65  1  0
 59 61  1  0
 60 66  1  0
 61 60  1  0
 62 61  2  0
 63 64  1  0
 63 57  2  0
 64 59  2  0
 65 58  1  0
 66 56  1  0
 68 70  2  0
 69 68  1  0
 71 69  1  0
 72 81  2  0
 72 77  1  0
 73 69  1  0
 73 77  1  0
 74 73  1  0
 75 76  1  0
 75 74  1  0
 76 72  1  0
 77 78  2  0
 78 79  1  0
 80 79  2  0
 81 80  1  0
 82 56  1  0
 82 83  1  0
 82 92  1  0
 83 86  1  0
 84 83  1  0
 84 88  1  0
 85 84  2  0
 88 87  1  0
 88 90  1  0
 90 91  1  0
 90 89  1  0
 92 95  1  1
 92 93  1  0
 94 92  1  0
M  ISO  4   3 101  15 100  23 100  55 101
M  END
>  <TORSDO>  (29) 
F 18

>  <SCORE>  (29) 
-9.410

>  <name>  (29) 
28

>  <ligand_id>  (29) 
28

>  <original_smiles>  (29) 
[H]C([H])=C([H])c1c([H])c(N2C(=O)C(=C([H])Oc3c([H])c([H])c4c(c3[H])C([H])([H])N(C(=O)C([H])(N([H])C(=O)C([H])(N([H])C([H])([H])[H])C([H])([H])[H])C(C([H])([H])[H])(C([H])([H])[H])C([H])([H])[H])C([H])(C(=O)N([H])C3([H])c5c([H])c([H])c([H])c([H])c5C([H])([H])C([H])([H])C3([H])[H])C4([H])[H])C([H])([H])C2([H])[H])c([H])c(F)c1N([H])C(=O)N1C([H])([H])C([H])([H])C([H])([H])C([H])(n2nc(-c3c([H])c([H])c(Oc4c([H])c([H])c(F)c([H])c4F)c([H])c3[H])c(C(=O)N([H])[H])c2N([H])[H])C1([H])[H]

>  <smiles>  (29) 
[H]C([H])=C([H])c1c([H])c(N2C(=O)C(=C([H])Oc3c([H])c([H])c4c(c3[H])C([H])([H])N(C(=O)C([H])(N([H])C(=O)C([H])(N([H])C([H])([H])[H])C([H])([H])[H])C(C([H])([H])[H])(C([H])([H])[H])C([H])([H])[H])C([H])(C(=O)N([H])C3([H])c5c([H])c([H])c([H])c([H])c5C([H])([H])C([H])([H])C3([H])[H])C4([H])[H])C([H])([H])C2([H])[H])c([H])c(F)c1N([H])C(=O)N1C([H])([H])C([H])([H])C([H])([H])C([H])(n2nc(-c3c([H])c([H])c(Oc4c([H])c([H])c(F)c([H])c4F)c([H])c3[H])c(C(=O)N([H])[H])c2N([H])[H])C1([H])[H]

$$$$
29:0:0
     RDKit          3D

 97105  0  0  1  0  0  0  0  0999 V2000
  -36.1690  -25.4150    9.9290 C   0  0  0  0  0  0  0  0  0  0  0  0
  -35.0800  -24.8100    9.4130 N   0  0  0  0  0  0  0  0  0  0  0  0
  -37.1270  -24.7480   10.3240 O   0  0  0  0  0  0  0  0  0  0  0  0
  -34.3610  -25.4530    9.1080 H   0  0  0  0  0  0  0  0  0  0  0  0
  -33.6080  -22.6120    9.3430 C   0  0  0  0  0  3  0  0  0  0  0  0
  -35.8190  -21.4380    8.1200 C   0  0  0  0  0  3  0  0  0  0  0  0
  -33.5150  -21.2010    8.9910 C   0  0  0  0  0  0  0  0  0  0  0  0
  -34.6930  -20.6310    8.3980 C   0  0  0  0  0  0  0  0  0  0  0  0
  -34.7890  -23.4110    9.1060 C   0  0  0  0  0  0  0  0  0  0  0  0
  -35.8600  -22.7970    8.4410 C   0  0  0  0  0  0  0  0  0  0  0  0
  -34.8450  -19.1810    7.9740 C   0  0  0  0  0  1  0  0  0  0  0  0
  -36.9420  -23.5410    8.0930 F   0  0  0  0  0  0  0  0  0  0  0  0
  -30.9090  -18.4310    9.9520 C   0  0  0  0  0  0  0  0  0  0  0  0
  -30.0410  -16.7090   11.5330 C   0  0  0  0  0  2  0  0  0  0  0  0
  -30.4780  -17.0600   12.9740 C   0  0  0  0  0  2  0  0  0  0  0  0
  -31.8780  -16.4840   13.2710 C   0  0  0  0  0  2  0  0  0  0  0  0
  -32.9020  -16.7970   12.1470 C   0  0  0  0  0  3  0  0  0  0  0  0
  -32.3260  -16.4860   10.7470 C   0  0  0  0  0  2  0  0  0  0  0  0
  -31.0740  -17.2390   10.6150 N   0  0  0  0  0  0  0  0  0  0  0  0
  -29.7650  -18.8410    9.7370 O   0  0  0  0  0  0  0  0  0  0  0  0
  -32.1590  -20.4420    9.1380 C   0  0  0  0  0  0  0  0  0  0  0  0
  -32.0480  -19.1900    9.7200 N   0  0  0  0  0  0  0  0  0  0  0  0
  -31.1740  -21.0440    8.7070 O   0  0  0  0  0  0  0  0  0  0  0  0
  -32.9120  -18.7910   10.0400 H   0  0  0  0  0  0  0  0  0  0  0  0
  -34.9250  -15.3690   11.4920 C   0  0  0  0  0  0  0  0  0  0  0  0
  -36.0570  -15.0170   12.1690 C   0  0  0  0  0  0  0  0  0  0  0  0
  -35.9450  -15.6100   13.4650 C   0  0  0  0  0  0  0  0  0  0  0  0
  -34.1750  -16.1250   12.3750 N   0  0  0  0  0  0  0  0  0  0  0  0
  -34.7750  -16.2220   13.5890 N   0  0  0  0  0  0  0  0  0  0  0  0
  -36.9150  -15.6890   14.5650 C   0  0  0  0  0  0  0  0  0  0  0  0
  -37.9020  -16.6960   14.6080 C   0  0  0  0  0  3  0  0  0  0  0  0
  -38.8070  -16.7640   15.6880 C   0  0  0  0  0  3  0  0  0  0  0  0
  -38.7310  -15.8200   16.7370 C   0  0  0  0  0  0  0  0  0  0  0  0
  -37.7610  -14.8050   16.6800 C   0  0  0  0  0  3  0  0  0  0  0  0
  -36.8640  -14.7370   15.6020 C   0  0  0  0  0  3  0  0  0  0  0  0
  -39.5850  -15.7950   17.8130 O   0  0  0  0  0  0  0  0  0  0  0  0
  -40.1450  -14.6240   18.2600 C   0  0  0  0  0  0  0  0  0  0  0  0
  -41.3500  -14.1200   17.7230 C   0  0  0  0  0  3  0  0  0  0  0  0
  -41.9240  -12.9490   18.2560 C   0  0  0  0  0  3  0  0  0  0  0  0
  -41.3050  -12.2920   19.3360 C   0  0  0  0  0  0  0  0  0  0  0  0
  -40.1080  -12.7930   19.8760 C   0  0  0  0  0  3  0  0  0  0  0  0
  -39.5340  -13.9600   19.3430 C   0  0  0  0  0  0  0  0  0  0  0  0
  -38.3910  -14.4530   19.8790 F   0  0  0  0  0  0  0  0  0  0  0  0
  -41.8610  -11.1730   19.8560 F   0  0  0  0  0  0  0  0  0  0  0  0
  -37.2270  -14.2650   11.6100 C   0  0  0  0  0  0  0  0  0  0  0  0
  -37.8680  -13.4400   12.4280 N   0  0  0  0  0  0  0  0  0  0  0  0
  -37.5460  -14.3670   10.4250 O   0  0  0  0  0  0  0  0  0  0  0  0
  -37.5950  -13.3440   13.3950 H   0  0  0  0  0  0  0  0  0  0  0  0
  -38.6470  -12.8970   12.0830 H   0  0  0  0  0  0  0  0  0  0  0  0
  -34.4920  -15.1460   10.1880 N   0  0  0  0  0  0  0  0  0  0  0  0
  -35.1600  -14.7760    9.5190 H   0  0  0  0  0  0  0  0  0  0  0  0
  -33.8240  -15.7730    9.7580 H   0  0  0  0  0  0  0  0  0  0  0  0
  -36.8470  -27.8640    9.4070 C   0  0  0  0  0  3  0  0  0  0  0  0
  -36.1580  -26.9030   10.0940 C   0  0  0  0  0  0  0  0  0  0  0  0
  -35.3700  -27.3060   11.1000 O   0  0  0  0  0  0  0  0  0  0  0  0
  -35.0800  -26.5020   11.5190 H   0  0  0  0  0  0  0  0  0  0  0  0
  -36.7240  -29.2330    9.7100 O   0  0  0  0  0  0  0  0  0  0  0  0
  -37.2370  -27.8550   16.7540 C   0  0  0  0  0  0  0  0  0  0  0  0
  -36.8940  -29.7270   11.0040 C   0  0  0  0  0  0  0  0  0  0  0  0
  -36.9120  -30.2250   16.1190 C   0  0  0  0  0  3  0  0  0  0  0  0
  -37.2240  -30.7650   13.6390 C   0  0  0  0  0  0  0  0  0  0  0  0
  -38.0940  -28.5990   14.5280 C   0  0  0  0  0  2  0  0  0  0  0  0
  -37.5710  -29.4360   13.3690 C   0  0  0  0  0  0  0  0  0  0  0  0
  -37.4160  -28.9170   12.0530 C   0  0  0  0  0  3  0  0  0  0  0  0
  -36.5910  -31.0720   11.3040 C   0  0  0  0  0  3  0  0  0  0  0  0
  -36.7480  -31.5900   12.6050 C   0  0  0  0  0  3  0  0  0  0  0  0
  -37.3920  -31.2550   15.0610 C   0  0  0  0  0  2  0  0  0  0  0  0
  -37.4000  -28.8390   15.8200 N   0  0  0  0  0  0  0  0  0  0  0  0
  -36.7290  -28.0960   17.8590 O   0  0  0  0  0  0  0  0  0  0  0  0
  -35.3740  -30.3160   16.2500 C   0  0  0  0  0  0  0  0  0  0  0  0
  -34.8530  -31.5430   16.4130 N   0  0  0  0  0  0  0  0  0  0  0  0
  -34.6730  -29.3030   16.1840 O   0  0  0  0  0  0  0  0  0  0  0  0
  -35.4910  -32.3240   16.4360 H   0  0  0  0  0  0  0  0  0  0  0  0
  -32.5630  -34.0850   17.5490 C   0  0  0  0  0  0  0  0  0  0  0  0
  -33.4320  -31.8660   16.5420 C   0  0  0  0  0  3  0  0  0  0  0  0
  -32.8670  -32.4000   15.2060 C   0  0  0  0  0  2  0  0  0  0  0  0
  -33.0380  -33.9160   15.0860 C   0  0  0  0  0  2  0  0  0  0  0  0
  -32.1830  -34.5900   16.1650 C   0  0  0  0  0  2  0  0  0  0  0  0
  -33.1790  -32.8160   17.7210 C   0  0  0  0  0  0  0  0  0  0  0  0
  -33.5720  -32.4160   19.0170 C   0  0  0  0  0  3  0  0  0  0  0  0
  -33.3420  -33.2490   20.1300 C   0  0  0  0  0  3  0  0  0  0  0  0
  -32.7150  -34.4950   19.9570 C   0  0  0  0  0  3  0  0  0  0  0  0
  -32.3240  -34.9070   18.6720 C   0  0  0  0  0  3  0  0  0  0  0  0
  -37.6960  -26.3870   16.4890 C   0  0  0  0  0  3  0  0  0  0  0  0
  -37.3630  -25.4060   17.6790 C   0  0  1  0  0  0  0  0  0  0  0  0
  -37.5310  -26.0450   19.0770 C   0  0  0  0  0  1  0  0  0  0  0  0
  -35.9100  -24.8890   17.5720 C   0  0  0  0  0  1  0  0  0  0  0  0
  -38.2840  -24.1650   17.6090 C   0  0  0  0  0  1  0  0  0  0  0  0
  -39.1430  -26.4160   16.2320 N   0  0  0  0  0  0  0  0  0  0  0  0
  -39.7000  -26.3590   15.0140 C   0  0  0  0  0  0  0  0  0  0  0  0
  -39.0410  -26.2060   13.9820 O   0  0  0  0  0  0  0  0  0  0  0  0
  -39.7390  -26.6010   17.0260 H   0  0  0  0  0  0  0  0  0  0  0  0
  -41.6090  -27.9440   14.5900 C   0  0  0  0  0  1  0  0  0  0  0  0
  -41.2340  -26.4920   14.9300 C   0  0  0  0  0  3  0  0  0  0  0  0
  -41.9240  -24.1950   14.4070 C   0  0  0  0  0  1  0  0  0  0  0  0
  -41.8510  -25.5790   13.9430 N   0  0  0  0  0  0  0  0  0  0  0  0
  -42.7910  -25.8850   13.7070 H   0  0  0  0  0  0  0  0  0  0  0  0
  1 54  1  0
  1  3  2  0
  2  1  1  0
  4  2  1  0
  6  8  2  0
  6 10  1  0
  7 21  1  0
  7  5  2  0
  8  7  1  0
  9  5  1  0
  9  2  1  0
 10  9  2  0
 11  8  1  0
 12 10  1  0
 13 19  1  0
 14 15  1  0
 15 16  1  0
 17 18  1  0
 17 28  1  0
 17 16  1  0
 19 18  1  0
 19 14  1  0
 20 13  2  0
 21 22  1  0
 22 13  1  0
 22 24  1  0
 23 21  2  0
 25 26  2  0
 25 28  1  0
 26 27  1  0
 27 29  2  0
 27 30  1  0
 28 29  1  0
 30 31  2  0
 30 35  1  0
 31 32  1  0
 32 33  2  0
 33 36  1  0
 34 33  1  0
 35 34  2  0
 36 37  1  0
 37 42  1  0
 38 39  1  0
 38 37  2  0
 39 40  2  0
 40 44  1  0
 40 41  1  0
 42 41  2  0
 42 43  1  0
 45 26  1  0
 45 46  1  0
 46 48  1  0
 47 45  2  0
 49 46  1  0
 50 25  1  0
 51 50  1  0
 52 50  1  0
 53 57  1  0
 53 54  2  0
 54 55  1  0
 55 56  1  0
 57 59  1  0
 58 69  2  0
 59 65  2  0
 59 64  1  0
 60 70  1  0
 61 67  1  0
 62 68  1  0
 63 61  1  0
 63 62  1  0
 64 63  2  0
 65 66  1  0
 66 61  2  0
 67 60  1  0
 68 60  1  0
 68 58  1  0
 70 71  1  0
 71 73  1  0
 72 70  2  0
 74 79  2  0
 74 83  1  0
 75 71  1  0
 75 79  1  0
 76 75  1  0
 77 76  1  0
 77 78  1  0
 78 74  1  0
 79 80  1  0
 80 81  2  0
 82 81  1  0
 83 82  2  0
 84 58  1  0
 84 85  1  0
 85 86  1  1
 87 85  1  0
 88 85  1  0
 89 84  1  0
 89 92  1  0
 90 89  1  0
 91 90  2  0
 94 93  1  0
 94 90  1  0
 96 95  1  0
 96 94  1  0
 97 96  1  0
M  ISO  4  13 100  22 100  53 101  57 101
M  END
>  <TORSDO>  (30) 
F 19

>  <SCORE>  (30) 
-1.946

>  <name>  (30) 
29

>  <ligand_id>  (30) 
29

>  <original_smiles>  (30) 
[H]OC(C(=O)N([H])c1c([H])c(C(=O)N([H])C(=O)N2C([H])([H])C([H])([H])C([H])([H])C([H])(n3nc(-c4c([H])c([H])c(Oc5c([H])c([H])c(F)c([H])c5F)c([H])c4[H])c(C(=O)N([H])[H])c3N([H])[H])C2([H])[H])c(C([H])([H])[H])c([H])c1F)=C([H])Oc1c([H])c([H])c2c(c1[H])C([H])([H])N(C(=O)C([H])(N([H])C(=O)C([H])(N([H])C([H])([H])[H])C([H])([H])[H])C(C([H])([H])[H])(C([H])([H])[H])C([H])([H])[H])C([H])(C(=O)N([H])C1([H])c3c([H])c([H])c([H])c([H])c3C([H])([H])C([H])([H])C1([H])[H])C2([H])[H]

>  <smiles>  (30) 
[H]OC(C(=O)N([H])c1c([H])c(C(=O)N([H])C(=O)N2C([H])([H])C([H])([H])C([H])([H])C([H])(n3nc(-c4c([H])c([H])c(Oc5c([H])c([H])c(F)c([H])c5F)c([H])c4[H])c(C(=O)N([H])[H])c3N([H])[H])C2([H])[H])c(C([H])([H])[H])c([H])c1F)=C([H])Oc1c([H])c([H])c2c(c1[H])C([H])([H])N(C(=O)C([H])(N([H])C(=O)C([H])(N([H])C([H])([H])[H])C([H])([H])[H])C(C([H])([H])[H])(C([H])([H])[H])C([H])([H])[H])C([H])(C(=O)N([H])C1([H])c3c([H])c([H])c([H])c([H])c3C([H])([H])C([H])([H])C1([H])[H])C2([H])[H]

$$$$
30:0:0
     RDKit          3D

104112  0  0  1  0  0  0  0  0999 V2000
  -30.4420  -22.4800   23.3810 C   0  0  0  0  0  0  0  0  0  0  0  0
  -29.4580  -24.5660   22.4350 C   0  0  0  0  0  0  0  0  0  0  0  0
  -30.3420  -23.4500   22.4530 N   0  0  0  0  0  0  0  0  0  0  0  0
  -29.6360  -22.3930   24.4450 N   0  0  0  0  0  4  0  0  0  0  0  0
  -28.8070  -24.8840   23.4400 O   0  0  0  0  0  0  0  0  0  0  0  0
  -30.9080  -23.2760   21.6350 H   0  0  0  0  0  0  0  0  0  0  0  0
  -29.7360  -21.6380   25.1050 H   0  0  0  0  0  0  0  0  0  0  0  0
  -28.9680  -23.1300   24.6210 H   0  0  0  0  0  0  0  0  0  0  0  0
  -32.8160  -21.8610   23.1680 C   0  0  0  0  0  3  0  0  0  0  0  0
  -31.1040  -20.1150   22.9730 C   0  0  0  0  0  3  0  0  0  0  0  0
  -33.4630  -19.5750   22.6410 C   0  0  0  0  0  3  0  0  0  0  0  0
  -31.4640  -21.4630   23.1930 C   0  0  0  0  0  0  0  0  0  0  0  0
  -33.8210  -20.9140   22.9000 C   0  0  0  0  0  0  0  0  0  0  0  0
  -32.1110  -19.1640   22.6650 C   0  0  0  0  0  0  0  0  0  0  0  0
  -30.6960  -17.1710   22.0710 C   0  0  0  0  0  0  0  0  0  0  0  0
  -31.8500  -17.8290   22.2560 N   0  0  0  0  0  0  0  0  0  0  0  0
  -29.6120  -17.4900   22.5660 O   0  0  0  0  0  0  0  0  0  0  0  0
  -32.6580  -17.3360   21.9040 H   0  0  0  0  0  0  0  0  0  0  0  0
  -29.9640  -15.2140   20.7600 C   0  0  0  0  0  3  0  0  0  0  0  0
  -30.9400  -16.0340   21.2070 C   0  0  0  0  0  3  0  0  0  0  0  0
  -30.3370  -14.2250   19.7560 C   0  0  0  0  0  0  0  0  0  0  0  0
  -29.9160  -12.0640   18.6490 C   0  0  0  0  0  2  0  0  0  0  0  0
  -28.8250  -12.1760   17.5700 C   0  0  0  0  0  2  0  0  0  0  0  0
  -27.4360  -11.9610   18.2030 C   0  0  0  0  0  2  0  0  0  0  0  0
  -27.2090  -12.8420   19.4650 C   0  0  0  0  0  3  0  0  0  0  0  0
  -28.4080  -12.7180   20.4370 C   0  0  0  0  0  2  0  0  0  0  0  0
  -29.6320  -13.0630   19.6970 N   0  0  0  0  0  0  0  0  0  0  0  0
  -31.2550  -14.4580   18.9630 O   0  0  0  0  0  0  0  0  0  0  0  0
  -24.9200  -13.3550   20.5290 C   0  0  0  0  0  0  0  0  0  0  0  0
  -23.9320  -12.5370   21.0110 C   0  0  0  0  0  0  0  0  0  0  0  0
  -24.4140  -11.2010   20.8500 C   0  0  0  0  0  0  0  0  0  0  0  0
  -25.9430  -12.5140   20.1170 N   0  0  0  0  0  0  0  0  0  0  0  0
  -25.6460  -11.2110   20.3610 N   0  0  0  0  0  0  0  0  0  0  0  0
  -23.7520   -9.9120   21.0800 C   0  0  0  0  0  0  0  0  0  0  0  0
  -24.2420   -8.9880   22.0310 C   0  0  0  0  0  3  0  0  0  0  0  0
  -23.5780   -7.7620   22.2500 C   0  0  0  0  0  3  0  0  0  0  0  0
  -22.4090   -7.4490   21.5160 C   0  0  0  0  0  0  0  0  0  0  0  0
  -21.9380   -8.3600   20.5530 C   0  0  0  0  0  3  0  0  0  0  0  0
  -22.6040   -9.5770   20.3330 C   0  0  0  0  0  3  0  0  0  0  0  0
  -21.7110   -6.2730   21.6430 O   0  0  0  0  0  0  0  0  0  0  0  0
  -21.6150   -5.6180   22.8450 C   0  0  0  0  0  0  0  0  0  0  0  0
  -21.0310   -6.2230   23.9800 C   0  0  0  0  0  3  0  0  0  0  0  0
  -20.8920   -5.4890   25.1740 C   0  0  0  0  0  3  0  0  0  0  0  0
  -21.3260   -4.1510   25.2340 C   0  0  0  0  0  0  0  0  0  0  0  0
  -21.9030   -3.5470   24.1040 C   0  0  0  0  0  3  0  0  0  0  0  0
  -22.0440   -4.2770   22.9110 C   0  0  0  0  0  0  0  0  0  0  0  0
  -22.5780   -3.6810   21.8170 F   0  0  0  0  0  0  0  0  0  0  0  0
  -21.1880   -3.4420   26.3800 F   0  0  0  0  0  0  0  0  0  0  0  0
  -22.5790  -12.9590   21.5060 C   0  0  0  0  0  0  0  0  0  0  0  0
  -22.0040  -12.2100   22.4390 N   0  0  0  0  0  0  0  0  0  0  0  0
  -22.0430  -13.9880   21.0990 O   0  0  0  0  0  0  0  0  0  0  0  0
  -22.4540  -11.3820   22.7960 H   0  0  0  0  0  0  0  0  0  0  0  0
  -21.1010  -12.4740   22.8080 H   0  0  0  0  0  0  0  0  0  0  0  0
  -25.0280  -14.7360   20.3950 N   0  0  0  0  0  0  0  0  0  0  0  0
  -24.2740  -15.3700   20.6380 H   0  0  0  0  0  0  0  0  0  0  0  0
  -25.8350  -15.2100   20.0100 H   0  0  0  0  0  0  0  0  0  0  0  0
  -35.1600  -21.3110   22.8610 N   0  0  0  0  0  0  0  0  0  0  0  0
  -35.3880  -22.2980   22.8050 H   0  0  0  0  0  0  0  0  0  0  0  0
  -35.8370  -20.7170   22.3900 H   0  0  0  0  0  0  0  0  0  0  0  0
  -28.4460  -26.1480   20.9470 C   0  0  0  0  0  3  0  0  0  0  0  0
  -29.3750  -25.1960   21.1210 C   0  0  0  0  0  0  0  0  0  0  0  0
  -30.1820  -24.8050   20.1200 O   0  0  0  0  0  0  0  0  0  0  0  0
  -29.9390  -25.3170   19.3560 H   0  0  0  0  0  0  0  0  0  0  0  0
  -28.1870  -26.7820   19.7590 O   0  0  0  0  0  0  0  0  0  0  0  0
  -24.6030  -31.7900   23.2480 C   0  0  0  0  0  0  0  0  0  0  0  0
  -27.0430  -27.5370   19.7990 C   0  0  0  0  0  0  0  0  0  0  0  0
  -23.2860  -30.4580   21.6290 C   0  0  0  0  0  3  0  0  0  0  0  0
  -24.6440  -28.9910   20.0420 C   0  0  0  0  0  0  0  0  0  0  0  0
  -25.7870  -30.8490   21.2730 C   0  0  0  0  0  2  0  0  0  0  0  0
  -25.8330  -29.5100   20.5700 C   0  0  0  0  0  0  0  0  0  0  0  0
  -27.0370  -28.7880   20.4480 C   0  0  0  0  0  3  0  0  0  0  0  0
  -25.8440  -27.0190   19.2710 C   0  0  0  0  0  3  0  0  0  0  0  0
  -24.6400  -27.7430   19.3900 C   0  0  0  0  0  3  0  0  0  0  0  0
  -23.4010  -29.8360   20.2100 C   0  0  0  0  0  2  0  0  0  0  0  0
  -24.5810  -31.0420   22.1100 N   0  0  0  0  0  0  0  0  0  0  0  0
  -23.5610  -32.0340   23.8730 O   0  0  0  0  0  0  0  0  0  0  0  0
  -22.7000  -29.3950   22.5850 C   0  0  0  0  0  0  0  0  0  0  0  0
  -21.3920  -29.1220   22.4470 N   0  0  0  0  0  0  0  0  0  0  0  0
  -23.4190  -28.8160   23.4040 O   0  0  0  0  0  0  0  0  0  0  0  0
  -20.8720  -29.6410   21.7550 H   0  0  0  0  0  0  0  0  0  0  0  0
  -18.1420  -27.5870   22.7990 C   0  0  0  0  0  0  0  0  0  0  0  0
  -20.6340  -28.1340   23.2160 C   0  0  0  0  0  3  0  0  0  0  0  0
  -20.9260  -26.6990   22.7190 C   0  0  0  0  0  2  0  0  0  0  0  0
  -19.9370  -26.2170   21.6540 C   0  0  0  0  0  2  0  0  0  0  0  0
  -18.5060  -26.2380   22.2020 C   0  0  0  0  0  2  0  0  0  0  0  0
  -19.1430  -28.4820   23.2620 C   0  0  0  0  0  0  0  0  0  0  0  0
  -18.7520  -29.7380   23.7760 C   0  0  0  0  0  3  0  0  0  0  0  0
  -17.3950  -30.1020   23.8330 C   0  0  0  0  0  3  0  0  0  0  0  0
  -16.4070  -29.2040   23.3910 C   0  0  0  0  0  3  0  0  0  0  0  0
  -16.7820  -27.9490   22.8800 C   0  0  0  0  0  3  0  0  0  0  0  0
  -25.9310  -32.3940   23.8060 C   0  0  0  0  0  3  0  0  0  0  0  0
  -25.6610  -33.7860   24.1820 N   0  0  0  0  0  0  0  0  0  0  0  0
  -25.9610  -34.8510   23.4250 C   0  0  0  0  0  0  0  0  0  0  0  0
  -26.5710  -34.7630   22.3560 O   0  0  0  0  0  0  0  0  0  0  0  0
  -25.1190  -33.9310   25.0210 H   0  0  0  0  0  0  0  0  0  0  0  0
  -24.2460  -36.6710   23.1810 C   0  0  0  0  0  1  0  0  0  0  0  0
  -25.5110  -36.2330   23.9360 C   0  0  0  0  0  3  0  0  0  0  0  0
  -27.6880  -37.0620   24.7090 C   0  0  0  0  0  1  0  0  0  0  0  0
  -26.5520  -37.2760   23.8150 N   0  0  0  0  0  0  0  0  0  0  0  0
  -26.1660  -38.1950   24.0100 H   0  0  0  0  0  0  0  0  0  0  0  0
  -26.5160  -31.5880   25.0310 C   0  0  1  0  0  0  0  0  0  0  0  0
  -25.4850  -31.3260   26.1520 C   0  0  0  0  0  1  0  0  0  0  0  0
  -27.0700  -30.2190   24.5680 C   0  0  0  0  0  1  0  0  0  0  0  0
  -27.7040  -32.3620   25.6480 C   0  0  0  0  0  1  0  0  0  0  0  0
  1  4  2  0
  2  3  1  0
  2  5  2  0
  3  1  1  0
  4  8  1  0
  4  7  1  0
  6  3  1  0
  9 12  1  0
 10 12  2  0
 11 14  2  0
 11 13  1  0
 12  1  1  0
 13  9  2  0
 14 10  1  0
 15 16  1  0
 15 17  2  0
 16 14  1  0
 18 16  1  0
 19 20  2  0
 20 15  1  0
 21 19  1  0
 22 27  1  0
 23 24  1  0
 23 22  1  0
 25 24  1  0
 25 32  1  0
 25 26  1  0
 27 21  1  0
 27 26  1  0
 28 21  2  0
 29 30  2  0
 30 49  1  0
 31 30  1  0
 31 34  1  0
 32 33  1  0
 32 29  1  0
 33 31  2  0
 34 35  1  0
 35 36  2  0
 37 40  1  0
 37 36  1  0
 38 37  2  0
 39 38  1  0
 39 34  2  0
 40 41  1  0
 41 46  2  0
 41 42  1  0
 42 43  2  0
 43 44  1  0
 44 48  1  0
 45 44  2  0
 46 45  1  0
 47 46  1  0
 49 50  1  0
 50 52  1  0
 50 53  1  0
 51 49  2  0
 54 29  1  0
 54 55  1  0
 56 54  1  0
 57 13  1  0
 58 57  1  0
 59 57  1  0
 60 61  2  0
 61  2  1  0
 62 61  1  0
 63 62  1  0
 64 66  1  0
 64 60  1  0
 65 76  2  0
 66 71  1  0
 67 75  1  0
 67 77  1  0
 68 74  1  0
 68 70  1  0
 69 75  1  0
 70 69  1  0
 71 70  2  0
 72 73  1  0
 72 66  2  0
 73 68  2  0
 74 67  1  0
 75 65  1  0
 77 79  2  0
 78 77  1  0
 80 78  1  0
 81 90  2  0
 81 86  1  0
 82 78  1  0
 82 86  1  0
 83 82  1  0
 84 85  1  0
 84 83  1  0
 85 81  1  0
 86 87  2  0
 87 88  1  0
 89 88  2  0
 90 89  1  0
 91 65  1  0
 91 92  1  0
 91101  1  0
 92 95  1  0
 93 97  1  0
 93 92  1  0
 94 93  2  0
 97 96  1  0
 99 97  1  0
 99100  1  0
 99 98  1  0
101104  1  1
101102  1  0
103101  1  0
M  ISO  4  19 100  21 100  60 101  64 101
M  END
>  <TORSDO>  (31) 
F 22

>  <SCORE>  (31) 
-10.230

>  <name>  (31) 
30

>  <ligand_id>  (31) 
30

>  <original_smiles>  (31) 
[H]OC(C(=O)N([H])C(c1c([H])c(N([H])[H])c([H])c(N([H])C(=O)C([H])=C([H])C(=O)N2C([H])([H])C([H])([H])C([H])([H])C([H])(n3nc(-c4c([H])c([H])c(Oc5c([H])c([H])c(F)c([H])c5F)c([H])c4[H])c(C(=O)N([H])[H])c3N([H])[H])C2([H])[H])c1[H])=[N+]([H])[H])=C([H])Oc1c([H])c([H])c2c(c1[H])C([H])([H])N(C(=O)C([H])(N([H])C(=O)C([H])(N([H])C([H])([H])[H])C([H])([H])[H])C(C([H])([H])[H])(C([H])([H])[H])C([H])([H])[H])C([H])(C(=O)N([H])C1([H])c3c([H])c([H])c([H])c([H])c3C([H])([H])C([H])([H])C1([H])[H])C2([H])[H]

>  <smiles>  (31) 
[H]OC(C(=O)N([H])C(c1c([H])c(N([H])[H])c([H])c(N([H])C(=O)C([H])=C([H])C(=O)N2C([H])([H])C([H])([H])C([H])([H])C([H])(n3nc(-c4c([H])c([H])c(Oc5c([H])c([H])c(F)c([H])c5F)c([H])c4[H])c(C(=O)N([H])[H])c3N([H])[H])C2([H])[H])c1[H])=[N+]([H])[H])=C([H])Oc1c([H])c([H])c2c(c1[H])C([H])([H])N(C(=O)C([H])(N([H])C(=O)C([H])(N([H])C([H])([H])[H])C([H])([H])[H])C(C([H])([H])[H])(C([H])([H])[H])C([H])([H])[H])C([H])(C(=O)N([H])C1([H])c3c([H])c([H])c([H])c([H])c3C([H])([H])C([H])([H])C1([H])[H])C2([H])[H]

$$$$
31:0:0
     RDKit          3D

 99103  0  0  1  0  0  0  0  0999 V2000
  -27.8340  -13.1010   17.3270 C   0  0  0  0  0  2  0  0  0  0  0  0
  -28.7150  -14.1510   17.5330 C   0  0  0  0  0  2  0  0  0  0  0  0
  -26.7060  -14.3570   18.8480 C   0  0  0  0  0  2  0  0  0  0  0  0
  -27.2620  -12.9170   18.5720 C   0  0  0  0  0  3  0  0  0  0  0  0
  -28.8550  -14.7250   18.9530 C   0  0  0  0  0  2  0  0  0  0  0  0
  -27.5420  -15.6620   18.7250 C   0  0  0  0  0  3  0  0  0  0  0  0
  -30.3160  -12.3420   20.6640 C   0  0  0  0  0  0  0  0  0  0  0  0
  -30.6270  -14.4060   19.8910 C   0  0  0  0  0  2  0  0  0  0  0  0
  -29.9750  -16.2530   19.9680 C   0  0  0  0  0  1  0  0  0  0  0  0
  -28.0490  -16.5380   21.1790 C   0  0  0  0  0 15  0  0  0  0  0  0
  -27.2510  -14.4440   21.8610 C   0  0  0  0  0  2  0  0  0  0  0  0
  -28.4360  -13.1020   21.8080 C   0  0  0  0  0  2  0  0  0  0  0  0
  -29.7280  -13.2320   20.7270 N   0  0  0  0  0  0  0  0  0  0  0  0
  -31.4760  -12.5220   21.1430 O   0  0  0  0  0  0  0  0  0  0  0  0
  -28.0630  -11.6650   19.3220 C   0  0  0  0  0  0  0  0  0  0  0  0
  -29.4100  -11.4980   19.9350 N   0  0  0  0  0  0  0  0  0  0  0  0
  -27.4410  -10.6010   19.2150 O   0  0  0  0  0  0  0  0  0  0  0  0
  -29.6590  -10.5320   20.0850 H   0  0  0  0  0  0  0  0  0  0  0  0
  -24.7370  -13.8610   21.3460 C   0  0  0  0  0  0  0  0  0  0  0  0
  -23.8970  -12.7620   21.4870 C   0  0  0  0  0  0  0  0  0  0  0  0
  -24.6760  -11.5680   21.4810 C   0  0  0  0  0  0  0  0  0  0  0  0
  -26.0290  -13.4600   21.5010 N   0  0  0  0  0  0  0  0  0  0  0  0
  -25.9440  -12.0150   21.5710 N   0  0  0  0  0  0  0  0  0  0  0  0
  -24.1910  -10.1160   21.5670 C   0  0  0  0  0  0  0  0  0  0  0  0
  -24.5870   -9.1860   22.5480 C   0  0  0  0  0  3  0  0  0  0  0  0
  -24.0320   -7.8840   22.6360 C   0  0  0  0  0  3  0  0  0  0  0  0
  -23.0220   -7.4640   21.7390 C   0  0  0  0  0  0  0  0  0  0  0  0
  -22.6400   -8.3680   20.7350 C   0  0  0  0  0  3  0  0  0  0  0  0
  -23.2080   -9.6640   20.6560 C   0  0  0  0  0  3  0  0  0  0  0  0
  -22.3890   -6.2310   21.7350 O   0  0  0  0  0  0  0  0  0  0  0  0
  -22.1220   -5.5250   22.8920 C   0  0  0  0  0  0  0  0  0  0  0  0
  -21.3720   -6.0410   23.9680 C   0  0  0  0  0  3  0  0  0  0  0  0
  -21.0970   -5.2390   25.0880 C   0  0  0  0  0  3  0  0  0  0  0  0
  -21.5600   -3.9120   25.1400 C   0  0  0  0  0  0  0  0  0  0  0  0
  -22.3190   -3.3980   24.0710 C   0  0  0  0  0  3  0  0  0  0  0  0
  -22.5940   -4.2020   22.9500 C   0  0  0  0  0  0  0  0  0  0  0  0
  -23.3150   -3.6580   21.9340 F   0  0  0  0  0  0  0  0  0  0  0  0
  -21.2910   -3.1510   26.2290 F   0  0  0  0  0  0  0  0  0  0  0  0
  -22.4160  -12.8650   21.6130 C   0  0  0  0  0  0  0  0  0  0  0  0
  -21.7430  -12.0270   22.3990 N   0  0  0  0  0  0  0  0  0  0  0  0
  -21.8390  -13.8150   21.0920 O   0  0  0  0  0  0  0  0  0  0  0  0
  -22.1410  -11.2760   22.9520 H   0  0  0  0  0  0  0  0  0  0  0  0
  -20.7720  -12.2710   22.5720 H   0  0  0  0  0  0  0  0  0  0  0  0
  -24.5330  -15.2370   21.1710 N   0  0  0  0  0  0  0  0  0  0  0  0
  -23.5930  -15.6550   21.0460 H   0  0  0  0  0  0  0  0  0  0  0  0
  -25.2350  -15.9820   21.2010 H   0  0  0  0  0  0  0  0  0  0  0  0
  -31.2870  -15.9120   21.6430 C   0  0  0  0  0  0  0  0  0  0  0  0
  -32.4520  -16.9380   21.4740 C   0  0  0  0  0  2  0  0  0  0  0  0
  -33.2250  -16.2100   20.3890 C   0  0  0  0  0  2  0  0  0  0  0  0
  -32.4590  -14.8820   20.3440 C   0  0  0  0  0  2  0  0  0  0  0  0
  -30.9180  -15.1300   20.4620 N   0  0  1  0  0  4  0  0  0  0  0  0
  -30.9260  -15.7260   22.8320 O   0  0  0  0  0  0  0  0  0  0  0  0
  -27.4690  -19.1060   19.0260 C   0  0  0  0  0  2  0  0  0  0  0  0
  -27.1790  -17.5280   18.5450 N   0  0  0  0  0  0  0  0  0  0  0  0
  -27.5670  -19.1560   20.2570 O   0  0  0  0  0  1  0  0  0  0  0  0
  -26.3020  -17.6040   18.0360 H   0  0  0  0  0  0  0  0  0  0  0  0
  -27.7120  -21.0550   18.4900 C   0  0  0  0  0 15  0  0  0  0  0  0
  -27.3080  -23.1290   18.8090 C   0  0  0  0  0 15  0  0  0  0  0  0
  -27.8100  -24.9920   18.8170 O   0  0  0  0  0  1  0  0  0  0  0  0
  -24.7140  -31.5830   22.5370 C   0  0  0  0  0  0  0  0  0  0  0  0
  -27.1250  -26.4490   19.0670 C   0  0  0  0  0  0  0  0  0  0  0  0
  -23.6040  -30.2580   20.8250 C   0  0  0  0  0  3  0  0  0  0  0  0
  -25.0480  -28.7030   19.2960 C   0  0  0  0  0  0  0  0  0  0  0  0
  -26.2010  -30.3200   20.7590 C   0  0  0  0  0  2  0  0  0  0  0  0
  -26.2560  -28.9160   19.9720 C   0  0  0  0  0  0  0  0  0  0  0  0
  -27.2980  -27.7990   19.8340 C   0  0  0  0  0  3  0  0  0  0  0  0
  -25.9240  -26.5660   18.3660 C   0  0  0  0  0  3  0  0  0  0  0  0
  -24.9360  -27.5730   18.4970 C   0  0  0  0  0  3  0  0  0  0  0  0
  -23.8790  -29.6870   19.4070 C   0  0  0  0  0  2  0  0  0  0  0  0
  -24.8760  -30.7650   21.4270 N   0  0  0  0  0  0  0  0  0  0  0  0
  -23.5920  -31.8270   23.0320 O   0  0  0  0  0  0  0  0  0  0  0  0
  -22.9000  -29.1990   21.7200 C   0  0  0  0  0  0  0  0  0  0  0  0
  -21.5530  -29.1320   21.6930 N   0  0  0  0  0  0  0  0  0  0  0  0
  -23.5780  -28.4330   22.4100 O   0  0  0  0  0  0  0  0  0  0  0  0
  -21.0590  -29.8130   21.1280 H   0  0  0  0  0  0  0  0  0  0  0  0
  -18.1420  -28.1650   22.5390 C   0  0  0  0  0  0  0  0  0  0  0  0
  -20.7260  -28.1410   22.4110 C   0  0  0  0  0  3  0  0  0  0  0  0
  -20.5690  -26.8520   21.5700 C   0  0  0  0  0  2  0  0  0  0  0  0
  -19.2990  -26.8450   20.7170 C   0  0  0  0  0  2  0  0  0  0  0  0
  -18.0550  -26.9760   21.6010 C   0  0  0  0  0  2  0  0  0  0  0  0
  -19.3940  -28.7250   22.9100 C   0  0  0  0  0  0  0  0  0  0  0  0
  -19.4190  -29.8450   23.7690 C   0  0  0  0  0  3  0  0  0  0  0  0
  -18.2230  -30.4010   24.2550 C   0  0  0  0  0  3  0  0  0  0  0  0
  -16.9850  -29.8350   23.8940 C   0  0  0  0  0  3  0  0  0  0  0  0
  -16.9500  -28.7150   23.0430 C   0  0  0  0  0  3  0  0  0  0  0  0
  -25.9180  -32.2680   23.2520 C   0  0  0  0  0  3  0  0  0  0  0  0
  -26.5170  -31.3880   24.4200 C   0  0  1  0  0  0  0  0  0  0  0  0
  -25.4700  -30.9250   25.4650 C   0  0  0  0  0  1  0  0  0  0  0  0
  -27.2070  -30.1260   23.8620 C   0  0  0  0  0  1  0  0  0  0  0  0
  -27.6120  -32.1870   25.1740 C   0  0  0  0  0  1  0  0  0  0  0  0
  -25.4670  -33.5620   23.8130 N   0  0  0  0  0  0  0  0  0  0  0  0
  -25.7290  -34.7710   23.2970 C   0  0  0  0  0  0  0  0  0  0  0  0
  -26.4360  -34.9210   22.2980 O   0  0  0  0  0  0  0  0  0  0  0  0
  -24.8460  -33.5110   24.6050 H   0  0  0  0  0  0  0  0  0  0  0  0
  -23.8930  -36.5070   23.2300 C   0  0  0  0  0  1  0  0  0  0  0  0
  -25.1300  -36.0140   23.9990 C   0  0  0  0  0  3  0  0  0  0  0  0
  -27.1540  -36.8710   25.1050 C   0  0  0  0  0  1  0  0  0  0  0  0
  -26.0850  -37.1350   24.1470 N   0  0  0  0  0  0  0  0  0  0  0  0
  -25.6060  -37.9850   24.4330 H   0  0  0  0  0  0  0  0  0  0  0  0
  1  2  1  0
  1  4  1  0
  2  5  1  0
  4  3  1  0
  4 15  1  0
  6 54  1  0
  6  3  1  0
  6  5  1  0
  7 13  1  0
  7 14  2  0
  8 51  1  0
  8 13  1  0
 51  9  1  6
 12 11  1  0
 13 12  1  0
 15 16  1  0
 16 18  1  0
 16  7  1  0
 17 15  2  0
 19 20  2  0
 19 22  1  0
 20 39  1  0
 21 20  1  0
 21 24  1  0
 21 23  2  0
 22 23  1  0
 22 11  1  0
 24 25  1  0
 25 26  2  0
 27 26  1  0
 28 27  2  0
 29 28  1  0
 29 24  2  0
 30 27  1  0
 30 31  1  0
 31 36  2  0
 31 32  1  0
 32 33  2  0
 33 34  1  0
 34 38  1  0
 35 34  2  0
 36 35  1  0
 37 36  1  0
 39 40  1  0
 40 43  1  0
 40 42  1  0
 41 39  2  0
 44 46  1  0
 44 19  1  0
 45 44  1  0
 47 52  2  0
 48 47  1  0
 49 48  1  0
 50 49  1  0
 50 51  1  0
 51 47  1  0
 53 55  1  0
 54 53  1  0
 56 54  1  0
 59 61  1  0
 60 71  2  0
 61 66  1  0
 62 70  1  0
 62 72  1  0
 63 69  1  0
 63 65  1  0
 64 70  1  0
 65 64  1  0
 66 65  2  0
 67 68  1  0
 67 61  2  0
 68 63  2  0
 69 62  1  0
 70 60  1  0
 72 74  2  0
 73 72  1  0
 75 73  1  0
 76 81  2  0
 76 85  1  0
 77 73  1  0
 77 81  1  0
 78 77  1  0
 79 78  1  0
 79 80  1  0
 80 76  1  0
 81 82  1  0
 82 83  2  0
 84 83  1  0
 85 84  2  0
 86 60  1  0
 86 91  1  0
 86 87  1  0
 87 90  1  1
 87 88  1  0
 89 87  1  0
 91 94  1  0
 92 91  1  0
 92 96  1  0
 93 92  2  0
 96 95  1  0
 96 98  1  0
 98 99  1  0
 98 97  1  0
M  ISO  4   7 100  16 100  58 101  59 101
M  END
>  <TORSDO>  (32) 
F 20

>  <SCORE>  (32) 
-4.381

>  <name>  (32) 
31

>  <ligand_id>  (32) 
31

>  <original_smiles>  (32) 
[H]c1c([H])c([H])c2c(c1[H])C([H])([H])C([H])([H])C([H])([H])C2([H])N([H])C(=O)C1([H])N(C(=O)C([H])(N([H])C(=O)C([H])(N([H])C([H])([H])[H])C([H])([H])[H])C(C([H])([H])[H])(C([H])([H])[H])C([H])([H])[H])C([H])([H])c2c([H])c(OC([H])([H])C([H])([H])C(=O)N([H])c3c([H])c(C(=O)N([H])C(=O)N4C([H])([H])C([H])([H])C([H])([H])C([H])(n5nc(-c6c([H])c([H])c(Oc7c([H])c([H])c(F)c([H])c7F)c([H])c6[H])c(C(=O)N([H])[H])c5N([H])[H])C4([H])[H])c([H])c([H])c3N3C(=O)C([H])([H])C([H])([H])C3([H])[H])c([H])c([H])c2C1([H])[H]

>  <smiles>  (32) 
[H]c1c([H])c([H])c2c(c1[H])C([H])([H])C([H])([H])C([H])([H])C2([H])N([H])C(=O)C1([H])N(C(=O)C([H])(N([H])C(=O)C([H])(N([H])C([H])([H])[H])C([H])([H])[H])C(C([H])([H])[H])(C([H])([H])[H])C([H])([H])[H])C([H])([H])c2c([H])c(OC([H])([H])C([H])([H])C(=O)N([H])c3c([H])c(C(=O)N([H])C(=O)N4C([H])([H])C([H])([H])C([H])([H])C([H])(n5nc(-c6c([H])c([H])c(Oc7c([H])c([H])c(F)c([H])c7F)c([H])c6[H])c(C(=O)N([H])[H])c5N([H])[H])C4([H])[H])c([H])c([H])c3N3C(=O)C([H])([H])C([H])([H])C3([H])[H])c([H])c([H])c2C1([H])[H]

$$$$
32:0:0
     RDKit          3D

 95104  0  0  1  0  0  0  0  0999 V2000
  -30.4040  -22.3820   19.3810 C   0  0  0  0  0  3  0  0  0  0  0  0
  -28.9360  -23.8590   20.3300 C   0  0  0  0  0  0  0  0  0  0  0  0
  -30.0490  -23.7110   19.4450 C   0  0  0  0  0  0  0  0  0  0  0  0
  -28.6710  -22.5550   20.7610 C   0  0  0  0  0  0  0  0  0  0  0  0
  -27.6080  -22.1110   21.7180 C   0  0  0  0  0  1  0  0  0  0  0  0
  -29.5650  -21.6190   20.1800 N   0  0  0  0  0  0  0  0  0  0  0  0
  -30.9010  -19.4660   20.4360 C   0  0  0  0  0  3  0  0  0  0  0  0
  -30.9980  -18.0370   20.5240 C   0  0  0  0  0  3  0  0  0  0  0  0
  -28.5120  -19.3160   20.2760 C   0  0  0  0  0  3  0  0  0  0  0  0
  -29.6550  -20.1540   20.3140 C   0  0  0  0  0  0  0  0  0  0  0  0
  -29.8410  -17.2120   20.4970 C   0  0  0  0  0  0  0  0  0  0  0  0
  -28.6040  -17.8970   20.3720 C   0  0  0  0  0  0  0  0  0  0  0  0
  -27.4670  -17.1630   20.3330 F   0  0  0  0  0  0  0  0  0  0  0  0
  -30.6120  -14.7140   20.3010 C   0  0  0  0  0  0  0  0  0  0  0  0
  -30.4040  -12.4790   19.2210 C   0  0  0  0  0  2  0  0  0  0  0  0
  -29.4450  -12.6180   18.0160 C   0  0  0  0  0  2  0  0  0  0  0  0
  -27.9760  -12.4580   18.4570 C   0  0  0  0  0  2  0  0  0  0  0  0
  -27.6300  -13.3040   19.7110 C   0  0  0  0  0  3  0  0  0  0  0  0
  -28.7020  -13.1340   20.8120 C   0  0  0  0  0  2  0  0  0  0  0  0
  -30.0050  -13.4850   20.2240 N   0  0  0  0  0  0  0  0  0  0  0  0
  -31.7770  -14.8800   19.9240 O   0  0  0  0  0  0  0  0  0  0  0  0
  -29.7840  -15.7520   20.6380 N   0  0  0  0  0  0  0  0  0  0  0  0
  -28.8560  -15.4270   20.8660 H   0  0  0  0  0  0  0  0  0  0  0  0
  -25.2360  -13.8990   20.4330 C   0  0  0  0  0  0  0  0  0  0  0  0
  -24.1730  -13.1250   20.8090 C   0  0  0  0  0  0  0  0  0  0  0  0
  -24.6400  -11.7760   20.7870 C   0  0  0  0  0  0  0  0  0  0  0  0
  -26.2840  -13.0220   20.2040 N   0  0  0  0  0  0  0  0  0  0  0  0
  -25.9310  -11.7390   20.4770 N   0  0  0  0  0  0  0  0  0  0  0  0
  -23.9180  -10.5140   20.9890 C   0  0  0  0  0  0  0  0  0  0  0  0
  -24.3510   -9.5570   21.9320 C   0  0  0  0  0  3  0  0  0  0  0  0
  -23.6260   -8.3600   22.1210 C   0  0  0  0  0  3  0  0  0  0  0  0
  -22.4570   -8.1110   21.3650 C   0  0  0  0  0  0  0  0  0  0  0  0
  -22.0420   -9.0580   20.4110 C   0  0  0  0  0  3  0  0  0  0  0  0
  -22.7670  -10.2470   20.2210 C   0  0  0  0  0  3  0  0  0  0  0  0
  -21.7050   -6.9640   21.4620 O   0  0  0  0  0  0  0  0  0  0  0  0
  -21.6530   -6.2350   22.6220 C   0  0  0  0  0  0  0  0  0  0  0  0
  -21.2120   -6.8010   23.8380 C   0  0  0  0  0  3  0  0  0  0  0  0
  -21.1040   -5.9970   24.9910 C   0  0  0  0  0  3  0  0  0  0  0  0
  -21.4290   -4.6290   24.9280 C   0  0  0  0  0  0  0  0  0  0  0  0
  -21.8630   -4.0620   23.7180 C   0  0  0  0  0  3  0  0  0  0  0  0
  -21.9710   -4.8620   22.5670 C   0  0  0  0  0  0  0  0  0  0  0  0
  -22.3690   -4.3070   21.3970 F   0  0  0  0  0  0  0  0  0  0  0  0
  -21.3190   -3.8550   26.0340 F   0  0  0  0  0  0  0  0  0  0  0  0
  -22.7770  -13.6030   21.0830 C   0  0  0  0  0  0  0  0  0  0  0  0
  -22.0510  -12.9130   21.9560 N   0  0  0  0  0  0  0  0  0  0  0  0
  -22.3360  -14.6260   20.5600 O   0  0  0  0  0  0  0  0  0  0  0  0
  -22.4190  -12.0870   22.4050 H   0  0  0  0  0  0  0  0  0  0  0  0
  -21.1140  -13.2180   22.1800 H   0  0  0  0  0  0  0  0  0  0  0  0
  -25.3870  -15.2690   20.2530 N   0  0  0  0  0  0  0  0  0  0  0  0
  -24.6140  -15.9090   20.3920 H   0  0  0  0  0  0  0  0  0  0  0  0
  -26.2530  -15.7540   20.0430 H   0  0  0  0  0  0  0  0  0  0  0  0
  -30.6670  -24.7160   18.7630 O   0  0  0  0  0  0  0  0  0  0  0  0
  -31.3740  -24.4130   18.2020 H   0  0  0  0  0  0  0  0  0  0  0  0
  -28.1540  -25.1630   20.7710 C   0  0  0  0  0  2  0  0  0  0  0  0
  -28.3910  -26.4980   20.1640 O   0  0  0  0  0  0  0  0  0  0  0  0
  -24.6450  -31.8930   23.2190 C   0  0  0  0  0  0  0  0  0  0  0  0
  -27.2840  -27.3610   20.1500 C   0  0  0  0  0  0  0  0  0  0  0  0
  -23.4460  -30.4870   21.5820 C   0  0  0  0  0  3  0  0  0  0  0  0
  -24.9050  -28.9500   20.1500 C   0  0  0  0  0  0  0  0  0  0  0  0
  -25.9820  -30.8260   21.3900 C   0  0  0  0  0  2  0  0  0  0  0  0
  -26.0730  -29.4490   20.7420 C   0  0  0  0  0  0  0  0  0  0  0  0
  -27.2690  -28.6690   20.7300 C   0  0  0  0  0  3  0  0  0  0  0  0
  -26.0960  -26.9190   19.5270 C   0  0  0  0  0  3  0  0  0  0  0  0
  -24.9180  -27.6900   19.5330 C   0  0  0  0  0  3  0  0  0  0  0  0
  -23.6600  -29.8110   20.2020 C   0  0  0  0  0  2  0  0  0  0  0  0
  -24.7090  -31.0850   22.1210 N   0  0  0  0  0  0  0  0  0  0  0  0
  -23.5620  -32.1640   23.7580 O   0  0  0  0  0  0  0  0  0  0  0  0
  -22.7930  -29.4650   22.5450 C   0  0  0  0  0  0  0  0  0  0  0  0
  -21.4670  -29.2840   22.4250 N   0  0  0  0  0  0  0  0  0  0  0  0
  -23.4780  -28.8390   23.3570 O   0  0  0  0  0  0  0  0  0  0  0  0
  -20.9730  -29.8400   21.7400 H   0  0  0  0  0  0  0  0  0  0  0  0
  -18.0950  -28.0820   22.9440 C   0  0  0  0  0  0  0  0  0  0  0  0
  -20.6540  -28.3430   23.1970 C   0  0  0  0  0  3  0  0  0  0  0  0
  -20.7550  -26.9140   22.6160 C   0  0  0  0  0  2  0  0  0  0  0  0
  -19.6460  -26.5930   21.6090 C   0  0  0  0  0  2  0  0  0  0  0  0
  -18.2690  -26.7340   22.2630 C   0  0  0  0  0  2  0  0  0  0  0  0
  -19.2160  -28.8440   23.3690 C   0  0  0  0  0  0  0  0  0  0  0  0
  -18.9990  -30.1040   23.9670 C   0  0  0  0  0  3  0  0  0  0  0  0
  -17.6950  -30.6030   24.1450 C   0  0  0  0  0  3  0  0  0  0  0  0
  -16.5890  -29.8370   23.7360 C   0  0  0  0  0  3  0  0  0  0  0  0
  -16.7890  -28.5780   23.1420 C   0  0  0  0  0  3  0  0  0  0  0  0
  -25.9260  -32.5330   23.8380 C   0  0  0  0  0  3  0  0  0  0  0  0
  -26.4530  -31.7620   25.1090 C   0  0  1  0  0  0  0  0  0  0  0  0
  -25.3670  -31.5160   26.1830 C   0  0  0  0  0  1  0  0  0  0  0  0
  -27.0420  -30.3880   24.7110 C   0  0  0  0  0  1  0  0  0  0  0  0
  -27.6040  -32.5600   25.7670 C   0  0  0  0  0  1  0  0  0  0  0  0
  -25.6090  -33.9280   24.1740 N   0  0  0  0  0  0  0  0  0  0  0  0
  -25.9290  -34.9870   23.4180 C   0  0  0  0  0  0  0  0  0  0  0  0
  -26.5940  -34.8910   22.3820 O   0  0  0  0  0  0  0  0  0  0  0  0
  -25.0160  -34.0760   24.9780 H   0  0  0  0  0  0  0  0  0  0  0  0
  -24.1890  -36.7710   23.0760 C   0  0  0  0  0  1  0  0  0  0  0  0
  -25.4340  -36.3690   23.8830 C   0  0  0  0  0  3  0  0  0  0  0  0
  -27.5660  -37.2630   24.7100 C   0  0  0  0  0  1  0  0  0  0  0  0
  -26.4590  -37.4310   23.7730 N   0  0  0  0  0  0  0  0  0  0  0  0
  -26.0470  -38.3450   23.9310 H   0  0  0  0  0  0  0  0  0  0  0  0
  1  3  2  0
  1  6  1  0
  2  4  2  0
  2 54  1  0
  3  2  1  0
  4  5  1  0
  6 10  1  0
  6  4  1  0
  7  8  1  0
  9 10  1  0
  9 12  2  0
 10  7  2  0
 11  8  2  0
 11 22  1  0
 12 11  1  0
 13 12  1  0
 14 22  1  0
 15 20  1  0
 16 17  1  0
 16 15  1  0
 18 17  1  0
 18 27  1  0
 18 19  1  0
 20 14  1  0
 20 19  1  0
 21 14  2  0
 22 23  1  0
 24 25  2  0
 25 44  1  0
 26 25  1  0
 26 29  1  0
 27 24  1  0
 27 28  1  0
 28 26  2  0
 29 30  1  0
 30 31  2  0
 32 35  1  0
 32 31  1  0
 33 32  2  0
 34 33  1  0
 34 29  2  0
 35 36  1  0
 36 37  1  0
 37 38  2  0
 39 38  1  0
 39 43  1  0
 40 39  2  0
 41 36  2  0
 41 40  1  0
 42 41  1  0
 44 45  1  0
 45 48  1  0
 45 47  1  0
 46 44  2  0
 49 50  1  0
 49 24  1  0
 51 49  1  0
 52  3  1  0
 53 52  1  0
 55 54  1  0
 56 67  2  0
 57 55  1  0
 57 62  1  0
 58 66  1  0
 58 68  1  0
 59 65  1  0
 59 61  1  0
 60 66  1  0
 61 60  1  0
 62 61  2  0
 63 64  1  0
 63 57  2  0
 64 59  2  0
 65 58  1  0
 66 56  1  0
 68 70  2  0
 69 68  1  0
 71 69  1  0
 72 81  2  0
 72 77  1  0
 73 69  1  0
 73 77  1  0
 74 73  1  0
 75 76  1  0
 75 74  1  0
 76 72  1  0
 77 78  2  0
 78 79  1  0
 80 79  2  0
 81 80  1  0
 82 56  1  0
 82 87  1  0
 82 83  1  0
 83 86  1  1
 83 84  1  0
 85 83  1  0
 87 90  1  0
 88 92  1  0
 88 87  1  0
 89 88  2  0
 92 91  1  0
 94 92  1  0
 94 95  1  0
 94 93  1  0
M  ISO  4  14 100  22 100  54 101  55 101
M  END
>  <TORSDO>  (33) 
F 19

>  <SCORE>  (33) 
-14.726

>  <name>  (33) 
32

>  <ligand_id>  (33) 
32

>  <original_smiles>  (33) 
[H]Oc1c(C([H])([H])Oc2c([H])c([H])c3c(c2[H])C([H])([H])N(C(=O)C([H])(N([H])C(=O)C([H])(N([H])C([H])([H])[H])C([H])([H])[H])C(C([H])([H])[H])(C([H])([H])[H])C([H])([H])[H])C([H])(C(=O)N([H])C2([H])c4c([H])c([H])c([H])c([H])c4C([H])([H])C([H])([H])C2([H])[H])C3([H])[H])c(C([H])([H])[H])n(-c2c([H])c([H])c(N([H])C(=O)N3C([H])([H])C([H])([H])C([H])([H])C([H])(n4nc(-c5c([H])c([H])c(Oc6c([H])c([H])c(F)c([H])c6F)c([H])c5[H])c(C(=O)N([H])[H])c4N([H])[H])C3([H])[H])c(F)c2[H])c1[H]

>  <smiles>  (33) 
[H]Oc1c(C([H])([H])Oc2c([H])c([H])c3c(c2[H])C([H])([H])N(C(=O)C([H])(N([H])C(=O)C([H])(N([H])C([H])([H])[H])C([H])([H])[H])C(C([H])([H])[H])(C([H])([H])[H])C([H])([H])[H])C([H])(C(=O)N([H])C2([H])c4c([H])c([H])c([H])c([H])c4C([H])([H])C([H])([H])C2([H])[H])C3([H])[H])c(C([H])([H])[H])n(-c2c([H])c([H])c(N([H])C(=O)N3C([H])([H])C([H])([H])C([H])([H])C([H])(n4nc(-c5c([H])c([H])c(Oc6c([H])c([H])c(F)c([H])c6F)c([H])c5[H])c(C(=O)N([H])[H])c4N([H])[H])C3([H])[H])c(F)c2[H])c1[H]

$$$$
33:0:0
     RDKit          3D

 96105  0  0  1  0  0  0  0  0999 V2000
  -28.7380  -23.6750   21.6860 C   0  0  0  0  0  3  0  0  0  0  0  0
  -28.9400  -22.5280   19.7970 C   0  0  0  0  0  3  0  0  0  0  0  0
  -28.6980  -23.8240   20.2670 C   0  0  0  0  0  0  0  0  0  0  0  0
  -29.0030  -22.3610   21.9910 C   0  0  0  0  0  0  0  0  0  0  0  0
  -29.1510  -21.5960   20.8400 N   0  0  0  0  0  0  0  0  0  0  0  0
  -28.4560  -19.2610   20.2250 C   0  0  0  0  0  3  0  0  0  0  0  0
  -28.6760  -17.8550   20.1340 C   0  0  0  0  0  3  0  0  0  0  0  0
  -30.8370  -18.1020   21.1480 C   0  0  0  0  0  3  0  0  0  0  0  0
  -29.4200  -20.1470   20.7670 C   0  0  0  0  0  0  0  0  0  0  0  0
  -29.8780  -17.2240   20.5660 C   0  0  0  0  0  0  0  0  0  0  0  0
  -30.6210  -19.5210   21.2450 C   0  0  0  0  0  0  0  0  0  0  0  0
  -30.8240  -14.7940   20.7980 C   0  0  0  0  0  0  0  0  0  0  0  0
  -30.7180  -12.4450   19.9780 C   0  0  0  0  0  2  0  0  0  0  0  0
  -29.8810  -12.3660   18.6780 C   0  0  0  0  0  2  0  0  0  0  0  0
  -28.3720  -12.2900   18.9840 C   0  0  0  0  0  2  0  0  0  0  0  0
  -27.8980  -13.2560   20.1060 C   0  0  0  0  0  3  0  0  0  0  0  0
  -28.8650  -13.2670   21.3070 C   0  0  0  0  0  2  0  0  0  0  0  0
  -30.2010  -13.5690   20.7810 N   0  0  0  0  0  0  0  0  0  0  0  0
  -32.0570  -14.8580   20.8050 O   0  0  0  0  0  0  0  0  0  0  0  0
  -30.1590  -15.7200   18.6950 C   0  0  0  0  0  1  0  0  0  0  0  0
  -30.1230  -15.8220   20.1680 N   0  0  0  0  0  0  0  0  0  0  0  0
  -25.4640  -13.8720   20.6280 C   0  0  0  0  0  0  0  0  0  0  0  0
  -24.3680  -13.1080   20.9230 C   0  0  0  0  0  0  0  0  0  0  0  0
  -24.8310  -11.7580   20.9670 C   0  0  0  0  0  0  0  0  0  0  0  0
  -26.5210  -12.9870   20.5040 N   0  0  0  0  0  0  0  0  0  0  0  0
  -26.1430  -11.7120   20.7780 N   0  0  0  0  0  0  0  0  0  0  0  0
  -24.0910  -10.4990   21.1230 C   0  0  0  0  0  0  0  0  0  0  0  0
  -24.4580   -9.5430   22.0950 C   0  0  0  0  0  3  0  0  0  0  0  0
  -23.7190   -8.3490   22.2390 C   0  0  0  0  0  3  0  0  0  0  0  0
  -22.6000   -8.1030   21.4080 C   0  0  0  0  0  0  0  0  0  0  0  0
  -22.2550   -9.0470   20.4250 C   0  0  0  0  0  3  0  0  0  0  0  0
  -22.9940  -10.2330   20.2800 C   0  0  0  0  0  3  0  0  0  0  0  0
  -21.8390   -6.9600   21.4590 O   0  0  0  0  0  0  0  0  0  0  0  0
  -21.7150   -6.2300   22.6120 C   0  0  0  0  0  0  0  0  0  0  0  0
  -21.1990   -6.7910   23.8000 C   0  0  0  0  0  3  0  0  0  0  0  0
  -21.0250   -5.9850   24.9430 C   0  0  0  0  0  3  0  0  0  0  0  0
  -21.3580   -4.6180   24.8980 C   0  0  0  0  0  0  0  0  0  0  0  0
  -21.8680   -4.0560   23.7150 C   0  0  0  0  0  3  0  0  0  0  0  0
  -22.0430   -4.8590   22.5750 C   0  0  0  0  0  0  0  0  0  0  0  0
  -22.5140   -4.3070   21.4300 F   0  0  0  0  0  0  0  0  0  0  0  0
  -21.1840   -3.8410   25.9930 F   0  0  0  0  0  0  0  0  0  0  0  0
  -22.9540  -13.5910   21.0610 C   0  0  0  0  0  0  0  0  0  0  0  0
  -22.1560  -12.9230   21.8860 N   0  0  0  0  0  0  0  0  0  0  0  0
  -22.5620  -14.5990   20.4740 O   0  0  0  0  0  0  0  0  0  0  0  0
  -22.4830  -12.1090   22.3870 H   0  0  0  0  0  0  0  0  0  0  0  0
  -21.2040  -13.2310   22.0240 H   0  0  0  0  0  0  0  0  0  0  0  0
  -25.6470  -15.2370   20.4300 N   0  0  0  0  0  0  0  0  0  0  0  0
  -24.8820  -15.9010   20.4670 H   0  0  0  0  0  0  0  0  0  0  0  0
  -26.5360  -15.6640   20.2000 H   0  0  0  0  0  0  0  0  0  0  0  0
  -31.6360  -20.3030   21.7980 N   0  0  0  0  0  0  0  0  0  0  0  0
  -32.2870  -19.8430   22.4270 H   0  0  0  0  0  0  0  0  0  0  0  0
  -31.3270  -21.2010   22.1630 H   0  0  0  0  0  0  0  0  0  0  0  0
  -29.1060  -21.7890   23.2200 O   0  0  0  0  0  0  0  0  0  0  0  0
  -28.8830  -22.4510   23.8670 H   0  0  0  0  0  0  0  0  0  0  0  0
  -28.4440  -25.1370   19.4270 C   0  0  0  0  0  2  0  0  0  0  0  0
  -28.3400  -26.4680   20.0850 O   0  0  0  0  0  0  0  0  0  0  0  0
  -24.5370  -31.8150   23.0960 C   0  0  0  0  0  0  0  0  0  0  0  0
  -27.1920  -27.2810   20.0140 C   0  0  0  0  0  0  0  0  0  0  0  0
  -23.3450  -30.4110   21.4530 C   0  0  0  0  0  3  0  0  0  0  0  0
  -24.8080  -28.8800   20.0180 C   0  0  0  0  0  0  0  0  0  0  0  0
  -25.8840  -30.7520   21.2680 C   0  0  0  0  0  2  0  0  0  0  0  0
  -25.9730  -29.3760   20.6130 C   0  0  0  0  0  0  0  0  0  0  0  0
  -27.1640  -28.5870   20.6020 C   0  0  0  0  0  3  0  0  0  0  0  0
  -25.9900  -26.8330   19.4150 C   0  0  0  0  0  3  0  0  0  0  0  0
  -24.8190  -27.6150   19.4130 C   0  0  0  0  0  3  0  0  0  0  0  0
  -23.5630  -29.7440   20.0690 C   0  0  0  0  0  2  0  0  0  0  0  0
  -24.6080  -31.0110   21.9940 N   0  0  0  0  0  0  0  0  0  0  0  0
  -23.4510  -32.0800   23.6310 O   0  0  0  0  0  0  0  0  0  0  0  0
  -22.6950  -29.3840   22.4100 C   0  0  0  0  0  0  0  0  0  0  0  0
  -21.3710  -29.1920   22.2840 N   0  0  0  0  0  0  0  0  0  0  0  0
  -23.3810  -28.7620   23.2270 O   0  0  0  0  0  0  0  0  0  0  0  0
  -20.8770  -29.7460   21.5990 H   0  0  0  0  0  0  0  0  0  0  0  0
  -18.0080  -27.9540   22.7810 C   0  0  0  0  0  0  0  0  0  0  0  0
  -20.5620  -28.2450   23.0530 C   0  0  0  0  0  3  0  0  0  0  0  0
  -20.6830  -26.8160   22.4770 C   0  0  0  0  0  2  0  0  0  0  0  0
  -19.5860  -26.4790   21.4620 C   0  0  0  0  0  2  0  0  0  0  0  0
  -18.2020  -26.6070   22.1050 C   0  0  0  0  0  2  0  0  0  0  0  0
  -19.1170  -28.7300   23.2110 C   0  0  0  0  0  0  0  0  0  0  0  0
  -18.8820  -29.9890   23.8050 C   0  0  0  0  0  3  0  0  0  0  0  0
  -17.5710  -30.4740   23.9700 C   0  0  0  0  0  3  0  0  0  0  0  0
  -16.4760  -29.6970   23.5540 C   0  0  0  0  0  3  0  0  0  0  0  0
  -16.6950  -28.4390   22.9650 C   0  0  0  0  0  3  0  0  0  0  0  0
  -25.8130  -32.4590   23.7190 C   0  0  0  0  0  3  0  0  0  0  0  0
  -26.3540  -31.6760   24.9770 C   0  0  1  0  0  0  0  0  0  0  0  0
  -25.2750  -31.4020   26.0520 C   0  0  0  0  0  1  0  0  0  0  0  0
  -26.9540  -30.3130   24.5590 C   0  0  0  0  0  1  0  0  0  0  0  0
  -27.4990  -32.4760   25.6400 C   0  0  0  0  0  1  0  0  0  0  0  0
  -25.4810  -33.8460   24.0780 N   0  0  0  0  0  0  0  0  0  0  0  0
  -25.8050  -34.9210   23.3470 C   0  0  0  0  0  0  0  0  0  0  0  0
  -26.4860  -34.8510   22.3200 O   0  0  0  0  0  0  0  0  0  0  0  0
  -24.8780  -33.9740   24.8780 H   0  0  0  0  0  0  0  0  0  0  0  0
  -24.0690  -36.7090   23.0030 C   0  0  0  0  0  1  0  0  0  0  0  0
  -25.2950  -36.2920   23.8320 C   0  0  0  0  0  3  0  0  0  0  0  0
  -27.3990  -37.1720   24.7420 C   0  0  0  0  0  1  0  0  0  0  0  0
  -26.3210  -37.3560   23.7740 N   0  0  0  0  0  0  0  0  0  0  0  0
  -25.9030  -38.2690   23.9350 H   0  0  0  0  0  0  0  0  0  0  0  0
  1  4  2  0
  2  3  2  0
  2  5  1  0
  3  1  1  0
  4 53  1  0
  5  4  1  0
  6  9  1  0
  7  6  2  0
  7 10  1  0
  8 11  1  0
  9  5  1  0
  9 11  2  0
 10  8  2  0
 11 50  1  0
 12 19  2  0
 13 18  1  0
 14 15  1  0
 14 13  1  0
 16 15  1  0
 16 25  1  0
 16 17  1  0
 18 12  1  0
 18 17  1  0
 20 21  1  0
 21 10  1  0
 21 12  1  0
 22 23  2  0
 23 24  1  0
 23 42  1  0
 24 27  1  0
 25 22  1  0
 25 26  1  0
 26 24  2  0
 27 28  1  0
 28 29  2  0
 30 33  1  0
 30 29  1  0
 31 30  2  0
 32 31  1  0
 32 27  2  0
 33 34  1  0
 34 35  1  0
 35 36  2  0
 37 36  1  0
 37 41  1  0
 38 37  2  0
 39 34  2  0
 39 38  1  0
 40 39  1  0
 42 43  1  0
 43 46  1  0
 43 45  1  0
 44 42  2  0
 47 48  1  0
 47 22  1  0
 49 47  1  0
 50 52  1  0
 50 51  1  0
 53 54  1  0
 55 56  1  0
 55  3  1  0
 57 68  2  0
 58 56  1  0
 58 63  1  0
 59 67  1  0
 59 69  1  0
 60 66  1  0
 60 62  1  0
 61 67  1  0
 62 61  1  0
 63 62  2  0
 64 58  2  0
 65 64  1  0
 65 60  2  0
 66 59  1  0
 67 57  1  0
 69 71  2  0
 70 69  1  0
 72 70  1  0
 73 82  2  0
 73 78  1  0
 74 70  1  0
 74 78  1  0
 75 74  1  0
 76 77  1  0
 76 75  1  0
 77 73  1  0
 78 79  2  0
 79 80  1  0
 81 80  2  0
 82 81  1  0
 83 57  1  0
 83 88  1  0
 83 84  1  0
 84 87  1  1
 84 85  1  0
 86 84  1  0
 88 91  1  0
 89 93  1  0
 89 88  1  0
 90 89  2  0
 93 92  1  0
 95 93  1  0
 95 96  1  0
 95 94  1  0
M  ISO  4  12 100  21 100  55 101  56 101
M  END
>  <TORSDO>  (34) 
F 20

>  <SCORE>  (34) 
-14.570

>  <name>  (34) 
33

>  <ligand_id>  (34) 
33

>  <original_smiles>  (34) 
[H]Oc1c([H])c(C([H])([H])Oc2c([H])c([H])c3c(c2[H])C([H])([H])N(C(=O)C([H])(N([H])C(=O)C([H])(N([H])C([H])([H])[H])C([H])([H])[H])C(C([H])([H])[H])(C([H])([H])[H])C([H])([H])[H])C([H])(C(=O)N([H])C2([H])c4c([H])c([H])c([H])c([H])c4C([H])([H])C([H])([H])C2([H])[H])C3([H])[H])c([H])n1-c1c([H])c([H])c(N(C(=O)N2C([H])([H])C([H])([H])C([H])([H])C([H])(n3nc(-c4c([H])c([H])c(Oc5c([H])c([H])c(F)c([H])c5F)c([H])c4[H])c(C(=O)N([H])[H])c3N([H])[H])C2([H])[H])C([H])([H])[H])c([H])c1N([H])[H]

>  <smiles>  (34) 
[H]Oc1c([H])c(C([H])([H])Oc2c([H])c([H])c3c(c2[H])C([H])([H])N(C(=O)C([H])(N([H])C(=O)C([H])(N([H])C([H])([H])[H])C([H])([H])[H])C(C([H])([H])[H])(C([H])([H])[H])C([H])([H])[H])C([H])(C(=O)N([H])C2([H])c4c([H])c([H])c([H])c([H])c4C([H])([H])C([H])([H])C2([H])[H])C3([H])[H])c([H])n1-c1c([H])c([H])c(N(C(=O)N2C([H])([H])C([H])([H])C([H])([H])C([H])(n3nc(-c4c([H])c([H])c(Oc5c([H])c([H])c(F)c([H])c5F)c([H])c4[H])c(C(=O)N([H])[H])c3N([H])[H])C2([H])[H])C([H])([H])[H])c([H])c1N([H])[H]

$$$$
34:0:0
     RDKit          3D

 92100  0  0  1  0  0  0  0  0999 V2000
  -28.5930  -19.1430   20.7550 C   0  0  0  0  0  3  0  0  0  0  0  0
  -28.3270  -20.5620   20.6920 C   0  0  0  0  0  0  0  0  0  0  0  0
  -29.7720  -18.8840   20.0870 C   0  0  0  0  0  0  0  0  0  0  0  0
  -29.3310  -21.2090   20.0230 C   0  0  0  0  0  0  0  0  0  0  0  0
  -30.2200  -20.1710   19.6310 O   0  0  0  0  0  0  0  0  0  0  0  0
  -27.2150  -21.1500   21.1950 F   0  0  0  0  0  0  0  0  0  0  0  0
  -30.9290  -15.0480   19.9710 C   0  0  0  0  0  0  0  0  0  0  0  0
  -30.6780  -12.7130   19.0730 C   0  0  0  0  0  2  0  0  0  0  0  0
  -29.7210  -12.7170   17.8630 C   0  0  0  0  0  2  0  0  0  0  0  0
  -28.2630  -12.5550   18.3310 C   0  0  0  0  0  2  0  0  0  0  0  0
  -27.9160  -13.4920   19.5180 C   0  0  0  0  0  3  0  0  0  0  0  0
  -28.9990  -13.4880   20.6170 C   0  0  0  0  0  2  0  0  0  0  0  0
  -30.2710  -13.8270   19.9720 N   0  0  0  0  0  0  0  0  0  0  0  0
  -32.1240  -15.0320   19.6580 O   0  0  0  0  0  0  0  0  0  0  0  0
  -30.6300  -17.5780   19.8820 C   0  0  0  0  0  0  0  0  0  0  0  0
  -30.2100  -16.2540   20.1190 N   0  0  0  0  0  0  0  0  0  0  0  0
  -31.7630  -17.8010   19.4450 O   0  0  0  0  0  0  0  0  0  0  0  0
  -29.2500  -16.1610   20.4010 H   0  0  0  0  0  0  0  0  0  0  0  0
  -25.5680  -14.1170   20.3300 C   0  0  0  0  0  0  0  0  0  0  0  0
  -24.5010  -13.3600   20.7290 C   0  0  0  0  0  0  0  0  0  0  0  0
  -24.9410  -12.0010   20.6800 C   0  0  0  0  0  0  0  0  0  0  0  0
  -26.5870  -13.2210   20.0560 N   0  0  0  0  0  0  0  0  0  0  0  0
  -26.2210  -11.9430   20.3340 N   0  0  0  0  0  0  0  0  0  0  0  0
  -24.1970  -10.7520   20.8860 C   0  0  0  0  0  0  0  0  0  0  0  0
  -24.6110   -9.7940   21.8390 C   0  0  0  0  0  3  0  0  0  0  0  0
  -23.8700   -8.6100   22.0320 C   0  0  0  0  0  3  0  0  0  0  0  0
  -22.6990   -8.3740   21.2740 C   0  0  0  0  0  0  0  0  0  0  0  0
  -22.3040   -9.3190   20.3100 C   0  0  0  0  0  3  0  0  0  0  0  0
  -23.0470  -10.4960   20.1140 C   0  0  0  0  0  3  0  0  0  0  0  0
  -21.9290   -7.2410   21.3760 O   0  0  0  0  0  0  0  0  0  0  0  0
  -21.8410   -6.5340   22.5480 C   0  0  0  0  0  0  0  0  0  0  0  0
  -21.3520   -7.1180   23.7370 C   0  0  0  0  0  3  0  0  0  0  0  0
  -21.2120   -6.3350   24.9000 C   0  0  0  0  0  3  0  0  0  0  0  0
  -21.5540   -4.9690   24.8760 C   0  0  0  0  0  0  0  0  0  0  0  0
  -22.0370   -4.3850   23.6920 C   0  0  0  0  0  3  0  0  0  0  0  0
  -22.1770   -5.1650   22.5300 C   0  0  0  0  0  0  0  0  0  0  0  0
  -22.6220   -4.5910   21.3860 F   0  0  0  0  0  0  0  0  0  0  0  0
  -21.4130   -4.2150   25.9910 F   0  0  0  0  0  0  0  0  0  0  0  0
  -23.1210  -13.8600   21.0390 C   0  0  0  0  0  0  0  0  0  0  0  0
  -22.4110  -13.1810   21.9310 N   0  0  0  0  0  0  0  0  0  0  0  0
  -22.6850  -14.8900   20.5250 O   0  0  0  0  0  0  0  0  0  0  0  0
  -22.7800  -12.3460   22.3620 H   0  0  0  0  0  0  0  0  0  0  0  0
  -21.4860  -13.4970   22.1880 H   0  0  0  0  0  0  0  0  0  0  0  0
  -25.7500  -15.4850   20.1480 N   0  0  0  0  0  0  0  0  0  0  0  0
  -24.9870  -16.1440   20.2630 H   0  0  0  0  0  0  0  0  0  0  0  0
  -26.5660  -15.9000   19.7170 H   0  0  0  0  0  0  0  0  0  0  0  0
  -28.9100  -23.7790   20.1820 C   0  0  0  0  0  0  0  0  0  0  0  0
  -29.4080  -22.5790   19.6460 N   0  0  0  0  0  0  0  0  0  0  0  0
  -28.4220  -23.8040   21.3140 O   0  0  0  0  0  0  0  0  0  0  0  0
  -29.9180  -22.7230   18.7850 H   0  0  0  0  0  0  0  0  0  0  0  0
  -28.9710  -25.1830   19.3570 C   0  0  0  0  0  2  0  0  0  0  0  0
  -28.7840  -26.5390   20.0380 O   0  0  0  0  0  0  0  0  0  0  0  0
  -24.6770  -31.7240   23.0980 C   0  0  0  0  0  0  0  0  0  0  0  0
  -27.6360  -27.3810   19.9340 C   0  0  0  0  0  0  0  0  0  0  0  0
  -23.6110  -30.3320   21.3630 C   0  0  0  0  0  3  0  0  0  0  0  0
  -25.1910  -28.9250   19.9100 C   0  0  0  0  0  0  0  0  0  0  0  0
  -26.1390  -30.7820   21.2780 C   0  0  0  0  0  2  0  0  0  0  0  0
  -26.3160  -29.4330   20.5700 C   0  0  0  0  0  0  0  0  0  0  0  0
  -27.5350  -28.6730   20.5720 C   0  0  0  0  0  3  0  0  0  0  0  0
  -26.4810  -26.9550   19.2430 C   0  0  0  0  0  3  0  0  0  0  0  0
  -25.2820  -27.6980   19.2370 C   0  0  0  0  0  3  0  0  0  0  0  0
  -23.9050  -29.7290   19.9620 C   0  0  0  0  0  2  0  0  0  0  0  0
  -24.8270  -30.9650   21.9700 N   0  0  0  0  0  0  0  0  0  0  0  0
  -23.5610  -31.9130   23.6060 O   0  0  0  0  0  0  0  0  0  0  0  0
  -22.9760  -29.2400   22.2590 C   0  0  0  0  0  0  0  0  0  0  0  0
  -21.6570  -29.0250   22.1160 N   0  0  0  0  0  0  0  0  0  0  0  0
  -23.6730  -28.5920   23.0450 O   0  0  0  0  0  0  0  0  0  0  0  0
  -21.1490  -29.6020   21.4610 H   0  0  0  0  0  0  0  0  0  0  0  0
  -18.3170  -27.7090   22.5800 C   0  0  0  0  0  0  0  0  0  0  0  0
  -20.8730  -28.0120   22.8260 C   0  0  0  0  0  3  0  0  0  0  0  0
  -20.9970  -26.6300   22.1430 C   0  0  0  0  0  2  0  0  0  0  0  0
  -19.8860  -26.3580   21.1250 C   0  0  0  0  0  2  0  0  0  0  0  0
  -18.5130  -26.4190   21.8000 C   0  0  0  0  0  2  0  0  0  0  0  0
  -19.4250  -28.4640   23.0490 C   0  0  0  0  0  0  0  0  0  0  0  0
  -19.1870  -29.6710   23.7420 C   0  0  0  0  0  3  0  0  0  0  0  0
  -17.8730  -30.1250   23.9680 C   0  0  0  0  0  3  0  0  0  0  0  0
  -16.7790  -29.3660   23.5130 C   0  0  0  0  0  3  0  0  0  0  0  0
  -17.0030  -28.1600   22.8260 C   0  0  0  0  0  3  0  0  0  0  0  0
  -25.8970  -32.4050   23.7880 C   0  0  0  0  0  3  0  0  0  0  0  0
  -25.5060  -33.7830   24.1260 N   0  0  0  0  0  0  0  0  0  0  0  0
  -25.8170  -34.8660   23.4000 C   0  0  0  0  0  0  0  0  0  0  0  0
  -26.5300  -34.8120   22.3940 O   0  0  0  0  0  0  0  0  0  0  0  0
  -24.8720  -33.8940   24.9040 H   0  0  0  0  0  0  0  0  0  0  0  0
  -24.0120  -36.5760   23.0210 C   0  0  0  0  0  1  0  0  0  0  0  0
  -25.2480  -36.2210   23.8620 C   0  0  0  0  0  3  0  0  0  0  0  0
  -27.3040  -37.2060   24.7770 C   0  0  0  0  0  1  0  0  0  0  0  0
  -26.2300  -37.3250   23.7930 N   0  0  0  0  0  0  0  0  0  0  0  0
  -25.7730  -38.2230   23.9290 H   0  0  0  0  0  0  0  0  0  0  0  0
  -26.3880  -31.6420   25.0790 C   0  0  1  0  0  0  0  0  0  0  0  0
  -25.2570  -31.3400   26.0910 C   0  0  0  0  0  1  0  0  0  0  0  0
  -27.0490  -30.2970   24.7010 C   0  0  0  0  0  1  0  0  0  0  0  0
  -27.4710  -32.4750   25.8020 C   0  0  0  0  0  1  0  0  0  0  0  0
  2  1  1  0
  2  6  1  0
  3  1  2  0
  4  2  2  0
  5  4  1  0
  5  3  1  0
  7 13  1  0
  7 16  1  0
  8 13  1  0
  9 10  1  0
  9  8  1  0
 11 10  1  0
 11 22  1  0
 11 12  1  0
 13 12  1  0
 14  7  2  0
 15  3  1  0
 15 16  1  0
 16 18  1  0
 17 15  2  0
 19 20  2  0
 20 39  1  0
 21 20  1  0
 21 24  1  0
 22 19  1  0
 22 23  1  0
 23 21  2  0
 24 25  1  0
 25 26  2  0
 27 30  1  0
 27 26  1  0
 28 27  2  0
 29 28  1  0
 29 24  2  0
 30 31  1  0
 31 32  1  0
 32 33  2  0
 34 33  1  0
 34 38  1  0
 35 34  2  0
 36 31  2  0
 36 35  1  0
 37 36  1  0
 39 40  1  0
 40 43  1  0
 40 42  1  0
 41 39  2  0
 44 45  1  0
 44 19  1  0
 46 44  1  0
 47 49  2  0
 48  4  1  0
 48 47  1  0
 50 48  1  0
 51 52  1  0
 51 47  1  0
 53 64  2  0
 54 52  1  0
 54 59  1  0
 55 63  1  0
 55 65  1  0
 56 62  1  0
 56 58  1  0
 57 63  1  0
 58 59  2  0
 58 57  1  0
 60 54  2  0
 61 60  1  0
 61 56  2  0
 62 55  1  0
 63 53  1  0
 65 67  2  0
 66 65  1  0
 68 66  1  0
 69 78  2  0
 69 74  1  0
 70 66  1  0
 70 74  1  0
 71 70  1  0
 72 73  1  0
 72 71  1  0
 73 69  1  0
 74 75  2  0
 75 76  1  0
 77 76  2  0
 78 77  1  0
 79 53  1  0
 79 80  1  0
 79 89  1  0
 80 83  1  0
 81 85  1  0
 81 80  1  0
 82 81  2  0
 85 84  1  0
 87 85  1  0
 87 88  1  0
 87 86  1  0
 89 92  1  1
 89 90  1  0
 91 89  1  0
M  ISO  4   7 100  16 100  51 101  52 101
M  END
>  <TORSDO>  (35) 
F 18

>  <SCORE>  (35) 
-13.589

>  <name>  (35) 
34

>  <ligand_id>  (35) 
34

>  <original_smiles>  (35) 
[H]c1c([H])c([H])c2c(c1[H])C([H])([H])C([H])([H])C([H])([H])C2([H])N([H])C(=O)C1([H])N(C(=O)C([H])(N([H])C(=O)C([H])(N([H])C([H])([H])[H])C([H])([H])[H])C(C([H])([H])[H])(C([H])([H])[H])C([H])([H])[H])C([H])([H])c2c([H])c(OC([H])([H])C(=O)N([H])c3oc(C(=O)N([H])C(=O)N4C([H])([H])C([H])([H])C([H])([H])C([H])(n5nc(-c6c([H])c([H])c(Oc7c([H])c([H])c(F)c([H])c7F)c([H])c6[H])c(C(=O)N([H])[H])c5N([H])[H])C4([H])[H])c([H])c3F)c([H])c([H])c2C1([H])[H]

>  <smiles>  (35) 
[H]c1c([H])c([H])c2c(c1[H])C([H])([H])C([H])([H])C([H])([H])C2([H])N([H])C(=O)C1([H])N(C(=O)C([H])(N([H])C(=O)C([H])(N([H])C([H])([H])[H])C([H])([H])[H])C(C([H])([H])[H])(C([H])([H])[H])C([H])([H])[H])C([H])([H])c2c([H])c(OC([H])([H])C(=O)N([H])c3oc(C(=O)N([H])C(=O)N4C([H])([H])C([H])([H])C([H])([H])C([H])(n5nc(-c6c([H])c([H])c(Oc7c([H])c([H])c(F)c([H])c7F)c([H])c6[H])c(C(=O)N([H])[H])c5N([H])[H])C4([H])[H])c([H])c3F)c([H])c([H])c2C1([H])[H]

$$$$
35:0:0
     RDKit          3D

 94102  0  0  1  0  0  0  0  0999 V2000
  -29.9790  -18.3430   21.5510 C   0  0  0  0  0  3  0  0  0  0  0  0
  -29.7630  -19.7170   21.2350 C   0  0  0  0  0  3  0  0  0  0  0  0
  -30.2550  -17.8110   19.2320 C   0  0  0  0  0  3  0  0  0  0  0  0
  -30.2200  -17.3290   20.5690 C   0  0  0  0  0  0  0  0  0  0  0  0
  -30.0480  -19.1910   18.9110 C   0  0  0  0  0  0  0  0  0  0  0  0
  -29.7810  -20.1850   19.8980 C   0  0  0  0  0  0  0  0  0  0  0  0
  -30.3300  -15.8420   20.9960 C   0  0  0  0  0  0  0  0  0  0  0  0
  -30.0110  -15.5490   22.1900 N   0  0  0  0  0  0  0  0  0  0  0  0
  -29.6840  -16.3670   22.6900 H   0  0  0  0  0  0  0  0  0  0  0  0
  -30.8930  -14.7180   20.0380 C   0  0  0  0  0  0  0  0  0  0  0  0
  -30.5660  -12.5410   18.8600 C   0  0  0  0  0  2  0  0  0  0  0  0
  -29.5450  -12.7200   17.7130 C   0  0  0  0  0  2  0  0  0  0  0  0
  -28.0990  -12.5510   18.2220 C   0  0  0  0  0  2  0  0  0  0  0  0
  -27.8350  -13.3600   19.5180 C   0  0  0  0  0  3  0  0  0  0  0  0
  -28.9540  -13.1080   20.5470 C   0  0  0  0  0  2  0  0  0  0  0  0
  -30.2360  -13.5070   19.9340 N   0  0  0  0  0  0  0  0  0  0  0  0
  -31.9340  -14.9250   19.4020 O   0  0  0  0  0  0  0  0  0  0  0  0
  -25.5050  -13.9660   20.4170 C   0  0  0  0  0  0  0  0  0  0  0  0
  -24.4530  -13.1940   20.8290 C   0  0  0  0  0  0  0  0  0  0  0  0
  -24.8890  -11.8390   20.7140 C   0  0  0  0  0  0  0  0  0  0  0  0
  -26.5150  -13.0810   20.0760 N   0  0  0  0  0  0  0  0  0  0  0  0
  -26.1530  -11.7930   20.3110 N   0  0  0  0  0  0  0  0  0  0  0  0
  -24.1580  -10.5800   20.9050 C   0  0  0  0  0  0  0  0  0  0  0  0
  -24.5640   -9.6240   21.8610 C   0  0  0  0  0  3  0  0  0  0  0  0
  -23.8330   -8.4310   22.0380 C   0  0  0  0  0  3  0  0  0  0  0  0
  -22.6790   -8.1830   21.2570 C   0  0  0  0  0  0  0  0  0  0  0  0
  -22.2910   -9.1270   20.2890 C   0  0  0  0  0  3  0  0  0  0  0  0
  -23.0240  -10.3120   20.1110 C   0  0  0  0  0  3  0  0  0  0  0  0
  -21.9220   -7.0400   21.3410 O   0  0  0  0  0  0  0  0  0  0  0  0
  -21.7420   -6.3810   22.5310 C   0  0  0  0  0  0  0  0  0  0  0  0
  -21.1470   -7.0090   23.6480 C   0  0  0  0  0  3  0  0  0  0  0  0
  -20.9190   -6.2740   24.8280 C   0  0  0  0  0  3  0  0  0  0  0  0
  -21.2760   -4.9140   24.8930 C   0  0  0  0  0  0  0  0  0  0  0  0
  -21.8640   -4.2860   23.7800 C   0  0  0  0  0  3  0  0  0  0  0  0
  -22.0930   -5.0180   22.6020 C   0  0  0  0  0  0  0  0  0  0  0  0
  -22.6400   -4.4030   21.5260 F   0  0  0  0  0  0  0  0  0  0  0  0
  -21.0490   -4.2060   26.0240 F   0  0  0  0  0  0  0  0  0  0  0  0
  -23.0870  -13.6790   21.2200 C   0  0  0  0  0  0  0  0  0  0  0  0
  -22.4140  -12.9640   22.1150 N   0  0  0  0  0  0  0  0  0  0  0  0
  -22.6250  -14.7260   20.7660 O   0  0  0  0  0  0  0  0  0  0  0  0
  -22.8010  -12.1150   22.5010 H   0  0  0  0  0  0  0  0  0  0  0  0
  -21.5000  -13.2690   22.4190 H   0  0  0  0  0  0  0  0  0  0  0  0
  -25.6810  -15.3410   20.2840 N   0  0  0  0  0  0  0  0  0  0  0  0
  -24.9420  -16.0050   20.4820 H   0  0  0  0  0  0  0  0  0  0  0  0
  -26.5260  -15.7790   19.9410 H   0  0  0  0  0  0  0  0  0  0  0  0
  -30.0910  -19.5900   17.5770 N   0  0  0  0  0  0  0  0  0  0  0  0
  -29.8850  -18.9060   16.8570 H   0  0  0  0  0  0  0  0  0  0  0  0
  -29.7080  -20.5090   17.3750 H   0  0  0  0  0  0  0  0  0  0  0  0
  -29.5730  -21.5250   19.4980 O   0  0  0  0  0  0  0  0  0  0  0  0
  -29.1170  -22.5670   20.4250 C   0  0  0  0  0  2  0  0  0  0  0  0
  -29.0730  -24.0220   19.7990 C   0  0  0  0  0  0  0  0  0  0  0  0
  -29.6630  -24.2620   18.7380 O   0  0  0  0  0  0  0  0  0  0  0  0
  -28.2750  -25.1660   20.5370 C   0  0  0  0  0  2  0  0  0  0  0  0
  -28.4440  -26.5470   20.0220 O   0  0  0  0  0  0  0  0  0  0  0  0
  -24.6010  -31.8130   23.1210 C   0  0  0  0  0  0  0  0  0  0  0  0
  -27.3030  -27.3540   20.0220 C   0  0  0  0  0  0  0  0  0  0  0  0
  -23.4140  -30.3850   21.4910 C   0  0  0  0  0  3  0  0  0  0  0  0
  -24.8900  -28.8810   20.0420 C   0  0  0  0  0  0  0  0  0  0  0  0
  -25.9390  -30.7840   21.2720 C   0  0  0  0  0  2  0  0  0  0  0  0
  -26.0510  -29.4090   20.6230 C   0  0  0  0  0  0  0  0  0  0  0  0
  -27.2630  -28.6600   20.5990 C   0  0  0  0  0  3  0  0  0  0  0  0
  -26.1230  -26.8720   19.4180 C   0  0  0  0  0  3  0  0  0  0  0  0
  -24.9280  -27.6180   19.4300 C   0  0  0  0  0  3  0  0  0  0  0  0
  -23.6280  -29.7170   20.1070 C   0  0  0  0  0  2  0  0  0  0  0  0
  -24.6710  -31.0120   22.0170 N   0  0  0  0  0  0  0  0  0  0  0  0
  -23.5180  -32.0590   23.6710 O   0  0  0  0  0  0  0  0  0  0  0  0
  -22.7930  -29.3490   22.4570 C   0  0  0  0  0  0  0  0  0  0  0  0
  -21.4780  -29.1100   22.3210 N   0  0  0  0  0  0  0  0  0  0  0  0
  -23.4940  -28.7620   23.2850 O   0  0  0  0  0  0  0  0  0  0  0  0
  -20.9710  -29.6360   21.6230 H   0  0  0  0  0  0  0  0  0  0  0  0
  -18.1610  -27.7430   22.7820 C   0  0  0  0  0  0  0  0  0  0  0  0
  -20.6960  -28.1440   23.0940 C   0  0  0  0  0  3  0  0  0  0  0  0
  -20.8840  -26.7090   22.5480 C   0  0  0  0  0  2  0  0  0  0  0  0
  -19.8200  -26.3100   21.5210 C   0  0  0  0  0  2  0  0  0  0  0  0
  -18.4210  -26.3930   22.1350 C   0  0  0  0  0  2  0  0  0  0  0  0
  -19.2290  -28.5730   23.2170 C   0  0  0  0  0  0  0  0  0  0  0  0
  -18.9330  -29.8320   23.7800 C   0  0  0  0  0  3  0  0  0  0  0  0
  -17.6000  -30.2660   23.9130 C   0  0  0  0  0  3  0  0  0  0  0  0
  -16.5450  -29.4350   23.4950 C   0  0  0  0  0  3  0  0  0  0  0  0
  -16.8260  -28.1760   22.9350 C   0  0  0  0  0  3  0  0  0  0  0  0
  -25.8740  -32.4770   23.7280 C   0  0  0  0  0  3  0  0  0  0  0  0
  -25.5230  -33.8560   24.1000 N   0  0  0  0  0  0  0  0  0  0  0  0
  -25.8010  -34.9380   23.3630 C   0  0  0  0  0  0  0  0  0  0  0  0
  -26.4530  -34.8860   22.3160 O   0  0  0  0  0  0  0  0  0  0  0  0
  -24.9420  -33.9680   24.9180 H   0  0  0  0  0  0  0  0  0  0  0  0
  -24.0060  -36.6790   23.0850 C   0  0  0  0  0  1  0  0  0  0  0  0
  -25.2740  -36.2970   23.8650 C   0  0  0  0  0  3  0  0  0  0  0  0
  -27.3860  -37.2370   24.6920 C   0  0  0  0  0  1  0  0  0  0  0  0
  -26.2670  -37.3880   23.7660 N   0  0  0  0  0  0  0  0  0  0  0  0
  -25.8310  -38.2900   23.9400 H   0  0  0  0  0  0  0  0  0  0  0  0
  -26.4480  -31.6960   24.9720 C   0  0  1  0  0  0  0  0  0  0  0  0
  -25.3850  -31.3610   26.0440 C   0  0  0  0  0  1  0  0  0  0  0  0
  -27.1030  -30.3670   24.5290 C   0  0  0  0  0  1  0  0  0  0  0  0
  -27.5640  -32.5300   25.6460 C   0  0  0  0  0  1  0  0  0  0  0  0
  2  1  1  0
  3  4  1  0
  4  7  1  0
  4  1  2  0
  5  3  2  0
  5  6  1  0
  6  2  2  0
  7  8  2  0
  8  9  1  0
 10  7  1  0
 11 16  1  0
 12 13  1  0
 12 11  1  0
 14 13  1  0
 14 21  1  0
 14 15  1  0
 16 10  1  0
 16 15  1  0
 17 10  2  0
 18 19  2  0
 19 38  1  0
 20 19  1  0
 20 23  1  0
 21 22  1  0
 21 18  1  0
 22 20  2  0
 23 24  1  0
 24 25  2  0
 26 29  1  0
 26 25  1  0
 27 26  2  0
 28 27  1  0
 28 23  2  0
 29 30  1  0
 30 35  2  0
 30 31  1  0
 31 32  2  0
 32 33  1  0
 33 37  1  0
 34 33  2  0
 35 34  1  0
 36 35  1  0
 38 39  1  0
 39 42  1  0
 39 41  1  0
 40 38  2  0
 43 18  1  0
 43 44  1  0
 45 43  1  0
 46  5  1  0
 47 46  1  0
 48 46  1  0
 49  6  1  0
 49 50  1  0
 51 50  1  0
 51 53  1  0
 52 51  2  0
 54 53  1  0
 55 66  2  0
 56 54  1  0
 56 61  1  0
 57 65  1  0
 57 67  1  0
 58 64  1  0
 58 60  1  0
 59 65  1  0
 60 59  1  0
 61 60  2  0
 62 63  1  0
 62 56  2  0
 63 58  2  0
 64 57  1  0
 65 55  1  0
 67 69  2  0
 68 67  1  0
 70 68  1  0
 71 80  2  0
 71 76  1  0
 72 68  1  0
 72 76  1  0
 73 72  1  0
 74 75  1  0
 74 73  1  0
 75 71  1  0
 76 77  2  0
 77 78  1  0
 79 78  2  0
 80 79  1  0
 81 55  1  0
 81 82  1  0
 81 91  1  0
 82 85  1  0
 83 87  1  0
 83 82  1  0
 84 83  2  0
 87 86  1  0
 89 87  1  0
 89 90  1  0
 89 88  1  0
 91 94  1  1
 91 92  1  0
 93 91  1  0
M  ISO  4   7 100  10 100  53 101  54 101
M  END
>  <TORSDO>  (36) 
F 22

>  <SCORE>  (36) 
-12.393

>  <name>  (36) 
35

>  <ligand_id>  (36) 
35

>  <original_smiles>  (36) 
[H]N=C(C(=O)N1C([H])([H])C([H])([H])C([H])([H])C([H])(n2nc(-c3c([H])c([H])c(Oc4c([H])c([H])c(F)c([H])c4F)c([H])c3[H])c(C(=O)N([H])[H])c2N([H])[H])C1([H])[H])c1c([H])c([H])c(OC([H])([H])C(=O)C([H])([H])Oc2c([H])c([H])c3c(c2[H])C([H])([H])N(C(=O)C([H])(N([H])C(=O)C([H])(N([H])C([H])([H])[H])C([H])([H])[H])C(C([H])([H])[H])(C([H])([H])[H])C([H])([H])[H])C([H])(C(=O)N([H])C2([H])c4c([H])c([H])c([H])c([H])c4C([H])([H])C([H])([H])C2([H])[H])C3([H])[H])c(N([H])[H])c1[H]

>  <smiles>  (36) 
[H]N=C(C(=O)N1C([H])([H])C([H])([H])C([H])([H])C([H])(n2nc(-c3c([H])c([H])c(Oc4c([H])c([H])c(F)c([H])c4F)c([H])c3[H])c(C(=O)N([H])[H])c2N([H])[H])C1([H])[H])c1c([H])c([H])c(OC([H])([H])C(=O)C([H])([H])Oc2c([H])c([H])c3c(c2[H])C([H])([H])N(C(=O)C([H])(N([H])C(=O)C([H])(N([H])C([H])([H])[H])C([H])([H])[H])C(C([H])([H])[H])(C([H])([H])[H])C([H])([H])[H])C([H])(C(=O)N([H])C2([H])c4c([H])c([H])c([H])c([H])c4C([H])([H])C([H])([H])C2([H])[H])C3([H])[H])c(N([H])[H])c1[H]

$$$$
36:0:0
     RDKit          3D

 93102  0  0  1  0  0  0  0  0999 V2000
  -28.7330  -23.7130   19.3780 C   0  0  0  0  0  0  0  0  0  0  0  0
  -29.5530  -21.5780   18.3820 C   0  0  0  0  0  0  0  0  0  0  0  0
  -28.5020  -25.1110   19.3980 C   0  0  0  0  0  2  0  0  0  0  0  0
  -29.2980  -23.0730   18.1280 C   0  0  0  0  0  3  0  0  0  0  0  0
  -28.6220  -22.4330   20.3180 C   0  0  0  0  0  2  0  0  0  0  0  0
  -29.1770  -21.1690   19.6090 N   0  0  0  0  0  0  0  0  0  0  0  0
  -30.0470  -20.8600   17.5060 O   0  0  0  0  0  0  0  0  0  0  0  0
  -27.1840  -17.9630   20.1620 C   0  0  0  0  0  3  0  0  0  0  0  0
  -27.5670  -19.3170   20.0390 C   0  0  0  0  0  3  0  0  0  0  0  0
  -28.1210  -16.9070   20.1510 C   0  0  0  0  0  3  0  0  0  0  0  0
  -28.9170  -19.6960   19.8700 C   0  0  0  0  0  0  0  0  0  0  0  0
  -29.5020  -17.1480   20.0180 C   0  0  0  0  0  0  0  0  0  0  0  0
  -29.8780  -18.5710   19.8800 C   0  0  0  0  0  0  0  0  0  0  0  0
  -31.2000  -18.8600   19.8070 F   0  0  0  0  0  0  0  0  0  0  0  0
  -30.8060  -14.7490   19.8640 C   0  0  0  0  0  0  0  0  0  0  0  0
  -30.4780  -12.3850   19.0710 C   0  0  0  0  0  2  0  0  0  0  0  0
  -29.5320  -12.3000   17.8570 C   0  0  0  0  0  2  0  0  0  0  0  0
  -28.0780  -12.1600   18.3360 C   0  0  0  0  0  2  0  0  0  0  0  0
  -27.7220  -13.1760   19.4550 C   0  0  0  0  0  3  0  0  0  0  0  0
  -28.8050  -13.2600   20.5560 C   0  0  0  0  0  2  0  0  0  0  0  0
  -30.0750  -13.5660   19.8920 N   0  0  0  0  0  0  0  0  0  0  0  0
  -31.9440  -14.6920   19.3950 O   0  0  0  0  0  0  0  0  0  0  0  0
  -30.4250  -16.0080   20.3480 N   0  0  0  0  0  0  0  0  0  0  0  0
  -31.3230  -16.4320   20.5280 H   0  0  0  0  0  0  0  0  0  0  0  0
  -25.3840  -13.8350   20.2570 C   0  0  0  0  0  0  0  0  0  0  0  0
  -24.3120  -13.1010   20.6800 C   0  0  0  0  0  0  0  0  0  0  0  0
  -24.7310  -11.7360   20.6480 C   0  0  0  0  0  0  0  0  0  0  0  0
  -26.3940  -12.9240   20.0020 N   0  0  0  0  0  0  0  0  0  0  0  0
  -26.0100  -11.6540   20.2980 N   0  0  0  0  0  0  0  0  0  0  0  0
  -23.9660  -10.5010   20.8720 C   0  0  0  0  0  0  0  0  0  0  0  0
  -24.3840   -9.5330   21.8120 C   0  0  0  0  0  3  0  0  0  0  0  0
  -23.6200   -8.3650   22.0250 C   0  0  0  0  0  3  0  0  0  0  0  0
  -22.4220   -8.1590   21.3000 C   0  0  0  0  0  0  0  0  0  0  0  0
  -22.0230   -9.1150   20.3480 C   0  0  0  0  0  3  0  0  0  0  0  0
  -22.7880  -10.2720   20.1330 C   0  0  0  0  0  3  0  0  0  0  0  0
  -21.6290   -7.0430   21.4230 O   0  0  0  0  0  0  0  0  0  0  0  0
  -21.5640   -6.3320   22.5940 C   0  0  0  0  0  0  0  0  0  0  0  0
  -21.1800   -6.9340   23.8110 C   0  0  0  0  0  3  0  0  0  0  0  0
  -21.0600   -6.1510   24.9770 C   0  0  0  0  0  3  0  0  0  0  0  0
  -21.3150   -4.7680   24.9260 C   0  0  0  0  0  0  0  0  0  0  0  0
  -21.6920   -4.1650   23.7130 C   0  0  0  0  0  3  0  0  0  0  0  0
  -21.8140   -4.9450   22.5500 C   0  0  0  0  0  0  0  0  0  0  0  0
  -22.1570   -4.3560   21.3790 F   0  0  0  0  0  0  0  0  0  0  0  0
  -21.1930   -4.0130   26.0440 F   0  0  0  0  0  0  0  0  0  0  0  0
  -22.9430  -13.6300   20.9920 C   0  0  0  0  0  0  0  0  0  0  0  0
  -22.2250  -12.9750   21.8980 N   0  0  0  0  0  0  0  0  0  0  0  0
  -22.5210  -14.6610   20.4690 O   0  0  0  0  0  0  0  0  0  0  0  0
  -22.5810  -12.1410   22.3410 H   0  0  0  0  0  0  0  0  0  0  0  0
  -21.3080  -13.3130   22.1520 H   0  0  0  0  0  0  0  0  0  0  0  0
  -25.5710  -15.1940   20.0400 N   0  0  0  0  0  0  0  0  0  0  0  0
  -24.8130  -15.8600   20.1390 H   0  0  0  0  0  0  0  0  0  0  0  0
  -26.4020  -15.5990   19.6270 H   0  0  0  0  0  0  0  0  0  0  0  0
  -28.1840  -26.1270   20.3610 O   0  0  0  0  0  0  0  0  0  0  0  0
  -24.5940  -31.7690   23.2550 C   0  0  0  0  0  0  0  0  0  0  0  0
  -27.1640  -27.1130   20.1900 C   0  0  0  0  0  0  0  0  0  0  0  0
  -23.3930  -30.3970   21.5930 C   0  0  0  0  0  3  0  0  0  0  0  0
  -24.8400  -28.8330   20.1560 C   0  0  0  0  0  0  0  0  0  0  0  0
  -25.9450  -30.6580   21.4450 C   0  0  0  0  0  2  0  0  0  0  0  0
  -26.0130  -29.2780   20.7790 C   0  0  0  0  0  0  0  0  0  0  0  0
  -27.1730  -28.4290   20.7890 C   0  0  0  0  0  3  0  0  0  0  0  0
  -25.9710  -26.7530   19.5280 C   0  0  0  0  0  3  0  0  0  0  0  0
  -24.8290  -27.5830   19.5160 C   0  0  0  0  0  3  0  0  0  0  0  0
  -23.6150  -29.7310   20.2080 C   0  0  0  0  0  2  0  0  0  0  0  0
  -24.6630  -30.9620   22.1530 N   0  0  0  0  0  0  0  0  0  0  0  0
  -23.5080  -32.0580   23.7800 O   0  0  0  0  0  0  0  0  0  0  0  0
  -22.7030  -29.3870   22.5420 C   0  0  0  0  0  0  0  0  0  0  0  0
  -21.3730  -29.2370   22.4130 N   0  0  0  0  0  0  0  0  0  0  0  0
  -23.3650  -28.7400   23.3580 O   0  0  0  0  0  0  0  0  0  0  0  0
  -20.8960  -29.8090   21.7300 H   0  0  0  0  0  0  0  0  0  0  0  0
  -17.9730  -28.0890   22.8970 C   0  0  0  0  0  0  0  0  0  0  0  0
  -20.5350  -28.3050   23.1720 C   0  0  0  0  0  3  0  0  0  0  0  0
  -20.6130  -26.8780   22.5810 C   0  0  0  0  0  2  0  0  0  0  0  0
  -19.5080  -26.5860   21.5610 C   0  0  0  0  0  2  0  0  0  0  0  0
  -18.1280  -26.7460   22.2040 C   0  0  0  0  0  2  0  0  0  0  0  0
  -19.1040  -28.8280   23.3370 C   0  0  0  0  0  0  0  0  0  0  0  0
  -18.9030  -30.0860   23.9460 C   0  0  0  0  0  3  0  0  0  0  0  0
  -17.6060  -30.6050   24.1190 C   0  0  0  0  0  3  0  0  0  0  0  0
  -16.4900  -29.8630   23.6930 C   0  0  0  0  0  3  0  0  0  0  0  0
  -16.6750  -28.6070   23.0890 C   0  0  0  0  0  3  0  0  0  0  0  0
  -25.8760  -32.3860   23.8950 C   0  0  0  0  0  3  0  0  0  0  0  0
  -25.5900  -33.7980   24.1950 N   0  0  0  0  0  0  0  0  0  0  0  0
  -25.9580  -34.8320   23.4260 C   0  0  0  0  0  0  0  0  0  0  0  0
  -26.6390  -34.6960   22.4070 O   0  0  0  0  0  0  0  0  0  0  0  0
  -24.9860  -33.9790   24.9840 H   0  0  0  0  0  0  0  0  0  0  0  0
  -24.2730  -36.6580   23.0230 C   0  0  0  0  0  1  0  0  0  0  0  0
  -25.4970  -36.2390   23.8540 C   0  0  0  0  0  3  0  0  0  0  0  0
  -27.6430  -37.0930   24.6910 C   0  0  0  0  0  1  0  0  0  0  0  0
  -26.5540  -37.2670   23.7340 N   0  0  0  0  0  0  0  0  0  0  0  0
  -26.1660  -38.1980   23.8590 H   0  0  0  0  0  0  0  0  0  0  0  0
  -26.3430  -31.6310   25.2000 C   0  0  1  0  0  0  0  0  0  0  0  0
  -25.2200  -31.4420   26.2470 C   0  0  0  0  0  1  0  0  0  0  0  0
  -26.9020  -30.2310   24.8550 C   0  0  0  0  0  1  0  0  0  0  0  0
  -27.4970  -32.4110   25.8730 C   0  0  0  0  0  1  0  0  0  0  0  0
  1  3  1  0
  1  5  1  0
  2  6  1  0
  3 53  1  0
  4  2  1  0
  4  1  2  0
  6 11  1  0
  6  5  1  0
  7  2  2  0
  9  8  2  0
 10  8  1  0
 11 13  2  0
 11  9  1  0
 12 10  2  0
 12 23  1  0
 13 12  1  0
 14 13  1  0
 15 21  1  0
 15 23  1  0
 16 21  1  0
 17 18  1  0
 17 16  1  0
 19 18  1  0
 19 28  1  0
 19 20  1  0
 21 20  1  0
 22 15  2  0
 23 24  1  0
 25 26  2  0
 26 45  1  0
 27 26  1  0
 27 30  1  0
 28 25  1  0
 28 29  1  0
 29 27  2  0
 30 31  1  0
 31 32  2  0
 33 36  1  0
 33 32  1  0
 34 33  2  0
 35 34  1  0
 35 30  2  0
 36 37  1  0
 37 38  1  0
 38 39  2  0
 40 39  1  0
 40 44  1  0
 41 40  2  0
 42 37  2  0
 42 41  1  0
 43 42  1  0
 45 46  1  0
 46 49  1  0
 46 48  1  0
 47 45  2  0
 50 51  1  0
 50 25  1  0
 52 50  1  0
 54 65  2  0
 55 53  1  0
 55 60  1  0
 56 64  1  0
 56 66  1  0
 57 63  1  0
 57 59  1  0
 58 64  1  0
 59 60  2  0
 59 58  1  0
 61 55  2  0
 62 61  1  0
 62 57  2  0
 63 56  1  0
 64 54  1  0
 66 68  2  0
 67 66  1  0
 69 67  1  0
 70 79  2  0
 70 75  1  0
 71 67  1  0
 71 75  1  0
 72 71  1  0
 73 74  1  0
 73 72  1  0
 74 70  1  0
 75 76  2  0
 76 77  1  0
 78 77  2  0
 79 78  1  0
 80 54  1  0
 80 81  1  0
 80 90  1  0
 81 84  1  0
 82 86  1  0
 82 81  1  0
 83 82  2  0
 86 85  1  0
 88 86  1  0
 88 89  1  0
 88 87  1  0
 90 93  1  1
 90 91  1  0
 92 90  1  0
M  ISO  4   3 101  15 100  23 100  53 101
M  END
>  <TORSDO>  (37) 
F 17

>  <SCORE>  (37) 
-14.965

>  <name>  (37) 
36

>  <ligand_id>  (37) 
36

>  <original_smiles>  (37) 
[H]C(Oc1c([H])c([H])c2c(c1[H])C([H])([H])N(C(=O)C([H])(N([H])C(=O)C([H])(N([H])C([H])([H])[H])C([H])([H])[H])C(C([H])([H])[H])(C([H])([H])[H])C([H])([H])[H])C([H])(C(=O)N([H])C1([H])c3c([H])c([H])c([H])c([H])c3C([H])([H])C([H])([H])C1([H])[H])C2([H])[H])=C1C([H])([H])C(=O)N(c2c([H])c([H])c([H])c(N([H])C(=O)N3C([H])([H])C([H])([H])C([H])([H])C([H])(n4nc(-c5c([H])c([H])c(Oc6c([H])c([H])c(F)c([H])c6F)c([H])c5[H])c(C(=O)N([H])[H])c4N([H])[H])C3([H])[H])c2F)C1([H])[H]

>  <smiles>  (37) 
[H]C(Oc1c([H])c([H])c2c(c1[H])C([H])([H])N(C(=O)C([H])(N([H])C(=O)C([H])(N([H])C([H])([H])[H])C([H])([H])[H])C(C([H])([H])[H])(C([H])([H])[H])C([H])([H])[H])C([H])(C(=O)N([H])C1([H])c3c([H])c([H])c([H])c([H])c3C([H])([H])C([H])([H])C1([H])[H])C2([H])[H])=C1C([H])([H])C(=O)N(c2c([H])c([H])c([H])c(N([H])C(=O)N3C([H])([H])C([H])([H])C([H])([H])C([H])(n4nc(-c5c([H])c([H])c(Oc6c([H])c([H])c(F)c([H])c6F)c([H])c5[H])c(C(=O)N([H])[H])c4N([H])[H])C3([H])[H])c2F)C1([H])[H]

$$$$
37:0:0
     RDKit          3D

 91 98  0  0  1  0  0  0  0  0999 V2000
  -29.1810  -22.9320   20.4240 C   0  0  0  0  0  0  0  0  0  0  0  0
  -29.9570  -20.9260   21.8790 C   0  0  0  0  0  3  0  0  0  0  0  0
  -30.6570  -18.5350   21.3580 C   0  0  0  0  0  0  0  0  0  0  0  0
  -30.1860  -20.7500   23.3630 C   0  0  0  0  0  1  0  0  0  0  0  0
  -30.1240  -19.8680   20.9980 N   0  0  0  0  0  0  0  0  0  0  0  0
  -29.5920  -22.2270   21.6140 N   0  0  0  0  0  0  0  0  0  0  0  0
  -28.9990  -22.3140   19.3700 O   0  0  0  0  0  0  0  0  0  0  0  0
  -31.0750  -18.3060   22.4950 O   0  0  0  0  0  0  0  0  0  0  0  0
  -29.8420  -20.0640   20.0490 H   0  0  0  0  0  0  0  0  0  0  0  0
  -29.6590  -22.7720   22.4580 H   0  0  0  0  0  0  0  0  0  0  0  0
  -29.0700  -24.3910   20.6440 C   0  0  0  0  0  3  0  0  0  0  0  0
  -28.4770  -25.2730   19.7960 C   0  0  0  0  0  3  0  0  0  0  0  0
  -28.4720  -26.6540   20.0050 O   0  0  0  0  0  0  0  0  0  0  0  0
  -24.7390  -31.8620   23.2010 C   0  0  0  0  0  0  0  0  0  0  0  0
  -27.2960  -27.4000   20.0130 C   0  0  0  0  0  0  0  0  0  0  0  0
  -23.4890  -30.4740   21.5800 C   0  0  0  0  0  3  0  0  0  0  0  0
  -24.9020  -28.9400   20.1020 C   0  0  0  0  0  0  0  0  0  0  0  0
  -26.0120  -30.8200   21.3190 C   0  0  0  0  0  2  0  0  0  0  0  0
  -26.0780  -29.4490   20.6650 C   0  0  0  0  0  0  0  0  0  0  0  0
  -27.2740  -28.6870   20.6160 C   0  0  0  0  0  3  0  0  0  0  0  0
  -26.0980  -26.9190   19.4370 C   0  0  0  0  0  3  0  0  0  0  0  0
  -24.9090  -27.6760   19.4870 C   0  0  0  0  0  3  0  0  0  0  0  0
  -23.6630  -29.8050   20.1900 C   0  0  0  0  0  2  0  0  0  0  0  0
  -24.7670  -31.0680   22.0910 N   0  0  0  0  0  0  0  0  0  0  0  0
  -23.6720  -32.1290   23.7730 O   0  0  0  0  0  0  0  0  0  0  0  0
  -22.8620  -29.4470   22.5510 C   0  0  0  0  0  0  0  0  0  0  0  0
  -21.5390  -29.2400   22.4350 N   0  0  0  0  0  0  0  0  0  0  0  0
  -23.5620  -28.8380   23.3650 O   0  0  0  0  0  0  0  0  0  0  0  0
  -21.0320  -29.7890   21.7550 H   0  0  0  0  0  0  0  0  0  0  0  0
  -18.2030  -27.9340   22.9180 C   0  0  0  0  0  0  0  0  0  0  0  0
  -20.7470  -28.2890   23.2150 C   0  0  0  0  0  3  0  0  0  0  0  0
  -20.9060  -26.8510   22.6690 C   0  0  0  0  0  2  0  0  0  0  0  0
  -19.8300  -26.4700   21.6480 C   0  0  0  0  0  2  0  0  0  0  0  0
  -18.4350  -26.5790   22.2720 C   0  0  0  0  0  2  0  0  0  0  0  0
  -19.2890  -28.7430   23.3470 C   0  0  0  0  0  0  0  0  0  0  0  0
  -19.0200  -30.0100   23.9100 C   0  0  0  0  0  3  0  0  0  0  0  0
  -17.6960  -30.4670   24.0520 C   0  0  0  0  0  3  0  0  0  0  0  0
  -16.6250  -29.6570   23.6400 C   0  0  0  0  0  3  0  0  0  0  0  0
  -16.8780  -28.3920   23.0780 C   0  0  0  0  0  3  0  0  0  0  0  0
  -26.0400  -32.4900   23.7920 C   0  0  0  0  0  3  0  0  0  0  0  0
  -26.6100  -31.6900   25.0270 C   0  0  1  0  0  0  0  0  0  0  0  0
  -25.5630  -31.4140   26.1300 C   0  0  0  0  0  1  0  0  0  0  0  0
  -27.1920  -30.3290   24.5770 C   0  0  0  0  0  1  0  0  0  0  0  0
  -27.7760  -32.4790   25.6690 C   0  0  0  0  0  1  0  0  0  0  0  0
  -25.7330  -33.8760   24.1680 N   0  0  0  0  0  0  0  0  0  0  0  0
  -26.0480  -34.9520   23.4340 C   0  0  0  0  0  0  0  0  0  0  0  0
  -26.6990  -34.8810   22.3890 O   0  0  0  0  0  0  0  0  0  0  0  0
  -25.1560  -34.0060   24.9860 H   0  0  0  0  0  0  0  0  0  0  0  0
  -24.3070  -36.7480   23.1630 C   0  0  0  0  0  1  0  0  0  0  0  0
  -25.5630  -36.3240   23.9400 C   0  0  0  0  0  3  0  0  0  0  0  0
  -27.7100  -37.1920   24.7570 C   0  0  0  0  0  1  0  0  0  0  0  0
  -26.5900  -37.3850   23.8400 N   0  0  0  0  0  0  0  0  0  0  0  0
  -26.1830  -38.2980   24.0260 H   0  0  0  0  0  0  0  0  0  0  0  0
  -30.7230  -17.3920   20.2970 C   0  0  0  0  0  2  0  0  0  0  0  0
  -30.5510  -15.9360   20.9100 C   0  0  0  0  0  2  0  0  0  0  0  0
  -31.2190  -14.7120   20.1900 C   0  0  0  0  0  0  0  0  0  0  0  0
  -30.8850  -12.5340   19.0290 C   0  0  0  0  0  2  0  0  0  0  0  0
  -29.9250  -12.7430   17.8350 C   0  0  0  0  0  2  0  0  0  0  0  0
  -28.4500  -12.6690   18.2800 C   0  0  0  0  0  2  0  0  0  0  0  0
  -28.1650  -13.5180   19.5470 C   0  0  0  0  0  3  0  0  0  0  0  0
  -29.2230  -13.2380   20.6370 C   0  0  0  0  0  2  0  0  0  0  0  0
  -30.5430  -13.5300   20.0610 N   0  0  0  0  0  0  0  0  0  0  0  0
  -32.3360  -14.8640   19.6830 O   0  0  0  0  0  0  0  0  0  0  0  0
  -25.8060  -14.2480   20.2720 C   0  0  0  0  0  0  0  0  0  0  0  0
  -24.7050  -13.5310   20.6570 C   0  0  0  0  0  0  0  0  0  0  0  0
  -25.0990  -12.1580   20.6320 C   0  0  0  0  0  0  0  0  0  0  0  0
  -26.8050  -13.3140   20.0390 N   0  0  0  0  0  0  0  0  0  0  0  0
  -26.3830  -12.0530   20.3120 N   0  0  0  0  0  0  0  0  0  0  0  0
  -24.3170  -10.9340   20.8380 C   0  0  0  0  0  0  0  0  0  0  0  0
  -24.6900   -9.9760   21.8060 C   0  0  0  0  0  3  0  0  0  0  0  0
  -23.9110   -8.8150   21.9990 C   0  0  0  0  0  3  0  0  0  0  0  0
  -22.7460   -8.6060   21.2250 C   0  0  0  0  0  0  0  0  0  0  0  0
  -22.3910   -9.5520   20.2490 C   0  0  0  0  0  3  0  0  0  0  0  0
  -23.1690  -10.7050   20.0530 C   0  0  0  0  0  3  0  0  0  0  0  0
  -21.9400   -7.4980   21.3280 O   0  0  0  0  0  0  0  0  0  0  0  0
  -21.7930   -6.8230   22.5130 C   0  0  0  0  0  0  0  0  0  0  0  0
  -21.3350   -7.4640   23.6850 C   0  0  0  0  0  3  0  0  0  0  0  0
  -21.1300   -6.7150   24.8610 C   0  0  0  0  0  3  0  0  0  0  0  0
  -21.3760   -5.3280   24.8660 C   0  0  0  0  0  0  0  0  0  0  0  0
  -21.8290   -4.6890   23.6980 C   0  0  0  0  0  3  0  0  0  0  0  0
  -22.0320   -5.4340   22.5250 C   0  0  0  0  0  0  0  0  0  0  0  0
  -22.4460   -4.8100   21.3960 F   0  0  0  0  0  0  0  0  0  0  0  0
  -21.1710   -4.6080   25.9930 F   0  0  0  0  0  0  0  0  0  0  0  0
  -23.3340  -14.0760   20.9390 C   0  0  0  0  0  0  0  0  0  0  0  0
  -22.5900  -13.4310   21.8300 N   0  0  0  0  0  0  0  0  0  0  0  0
  -22.9330  -15.1070   20.4010 O   0  0  0  0  0  0  0  0  0  0  0  0
  -22.9240  -12.5940   22.2840 H   0  0  0  0  0  0  0  0  0  0  0  0
  -21.6700  -13.7780   22.0630 H   0  0  0  0  0  0  0  0  0  0  0  0
  -26.0350  -15.6060   20.0780 N   0  0  0  0  0  0  0  0  0  0  0  0
  -25.3000  -16.2950   20.1820 H   0  0  0  0  0  0  0  0  0  0  0  0
  -26.8960  -15.9960   19.7140 H   0  0  0  0  0  0  0  0  0  0  0  0
  1 11  1  0
  1  6  1  0
  2  4  1  0
  3  8  2  0
  5  3  1  0
  5  2  1  0
  6  2  1  0
  6 10  1  0
  7  1  2  0
  9  5  1  0
 12 13  1  0
 12 11  2  0
 13 15  1  0
 14 25  2  0
 15 20  1  0
 16 24  1  0
 16 26  1  0
 17 23  1  0
 17 19  1  0
 18 24  1  0
 19 18  1  0
 20 19  2  0
 21 22  1  0
 21 15  2  0
 22 17  2  0
 23 16  1  0
 24 14  1  0
 26 28  2  0
 27 26  1  0
 29 27  1  0
 30 39  2  0
 30 35  1  0
 31 27  1  0
 31 35  1  0
 32 31  1  0
 33 34  1  0
 33 32  1  0
 34 30  1  0
 35 36  2  0
 36 37  1  0
 38 37  2  0
 39 38  1  0
 40 14  1  0
 40 45  1  0
 40 41  1  0
 41 44  1  1
 41 42  1  0
 43 41  1  0
 45 48  1  0
 46 50  1  0
 46 45  1  0
 47 46  2  0
 50 49  1  0
 52 50  1  0
 52 53  1  0
 52 51  1  0
 54 55  1  0
 54  3  1  0
 56 55  1  0
 57 62  1  0
 58 59  1  0
 58 57  1  0
 60 59  1  0
 60 67  1  0
 60 61  1  0
 62 56  1  0
 62 61  1  0
 63 56  2  0
 64 65  2  0
 65 84  1  0
 66 65  1  0
 66 69  1  0
 67 64  1  0
 67 68  1  0
 68 66  2  0
 69 70  1  0
 70 71  2  0
 72 75  1  0
 72 71  1  0
 73 72  2  0
 74 73  1  0
 74 69  2  0
 75 76  1  0
 76 81  2  0
 76 77  1  0
 77 78  2  0
 78 79  1  0
 79 83  1  0
 80 79  2  0
 81 80  1  0
 82 81  1  0
 84 85  1  0
 85 88  1  0
 85 87  1  0
 86 84  2  0
 89 90  1  0
 89 64  1  0
 91 89  1  0
M  ISO  4  12 101  13 101  55 100  56 100
M  END
>  <TORSDO>  (38) 
F 19

>  <SCORE>  (38) 
-13.297

>  <name>  (38) 
37

>  <ligand_id>  (38) 
37

>  <original_smiles>  (38) 
[H]C(Oc1c([H])c([H])c2c(c1[H])C([H])([H])N(C(=O)C([H])(N([H])C(=O)C([H])(N([H])C([H])([H])[H])C([H])([H])[H])C(C([H])([H])[H])(C([H])([H])[H])C([H])([H])[H])C([H])(C(=O)N([H])C1([H])c3c([H])c([H])c([H])c([H])c3C([H])([H])C([H])([H])C1([H])[H])C2([H])[H])=C([H])C(=O)[N+]([H])=C(N([H])C(=O)C([H])([H])C([H])([H])C(=O)N1C([H])([H])C([H])([H])C([H])([H])C([H])(n2nc(-c3c([H])c([H])c(Oc4c([H])c([H])c(F)c([H])c4F)c([H])c3[H])c(C(=O)N([H])[H])c2N([H])[H])C1([H])[H])C([H])([H])[H]

>  <smiles>  (38) 
[H]C(Oc1c([H])c([H])c2c(c1[H])C([H])([H])N(C(=O)C([H])(N([H])C(=O)C([H])(N([H])C([H])([H])[H])C([H])([H])[H])C(C([H])([H])[H])(C([H])([H])[H])C([H])([H])[H])C([H])(C(=O)N([H])C1([H])c3c([H])c([H])c([H])c([H])c3C([H])([H])C([H])([H])C1([H])[H])C2([H])[H])=C([H])C(=O)[N+]([H])=C(N([H])C(=O)C([H])([H])C([H])([H])C(=O)N1C([H])([H])C([H])([H])C([H])([H])C([H])(n2nc(-c3c([H])c([H])c(Oc4c([H])c([H])c(F)c([H])c4F)c([H])c3[H])c(C(=O)N([H])[H])c2N([H])[H])C1([H])[H])C([H])([H])[H]

$$$$
38:0:0
     RDKit          3D

 96105  0  0  1  0  0  0  0  0999 V2000
  -29.7780  -23.8340   19.1930 C   0  0  0  0  0  3  0  0  0  0  0  0
  -28.7360  -23.9370   20.1610 C   0  0  0  0  0  0  0  0  0  0  0  0
  -28.5450  -22.6150   20.5970 C   0  0  0  0  0  0  0  0  0  0  0  0
  -30.1550  -22.5200   19.0840 C   0  0  0  0  0  0  0  0  0  0  0  0
  -27.5630  -22.0950   21.6020 C   0  0  0  0  0  1  0  0  0  0  0  0
  -29.4280  -21.7110   19.9480 N   0  0  0  0  0  0  0  0  0  0  0  0
  -28.6150  -19.2850   19.8530 C   0  0  0  0  0  3  0  0  0  0  0  0
  -28.8760  -17.8760   19.9390 C   0  0  0  0  0  3  0  0  0  0  0  0
  -30.8910  -19.7310   20.4420 C   0  0  0  0  0  3  0  0  0  0  0  0
  -31.1760  -18.3280   20.5260 C   0  0  0  0  0  0  0  0  0  0  0  0
  -29.6200  -20.2590   20.1070 C   0  0  0  0  0  0  0  0  0  0  0  0
  -30.1550  -17.3450   20.2870 C   0  0  0  0  0  0  0  0  0  0  0  0
  -30.8170  -14.9380   19.7050 C   0  0  0  0  0  0  0  0  0  0  0  0
  -30.4660  -12.7530   18.5190 C   0  0  0  0  0  2  0  0  0  0  0  0
  -29.3840  -12.8710   17.4230 C   0  0  0  0  0  2  0  0  0  0  0  0
  -27.9830  -12.6370   18.0190 C   0  0  0  0  0  2  0  0  0  0  0  0
  -27.7460  -13.4620   19.3070 C   0  0  0  0  0  3  0  0  0  0  0  0
  -28.9250  -13.3210   20.2850 C   0  0  0  0  0  2  0  0  0  0  0  0
  -30.1610  -13.7280   19.5950 N   0  0  0  0  0  0  0  0  0  0  0  0
  -31.8200  -15.1560   19.0160 O   0  0  0  0  0  0  0  0  0  0  0  0
  -30.5970  -15.6120   22.0070 C   0  0  0  0  0  1  0  0  0  0  0  0
  -30.3380  -15.9010   20.5820 N   0  0  0  0  0  0  0  0  0  0  0  0
  -25.4800  -13.9820   20.3980 C   0  0  0  0  0  0  0  0  0  0  0  0
  -24.4770  -13.1750   20.8610 C   0  0  0  0  0  0  0  0  0  0  0  0
  -24.9360  -11.8330   20.6810 C   0  0  0  0  0  0  0  0  0  0  0  0
  -26.4800  -13.1310   19.9560 N   0  0  0  0  0  0  0  0  0  0  0  0
  -26.1690  -11.8310   20.1890 N   0  0  0  0  0  0  0  0  0  0  0  0
  -24.2500  -10.5520   20.8880 C   0  0  0  0  0  0  0  0  0  0  0  0
  -24.7040   -9.6140   21.8410 C   0  0  0  0  0  3  0  0  0  0  0  0
  -24.0150   -8.3970   22.0350 C   0  0  0  0  0  3  0  0  0  0  0  0
  -22.8560   -8.1100   21.2740 C   0  0  0  0  0  0  0  0  0  0  0  0
  -22.4210   -9.0380   20.3100 C   0  0  0  0  0  3  0  0  0  0  0  0
  -23.1120  -10.2440   20.1160 C   0  0  0  0  0  3  0  0  0  0  0  0
  -22.1370   -6.9430   21.3730 O   0  0  0  0  0  0  0  0  0  0  0  0
  -21.9560   -6.3110   22.5770 C   0  0  0  0  0  0  0  0  0  0  0  0
  -21.3340   -6.9540   23.6690 C   0  0  0  0  0  3  0  0  0  0  0  0
  -21.1040   -6.2440   24.8640 C   0  0  0  0  0  3  0  0  0  0  0  0
  -21.4870   -4.8930   24.9680 C   0  0  0  0  0  0  0  0  0  0  0  0
  -22.1010   -4.2510   23.8780 C   0  0  0  0  0  3  0  0  0  0  0  0
  -22.3310   -4.9570   22.6850 C   0  0  0  0  0  0  0  0  0  0  0  0
  -22.9050   -4.3270   21.6320 F   0  0  0  0  0  0  0  0  0  0  0  0
  -21.2600   -4.2090   26.1140 F   0  0  0  0  0  0  0  0  0  0  0  0
  -23.1290  -13.6170   21.3510 C   0  0  0  0  0  0  0  0  0  0  0  0
  -22.5350  -12.8670   22.2740 N   0  0  0  0  0  0  0  0  0  0  0  0
  -22.6120  -14.6610   20.9520 O   0  0  0  0  0  0  0  0  0  0  0  0
  -22.9660  -12.0230   22.6180 H   0  0  0  0  0  0  0  0  0  0  0  0
  -21.6380  -13.1450   22.6460 H   0  0  0  0  0  0  0  0  0  0  0  0
  -25.6170  -15.3630   20.2930 N   0  0  0  0  0  0  0  0  0  0  0  0
  -24.8770  -16.0040   20.5550 H   0  0  0  0  0  0  0  0  0  0  0  0
  -26.4250  -15.8210   19.8960 H   0  0  0  0  0  0  0  0  0  0  0  0
  -33.4480  -18.6810   21.5430 C   0  0  0  0  0  2  0  0  0  0  0  0
  -32.5390  -17.9120   20.9200 C   0  0  0  0  0  3  0  0  0  0  0  0
  -31.0980  -21.9800   18.2650 O   0  0  0  0  0  0  0  0  0  0  0  0
  -31.0700  -21.0370   18.3830 H   0  0  0  0  0  0  0  0  0  0  0  0
  -27.9570  -25.2330   20.6210 C   0  0  0  0  0  2  0  0  0  0  0  0
  -28.3010  -26.6040   20.1320 O   0  0  0  0  0  0  0  0  0  0  0  0
  -24.5960  -32.0060   23.2290 C   0  0  0  0  0  0  0  0  0  0  0  0
  -27.2220  -27.5060   20.0920 C   0  0  0  0  0  0  0  0  0  0  0  0
  -23.3960  -30.6170   21.5790 C   0  0  0  0  0  3  0  0  0  0  0  0
  -24.8520  -29.1080   20.1100 C   0  0  0  0  0  0  0  0  0  0  0  0
  -25.9310  -30.9620   21.3790 C   0  0  0  0  0  2  0  0  0  0  0  0
  -26.0210  -29.5920   20.7130 C   0  0  0  0  0  0  0  0  0  0  0  0
  -27.2120  -28.8030   20.6960 C   0  0  0  0  0  3  0  0  0  0  0  0
  -26.0420  -27.0960   19.4350 C   0  0  0  0  0  3  0  0  0  0  0  0
  -24.8670  -27.8670   19.4560 C   0  0  0  0  0  3  0  0  0  0  0  0
  -23.6060  -29.9680   20.1850 C   0  0  0  0  0  2  0  0  0  0  0  0
  -24.6620  -31.2130   22.1180 N   0  0  0  0  0  0  0  0  0  0  0  0
  -23.5140  -32.2590   23.7790 O   0  0  0  0  0  0  0  0  0  0  0  0
  -22.7540  -29.5780   22.5280 C   0  0  0  0  0  0  0  0  0  0  0  0
  -21.4280  -29.3920   22.4140 N   0  0  0  0  0  0  0  0  0  0  0  0
  -23.4480  -28.9460   23.3280 O   0  0  0  0  0  0  0  0  0  0  0  0
  -20.9280  -29.9550   21.7380 H   0  0  0  0  0  0  0  0  0  0  0  0
  -18.0700  -28.1470   22.9310 C   0  0  0  0  0  0  0  0  0  0  0  0
  -20.6270  -28.4350   23.1770 C   0  0  0  0  0  3  0  0  0  0  0  0
  -20.7390  -27.0120   22.5820 C   0  0  0  0  0  2  0  0  0  0  0  0
  -19.6290  -26.6910   21.5740 C   0  0  0  0  0  2  0  0  0  0  0  0
  -18.2540  -26.8100   22.2340 C   0  0  0  0  0  2  0  0  0  0  0  0
  -19.1830  -28.9170   23.3590 C   0  0  0  0  0  0  0  0  0  0  0  0
  -18.9540  -30.1670   23.9740 C   0  0  0  0  0  3  0  0  0  0  0  0
  -17.6440  -30.6470   24.1630 C   0  0  0  0  0  3  0  0  0  0  0  0
  -16.5460  -29.8760   23.7460 C   0  0  0  0  0  3  0  0  0  0  0  0
  -16.7590  -28.6280   23.1360 C   0  0  0  0  0  3  0  0  0  0  0  0
  -25.8740  -32.6450   23.8510 C   0  0  0  0  0  3  0  0  0  0  0  0
  -26.3970  -31.8720   25.1250 C   0  0  1  0  0  0  0  0  0  0  0  0
  -25.3060  -31.6100   26.1900 C   0  0  0  0  0  1  0  0  0  0  0  0
  -26.9990  -30.5050   24.7260 C   0  0  0  0  0  1  0  0  0  0  0  0
  -27.5360  -32.6790   25.7910 C   0  0  0  0  0  1  0  0  0  0  0  0
  -25.5550  -34.0400   24.1890 N   0  0  0  0  0  0  0  0  0  0  0  0
  -25.8860  -35.1000   23.4380 C   0  0  0  0  0  0  0  0  0  0  0  0
  -26.5620  -35.0060   22.4110 O   0  0  0  0  0  0  0  0  0  0  0  0
  -24.9560  -34.1870   24.9870 H   0  0  0  0  0  0  0  0  0  0  0  0
  -24.1600  -36.8960   23.0730 C   0  0  0  0  0  1  0  0  0  0  0  0
  -25.3900  -36.4840   23.9000 C   0  0  0  0  0  3  0  0  0  0  0  0
  -27.5100  -37.3650   24.7760 C   0  0  0  0  0  1  0  0  0  0  0  0
  -26.4250  -37.5410   23.8140 N   0  0  0  0  0  0  0  0  0  0  0  0
  -26.0150  -38.4600   23.9590 H   0  0  0  0  0  0  0  0  0  0  0  0
  1  2  1  0
  2  3  2  0
  2 55  1  0
  3  5  1  0
  4  1  2  0
  4  6  1  0
  6 11  1  0
  6  3  1  0
  7  8  2  0
  7 11  1  0
  8 12  1  0
  9 10  1  0
 10 52  1  0
 11  9  2  0
 12 10  2  0
 12 22  1  0
 13 22  1  0
 14 19  1  0
 15 16  1  0
 15 14  1  0
 17 16  1  0
 17 26  1  0
 17 18  1  0
 19 13  1  0
 19 18  1  0
 20 13  2  0
 22 21  1  0
 23 24  2  0
 24 43  1  0
 25 24  1  0
 25 28  1  0
 26 27  1  0
 26 23  1  0
 27 25  2  0
 28 29  1  0
 29 30  2  0
 31 34  1  0
 31 30  1  0
 32 31  2  0
 33 32  1  0
 33 28  2  0
 34 35  1  0
 35 40  2  0
 35 36  1  0
 36 37  2  0
 37 38  1  0
 38 42  1  0
 39 38  2  0
 40 39  1  0
 41 40  1  0
 43 44  1  0
 44 46  1  0
 44 47  1  0
 45 43  2  0
 48 23  1  0
 48 49  1  0
 50 48  1  0
 52 51  2  0
 53 54  1  0
 53  4  1  0
 56 55  1  0
 57 68  2  0
 58 56  1  0
 58 63  1  0
 59 67  1  0
 59 69  1  0
 60 66  1  0
 60 62  1  0
 61 67  1  0
 62 61  1  0
 63 62  2  0
 64 65  1  0
 64 58  2  0
 65 60  2  0
 66 59  1  0
 67 57  1  0
 69 71  2  0
 70 69  1  0
 72 70  1  0
 73 82  2  0
 73 78  1  0
 74 70  1  0
 74 78  1  0
 75 74  1  0
 76 77  1  0
 76 75  1  0
 77 73  1  0
 78 79  2  0
 79 80  1  0
 81 80  2  0
 82 81  1  0
 83 57  1  0
 83 88  1  0
 83 84  1  0
 84 87  1  1
 84 85  1  0
 86 84  1  0
 88 91  1  0
 89 93  1  0
 89 88  1  0
 90 89  2  0
 93 92  1  0
 95 93  1  0
 95 96  1  0
 95 94  1  0
M  ISO  4  13 100  22 100  55 101  56 101
M  END
>  <TORSDO>  (39) 
F 20

>  <SCORE>  (39) 
-12.340

>  <name>  (39) 
38

>  <ligand_id>  (39) 
38

>  <original_smiles>  (39) 
[H]Oc1c([H])c(C([H])([H])Oc2c([H])c([H])c3c(c2[H])C([H])([H])N(C(=O)C([H])(N([H])C(=O)C([H])(N([H])C([H])([H])[H])C([H])([H])[H])C(C([H])([H])[H])(C([H])([H])[H])C([H])([H])[H])C([H])(C(=O)N([H])C2([H])c4c([H])c([H])c([H])c([H])c4C([H])([H])C([H])([H])C2([H])[H])C3([H])[H])c(C([H])([H])[H])n1-c1c([H])c([H])c(N(C(=O)N2C([H])([H])C([H])([H])C([H])([H])C([H])(n3nc(-c4c([H])c([H])c(Oc5c([H])c([H])c(F)c([H])c5F)c([H])c4[H])c(C(=O)N([H])[H])c3N([H])[H])C2([H])[H])C([H])([H])[H])c(C([H])=C([H])[H])c1[H]

>  <smiles>  (39) 
[H]Oc1c([H])c(C([H])([H])Oc2c([H])c([H])c3c(c2[H])C([H])([H])N(C(=O)C([H])(N([H])C(=O)C([H])(N([H])C([H])([H])[H])C([H])([H])[H])C(C([H])([H])[H])(C([H])([H])[H])C([H])([H])[H])C([H])(C(=O)N([H])C2([H])c4c([H])c([H])c([H])c([H])c4C([H])([H])C([H])([H])C2([H])[H])C3([H])[H])c(C([H])([H])[H])n1-c1c([H])c([H])c(N(C(=O)N2C([H])([H])C([H])([H])C([H])([H])C([H])(n3nc(-c4c([H])c([H])c(Oc5c([H])c([H])c(F)c([H])c5F)c([H])c4[H])c(C(=O)N([H])[H])c3N([H])[H])C2([H])[H])C([H])([H])[H])c(C([H])=C([H])[H])c1[H]

$$$$
39:0:0
     RDKit          3D

 94103  0  0  1  0  0  0  0  0999 V2000
  -28.7270  -22.3380   20.0260 C   0  0  0  0  0  3  0  0  0  0  0  0
  -28.8480  -23.6530   20.4620 C   0  0  0  0  0  0  0  0  0  0  0  0
  -30.0480  -22.7500   22.4800 C   0  0  0  0  0  0  0  0  0  0  0  0
  -29.8650  -23.9590   21.5490 C   0  0  0  0  0  2  0  0  0  0  0  0
  -30.0820  -21.3320   21.8590 C   0  0  0  0  0  2  0  0  0  0  0  0
  -29.3840  -21.1680   20.5690 N   0  0  0  0  0  0  0  0  0  0  0  0
  -30.1890  -22.9130   23.6940 O   0  0  0  0  0  0  0  0  0  0  0  0
  -29.3160  -18.4480   17.9410 C   0  0  0  0  0  3  0  0  0  0  0  0
  -29.2320  -19.6860   18.6100 C   0  0  0  0  0  3  0  0  0  0  0  0
  -29.6470  -17.2560   18.6140 C   0  0  0  0  0  3  0  0  0  0  0  0
  -29.4800  -19.8130   19.9950 C   0  0  0  0  0  0  0  0  0  0  0  0
  -29.9150  -17.2400   20.0010 C   0  0  0  0  0  0  0  0  0  0  0  0
  -29.8300  -18.5500   20.6700 C   0  0  0  0  0  0  0  0  0  0  0  0
  -30.0880  -18.5920   21.9980 F   0  0  0  0  0  0  0  0  0  0  0  0
  -30.7780  -14.7930   20.0310 C   0  0  0  0  0  0  0  0  0  0  0  0
  -30.4480  -12.5600   18.9300 C   0  0  0  0  0  2  0  0  0  0  0  0
  -29.4390  -12.6720   17.7670 C   0  0  0  0  0  2  0  0  0  0  0  0
  -27.9990  -12.4960   18.2830 C   0  0  0  0  0  2  0  0  0  0  0  0
  -27.7120  -13.3520   19.5440 C   0  0  0  0  0  3  0  0  0  0  0  0
  -28.8340  -13.2210   20.5930 C   0  0  0  0  0  2  0  0  0  0  0  0
  -30.0990  -13.5900   19.9420 N   0  0  0  0  0  0  0  0  0  0  0  0
  -31.8840  -14.8980   19.4910 O   0  0  0  0  0  0  0  0  0  0  0  0
  -30.2590  -15.8700   22.1090 C   0  0  0  0  0  1  0  0  0  0  0  0
  -30.1950  -15.9070   20.6430 N   0  0  0  0  0  0  0  0  0  0  0  0
  -25.3820  -13.9420   20.4390 C   0  0  0  0  0  0  0  0  0  0  0  0
  -24.3340  -13.1680   20.8560 C   0  0  0  0  0  0  0  0  0  0  0  0
  -24.7800  -11.8140   20.7610 C   0  0  0  0  0  0  0  0  0  0  0  0
  -26.3990  -13.0600   20.1110 N   0  0  0  0  0  0  0  0  0  0  0  0
  -26.0480  -11.7730   20.3670 N   0  0  0  0  0  0  0  0  0  0  0  0
  -24.0530  -10.5530   20.9660 C   0  0  0  0  0  0  0  0  0  0  0  0
  -24.5080   -9.5770   21.8810 C   0  0  0  0  0  3  0  0  0  0  0  0
  -23.7810   -8.3830   22.0740 C   0  0  0  0  0  3  0  0  0  0  0  0
  -22.5850   -8.1550   21.3530 C   0  0  0  0  0  0  0  0  0  0  0  0
  -22.1490   -9.1200   20.4270 C   0  0  0  0  0  3  0  0  0  0  0  0
  -22.8760  -10.3050   20.2310 C   0  0  0  0  0  3  0  0  0  0  0  0
  -21.8280   -7.0140   21.4560 O   0  0  0  0  0  0  0  0  0  0  0  0
  -21.7700   -6.2910   22.6210 C   0  0  0  0  0  0  0  0  0  0  0  0
  -21.3500   -6.8700   23.8370 C   0  0  0  0  0  3  0  0  0  0  0  0
  -21.2380   -6.0740   24.9960 C   0  0  0  0  0  3  0  0  0  0  0  0
  -21.5380   -4.7000   24.9370 C   0  0  0  0  0  0  0  0  0  0  0  0
  -21.9520   -4.1210   23.7240 C   0  0  0  0  0  3  0  0  0  0  0  0
  -22.0640   -4.9130   22.5690 C   0  0  0  0  0  0  0  0  0  0  0  0
  -22.4430   -4.3450   21.3990 F   0  0  0  0  0  0  0  0  0  0  0  0
  -21.4240   -3.9340   26.0470 F   0  0  0  0  0  0  0  0  0  0  0  0
  -22.9620  -13.6510   21.2280 C   0  0  0  0  0  0  0  0  0  0  0  0
  -22.2880  -12.9460   22.1310 N   0  0  0  0  0  0  0  0  0  0  0  0
  -22.5000  -14.6870   20.7550 O   0  0  0  0  0  0  0  0  0  0  0  0
  -22.6770  -12.1070   22.5360 H   0  0  0  0  0  0  0  0  0  0  0  0
  -21.3700  -13.2510   22.4210 H   0  0  0  0  0  0  0  0  0  0  0  0
  -25.5500  -15.3160   20.2880 N   0  0  0  0  0  0  0  0  0  0  0  0
  -24.8020  -15.9740   20.4740 H   0  0  0  0  0  0  0  0  0  0  0  0
  -26.3910  -15.7560   19.9380 H   0  0  0  0  0  0  0  0  0  0  0  0
  -27.9580  -24.8810   19.9630 C   0  0  0  0  0  2  0  0  0  0  0  0
  -28.2340  -26.3280   20.3130 O   0  0  0  0  0  0  0  0  0  0  0  0
  -24.5950  -31.9090   23.2550 C   0  0  0  0  0  0  0  0  0  0  0  0
  -27.1630  -27.2620   20.2220 C   0  0  0  0  0  0  0  0  0  0  0  0
  -23.3830  -30.5060   21.6280 C   0  0  0  0  0  3  0  0  0  0  0  0
  -24.8230  -28.9450   20.2000 C   0  0  0  0  0  0  0  0  0  0  0  0
  -25.9300  -30.7940   21.4450 C   0  0  0  0  0  2  0  0  0  0  0  0
  -26.0000  -29.4070   20.8020 C   0  0  0  0  0  0  0  0  0  0  0  0
  -27.1720  -28.5780   20.8060 C   0  0  0  0  0  3  0  0  0  0  0  0
  -25.9660  -26.8900   19.5650 C   0  0  0  0  0  3  0  0  0  0  0  0
  -24.8130  -27.6940   19.5700 C   0  0  0  0  0  3  0  0  0  0  0  0
  -23.5920  -29.8290   20.2490 C   0  0  0  0  0  2  0  0  0  0  0  0
  -24.6560  -31.0880   22.1640 N   0  0  0  0  0  0  0  0  0  0  0  0
  -23.5130  -32.1950   23.7890 O   0  0  0  0  0  0  0  0  0  0  0  0
  -22.7160  -29.4980   22.5950 C   0  0  0  0  0  0  0  0  0  0  0  0
  -21.3890  -29.3190   22.4680 N   0  0  0  0  0  0  0  0  0  0  0  0
  -23.3920  -28.8800   23.4220 O   0  0  0  0  0  0  0  0  0  0  0  0
  -20.9020  -29.8690   21.7740 H   0  0  0  0  0  0  0  0  0  0  0  0
  -18.0130  -28.1080   22.9610 C   0  0  0  0  0  0  0  0  0  0  0  0
  -20.5690  -28.3870   23.2460 C   0  0  0  0  0  3  0  0  0  0  0  0
  -20.6830  -26.9480   22.6930 C   0  0  0  0  0  2  0  0  0  0  0  0
  -19.5910  -26.6030   21.6760 C   0  0  0  0  0  2  0  0  0  0  0  0
  -18.2040  -26.7500   22.3080 C   0  0  0  0  0  2  0  0  0  0  0  0
  -19.1250  -28.8830   23.3890 C   0  0  0  0  0  0  0  0  0  0  0  0
  -18.8930  -30.1530   23.9610 C   0  0  0  0  0  3  0  0  0  0  0  0
  -17.5840  -30.6480   24.1100 C   0  0  0  0  0  3  0  0  0  0  0  0
  -16.4880  -29.8690   23.6990 C   0  0  0  0  0  3  0  0  0  0  0  0
  -16.7030  -28.6020   23.1310 C   0  0  0  0  0  3  0  0  0  0  0  0
  -25.8790  -32.5420   23.8700 C   0  0  0  0  0  3  0  0  0  0  0  0
  -25.5710  -33.9410   24.2010 N   0  0  0  0  0  0  0  0  0  0  0  0
  -25.8930  -34.9940   23.4380 C   0  0  0  0  0  0  0  0  0  0  0  0
  -26.5500  -34.8910   22.3980 O   0  0  0  0  0  0  0  0  0  0  0  0
  -24.9860  -34.0950   25.0090 H   0  0  0  0  0  0  0  0  0  0  0  0
  -24.1560  -36.7850   23.1100 C   0  0  0  0  0  1  0  0  0  0  0  0
  -25.4110  -36.3830   23.9000 C   0  0  0  0  0  3  0  0  0  0  0  0
  -27.5580  -37.2720   24.6940 C   0  0  0  0  0  1  0  0  0  0  0  0
  -26.4400  -37.4380   23.7700 N   0  0  0  0  0  0  0  0  0  0  0  0
  -26.0350  -38.3570   23.9230 H   0  0  0  0  0  0  0  0  0  0  0  0
  -26.4000  -31.7730   25.1470 C   0  0  1  0  0  0  0  0  0  0  0  0
  -25.3110  -31.5390   26.2200 C   0  0  0  0  0  1  0  0  0  0  0  0
  -26.9800  -30.3930   24.7590 C   0  0  0  0  0  1  0  0  0  0  0  0
  -27.5540  -32.5680   25.8020 C   0  0  0  0  0  1  0  0  0  0  0  0
  1  2  2  0
  1  6  1  0
  2  4  1  0
  3  7  2  0
  4  3  1  0
  5  3  1  0
  6  5  1  0
  8  9  2  0
  8 10  1  0
  9 11  1  0
 10 12  2  0
 11  6  1  0
 11 13  2  0
 12 24  1  0
 12 13  1  0
 13 14  1  0
 15 24  1  0
 16 21  1  0
 17 18  1  0
 17 16  1  0
 19 18  1  0
 19 28  1  0
 19 20  1  0
 21 15  1  0
 21 20  1  0
 22 15  2  0
 24 23  1  0
 25 26  2  0
 26 45  1  0
 27 26  1  0
 27 30  1  0
 28 29  1  0
 28 25  1  0
 29 27  2  0
 30 31  1  0
 31 32  2  0
 33 36  1  0
 33 32  1  0
 34 33  2  0
 35 34  1  0
 35 30  2  0
 36 37  1  0
 37 38  1  0
 38 39  2  0
 40 39  1  0
 40 44  1  0
 41 40  2  0
 42 37  2  0
 42 41  1  0
 43 42  1  0
 45 46  1  0
 46 49  1  0
 46 48  1  0
 47 45  2  0
 50 25  1  0
 50 51  1  0
 52 50  1  0
 53 54  1  0
 53  2  1  0
 55 66  2  0
 56 54  1  0
 56 61  1  0
 57 65  1  0
 57 67  1  0
 58 64  1  0
 58 60  1  0
 59 65  1  0
 60 61  2  0
 60 59  1  0
 62 63  1  0
 62 56  2  0
 63 58  2  0
 64 57  1  0
 65 55  1  0
 67 69  2  0
 68 67  1  0
 70 68  1  0
 71 80  2  0
 71 76  1  0
 72 68  1  0
 72 76  1  0
 73 72  1  0
 74 75  1  0
 74 73  1  0
 75 71  1  0
 76 77  2  0
 77 78  1  0
 79 78  2  0
 80 79  1  0
 81 55  1  0
 81 82  1  0
 81 91  1  0
 82 85  1  0
 83 87  1  0
 83 82  1  0
 84 83  2  0
 87 86  1  0
 89 87  1  0
 89 90  1  0
 89 88  1  0
 91 94  1  1
 91 92  1  0
 93 91  1  0
M  ISO  4  15 100  24 100  53 101  54 101
M  END
>  <TORSDO>  (40) 
F 18

>  <SCORE>  (40) 
-14.581

>  <name>  (40) 
39

>  <ligand_id>  (40) 
39

>  <original_smiles>  (40) 
[H]C1=C(C([H])([H])Oc2c([H])c([H])c3c(c2[H])C([H])([H])N(C(=O)C([H])(N([H])C(=O)C([H])(N([H])C([H])([H])[H])C([H])([H])[H])C(C([H])([H])[H])(C([H])([H])[H])C([H])([H])[H])C([H])(C(=O)N([H])C2([H])c4c([H])c([H])c([H])c([H])c4C([H])([H])C([H])([H])C2([H])[H])C3([H])[H])C([H])([H])C(=O)C([H])([H])N1c1c([H])c([H])c([H])c(N(C(=O)N2C([H])([H])C([H])([H])C([H])([H])C([H])(n3nc(-c4c([H])c([H])c(Oc5c([H])c([H])c(F)c([H])c5F)c([H])c4[H])c(C(=O)N([H])[H])c3N([H])[H])C2([H])[H])C([H])([H])[H])c1F

>  <smiles>  (40) 
[H]C1=C(C([H])([H])Oc2c([H])c([H])c3c(c2[H])C([H])([H])N(C(=O)C([H])(N([H])C(=O)C([H])(N([H])C([H])([H])[H])C([H])([H])[H])C(C([H])([H])[H])(C([H])([H])[H])C([H])([H])[H])C([H])(C(=O)N([H])C2([H])c4c([H])c([H])c([H])c([H])c4C([H])([H])C([H])([H])C2([H])[H])C3([H])[H])C([H])([H])C(=O)C([H])([H])N1c1c([H])c([H])c([H])c(N(C(=O)N2C([H])([H])C([H])([H])C([H])([H])C([H])(n3nc(-c4c([H])c([H])c(Oc5c([H])c([H])c(F)c([H])c5F)c([H])c4[H])c(C(=O)N([H])[H])c3N([H])[H])C2([H])[H])C([H])([H])[H])c1F

$$$$
40:0:0
     RDKit          3D

 94102  0  0  1  0  0  0  0  0999 V2000
  -30.3510  -21.2410   21.1360 C   0  0  0  0  0  0  0  0  0  0  0  0
  -29.9190  -21.9350   20.0700 N   0  0  0  0  0  0  0  0  0  0  0  0
  -30.8390  -21.7680   22.1370 O   0  0  0  0  0  0  0  0  0  0  0  0
  -29.4630  -21.3810   19.3600 H   0  0  0  0  0  0  0  0  0  0  0  0
  -29.8390  -18.9620   22.1510 C   0  0  0  0  0  3  0  0  0  0  0  0
  -30.6740  -19.0440   19.8760 C   0  0  0  0  0  3  0  0  0  0  0  0
  -29.8110  -17.5500   22.0880 C   0  0  0  0  0  3  0  0  0  0  0  0
  -30.6650  -17.6280   19.8190 C   0  0  0  0  0  3  0  0  0  0  0  0
  -30.2580  -19.7330   21.0410 C   0  0  0  0  0  0  0  0  0  0  0  0
  -30.2340  -16.8590   20.9290 C   0  0  0  0  0  0  0  0  0  0  0  0
  -30.7550  -14.5140   20.1440 C   0  0  0  0  0  0  0  0  0  0  0  0
  -30.3970  -12.3990   18.9130 C   0  0  0  0  0  2  0  0  0  0  0  0
  -29.3940  -12.6650   17.7710 C   0  0  0  0  0  2  0  0  0  0  0  0
  -27.9380  -12.5330   18.2670 C   0  0  0  0  0  2  0  0  0  0  0  0
  -27.6810  -13.3010   19.5910 C   0  0  0  0  0  3  0  0  0  0  0  0
  -28.7910  -13.0030   20.6240 C   0  0  0  0  0  2  0  0  0  0  0  0
  -30.0900  -13.3320   20.0090 N   0  0  0  0  0  0  0  0  0  0  0  0
  -31.8190  -14.7480   19.5610 O   0  0  0  0  0  0  0  0  0  0  0  0
  -30.1370  -15.4280   20.9220 N   0  0  0  0  0  0  0  0  0  0  0  0
  -29.3980  -15.0430   21.4910 H   0  0  0  0  0  0  0  0  0  0  0  0
  -25.3200  -13.8940   20.4310 C   0  0  0  0  0  0  0  0  0  0  0  0
  -24.2710  -13.1140   20.8380 C   0  0  0  0  0  0  0  0  0  0  0  0
  -24.7250  -11.7620   20.7490 C   0  0  0  0  0  0  0  0  0  0  0  0
  -26.3500  -13.0170   20.1260 N   0  0  0  0  0  0  0  0  0  0  0  0
  -25.9980  -11.7290   20.3730 N   0  0  0  0  0  0  0  0  0  0  0  0
  -24.0060  -10.4970   20.9460 C   0  0  0  0  0  0  0  0  0  0  0  0
  -24.4450   -9.5360   21.8820 C   0  0  0  0  0  3  0  0  0  0  0  0
  -23.7280   -8.3340   22.0660 C   0  0  0  0  0  3  0  0  0  0  0  0
  -22.5550   -8.0860   21.3140 C   0  0  0  0  0  0  0  0  0  0  0  0
  -22.1340   -9.0360   20.3680 C   0  0  0  0  0  3  0  0  0  0  0  0
  -22.8530  -10.2290   20.1810 C   0  0  0  0  0  3  0  0  0  0  0  0
  -21.8070   -6.9370   21.4080 O   0  0  0  0  0  0  0  0  0  0  0  0
  -21.7100   -6.2360   22.5830 C   0  0  0  0  0  0  0  0  0  0  0  0
  -21.2160   -6.8290   23.7660 C   0  0  0  0  0  3  0  0  0  0  0  0
  -21.0680   -6.0530   24.9330 C   0  0  0  0  0  3  0  0  0  0  0  0
  -21.4010   -4.6850   24.9170 C   0  0  0  0  0  0  0  0  0  0  0  0
  -21.8880   -4.0920   23.7390 C   0  0  0  0  0  3  0  0  0  0  0  0
  -22.0390   -4.8650   22.5750 C   0  0  0  0  0  0  0  0  0  0  0  0
  -22.4880   -4.2850   21.4360 F   0  0  0  0  0  0  0  0  0  0  0  0
  -21.2510   -3.9370   26.0350 F   0  0  0  0  0  0  0  0  0  0  0  0
  -22.8920  -13.5860   21.1980 C   0  0  0  0  0  0  0  0  0  0  0  0
  -22.2170  -12.8780   22.0960 N   0  0  0  0  0  0  0  0  0  0  0  0
  -22.4240  -14.6170   20.7180 O   0  0  0  0  0  0  0  0  0  0  0  0
  -22.6090  -12.0430   22.5080 H   0  0  0  0  0  0  0  0  0  0  0  0
  -21.2940  -13.1740   22.3800 H   0  0  0  0  0  0  0  0  0  0  0  0
  -25.4800  -15.2680   20.2760 N   0  0  0  0  0  0  0  0  0  0  0  0
  -24.7190  -15.9210   20.4320 H   0  0  0  0  0  0  0  0  0  0  0  0
  -26.3120  -15.7120   19.9060 H   0  0  0  0  0  0  0  0  0  0  0  0
  -29.9840  -23.4750   18.1820 C   0  0  0  0  0  1  0  0  0  0  0  0
  -30.2530  -23.3270   19.6930 C   0  0  0  0  0  3  0  0  0  0  0  0
  -29.5580  -24.4690   20.5180 C   0  0  0  0  0  0  0  0  0  0  0  0
  -29.9940  -24.8070   21.6220 O   0  0  0  0  0  0  0  0  0  0  0  0
  -28.3200  -25.2210   19.9610 C   0  0  0  0  0  2  0  0  0  0  0  0
  -28.4200  -26.6530   20.1530 O   0  0  0  0  0  0  0  0  0  0  0  0
  -24.4810  -31.7700   23.1680 C   0  0  0  0  0  0  0  0  0  0  0  0
  -27.2400  -27.3780   20.0970 C   0  0  0  0  0  0  0  0  0  0  0  0
  -23.3190  -30.3460   21.5150 C   0  0  0  0  0  3  0  0  0  0  0  0
  -24.8150  -28.8530   20.0880 C   0  0  0  0  0  0  0  0  0  0  0  0
  -25.8400  -30.7600   21.3360 C   0  0  0  0  0  2  0  0  0  0  0  0
  -25.9590  -29.3940   20.6860 C   0  0  0  0  0  0  0  0  0  0  0  0
  -27.1750  -28.6660   20.6830 C   0  0  0  0  0  3  0  0  0  0  0  0
  -26.0740  -26.8620   19.4830 C   0  0  0  0  0  3  0  0  0  0  0  0
  -24.8700  -27.5890   19.4790 C   0  0  0  0  0  3  0  0  0  0  0  0
  -23.5500  -29.6820   20.1330 C   0  0  0  0  0  2  0  0  0  0  0  0
  -24.5640  -30.9750   22.0640 N   0  0  0  0  0  0  0  0  0  0  0  0
  -23.3910  -32.0140   23.7030 O   0  0  0  0  0  0  0  0  0  0  0  0
  -22.6890  -29.3030   22.4680 C   0  0  0  0  0  0  0  0  0  0  0  0
  -21.3740  -29.0770   22.3220 N   0  0  0  0  0  0  0  0  0  0  0  0
  -23.3810  -28.7040   23.2960 O   0  0  0  0  0  0  0  0  0  0  0  0
  -20.8760  -29.6120   21.6230 H   0  0  0  0  0  0  0  0  0  0  0  0
  -18.0350  -27.7660   22.7670 C   0  0  0  0  0  0  0  0  0  0  0  0
  -20.5760  -28.1140   23.0830 C   0  0  0  0  0  3  0  0  0  0  0  0
  -20.7400  -26.6860   22.5150 C   0  0  0  0  0  2  0  0  0  0  0  0
  -19.6670  -26.3210   21.4840 C   0  0  0  0  0  2  0  0  0  0  0  0
  -18.2690  -26.4210   22.1020 C   0  0  0  0  0  2  0  0  0  0  0  0
  -19.1180  -28.5690   23.2140 C   0  0  0  0  0  0  0  0  0  0  0  0
  -18.8450  -29.8260   23.7940 C   0  0  0  0  0  3  0  0  0  0  0  0
  -17.5200  -30.2830   23.9340 C   0  0  0  0  0  3  0  0  0  0  0  0
  -16.4520  -29.4780   23.5040 C   0  0  0  0  0  3  0  0  0  0  0  0
  -16.7090  -28.2220   22.9260 C   0  0  0  0  0  3  0  0  0  0  0  0
  -25.7480  -32.4300   23.7970 C   0  0  0  0  0  3  0  0  0  0  0  0
  -26.2830  -31.6630   25.0680 C   0  0  1  0  0  0  0  0  0  0  0  0
  -25.1940  -31.3850   26.1290 C   0  0  0  0  0  1  0  0  0  0  0  0
  -26.9090  -30.3070   24.6660 C   0  0  0  0  0  1  0  0  0  0  0  0
  -27.4080  -32.4860   25.7400 C   0  0  0  0  0  1  0  0  0  0  0  0
  -25.4000  -33.8160   24.1350 N   0  0  0  0  0  0  0  0  0  0  0  0
  -25.7120  -34.8820   23.3860 C   0  0  0  0  0  0  0  0  0  0  0  0
  -26.3930  -34.8040   22.3600 O   0  0  0  0  0  0  0  0  0  0  0  0
  -24.7930  -33.9490   24.9300 H   0  0  0  0  0  0  0  0  0  0  0  0
  -23.9430  -36.6340   23.0280 C   0  0  0  0  0  1  0  0  0  0  0  0
  -25.1850  -36.2540   23.8500 C   0  0  0  0  0  3  0  0  0  0  0  0
  -27.2850  -37.1840   24.7160 C   0  0  0  0  0  1  0  0  0  0  0  0
  -26.1920  -37.3320   23.7590 N   0  0  0  0  0  0  0  0  0  0  0  0
  -25.7610  -38.2410   23.9070 H   0  0  0  0  0  0  0  0  0  0  0  0
  1  3  2  0
  2  1  1  0
  4  2  1  0
  6  9  1  0
  7  5  1  0
  8  6  2  0
  8 10  1  0
  9  1  1  0
  9  5  2  0
 10  7  2  0
 11 19  1  0
 12 17  1  0
 13 14  1  0
 13 12  1  0
 15 14  1  0
 15 24  1  0
 15 16  1  0
 17 11  1  0
 17 16  1  0
 18 11  2  0
 19 10  1  0
 19 20  1  0
 21 22  2  0
 22 41  1  0
 23 22  1  0
 23 26  1  0
 24 25  1  0
 24 21  1  0
 25 23  2  0
 26 27  1  0
 27 28  2  0
 29 32  1  0
 29 28  1  0
 30 29  2  0
 31 30  1  0
 31 26  2  0
 32 33  1  0
 33 34  1  0
 34 35  2  0
 36 35  1  0
 36 40  1  0
 37 36  2  0
 38 33  2  0
 38 37  1  0
 39 38  1  0
 41 42  1  0
 42 45  1  0
 42 44  1  0
 43 41  2  0
 46 21  1  0
 46 47  1  0
 48 46  1  0
 50 49  1  0
 50  2  1  0
 50 51  1  0
 51 52  2  0
 53 54  1  0
 53 51  1  0
 55 66  2  0
 56 54  1  0
 56 61  1  0
 57 65  1  0
 57 67  1  0
 58 64  1  0
 58 60  1  0
 59 65  1  0
 60 59  1  0
 61 60  2  0
 62 56  2  0
 63 62  1  0
 63 58  2  0
 64 57  1  0
 65 55  1  0
 67 69  2  0
 68 67  1  0
 70 68  1  0
 71 80  2  0
 71 76  1  0
 72 68  1  0
 72 76  1  0
 73 72  1  0
 74 75  1  0
 74 73  1  0
 75 71  1  0
 76 77  2  0
 77 78  1  0
 79 78  2  0
 80 79  1  0
 81 55  1  0
 81 86  1  0
 81 82  1  0
 82 85  1  1
 82 83  1  0
 84 82  1  0
 86 89  1  0
 87 91  1  0
 87 86  1  0
 88 87  2  0
 91 90  1  0
 93 91  1  0
 93 94  1  0
 93 92  1  0
M  ISO  4  11 100  19 100  53 101  54 101
M  END
>  <TORSDO>  (41) 
F 20

>  <SCORE>  (41) 
-12.678

>  <name>  (41) 
40

>  <ligand_id>  (41) 
40

>  <original_smiles>  (41) 
[H]c1c([H])c([H])c2c(c1[H])C([H])([H])C([H])([H])C([H])([H])C2([H])N([H])C(=O)C1([H])N(C(=O)C([H])(N([H])C(=O)C([H])(N([H])C([H])([H])[H])C([H])([H])[H])C(C([H])([H])[H])(C([H])([H])[H])C([H])([H])[H])C([H])([H])c2c([H])c(OC([H])([H])C(=O)C([H])(N([H])C(=O)c3c([H])c([H])c(N([H])C(=O)N4C([H])([H])C([H])([H])C([H])([H])C([H])(n5nc(-c6c([H])c([H])c(Oc7c([H])c([H])c(F)c([H])c7F)c([H])c6[H])c(C(=O)N([H])[H])c5N([H])[H])C4([H])[H])c([H])c3[H])C([H])([H])[H])c([H])c([H])c2C1([H])[H]

>  <smiles>  (41) 
[H]c1c([H])c([H])c2c(c1[H])C([H])([H])C([H])([H])C([H])([H])C2([H])N([H])C(=O)C1([H])N(C(=O)C([H])(N([H])C(=O)C([H])(N([H])C([H])([H])[H])C([H])([H])[H])C(C([H])([H])[H])(C([H])([H])[H])C([H])([H])[H])C([H])([H])c2c([H])c(OC([H])([H])C(=O)C([H])(N([H])C(=O)c3c([H])c([H])c(N([H])C(=O)N4C([H])([H])C([H])([H])C([H])([H])C([H])(n5nc(-c6c([H])c([H])c(Oc7c([H])c([H])c(F)c([H])c7F)c([H])c6[H])c(C(=O)N([H])[H])c5N([H])[H])C4([H])[H])c([H])c3[H])C([H])([H])[H])c([H])c([H])c2C1([H])[H]

$$$$
41:0:0
     RDKit          3D

 92100  0  0  1  0  0  0  0  0999 V2000
  -31.8620  -19.5520   20.4880 C   0  0  0  0  0  3  0  0  0  0  0  0
  -31.4230  -18.2140   20.5010 C   0  0  0  0  0  3  0  0  0  0  0  0
  -29.5770  -20.5470   20.3680 C   0  0  0  0  0  0  0  0  0  0  0  0
  -31.0020  -20.6730   20.4170 C   0  0  0  0  0  0  0  0  0  0  0  0
  -30.0610  -17.8640   20.4330 C   0  0  0  0  0  0  0  0  0  0  0  0
  -29.1630  -19.0830   20.3750 C   0  0  0  0  0  0  0  0  0  0  0  0
  -27.8320  -18.8310   20.3130 F   0  0  0  0  0  0  0  0  0  0  0  0
  -30.4830  -15.1040   20.3300 C   0  0  0  0  0  0  0  0  0  0  0  0
  -30.3860  -12.7260   19.3980 C   0  0  0  0  0  2  0  0  0  0  0  0
  -29.4580  -12.6280   18.1640 C   0  0  0  0  0  2  0  0  0  0  0  0
  -28.0010  -12.3910   18.5990 C   0  0  0  0  0  2  0  0  0  0  0  0
  -27.5750  -13.3230   19.7620 C   0  0  0  0  0  3  0  0  0  0  0  0
  -28.6280  -13.3880   20.8880 C   0  0  0  0  0  2  0  0  0  0  0  0
  -29.8830  -13.8360   20.2680 N   0  0  0  0  0  0  0  0  0  0  0  0
  -31.6940  -15.1170   20.0810 O   0  0  0  0  0  0  0  0  0  0  0  0
  -29.7230  -16.3320   20.4480 N   0  0  0  0  0  0  0  0  0  0  0  0
  -28.7350  -16.1520   20.5440 H   0  0  0  0  0  0  0  0  0  0  0  0
  -25.1930  -13.8720   20.5050 C   0  0  0  0  0  0  0  0  0  0  0  0
  -24.1360  -13.0870   20.8710 C   0  0  0  0  0  0  0  0  0  0  0  0
  -24.6140  -11.7400   20.8420 C   0  0  0  0  0  0  0  0  0  0  0  0
  -26.2440  -13.0040   20.2650 N   0  0  0  0  0  0  0  0  0  0  0  0
  -25.9060  -11.7160   20.5350 N   0  0  0  0  0  0  0  0  0  0  0  0
  -23.8970  -10.4720   21.0270 C   0  0  0  0  0  0  0  0  0  0  0  0
  -24.3380   -9.5010   21.9530 C   0  0  0  0  0  3  0  0  0  0  0  0
  -23.6180   -8.2990   22.1280 C   0  0  0  0  0  3  0  0  0  0  0  0
  -22.4420   -8.0600   21.3770 C   0  0  0  0  0  0  0  0  0  0  0  0
  -22.0210   -9.0190   20.4410 C   0  0  0  0  0  3  0  0  0  0  0  0
  -22.7410  -10.2120   20.2630 C   0  0  0  0  0  3  0  0  0  0  0  0
  -21.6930   -6.9110   21.4630 O   0  0  0  0  0  0  0  0  0  0  0  0
  -21.6610   -6.1560   22.6090 C   0  0  0  0  0  0  0  0  0  0  0  0
  -21.2350   -6.6940   23.8430 C   0  0  0  0  0  3  0  0  0  0  0  0
  -21.1510   -5.8650   24.9790 C   0  0  0  0  0  3  0  0  0  0  0  0
  -21.4800   -4.5010   24.8840 C   0  0  0  0  0  0  0  0  0  0  0  0
  -21.8990   -3.9620   23.6530 C   0  0  0  0  0  3  0  0  0  0  0  0
  -21.9850   -4.7880   22.5190 C   0  0  0  0  0  0  0  0  0  0  0  0
  -22.3680   -4.2590   21.3320 F   0  0  0  0  0  0  0  0  0  0  0  0
  -21.3930   -3.7030   25.9740 F   0  0  0  0  0  0  0  0  0  0  0  0
  -22.7340  -13.5520   21.1350 C   0  0  0  0  0  0  0  0  0  0  0  0
  -22.0090  -12.8540   22.0020 N   0  0  0  0  0  0  0  0  0  0  0  0
  -22.2900  -14.5700   20.6060 O   0  0  0  0  0  0  0  0  0  0  0  0
  -22.3820  -12.0310   22.4510 H   0  0  0  0  0  0  0  0  0  0  0  0
  -21.0690  -13.1490   22.2220 H   0  0  0  0  0  0  0  0  0  0  0  0
  -25.3440  -15.2450   20.3290 N   0  0  0  0  0  0  0  0  0  0  0  0
  -24.5680  -15.8890   20.4420 H   0  0  0  0  0  0  0  0  0  0  0  0
  -26.1790  -15.6950   19.9800 H   0  0  0  0  0  0  0  0  0  0  0  0
  -31.6540  -21.9040   20.3740 N   0  0  0  0  0  0  0  0  0  0  0  0
  -32.6290  -21.9400   20.6570 H   0  0  0  0  0  0  0  0  0  0  0  0
  -31.1400  -22.7260   20.6600 H   0  0  0  0  0  0  0  0  0  0  0  0
  -28.8770  -23.1640   20.4040 C   0  0  0  0  0  3  0  0  0  0  0  0
  -28.6820  -21.8020   20.2480 N   0  0  0  0  0  0  0  0  0  0  0  0
  -27.8760  -24.5250   20.1370 C   0  0  0  0  0  2  0  0  0  0  0  0
  -28.2080  -26.0690   20.3450 O   0  0  0  0  0  0  0  0  0  0  0  0
  -24.6560  -31.9110   23.2830 C   0  0  0  0  0  0  0  0  0  0  0  0
  -27.1880  -27.1130   20.2680 C   0  0  0  0  0  0  0  0  0  0  0  0
  -23.4480  -30.5230   21.6450 C   0  0  0  0  0  3  0  0  0  0  0  0
  -24.8860  -28.9270   20.2230 C   0  0  0  0  0  0  0  0  0  0  0  0
  -26.0100  -30.7480   21.4890 C   0  0  0  0  0  2  0  0  0  0  0  0
  -26.0720  -29.3490   20.8380 C   0  0  0  0  0  0  0  0  0  0  0  0
  -27.2220  -28.4610   20.8400 C   0  0  0  0  0  3  0  0  0  0  0  0
  -25.9740  -26.8140   19.6090 C   0  0  0  0  0  3  0  0  0  0  0  0
  -24.8550  -27.6760   19.5900 C   0  0  0  0  0  3  0  0  0  0  0  0
  -23.6680  -29.8420   20.2670 C   0  0  0  0  0  2  0  0  0  0  0  0
  -24.7250  -31.0840   22.1930 N   0  0  0  0  0  0  0  0  0  0  0  0
  -23.5700  -32.2060   23.8070 O   0  0  0  0  0  0  0  0  0  0  0  0
  -22.7550  -29.5250   22.6080 C   0  0  0  0  0  0  0  0  0  0  0  0
  -21.4250  -29.3630   22.4770 N   0  0  0  0  0  0  0  0  0  0  0  0
  -23.4180  -28.8990   23.4400 O   0  0  0  0  0  0  0  0  0  0  0  0
  -20.9470  -29.9180   21.7820 H   0  0  0  0  0  0  0  0  0  0  0  0
  -18.0380  -28.1690   22.9630 C   0  0  0  0  0  0  0  0  0  0  0  0
  -20.5960  -28.4330   23.2490 C   0  0  0  0  0  3  0  0  0  0  0  0
  -20.7010  -26.9960   22.6870 C   0  0  0  0  0  2  0  0  0  0  0  0
  -19.6070  -26.6660   21.6670 C   0  0  0  0  0  2  0  0  0  0  0  0
  -18.2200  -26.8150   22.2980 C   0  0  0  0  0  2  0  0  0  0  0  0
  -19.1530  -28.9360   23.3960 C   0  0  0  0  0  0  0  0  0  0  0  0
  -18.9280  -30.2010   23.9790 C   0  0  0  0  0  3  0  0  0  0  0  0
  -17.6220  -30.7010   24.1350 C   0  0  0  0  0  3  0  0  0  0  0  0
  -16.5210  -29.9330   23.7180 C   0  0  0  0  0  3  0  0  0  0  0  0
  -16.7290  -28.6690   23.1370 C   0  0  0  0  0  3  0  0  0  0  0  0
  -25.9350  -32.5390   23.9120 C   0  0  0  0  0  3  0  0  0  0  0  0
  -26.4360  -31.7700   25.1960 C   0  0  1  0  0  0  0  0  0  0  0  0
  -25.3340  -31.5480   26.2590 C   0  0  0  0  0  1  0  0  0  0  0  0
  -27.0090  -30.3830   24.8200 C   0  0  0  0  0  1  0  0  0  0  0  0
  -27.5900  -32.5570   25.8600 C   0  0  0  0  0  1  0  0  0  0  0  0
  -25.6300  -33.9410   24.2450 N   0  0  0  0  0  0  0  0  0  0  0  0
  -25.9440  -34.9960   23.4790 C   0  0  0  0  0  0  0  0  0  0  0  0
  -26.5870  -34.8900   22.4310 O   0  0  0  0  0  0  0  0  0  0  0  0
  -25.0570  -34.0960   25.0610 H   0  0  0  0  0  0  0  0  0  0  0  0
  -24.1970  -36.7850   23.1950 C   0  0  0  0  0  1  0  0  0  0  0  0
  -25.4750  -36.3870   23.9510 C   0  0  0  0  0  3  0  0  0  0  0  0
  -27.6390  -37.2890   24.6820 C   0  0  0  0  0  1  0  0  0  0  0  0
  -26.4980  -37.4430   23.7830 N   0  0  0  0  0  0  0  0  0  0  0  0
  -26.0950  -38.3620   23.9360 H   0  0  0  0  0  0  0  0  0  0  0  0
  1  2  1  0
  3  6  2  0
  3  4  1  0
  4  1  2  0
  5 16  1  0
  5  2  2  0
  6  5  1  0
  7  6  1  0
  8 16  1  0
  9 14  1  0
 10 11  1  0
 10  9  1  0
 12 11  1  0
 12 21  1  0
 12 13  1  0
 14  8  1  0
 14 13  1  0
 15  8  2  0
 16 17  1  0
 18 19  2  0
 19 38  1  0
 20 19  1  0
 20 23  1  0
 21 18  1  0
 21 22  1  0
 22 20  2  0
 23 24  1  0
 24 25  2  0
 26 29  1  0
 26 25  1  0
 27 26  2  0
 28 27  1  0
 28 23  2  0
 29 30  1  0
 30 31  1  0
 31 32  2  0
 33 32  1  0
 33 37  1  0
 34 33  2  0
 35 30  2  0
 35 34  1  0
 36 35  1  0
 38 39  1  0
 39 42  1  0
 39 41  1  0
 40 38  2  0
 43 44  1  0
 43 18  1  0
 45 43  1  0
 46  4  1  0
 46 47  1  0
 46 48  1  0
 50  3  1  0
 50 49  2  0
 51 52  1  0
 51 49  1  0
 53 64  2  0
 54 52  1  0
 54 59  1  0
 55 63  1  0
 55 65  1  0
 56 62  1  0
 56 58  1  0
 57 63  1  0
 58 59  2  0
 58 57  1  0
 60 54  2  0
 61 60  1  0
 61 56  2  0
 62 55  1  0
 63 53  1  0
 65 67  2  0
 66 65  1  0
 68 66  1  0
 69 78  2  0
 69 74  1  0
 70 66  1  0
 70 74  1  0
 71 70  1  0
 72 73  1  0
 72 71  1  0
 73 69  1  0
 74 75  2  0
 75 76  1  0
 77 76  2  0
 78 77  1  0
 79 53  1  0
 79 84  1  0
 79 80  1  0
 80 83  1  1
 80 81  1  0
 82 80  1  0
 84 87  1  0
 85 89  1  0
 85 84  1  0
 86 85  2  0
 89 88  1  0
 91 92  1  0
 91 89  1  0
 91 90  1  0
M  ISO  4   8 100  16 100  51 101  52 101
M  END
>  <TORSDO>  (42) 
F 19

>  <SCORE>  (42) 
-15.259

>  <name>  (42) 
41

>  <ligand_id>  (42) 
41

>  <original_smiles>  (42) 
[H]C(=Nc1c(F)c(N([H])C(=O)N2C([H])([H])C([H])([H])C([H])([H])C([H])(n3nc(-c4c([H])c([H])c(Oc5c([H])c([H])c(F)c([H])c5F)c([H])c4[H])c(C(=O)N([H])[H])c3N([H])[H])C2([H])[H])c([H])c([H])c1N([H])[H])C([H])([H])Oc1c([H])c([H])c2c(c1[H])C([H])([H])N(C(=O)C([H])(N([H])C(=O)C([H])(N([H])C([H])([H])[H])C([H])([H])[H])C(C([H])([H])[H])(C([H])([H])[H])C([H])([H])[H])C([H])(C(=O)N([H])C1([H])c3c([H])c([H])c([H])c([H])c3C([H])([H])C([H])([H])C1([H])[H])C2([H])[H]

>  <smiles>  (42) 
[H]C(=Nc1c(F)c(N([H])C(=O)N2C([H])([H])C([H])([H])C([H])([H])C([H])(n3nc(-c4c([H])c([H])c(Oc5c([H])c([H])c(F)c([H])c5F)c([H])c4[H])c(C(=O)N([H])[H])c3N([H])[H])C2([H])[H])c([H])c([H])c1N([H])[H])C([H])([H])Oc1c([H])c([H])c2c(c1[H])C([H])([H])N(C(=O)C([H])(N([H])C(=O)C([H])(N([H])C([H])([H])[H])C([H])([H])[H])C(C([H])([H])[H])(C([H])([H])[H])C([H])([H])[H])C([H])(C(=O)N([H])C1([H])c3c([H])c([H])c([H])c([H])c3C([H])([H])C([H])([H])C1([H])[H])C2([H])[H]

$$$$
42:0:0
     RDKit          3D

 92100  0  0  1  0  0  0  0  0999 V2000
  -30.1540  -21.6960   20.5780 C   0  0  0  0  0  0  0  0  0  0  0  0
  -29.1800  -22.5970   20.2390 N   0  0  0  0  0  0  0  0  0  0  0  0
  -31.2290  -22.1220   21.0090 O   0  0  0  0  0  0  0  0  0  0  0  0
  -28.3030  -22.2470   19.8780 H   0  0  0  0  0  0  0  0  0  0  0  0
  -31.2010  -19.3550   20.3740 C   0  0  0  0  0  3  0  0  0  0  0  0
  -31.1730  -17.9280   20.3800 C   0  0  0  0  0  3  0  0  0  0  0  0
  -28.8010  -19.4450   20.4500 C   0  0  0  0  0  3  0  0  0  0  0  0
  -30.0260  -20.1630   20.4170 C   0  0  0  0  0  0  0  0  0  0  0  0
  -29.9490  -17.2140   20.4350 C   0  0  0  0  0  0  0  0  0  0  0  0
  -28.7700  -18.0130   20.4580 C   0  0  0  0  0  0  0  0  0  0  0  0
  -27.5720  -17.3840   20.5040 F   0  0  0  0  0  0  0  0  0  0  0  0
  -30.5780  -14.7090   20.0550 C   0  0  0  0  0  0  0  0  0  0  0  0
  -30.2750  -12.5140   18.9210 C   0  0  0  0  0  2  0  0  0  0  0  0
  -29.2600  -12.7020   17.7720 C   0  0  0  0  0  2  0  0  0  0  0  0
  -27.8150  -12.5410   18.2850 C   0  0  0  0  0  2  0  0  0  0  0  0
  -27.5450  -13.3600   19.5760 C   0  0  0  0  0  3  0  0  0  0  0  0
  -28.6670  -13.1470   20.6170 C   0  0  0  0  0  2  0  0  0  0  0  0
  -29.9430  -13.4960   19.9730 N   0  0  0  0  0  0  0  0  0  0  0  0
  -31.7180  -14.8600   19.6060 O   0  0  0  0  0  0  0  0  0  0  0  0
  -29.8090  -15.7550   20.4910 N   0  0  0  0  0  0  0  0  0  0  0  0
  -28.9030  -15.4620   20.8260 H   0  0  0  0  0  0  0  0  0  0  0  0
  -25.2020  -13.9640   20.4430 C   0  0  0  0  0  0  0  0  0  0  0  0
  -24.1490  -13.1930   20.8520 C   0  0  0  0  0  0  0  0  0  0  0  0
  -24.5940  -11.8380   20.7620 C   0  0  0  0  0  0  0  0  0  0  0  0
  -26.2230  -13.0800   20.1310 N   0  0  0  0  0  0  0  0  0  0  0  0
  -25.8650  -11.7940   20.3810 N   0  0  0  0  0  0  0  0  0  0  0  0
  -23.8650  -10.5790   20.9610 C   0  0  0  0  0  0  0  0  0  0  0  0
  -24.3100   -9.6050   21.8820 C   0  0  0  0  0  3  0  0  0  0  0  0
  -23.5810   -8.4110   22.0690 C   0  0  0  0  0  3  0  0  0  0  0  0
  -22.3930   -8.1820   21.3370 C   0  0  0  0  0  0  0  0  0  0  0  0
  -21.9650   -9.1450   20.4050 C   0  0  0  0  0  3  0  0  0  0  0  0
  -22.6950  -10.3310   20.2150 C   0  0  0  0  0  3  0  0  0  0  0  0
  -21.6330   -7.0410   21.4330 O   0  0  0  0  0  0  0  0  0  0  0  0
  -21.5640   -6.3210   22.5990 C   0  0  0  0  0  0  0  0  0  0  0  0
  -21.1030   -6.8940   23.8030 C   0  0  0  0  0  3  0  0  0  0  0  0
  -20.9810   -6.0990   24.9610 C   0  0  0  0  0  3  0  0  0  0  0  0
  -21.3110   -4.7320   24.9140 C   0  0  0  0  0  0  0  0  0  0  0  0
  -21.7650   -4.1570   23.7140 C   0  0  0  0  0  3  0  0  0  0  0  0
  -21.8880   -4.9490   22.5580 C   0  0  0  0  0  0  0  0  0  0  0  0
  -22.3050   -4.3860   21.3990 F   0  0  0  0  0  0  0  0  0  0  0  0
  -21.1870   -3.9650   26.0230 F   0  0  0  0  0  0  0  0  0  0  0  0
  -22.7760  -13.6780   21.2170 C   0  0  0  0  0  0  0  0  0  0  0  0
  -22.0920  -12.9670   22.1060 N   0  0  0  0  0  0  0  0  0  0  0  0
  -22.3200  -14.7200   20.7490 O   0  0  0  0  0  0  0  0  0  0  0  0
  -22.4730  -12.1230   22.5070 H   0  0  0  0  0  0  0  0  0  0  0  0
  -21.1720  -13.2740   22.3920 H   0  0  0  0  0  0  0  0  0  0  0  0
  -25.3700  -15.3370   20.2950 N   0  0  0  0  0  0  0  0  0  0  0  0
  -24.6230  -15.9930   20.4960 H   0  0  0  0  0  0  0  0  0  0  0  0
  -26.2270  -15.7990   20.0180 H   0  0  0  0  0  0  0  0  0  0  0  0
  -29.3480  -24.0970   20.3960 C   0  0  0  0  0  3  0  0  0  0  0  0
  -28.1900  -25.0720   19.9160 C   0  0  0  0  0  3  0  0  0  0  0  0
  -28.3700  -26.5270   20.1480 O   0  0  0  0  0  0  0  0  0  0  0  0
  -24.6040  -31.8730   23.1920 C   0  0  0  0  0  0  0  0  0  0  0  0
  -27.2410  -27.3600   20.0970 C   0  0  0  0  0  0  0  0  0  0  0  0
  -23.4070  -30.4820   21.5410 C   0  0  0  0  0  3  0  0  0  0  0  0
  -24.8640  -28.9530   20.1010 C   0  0  0  0  0  0  0  0  0  0  0  0
  -25.9430  -30.8190   21.3560 C   0  0  0  0  0  2  0  0  0  0  0  0
  -26.0300  -29.4460   20.7000 C   0  0  0  0  0  0  0  0  0  0  0  0
  -27.2210  -28.6610   20.6880 C   0  0  0  0  0  3  0  0  0  0  0  0
  -26.0500  -26.9220   19.4710 C   0  0  0  0  0  3  0  0  0  0  0  0
  -24.8760  -27.6960   19.4780 C   0  0  0  0  0  3  0  0  0  0  0  0
  -23.6220  -29.8190   20.1550 C   0  0  0  0  0  2  0  0  0  0  0  0
  -24.6700  -31.0740   22.0870 N   0  0  0  0  0  0  0  0  0  0  0  0
  -23.5200  -32.1410   23.7290 O   0  0  0  0  0  0  0  0  0  0  0  0
  -22.7510  -29.4530   22.4930 C   0  0  0  0  0  0  0  0  0  0  0  0
  -21.4240  -29.2800   22.3730 N   0  0  0  0  0  0  0  0  0  0  0  0
  -23.4340  -28.8160   23.2980 O   0  0  0  0  0  0  0  0  0  0  0  0
  -20.9320  -29.8460   21.6960 H   0  0  0  0  0  0  0  0  0  0  0  0
  -18.0430  -28.1060   22.9010 C   0  0  0  0  0  0  0  0  0  0  0  0
  -20.6070  -28.3350   23.1370 C   0  0  0  0  0  3  0  0  0  0  0  0
  -20.6870  -26.9150   22.5310 C   0  0  0  0  0  2  0  0  0  0  0  0
  -19.5660  -26.6230   21.5290 C   0  0  0  0  0  2  0  0  0  0  0  0
  -18.1950  -26.7690   22.1970 C   0  0  0  0  0  2  0  0  0  0  0  0
  -19.1760  -28.8490   23.3280 C   0  0  0  0  0  0  0  0  0  0  0  0
  -18.9780  -30.1020   23.9480 C   0  0  0  0  0  3  0  0  0  0  0  0
  -17.6810  -30.6130   24.1440 C   0  0  0  0  0  3  0  0  0  0  0  0
  -16.5630  -29.8670   23.7320 C   0  0  0  0  0  3  0  0  0  0  0  0
  -16.7450  -28.6150   23.1170 C   0  0  0  0  0  3  0  0  0  0  0  0
  -25.8840  -32.5060   23.8180 C   0  0  0  0  0  3  0  0  0  0  0  0
  -26.3910  -31.7390   25.1020 C   0  0  1  0  0  0  0  0  0  0  0  0
  -25.2900  -31.5050   26.1620 C   0  0  0  0  0  1  0  0  0  0  0  0
  -26.9770  -30.3610   24.7180 C   0  0  0  0  0  1  0  0  0  0  0  0
  -27.5370  -32.5360   25.7700 C   0  0  0  0  0  1  0  0  0  0  0  0
  -25.5750  -33.9070   24.1420 N   0  0  0  0  0  0  0  0  0  0  0  0
  -25.8980  -34.9550   23.3730 C   0  0  0  0  0  0  0  0  0  0  0  0
  -26.5600  -34.8460   22.3370 O   0  0  0  0  0  0  0  0  0  0  0  0
  -24.9870  -34.0650   24.9470 H   0  0  0  0  0  0  0  0  0  0  0  0
  -24.1610  -36.7400   23.0240 C   0  0  0  0  0  1  0  0  0  0  0  0
  -25.4130  -36.3450   23.8250 C   0  0  0  0  0  3  0  0  0  0  0  0
  -27.5500  -37.2460   24.6320 C   0  0  0  0  0  1  0  0  0  0  0  0
  -26.4410  -37.4010   23.6930 N   0  0  0  0  0  0  0  0  0  0  0  0
  -26.0330  -38.3210   23.8330 H   0  0  0  0  0  0  0  0  0  0  0  0
  1  3  2  0
  2 50  1  0
  2  1  1  0
  4  2  1  0
  5  6  2  0
  5  8  1  0
  6  9  1  0
  7 10  1  0
  8  7  2  0
  8  1  1  0
  9 10  2  0
  9 20  1  0
 10 11  1  0
 12 20  1  0
 13 18  1  0
 14 15  1  0
 14 13  1  0
 16 15  1  0
 16 25  1  0
 16 17  1  0
 18 12  1  0
 18 17  1  0
 19 12  2  0
 20 21  1  0
 22 23  2  0
 23 42  1  0
 24 23  1  0
 24 27  1  0
 25 26  1  0
 25 22  1  0
 26 24  2  0
 27 28  1  0
 28 29  2  0
 30 33  1  0
 30 29  1  0
 31 30  2  0
 32 31  1  0
 32 27  2  0
 33 34  1  0
 34 35  1  0
 35 36  2  0
 37 36  1  0
 37 41  1  0
 38 37  2  0
 39 34  2  0
 39 38  1  0
 40 39  1  0
 42 43  1  0
 43 46  1  0
 43 45  1  0
 44 42  2  0
 47 22  1  0
 47 48  1  0
 49 47  1  0
 51 52  1  0
 51 50  2  0
 53 64  2  0
 54 52  1  0
 54 59  1  0
 55 63  1  0
 55 65  1  0
 56 62  1  0
 56 58  1  0
 57 63  1  0
 58 57  1  0
 59 58  2  0
 60 61  1  0
 60 54  2  0
 61 56  2  0
 62 55  1  0
 63 53  1  0
 65 67  2  0
 66 65  1  0
 68 66  1  0
 69 78  2  0
 69 74  1  0
 70 66  1  0
 70 74  1  0
 71 70  1  0
 72 73  1  0
 72 71  1  0
 73 69  1  0
 74 75  2  0
 75 76  1  0
 77 76  2  0
 78 77  1  0
 79 53  1  0
 79 84  1  0
 79 80  1  0
 80 83  1  1
 80 81  1  0
 82 80  1  0
 84 87  1  0
 85 89  1  0
 85 84  1  0
 86 85  2  0
 89 88  1  0
 91 89  1  0
 91 92  1  0
 91 90  1  0
M  ISO  4  12 100  20 100  51 101  52 101
M  END
>  <TORSDO>  (43) 
F 19

>  <SCORE>  (43) 
-14.373

>  <name>  (43) 
42

>  <ligand_id>  (43) 
42

>  <original_smiles>  (43) 
[H]c1c([H])c([H])c2c(c1[H])C([H])([H])C([H])([H])C([H])([H])C2([H])N([H])C(=O)C1([H])N(C(=O)C([H])(N([H])C(=O)C([H])(N([H])C([H])([H])[H])C([H])([H])[H])C(C([H])([H])[H])(C([H])([H])[H])C([H])([H])[H])C([H])([H])c2c([H])c(OC([H])([H])C([H])([H])N([H])C(=O)c3c([H])c([H])c(N([H])C(=O)N4C([H])([H])C([H])([H])C([H])([H])C([H])(n5nc(-c6c([H])c([H])c(Oc7c([H])c([H])c(F)c([H])c7F)c([H])c6[H])c(C(=O)N([H])[H])c5N([H])[H])C4([H])[H])c(F)c3[H])c([H])c([H])c2C1([H])[H]

>  <smiles>  (43) 
[H]c1c([H])c([H])c2c(c1[H])C([H])([H])C([H])([H])C([H])([H])C2([H])N([H])C(=O)C1([H])N(C(=O)C([H])(N([H])C(=O)C([H])(N([H])C([H])([H])[H])C([H])([H])[H])C(C([H])([H])[H])(C([H])([H])[H])C([H])([H])[H])C([H])([H])c2c([H])c(OC([H])([H])C([H])([H])N([H])C(=O)c3c([H])c([H])c(N([H])C(=O)N4C([H])([H])C([H])([H])C([H])([H])C([H])(n5nc(-c6c([H])c([H])c(Oc7c([H])c([H])c(F)c([H])c7F)c([H])c6[H])c(C(=O)N([H])[H])c5N([H])[H])C4([H])[H])c(F)c3[H])c([H])c([H])c2C1([H])[H]

$$$$
43:0:0
     RDKit          3D

 98107  0  0  1  0  0  0  0  0999 V2000
  -28.7920  -18.9800   20.7200 C   0  0  0  0  0  3  0  0  0  0  0  0
  -31.2930  -17.8590   20.1400 C   0  0  0  0  0  3  0  0  0  0  0  0
  -29.8400  -19.8670   20.3660 C   0  0  0  0  0  0  0  0  0  0  0  0
  -28.9770  -17.5770   20.7740 C   0  0  0  0  0  0  0  0  0  0  0  0
  -30.2270  -16.9830   20.4690 C   0  0  0  0  0  0  0  0  0  0  0  0
  -31.1120  -19.2760   20.1050 C   0  0  0  0  0  0  0  0  0  0  0  0
  -30.9610  -14.5970   19.8410 C   0  0  0  0  0  0  0  0  0  0  0  0
  -30.6040  -12.4470   18.6490 C   0  0  0  0  0  2  0  0  0  0  0  0
  -29.5340  -12.6680   17.5590 C   0  0  0  0  0  2  0  0  0  0  0  0
  -28.1130  -12.5010   18.1340 C   0  0  0  0  0  2  0  0  0  0  0  0
  -27.9080  -13.2920   19.4520 C   0  0  0  0  0  3  0  0  0  0  0  0
  -29.0710  -13.0280   20.4340 C   0  0  0  0  0  2  0  0  0  0  0  0
  -30.3290  -13.3870   19.7520 N   0  0  0  0  0  0  0  0  0  0  0  0
  -32.0200  -14.8260   19.2470 O   0  0  0  0  0  0  0  0  0  0  0  0
  -30.2980  -15.5400   20.5610 N   0  0  0  0  0  0  0  0  0  0  0  0
  -29.5410  -15.1680   21.1150 H   0  0  0  0  0  0  0  0  0  0  0  0
  -25.6180  -13.8850   20.4640 C   0  0  0  0  0  0  0  0  0  0  0  0
  -24.5840  -13.1070   20.9110 C   0  0  0  0  0  0  0  0  0  0  0  0
  -25.0060  -11.7540   20.7370 C   0  0  0  0  0  0  0  0  0  0  0  0
  -26.6090  -13.0050   20.0580 N   0  0  0  0  0  0  0  0  0  0  0  0
  -26.2510  -11.7150   20.2760 N   0  0  0  0  0  0  0  0  0  0  0  0
  -24.2760  -10.4930   20.9230 C   0  0  0  0  0  0  0  0  0  0  0  0
  -24.7270   -9.5040   21.8240 C   0  0  0  0  0  3  0  0  0  0  0  0
  -23.9980   -8.3090   22.0010 C   0  0  0  0  0  3  0  0  0  0  0  0
  -22.8030   -8.0920   21.2740 C   0  0  0  0  0  0  0  0  0  0  0  0
  -22.3710   -9.0700   20.3590 C   0  0  0  0  0  3  0  0  0  0  0  0
  -23.1020  -10.2560   20.1820 C   0  0  0  0  0  3  0  0  0  0  0  0
  -22.0440   -6.9510   21.3600 O   0  0  0  0  0  0  0  0  0  0  0  0
  -21.9340   -6.2470   22.5330 C   0  0  0  0  0  0  0  0  0  0  0  0
  -21.3950   -6.8270   23.7020 C   0  0  0  0  0  3  0  0  0  0  0  0
  -21.2360   -6.0480   24.8660 C   0  0  0  0  0  3  0  0  0  0  0  0
  -21.6040   -4.6890   24.8600 C   0  0  0  0  0  0  0  0  0  0  0  0
  -22.1360   -4.1090   23.6950 C   0  0  0  0  0  3  0  0  0  0  0  0
  -22.2980   -4.8850   22.5350 C   0  0  0  0  0  0  0  0  0  0  0  0
  -22.7910   -4.3150   21.4080 F   0  0  0  0  0  0  0  0  0  0  0  0
  -21.4440   -3.9390   25.9750 F   0  0  0  0  0  0  0  0  0  0  0  0
  -23.2380  -13.5880   21.3730 C   0  0  0  0  0  0  0  0  0  0  0  0
  -22.5990  -12.8520   22.2770 N   0  0  0  0  0  0  0  0  0  0  0  0
  -22.7630  -14.6470   20.9650 O   0  0  0  0  0  0  0  0  0  0  0  0
  -22.9960  -11.9930   22.6270 H   0  0  0  0  0  0  0  0  0  0  0  0
  -21.6990  -13.1530   22.6230 H   0  0  0  0  0  0  0  0  0  0  0  0
  -25.7880  -15.2610   20.3410 N   0  0  0  0  0  0  0  0  0  0  0  0
  -25.0010  -15.8780   20.5090 H   0  0  0  0  0  0  0  0  0  0  0  0
  -26.4610  -15.6600   19.6980 H   0  0  0  0  0  0  0  0  0  0  0  0
  -29.1850  -24.2930   20.6890 C   0  0  0  0  0  0  0  0  0  0  0  0
  -29.7830  -22.1130   19.2710 C   0  0  0  0  0  0  0  0  0  0  0  0
  -28.7180  -25.5650   20.8580 C   0  0  0  0  0  3  0  0  0  0  0  0
  -29.6860  -23.6700   19.3860 C   0  0  0  0  0  2  0  0  0  0  0  0
  -29.3140  -23.3480   21.8710 C   0  0  0  0  0  2  0  0  0  0  0  0
  -28.9110  -21.8950   21.5320 C   0  0  0  0  0  2  0  0  0  0  0  0
  -29.6070  -21.3130   20.3670 N   0  0  0  0  0  0  0  0  0  0  0  0
  -30.0200  -21.6520   18.1500 O   0  0  0  0  0  0  0  0  0  0  0  0
  -28.6610  -26.5870   19.9250 O   0  0  0  0  0  0  0  0  0  0  0  0
  -24.6820  -31.6900   23.0610 C   0  0  0  0  0  0  0  0  0  0  0  0
  -27.5170  -27.3650   19.9410 C   0  0  0  0  0  0  0  0  0  0  0  0
  -23.5570  -30.2910   21.3630 C   0  0  0  0  0  3  0  0  0  0  0  0
  -25.0860  -28.8290   19.9340 C   0  0  0  0  0  0  0  0  0  0  0  0
  -26.0780  -30.7230   21.2270 C   0  0  0  0  0  2  0  0  0  0  0  0
  -26.2200  -29.3650   20.5600 C   0  0  0  0  0  0  0  0  0  0  0  0
  -27.4410  -28.6410   20.5590 C   0  0  0  0  0  3  0  0  0  0  0  0
  -26.3660  -26.8540   19.3100 C   0  0  0  0  0  3  0  0  0  0  0  0
  -25.1560  -27.5750   19.3030 C   0  0  0  0  0  3  0  0  0  0  0  0
  -23.8170  -29.6530   19.9730 C   0  0  0  0  0  2  0  0  0  0  0  0
  -24.7890  -30.9170   21.9430 N   0  0  0  0  0  0  0  0  0  0  0  0
  -23.5820  -31.9160   23.5820 O   0  0  0  0  0  0  0  0  0  0  0  0
  -22.9140  -29.2290   22.2870 C   0  0  0  0  0  0  0  0  0  0  0  0
  -21.5920  -29.0350   22.1510 N   0  0  0  0  0  0  0  0  0  0  0  0
  -23.6040  -28.5830   23.0810 O   0  0  0  0  0  0  0  0  0  0  0  0
  -21.0940  -29.6130   21.4880 H   0  0  0  0  0  0  0  0  0  0  0  0
  -18.2220  -27.8280   22.6560 C   0  0  0  0  0  0  0  0  0  0  0  0
  -20.7860  -28.0610   22.8870 C   0  0  0  0  0  3  0  0  0  0  0  0
  -20.8670  -26.6620   22.2310 C   0  0  0  0  0  2  0  0  0  0  0  0
  -19.7430  -26.4010   21.2240 C   0  0  0  0  0  2  0  0  0  0  0  0
  -18.3750  -26.5170   21.9040 C   0  0  0  0  0  2  0  0  0  0  0  0
  -19.3530  -28.5600   23.1030 C   0  0  0  0  0  0  0  0  0  0  0  0
  -19.1520  -29.7900   23.7670 C   0  0  0  0  0  3  0  0  0  0  0  0
  -17.8550  -30.2860   23.9870 C   0  0  0  0  0  3  0  0  0  0  0  0
  -16.7380  -29.5500   23.5540 C   0  0  0  0  0  3  0  0  0  0  0  0
  -16.9230  -28.3220   22.8950 C   0  0  0  0  0  3  0  0  0  0  0  0
  -25.9340  -32.3460   23.7240 C   0  0  0  0  0  3  0  0  0  0  0  0
  -26.4590  -31.5520   24.9820 C   0  0  1  0  0  0  0  0  0  0  0  0
  -25.3580  -31.2310   26.0200 C   0  0  0  0  0  1  0  0  0  0  0  0
  -27.1070  -30.2150   24.5520 C   0  0  0  0  0  1  0  0  0  0  0  0
  -27.5640  -32.3690   25.6930 C   0  0  0  0  0  1  0  0  0  0  0  0
  -25.5700  -33.7210   24.0920 N   0  0  0  0  0  0  0  0  0  0  0  0
  -25.8680  -34.8070   23.3660 C   0  0  0  0  0  0  0  0  0  0  0  0
  -26.5470  -34.7570   22.3350 O   0  0  0  0  0  0  0  0  0  0  0  0
  -24.9620  -33.8300   24.8910 H   0  0  0  0  0  0  0  0  0  0  0  0
  -24.0700  -36.5380   23.0550 C   0  0  0  0  0  1  0  0  0  0  0  0
  -25.3260  -36.1620   23.8580 C   0  0  0  0  0  3  0  0  0  0  0  0
  -27.4190  -37.1130   24.7210 C   0  0  0  0  0  1  0  0  0  0  0  0
  -26.3160  -37.2570   23.7750 N   0  0  0  0  0  0  0  0  0  0  0  0
  -25.8730  -38.1570   23.9370 H   0  0  0  0  0  0  0  0  0  0  0  0
  -27.9000  -16.7690   21.1460 N   0  0  0  0  0  0  0  0  0  0  0  0
  -27.0450  -17.2690   21.3630 H   0  0  0  0  0  0  0  0  0  0  0  0
  -27.6710  -16.0010   20.5240 H   0  0  0  0  0  0  0  0  0  0  0  0
  -33.1470  -20.1230   20.8910 C   0  0  0  0  0  1  0  0  0  0  0  0
  -32.1880  -20.0860   19.8440 O   0  0  0  0  0  0  0  0  0  0  0  0
  1  4  1  0
  2  5  1  0
  3 51  1  0
  3  1  2  0
  4 94  1  0
  5 15  1  0
  5  4  2  0
  6  2  2  0
  6  3  1  0
  7 15  1  0
  8 13  1  0
  9 10  1  0
  9  8  1  0
 11 10  1  0
 11 20  1  0
 11 12  1  0
 13  7  1  0
 13 12  1  0
 14  7  2  0
 15 16  1  0
 17 18  2  0
 18 37  1  0
 19 18  1  0
 19 22  1  0
 20 21  1  0
 20 17  1  0
 21 19  2  0
 22 23  1  0
 23 24  2  0
 25 28  1  0
 25 24  1  0
 26 25  2  0
 27 26  1  0
 27 22  2  0
 28 29  1  0
 29 34  2  0
 29 30  1  0
 30 31  2  0
 32 31  1  0
 32 36  1  0
 33 32  2  0
 34 33  1  0
 35 34  1  0
 37 38  1  0
 38 41  1  0
 38 40  1  0
 39 37  2  0
 42 17  1  0
 42 43  1  0
 44 42  1  0
 45 47  2  0
 45 49  1  0
 46 48  1  0
 46 51  1  0
 48 45  1  0
 50 49  1  0
 51 50  1  0
 52 46  2  0
 53 55  1  0
 53 47  1  0
 54 65  2  0
 55 60  1  0
 56 64  1  0
 56 66  1  0
 57 63  1  0
 57 59  1  0
 58 64  1  0
 59 58  1  0
 60 59  2  0
 61 55  2  0
 62 61  1  0
 62 57  2  0
 63 56  1  0
 64 54  1  0
 66 68  2  0
 67 66  1  0
 69 67  1  0
 70 79  2  0
 70 75  1  0
 71 67  1  0
 71 75  1  0
 72 71  1  0
 73 74  1  0
 73 72  1  0
 74 70  1  0
 75 76  2  0
 76 77  1  0
 78 77  2  0
 79 78  1  0
 80 54  1  0
 80 85  1  0
 80 81  1  0
 81 84  1  1
 81 82  1  0
 83 81  1  0
 85 88  1  0
 86 90  1  0
 86 85  1  0
 87 86  2  0
 90 89  1  0
 92 90  1  0
 92 93  1  0
 92 91  1  0
 94 95  1  0
 96 94  1  0
 98  6  1  0
 98 97  1  0
M  ISO  4   7 100  15 100  47 101  53 101
M  END
>  <TORSDO>  (44) 
F 19

>  <SCORE>  (44) 
-13.243

>  <name>  (44) 
43

>  <ligand_id>  (44) 
43

>  <original_smiles>  (44) 
[H]C(Oc1c([H])c([H])c2c(c1[H])C([H])([H])N(C(=O)C([H])(N([H])C(=O)C([H])(N([H])C([H])([H])[H])C([H])([H])[H])C(C([H])([H])[H])(C([H])([H])[H])C([H])([H])[H])C([H])(C(=O)N([H])C1([H])c3c([H])c([H])c([H])c([H])c3C([H])([H])C([H])([H])C1([H])[H])C2([H])[H])=C1C([H])([H])C(=O)N(c2c([H])c(N([H])[H])c(N([H])C(=O)N3C([H])([H])C([H])([H])C([H])([H])C([H])(n4nc(-c5c([H])c([H])c(Oc6c([H])c([H])c(F)c([H])c6F)c([H])c5[H])c(C(=O)N([H])[H])c4N([H])[H])C3([H])[H])c([H])c2OC([H])([H])[H])C([H])([H])C1([H])[H]

>  <smiles>  (44) 
[H]C(Oc1c([H])c([H])c2c(c1[H])C([H])([H])N(C(=O)C([H])(N([H])C(=O)C([H])(N([H])C([H])([H])[H])C([H])([H])[H])C(C([H])([H])[H])(C([H])([H])[H])C([H])([H])[H])C([H])(C(=O)N([H])C1([H])c3c([H])c([H])c([H])c([H])c3C([H])([H])C([H])([H])C1([H])[H])C2([H])[H])=C1C([H])([H])C(=O)N(c2c([H])c(N([H])[H])c(N([H])C(=O)N3C([H])([H])C([H])([H])C([H])([H])C([H])(n4nc(-c5c([H])c([H])c(Oc6c([H])c([H])c(F)c([H])c6F)c([H])c5[H])c(C(=O)N([H])[H])c4N([H])[H])C3([H])[H])c([H])c2OC([H])([H])[H])C([H])([H])C1([H])[H]

$$$$
44:0:0
     RDKit          3D

 96104  0  0  1  0  0  0  0  0999 V2000
  -28.9620  -22.7080   20.4850 C   0  0  0  0  0  0  0  0  0  0  0  0
  -29.7580  -21.7570   19.8880 N   0  0  0  0  0  0  0  0  0  0  0  0
  -28.1210  -22.3940   21.3290 O   0  0  0  0  0  0  0  0  0  0  0  0
  -30.3500  -22.1730   19.1800 H   0  0  0  0  0  0  0  0  0  0  0  0
  -30.3210  -19.5120   18.9240 C   0  0  0  0  0  3  0  0  0  0  0  0
  -29.5790  -19.5360   21.1970 C   0  0  0  0  0  3  0  0  0  0  0  0
  -30.4710  -18.0800   18.9440 C   0  0  0  0  0  0  0  0  0  0  0  0
  -29.8650  -20.2880   20.0260 C   0  0  0  0  0  0  0  0  0  0  0  0
  -30.2000  -17.3400   20.1430 C   0  0  0  0  0  0  0  0  0  0  0  0
  -29.7400  -18.1150   21.2480 C   0  0  0  0  0  0  0  0  0  0  0  0
  -29.4170  -17.4680   22.3950 F   0  0  0  0  0  0  0  0  0  0  0  0
  -30.9790  -14.8280   19.8850 C   0  0  0  0  0  0  0  0  0  0  0  0
  -30.7350  -12.6030   18.7940 C   0  0  0  0  0  2  0  0  0  0  0  0
  -29.6970  -12.7460   17.6550 C   0  0  0  0  0  2  0  0  0  0  0  0
  -28.2650  -12.5460   18.1890 C   0  0  0  0  0  2  0  0  0  0  0  0
  -27.9910  -13.3730   19.4740 C   0  0  0  0  0  3  0  0  0  0  0  0
  -29.1320  -13.2080   20.5020 C   0  0  0  0  0  2  0  0  0  0  0  0
  -30.3870  -13.5900   19.8380 N   0  0  0  0  0  0  0  0  0  0  0  0
  -32.1210  -14.9970   19.4460 O   0  0  0  0  0  0  0  0  0  0  0  0
  -30.1740  -15.8680   20.2920 N   0  0  0  0  0  0  0  0  0  0  0  0
  -29.3720  -15.5430   20.8070 H   0  0  0  0  0  0  0  0  0  0  0  0
  -25.6660  -13.9280   20.4170 C   0  0  0  0  0  0  0  0  0  0  0  0
  -24.6310  -13.1350   20.8310 C   0  0  0  0  0  0  0  0  0  0  0  0
  -25.0870  -11.7880   20.6930 C   0  0  0  0  0  0  0  0  0  0  0  0
  -26.6860  -13.0630   20.0520 N   0  0  0  0  0  0  0  0  0  0  0  0
  -26.3470  -11.7670   20.2790 N   0  0  0  0  0  0  0  0  0  0  0  0
  -24.3750  -10.5160   20.8760 C   0  0  0  0  0  0  0  0  0  0  0  0
  -24.8060   -9.5580   21.8200 C   0  0  0  0  0  3  0  0  0  0  0  0
  -24.0930   -8.3500   21.9900 C   0  0  0  0  0  3  0  0  0  0  0  0
  -22.9370   -8.0930   21.2170 C   0  0  0  0  0  0  0  0  0  0  0  0
  -22.5250   -9.0410   20.2620 C   0  0  0  0  0  3  0  0  0  0  0  0
  -23.2380  -10.2400   20.0900 C   0  0  0  0  0  3  0  0  0  0  0  0
  -22.1970   -6.9380   21.2960 O   0  0  0  0  0  0  0  0  0  0  0  0
  -22.0370   -6.2660   22.4820 C   0  0  0  0  0  0  0  0  0  0  0  0
  -21.4620   -6.8810   23.6150 C   0  0  0  0  0  3  0  0  0  0  0  0
  -21.2510   -6.1330   24.7900 C   0  0  0  0  0  3  0  0  0  0  0  0
  -21.6070   -4.7710   24.8330 C   0  0  0  0  0  0  0  0  0  0  0  0
  -22.1760   -4.1560   23.7040 C   0  0  0  0  0  3  0  0  0  0  0  0
  -22.3870   -4.9010   22.5310 C   0  0  0  0  0  0  0  0  0  0  0  0
  -22.9160   -4.2980   21.4390 F   0  0  0  0  0  0  0  0  0  0  0  0
  -21.3970   -4.0510   25.9590 F   0  0  0  0  0  0  0  0  0  0  0  0
  -23.2620  -13.5950   21.2400 C   0  0  0  0  0  0  0  0  0  0  0  0
  -22.6160  -12.8670   22.1440 N   0  0  0  0  0  0  0  0  0  0  0  0
  -22.7770  -14.6330   20.7930 O   0  0  0  0  0  0  0  0  0  0  0  0
  -23.0230  -12.0260   22.5260 H   0  0  0  0  0  0  0  0  0  0  0  0
  -21.7020  -13.1570   22.4620 H   0  0  0  0  0  0  0  0  0  0  0  0
  -25.8210  -15.3060   20.3000 N   0  0  0  0  0  0  0  0  0  0  0  0
  -25.0720  -15.9540   20.5220 H   0  0  0  0  0  0  0  0  0  0  0  0
  -26.6370  -15.7640   19.9150 H   0  0  0  0  0  0  0  0  0  0  0  0
  -30.6910  -17.9120   16.4370 C   0  0  0  0  0  2  0  0  0  0  0  0
  -30.7910  -17.3940   17.6730 C   0  0  0  0  0  3  0  0  0  0  0  0
  -28.4310  -25.1920   20.4760 C   0  0  0  0  0  3  0  0  0  0  0  0
  -29.1910  -24.1280   20.0350 C   0  0  0  0  0  0  0  0  0  0  0  0
  -30.1840  -24.3670   19.1670 O   0  0  0  0  0  0  0  0  0  0  0  0
  -30.1820  -25.3020   18.9990 H   0  0  0  0  0  0  0  0  0  0  0  0
  -28.5940  -26.5600   20.1440 O   0  0  0  0  0  0  0  0  0  0  0  0
  -24.7780  -31.8640   23.2780 C   0  0  0  0  0  0  0  0  0  0  0  0
  -27.4730  -27.4060   20.1510 C   0  0  0  0  0  0  0  0  0  0  0  0
  -23.6070  -30.4910   21.5930 C   0  0  0  0  0  3  0  0  0  0  0  0
  -25.0910  -28.9880   20.1470 C   0  0  0  0  0  0  0  0  0  0  0  0
  -26.1430  -30.8440   21.4430 C   0  0  0  0  0  2  0  0  0  0  0  0
  -26.2470  -29.4790   20.7680 C   0  0  0  0  0  0  0  0  0  0  0  0
  -27.4440  -28.7000   20.7600 C   0  0  0  0  0  3  0  0  0  0  0  0
  -26.2970  -26.9680   19.5070 C   0  0  0  0  0  3  0  0  0  0  0  0
  -25.1180  -27.7390   19.5080 C   0  0  0  0  0  3  0  0  0  0  0  0
  -23.8430  -29.8480   20.2010 C   0  0  0  0  0  2  0  0  0  0  0  0
  -24.8610  -31.0830   22.1620 N   0  0  0  0  0  0  0  0  0  0  0  0
  -23.6870  -32.1170   23.8080 O   0  0  0  0  0  0  0  0  0  0  0  0
  -22.9450  -29.4460   22.5230 C   0  0  0  0  0  0  0  0  0  0  0  0
  -21.6200  -29.2680   22.3870 N   0  0  0  0  0  0  0  0  0  0  0  0
  -23.6230  -28.8000   23.3260 O   0  0  0  0  0  0  0  0  0  0  0  0
  -21.1320  -29.8420   21.7150 H   0  0  0  0  0  0  0  0  0  0  0  0
  -18.2440  -28.0590   22.8550 C   0  0  0  0  0  0  0  0  0  0  0  0
  -20.8030  -28.3070   23.1290 C   0  0  0  0  0  3  0  0  0  0  0  0
  -20.9020  -26.8940   22.5060 C   0  0  0  0  0  2  0  0  0  0  0  0
  -19.7970  -26.6070   21.4840 C   0  0  0  0  0  2  0  0  0  0  0  0
  -18.4180  -26.7320   22.1360 C   0  0  0  0  0  2  0  0  0  0  0  0
  -19.3640  -28.8060   23.3080 C   0  0  0  0  0  0  0  0  0  0  0  0
  -19.1460  -30.0490   23.9410 C   0  0  0  0  0  3  0  0  0  0  0  0
  -17.8430  -30.5450   24.1260 C   0  0  0  0  0  3  0  0  0  0  0  0
  -16.7370  -29.7950   23.6900 C   0  0  0  0  0  3  0  0  0  0  0  0
  -16.9390  -28.5540   23.0600 C   0  0  0  0  0  3  0  0  0  0  0  0
  -26.0470  -32.4960   23.9290 C   0  0  0  0  0  3  0  0  0  0  0  0
  -26.5740  -31.6850   25.1770 C   0  0  1  0  0  0  0  0  0  0  0  0
  -25.4800  -31.3800   26.2270 C   0  0  0  0  0  1  0  0  0  0  0  0
  -27.1930  -30.3400   24.7350 C   0  0  0  0  0  1  0  0  0  0  0  0
  -27.7020  -32.4790   25.8780 C   0  0  0  0  0  1  0  0  0  0  0  0
  -25.7130  -33.8750   24.3120 N   0  0  0  0  0  0  0  0  0  0  0  0
  -26.0530  -34.9640   23.6110 C   0  0  0  0  0  0  0  0  0  0  0  0
  -26.7520  -34.9140   22.5960 O   0  0  0  0  0  0  0  0  0  0  0  0
  -25.0940  -33.9860   25.1030 H   0  0  0  0  0  0  0  0  0  0  0  0
  -24.3330  -36.7690   23.2730 C   0  0  0  0  0  1  0  0  0  0  0  0
  -25.5390  -36.3250   24.1180 C   0  0  0  0  0  3  0  0  0  0  0  0
  -27.6250  -37.1760   25.0930 C   0  0  0  0  0  1  0  0  0  0  0  0
  -26.5690  -37.3870   24.1070 N   0  0  0  0  0  0  0  0  0  0  0  0
  -26.1510  -38.2960   24.2790 H   0  0  0  0  0  0  0  0  0  0  0  0
  1  3  2  0
  2  8  1  0
  2  1  1  0
  4  2  1  0
  5  7  2  0
  5  8  1  0
  6 10  1  0
  7  9  1  0
  8  6  2  0
  9 20  1  0
  9 10  2  0
 10 11  1  0
 12 20  1  0
 13 18  1  0
 14 15  1  0
 14 13  1  0
 16 15  1  0
 16 25  1  0
 16 17  1  0
 18 12  1  0
 18 17  1  0
 19 12  2  0
 20 21  1  0
 22 23  2  0
 23 42  1  0
 24 23  1  0
 24 27  1  0
 25 26  1  0
 25 22  1  0
 26 24  2  0
 27 28  1  0
 28 29  2  0
 30 33  1  0
 30 29  1  0
 31 30  2  0
 32 31  1  0
 32 27  2  0
 33 34  1  0
 34 39  2  0
 34 35  1  0
 35 36  2  0
 36 37  1  0
 37 41  1  0
 38 37  2  0
 39 38  1  0
 40 39  1  0
 42 43  1  0
 43 46  1  0
 43 45  1  0
 44 42  2  0
 47 22  1  0
 47 48  1  0
 49 47  1  0
 50 51  2  0
 51  7  1  0
 53 52  2  0
 53  1  1  0
 54 53  1  0
 55 54  1  0
 56 58  1  0
 56 52  1  0
 57 68  2  0
 58 63  1  0
 59 67  1  0
 59 69  1  0
 60 66  1  0
 60 62  1  0
 61 67  1  0
 62 61  1  0
 63 62  2  0
 64 65  1  0
 64 58  2  0
 65 60  2  0
 66 59  1  0
 67 57  1  0
 69 71  2  0
 70 69  1  0
 72 70  1  0
 73 82  2  0
 73 78  1  0
 74 70  1  0
 74 78  1  0
 75 74  1  0
 76 77  1  0
 76 75  1  0
 77 73  1  0
 78 79  2  0
 79 80  1  0
 81 80  2  0
 82 81  1  0
 83 57  1  0
 83 88  1  0
 83 84  1  0
 84 87  1  1
 84 85  1  0
 86 84  1  0
 88 91  1  0
 89 93  1  0
 89 88  1  0
 90 89  2  0
 93 92  1  0
 95 93  1  0
 95 96  1  0
 95 94  1  0
M  ISO  4  12 100  20 100  52 101  56 101
M  END
>  <TORSDO>  (45) 
F 20

>  <SCORE>  (45) 
-12.411

>  <name>  (45) 
44

>  <ligand_id>  (45) 
44

>  <original_smiles>  (45) 
[H]OC(C(=O)N([H])c1c([H])c(F)c(N([H])C(=O)N2C([H])([H])C([H])([H])C([H])([H])C([H])(n3nc(-c4c([H])c([H])c(Oc5c([H])c([H])c(F)c([H])c5F)c([H])c4[H])c(C(=O)N([H])[H])c3N([H])[H])C2([H])[H])c(C([H])=C([H])[H])c1[H])=C([H])Oc1c([H])c([H])c2c(c1[H])C([H])([H])N(C(=O)C([H])(N([H])C(=O)C([H])(N([H])C([H])([H])[H])C([H])([H])[H])C(C([H])([H])[H])(C([H])([H])[H])C([H])([H])[H])C([H])(C(=O)N([H])C1([H])c3c([H])c([H])c([H])c([H])c3C([H])([H])C([H])([H])C1([H])[H])C2([H])[H]

>  <smiles>  (45) 
[H]OC(C(=O)N([H])c1c([H])c(F)c(N([H])C(=O)N2C([H])([H])C([H])([H])C([H])([H])C([H])(n3nc(-c4c([H])c([H])c(Oc5c([H])c([H])c(F)c([H])c5F)c([H])c4[H])c(C(=O)N([H])[H])c3N([H])[H])C2([H])[H])c(C([H])=C([H])[H])c1[H])=C([H])Oc1c([H])c([H])c2c(c1[H])C([H])([H])N(C(=O)C([H])(N([H])C(=O)C([H])(N([H])C([H])([H])[H])C([H])([H])[H])C(C([H])([H])[H])(C([H])([H])[H])C([H])([H])[H])C([H])(C(=O)N([H])C1([H])c3c([H])c([H])c([H])c([H])c3C([H])([H])C([H])([H])C1([H])[H])C2([H])[H]

$$$$
45:0:0
     RDKit          3D

 93101  0  0  1  0  0  0  0  0999 V2000
  -29.0140  -18.6330   19.2480 C   0  0  0  0  0  3  0  0  0  0  0  0
  -28.7680  -20.0570   19.3850 C   0  0  0  0  0  3  0  0  0  0  0  0
  -30.3920  -18.6220   21.1490 C   0  0  0  0  0  3  0  0  0  0  0  0
  -29.8630  -17.8080   20.0870 C   0  0  0  0  0  0  0  0  0  0  0  0
  -29.3120  -20.8620   20.4280 C   0  0  0  0  0  0  0  0  0  0  0  0
  -30.1270  -20.0550   21.3100 C   0  0  0  0  0  0  0  0  0  0  0  0
  -30.7790  -15.1890   20.3680 C   0  0  0  0  0  0  0  0  0  0  0  0
  -30.6960  -12.7970   19.5170 C   0  0  0  0  0  2  0  0  0  0  0  0
  -29.7840  -12.6220   18.2760 C   0  0  0  0  0  2  0  0  0  0  0  0
  -28.3090  -12.4680   18.6820 C   0  0  0  0  0  2  0  0  0  0  0  0
  -27.8680  -13.4500   19.8000 C   0  0  0  0  0  3  0  0  0  0  0  0
  -28.9000  -13.5360   20.9410 C   0  0  0  0  0  2  0  0  0  0  0  0
  -30.1710  -13.9340   20.3220 N   0  0  0  0  0  0  0  0  0  0  0  0
  -32.0160  -15.1990   20.3600 O   0  0  0  0  0  0  0  0  0  0  0  0
  -30.0990  -16.0910   18.2990 C   0  0  0  0  0  1  0  0  0  0  0  0
  -30.1020  -16.3030   19.7640 N   0  0  0  0  0  0  0  0  0  0  0  0
  -25.4720  -14.0410   20.4780 C   0  0  0  0  0  0  0  0  0  0  0  0
  -24.3980  -13.2690   20.8230 C   0  0  0  0  0  0  0  0  0  0  0  0
  -24.8640  -11.9180   20.8260 C   0  0  0  0  0  0  0  0  0  0  0  0
  -26.5220  -13.1600   20.2800 N   0  0  0  0  0  0  0  0  0  0  0  0
  -26.1640  -11.8810   20.5600 N   0  0  0  0  0  0  0  0  0  0  0  0
  -24.1350  -10.6560   21.0070 C   0  0  0  0  0  0  0  0  0  0  0  0
  -24.5250   -9.7100   21.9800 C   0  0  0  0  0  3  0  0  0  0  0  0
  -23.7940   -8.5140   22.1480 C   0  0  0  0  0  3  0  0  0  0  0  0
  -22.6600   -8.2550   21.3430 C   0  0  0  0  0  0  0  0  0  0  0  0
  -22.2890   -9.1900   20.3590 C   0  0  0  0  0  3  0  0  0  0  0  0
  -23.0210  -10.3770   20.1890 C   0  0  0  0  0  3  0  0  0  0  0  0
  -21.9050   -7.1100   21.4190 O   0  0  0  0  0  0  0  0  0  0  0  0
  -21.7800   -6.4070   22.5900 C   0  0  0  0  0  0  0  0  0  0  0  0
  -21.2220   -6.9850   23.7510 C   0  0  0  0  0  3  0  0  0  0  0  0
  -21.0500   -6.2050   24.9120 C   0  0  0  0  0  3  0  0  0  0  0  0
  -21.4250   -4.8490   24.9120 C   0  0  0  0  0  0  0  0  0  0  0  0
  -21.9760   -4.2700   23.7560 C   0  0  0  0  0  3  0  0  0  0  0  0
  -22.1500   -5.0460   22.5970 C   0  0  0  0  0  0  0  0  0  0  0  0
  -22.6620   -4.4780   21.4790 F   0  0  0  0  0  0  0  0  0  0  0  0
  -21.2520   -4.0970   26.0260 F   0  0  0  0  0  0  0  0  0  0  0  0
  -22.9910  -13.7460   21.0400 C   0  0  0  0  0  0  0  0  0  0  0  0
  -22.2380  -13.0630   21.8950 N   0  0  0  0  0  0  0  0  0  0  0  0
  -22.5690  -14.7610   20.4870 O   0  0  0  0  0  0  0  0  0  0  0  0
  -22.5920  -12.2440   22.3640 H   0  0  0  0  0  0  0  0  0  0  0  0
  -21.2930  -13.3660   22.0840 H   0  0  0  0  0  0  0  0  0  0  0  0
  -25.6420  -15.4090   20.2890 N   0  0  0  0  0  0  0  0  0  0  0  0
  -24.8760  -16.0680   20.3760 H   0  0  0  0  0  0  0  0  0  0  0  0
  -26.5100  -15.8460   20.0050 H   0  0  0  0  0  0  0  0  0  0  0  0
  -28.7010  -23.5120   19.9740 C   0  0  0  0  0  0  0  0  0  0  0  0
  -28.9790  -22.3330   20.7140 N   0  0  0  0  0  0  0  0  0  0  0  0
  -28.8600  -23.5090   18.7520 O   0  0  0  0  0  0  0  0  0  0  0  0
  -28.9430  -22.5130   21.7090 H   0  0  0  0  0  0  0  0  0  0  0  0
  -28.1370  -24.9120   20.6670 C   0  0  0  0  0  2  0  0  0  0  0  0
  -28.3340  -26.3400   20.0820 O   0  0  0  0  0  0  0  0  0  0  0  0
  -24.5960  -31.9060   23.1810 C   0  0  0  0  0  0  0  0  0  0  0  0
  -27.2580  -27.2960   20.0900 C   0  0  0  0  0  0  0  0  0  0  0  0
  -23.4210  -30.5150   21.5200 C   0  0  0  0  0  3  0  0  0  0  0  0
  -24.8970  -28.9860   20.0760 C   0  0  0  0  0  0  0  0  0  0  0  0
  -25.9690  -30.8330   21.3570 C   0  0  0  0  0  2  0  0  0  0  0  0
  -26.0690  -29.4520   20.6890 C   0  0  0  0  0  0  0  0  0  0  0  0
  -27.2530  -28.6250   20.6740 C   0  0  0  0  0  3  0  0  0  0  0  0
  -26.0600  -26.9250   19.4450 C   0  0  0  0  0  3  0  0  0  0  0  0
  -24.9050  -27.7360   19.4380 C   0  0  0  0  0  3  0  0  0  0  0  0
  -23.6540  -29.8600   20.1320 C   0  0  0  0  0  2  0  0  0  0  0  0
  -24.6820  -31.1060   22.0750 N   0  0  0  0  0  0  0  0  0  0  0  0
  -23.5060  -32.1630   23.7130 O   0  0  0  0  0  0  0  0  0  0  0  0
  -22.7610  -29.4820   22.4660 C   0  0  0  0  0  0  0  0  0  0  0  0
  -21.4340  -29.2960   22.3420 N   0  0  0  0  0  0  0  0  0  0  0  0
  -23.4430  -28.8510   23.2780 O   0  0  0  0  0  0  0  0  0  0  0  0
  -20.9390  -29.8570   21.6640 H   0  0  0  0  0  0  0  0  0  0  0  0
  -18.0660  -28.0660   22.8580 C   0  0  0  0  0  0  0  0  0  0  0  0
  -20.6280  -28.3350   23.0990 C   0  0  0  0  0  3  0  0  0  0  0  0
  -20.7280  -26.9180   22.4870 C   0  0  0  0  0  2  0  0  0  0  0  0
  -19.6140  -26.6160   21.4780 C   0  0  0  0  0  2  0  0  0  0  0  0
  -18.2400  -26.7360   22.1440 C   0  0  0  0  0  2  0  0  0  0  0  0
  -19.1860  -28.8240   23.2920 C   0  0  0  0  0  0  0  0  0  0  0  0
  -18.9680  -30.0670   23.9220 C   0  0  0  0  0  3  0  0  0  0  0  0
  -17.6610  -30.5550   24.1210 C   0  0  0  0  0  3  0  0  0  0  0  0
  -16.5560  -29.7940   23.7020 C   0  0  0  0  0  3  0  0  0  0  0  0
  -16.7600  -28.5510   23.0770 C   0  0  0  0  0  3  0  0  0  0  0  0
  -25.8630  -32.5550   23.8190 C   0  0  0  0  0  3  0  0  0  0  0  0
  -26.3660  -31.7950   25.1090 C   0  0  1  0  0  0  0  0  0  0  0  0
  -25.2580  -31.5590   26.1630 C   0  0  0  0  0  1  0  0  0  0  0  0
  -26.9610  -30.4170   24.7390 C   0  0  0  0  0  1  0  0  0  0  0  0
  -27.5010  -32.6010   25.7810 C   0  0  0  0  0  1  0  0  0  0  0  0
  -25.5370  -33.9520   24.1420 N   0  0  0  0  0  0  0  0  0  0  0  0
  -25.8780  -35.0100   23.3920 C   0  0  0  0  0  0  0  0  0  0  0  0
  -26.5660  -34.9110   22.3730 O   0  0  0  0  0  0  0  0  0  0  0  0
  -24.9280  -34.1020   24.9320 H   0  0  0  0  0  0  0  0  0  0  0  0
  -24.1660  -36.8120   22.9950 C   0  0  0  0  0  1  0  0  0  0  0  0
  -25.3780  -36.3960   23.8450 C   0  0  0  0  0  3  0  0  0  0  0  0
  -27.4780  -37.2790   24.7630 C   0  0  0  0  0  1  0  0  0  0  0  0
  -26.4170  -37.4480   23.7750 N   0  0  0  0  0  0  0  0  0  0  0  0
  -26.0050  -38.3690   23.9050 H   0  0  0  0  0  0  0  0  0  0  0  0
  -30.7070  -20.7090   22.3970 N   0  0  0  0  0  0  0  0  0  0  0  0
  -31.4760  -20.2390   22.8650 H   0  0  0  0  0  0  0  0  0  0  0  0
  -30.8960  -21.6990   22.2800 H   0  0  0  0  0  0  0  0  0  0  0  0
  1  2  2  0
  1  4  1  0
  2  5  1  0
  3  6  1  0
  4  3  2  0
  5 46  1  0
  5  6  2  0
  6 91  1  0
  8 13  1  0
  9 10  1  0
  9  8  1  0
 11 10  1  0
 11 20  1  0
 11 12  1  0
 13  7  1  0
 13 12  1  0
 14  7  2  0
 15 16  1  0
 16  4  1  0
 16  7  1  0
 17 18  2  0
 18 19  1  0
 18 37  1  0
 19 22  1  0
 20 17  1  0
 20 21  1  0
 21 19  2  0
 22 23  1  0
 23 24  2  0
 25 28  1  0
 25 24  1  0
 26 25  2  0
 27 26  1  0
 27 22  2  0
 28 29  1  0
 29 34  2  0
 29 30  1  0
 30 31  2  0
 31 32  1  0
 32 36  1  0
 33 32  2  0
 34 33  1  0
 35 34  1  0
 37 38  1  0
 38 41  1  0
 38 40  1  0
 39 37  2  0
 42 43  1  0
 42 17  1  0
 44 42  1  0
 45 49  1  0
 45 46  1  0
 46 48  1  0
 47 45  2  0
 50 52  1  0
 50 49  1  0
 51 62  2  0
 52 57  1  0
 53 61  1  0
 53 63  1  0
 54 60  1  0
 54 56  1  0
 55 61  1  0
 56 55  1  0
 57 56  2  0
 58 52  2  0
 59 58  1  0
 59 54  2  0
 60 53  1  0
 61 51  1  0
 63 65  2  0
 64 63  1  0
 66 64  1  0
 67 76  2  0
 67 72  1  0
 68 64  1  0
 68 72  1  0
 69 68  1  0
 70 71  1  0
 70 69  1  0
 71 67  1  0
 72 73  2  0
 73 74  1  0
 75 74  2  0
 76 75  1  0
 77 51  1  0
 77 82  1  0
 77 78  1  0
 78 81  1  1
 78 79  1  0
 80 78  1  0
 82 85  1  0
 83 87  1  0
 83 82  1  0
 84 83  2  0
 87 86  1  0
 89 87  1  0
 89 90  1  0
 89 88  1  0
 91 92  1  0
 93 91  1  0
M  ISO  4   7 100  16 100  49 101  50 101
M  END
>  <TORSDO>  (46) 
F 19

>  <SCORE>  (46) 
-14.020

>  <name>  (46) 
45

>  <ligand_id>  (46) 
45

>  <original_smiles>  (46) 
[H]c1c([H])c([H])c2c(c1[H])C([H])([H])C([H])([H])C([H])([H])C2([H])N([H])C(=O)C1([H])N(C(=O)C([H])(N([H])C(=O)C([H])(N([H])C([H])([H])[H])C([H])([H])[H])C(C([H])([H])[H])(C([H])([H])[H])C([H])([H])[H])C([H])([H])c2c([H])c(OC([H])([H])C(=O)N([H])c3c([H])c([H])c(N(C(=O)N4C([H])([H])C([H])([H])C([H])([H])C([H])(n5nc(-c6c([H])c([H])c(Oc7c([H])c([H])c(F)c([H])c7F)c([H])c6[H])c(C(=O)N([H])[H])c5N([H])[H])C4([H])[H])C([H])([H])[H])c([H])c3N([H])[H])c([H])c([H])c2C1([H])[H]

>  <smiles>  (46) 
[H]c1c([H])c([H])c2c(c1[H])C([H])([H])C([H])([H])C([H])([H])C2([H])N([H])C(=O)C1([H])N(C(=O)C([H])(N([H])C(=O)C([H])(N([H])C([H])([H])[H])C([H])([H])[H])C(C([H])([H])[H])(C([H])([H])[H])C([H])([H])[H])C([H])([H])c2c([H])c(OC([H])([H])C(=O)N([H])c3c([H])c([H])c(N(C(=O)N4C([H])([H])C([H])([H])C([H])([H])C([H])(n5nc(-c6c([H])c([H])c(Oc7c([H])c([H])c(F)c([H])c7F)c([H])c6[H])c(C(=O)N([H])[H])c5N([H])[H])C4([H])[H])C([H])([H])[H])c([H])c3N([H])[H])c([H])c([H])c2C1([H])[H]

$$$$
46:0:0
     RDKit          3D

 88 96  0  0  1  0  0  0  0  0999 V2000
  -29.8350  -20.9230   20.0680 C   0  0  0  0  0  3  0  0  0  0  0  0
  -28.0430  -19.5020   20.1400 C   0  0  0  0  0  3  0  0  0  0  0  0
  -29.4200  -19.4340   20.0770 C   0  0  0  0  0  0  0  0  0  0  0  0
  -28.8890  -22.0350   20.1080 C   0  0  0  0  0  0  0  0  0  0  0  0
  -27.3540  -21.1680   20.1640 S   0  0  0  0  0  0  0  0  0  0  0  0
  -30.7080  -15.3540   20.1310 C   0  0  0  0  0  0  0  0  0  0  0  0
  -30.6610  -12.9010   19.3450 C   0  0  0  0  0  2  0  0  0  0  0  0
  -29.7280  -12.6810   18.1300 C   0  0  0  0  0  2  0  0  0  0  0  0
  -28.2850  -12.4220   18.5980 C   0  0  0  0  0  2  0  0  0  0  0  0
  -27.8430  -13.4140   19.7040 C   0  0  0  0  0  3  0  0  0  0  0  0
  -28.9050  -13.5990   20.8090 C   0  0  0  0  0  2  0  0  0  0  0  0
  -30.1320  -14.0610   20.1440 N   0  0  0  0  0  0  0  0  0  0  0  0
  -31.9210  -15.3350   19.8830 O   0  0  0  0  0  0  0  0  0  0  0  0
  -30.3330  -18.0110   20.0540 C   0  0  0  0  0  0  0  0  0  0  0  0
  -29.9480  -16.6090   20.1960 N   0  0  0  0  0  0  0  0  0  0  0  0
  -31.5350  -18.2290   19.8780 O   0  0  0  0  0  0  0  0  0  0  0  0
  -28.9630  -16.4820   20.3460 H   0  0  0  0  0  0  0  0  0  0  0  0
  -25.4970  -13.9650   20.5410 C   0  0  0  0  0  0  0  0  0  0  0  0
  -24.4430  -13.1810   20.9210 C   0  0  0  0  0  0  0  0  0  0  0  0
  -24.9030  -11.8300   20.8390 C   0  0  0  0  0  0  0  0  0  0  0  0
  -26.5280  -13.0920   20.2430 N   0  0  0  0  0  0  0  0  0  0  0  0
  -26.1840  -11.8010   20.4900 N   0  0  0  0  0  0  0  0  0  0  0  0
  -24.1770  -10.5660   21.0140 C   0  0  0  0  0  0  0  0  0  0  0  0
  -24.5890   -9.5990   21.9580 C   0  0  0  0  0  3  0  0  0  0  0  0
  -23.8590   -8.4020   22.1240 C   0  0  0  0  0  3  0  0  0  0  0  0
  -22.7020   -8.1620   21.3440 C   0  0  0  0  0  0  0  0  0  0  0  0
  -22.3090   -9.1170   20.3900 C   0  0  0  0  0  3  0  0  0  0  0  0
  -23.0390  -10.3060   20.2230 C   0  0  0  0  0  3  0  0  0  0  0  0
  -21.9460   -7.0170   21.4180 O   0  0  0  0  0  0  0  0  0  0  0  0
  -21.8180   -6.3130   22.5880 C   0  0  0  0  0  0  0  0  0  0  0  0
  -21.2310   -6.8820   23.7390 C   0  0  0  0  0  3  0  0  0  0  0  0
  -21.0550   -6.1020   24.8990 C   0  0  0  0  0  3  0  0  0  0  0  0
  -21.4560   -4.7520   24.9080 C   0  0  0  0  0  0  0  0  0  0  0  0
  -22.0360   -4.1820   23.7610 C   0  0  0  0  0  3  0  0  0  0  0  0
  -22.2130   -4.9610   22.6040 C   0  0  0  0  0  0  0  0  0  0  0  0
  -22.7530   -4.4000   21.4940 F   0  0  0  0  0  0  0  0  0  0  0  0
  -21.2800   -4.0000   26.0190 F   0  0  0  0  0  0  0  0  0  0  0  0
  -23.0560  -13.6570   21.2410 C   0  0  0  0  0  0  0  0  0  0  0  0
  -22.3570  -12.9550   22.1250 N   0  0  0  0  0  0  0  0  0  0  0  0
  -22.6030  -14.6860   20.7420 O   0  0  0  0  0  0  0  0  0  0  0  0
  -22.7380  -12.1210   22.5470 H   0  0  0  0  0  0  0  0  0  0  0  0
  -21.4290  -13.2560   22.3850 H   0  0  0  0  0  0  0  0  0  0  0  0
  -25.6570  -15.3380   20.3920 N   0  0  0  0  0  0  0  0  0  0  0  0
  -24.8860  -15.9830   20.5280 H   0  0  0  0  0  0  0  0  0  0  0  0
  -26.4690  -15.7750   19.9760 H   0  0  0  0  0  0  0  0  0  0  0  0
  -28.1080  -24.6130   20.1570 C   0  0  0  0  0  3  0  0  0  0  0  0
  -28.9990  -23.5480   20.1250 N   0  0  0  0  0  0  0  0  0  0  0  0
  -28.3200  -26.1120   20.1960 O   0  0  0  0  0  0  0  0  0  0  0  0
  -24.6580  -31.8960   23.2710 C   0  0  0  0  0  0  0  0  0  0  0  0
  -27.2840  -27.1630   20.1730 C   0  0  0  0  0  0  0  0  0  0  0  0
  -23.4970  -30.5460   21.5710 C   0  0  0  0  0  3  0  0  0  0  0  0
  -24.9740  -28.9950   20.1320 C   0  0  0  0  0  0  0  0  0  0  0  0
  -26.0600  -30.7820   21.4770 C   0  0  0  0  0  2  0  0  0  0  0  0
  -26.1460  -29.3960   20.7890 C   0  0  0  0  0  0  0  0  0  0  0  0
  -27.2950  -28.4970   20.7910 C   0  0  0  0  0  3  0  0  0  0  0  0
  -26.0890  -26.9040   19.4630 C   0  0  0  0  0  3  0  0  0  0  0  0
  -24.9670  -27.7680   19.4510 C   0  0  0  0  0  3  0  0  0  0  0  0
  -23.7500  -29.9040   20.1800 C   0  0  0  0  0  2  0  0  0  0  0  0
  -24.7580  -31.0990   22.1600 N   0  0  0  0  0  0  0  0  0  0  0  0
  -23.5600  -32.1690   23.7800 O   0  0  0  0  0  0  0  0  0  0  0  0
  -22.7920  -29.5190   22.4940 C   0  0  0  0  0  0  0  0  0  0  0  0
  -21.4680  -29.3470   22.3330 N   0  0  0  0  0  0  0  0  0  0  0  0
  -23.4450  -28.8770   23.3210 O   0  0  0  0  0  0  0  0  0  0  0  0
  -20.9970  -29.9140   21.6420 H   0  0  0  0  0  0  0  0  0  0  0  0
  -18.0740  -28.1510   22.7780 C   0  0  0  0  0  0  0  0  0  0  0  0
  -20.6340  -28.3870   23.0620 C   0  0  0  0  0  3  0  0  0  0  0  0
  -20.7280  -26.9780   22.4330 C   0  0  0  0  0  2  0  0  0  0  0  0
  -19.6290  -26.7040   21.4010 C   0  0  0  0  0  2  0  0  0  0  0  0
  -18.2450  -26.8300   22.0450 C   0  0  0  0  0  2  0  0  0  0  0  0
  -19.1960  -28.8880   23.2410 C   0  0  0  0  0  0  0  0  0  0  0  0
  -18.9810  -30.1240   23.8900 C   0  0  0  0  0  3  0  0  0  0  0  0
  -17.6780  -30.6230   24.0760 C   0  0  0  0  0  3  0  0  0  0  0  0
  -16.5710  -29.8820   23.6260 C   0  0  0  0  0  3  0  0  0  0  0  0
  -16.7690  -28.6480   22.9830 C   0  0  0  0  0  3  0  0  0  0  0  0
  -25.9190  -32.5210   23.9430 C   0  0  0  0  0  3  0  0  0  0  0  0
  -25.6140  -33.9290   24.2550 N   0  0  0  0  0  0  0  0  0  0  0  0
  -25.9350  -34.9730   23.4790 C   0  0  0  0  0  0  0  0  0  0  0  0
  -26.5830  -34.8520   22.4370 O   0  0  0  0  0  0  0  0  0  0  0  0
  -25.0360  -34.0960   25.0650 H   0  0  0  0  0  0  0  0  0  0  0  0
  -24.1830  -36.7540   23.1740 C   0  0  0  0  0  1  0  0  0  0  0  0
  -25.4650  -36.3710   23.9300 C   0  0  0  0  0  3  0  0  0  0  0  0
  -27.6230  -37.2980   24.6480 C   0  0  0  0  0  1  0  0  0  0  0  0
  -26.4860  -37.4260   23.7410 N   0  0  0  0  0  0  0  0  0  0  0  0
  -26.0800  -38.3480   23.8680 H   0  0  0  0  0  0  0  0  0  0  0  0
  -26.3650  -31.7580   25.2520 C   0  0  1  0  0  0  0  0  0  0  0  0
  -25.2200  -31.5460   26.2700 C   0  0  0  0  0  1  0  0  0  0  0  0
  -26.9490  -30.3690   24.9100 C   0  0  0  0  0  1  0  0  0  0  0  0
  -27.4940  -32.5460   25.9580 C   0  0  0  0  0  1  0  0  0  0  0  0
  1  3  1  0
  1  4  2  0
  2  5  1  0
  3  2  2  0
  4 47  1  0
  4  5  1  0
  6 12  1  0
  6 15  1  0
  7 12  1  0
  8  9  1  0
  8  7  1  0
 10  9  1  0
 10 21  1  0
 10 11  1  0
 12 11  1  0
 13  6  2  0
 14  3  1  0
 14 15  1  0
 15 17  1  0
 16 14  2  0
 18 19  2  0
 19 38  1  0
 20 19  1  0
 20 23  1  0
 21 22  1  0
 21 18  1  0
 22 20  2  0
 23 24  1  0
 24 25  2  0
 26 29  1  0
 26 25  1  0
 27 26  2  0
 28 27  1  0
 28 23  2  0
 29 30  1  0
 30 35  2  0
 30 31  1  0
 31 32  2  0
 32 33  1  0
 33 37  1  0
 34 33  2  0
 35 34  1  0
 36 35  1  0
 38 39  1  0
 39 42  1  0
 39 41  1  0
 40 38  2  0
 43 44  1  0
 43 18  1  0
 45 43  1  0
 46 48  1  0
 47 46  2  0
 49 60  2  0
 50 48  1  0
 50 55  1  0
 51 59  1  0
 51 61  1  0
 52 58  1  0
 52 54  1  0
 53 59  1  0
 54 55  2  0
 54 53  1  0
 56 50  2  0
 57 56  1  0
 57 52  2  0
 58 51  1  0
 59 49  1  0
 61 63  2  0
 62 61  1  0
 64 62  1  0
 65 74  2  0
 65 70  1  0
 66 62  1  0
 66 70  1  0
 67 66  1  0
 68 69  1  0
 68 67  1  0
 69 65  1  0
 70 71  2  0
 71 72  1  0
 73 72  2  0
 74 73  1  0
 75 49  1  0
 75 76  1  0
 75 85  1  0
 76 79  1  0
 77 81  1  0
 77 76  1  0
 78 77  2  0
 81 80  1  0
 83 84  1  0
 83 81  1  0
 83 82  1  0
 85 88  1  1
 85 86  1  0
 87 85  1  0
M  ISO  4   6 100  15 100  46 101  48 101
M  END
>  <TORSDO>  (47) 
F 17

>  <SCORE>  (47) 
-14.400

>  <name>  (47) 
46

>  <ligand_id>  (47) 
46

>  <original_smiles>  (47) 
[H]C(=Nc1sc([H])c(C(=O)N([H])C(=O)N2C([H])([H])C([H])([H])C([H])([H])C([H])(n3nc(-c4c([H])c([H])c(Oc5c([H])c([H])c(F)c([H])c5F)c([H])c4[H])c(C(=O)N([H])[H])c3N([H])[H])C2([H])[H])c1[H])Oc1c([H])c([H])c2c(c1[H])C([H])([H])N(C(=O)C([H])(N([H])C(=O)C([H])(N([H])C([H])([H])[H])C([H])([H])[H])C(C([H])([H])[H])(C([H])([H])[H])C([H])([H])[H])C([H])(C(=O)N([H])C1([H])c3c([H])c([H])c([H])c([H])c3C([H])([H])C([H])([H])C1([H])[H])C2([H])[H]

>  <smiles>  (47) 
[H]C(=Nc1sc([H])c(C(=O)N([H])C(=O)N2C([H])([H])C([H])([H])C([H])([H])C([H])(n3nc(-c4c([H])c([H])c(Oc5c([H])c([H])c(F)c([H])c5F)c([H])c4[H])c(C(=O)N([H])[H])c3N([H])[H])C2([H])[H])c1[H])Oc1c([H])c([H])c2c(c1[H])C([H])([H])N(C(=O)C([H])(N([H])C(=O)C([H])(N([H])C([H])([H])[H])C([H])([H])[H])C(C([H])([H])[H])(C([H])([H])[H])C([H])([H])[H])C([H])(C(=O)N([H])C1([H])c3c([H])c([H])c([H])c([H])c3C([H])([H])C([H])([H])C1([H])[H])C2([H])[H]

$$$$
47:0:0
     RDKit          3D

 96105  0  0  1  0  0  0  0  0999 V2000
  -28.8980  -23.0190   20.0350 C   0  0  0  0  0  3  0  0  0  0  0  0
  -28.6560  -24.2980   19.6610 C   0  0  0  0  0  0  0  0  0  0  0  0
  -29.0430  -23.6050   17.2630 C   0  0  0  0  0  0  0  0  0  0  0  0
  -28.5920  -24.7270   18.1950 C   0  0  0  0  0  2  0  0  0  0  0  0
  -28.7390  -22.1750   17.7290 C   0  0  0  0  0  2  0  0  0  0  0  0
  -29.0970  -21.9540   19.1450 N   0  0  0  0  0  0  0  0  0  0  0  0
  -29.6030  -23.8410   16.1890 O   0  0  0  0  0  0  0  0  0  0  0  0
  -30.2250  -18.3500   18.9530 C   0  0  0  0  0  3  0  0  0  0  0  0
  -29.8500  -19.6530   18.5680 C   0  0  0  0  0  3  0  0  0  0  0  0
  -29.3790  -20.1980   20.8760 C   0  0  0  0  0  3  0  0  0  0  0  0
  -30.2190  -17.9660   20.3080 C   0  0  0  0  0  0  0  0  0  0  0  0
  -29.4290  -20.6190   19.5200 C   0  0  0  0  0  0  0  0  0  0  0  0
  -29.7800  -18.9010   21.2710 C   0  0  0  0  0  0  0  0  0  0  0  0
  -29.7490  -18.5710   22.5860 F   0  0  0  0  0  0  0  0  0  0  0  0
  -30.8600  -14.4630   19.7300 C   0  0  0  0  0  0  0  0  0  0  0  0
  -30.3520  -12.3860   18.4980 C   0  0  0  0  0  2  0  0  0  0  0  0
  -29.2870  -12.6520   17.4160 C   0  0  0  0  0  2  0  0  0  0  0  0
  -27.8700  -12.5080   18.0060 C   0  0  0  0  0  2  0  0  0  0  0  0
  -27.6870  -13.2940   19.3330 C   0  0  0  0  0  3  0  0  0  0  0  0
  -28.8610  -13.0350   20.3040 C   0  0  0  0  0  2  0  0  0  0  0  0
  -30.1050  -13.3420   19.5860 N   0  0  0  0  0  0  0  0  0  0  0  0
  -31.9770  -14.5690   19.2150 O   0  0  0  0  0  0  0  0  0  0  0  0
  -30.8330  -16.6480   20.6950 C   0  0  0  0  0  0  0  0  0  0  0  0
  -30.2260  -15.5330   20.2470 N   0  0  0  0  0  0  0  0  0  0  0  0
  -31.8920  -16.6420   21.3360 O   0  0  0  0  0  0  0  0  0  0  0  0
  -29.2250  -15.5540   20.1600 H   0  0  0  0  0  0  0  0  0  0  0  0
  -25.3940  -13.8870   20.3340 C   0  0  0  0  0  0  0  0  0  0  0  0
  -24.3630  -13.1070   20.7850 C   0  0  0  0  0  0  0  0  0  0  0  0
  -24.8020  -11.7560   20.6490 C   0  0  0  0  0  0  0  0  0  0  0  0
  -26.3960  -13.0090   19.9520 N   0  0  0  0  0  0  0  0  0  0  0  0
  -26.0510  -11.7180   20.2000 N   0  0  0  0  0  0  0  0  0  0  0  0
  -24.0860  -10.4910   20.8640 C   0  0  0  0  0  0  0  0  0  0  0  0
  -24.5350   -9.5390   21.8040 C   0  0  0  0  0  3  0  0  0  0  0  0
  -23.8180   -8.3400   22.0070 C   0  0  0  0  0  3  0  0  0  0  0  0
  -22.6390   -8.0850   21.2690 C   0  0  0  0  0  0  0  0  0  0  0  0
  -22.2090   -9.0260   20.3170 C   0  0  0  0  0  3  0  0  0  0  0  0
  -22.9250  -10.2170   20.1120 C   0  0  0  0  0  3  0  0  0  0  0  0
  -21.8920   -6.9370   21.3800 O   0  0  0  0  0  0  0  0  0  0  0  0
  -21.7620   -6.2770   22.5760 C   0  0  0  0  0  0  0  0  0  0  0  0
  -21.2260   -6.9070   23.7200 C   0  0  0  0  0  3  0  0  0  0  0  0
  -21.0440   -6.1710   24.9080 C   0  0  0  0  0  3  0  0  0  0  0  0
  -21.3880   -4.8070   24.9530 C   0  0  0  0  0  0  0  0  0  0  0  0
  -21.9160   -4.1770   23.8120 C   0  0  0  0  0  3  0  0  0  0  0  0
  -22.0990   -4.9090   22.6260 C   0  0  0  0  0  0  0  0  0  0  0  0
  -22.5890   -4.2920   21.5240 F   0  0  0  0  0  0  0  0  0  0  0  0
  -21.2060   -4.0980   26.0910 F   0  0  0  0  0  0  0  0  0  0  0  0
  -23.0100  -13.5840   21.2270 C   0  0  0  0  0  0  0  0  0  0  0  0
  -22.3830  -12.8720   22.1570 N   0  0  0  0  0  0  0  0  0  0  0  0
  -22.5210  -14.6210   20.7830 O   0  0  0  0  0  0  0  0  0  0  0  0
  -22.7950  -12.0320   22.5360 H   0  0  0  0  0  0  0  0  0  0  0  0
  -21.4800  -13.1710   22.4950 H   0  0  0  0  0  0  0  0  0  0  0  0
  -25.5530  -15.2630   20.1960 N   0  0  0  0  0  0  0  0  0  0  0  0
  -24.8020  -15.9100   20.4140 H   0  0  0  0  0  0  0  0  0  0  0  0
  -26.3520  -15.7150   19.7730 H   0  0  0  0  0  0  0  0  0  0  0  0
  -28.4090  -25.3910   20.6980 C   0  0  0  0  0  2  0  0  0  0  0  0
  -28.5000  -26.7250   20.1790 O   0  0  0  0  0  0  0  0  0  0  0  0
  -24.5710  -31.8520   23.1570 C   0  0  0  0  0  0  0  0  0  0  0  0
  -27.3180  -27.4310   20.1590 C   0  0  0  0  0  0  0  0  0  0  0  0
  -23.4090  -30.4240   21.5030 C   0  0  0  0  0  3  0  0  0  0  0  0
  -24.9040  -28.8970   20.1150 C   0  0  0  0  0  0  0  0  0  0  0  0
  -25.9310  -30.8180   21.3430 C   0  0  0  0  0  2  0  0  0  0  0  0
  -26.0460  -29.4460   20.7130 C   0  0  0  0  0  0  0  0  0  0  0  0
  -27.2590  -28.7230   20.7240 C   0  0  0  0  0  3  0  0  0  0  0  0
  -26.1580  -26.8880   19.5680 C   0  0  0  0  0  3  0  0  0  0  0  0
  -24.9540  -27.6150   19.5390 C   0  0  0  0  0  3  0  0  0  0  0  0
  -23.6500  -29.7390   20.1330 C   0  0  0  0  0  2  0  0  0  0  0  0
  -24.6540  -31.0460   22.0600 N   0  0  0  0  0  0  0  0  0  0  0  0
  -23.4760  -32.1160   23.6750 O   0  0  0  0  0  0  0  0  0  0  0  0
  -22.7530  -29.4030   22.4580 C   0  0  0  0  0  0  0  0  0  0  0  0
  -21.4310  -29.2110   22.3140 N   0  0  0  0  0  0  0  0  0  0  0  0
  -23.4300  -28.7850   23.2840 O   0  0  0  0  0  0  0  0  0  0  0  0
  -20.9480  -29.7610   21.6180 H   0  0  0  0  0  0  0  0  0  0  0  0
  -18.0580  -28.0020   22.7650 C   0  0  0  0  0  0  0  0  0  0  0  0
  -20.6100  -28.2720   23.0740 C   0  0  0  0  0  3  0  0  0  0  0  0
  -20.7290  -26.8400   22.5030 C   0  0  0  0  0  2  0  0  0  0  0  0
  -19.6420  -26.5090   21.4750 C   0  0  0  0  0  2  0  0  0  0  0  0
  -18.2510  -26.6510   22.0980 C   0  0  0  0  0  2  0  0  0  0  0  0
  -19.1660  -28.7700   23.2090 C   0  0  0  0  0  0  0  0  0  0  0  0
  -18.9340  -30.0360   23.7900 C   0  0  0  0  0  3  0  0  0  0  0  0
  -17.6250  -30.5320   23.9340 C   0  0  0  0  0  3  0  0  0  0  0  0
  -16.5300  -29.7600   23.5070 C   0  0  0  0  0  3  0  0  0  0  0  0
  -16.7470  -28.4980   22.9290 C   0  0  0  0  0  3  0  0  0  0  0  0
  -25.8380  -32.5000   23.7950 C   0  0  0  0  0  3  0  0  0  0  0  0
  -25.5000  -33.8870   24.1410 N   0  0  0  0  0  0  0  0  0  0  0  0
  -25.8060  -34.9530   23.3900 C   0  0  0  0  0  0  0  0  0  0  0  0
  -26.4750  -34.8750   22.3560 O   0  0  0  0  0  0  0  0  0  0  0  0
  -24.9060  -34.0210   24.9450 H   0  0  0  0  0  0  0  0  0  0  0  0
  -24.0360  -36.7080   23.0530 C   0  0  0  0  0  1  0  0  0  0  0  0
  -25.2870  -36.3250   23.8600 C   0  0  0  0  0  3  0  0  0  0  0  0
  -27.3980  -37.2520   24.7020 C   0  0  0  0  0  1  0  0  0  0  0  0
  -26.2950  -37.4020   23.7580 N   0  0  0  0  0  0  0  0  0  0  0  0
  -25.8670  -38.3120   23.9120 H   0  0  0  0  0  0  0  0  0  0  0  0
  -26.3640  -31.7210   25.0630 C   0  0  1  0  0  0  0  0  0  0  0  0
  -25.2690  -31.4370   26.1170 C   0  0  0  0  0  1  0  0  0  0  0  0
  -26.9820  -30.3650   24.6490 C   0  0  0  0  0  1  0  0  0  0  0  0
  -27.4910  -32.5300   25.7460 C   0  0  0  0  0  1  0  0  0  0  0  0
  2  1  2  0
  2 55  1  0
  3  5  1  0
  3  4  1  0
  4  2  1  0
  5  6  1  0
  6 12  1  0
  6  1  1  0
  7  3  2  0
  8 11  1  0
  9  8  2  0
  9 12  1  0
 10 13  1  0
 11 23  1  0
 11 13  2  0
 12 10  2  0
 13 14  1  0
 15 24  1  0
 16 21  1  0
 17 18  1  0
 17 16  1  0
 19 18  1  0
 19 30  1  0
 19 20  1  0
 21 15  1  0
 21 20  1  0
 22 15  2  0
 23 25  2  0
 24 23  1  0
 26 24  1  0
 27 28  2  0
 28 47  1  0
 29 28  1  0
 29 32  1  0
 30 31  1  0
 30 27  1  0
 31 29  2  0
 32 33  1  0
 33 34  2  0
 35 38  1  0
 35 34  1  0
 36 35  2  0
 37 36  1  0
 37 32  2  0
 38 39  1  0
 39 44  2  0
 39 40  1  0
 40 41  2  0
 41 42  1  0
 42 46  1  0
 43 42  2  0
 44 43  1  0
 45 44  1  0
 47 48  1  0
 48 51  1  0
 48 50  1  0
 49 47  2  0
 52 27  1  0
 52 53  1  0
 54 52  1  0
 56 55  1  0
 57 68  2  0
 58 56  1  0
 58 63  1  0
 59 67  1  0
 59 69  1  0
 60 66  1  0
 60 62  1  0
 61 67  1  0
 62 63  2  0
 62 61  1  0
 64 58  2  0
 65 64  1  0
 65 60  2  0
 66 59  1  0
 67 57  1  0
 69 71  2  0
 70 69  1  0
 72 70  1  0
 73 82  2  0
 73 78  1  0
 74 70  1  0
 74 78  1  0
 75 74  1  0
 76 77  1  0
 76 75  1  0
 77 73  1  0
 78 79  2  0
 79 80  1  0
 81 80  2  0
 82 81  1  0
 83 57  1  0
 83 84  1  0
 83 93  1  0
 84 87  1  0
 85 89  1  0
 85 84  1  0
 86 85  2  0
 89 88  1  0
 91 89  1  0
 91 92  1  0
 91 90  1  0
 93 96  1  1
 93 94  1  0
 95 93  1  0
M  ISO  4  15 100  24 100  55 101  56 101
M  END
>  <TORSDO>  (48) 
F 18

>  <SCORE>  (48) 
-13.247

>  <name>  (48) 
47

>  <ligand_id>  (48) 
47

>  <original_smiles>  (48) 
[H]C1=C(C([H])([H])Oc2c([H])c([H])c3c(c2[H])C([H])([H])N(C(=O)C([H])(N([H])C(=O)C([H])(N([H])C([H])([H])[H])C([H])([H])[H])C(C([H])([H])[H])(C([H])([H])[H])C([H])([H])[H])C([H])(C(=O)N([H])C2([H])c4c([H])c([H])c([H])c([H])c4C([H])([H])C([H])([H])C2([H])[H])C3([H])[H])C([H])([H])C(=O)C([H])([H])N1c1c([H])c([H])c(C(=O)N([H])C(=O)N2C([H])([H])C([H])([H])C([H])([H])C([H])(n3nc(-c4c([H])c([H])c(Oc5c([H])c([H])c(F)c([H])c5F)c([H])c4[H])c(C(=O)N([H])[H])c3N([H])[H])C2([H])[H])c(F)c1[H]

>  <smiles>  (48) 
[H]C1=C(C([H])([H])Oc2c([H])c([H])c3c(c2[H])C([H])([H])N(C(=O)C([H])(N([H])C(=O)C([H])(N([H])C([H])([H])[H])C([H])([H])[H])C(C([H])([H])[H])(C([H])([H])[H])C([H])([H])[H])C([H])(C(=O)N([H])C2([H])c4c([H])c([H])c([H])c([H])c4C([H])([H])C([H])([H])C2([H])[H])C3([H])[H])C([H])([H])C(=O)C([H])([H])N1c1c([H])c([H])c(C(=O)N([H])C(=O)N2C([H])([H])C([H])([H])C([H])([H])C([H])(n3nc(-c4c([H])c([H])c(Oc5c([H])c([H])c(F)c([H])c5F)c([H])c4[H])c(C(=O)N([H])[H])c3N([H])[H])C2([H])[H])c(F)c1[H]

$$$$
48:0:0
     RDKit          3D

 87 95  0  0  1  0  0  0  0  0999 V2000
  -30.5130  -20.6790   21.0070 C   0  0  0  0  0  2  0  0  0  0  0  0
  -30.7170  -19.2110   20.9450 C   0  0  0  0  0  3  0  0  0  0  0  0
  -29.3170  -21.2070   20.5080 C   0  0  0  0  0  0  0  0  0  0  0  0
  -29.6590  -18.5320   20.3780 C   0  0  0  0  0  0  0  0  0  0  0  0
  -28.7660  -19.8060   20.1270 O   0  0  0  0  0  0  0  0  0  0  0  0
  -30.3070  -15.6590   20.2830 C   0  0  0  0  0  0  0  0  0  0  0  0
  -30.4020  -13.1290   19.4650 C   0  0  0  0  0  2  0  0  0  0  0  0
  -29.5120  -12.7400   18.2520 C   0  0  0  0  0  2  0  0  0  0  0  0
  -28.0840  -12.3840   18.7030 C   0  0  0  0  0  2  0  0  0  0  0  0
  -27.5600  -13.3760   19.7650 C   0  0  0  0  0  3  0  0  0  0  0  0
  -28.5930  -13.7020   20.8710 C   0  0  0  0  0  2  0  0  0  0  0  0
  -29.7750  -14.3030   20.2060 N   0  0  0  0  0  0  0  0  0  0  0  0
  -31.5510  -15.5940   20.2580 O   0  0  0  0  0  0  0  0  0  0  0  0
  -29.5380  -17.0030   20.0870 N   0  0  0  0  0  0  0  0  0  0  0  0
  -25.1840  -13.9080   20.4940 C   0  0  0  0  0  0  0  0  0  0  0  0
  -24.1250  -13.1220   20.8470 C   0  0  0  0  0  0  0  0  0  0  0  0
  -24.6120  -11.7790   20.8360 C   0  0  0  0  0  0  0  0  0  0  0  0
  -26.2420  -13.0420   20.2770 N   0  0  0  0  0  0  0  0  0  0  0  0
  -25.9100  -11.7550   20.5510 N   0  0  0  0  0  0  0  0  0  0  0  0
  -23.8970  -10.5120   21.0230 C   0  0  0  0  0  0  0  0  0  0  0  0
  -24.3240   -9.5570   21.9710 C   0  0  0  0  0  3  0  0  0  0  0  0
  -23.6050   -8.3550   22.1470 C   0  0  0  0  0  3  0  0  0  0  0  0
  -22.4450   -8.1030   21.3770 C   0  0  0  0  0  0  0  0  0  0  0  0
  -22.0380   -9.0470   20.4180 C   0  0  0  0  0  3  0  0  0  0  0  0
  -22.7580  -10.2390   20.2400 C   0  0  0  0  0  3  0  0  0  0  0  0
  -21.6990   -6.9520   21.4630 O   0  0  0  0  0  0  0  0  0  0  0  0
  -21.6450   -6.2170   22.6190 C   0  0  0  0  0  0  0  0  0  0  0  0
  -21.1950   -6.7730   23.8370 C   0  0  0  0  0  3  0  0  0  0  0  0
  -21.0890   -5.9630   24.9850 C   0  0  0  0  0  3  0  0  0  0  0  0
  -21.4220   -4.5960   24.9160 C   0  0  0  0  0  0  0  0  0  0  0  0
  -21.8650   -4.0390   23.7030 C   0  0  0  0  0  3  0  0  0  0  0  0
  -21.9730   -4.8480   22.5580 C   0  0  0  0  0  0  0  0  0  0  0  0
  -22.3810   -4.3010   21.3860 F   0  0  0  0  0  0  0  0  0  0  0  0
  -21.3130   -3.8150   26.0150 F   0  0  0  0  0  0  0  0  0  0  0  0
  -22.7190  -13.5880   21.0770 C   0  0  0  0  0  0  0  0  0  0  0  0
  -21.9790  -12.8990   21.9380 N   0  0  0  0  0  0  0  0  0  0  0  0
  -22.2830  -14.6020   20.5320 O   0  0  0  0  0  0  0  0  0  0  0  0
  -22.3430  -12.0790   22.4010 H   0  0  0  0  0  0  0  0  0  0  0  0
  -21.0340  -13.1960   22.1380 H   0  0  0  0  0  0  0  0  0  0  0  0
  -25.3230  -15.2790   20.3110 N   0  0  0  0  0  0  0  0  0  0  0  0
  -24.5410  -15.9170   20.4130 H   0  0  0  0  0  0  0  0  0  0  0  0
  -26.1740  -15.7360   20.0140 H   0  0  0  0  0  0  0  0  0  0  0  0
  -28.2470  -17.8060   18.0110 C   0  0  0  0  0  1  0  0  0  0  0  0
  -28.4250  -16.7690   19.1380 C   0  0  0  0  0  2  0  0  0  0  0  0
  -28.9130  -22.8730   20.4760 C   0  0  0  0  0  0  0  0  0  0  0  0
  -28.0270  -24.0980   20.3100 C   0  0  0  0  0  3  0  0  0  0  0  0
  -28.1830  -25.6830   20.4050 O   0  0  0  0  0  0  0  0  0  0  0  0
  -24.6460  -31.9200   23.2630 C   0  0  0  0  0  0  0  0  0  0  0  0
  -27.1870  -26.8540   20.3430 C   0  0  0  0  0  0  0  0  0  0  0  0
  -23.4620  -30.5100   21.6320 C   0  0  0  0  0  3  0  0  0  0  0  0
  -24.9130  -28.8500   20.2470 C   0  0  0  0  0  0  0  0  0  0  0  0
  -26.0380  -30.6570   21.5240 C   0  0  0  0  0  2  0  0  0  0  0  0
  -26.1010  -29.2230   20.8870 C   0  0  0  0  0  0  0  0  0  0  0  0
  -27.2220  -28.2480   20.9090 C   0  0  0  0  0  3  0  0  0  0  0  0
  -25.9690  -26.6780   19.6410 C   0  0  0  0  0  3  0  0  0  0  0  0
  -24.8810  -27.6010   19.6030 C   0  0  0  0  0  3  0  0  0  0  0  0
  -23.7060  -29.7970   20.2700 C   0  0  0  0  0  2  0  0  0  0  0  0
  -24.7370  -31.0610   22.1920 N   0  0  0  0  0  0  0  0  0  0  0  0
  -23.5510  -32.2300   23.7640 O   0  0  0  0  0  0  0  0  0  0  0  0
  -22.7390  -29.5430   22.6080 C   0  0  0  0  0  0  0  0  0  0  0  0
  -21.4070  -29.3900   22.4730 N   0  0  0  0  0  0  0  0  0  0  0  0
  -23.3860  -28.9290   23.4580 O   0  0  0  0  0  0  0  0  0  0  0  0
  -20.9340  -29.9330   21.7640 H   0  0  0  0  0  0  0  0  0  0  0  0
  -18.0140  -28.1920   22.9650 C   0  0  0  0  0  0  0  0  0  0  0  0
  -20.5710  -28.4660   23.2500 C   0  0  0  0  0  3  0  0  0  0  0  0
  -20.6790  -27.0240   22.7010 C   0  0  0  0  0  2  0  0  0  0  0  0
  -19.5880  -26.6850   21.6790 C   0  0  0  0  0  2  0  0  0  0  0  0
  -18.2000  -26.8340   22.3060 C   0  0  0  0  0  2  0  0  0  0  0  0
  -19.1260  -28.9640   23.3940 C   0  0  0  0  0  0  0  0  0  0  0  0
  -18.8960  -30.2300   23.9740 C   0  0  0  0  0  3  0  0  0  0  0  0
  -17.5870  -30.7250   24.1270 C   0  0  0  0  0  3  0  0  0  0  0  0
  -16.4890  -29.9510   23.7110 C   0  0  0  0  0  3  0  0  0  0  0  0
  -16.7040  -28.6860   23.1370 C   0  0  0  0  0  3  0  0  0  0  0  0
  -25.9100  -32.5690   23.9030 C   0  0  0  0  0  3  0  0  0  0  0  0
  -25.5920  -33.9740   24.2220 N   0  0  0  0  0  0  0  0  0  0  0  0
  -25.9180  -35.0310   23.4650 C   0  0  0  0  0  0  0  0  0  0  0  0
  -26.5760  -34.9240   22.4270 O   0  0  0  0  0  0  0  0  0  0  0  0
  -25.0030  -34.1290   25.0270 H   0  0  0  0  0  0  0  0  0  0  0  0
  -24.1770  -36.8270   23.1530 C   0  0  0  0  0  1  0  0  0  0  0  0
  -25.4430  -36.4250   23.9280 C   0  0  0  0  0  3  0  0  0  0  0  0
  -27.5980  -37.3280   24.6900 C   0  0  0  0  0  1  0  0  0  0  0  0
  -26.4690  -37.4800   23.7740 N   0  0  0  0  0  0  0  0  0  0  0  0
  -26.0640  -38.4010   23.9210 H   0  0  0  0  0  0  0  0  0  0  0  0
  -26.3960  -31.8210   25.2070 C   0  0  1  0  0  0  0  0  0  0  0  0
  -25.2820  -31.6130   26.2600 C   0  0  0  0  0  1  0  0  0  0  0  0
  -26.9760  -30.4300   24.8650 C   0  0  0  0  0  1  0  0  0  0  0  0
  -27.5400  -32.6200   25.8730 C   0  0  0  0  0  1  0  0  0  0  0  0
  2  1  1  0
  3  1  1  0
  4  2  2  0
  5  4  1  0
  5  3  1  0
  7 12  1  0
  8  9  1  0
  8  7  1  0
 10  9  1  0
 10 18  1  0
 10 11  1  0
 12  6  1  0
 12 11  1  0
 13  6  2  0
 14  6  1  0
 14  4  1  0
 15 16  2  0
 16 35  1  0
 17 16  1  0
 17 20  1  0
 18 15  1  0
 18 19  1  0
 19 17  2  0
 20 21  1  0
 21 22  2  0
 23 26  1  0
 23 22  1  0
 24 23  2  0
 25 24  1  0
 25 20  2  0
 26 27  1  0
 27 28  1  0
 28 29  2  0
 30 29  1  0
 30 34  1  0
 31 30  2  0
 32 27  2  0
 32 31  1  0
 33 32  1  0
 35 36  1  0
 36 39  1  0
 36 38  1  0
 37 35  2  0
 40 41  1  0
 40 15  1  0
 42 40  1  0
 43 44  1  0
 44 14  1  0
 45  3  2  0
 46 47  1  0
 46 45  2  0
 48 59  2  0
 49 47  1  0
 49 54  1  0
 50 58  1  0
 50 60  1  0
 51 57  1  0
 51 53  1  0
 52 58  1  0
 53 54  2  0
 53 52  1  0
 55 49  2  0
 56 55  1  0
 56 51  2  0
 57 50  1  0
 58 48  1  0
 60 62  2  0
 61 60  1  0
 63 61  1  0
 64 73  2  0
 64 69  1  0
 65 61  1  0
 65 69  1  0
 66 65  1  0
 67 68  1  0
 67 66  1  0
 68 64  1  0
 69 70  2  0
 70 71  1  0
 72 71  2  0
 73 72  1  0
 74 48  1  0
 74 75  1  0
 74 84  1  0
 75 78  1  0
 76 80  1  0
 76 75  1  0
 77 76  2  0
 80 79  1  0
 82 83  1  0
 82 80  1  0
 82 81  1  0
 84 87  1  1
 84 85  1  0
 86 84  1  0
M  ISO  4   6 100  14 100  46 101  47 101
M  END
>  <TORSDO>  (49) 
F 18

>  <SCORE>  (49) 
-15.010

>  <name>  (49) 
48

>  <ligand_id>  (49) 
48

>  <original_smiles>  (49) 
[H]C(Oc1c([H])c([H])c2c(c1[H])C([H])([H])N(C(=O)C([H])(N([H])C(=O)C([H])(N([H])C([H])([H])[H])C([H])([H])[H])C(C([H])([H])[H])(C([H])([H])[H])C([H])([H])[H])C([H])(C(=O)N([H])C1([H])c3c([H])c([H])c([H])c([H])c3C([H])([H])C([H])([H])C1([H])[H])C2([H])[H])=C([H])c1oc(N(C(=O)N2C([H])([H])C([H])([H])C([H])([H])C([H])(n3nc(-c4c([H])c([H])c(Oc5c([H])c([H])c(F)c([H])c5F)c([H])c4[H])c(C(=O)N([H])[H])c3N([H])[H])C2([H])[H])C([H])([H])C([H])([H])[H])c([H])c1[H]

>  <smiles>  (49) 
[H]C(Oc1c([H])c([H])c2c(c1[H])C([H])([H])N(C(=O)C([H])(N([H])C(=O)C([H])(N([H])C([H])([H])[H])C([H])([H])[H])C(C([H])([H])[H])(C([H])([H])[H])C([H])([H])[H])C([H])(C(=O)N([H])C1([H])c3c([H])c([H])c([H])c([H])c3C([H])([H])C([H])([H])C1([H])[H])C2([H])[H])=C([H])c1oc(N(C(=O)N2C([H])([H])C([H])([H])C([H])([H])C([H])(n3nc(-c4c([H])c([H])c(Oc5c([H])c([H])c(F)c([H])c5F)c([H])c4[H])c(C(=O)N([H])[H])c3N([H])[H])C2([H])[H])C([H])([H])C([H])([H])[H])c([H])c1[H]

$$$$
49:0:0
     RDKit          3D

 93101  0  0  1  0  0  0  0  0999 V2000
  -30.2350  -21.7530   20.5510 C   0  0  0  0  0  0  0  0  0  0  0  0
  -29.3520  -24.0790   20.3560 C   0  0  0  0  0  0  0  0  0  0  0  0
  -29.2610  -22.6930   20.2680 N   0  0  0  0  0  0  0  0  0  0  0  0
  -31.3690  -22.0950   20.9110 O   0  0  0  0  0  0  0  0  0  0  0  0
  -30.3670  -24.6590   20.7600 O   0  0  0  0  0  0  0  0  0  0  0  0
  -28.3780  -22.3180   19.9590 H   0  0  0  0  0  0  0  0  0  0  0  0
  -31.1910  -19.3770   20.2290 C   0  0  0  0  0  3  0  0  0  0  0  0
  -31.1420  -17.9490   20.2580 C   0  0  0  0  0  3  0  0  0  0  0  0
  -28.7770  -18.0820   20.6190 C   0  0  0  0  0  3  0  0  0  0  0  0
  -30.0470  -20.2160   20.4040 C   0  0  0  0  0  0  0  0  0  0  0  0
  -29.9280  -17.2480   20.4720 C   0  0  0  0  0  0  0  0  0  0  0  0
  -28.8240  -19.5170   20.5880 C   0  0  0  0  0  0  0  0  0  0  0  0
  -27.6760  -20.2150   20.7690 F   0  0  0  0  0  0  0  0  0  0  0  0
  -30.5910  -14.7210   20.1820 C   0  0  0  0  0  0  0  0  0  0  0  0
  -30.3420  -12.4910   19.0970 C   0  0  0  0  0  2  0  0  0  0  0  0
  -29.3580  -12.6370   17.9140 C   0  0  0  0  0  2  0  0  0  0  0  0
  -27.9000  -12.4770   18.3900 C   0  0  0  0  0  2  0  0  0  0  0  0
  -27.5870  -13.3230   19.6520 C   0  0  0  0  0  3  0  0  0  0  0  0
  -28.6820  -13.1490   20.7290 C   0  0  0  0  0  2  0  0  0  0  0  0
  -29.9700  -13.4970   20.1130 N   0  0  0  0  0  0  0  0  0  0  0  0
  -31.7460  -14.8650   19.7700 O   0  0  0  0  0  0  0  0  0  0  0  0
  -29.7960  -15.7800   20.5570 N   0  0  0  0  0  0  0  0  0  0  0  0
  -28.8920  -15.4670   20.8780 H   0  0  0  0  0  0  0  0  0  0  0  0
  -25.2240  -13.9310   20.4560 C   0  0  0  0  0  0  0  0  0  0  0  0
  -24.1650  -13.1620   20.8510 C   0  0  0  0  0  0  0  0  0  0  0  0
  -24.6140  -11.8080   20.7880 C   0  0  0  0  0  0  0  0  0  0  0  0
  -26.2540  -13.0450   20.1760 N   0  0  0  0  0  0  0  0  0  0  0  0
  -25.8930  -11.7630   20.4360 N   0  0  0  0  0  0  0  0  0  0  0  0
  -23.8830  -10.5480   20.9830 C   0  0  0  0  0  0  0  0  0  0  0  0
  -24.3260   -9.5730   21.9030 C   0  0  0  0  0  3  0  0  0  0  0  0
  -23.5970   -8.3780   22.0860 C   0  0  0  0  0  3  0  0  0  0  0  0
  -22.4090   -8.1520   21.3510 C   0  0  0  0  0  0  0  0  0  0  0  0
  -21.9850   -9.1160   20.4210 C   0  0  0  0  0  3  0  0  0  0  0  0
  -22.7150  -10.3020   20.2350 C   0  0  0  0  0  3  0  0  0  0  0  0
  -21.6500   -7.0110   21.4460 O   0  0  0  0  0  0  0  0  0  0  0  0
  -21.6030   -6.2710   22.6000 C   0  0  0  0  0  0  0  0  0  0  0  0
  -21.1800   -6.8280   23.8260 C   0  0  0  0  0  3  0  0  0  0  0  0
  -21.0810   -6.0140   24.9720 C   0  0  0  0  0  3  0  0  0  0  0  0
  -21.3950   -4.6430   24.8930 C   0  0  0  0  0  0  0  0  0  0  0  0
  -21.8110   -4.0860   23.6710 C   0  0  0  0  0  3  0  0  0  0  0  0
  -21.9120   -4.8970   22.5270 C   0  0  0  0  0  0  0  0  0  0  0  0
  -22.2930   -4.3500   21.3480 F   0  0  0  0  0  0  0  0  0  0  0  0
  -21.2930   -3.8600   25.9920 F   0  0  0  0  0  0  0  0  0  0  0  0
  -22.7800  -13.6460   21.1740 C   0  0  0  0  0  0  0  0  0  0  0  0
  -22.0750  -12.9460   22.0540 N   0  0  0  0  0  0  0  0  0  0  0  0
  -22.3340  -14.6800   20.6790 O   0  0  0  0  0  0  0  0  0  0  0  0
  -22.4490  -12.1090   22.4760 H   0  0  0  0  0  0  0  0  0  0  0  0
  -21.1480  -13.2520   22.3130 H   0  0  0  0  0  0  0  0  0  0  0  0
  -25.3940  -15.3030   20.2890 N   0  0  0  0  0  0  0  0  0  0  0  0
  -24.6280  -15.9560   20.4170 H   0  0  0  0  0  0  0  0  0  0  0  0
  -26.2140  -15.7330   19.8800 H   0  0  0  0  0  0  0  0  0  0  0  0
  -28.1510  -25.0210   19.9390 C   0  0  0  0  0  2  0  0  0  0  0  0
  -28.3610  -26.4870   20.1490 O   0  0  0  0  0  0  0  0  0  0  0  0
  -24.6250  -31.8620   23.2210 C   0  0  0  0  0  0  0  0  0  0  0  0
  -27.2400  -27.3380   20.1080 C   0  0  0  0  0  0  0  0  0  0  0  0
  -23.4190  -30.4770   21.5720 C   0  0  0  0  0  3  0  0  0  0  0  0
  -24.8690  -28.9480   20.1230 C   0  0  0  0  0  0  0  0  0  0  0  0
  -25.9570  -30.8050   21.3820 C   0  0  0  0  0  2  0  0  0  0  0  0
  -26.0390  -29.4330   20.7190 C   0  0  0  0  0  0  0  0  0  0  0  0
  -27.2280  -28.6410   20.6990 C   0  0  0  0  0  3  0  0  0  0  0  0
  -26.0430  -26.9100   19.4870 C   0  0  0  0  0  3  0  0  0  0  0  0
  -24.8740  -27.6930   19.4970 C   0  0  0  0  0  3  0  0  0  0  0  0
  -23.6300  -29.8180   20.1840 C   0  0  0  0  0  2  0  0  0  0  0  0
  -24.6860  -31.0640   22.1150 N   0  0  0  0  0  0  0  0  0  0  0  0
  -23.5430  -32.1300   23.7630 O   0  0  0  0  0  0  0  0  0  0  0  0
  -22.7630  -29.4480   22.5240 C   0  0  0  0  0  0  0  0  0  0  0  0
  -21.4360  -29.2710   22.4040 N   0  0  0  0  0  0  0  0  0  0  0  0
  -23.4480  -28.8120   23.3290 O   0  0  0  0  0  0  0  0  0  0  0  0
  -20.9430  -29.8370   21.7280 H   0  0  0  0  0  0  0  0  0  0  0  0
  -18.0610  -28.0760   22.9190 C   0  0  0  0  0  0  0  0  0  0  0  0
  -20.6230  -28.3250   23.1690 C   0  0  0  0  0  3  0  0  0  0  0  0
  -20.7160  -26.9010   22.5730 C   0  0  0  0  0  2  0  0  0  0  0  0
  -19.6040  -26.5950   21.5640 C   0  0  0  0  0  2  0  0  0  0  0  0
  -18.2280  -26.7350   22.2230 C   0  0  0  0  0  2  0  0  0  0  0  0
  -19.1850  -28.8300   23.3490 C   0  0  0  0  0  0  0  0  0  0  0  0
  -18.9740  -30.0850   23.9600 C   0  0  0  0  0  3  0  0  0  0  0  0
  -17.6720  -30.5860   24.1440 C   0  0  0  0  0  3  0  0  0  0  0  0
  -16.5620  -29.8290   23.7300 C   0  0  0  0  0  3  0  0  0  0  0  0
  -16.7580  -28.5750   23.1230 C   0  0  0  0  0  3  0  0  0  0  0  0
  -25.9080  -32.4920   23.8450 C   0  0  0  0  0  3  0  0  0  0  0  0
  -25.5950  -33.8860   24.1900 N   0  0  0  0  0  0  0  0  0  0  0  0
  -25.9020  -34.9470   23.4320 C   0  0  0  0  0  0  0  0  0  0  0  0
  -26.5490  -34.8550   22.3850 O   0  0  0  0  0  0  0  0  0  0  0  0
  -25.0170  -34.0310   25.0050 H   0  0  0  0  0  0  0  0  0  0  0  0
  -24.1450  -36.7230   23.1410 C   0  0  0  0  0  1  0  0  0  0  0  0
  -25.4150  -36.3290   23.9100 C   0  0  0  0  0  3  0  0  0  0  0  0
  -27.5650  -37.2360   24.6770 C   0  0  0  0  0  1  0  0  0  0  0  0
  -26.4330  -37.3930   23.7670 N   0  0  0  0  0  0  0  0  0  0  0  0
  -26.0220  -38.3090   23.9270 H   0  0  0  0  0  0  0  0  0  0  0  0
  -26.4300  -31.7110   25.1120 C   0  0  1  0  0  0  0  0  0  0  0  0
  -25.3400  -31.4590   26.1810 C   0  0  0  0  0  1  0  0  0  0  0  0
  -27.0170  -30.3390   24.7070 C   0  0  0  0  0  1  0  0  0  0  0  0
  -27.5790  -32.5030   25.7800 C   0  0  0  0  0  1  0  0  0  0  0  0
  1  4  2  0
  2  5  2  0
  3  2  1  0
  3  1  1  0
  6  3  1  0
  7  8  2  0
  7 10  1  0
  8 11  1  0
 10  1  1  0
 10 12  2  0
 11 22  1  0
 11  9  2  0
 12  9  1  0
 12 13  1  0
 14 22  1  0
 15 20  1  0
 16 17  1  0
 16 15  1  0
 18 17  1  0
 18 27  1  0
 18 19  1  0
 20 14  1  0
 20 19  1  0
 21 14  2  0
 22 23  1  0
 24 25  2  0
 25 44  1  0
 26 25  1  0
 26 29  1  0
 27 28  1  0
 27 24  1  0
 28 26  2  0
 29 30  1  0
 30 31  2  0
 32 35  1  0
 32 31  1  0
 33 32  2  0
 34 33  1  0
 34 29  2  0
 35 36  1  0
 36 37  1  0
 37 38  2  0
 39 38  1  0
 39 43  1  0
 40 39  2  0
 41 36  2  0
 41 40  1  0
 42 41  1  0
 44 45  1  0
 45 48  1  0
 45 47  1  0
 46 44  2  0
 49 50  1  0
 49 24  1  0
 51 49  1  0
 52 53  1  0
 52  2  1  0
 54 65  2  0
 55 53  1  0
 55 60  1  0
 56 64  1  0
 56 66  1  0
 57 63  1  0
 57 59  1  0
 58 64  1  0
 59 58  1  0
 60 59  2  0
 61 62  1  0
 61 55  2  0
 62 57  2  0
 63 56  1  0
 64 54  1  0
 66 68  2  0
 67 66  1  0
 69 67  1  0
 70 79  2  0
 70 75  1  0
 71 67  1  0
 71 75  1  0
 72 71  1  0
 73 74  1  0
 73 72  1  0
 74 70  1  0
 75 76  2  0
 76 77  1  0
 78 77  2  0
 79 78  1  0
 80 54  1  0
 80 81  1  0
 80 90  1  0
 81 84  1  0
 82 86  1  0
 82 81  1  0
 83 82  2  0
 86 85  1  0
 88 86  1  0
 88 89  1  0
 88 87  1  0
 90 93  1  1
 90 91  1  0
 92 90  1  0
M  ISO  4  14 100  22 100  52 101  53 101
M  END
>  <TORSDO>  (50) 
F 18

>  <SCORE>  (50) 
-14.792

>  <name>  (50) 
49

>  <ligand_id>  (50) 
49

>  <original_smiles>  (50) 
[H]c1c([H])c([H])c2c(c1[H])C([H])([H])C([H])([H])C([H])([H])C2([H])N([H])C(=O)C1([H])N(C(=O)C([H])(N([H])C(=O)C([H])(N([H])C([H])([H])[H])C([H])([H])[H])C(C([H])([H])[H])(C([H])([H])[H])C([H])([H])[H])C([H])([H])c2c([H])c(OC([H])([H])C(=O)N([H])C(=O)c3c([H])c([H])c(N([H])C(=O)N4C([H])([H])C([H])([H])C([H])([H])C([H])(n5nc(-c6c([H])c([H])c(Oc7c([H])c([H])c(F)c([H])c7F)c([H])c6[H])c(C(=O)N([H])[H])c5N([H])[H])C4([H])[H])c([H])c3F)c([H])c([H])c2C1([H])[H]

>  <smiles>  (50) 
[H]c1c([H])c([H])c2c(c1[H])C([H])([H])C([H])([H])C([H])([H])C2([H])N([H])C(=O)C1([H])N(C(=O)C([H])(N([H])C(=O)C([H])(N([H])C([H])([H])[H])C([H])([H])[H])C(C([H])([H])[H])(C([H])([H])[H])C([H])([H])[H])C([H])([H])c2c([H])c(OC([H])([H])C(=O)N([H])C(=O)c3c([H])c([H])c(N([H])C(=O)N4C([H])([H])C([H])([H])C([H])([H])C([H])(n5nc(-c6c([H])c([H])c(Oc7c([H])c([H])c(F)c([H])c7F)c([H])c6[H])c(C(=O)N([H])[H])c5N([H])[H])C4([H])[H])c([H])c3F)c([H])c([H])c2C1([H])[H]

$$$$
50:0:0
     RDKit          3D

 97106  0  0  1  0  0  0  0  0999 V2000
  -29.3620  -25.0390   21.3850 C   0  0  0  0  0  0  0  0  0  0  0  0
  -29.9510  -24.4650   20.2060 C   0  0  0  0  0  0  0  0  0  0  0  0
  -28.6380  -26.1650   21.3360 C   0  0  0  0  0  3  0  0  0  0  0  0
  -30.2720  -22.1250   19.4540 C   0  0  0  0  0  3  0  0  0  0  0  0
  -29.4390  -24.0880   22.5380 C   0  0  0  0  0  2  0  0  0  0  0  0
  -29.6400  -22.7450   21.8240 C   0  0  0  0  0  2  0  0  0  0  0  0
  -30.0150  -23.0510   20.4160 N   0  0  0  0  0  0  0  0  0  0  0  0
  -30.6740  -22.4610   18.2220 N   0  0  0  0  0  0  0  0  0  0  0  0
  -30.3000  -25.0250   19.1580 O   0  0  0  0  0  0  0  0  0  0  0  0
  -30.9680  -21.7500   17.5700 H   0  0  0  0  0  0  0  0  0  0  0  0
  -30.7860  -23.4410   17.9890 H   0  0  0  0  0  0  0  0  0  0  0  0
  -30.7910  -20.0200   20.6990 C   0  0  0  0  0  3  0  0  0  0  0  0
  -30.6570  -18.6290   20.8240 C   0  0  0  0  0  3  0  0  0  0  0  0
  -29.2160  -19.9910   18.8280 C   0  0  0  0  0  3  0  0  0  0  0  0
  -30.0810  -20.7010   19.6900 C   0  0  0  0  0  0  0  0  0  0  0  0
  -29.8620  -17.9160   19.9060 C   0  0  0  0  0  0  0  0  0  0  0  0
  -29.1130  -18.5960   18.9270 C   0  0  0  0  0  0  0  0  0  0  0  0
  -28.3580  -17.9130   18.0300 F   0  0  0  0  0  0  0  0  0  0  0  0
  -30.0300  -16.4810   19.8200 C   0  0  0  0  0  2  0  0  0  0  0  0
  -30.1210  -15.6010   20.8340 C   0  0  0  0  0  2  0  0  0  0  0  0
  -30.7700  -14.3690   20.4610 C   0  0  0  0  0  0  0  0  0  0  0  0
  -30.3350  -12.2640   19.3280 C   0  0  0  0  0  2  0  0  0  0  0  0
  -29.4270  -12.5580   18.1190 C   0  0  0  0  0  2  0  0  0  0  0  0
  -27.9510  -12.4440   18.5390 C   0  0  0  0  0  2  0  0  0  0  0  0
  -27.6230  -13.2700   19.8130 C   0  0  0  0  0  3  0  0  0  0  0  0
  -28.6720  -13.0440   20.9290 C   0  0  0  0  0  2  0  0  0  0  0  0
  -30.0110  -13.2530   20.3640 N   0  0  0  0  0  0  0  0  0  0  0  0
  -31.9200  -14.4360   20.0250 O   0  0  0  0  0  0  0  0  0  0  0  0
  -25.2210  -13.8770   20.5000 C   0  0  0  0  0  0  0  0  0  0  0  0
  -24.1490  -13.1060   20.8660 C   0  0  0  0  0  0  0  0  0  0  0  0
  -24.6110  -11.7550   20.8510 C   0  0  0  0  0  0  0  0  0  0  0  0
  -26.2680  -12.9960   20.2850 N   0  0  0  0  0  0  0  0  0  0  0  0
  -25.9040  -11.7160   20.5540 N   0  0  0  0  0  0  0  0  0  0  0  0
  -23.8840  -10.4930   21.0460 C   0  0  0  0  0  0  0  0  0  0  0  0
  -24.3200   -9.5260   21.9780 C   0  0  0  0  0  3  0  0  0  0  0  0
  -23.5900   -8.3300   22.1620 C   0  0  0  0  0  3  0  0  0  0  0  0
  -22.4120   -8.0950   21.4130 C   0  0  0  0  0  0  0  0  0  0  0  0
  -21.9940   -9.0530   20.4710 C   0  0  0  0  0  3  0  0  0  0  0  0
  -22.7250  -10.2390   20.2860 C   0  0  0  0  0  3  0  0  0  0  0  0
  -21.6550   -6.9520   21.5060 O   0  0  0  0  0  0  0  0  0  0  0  0
  -21.6240   -6.2000   22.6530 C   0  0  0  0  0  0  0  0  0  0  0  0
  -21.2380   -6.7510   23.8950 C   0  0  0  0  0  3  0  0  0  0  0  0
  -21.1500   -5.9280   25.0350 C   0  0  0  0  0  3  0  0  0  0  0  0
  -21.4450   -4.5540   24.9350 C   0  0  0  0  0  0  0  0  0  0  0  0
  -21.8270   -4.0020   23.6990 C   0  0  0  0  0  3  0  0  0  0  0  0
  -21.9120   -4.8240   22.5590 C   0  0  0  0  0  0  0  0  0  0  0  0
  -22.2590   -4.2840   21.3660 F   0  0  0  0  0  0  0  0  0  0  0  0
  -21.3560   -3.7590   26.0270 F   0  0  0  0  0  0  0  0  0  0  0  0
  -22.7490  -13.5840   21.1260 C   0  0  0  0  0  0  0  0  0  0  0  0
  -22.0180  -12.8970   21.9950 N   0  0  0  0  0  0  0  0  0  0  0  0
  -22.3130  -14.6050   20.5940 O   0  0  0  0  0  0  0  0  0  0  0  0
  -22.3780  -12.0680   22.4440 H   0  0  0  0  0  0  0  0  0  0  0  0
  -21.0810  -13.2060   22.2180 H   0  0  0  0  0  0  0  0  0  0  0  0
  -25.3880  -15.2450   20.3130 N   0  0  0  0  0  0  0  0  0  0  0  0
  -24.6240  -15.9070   20.3960 H   0  0  0  0  0  0  0  0  0  0  0  0
  -26.2530  -15.6720   20.0030 H   0  0  0  0  0  0  0  0  0  0  0  0
  -28.3920  -26.8170   20.1570 O   0  0  0  0  0  0  0  0  0  0  0  0
  -24.5870  -31.8880   23.2190 C   0  0  0  0  0  0  0  0  0  0  0  0
  -27.2290  -27.5220   20.1330 C   0  0  0  0  0  0  0  0  0  0  0  0
  -23.3680  -30.4820   21.5820 C   0  0  0  0  0  3  0  0  0  0  0  0
  -24.8190  -28.9550   20.1470 C   0  0  0  0  0  0  0  0  0  0  0  0
  -25.8750  -30.8800   21.3470 C   0  0  0  0  0  2  0  0  0  0  0  0
  -25.9690  -29.5070   20.7250 C   0  0  0  0  0  0  0  0  0  0  0  0
  -27.1780  -28.7960   20.7200 C   0  0  0  0  0  3  0  0  0  0  0  0
  -26.0750  -26.9600   19.5490 C   0  0  0  0  0  3  0  0  0  0  0  0
  -24.8640  -27.6770   19.5550 C   0  0  0  0  0  3  0  0  0  0  0  0
  -23.5670  -29.7990   20.2010 C   0  0  0  0  0  2  0  0  0  0  0  0
  -24.6300  -31.0960   22.1110 N   0  0  0  0  0  0  0  0  0  0  0  0
  -23.5120  -32.1510   23.7750 O   0  0  0  0  0  0  0  0  0  0  0  0
  -22.7300  -29.4590   22.5490 C   0  0  0  0  0  0  0  0  0  0  0  0
  -21.4060  -29.2750   22.4330 N   0  0  0  0  0  0  0  0  0  0  0  0
  -23.4230  -28.8340   23.3560 O   0  0  0  0  0  0  0  0  0  0  0  0
  -20.9080  -29.8310   21.7510 H   0  0  0  0  0  0  0  0  0  0  0  0
  -18.0400  -28.0760   22.9480 C   0  0  0  0  0  0  0  0  0  0  0  0
  -20.5980  -28.3370   23.2100 C   0  0  0  0  0  3  0  0  0  0  0  0
  -20.7020  -26.9050   22.6370 C   0  0  0  0  0  2  0  0  0  0  0  0
  -19.5970  -26.5810   21.6260 C   0  0  0  0  0  2  0  0  0  0  0  0
  -18.2160  -26.7260   22.2710 C   0  0  0  0  0  2  0  0  0  0  0  0
  -19.1600  -28.8390   23.3730 C   0  0  0  0  0  0  0  0  0  0  0  0
  -18.9440  -30.1030   23.9640 C   0  0  0  0  0  3  0  0  0  0  0  0
  -17.6400  -30.6050   24.1330 C   0  0  0  0  0  3  0  0  0  0  0  0
  -16.5340  -29.8390   23.7240 C   0  0  0  0  0  3  0  0  0  0  0  0
  -16.7360  -28.5760   23.1390 C   0  0  0  0  0  3  0  0  0  0  0  0
  -25.8810  -32.5180   23.8290 C   0  0  0  0  0  3  0  0  0  0  0  0
  -25.5730  -33.9110   24.1740 N   0  0  0  0  0  0  0  0  0  0  0  0
  -25.8950  -34.9700   23.4170 C   0  0  0  0  0  0  0  0  0  0  0  0
  -26.5560  -34.8740   22.3800 O   0  0  0  0  0  0  0  0  0  0  0  0
  -24.9890  -34.0600   24.9850 H   0  0  0  0  0  0  0  0  0  0  0  0
  -24.1580  -36.7560   23.0820 C   0  0  0  0  0  1  0  0  0  0  0  0
  -25.4050  -36.3530   23.8850 C   0  0  0  0  0  3  0  0  0  0  0  0
  -27.5430  -37.2370   24.7060 C   0  0  0  0  0  1  0  0  0  0  0  0
  -26.4330  -37.4110   23.7730 N   0  0  0  0  0  0  0  0  0  0  0  0
  -26.0240  -38.3280   23.9340 H   0  0  0  0  0  0  0  0  0  0  0  0
  -26.4200  -31.7320   25.0860 C   0  0  1  0  0  0  0  0  0  0  0  0
  -25.3440  -31.4740   26.1660 C   0  0  0  0  0  1  0  0  0  0  0  0
  -27.0000  -30.3640   24.6590 C   0  0  0  0  0  1  0  0  0  0  0  0
  -27.5810  -32.5160   25.7390 C   0  0  0  0  0  1  0  0  0  0  0  0
  1  5  1  0
  2  7  1  0
  2  1  1  0
  3  1  2  0
  4  8  1  0
  4 15  1  0
  4  7  1  0
  6  5  1  0
  7  6  1  0
  9  2  2  0
 10  8  1  0
 11  8  1  0
 12 13  1  0
 14 17  2  0
 14 15  1  0
 15 12  2  0
 16 13  2  0
 17 16  1  0
 18 17  1  0
 19 16  1  0
 19 20  1  0
 21 20  1  0
 22 27  1  0
 23 24  1  0
 23 22  1  0
 25 24  1  0
 25 32  1  0
 25 26  1  0
 27 21  1  0
 27 26  1  0
 28 21  2  0
 29 30  2  0
 30 49  1  0
 31 30  1  0
 31 34  1  0
 32 29  1  0
 32 33  1  0
 33 31  2  0
 34 35  1  0
 35 36  2  0
 37 40  1  0
 37 36  1  0
 38 37  2  0
 39 38  1  0
 39 34  2  0
 40 41  1  0
 41 42  1  0
 42 43  2  0
 44 43  1  0
 44 48  1  0
 45 44  2  0
 46 41  2  0
 46 45  1  0
 47 46  1  0
 49 50  1  0
 50 53  1  0
 50 52  1  0
 51 49  2  0
 54 55  1  0
 54 29  1  0
 56 54  1  0
 57  3  1  0
 58 69  2  0
 59 57  1  0
 59 64  1  0
 60 68  1  0
 60 70  1  0
 61 67  1  0
 61 63  1  0
 62 68  1  0
 63 62  1  0
 64 63  2  0
 65 66  1  0
 65 59  2  0
 66 61  2  0
 67 60  1  0
 68 58  1  0
 70 72  2  0
 71 70  1  0
 73 71  1  0
 74 83  2  0
 74 79  1  0
 75 71  1  0
 75 79  1  0
 76 75  1  0
 77 78  1  0
 77 76  1  0
 78 74  1  0
 79 80  2  0
 80 81  1  0
 82 81  2  0
 83 82  1  0
 84 58  1  0
 84 85  1  0
 84 94  1  0
 85 88  1  0
 86 90  1  0
 86 85  1  0
 87 86  2  0
 90 89  1  0
 92 90  1  0
 92 93  1  0
 92 91  1  0
 94 97  1  1
 94 95  1  0
 96 94  1  0
M  ISO  4   3 101  20 100  21 100  57 101
M  END
>  <TORSDO>  (51) 
F 18

>  <SCORE>  (51) 
-15.101

>  <name>  (51) 
50

>  <ligand_id>  (51) 
50

>  <original_smiles>  (51) 
[H]C(Oc1c([H])c([H])c2c(c1[H])C([H])([H])N(C(=O)C([H])(N([H])C(=O)C([H])(N([H])C([H])([H])[H])C([H])([H])[H])C(C([H])([H])[H])(C([H])([H])[H])C([H])([H])[H])C([H])(C(=O)N([H])C1([H])c3c([H])c([H])c([H])c([H])c3C([H])([H])C([H])([H])C1([H])[H])C2([H])[H])=C1C(=O)N(C(c2c([H])c([H])c(C([H])=C([H])C(=O)N3C([H])([H])C([H])([H])C([H])([H])C([H])(n4nc(-c5c([H])c([H])c(Oc6c([H])c([H])c(F)c([H])c6F)c([H])c5[H])c(C(=O)N([H])[H])c4N([H])[H])C3([H])[H])c(F)c2[H])=[N+]([H])[H])C([H])([H])C1([H])[H]

>  <smiles>  (51) 
[H]C(Oc1c([H])c([H])c2c(c1[H])C([H])([H])N(C(=O)C([H])(N([H])C(=O)C([H])(N([H])C([H])([H])[H])C([H])([H])[H])C(C([H])([H])[H])(C([H])([H])[H])C([H])([H])[H])C([H])(C(=O)N([H])C1([H])c3c([H])c([H])c([H])c([H])c3C([H])([H])C([H])([H])C1([H])[H])C2([H])[H])=C1C(=O)N(C(c2c([H])c([H])c(C([H])=C([H])C(=O)N3C([H])([H])C([H])([H])C([H])([H])C([H])(n4nc(-c5c([H])c([H])c(Oc6c([H])c([H])c(F)c([H])c6F)c([H])c5[H])c(C(=O)N([H])[H])c4N([H])[H])C3([H])[H])c(F)c2[H])=[N+]([H])[H])C([H])([H])C1([H])[H]

$$$$
51:0:0
     RDKit          3D

 93101  0  0  1  0  0  0  0  0999 V2000
  -29.5920  -23.0190   20.1390 C   0  0  0  0  0  0  0  0  0  0  0  0
  -29.8700  -22.0360   21.0310 N   0  0  0  0  0  0  0  0  0  0  0  0
  -29.5200  -22.8080   18.9250 O   0  0  0  0  0  0  0  0  0  0  0  0
  -29.7900  -22.2960   22.0050 H   0  0  0  0  0  0  0  0  0  0  0  0
  -31.0360  -18.7610   19.7550 C   0  0  0  0  0  3  0  0  0  0  0  0
  -30.8070  -20.1730   19.6660 C   0  0  0  0  0  3  0  0  0  0  0  0
  -30.6260  -18.2100   20.9430 C   0  0  0  0  0  0  0  0  0  0  0  0
  -30.2190  -20.7310   20.7830 C   0  0  0  0  0  0  0  0  0  0  0  0
  -30.0100  -19.4740   22.0000 S   0  0  0  0  0  0  0  0  0  0  0  0
  -31.3100  -16.4070   22.4680 C   0  0  0  0  0  2  0  0  0  0  0  0
  -30.6630  -16.8060   21.3530 C   0  0  0  0  0  0  0  0  0  0  0  0
  -30.5460  -14.6730   20.1320 C   0  0  0  0  0  0  0  0  0  0  0  0
  -30.1610  -12.5290   18.9260 C   0  0  0  0  0  2  0  0  0  0  0  0
  -29.1450  -12.6720   17.7780 C   0  0  0  0  0  2  0  0  0  0  0  0
  -27.7070  -12.4520   18.2890 C   0  0  0  0  0  2  0  0  0  0  0  0
  -27.3990  -13.2700   19.5680 C   0  0  0  0  0  3  0  0  0  0  0  0
  -28.5390  -13.1550   20.6150 C   0  0  0  0  0  2  0  0  0  0  0  0
  -29.8050  -13.5260   19.9550 N   0  0  0  0  0  0  0  0  0  0  0  0
  -31.7150  -14.7150   19.7460 O   0  0  0  0  0  0  0  0  0  0  0  0
  -28.7600  -16.2230   20.0260 C   0  0  0  0  0  3  0  0  0  0  0  0
  -29.9560  -15.8520   20.5440 N   0  0  0  0  0  0  0  0  0  0  0  0
  -27.9400  -16.9700   20.5700 O   0  0  0  0  0  0  0  0  0  0  0  0
  -25.0500  -13.8500   20.4200 C   0  0  0  0  0  0  0  0  0  0  0  0
  -24.0140  -13.0590   20.8360 C   0  0  0  0  0  0  0  0  0  0  0  0
  -24.4980  -11.7160   20.7710 C   0  0  0  0  0  0  0  0  0  0  0  0
  -26.0930  -12.9800   20.1320 N   0  0  0  0  0  0  0  0  0  0  0  0
  -25.7720  -11.6950   20.4070 N   0  0  0  0  0  0  0  0  0  0  0  0
  -23.8080  -10.4400   20.9730 C   0  0  0  0  0  0  0  0  0  0  0  0
  -24.2870   -9.4840   21.8940 C   0  0  0  0  0  3  0  0  0  0  0  0
  -23.5960   -8.2690   22.0830 C   0  0  0  0  0  3  0  0  0  0  0  0
  -22.4140   -8.0030   21.3510 C   0  0  0  0  0  0  0  0  0  0  0  0
  -21.9560   -8.9480   20.4160 C   0  0  0  0  0  3  0  0  0  0  0  0
  -22.6480  -10.1570   20.2250 C   0  0  0  0  0  3  0  0  0  0  0  0
  -21.6910   -6.8400   21.4540 O   0  0  0  0  0  0  0  0  0  0  0  0
  -21.6700   -6.1070   22.6130 C   0  0  0  0  0  0  0  0  0  0  0  0
  -21.2310   -6.6570   23.8360 C   0  0  0  0  0  3  0  0  0  0  0  0
  -21.1650   -5.8490   24.9890 C   0  0  0  0  0  3  0  0  0  0  0  0
  -21.5240   -4.4890   24.9160 C   0  0  0  0  0  0  0  0  0  0  0  0
  -21.9520   -3.9370   23.6960 C   0  0  0  0  0  3  0  0  0  0  0  0
  -22.0230   -4.7440   22.5470 C   0  0  0  0  0  0  0  0  0  0  0  0
  -22.4190   -4.2040   21.3690 F   0  0  0  0  0  0  0  0  0  0  0  0
  -21.4510   -3.7070   26.0180 F   0  0  0  0  0  0  0  0  0  0  0  0
  -22.6230  -13.5070   21.1770 C   0  0  0  0  0  0  0  0  0  0  0  0
  -21.9500  -12.7850   22.0660 N   0  0  0  0  0  0  0  0  0  0  0  0
  -22.1430  -14.5290   20.6880 O   0  0  0  0  0  0  0  0  0  0  0  0
  -22.3580  -11.9630   22.4850 H   0  0  0  0  0  0  0  0  0  0  0  0
  -21.0130  -13.0560   22.3310 H   0  0  0  0  0  0  0  0  0  0  0  0
  -25.1770  -15.2240   20.2410 N   0  0  0  0  0  0  0  0  0  0  0  0
  -24.3940  -15.8540   20.3840 H   0  0  0  0  0  0  0  0  0  0  0  0
  -26.0130  -15.7090   19.9400 H   0  0  0  0  0  0  0  0  0  0  0  0
  -29.3570  -24.4580   20.6740 C   0  0  0  0  0  2  0  0  0  0  0  0
  -28.4320  -25.3590   19.7940 C   0  0  0  0  0  2  0  0  0  0  0  0
  -28.4080  -26.7440   20.2250 O   0  0  0  0  0  0  0  0  0  0  0  0
  -24.6070  -31.9340   23.2950 C   0  0  0  0  0  0  0  0  0  0  0  0
  -27.2300  -27.4810   20.1740 C   0  0  0  0  0  0  0  0  0  0  0  0
  -23.3950  -30.5520   21.6420 C   0  0  0  0  0  3  0  0  0  0  0  0
  -24.8400  -29.0210   20.1980 C   0  0  0  0  0  0  0  0  0  0  0  0
  -25.9250  -30.8910   21.4510 C   0  0  0  0  0  2  0  0  0  0  0  0
  -26.0020  -29.5250   20.7940 C   0  0  0  0  0  0  0  0  0  0  0  0
  -27.1940  -28.7610   20.7820 C   0  0  0  0  0  3  0  0  0  0  0  0
  -26.0500  -27.0130   19.5460 C   0  0  0  0  0  3  0  0  0  0  0  0
  -24.8610  -27.7660   19.5690 C   0  0  0  0  0  3  0  0  0  0  0  0
  -23.6010  -29.8870   20.2550 C   0  0  0  0  0  2  0  0  0  0  0  0
  -24.6610  -31.1420   22.1870 N   0  0  0  0  0  0  0  0  0  0  0  0
  -23.5280  -32.2060   23.8390 O   0  0  0  0  0  0  0  0  0  0  0  0
  -22.7390  -29.5250   22.5950 C   0  0  0  0  0  0  0  0  0  0  0  0
  -21.4180  -29.3330   22.4530 N   0  0  0  0  0  0  0  0  0  0  0  0
  -23.4190  -28.9030   23.4150 O   0  0  0  0  0  0  0  0  0  0  0  0
  -20.9290  -29.8940   21.7680 H   0  0  0  0  0  0  0  0  0  0  0  0
  -18.0500  -28.0980   22.9010 C   0  0  0  0  0  0  0  0  0  0  0  0
  -20.5990  -28.3880   23.2130 C   0  0  0  0  0  3  0  0  0  0  0  0
  -20.7250  -26.9560   22.6440 C   0  0  0  0  0  2  0  0  0  0  0  0
  -19.6450  -26.6170   21.6120 C   0  0  0  0  0  2  0  0  0  0  0  0
  -18.2520  -26.7480   22.2350 C   0  0  0  0  0  2  0  0  0  0  0  0
  -19.1520  -28.8750   23.3460 C   0  0  0  0  0  0  0  0  0  0  0  0
  -18.9100  -30.1390   23.9260 C   0  0  0  0  0  3  0  0  0  0  0  0
  -17.5970  -30.6260   24.0700 C   0  0  0  0  0  3  0  0  0  0  0  0
  -16.5080  -29.8470   23.6400 C   0  0  0  0  0  3  0  0  0  0  0  0
  -16.7350  -28.5860   23.0610 C   0  0  0  0  0  3  0  0  0  0  0  0
  -25.8970  -32.5550   23.9170 C   0  0  0  0  0  3  0  0  0  0  0  0
  -26.4010  -31.7830   25.1980 C   0  0  1  0  0  0  0  0  0  0  0  0
  -25.3040  -31.5630   26.2660 C   0  0  0  0  0  1  0  0  0  0  0  0
  -26.9710  -30.3970   24.8150 C   0  0  0  0  0  1  0  0  0  0  0  0
  -27.5540  -32.5720   25.8640 C   0  0  0  0  0  1  0  0  0  0  0  0
  -25.5990  -33.9580   24.2390 N   0  0  0  0  0  0  0  0  0  0  0  0
  -25.9220  -35.0020   23.4650 C   0  0  0  0  0  0  0  0  0  0  0  0
  -26.5760  -34.8860   22.4260 O   0  0  0  0  0  0  0  0  0  0  0  0
  -25.0170  -34.1220   25.0470 H   0  0  0  0  0  0  0  0  0  0  0  0
  -24.1850  -36.7930   23.1350 C   0  0  0  0  0  1  0  0  0  0  0  0
  -25.4480  -36.3970   23.9180 C   0  0  0  0  0  3  0  0  0  0  0  0
  -27.6040  -37.2960   24.6770 C   0  0  0  0  0  1  0  0  0  0  0  0
  -26.4750  -37.4490   23.7610 N   0  0  0  0  0  0  0  0  0  0  0  0
  -26.0720  -38.3710   23.9050 H   0  0  0  0  0  0  0  0  0  0  0  0
  1 51  1  0
  1  2  1  0
  2  4  1  0
  3  1  2  0
  5  7  2  0
  6  5  1  0
  6  8  2  0
  7 11  1  0
  7  9  1  0
  8  2  1  0
  8  9  1  0
 11 10  2  0
 12 21  1  0
 13 18  1  0
 14 15  1  0
 14 13  1  0
 16 15  1  0
 16 26  1  0
 16 17  1  0
 18 12  1  0
 18 17  1  0
 19 12  2  0
 20 21  1  0
 20 22  2  0
 21 11  1  0
 23 24  2  0
 24 43  1  0
 25 24  1  0
 25 28  1  0
 26 27  1  0
 26 23  1  0
 27 25  2  0
 28 29  1  0
 29 30  2  0
 31 34  1  0
 31 30  1  0
 32 31  2  0
 33 32  1  0
 33 28  2  0
 34 35  1  0
 35 36  1  0
 36 37  2  0
 38 37  1  0
 38 42  1  0
 39 38  2  0
 40 35  2  0
 40 39  1  0
 41 40  1  0
 43 44  1  0
 44 47  1  0
 44 46  1  0
 45 43  2  0
 48 49  1  0
 48 23  1  0
 50 48  1  0
 52 53  1  0
 52 51  1  0
 54 65  2  0
 55 53  1  0
 55 60  1  0
 56 64  1  0
 56 66  1  0
 57 63  1  0
 57 59  1  0
 58 64  1  0
 59 58  1  0
 60 59  2  0
 61 62  1  0
 61 55  2  0
 62 57  2  0
 63 56  1  0
 64 54  1  0
 66 68  2  0
 67 66  1  0
 69 67  1  0
 70 79  2  0
 70 75  1  0
 71 67  1  0
 71 75  1  0
 72 71  1  0
 73 74  1  0
 73 72  1  0
 74 70  1  0
 75 76  2  0
 76 77  1  0
 78 77  2  0
 79 78  1  0
 80 54  1  0
 80 85  1  0
 80 81  1  0
 81 84  1  1
 81 82  1  0
 83 81  1  0
 85 88  1  0
 86 90  1  0
 86 85  1  0
 87 86  2  0
 90 89  1  0
 92 93  1  0
 92 90  1  0
 92 91  1  0
M  ISO  4  12 100  21 100  52 101  53 101
M  END
>  <TORSDO>  (52) 
F 20

>  <SCORE>  (52) 
-12.905

>  <name>  (52) 
51

>  <ligand_id>  (52) 
51

>  <original_smiles>  (52) 
[H]C(=O)N(C(=O)N1C([H])([H])C([H])([H])C([H])([H])C([H])(n2nc(-c3c([H])c([H])c(Oc4c([H])c([H])c(F)c([H])c4F)c([H])c3[H])c(C(=O)N([H])[H])c2N([H])[H])C1([H])[H])C(=C([H])[H])c1sc(N([H])C(=O)C([H])([H])C([H])([H])Oc2c([H])c([H])c3c(c2[H])C([H])([H])N(C(=O)C([H])(N([H])C(=O)C([H])(N([H])C([H])([H])[H])C([H])([H])[H])C(C([H])([H])[H])(C([H])([H])[H])C([H])([H])[H])C([H])(C(=O)N([H])C2([H])c4c([H])c([H])c([H])c([H])c4C([H])([H])C([H])([H])C2([H])[H])C3([H])[H])c([H])c1[H]

>  <smiles>  (52) 
[H]C(=O)N(C(=O)N1C([H])([H])C([H])([H])C([H])([H])C([H])(n2nc(-c3c([H])c([H])c(Oc4c([H])c([H])c(F)c([H])c4F)c([H])c3[H])c(C(=O)N([H])[H])c2N([H])[H])C1([H])[H])C(=C([H])[H])c1sc(N([H])C(=O)C([H])([H])C([H])([H])Oc2c([H])c([H])c3c(c2[H])C([H])([H])N(C(=O)C([H])(N([H])C(=O)C([H])(N([H])C([H])([H])[H])C([H])([H])[H])C(C([H])([H])[H])(C([H])([H])[H])C([H])([H])[H])C([H])(C(=O)N([H])C2([H])c4c([H])c([H])c([H])c([H])c4C([H])([H])C([H])([H])C2([H])[H])C3([H])[H])c([H])c1[H]

$$$$
52:0:0
     RDKit          3D

 94102  0  0  1  0  0  0  0  0999 V2000
  -28.6550  -23.2860   20.5570 C   0  0  0  0  0  0  0  0  0  0  0  0
  -29.3000  -22.1430   20.9730 N   0  0  0  0  0  0  0  0  0  0  0  0
  -27.9940  -23.3300   19.5170 O   0  0  0  0  0  0  0  0  0  0  0  0
  -30.0010  -22.3260   21.6770 H   0  0  0  0  0  0  0  0  0  0  0  0
  -30.0910  -19.7090   21.0440 C   0  0  0  0  0  3  0  0  0  0  0  0
  -28.0940  -20.1890   19.9340 C   0  0  0  0  0  3  0  0  0  0  0  0
  -29.1500  -20.7320   20.6240 C   0  0  0  0  0  0  0  0  0  0  0  0
  -29.7630  -18.4070   20.6680 C   0  0  0  0  0  0  0  0  0  0  0  0
  -28.2490  -18.4340   19.7850 S   0  0  0  0  0  0  0  0  0  0  0  0
  -30.7060  -14.6800   20.4120 C   0  0  0  0  0  0  0  0  0  0  0  0
  -30.4120  -12.4510   19.3520 C   0  0  0  0  0  2  0  0  0  0  0  0
  -29.4800  -12.5540   18.1280 C   0  0  0  0  0  2  0  0  0  0  0  0
  -28.0100  -12.4010   18.5570 C   0  0  0  0  0  2  0  0  0  0  0  0
  -27.6410  -13.2840   19.7810 C   0  0  0  0  0  3  0  0  0  0  0  0
  -28.7000  -13.1920   20.9030 C   0  0  0  0  0  2  0  0  0  0  0  0
  -30.0020  -13.5080   20.3020 N   0  0  0  0  0  0  0  0  0  0  0  0
  -31.8980  -14.6910   20.0950 O   0  0  0  0  0  0  0  0  0  0  0  0
  -30.5590  -17.1090   20.8070 C   0  0  0  0  0  0  0  0  0  0  0  0
  -30.0150  -15.8540   20.6330 N   0  0  0  0  0  0  0  0  0  0  0  0
  -31.7450  -17.2670   21.1200 O   0  0  0  0  0  0  0  0  0  0  0  0
  -29.0120  -15.8030   20.5950 H   0  0  0  0  0  0  0  0  0  0  0  0
  -25.2450  -13.8670   20.4900 C   0  0  0  0  0  0  0  0  0  0  0  0
  -24.1800  -13.0900   20.8570 C   0  0  0  0  0  0  0  0  0  0  0  0
  -24.6490  -11.7400   20.8330 C   0  0  0  0  0  0  0  0  0  0  0  0
  -26.2950  -12.9920   20.2660 N   0  0  0  0  0  0  0  0  0  0  0  0
  -25.9430  -11.7080   20.5350 N   0  0  0  0  0  0  0  0  0  0  0  0
  -23.9250  -10.4750   21.0180 C   0  0  0  0  0  0  0  0  0  0  0  0
  -24.3430   -9.5150   21.9660 C   0  0  0  0  0  3  0  0  0  0  0  0
  -23.6160   -8.3180   22.1400 C   0  0  0  0  0  3  0  0  0  0  0  0
  -22.4590   -8.0710   21.3640 C   0  0  0  0  0  0  0  0  0  0  0  0
  -22.0600   -9.0190   20.4060 C   0  0  0  0  0  3  0  0  0  0  0  0
  -22.7880  -10.2080   20.2300 C   0  0  0  0  0  3  0  0  0  0  0  0
  -21.7060   -6.9230   21.4480 O   0  0  0  0  0  0  0  0  0  0  0  0
  -21.6290   -6.1950   22.6080 C   0  0  0  0  0  0  0  0  0  0  0  0
  -21.1400   -6.7570   23.8070 C   0  0  0  0  0  3  0  0  0  0  0  0
  -21.0120   -5.9550   24.9580 C   0  0  0  0  0  3  0  0  0  0  0  0
  -21.3610   -4.5930   24.9120 C   0  0  0  0  0  0  0  0  0  0  0  0
  -21.8410   -4.0300   23.7170 C   0  0  0  0  0  3  0  0  0  0  0  0
  -21.9710   -4.8280   22.5670 C   0  0  0  0  0  0  0  0  0  0  0  0
  -22.4160   -4.2760   21.4120 F   0  0  0  0  0  0  0  0  0  0  0  0
  -21.2290   -3.8190   26.0160 F   0  0  0  0  0  0  0  0  0  0  0  0
  -22.7790  -13.5620   21.1150 C   0  0  0  0  0  0  0  0  0  0  0  0
  -22.0420  -12.8630   21.9710 N   0  0  0  0  0  0  0  0  0  0  0  0
  -22.3450  -14.5860   20.5910 O   0  0  0  0  0  0  0  0  0  0  0  0
  -22.4060  -12.0350   22.4190 H   0  0  0  0  0  0  0  0  0  0  0  0
  -21.0960  -13.1560   22.1750 H   0  0  0  0  0  0  0  0  0  0  0  0
  -25.4030  -15.2380   20.3070 N   0  0  0  0  0  0  0  0  0  0  0  0
  -24.6260  -15.8830   20.3980 H   0  0  0  0  0  0  0  0  0  0  0  0
  -26.2380  -15.6780   19.9410 H   0  0  0  0  0  0  0  0  0  0  0  0
  -28.6470  -25.7780   21.2910 C   0  0  0  0  0  3  0  0  0  0  0  0
  -28.8230  -24.4270   21.5040 C   0  0  0  0  0  0  0  0  0  0  0  0
  -29.1390  -24.0890   22.7650 O   0  0  0  0  0  0  0  0  0  0  0  0
  -28.9490  -23.1620   22.8570 H   0  0  0  0  0  0  0  0  0  0  0  0
  -28.3590  -26.5110   20.1470 O   0  0  0  0  0  0  0  0  0  0  0  0
  -24.6070  -31.8840   23.2290 C   0  0  0  0  0  0  0  0  0  0  0  0
  -27.2690  -27.3760   20.1800 C   0  0  0  0  0  0  0  0  0  0  0  0
  -23.4240  -30.4840   21.5730 C   0  0  0  0  0  3  0  0  0  0  0  0
  -24.8940  -28.9470   20.1580 C   0  0  0  0  0  0  0  0  0  0  0  0
  -25.9600  -30.8230   21.4120 C   0  0  0  0  0  2  0  0  0  0  0  0
  -26.0530  -29.4460   20.7710 C   0  0  0  0  0  0  0  0  0  0  0  0
  -27.2460  -28.6670   20.7850 C   0  0  0  0  0  3  0  0  0  0  0  0
  -26.0970  -26.9210   19.5470 C   0  0  0  0  0  3  0  0  0  0  0  0
  -24.9140  -27.6850   19.5430 C   0  0  0  0  0  3  0  0  0  0  0  0
  -23.6520  -29.8140   20.1930 C   0  0  0  0  0  2  0  0  0  0  0  0
  -24.6820  -31.0810   22.1290 N   0  0  0  0  0  0  0  0  0  0  0  0
  -23.5180  -32.1540   23.7560 O   0  0  0  0  0  0  0  0  0  0  0  0
  -22.7610  -29.4590   22.5240 C   0  0  0  0  0  0  0  0  0  0  0  0
  -21.4350  -29.2810   22.3900 N   0  0  0  0  0  0  0  0  0  0  0  0
  -23.4380  -28.8260   23.3380 O   0  0  0  0  0  0  0  0  0  0  0  0
  -20.9500  -29.8430   21.7040 H   0  0  0  0  0  0  0  0  0  0  0  0
  -18.0520  -28.1120   22.8950 C   0  0  0  0  0  0  0  0  0  0  0  0
  -20.6140  -28.3410   23.1510 C   0  0  0  0  0  3  0  0  0  0  0  0
  -20.6980  -26.9180   22.5530 C   0  0  0  0  0  2  0  0  0  0  0  0
  -19.5860  -26.6230   21.5420 C   0  0  0  0  0  2  0  0  0  0  0  0
  -18.2100  -26.7720   22.1970 C   0  0  0  0  0  2  0  0  0  0  0  0
  -19.1820  -28.8560   23.3290 C   0  0  0  0  0  0  0  0  0  0  0  0
  -18.9810  -30.1120   23.9430 C   0  0  0  0  0  3  0  0  0  0  0  0
  -17.6820  -30.6240   24.1260 C   0  0  0  0  0  3  0  0  0  0  0  0
  -16.5670  -29.8770   23.7080 C   0  0  0  0  0  3  0  0  0  0  0  0
  -16.7530  -28.6230   23.0980 C   0  0  0  0  0  3  0  0  0  0  0  0
  -25.8830  -32.5190   23.8630 C   0  0  0  0  0  3  0  0  0  0  0  0
  -26.3850  -31.7540   25.1490 C   0  0  1  0  0  0  0  0  0  0  0  0
  -25.2770  -31.5190   26.2030 C   0  0  0  0  0  1  0  0  0  0  0  0
  -26.9750  -30.3760   24.7710 C   0  0  0  0  0  1  0  0  0  0  0  0
  -27.5250  -32.5520   25.8230 C   0  0  0  0  0  1  0  0  0  0  0  0
  -25.5690  -33.9190   24.1810 N   0  0  0  0  0  0  0  0  0  0  0  0
  -25.9150  -34.9680   23.4250 C   0  0  0  0  0  0  0  0  0  0  0  0
  -26.6020  -34.8590   22.4050 O   0  0  0  0  0  0  0  0  0  0  0  0
  -24.9590  -34.0780   24.9710 H   0  0  0  0  0  0  0  0  0  0  0  0
  -24.2020  -36.7650   23.0270 C   0  0  0  0  0  1  0  0  0  0  0  0
  -25.4230  -36.3590   23.8690 C   0  0  0  0  0  3  0  0  0  0  0  0
  -27.5360  -37.2410   24.7540 C   0  0  0  0  0  1  0  0  0  0  0  0
  -26.4610  -37.4070   23.7780 N   0  0  0  0  0  0  0  0  0  0  0  0
  -26.0550  -38.3300   23.9070 H   0  0  0  0  0  0  0  0  0  0  0  0
  1  2  1  0
  1 51  1  0
  2  4  1  0
  3  1  2  0
  6  7  2  0
  7  2  1  0
  7  5  1  0
  8 18  1  0
  8  5  2  0
  9  6  1  0
  9  8  1  0
 10 19  1  0
 11 16  1  0
 12 13  1  0
 12 11  1  0
 14 13  1  0
 14 25  1  0
 14 15  1  0
 16 10  1  0
 16 15  1  0
 17 10  2  0
 18 20  2  0
 19 18  1  0
 21 19  1  0
 22 23  2  0
 23 42  1  0
 24 23  1  0
 24 27  1  0
 25 22  1  0
 25 26  1  0
 26 24  2  0
 27 28  1  0
 28 29  2  0
 30 33  1  0
 30 29  1  0
 31 30  2  0
 32 31  1  0
 32 27  2  0
 33 34  1  0
 34 35  1  0
 35 36  2  0
 37 36  1  0
 37 41  1  0
 38 37  2  0
 39 34  2  0
 39 38  1  0
 40 39  1  0
 42 43  1  0
 43 46  1  0
 43 45  1  0
 44 42  2  0
 47 48  1  0
 47 22  1  0
 49 47  1  0
 50 51  2  0
 51 52  1  0
 52 53  1  0
 54 56  1  0
 54 50  1  0
 55 66  2  0
 56 61  1  0
 57 65  1  0
 57 67  1  0
 58 64  1  0
 58 60  1  0
 59 65  1  0
 60 61  2  0
 60 59  1  0
 62 56  2  0
 63 62  1  0
 63 58  2  0
 64 57  1  0
 65 55  1  0
 67 69  2  0
 68 67  1  0
 70 68  1  0
 71 80  2  0
 71 76  1  0
 72 68  1  0
 72 76  1  0
 73 72  1  0
 74 75  1  0
 74 73  1  0
 75 71  1  0
 76 77  2  0
 77 78  1  0
 79 78  2  0
 80 79  1  0
 81 55  1  0
 81 86  1  0
 81 82  1  0
 82 85  1  1
 82 83  1  0
 84 82  1  0
 86 89  1  0
 87 91  1  0
 87 86  1  0
 88 87  2  0
 91 90  1  0
 93 91  1  0
 93 94  1  0
 93 92  1  0
M  ISO  4  10 100  19 100  50 101  54 101
M  END
>  <TORSDO>  (53) 
F 19

>  <SCORE>  (53) 
-14.851

>  <name>  (53) 
52

>  <ligand_id>  (53) 
52

>  <original_smiles>  (53) 
[H]OC(C(=O)N([H])c1c([H])sc(C(=O)N([H])C(=O)N2C([H])([H])C([H])([H])C([H])([H])C([H])(n3nc(-c4c([H])c([H])c(Oc5c([H])c([H])c(F)c([H])c5F)c([H])c4[H])c(C(=O)N([H])[H])c3N([H])[H])C2([H])[H])c1[H])=C([H])Oc1c([H])c([H])c2c(c1[H])C([H])([H])N(C(=O)C([H])(N([H])C(=O)C([H])(N([H])C([H])([H])[H])C([H])([H])[H])C(C([H])([H])[H])(C([H])([H])[H])C([H])([H])[H])C([H])(C(=O)N([H])C1([H])c3c([H])c([H])c([H])c([H])c3C([H])([H])C([H])([H])C1([H])[H])C2([H])[H]

>  <smiles>  (53) 
[H]OC(C(=O)N([H])c1c([H])sc(C(=O)N([H])C(=O)N2C([H])([H])C([H])([H])C([H])([H])C([H])(n3nc(-c4c([H])c([H])c(Oc5c([H])c([H])c(F)c([H])c5F)c([H])c4[H])c(C(=O)N([H])[H])c3N([H])[H])C2([H])[H])c1[H])=C([H])Oc1c([H])c([H])c2c(c1[H])C([H])([H])N(C(=O)C([H])(N([H])C(=O)C([H])(N([H])C([H])([H])[H])C([H])([H])[H])C(C([H])([H])[H])(C([H])([H])[H])C([H])([H])[H])C([H])(C(=O)N([H])C1([H])c3c([H])c([H])c([H])c([H])c3C([H])([H])C([H])([H])C1([H])[H])C2([H])[H]

$$$$
53:0:0
     RDKit          3D

 96101  0  0  1  0  0  0  0  0999 V2000
  -30.7550  -16.0840   19.5370 C   0  0  0  0  0  0  0  0  0  0  0  0
  -30.8270  -13.3870   18.9270 C   0  0  0  0  0  2  0  0  0  0  0  0
  -29.9160  -12.8140   17.7840 C   0  0  0  0  0  2  0  0  0  0  0  0
  -28.5230  -12.4460   18.3050 C   0  0  0  0  0  2  0  0  0  0  0  0
  -28.0450  -13.5200   19.3030 C   0  0  0  0  0  3  0  0  0  0  0  0
  -29.1040  -13.9800   20.3450 C   0  0  0  0  0  2  0  0  0  0  0  0
  -30.2340  -14.6580   19.6260 N   0  0  0  0  0  0  0  0  0  0  0  0
  -31.9320  -15.8920   19.1450 O   0  0  0  0  0  0  0  0  0  0  0  0
  -29.8480  -17.7380   21.0960 C   0  0  0  0  0  0  0  0  0  0  0  0
  -30.1570  -17.6120   19.7870 N   0  0  0  0  0  0  0  0  0  0  0  0
  -29.0000  -17.0590   21.6830 O   0  0  0  0  0  0  0  0  0  0  0  0
  -32.0230  -18.9290   21.6020 C   0  0  0  0  0  3  0  0  0  0  0  0
  -30.0560  -19.5310   22.9020 C   0  0  0  0  0  3  0  0  0  0  0  0
  -30.6450  -18.7650   21.8690 C   0  0  0  0  0  0  0  0  0  0  0  0
  -32.1950  -20.6740   23.3070 C   0  0  0  0  0  0  0  0  0  0  0  0
  -32.7910  -19.8750   22.3000 C   0  0  0  0  0  0  0  0  0  0  0  0
  -30.8250  -20.4790   23.6180 C   0  0  0  0  0  0  0  0  0  0  0  0
  -33.0050  -21.7410   24.0490 C   0  0  0  0  0  1  0  0  0  0  0  0
  -34.1410  -20.0030   21.9630 N   0  0  0  0  0  0  0  0  0  0  0  0
  -34.6010  -19.2790   21.4190 H   0  0  0  0  0  0  0  0  0  0  0  0
  -34.7720  -20.4910   22.5880 H   0  0  0  0  0  0  0  0  0  0  0  0
  -30.2230  -21.2230   24.6360 N   0  0  0  0  0  0  0  0  0  0  0  0
  -29.3730  -20.8770   25.0700 H   0  0  0  0  0  0  0  0  0  0  0  0
  -30.8340  -21.6800   25.3060 H   0  0  0  0  0  0  0  0  0  0  0  0
  -25.7680  -14.1270   20.2150 C   0  0  0  0  0  0  0  0  0  0  0  0
  -24.6940  -13.3970   20.6330 C   0  0  0  0  0  0  0  0  0  0  0  0
  -25.0950  -12.0280   20.5620 C   0  0  0  0  0  0  0  0  0  0  0  0
  -26.7520  -13.2150   19.9000 N   0  0  0  0  0  0  0  0  0  0  0  0
  -26.3650  -11.9380   20.1690 N   0  0  0  0  0  0  0  0  0  0  0  0
  -24.3110  -10.8030   20.7800 C   0  0  0  0  0  0  0  0  0  0  0  0
  -24.6980   -9.8270   21.7260 C   0  0  0  0  0  3  0  0  0  0  0  0
  -23.9070   -8.6770   21.9330 C   0  0  0  0  0  3  0  0  0  0  0  0
  -22.7130   -8.4920   21.1980 C   0  0  0  0  0  0  0  0  0  0  0  0
  -22.3450   -9.4530   20.2400 C   0  0  0  0  0  3  0  0  0  0  0  0
  -23.1380  -10.5930   20.0290 C   0  0  0  0  0  3  0  0  0  0  0  0
  -21.8960   -7.3950   21.3160 O   0  0  0  0  0  0  0  0  0  0  0  0
  -21.7930   -6.6950   22.4930 C   0  0  0  0  0  0  0  0  0  0  0  0
  -21.3530   -7.3060   23.6880 C   0  0  0  0  0  3  0  0  0  0  0  0
  -21.1910   -6.5350   24.8570 C   0  0  0  0  0  3  0  0  0  0  0  0
  -21.4630   -5.1540   24.8320 C   0  0  0  0  0  0  0  0  0  0  0  0
  -21.9010   -4.5430   23.6440 C   0  0  0  0  0  3  0  0  0  0  0  0
  -22.0610   -5.3110   22.4770 C   0  0  0  0  0  0  0  0  0  0  0  0
  -22.4600   -4.7120   21.3290 F   0  0  0  0  0  0  0  0  0  0  0  0
  -21.3050   -4.4120   25.9520 F   0  0  0  0  0  0  0  0  0  0  0  0
  -23.3420  -13.9440   20.9850 C   0  0  0  0  0  0  0  0  0  0  0  0
  -22.6370  -13.2980   21.9030 N   0  0  0  0  0  0  0  0  0  0  0  0
  -22.9290  -14.9880   20.4810 O   0  0  0  0  0  0  0  0  0  0  0  0
  -22.9880  -12.4530   22.3290 H   0  0  0  0  0  0  0  0  0  0  0  0
  -21.7330  -13.6520   22.1850 H   0  0  0  0  0  0  0  0  0  0  0  0
  -25.9830  -15.4930   20.0440 N   0  0  0  0  0  0  0  0  0  0  0  0
  -25.2550  -16.1790   20.2160 H   0  0  0  0  0  0  0  0  0  0  0  0
  -26.8500  -15.9050   19.7250 H   0  0  0  0  0  0  0  0  0  0  0  0
  -29.9830  -19.4140   19.1530 C   0  0  0  0  0  1  0  0  0  0  0  0
  -29.6050  -21.4310   19.6460 C   0  0  0  0  0 15  0  0  0  0  0  0
  -28.8500  -23.3200   19.0950 C   0  0  0  0  0 15  0  0  0  0  0  0
  -28.7250  -25.1860   19.4120 O   0  0  0  0  0  1  0  0  0  0  0  0
  -24.7960  -31.2990   22.7430 C   0  0  0  0  0  0  0  0  0  0  0  0
  -27.6890  -26.4390   19.4130 C   0  0  0  0  0  0  0  0  0  0  0  0
  -23.7180  -29.9220   21.0210 C   0  0  0  0  0  3  0  0  0  0  0  0
  -25.2840  -28.4430   19.5040 C   0  0  0  0  0  0  0  0  0  0  0  0
  -26.2930  -30.1980   20.9280 C   0  0  0  0  0  2  0  0  0  0  0  0
  -26.4580  -28.8010   20.1700 C   0  0  0  0  0  0  0  0  0  0  0  0
  -27.6270  -27.8330   20.0920 C   0  0  0  0  0  3  0  0  0  0  0  0
  -26.4560  -26.3590   18.6960 C   0  0  0  0  0  3  0  0  0  0  0  0
  -25.3310  -27.2560   18.7440 C   0  0  0  0  0  3  0  0  0  0  0  0
  -24.0130  -29.3190   19.6130 C   0  0  0  0  0  2  0  0  0  0  0  0
  -24.9600  -30.5100   21.6180 N   0  0  0  0  0  0  0  0  0  0  0  0
  -23.6790  -31.4930   23.2570 O   0  0  0  0  0  0  0  0  0  0  0  0
  -23.0560  -28.8490   21.9280 C   0  0  0  0  0  0  0  0  0  0  0  0
  -21.7310  -28.6240   21.8040 N   0  0  0  0  0  0  0  0  0  0  0  0
  -23.7510  -28.2140   22.7230 O   0  0  0  0  0  0  0  0  0  0  0  0
  -21.2070  -29.1950   21.1540 H   0  0  0  0  0  0  0  0  0  0  0  0
  -18.4400  -27.1370   22.2600 C   0  0  0  0  0  0  0  0  0  0  0  0
  -20.9790  -27.5780   22.5130 C   0  0  0  0  0  3  0  0  0  0  0  0
  -21.1700  -26.1960   21.8430 C   0  0  0  0  0  2  0  0  0  0  0  0
  -20.0840  -25.8690   20.8130 C   0  0  0  0  0  2  0  0  0  0  0  0
  -18.7050  -25.8620   21.4760 C   0  0  0  0  0  2  0  0  0  0  0  0
  -19.5060  -27.9520   22.7300 C   0  0  0  0  0  0  0  0  0  0  0  0
  -19.1970  -29.1390   23.4290 C   0  0  0  0  0  3  0  0  0  0  0  0
  -17.8590  -29.5220   23.6460 C   0  0  0  0  0  3  0  0  0  0  0  0
  -16.8100  -28.7080   23.1850 C   0  0  0  0  0  3  0  0  0  0  0  0
  -17.1020  -27.5130   22.5040 C   0  0  0  0  0  3  0  0  0  0  0  0
  -25.9950  -32.0110   23.4420 C   0  0  0  0  0  3  0  0  0  0  0  0
  -25.5420  -33.3340   23.9250 N   0  0  0  0  0  0  0  0  0  0  0  0
  -25.7910  -34.5080   23.3260 C   0  0  0  0  0  0  0  0  0  0  0  0
  -26.4760  -34.5940   22.3030 O   0  0  0  0  0  0  0  0  0  0  0  0
  -24.9280  -33.3330   24.7270 H   0  0  0  0  0  0  0  0  0  0  0  0
  -23.9130  -36.1870   23.2000 C   0  0  0  0  0  1  0  0  0  0  0  0
  -25.1930  -35.7880   23.9530 C   0  0  0  0  0  3  0  0  0  0  0  0
  -27.2520  -36.7500   24.8910 C   0  0  0  0  0  1  0  0  0  0  0  0
  -26.1330  -36.9330   23.9720 N   0  0  0  0  0  0  0  0  0  0  0  0
  -25.6520  -37.7910   24.2270 H   0  0  0  0  0  0  0  0  0  0  0  0
  -26.5850  -31.1850   24.6530 C   0  0  1  0  0  0  0  0  0  0  0  0
  -25.5270  -30.7690   25.7030 C   0  0  0  0  0  1  0  0  0  0  0  0
  -27.2750  -29.8950   24.1610 C   0  0  0  0  0  1  0  0  0  0  0  0
  -27.6760  -32.0150   25.3720 C   0  0  0  0  0  1  0  0  0  0  0  0
  1  7  1  0
  1 10  1  0
  2  7  1  0
  3  4  1  0
  3  2  1  0
  5  4  1  0
  5 28  1  0
  5  6  1  0
  7  6  1  0
  8  1  2  0
  9 11  2  0
  9 14  1  0
 10  9  1  0
 12 14  2  0
 12 16  1  0
 13 17  2  0
 14 13  1  0
 15 17  1  0
 15 18  1  0
 16 15  2  0
 17 22  1  0
 19 16  1  0
 19 21  1  0
 20 19  1  0
 22 23  1  0
 22 24  1  0
 25 26  2  0
 26 45  1  0
 27 26  1  0
 27 30  1  0
 28 29  1  0
 28 25  1  0
 29 27  2  0
 30 31  1  0
 31 32  2  0
 33 36  1  0
 33 32  1  0
 34 33  2  0
 35 34  1  0
 35 30  2  0
 36 37  1  0
 37 38  1  0
 38 39  2  0
 40 39  1  0
 40 44  1  0
 41 40  2  0
 42 37  2  0
 42 41  1  0
 43 42  1  0
 45 46  1  0
 46 49  1  0
 46 48  1  0
 47 45  2  0
 50 25  1  0
 50 51  1  0
 52 50  1  0
 53 10  1  0
 56 58  1  0
 57 68  2  0
 58 63  1  0
 59 67  1  0
 59 69  1  0
 60 66  1  0
 60 62  1  0
 61 67  1  0
 62 61  1  0
 63 62  2  0
 64 65  1  0
 64 58  2  0
 65 60  2  0
 66 59  1  0
 67 57  1  0
 69 71  2  0
 70 69  1  0
 72 70  1  0
 73 82  2  0
 73 78  1  0
 74 70  1  0
 74 78  1  0
 75 74  1  0
 76 77  1  0
 76 75  1  0
 77 73  1  0
 78 79  2  0
 79 80  1  0
 81 80  2  0
 82 81  1  0
 83 57  1  0
 83 84  1  0
 83 93  1  0
 84 87  1  0
 85 84  1  0
 85 89  1  0
 86 85  2  0
 89 88  1  0
 89 91  1  0
 91 92  1  0
 91 90  1  0
 93 96  1  1
 93 94  1  0
 95 93  1  0
M  ISO  4   1 100  10 100  55 101  56 101
M  END
>  <TORSDO>  (54) 
F 21

>  <SCORE>  (54) 
-11.667

>  <name>  (54) 
53

>  <ligand_id>  (54) 
53

>  <original_smiles>  (54) 
[H]c1c([H])c([H])c2c(c1[H])C([H])([H])C([H])([H])C([H])([H])C2([H])N([H])C(=O)C1([H])N(C(=O)C([H])(N([H])C(=O)C([H])(N([H])C([H])([H])[H])C([H])([H])[H])C(C([H])([H])[H])(C([H])([H])[H])C([H])([H])[H])C([H])([H])c2c([H])c(OC([H])([H])C([H])([H])C([H])([H])N(C(=O)c3c([H])c(N([H])[H])c(C([H])([H])[H])c(N([H])[H])c3[H])C(=O)N3C([H])([H])C([H])([H])C([H])([H])C([H])(n4nc(-c5c([H])c([H])c(Oc6c([H])c([H])c(F)c([H])c6F)c([H])c5[H])c(C(=O)N([H])[H])c4N([H])[H])C3([H])[H])c([H])c([H])c2C1([H])[H]

>  <smiles>  (54) 
[H]c1c([H])c([H])c2c(c1[H])C([H])([H])C([H])([H])C([H])([H])C2([H])N([H])C(=O)C1([H])N(C(=O)C([H])(N([H])C(=O)C([H])(N([H])C([H])([H])[H])C([H])([H])[H])C(C([H])([H])[H])(C([H])([H])[H])C([H])([H])[H])C([H])([H])c2c([H])c(OC([H])([H])C([H])([H])C([H])([H])N(C(=O)c3c([H])c(N([H])[H])c(C([H])([H])[H])c(N([H])[H])c3[H])C(=O)N3C([H])([H])C([H])([H])C([H])([H])C([H])(n4nc(-c5c([H])c([H])c(Oc6c([H])c([H])c(F)c([H])c6F)c([H])c5[H])c(C(=O)N([H])[H])c4N([H])[H])C3([H])[H])c([H])c([H])c2C1([H])[H]

$$$$
54:0:0
     RDKit          3D

 90 98  0  0  1  0  0  0  0  0999 V2000
  -29.2240  -22.1640   20.2200 C   0  0  0  0  0  0  0  0  0  0  0  0
  -29.0960  -20.7000   20.3600 N   0  0  0  0  0  0  0  0  0  0  0  0
  -30.3020  -22.6190   19.8300 O   0  0  0  0  0  0  0  0  0  0  0  0
  -28.1410  -20.3750   20.4250 H   0  0  0  0  0  0  0  0  0  0  0  0
  -31.2730  -20.1950   21.1900 C   0  0  0  0  0  3  0  0  0  0  0  0
  -31.7120  -17.7830   21.1700 C   0  0  0  0  0  3  0  0  0  0  0  0
  -30.1700  -19.5720   20.6360 C   0  0  0  0  0  0  0  0  0  0  0  0
  -30.4630  -17.9850   20.6130 C   0  0  0  0  0  0  0  0  0  0  0  0
  -32.5830  -19.1850   21.6500 S   0  0  0  0  0  0  0  0  0  0  0  0
  -30.5170  -15.2490   20.0870 C   0  0  0  0  0  0  0  0  0  0  0  0
  -30.3470  -12.8660   19.1350 C   0  0  0  0  0  2  0  0  0  0  0  0
  -29.3730  -12.7350   17.9430 C   0  0  0  0  0  2  0  0  0  0  0  0
  -27.9430  -12.4760   18.4470 C   0  0  0  0  0  2  0  0  0  0  0  0
  -27.5590  -13.4120   19.6220 C   0  0  0  0  0  3  0  0  0  0  0  0
  -28.6610  -13.5230   20.6970 C   0  0  0  0  0  2  0  0  0  0  0  0
  -29.8720  -13.9960   20.0100 N   0  0  0  0  0  0  0  0  0  0  0  0
  -31.7150  -15.1880   19.7760 O   0  0  0  0  0  0  0  0  0  0  0  0
  -29.8700  -16.5610   20.2640 N   0  0  0  0  0  0  0  0  0  0  0  0
  -28.8610  -16.5230   20.2400 H   0  0  0  0  0  0  0  0  0  0  0  0
  -25.2250  -13.9450   20.5030 C   0  0  0  0  0  0  0  0  0  0  0  0
  -24.1830  -13.1550   20.9000 C   0  0  0  0  0  0  0  0  0  0  0  0
  -24.6510  -11.8080   20.8100 C   0  0  0  0  0  0  0  0  0  0  0  0
  -26.2570  -13.0810   20.1870 N   0  0  0  0  0  0  0  0  0  0  0  0
  -25.9280  -11.7870   20.4390 N   0  0  0  0  0  0  0  0  0  0  0  0
  -23.9370  -10.5380   20.9970 C   0  0  0  0  0  0  0  0  0  0  0  0
  -24.3850   -9.5650   21.9180 C   0  0  0  0  0  3  0  0  0  0  0  0
  -23.6670   -8.3630   22.0950 C   0  0  0  0  0  3  0  0  0  0  0  0
  -22.4860   -8.1230   21.3510 C   0  0  0  0  0  0  0  0  0  0  0  0
  -22.0580   -9.0850   20.4200 C   0  0  0  0  0  3  0  0  0  0  0  0
  -22.7770  -10.2780   20.2410 C   0  0  0  0  0  3  0  0  0  0  0  0
  -21.7390   -6.9740   21.4390 O   0  0  0  0  0  0  0  0  0  0  0  0
  -21.6770   -6.2430   22.5990 C   0  0  0  0  0  0  0  0  0  0  0  0
  -21.1950   -6.7970   23.8040 C   0  0  0  0  0  3  0  0  0  0  0  0
  -21.0830   -5.9900   24.9540 C   0  0  0  0  0  3  0  0  0  0  0  0
  -21.4410   -4.6300   24.8990 C   0  0  0  0  0  0  0  0  0  0  0  0
  -21.9160   -4.0750   23.6970 C   0  0  0  0  0  3  0  0  0  0  0  0
  -22.0300   -4.8790   22.5500 C   0  0  0  0  0  0  0  0  0  0  0  0
  -22.4680   -4.3340   21.3890 F   0  0  0  0  0  0  0  0  0  0  0  0
  -21.3270   -3.8530   26.0020 F   0  0  0  0  0  0  0  0  0  0  0  0
  -22.7990  -13.6200   21.2440 C   0  0  0  0  0  0  0  0  0  0  0  0
  -22.1100  -12.8960   22.1180 N   0  0  0  0  0  0  0  0  0  0  0  0
  -22.3400  -14.6600   20.7740 O   0  0  0  0  0  0  0  0  0  0  0  0
  -22.4960  -12.0540   22.5200 H   0  0  0  0  0  0  0  0  0  0  0  0
  -21.1820  -13.1880   22.3910 H   0  0  0  0  0  0  0  0  0  0  0  0
  -25.3740  -15.3220   20.3550 N   0  0  0  0  0  0  0  0  0  0  0  0
  -24.6080  -15.9660   20.5190 H   0  0  0  0  0  0  0  0  0  0  0  0
  -26.1970  -15.7740   19.9810 H   0  0  0  0  0  0  0  0  0  0  0  0
  -28.0590  -23.1870   20.4790 C   0  0  0  0  0  3  0  0  0  0  0  0
  -27.6990  -24.6060   20.5010 C   0  0  0  0  0  3  0  0  0  0  0  0
  -28.1440  -26.0270   20.2990 O   0  0  0  0  0  0  0  0  0  0  0  0
  -24.5860  -31.9440   23.2330 C   0  0  0  0  0  0  0  0  0  0  0  0
  -27.1620  -27.1260   20.2380 C   0  0  0  0  0  0  0  0  0  0  0  0
  -23.3950  -30.5340   21.6040 C   0  0  0  0  0  3  0  0  0  0  0  0
  -24.8520  -28.9490   20.1830 C   0  0  0  0  0  0  0  0  0  0  0  0
  -25.9570  -30.7750   21.4520 C   0  0  0  0  0  2  0  0  0  0  0  0
  -26.0340  -29.3700   20.8070 C   0  0  0  0  0  0  0  0  0  0  0  0
  -27.1870  -28.4740   20.8220 C   0  0  0  0  0  3  0  0  0  0  0  0
  -25.9620  -26.8560   19.5410 C   0  0  0  0  0  3  0  0  0  0  0  0
  -24.8350  -27.7090   19.5310 C   0  0  0  0  0  3  0  0  0  0  0  0
  -23.6240  -29.8520   20.2280 C   0  0  0  0  0  2  0  0  0  0  0  0
  -24.6660  -31.1090   22.1490 N   0  0  0  0  0  0  0  0  0  0  0  0
  -23.4970  -32.2290   23.7560 O   0  0  0  0  0  0  0  0  0  0  0  0
  -22.7140  -29.5320   22.5720 C   0  0  0  0  0  0  0  0  0  0  0  0
  -21.3870  -29.3520   22.4440 N   0  0  0  0  0  0  0  0  0  0  0  0
  -23.3850  -28.9200   23.4070 O   0  0  0  0  0  0  0  0  0  0  0  0
  -20.8990  -29.8970   21.7460 H   0  0  0  0  0  0  0  0  0  0  0  0
  -18.0120  -28.1270   22.9570 C   0  0  0  0  0  0  0  0  0  0  0  0
  -20.5700  -28.4140   23.2210 C   0  0  0  0  0  3  0  0  0  0  0  0
  -20.6830  -26.9780   22.6580 C   0  0  0  0  0  2  0  0  0  0  0  0
  -19.5840  -26.6390   21.6460 C   0  0  0  0  0  2  0  0  0  0  0  0
  -18.2000  -26.7760   22.2880 C   0  0  0  0  0  2  0  0  0  0  0  0
  -19.1240  -28.9030   23.3810 C   0  0  0  0  0  0  0  0  0  0  0  0
  -18.8920  -30.1650   23.9690 C   0  0  0  0  0  3  0  0  0  0  0  0
  -17.5810  -30.6530   24.1350 C   0  0  0  0  0  3  0  0  0  0  0  0
  -16.4840  -29.8740   23.7250 C   0  0  0  0  0  3  0  0  0  0  0  0
  -16.7010  -28.6130   23.1420 C   0  0  0  0  0  3  0  0  0  0  0  0
  -25.8570  -32.5930   23.8570 C   0  0  0  0  0  3  0  0  0  0  0  0
  -26.3630  -31.8440   25.1530 C   0  0  1  0  0  0  0  0  0  0  0  0
  -25.2590  -31.6190   26.2120 C   0  0  0  0  0  1  0  0  0  0  0  0
  -26.9560  -30.4620   24.7960 C   0  0  0  0  0  1  0  0  0  0  0  0
  -27.5030  -32.6540   25.8130 C   0  0  0  0  0  1  0  0  0  0  0  0
  -25.5380  -33.9960   24.1730 N   0  0  0  0  0  0  0  0  0  0  0  0
  -25.8780  -35.0480   23.4160 C   0  0  0  0  0  0  0  0  0  0  0  0
  -26.5580  -34.9400   22.3930 O   0  0  0  0  0  0  0  0  0  0  0  0
  -24.9340  -34.1520   24.9660 H   0  0  0  0  0  0  0  0  0  0  0  0
  -24.1650  -36.8540   23.0320 C   0  0  0  0  0  1  0  0  0  0  0  0
  -25.3890  -36.4410   23.8660 C   0  0  0  0  0  3  0  0  0  0  0  0
  -27.5080  -37.3210   24.7420 C   0  0  0  0  0  1  0  0  0  0  0  0
  -26.4290  -37.4890   23.7730 N   0  0  0  0  0  0  0  0  0  0  0  0
  -26.0230  -38.4120   23.9070 H   0  0  0  0  0  0  0  0  0  0  0  0
  1  2  1  0
  1 48  1  0
  2  4  1  0
  2  7  1  0
  3  1  2  0
  5  9  1  0
  6  9  1  0
  7  5  2  0
  8  7  1  0
  8  6  2  0
 10 18  1  0
 11 16  1  0
 12 13  1  0
 12 11  1  0
 14 13  1  0
 14 23  1  0
 14 15  1  0
 16 10  1  0
 16 15  1  0
 17 10  2  0
 18  8  1  0
 19 18  1  0
 20 21  2  0
 21 40  1  0
 22 21  1  0
 22 25  1  0
 23 24  1  0
 23 20  1  0
 24 22  2  0
 25 26  1  0
 26 27  2  0
 28 31  1  0
 28 27  1  0
 29 28  2  0
 30 29  1  0
 30 25  2  0
 31 32  1  0
 32 33  1  0
 33 34  2  0
 35 34  1  0
 35 39  1  0
 36 35  2  0
 37 32  2  0
 37 36  1  0
 38 37  1  0
 40 41  1  0
 41 44  1  0
 41 43  1  0
 42 40  2  0
 45 20  1  0
 45 46  1  0
 47 45  1  0
 48 49  2  0
 50 49  1  0
 51 62  2  0
 52 50  1  0
 52 57  1  0
 53 61  1  0
 53 63  1  0
 54 60  1  0
 54 56  1  0
 55 61  1  0
 56 57  2  0
 56 55  1  0
 58 52  2  0
 59 58  1  0
 59 54  2  0
 60 53  1  0
 61 51  1  0
 63 65  2  0
 64 63  1  0
 66 64  1  0
 67 76  2  0
 67 72  1  0
 68 64  1  0
 68 72  1  0
 69 68  1  0
 70 71  1  0
 70 69  1  0
 71 67  1  0
 72 73  2  0
 73 74  1  0
 75 74  2  0
 76 75  1  0
 77 51  1  0
 77 82  1  0
 77 78  1  0
 78 81  1  1
 78 79  1  0
 80 78  1  0
 82 85  1  0
 83 87  1  0
 83 82  1  0
 84 83  2  0
 87 86  1  0
 89 87  1  0
 89 90  1  0
 89 88  1  0
M  ISO  4  10 100  18 100  49 101  50 101
M  END
>  <TORSDO>  (55) 
F 18

>  <SCORE>  (55) 
-14.578

>  <name>  (55) 
54

>  <ligand_id>  (55) 
54

>  <original_smiles>  (55) 
[H]C(Oc1c([H])c([H])c2c(c1[H])C([H])([H])N(C(=O)C([H])(N([H])C(=O)C([H])(N([H])C([H])([H])[H])C([H])([H])[H])C(C([H])([H])[H])(C([H])([H])[H])C([H])([H])[H])C([H])(C(=O)N([H])C1([H])c3c([H])c([H])c([H])c([H])c3C([H])([H])C([H])([H])C1([H])[H])C2([H])[H])=C([H])C(=O)N([H])c1c([H])sc([H])c1N([H])C(=O)N1C([H])([H])C([H])([H])C([H])([H])C([H])(n2nc(-c3c([H])c([H])c(Oc4c([H])c([H])c(F)c([H])c4F)c([H])c3[H])c(C(=O)N([H])[H])c2N([H])[H])C1([H])[H]

>  <smiles>  (55) 
[H]C(Oc1c([H])c([H])c2c(c1[H])C([H])([H])N(C(=O)C([H])(N([H])C(=O)C([H])(N([H])C([H])([H])[H])C([H])([H])[H])C(C([H])([H])[H])(C([H])([H])[H])C([H])([H])[H])C([H])(C(=O)N([H])C1([H])c3c([H])c([H])c([H])c([H])c3C([H])([H])C([H])([H])C1([H])[H])C2([H])[H])=C([H])C(=O)N([H])c1c([H])sc([H])c1N([H])C(=O)N1C([H])([H])C([H])([H])C([H])([H])C([H])(n2nc(-c3c([H])c([H])c(Oc4c([H])c([H])c(F)c([H])c4F)c([H])c3[H])c(C(=O)N([H])[H])c2N([H])[H])C1([H])[H]

$$$$
55:0:0
     RDKit          3D

 93102  0  0  1  0  0  0  0  0999 V2000
  -28.9230  -23.9680   20.0820 C   0  0  0  0  0  0  0  0  0  0  0  0
  -28.6060  -22.5430   20.3790 C   0  0  0  0  0  0  0  0  0  0  0  0
  -28.1180  -25.0480   20.4020 C   0  0  0  0  0  3  0  0  0  0  0  0
  -30.2520  -24.0120   19.3920 C   0  0  0  0  0  3  0  0  0  0  0  0
  -30.6980  -22.5290   19.3560 C   0  0  0  0  0  3  0  0  0  0  0  0
  -29.6200  -21.7050   19.9440 N   0  0  0  0  0  0  0  0  0  0  0  0
  -27.5810  -22.1580   20.9500 O   0  0  0  0  0  0  0  0  0  0  0  0
  -28.6420  -19.3370   20.3160 C   0  0  0  0  0  3  0  0  0  0  0  0
  -28.7790  -17.9180   20.4700 C   0  0  0  0  0  3  0  0  0  0  0  0
  -31.1210  -18.0860   20.0470 C   0  0  0  0  0  3  0  0  0  0  0  0
  -29.7440  -20.2080   20.0490 C   0  0  0  0  0  0  0  0  0  0  0  0
  -30.0230  -17.2340   20.3590 C   0  0  0  0  0  0  0  0  0  0  0  0
  -30.9900  -19.5080   19.8870 C   0  0  0  0  0  0  0  0  0  0  0  0
  -32.1270  -20.1860   19.5970 F   0  0  0  0  0  0  0  0  0  0  0  0
  -30.7160  -14.7520   20.0600 C   0  0  0  0  0  0  0  0  0  0  0  0
  -30.3780  -12.5370   18.9380 C   0  0  0  0  0  2  0  0  0  0  0  0
  -29.3740  -12.6700   17.7710 C   0  0  0  0  0  2  0  0  0  0  0  0
  -27.9340  -12.4740   18.2800 C   0  0  0  0  0  2  0  0  0  0  0  0
  -27.6370  -13.3320   19.5350 C   0  0  0  0  0  3  0  0  0  0  0  0
  -28.7500  -13.1940   20.5920 C   0  0  0  0  0  2  0  0  0  0  0  0
  -30.0320  -13.5530   19.9600 N   0  0  0  0  0  0  0  0  0  0  0  0
  -31.7970  -14.8880   19.4800 O   0  0  0  0  0  0  0  0  0  0  0  0
  -30.2210  -15.6720   22.2300 C   0  0  0  0  0  1  0  0  0  0  0  0
  -30.1570  -15.8120   20.7700 N   0  0  0  0  0  0  0  0  0  0  0  0
  -25.3100  -13.9230   20.4410 C   0  0  0  0  0  0  0  0  0  0  0  0
  -24.2600  -13.1480   20.8520 C   0  0  0  0  0  0  0  0  0  0  0  0
  -24.7050  -11.7930   20.7540 C   0  0  0  0  0  0  0  0  0  0  0  0
  -26.3230  -13.0420   20.1020 N   0  0  0  0  0  0  0  0  0  0  0  0
  -25.9720  -11.7540   20.3550 N   0  0  0  0  0  0  0  0  0  0  0  0
  -23.9790  -10.5320   20.9570 C   0  0  0  0  0  0  0  0  0  0  0  0
  -24.4320   -9.5560   21.8700 C   0  0  0  0  0  3  0  0  0  0  0  0
  -23.7060   -8.3610   22.0600 C   0  0  0  0  0  3  0  0  0  0  0  0
  -22.5120   -8.1310   21.3370 C   0  0  0  0  0  0  0  0  0  0  0  0
  -22.0750   -9.0990   20.4150 C   0  0  0  0  0  3  0  0  0  0  0  0
  -22.8030  -10.2860   20.2220 C   0  0  0  0  0  3  0  0  0  0  0  0
  -21.7560   -6.9890   21.4380 O   0  0  0  0  0  0  0  0  0  0  0  0
  -21.7010   -6.2600   22.6000 C   0  0  0  0  0  0  0  0  0  0  0  0
  -21.2870   -6.8360   23.8200 C   0  0  0  0  0  3  0  0  0  0  0  0
  -21.1760   -6.0360   24.9740 C   0  0  0  0  0  3  0  0  0  0  0  0
  -21.4710   -4.6610   24.9110 C   0  0  0  0  0  0  0  0  0  0  0  0
  -21.8790   -4.0850   23.6960 C   0  0  0  0  0  3  0  0  0  0  0  0
  -21.9910   -4.8820   22.5440 C   0  0  0  0  0  0  0  0  0  0  0  0
  -22.3660   -4.3190   21.3700 F   0  0  0  0  0  0  0  0  0  0  0  0
  -21.3590   -3.8890   26.0170 F   0  0  0  0  0  0  0  0  0  0  0  0
  -22.8900  -13.6310   21.2260 C   0  0  0  0  0  0  0  0  0  0  0  0
  -22.2150  -12.9200   22.1220 N   0  0  0  0  0  0  0  0  0  0  0  0
  -22.4280  -14.6700   20.7590 O   0  0  0  0  0  0  0  0  0  0  0  0
  -22.6040  -12.0770   22.5190 H   0  0  0  0  0  0  0  0  0  0  0  0
  -21.2960  -13.2230   22.4150 H   0  0  0  0  0  0  0  0  0  0  0  0
  -25.4840  -15.2960   20.3000 N   0  0  0  0  0  0  0  0  0  0  0  0
  -24.7460  -15.9610   20.5020 H   0  0  0  0  0  0  0  0  0  0  0  0
  -26.3190  -15.7310   19.9320 H   0  0  0  0  0  0  0  0  0  0  0  0
  -28.3440  -26.4380   20.1850 O   0  0  0  0  0  0  0  0  0  0  0  0
  -24.6250  -31.8880   23.2280 C   0  0  0  0  0  0  0  0  0  0  0  0
  -27.2400  -27.3140   20.1740 C   0  0  0  0  0  0  0  0  0  0  0  0
  -23.4190  -30.4750   21.6040 C   0  0  0  0  0  3  0  0  0  0  0  0
  -24.8690  -28.9250   20.1720 C   0  0  0  0  0  0  0  0  0  0  0  0
  -25.9540  -30.8040   21.3990 C   0  0  0  0  0  2  0  0  0  0  0  0
  -26.0380  -29.4170   20.7640 C   0  0  0  0  0  0  0  0  0  0  0  0
  -27.2260  -28.6200   20.7620 C   0  0  0  0  0  3  0  0  0  0  0  0
  -26.0480  -26.8840   19.5500 C   0  0  0  0  0  3  0  0  0  0  0  0
  -24.8740  -27.6630   19.5610 C   0  0  0  0  0  3  0  0  0  0  0  0
  -23.6270  -29.7930   20.2260 C   0  0  0  0  0  2  0  0  0  0  0  0
  -24.6860  -31.0720   22.1350 N   0  0  0  0  0  0  0  0  0  0  0  0
  -23.5440  -32.1620   23.7670 O   0  0  0  0  0  0  0  0  0  0  0  0
  -22.7690  -29.4580   22.5730 C   0  0  0  0  0  0  0  0  0  0  0  0
  -21.4430  -29.2700   22.4530 N   0  0  0  0  0  0  0  0  0  0  0  0
  -23.4540  -28.8420   23.3940 O   0  0  0  0  0  0  0  0  0  0  0  0
  -20.9480  -29.8160   21.7620 H   0  0  0  0  0  0  0  0  0  0  0  0
  -18.0790  -28.0440   22.9690 C   0  0  0  0  0  0  0  0  0  0  0  0
  -20.6330  -28.3310   23.2330 C   0  0  0  0  0  3  0  0  0  0  0  0
  -20.7490  -26.8960   22.6700 C   0  0  0  0  0  2  0  0  0  0  0  0
  -19.6490  -26.5570   21.6590 C   0  0  0  0  0  2  0  0  0  0  0  0
  -18.2670  -26.6920   22.3030 C   0  0  0  0  0  2  0  0  0  0  0  0
  -19.1900  -28.8210   23.3920 C   0  0  0  0  0  0  0  0  0  0  0  0
  -18.9580  -30.0860   23.9730 C   0  0  0  0  0  3  0  0  0  0  0  0
  -17.6480  -30.5750   24.1370 C   0  0  0  0  0  3  0  0  0  0  0  0
  -16.5510  -29.7970   23.7290 C   0  0  0  0  0  3  0  0  0  0  0  0
  -16.7680  -28.5330   23.1510 C   0  0  0  0  0  3  0  0  0  0  0  0
  -25.9080  -32.5300   23.8400 C   0  0  0  0  0  3  0  0  0  0  0  0
  -25.5880  -33.9260   24.1730 N   0  0  0  0  0  0  0  0  0  0  0  0
  -25.9120  -34.9820   23.4160 C   0  0  0  0  0  0  0  0  0  0  0  0
  -26.5800  -34.8840   22.3830 O   0  0  0  0  0  0  0  0  0  0  0  0
  -24.9870  -34.0760   24.9690 H   0  0  0  0  0  0  0  0  0  0  0  0
  -24.1720  -36.7680   23.0680 C   0  0  0  0  0  1  0  0  0  0  0  0
  -25.4160  -36.3670   23.8760 C   0  0  0  0  0  3  0  0  0  0  0  0
  -27.5490  -37.2610   24.7010 C   0  0  0  0  0  1  0  0  0  0  0  0
  -26.4420  -37.4280   23.7640 N   0  0  0  0  0  0  0  0  0  0  0  0
  -26.0300  -38.3440   23.9200 H   0  0  0  0  0  0  0  0  0  0  0  0
  -26.4370  -31.7630   25.1130 C   0  0  1  0  0  0  0  0  0  0  0  0
  -25.3510  -31.5200   26.1890 C   0  0  0  0  0  1  0  0  0  0  0  0
  -27.0240  -30.3880   24.7190 C   0  0  0  0  0  1  0  0  0  0  0  0
  -27.5920  -32.5610   25.7620 C   0  0  0  0  0  1  0  0  0  0  0  0
  1  2  1  0
  1  3  2  0
  2  7  2  0
  4  1  1  0
  5  4  2  0
  5  6  1  0
  6 11  1  0
  6  2  1  0
  8  9  1  0
 10 12  1  0
 11  8  2  0
 12  9  2  0
 12 24  1  0
 13 10  2  0
 13 11  1  0
 14 13  1  0
 15 24  1  0
 16 21  1  0
 17 18  1  0
 17 16  1  0
 19 18  1  0
 19 28  1  0
 19 20  1  0
 21 15  1  0
 21 20  1  0
 22 15  2  0
 24 23  1  0
 25 26  2  0
 26 45  1  0
 27 26  1  0
 27 30  1  0
 28 29  1  0
 28 25  1  0
 29 27  2  0
 30 31  1  0
 31 32  2  0
 33 36  1  0
 33 32  1  0
 34 33  2  0
 35 34  1  0
 35 30  2  0
 36 37  1  0
 37 38  1  0
 38 39  2  0
 40 39  1  0
 40 44  1  0
 41 40  2  0
 42 37  2  0
 42 41  1  0
 43 42  1  0
 45 46  1  0
 46 49  1  0
 46 48  1  0
 47 45  2  0
 50 25  1  0
 50 51  1  0
 52 50  1  0
 53  3  1  0
 54 65  2  0
 55 53  1  0
 55 60  1  0
 56 64  1  0
 56 66  1  0
 57 63  1  0
 57 59  1  0
 58 64  1  0
 59 58  1  0
 60 59  2  0
 61 62  1  0
 61 55  2  0
 62 57  2  0
 63 56  1  0
 64 54  1  0
 66 68  2  0
 67 66  1  0
 69 67  1  0
 70 79  2  0
 70 75  1  0
 71 67  1  0
 71 75  1  0
 72 71  1  0
 73 74  1  0
 73 72  1  0
 74 70  1  0
 75 76  2  0
 76 77  1  0
 78 77  2  0
 79 78  1  0
 80 54  1  0
 80 81  1  0
 80 90  1  0
 81 84  1  0
 82 86  1  0
 82 81  1  0
 83 82  2  0
 86 85  1  0
 88 86  1  0
 88 89  1  0
 88 87  1  0
 90 93  1  1
 90 91  1  0
 92 90  1  0
M  ISO  4   3 101  15 100  24 100  53 101
M  END
>  <TORSDO>  (56) 
F 17

>  <SCORE>  (56) 
-14.688

>  <name>  (56) 
55

>  <ligand_id>  (56) 
55

>  <original_smiles>  (56) 
[H]C(Oc1c([H])c([H])c2c(c1[H])C([H])([H])N(C(=O)C([H])(N([H])C(=O)C([H])(N([H])C([H])([H])[H])C([H])([H])[H])C(C([H])([H])[H])(C([H])([H])[H])C([H])([H])[H])C([H])(C(=O)N([H])C1([H])c3c([H])c([H])c([H])c([H])c3C([H])([H])C([H])([H])C1([H])[H])C2([H])[H])=C1C(=O)N(c2c([H])c([H])c(N(C(=O)N3C([H])([H])C([H])([H])C([H])([H])C([H])(n4nc(-c5c([H])c([H])c(Oc6c([H])c([H])c(F)c([H])c6F)c([H])c5[H])c(C(=O)N([H])[H])c4N([H])[H])C3([H])[H])C([H])([H])[H])c([H])c2F)C([H])([H])C1([H])[H]

>  <smiles>  (56) 
[H]C(Oc1c([H])c([H])c2c(c1[H])C([H])([H])N(C(=O)C([H])(N([H])C(=O)C([H])(N([H])C([H])([H])[H])C([H])([H])[H])C(C([H])([H])[H])(C([H])([H])[H])C([H])([H])[H])C([H])(C(=O)N([H])C1([H])c3c([H])c([H])c([H])c([H])c3C([H])([H])C([H])([H])C1([H])[H])C2([H])[H])=C1C(=O)N(c2c([H])c([H])c(N(C(=O)N3C([H])([H])C([H])([H])C([H])([H])C([H])(n4nc(-c5c([H])c([H])c(Oc6c([H])c([H])c(F)c([H])c6F)c([H])c5[H])c(C(=O)N([H])[H])c4N([H])[H])C3([H])[H])C([H])([H])[H])c([H])c2F)C([H])([H])C1([H])[H]

$$$$
56:0:0
     RDKit          3D

 94102  0  0  1  0  0  0  0  0999 V2000
  -30.4540  -20.8710   21.0970 C   0  0  0  0  0  3  0  0  0  0  0  0
  -28.2520  -19.9840   20.6090 C   0  0  0  0  0  3  0  0  0  0  0  0
  -30.1840  -18.4620   20.5720 C   0  0  0  0  0  0  0  0  0  0  0  0
  -29.0620  -21.0870   20.9770 C   0  0  0  0  0  0  0  0  0  0  0  0
  -31.0020  -19.5770   20.8950 C   0  0  0  0  0  0  0  0  0  0  0  0
  -28.7980  -18.6930   20.4040 C   0  0  0  0  0  0  0  0  0  0  0  0
  -32.3360  -19.4000   21.0550 F   0  0  0  0  0  0  0  0  0  0  0  0
  -27.9800  -17.6640   20.0750 F   0  0  0  0  0  0  0  0  0  0  0  0
  -28.5420  -23.6100   21.2090 C   0  0  0  0  0  0  0  0  0  0  0  0
  -28.4070  -22.2800   21.4350 N   0  0  0  0  0  0  0  0  0  0  0  0
  -27.9250  -24.3800   21.9460 O   0  0  0  0  0  0  0  0  0  0  0  0
  -27.6770  -22.0990   22.1100 H   0  0  0  0  0  0  0  0  0  0  0  0
  -29.3890  -24.2330   20.0790 C   0  0  0  0  0  2  0  0  0  0  0  0
  -28.6440  -25.3820   19.3060 C   0  0  0  0  0  2  0  0  0  0  0  0
  -28.6160  -26.7240   19.8930 O   0  0  0  0  0  0  0  0  0  0  0  0
  -24.6460  -31.7640   23.1030 C   0  0  0  0  0  0  0  0  0  0  0  0
  -27.4380  -27.4770   19.8550 C   0  0  0  0  0  0  0  0  0  0  0  0
  -23.4990  -30.4020   21.3910 C   0  0  0  0  0  3  0  0  0  0  0  0
  -25.0090  -28.9730   19.9100 C   0  0  0  0  0  0  0  0  0  0  0  0
  -26.0260  -30.8130   21.2530 C   0  0  0  0  0  2  0  0  0  0  0  0
  -26.1520  -29.4740   20.5460 C   0  0  0  0  0  0  0  0  0  0  0  0
  -27.3620  -28.7310   20.5230 C   0  0  0  0  0  3  0  0  0  0  0  0
  -26.2710  -27.0290   19.1860 C   0  0  0  0  0  3  0  0  0  0  0  0
  -25.0670  -27.7510   19.2290 C   0  0  0  0  0  3  0  0  0  0  0  0
  -23.7440  -29.7980   19.9840 C   0  0  0  0  0  2  0  0  0  0  0  0
  -24.7400  -31.0090   21.9710 N   0  0  0  0  0  0  0  0  0  0  0  0
  -23.5510  -31.9840   23.6380 O   0  0  0  0  0  0  0  0  0  0  0  0
  -22.8680  -29.3180   22.2940 C   0  0  0  0  0  0  0  0  0  0  0  0
  -21.5410  -29.1410   22.1840 N   0  0  0  0  0  0  0  0  0  0  0  0
  -23.5690  -28.6430   23.0540 O   0  0  0  0  0  0  0  0  0  0  0  0
  -21.0340  -29.7350   21.5440 H   0  0  0  0  0  0  0  0  0  0  0  0
  -18.1690  -27.9590   22.7360 C   0  0  0  0  0  0  0  0  0  0  0  0
  -20.7420  -28.1550   22.9120 C   0  0  0  0  0  3  0  0  0  0  0  0
  -20.7950  -26.7750   22.2180 C   0  0  0  0  0  2  0  0  0  0  0  0
  -19.6420  -26.5540   21.2320 C   0  0  0  0  0  2  0  0  0  0  0  0
  -18.2920  -26.6660   21.9460 C   0  0  0  0  0  2  0  0  0  0  0  0
  -19.3200  -28.6650   23.1760 C   0  0  0  0  0  0  0  0  0  0  0  0
  -19.1500  -29.8810   23.8730 C   0  0  0  0  0  3  0  0  0  0  0  0
  -17.8640  -30.3860   24.1400 C   0  0  0  0  0  3  0  0  0  0  0  0
  -16.7280  -29.6720   23.7180 C   0  0  0  0  0  3  0  0  0  0  0  0
  -16.8830  -28.4620   23.0190 C   0  0  0  0  0  3  0  0  0  0  0  0
  -25.9060  -32.4030   23.7620 C   0  0  0  0  0  3  0  0  0  0  0  0
  -26.4130  -31.6130   25.0300 C   0  0  1  0  0  0  0  0  0  0  0  0
  -25.3040  -31.3340   26.0700 C   0  0  0  0  0  1  0  0  0  0  0  0
  -27.0290  -30.2530   24.6200 C   0  0  0  0  0  1  0  0  0  0  0  0
  -27.5360  -32.4110   25.7340 C   0  0  0  0  0  1  0  0  0  0  0  0
  -25.5660  -33.7880   24.1170 N   0  0  0  0  0  0  0  0  0  0  0  0
  -25.8830  -34.8620   23.3820 C   0  0  0  0  0  0  0  0  0  0  0  0
  -26.5680  -34.7950   22.3590 O   0  0  0  0  0  0  0  0  0  0  0  0
  -24.9690  -33.9160   24.9210 H   0  0  0  0  0  0  0  0  0  0  0  0
  -24.1160  -36.6190   23.0420 C   0  0  0  0  0  1  0  0  0  0  0  0
  -25.3560  -36.2290   23.8620 C   0  0  0  0  0  3  0  0  0  0  0  0
  -27.4540  -37.1470   24.7460 C   0  0  0  0  0  1  0  0  0  0  0  0
  -26.3640  -37.3080   23.7870 N   0  0  0  0  0  0  0  0  0  0  0  0
  -25.9330  -38.2140   23.9500 H   0  0  0  0  0  0  0  0  0  0  0  0
  -30.8400  -17.0620   20.4430 C   0  0  0  0  0  2  0  0  0  0  0  0
  -30.8910  -14.6070   20.0960 C   0  0  0  0  0  0  0  0  0  0  0  0
  -30.5110  -12.4240   19.0140 C   0  0  0  0  0  2  0  0  0  0  0  0
  -29.5310  -12.6290   17.8410 C   0  0  0  0  0  2  0  0  0  0  0  0
  -28.0740  -12.4970   18.3300 C   0  0  0  0  0  2  0  0  0  0  0  0
  -27.7920  -13.3290   19.6140 C   0  0  0  0  0  3  0  0  0  0  0  0
  -28.9030  -13.1480   20.6740 C   0  0  0  0  0  2  0  0  0  0  0  0
  -30.1930  -13.4390   20.0320 N   0  0  0  0  0  0  0  0  0  0  0  0
  -32.0050  -14.7340   19.5840 O   0  0  0  0  0  0  0  0  0  0  0  0
  -30.2540  -15.7010   20.5730 N   0  0  0  0  0  0  0  0  0  0  0  0
  -29.3280  -15.6040   20.9610 H   0  0  0  0  0  0  0  0  0  0  0  0
  -25.4440  -13.9070   20.4890 C   0  0  0  0  0  0  0  0  0  0  0  0
  -24.3930  -13.1240   20.8810 C   0  0  0  0  0  0  0  0  0  0  0  0
  -24.8420  -11.7730   20.7680 C   0  0  0  0  0  0  0  0  0  0  0  0
  -26.4680  -13.0330   20.1600 N   0  0  0  0  0  0  0  0  0  0  0  0
  -26.1130  -11.7410   20.3850 N   0  0  0  0  0  0  0  0  0  0  0  0
  -24.1170  -10.5080   20.9500 C   0  0  0  0  0  0  0  0  0  0  0  0
  -24.5570   -9.5280   21.8660 C   0  0  0  0  0  3  0  0  0  0  0  0
  -23.8310   -8.3280   22.0350 C   0  0  0  0  0  3  0  0  0  0  0  0
  -22.6520   -8.1010   21.2870 C   0  0  0  0  0  0  0  0  0  0  0  0
  -22.2320   -9.0700   20.3580 C   0  0  0  0  0  3  0  0  0  0  0  0
  -22.9580  -10.2610   20.1880 C   0  0  0  0  0  3  0  0  0  0  0  0
  -21.8950   -6.9570   21.3670 O   0  0  0  0  0  0  0  0  0  0  0  0
  -21.8060   -6.2330   22.5280 C   0  0  0  0  0  0  0  0  0  0  0  0
  -21.3140   -6.8000   23.7240 C   0  0  0  0  0  3  0  0  0  0  0  0
  -21.1730   -6.0010   24.8770 C   0  0  0  0  0  3  0  0  0  0  0  0
  -21.5150   -4.6360   24.8350 C   0  0  0  0  0  0  0  0  0  0  0  0
  -21.9980   -4.0680   23.6430 C   0  0  0  0  0  3  0  0  0  0  0  0
  -22.1420   -4.8640   22.4930 C   0  0  0  0  0  0  0  0  0  0  0  0
  -22.5890   -4.3070   21.3420 F   0  0  0  0  0  0  0  0  0  0  0  0
  -21.3700   -3.8660   25.9380 F   0  0  0  0  0  0  0  0  0  0  0  0
  -23.0200  -13.5980   21.2580 C   0  0  0  0  0  0  0  0  0  0  0  0
  -22.3420  -12.8780   22.1440 N   0  0  0  0  0  0  0  0  0  0  0  0
  -22.5590  -14.6450   20.8040 O   0  0  0  0  0  0  0  0  0  0  0  0
  -22.7290  -12.0310   22.5350 H   0  0  0  0  0  0  0  0  0  0  0  0
  -21.4250  -13.1810   22.4370 H   0  0  0  0  0  0  0  0  0  0  0  0
  -25.6110  -15.2840   20.3760 N   0  0  0  0  0  0  0  0  0  0  0  0
  -24.8630  -15.9360   20.5820 H   0  0  0  0  0  0  0  0  0  0  0  0
  -26.4860  -15.7460   20.1640 H   0  0  0  0  0  0  0  0  0  0  0  0
  2  4  2  0
  3  5  1  0
  4  1  1  0
  4 10  1  0
  5  7  1  0
  5  1  2  0
  6  3  2  0
  6  2  1  0
  8  6  1  0
  9 10  1  0
  9 11  2  0
 10 12  1  0
 13  9  1  0
 14 15  1  0
 14 13  1  0
 16 27  2  0
 17 15  1  0
 17 22  1  0
 18 26  1  0
 18 28  1  0
 19 25  1  0
 19 21  1  0
 20 26  1  0
 21 20  1  0
 22 21  2  0
 23 24  1  0
 23 17  2  0
 24 19  2  0
 25 18  1  0
 26 16  1  0
 28 30  2  0
 29 28  1  0
 31 29  1  0
 32 41  2  0
 32 37  1  0
 33 29  1  0
 33 37  1  0
 34 33  1  0
 35 36  1  0
 35 34  1  0
 36 32  1  0
 37 38  2  0
 38 39  1  0
 40 39  2  0
 41 40  1  0
 42 16  1  0
 42 47  1  0
 42 43  1  0
 43 46  1  1
 43 44  1  0
 45 43  1  0
 47 50  1  0
 48 52  1  0
 48 47  1  0
 49 48  2  0
 52 51  1  0
 54 52  1  0
 54 55  1  0
 54 53  1  0
 56  3  1  0
 56 65  1  0
 57 65  1  0
 58 63  1  0
 59 60  1  0
 59 58  1  0
 61 60  1  0
 61 70  1  0
 61 62  1  0
 63 57  1  0
 63 62  1  0
 64 57  2  0
 65 66  1  0
 67 68  2  0
 68 87  1  0
 69 68  1  0
 69 72  1  0
 70 71  1  0
 70 67  1  0
 71 69  2  0
 72 73  1  0
 73 74  2  0
 75 78  1  0
 75 74  1  0
 76 75  2  0
 77 76  1  0
 77 72  2  0
 78 79  1  0
 79 80  1  0
 80 81  2  0
 82 81  1  0
 82 86  1  0
 83 82  2  0
 84 79  2  0
 84 83  1  0
 85 84  1  0
 87 88  1  0
 88 91  1  0
 88 90  1  0
 89 87  2  0
 92 67  1  0
 92 93  1  0
 94 92  1  0
M  ISO  4  14 101  15 101  57 100  65 100
M  END
>  <TORSDO>  (57) 
F 20

>  <SCORE>  (57) 
-13.877

>  <name>  (57) 
56

>  <ligand_id>  (57) 
56

>  <original_smiles>  (57) 
[H]c1c([H])c([H])c2c(c1[H])C([H])([H])C([H])([H])C([H])([H])C2([H])N([H])C(=O)C1([H])N(C(=O)C([H])(N([H])C(=O)C([H])(N([H])C([H])([H])[H])C([H])([H])[H])C(C([H])([H])[H])(C([H])([H])[H])C([H])([H])[H])C([H])([H])c2c([H])c(OC([H])([H])C([H])([H])C(=O)N([H])c3c([H])c(F)c(C([H])([H])N([H])C(=O)N4C([H])([H])C([H])([H])C([H])([H])C([H])(n5nc(-c6c([H])c([H])c(Oc7c([H])c([H])c(F)c([H])c7F)c([H])c6[H])c(C(=O)N([H])[H])c5N([H])[H])C4([H])[H])c(F)c3[H])c([H])c([H])c2C1([H])[H]

>  <smiles>  (57) 
[H]c1c([H])c([H])c2c(c1[H])C([H])([H])C([H])([H])C([H])([H])C2([H])N([H])C(=O)C1([H])N(C(=O)C([H])(N([H])C(=O)C([H])(N([H])C([H])([H])[H])C([H])([H])[H])C(C([H])([H])[H])(C([H])([H])[H])C([H])([H])[H])C([H])([H])c2c([H])c(OC([H])([H])C([H])([H])C(=O)N([H])c3c([H])c(F)c(C([H])([H])N([H])C(=O)N4C([H])([H])C([H])([H])C([H])([H])C([H])(n5nc(-c6c([H])c([H])c(Oc7c([H])c([H])c(F)c([H])c7F)c([H])c6[H])c(C(=O)N([H])[H])c5N([H])[H])C4([H])[H])c(F)c3[H])c([H])c([H])c2C1([H])[H]

$$$$
57:0:0
     RDKit          3D

 95104  0  0  1  0  0  0  0  0999 V2000
  -30.6880  -23.8480   21.5320 C   0  0  0  0  0  0  0  0  0  0  0  0
  -29.9520  -22.8420   22.4540 C   0  0  0  0  0  0  0  0  0  0  0  0
  -30.3580  -23.8080   20.0370 C   0  0  0  0  0  2  0  0  0  0  0  0
  -28.6740  -22.1770   21.9100 C   0  0  0  0  0  2  0  0  0  0  0  0
  -28.9110  -23.3710   19.7410 C   0  0  0  0  0  3  0  0  0  0  0  0
  -28.6580  -22.0020   20.4470 N   0  0  0  0  0  0  0  0  0  0  0  0
  -31.5370  -24.6310   21.9770 O   0  0  0  0  0  0  0  0  0  0  0  0
  -30.3690  -22.5940   23.5920 O   0  0  0  0  0  0  0  0  0  0  0  0
  -30.3130  -19.9750   20.0090 C   0  0  0  0  0  3  0  0  0  0  0  0
  -30.5680  -18.5300   19.9920 C   0  0  0  0  0  3  0  0  0  0  0  0
  -28.0110  -19.5610   20.2820 C   0  0  0  0  0  3  0  0  0  0  0  0
  -29.0120  -20.5780   20.1730 C   0  0  0  0  0  0  0  0  0  0  0  0
  -29.5420  -17.5290   20.1360 C   0  0  0  0  0  0  0  0  0  0  0  0
  -28.2540  -18.1370   20.2590 C   0  0  0  0  0  0  0  0  0  0  0  0
  -27.1900  -17.3080   20.3860 F   0  0  0  0  0  0  0  0  0  0  0  0
  -30.4340  -14.9130   19.8630 C   0  0  0  0  0  0  0  0  0  0  0  0
  -30.2620  -12.5860   18.8780 C   0  0  0  0  0  2  0  0  0  0  0  0
  -29.2290  -12.5970   17.7260 C   0  0  0  0  0  2  0  0  0  0  0  0
  -27.8000  -12.3840   18.2650 C   0  0  0  0  0  2  0  0  0  0  0  0
  -27.4950  -13.2750   19.4980 C   0  0  0  0  0  3  0  0  0  0  0  0
  -28.6370  -13.2240   20.5370 C   0  0  0  0  0  2  0  0  0  0  0  0
  -29.8690  -13.6420   19.8500 N   0  0  0  0  0  0  0  0  0  0  0  0
  -31.5920  -15.0450   19.4490 O   0  0  0  0  0  0  0  0  0  0  0  0
  -29.5960  -16.0020   20.1820 N   0  0  0  0  0  0  0  0  0  0  0  0
  -28.7120  -15.6420   20.5090 H   0  0  0  0  0  0  0  0  0  0  0  0
  -25.1830  -13.8480   20.4420 C   0  0  0  0  0  0  0  0  0  0  0  0
  -24.1410  -13.0690   20.8610 C   0  0  0  0  0  0  0  0  0  0  0  0
  -24.5850  -11.7160   20.7400 C   0  0  0  0  0  0  0  0  0  0  0  0
  -26.1950  -12.9720   20.0870 N   0  0  0  0  0  0  0  0  0  0  0  0
  -25.8480  -11.6800   20.3280 N   0  0  0  0  0  0  0  0  0  0  0  0
  -23.8590  -10.4550   20.9370 C   0  0  0  0  0  0  0  0  0  0  0  0
  -24.3020   -9.4840   21.8630 C   0  0  0  0  0  3  0  0  0  0  0  0
  -23.5730   -8.2890   22.0500 C   0  0  0  0  0  3  0  0  0  0  0  0
  -22.3900   -8.0560   21.3090 C   0  0  0  0  0  0  0  0  0  0  0  0
  -21.9650   -9.0160   20.3740 C   0  0  0  0  0  3  0  0  0  0  0  0
  -22.6940  -10.2030   20.1860 C   0  0  0  0  0  3  0  0  0  0  0  0
  -21.6330   -6.9130   21.4050 O   0  0  0  0  0  0  0  0  0  0  0  0
  -21.5390   -6.2090   22.5780 C   0  0  0  0  0  0  0  0  0  0  0  0
  -21.0550   -6.7990   23.7660 C   0  0  0  0  0  3  0  0  0  0  0  0
  -20.9090   -6.0190   24.9310 C   0  0  0  0  0  3  0  0  0  0  0  0
  -21.2380   -4.6510   24.9090 C   0  0  0  0  0  0  0  0  0  0  0  0
  -21.7160   -4.0600   23.7260 C   0  0  0  0  0  3  0  0  0  0  0  0
  -21.8630   -4.8370   22.5630 C   0  0  0  0  0  0  0  0  0  0  0  0
  -22.3040   -4.2570   21.4200 F   0  0  0  0  0  0  0  0  0  0  0  0
  -21.0920   -3.9000   26.0250 F   0  0  0  0  0  0  0  0  0  0  0  0
  -22.7760  -13.5490   21.2640 C   0  0  0  0  0  0  0  0  0  0  0  0
  -22.1170  -12.8330   22.1680 N   0  0  0  0  0  0  0  0  0  0  0  0
  -22.3070  -14.5940   20.8140 O   0  0  0  0  0  0  0  0  0  0  0  0
  -22.5100  -11.9860   22.5530 H   0  0  0  0  0  0  0  0  0  0  0  0
  -21.2080  -13.1380   22.4840 H   0  0  0  0  0  0  0  0  0  0  0  0
  -25.3430  -15.2240   20.3160 N   0  0  0  0  0  0  0  0  0  0  0  0
  -24.5980  -15.8670   20.5610 H   0  0  0  0  0  0  0  0  0  0  0  0
  -26.2010  -15.7020   20.0750 H   0  0  0  0  0  0  0  0  0  0  0  0
  -27.8850  -24.6800   20.0420 C   0  0  0  0  0  2  0  0  0  0  0  0
  -28.1060  -26.1780   19.7090 O   0  0  0  0  0  0  0  0  0  0  0  0
  -24.4580  -31.6820   22.9930 C   0  0  0  0  0  0  0  0  0  0  0  0
  -27.0240  -27.1250   19.7450 C   0  0  0  0  0  0  0  0  0  0  0  0
  -23.2390  -30.3380   21.3230 C   0  0  0  0  0  3  0  0  0  0  0  0
  -24.6730  -28.8300   19.8200 C   0  0  0  0  0  0  0  0  0  0  0  0
  -25.7850  -30.6360   21.1220 C   0  0  0  0  0  2  0  0  0  0  0  0
  -25.8590  -29.2710   20.4200 C   0  0  0  0  0  0  0  0  0  0  0  0
  -27.0360  -28.4350   20.3650 C   0  0  0  0  0  3  0  0  0  0  0  0
  -25.8120  -26.7830   19.1070 C   0  0  0  0  0  3  0  0  0  0  0  0
  -24.6600  -27.5990   19.1480 C   0  0  0  0  0  3  0  0  0  0  0  0
  -23.4400  -29.7130   19.9180 C   0  0  0  0  0  2  0  0  0  0  0  0
  -24.5150  -30.9050   21.8690 N   0  0  0  0  0  0  0  0  0  0  0  0
  -23.3800  -31.9370   23.5500 O   0  0  0  0  0  0  0  0  0  0  0  0
  -22.5860  -29.2900   22.2590 C   0  0  0  0  0  0  0  0  0  0  0  0
  -21.2560  -29.1180   22.1530 N   0  0  0  0  0  0  0  0  0  0  0  0
  -23.2770  -28.6350   23.0430 O   0  0  0  0  0  0  0  0  0  0  0  0
  -20.7530  -29.6990   21.4960 H   0  0  0  0  0  0  0  0  0  0  0  0
  -17.8850  -27.9110   22.7040 C   0  0  0  0  0  0  0  0  0  0  0  0
  -20.4530  -28.1490   22.9030 C   0  0  0  0  0  3  0  0  0  0  0  0
  -20.5280  -26.7450   22.2580 C   0  0  0  0  0  2  0  0  0  0  0  0
  -19.3940  -26.4770   21.2640 C   0  0  0  0  0  2  0  0  0  0  0  0
  -18.0330  -26.5970   21.9560 C   0  0  0  0  0  2  0  0  0  0  0  0
  -19.0220  -28.6480   23.1330 C   0  0  0  0  0  0  0  0  0  0  0  0
  -18.8280  -29.8800   23.7950 C   0  0  0  0  0  3  0  0  0  0  0  0
  -17.5320  -30.3760   24.0280 C   0  0  0  0  0  3  0  0  0  0  0  0
  -16.4110  -29.6380   23.6130 C   0  0  0  0  0  3  0  0  0  0  0  0
  -16.5890  -28.4060   22.9570 C   0  0  0  0  0  3  0  0  0  0  0  0
  -25.7420  -32.3030   23.6200 C   0  0  0  0  0  3  0  0  0  0  0  0
  -25.4210  -33.6790   24.0310 N   0  0  0  0  0  0  0  0  0  0  0  0
  -25.7090  -34.7760   23.3180 C   0  0  0  0  0  0  0  0  0  0  0  0
  -26.3410  -34.7380   22.2600 O   0  0  0  0  0  0  0  0  0  0  0  0
  -24.8550  -33.7820   24.8610 H   0  0  0  0  0  0  0  0  0  0  0  0
  -23.9360  -36.5520   23.1360 C   0  0  0  0  0  1  0  0  0  0  0  0
  -25.2200  -36.1310   23.8680 C   0  0  0  0  0  3  0  0  0  0  0  0
  -27.3720  -37.0200   24.6480 C   0  0  0  0  0  1  0  0  0  0  0  0
  -26.2270  -37.2090   23.7610 N   0  0  0  0  0  0  0  0  0  0  0  0
  -25.8120  -38.1130   23.9690 H   0  0  0  0  0  0  0  0  0  0  0  0
  -26.2940  -31.4780   24.8470 C   0  0  1  0  0  0  0  0  0  0  0  0
  -25.2270  -31.1770   25.9260 C   0  0  0  0  0  1  0  0  0  0  0  0
  -26.8840  -30.1270   24.3810 C   0  0  0  0  0  1  0  0  0  0  0  0
  -27.4520  -32.2510   25.5210 C   0  0  0  0  0  1  0  0  0  0  0  0
  1  7  2  0
  1  2  1  0
  2  8  2  0
  3  1  1  0
  4  2  1  0
  5  3  1  0
  5 54  1  0
  5  6  1  0
  6  4  1  0
  9 12  1  0
 10  9  2  0
 10 13  1  0
 12 11  2  0
 12  6  1  0
 13 24  1  0
 13 14  2  0
 14 11  1  0
 14 15  1  0
 16 24  1  0
 17 22  1  0
 18 19  1  0
 18 17  1  0
 20 19  1  0
 20 29  1  0
 20 21  1  0
 22 16  1  0
 22 21  1  0
 23 16  2  0
 24 25  1  0
 26 27  2  0
 27 46  1  0
 28 27  1  0
 28 31  1  0
 29 30  1  0
 29 26  1  0
 30 28  2  0
 31 32  1  0
 32 33  2  0
 34 37  1  0
 34 33  1  0
 35 34  2  0
 36 35  1  0
 36 31  2  0
 37 38  1  0
 38 39  1  0
 39 40  2  0
 41 40  1  0
 41 45  1  0
 42 41  2  0
 43 38  2  0
 43 42  1  0
 44 43  1  0
 46 47  1  0
 47 50  1  0
 47 49  1  0
 48 46  2  0
 51 26  1  0
 51 52  1  0
 53 51  1  0
 55 57  1  0
 55 54  1  0
 56 67  2  0
 57 62  1  0
 58 66  1  0
 58 68  1  0
 59 65  1  0
 59 61  1  0
 60 66  1  0
 61 60  1  0
 62 61  2  0
 63 64  1  0
 63 57  2  0
 64 59  2  0
 65 58  1  0
 66 56  1  0
 68 70  2  0
 69 68  1  0
 71 69  1  0
 72 81  2  0
 72 77  1  0
 73 69  1  0
 73 77  1  0
 74 73  1  0
 75 76  1  0
 75 74  1  0
 76 72  1  0
 77 78  2  0
 78 79  1  0
 80 79  2  0
 81 80  1  0
 82 56  1  0
 82 83  1  0
 82 92  1  0
 83 86  1  0
 84 88  1  0
 84 83  1  0
 85 84  2  0
 88 87  1  0
 90 88  1  0
 90 91  1  0
 90 89  1  0
 92 95  1  1
 92 93  1  0
 94 92  1  0
M  ISO  4  16 100  24 100  54 101  55 101
M  END
>  <TORSDO>  (58) 
F 18

>  <SCORE>  (58) 
-13.839

>  <name>  (58) 
57

>  <ligand_id>  (58) 
57

>  <original_smiles>  (58) 
[H]c1c([H])c([H])c2c(c1[H])C([H])([H])C([H])([H])C([H])([H])C2([H])N([H])C(=O)C1([H])N(C(=O)C([H])(N([H])C(=O)C([H])(N([H])C([H])([H])[H])C([H])([H])[H])C(C([H])([H])[H])(C([H])([H])[H])C([H])([H])[H])C([H])([H])c2c([H])c(OC([H])([H])C3([H])N(c4c([H])c([H])c(N([H])C(=O)N5C([H])([H])C([H])([H])C([H])([H])C([H])(n6nc(-c7c([H])c([H])c(Oc8c([H])c([H])c(F)c([H])c8F)c([H])c7[H])c(C(=O)N([H])[H])c6N([H])[H])C5([H])[H])c(F)c4[H])C([H])([H])C(=O)C(=O)C3([H])[H])c([H])c([H])c2C1([H])[H]

>  <smiles>  (58) 
[H]c1c([H])c([H])c2c(c1[H])C([H])([H])C([H])([H])C([H])([H])C2([H])N([H])C(=O)C1([H])N(C(=O)C([H])(N([H])C(=O)C([H])(N([H])C([H])([H])[H])C([H])([H])[H])C(C([H])([H])[H])(C([H])([H])[H])C([H])([H])[H])C([H])([H])c2c([H])c(OC([H])([H])C3([H])N(c4c([H])c([H])c(N([H])C(=O)N5C([H])([H])C([H])([H])C([H])([H])C([H])(n6nc(-c7c([H])c([H])c(Oc8c([H])c([H])c(F)c([H])c8F)c([H])c7[H])c(C(=O)N([H])[H])c6N([H])[H])C5([H])[H])c(F)c4[H])C([H])([H])C(=O)C(=O)C3([H])[H])c([H])c([H])c2C1([H])[H]

$$$$
58:0:0
     RDKit          3D

 96104  0  0  1  0  0  0  0  0999 V2000
  -29.9700  -18.9760   20.0580 C   0  0  0  0  0  3  0  0  0  0  0  0
  -29.6470  -20.3680   20.0220 C   0  0  0  0  0  3  0  0  0  0  0  0
  -30.1280  -19.0730   22.4640 C   0  0  0  0  0  3  0  0  0  0  0  0
  -30.2260  -18.3010   21.2830 C   0  0  0  0  0  0  0  0  0  0  0  0
  -29.5880  -21.1380   21.2160 C   0  0  0  0  0  0  0  0  0  0  0  0
  -29.8370  -20.4590   22.4390 C   0  0  0  0  0  0  0  0  0  0  0  0
  -29.1860  -23.6040   20.4590 C   0  0  0  0  0  0  0  0  0  0  0  0
  -29.3510  -22.5610   21.3210 N   0  0  0  0  0  0  0  0  0  0  0  0
  -28.9570  -23.4480   19.2570 O   0  0  0  0  0  0  0  0  0  0  0  0
  -29.3610  -22.8670   22.2820 H   0  0  0  0  0  0  0  0  0  0  0  0
  -29.0410  -26.1640   20.6630 C   0  0  0  0  0  3  0  0  0  0  0  0
  -29.3150  -24.9160   21.1580 C   0  0  0  0  0  0  0  0  0  0  0  0
  -29.8210  -24.8870   22.6030 C   0  0  0  0  0  1  0  0  0  0  0  0
  -28.5540  -26.6010   19.4450 O   0  0  0  0  0  0  0  0  0  0  0  0
  -24.7260  -31.4370   23.1370 C   0  0  0  0  0  0  0  0  0  0  0  0
  -27.4230  -27.4010   19.5340 C   0  0  0  0  0  0  0  0  0  0  0  0
  -23.5100  -30.1010   21.4500 C   0  0  0  0  0  3  0  0  0  0  0  0
  -24.9620  -28.7910   19.8040 C   0  0  0  0  0  0  0  0  0  0  0  0
  -26.0010  -30.6260   21.1470 C   0  0  0  0  0  2  0  0  0  0  0  0
  -26.1280  -29.3230   20.3750 C   0  0  0  0  0  0  0  0  0  0  0  0
  -27.3640  -28.6360   20.2370 C   0  0  0  0  0  3  0  0  0  0  0  0
  -26.2440  -26.9070   18.9460 C   0  0  0  0  0  3  0  0  0  0  0  0
  -25.0190  -27.5860   19.0830 C   0  0  0  0  0  3  0  0  0  0  0  0
  -23.6740  -29.5600   20.0040 C   0  0  0  0  0  2  0  0  0  0  0  0
  -24.7660  -30.7330   21.9680 N   0  0  0  0  0  0  0  0  0  0  0  0
  -23.6650  -31.5930   23.7570 O   0  0  0  0  0  0  0  0  0  0  0  0
  -22.9820  -28.9620   22.3520 C   0  0  0  0  0  0  0  0  0  0  0  0
  -21.6950  -28.6100   22.1850 N   0  0  0  0  0  0  0  0  0  0  0  0
  -23.7250  -28.4010   23.1600 O   0  0  0  0  0  0  0  0  0  0  0  0
  -21.1460  -29.1310   21.5150 H   0  0  0  0  0  0  0  0  0  0  0  0
  -18.5790  -26.7880   22.3690 C   0  0  0  0  0  0  0  0  0  0  0  0
  -20.9970  -27.5370   22.8940 C   0  0  0  0  0  3  0  0  0  0  0  0
  -21.4300  -26.1480   22.3710 C   0  0  0  0  0  2  0  0  0  0  0  0
  -20.5260  -25.6200   21.2510 C   0  0  0  0  0  2  0  0  0  0  0  0
  -19.0810  -25.4980   21.7430 C   0  0  0  0  0  2  0  0  0  0  0  0
  -19.4800  -27.7540   22.8930 C   0  0  0  0  0  0  0  0  0  0  0  0
  -18.9630  -28.9530   23.4270 C   0  0  0  0  0  3  0  0  0  0  0  0
  -17.5760  -29.1960   23.4440 C   0  0  0  0  0  3  0  0  0  0  0  0
  -16.6890  -28.2290   22.9390 C   0  0  0  0  0  3  0  0  0  0  0  0
  -17.1890  -27.0270   22.4090 C   0  0  0  0  0  3  0  0  0  0  0  0
  -26.0060  -32.0960   23.7370 C   0  0  0  0  0  3  0  0  0  0  0  0
  -26.6140  -31.2870   24.9470 C   0  0  1  0  0  0  0  0  0  0  0  0
  -25.5830  -30.9610   26.0530 C   0  0  0  0  0  1  0  0  0  0  0  0
  -27.2230  -29.9520   24.4610 C   0  0  0  0  0  1  0  0  0  0  0  0
  -27.7680  -32.0910   25.5880 C   0  0  0  0  0  1  0  0  0  0  0  0
  -25.6490  -33.4590   24.1540 N   0  0  0  0  0  0  0  0  0  0  0  0
  -25.9370  -34.5670   23.4600 C   0  0  0  0  0  0  0  0  0  0  0  0
  -26.6040  -34.5530   22.4210 O   0  0  0  0  0  0  0  0  0  0  0  0
  -25.0530  -33.5430   24.9650 H   0  0  0  0  0  0  0  0  0  0  0  0
  -24.1450  -36.3140   23.2160 C   0  0  0  0  0  1  0  0  0  0  0  0
  -25.4010  -35.9050   24.0030 C   0  0  0  0  0  3  0  0  0  0  0  0
  -27.5040  -36.8100   24.8910 C   0  0  0  0  0  1  0  0  0  0  0  0
  -26.3960  -36.9990   23.9570 N   0  0  0  0  0  0  0  0  0  0  0  0
  -25.9580  -37.8930   24.1610 H   0  0  0  0  0  0  0  0  0  0  0  0
  -29.8170  -21.1590   23.6510 N   0  0  0  0  0  0  0  0  0  0  0  0
  -30.0540  -20.6160   24.4760 H   0  0  0  0  0  0  0  0  0  0  0  0
  -30.3000  -22.0490   23.6810 H   0  0  0  0  0  0  0  0  0  0  0  0
  -30.6410  -16.8030   21.4250 C   0  0  0  0  0  2  0  0  0  0  0  0
  -31.6340  -14.8510   20.1610 C   0  0  0  0  0  0  0  0  0  0  0  0
  -31.2340  -12.6460   19.1100 C   0  0  0  0  0  2  0  0  0  0  0  0
  -30.2820  -12.8310   17.9110 C   0  0  0  0  0  2  0  0  0  0  0  0
  -28.8130  -12.7550   18.3760 C   0  0  0  0  0  2  0  0  0  0  0  0
  -28.5260  -13.6490   19.6140 C   0  0  0  0  0  3  0  0  0  0  0  0
  -29.5980  -13.4500   20.7080 C   0  0  0  0  0  2  0  0  0  0  0  0
  -30.9060  -13.6970   20.0910 N   0  0  0  0  0  0  0  0  0  0  0  0
  -32.7970  -14.9040   19.7650 O   0  0  0  0  0  0  0  0  0  0  0  0
  -30.9340  -16.0160   20.2080 N   0  0  0  0  0  0  0  0  0  0  0  0
  -31.2880  -16.6380   19.4980 H   0  0  0  0  0  0  0  0  0  0  0  0
  -26.2210  -14.3790   20.4840 C   0  0  0  0  0  0  0  0  0  0  0  0
  -25.1050  -13.6670   20.8300 C   0  0  0  0  0  0  0  0  0  0  0  0
  -25.4480  -12.2900   20.6650 C   0  0  0  0  0  0  0  0  0  0  0  0
  -27.1760  -13.4390   20.1290 N   0  0  0  0  0  0  0  0  0  0  0  0
  -26.7180  -12.1720   20.2960 N   0  0  0  0  0  0  0  0  0  0  0  0
  -24.6240  -11.0790   20.7750 C   0  0  0  0  0  0  0  0  0  0  0  0
  -25.0020  -10.0020   21.6070 C   0  0  0  0  0  3  0  0  0  0  0  0
  -24.1820   -8.8560   21.7110 C   0  0  0  0  0  3  0  0  0  0  0  0
  -22.9700   -8.7850   20.9830 C   0  0  0  0  0  0  0  0  0  0  0  0
  -22.6110   -9.8510   20.1400 C   0  0  0  0  0  3  0  0  0  0  0  0
  -23.4310  -10.9860   20.0340 C   0  0  0  0  0  3  0  0  0  0  0  0
  -22.1250   -7.7010   21.0000 O   0  0  0  0  0  0  0  0  0  0  0  0
  -22.0110   -6.8940   22.1040 C   0  0  0  0  0  0  0  0  0  0  0  0
  -21.6320   -7.4050   23.3650 C   0  0  0  0  0  3  0  0  0  0  0  0
  -21.4610   -6.5300   24.4570 C   0  0  0  0  0  3  0  0  0  0  0  0
  -21.6600   -5.1470   24.2880 C   0  0  0  0  0  0  0  0  0  0  0  0
  -22.0320   -4.6360   23.0330 C   0  0  0  0  0  3  0  0  0  0  0  0
  -22.2050   -5.5080   21.9430 C   0  0  0  0  0  0  0  0  0  0  0  0
  -22.5440   -5.0070   20.7320 F   0  0  0  0  0  0  0  0  0  0  0  0
  -21.4870   -4.3050   25.3340 F   0  0  0  0  0  0  0  0  0  0  0  0
  -23.7650  -14.2320   21.2030 C   0  0  0  0  0  0  0  0  0  0  0  0
  -23.0180  -13.5370   22.0540 N   0  0  0  0  0  0  0  0  0  0  0  0
  -23.3890  -15.3230   20.7760 O   0  0  0  0  0  0  0  0  0  0  0  0
  -23.3290  -12.6530   22.4250 H   0  0  0  0  0  0  0  0  0  0  0  0
  -22.1220  -13.9020   22.3440 H   0  0  0  0  0  0  0  0  0  0  0  0
  -26.4940  -15.7420   20.4210 N   0  0  0  0  0  0  0  0  0  0  0  0
  -25.7910  -16.4440   20.6230 H   0  0  0  0  0  0  0  0  0  0  0  0
  -27.3740  -16.1390   20.1150 H   0  0  0  0  0  0  0  0  0  0  0  0
  1  4  1  0
  2  1  2  0
  2  5  1  0
  4 58  1  0
  4  3  2  0
  5  8  1  0
  5  6  2  0
  6  3  1  0
  6 55  1  0
  7 12  1  0
  7  8  1  0
  8 10  1  0
  9  7  2  0
 11 12  2  0
 12 13  1  0
 14 16  1  0
 14 11  1  0
 15 26  2  0
 16 21  1  0
 17 25  1  0
 17 27  1  0
 18 24  1  0
 18 20  1  0
 19 25  1  0
 20 19  1  0
 21 20  2  0
 22 23  1  0
 22 16  2  0
 23 18  2  0
 24 17  1  0
 25 15  1  0
 27 29  2  0
 28 27  1  0
 30 28  1  0
 31 40  2  0
 31 36  1  0
 32 28  1  0
 33 32  1  0
 34 35  1  0
 34 33  1  0
 35 31  1  0
 36 32  1  0
 36 37  2  0
 37 38  1  0
 39 38  2  0
 40 39  1  0
 41 15  1  0
 41 46  1  0
 41 42  1  0
 42 45  1  1
 42 43  1  0
 44 42  1  0
 46 49  1  0
 47 51  1  0
 47 46  1  0
 48 47  2  0
 51 50  1  0
 53 51  1  0
 53 54  1  0
 53 52  1  0
 55 57  1  0
 55 56  1  0
 59 67  1  0
 60 65  1  0
 61 62  1  0
 61 60  1  0
 63 62  1  0
 63 72  1  0
 63 64  1  0
 65 59  1  0
 65 64  1  0
 66 59  2  0
 67 58  1  0
 68 67  1  0
 69 70  2  0
 70 89  1  0
 71 74  1  0
 71 70  1  0
 72 73  1  0
 72 69  1  0
 73 71  2  0
 74 75  1  0
 75 76  2  0
 77 80  1  0
 77 76  1  0
 78 77  2  0
 79 78  1  0
 79 74  2  0
 80 81  1  0
 81 82  1  0
 82 83  2  0
 84 83  1  0
 84 88  1  0
 85 84  2  0
 86 81  2  0
 86 85  1  0
 87 86  1  0
 89 90  1  0
 90 93  1  0
 90 92  1  0
 91 89  2  0
 94 69  1  0
 94 95  1  0
 96 94  1  0
M  ISO  4  11 101  14 101  59 100  67 100
M  END
>  <TORSDO>  (59) 
F 20

>  <SCORE>  (59) 
-10.559

>  <name>  (59) 
58

>  <ligand_id>  (59) 
58

>  <original_smiles>  (59) 
[H]C(Oc1c([H])c([H])c2c(c1[H])C([H])([H])N(C(=O)C([H])(N([H])C(=O)C([H])(N([H])C([H])([H])[H])C([H])([H])[H])C(C([H])([H])[H])(C([H])([H])[H])C([H])([H])[H])C([H])(C(=O)N([H])C1([H])c3c([H])c([H])c([H])c([H])c3C([H])([H])C([H])([H])C1([H])[H])C2([H])[H])=C(C(=O)N([H])c1c([H])c([H])c(C([H])([H])N([H])C(=O)N2C([H])([H])C([H])([H])C([H])([H])C([H])(n3nc(-c4c([H])c([H])c(Oc5c([H])c([H])c(F)c([H])c5F)c([H])c4[H])c(C(=O)N([H])[H])c3N([H])[H])C2([H])[H])c([H])c1N([H])[H])C([H])([H])[H]

>  <smiles>  (59) 
[H]C(Oc1c([H])c([H])c2c(c1[H])C([H])([H])N(C(=O)C([H])(N([H])C(=O)C([H])(N([H])C([H])([H])[H])C([H])([H])[H])C(C([H])([H])[H])(C([H])([H])[H])C([H])([H])[H])C([H])(C(=O)N([H])C1([H])c3c([H])c([H])c([H])c([H])c3C([H])([H])C([H])([H])C1([H])[H])C2([H])[H])=C(C(=O)N([H])c1c([H])c([H])c(C([H])([H])N([H])C(=O)N2C([H])([H])C([H])([H])C([H])([H])C([H])(n3nc(-c4c([H])c([H])c(Oc5c([H])c([H])c(F)c([H])c5F)c([H])c4[H])c(C(=O)N([H])[H])c3N([H])[H])C2([H])[H])c([H])c1N([H])[H])C([H])([H])[H]

$$$$
59:0:0
     RDKit          3D

 91100  0  0  1  0  0  0  0  0999 V2000
  -28.3910  -23.7430   20.5770 C   0  0  0  0  0  0  0  0  0  0  0  0
  -27.7710  -22.8130   21.5440 C   0  0  0  0  0  0  0  0  0  0  0  0
  -28.0380  -25.1130   20.6640 C   0  0  0  0  0  3  0  0  0  0  0  0
  -29.2930  -22.7350   19.7380 C   0  0  0  0  0  2  0  0  0  0  0  0
  -28.2470  -21.3600   21.3870 C   0  0  0  0  0  2  0  0  0  0  0  0
  -29.1710  -21.2950   20.2590 N   0  0  0  0  0  0  0  0  0  0  0  0
  -26.9490  -23.1150   22.4150 O   0  0  0  0  0  0  0  0  0  0  0  0
  -29.6290  -18.6720   20.5390 C   0  0  0  0  0  3  0  0  0  0  0  0
  -30.4330  -19.7560   18.6730 C   0  0  0  0  0  3  0  0  0  0  0  0
  -29.7280  -19.9780   19.8280 C   0  0  0  0  0  0  0  0  0  0  0  0
  -30.2350  -17.5110   19.9710 C   0  0  0  0  0  0  0  0  0  0  0  0
  -30.9310  -18.0670   18.4550 S   0  0  0  0  0  0  0  0  0  0  0  0
  -30.9540  -15.0330   19.8700 C   0  0  0  0  0  0  0  0  0  0  0  0
  -30.7110  -12.7600   18.7910 C   0  0  0  0  0  2  0  0  0  0  0  0
  -29.6890  -12.8070   17.6320 C   0  0  0  0  0  2  0  0  0  0  0  0
  -28.2560  -12.5870   18.1530 C   0  0  0  0  0  2  0  0  0  0  0  0
  -27.9520  -13.4460   19.4070 C   0  0  0  0  0  3  0  0  0  0  0  0
  -29.0820  -13.3460   20.4480 C   0  0  0  0  0  2  0  0  0  0  0  0
  -30.3250  -13.7920   19.7950 N   0  0  0  0  0  0  0  0  0  0  0  0
  -32.0640  -15.1430   19.3360 O   0  0  0  0  0  0  0  0  0  0  0  0
  -30.0660  -16.0530   21.8930 C   0  0  0  0  0  1  0  0  0  0  0  0
  -30.3210  -16.1650   20.4490 N   0  0  0  0  0  0  0  0  0  0  0  0
  -25.6280  -13.9940   20.3370 C   0  0  0  0  0  0  0  0  0  0  0  0
  -24.5950  -13.2020   20.7590 C   0  0  0  0  0  0  0  0  0  0  0  0
  -25.0580  -11.8550   20.6440 C   0  0  0  0  0  0  0  0  0  0  0  0
  -26.6510  -13.1290   19.9870 N   0  0  0  0  0  0  0  0  0  0  0  0
  -26.3210  -11.8350   20.2350 N   0  0  0  0  0  0  0  0  0  0  0  0
  -24.3500  -10.5830   20.8450 C   0  0  0  0  0  0  0  0  0  0  0  0
  -24.7720   -9.6460   21.8120 C   0  0  0  0  0  3  0  0  0  0  0  0
  -24.0640   -8.4400   21.9980 C   0  0  0  0  0  3  0  0  0  0  0  0
  -22.9180   -8.1620   21.2140 C   0  0  0  0  0  0  0  0  0  0  0  0
  -22.5140   -9.0890   20.2380 C   0  0  0  0  0  3  0  0  0  0  0  0
  -23.2240  -10.2860   20.0500 C   0  0  0  0  0  3  0  0  0  0  0  0
  -22.1810   -7.0060   21.3070 O   0  0  0  0  0  0  0  0  0  0  0  0
  -21.9940   -6.3660   22.5060 C   0  0  0  0  0  0  0  0  0  0  0  0
  -21.3950   -7.0110   23.6100 C   0  0  0  0  0  3  0  0  0  0  0  0
  -21.1590   -6.2940   24.8000 C   0  0  0  0  0  3  0  0  0  0  0  0
  -21.5120   -4.9340   24.8880 C   0  0  0  0  0  0  0  0  0  0  0  0
  -22.1030   -4.2890   23.7870 C   0  0  0  0  0  3  0  0  0  0  0  0
  -22.3410   -5.0020   22.5990 C   0  0  0  0  0  0  0  0  0  0  0  0
  -22.8910   -4.3700   21.5350 F   0  0  0  0  0  0  0  0  0  0  0  0
  -21.2780   -4.2440   26.0280 F   0  0  0  0  0  0  0  0  0  0  0  0
  -23.2220  -13.6630   21.1520 C   0  0  0  0  0  0  0  0  0  0  0  0
  -22.5690  -12.9440   22.0570 N   0  0  0  0  0  0  0  0  0  0  0  0
  -22.7390  -14.6970   20.6910 O   0  0  0  0  0  0  0  0  0  0  0  0
  -22.9740  -12.1060   22.4500 H   0  0  0  0  0  0  0  0  0  0  0  0
  -21.6510  -13.2340   22.3620 H   0  0  0  0  0  0  0  0  0  0  0  0
  -25.7790  -15.3710   20.2020 N   0  0  0  0  0  0  0  0  0  0  0  0
  -25.0280  -16.0220   20.4040 H   0  0  0  0  0  0  0  0  0  0  0  0
  -26.6130  -15.8250   19.8510 H   0  0  0  0  0  0  0  0  0  0  0  0
  -28.3480  -26.3690   20.0360 O   0  0  0  0  0  0  0  0  0  0  0  0
  -24.7080  -31.9130   23.1760 C   0  0  0  0  0  0  0  0  0  0  0  0
  -27.3140  -27.3510   20.0230 C   0  0  0  0  0  0  0  0  0  0  0  0
  -23.5110  -30.5520   21.5030 C   0  0  0  0  0  3  0  0  0  0  0  0
  -24.9680  -29.0300   20.0380 C   0  0  0  0  0  0  0  0  0  0  0  0
  -26.0580  -30.8530   21.3380 C   0  0  0  0  0  2  0  0  0  0  0  0
  -26.1430  -29.4840   20.6550 C   0  0  0  0  0  0  0  0  0  0  0  0
  -27.3210  -28.6580   20.6370 C   0  0  0  0  0  3  0  0  0  0  0  0
  -26.1170  -26.9810   19.3750 C   0  0  0  0  0  3  0  0  0  0  0  0
  -24.9620  -27.7880   19.3850 C   0  0  0  0  0  3  0  0  0  0  0  0
  -23.7320  -29.9100   20.1080 C   0  0  0  0  0  2  0  0  0  0  0  0
  -24.7780  -31.1240   22.0610 N   0  0  0  0  0  0  0  0  0  0  0  0
  -23.6220  -32.1790   23.7130 O   0  0  0  0  0  0  0  0  0  0  0  0
  -22.8410  -29.5160   22.4390 C   0  0  0  0  0  0  0  0  0  0  0  0
  -21.5140  -29.3430   22.3090 N   0  0  0  0  0  0  0  0  0  0  0  0
  -23.5170  -28.8720   23.2450 O   0  0  0  0  0  0  0  0  0  0  0  0
  -21.0260  -29.9150   21.6330 H   0  0  0  0  0  0  0  0  0  0  0  0
  -18.1380  -28.1200   22.7790 C   0  0  0  0  0  0  0  0  0  0  0  0
  -20.6960  -28.3860   23.0580 C   0  0  0  0  0  3  0  0  0  0  0  0
  -20.8040  -26.9670   22.4520 C   0  0  0  0  0  2  0  0  0  0  0  0
  -19.7050  -26.6620   21.4290 C   0  0  0  0  0  2  0  0  0  0  0  0
  -18.3210  -26.7870   22.0730 C   0  0  0  0  0  2  0  0  0  0  0  0
  -19.2520  -28.8780   23.2270 C   0  0  0  0  0  0  0  0  0  0  0  0
  -19.0260  -30.1260   23.8480 C   0  0  0  0  0  3  0  0  0  0  0  0
  -17.7190  -30.6160   24.0240 C   0  0  0  0  0  3  0  0  0  0  0  0
  -16.6190  -29.8560   23.5920 C   0  0  0  0  0  3  0  0  0  0  0  0
  -16.8290  -28.6090   22.9740 C   0  0  0  0  0  3  0  0  0  0  0  0
  -25.9850  -32.5360   23.8160 C   0  0  0  0  0  3  0  0  0  0  0  0
  -25.6680  -33.9240   24.1860 N   0  0  0  0  0  0  0  0  0  0  0  0
  -25.9990  -35.0020   23.4600 C   0  0  0  0  0  0  0  0  0  0  0  0
  -26.6690  -34.9310   22.4270 O   0  0  0  0  0  0  0  0  0  0  0  0
  -25.0720  -34.0520   24.9890 H   0  0  0  0  0  0  0  0  0  0  0  0
  -24.2660  -36.8020   23.1600 C   0  0  0  0  0  1  0  0  0  0  0  0
  -25.5070  -36.3740   23.9600 C   0  0  0  0  0  3  0  0  0  0  0  0
  -27.6380  -37.2400   24.8210 C   0  0  0  0  0  1  0  0  0  0  0  0
  -26.5370  -37.4330   23.8810 N   0  0  0  0  0  0  0  0  0  0  0  0
  -26.1290  -38.3480   24.0550 H   0  0  0  0  0  0  0  0  0  0  0  0
  -26.5030  -31.7340   25.0740 C   0  0  1  0  0  0  0  0  0  0  0  0
  -25.4090  -31.4650   26.1330 C   0  0  0  0  0  1  0  0  0  0  0  0
  -27.0930  -30.3700   24.6520 C   0  0  0  0  0  1  0  0  0  0  0  0
  -27.6490  -32.5170   25.7580 C   0  0  0  0  0  1  0  0  0  0  0  0
  1  3  2  0
  1  2  1  0
  2  7  2  0
  4  6  1  0
  4  1  1  0
  5  2  1  0
  6  5  1  0
  9 10  2  0
 10  6  1  0
 10  8  1  0
 11 22  1  0
 11  8  2  0
 12  9  1  0
 12 11  1  0
 13 22  1  0
 14 19  1  0
 15 16  1  0
 15 14  1  0
 17 16  1  0
 17 26  1  0
 17 18  1  0
 19 13  1  0
 19 18  1  0
 20 13  2  0
 22 21  1  0
 23 24  2  0
 24 43  1  0
 25 24  1  0
 25 28  1  0
 26 27  1  0
 26 23  1  0
 27 25  2  0
 28 29  1  0
 29 30  2  0
 31 34  1  0
 31 30  1  0
 32 31  2  0
 33 32  1  0
 33 28  2  0
 34 35  1  0
 35 40  2  0
 35 36  1  0
 36 37  2  0
 37 38  1  0
 38 42  1  0
 39 38  2  0
 40 39  1  0
 41 40  1  0
 43 44  1  0
 44 47  1  0
 44 46  1  0
 45 43  2  0
 48 23  1  0
 48 49  1  0
 50 48  1  0
 51  3  1  0
 52 63  2  0
 53 51  1  0
 53 58  1  0
 54 62  1  0
 54 64  1  0
 55 61  1  0
 55 57  1  0
 56 62  1  0
 57 56  1  0
 58 57  2  0
 59 60  1  0
 59 53  2  0
 60 55  2  0
 61 54  1  0
 62 52  1  0
 64 66  2  0
 65 64  1  0
 67 65  1  0
 68 77  2  0
 68 73  1  0
 69 65  1  0
 69 73  1  0
 70 69  1  0
 71 72  1  0
 71 70  1  0
 72 68  1  0
 73 74  2  0
 74 75  1  0
 76 75  2  0
 77 76  1  0
 78 52  1  0
 78 79  1  0
 78 88  1  0
 79 82  1  0
 80 84  1  0
 80 79  1  0
 81 80  2  0
 84 83  1  0
 86 84  1  0
 86 87  1  0
 86 85  1  0
 88 91  1  1
 88 89  1  0
 90 88  1  0
M  ISO  4   3 101  13 100  22 100  51 101
M  END
>  <TORSDO>  (60) 
F 17

>  <SCORE>  (60) 
-13.858

>  <name>  (60) 
59

>  <ligand_id>  (60) 
59

>  <original_smiles>  (60) 
[H]C(Oc1c([H])c([H])c2c(c1[H])C([H])([H])N(C(=O)C([H])(N([H])C(=O)C([H])(N([H])C([H])([H])[H])C([H])([H])[H])C(C([H])([H])[H])(C([H])([H])[H])C([H])([H])[H])C([H])(C(=O)N([H])C1([H])c3c([H])c([H])c([H])c([H])c3C([H])([H])C([H])([H])C1([H])[H])C2([H])[H])=C1C(=O)C([H])([H])N(c2c([H])sc(N(C(=O)N3C([H])([H])C([H])([H])C([H])([H])C([H])(n4nc(-c5c([H])c([H])c(Oc6c([H])c([H])c(F)c([H])c6F)c([H])c5[H])c(C(=O)N([H])[H])c4N([H])[H])C3([H])[H])C([H])([H])[H])c2[H])C1([H])[H]

>  <smiles>  (60) 
[H]C(Oc1c([H])c([H])c2c(c1[H])C([H])([H])N(C(=O)C([H])(N([H])C(=O)C([H])(N([H])C([H])([H])[H])C([H])([H])[H])C(C([H])([H])[H])(C([H])([H])[H])C([H])([H])[H])C([H])(C(=O)N([H])C1([H])c3c([H])c([H])c([H])c([H])c3C([H])([H])C([H])([H])C1([H])[H])C2([H])[H])=C1C(=O)C([H])([H])N(c2c([H])sc(N(C(=O)N3C([H])([H])C([H])([H])C([H])([H])C([H])(n4nc(-c5c([H])c([H])c(Oc6c([H])c([H])c(F)c([H])c6F)c([H])c5[H])c(C(=O)N([H])[H])c4N([H])[H])C3([H])[H])C([H])([H])[H])c2[H])C1([H])[H]

$$$$
60:0:0
     RDKit          3D

 92100  0  0  1  0  0  0  0  0999 V2000
  -29.8510  -19.6520   18.9920 C   0  0  0  0  0  3  0  0  0  0  0  0
  -30.0900  -18.2380   19.2870 C   0  0  0  0  0  3  0  0  0  0  0  0
  -30.1640  -20.2100   21.2360 C   0  0  0  0  0  3  0  0  0  0  0  0
  -30.3750  -18.8000   21.5580 C   0  0  0  0  0  0  0  0  0  0  0  0
  -29.8830  -20.7360   19.9440 C   0  0  0  0  0  0  0  0  0  0  0  0
  -30.3780  -17.6910   20.5880 C   0  0  0  0  0  0  0  0  0  0  0  0
  -31.1880  -15.0690   20.1870 C   0  0  0  0  0  0  0  0  0  0  0  0
  -31.0040  -12.7170   19.2170 C   0  0  0  0  0  2  0  0  0  0  0  0
  -30.0410  -12.6840   18.0080 C   0  0  0  0  0  2  0  0  0  0  0  0
  -28.5870  -12.4860   18.4750 C   0  0  0  0  0  2  0  0  0  0  0  0
  -28.2220  -13.4090   19.6650 C   0  0  0  0  0  3  0  0  0  0  0  0
  -29.3040  -13.3930   20.7640 C   0  0  0  0  0  2  0  0  0  0  0  0
  -30.5730  -13.8080   20.1450 N   0  0  0  0  0  0  0  0  0  0  0  0
  -32.2910  -15.1640   19.6380 O   0  0  0  0  0  0  0  0  0  0  0  0
  -30.7990  -15.8440   22.3470 C   0  0  0  0  0  1  0  0  0  0  0  0
  -30.6390  -16.1730   20.9160 N   0  0  0  0  0  0  0  0  0  0  0  0
  -25.8860  -14.0120   20.5190 C   0  0  0  0  0  0  0  0  0  0  0  0
  -24.8170  -13.2480   20.8970 C   0  0  0  0  0  0  0  0  0  0  0  0
  -25.2430  -11.8890   20.7910 C   0  0  0  0  0  0  0  0  0  0  0  0
  -26.8960  -13.1190   20.1990 N   0  0  0  0  0  0  0  0  0  0  0  0
  -26.5210  -11.8330   20.4270 N   0  0  0  0  0  0  0  0  0  0  0  0
  -24.4900  -10.6380   20.9570 C   0  0  0  0  0  0  0  0  0  0  0  0
  -24.8640   -9.6730   21.9170 C   0  0  0  0  0  3  0  0  0  0  0  0
  -24.1120   -8.4870   22.0730 C   0  0  0  0  0  3  0  0  0  0  0  0
  -22.9720   -8.2600   21.2670 C   0  0  0  0  0  0  0  0  0  0  0  0
  -22.6170   -9.2140   20.2970 C   0  0  0  0  0  3  0  0  0  0  0  0
  -23.3680  -10.3900   20.1400 C   0  0  0  0  0  3  0  0  0  0  0  0
  -22.1970   -7.1280   21.3300 O   0  0  0  0  0  0  0  0  0  0  0  0
  -21.9820   -6.4670   22.5130 C   0  0  0  0  0  0  0  0  0  0  0  0
  -21.4050   -7.1070   23.6310 C   0  0  0  0  0  3  0  0  0  0  0  0
  -21.1390   -6.3720   24.8030 C   0  0  0  0  0  3  0  0  0  0  0  0
  -21.4370   -4.9970   24.8560 C   0  0  0  0  0  0  0  0  0  0  0  0
  -22.0070   -4.3570   23.7420 C   0  0  0  0  0  3  0  0  0  0  0  0
  -22.2760   -5.0890   22.5720 C   0  0  0  0  0  0  0  0  0  0  0  0
  -22.8040   -4.4620   21.4940 F   0  0  0  0  0  0  0  0  0  0  0  0
  -21.1750   -4.2900   25.9790 F   0  0  0  0  0  0  0  0  0  0  0  0
  -23.4450  -13.7480   21.2430 C   0  0  0  0  0  0  0  0  0  0  0  0
  -22.7390  -13.0470   22.1220 N   0  0  0  0  0  0  0  0  0  0  0  0
  -23.0090  -14.7960   20.7680 O   0  0  0  0  0  0  0  0  0  0  0  0
  -23.1060  -12.1990   22.5300 H   0  0  0  0  0  0  0  0  0  0  0  0
  -21.8200  -13.3640   22.3950 H   0  0  0  0  0  0  0  0  0  0  0  0
  -26.0800  -15.3840   20.3980 N   0  0  0  0  0  0  0  0  0  0  0  0
  -25.3400  -16.0540   20.5760 H   0  0  0  0  0  0  0  0  0  0  0  0
  -26.9390  -15.8170   20.0820 H   0  0  0  0  0  0  0  0  0  0  0  0
  -29.5190  -23.4650   20.2450 C   0  0  0  0  0  0  0  0  0  0  0  0
  -29.5530  -22.2000   19.5910 N   0  0  0  0  0  0  0  0  0  0  0  0
  -29.9480  -23.5640   21.3970 O   0  0  0  0  0  0  0  0  0  0  0  0
  -29.2720  -22.3060   18.6260 H   0  0  0  0  0  0  0  0  0  0  0  0
  -28.8860  -24.8330   19.5440 C   0  0  0  0  0  2  0  0  0  0  0  0
  -28.9060  -26.2620   20.1810 O   0  0  0  0  0  0  0  0  0  0  0  0
  -24.9440  -31.6390   23.3090 C   0  0  0  0  0  0  0  0  0  0  0  0
  -27.8170  -27.2130   20.0960 C   0  0  0  0  0  0  0  0  0  0  0  0
  -23.8610  -30.2930   21.5530 C   0  0  0  0  0  3  0  0  0  0  0  0
  -25.4200  -28.8690   20.0900 C   0  0  0  0  0  0  0  0  0  0  0  0
  -26.4070  -30.6650   21.5000 C   0  0  0  0  0  2  0  0  0  0  0  0
  -26.5580  -29.3190   20.7690 C   0  0  0  0  0  0  0  0  0  0  0  0
  -27.7530  -28.5040   20.7640 C   0  0  0  0  0  3  0  0  0  0  0  0
  -26.6510  -26.8820   19.3670 C   0  0  0  0  0  3  0  0  0  0  0  0
  -25.4790  -27.6650   19.3780 C   0  0  0  0  0  3  0  0  0  0  0  0
  -24.1570  -29.7140   20.1450 C   0  0  0  0  0  2  0  0  0  0  0  0
  -25.0880  -30.8870   22.1760 N   0  0  0  0  0  0  0  0  0  0  0  0
  -23.8290  -31.8490   23.8120 O   0  0  0  0  0  0  0  0  0  0  0  0
  -23.1970  -29.2030   22.4300 C   0  0  0  0  0  0  0  0  0  0  0  0
  -21.8880  -28.9670   22.2300 N   0  0  0  0  0  0  0  0  0  0  0  0
  -23.8620  -28.5740   23.2570 O   0  0  0  0  0  0  0  0  0  0  0  0
  -21.4050  -29.5300   21.5430 H   0  0  0  0  0  0  0  0  0  0  0  0
  -18.5600  -27.5590   22.5060 C   0  0  0  0  0  0  0  0  0  0  0  0
  -21.0840  -27.9530   22.9160 C   0  0  0  0  0  3  0  0  0  0  0  0
  -21.2970  -26.5560   22.2910 C   0  0  0  0  0  2  0  0  0  0  0  0
  -20.2670  -26.2160   21.2080 C   0  0  0  0  0  2  0  0  0  0  0  0
  -18.8480  -26.2540   21.7830 C   0  0  0  0  0  2  0  0  0  0  0  0
  -19.6100  -28.3640   23.0250 C   0  0  0  0  0  0  0  0  0  0  0  0
  -19.2860  -29.5820   23.6600 C   0  0  0  0  0  3  0  0  0  0  0  0
  -17.9470  -29.9990   23.7810 C   0  0  0  0  0  3  0  0  0  0  0  0
  -16.9120  -29.1930   23.2760 C   0  0  0  0  0  3  0  0  0  0  0  0
  -17.2200  -27.9740   22.6460 C   0  0  0  0  0  3  0  0  0  0  0  0
  -26.1720  -32.2910   24.0120 C   0  0  0  0  0  3  0  0  0  0  0  0
  -26.6390  -31.5020   25.2990 C   0  0  1  0  0  0  0  0  0  0  0  0
  -25.4960  -31.2070   26.2970 C   0  0  0  0  0  1  0  0  0  0  0  0
  -27.2850  -30.1500   24.9140 C   0  0  0  0  0  1  0  0  0  0  0  0
  -27.7260  -32.3130   26.0430 C   0  0  0  0  0  1  0  0  0  0  0  0
  -25.8050  -33.6710   24.3650 N   0  0  0  0  0  0  0  0  0  0  0  0
  -26.1350  -34.7580   23.6540 C   0  0  0  0  0  0  0  0  0  0  0  0
  -26.8480  -34.7040   22.6490 O   0  0  0  0  0  0  0  0  0  0  0  0
  -25.1770  -33.7840   25.1480 H   0  0  0  0  0  0  0  0  0  0  0  0
  -24.3730  -36.5160   23.2790 C   0  0  0  0  0  1  0  0  0  0  0  0
  -25.5890  -36.1190   24.1300 C   0  0  0  0  0  3  0  0  0  0  0  0
  -27.6600  -37.0380   25.0800 C   0  0  0  0  0  1  0  0  0  0  0  0
  -26.5950  -37.2030   24.0930 N   0  0  0  0  0  0  0  0  0  0  0  0
  -26.1570  -38.1080   24.2470 H   0  0  0  0  0  0  0  0  0  0  0  0
  -31.4830  -19.2350   23.7470 C   0  0  0  0  0  2  0  0  0  0  0  0
  -30.5500  -18.6090   23.0070 C   0  0  0  0  0  3  0  0  0  0  0  0
  1  2  2  0
  1  5  1  0
  2  6  1  0
  3  4  1  0
  4 92  1  0
  5  3  2  0
  6 16  1  0
  6  4  2  0
  7 16  1  0
  8 13  1  0
  9 10  1  0
  9  8  1  0
 11 10  1  0
 11 20  1  0
 11 12  1  0
 13  7  1  0
 13 12  1  0
 14  7  2  0
 16 15  1  0
 17 18  2  0
 18 37  1  0
 19 18  1  0
 19 22  1  0
 20 21  1  0
 20 17  1  0
 21 19  2  0
 22 23  1  0
 23 24  2  0
 25 28  1  0
 25 24  1  0
 26 25  2  0
 27 26  1  0
 27 22  2  0
 28 29  1  0
 29 34  2  0
 29 30  1  0
 30 31  2  0
 31 32  1  0
 32 36  1  0
 33 32  2  0
 34 33  1  0
 35 34  1  0
 37 38  1  0
 38 41  1  0
 38 40  1  0
 39 37  2  0
 42 17  1  0
 42 43  1  0
 44 42  1  0
 45 47  2  0
 46  5  1  0
 46 45  1  0
 48 46  1  0
 49 50  1  0
 49 45  1  0
 51 62  2  0
 52 50  1  0
 52 57  1  0
 53 61  1  0
 53 63  1  0
 54 60  1  0
 54 56  1  0
 55 61  1  0
 56 55  1  0
 57 56  2  0
 58 59  1  0
 58 52  2  0
 59 54  2  0
 60 53  1  0
 61 51  1  0
 63 65  2  0
 64 63  1  0
 66 64  1  0
 67 76  2  0
 67 72  1  0
 68 64  1  0
 68 72  1  0
 69 68  1  0
 70 71  1  0
 70 69  1  0
 71 67  1  0
 72 73  2  0
 73 74  1  0
 75 74  2  0
 76 75  1  0
 77 51  1  0
 77 82  1  0
 77 78  1  0
 78 81  1  1
 78 79  1  0
 80 78  1  0
 82 85  1  0
 83 87  1  0
 83 82  1  0
 84 83  2  0
 87 86  1  0
 89 87  1  0
 89 90  1  0
 89 88  1  0
 92 91  2  0
M  ISO  4   7 100  16 100  49 101  50 101
M  END
>  <TORSDO>  (61) 
F 19

>  <SCORE>  (61) 
-11.779

>  <name>  (61) 
60

>  <ligand_id>  (61) 
60

>  <original_smiles>  (61) 
[H]C([H])=C([H])c1c([H])c(N([H])C(=O)C([H])([H])Oc2c([H])c([H])c3c(c2[H])C([H])([H])N(C(=O)C([H])(N([H])C(=O)C([H])(N([H])C([H])([H])[H])C([H])([H])[H])C(C([H])([H])[H])(C([H])([H])[H])C([H])([H])[H])C([H])(C(=O)N([H])C2([H])c4c([H])c([H])c([H])c([H])c4C([H])([H])C([H])([H])C2([H])[H])C3([H])[H])c([H])c([H])c1N(C(=O)N1C([H])([H])C([H])([H])C([H])([H])C([H])(n2nc(-c3c([H])c([H])c(Oc4c([H])c([H])c(F)c([H])c4F)c([H])c3[H])c(C(=O)N([H])[H])c2N([H])[H])C1([H])[H])C([H])([H])[H]

>  <smiles>  (61) 
[H]C([H])=C([H])c1c([H])c(N([H])C(=O)C([H])([H])Oc2c([H])c([H])c3c(c2[H])C([H])([H])N(C(=O)C([H])(N([H])C(=O)C([H])(N([H])C([H])([H])[H])C([H])([H])[H])C(C([H])([H])[H])(C([H])([H])[H])C([H])([H])[H])C([H])(C(=O)N([H])C2([H])c4c([H])c([H])c([H])c([H])c4C([H])([H])C([H])([H])C2([H])[H])C3([H])[H])c([H])c([H])c1N(C(=O)N1C([H])([H])C([H])([H])C([H])([H])C([H])(n2nc(-c3c([H])c([H])c(Oc4c([H])c([H])c(F)c([H])c4F)c([H])c3[H])c(C(=O)N([H])[H])c2N([H])[H])C1([H])[H])C([H])([H])[H]

$$$$
61:0:0
     RDKit          3D

 97105  0  0  1  0  0  0  0  0999 V2000
  -29.1560  -20.9920   20.5780 C   0  0  0  0  0  0  0  0  0  0  0  0
  -29.1060  -23.5050   19.8870 C   0  0  0  0  0  0  0  0  0  0  0  0
  -29.3070  -22.1350   19.8300 N   0  0  0  0  0  0  0  0  0  0  0  0
  -28.7070  -20.9350   21.7210 O   0  0  0  0  0  0  0  0  0  0  0  0
  -29.2960  -24.0840   18.8130 O   0  0  0  0  0  0  0  0  0  0  0  0
  -29.6400  -21.8930   18.9140 H   0  0  0  0  0  0  0  0  0  0  0  0
  -29.9350  -19.6330   18.5500 C   0  0  0  0  0  3  0  0  0  0  0  0
  -29.5830  -18.3950   20.6220 C   0  0  0  0  0  3  0  0  0  0  0  0
  -30.3180  -17.2150   18.6280 C   0  0  0  0  0  3  0  0  0  0  0  0
  -29.5710  -19.6590   19.9180 C   0  0  0  0  0  0  0  0  0  0  0  0
  -30.2940  -18.4300   17.9150 C   0  0  0  0  0  0  0  0  0  0  0  0
  -29.9680  -17.1540   19.9970 C   0  0  0  0  0  0  0  0  0  0  0  0
  -30.7060  -14.7500   20.3860 C   0  0  0  0  0  0  0  0  0  0  0  0
  -30.5060  -12.5030   19.3730 C   0  0  0  0  0  2  0  0  0  0  0  0
  -29.5750  -12.6320   18.1460 C   0  0  0  0  0  2  0  0  0  0  0  0
  -28.1010  -12.4650   18.5620 C   0  0  0  0  0  2  0  0  0  0  0  0
  -27.7280  -13.3260   19.7980 C   0  0  0  0  0  3  0  0  0  0  0  0
  -28.7790  -13.1940   20.9240 C   0  0  0  0  0  2  0  0  0  0  0  0
  -30.0910  -13.5280   20.3530 N   0  0  0  0  0  0  0  0  0  0  0  0
  -31.8780  -14.8780   20.0180 O   0  0  0  0  0  0  0  0  0  0  0  0
  -29.9310  -15.8480   20.6660 N   0  0  0  0  0  0  0  0  0  0  0  0
  -29.0890  -15.6520   21.1870 H   0  0  0  0  0  0  0  0  0  0  0  0
  -25.3280  -13.8960   20.5110 C   0  0  0  0  0  0  0  0  0  0  0  0
  -24.2670  -13.1120   20.8730 C   0  0  0  0  0  0  0  0  0  0  0  0
  -24.7390  -11.7640   20.8330 C   0  0  0  0  0  0  0  0  0  0  0  0
  -26.3800  -13.0260   20.2740 N   0  0  0  0  0  0  0  0  0  0  0  0
  -26.0310  -11.7380   20.5280 N   0  0  0  0  0  0  0  0  0  0  0  0
  -24.0200  -10.4970   21.0120 C   0  0  0  0  0  0  0  0  0  0  0  0
  -24.4360   -9.5380   21.9620 C   0  0  0  0  0  3  0  0  0  0  0  0
  -23.7170   -8.3350   22.1290 C   0  0  0  0  0  3  0  0  0  0  0  0
  -22.5660   -8.0810   21.3460 C   0  0  0  0  0  0  0  0  0  0  0  0
  -22.1690   -9.0280   20.3850 C   0  0  0  0  0  3  0  0  0  0  0  0
  -22.8900  -10.2220   20.2150 C   0  0  0  0  0  3  0  0  0  0  0  0
  -21.8200   -6.9310   21.4210 O   0  0  0  0  0  0  0  0  0  0  0  0
  -21.7270   -6.2060   22.5820 C   0  0  0  0  0  0  0  0  0  0  0  0
  -21.2050   -6.7650   23.7690 C   0  0  0  0  0  3  0  0  0  0  0  0
  -21.0640   -5.9660   24.9220 C   0  0  0  0  0  3  0  0  0  0  0  0
  -21.4340   -4.6090   24.8870 C   0  0  0  0  0  0  0  0  0  0  0  0
  -21.9470   -4.0480   23.7050 C   0  0  0  0  0  3  0  0  0  0  0  0
  -22.0900   -4.8440   22.5550 C   0  0  0  0  0  0  0  0  0  0  0  0
  -22.5650   -4.2940   21.4120 F   0  0  0  0  0  0  0  0  0  0  0  0
  -21.2900   -3.8390   25.9900 F   0  0  0  0  0  0  0  0  0  0  0  0
  -22.8660  -13.5780   21.1420 C   0  0  0  0  0  0  0  0  0  0  0  0
  -22.1320  -12.8610   21.9880 N   0  0  0  0  0  0  0  0  0  0  0  0
  -22.4280  -14.6120   20.6420 O   0  0  0  0  0  0  0  0  0  0  0  0
  -22.4960  -12.0220   22.4160 H   0  0  0  0  0  0  0  0  0  0  0  0
  -21.1920  -13.1550   22.2090 H   0  0  0  0  0  0  0  0  0  0  0  0
  -25.4870  -15.2690   20.3420 N   0  0  0  0  0  0  0  0  0  0  0  0
  -24.7220  -15.9240   20.4610 H   0  0  0  0  0  0  0  0  0  0  0  0
  -26.3390  -15.7100   20.0190 H   0  0  0  0  0  0  0  0  0  0  0  0
  -30.6270  -18.4400   16.5620 N   0  0  0  0  0  0  0  0  0  0  0  0
  -30.3490  -19.2310   15.9890 H   0  0  0  0  0  0  0  0  0  0  0  0
  -30.6230  -17.5630   16.0520 H   0  0  0  0  0  0  0  0  0  0  0  0
  -28.4320  -25.6470   21.0820 C   0  0  0  0  0  3  0  0  0  0  0  0
  -28.7290  -24.2980   21.0980 C   0  0  0  0  0  0  0  0  0  0  0  0
  -28.6710  -23.6480   22.4670 C   0  0  0  0  0  1  0  0  0  0  0  0
  -28.4150  -26.5980   20.0610 O   0  0  0  0  0  0  0  0  0  0  0  0
  -24.6000  -31.8830   23.1490 C   0  0  0  0  0  0  0  0  0  0  0  0
  -27.3080  -27.4430   20.0520 C   0  0  0  0  0  0  0  0  0  0  0  0
  -23.4230  -30.4730   21.4970 C   0  0  0  0  0  3  0  0  0  0  0  0
  -24.9080  -28.9700   20.0550 C   0  0  0  0  0  0  0  0  0  0  0  0
  -25.9500  -30.8600   21.3080 C   0  0  0  0  0  2  0  0  0  0  0  0
  -26.0620  -29.4900   20.6560 C   0  0  0  0  0  0  0  0  0  0  0  0
  -27.2710  -28.7350   20.6500 C   0  0  0  0  0  3  0  0  0  0  0  0
  -26.1370  -26.9580   19.4370 C   0  0  0  0  0  3  0  0  0  0  0  0
  -24.9440  -27.7080   19.4360 C   0  0  0  0  0  3  0  0  0  0  0  0
  -23.6490  -29.8130   20.1100 C   0  0  0  0  0  2  0  0  0  0  0  0
  -24.6760  -31.0880   22.0420 N   0  0  0  0  0  0  0  0  0  0  0  0
  -23.5120  -32.1320   23.6900 O   0  0  0  0  0  0  0  0  0  0  0  0
  -22.7860  -29.4330   22.4490 C   0  0  0  0  0  0  0  0  0  0  0  0
  -21.4620  -29.2410   22.3340 N   0  0  0  0  0  0  0  0  0  0  0  0
  -23.4820  -28.8060   23.2520 O   0  0  0  0  0  0  0  0  0  0  0  0
  -20.9600  -29.8000   21.6580 H   0  0  0  0  0  0  0  0  0  0  0  0
  -18.1030  -28.0090   22.8600 C   0  0  0  0  0  0  0  0  0  0  0  0
  -20.6620  -28.2850   23.1010 C   0  0  0  0  0  3  0  0  0  0  0  0
  -20.7680  -26.8640   22.5000 C   0  0  0  0  0  2  0  0  0  0  0  0
  -19.6560  -26.5480   21.4960 C   0  0  0  0  0  2  0  0  0  0  0  0
  -18.2820  -26.6720   22.1600 C   0  0  0  0  0  2  0  0  0  0  0  0
  -19.2210  -28.7720   23.2870 C   0  0  0  0  0  0  0  0  0  0  0  0
  -19.0000  -30.0230   23.9040 C   0  0  0  0  0  3  0  0  0  0  0  0
  -17.6930  -30.5100   24.0960 C   0  0  0  0  0  3  0  0  0  0  0  0
  -16.5890  -29.7430   23.6830 C   0  0  0  0  0  3  0  0  0  0  0  0
  -16.7940  -28.4950   23.0690 C   0  0  0  0  0  3  0  0  0  0  0  0
  -25.8720  -32.5360   23.7750 C   0  0  0  0  0  3  0  0  0  0  0  0
  -26.3940  -31.7740   25.0540 C   0  0  1  0  0  0  0  0  0  0  0  0
  -25.3010  -31.5220   26.1190 C   0  0  0  0  0  1  0  0  0  0  0  0
  -27.0000  -30.4060   24.6650 C   0  0  0  0  0  1  0  0  0  0  0  0
  -27.5300  -32.5860   25.7190 C   0  0  0  0  0  1  0  0  0  0  0  0
  -25.5400  -33.9290   24.1020 N   0  0  0  0  0  0  0  0  0  0  0  0
  -25.8540  -34.9860   23.3390 C   0  0  0  0  0  0  0  0  0  0  0  0
  -26.5240  -34.8900   22.3080 O   0  0  0  0  0  0  0  0  0  0  0  0
  -24.9440  -34.0780   24.9030 H   0  0  0  0  0  0  0  0  0  0  0  0
  -24.1050  -36.7570   22.9730 C   0  0  0  0  0  1  0  0  0  0  0  0
  -25.3460  -36.3670   23.7940 C   0  0  0  0  0  3  0  0  0  0  0  0
  -27.4580  -37.2870   24.6450 C   0  0  0  0  0  1  0  0  0  0  0  0
  -26.3640  -37.4340   23.6880 N   0  0  0  0  0  0  0  0  0  0  0  0
  -25.9440  -38.3490   23.8250 H   0  0  0  0  0  0  0  0  0  0  0  0
  1  4  2  0
  2 55  1  0
  3  2  1  0
  3  1  1  0
  5  2  2  0
  6  3  1  0
  7 10  1  0
  9 12  2  0
 10  1  1  0
 10  8  2  0
 11  7  2  0
 11  9  1  0
 12  8  1  0
 12 21  1  0
 13 21  1  0
 14 19  1  0
 15 16  1  0
 15 14  1  0
 17 16  1  0
 17 26  1  0
 17 18  1  0
 19 13  1  0
 19 18  1  0
 20 13  2  0
 21 22  1  0
 23 24  2  0
 24 43  1  0
 25 24  1  0
 25 28  1  0
 26 23  1  0
 26 27  1  0
 27 25  2  0
 28 29  1  0
 29 30  2  0
 31 34  1  0
 31 30  1  0
 32 31  2  0
 33 32  1  0
 33 28  2  0
 34 35  1  0
 35 36  1  0
 36 37  2  0
 38 37  1  0
 38 42  1  0
 39 38  2  0
 40 35  2  0
 40 39  1  0
 41 40  1  0
 43 44  1  0
 44 47  1  0
 44 46  1  0
 45 43  2  0
 48 49  1  0
 48 23  1  0
 50 48  1  0
 51 11  1  0
 52 51  1  0
 53 51  1  0
 54 55  2  0
 55 56  1  0
 57 54  1  0
 58 69  2  0
 59 57  1  0
 59 64  1  0
 60 68  1  0
 60 70  1  0
 61 67  1  0
 61 63  1  0
 62 68  1  0
 63 62  1  0
 64 63  2  0
 65 59  2  0
 66 65  1  0
 66 61  2  0
 67 60  1  0
 68 58  1  0
 70 72  2  0
 71 70  1  0
 73 71  1  0
 74 83  2  0
 74 79  1  0
 75 71  1  0
 75 79  1  0
 76 75  1  0
 77 78  1  0
 77 76  1  0
 78 74  1  0
 79 80  2  0
 80 81  1  0
 82 81  2  0
 83 82  1  0
 84 58  1  0
 84 89  1  0
 84 85  1  0
 85 88  1  1
 85 86  1  0
 87 85  1  0
 89 92  1  0
 90 94  1  0
 90 89  1  0
 91 90  2  0
 94 93  1  0
 96 94  1  0
 96 97  1  0
 96 95  1  0
M  ISO  4  13 100  21 100  54 101  57 101
M  END
>  <TORSDO>  (62) 
F 19

>  <SCORE>  (62) 
-14.432

>  <name>  (62) 
61

>  <ligand_id>  (62) 
61

>  <original_smiles>  (62) 
[H]C(Oc1c([H])c([H])c2c(c1[H])C([H])([H])N(C(=O)C([H])(N([H])C(=O)C([H])(N([H])C([H])([H])[H])C([H])([H])[H])C(C([H])([H])[H])(C([H])([H])[H])C([H])([H])[H])C([H])(C(=O)N([H])C1([H])c3c([H])c([H])c([H])c([H])c3C([H])([H])C([H])([H])C1([H])[H])C2([H])[H])=C(C(=O)N([H])C(=O)c1c([H])c(N([H])[H])c([H])c(N([H])C(=O)N2C([H])([H])C([H])([H])C([H])([H])C([H])(n3nc(-c4c([H])c([H])c(Oc5c([H])c([H])c(F)c([H])c5F)c([H])c4[H])c(C(=O)N([H])[H])c3N([H])[H])C2([H])[H])c1[H])C([H])([H])[H]

>  <smiles>  (62) 
[H]C(Oc1c([H])c([H])c2c(c1[H])C([H])([H])N(C(=O)C([H])(N([H])C(=O)C([H])(N([H])C([H])([H])[H])C([H])([H])[H])C(C([H])([H])[H])(C([H])([H])[H])C([H])([H])[H])C([H])(C(=O)N([H])C1([H])c3c([H])c([H])c([H])c([H])c3C([H])([H])C([H])([H])C1([H])[H])C2([H])[H])=C(C(=O)N([H])C(=O)c1c([H])c(N([H])[H])c([H])c(N([H])C(=O)N2C([H])([H])C([H])([H])C([H])([H])C([H])(n3nc(-c4c([H])c([H])c(Oc5c([H])c([H])c(F)c([H])c5F)c([H])c4[H])c(C(=O)N([H])[H])c3N([H])[H])C2([H])[H])c1[H])C([H])([H])[H]

$$$$
62:0:0
     RDKit          3D

 92100  0  0  1  0  0  0  0  0999 V2000
  -28.8070  -19.9100   22.0550 C   0  0  0  0  0  3  0  0  0  0  0  0
  -29.3050  -18.7610   21.4030 C   0  0  0  0  0  3  0  0  0  0  0  0
  -28.8520  -21.1890   21.4600 C   0  0  0  0  0  3  0  0  0  0  0  0
  -29.9010  -20.1810   19.5200 C   0  0  0  0  0  3  0  0  0  0  0  0
  -29.8790  -18.8420   20.1170 C   0  0  0  0  0  0  0  0  0  0  0  0
  -29.3950  -21.3920   20.1690 C   0  0  0  0  0  0  0  0  0  0  0  0
  -30.9350  -15.0820   19.5390 C   0  0  0  0  0  0  0  0  0  0  0  0
  -30.6130  -12.7870   18.5990 C   0  0  0  0  0  2  0  0  0  0  0  0
  -29.5570  -12.8270   17.4730 C   0  0  0  0  0  2  0  0  0  0  0  0
  -28.1460  -12.6390   18.0550 C   0  0  0  0  0  2  0  0  0  0  0  0
  -27.8890  -13.5640   19.2740 C   0  0  0  0  0  3  0  0  0  0  0  0
  -29.0500  -13.5220   20.2910 C   0  0  0  0  0  2  0  0  0  0  0  0
  -30.2820  -13.8640   19.5700 N   0  0  0  0  0  0  0  0  0  0  0  0
  -32.0880  -15.0980   19.0950 O   0  0  0  0  0  0  0  0  0  0  0  0
  -30.5780  -17.5780   19.5050 C   0  0  0  0  0  0  0  0  0  0  0  0
  -30.2450  -16.2600   19.8420 N   0  0  0  0  0  0  0  0  0  0  0  0
  -31.4550  -17.8220   18.6690 O   0  0  0  0  0  0  0  0  0  0  0  0
  -29.3820  -16.1440   20.3450 H   0  0  0  0  0  0  0  0  0  0  0  0
  -25.6220  -14.1750   20.3010 C   0  0  0  0  0  0  0  0  0  0  0  0
  -24.5760  -13.4100   20.7390 C   0  0  0  0  0  0  0  0  0  0  0  0
  -24.9850  -12.0500   20.5830 C   0  0  0  0  0  0  0  0  0  0  0  0
  -26.6010  -13.2830   19.8980 N   0  0  0  0  0  0  0  0  0  0  0  0
  -26.2330  -11.9950   20.1310 N   0  0  0  0  0  0  0  0  0  0  0  0
  -24.2420  -10.7990   20.7810 C   0  0  0  0  0  0  0  0  0  0  0  0
  -24.6840   -9.8130   21.6900 C   0  0  0  0  0  3  0  0  0  0  0  0
  -23.9430   -8.6260   21.8770 C   0  0  0  0  0  3  0  0  0  0  0  0
  -22.7440   -8.4180   21.1530 C   0  0  0  0  0  0  0  0  0  0  0  0
  -22.3200   -9.3920   20.2330 C   0  0  0  0  0  3  0  0  0  0  0  0
  -23.0620  -10.5700   20.0450 C   0  0  0  0  0  3  0  0  0  0  0  0
  -21.9710   -7.2850   21.2510 O   0  0  0  0  0  0  0  0  0  0  0  0
  -21.8590   -6.5910   22.4290 C   0  0  0  0  0  0  0  0  0  0  0  0
  -21.3580   -7.1910   23.6050 C   0  0  0  0  0  3  0  0  0  0  0  0
  -21.1950   -6.4210   24.7740 C   0  0  0  0  0  3  0  0  0  0  0  0
  -21.5200   -5.0510   24.7660 C   0  0  0  0  0  0  0  0  0  0  0  0
  -22.0120   -4.4500   23.5940 C   0  0  0  0  0  3  0  0  0  0  0  0
  -22.1780   -5.2180   22.4280 C   0  0  0  0  0  0  0  0  0  0  0  0
  -22.6320   -4.6280   21.2970 F   0  0  0  0  0  0  0  0  0  0  0  0
  -21.3550   -4.3100   25.8860 F   0  0  0  0  0  0  0  0  0  0  0  0
  -23.2320  -13.9070   21.1860 C   0  0  0  0  0  0  0  0  0  0  0  0
  -22.5850  -13.1890   22.0970 N   0  0  0  0  0  0  0  0  0  0  0  0
  -22.7720  -14.9680   20.7650 O   0  0  0  0  0  0  0  0  0  0  0  0
  -22.9710  -12.3280   22.4530 H   0  0  0  0  0  0  0  0  0  0  0  0
  -21.6900  -13.5060   22.4440 H   0  0  0  0  0  0  0  0  0  0  0  0
  -25.8240  -15.5480   20.1890 N   0  0  0  0  0  0  0  0  0  0  0  0
  -25.1150  -16.2320   20.4330 H   0  0  0  0  0  0  0  0  0  0  0  0
  -26.6640  -15.9710   19.8200 H   0  0  0  0  0  0  0  0  0  0  0  0
  -29.1080  -24.0320   20.0760 C   0  0  0  0  0  0  0  0  0  0  0  0
  -29.3570  -22.7550   19.5500 N   0  0  0  0  0  0  0  0  0  0  0  0
  -29.0920  -24.2270   21.2950 O   0  0  0  0  0  0  0  0  0  0  0  0
  -29.4840  -22.7590   18.5470 H   0  0  0  0  0  0  0  0  0  0  0  0
  -28.8740  -25.3100   19.1230 C   0  0  0  0  0  2  0  0  0  0  0  0
  -28.7150  -26.6910   19.7330 O   0  0  0  0  0  0  0  0  0  0  0  0
  -24.6180  -31.6860   23.0380 C   0  0  0  0  0  0  0  0  0  0  0  0
  -27.5340  -27.4790   19.6900 C   0  0  0  0  0  0  0  0  0  0  0  0
  -23.5080  -30.3070   21.3180 C   0  0  0  0  0  3  0  0  0  0  0  0
  -25.0590  -28.9600   19.7840 C   0  0  0  0  0  0  0  0  0  0  0  0
  -26.0220  -30.8080   21.1510 C   0  0  0  0  0  2  0  0  0  0  0  0
  -26.1960  -29.4800   20.4110 C   0  0  0  0  0  0  0  0  0  0  0  0
  -27.4300  -28.7520   20.3540 C   0  0  0  0  0  3  0  0  0  0  0  0
  -26.3630  -27.0310   19.0360 C   0  0  0  0  0  3  0  0  0  0  0  0
  -25.1480  -27.7440   19.0870 C   0  0  0  0  0  3  0  0  0  0  0  0
  -23.7640  -29.7410   19.8950 C   0  0  0  0  0  2  0  0  0  0  0  0
  -24.7340  -30.9510   21.8920 N   0  0  0  0  0  0  0  0  0  0  0  0
  -23.5200  -31.8490   23.5910 O   0  0  0  0  0  0  0  0  0  0  0  0
  -22.9270  -29.1860   22.2130 C   0  0  0  0  0  0  0  0  0  0  0  0
  -21.6150  -28.9210   22.0830 N   0  0  0  0  0  0  0  0  0  0  0  0
  -23.6550  -28.5620   22.9880 O   0  0  0  0  0  0  0  0  0  0  0  0
  -21.0780  -29.4920   21.4460 H   0  0  0  0  0  0  0  0  0  0  0  0
  -18.3400  -27.4480   22.5160 C   0  0  0  0  0  0  0  0  0  0  0  0
  -20.8750  -27.8750   22.7920 C   0  0  0  0  0  3  0  0  0  0  0  0
  -21.0760  -26.4980   22.1180 C   0  0  0  0  0  2  0  0  0  0  0  0
  -19.9890  -26.1670   21.0870 C   0  0  0  0  0  2  0  0  0  0  0  0
  -18.6090  -26.1630   21.7510 C   0  0  0  0  0  2  0  0  0  0  0  0
  -19.4040  -28.2610   22.9900 C   0  0  0  0  0  0  0  0  0  0  0  0
  -19.1000  -29.4630   23.6650 C   0  0  0  0  0  3  0  0  0  0  0  0
  -17.7650  -29.8540   23.8690 C   0  0  0  0  0  3  0  0  0  0  0  0
  -16.7150  -29.0390   23.4140 C   0  0  0  0  0  3  0  0  0  0  0  0
  -17.0030  -27.8380   22.7410 C   0  0  0  0  0  3  0  0  0  0  0  0
  -25.8540  -32.3700   23.6960 C   0  0  0  0  0  3  0  0  0  0  0  0
  -25.4650  -33.7430   24.0530 N   0  0  0  0  0  0  0  0  0  0  0  0
  -25.7450  -34.8300   23.3240 C   0  0  0  0  0  0  0  0  0  0  0  0
  -26.4290  -34.7880   22.2970 O   0  0  0  0  0  0  0  0  0  0  0  0
  -24.8560  -33.8450   24.8520 H   0  0  0  0  0  0  0  0  0  0  0  0
  -23.9230  -36.5370   23.0040 C   0  0  0  0  0  1  0  0  0  0  0  0
  -25.1810  -36.1810   23.8110 C   0  0  0  0  0  3  0  0  0  0  0  0
  -27.2550  -37.1700   24.6780 C   0  0  0  0  0  1  0  0  0  0  0  0
  -26.1540  -37.2910   23.7260 N   0  0  0  0  0  0  0  0  0  0  0  0
  -25.6940  -38.1840   23.8850 H   0  0  0  0  0  0  0  0  0  0  0  0
  -26.3880  -31.6000   24.9660 C   0  0  1  0  0  0  0  0  0  0  0  0
  -25.2900  -31.2830   26.0090 C   0  0  0  0  0  1  0  0  0  0  0  0
  -27.0520  -30.2640   24.5590 C   0  0  0  0  0  1  0  0  0  0  0  0
  -27.4810  -32.4420   25.6660 C   0  0  0  0  0  1  0  0  0  0  0  0
  2  1  2  0
  3  1  1  0
  4  5  2  0
  4  6  1  0
  5  2  1  0
  6  3  2  0
  7 13  1  0
  7 16  1  0
  8 13  1  0
  9 10  1  0
  9  8  1  0
 11 10  1  0
 11 22  1  0
 11 12  1  0
 13 12  1  0
 14  7  2  0
 15 16  1  0
 15  5  1  0
 16 18  1  0
 17 15  2  0
 19 20  2  0
 20 39  1  0
 21 20  1  0
 21 24  1  0
 22 23  1  0
 22 19  1  0
 23 21  2  0
 24 25  1  0
 25 26  2  0
 27 30  1  0
 27 26  1  0
 28 27  2  0
 29 28  1  0
 29 24  2  0
 30 31  1  0
 31 32  1  0
 32 33  2  0
 34 33  1  0
 34 38  1  0
 35 34  2  0
 36 31  2  0
 36 35  1  0
 37 36  1  0
 39 40  1  0
 40 43  1  0
 40 42  1  0
 41 39  2  0
 44 19  1  0
 44 45  1  0
 46 44  1  0
 47 49  2  0
 48 47  1  0
 48  6  1  0
 50 48  1  0
 51 52  1  0
 51 47  1  0
 53 64  2  0
 54 52  1  0
 54 59  1  0
 55 63  1  0
 55 65  1  0
 56 62  1  0
 56 58  1  0
 57 63  1  0
 58 57  1  0
 59 58  2  0
 60 61  1  0
 60 54  2  0
 61 56  2  0
 62 55  1  0
 63 53  1  0
 65 67  2  0
 66 65  1  0
 68 66  1  0
 69 78  2  0
 69 74  1  0
 70 66  1  0
 70 74  1  0
 71 70  1  0
 72 73  1  0
 72 71  1  0
 73 69  1  0
 74 75  2  0
 75 76  1  0
 77 76  2  0
 78 77  1  0
 79 53  1  0
 79 80  1  0
 79 89  1  0
 80 83  1  0
 81 85  1  0
 81 80  1  0
 82 81  2  0
 85 84  1  0
 87 85  1  0
 87 88  1  0
 87 86  1  0
 89 92  1  1
 89 90  1  0
 91 89  1  0
M  ISO  4   7 100  16 100  51 101  52 101
M  END
>  <TORSDO>  (63) 
F 18

>  <SCORE>  (63) 
-10.949

>  <name>  (63) 
62

>  <ligand_id>  (63) 
62

>  <original_smiles>  (63) 
[H]c1c([H])c(C(=O)N([H])C(=O)N2C([H])([H])C([H])([H])C([H])([H])C([H])(n3nc(-c4c([H])c([H])c(Oc5c([H])c([H])c(F)c([H])c5F)c([H])c4[H])c(C(=O)N([H])[H])c3N([H])[H])C2([H])[H])c([H])c(N([H])C(=O)C([H])([H])Oc2c([H])c([H])c3c(c2[H])C([H])([H])N(C(=O)C([H])(N([H])C(=O)C([H])(N([H])C([H])([H])[H])C([H])([H])[H])C(C([H])([H])[H])(C([H])([H])[H])C([H])([H])[H])C([H])(C(=O)N([H])C2([H])c4c([H])c([H])c([H])c([H])c4C([H])([H])C([H])([H])C2([H])[H])C3([H])[H])c1[H]

>  <smiles>  (63) 
[H]c1c([H])c(C(=O)N([H])C(=O)N2C([H])([H])C([H])([H])C([H])([H])C([H])(n3nc(-c4c([H])c([H])c(Oc5c([H])c([H])c(F)c([H])c5F)c([H])c4[H])c(C(=O)N([H])[H])c3N([H])[H])C2([H])[H])c([H])c(N([H])C(=O)C([H])([H])Oc2c([H])c([H])c3c(c2[H])C([H])([H])N(C(=O)C([H])(N([H])C(=O)C([H])(N([H])C([H])([H])[H])C([H])([H])[H])C(C([H])([H])[H])(C([H])([H])[H])C([H])([H])[H])C([H])(C(=O)N([H])C2([H])c4c([H])c([H])c([H])c([H])c4C([H])([H])C([H])([H])C2([H])[H])C3([H])[H])c1[H]

$$$$
63:0:0
     RDKit          3D

 99108  0  0  1  0  0  0  0  0999 V2000
  -30.3120  -23.8170   20.5290 C   0  0  0  0  0  3  0  0  0  0  0  0
  -28.8880  -23.8760   20.4760 C   0  0  0  0  0  0  0  0  0  0  0  0
  -30.6960  -22.4970   20.6250 C   0  0  0  0  0  0  0  0  0  0  0  0
  -28.5010  -22.5470   20.6330 C   0  0  0  0  0  0  0  0  0  0  0  0
  -29.5890  -21.6490   20.6430 N   0  0  0  0  0  0  0  0  0  0  0  0
  -29.1850  -18.0300   19.4460 C   0  0  0  0  0  3  0  0  0  0  0  0
  -30.2030  -19.3880   21.6300 C   0  0  0  0  0  3  0  0  0  0  0  0
  -29.0860  -19.4470   19.4980 C   0  0  0  0  0  0  0  0  0  0  0  0
  -29.5990  -20.1790   20.6060 C   0  0  0  0  0  0  0  0  0  0  0  0
  -29.8820  -17.2390   20.4060 C   0  0  0  0  0  0  0  0  0  0  0  0
  -30.3640  -17.9630   21.5390 C   0  0  0  0  0  0  0  0  0  0  0  0
  -28.4800  -20.1400   18.2860 C   0  0  0  0  0  1  0  0  0  0  0  0
  -30.7280  -14.8070   20.8020 C   0  0  0  0  0  0  0  0  0  0  0  0
  -30.5800  -12.4740   19.9580 C   0  0  0  0  0  2  0  0  0  0  0  0
  -29.7320  -12.3850   18.6670 C   0  0  0  0  0  2  0  0  0  0  0  0
  -28.2270  -12.3170   18.9860 C   0  0  0  0  0  2  0  0  0  0  0  0
  -27.7620  -13.3010   20.0920 C   0  0  0  0  0  3  0  0  0  0  0  0
  -28.7350  -13.3200   21.2900 C   0  0  0  0  0  2  0  0  0  0  0  0
  -30.0710  -13.6030   20.7580 N   0  0  0  0  0  0  0  0  0  0  0  0
  -31.9590  -14.8420   20.8810 O   0  0  0  0  0  0  0  0  0  0  0  0
  -30.4060  -15.6540   18.6150 C   0  0  0  0  0  1  0  0  0  0  0  0
  -30.1410  -15.8200   20.0640 N   0  0  0  0  0  0  0  0  0  0  0  0
  -25.3210  -13.9110   20.6180 C   0  0  0  0  0  0  0  0  0  0  0  0
  -24.2300  -13.1410   20.9210 C   0  0  0  0  0  0  0  0  0  0  0  0
  -24.7000  -11.7930   20.9790 C   0  0  0  0  0  0  0  0  0  0  0  0
  -26.3850  -13.0300   20.5010 N   0  0  0  0  0  0  0  0  0  0  0  0
  -26.0130  -11.7560   20.7890 N   0  0  0  0  0  0  0  0  0  0  0  0
  -23.9690  -10.5310   21.1470 C   0  0  0  0  0  0  0  0  0  0  0  0
  -24.3650   -9.5690   22.1030 C   0  0  0  0  0  3  0  0  0  0  0  0
  -23.6330   -8.3710   22.2590 C   0  0  0  0  0  3  0  0  0  0  0  0
  -22.4930   -8.1270   21.4570 C   0  0  0  0  0  0  0  0  0  0  0  0
  -22.1180   -9.0760   20.4910 C   0  0  0  0  0  3  0  0  0  0  0  0
  -22.8500  -10.2660   20.3320 C   0  0  0  0  0  3  0  0  0  0  0  0
  -21.7370   -6.9820   21.5220 O   0  0  0  0  0  0  0  0  0  0  0  0
  -21.6790   -6.2210   22.6620 C   0  0  0  0  0  0  0  0  0  0  0  0
  -21.2100   -6.7470   23.8870 C   0  0  0  0  0  3  0  0  0  0  0  0
  -21.1000   -5.9110   25.0150 C   0  0  0  0  0  3  0  0  0  0  0  0
  -21.4490   -4.5510   24.9220 C   0  0  0  0  0  0  0  0  0  0  0  0
  -21.9090   -4.0240   23.7020 C   0  0  0  0  0  3  0  0  0  0  0  0
  -22.0210   -4.8560   22.5750 C   0  0  0  0  0  0  0  0  0  0  0  0
  -22.4450   -4.3390   21.3970 F   0  0  0  0  0  0  0  0  0  0  0  0
  -21.3370   -3.7460   26.0040 F   0  0  0  0  0  0  0  0  0  0  0  0
  -22.8120  -13.6140   21.0520 C   0  0  0  0  0  0  0  0  0  0  0  0
  -22.0150  -12.9390   21.8730 N   0  0  0  0  0  0  0  0  0  0  0  0
  -22.4130  -14.6160   20.4610 O   0  0  0  0  0  0  0  0  0  0  0  0
  -22.3490  -12.1290   22.3750 H   0  0  0  0  0  0  0  0  0  0  0  0
  -21.0590  -13.2360   22.0040 H   0  0  0  0  0  0  0  0  0  0  0  0
  -25.4960  -15.2750   20.4070 N   0  0  0  0  0  0  0  0  0  0  0  0
  -24.7270  -15.9350   20.4380 H   0  0  0  0  0  0  0  0  0  0  0  0
  -26.3800  -15.7060   20.1700 H   0  0  0  0  0  0  0  0  0  0  0  0
  -31.0610  -17.3140   22.5600 N   0  0  0  0  0  0  0  0  0  0  0  0
  -31.5720  -17.9090   23.2050 H   0  0  0  0  0  0  0  0  0  0  0  0
  -31.6320  -16.5230   22.2730 H   0  0  0  0  0  0  0  0  0  0  0  0
  -31.9610  -21.9930   20.6560 O   0  0  0  0  0  0  0  0  0  0  0  0
  -32.5680  -22.7260   20.6300 H   0  0  0  0  0  0  0  0  0  0  0  0
  -27.2320  -22.0550   20.7290 O   0  0  0  0  0  0  0  0  0  0  0  0
  -26.6290  -22.7860   20.8010 H   0  0  0  0  0  0  0  0  0  0  0  0
  -27.9350  -25.0850   20.2070 C   0  0  0  0  0  2  0  0  0  0  0  0
  -28.3170  -26.5150   20.3220 O   0  0  0  0  0  0  0  0  0  0  0  0
  -24.5970  -31.9350   23.3200 C   0  0  0  0  0  0  0  0  0  0  0  0
  -27.2320  -27.4130   20.2320 C   0  0  0  0  0  0  0  0  0  0  0  0
  -23.4100  -30.5610   21.6500 C   0  0  0  0  0  3  0  0  0  0  0  0
  -24.8750  -29.0430   20.2140 C   0  0  0  0  0  0  0  0  0  0  0  0
  -25.9540  -30.8780   21.5000 C   0  0  0  0  0  2  0  0  0  0  0  0
  -26.0400  -29.5120   20.8350 C   0  0  0  0  0  0  0  0  0  0  0  0
  -27.2220  -28.7070   20.8390 C   0  0  0  0  0  3  0  0  0  0  0  0
  -26.0420  -27.0210   19.5630 C   0  0  0  0  0  3  0  0  0  0  0  0
  -24.8800  -27.8030   19.5680 C   0  0  0  0  0  3  0  0  0  0  0  0
  -23.6370  -29.9130   20.2620 C   0  0  0  0  0  2  0  0  0  0  0  0
  -24.6720  -31.1400   22.2130 N   0  0  0  0  0  0  0  0  0  0  0  0
  -23.5090  -32.2060   23.8460 O   0  0  0  0  0  0  0  0  0  0  0  0
  -22.7400  -29.5260   22.5870 C   0  0  0  0  0  0  0  0  0  0  0  0
  -21.4140  -29.3530   22.4480 N   0  0  0  0  0  0  0  0  0  0  0  0
  -23.4120  -28.8860   23.4000 O   0  0  0  0  0  0  0  0  0  0  0  0
  -20.9320  -29.9220   21.7670 H   0  0  0  0  0  0  0  0  0  0  0  0
  -18.0280  -28.1690   22.9180 C   0  0  0  0  0  0  0  0  0  0  0  0
  -20.5880  -28.4080   23.2000 C   0  0  0  0  0  3  0  0  0  0  0  0
  -20.6810  -26.9850   22.6020 C   0  0  0  0  0  2  0  0  0  0  0  0
  -19.5810  -26.6870   21.5790 C   0  0  0  0  0  2  0  0  0  0  0  0
  -18.1980  -26.8310   22.2210 C   0  0  0  0  0  2  0  0  0  0  0  0
  -19.1500  -28.9170   23.3650 C   0  0  0  0  0  0  0  0  0  0  0  0
  -18.9380  -30.1710   23.9770 C   0  0  0  0  0  3  0  0  0  0  0  0
  -17.6370  -30.6790   24.1470 C   0  0  0  0  0  3  0  0  0  0  0  0
  -16.5290  -29.9280   23.7170 C   0  0  0  0  0  3  0  0  0  0  0  0
  -16.7250  -28.6760   23.1090 C   0  0  0  0  0  3  0  0  0  0  0  0
  -25.8740  -32.5590   23.9610 C   0  0  0  0  0  3  0  0  0  0  0  0
  -25.5690  -33.9600   24.2840 N   0  0  0  0  0  0  0  0  0  0  0  0
  -25.9280  -35.0110   23.5350 C   0  0  0  0  0  0  0  0  0  0  0  0
  -26.6240  -34.9020   22.5210 O   0  0  0  0  0  0  0  0  0  0  0  0
  -24.9550  -34.1180   25.0700 H   0  0  0  0  0  0  0  0  0  0  0  0
  -24.2460  -36.8330   23.1160 C   0  0  0  0  0  1  0  0  0  0  0  0
  -25.4400  -36.4020   23.9810 C   0  0  0  0  0  3  0  0  0  0  0  0
  -27.5410  -37.2530   24.9270 C   0  0  0  0  0  1  0  0  0  0  0  0
  -26.4930  -37.4400   23.9270 N   0  0  0  0  0  0  0  0  0  0  0  0
  -26.0930  -38.3660   24.0550 H   0  0  0  0  0  0  0  0  0  0  0  0
  -26.3650  -31.7860   25.2460 C   0  0  1  0  0  0  0  0  0  0  0  0
  -25.2520  -31.5520   26.2940 C   0  0  0  0  0  1  0  0  0  0  0  0
  -26.9490  -30.4050   24.8660 C   0  0  0  0  0  1  0  0  0  0  0  0
  -27.5080  -32.5750   25.9270 C   0  0  0  0  0  1  0  0  0  0  0  0
  1  3  2  0
  2  1  1  0
  2  4  2  0
  3  5  1  0
  3 54  1  0
  4  5  1  0
  4 56  1  0
  6  8  2  0
  6 10  1  0
  8  9  1  0
  9  5  1  0
  9  7  2  0
 10 11  2  0
 11  7  1  0
 11 51  1  0
 12  8  1  0
 13 20  2  0
 14 19  1  0
 15 16  1  0
 15 14  1  0
 17 16  1  0
 17 26  1  0
 17 18  1  0
 19 13  1  0
 19 18  1  0
 21 22  1  0
 22 10  1  0
 22 13  1  0
 23 24  2  0
 24 25  1  0
 24 43  1  0
 25 28  1  0
 26 23  1  0
 26 27  1  0
 27 25  2  0
 28 29  1  0
 29 30  2  0
 31 34  1  0
 31 30  1  0
 32 31  2  0
 33 32  1  0
 33 28  2  0
 34 35  1  0
 35 36  1  0
 36 37  2  0
 38 37  1  0
 38 42  1  0
 39 38  2  0
 40 35  2  0
 40 39  1  0
 41 40  1  0
 43 44  1  0
 44 47  1  0
 44 46  1  0
 45 43  2  0
 48 49  1  0
 48 23  1  0
 50 48  1  0
 51 52  1  0
 53 51  1  0
 55 54  1  0
 56 57  1  0
 58 59  1  0
 58  2  1  0
 60 71  2  0
 61 59  1  0
 61 66  1  0
 62 70  1  0
 62 72  1  0
 63 69  1  0
 63 65  1  0
 64 70  1  0
 65 66  2  0
 65 64  1  0
 67 68  1  0
 67 61  2  0
 68 63  2  0
 69 62  1  0
 70 60  1  0
 72 74  2  0
 73 72  1  0
 75 73  1  0
 76 85  2  0
 76 81  1  0
 77 73  1  0
 77 81  1  0
 78 77  1  0
 79 80  1  0
 79 78  1  0
 80 76  1  0
 81 82  2  0
 82 83  1  0
 84 83  2  0
 85 84  1  0
 86 60  1  0
 86 87  1  0
 86 96  1  0
 87 90  1  0
 88 92  1  0
 88 87  1  0
 89 88  2  0
 92 91  1  0
 94 92  1  0
 94 95  1  0
 94 93  1  0
 96 99  1  1
 96 97  1  0
 98 96  1  0
M  ISO  4  13 100  22 100  58 101  59 101
M  END
>  <TORSDO>  (64) 
F 21

>  <SCORE>  (64) 
-14.015

>  <name>  (64) 
63

>  <ligand_id>  (64) 
63

>  <original_smiles>  (64) 
[H]Oc1c([H])c(C([H])([H])Oc2c([H])c([H])c3c(c2[H])C([H])([H])N(C(=O)C([H])(N([H])C(=O)C([H])(N([H])C([H])([H])[H])C([H])([H])[H])C(C([H])([H])[H])(C([H])([H])[H])C([H])([H])[H])C([H])(C(=O)N([H])C2([H])c4c([H])c([H])c([H])c([H])c4C([H])([H])C([H])([H])C2([H])[H])C3([H])[H])c(O[H])n1-c1c([H])c(N([H])[H])c(N(C(=O)N2C([H])([H])C([H])([H])C([H])([H])C([H])(n3nc(-c4c([H])c([H])c(Oc5c([H])c([H])c(F)c([H])c5F)c([H])c4[H])c(C(=O)N([H])[H])c3N([H])[H])C2([H])[H])C([H])([H])[H])c([H])c1C([H])([H])[H]

>  <smiles>  (64) 
[H]Oc1c([H])c(C([H])([H])Oc2c([H])c([H])c3c(c2[H])C([H])([H])N(C(=O)C([H])(N([H])C(=O)C([H])(N([H])C([H])([H])[H])C([H])([H])[H])C(C([H])([H])[H])(C([H])([H])[H])C([H])([H])[H])C([H])(C(=O)N([H])C2([H])c4c([H])c([H])c([H])c([H])c4C([H])([H])C([H])([H])C2([H])[H])C3([H])[H])c(O[H])n1-c1c([H])c(N([H])[H])c(N(C(=O)N2C([H])([H])C([H])([H])C([H])([H])C([H])(n3nc(-c4c([H])c([H])c(Oc5c([H])c([H])c(F)c([H])c5F)c([H])c4[H])c(C(=O)N([H])[H])c3N([H])[H])C2([H])[H])C([H])([H])[H])c([H])c1C([H])([H])[H]

$$$$
64:0:0
     RDKit          3D

 94102  0  0  1  0  0  0  0  0999 V2000
  -28.6490  -22.6250   20.1870 C   0  0  0  0  0  0  0  0  0  0  0  0
  -29.4060  -21.6770   20.8430 N   0  0  0  0  0  0  0  0  0  0  0  0
  -27.8760  -22.2930   19.2860 O   0  0  0  0  0  0  0  0  0  0  0  0
  -30.1110  -22.0510   21.4610 H   0  0  0  0  0  0  0  0  0  0  0  0
  -28.6660  -17.9780   19.9510 C   0  0  0  0  0  3  0  0  0  0  0  0
  -28.5070  -19.3910   20.0700 C   0  0  0  0  0  3  0  0  0  0  0  0
  -30.7230  -18.0680   21.1800 C   0  0  0  0  0  3  0  0  0  0  0  0
  -29.7940  -17.2650   20.4600 C   0  0  0  0  0  0  0  0  0  0  0  0
  -29.4720  -20.2050   20.7200 C   0  0  0  0  0  0  0  0  0  0  0  0
  -30.5620  -19.4900   21.3020 C   0  0  0  0  0  0  0  0  0  0  0  0
  -31.5070  -20.1970   21.9690 F   0  0  0  0  0  0  0  0  0  0  0  0
  -30.7130  -14.8140   20.6110 C   0  0  0  0  0  0  0  0  0  0  0  0
  -30.5720  -12.4840   19.7370 C   0  0  0  0  0  2  0  0  0  0  0  0
  -29.6920  -12.4270   18.4670 C   0  0  0  0  0  2  0  0  0  0  0  0
  -28.1940  -12.3390   18.8220 C   0  0  0  0  0  2  0  0  0  0  0  0
  -27.7560  -13.2880   19.9720 C   0  0  0  0  0  3  0  0  0  0  0  0
  -28.7620  -13.2790   21.1420 C   0  0  0  0  0  2  0  0  0  0  0  0
  -30.0810  -13.5920   20.5800 N   0  0  0  0  0  0  0  0  0  0  0  0
  -31.9450  -14.8690   20.5840 O   0  0  0  0  0  0  0  0  0  0  0  0
  -30.0170  -15.7970   18.5500 C   0  0  0  0  0  1  0  0  0  0  0  0
  -30.0080  -15.8650   20.0270 N   0  0  0  0  0  0  0  0  0  0  0  0
  -25.3340  -13.8950   20.5640 C   0  0  0  0  0  0  0  0  0  0  0  0
  -24.2500  -13.1250   20.8860 C   0  0  0  0  0  0  0  0  0  0  0  0
  -24.7170  -11.7750   20.9150 C   0  0  0  0  0  0  0  0  0  0  0  0
  -26.3920  -13.0120   20.4080 N   0  0  0  0  0  0  0  0  0  0  0  0
  -26.0240  -11.7360   20.6870 N   0  0  0  0  0  0  0  0  0  0  0  0
  -23.9860  -10.5140   21.0890 C   0  0  0  0  0  0  0  0  0  0  0  0
  -24.3830   -9.5570   22.0480 C   0  0  0  0  0  3  0  0  0  0  0  0
  -23.6520   -8.3600   22.2100 C   0  0  0  0  0  3  0  0  0  0  0  0
  -22.5100   -8.1130   21.4110 C   0  0  0  0  0  0  0  0  0  0  0  0
  -22.1340   -9.0590   20.4410 C   0  0  0  0  0  3  0  0  0  0  0  0
  -22.8650  -10.2460   20.2780 C   0  0  0  0  0  3  0  0  0  0  0  0
  -21.7530   -6.9680   21.4810 O   0  0  0  0  0  0  0  0  0  0  0  0
  -21.6680   -6.2320   22.6360 C   0  0  0  0  0  0  0  0  0  0  0  0
  -21.2080   -6.7940   23.8460 C   0  0  0  0  0  3  0  0  0  0  0  0
  -21.0710   -5.9840   24.9910 C   0  0  0  0  0  3  0  0  0  0  0  0
  -21.3830   -4.6130   24.9260 C   0  0  0  0  0  0  0  0  0  0  0  0
  -21.8360   -4.0500   23.7200 C   0  0  0  0  0  3  0  0  0  0  0  0
  -21.9750   -4.8570   22.5770 C   0  0  0  0  0  0  0  0  0  0  0  0
  -22.3920   -4.3060   21.4120 F   0  0  0  0  0  0  0  0  0  0  0  0
  -21.2440   -3.8330   26.0230 F   0  0  0  0  0  0  0  0  0  0  0  0
  -22.8380  -13.6020   21.0630 C   0  0  0  0  0  0  0  0  0  0  0  0
  -22.0620  -12.9230   21.8990 N   0  0  0  0  0  0  0  0  0  0  0  0
  -22.4290  -14.6140   20.4950 O   0  0  0  0  0  0  0  0  0  0  0  0
  -22.4050  -12.1050   22.3820 H   0  0  0  0  0  0  0  0  0  0  0  0
  -21.1120  -13.2240   22.0610 H   0  0  0  0  0  0  0  0  0  0  0  0
  -25.5070  -15.2620   20.3660 N   0  0  0  0  0  0  0  0  0  0  0  0
  -24.7400  -15.9210   20.4300 H   0  0  0  0  0  0  0  0  0  0  0  0
  -26.3860  -15.6960   20.1170 H   0  0  0  0  0  0  0  0  0  0  0  0
  -28.2620  -25.1080   19.8900 C   0  0  0  0  0  3  0  0  0  0  0  0
  -28.8140  -24.0650   20.6090 C   0  0  0  0  0  0  0  0  0  0  0  0
  -29.4910  -24.3390   21.7330 O   0  0  0  0  0  0  0  0  0  0  0  0
  -29.5520  -23.5360   22.2340 H   0  0  0  0  0  0  0  0  0  0  0  0
  -28.3320  -26.4970   20.1740 O   0  0  0  0  0  0  0  0  0  0  0  0
  -24.5500  -31.8890   23.1510 C   0  0  0  0  0  0  0  0  0  0  0  0
  -27.1990  -27.3340   20.1040 C   0  0  0  0  0  0  0  0  0  0  0  0
  -23.3570  -30.4780   21.5140 C   0  0  0  0  0  3  0  0  0  0  0  0
  -24.8190  -28.9380   20.0890 C   0  0  0  0  0  0  0  0  0  0  0  0
  -25.8950  -30.8130   21.3310 C   0  0  0  0  0  2  0  0  0  0  0  0
  -25.9840  -29.4340   20.6860 C   0  0  0  0  0  0  0  0  0  0  0  0
  -27.1730  -28.6420   20.6870 C   0  0  0  0  0  3  0  0  0  0  0  0
  -26.0030  -26.8950   19.4840 C   0  0  0  0  0  3  0  0  0  0  0  0
  -24.8310  -27.6750   19.4800 C   0  0  0  0  0  3  0  0  0  0  0  0
  -23.5760  -29.8030   20.1350 C   0  0  0  0  0  2  0  0  0  0  0  0
  -24.6190  -31.0790   22.0550 N   0  0  0  0  0  0  0  0  0  0  0  0
  -23.4650  -32.1590   23.6860 O   0  0  0  0  0  0  0  0  0  0  0  0
  -22.7030  -29.4580   22.4770 C   0  0  0  0  0  0  0  0  0  0  0  0
  -21.3730  -29.2910   22.3710 N   0  0  0  0  0  0  0  0  0  0  0  0
  -23.3900  -28.8200   23.2790 O   0  0  0  0  0  0  0  0  0  0  0  0
  -20.8790  -29.8580   21.6960 H   0  0  0  0  0  0  0  0  0  0  0  0
  -17.9940  -28.1260   22.9250 C   0  0  0  0  0  0  0  0  0  0  0  0
  -20.5600  -28.3540   23.1470 C   0  0  0  0  0  3  0  0  0  0  0  0
  -20.6350  -26.9280   22.5540 C   0  0  0  0  0  2  0  0  0  0  0  0
  -19.5090  -26.6280   21.5580 C   0  0  0  0  0  2  0  0  0  0  0  0
  -18.1420  -26.7820   22.2320 C   0  0  0  0  0  2  0  0  0  0  0  0
  -19.1290  -28.8710   23.3410 C   0  0  0  0  0  0  0  0  0  0  0  0
  -18.9350  -30.1300   23.9520 C   0  0  0  0  0  3  0  0  0  0  0  0
  -17.6400  -30.6430   24.1480 C   0  0  0  0  0  3  0  0  0  0  0  0
  -16.5190  -29.8950   23.7480 C   0  0  0  0  0  3  0  0  0  0  0  0
  -16.6970  -28.6370   23.1420 C   0  0  0  0  0  3  0  0  0  0  0  0
  -25.8280  -32.5340   23.7720 C   0  0  0  0  0  3  0  0  0  0  0  0
  -26.3620  -31.7580   25.0370 C   0  0  1  0  0  0  0  0  0  0  0  0
  -25.2790  -31.4970   26.1110 C   0  0  0  0  0  1  0  0  0  0  0  0
  -26.9600  -30.3910   24.6310 C   0  0  0  0  0  1  0  0  0  0  0  0
  -27.5070  -32.5590   25.7000 C   0  0  0  0  0  1  0  0  0  0  0  0
  -25.5010  -33.9240   24.1180 N   0  0  0  0  0  0  0  0  0  0  0  0
  -25.8310  -34.9920   23.3790 C   0  0  0  0  0  0  0  0  0  0  0  0
  -26.5120  -34.9100   22.3540 O   0  0  0  0  0  0  0  0  0  0  0  0
  -24.8950  -34.0600   24.9140 H   0  0  0  0  0  0  0  0  0  0  0  0
  -24.1050  -36.7850   23.0170 C   0  0  0  0  0  1  0  0  0  0  0  0
  -25.3260  -36.3690   23.8530 C   0  0  0  0  0  3  0  0  0  0  0  0
  -27.4350  -37.2440   24.7570 C   0  0  0  0  0  1  0  0  0  0  0  0
  -26.3560  -37.4270   23.7880 N   0  0  0  0  0  0  0  0  0  0  0  0
  -25.9430  -38.3430   23.9430 H   0  0  0  0  0  0  0  0  0  0  0  0
  1 51  1  0
  1  2  1  0
  2  4  1  0
  3  1  2  0
  5  6  2  0
  5  8  1  0
  6  9  1  0
  7 10  1  0
  8  7  2  0
  9  2  1  0
  9 10  2  0
 10 11  1  0
 13 18  1  0
 14 15  1  0
 14 13  1  0
 16 15  1  0
 16 25  1  0
 16 17  1  0
 18 12  1  0
 18 17  1  0
 19 12  2  0
 20 21  1  0
 21  8  1  0
 21 12  1  0
 22 23  2  0
 23 24  1  0
 23 42  1  0
 24 27  1  0
 25 22  1  0
 25 26  1  0
 26 24  2  0
 27 28  1  0
 28 29  2  0
 30 33  1  0
 30 29  1  0
 31 30  2  0
 32 31  1  0
 32 27  2  0
 33 34  1  0
 34 35  1  0
 35 36  2  0
 37 36  1  0
 37 41  1  0
 38 37  2  0
 39 34  2  0
 39 38  1  0
 40 39  1  0
 42 43  1  0
 43 46  1  0
 43 45  1  0
 44 42  2  0
 47 48  1  0
 47 22  1  0
 49 47  1  0
 50 54  1  0
 50 51  2  0
 51 52  1  0
 52 53  1  0
 55 66  2  0
 56 54  1  0
 56 61  1  0
 57 65  1  0
 57 67  1  0
 58 64  1  0
 58 60  1  0
 59 65  1  0
 60 61  2  0
 60 59  1  0
 62 56  2  0
 63 62  1  0
 63 58  2  0
 64 57  1  0
 65 55  1  0
 67 69  2  0
 68 67  1  0
 70 68  1  0
 71 80  2  0
 71 76  1  0
 72 68  1  0
 72 76  1  0
 73 72  1  0
 74 75  1  0
 74 73  1  0
 75 71  1  0
 76 77  2  0
 77 78  1  0
 79 78  2  0
 80 79  1  0
 81 55  1  0
 81 86  1  0
 81 82  1  0
 82 85  1  1
 82 83  1  0
 84 82  1  0
 86 89  1  0
 87 91  1  0
 87 86  1  0
 88 87  2  0
 91 90  1  0
 93 91  1  0
 93 94  1  0
 93 92  1  0
M  ISO  4  12 100  21 100  50 101  54 101
M  END
>  <TORSDO>  (65) 
F 19

>  <SCORE>  (65) 
-14.436

>  <name>  (65) 
64

>  <ligand_id>  (65) 
64

>  <original_smiles>  (65) 
[H]OC(C(=O)N([H])c1c([H])c([H])c(N(C(=O)N2C([H])([H])C([H])([H])C([H])([H])C([H])(n3nc(-c4c([H])c([H])c(Oc5c([H])c([H])c(F)c([H])c5F)c([H])c4[H])c(C(=O)N([H])[H])c3N([H])[H])C2([H])[H])C([H])([H])[H])c([H])c1F)=C([H])Oc1c([H])c([H])c2c(c1[H])C([H])([H])N(C(=O)C([H])(N([H])C(=O)C([H])(N([H])C([H])([H])[H])C([H])([H])[H])C(C([H])([H])[H])(C([H])([H])[H])C([H])([H])[H])C([H])(C(=O)N([H])C1([H])c3c([H])c([H])c([H])c([H])c3C([H])([H])C([H])([H])C1([H])[H])C2([H])[H]

>  <smiles>  (65) 
[H]OC(C(=O)N([H])c1c([H])c([H])c(N(C(=O)N2C([H])([H])C([H])([H])C([H])([H])C([H])(n3nc(-c4c([H])c([H])c(Oc5c([H])c([H])c(F)c([H])c5F)c([H])c4[H])c(C(=O)N([H])[H])c3N([H])[H])C2([H])[H])C([H])([H])[H])c([H])c1F)=C([H])Oc1c([H])c([H])c2c(c1[H])C([H])([H])N(C(=O)C([H])(N([H])C(=O)C([H])(N([H])C([H])([H])[H])C([H])([H])[H])C(C([H])([H])[H])(C([H])([H])[H])C([H])([H])[H])C([H])(C(=O)N([H])C1([H])c3c([H])c([H])c([H])c([H])c3C([H])([H])C([H])([H])C1([H])[H])C2([H])[H]

$$$$
65:0:0
     RDKit          3D

 94102  0  0  1  0  0  0  0  0999 V2000
  -28.0620  -18.9800   20.6790 C   0  0  0  0  0  3  0  0  0  0  0  0
  -28.5330  -20.2180   20.2010 C   0  0  0  0  0  3  0  0  0  0  0  0
  -30.6710  -19.1660   19.7150 C   0  0  0  0  0  3  0  0  0  0  0  0
  -28.8880  -17.8320   20.7120 C   0  0  0  0  0  0  0  0  0  0  0  0
  -30.2330  -17.9060   20.2270 C   0  0  0  0  0  0  0  0  0  0  0  0
  -29.8620  -20.3360   19.7440 C   0  0  0  0  0  0  0  0  0  0  0  0
  -28.2880  -16.5530   21.2940 C   0  0  0  0  0  1  0  0  0  0  0  0
  -32.7140  -17.1490   20.3380 C   0  0  0  0  0  1  0  0  0  0  0  0
  -31.2190  -16.6930   20.3340 C   0  0  0  0  0  3  0  0  0  0  0  0
  -31.5880  -14.3820   19.2530 C   0  0  0  0  0  0  0  0  0  0  0  0
  -31.1490  -12.0490   18.5230 C   0  0  0  0  0  2  0  0  0  0  0  0
  -30.0740  -12.0120   17.4160 C   0  0  0  0  0  2  0  0  0  0  0  0
  -28.6520  -11.9940   18.0070 C   0  0  0  0  0  2  0  0  0  0  0  0
  -28.4590  -13.0460   19.1300 C   0  0  0  0  0  3  0  0  0  0  0  0
  -29.6320  -13.0520   20.1390 C   0  0  0  0  0  2  0  0  0  0  0  0
  -30.8760  -13.2250   19.3730 N   0  0  0  0  0  0  0  0  0  0  0  0
  -32.7020  -14.4080   18.7230 O   0  0  0  0  0  0  0  0  0  0  0  0
  -30.9050  -15.5470   19.4270 N   0  0  0  0  0  0  0  0  0  0  0  0
  -30.4950  -15.8410   18.5430 H   0  0  0  0  0  0  0  0  0  0  0  0
  -26.2670  -13.8620   20.1860 C   0  0  0  0  0  0  0  0  0  0  0  0
  -25.1840  -13.1910   20.6780 C   0  0  0  0  0  0  0  0  0  0  0  0
  -25.4810  -11.8010   20.5330 C   0  0  0  0  0  0  0  0  0  0  0  0
  -27.1690  -12.8890   19.7890 N   0  0  0  0  0  0  0  0  0  0  0  0
  -26.7090  -11.6420   20.0580 N   0  0  0  0  0  0  0  0  0  0  0  0
  -24.6520  -10.6140   20.7710 C   0  0  0  0  0  0  0  0  0  0  0  0
  -25.0070   -9.6530   21.7420 C   0  0  0  0  0  3  0  0  0  0  0  0
  -24.1820   -8.5330   21.9760 C   0  0  0  0  0  3  0  0  0  0  0  0
  -22.9900   -8.3620   21.2350 C   0  0  0  0  0  0  0  0  0  0  0  0
  -22.6540   -9.3060   20.2480 C   0  0  0  0  0  3  0  0  0  0  0  0
  -23.4760  -10.4200   20.0160 C   0  0  0  0  0  3  0  0  0  0  0  0
  -22.1450   -7.2880   21.3760 O   0  0  0  0  0  0  0  0  0  0  0  0
  -21.9350   -6.6940   22.5930 C   0  0  0  0  0  0  0  0  0  0  0  0
  -21.4200   -7.4110   23.6970 C   0  0  0  0  0  3  0  0  0  0  0  0
  -21.1620   -6.7440   24.9120 C   0  0  0  0  0  3  0  0  0  0  0  0
  -21.4010   -5.3600   25.0190 C   0  0  0  0  0  0  0  0  0  0  0  0
  -21.8970   -4.6410   23.9160 C   0  0  0  0  0  3  0  0  0  0  0  0
  -22.1650   -5.3080   22.7060 C   0  0  0  0  0  0  0  0  0  0  0  0
  -22.6310   -4.6090   21.6440 F   0  0  0  0  0  0  0  0  0  0  0  0
  -21.1370   -4.7170   26.1790 F   0  0  0  0  0  0  0  0  0  0  0  0
  -23.8970  -13.7990   21.1580 C   0  0  0  0  0  0  0  0  0  0  0  0
  -23.2400  -13.1690   22.1240 N   0  0  0  0  0  0  0  0  0  0  0  0
  -23.4910  -14.8730   20.7050 O   0  0  0  0  0  0  0  0  0  0  0  0
  -23.5880  -12.3120   22.5320 H   0  0  0  0  0  0  0  0  0  0  0  0
  -22.3680  -13.5460   22.4690 H   0  0  0  0  0  0  0  0  0  0  0  0
  -26.5380  -15.2160   20.0120 N   0  0  0  0  0  0  0  0  0  0  0  0
  -25.8510  -15.9200   20.2510 H   0  0  0  0  0  0  0  0  0  0  0  0
  -27.3760  -15.5870   19.5840 H   0  0  0  0  0  0  0  0  0  0  0  0
  -30.4070  -21.5940   19.3920 N   0  0  0  0  0  0  0  0  0  0  0  0
  -31.4080  -21.6320   19.2090 H   0  0  0  0  0  0  0  0  0  0  0  0
  -29.6150  -22.6450   18.7190 C   0  0  0  0  0  2  0  0  0  0  0  0
  -29.7970  -24.1200   19.1970 C   0  0  0  0  0  0  0  0  0  0  0  0
  -30.6590  -24.4460   20.0240 O   0  0  0  0  0  0  0  0  0  0  0  0
  -28.8030  -25.1320   18.5660 C   0  0  0  0  0  2  0  0  0  0  0  0
  -28.8560  -26.5120   19.0450 O   0  0  0  0  0  0  0  0  0  0  0  0
  -24.7570  -30.8660   22.9890 C   0  0  0  0  0  0  0  0  0  0  0  0
  -27.6350  -27.1800   19.1540 C   0  0  0  0  0  0  0  0  0  0  0  0
  -23.5950  -29.5760   21.2280 C   0  0  0  0  0  3  0  0  0  0  0  0
  -25.0940  -28.4330   19.5080 C   0  0  0  0  0  0  0  0  0  0  0  0
  -26.0570  -30.2320   20.9510 C   0  0  0  0  0  2  0  0  0  0  0  0
  -26.2360  -28.9830   20.1060 C   0  0  0  0  0  0  0  0  0  0  0  0
  -27.5040  -28.3660   19.9230 C   0  0  0  0  0  3  0  0  0  0  0  0
  -26.4650  -26.6870   18.5200 C   0  0  0  0  0  3  0  0  0  0  0  0
  -25.2100  -27.2890   18.7090 C   0  0  0  0  0  3  0  0  0  0  0  0
  -23.7740  -29.1240   19.7570 C   0  0  0  0  0  2  0  0  0  0  0  0
  -24.8210  -30.2410   21.7790 N   0  0  0  0  0  0  0  0  0  0  0  0
  -23.6950  -30.9360   23.6230 O   0  0  0  0  0  0  0  0  0  0  0  0
  -23.1200  -28.3680   22.0670 C   0  0  0  0  0  0  0  0  0  0  0  0
  -21.8710  -27.9260   21.8460 N   0  0  0  0  0  0  0  0  0  0  0  0
  -23.8790  -27.8330   22.8810 O   0  0  0  0  0  0  0  0  0  0  0  0
  -21.3020  -28.4270   21.1750 H   0  0  0  0  0  0  0  0  0  0  0  0
  -18.9040  -25.8660   21.8710 C   0  0  0  0  0  0  0  0  0  0  0  0
  -21.2420  -26.7730   22.4930 C   0  0  0  0  0  3  0  0  0  0  0  0
  -21.7970  -25.4420   21.9290 C   0  0  0  0  0  2  0  0  0  0  0  0
  -20.9620  -24.8870   20.7740 C   0  0  0  0  0  2  0  0  0  0  0  0
  -19.5200  -24.6410   21.2210 C   0  0  0  0  0  2  0  0  0  0  0  0
  -19.7130  -26.8740   22.4580 C   0  0  0  0  0  0  0  0  0  0  0  0
  -19.0930  -28.0120   23.0160 C   0  0  0  0  0  3  0  0  0  0  0  0
  -17.6930  -28.1460   23.0050 C   0  0  0  0  0  3  0  0  0  0  0  0
  -16.8950  -27.1350   22.4410 C   0  0  0  0  0  3  0  0  0  0  0  0
  -17.5010  -25.9990   21.8790 C   0  0  0  0  0  3  0  0  0  0  0  0
  -26.0090  -31.5520   23.6170 C   0  0  0  0  0  3  0  0  0  0  0  0
  -25.6120  -32.9050   24.0350 N   0  0  0  0  0  0  0  0  0  0  0  0
  -25.8500  -34.0220   23.3340 C   0  0  0  0  0  0  0  0  0  0  0  0
  -26.5000  -34.0250   22.2860 O   0  0  0  0  0  0  0  0  0  0  0  0
  -25.0280  -32.9680   24.8560 H   0  0  0  0  0  0  0  0  0  0  0  0
  -23.9810  -35.6980   23.1340 C   0  0  0  0  0  1  0  0  0  0  0  0
  -25.2740  -35.3430   23.8830 C   0  0  0  0  0  3  0  0  0  0  0  0
  -27.3600  -36.3460   24.7060 C   0  0  0  0  0  1  0  0  0  0  0  0
  -26.2210  -36.4760   23.8010 N   0  0  0  0  0  0  0  0  0  0  0  0
  -25.7500  -37.3520   24.0100 H   0  0  0  0  0  0  0  0  0  0  0  0
  -26.6160  -30.7520   24.8360 C   0  0  1  0  0  0  0  0  0  0  0  0
  -25.5770  -30.3540   25.9080 C   0  0  0  0  0  1  0  0  0  0  0  0
  -27.3060  -29.4560   24.3520 C   0  0  0  0  0  1  0  0  0  0  0  0
  -27.7000  -31.6020   25.5370 C   0  0  0  0  0  1  0  0  0  0  0  0
  1  4  1  0
  2  1  2  0
  3  6  2  0
  3  5  1  0
  4  7  1  0
  5  9  1  0
  5  4  2  0
  6  2  1  0
  9  8  1  0
 10 16  1  0
 10 18  1  0
 11 16  1  0
 12 13  1  0
 12 11  1  0
 14 13  1  0
 14 23  1  0
 14 15  1  0
 16 15  1  0
 17 10  2  0
 18  9  1  0
 19 18  1  0
 20 21  2  0
 21 40  1  0
 22 21  1  0
 22 25  1  0
 23 24  1  0
 23 20  1  0
 24 22  2  0
 25 26  1  0
 26 27  2  0
 28 31  1  0
 28 27  1  0
 29 28  2  0
 30 29  1  0
 30 25  2  0
 31 32  1  0
 32 37  2  0
 32 33  1  0
 33 34  2  0
 34 35  1  0
 35 39  1  0
 36 35  2  0
 37 36  1  0
 38 37  1  0
 40 41  1  0
 41 44  1  0
 41 43  1  0
 42 40  2  0
 45 20  1  0
 45 46  1  0
 47 45  1  0
 48  6  1  0
 49 48  1  0
 50 51  1  0
 50 48  1  0
 51 52  2  0
 53 54  1  0
 53 51  1  0
 54 56  1  0
 55 66  2  0
 56 61  1  0
 57 65  1  0
 57 67  1  0
 58 64  1  0
 58 60  1  0
 59 65  1  0
 60 59  1  0
 61 60  2  0
 62 63  1  0
 62 56  2  0
 63 58  2  0
 64 57  1  0
 65 55  1  0
 67 69  2  0
 68 67  1  0
 70 68  1  0
 71 80  2  0
 71 76  1  0
 72 68  1  0
 73 72  1  0
 74 75  1  0
 74 73  1  0
 75 71  1  0
 76 72  1  0
 76 77  2  0
 78 77  1  0
 79 78  2  0
 80 79  1  0
 81 55  1  0
 81 82  1  0
 81 91  1  0
 82 85  1  0
 83 87  1  0
 83 82  1  0
 84 83  2  0
 87 86  1  0
 89 87  1  0
 89 90  1  0
 89 88  1  0
 91 94  1  1
 91 92  1  0
 93 91  1  0
M  ISO  4  10 100  18 100  53 101  54 101
M  END
>  <TORSDO>  (66) 
F 21

>  <SCORE>  (66) 
-9.092

>  <name>  (66) 
65

>  <ligand_id>  (66) 
65

>  <original_smiles>  (66) 
[H]c1c([H])c([H])c2c(c1[H])C([H])([H])C([H])([H])C([H])([H])C2([H])N([H])C(=O)C1([H])N(C(=O)C([H])(N([H])C(=O)C([H])(N([H])C([H])([H])[H])C([H])([H])[H])C(C([H])([H])[H])(C([H])([H])[H])C([H])([H])[H])C([H])([H])c2c([H])c(OC([H])([H])C(=O)C([H])([H])N([H])c3c([H])c([H])c(C([H])([H])[H])c(C([H])(N([H])C(=O)N4C([H])([H])C([H])([H])C([H])([H])C([H])(n5nc(-c6c([H])c([H])c(Oc7c([H])c([H])c(F)c([H])c7F)c([H])c6[H])c(C(=O)N([H])[H])c5N([H])[H])C4([H])[H])C([H])([H])[H])c3[H])c([H])c([H])c2C1([H])[H]

>  <smiles>  (66) 
[H]c1c([H])c([H])c2c(c1[H])C([H])([H])C([H])([H])C([H])([H])C2([H])N([H])C(=O)C1([H])N(C(=O)C([H])(N([H])C(=O)C([H])(N([H])C([H])([H])[H])C([H])([H])[H])C(C([H])([H])[H])(C([H])([H])[H])C([H])([H])[H])C([H])([H])c2c([H])c(OC([H])([H])C(=O)C([H])([H])N([H])c3c([H])c([H])c(C([H])([H])[H])c(C([H])(N([H])C(=O)N4C([H])([H])C([H])([H])C([H])([H])C([H])(n5nc(-c6c([H])c([H])c(Oc7c([H])c([H])c(F)c([H])c7F)c([H])c6[H])c(C(=O)N([H])[H])c5N([H])[H])C4([H])[H])C([H])([H])[H])c3[H])c([H])c([H])c2C1([H])[H]

$$$$
66:0:0
     RDKit          3D

 98107  0  0  1  0  0  0  0  0999 V2000
  -27.0840  -23.5580   18.5230 C   0  0  0  0  0  3  0  0  0  0  0  0
  -28.1270  -23.8410   19.3370 C   0  0  0  0  0  0  0  0  0  0  0  0
  -26.6450  -22.1870   18.2870 C   0  0  0  0  0  0  0  0  0  0  0  0
  -27.7460  -21.1350   18.3010 C   0  0  0  0  0  2  0  0  0  0  0  0
  -28.8750  -22.6230   20.0610 C   0  0  0  0  0  3  0  0  0  0  0  0
  -30.3810  -22.8660   20.2410 C   0  0  0  0  0  1  0  0  0  0  0  0
  -28.6200  -21.2450   19.4710 N   0  0  0  0  0  0  0  0  0  0  0  0
  -25.4760  -21.8750   18.0520 O   0  0  0  0  0  0  0  0  0  0  0  0
  -28.4310  -17.5950   20.5590 C   0  0  0  0  0  3  0  0  0  0  0  0
  -30.3310  -19.4110   19.6690 C   0  0  0  0  0  3  0  0  0  0  0  0
  -28.0840  -18.9690   20.3990 C   0  0  0  0  0  0  0  0  0  0  0  0
  -29.0270  -19.9310   19.9200 C   0  0  0  0  0  0  0  0  0  0  0  0
  -29.7090  -17.0610   20.2530 C   0  0  0  0  0  0  0  0  0  0  0  0
  -30.6730  -18.0250   19.8260 C   0  0  0  0  0  0  0  0  0  0  0  0
  -26.6390  -19.3520   20.6920 C   0  0  0  0  0  1  0  0  0  0  0  0
  -30.6510  -14.6140   19.8720 C   0  0  0  0  0  0  0  0  0  0  0  0
  -30.3830  -12.3960   18.7770 C   0  0  0  0  0  2  0  0  0  0  0  0
  -29.3210  -12.5480   17.6630 C   0  0  0  0  0  2  0  0  0  0  0  0
  -27.8950  -12.3730   18.2280 C   0  0  0  0  0  2  0  0  0  0  0  0
  -27.6600  -13.2010   19.5190 C   0  0  0  0  0  3  0  0  0  0  0  0
  -28.8200  -12.9900   20.5180 C   0  0  0  0  0  2  0  0  0  0  0  0
  -30.0670  -13.3740   19.8360 N   0  0  0  0  0  0  0  0  0  0  0  0
  -31.7550  -14.8070   19.3530 O   0  0  0  0  0  0  0  0  0  0  0  0
  -29.8650  -15.6040   20.4090 N   0  0  0  0  0  0  0  0  0  0  0  0
  -29.0670  -15.1840   20.8580 H   0  0  0  0  0  0  0  0  0  0  0  0
  -25.3640  -13.7950   20.5110 C   0  0  0  0  0  0  0  0  0  0  0  0
  -24.3310  -13.0160   20.9580 C   0  0  0  0  0  0  0  0  0  0  0  0
  -24.7660  -11.6630   20.8130 C   0  0  0  0  0  0  0  0  0  0  0  0
  -26.3630  -12.9150   20.1250 N   0  0  0  0  0  0  0  0  0  0  0  0
  -26.0150  -11.6260   20.3660 N   0  0  0  0  0  0  0  0  0  0  0  0
  -24.0470  -10.4000   21.0190 C   0  0  0  0  0  0  0  0  0  0  0  0
  -24.5170   -9.4230   21.9240 C   0  0  0  0  0  3  0  0  0  0  0  0
  -23.7990   -8.2230   22.1200 C   0  0  0  0  0  3  0  0  0  0  0  0
  -22.5990   -7.9930   21.4100 C   0  0  0  0  0  0  0  0  0  0  0  0
  -22.1470   -8.9570   20.4920 C   0  0  0  0  0  3  0  0  0  0  0  0
  -22.8650  -10.1480   20.2960 C   0  0  0  0  0  3  0  0  0  0  0  0
  -21.8510   -6.8450   21.5130 O   0  0  0  0  0  0  0  0  0  0  0  0
  -21.7820   -6.1330   22.6850 C   0  0  0  0  0  0  0  0  0  0  0  0
  -21.3210   -6.7170   23.8850 C   0  0  0  0  0  3  0  0  0  0  0  0
  -21.2010   -5.9320   25.0480 C   0  0  0  0  0  3  0  0  0  0  0  0
  -21.5310   -4.5640   25.0130 C   0  0  0  0  0  0  0  0  0  0  0  0
  -21.9860   -3.9800   23.8190 C   0  0  0  0  0  3  0  0  0  0  0  0
  -22.1070   -4.7620   22.6560 C   0  0  0  0  0  0  0  0  0  0  0  0
  -22.5250   -4.1900   21.5020 F   0  0  0  0  0  0  0  0  0  0  0  0
  -21.4080   -3.8070   26.1290 F   0  0  0  0  0  0  0  0  0  0  0  0
  -22.9770  -13.4930   21.3970 C   0  0  0  0  0  0  0  0  0  0  0  0
  -22.3420  -12.7760   22.3160 N   0  0  0  0  0  0  0  0  0  0  0  0
  -22.4930  -14.5360   20.9570 O   0  0  0  0  0  0  0  0  0  0  0  0
  -22.7480  -11.9320   22.6940 H   0  0  0  0  0  0  0  0  0  0  0  0
  -21.4350  -13.0730   22.6480 H   0  0  0  0  0  0  0  0  0  0  0  0
  -25.5330  -15.1700   20.3800 N   0  0  0  0  0  0  0  0  0  0  0  0
  -24.7830  -15.8190   20.5930 H   0  0  0  0  0  0  0  0  0  0  0  0
  -26.3090  -15.6020   19.8950 H   0  0  0  0  0  0  0  0  0  0  0  0
  -31.9740  -17.6250   19.5360 N   0  0  0  0  0  0  0  0  0  0  0  0
  -32.4870  -18.1450   18.8330 H   0  0  0  0  0  0  0  0  0  0  0  0
  -32.1180  -16.6120   19.4660 H   0  0  0  0  0  0  0  0  0  0  0  0
  -28.6970  -25.3210   19.2260 C   0  0  0  0  0  2  0  0  0  0  0  0
  -28.3520  -26.4240   20.1520 O   0  0  0  0  0  0  0  0  0  0  0  0
  -24.4660  -31.7340   23.0790 C   0  0  0  0  0  0  0  0  0  0  0  0
  -27.2180  -27.2470   20.0300 C   0  0  0  0  0  0  0  0  0  0  0  0
  -23.3120  -30.3080   21.4260 C   0  0  0  0  0  3  0  0  0  0  0  0
  -24.8130  -28.8000   20.0070 C   0  0  0  0  0  0  0  0  0  0  0  0
  -25.8420  -30.6890   21.2660 C   0  0  0  0  0  2  0  0  0  0  0  0
  -25.9610  -29.3140   20.6200 C   0  0  0  0  0  0  0  0  0  0  0  0
  -27.1620  -28.5430   20.6330 C   0  0  0  0  0  3  0  0  0  0  0  0
  -26.0460  -26.7890   19.3960 C   0  0  0  0  0  3  0  0  0  0  0  0
  -24.8560  -27.5400   19.3910 C   0  0  0  0  0  3  0  0  0  0  0  0
  -23.5530  -29.6390   20.0470 C   0  0  0  0  0  2  0  0  0  0  0  0
  -24.5580  -30.9280   21.9810 N   0  0  0  0  0  0  0  0  0  0  0  0
  -23.3710  -31.9840   23.6040 O   0  0  0  0  0  0  0  0  0  0  0  0
  -22.6650  -29.2750   22.3800 C   0  0  0  0  0  0  0  0  0  0  0  0
  -21.3370  -29.1010   22.2740 N   0  0  0  0  0  0  0  0  0  0  0  0
  -23.3580  -28.6330   23.1750 O   0  0  0  0  0  0  0  0  0  0  0  0
  -20.8360  -29.6700   21.6060 H   0  0  0  0  0  0  0  0  0  0  0  0
  -17.9630  -27.9360   22.8550 C   0  0  0  0  0  0  0  0  0  0  0  0
  -20.5320  -28.1510   23.0440 C   0  0  0  0  0  3  0  0  0  0  0  0
  -20.5930  -26.7370   22.4200 C   0  0  0  0  0  2  0  0  0  0  0  0
  -19.4530  -26.4630   21.4350 C   0  0  0  0  0  2  0  0  0  0  0  0
  -18.0960  -26.6070   22.1300 C   0  0  0  0  0  2  0  0  0  0  0  0
  -19.1070  -28.6680   23.2700 C   0  0  0  0  0  0  0  0  0  0  0  0
  -18.9280  -29.9140   23.9090 C   0  0  0  0  0  3  0  0  0  0  0  0
  -17.6370  -30.4270   24.1360 C   0  0  0  0  0  3  0  0  0  0  0  0
  -16.5080  -29.6930   23.7370 C   0  0  0  0  0  3  0  0  0  0  0  0
  -16.6720  -28.4480   23.1020 C   0  0  0  0  0  3  0  0  0  0  0  0
  -25.7280  -32.3970   23.7120 C   0  0  0  0  0  3  0  0  0  0  0  0
  -26.2600  -31.6300   24.9830 C   0  0  1  0  0  0  0  0  0  0  0  0
  -25.1720  -31.3550   26.0460 C   0  0  0  0  0  1  0  0  0  0  0  0
  -26.8830  -30.2730   24.5830 C   0  0  0  0  0  1  0  0  0  0  0  0
  -27.3860  -32.4500   25.6550 C   0  0  0  0  0  1  0  0  0  0  0  0
  -25.3750  -33.7830   24.0550 N   0  0  0  0  0  0  0  0  0  0  0  0
  -25.6680  -34.8530   23.3030 C   0  0  0  0  0  0  0  0  0  0  0  0
  -26.3350  -34.7790   22.2670 O   0  0  0  0  0  0  0  0  0  0  0  0
  -24.7840  -33.9120   24.8630 H   0  0  0  0  0  0  0  0  0  0  0  0
  -23.8750  -36.5880   22.9830 C   0  0  0  0  0  1  0  0  0  0  0  0
  -25.1400  -36.2200   23.7750 C   0  0  0  0  0  3  0  0  0  0  0  0
  -27.2530  -37.1760   24.5850 C   0  0  0  0  0  1  0  0  0  0  0  0
  -26.1350  -37.3100   23.6550 N   0  0  0  0  0  0  0  0  0  0  0  0
  -25.6980  -38.2140   23.8120 H   0  0  0  0  0  0  0  0  0  0  0  0
  1  2  2  0
  2  5  1  0
  3  4  1  0
  3  1  1  0
  4  7  1  0
  5  6  1  0
  7 12  1  0
  7  5  1  0
  8  3  2  0
 10 14  2  0
 10 12  1  0
 11  9  1  0
 11 15  1  0
 12 11  2  0
 13 24  1  0
 13  9  2  0
 14 13  1  0
 16 24  1  0
 17 22  1  0
 18 19  1  0
 18 17  1  0
 20 19  1  0
 20 29  1  0
 20 21  1  0
 22 16  1  0
 22 21  1  0
 23 16  2  0
 24 25  1  0
 26 27  2  0
 27 46  1  0
 28 27  1  0
 28 31  1  0
 29 30  1  0
 29 26  1  0
 30 28  2  0
 31 32  1  0
 32 33  2  0
 34 37  1  0
 34 33  1  0
 35 34  2  0
 36 35  1  0
 36 31  2  0
 37 38  1  0
 38 39  1  0
 39 40  2  0
 41 40  1  0
 41 45  1  0
 42 41  2  0
 43 38  2  0
 43 42  1  0
 44 43  1  0
 46 47  1  0
 47 50  1  0
 47 49  1  0
 48 46  2  0
 51 26  1  0
 51 52  1  0
 53 51  1  0
 54 14  1  0
 55 54  1  0
 56 54  1  0
 57  2  1  0
 57 58  1  0
 59 70  2  0
 60 58  1  0
 60 65  1  0
 61 69  1  0
 61 71  1  0
 62 68  1  0
 62 64  1  0
 63 69  1  0
 64 65  2  0
 64 63  1  0
 66 60  2  0
 67 66  1  0
 67 62  2  0
 68 61  1  0
 69 59  1  0
 71 73  2  0
 72 71  1  0
 74 72  1  0
 75 84  2  0
 75 80  1  0
 76 72  1  0
 76 80  1  0
 77 76  1  0
 78 79  1  0
 78 77  1  0
 79 75  1  0
 80 81  2  0
 81 82  1  0
 83 82  2  0
 84 83  1  0
 85 59  1  0
 85 90  1  0
 85 86  1  0
 86 89  1  1
 86 87  1  0
 88 86  1  0
 90 93  1  0
 91 95  1  0
 91 90  1  0
 92 91  2  0
 95 94  1  0
 97 95  1  0
 97 98  1  0
 97 96  1  0
M  ISO  4  16 100  24 100  57 101  58 101
M  END
>  <TORSDO>  (67) 
F 19

>  <SCORE>  (67) 
-12.607

>  <name>  (67) 
66

>  <ligand_id>  (67) 
66

>  <original_smiles>  (67) 
[H]C1=C(C([H])([H])Oc2c([H])c([H])c3c(c2[H])C([H])([H])N(C(=O)C([H])(N([H])C(=O)C([H])(N([H])C([H])([H])[H])C([H])([H])[H])C(C([H])([H])[H])(C([H])([H])[H])C([H])([H])[H])C([H])(C(=O)N([H])C2([H])c4c([H])c([H])c([H])c([H])c4C([H])([H])C([H])([H])C2([H])[H])C3([H])[H])C([H])(C([H])([H])[H])N(c2c([H])c(N([H])[H])c(N([H])C(=O)N3C([H])([H])C([H])([H])C([H])([H])C([H])(n4nc(-c5c([H])c([H])c(Oc6c([H])c([H])c(F)c([H])c6F)c([H])c5[H])c(C(=O)N([H])[H])c4N([H])[H])C3([H])[H])c([H])c2C([H])([H])[H])C([H])([H])C1=O

>  <smiles>  (67) 
[H]C1=C(C([H])([H])Oc2c([H])c([H])c3c(c2[H])C([H])([H])N(C(=O)C([H])(N([H])C(=O)C([H])(N([H])C([H])([H])[H])C([H])([H])[H])C(C([H])([H])[H])(C([H])([H])[H])C([H])([H])[H])C([H])(C(=O)N([H])C2([H])c4c([H])c([H])c([H])c([H])c4C([H])([H])C([H])([H])C2([H])[H])C3([H])[H])C([H])(C([H])([H])[H])N(c2c([H])c(N([H])[H])c(N([H])C(=O)N3C([H])([H])C([H])([H])C([H])([H])C([H])(n4nc(-c5c([H])c([H])c(Oc6c([H])c([H])c(F)c([H])c6F)c([H])c5[H])c(C(=O)N([H])[H])c4N([H])[H])C3([H])[H])c([H])c2C([H])([H])[H])C([H])([H])C1=O

$$$$
67:0:0
     RDKit          3D

 94103  0  0  1  0  0  0  0  0999 V2000
  -28.7880  -24.4300   21.0960 C   0  0  0  0  0  0  0  0  0  0  0  0
  -28.3740  -25.7200   21.1630 C   0  0  0  0  0  3  0  0  0  0  0  0
  -30.0800  -21.2790   19.6070 C   0  0  0  0  0  0  0  0  0  0  0  0
  -28.6880  -23.4740   22.2570 C   0  0  0  0  0  2  0  0  0  0  0  0
  -29.3670  -23.6620   19.9200 C   0  0  0  0  0  2  0  0  0  0  0  0
  -28.8560  -22.0680   21.6620 C   0  0  0  0  0  2  0  0  0  0  0  0
  -29.4310  -22.2380   20.3260 N   0  0  0  0  0  0  0  0  0  0  0  0
  -30.7070  -21.5650   18.5840 O   0  0  0  0  0  0  0  0  0  0  0  0
  -31.2750  -19.0850   20.1030 C   0  0  0  0  0  3  0  0  0  0  0  0
  -31.2870  -17.6930   20.3660 C   0  0  0  0  0  3  0  0  0  0  0  0
  -28.8600  -19.1120   20.2630 C   0  0  0  0  0  3  0  0  0  0  0  0
  -30.0650  -19.8210   20.0450 C   0  0  0  0  0  0  0  0  0  0  0  0
  -30.0750  -16.9840   20.5530 C   0  0  0  0  0  0  0  0  0  0  0  0
  -28.8680  -17.7190   20.5160 C   0  0  0  0  0  0  0  0  0  0  0  0
  -27.6960  -17.0630   20.6870 F   0  0  0  0  0  0  0  0  0  0  0  0
  -30.7070  -14.5620   20.2550 C   0  0  0  0  0  0  0  0  0  0  0  0
  -30.4030  -12.4060   19.0910 C   0  0  0  0  0  2  0  0  0  0  0  0
  -29.4270  -12.6290   17.9160 C   0  0  0  0  0  2  0  0  0  0  0  0
  -27.9650  -12.4780   18.3810 C   0  0  0  0  0  2  0  0  0  0  0  0
  -27.6590  -13.2900   19.6690 C   0  0  0  0  0  3  0  0  0  0  0  0
  -28.7430  -13.0490   20.7430 C   0  0  0  0  0  2  0  0  0  0  0  0
  -30.0530  -13.3710   20.1480 N   0  0  0  0  0  0  0  0  0  0  0  0
  -31.8340  -14.7380   19.7810 O   0  0  0  0  0  0  0  0  0  0  0  0
  -29.9800  -15.5680   20.7880 N   0  0  0  0  0  0  0  0  0  0  0  0
  -29.0820  -15.2740   21.1400 H   0  0  0  0  0  0  0  0  0  0  0  0
  -25.2730  -13.8810   20.4290 C   0  0  0  0  0  0  0  0  0  0  0  0
  -24.2150  -13.1010   20.8160 C   0  0  0  0  0  0  0  0  0  0  0  0
  -24.6830  -11.7520   20.7710 C   0  0  0  0  0  0  0  0  0  0  0  0
  -26.3190  -13.0060   20.1760 N   0  0  0  0  0  0  0  0  0  0  0  0
  -25.9680  -11.7200   20.4380 N   0  0  0  0  0  0  0  0  0  0  0  0
  -23.9680  -10.4860   20.9740 C   0  0  0  0  0  0  0  0  0  0  0  0
  -24.4130   -9.5260   21.9100 C   0  0  0  0  0  3  0  0  0  0  0  0
  -23.6970   -8.3250   22.1000 C   0  0  0  0  0  3  0  0  0  0  0  0
  -22.5220   -8.0750   21.3530 C   0  0  0  0  0  0  0  0  0  0  0  0
  -22.0950   -9.0220   20.4060 C   0  0  0  0  0  3  0  0  0  0  0  0
  -22.8120  -10.2160   20.2150 C   0  0  0  0  0  3  0  0  0  0  0  0
  -21.7770   -6.9250   21.4510 O   0  0  0  0  0  0  0  0  0  0  0  0
  -21.7230   -6.1980   22.6130 C   0  0  0  0  0  0  0  0  0  0  0  0
  -21.2720   -6.7630   23.8250 C   0  0  0  0  0  3  0  0  0  0  0  0
  -21.1670   -5.9630   24.9810 C   0  0  0  0  0  3  0  0  0  0  0  0
  -21.5030   -4.5970   24.9250 C   0  0  0  0  0  0  0  0  0  0  0  0
  -21.9480   -4.0300   23.7160 C   0  0  0  0  0  3  0  0  0  0  0  0
  -22.0540   -4.8290   22.5640 C   0  0  0  0  0  0  0  0  0  0  0  0
  -22.4640   -4.2730   21.3980 F   0  0  0  0  0  0  0  0  0  0  0  0
  -21.3950   -3.8250   26.0300 F   0  0  0  0  0  0  0  0  0  0  0  0
  -22.8220  -13.5710   21.1210 C   0  0  0  0  0  0  0  0  0  0  0  0
  -22.1160  -12.8690   22.0010 N   0  0  0  0  0  0  0  0  0  0  0  0
  -22.3680  -14.5970   20.6170 O   0  0  0  0  0  0  0  0  0  0  0  0
  -22.4970  -12.0390   22.4310 H   0  0  0  0  0  0  0  0  0  0  0  0
  -21.1840  -13.1680   22.2490 H   0  0  0  0  0  0  0  0  0  0  0  0
  -25.4220  -15.2520   20.2600 N   0  0  0  0  0  0  0  0  0  0  0  0
  -24.6600  -15.8970   20.4310 H   0  0  0  0  0  0  0  0  0  0  0  0
  -26.2960  -15.7270   20.0600 H   0  0  0  0  0  0  0  0  0  0  0  0
  -28.3900  -26.6610   20.1540 O   0  0  0  0  0  0  0  0  0  0  0  0
  -24.5940  -31.8840   23.2180 C   0  0  0  0  0  0  0  0  0  0  0  0
  -27.2690  -27.4650   20.1220 C   0  0  0  0  0  0  0  0  0  0  0  0
  -23.4010  -30.4850   21.5610 C   0  0  0  0  0  3  0  0  0  0  0  0
  -24.8710  -28.9640   20.1300 C   0  0  0  0  0  0  0  0  0  0  0  0
  -25.9280  -30.8570   21.3770 C   0  0  0  0  0  2  0  0  0  0  0  0
  -26.0260  -29.4900   20.7260 C   0  0  0  0  0  0  0  0  0  0  0  0
  -27.2320  -28.7480   20.7190 C   0  0  0  0  0  3  0  0  0  0  0  0
  -26.1010  -26.9560   19.5180 C   0  0  0  0  0  3  0  0  0  0  0  0
  -24.9050  -27.6970   19.5210 C   0  0  0  0  0  3  0  0  0  0  0  0
  -23.6200  -29.8150   20.1780 C   0  0  0  0  0  2  0  0  0  0  0  0
  -24.6580  -31.0910   22.1100 N   0  0  0  0  0  0  0  0  0  0  0  0
  -23.5100  -32.1470   23.7560 O   0  0  0  0  0  0  0  0  0  0  0  0
  -22.7500  -29.4570   22.5140 C   0  0  0  0  0  0  0  0  0  0  0  0
  -21.4240  -29.2810   22.3930 N   0  0  0  0  0  0  0  0  0  0  0  0
  -23.4360  -28.8200   23.3190 O   0  0  0  0  0  0  0  0  0  0  0  0
  -20.9330  -29.8460   21.7150 H   0  0  0  0  0  0  0  0  0  0  0  0
  -18.0440  -28.1090   22.9110 C   0  0  0  0  0  0  0  0  0  0  0  0
  -20.6070  -28.3390   23.1590 C   0  0  0  0  0  3  0  0  0  0  0  0
  -20.6890  -26.9170   22.5580 C   0  0  0  0  0  2  0  0  0  0  0  0
  -19.5740  -26.6220   21.5490 C   0  0  0  0  0  2  0  0  0  0  0  0
  -18.2010  -26.7700   22.2100 C   0  0  0  0  0  2  0  0  0  0  0  0
  -19.1750  -28.8530   23.3410 C   0  0  0  0  0  0  0  0  0  0  0  0
  -18.9760  -30.1080   23.9560 C   0  0  0  0  0  3  0  0  0  0  0  0
  -17.6780  -30.6190   24.1460 C   0  0  0  0  0  3  0  0  0  0  0  0
  -16.5610  -29.8710   23.7330 C   0  0  0  0  0  3  0  0  0  0  0  0
  -16.7460  -28.6180   23.1210 C   0  0  0  0  0  3  0  0  0  0  0  0
  -25.8760  -32.5170   23.8440 C   0  0  0  0  0  3  0  0  0  0  0  0
  -25.5630  -33.9140   24.1740 N   0  0  0  0  0  0  0  0  0  0  0  0
  -25.8970  -34.9680   23.4160 C   0  0  0  0  0  0  0  0  0  0  0  0
  -26.5710  -34.8660   22.3870 O   0  0  0  0  0  0  0  0  0  0  0  0
  -24.9690  -34.0680   24.9740 H   0  0  0  0  0  0  0  0  0  0  0  0
  -24.1700  -36.7590   23.0460 C   0  0  0  0  0  1  0  0  0  0  0  0
  -25.4030  -36.3540   23.8710 C   0  0  0  0  0  3  0  0  0  0  0  0
  -27.5290  -37.2400   24.7240 C   0  0  0  0  0  1  0  0  0  0  0  0
  -26.4360  -37.4090   23.7700 N   0  0  0  0  0  0  0  0  0  0  0  0
  -26.0270  -38.3280   23.9130 H   0  0  0  0  0  0  0  0  0  0  0  0
  -26.3910  -31.7450   25.1200 C   0  0  1  0  0  0  0  0  0  0  0  0
  -25.2960  -31.5070   26.1870 C   0  0  0  0  0  1  0  0  0  0  0  0
  -26.9760  -30.3680   24.7290 C   0  0  0  0  0  1  0  0  0  0  0  0
  -27.5400  -32.5410   25.7860 C   0  0  0  0  0  1  0  0  0  0  0  0
  1  2  2  0
  1  4  1  0
  3 12  1  0
  3  7  1  0
  5  7  1  0
  5  1  1  0
  6  4  1  0
  7  6  1  0
  8  3  2  0
  9 10  1  0
 10 13  2  0
 11 14  2  0
 12  9  2  0
 12 11  1  0
 13 24  1  0
 14 13  1  0
 14 15  1  0
 16 24  1  0
 17 22  1  0
 18 19  1  0
 18 17  1  0
 20 19  1  0
 20 29  1  0
 20 21  1  0
 22 16  1  0
 22 21  1  0
 23 16  2  0
 24 25  1  0
 26 27  2  0
 27 46  1  0
 28 27  1  0
 28 31  1  0
 29 26  1  0
 29 30  1  0
 30 28  2  0
 31 32  1  0
 32 33  2  0
 34 37  1  0
 34 33  1  0
 35 34  2  0
 36 35  1  0
 36 31  2  0
 37 38  1  0
 38 39  1  0
 39 40  2  0
 41 40  1  0
 41 45  1  0
 42 41  2  0
 43 38  2  0
 43 42  1  0
 44 43  1  0
 46 47  1  0
 47 50  1  0
 47 49  1  0
 48 46  2  0
 51 26  1  0
 51 52  1  0
 53 51  1  0
 54  2  1  0
 55 66  2  0
 56 54  1  0
 56 61  1  0
 57 65  1  0
 57 67  1  0
 58 64  1  0
 58 60  1  0
 59 65  1  0
 60 59  1  0
 61 60  2  0
 62 63  1  0
 62 56  2  0
 63 58  2  0
 64 57  1  0
 65 55  1  0
 67 69  2  0
 68 67  1  0
 70 68  1  0
 71 80  2  0
 71 76  1  0
 72 68  1  0
 72 76  1  0
 73 72  1  0
 74 75  1  0
 74 73  1  0
 75 71  1  0
 76 77  2  0
 77 78  1  0
 79 78  2  0
 80 79  1  0
 81 55  1  0
 81 82  1  0
 81 91  1  0
 82 85  1  0
 83 87  1  0
 83 82  1  0
 84 83  2  0
 87 86  1  0
 89 87  1  0
 89 90  1  0
 89 88  1  0
 91 94  1  1
 91 92  1  0
 93 91  1  0
M  ISO  4   2 101  16 100  24 100  54 101
M  END
>  <TORSDO>  (68) 
F 17

>  <SCORE>  (68) 
-15.449

>  <name>  (68) 
67

>  <ligand_id>  (68) 
67

>  <original_smiles>  (68) 
[H]C(Oc1c([H])c([H])c2c(c1[H])C([H])([H])N(C(=O)C([H])(N([H])C(=O)C([H])(N([H])C([H])([H])[H])C([H])([H])[H])C(C([H])([H])[H])(C([H])([H])[H])C([H])([H])[H])C([H])(C(=O)N([H])C1([H])c3c([H])c([H])c([H])c([H])c3C([H])([H])C([H])([H])C1([H])[H])C2([H])[H])=C1C([H])([H])N(C(=O)c2c([H])c([H])c(N([H])C(=O)N3C([H])([H])C([H])([H])C([H])([H])C([H])(n4nc(-c5c([H])c([H])c(Oc6c([H])c([H])c(F)c([H])c6F)c([H])c5[H])c(C(=O)N([H])[H])c4N([H])[H])C3([H])[H])c(F)c2[H])C([H])([H])C1([H])[H]

>  <smiles>  (68) 
[H]C(Oc1c([H])c([H])c2c(c1[H])C([H])([H])N(C(=O)C([H])(N([H])C(=O)C([H])(N([H])C([H])([H])[H])C([H])([H])[H])C(C([H])([H])[H])(C([H])([H])[H])C([H])([H])[H])C([H])(C(=O)N([H])C1([H])c3c([H])c([H])c([H])c([H])c3C([H])([H])C([H])([H])C1([H])[H])C2([H])[H])=C1C([H])([H])N(C(=O)c2c([H])c([H])c(N([H])C(=O)N3C([H])([H])C([H])([H])C([H])([H])C([H])(n4nc(-c5c([H])c([H])c(Oc6c([H])c([H])c(F)c([H])c6F)c([H])c5[H])c(C(=O)N([H])[H])c4N([H])[H])C3([H])[H])c(F)c2[H])C([H])([H])C1([H])[H]

$$$$
68:0:0
     RDKit          3D

 95104  0  0  1  0  0  0  0  0999 V2000
  -30.3540  -23.8550   20.0260 C   0  0  0  0  0  3  0  0  0  0  0  0
  -28.9350  -23.8860   20.1560 C   0  0  0  0  0  0  0  0  0  0  0  0
  -28.5770  -22.5530   20.4030 C   0  0  0  0  0  0  0  0  0  0  0  0
  -30.7760  -22.5530   20.1280 C   0  0  0  0  0  0  0  0  0  0  0  0
  -29.7030  -21.6870   20.3390 N   0  0  0  0  0  0  0  0  0  0  0  0
  -28.8310  -19.3760   19.7600 C   0  0  0  0  0  3  0  0  0  0  0  0
  -30.7860  -19.5180   21.1430 C   0  0  0  0  0  3  0  0  0  0  0  0
  -28.8760  -17.9540   19.8510 C   0  0  0  0  0  3  0  0  0  0  0  0
  -30.8530  -18.0890   21.2100 C   0  0  0  0  0  3  0  0  0  0  0  0
  -29.7690  -20.2140   20.4230 C   0  0  0  0  0  0  0  0  0  0  0  0
  -29.8870  -17.2670   20.5710 C   0  0  0  0  0  0  0  0  0  0  0  0
  -30.6110  -14.7760   20.4130 C   0  0  0  0  0  0  0  0  0  0  0  0
  -30.4150  -12.5380   19.3410 C   0  0  0  0  0  2  0  0  0  0  0  0
  -29.4720  -12.6650   18.1220 C   0  0  0  0  0  2  0  0  0  0  0  0
  -27.9970  -12.5050   18.5440 C   0  0  0  0  0  2  0  0  0  0  0  0
  -27.6330  -13.3680   19.7810 C   0  0  0  0  0  3  0  0  0  0  0  0
  -28.6870  -13.2060   20.9010 C   0  0  0  0  0  2  0  0  0  0  0  0
  -30.0000  -13.5510   20.3310 N   0  0  0  0  0  0  0  0  0  0  0  0
  -31.7780  -14.9430   20.0470 O   0  0  0  0  0  0  0  0  0  0  0  0
  -29.7840  -15.8180   20.7400 N   0  0  0  0  0  0  0  0  0  0  0  0
  -28.8500  -15.4920   20.9360 H   0  0  0  0  0  0  0  0  0  0  0  0
  -25.2330  -13.9740   20.4770 C   0  0  0  0  0  0  0  0  0  0  0  0
  -24.1620  -13.2050   20.8440 C   0  0  0  0  0  0  0  0  0  0  0  0
  -24.6240  -11.8520   20.8250 C   0  0  0  0  0  0  0  0  0  0  0  0
  -26.2790  -13.0910   20.2570 N   0  0  0  0  0  0  0  0  0  0  0  0
  -25.9170  -11.8110   20.5260 N   0  0  0  0  0  0  0  0  0  0  0  0
  -23.8960  -10.5920   21.0170 C   0  0  0  0  0  0  0  0  0  0  0  0
  -24.3120   -9.6350   21.9680 C   0  0  0  0  0  3  0  0  0  0  0  0
  -23.5840   -8.4400   22.1470 C   0  0  0  0  0  3  0  0  0  0  0  0
  -22.4250   -8.1920   21.3750 C   0  0  0  0  0  0  0  0  0  0  0  0
  -22.0270   -9.1380   20.4130 C   0  0  0  0  0  3  0  0  0  0  0  0
  -22.7560  -10.3250   20.2320 C   0  0  0  0  0  3  0  0  0  0  0  0
  -21.6700   -7.0480   21.4620 O   0  0  0  0  0  0  0  0  0  0  0  0
  -21.5990   -6.3190   22.6220 C   0  0  0  0  0  0  0  0  0  0  0  0
  -21.1180   -6.8800   23.8250 C   0  0  0  0  0  3  0  0  0  0  0  0
  -20.9960   -6.0770   24.9780 C   0  0  0  0  0  3  0  0  0  0  0  0
  -21.3440   -4.7130   24.9270 C   0  0  0  0  0  0  0  0  0  0  0  0
  -21.8190   -4.1520   23.7280 C   0  0  0  0  0  3  0  0  0  0  0  0
  -21.9420   -4.9520   22.5780 C   0  0  0  0  0  0  0  0  0  0  0  0
  -22.3790   -4.4020   21.4200 F   0  0  0  0  0  0  0  0  0  0  0  0
  -21.2200   -3.9400   26.0300 F   0  0  0  0  0  0  0  0  0  0  0  0
  -22.7640  -13.6850   21.1010 C   0  0  0  0  0  0  0  0  0  0  0  0
  -22.0280  -12.9950   21.9670 N   0  0  0  0  0  0  0  0  0  0  0  0
  -22.3310  -14.7070   20.5710 O   0  0  0  0  0  0  0  0  0  0  0  0
  -22.3910  -12.1690   22.4180 H   0  0  0  0  0  0  0  0  0  0  0  0
  -21.0900  -13.3000   22.1830 H   0  0  0  0  0  0  0  0  0  0  0  0
  -25.3990  -15.3430   20.2900 N   0  0  0  0  0  0  0  0  0  0  0  0
  -24.6250  -15.9940   20.3840 H   0  0  0  0  0  0  0  0  0  0  0  0
  -26.2390  -15.7790   19.9360 H   0  0  0  0  0  0  0  0  0  0  0  0
  -26.0740  -22.3940   20.1990 C   0  0  0  0  0  2  0  0  0  0  0  0
  -27.2800  -21.9750   20.6150 C   0  0  0  0  0  3  0  0  0  0  0  0
  -32.0460  -22.0780   20.0010 O   0  0  0  0  0  0  0  0  0  0  0  0
  -32.6150  -22.8170   19.8090 H   0  0  0  0  0  0  0  0  0  0  0  0
  -27.9610  -25.1000   19.9580 C   0  0  0  0  0  2  0  0  0  0  0  0
  -28.3260  -26.5350   20.1070 O   0  0  0  0  0  0  0  0  0  0  0  0
  -24.6430  -31.9280   23.2570 C   0  0  0  0  0  0  0  0  0  0  0  0
  -27.2300  -27.4280   20.0740 C   0  0  0  0  0  0  0  0  0  0  0  0
  -23.4280  -30.5660   21.5990 C   0  0  0  0  0  3  0  0  0  0  0  0
  -24.8680  -29.0600   20.1260 C   0  0  0  0  0  0  0  0  0  0  0  0
  -25.9700  -30.8860   21.4050 C   0  0  0  0  0  2  0  0  0  0  0  0
  -26.0460  -29.5240   20.7250 C   0  0  0  0  0  0  0  0  0  0  0  0
  -27.2300  -28.7220   20.6900 C   0  0  0  0  0  3  0  0  0  0  0  0
  -26.0190  -27.0380   19.4440 C   0  0  0  0  0  3  0  0  0  0  0  0
  -24.8580  -27.8220   19.4770 C   0  0  0  0  0  3  0  0  0  0  0  0
  -23.6320  -29.9300   20.2020 C   0  0  0  0  0  2  0  0  0  0  0  0
  -24.7010  -31.1410   22.1430 N   0  0  0  0  0  0  0  0  0  0  0  0
  -23.5630  -32.1930   23.8040 O   0  0  0  0  0  0  0  0  0  0  0  0
  -22.7740  -29.5230   22.5390 C   0  0  0  0  0  0  0  0  0  0  0  0
  -21.4500  -29.3390   22.4090 N   0  0  0  0  0  0  0  0  0  0  0  0
  -23.4570  -28.8870   23.3440 O   0  0  0  0  0  0  0  0  0  0  0  0
  -20.9570  -29.9050   21.7320 H   0  0  0  0  0  0  0  0  0  0  0  0
  -18.0770  -28.1220   22.8980 C   0  0  0  0  0  0  0  0  0  0  0  0
  -20.6360  -28.3860   23.1640 C   0  0  0  0  0  3  0  0  0  0  0  0
  -20.7400  -26.9650   22.5620 C   0  0  0  0  0  2  0  0  0  0  0  0
  -19.6360  -26.6570   21.5470 C   0  0  0  0  0  2  0  0  0  0  0  0
  -18.2560  -26.7860   22.1980 C   0  0  0  0  0  2  0  0  0  0  0  0
  -19.1940  -28.8800   23.3380 C   0  0  0  0  0  0  0  0  0  0  0  0
  -18.9730  -30.1310   23.9540 C   0  0  0  0  0  3  0  0  0  0  0  0
  -17.6670  -30.6250   24.1340 C   0  0  0  0  0  3  0  0  0  0  0  0
  -16.5640  -29.8630   23.7100 C   0  0  0  0  0  3  0  0  0  0  0  0
  -16.7700  -28.6140   23.0980 C   0  0  0  0  0  3  0  0  0  0  0  0
  -25.9300  -32.5470   23.8820 C   0  0  0  0  0  3  0  0  0  0  0  0
  -26.4390  -31.7670   25.1550 C   0  0  1  0  0  0  0  0  0  0  0  0
  -25.3420  -31.5310   26.2190 C   0  0  0  0  0  1  0  0  0  0  0  0
  -27.0140  -30.3880   24.7590 C   0  0  0  0  0  1  0  0  0  0  0  0
  -27.5940  -32.5510   25.8220 C   0  0  0  0  0  1  0  0  0  0  0  0
  -25.6300  -33.9470   24.2180 N   0  0  0  0  0  0  0  0  0  0  0  0
  -25.9250  -34.9980   23.4410 C   0  0  0  0  0  0  0  0  0  0  0  0
  -26.5530  -34.8910   22.3830 O   0  0  0  0  0  0  0  0  0  0  0  0
  -25.0680  -34.1020   25.0420 H   0  0  0  0  0  0  0  0  0  0  0  0
  -24.1620  -36.7710   23.1730 C   0  0  0  0  0  1  0  0  0  0  0  0
  -25.4540  -36.3870   23.9120 C   0  0  0  0  0  3  0  0  0  0  0  0
  -27.6220  -37.3020   24.6100 C   0  0  0  0  0  1  0  0  0  0  0  0
  -26.4670  -37.4470   23.7270 N   0  0  0  0  0  0  0  0  0  0  0  0
  -26.0610  -38.3650   23.8850 H   0  0  0  0  0  0  0  0  0  0  0  0
  1  4  2  0
  1  2  1  0
  2  3  2  0
  3 51  1  0
  4  5  1  0
  5  3  1  0
  5 10  1  0
  6  8  2  0
  6 10  1  0
  7  9  1  0
  8 11  1  0
 10  7  2  0
 11 20  1  0
 11  9  2  0
 12 20  1  0
 13 18  1  0
 14 15  1  0
 14 13  1  0
 16 15  1  0
 16 25  1  0
 16 17  1  0
 18 12  1  0
 18 17  1  0
 19 12  2  0
 20 21  1  0
 22 23  2  0
 23 42  1  0
 24 23  1  0
 24 27  1  0
 25 22  1  0
 25 26  1  0
 26 24  2  0
 27 28  1  0
 28 29  2  0
 30 33  1  0
 30 29  1  0
 31 30  2  0
 32 31  1  0
 32 27  2  0
 33 34  1  0
 34 35  1  0
 35 36  2  0
 37 36  1  0
 37 41  1  0
 38 37  2  0
 39 34  2  0
 39 38  1  0
 40 39  1  0
 42 43  1  0
 43 46  1  0
 43 45  1  0
 44 42  2  0
 47 48  1  0
 47 22  1  0
 49 47  1  0
 50 51  2  0
 52  4  1  0
 53 52  1  0
 54 55  1  0
 54  2  1  0
 56 67  2  0
 57 55  1  0
 57 62  1  0
 58 66  1  0
 58 68  1  0
 59 65  1  0
 59 61  1  0
 60 66  1  0
 61 60  1  0
 62 61  2  0
 63 64  1  0
 63 57  2  0
 64 59  2  0
 65 58  1  0
 66 56  1  0
 68 70  2  0
 69 68  1  0
 71 69  1  0
 72 81  2  0
 72 77  1  0
 73 69  1  0
 73 77  1  0
 74 73  1  0
 75 76  1  0
 75 74  1  0
 76 72  1  0
 77 78  2  0
 78 79  1  0
 80 79  2  0
 81 80  1  0
 82 56  1  0
 82 87  1  0
 82 83  1  0
 83 86  1  1
 83 84  1  0
 85 83  1  0
 87 90  1  0
 88 92  1  0
 88 87  1  0
 89 88  2  0
 92 91  1  0
 94 95  1  0
 94 92  1  0
 94 93  1  0
M  ISO  4  12 100  20 100  54 101  55 101
M  END
>  <TORSDO>  (69) 
F 20

>  <SCORE>  (69) 
-13.915

>  <name>  (69) 
68

>  <ligand_id>  (69) 
68

>  <original_smiles>  (69) 
[H]Oc1c([H])c(C([H])([H])Oc2c([H])c([H])c3c(c2[H])C([H])([H])N(C(=O)C([H])(N([H])C(=O)C([H])(N([H])C([H])([H])[H])C([H])([H])[H])C(C([H])([H])[H])(C([H])([H])[H])C([H])([H])[H])C([H])(C(=O)N([H])C2([H])c4c([H])c([H])c([H])c([H])c4C([H])([H])C([H])([H])C2([H])[H])C3([H])[H])c(C([H])=C([H])[H])n1-c1c([H])c([H])c(N([H])C(=O)N2C([H])([H])C([H])([H])C([H])([H])C([H])(n3nc(-c4c([H])c([H])c(Oc5c([H])c([H])c(F)c([H])c5F)c([H])c4[H])c(C(=O)N([H])[H])c3N([H])[H])C2([H])[H])c([H])c1[H]

>  <smiles>  (69) 
[H]Oc1c([H])c(C([H])([H])Oc2c([H])c([H])c3c(c2[H])C([H])([H])N(C(=O)C([H])(N([H])C(=O)C([H])(N([H])C([H])([H])[H])C([H])([H])[H])C(C([H])([H])[H])(C([H])([H])[H])C([H])([H])[H])C([H])(C(=O)N([H])C2([H])c4c([H])c([H])c([H])c([H])c4C([H])([H])C([H])([H])C2([H])[H])C3([H])[H])c(C([H])=C([H])[H])n1-c1c([H])c([H])c(N([H])C(=O)N2C([H])([H])C([H])([H])C([H])([H])C([H])(n3nc(-c4c([H])c([H])c(Oc5c([H])c([H])c(F)c([H])c5F)c([H])c4[H])c(C(=O)N([H])[H])c3N([H])[H])C2([H])[H])c([H])c1[H]

$$$$
69:0:0
     RDKit          3D

 96105  0  0  1  0  0  0  0  0999 V2000
  -29.1610  -23.1260   21.1460 C   0  0  0  0  0  3  0  0  0  0  0  0
  -28.6280  -24.1700   20.4480 C   0  0  0  0  0  0  0  0  0  0  0  0
  -27.1040  -21.6280   19.2140 C   0  0  0  0  0  0  0  0  0  0  0  0
  -28.1530  -23.9550   19.0190 C   0  0  0  0  0  2  0  0  0  0  0  0
  -26.8660  -23.1140   18.9530 C   0  0  0  0  0  2  0  0  0  0  0  0
  -27.7990  -21.2010   20.5140 C   0  0  0  0  0  2  0  0  0  0  0  0
  -29.1420  -21.7610   20.7490 N   0  0  0  0  0  0  0  0  0  0  0  0
  -26.6770  -20.7880   18.4170 O   0  0  0  0  0  0  0  0  0  0  0  0
  -31.2330  -19.7430   23.1440 C   0  0  0  0  0  3  0  0  0  0  0  0
  -31.3880  -18.5190   22.4590 C   0  0  0  0  0  3  0  0  0  0  0  0
  -30.5220  -20.8200   22.5700 C   0  0  0  0  0  3  0  0  0  0  0  0
  -30.1080  -19.4550   20.6060 C   0  0  0  0  0  3  0  0  0  0  0  0
  -30.8440  -18.3560   21.1670 C   0  0  0  0  0  0  0  0  0  0  0  0
  -29.9420  -20.7050   21.2870 C   0  0  0  0  0  0  0  0  0  0  0  0
  -31.5730  -14.7430   20.2350 C   0  0  0  0  0  0  0  0  0  0  0  0
  -31.1760  -12.5230   19.2010 C   0  0  0  0  0  2  0  0  0  0  0  0
  -30.2520  -12.7020   17.9760 C   0  0  0  0  0  2  0  0  0  0  0  0
  -28.7710  -12.6520   18.4060 C   0  0  0  0  0  2  0  0  0  0  0  0
  -28.4650  -13.5550   19.6320 C   0  0  0  0  0  3  0  0  0  0  0  0
  -29.5090  -13.3490   20.7520 C   0  0  0  0  0  2  0  0  0  0  0  0
  -30.8470  -13.5820   20.1880 N   0  0  0  0  0  0  0  0  0  0  0  0
  -32.7060  -14.7770   19.7420 O   0  0  0  0  0  0  0  0  0  0  0  0
  -31.2340  -17.1510   20.3180 C   0  0  0  0  0  0  0  0  0  0  0  0
  -30.9760  -15.8680   20.7360 N   0  0  0  0  0  0  0  0  0  0  0  0
  -31.7680  -17.4070   19.2360 O   0  0  0  0  0  0  0  0  0  0  0  0
  -30.2750  -15.7500   21.4460 H   0  0  0  0  0  0  0  0  0  0  0  0
  -26.1180  -14.2990   20.3830 C   0  0  0  0  0  0  0  0  0  0  0  0
  -25.0020  -13.5910   20.7370 C   0  0  0  0  0  0  0  0  0  0  0  0
  -25.3650  -12.2130   20.6570 C   0  0  0  0  0  0  0  0  0  0  0  0
  -27.0980  -13.3560   20.1150 N   0  0  0  0  0  0  0  0  0  0  0  0
  -26.6480  -12.0950   20.3380 N   0  0  0  0  0  0  0  0  0  0  0  0
  -24.5530  -11.0020   20.8210 C   0  0  0  0  0  0  0  0  0  0  0  0
  -24.8940  -10.0040   21.7610 C   0  0  0  0  0  3  0  0  0  0  0  0
  -24.0890   -8.8530   21.9130 C   0  0  0  0  0  3  0  0  0  0  0  0
  -22.9250   -8.6930   21.1240 C   0  0  0  0  0  0  0  0  0  0  0  0
  -22.6010   -9.6790   20.1730 C   0  0  0  0  0  3  0  0  0  0  0  0
  -23.4070  -10.8210   20.0220 C   0  0  0  0  0  3  0  0  0  0  0  0
  -22.0990   -7.5970   21.1810 O   0  0  0  0  0  0  0  0  0  0  0  0
  -21.9090   -6.9000   22.3470 C   0  0  0  0  0  0  0  0  0  0  0  0
  -21.4240   -7.5240   23.5160 C   0  0  0  0  0  3  0  0  0  0  0  0
  -21.1790   -6.7580   24.6730 C   0  0  0  0  0  3  0  0  0  0  0  0
  -21.4080   -5.3690   24.6600 C   0  0  0  0  0  0  0  0  0  0  0  0
  -21.8850   -4.7450   23.4950 C   0  0  0  0  0  3  0  0  0  0  0  0
  -22.1340   -5.5080   22.3400 C   0  0  0  0  0  0  0  0  0  0  0  0
  -22.5750   -4.9000   21.2130 F   0  0  0  0  0  0  0  0  0  0  0  0
  -21.1640   -4.6310   25.7680 F   0  0  0  0  0  0  0  0  0  0  0  0
  -23.6420  -14.1600   21.0270 C   0  0  0  0  0  0  0  0  0  0  0  0
  -22.8790  -13.5170   21.9030 N   0  0  0  0  0  0  0  0  0  0  0  0
  -23.2660  -15.2140   20.5140 O   0  0  0  0  0  0  0  0  0  0  0  0
  -23.1870  -12.6650   22.3500 H   0  0  0  0  0  0  0  0  0  0  0  0
  -21.9650  -13.8860   22.1300 H   0  0  0  0  0  0  0  0  0  0  0  0
  -26.3740  -15.6610   20.2460 N   0  0  0  0  0  0  0  0  0  0  0  0
  -25.6470  -16.3550   20.3810 H   0  0  0  0  0  0  0  0  0  0  0  0
  -27.2380  -16.0620   19.9030 H   0  0  0  0  0  0  0  0  0  0  0  0
  -28.4100  -25.5890   21.0530 C   0  0  0  0  0  2  0  0  0  0  0  0
  -28.3230  -26.6980   20.1150 O   0  0  0  0  0  0  0  0  0  0  0  0
  -24.5780  -31.9310   23.2320 C   0  0  0  0  0  0  0  0  0  0  0  0
  -27.1710  -27.4670   20.1450 C   0  0  0  0  0  0  0  0  0  0  0  0
  -23.3510  -30.5300   21.6040 C   0  0  0  0  0  3  0  0  0  0  0  0
  -24.7830  -29.0030   20.1560 C   0  0  0  0  0  0  0  0  0  0  0  0
  -25.8730  -30.8950   21.3620 C   0  0  0  0  0  2  0  0  0  0  0  0
  -25.9540  -29.5200   20.7270 C   0  0  0  0  0  0  0  0  0  0  0  0
  -27.1530  -28.7670   20.7100 C   0  0  0  0  0  3  0  0  0  0  0  0
  -25.9810  -26.9740   19.5660 C   0  0  0  0  0  3  0  0  0  0  0  0
  -24.7970  -27.7290   19.5610 C   0  0  0  0  0  3  0  0  0  0  0  0
  -23.5330  -29.8500   20.2200 C   0  0  0  0  0  2  0  0  0  0  0  0
  -24.6200  -31.1350   22.1210 N   0  0  0  0  0  0  0  0  0  0  0  0
  -23.5060  -32.1940   23.7900 O   0  0  0  0  0  0  0  0  0  0  0  0
  -22.7210  -29.5090   22.5770 C   0  0  0  0  0  0  0  0  0  0  0  0
  -21.3960  -29.3190   22.4610 N   0  0  0  0  0  0  0  0  0  0  0  0
  -23.4160  -28.8870   23.3840 O   0  0  0  0  0  0  0  0  0  0  0  0
  -20.8910  -29.8600   21.7740 H   0  0  0  0  0  0  0  0  0  0  0  0
  -18.0420  -28.0740   22.9700 C   0  0  0  0  0  0  0  0  0  0  0  0
  -20.5970  -28.3710   23.2360 C   0  0  0  0  0  3  0  0  0  0  0  0
  -20.7240  -26.9440   22.6490 C   0  0  0  0  0  2  0  0  0  0  0  0
  -19.6210  -26.6090   21.6370 C   0  0  0  0  0  2  0  0  0  0  0  0
  -18.2380  -26.7310   22.2850 C   0  0  0  0  0  2  0  0  0  0  0  0
  -19.1480  -28.8530   23.3980 C   0  0  0  0  0  0  0  0  0  0  0  0
  -18.9110  -30.1180   23.9810 C   0  0  0  0  0  3  0  0  0  0  0  0
  -17.5980  -30.5970   24.1550 C   0  0  0  0  0  3  0  0  0  0  0  0
  -16.5050  -29.8110   23.7530 C   0  0  0  0  0  3  0  0  0  0  0  0
  -16.7280  -28.5530   23.1630 C   0  0  0  0  0  3  0  0  0  0  0  0
  -25.8770  -32.5640   23.8280 C   0  0  0  0  0  3  0  0  0  0  0  0
  -25.5670  -33.9580   24.1630 N   0  0  0  0  0  0  0  0  0  0  0  0
  -25.8960  -35.0140   23.4060 C   0  0  0  0  0  0  0  0  0  0  0  0
  -26.5590  -34.9170   22.3690 O   0  0  0  0  0  0  0  0  0  0  0  0
  -24.9790  -34.1060   24.9680 H   0  0  0  0  0  0  0  0  0  0  0  0
  -24.1590  -36.8040   23.0770 C   0  0  0  0  0  1  0  0  0  0  0  0
  -25.4090  -36.3980   23.8740 C   0  0  0  0  0  3  0  0  0  0  0  0
  -27.5500  -37.2800   24.6940 C   0  0  0  0  0  1  0  0  0  0  0  0
  -26.4410  -37.4540   23.7600 N   0  0  0  0  0  0  0  0  0  0  0  0
  -26.0350  -38.3720   23.9200 H   0  0  0  0  0  0  0  0  0  0  0  0
  -26.4210  -31.7930   25.0930 C   0  0  1  0  0  0  0  0  0  0  0  0
  -25.3370  -31.5140   26.1610 C   0  0  0  0  0  1  0  0  0  0  0  0
  -27.0380  -30.4380   24.6810 C   0  0  0  0  0  1  0  0  0  0  0  0
  -27.5540  -32.6080   25.7640 C   0  0  0  0  0  1  0  0  0  0  0  0
  2 55  1  0
  2  1  2  0
  3  6  1  0
  4  2  1  0
  5  4  1  0
  5  3  1  0
  6  7  1  0
  7  1  1  0
  7 14  1  0
  8  3  2  0
 10  9  2  0
 11  9  1  0
 12 13  2  0
 12 14  1  0
 13 10  1  0
 14 11  2  0
 15 24  1  0
 16 21  1  0
 17 18  1  0
 17 16  1  0
 19 18  1  0
 19 30  1  0
 19 20  1  0
 21 15  1  0
 21 20  1  0
 22 15  2  0
 23 24  1  0
 23 13  1  0
 24 26  1  0
 25 23  2  0
 27 28  2  0
 28 47  1  0
 29 28  1  0
 29 32  1  0
 30 31  1  0
 30 27  1  0
 31 29  2  0
 32 33  1  0
 33 34  2  0
 35 38  1  0
 35 34  1  0
 36 35  2  0
 37 36  1  0
 37 32  2  0
 38 39  1  0
 39 40  1  0
 40 41  2  0
 42 41  1  0
 42 46  1  0
 43 42  2  0
 44 39  2  0
 44 43  1  0
 45 44  1  0
 47 48  1  0
 48 51  1  0
 48 50  1  0
 49 47  2  0
 52 53  1  0
 52 27  1  0
 54 52  1  0
 56 58  1  0
 56 55  1  0
 57 68  2  0
 58 63  1  0
 59 67  1  0
 59 69  1  0
 60 66  1  0
 60 62  1  0
 61 67  1  0
 62 61  1  0
 63 62  2  0
 64 58  2  0
 65 64  1  0
 65 60  2  0
 66 59  1  0
 67 57  1  0
 69 71  2  0
 70 69  1  0
 72 70  1  0
 73 82  2  0
 73 78  1  0
 74 70  1  0
 74 78  1  0
 75 74  1  0
 76 77  1  0
 76 75  1  0
 77 73  1  0
 78 79  2  0
 79 80  1  0
 81 80  2  0
 82 81  1  0
 83 57  1  0
 83 84  1  0
 83 93  1  0
 84 87  1  0
 85 89  1  0
 85 84  1  0
 86 85  2  0
 89 88  1  0
 91 89  1  0
 91 92  1  0
 91 90  1  0
 93 96  1  1
 93 94  1  0
 95 93  1  0
M  ISO  4  15 100  24 100  55 101  56 101
M  END
>  <TORSDO>  (70) 
F 18

>  <SCORE>  (70) 
-13.948

>  <name>  (70) 
69

>  <ligand_id>  (70) 
69

>  <original_smiles>  (70) 
[H]C1=C(C([H])([H])Oc2c([H])c([H])c3c(c2[H])C([H])([H])N(C(=O)C([H])(N([H])C(=O)C([H])(N([H])C([H])([H])[H])C([H])([H])[H])C(C([H])([H])[H])(C([H])([H])[H])C([H])([H])[H])C([H])(C(=O)N([H])C2([H])c4c([H])c([H])c([H])c([H])c4C([H])([H])C([H])([H])C2([H])[H])C3([H])[H])C([H])([H])C([H])([H])C(=O)C([H])([H])N1c1c([H])c([H])c([H])c(C(=O)N([H])C(=O)N2C([H])([H])C([H])([H])C([H])([H])C([H])(n3nc(-c4c([H])c([H])c(Oc5c([H])c([H])c(F)c([H])c5F)c([H])c4[H])c(C(=O)N([H])[H])c3N([H])[H])C2([H])[H])c1[H]

>  <smiles>  (70) 
[H]C1=C(C([H])([H])Oc2c([H])c([H])c3c(c2[H])C([H])([H])N(C(=O)C([H])(N([H])C(=O)C([H])(N([H])C([H])([H])[H])C([H])([H])[H])C(C([H])([H])[H])(C([H])([H])[H])C([H])([H])[H])C([H])(C(=O)N([H])C2([H])c4c([H])c([H])c([H])c([H])c4C([H])([H])C([H])([H])C2([H])[H])C3([H])[H])C([H])([H])C([H])([H])C(=O)C([H])([H])N1c1c([H])c([H])c([H])c(C(=O)N([H])C(=O)N2C([H])([H])C([H])([H])C([H])([H])C([H])(n3nc(-c4c([H])c([H])c(Oc5c([H])c([H])c(F)c([H])c5F)c([H])c4[H])c(C(=O)N([H])[H])c3N([H])[H])C2([H])[H])c1[H]

$$$$
70:0:0
     RDKit          3D

 94103  0  0  1  0  0  0  0  0999 V2000
  -28.7720  -24.0140   20.0460 C   0  0  0  0  0  0  0  0  0  0  0  0
  -29.6020  -23.8930   18.8580 C   0  0  0  0  0  0  0  0  0  0  0  0
  -28.2320  -25.1900   20.5300 C   0  0  0  0  0  3  0  0  0  0  0  0
  -28.6290  -22.5490   20.5720 C   0  0  0  0  0  2  0  0  0  0  0  0
  -29.9890  -22.4260   18.6260 C   0  0  0  0  0  2  0  0  0  0  0  0
  -29.3960  -21.6040   19.6960 N   0  0  0  0  0  0  0  0  0  0  0  0
  -29.9220  -24.7980   18.0810 O   0  0  0  0  0  0  0  0  0  0  0  0
  -30.4760  -17.8930   19.1490 C   0  0  0  0  0  3  0  0  0  0  0  0
  -29.1880  -18.0290   21.1490 C   0  0  0  0  0  3  0  0  0  0  0  0
  -30.2840  -19.2960   18.9230 C   0  0  0  0  0  0  0  0  0  0  0  0
  -29.5800  -20.1560   19.8540 C   0  0  0  0  0  0  0  0  0  0  0  0
  -29.9190  -17.2050   20.2520 C   0  0  0  0  0  0  0  0  0  0  0  0
  -29.0470  -19.4440   20.9790 C   0  0  0  0  0  0  0  0  0  0  0  0
  -30.8460  -19.7840   17.5970 C   0  0  0  0  0  1  0  0  0  0  0  0
  -28.3550  -20.1140   21.9330 F   0  0  0  0  0  0  0  0  0  0  0  0
  -30.7260  -14.7460   19.8730 C   0  0  0  0  0  0  0  0  0  0  0  0
  -30.4850  -12.5270   18.7720 C   0  0  0  0  0  2  0  0  0  0  0  0
  -29.4450  -12.6670   17.6370 C   0  0  0  0  0  2  0  0  0  0  0  0
  -28.0100  -12.4790   18.1760 C   0  0  0  0  0  2  0  0  0  0  0  0
  -27.7440  -13.3150   19.4550 C   0  0  0  0  0  3  0  0  0  0  0  0
  -28.8810  -13.1260   20.4840 C   0  0  0  0  0  2  0  0  0  0  0  0
  -30.1420  -13.5050   19.8270 N   0  0  0  0  0  0  0  0  0  0  0  0
  -31.8210  -14.9530   19.3410 O   0  0  0  0  0  0  0  0  0  0  0  0
  -29.9760  -15.7470   20.4490 N   0  0  0  0  0  0  0  0  0  0  0  0
  -29.2270  -15.3770   21.0160 H   0  0  0  0  0  0  0  0  0  0  0  0
  -25.4220  -13.8980   20.3970 C   0  0  0  0  0  0  0  0  0  0  0  0
  -24.3820  -13.1150   20.8170 C   0  0  0  0  0  0  0  0  0  0  0  0
  -24.8280  -11.7650   20.6910 C   0  0  0  0  0  0  0  0  0  0  0  0
  -26.4340  -13.0220   20.0330 N   0  0  0  0  0  0  0  0  0  0  0  0
  -26.0870  -11.7320   20.2730 N   0  0  0  0  0  0  0  0  0  0  0  0
  -24.1120  -10.4990   20.8930 C   0  0  0  0  0  0  0  0  0  0  0  0
  -24.5660   -9.5380   21.8250 C   0  0  0  0  0  3  0  0  0  0  0  0
  -23.8550   -8.3340   22.0160 C   0  0  0  0  0  3  0  0  0  0  0  0
  -22.6750   -8.0820   21.2770 C   0  0  0  0  0  0  0  0  0  0  0  0
  -22.2380   -9.0310   20.3360 C   0  0  0  0  0  3  0  0  0  0  0  0
  -22.9500  -10.2280   20.1420 C   0  0  0  0  0  3  0  0  0  0  0  0
  -21.9310   -6.9300   21.3770 O   0  0  0  0  0  0  0  0  0  0  0  0
  -21.8330   -6.2370   22.5570 C   0  0  0  0  0  0  0  0  0  0  0  0
  -21.3410   -6.8400   23.7360 C   0  0  0  0  0  3  0  0  0  0  0  0
  -21.1910   -6.0720   24.9080 C   0  0  0  0  0  3  0  0  0  0  0  0
  -21.5200   -4.7030   24.9000 C   0  0  0  0  0  0  0  0  0  0  0  0
  -22.0040   -4.1010   23.7250 C   0  0  0  0  0  3  0  0  0  0  0  0
  -22.1560   -4.8660   22.5560 C   0  0  0  0  0  0  0  0  0  0  0  0
  -22.6040   -4.2770   21.4210 F   0  0  0  0  0  0  0  0  0  0  0  0
  -21.3680   -3.9610   26.0230 F   0  0  0  0  0  0  0  0  0  0  0  0
  -23.0150  -13.5860   21.2250 C   0  0  0  0  0  0  0  0  0  0  0  0
  -22.3570  -12.8650   22.1260 N   0  0  0  0  0  0  0  0  0  0  0  0
  -22.5400  -14.6280   20.7760 O   0  0  0  0  0  0  0  0  0  0  0  0
  -22.7540  -12.0230   22.5150 H   0  0  0  0  0  0  0  0  0  0  0  0
  -21.4440  -13.1640   22.4360 H   0  0  0  0  0  0  0  0  0  0  0  0
  -25.5880  -15.2760   20.2800 N   0  0  0  0  0  0  0  0  0  0  0  0
  -24.8560  -15.9280   20.5410 H   0  0  0  0  0  0  0  0  0  0  0  0
  -26.4350  -15.7310   19.9680 H   0  0  0  0  0  0  0  0  0  0  0  0
  -28.4030  -26.5130   20.0610 O   0  0  0  0  0  0  0  0  0  0  0  0
  -24.6820  -31.8740   23.2020 C   0  0  0  0  0  0  0  0  0  0  0  0
  -27.2910  -27.3630   20.0810 C   0  0  0  0  0  0  0  0  0  0  0  0
  -23.4690  -30.4700   21.5750 C   0  0  0  0  0  3  0  0  0  0  0  0
  -24.9110  -28.9410   20.1190 C   0  0  0  0  0  0  0  0  0  0  0  0
  -26.0010  -30.8170   21.3510 C   0  0  0  0  0  2  0  0  0  0  0  0
  -26.0850  -29.4430   20.7010 C   0  0  0  0  0  0  0  0  0  0  0  0
  -27.2790  -28.6630   20.6750 C   0  0  0  0  0  3  0  0  0  0  0  0
  -26.0980  -26.9110   19.4820 C   0  0  0  0  0  3  0  0  0  0  0  0
  -24.9180  -27.6770   19.5050 C   0  0  0  0  0  3  0  0  0  0  0  0
  -23.6680  -29.8030   20.1890 C   0  0  0  0  0  2  0  0  0  0  0  0
  -24.7380  -31.0710   22.1000 N   0  0  0  0  0  0  0  0  0  0  0  0
  -23.6040  -32.1380   23.7530 O   0  0  0  0  0  0  0  0  0  0  0  0
  -22.8340  -29.4400   22.5390 C   0  0  0  0  0  0  0  0  0  0  0  0
  -21.5110  -29.2380   22.4210 N   0  0  0  0  0  0  0  0  0  0  0  0
  -23.5320  -28.8290   23.3530 O   0  0  0  0  0  0  0  0  0  0  0  0
  -21.0090  -29.7860   21.7390 H   0  0  0  0  0  0  0  0  0  0  0  0
  -18.1640  -27.9610   22.9290 C   0  0  0  0  0  0  0  0  0  0  0  0
  -20.7150  -28.2830   23.1950 C   0  0  0  0  0  3  0  0  0  0  0  0
  -20.8520  -26.8530   22.6250 C   0  0  0  0  0  2  0  0  0  0  0  0
  -19.7570  -26.4960   21.6160 C   0  0  0  0  0  2  0  0  0  0  0  0
  -18.3730  -26.6110   22.2620 C   0  0  0  0  0  2  0  0  0  0  0  0
  -19.2640  -28.7510   23.3520 C   0  0  0  0  0  0  0  0  0  0  0  0
  -19.0130  -30.0130   23.9360 C   0  0  0  0  0  3  0  0  0  0  0  0
  -17.6980  -30.4840   24.0970 C   0  0  0  0  0  3  0  0  0  0  0  0
  -16.6130  -29.6890   23.6900 C   0  0  0  0  0  3  0  0  0  0  0  0
  -16.8470  -28.4280   23.1130 C   0  0  0  0  0  3  0  0  0  0  0  0
  -25.9680  -32.5170   23.8080 C   0  0  0  0  0  3  0  0  0  0  0  0
  -25.6490  -33.9090   24.1500 N   0  0  0  0  0  0  0  0  0  0  0  0
  -25.9610  -34.9710   23.3940 C   0  0  0  0  0  0  0  0  0  0  0  0
  -26.6170  -34.8800   22.3520 O   0  0  0  0  0  0  0  0  0  0  0  0
  -25.0630  -34.0520   24.9600 H   0  0  0  0  0  0  0  0  0  0  0  0
  -24.2100  -36.7480   23.0710 C   0  0  0  0  0  1  0  0  0  0  0  0
  -25.4660  -36.3520   23.8650 C   0  0  0  0  0  3  0  0  0  0  0  0
  -27.6030  -37.2510   24.6710 C   0  0  0  0  0  1  0  0  0  0  0  0
  -26.4870  -37.4160   23.7450 N   0  0  0  0  0  0  0  0  0  0  0  0
  -26.0740  -38.3310   23.9050 H   0  0  0  0  0  0  0  0  0  0  0  0
  -26.5120  -31.7450   25.0730 C   0  0  1  0  0  0  0  0  0  0  0  0
  -25.4420  -31.4980   26.1620 C   0  0  0  0  0  1  0  0  0  0  0  0
  -27.0940  -30.3710   24.6670 C   0  0  0  0  0  1  0  0  0  0  0  0
  -27.6730  -32.5430   25.7110 C   0  0  0  0  0  1  0  0  0  0  0  0
  1  3  2  0
  1  4  1  0
  2  1  1  0
  5  2  1  0
  5  6  1  0
  6 11  1  0
  6  4  1  0
  7  2  2  0
  8 12  1  0
 10  8  2  0
 10 11  1  0
 11 13  2  0
 12 24  1  0
 12  9  2  0
 13  9  1  0
 13 15  1  0
 14 10  1  0
 16 24  1  0
 17 22  1  0
 18 19  1  0
 18 17  1  0
 20 19  1  0
 20 29  1  0
 20 21  1  0
 22 16  1  0
 22 21  1  0
 23 16  2  0
 24 25  1  0
 26 27  2  0
 27 46  1  0
 28 27  1  0
 28 31  1  0
 29 30  1  0
 29 26  1  0
 30 28  2  0
 31 32  1  0
 32 33  2  0
 34 37  1  0
 34 33  1  0
 35 34  2  0
 36 35  1  0
 36 31  2  0
 37 38  1  0
 38 39  1  0
 39 40  2  0
 41 40  1  0
 41 45  1  0
 42 41  2  0
 43 38  2  0
 43 42  1  0
 44 43  1  0
 46 47  1  0
 47 50  1  0
 47 49  1  0
 48 46  2  0
 51 26  1  0
 51 52  1  0
 53 51  1  0
 54 56  1  0
 54  3  1  0
 55 66  2  0
 56 61  1  0
 57 65  1  0
 57 67  1  0
 58 64  1  0
 58 60  1  0
 59 65  1  0
 60 59  1  0
 61 60  2  0
 62 63  1  0
 62 56  2  0
 63 58  2  0
 64 57  1  0
 65 55  1  0
 67 69  2  0
 68 67  1  0
 70 68  1  0
 71 80  2  0
 71 76  1  0
 72 68  1  0
 72 76  1  0
 73 72  1  0
 74 75  1  0
 74 73  1  0
 75 71  1  0
 76 77  2  0
 77 78  1  0
 79 78  2  0
 80 79  1  0
 81 55  1  0
 81 82  1  0
 81 91  1  0
 82 85  1  0
 83 87  1  0
 83 82  1  0
 84 83  2  0
 87 86  1  0
 89 87  1  0
 89 90  1  0
 89 88  1  0
 91 94  1  1
 91 92  1  0
 93 91  1  0
M  ISO  4   3 101  16 100  24 100  54 101
M  END
>  <TORSDO>  (71) 
F 17

>  <SCORE>  (71) 
-13.547

>  <name>  (71) 
70

>  <ligand_id>  (71) 
70

>  <original_smiles>  (71) 
[H]C(Oc1c([H])c([H])c2c(c1[H])C([H])([H])N(C(=O)C([H])(N([H])C(=O)C([H])(N([H])C([H])([H])[H])C([H])([H])[H])C(C([H])([H])[H])(C([H])([H])[H])C([H])([H])[H])C([H])(C(=O)N([H])C1([H])c3c([H])c([H])c([H])c([H])c3C([H])([H])C([H])([H])C1([H])[H])C2([H])[H])=C1C(=O)C([H])([H])N(c2c(F)c([H])c(N([H])C(=O)N3C([H])([H])C([H])([H])C([H])([H])C([H])(n4nc(-c5c([H])c([H])c(Oc6c([H])c([H])c(F)c([H])c6F)c([H])c5[H])c(C(=O)N([H])[H])c4N([H])[H])C3([H])[H])c([H])c2C([H])([H])[H])C1([H])[H]

>  <smiles>  (71) 
[H]C(Oc1c([H])c([H])c2c(c1[H])C([H])([H])N(C(=O)C([H])(N([H])C(=O)C([H])(N([H])C([H])([H])[H])C([H])([H])[H])C(C([H])([H])[H])(C([H])([H])[H])C([H])([H])[H])C([H])(C(=O)N([H])C1([H])c3c([H])c([H])c([H])c([H])c3C([H])([H])C([H])([H])C1([H])[H])C2([H])[H])=C1C(=O)C([H])([H])N(c2c(F)c([H])c(N([H])C(=O)N3C([H])([H])C([H])([H])C([H])([H])C([H])(n4nc(-c5c([H])c([H])c(Oc6c([H])c([H])c(F)c([H])c6F)c([H])c5[H])c(C(=O)N([H])[H])c4N([H])[H])C3([H])[H])c([H])c2C([H])([H])[H])C1([H])[H]

$$$$
71:0:0
     RDKit          3D

 93101  0  0  1  0  0  0  0  0999 V2000
  -30.2130  -21.7350   20.6030 C   0  0  0  0  0  0  0  0  0  0  0  0
  -29.3320  -24.0610   20.4060 C   0  0  0  0  0  0  0  0  0  0  0  0
  -29.2590  -22.6780   20.2690 N   0  0  0  0  0  0  0  0  0  0  0  0
  -31.3090  -22.0670   21.0690 O   0  0  0  0  0  0  0  0  0  0  0  0
  -30.3110  -24.6320   20.9050 O   0  0  0  0  0  0  0  0  0  0  0  0
  -28.4120  -22.3150   19.8590 H   0  0  0  0  0  0  0  0  0  0  0  0
  -31.2050  -19.3810   20.2340 C   0  0  0  0  0  3  0  0  0  0  0  0
  -31.1690  -17.9520   20.2370 C   0  0  0  0  0  3  0  0  0  0  0  0
  -28.8280  -19.4870   20.5360 C   0  0  0  0  0  3  0  0  0  0  0  0
  -30.0470  -20.2030   20.3970 C   0  0  0  0  0  0  0  0  0  0  0  0
  -29.9540  -17.2420   20.4100 C   0  0  0  0  0  0  0  0  0  0  0  0
  -28.7900  -18.0540   20.5400 C   0  0  0  0  0  0  0  0  0  0  0  0
  -27.5940  -17.4350   20.6950 F   0  0  0  0  0  0  0  0  0  0  0  0
  -30.5890  -14.7180   20.0730 C   0  0  0  0  0  0  0  0  0  0  0  0
  -30.3050  -12.5060   18.9620 C   0  0  0  0  0  2  0  0  0  0  0  0
  -29.2960  -12.6740   17.8040 C   0  0  0  0  0  2  0  0  0  0  0  0
  -27.8470  -12.5120   18.3080 C   0  0  0  0  0  2  0  0  0  0  0  0
  -27.5660  -13.3410   19.5900 C   0  0  0  0  0  3  0  0  0  0  0  0
  -28.6830  -13.1470   20.6400 C   0  0  0  0  0  2  0  0  0  0  0  0
  -29.9600  -13.5000   20.0000 N   0  0  0  0  0  0  0  0  0  0  0  0
  -31.7360  -14.8630   19.6410 O   0  0  0  0  0  0  0  0  0  0  0  0
  -29.8100  -15.7780   20.4750 N   0  0  0  0  0  0  0  0  0  0  0  0
  -28.9030  -15.4890   20.8100 H   0  0  0  0  0  0  0  0  0  0  0  0
  -25.2170  -13.9390   20.4420 C   0  0  0  0  0  0  0  0  0  0  0  0
  -24.1640  -13.1650   20.8490 C   0  0  0  0  0  0  0  0  0  0  0  0
  -24.6160  -11.8130   20.7720 C   0  0  0  0  0  0  0  0  0  0  0  0
  -26.2430  -13.0570   20.1400 N   0  0  0  0  0  0  0  0  0  0  0  0
  -25.8890  -11.7720   20.3980 N   0  0  0  0  0  0  0  0  0  0  0  0
  -23.8910  -10.5510   20.9760 C   0  0  0  0  0  0  0  0  0  0  0  0
  -24.3500   -9.5750   21.8860 C   0  0  0  0  0  3  0  0  0  0  0  0
  -23.6250   -8.3780   22.0780 C   0  0  0  0  0  3  0  0  0  0  0  0
  -22.4260   -8.1510   21.3600 C   0  0  0  0  0  0  0  0  0  0  0  0
  -21.9870   -9.1170   20.4390 C   0  0  0  0  0  3  0  0  0  0  0  0
  -22.7120  -10.3040   20.2440 C   0  0  0  0  0  3  0  0  0  0  0  0
  -21.6710   -7.0090   21.4630 O   0  0  0  0  0  0  0  0  0  0  0  0
  -21.6380   -6.2690   22.6180 C   0  0  0  0  0  0  0  0  0  0  0  0
  -21.2300   -6.8260   23.8490 C   0  0  0  0  0  3  0  0  0  0  0  0
  -21.1450   -6.0120   24.9960 C   0  0  0  0  0  3  0  0  0  0  0  0
  -21.4580   -4.6420   24.9140 C   0  0  0  0  0  0  0  0  0  0  0  0
  -21.8600   -4.0850   23.6880 C   0  0  0  0  0  3  0  0  0  0  0  0
  -21.9470   -4.8950   22.5420 C   0  0  0  0  0  0  0  0  0  0  0  0
  -22.3140   -4.3480   21.3580 F   0  0  0  0  0  0  0  0  0  0  0  0
  -21.3690   -3.8580   26.0140 F   0  0  0  0  0  0  0  0  0  0  0  0
  -22.7870  -13.6460   21.2020 C   0  0  0  0  0  0  0  0  0  0  0  0
  -22.1010  -12.9410   22.0940 N   0  0  0  0  0  0  0  0  0  0  0  0
  -22.3290  -14.6830   20.7210 O   0  0  0  0  0  0  0  0  0  0  0  0
  -22.4850  -12.1030   22.5040 H   0  0  0  0  0  0  0  0  0  0  0  0
  -21.1780  -13.2450   22.3730 H   0  0  0  0  0  0  0  0  0  0  0  0
  -25.3800  -15.3120   20.2870 N   0  0  0  0  0  0  0  0  0  0  0  0
  -24.6310  -15.9660   20.4830 H   0  0  0  0  0  0  0  0  0  0  0  0
  -26.2360  -15.7730   20.0040 H   0  0  0  0  0  0  0  0  0  0  0  0
  -28.1590  -25.0130   19.9320 C   0  0  0  0  0  2  0  0  0  0  0  0
  -28.3660  -26.4780   20.1590 O   0  0  0  0  0  0  0  0  0  0  0  0
  -24.6280  -31.8680   23.2030 C   0  0  0  0  0  0  0  0  0  0  0  0
  -27.2470  -27.3310   20.1090 C   0  0  0  0  0  0  0  0  0  0  0  0
  -23.4260  -30.4810   21.5540 C   0  0  0  0  0  3  0  0  0  0  0  0
  -24.8780  -28.9450   20.1130 C   0  0  0  0  0  0  0  0  0  0  0  0
  -25.9660  -30.8040   21.3700 C   0  0  0  0  0  2  0  0  0  0  0  0
  -26.0480  -29.4300   20.7120 C   0  0  0  0  0  0  0  0  0  0  0  0
  -27.2350  -28.6350   20.6990 C   0  0  0  0  0  3  0  0  0  0  0  0
  -26.0520  -26.9040   19.4830 C   0  0  0  0  0  3  0  0  0  0  0  0
  -24.8830  -27.6890   19.4890 C   0  0  0  0  0  3  0  0  0  0  0  0
  -23.6390  -29.8170   20.1690 C   0  0  0  0  0  2  0  0  0  0  0  0
  -24.6920  -31.0680   22.0990 N   0  0  0  0  0  0  0  0  0  0  0  0
  -23.5450  -32.1400   23.7410 O   0  0  0  0  0  0  0  0  0  0  0  0
  -22.7650  -29.4550   22.5070 C   0  0  0  0  0  0  0  0  0  0  0  0
  -21.4370  -29.2860   22.3890 N   0  0  0  0  0  0  0  0  0  0  0  0
  -23.4480  -28.8160   23.3120 O   0  0  0  0  0  0  0  0  0  0  0  0
  -20.9460  -29.8540   21.7120 H   0  0  0  0  0  0  0  0  0  0  0  0
  -18.0560  -28.1140   22.9130 C   0  0  0  0  0  0  0  0  0  0  0  0
  -20.6200  -28.3440   23.1550 C   0  0  0  0  0  3  0  0  0  0  0  0
  -20.7010  -26.9210   22.5550 C   0  0  0  0  0  2  0  0  0  0  0  0
  -19.5820  -26.6250   21.5500 C   0  0  0  0  0  2  0  0  0  0  0  0
  -18.2100  -26.7740   22.2140 C   0  0  0  0  0  2  0  0  0  0  0  0
  -19.1870  -28.8580   23.3410 C   0  0  0  0  0  0  0  0  0  0  0  0
  -18.9870  -30.1130   23.9560 C   0  0  0  0  0  3  0  0  0  0  0  0
  -17.6900  -30.6240   24.1460 C   0  0  0  0  0  3  0  0  0  0  0  0
  -16.5730  -29.8760   23.7340 C   0  0  0  0  0  3  0  0  0  0  0  0
  -16.7560  -28.6220   23.1230 C   0  0  0  0  0  3  0  0  0  0  0  0
  -25.9110  -32.4980   23.8300 C   0  0  0  0  0  3  0  0  0  0  0  0
  -25.5990  -33.8940   24.1690 N   0  0  0  0  0  0  0  0  0  0  0  0
  -25.9180  -34.9520   23.4120 C   0  0  0  0  0  0  0  0  0  0  0  0
  -26.5750  -34.8570   22.3730 O   0  0  0  0  0  0  0  0  0  0  0  0
  -25.0130  -34.0420   24.9780 H   0  0  0  0  0  0  0  0  0  0  0  0
  -24.1740  -36.7370   23.0950 C   0  0  0  0  0  1  0  0  0  0  0  0
  -25.4320  -36.3370   23.8830 C   0  0  0  0  0  3  0  0  0  0  0  0
  -27.5730  -37.2340   24.6810 C   0  0  0  0  0  1  0  0  0  0  0  0
  -26.4560  -37.3950   23.7540 N   0  0  0  0  0  0  0  0  0  0  0  0
  -26.0470  -38.3140   23.9070 H   0  0  0  0  0  0  0  0  0  0  0  0
  -26.4280  -31.7200   25.1010 C   0  0  1  0  0  0  0  0  0  0  0  0
  -25.3340  -31.4730   26.1670 C   0  0  0  0  0  1  0  0  0  0  0  0
  -27.0130  -30.3460   24.7020 C   0  0  0  0  0  1  0  0  0  0  0  0
  -27.5750  -32.5130   25.7700 C   0  0  0  0  0  1  0  0  0  0  0  0
  1  4  2  0
  2  5  2  0
  3  2  1  0
  3  1  1  0
  6  3  1  0
  7  8  2  0
  7 10  1  0
  8 11  1  0
  9 12  1  0
 10  9  2  0
 10  1  1  0
 11 22  1  0
 11 12  2  0
 12 13  1  0
 14 22  1  0
 15 20  1  0
 16 17  1  0
 16 15  1  0
 18 17  1  0
 18 27  1  0
 18 19  1  0
 20 14  1  0
 20 19  1  0
 21 14  2  0
 22 23  1  0
 24 25  2  0
 25 44  1  0
 26 25  1  0
 26 29  1  0
 27 28  1  0
 27 24  1  0
 28 26  2  0
 29 30  1  0
 30 31  2  0
 32 35  1  0
 32 31  1  0
 33 32  2  0
 34 33  1  0
 34 29  2  0
 35 36  1  0
 36 37  1  0
 37 38  2  0
 39 38  1  0
 39 43  1  0
 40 39  2  0
 41 36  2  0
 41 40  1  0
 42 41  1  0
 44 45  1  0
 45 48  1  0
 45 47  1  0
 46 44  2  0
 49 24  1  0
 49 50  1  0
 51 49  1  0
 52 53  1  0
 52  2  1  0
 54 65  2  0
 55 53  1  0
 55 60  1  0
 56 64  1  0
 56 66  1  0
 57 63  1  0
 57 59  1  0
 58 64  1  0
 59 58  1  0
 60 59  2  0
 61 62  1  0
 61 55  2  0
 62 57  2  0
 63 56  1  0
 64 54  1  0
 66 68  2  0
 67 66  1  0
 69 67  1  0
 70 79  2  0
 70 75  1  0
 71 67  1  0
 71 75  1  0
 72 71  1  0
 73 74  1  0
 73 72  1  0
 74 70  1  0
 75 76  2  0
 76 77  1  0
 78 77  2  0
 79 78  1  0
 80 54  1  0
 80 81  1  0
 80 90  1  0
 81 84  1  0
 82 86  1  0
 82 81  1  0
 83 82  2  0
 86 85  1  0
 88 86  1  0
 88 89  1  0
 88 87  1  0
 90 93  1  1
 90 91  1  0
 92 90  1  0
M  ISO  4  14 100  22 100  52 101  53 101
M  END
>  <TORSDO>  (72) 
F 18

>  <SCORE>  (72) 
-14.869

>  <name>  (72) 
71

>  <ligand_id>  (72) 
71

>  <original_smiles>  (72) 
[H]c1c([H])c([H])c2c(c1[H])C([H])([H])C([H])([H])C([H])([H])C2([H])N([H])C(=O)C1([H])N(C(=O)C([H])(N([H])C(=O)C([H])(N([H])C([H])([H])[H])C([H])([H])[H])C(C([H])([H])[H])(C([H])([H])[H])C([H])([H])[H])C([H])([H])c2c([H])c(OC([H])([H])C(=O)N([H])C(=O)c3c([H])c([H])c(N([H])C(=O)N4C([H])([H])C([H])([H])C([H])([H])C([H])(n5nc(-c6c([H])c([H])c(Oc7c([H])c([H])c(F)c([H])c7F)c([H])c6[H])c(C(=O)N([H])[H])c5N([H])[H])C4([H])[H])c(F)c3[H])c([H])c([H])c2C1([H])[H]

>  <smiles>  (72) 
[H]c1c([H])c([H])c2c(c1[H])C([H])([H])C([H])([H])C([H])([H])C2([H])N([H])C(=O)C1([H])N(C(=O)C([H])(N([H])C(=O)C([H])(N([H])C([H])([H])[H])C([H])([H])[H])C(C([H])([H])[H])(C([H])([H])[H])C([H])([H])[H])C([H])([H])c2c([H])c(OC([H])([H])C(=O)N([H])C(=O)c3c([H])c([H])c(N([H])C(=O)N4C([H])([H])C([H])([H])C([H])([H])C([H])(n5nc(-c6c([H])c([H])c(Oc7c([H])c([H])c(F)c([H])c7F)c([H])c6[H])c(C(=O)N([H])[H])c5N([H])[H])C4([H])[H])c(F)c3[H])c([H])c([H])c2C1([H])[H]

$$$$
72:0:0
     RDKit          3D

 99108  0  0  1  0  0  0  0  0999 V2000
  -26.9290  -23.7620   19.3370 C   0  0  0  0  0  3  0  0  0  0  0  0
  -27.4680  -21.4810   18.8920 C   0  0  0  0  0  3  0  0  0  0  0  0
  -28.1680  -24.0590   19.7860 C   0  0  0  0  0  0  0  0  0  0  0  0
  -26.5770  -22.4780   18.7900 C   0  0  0  0  0  0  0  0  0  0  0  0
  -29.1660  -22.9220   19.8600 C   0  0  0  0  0  0  0  0  0  0  0  0
  -28.7350  -21.6490   19.4970 N   0  0  0  0  0  0  0  0  0  0  0  0
  -30.3270  -23.0980   20.2550 O   0  0  0  0  0  0  0  0  0  0  0  0
  -30.3520  -19.9910   18.5290 C   0  0  0  0  0  3  0  0  0  0  0  0
  -30.8500  -18.6600   18.4320 C   0  0  0  0  0  3  0  0  0  0  0  0
  -29.5090  -20.3980   19.5930 C   0  0  0  0  0  0  0  0  0  0  0  0
  -30.5530  -17.6350   19.3880 C   0  0  0  0  0  0  0  0  0  0  0  0
  -29.3420  -19.4420   20.6510 C   0  0  0  0  0  0  0  0  0  0  0  0
  -29.8810  -18.1060   20.5540 C   0  0  0  0  0  0  0  0  0  0  0  0
  -29.6730  -17.2420   21.5780 F   0  0  0  0  0  0  0  0  0  0  0  0
  -31.3530  -15.1680   19.7660 C   0  0  0  0  0  0  0  0  0  0  0  0
  -31.0910  -12.8030   18.9960 C   0  0  0  0  0  2  0  0  0  0  0  0
  -30.1170  -12.6980   17.7980 C   0  0  0  0  0  2  0  0  0  0  0  0
  -28.6520  -12.6540   18.2680 C   0  0  0  0  0  2  0  0  0  0  0  0
  -28.3270  -13.6410   19.4240 C   0  0  0  0  0  3  0  0  0  0  0  0
  -29.4240  -13.6800   20.5060 C   0  0  0  0  0  2  0  0  0  0  0  0
  -30.6830  -13.9620   19.8160 N   0  0  0  0  0  0  0  0  0  0  0  0
  -32.5840  -15.1640   19.6980 O   0  0  0  0  0  0  0  0  0  0  0  0
  -30.8600  -15.9500   17.5900 C   0  0  0  0  0  1  0  0  0  0  0  0
  -30.7250  -16.1880   19.0490 N   0  0  0  0  0  0  0  0  0  0  0  0
  -26.0010  -14.2950   20.2770 C   0  0  0  0  0  0  0  0  0  0  0  0
  -24.9280  -13.5460   20.6650 C   0  0  0  0  0  0  0  0  0  0  0  0
  -25.3410  -12.1790   20.5960 C   0  0  0  0  0  0  0  0  0  0  0  0
  -27.0050  -13.3870   19.9890 N   0  0  0  0  0  0  0  0  0  0  0  0
  -26.6190  -12.1090   20.2480 N   0  0  0  0  0  0  0  0  0  0  0  0
  -24.5800  -10.9390   20.7940 C   0  0  0  0  0  0  0  0  0  0  0  0
  -24.9430  -10.0010   21.7830 C   0  0  0  0  0  3  0  0  0  0  0  0
  -24.1860   -8.8250   21.9720 C   0  0  0  0  0  3  0  0  0  0  0  0
  -23.0460   -8.5790   21.1700 C   0  0  0  0  0  0  0  0  0  0  0  0
  -22.7040   -9.5030   20.1680 C   0  0  0  0  0  3  0  0  0  0  0  0
  -23.4630  -10.6720   19.9790 C   0  0  0  0  0  3  0  0  0  0  0  0
  -22.2630   -7.4550   21.2670 O   0  0  0  0  0  0  0  0  0  0  0  0
  -22.0300   -6.8360   22.4700 C   0  0  0  0  0  0  0  0  0  0  0  0
  -21.4470   -7.5190   23.5600 C   0  0  0  0  0  3  0  0  0  0  0  0
  -21.1620   -6.8270   24.7540 C   0  0  0  0  0  3  0  0  0  0  0  0
  -21.4520   -5.4540   24.8600 C   0  0  0  0  0  0  0  0  0  0  0  0
  -22.0260   -4.7710   23.7750 C   0  0  0  0  0  3  0  0  0  0  0  0
  -22.3140   -5.4590   22.5830 C   0  0  0  0  0  0  0  0  0  0  0  0
  -22.8480   -4.7890   21.5330 F   0  0  0  0  0  0  0  0  0  0  0  0
  -21.1720   -4.7890   26.0040 F   0  0  0  0  0  0  0  0  0  0  0  0
  -23.5610  -14.0630   20.9960 C   0  0  0  0  0  0  0  0  0  0  0  0
  -22.8520  -13.3830   21.8870 N   0  0  0  0  0  0  0  0  0  0  0  0
  -23.1370  -15.1010   20.4900 O   0  0  0  0  0  0  0  0  0  0  0  0
  -23.2190  -12.5370   22.3010 H   0  0  0  0  0  0  0  0  0  0  0  0
  -21.9320  -13.7080   22.1430 H   0  0  0  0  0  0  0  0  0  0  0  0
  -26.2120  -15.6660   20.1240 N   0  0  0  0  0  0  0  0  0  0  0  0
  -25.4550  -16.3450   20.1200 H   0  0  0  0  0  0  0  0  0  0  0  0
  -27.1240  -16.0830   19.9860 H   0  0  0  0  0  0  0  0  0  0  0  0
  -28.5820  -19.7790   21.7790 N   0  0  0  0  0  0  0  0  0  0  0  0
  -28.3490  -19.0070   22.3950 H   0  0  0  0  0  0  0  0  0  0  0  0
  -27.7720  -20.3680   21.6220 H   0  0  0  0  0  0  0  0  0  0  0  0
  -25.4000  -22.2970   18.1810 O   0  0  0  0  0  0  0  0  0  0  0  0
  -25.3920  -21.4180   17.8150 H   0  0  0  0  0  0  0  0  0  0  0  0
  -28.4480  -25.4650   20.4480 C   0  0  0  0  0  2  0  0  0  0  0  0
  -28.4480  -26.6990   19.6290 O   0  0  0  0  0  0  0  0  0  0  0  0
  -24.6580  -31.8060   23.0840 C   0  0  0  0  0  0  0  0  0  0  0  0
  -27.3280  -27.5290   19.7030 C   0  0  0  0  0  0  0  0  0  0  0  0
  -23.4630  -30.4670   21.3860 C   0  0  0  0  0  3  0  0  0  0  0  0
  -24.9310  -29.0650   19.8330 C   0  0  0  0  0  0  0  0  0  0  0  0
  -25.9890  -30.8680   21.1920 C   0  0  0  0  0  2  0  0  0  0  0  0
  -26.0890  -29.5350   20.4660 C   0  0  0  0  0  0  0  0  0  0  0  0
  -27.2910  -28.7680   20.4100 C   0  0  0  0  0  3  0  0  0  0  0  0
  -26.1760  -27.1670   18.9810 C   0  0  0  0  0  3  0  0  0  0  0  0
  -24.9730  -27.8840   19.0820 C   0  0  0  0  0  3  0  0  0  0  0  0
  -23.6680  -29.8880   19.9610 C   0  0  0  0  0  2  0  0  0  0  0  0
  -24.7210  -31.0630   21.9420 N   0  0  0  0  0  0  0  0  0  0  0  0
  -23.5790  -32.0200   23.6540 O   0  0  0  0  0  0  0  0  0  0  0  0
  -22.8550  -29.3770   22.2980 C   0  0  0  0  0  0  0  0  0  0  0  0
  -21.5320  -29.1540   22.1760 N   0  0  0  0  0  0  0  0  0  0  0  0
  -23.5690  -28.7380   23.0750 O   0  0  0  0  0  0  0  0  0  0  0  0
  -21.0190  -29.6850   21.4880 H   0  0  0  0  0  0  0  0  0  0  0  0
  -18.2040  -27.8460   22.6900 C   0  0  0  0  0  0  0  0  0  0  0  0
  -20.7560  -28.1710   22.9330 C   0  0  0  0  0  3  0  0  0  0  0  0
  -20.8770  -26.7690   22.3010 C   0  0  0  0  0  2  0  0  0  0  0  0
  -19.7830  -26.4800   21.2680 C   0  0  0  0  0  2  0  0  0  0  0  0
  -18.4110  -26.5370   21.9480 C   0  0  0  0  0  2  0  0  0  0  0  0
  -19.3090  -28.6240   23.1370 C   0  0  0  0  0  0  0  0  0  0  0  0
  -19.0600  -29.8480   23.7970 C   0  0  0  0  0  3  0  0  0  0  0  0
  -17.7440  -30.2940   24.0170 C   0  0  0  0  0  3  0  0  0  0  0  0
  -16.6570  -29.5130   23.5880 C   0  0  0  0  0  3  0  0  0  0  0  0
  -16.8880  -28.2910   22.9330 C   0  0  0  0  0  3  0  0  0  0  0  0
  -25.9340  -32.4350   23.7180 C   0  0  0  0  0  3  0  0  0  0  0  0
  -26.4950  -31.6150   24.9460 C   0  0  1  0  0  0  0  0  0  0  0  0
  -25.4290  -31.2930   26.0180 C   0  0  0  0  0  1  0  0  0  0  0  0
  -27.1050  -30.2730   24.4760 C   0  0  0  0  0  1  0  0  0  0  0  0
  -27.6410  -32.4040   25.6230 C   0  0  0  0  0  1  0  0  0  0  0  0
  -25.5970  -33.8060   24.1270 N   0  0  0  0  0  0  0  0  0  0  0  0
  -25.8960  -34.9070   23.4230 C   0  0  0  0  0  0  0  0  0  0  0  0
  -26.5610  -34.8760   22.3830 O   0  0  0  0  0  0  0  0  0  0  0  0
  -25.0030  -33.9020   24.9360 H   0  0  0  0  0  0  0  0  0  0  0  0
  -24.1160  -36.6660   23.1840 C   0  0  0  0  0  1  0  0  0  0  0  0
  -25.3780  -36.2560   23.9590 C   0  0  0  0  0  3  0  0  0  0  0  0
  -27.5000  -37.1510   24.8090 C   0  0  0  0  0  1  0  0  0  0  0  0
  -26.3830  -37.3390   23.8880 N   0  0  0  0  0  0  0  0  0  0  0  0
  -25.9550  -38.2410   24.0830 H   0  0  0  0  0  0  0  0  0  0  0  0
  1  3  2  0
  2  6  1  0
  3  5  1  0
  3 58  1  0
  4  2  2  0
  4  1  1  0
  5  7  2  0
  6 10  1  0
  6  5  1  0
  8 10  1  0
  9  8  2  0
  9 11  1  0
 10 12  2  0
 11 13  2  0
 12 53  1  0
 13 12  1  0
 13 14  1  0
 15 21  1  0
 16 21  1  0
 17 18  1  0
 17 16  1  0
 19 18  1  0
 19 28  1  0
 19 20  1  0
 21 20  1  0
 22 15  2  0
 23 24  1  0
 24 11  1  0
 24 15  1  0
 25 26  2  0
 26 45  1  0
 27 26  1  0
 27 30  1  0
 28 29  1  0
 28 25  1  0
 29 27  2  0
 30 31  1  0
 31 32  2  0
 33 36  1  0
 33 32  1  0
 34 33  2  0
 35 34  1  0
 35 30  2  0
 36 37  1  0
 37 42  2  0
 37 38  1  0
 38 39  2  0
 39 40  1  0
 40 44  1  0
 41 40  2  0
 42 41  1  0
 43 42  1  0
 45 46  1  0
 46 49  1  0
 46 48  1  0
 47 45  2  0
 50 25  1  0
 51 50  1  0
 52 50  1  0
 53 54  1  0
 55 53  1  0
 56  4  1  0
 57 56  1  0
 59 61  1  0
 59 58  1  0
 60 71  2  0
 61 66  1  0
 62 70  1  0
 62 72  1  0
 63 69  1  0
 63 65  1  0
 64 70  1  0
 65 64  1  0
 66 65  2  0
 67 68  1  0
 67 61  2  0
 68 63  2  0
 69 62  1  0
 70 60  1  0
 72 74  2  0
 73 72  1  0
 75 73  1  0
 76 85  2  0
 76 81  1  0
 77 73  1  0
 77 81  1  0
 78 77  1  0
 79 80  1  0
 79 78  1  0
 80 76  1  0
 81 82  2  0
 82 83  1  0
 84 83  2  0
 85 84  1  0
 86 60  1  0
 86 91  1  0
 86 87  1  0
 87 90  1  1
 87 88  1  0
 89 87  1  0
 91 94  1  0
 92 96  1  0
 92 91  1  0
 93 92  2  0
 96 95  1  0
 98 96  1  0
 98 99  1  0
 98 97  1  0
M  ISO  4  15 100  24 100  58 101  59 101
M  END
>  <TORSDO>  (73) 
F 20

>  <SCORE>  (73) 
-12.029

>  <name>  (73) 
72

>  <ligand_id>  (73) 
72

>  <original_smiles>  (73) 
[H]Oc1c([H])c(C([H])([H])Oc2c([H])c([H])c3c(c2[H])C([H])([H])N(C(=O)C([H])(N([H])C(=O)C([H])(N([H])C([H])([H])[H])C([H])([H])[H])C(C([H])([H])[H])(C([H])([H])[H])C([H])([H])[H])C([H])(C(=O)N([H])C2([H])c4c([H])c([H])c([H])c([H])c4C([H])([H])C([H])([H])C2([H])[H])C3([H])[H])c(=O)n(-c2c([H])c([H])c(N(C(=O)N3C([H])([H])C([H])([H])C([H])([H])C([H])(n4nc(-c5c([H])c([H])c(Oc6c([H])c([H])c(F)c([H])c6F)c([H])c5[H])c(C(=O)N([H])[H])c4N([H])[H])C3([H])[H])C([H])([H])[H])c(F)c2N([H])[H])c1[H]

>  <smiles>  (73) 
[H]Oc1c([H])c(C([H])([H])Oc2c([H])c([H])c3c(c2[H])C([H])([H])N(C(=O)C([H])(N([H])C(=O)C([H])(N([H])C([H])([H])[H])C([H])([H])[H])C(C([H])([H])[H])(C([H])([H])[H])C([H])([H])[H])C([H])(C(=O)N([H])C2([H])c4c([H])c([H])c([H])c([H])c4C([H])([H])C([H])([H])C2([H])[H])C3([H])[H])c(=O)n(-c2c([H])c([H])c(N(C(=O)N3C([H])([H])C([H])([H])C([H])([H])C([H])(n4nc(-c5c([H])c([H])c(Oc6c([H])c([H])c(F)c([H])c6F)c([H])c5[H])c(C(=O)N([H])[H])c4N([H])[H])C3([H])[H])C([H])([H])[H])c(F)c2N([H])[H])c1[H]

$$$$
73:0:0
     RDKit          3D

 83 90  0  0  1  0  0  0  0  0999 V2000
  -28.3590  -21.3860   20.2460 C   0  0  0  0  0  0  0  0  0  0  0  0
  -28.0550  -23.0680   20.2770 C   0  0  0  0  0  0  0  0  0  0  0  0
  -29.9840  -16.4860   20.1550 C   0  0  0  0  0  0  0  0  0  0  0  0
  -30.3030  -13.7700   19.3690 C   0  0  0  0  0  2  0  0  0  0  0  0
  -29.5000  -13.0160   18.2420 C   0  0  0  0  0  2  0  0  0  0  0  0
  -28.1570  -12.4820   18.7490 C   0  0  0  0  0  2  0  0  0  0  0  0
  -27.5410  -13.5080   19.7140 C   0  0  0  0  0  3  0  0  0  0  0  0
  -28.5230  -14.1290   20.7630 C   0  0  0  0  0  2  0  0  0  0  0  0
  -29.5460  -14.9920   20.0490 N   0  0  0  0  0  0  0  0  0  0  0  0
  -31.2300  -16.2960   20.0540 O   0  0  0  0  0  0  0  0  0  0  0  0
  -29.3680  -19.7630   20.2270 C   0  0  0  0  0  0  0  0  0  0  0  0
  -29.2280  -18.0430   20.1990 N   0  0  0  0  0  0  0  0  0  0  0  0
  -30.5730  -20.0270   20.2340 O   0  0  0  0  0  0  0  0  0  0  0  0
  -28.2360  -17.8560   20.2050 H   0  0  0  0  0  0  0  0  0  0  0  0
  -25.1950  -13.9330   20.5390 C   0  0  0  0  0  0  0  0  0  0  0  0
  -24.1580  -13.1260   20.9030 C   0  0  0  0  0  0  0  0  0  0  0  0
  -24.6530  -11.7860   20.8380 C   0  0  0  0  0  0  0  0  0  0  0  0
  -26.2560  -13.0950   20.2670 N   0  0  0  0  0  0  0  0  0  0  0  0
  -25.9450  -11.7890   20.5030 N   0  0  0  0  0  0  0  0  0  0  0  0
  -23.9410  -10.5090   21.0150 C   0  0  0  0  0  0  0  0  0  0  0  0
  -24.3620   -9.5490   21.9610 C   0  0  0  0  0  3  0  0  0  0  0  0
  -23.6410   -8.3460   22.1340 C   0  0  0  0  0  3  0  0  0  0  0  0
  -22.4840   -8.0940   21.3600 C   0  0  0  0  0  0  0  0  0  0  0  0
  -22.0790   -9.0430   20.4050 C   0  0  0  0  0  3  0  0  0  0  0  0
  -22.8010  -10.2370   20.2310 C   0  0  0  0  0  3  0  0  0  0  0  0
  -21.7370   -6.9430   21.4400 O   0  0  0  0  0  0  0  0  0  0  0  0
  -21.6350   -6.2280   22.6070 C   0  0  0  0  0  0  0  0  0  0  0  0
  -21.0900   -6.7930   23.7800 C   0  0  0  0  0  3  0  0  0  0  0  0
  -20.9390   -6.0040   24.9380 C   0  0  0  0  0  3  0  0  0  0  0  0
  -21.3230   -4.6500   24.9230 C   0  0  0  0  0  0  0  0  0  0  0  0
  -21.8610   -4.0840   23.7540 C   0  0  0  0  0  3  0  0  0  0  0  0
  -22.0130   -4.8700   22.5990 C   0  0  0  0  0  0  0  0  0  0  0  0
  -22.5110   -4.3130   21.4690 F   0  0  0  0  0  0  0  0  0  0  0  0
  -21.1720   -3.8890   26.0330 F   0  0  0  0  0  0  0  0  0  0  0  0
  -22.7580  -13.5770   21.1920 C   0  0  0  0  0  0  0  0  0  0  0  0
  -22.0510  -12.8660   22.0610 N   0  0  0  0  0  0  0  0  0  0  0  0
  -22.3020  -14.6020   20.6840 O   0  0  0  0  0  0  0  0  0  0  0  0
  -22.4350  -12.0380   22.4930 H   0  0  0  0  0  0  0  0  0  0  0  0
  -21.1110  -13.1510   22.2970 H   0  0  0  0  0  0  0  0  0  0  0  0
  -25.3230  -15.3090   20.3760 N   0  0  0  0  0  0  0  0  0  0  0  0
  -24.5400  -15.9430   20.5010 H   0  0  0  0  0  0  0  0  0  0  0  0
  -26.1550  -15.7670   20.0300 H   0  0  0  0  0  0  0  0  0  0  0  0
  -28.1070  -24.8750   20.3180 O   0  0  0  0  0  0  0  0  0  0  0  0
  -24.6600  -31.8350   23.1780 C   0  0  0  0  0  0  0  0  0  0  0  0
  -27.1750  -26.3010   20.3030 C   0  0  0  0  0  0  0  0  0  0  0  0
  -23.5000  -30.4100   21.5530 C   0  0  0  0  0  3  0  0  0  0  0  0
  -24.9570  -28.6480   20.1980 C   0  0  0  0  0  0  0  0  0  0  0  0
  -26.0960  -30.4050   21.5080 C   0  0  0  0  0  2  0  0  0  0  0  0
  -26.1550  -28.9110   20.8690 C   0  0  0  0  0  0  0  0  0  0  0  0
  -27.2200  -27.7840   20.8780 C   0  0  0  0  0  3  0  0  0  0  0  0
  -25.9410  -26.3810   19.5610 C   0  0  0  0  0  3  0  0  0  0  0  0
  -24.9180  -27.4110   19.5180 C   0  0  0  0  0  3  0  0  0  0  0  0
  -23.7720  -29.6600   20.2080 C   0  0  0  0  0  2  0  0  0  0  0  0
  -24.7820  -30.9300   22.1310 N   0  0  0  0  0  0  0  0  0  0  0  0
  -23.5540  -32.1620   23.6510 O   0  0  0  0  0  0  0  0  0  0  0  0
  -22.7290  -29.4880   22.5410 C   0  0  0  0  0  0  0  0  0  0  0  0
  -21.3910  -29.3640   22.4120 N   0  0  0  0  0  0  0  0  0  0  0  0
  -23.3570  -28.8740   23.4060 O   0  0  0  0  0  0  0  0  0  0  0  0
  -20.9280  -29.9080   21.6980 H   0  0  0  0  0  0  0  0  0  0  0  0
  -17.9830  -28.1850   22.9460 C   0  0  0  0  0  0  0  0  0  0  0  0
  -20.5480  -28.4440   23.1910 C   0  0  0  0  0  3  0  0  0  0  0  0
  -20.6350  -27.0050   22.6270 C   0  0  0  0  0  2  0  0  0  0  0  0
  -19.5290  -26.6870   21.6150 C   0  0  0  0  0  2  0  0  0  0  0  0
  -18.1500  -26.8370   22.2630 C   0  0  0  0  0  2  0  0  0  0  0  0
  -19.1080  -28.9460   23.3660 C   0  0  0  0  0  0  0  0  0  0  0  0
  -18.8910  -30.2020   23.9730 C   0  0  0  0  0  3  0  0  0  0  0  0
  -17.5870  -30.6990   24.1580 C   0  0  0  0  0  3  0  0  0  0  0  0
  -16.4780  -29.9370   23.7480 C   0  0  0  0  0  3  0  0  0  0  0  0
  -16.6780  -28.6810   23.1490 C   0  0  0  0  0  3  0  0  0  0  0  0
  -25.8980  -32.5160   23.8400 C   0  0  0  0  0  3  0  0  0  0  0  0
  -25.5570  -33.9240   24.1580 N   0  0  0  0  0  0  0  0  0  0  0  0
  -25.8860  -34.9950   23.4210 C   0  0  0  0  0  0  0  0  0  0  0  0
  -26.5510  -34.9030   22.3880 O   0  0  0  0  0  0  0  0  0  0  0  0
  -24.9600  -34.0670   24.9600 H   0  0  0  0  0  0  0  0  0  0  0  0
  -24.1490  -36.8030   23.1220 C   0  0  0  0  0  1  0  0  0  0  0  0
  -25.4090  -36.3870   23.9000 C   0  0  0  0  0  3  0  0  0  0  0  0
  -27.5510  -37.2930   24.6960 C   0  0  0  0  0  1  0  0  0  0  0  0
  -26.4350  -37.4460   23.7670 N   0  0  0  0  0  0  0  0  0  0  0  0
  -26.0250  -38.3650   23.9120 H   0  0  0  0  0  0  0  0  0  0  0  0
  -26.3650  -31.7880   25.1630 C   0  0  1  0  0  0  0  0  0  0  0  0
  -25.2340  -31.5840   26.2010 C   0  0  0  0  0  1  0  0  0  0  0  0
  -26.9610  -30.3980   24.8560 C   0  0  0  0  0  1  0  0  0  0  0  0
  -27.4920  -32.6020   25.8400 C   0  0  0  0  0  1  0  0  0  0  0  0
  1  2  3  0
  2 43  1  0
  3 12  1  0
  4  9  1  0
  5  6  1  0
  5  4  1  0
  7  6  1  0
  7 18  1  0
  7  8  1  0
  9  3  1  0
  9  8  1  0
 10  3  2  0
 11 13  2  0
 11  1  1  0
 12 14  1  0
 12 11  1  0
 15 16  2  0
 16 35  1  0
 17 16  1  0
 17 20  1  0
 18 19  1  0
 18 15  1  0
 19 17  2  0
 20 21  1  0
 21 22  2  0
 23 26  1  0
 23 22  1  0
 24 23  2  0
 25 24  1  0
 25 20  2  0
 26 27  1  0
 27 28  1  0
 28 29  2  0
 30 29  1  0
 30 34  1  0
 31 30  2  0
 32 27  2  0
 32 31  1  0
 33 32  1  0
 35 36  1  0
 36 39  1  0
 36 38  1  0
 37 35  2  0
 40 41  1  0
 40 15  1  0
 42 40  1  0
 44 55  2  0
 45 43  1  0
 45 50  1  0
 46 54  1  0
 46 56  1  0
 47 53  1  0
 47 49  1  0
 48 54  1  0
 49 50  2  0
 49 48  1  0
 51 45  2  0
 52 51  1  0
 52 47  2  0
 53 46  1  0
 54 44  1  0
 56 58  2  0
 57 56  1  0
 59 57  1  0
 60 69  2  0
 60 65  1  0
 61 57  1  0
 61 65  1  0
 62 61  1  0
 63 64  1  0
 63 62  1  0
 64 60  1  0
 65 66  2  0
 66 67  1  0
 68 67  2  0
 69 68  1  0
 70 44  1  0
 70 71  1  0
 70 80  1  0
 71 74  1  0
 72 76  1  0
 72 71  1  0
 73 72  2  0
 76 75  1  0
 78 76  1  0
 78 79  1  0
 78 77  1  0
 80 83  1  1
 80 81  1  0
 82 80  1  0
M  ISO  4   2 101   3 100  12 100  43 101
M  END
>  <TORSDO>  (74) 
F 16

>  <SCORE>  (74) 
-16.416

>  <name>  (74) 
73

>  <ligand_id>  (74) 
73

>  <original_smiles>  (74) 
[H]C(Oc1c([H])c([H])c2c(c1[H])C([H])([H])N(C(=O)C([H])(N([H])C(=O)C([H])(N([H])C([H])([H])[H])C([H])([H])[H])C(C([H])([H])[H])(C([H])([H])[H])C([H])([H])[H])C([H])(C(=O)N([H])C1([H])c3c([H])c([H])c([H])c([H])c3C([H])([H])C([H])([H])C1([H])[H])C2([H])[H])=C([H])C(=O)N([H])C(=O)N1C([H])([H])C([H])([H])C([H])([H])C([H])(n2nc(-c3c([H])c([H])c(Oc4c([H])c([H])c(F)c([H])c4F)c([H])c3[H])c(C(=O)N([H])[H])c2N([H])[H])C1([H])[H]

>  <smiles>  (74) 
[H]C(Oc1c([H])c([H])c2c(c1[H])C([H])([H])N(C(=O)C([H])(N([H])C(=O)C([H])(N([H])C([H])([H])[H])C([H])([H])[H])C(C([H])([H])[H])(C([H])([H])[H])C([H])([H])[H])C([H])(C(=O)N([H])C1([H])c3c([H])c([H])c([H])c([H])c3C([H])([H])C([H])([H])C1([H])[H])C2([H])[H])=C([H])C(=O)N([H])C(=O)N1C([H])([H])C([H])([H])C([H])([H])C([H])(n2nc(-c3c([H])c([H])c(Oc4c([H])c([H])c(F)c([H])c4F)c([H])c3[H])c(C(=O)N([H])[H])c2N([H])[H])C1([H])[H]

$$$$
74:0:0
     RDKit          3D

 94102  0  0  1  0  0  0  0  0999 V2000
  -28.6960  -23.3600   20.6340 C   0  0  0  0  0  0  0  0  0  0  0  0
  -29.2850  -22.2270   21.1300 N   0  0  0  0  0  0  0  0  0  0  0  0
  -28.1440  -23.3930   19.5330 O   0  0  0  0  0  0  0  0  0  0  0  0
  -29.8880  -22.4240   21.9170 H   0  0  0  0  0  0  0  0  0  0  0  0
  -28.6410  -18.7400   19.9370 C   0  0  0  0  0  3  0  0  0  0  0  0
  -28.3590  -20.1590   20.0110 C   0  0  0  0  0  3  0  0  0  0  0  0
  -29.7530  -18.3390   20.6450 C   0  0  0  0  0  0  0  0  0  0  0  0
  -29.2460  -20.8930   20.7730 C   0  0  0  0  0  0  0  0  0  0  0  0
  -30.4560  -19.7740   21.4050 S   0  0  0  0  0  0  0  0  0  0  0  0
  -30.6780  -14.6520   20.2720 C   0  0  0  0  0  0  0  0  0  0  0  0
  -30.3510  -12.4450   19.1820 C   0  0  0  0  0  2  0  0  0  0  0  0
  -29.3930  -12.5820   17.9830 C   0  0  0  0  0  2  0  0  0  0  0  0
  -27.9320  -12.4260   18.4440 C   0  0  0  0  0  2  0  0  0  0  0  0
  -27.5980  -13.2900   19.6910 C   0  0  0  0  0  3  0  0  0  0  0  0
  -28.6810  -13.1640   20.7850 C   0  0  0  0  0  2  0  0  0  0  0  0
  -29.9710  -13.4840   20.1620 N   0  0  0  0  0  0  0  0  0  0  0  0
  -31.8580  -14.6770   19.9120 O   0  0  0  0  0  0  0  0  0  0  0  0
  -30.5480  -17.0450   20.7720 C   0  0  0  0  0  0  0  0  0  0  0  0
  -29.9920  -15.8110   20.5460 N   0  0  0  0  0  0  0  0  0  0  0  0
  -31.7320  -17.1670   21.1130 O   0  0  0  0  0  0  0  0  0  0  0  0
  -28.9880  -15.7640   20.5290 H   0  0  0  0  0  0  0  0  0  0  0  0
  -25.2200  -13.8700   20.4640 C   0  0  0  0  0  0  0  0  0  0  0  0
  -24.1650  -13.0890   20.8480 C   0  0  0  0  0  0  0  0  0  0  0  0
  -24.6330  -11.7390   20.8020 C   0  0  0  0  0  0  0  0  0  0  0  0
  -26.2640  -12.9970   20.2060 N   0  0  0  0  0  0  0  0  0  0  0  0
  -25.9180  -11.7100   20.4720 N   0  0  0  0  0  0  0  0  0  0  0  0
  -23.9160  -10.4730   20.9970 C   0  0  0  0  0  0  0  0  0  0  0  0
  -24.3490   -9.5160   21.9420 C   0  0  0  0  0  3  0  0  0  0  0  0
  -23.6310   -8.3150   22.1240 C   0  0  0  0  0  3  0  0  0  0  0  0
  -22.4670   -8.0600   21.3610 C   0  0  0  0  0  0  0  0  0  0  0  0
  -22.0550   -9.0050   20.4050 C   0  0  0  0  0  3  0  0  0  0  0  0
  -22.7720  -10.1980   20.2210 C   0  0  0  0  0  3  0  0  0  0  0  0
  -21.7220   -6.9090   21.4530 O   0  0  0  0  0  0  0  0  0  0  0  0
  -21.6450   -6.1920   22.6190 C   0  0  0  0  0  0  0  0  0  0  0  0
  -21.1450   -6.7590   23.8110 C   0  0  0  0  0  3  0  0  0  0  0  0
  -21.0180   -5.9650   24.9690 C   0  0  0  0  0  3  0  0  0  0  0  0
  -21.3840   -4.6070   24.9370 C   0  0  0  0  0  0  0  0  0  0  0  0
  -21.8770   -4.0390   23.7480 C   0  0  0  0  0  3  0  0  0  0  0  0
  -22.0050   -4.8290   22.5920 C   0  0  0  0  0  0  0  0  0  0  0  0
  -22.4610   -4.2720   21.4450 F   0  0  0  0  0  0  0  0  0  0  0  0
  -21.2550   -3.8420   26.0460 F   0  0  0  0  0  0  0  0  0  0  0  0
  -22.7700  -13.5570   21.1430 C   0  0  0  0  0  0  0  0  0  0  0  0
  -22.0580  -12.8520   22.0150 N   0  0  0  0  0  0  0  0  0  0  0  0
  -22.3200  -14.5840   20.6360 O   0  0  0  0  0  0  0  0  0  0  0  0
  -22.4340  -12.0220   22.4480 H   0  0  0  0  0  0  0  0  0  0  0  0
  -21.1220  -13.1480   22.2550 H   0  0  0  0  0  0  0  0  0  0  0  0
  -25.3750  -15.2420   20.2900 N   0  0  0  0  0  0  0  0  0  0  0  0
  -24.6050  -15.8910   20.4140 H   0  0  0  0  0  0  0  0  0  0  0  0
  -26.2060  -15.6830   19.9180 H   0  0  0  0  0  0  0  0  0  0  0  0
  -28.6460  -25.8520   21.3340 C   0  0  0  0  0  3  0  0  0  0  0  0
  -28.8030  -24.5090   21.5790 C   0  0  0  0  0  0  0  0  0  0  0  0
  -29.0360  -24.1940   22.8650 O   0  0  0  0  0  0  0  0  0  0  0  0
  -28.7900  -23.2830   22.9780 H   0  0  0  0  0  0  0  0  0  0  0  0
  -28.4020  -26.5560   20.1660 O   0  0  0  0  0  0  0  0  0  0  0  0
  -24.6050  -31.8790   23.2200 C   0  0  0  0  0  0  0  0  0  0  0  0
  -27.3050  -27.4080   20.1700 C   0  0  0  0  0  0  0  0  0  0  0  0
  -23.4340  -30.4760   21.5570 C   0  0  0  0  0  3  0  0  0  0  0  0
  -24.9200  -28.9510   20.1430 C   0  0  0  0  0  0  0  0  0  0  0  0
  -25.9660  -30.8370   21.4020 C   0  0  0  0  0  2  0  0  0  0  0  0
  -26.0710  -29.4630   20.7570 C   0  0  0  0  0  0  0  0  0  0  0  0
  -27.2720  -28.6980   20.7730 C   0  0  0  0  0  3  0  0  0  0  0  0
  -26.1420  -26.9350   19.5370 C   0  0  0  0  0  3  0  0  0  0  0  0
  -24.9530  -27.6900   19.5250 C   0  0  0  0  0  3  0  0  0  0  0  0
  -23.6720  -29.8070   20.1760 C   0  0  0  0  0  2  0  0  0  0  0  0
  -24.6860  -31.0800   22.1180 N   0  0  0  0  0  0  0  0  0  0  0  0
  -23.5150  -32.1420   23.7460 O   0  0  0  0  0  0  0  0  0  0  0  0
  -22.7740  -29.4480   22.5040 C   0  0  0  0  0  0  0  0  0  0  0  0
  -21.4480  -29.2690   22.3710 N   0  0  0  0  0  0  0  0  0  0  0  0
  -23.4510  -28.8140   23.3180 O   0  0  0  0  0  0  0  0  0  0  0  0
  -20.9620  -29.8300   21.6870 H   0  0  0  0  0  0  0  0  0  0  0  0
  -18.0670  -28.0890   22.8700 C   0  0  0  0  0  0  0  0  0  0  0  0
  -20.6280  -28.3240   23.1300 C   0  0  0  0  0  3  0  0  0  0  0  0
  -20.7170  -26.9030   22.5290 C   0  0  0  0  0  2  0  0  0  0  0  0
  -19.6060  -26.6070   21.5160 C   0  0  0  0  0  2  0  0  0  0  0  0
  -18.2300  -26.7510   22.1710 C   0  0  0  0  0  2  0  0  0  0  0  0
  -19.1940  -28.8350   23.3080 C   0  0  0  0  0  0  0  0  0  0  0  0
  -18.9880  -30.0880   23.9230 C   0  0  0  0  0  3  0  0  0  0  0  0
  -17.6880  -30.5960   24.1070 C   0  0  0  0  0  3  0  0  0  0  0  0
  -16.5750  -29.8470   23.6840 C   0  0  0  0  0  3  0  0  0  0  0  0
  -16.7670  -28.5950   23.0720 C   0  0  0  0  0  3  0  0  0  0  0  0
  -25.8770  -32.5190   23.8590 C   0  0  0  0  0  3  0  0  0  0  0  0
  -26.3830  -31.7490   25.1410 C   0  0  1  0  0  0  0  0  0  0  0  0
  -25.2780  -31.5020   26.1930 C   0  0  0  0  0  1  0  0  0  0  0  0
  -26.9810  -30.3760   24.7550 C   0  0  0  0  0  1  0  0  0  0  0  0
  -27.5180  -32.5510   25.8210 C   0  0  0  0  0  1  0  0  0  0  0  0
  -25.5540  -33.9150   24.1860 N   0  0  0  0  0  0  0  0  0  0  0  0
  -25.8840  -34.9690   23.4280 C   0  0  0  0  0  0  0  0  0  0  0  0
  -26.5630  -34.8700   22.4030 O   0  0  0  0  0  0  0  0  0  0  0  0
  -24.9550  -34.0650   24.9840 H   0  0  0  0  0  0  0  0  0  0  0  0
  -24.1500  -36.7510   23.0530 C   0  0  0  0  0  1  0  0  0  0  0  0
  -25.3820  -36.3530   23.8810 C   0  0  0  0  0  3  0  0  0  0  0  0
  -27.4960  -37.2550   24.7470 C   0  0  0  0  0  1  0  0  0  0  0  0
  -26.4090  -37.4140   23.7830 N   0  0  0  0  0  0  0  0  0  0  0  0
  -25.9950  -38.3310   23.9230 H   0  0  0  0  0  0  0  0  0  0  0  0
  1  2  1  0
  1 51  1  0
  2  4  1  0
  3  1  2  0
  5  6  1  0
  5  7  2  0
  6  8  2  0
  7 18  1  0
  7  9  1  0
  8  2  1  0
  8  9  1  0
 10 19  1  0
 11 16  1  0
 12 13  1  0
 12 11  1  0
 14 13  1  0
 14 25  1  0
 14 15  1  0
 16 10  1  0
 16 15  1  0
 17 10  2  0
 18 20  2  0
 19 18  1  0
 21 19  1  0
 22 23  2  0
 23 42  1  0
 24 23  1  0
 24 27  1  0
 25 22  1  0
 25 26  1  0
 26 24  2  0
 27 28  1  0
 28 29  2  0
 30 33  1  0
 30 29  1  0
 31 30  2  0
 32 31  1  0
 32 27  2  0
 33 34  1  0
 34 35  1  0
 35 36  2  0
 37 36  1  0
 37 41  1  0
 38 37  2  0
 39 34  2  0
 39 38  1  0
 40 39  1  0
 42 43  1  0
 43 46  1  0
 43 45  1  0
 44 42  2  0
 47 48  1  0
 47 22  1  0
 49 47  1  0
 50 51  2  0
 51 52  1  0
 52 53  1  0
 54 56  1  0
 54 50  1  0
 55 66  2  0
 56 61  1  0
 57 65  1  0
 57 67  1  0
 58 64  1  0
 58 60  1  0
 59 65  1  0
 60 61  2  0
 60 59  1  0
 62 56  2  0
 63 62  1  0
 63 58  2  0
 64 57  1  0
 65 55  1  0
 67 69  2  0
 68 67  1  0
 70 68  1  0
 71 80  2  0
 71 76  1  0
 72 68  1  0
 72 76  1  0
 73 72  1  0
 74 75  1  0
 74 73  1  0
 75 71  1  0
 76 77  2  0
 77 78  1  0
 79 78  2  0
 80 79  1  0
 81 55  1  0
 81 86  1  0
 81 82  1  0
 82 85  1  1
 82 83  1  0
 84 82  1  0
 86 89  1  0
 87 91  1  0
 87 86  1  0
 88 87  2  0
 91 90  1  0
 93 91  1  0
 93 94  1  0
 93 92  1  0
M  ISO  4  10 100  19 100  50 101  54 101
M  END
>  <TORSDO>  (75) 
F 19

>  <SCORE>  (75) 
-14.886

>  <name>  (75) 
74

>  <ligand_id>  (75) 
74

>  <original_smiles>  (75) 
[H]OC(C(=O)N([H])c1sc(C(=O)N([H])C(=O)N2C([H])([H])C([H])([H])C([H])([H])C([H])(n3nc(-c4c([H])c([H])c(Oc5c([H])c([H])c(F)c([H])c5F)c([H])c4[H])c(C(=O)N([H])[H])c3N([H])[H])C2([H])[H])c([H])c1[H])=C([H])Oc1c([H])c([H])c2c(c1[H])C([H])([H])N(C(=O)C([H])(N([H])C(=O)C([H])(N([H])C([H])([H])[H])C([H])([H])[H])C(C([H])([H])[H])(C([H])([H])[H])C([H])([H])[H])C([H])(C(=O)N([H])C1([H])c3c([H])c([H])c([H])c([H])c3C([H])([H])C([H])([H])C1([H])[H])C2([H])[H]

>  <smiles>  (75) 
[H]OC(C(=O)N([H])c1sc(C(=O)N([H])C(=O)N2C([H])([H])C([H])([H])C([H])([H])C([H])(n3nc(-c4c([H])c([H])c(Oc5c([H])c([H])c(F)c([H])c5F)c([H])c4[H])c(C(=O)N([H])[H])c3N([H])[H])C2([H])[H])c([H])c1[H])=C([H])Oc1c([H])c([H])c2c(c1[H])C([H])([H])N(C(=O)C([H])(N([H])C(=O)C([H])(N([H])C([H])([H])[H])C([H])([H])[H])C(C([H])([H])[H])(C([H])([H])[H])C([H])([H])[H])C([H])(C(=O)N([H])C1([H])c3c([H])c([H])c([H])c([H])c3C([H])([H])C([H])([H])C1([H])[H])C2([H])[H]

$$$$
75:0:0
     RDKit          3D

 96104  0  0  1  0  0  0  0  0999 V2000
  -29.0780  -19.4390   21.4750 C   0  0  0  0  0  3  0  0  0  0  0  0
  -28.8360  -20.8260   21.2080 C   0  0  0  0  0  3  0  0  0  0  0  0
  -30.4420  -19.2730   19.5090 C   0  0  0  0  0  3  0  0  0  0  0  0
  -29.8790  -18.6100   20.6330 C   0  0  0  0  0  0  0  0  0  0  0  0
  -29.3990  -21.4780   20.0790 C   0  0  0  0  0  0  0  0  0  0  0  0
  -30.2090  -20.6570   19.2400 C   0  0  0  0  0  0  0  0  0  0  0  0
  -30.7980  -14.8690   20.3440 C   0  0  0  0  0  0  0  0  0  0  0  0
  -30.5590  -12.5910   19.3680 C   0  0  0  0  0  2  0  0  0  0  0  0
  -29.6200  -12.6470   18.1460 C   0  0  0  0  0  2  0  0  0  0  0  0
  -28.1500  -12.4860   18.5840 C   0  0  0  0  0  2  0  0  0  0  0  0
  -27.7760  -13.3830   19.7930 C   0  0  0  0  0  3  0  0  0  0  0  0
  -28.8440  -13.3430   20.9070 C   0  0  0  0  0  2  0  0  0  0  0  0
  -30.1340  -13.6650   20.2860 N   0  0  0  0  0  0  0  0  0  0  0  0
  -32.0160  -14.9030   20.1530 O   0  0  0  0  0  0  0  0  0  0  0  0
  -30.2220  -17.1400   21.0300 C   0  0  0  0  0  0  0  0  0  0  0  0
  -30.0600  -16.0410   20.1910 N   0  0  0  0  0  0  0  0  0  0  0  0
  -30.6220  -16.9870   22.1900 O   0  0  0  0  0  0  0  0  0  0  0  0
  -25.3980  -13.9910   20.5360 C   0  0  0  0  0  0  0  0  0  0  0  0
  -24.3280  -13.2220   20.8980 C   0  0  0  0  0  0  0  0  0  0  0  0
  -24.7840  -11.8690   20.8580 C   0  0  0  0  0  0  0  0  0  0  0  0
  -26.4350  -13.1050   20.2920 N   0  0  0  0  0  0  0  0  0  0  0  0
  -26.0730  -11.8240   20.5510 N   0  0  0  0  0  0  0  0  0  0  0  0
  -24.0520  -10.6090   21.0350 C   0  0  0  0  0  0  0  0  0  0  0  0
  -24.4660   -9.6440   21.9790 C   0  0  0  0  0  3  0  0  0  0  0  0
  -23.7360   -8.4480   22.1450 C   0  0  0  0  0  3  0  0  0  0  0  0
  -22.5790   -8.2090   21.3670 C   0  0  0  0  0  0  0  0  0  0  0  0
  -22.1840   -9.1640   20.4130 C   0  0  0  0  0  3  0  0  0  0  0  0
  -22.9150  -10.3510   20.2440 C   0  0  0  0  0  3  0  0  0  0  0  0
  -21.8210   -7.0660   21.4420 O   0  0  0  0  0  0  0  0  0  0  0  0
  -21.7280   -6.3410   22.6040 C   0  0  0  0  0  0  0  0  0  0  0  0
  -21.2220   -6.9030   23.7960 C   0  0  0  0  0  3  0  0  0  0  0  0
  -21.0790   -6.1020   24.9460 C   0  0  0  0  0  3  0  0  0  0  0  0
  -21.4330   -4.7390   24.9050 C   0  0  0  0  0  0  0  0  0  0  0  0
  -21.9320   -4.1770   23.7170 C   0  0  0  0  0  3  0  0  0  0  0  0
  -22.0760   -4.9750   22.5690 C   0  0  0  0  0  0  0  0  0  0  0  0
  -22.5380   -4.4230   21.4210 F   0  0  0  0  0  0  0  0  0  0  0  0
  -21.2890   -3.9680   26.0080 F   0  0  0  0  0  0  0  0  0  0  0  0
  -22.9330  -13.7050   21.1700 C   0  0  0  0  0  0  0  0  0  0  0  0
  -22.2000  -13.0050   22.0280 N   0  0  0  0  0  0  0  0  0  0  0  0
  -22.5010  -14.7370   20.6580 O   0  0  0  0  0  0  0  0  0  0  0  0
  -22.5620  -12.1700   22.4650 H   0  0  0  0  0  0  0  0  0  0  0  0
  -21.2640  -13.3110   22.2550 H   0  0  0  0  0  0  0  0  0  0  0  0
  -25.5730  -15.3610   20.3660 N   0  0  0  0  0  0  0  0  0  0  0  0
  -24.8120  -16.0240   20.4720 H   0  0  0  0  0  0  0  0  0  0  0  0
  -26.4250  -15.7820   20.0230 H   0  0  0  0  0  0  0  0  0  0  0  0
  -28.3200  -16.7840   18.6200 C   0  0  0  0  0  2  0  0  0  0  0  0
  -29.5160  -16.2290   18.9050 C   0  0  0  0  0  3  0  0  0  0  0  0
  -28.7030  -24.0020   20.3280 C   0  0  0  0  0  0  0  0  0  0  0  0
  -29.1880  -22.8830   19.6920 N   0  0  0  0  0  0  0  0  0  0  0  0
  -28.3200  -23.9790   21.5000 O   0  0  0  0  0  0  0  0  0  0  0  0
  -29.4860  -23.0590   18.7420 H   0  0  0  0  0  0  0  0  0  0  0  0
  -28.6470  -25.3660   19.5100 C   0  0  0  0  0  2  0  0  0  0  0  0
  -28.4640  -26.6340   20.2670 O   0  0  0  0  0  0  0  0  0  0  0  0
  -24.5740  -31.9350   23.2370 C   0  0  0  0  0  0  0  0  0  0  0  0
  -27.3070  -27.4300   20.1860 C   0  0  0  0  0  0  0  0  0  0  0  0
  -23.4160  -30.5260   21.5730 C   0  0  0  0  0  3  0  0  0  0  0  0
  -24.9110  -29.0040   20.1600 C   0  0  0  0  0  0  0  0  0  0  0  0
  -25.9530  -30.8840   21.4290 C   0  0  0  0  0  2  0  0  0  0  0  0
  -26.0620  -29.5090   20.7760 C   0  0  0  0  0  0  0  0  0  0  0  0
  -27.2580  -28.7310   20.7820 C   0  0  0  0  0  3  0  0  0  0  0  0
  -26.1230  -26.9710   19.5650 C   0  0  0  0  0  3  0  0  0  0  0  0
  -24.9430  -27.7410   19.5500 C   0  0  0  0  0  3  0  0  0  0  0  0
  -23.6600  -29.8590   20.1920 C   0  0  0  0  0  2  0  0  0  0  0  0
  -24.6650  -31.1330   22.1350 N   0  0  0  0  0  0  0  0  0  0  0  0
  -23.4780  -32.1950   23.7560 O   0  0  0  0  0  0  0  0  0  0  0  0
  -22.7540  -29.4970   22.5190 C   0  0  0  0  0  0  0  0  0  0  0  0
  -21.4300  -29.3140   22.3830 N   0  0  0  0  0  0  0  0  0  0  0  0
  -23.4320  -28.8650   23.3340 O   0  0  0  0  0  0  0  0  0  0  0  0
  -20.9430  -29.8760   21.6980 H   0  0  0  0  0  0  0  0  0  0  0  0
  -18.0510  -28.1190   22.8730 C   0  0  0  0  0  0  0  0  0  0  0  0
  -20.6110  -28.3650   23.1370 C   0  0  0  0  0  3  0  0  0  0  0  0
  -20.7060  -26.9440   22.5340 C   0  0  0  0  0  2  0  0  0  0  0  0
  -19.5990  -26.6450   21.5180 C   0  0  0  0  0  2  0  0  0  0  0  0
  -18.2210  -26.7830   22.1700 C   0  0  0  0  0  2  0  0  0  0  0  0
  -19.1740  -28.8690   23.3130 C   0  0  0  0  0  0  0  0  0  0  0  0
  -18.9610  -30.1200   23.9310 C   0  0  0  0  0  3  0  0  0  0  0  0
  -17.6590  -30.6230   24.1110 C   0  0  0  0  0  3  0  0  0  0  0  0
  -16.5500  -29.8700   23.6870 C   0  0  0  0  0  3  0  0  0  0  0  0
  -16.7470  -28.6190   23.0730 C   0  0  0  0  0  3  0  0  0  0  0  0
  -25.8370  -32.5830   23.8830 C   0  0  0  0  0  3  0  0  0  0  0  0
  -26.3270  -31.8320   25.1810 C   0  0  1  0  0  0  0  0  0  0  0  0
  -25.2080  -31.5930   26.2220 C   0  0  0  0  0  1  0  0  0  0  0  0
  -26.9350  -30.4560   24.8200 C   0  0  0  0  0  1  0  0  0  0  0  0
  -27.4510  -32.6440   25.8650 C   0  0  0  0  0  1  0  0  0  0  0  0
  -25.5100  -33.9840   24.1890 N   0  0  0  0  0  0  0  0  0  0  0  0
  -25.8650  -35.0330   23.4350 C   0  0  0  0  0  0  0  0  0  0  0  0
  -26.5700  -34.9230   22.4280 O   0  0  0  0  0  0  0  0  0  0  0  0
  -24.8880  -34.1420   24.9680 H   0  0  0  0  0  0  0  0  0  0  0  0
  -24.1570  -36.8260   22.9930 C   0  0  0  0  0  1  0  0  0  0  0  0
  -25.3580  -36.4230   23.8650 C   0  0  0  0  0  3  0  0  0  0  0  0
  -27.4470  -37.3130   24.7980 C   0  0  0  0  0  1  0  0  0  0  0  0
  -26.3950  -37.4740   23.7980 N   0  0  0  0  0  0  0  0  0  0  0  0
  -25.9830  -38.3960   23.9150 H   0  0  0  0  0  0  0  0  0  0  0  0
  -30.8180  -21.2280   18.1220 N   0  0  0  0  0  0  0  0  0  0  0  0
  -31.5190  -20.6630   17.6560 H   0  0  0  0  0  0  0  0  0  0  0  0
  -31.1460  -22.1820   18.2230 H   0  0  0  0  0  0  0  0  0  0  0  0
  2  1  1  0
  3  4  1  0
  4 15  1  0
  4  1  2  0
  5  2  2  0
  6  3  2  0
  6  5  1  0
  8 13  1  0
  9 10  1  0
  9  8  1  0
 11 10  1  0
 11 21  1  0
 11 12  1  0
 13  7  1  0
 13 12  1  0
 14  7  2  0
 15 17  2  0
 16  7  1  0
 16 15  1  0
 18 19  2  0
 19 38  1  0
 20 19  1  0
 20 23  1  0
 21 18  1  0
 21 22  1  0
 22 20  2  0
 23 24  1  0
 24 25  2  0
 26 29  1  0
 26 25  1  0
 27 26  2  0
 28 27  1  0
 28 23  2  0
 29 30  1  0
 30 31  1  0
 31 32  2  0
 33 32  1  0
 33 37  1  0
 34 33  2  0
 35 30  2  0
 35 34  1  0
 36 35  1  0
 38 39  1  0
 39 42  1  0
 39 41  1  0
 40 38  2  0
 43 44  1  0
 43 18  1  0
 45 43  1  0
 46 47  2  0
 47 16  1  0
 48 50  2  0
 49  5  1  0
 49 48  1  0
 51 49  1  0
 52 53  1  0
 52 48  1  0
 54 65  2  0
 55 53  1  0
 55 60  1  0
 56 64  1  0
 56 66  1  0
 57 63  1  0
 57 59  1  0
 58 64  1  0
 59 60  2  0
 59 58  1  0
 61 55  2  0
 62 61  1  0
 62 57  2  0
 63 56  1  0
 64 54  1  0
 66 68  2  0
 67 66  1  0
 69 67  1  0
 70 79  2  0
 70 75  1  0
 71 67  1  0
 71 75  1  0
 72 71  1  0
 73 74  1  0
 73 72  1  0
 74 70  1  0
 75 76  2  0
 76 77  1  0
 78 77  2  0
 79 78  1  0
 80 54  1  0
 80 85  1  0
 80 81  1  0
 81 84  1  1
 81 82  1  0
 83 81  1  0
 85 88  1  0
 86 90  1  0
 86 85  1  0
 87 86  2  0
 90 89  1  0
 92 90  1  0
 92 93  1  0
 92 91  1  0
 94 96  1  0
 94  6  1  0
 95 94  1  0
M  ISO  4   7 100  16 100  52 101  53 101
M  END
>  <TORSDO>  (76) 
F 20

>  <SCORE>  (76) 
-13.577

>  <name>  (76) 
75

>  <ligand_id>  (76) 
75

>  <original_smiles>  (76) 
[H]C([H])=C([H])N(C(=O)c1c([H])c([H])c(N([H])C(=O)C([H])([H])Oc2c([H])c([H])c3c(c2[H])C([H])([H])N(C(=O)C([H])(N([H])C(=O)C([H])(N([H])C([H])([H])[H])C([H])([H])[H])C(C([H])([H])[H])(C([H])([H])[H])C([H])([H])[H])C([H])(C(=O)N([H])C2([H])c4c([H])c([H])c([H])c([H])c4C([H])([H])C([H])([H])C2([H])[H])C3([H])[H])c(N([H])[H])c1[H])C(=O)N1C([H])([H])C([H])([H])C([H])([H])C([H])(n2nc(-c3c([H])c([H])c(Oc4c([H])c([H])c(F)c([H])c4F)c([H])c3[H])c(C(=O)N([H])[H])c2N([H])[H])C1([H])[H]

>  <smiles>  (76) 
[H]C([H])=C([H])N(C(=O)c1c([H])c([H])c(N([H])C(=O)C([H])([H])Oc2c([H])c([H])c3c(c2[H])C([H])([H])N(C(=O)C([H])(N([H])C(=O)C([H])(N([H])C([H])([H])[H])C([H])([H])[H])C(C([H])([H])[H])(C([H])([H])[H])C([H])([H])[H])C([H])(C(=O)N([H])C2([H])c4c([H])c([H])c([H])c([H])c4C([H])([H])C([H])([H])C2([H])[H])C3([H])[H])c(N([H])[H])c1[H])C(=O)N1C([H])([H])C([H])([H])C([H])([H])C([H])(n2nc(-c3c([H])c([H])c(Oc4c([H])c([H])c(F)c([H])c4F)c([H])c3[H])c(C(=O)N([H])[H])c2N([H])[H])C1([H])[H]

$$$$
76:0:0
     RDKit          3D

 91 91  0  0  1  0  0  0  0  0999 V2000
  -24.8730  -12.7870   21.7080 C   0  0  0  0  0 15  0  0  0  0  0  0
  -26.8730  -15.5140   21.1130 C   0  0  0  0  0  2  0  0  0  0  0  0
  -25.0520  -15.2150   19.0800 C   0  0  0  0  0 15  0  0  0  0  0  0
  -26.5330  -13.9300   21.9970 C   0  0  0  0  0  2  0  0  0  0  0  0
  -23.9390  -13.4960   19.7680 C   0  0  0  0  0  1  0  0  0  0  0  0
  -26.2620  -16.6360   19.8590 C   0  0  0  0  0  1  0  0  0  0  0  0
  -30.6430  -12.7550   21.2460 C   0  0  0  0  0  0  0  0  0  0  0  0
  -31.4620  -10.6210   19.9740 C   0  0  0  0  0  2  0  0  0  0  0  0
  -30.8360  -10.5020   18.5180 C   0  0  0  0  0  2  0  0  0  0  0  0
  -29.2960  -10.3810   18.4750 C   0  0  0  0  0  2  0  0  0  0  0  0
  -28.8750  -11.3300   19.5390 C   0  0  0  0  0  3  0  0  0  0  0  0
  -29.3500  -10.8050   20.8970 C   0  0  0  0  0  2  0  0  0  0  0  0
  -30.6160  -11.4090   20.9550 N   0  0  0  0  0  0  0  0  0  0  0  0
  -31.7650  -13.2470   20.9150 O   0  0  0  0  0  0  0  0  0  0  0  0
  -28.0480  -13.2690   22.3390 C   0  0  0  0  0  0  0  0  0  0  0  0
  -29.3560  -13.4590   21.6280 N   0  0  0  0  0  0  0  0  0  0  0  0
  -28.0310  -12.5100   23.3090 O   0  0  0  0  0  0  0  0  0  0  0  0
  -29.3450  -14.3600   21.1780 H   0  0  0  0  0  0  0  0  0  0  0  0
  -27.1320  -12.9450   19.2390 C   0  0  0  0  0  3  0  0  0  0  0  0
  -26.0450  -13.1260   19.8020 C   0  0  0  0  0  2  0  0  0  0  0  0
  -25.6880  -11.3750   20.0760 C   0  0  0  0  0  3  0  0  0  0  0  0
  -27.5690  -11.6740   19.5730 N   0  0  0  0  0  0  0  0  0  0  0  0
  -26.7910  -10.7410   20.0750 N   0  0  0  0  0  2  0  0  0  0  0  0
  -24.7020  -10.0760   20.7550 C   0  0  0  0  0  0  0  0  0  0  0  0
  -25.0630   -8.9930   21.7230 C   0  0  0  0  0  3  0  0  0  0  0  0
  -24.2630   -7.8300   22.1620 C   0  0  0  0  0  3  0  0  0  0  0  0
  -22.9520   -7.5710   21.6670 C   0  0  0  0  0  0  0  0  0  0  0  0
  -22.5700   -8.5430   20.7050 C   0  0  0  0  0  3  0  0  0  0  0  0
  -23.3850   -9.6760   20.2860 C   0  0  0  0  0  3  0  0  0  0  0  0
  -22.1000   -6.4610   21.9230 O   0  0  0  0  0  0  0  0  0  0  0  0
  -22.0490   -5.6540   23.0700 C   0  0  0  0  0  0  0  0  0  0  0  0
  -21.9280   -6.2000   24.3710 C   0  0  0  0  0  3  0  0  0  0  0  0
  -21.8450   -5.3650   25.5110 C   0  0  0  0  0  3  0  0  0  0  0  0
  -21.8650   -3.9630   25.3800 C   0  0  0  0  0  0  0  0  0  0  0  0
  -21.9330   -3.4010   24.0950 C   0  0  0  0  0  3  0  0  0  0  0  0
  -22.0050   -4.2320   22.9550 C   0  0  0  0  0  0  0  0  0  0  0  0
  -22.0270   -3.6380   21.7380 F   0  0  0  0  0  0  0  0  0  0  0  0
  -21.8230   -3.1660   26.4770 F   0  0  0  0  0  0  0  0  0  0  0  0
  -24.4830  -15.1930   21.0570 C   0  0  0  0  0  2  0  0  0  0  0  0
  -23.4730  -14.7870   22.0130 N   0  0  0  0  0  0  0  0  0  0  0  0
  -23.4910  -15.7300   20.5470 O   0  0  0  0  0  1  0  0  0  0  0  0
  -23.5660  -13.9240   22.5260 H   0  0  0  0  0  0  0  0  0  0  0  0
  -22.6370  -15.3430   22.0840 H   0  0  0  0  0  0  0  0  0  0  0  0
  -27.7900  -13.9370   18.6670 N   0  0  0  0  0  0  0  0  0  0  0  0
  -27.1950  -14.6530   18.2700 H   0  0  0  0  0  0  0  0  0  0  0  0
  -28.5310  -13.6750   18.0290 H   0  0  0  0  0  0  0  0  0  0  0  0
  -22.9650  -12.8000   19.0460 N   0  0  0  0  0  0  0  0  0  0  0  0
  -22.9510  -11.7940   19.1840 H   0  0  0  0  0  0  0  0  0  0  0  0
  -22.8090  -13.0600   18.0740 H   0  0  0  0  0  0  0  0  0  0  0  0
  -26.7310  -18.7730   19.4960 O   0  0  0  0  0 15  0  0  0  0  0  0
  -28.0290  -21.5290   19.6470 O   0  0  0  0  0 15  0  0  0  0  0  0
  -26.8680  -29.8720   23.0540 C   0  0  0  0  0  0  0  0  0  0  0  0
  -27.9510  -23.5170   19.7830 C   0  0  0  0  0  2  0  0  0  0  0  0
  -25.6990  -28.7280   21.2480 C   0  0  0  0  0  3  0  0  0  0  0  0
  -26.8950  -26.8220   19.7470 C   0  0  0  0  0  3  0  0  0  0  0  0
  -28.1680  -28.0420   21.4540 C   0  0  0  0  0  2  0  0  0  0  0  0
  -27.9200  -26.5560   20.6370 C   0  0  0  0  0  0  0  0  0  0  0  0
  -28.4180  -24.9840   20.6020 C   0  0  0  0  0  3  0  0  0  0  0  0
  -27.3070  -24.4090   18.7960 C   0  0  0  0  0  3  0  0  0  0  0  0
  -26.7610  -25.7850   18.7910 C   0  0  0  0  0  3  0  0  0  0  0  0
  -25.9910  -28.1070   19.8280 C   0  0  0  0  0  2  0  0  0  0  0  0
  -26.9820  -28.9640   21.9700 N   0  0  0  0  0  0  0  0  0  0  0  0
  -25.7580  -30.2860   23.4570 O   0  0  0  0  0  0  0  0  0  0  0  0
  -24.7910  -27.7990   22.0980 C   0  0  0  0  0  0  0  0  0  0  0  0
  -23.4720  -27.7450   21.8400 N   0  0  0  0  0  0  0  0  0  0  0  0
  -25.3010  -27.1230   22.9940 O   0  0  0  0  0  0  0  0  0  0  0  0
  -23.0930  -28.3400   21.1160 H   0  0  0  0  0  0  0  0  0  0  0  0
  -20.0310  -26.5700   21.9310 C   0  0  0  0  0  0  0  0  0  0  0  0
  -22.5470  -26.7990   22.4820 C   0  0  0  0  0  3  0  0  0  0  0  0
  -22.6980  -25.3880   21.8640 C   0  0  0  0  0  2  0  0  0  0  0  0
  -21.7220  -25.1330   20.7130 C   0  0  0  0  0  2  0  0  0  0  0  0
  -20.2780  -25.2600   21.2020 C   0  0  0  0  0  2  0  0  0  0  0  0
  -21.0990  -27.3040   22.5170 C   0  0  0  0  0  0  0  0  0  0  0  0
  -20.8150  -28.5270   23.1610 C   0  0  0  0  0  3  0  0  0  0  0  0
  -19.4990  -29.0210   23.2230 C   0  0  0  0  0  3  0  0  0  0  0  0
  -18.4460  -28.2870   22.6490 C   0  0  0  0  0  3  0  0  0  0  0  0
  -18.7110  -27.0630   22.0110 C   0  0  0  0  0  3  0  0  0  0  0  0
  -28.0710  -30.4680   23.8690 C   0  0  0  0  0  3  0  0  0  0  0  0
  -27.6680  -31.7500   24.5270 N   0  0  0  0  0  0  0  0  0  0  0  0
  -28.0620  -32.9920   24.1980 C   0  0  0  0  0  0  0  0  0  0  0  0
  -28.8350  -33.2020   23.2620 O   0  0  0  0  0  0  0  0  0  0  0  0
  -26.9810  -31.6610   25.2620 H   0  0  0  0  0  0  0  0  0  0  0  0
  -26.3630  -34.8690   24.2770 C   0  0  0  0  0  1  0  0  0  0  0  0
  -27.5250  -34.1930   25.0230 C   0  0  0  0  0  3  0  0  0  0  0  0
  -29.5600  -34.7620   26.2900 C   0  0  0  0  0  1  0  0  0  0  0  0
  -28.5490  -35.2190   25.3420 N   0  0  0  0  0  0  0  0  0  0  0  0
  -28.1110  -36.0510   25.7280 H   0  0  0  0  0  0  0  0  0  0  0  0
  -28.5900  -29.4930   25.0000 C   0  0  1  0  0  0  0  0  0  0  0  0
  -27.4660  -28.9220   25.9010 C   0  0  0  0  0  1  0  0  0  0  0  0
  -29.3390  -28.2960   24.3990 C   0  0  0  0  0  1  0  0  0  0  0  0
  -29.6110  -30.2210   25.9080 C   0  0  0  0  0  1  0  0  0  0  0  0
  2  4  1  0
  4 15  1  0
  6  2  1  0
  7 16  1  0
  8 13  1  0
  9  8  1  0
 10  9  1  0
 11 10  1  0
 11 22  1  0
 11 12  1  0
 12 13  1  0
 13  7  1  0
 14  7  2  0
 15 17  2  0
 16 15  1  0
 18 16  1  0
 19 44  1  0
 19 22  1  0
 19 20  1  0
 20 21  1  0
 21 24  1  0
 22 23  1  0
 23 21  1  0
 24 25  1  0
 25 26  2  0
 27 30  1  0
 27 26  1  0
 28 27  2  0
 29 28  1  0
 29 24  2  0
 30 31  1  0
 31 32  1  0
 32 33  2  0
 34 33  1  0
 34 38  1  0
 35 34  2  0
 36 31  2  0
 36 35  1  0
 37 36  1  0
 39 40  1  0
 40 43  1  0
 40 42  1  0
 41 39  1  0
 45 44  1  0
 46 44  1  0
 47 48  1  0
 47  5  1  0
 49 47  1  0
 52 63  2  0
 53 58  1  0
 54 62  1  0
 54 64  1  0
 55 60  1  0
 55 61  1  0
 55 57  1  0
 56 62  1  0
 57 56  1  0
 58 57  2  0
 59 53  1  0
 60 59  2  0
 61 54  1  0
 62 52  1  0
 64 66  2  0
 65 64  1  0
 67 65  1  0
 68 77  2  0
 68 73  1  0
 69 65  1  0
 69 73  1  0
 70 69  1  0
 71 72  1  0
 71 70  1  0
 72 68  1  0
 73 74  2  0
 74 75  1  0
 76 75  2  0
 77 76  1  0
 78 52  1  0
 78 79  1  0
 78 88  1  0
 79 82  1  0
 80 79  1  0
 80 84  1  0
 81 80  2  0
 84 83  1  0
 84 86  1  0
 86 87  1  0
 86 85  1  0
 88 89  1  1
 88 91  1  0
 90 88  1  0
M  ISO  4   7 100  16 100  50 101  51 101
M  END
>  <TORSDO>  (77) 
F 18

>  <SCORE>  (77) 
-0.062

>  <name>  (77) 
76

>  <ligand_id>  (77) 
76

>  <original_smiles>  (77) 
[H]c1c([H])c([H])c2c(c1[H])C([H])([H])C([H])([H])C([H])([H])C2([H])N([H])C(=O)C1([H])N(C(=O)C([H])(N([H])C(=O)C([H])(N([H])C([H])([H])[H])C([H])([H])[H])C(C([H])([H])[H])(C([H])([H])[H])C([H])([H])[H])C([H])([H])c2c([H])c(OOc3c([H])c(C(=O)N([H])C(=O)N4C([H])([H])C([H])([H])C([H])([H])C([H])(n5nc(-c6c([H])c([H])c(Oc7c([H])c([H])c(F)c([H])c7F)c([H])c6[H])c(C(=O)N([H])[H])c5N([H])[H])C4([H])[H])c([H])c(N([H])[H])c3[H])c([H])c([H])c2C1([H])[H]

>  <smiles>  (77) 
[H]c1c([H])c([H])c2c(c1[H])C([H])([H])C([H])([H])C([H])([H])C2([H])N([H])C(=O)C1([H])N(C(=O)C([H])(N([H])C(=O)C([H])(N([H])C([H])([H])[H])C([H])([H])[H])C(C([H])([H])[H])(C([H])([H])[H])C([H])([H])[H])C([H])([H])c2c([H])c(OOc3c([H])c(C(=O)N([H])C(=O)N4C([H])([H])C([H])([H])C([H])([H])C([H])(n5nc(-c6c([H])c([H])c(Oc7c([H])c([H])c(F)c([H])c7F)c([H])c6[H])c(C(=O)N([H])[H])c5N([H])[H])C4([H])[H])c([H])c(N([H])[H])c3[H])c([H])c([H])c2C1([H])[H]

$$$$
77:0:0
     RDKit          3D

 96105  0  0  1  0  0  0  0  0999 V2000
  -30.4540  -24.3850   20.0090 C   0  0  0  0  0  3  0  0  0  0  0  0
  -31.2610  -22.1240   20.0080 C   0  0  0  0  0  3  0  0  0  0  0  0
  -29.1900  -23.9850   20.2540 C   0  0  0  0  0  0  0  0  0  0  0  0
  -31.5320  -23.4340   19.8830 C   0  0  0  0  0  0  0  0  0  0  0  0
  -28.9160  -22.5080   20.4420 C   0  0  0  0  0  0  0  0  0  0  0  0
  -29.9760  -21.6050   20.2970 N   0  0  0  0  0  0  0  0  0  0  0  0
  -27.7820  -22.1130   20.7320 O   0  0  0  0  0  0  0  0  0  0  0  0
  -31.0090  -19.3470   20.9280 C   0  0  0  0  0  3  0  0  0  0  0  0
  -31.0040  -17.9210   21.0020 C   0  0  0  0  0  3  0  0  0  0  0  0
  -28.7710  -19.3380   20.0700 C   0  0  0  0  0  3  0  0  0  0  0  0
  -29.9030  -20.1200   20.4430 C   0  0  0  0  0  0  0  0  0  0  0  0
  -29.8710  -17.1650   20.6190 C   0  0  0  0  0  0  0  0  0  0  0  0
  -28.7520  -17.9140   20.1690 C   0  0  0  0  0  0  0  0  0  0  0  0
  -27.6280  -17.2420   19.8150 F   0  0  0  0  0  0  0  0  0  0  0  0
  -30.5690  -14.6730   20.4490 C   0  0  0  0  0  0  0  0  0  0  0  0
  -30.3690  -12.4350   19.3800 C   0  0  0  0  0  2  0  0  0  0  0  0
  -29.4140  -12.5590   18.1710 C   0  0  0  0  0  2  0  0  0  0  0  0
  -27.9430  -12.3950   18.6090 C   0  0  0  0  0  2  0  0  0  0  0  0
  -27.5890  -13.2580   19.8480 C   0  0  0  0  0  3  0  0  0  0  0  0
  -28.6540  -13.1000   20.9580 C   0  0  0  0  0  2  0  0  0  0  0  0
  -29.9600  -13.4480   20.3730 N   0  0  0  0  0  0  0  0  0  0  0  0
  -31.7360  -14.8380   20.0820 O   0  0  0  0  0  0  0  0  0  0  0  0
  -29.7400  -15.7160   20.7560 N   0  0  0  0  0  0  0  0  0  0  0  0
  -28.7900  -15.4150   20.9140 H   0  0  0  0  0  0  0  0  0  0  0  0
  -25.2020  -13.8580   20.5850 C   0  0  0  0  0  0  0  0  0  0  0  0
  -24.1340  -13.0840   20.9540 C   0  0  0  0  0  0  0  0  0  0  0  0
  -24.5930  -11.7320   20.9090 C   0  0  0  0  0  0  0  0  0  0  0  0
  -26.2420  -12.9760   20.3380 N   0  0  0  0  0  0  0  0  0  0  0  0
  -25.8820  -11.6920   20.5940 N   0  0  0  0  0  0  0  0  0  0  0  0
  -23.8660  -10.4690   21.0930 C   0  0  0  0  0  0  0  0  0  0  0  0
  -24.3040   -9.4900   22.0110 C   0  0  0  0  0  3  0  0  0  0  0  0
  -23.5760   -8.2920   22.1830 C   0  0  0  0  0  3  0  0  0  0  0  0
  -22.3950   -8.0660   21.4360 C   0  0  0  0  0  0  0  0  0  0  0  0
  -21.9760   -9.0340   20.5070 C   0  0  0  0  0  3  0  0  0  0  0  0
  -22.7040  -10.2230   20.3330 C   0  0  0  0  0  3  0  0  0  0  0  0
  -21.6390   -6.9220   21.5180 O   0  0  0  0  0  0  0  0  0  0  0  0
  -21.6010   -6.1650   22.6610 C   0  0  0  0  0  0  0  0  0  0  0  0
  -21.1730   -6.6990   23.8960 C   0  0  0  0  0  3  0  0  0  0  0  0
  -21.0840   -5.8670   25.0290 C   0  0  0  0  0  3  0  0  0  0  0  0
  -21.4110   -4.5030   24.9310 C   0  0  0  0  0  0  0  0  0  0  0  0
  -21.8320   -3.9670   23.7010 C   0  0  0  0  0  3  0  0  0  0  0  0
  -21.9240   -4.7950   22.5680 C   0  0  0  0  0  0  0  0  0  0  0  0
  -22.3090   -4.2700   21.3800 F   0  0  0  0  0  0  0  0  0  0  0  0
  -21.3180   -3.7010   26.0170 F   0  0  0  0  0  0  0  0  0  0  0  0
  -22.7390  -13.5620   21.2380 C   0  0  0  0  0  0  0  0  0  0  0  0
  -22.0170  -12.8620   22.1060 N   0  0  0  0  0  0  0  0  0  0  0  0
  -22.2990  -14.5900   20.7260 O   0  0  0  0  0  0  0  0  0  0  0  0
  -22.3860  -12.0290   22.5420 H   0  0  0  0  0  0  0  0  0  0  0  0
  -21.0810  -13.1640   22.3380 H   0  0  0  0  0  0  0  0  0  0  0  0
  -25.3650  -15.2300   20.4210 N   0  0  0  0  0  0  0  0  0  0  0  0
  -24.5930  -15.8750   20.5470 H   0  0  0  0  0  0  0  0  0  0  0  0
  -26.2060  -15.6920   20.0930 H   0  0  0  0  0  0  0  0  0  0  0  0
  -32.7740  -23.8410   19.6010 O   0  0  0  0  0  0  0  0  0  0  0  0
  -32.7620  -24.7880   19.5230 H   0  0  0  0  0  0  0  0  0  0  0  0
  -28.0160  -25.0210   20.2560 C   0  0  0  0  0  2  0  0  0  0  0  0
  -28.3050  -26.4810   20.2180 O   0  0  0  0  0  0  0  0  0  0  0  0
  -24.6300  -31.9230   23.2540 C   0  0  0  0  0  0  0  0  0  0  0  0
  -27.1970  -27.3490   20.1790 C   0  0  0  0  0  0  0  0  0  0  0  0
  -23.4120  -30.5420   21.6130 C   0  0  0  0  0  3  0  0  0  0  0  0
  -24.8470  -28.9870   20.1820 C   0  0  0  0  0  0  0  0  0  0  0  0
  -25.9560  -30.8370   21.4280 C   0  0  0  0  0  2  0  0  0  0  0  0
  -26.0230  -29.4600   20.7770 C   0  0  0  0  0  0  0  0  0  0  0  0
  -27.2020  -28.6550   20.7640 C   0  0  0  0  0  3  0  0  0  0  0  0
  -25.9930  -26.9360   19.5590 C   0  0  0  0  0  3  0  0  0  0  0  0
  -24.8340  -27.7310   19.5640 C   0  0  0  0  0  3  0  0  0  0  0  0
  -23.6180  -29.8720   20.2310 C   0  0  0  0  0  2  0  0  0  0  0  0
  -24.6850  -31.1170   22.1550 N   0  0  0  0  0  0  0  0  0  0  0  0
  -23.5490  -32.2100   23.7890 O   0  0  0  0  0  0  0  0  0  0  0  0
  -22.7420  -29.5260   22.5700 C   0  0  0  0  0  0  0  0  0  0  0  0
  -21.4140  -29.3600   22.4420 N   0  0  0  0  0  0  0  0  0  0  0  0
  -23.4140  -28.8920   23.3860 O   0  0  0  0  0  0  0  0  0  0  0  0
  -20.9310  -29.9220   21.7560 H   0  0  0  0  0  0  0  0  0  0  0  0
  -18.0250  -28.1980   22.9430 C   0  0  0  0  0  0  0  0  0  0  0  0
  -20.5860  -28.4280   23.2110 C   0  0  0  0  0  3  0  0  0  0  0  0
  -20.6720  -26.9980   22.6320 C   0  0  0  0  0  2  0  0  0  0  0  0
  -19.5650  -26.6890   21.6180 C   0  0  0  0  0  2  0  0  0  0  0  0
  -18.1860  -26.8480   22.2640 C   0  0  0  0  0  2  0  0  0  0  0  0
  -19.1520  -28.9470   23.3730 C   0  0  0  0  0  0  0  0  0  0  0  0
  -18.9470  -30.2110   23.9690 C   0  0  0  0  0  3  0  0  0  0  0  0
  -17.6480  -30.7250   24.1370 C   0  0  0  0  0  3  0  0  0  0  0  0
  -16.5350  -29.9730   23.7220 C   0  0  0  0  0  3  0  0  0  0  0  0
  -16.7240  -28.7110   23.1310 C   0  0  0  0  0  3  0  0  0  0  0  0
  -25.9190  -32.5430   23.8760 C   0  0  0  0  0  3  0  0  0  0  0  0
  -26.4380  -31.7550   25.1400 C   0  0  1  0  0  0  0  0  0  0  0  0
  -25.3480  -31.5090   26.2110 C   0  0  0  0  0  1  0  0  0  0  0  0
  -27.0130  -30.3790   24.7310 C   0  0  0  0  0  1  0  0  0  0  0  0
  -27.5950  -32.5360   25.8070 C   0  0  0  0  0  1  0  0  0  0  0  0
  -25.6160  -33.9380   24.2240 N   0  0  0  0  0  0  0  0  0  0  0  0
  -25.9220  -34.9970   23.4620 C   0  0  0  0  0  0  0  0  0  0  0  0
  -26.5590  -34.9010   22.4090 O   0  0  0  0  0  0  0  0  0  0  0  0
  -25.0470  -34.0870   25.0450 H   0  0  0  0  0  0  0  0  0  0  0  0
  -24.1720  -36.7820   23.1860 C   0  0  0  0  0  1  0  0  0  0  0  0
  -25.4470  -36.3820   23.9440 C   0  0  0  0  0  3  0  0  0  0  0  0
  -27.6090  -37.2760   24.6890 C   0  0  0  0  0  1  0  0  0  0  0  0
  -26.4690  -37.4400   23.7910 N   0  0  0  0  0  0  0  0  0  0  0  0
  -26.0640  -38.3580   23.9550 H   0  0  0  0  0  0  0  0  0  0  0  0
  1  3  2  0
  2  6  1  0
  3 55  1  0
  3  5  1  0
  4  2  2  0
  4  1  1  0
  5  7  2  0
  6  5  1  0
  6 11  1  0
  8  9  1  0
 10 13  2  0
 10 11  1  0
 11  8  2  0
 12 23  1  0
 12  9  2  0
 13 12  1  0
 14 13  1  0
 15 23  1  0
 16 21  1  0
 17 18  1  0
 17 16  1  0
 19 18  1  0
 19 28  1  0
 19 20  1  0
 21 15  1  0
 21 20  1  0
 22 15  2  0
 23 24  1  0
 25 26  2  0
 26 45  1  0
 27 26  1  0
 27 30  1  0
 28 25  1  0
 28 29  1  0
 29 27  2  0
 30 31  1  0
 31 32  2  0
 33 36  1  0
 33 32  1  0
 34 33  2  0
 35 34  1  0
 35 30  2  0
 36 37  1  0
 37 38  1  0
 38 39  2  0
 40 39  1  0
 40 44  1  0
 41 40  2  0
 42 37  2  0
 42 41  1  0
 43 42  1  0
 45 46  1  0
 46 49  1  0
 46 48  1  0
 47 45  2  0
 50 51  1  0
 50 25  1  0
 52 50  1  0
 53  4  1  0
 54 53  1  0
 56 55  1  0
 57 68  2  0
 58 56  1  0
 58 63  1  0
 59 67  1  0
 59 69  1  0
 60 66  1  0
 60 62  1  0
 61 67  1  0
 62 61  1  0
 63 62  2  0
 64 65  1  0
 64 58  2  0
 65 60  2  0
 66 59  1  0
 67 57  1  0
 69 71  2  0
 70 69  1  0
 72 70  1  0
 73 82  2  0
 73 78  1  0
 74 70  1  0
 74 78  1  0
 75 74  1  0
 76 77  1  0
 76 75  1  0
 77 73  1  0
 78 79  2  0
 79 80  1  0
 81 80  2  0
 82 81  1  0
 83 57  1  0
 83 88  1  0
 83 84  1  0
 84 87  1  1
 84 85  1  0
 86 84  1  0
 88 91  1  0
 89 93  1  0
 89 88  1  0
 90 89  2  0
 93 92  1  0
 95 93  1  0
 95 96  1  0
 95 94  1  0
M  ISO  4  15 100  23 100  55 101  56 101
M  END
>  <TORSDO>  (78) 
F 19

>  <SCORE>  (78) 
-15.004

>  <name>  (78) 
77

>  <ligand_id>  (78) 
77

>  <original_smiles>  (78) 
[H]Oc1c([H])c(C([H])([H])Oc2c([H])c([H])c3c(c2[H])C([H])([H])N(C(=O)C([H])(N([H])C(=O)C([H])(N([H])C([H])([H])[H])C([H])([H])[H])C(C([H])([H])[H])(C([H])([H])[H])C([H])([H])[H])C([H])(C(=O)N([H])C2([H])c4c([H])c([H])c([H])c([H])c4C([H])([H])C([H])([H])C2([H])[H])C3([H])[H])c(=O)n(-c2c([H])c([H])c(N([H])C(=O)N3C([H])([H])C([H])([H])C([H])([H])C([H])(n4nc(-c5c([H])c([H])c(Oc6c([H])c([H])c(F)c([H])c6F)c([H])c5[H])c(C(=O)N([H])[H])c4N([H])[H])C3([H])[H])c(F)c2[H])c1[H]

>  <smiles>  (78) 
[H]Oc1c([H])c(C([H])([H])Oc2c([H])c([H])c3c(c2[H])C([H])([H])N(C(=O)C([H])(N([H])C(=O)C([H])(N([H])C([H])([H])[H])C([H])([H])[H])C(C([H])([H])[H])(C([H])([H])[H])C([H])([H])[H])C([H])(C(=O)N([H])C2([H])c4c([H])c([H])c([H])c([H])c4C([H])([H])C([H])([H])C2([H])[H])C3([H])[H])c(=O)n(-c2c([H])c([H])c(N([H])C(=O)N3C([H])([H])C([H])([H])C([H])([H])C([H])(n4nc(-c5c([H])c([H])c(Oc6c([H])c([H])c(F)c([H])c6F)c([H])c5[H])c(C(=O)N([H])[H])c4N([H])[H])C3([H])[H])c(F)c2[H])c1[H]

$$$$
78:0:0
     RDKit          3D

 92101  0  0  1  0  0  0  0  0999 V2000
  -29.2510  -22.4190   19.4870 C   0  0  0  0  0  3  0  0  0  0  0  0
  -28.3630  -21.5680   21.3070 C   0  0  0  0  0  3  0  0  0  0  0  0
  -30.6560  -17.7510   18.7750 C   0  0  0  0  0  3  0  0  0  0  0  0
  -28.6170  -23.5250   20.0900 C   0  0  0  0  0  0  0  0  0  0  0  0
  -28.0540  -22.9190   21.2620 C   0  0  0  0  0  0  0  0  0  0  0  0
  -30.0550  -17.4130   19.9660 C   0  0  0  0  0  0  0  0  0  0  0  0
  -29.6000  -19.8070   19.8580 C   0  0  0  0  0  0  0  0  0  0  0  0
  -29.4480  -18.6120   20.5470 N   0  0  0  0  0  0  0  0  0  0  0  0
  -29.1070  -21.1860   20.1980 N   0  0  0  0  0  0  0  0  0  0  0  0
  -30.5160  -19.4720   18.3830 S   0  0  0  0  0  0  0  0  0  0  0  0
  -30.6920  -14.8450   20.0270 C   0  0  0  0  0  0  0  0  0  0  0  0
  -30.4060  -12.5890   18.9380 C   0  0  0  0  0  2  0  0  0  0  0  0
  -29.3950  -12.6710   17.7720 C   0  0  0  0  0  2  0  0  0  0  0  0
  -27.9550  -12.4710   18.2790 C   0  0  0  0  0  2  0  0  0  0  0  0
  -27.6540  -13.3270   19.5360 C   0  0  0  0  0  3  0  0  0  0  0  0
  -28.7730  -13.2000   20.5850 C   0  0  0  0  0  2  0  0  0  0  0  0
  -30.0310  -13.6230   19.9410 N   0  0  0  0  0  0  0  0  0  0  0  0
  -31.8250  -14.9150   19.5360 O   0  0  0  0  0  0  0  0  0  0  0  0
  -29.6760  -15.9740   21.9440 C   0  0  0  0  0  1  0  0  0  0  0  0
  -30.0590  -16.0100   20.5300 N   0  0  0  0  0  0  0  0  0  0  0  0
  -25.3270  -13.9140   20.4300 C   0  0  0  0  0  0  0  0  0  0  0  0
  -24.2790  -13.1390   20.8440 C   0  0  0  0  0  0  0  0  0  0  0  0
  -24.7270  -11.7850   20.7520 C   0  0  0  0  0  0  0  0  0  0  0  0
  -26.3440  -13.0330   20.1020 N   0  0  0  0  0  0  0  0  0  0  0  0
  -25.9950  -11.7450   20.3600 N   0  0  0  0  0  0  0  0  0  0  0  0
  -24.0020  -10.5250   20.9590 C   0  0  0  0  0  0  0  0  0  0  0  0
  -24.4670   -9.5440   21.8620 C   0  0  0  0  0  3  0  0  0  0  0  0
  -23.7420   -8.3480   22.0540 C   0  0  0  0  0  3  0  0  0  0  0  0
  -22.5390   -8.1220   21.3430 C   0  0  0  0  0  0  0  0  0  0  0  0
  -22.0950   -9.0900   20.4240 C   0  0  0  0  0  3  0  0  0  0  0  0
  -22.8210  -10.2780   20.2300 C   0  0  0  0  0  3  0  0  0  0  0  0
  -21.7820   -6.9790   21.4460 O   0  0  0  0  0  0  0  0  0  0  0  0
  -21.7480   -6.2440   22.6040 C   0  0  0  0  0  0  0  0  0  0  0  0
  -21.3440   -6.8060   23.8350 C   0  0  0  0  0  3  0  0  0  0  0  0
  -21.2550   -5.9940   24.9830 C   0  0  0  0  0  3  0  0  0  0  0  0
  -21.5570   -4.6220   24.9020 C   0  0  0  0  0  0  0  0  0  0  0  0
  -21.9560   -4.0600   23.6760 C   0  0  0  0  0  3  0  0  0  0  0  0
  -22.0450   -4.8680   22.5290 C   0  0  0  0  0  0  0  0  0  0  0  0
  -22.4080   -4.3180   21.3460 F   0  0  0  0  0  0  0  0  0  0  0  0
  -21.4650   -3.8400   26.0020 F   0  0  0  0  0  0  0  0  0  0  0  0
  -22.9050  -13.6190   21.2110 C   0  0  0  0  0  0  0  0  0  0  0  0
  -22.2290  -12.9070   22.1060 N   0  0  0  0  0  0  0  0  0  0  0  0
  -22.4430  -14.6580   20.7410 O   0  0  0  0  0  0  0  0  0  0  0  0
  -22.6170  -12.0670   22.5110 H   0  0  0  0  0  0  0  0  0  0  0  0
  -21.3110  -13.2090   22.3980 H   0  0  0  0  0  0  0  0  0  0  0  0
  -25.5010  -15.2880   20.2830 N   0  0  0  0  0  0  0  0  0  0  0  0
  -24.7600  -15.9560   20.4620 H   0  0  0  0  0  0  0  0  0  0  0  0
  -26.3550  -15.7190   19.9510 H   0  0  0  0  0  0  0  0  0  0  0  0
  -27.2940  -23.5700   22.1850 O   0  0  0  0  0  0  0  0  0  0  0  0
  -26.9200  -22.9940   22.8460 H   0  0  0  0  0  0  0  0  0  0  0  0
  -28.4610  -25.0310   19.4970 C   0  0  0  0  0  2  0  0  0  0  0  0
  -28.3030  -26.3170   20.2980 O   0  0  0  0  0  0  0  0  0  0  0  0
  -24.6170  -31.8740   23.2310 C   0  0  0  0  0  0  0  0  0  0  0  0
  -27.2070  -27.2210   20.1900 C   0  0  0  0  0  0  0  0  0  0  0  0
  -23.4110  -30.4740   21.5980 C   0  0  0  0  0  3  0  0  0  0  0  0
  -24.8560  -28.9050   20.1700 C   0  0  0  0  0  0  0  0  0  0  0  0
  -25.9580  -30.7580   21.4200 C   0  0  0  0  0  2  0  0  0  0  0  0
  -26.0290  -29.3700   20.7730 C   0  0  0  0  0  0  0  0  0  0  0  0
  -27.2010  -28.5410   20.7740 C   0  0  0  0  0  3  0  0  0  0  0  0
  -26.0020  -26.8310   19.5610 C   0  0  0  0  0  3  0  0  0  0  0  0
  -24.8520  -27.6480   19.5480 C   0  0  0  0  0  3  0  0  0  0  0  0
  -23.6220  -29.7890   20.2200 C   0  0  0  0  0  2  0  0  0  0  0  0
  -24.6820  -31.0560   22.1380 N   0  0  0  0  0  0  0  0  0  0  0  0
  -23.5330  -32.1590   23.7610 O   0  0  0  0  0  0  0  0  0  0  0  0
  -22.7400  -29.4680   22.5630 C   0  0  0  0  0  0  0  0  0  0  0  0
  -21.4140  -29.2880   22.4280 N   0  0  0  0  0  0  0  0  0  0  0  0
  -23.4100  -28.8520   23.3970 O   0  0  0  0  0  0  0  0  0  0  0  0
  -20.9310  -29.8370   21.7300 H   0  0  0  0  0  0  0  0  0  0  0  0
  -18.0380  -28.0600   22.8890 C   0  0  0  0  0  0  0  0  0  0  0  0
  -20.5890  -28.3530   23.1980 C   0  0  0  0  0  3  0  0  0  0  0  0
  -20.7150  -26.9130   22.6460 C   0  0  0  0  0  2  0  0  0  0  0  0
  -19.6330  -26.5650   21.6180 C   0  0  0  0  0  2  0  0  0  0  0  0
  -18.2380  -26.7040   22.2350 C   0  0  0  0  0  2  0  0  0  0  0  0
  -19.1400  -28.8420   23.3260 C   0  0  0  0  0  0  0  0  0  0  0  0
  -18.8960  -30.1120   23.8950 C   0  0  0  0  0  3  0  0  0  0  0  0
  -17.5830  -30.5980   24.0340 C   0  0  0  0  0  3  0  0  0  0  0  0
  -16.4960  -29.8130   23.6130 C   0  0  0  0  0  3  0  0  0  0  0  0
  -16.7240  -28.5460   23.0460 C   0  0  0  0  0  3  0  0  0  0  0  0
  -25.8990  -32.5050   23.8570 C   0  0  0  0  0  3  0  0  0  0  0  0
  -25.5880  -33.9050   24.1880 N   0  0  0  0  0  0  0  0  0  0  0  0
  -25.9170  -34.9600   23.4310 C   0  0  0  0  0  0  0  0  0  0  0  0
  -26.5830  -34.8580   22.3970 O   0  0  0  0  0  0  0  0  0  0  0  0
  -24.9960  -34.0560   24.9900 H   0  0  0  0  0  0  0  0  0  0  0  0
  -24.1830  -36.7550   23.0950 C   0  0  0  0  0  1  0  0  0  0  0  0
  -25.4340  -36.3500   23.8930 C   0  0  0  0  0  3  0  0  0  0  0  0
  -27.5780  -37.2380   24.6980 C   0  0  0  0  0  1  0  0  0  0  0  0
  -26.4650  -37.4030   23.7670 N   0  0  0  0  0  0  0  0  0  0  0  0
  -26.0600  -38.3240   23.9110 H   0  0  0  0  0  0  0  0  0  0  0  0
  -26.4070  -31.7380   25.1380 C   0  0  1  0  0  0  0  0  0  0  0  0
  -25.3110  -31.5130   26.2090 C   0  0  0  0  0  1  0  0  0  0  0  0
  -26.9770  -30.3520   24.7570 C   0  0  0  0  0  1  0  0  0  0  0  0
  -27.5630  -32.5260   25.7970 C   0  0  0  0  0  1  0  0  0  0  0  0
  1  4  2  0
  1  9  1  0
  3  6  2  0
  4  5  1  0
  5  2  2  0
  5 49  1  0
  6 20  1  0
  6  8  1  0
  7  9  1  0
  7  8  2  0
  9  2  1  0
 10  3  1  0
 10  7  1  0
 11 20  1  0
 12 17  1  0
 13 14  1  0
 13 12  1  0
 15 14  1  0
 15 24  1  0
 15 16  1  0
 17 11  1  0
 17 16  1  0
 18 11  2  0
 20 19  1  0
 21 22  2  0
 22 41  1  0
 23 22  1  0
 23 26  1  0
 24 25  1  0
 24 21  1  0
 25 23  2  0
 26 27  1  0
 27 28  2  0
 29 32  1  0
 29 28  1  0
 30 29  2  0
 31 30  1  0
 31 26  2  0
 32 33  1  0
 33 34  1  0
 34 35  2  0
 36 35  1  0
 36 40  1  0
 37 36  2  0
 38 33  2  0
 38 37  1  0
 39 38  1  0
 41 42  1  0
 42 45  1  0
 42 44  1  0
 43 41  2  0
 46 21  1  0
 46 47  1  0
 48 46  1  0
 49 50  1  0
 51  4  1  0
 51 52  1  0
 53 64  2  0
 54 52  1  0
 54 59  1  0
 55 63  1  0
 55 65  1  0
 56 62  1  0
 56 58  1  0
 57 63  1  0
 58 59  2  0
 58 57  1  0
 60 54  2  0
 61 60  1  0
 61 56  2  0
 62 55  1  0
 63 53  1  0
 65 67  2  0
 66 65  1  0
 68 66  1  0
 69 78  2  0
 69 74  1  0
 70 66  1  0
 70 74  1  0
 71 70  1  0
 72 73  1  0
 72 71  1  0
 73 69  1  0
 74 75  2  0
 75 76  1  0
 77 76  2  0
 78 77  1  0
 79 53  1  0
 79 80  1  0
 79 89  1  0
 80 83  1  0
 81 85  1  0
 81 80  1  0
 82 81  2  0
 85 84  1  0
 87 85  1  0
 87 88  1  0
 87 86  1  0
 89 92  1  1
 89 90  1  0
 91 89  1  0
M  ISO  4  11 100  20 100  51 101  52 101
M  END
>  <TORSDO>  (79) 
F 18

>  <SCORE>  (79) 
-14.614

>  <name>  (79) 
78

>  <ligand_id>  (79) 
78

>  <original_smiles>  (79) 
[H]Oc1c(C([H])([H])Oc2c([H])c([H])c3c(c2[H])C([H])([H])N(C(=O)C([H])(N([H])C(=O)C([H])(N([H])C([H])([H])[H])C([H])([H])[H])C(C([H])([H])[H])(C([H])([H])[H])C([H])([H])[H])C([H])(C(=O)N([H])C2([H])c4c([H])c([H])c([H])c([H])c4C([H])([H])C([H])([H])C2([H])[H])C3([H])[H])c([H])n(-c2nc(N(C(=O)N3C([H])([H])C([H])([H])C([H])([H])C([H])(n4nc(-c5c([H])c([H])c(Oc6c([H])c([H])c(F)c([H])c6F)c([H])c5[H])c(C(=O)N([H])[H])c4N([H])[H])C3([H])[H])C([H])([H])[H])c([H])s2)c1[H]

>  <smiles>  (79) 
[H]Oc1c(C([H])([H])Oc2c([H])c([H])c3c(c2[H])C([H])([H])N(C(=O)C([H])(N([H])C(=O)C([H])(N([H])C([H])([H])[H])C([H])([H])[H])C(C([H])([H])[H])(C([H])([H])[H])C([H])([H])[H])C([H])(C(=O)N([H])C2([H])c4c([H])c([H])c([H])c([H])c4C([H])([H])C([H])([H])C2([H])[H])C3([H])[H])c([H])n(-c2nc(N(C(=O)N3C([H])([H])C([H])([H])C([H])([H])C([H])(n4nc(-c5c([H])c([H])c(Oc6c([H])c([H])c(F)c([H])c6F)c([H])c5[H])c(C(=O)N([H])[H])c4N([H])[H])C3([H])[H])C([H])([H])[H])c([H])s2)c1[H]

$$$$
79:0:0
     RDKit          3D

 94102  0  0  1  0  0  0  0  0999 V2000
  -28.8070  -20.5730   20.8190 C   0  0  0  0  0  0  0  0  0  0  0  0
  -28.3520  -22.9750   20.8460 C   0  0  0  0  0  0  0  0  0  0  0  0
  -29.1150  -21.8790   20.5750 N   0  0  0  0  0  0  0  0  0  0  0  0
  -27.6800  -20.1770   21.1400 O   0  0  0  0  0  0  0  0  0  0  0  0
  -27.2830  -22.9070   21.4660 O   0  0  0  0  0  0  0  0  0  0  0  0
  -30.0200  -22.0480   20.1670 H   0  0  0  0  0  0  0  0  0  0  0  0
  -29.5710  -18.1280   20.6010 C   0  0  0  0  0  3  0  0  0  0  0  0
  -31.2590  -19.8850   20.7210 C   0  0  0  0  0  3  0  0  0  0  0  0
  -31.9240  -17.5320   20.6370 C   0  0  0  0  0  3  0  0  0  0  0  0
  -29.8940  -19.5200   20.6710 C   0  0  0  0  0  0  0  0  0  0  0  0
  -30.5720  -17.1130   20.5740 C   0  0  0  0  0  0  0  0  0  0  0  0
  -32.2600  -18.8980   20.7020 C   0  0  0  0  0  0  0  0  0  0  0  0
  -33.5620  -19.2670   20.7660 F   0  0  0  0  0  0  0  0  0  0  0  0
  -30.8900  -14.6500   20.0520 C   0  0  0  0  0  0  0  0  0  0  0  0
  -30.5510  -12.4630   18.9530 C   0  0  0  0  0  2  0  0  0  0  0  0
  -29.5490  -12.6330   17.7930 C   0  0  0  0  0  2  0  0  0  0  0  0
  -28.1020  -12.4760   18.3010 C   0  0  0  0  0  2  0  0  0  0  0  0
  -27.8160  -13.3240   19.5690 C   0  0  0  0  0  3  0  0  0  0  0  0
  -28.9330  -13.1520   20.6250 C   0  0  0  0  0  2  0  0  0  0  0  0
  -30.2150  -13.4670   19.9790 N   0  0  0  0  0  0  0  0  0  0  0  0
  -32.0070  -14.7850   19.5480 O   0  0  0  0  0  0  0  0  0  0  0  0
  -30.1940  -15.7140   20.5370 N   0  0  0  0  0  0  0  0  0  0  0  0
  -29.2480  -15.5010   20.8140 H   0  0  0  0  0  0  0  0  0  0  0  0
  -25.4710  -13.9060   20.4470 C   0  0  0  0  0  0  0  0  0  0  0  0
  -24.4230  -13.1240   20.8520 C   0  0  0  0  0  0  0  0  0  0  0  0
  -24.8750  -11.7730   20.7440 C   0  0  0  0  0  0  0  0  0  0  0  0
  -26.4950  -13.0320   20.1210 N   0  0  0  0  0  0  0  0  0  0  0  0
  -26.1450  -11.7420   20.3590 N   0  0  0  0  0  0  0  0  0  0  0  0
  -24.1560  -10.5060   20.9310 C   0  0  0  0  0  0  0  0  0  0  0  0
  -24.5730   -9.5530   21.8860 C   0  0  0  0  0  3  0  0  0  0  0  0
  -23.8540   -8.3510   22.0600 C   0  0  0  0  0  3  0  0  0  0  0  0
  -22.7020   -8.0940   21.2790 C   0  0  0  0  0  0  0  0  0  0  0  0
  -22.3050   -9.0360   20.3150 C   0  0  0  0  0  3  0  0  0  0  0  0
  -23.0240  -10.2290   20.1390 C   0  0  0  0  0  3  0  0  0  0  0  0
  -21.9570   -6.9440   21.3620 O   0  0  0  0  0  0  0  0  0  0  0  0
  -21.8010   -6.2690   22.5460 C   0  0  0  0  0  0  0  0  0  0  0  0
  -21.1840   -6.8650   23.6670 C   0  0  0  0  0  3  0  0  0  0  0  0
  -20.9830   -6.1130   24.8420 C   0  0  0  0  0  3  0  0  0  0  0  0
  -21.3870   -4.7670   24.8950 C   0  0  0  0  0  0  0  0  0  0  0  0
  -21.9980   -4.1700   23.7780 C   0  0  0  0  0  3  0  0  0  0  0  0
  -22.2010   -4.9180   22.6060 C   0  0  0  0  0  0  0  0  0  0  0  0
  -22.7700   -4.3330   21.5250 F   0  0  0  0  0  0  0  0  0  0  0  0
  -21.1870   -4.0420   26.0210 F   0  0  0  0  0  0  0  0  0  0  0  0
  -23.0460  -13.5940   21.2230 C   0  0  0  0  0  0  0  0  0  0  0  0
  -22.3640  -12.8640   22.0990 N   0  0  0  0  0  0  0  0  0  0  0  0
  -22.5870  -14.6430   20.7740 O   0  0  0  0  0  0  0  0  0  0  0  0
  -22.7510  -12.0140   22.4820 H   0  0  0  0  0  0  0  0  0  0  0  0
  -21.4430  -13.1590   22.3900 H   0  0  0  0  0  0  0  0  0  0  0  0
  -25.6300  -15.2820   20.3070 N   0  0  0  0  0  0  0  0  0  0  0  0
  -24.8720  -15.9330   20.4810 H   0  0  0  0  0  0  0  0  0  0  0  0
  -26.4510  -15.7280   19.9190 H   0  0  0  0  0  0  0  0  0  0  0  0
  -28.8770  -24.2610   20.3480 C   0  0  0  0  0  3  0  0  0  0  0  0
  -28.2180  -25.4090   20.6660 C   0  0  0  0  0  3  0  0  0  0  0  0
  -28.4970  -26.7020   20.2300 O   0  0  0  0  0  0  0  0  0  0  0  0
  -24.6800  -31.9260   23.2850 C   0  0  0  0  0  0  0  0  0  0  0  0
  -27.3890  -27.5320   20.1650 C   0  0  0  0  0  0  0  0  0  0  0  0
  -23.5090  -30.5450   21.6020 C   0  0  0  0  0  3  0  0  0  0  0  0
  -24.9950  -29.0520   20.1600 C   0  0  0  0  0  0  0  0  0  0  0  0
  -26.0390  -30.9200   21.4480 C   0  0  0  0  0  2  0  0  0  0  0  0
  -26.1450  -29.5620   20.7780 C   0  0  0  0  0  0  0  0  0  0  0  0
  -27.3490  -28.8110   20.7780 C   0  0  0  0  0  3  0  0  0  0  0  0
  -26.2250  -27.0590   19.5190 C   0  0  0  0  0  3  0  0  0  0  0  0
  -25.0310  -27.8010   19.5250 C   0  0  0  0  0  3  0  0  0  0  0  0
  -23.7430  -29.8990   20.2120 C   0  0  0  0  0  2  0  0  0  0  0  0
  -24.7600  -31.1450   22.1700 N   0  0  0  0  0  0  0  0  0  0  0  0
  -23.5890  -32.1800   23.8140 O   0  0  0  0  0  0  0  0  0  0  0  0
  -22.8520  -29.5000   22.5340 C   0  0  0  0  0  0  0  0  0  0  0  0
  -21.5310  -29.3080   22.3840 N   0  0  0  0  0  0  0  0  0  0  0  0
  -23.5280  -28.8670   23.3490 O   0  0  0  0  0  0  0  0  0  0  0  0
  -21.0460  -29.8720   21.7010 H   0  0  0  0  0  0  0  0  0  0  0  0
  -18.1520  -28.1060   22.8460 C   0  0  0  0  0  0  0  0  0  0  0  0
  -20.7120  -28.3480   23.1250 C   0  0  0  0  0  3  0  0  0  0  0  0
  -20.8090  -26.9350   22.5050 C   0  0  0  0  0  2  0  0  0  0  0  0
  -19.7060  -26.6480   21.4820 C   0  0  0  0  0  2  0  0  0  0  0  0
  -18.3250  -26.7780   22.1300 C   0  0  0  0  0  2  0  0  0  0  0  0
  -19.2730  -28.8520   23.2990 C   0  0  0  0  0  0  0  0  0  0  0  0
  -19.0590  -30.0970   23.9280 C   0  0  0  0  0  3  0  0  0  0  0  0
  -17.7570  -30.5970   24.1110 C   0  0  0  0  0  3  0  0  0  0  0  0
  -16.6500  -29.8480   23.6740 C   0  0  0  0  0  3  0  0  0  0  0  0
  -16.8480  -28.6050   23.0480 C   0  0  0  0  0  3  0  0  0  0  0  0
  -25.9520  -32.5560   23.9320 C   0  0  0  0  0  3  0  0  0  0  0  0
  -25.6450  -33.9620   24.2310 N   0  0  0  0  0  0  0  0  0  0  0  0
  -25.9970  -34.9980   23.4580 C   0  0  0  0  0  0  0  0  0  0  0  0
  -26.6850  -34.8710   22.4410 O   0  0  0  0  0  0  0  0  0  0  0  0
  -25.0360  -34.1350   25.0170 H   0  0  0  0  0  0  0  0  0  0  0  0
  -24.2880  -36.7940   23.0340 C   0  0  0  0  0  1  0  0  0  0  0  0
  -25.5080  -36.3970   23.8800 C   0  0  0  0  0  3  0  0  0  0  0  0
  -27.6230  -37.2900   24.7510 C   0  0  0  0  0  1  0  0  0  0  0  0
  -26.5500  -37.4410   23.7710 N   0  0  0  0  0  0  0  0  0  0  0  0
  -26.1450  -38.3670   23.8840 H   0  0  0  0  0  0  0  0  0  0  0  0
  -26.4260  -31.8010   25.2330 C   0  0  1  0  0  0  0  0  0  0  0  0
  -25.2990  -31.5730   26.2670 C   0  0  0  0  0  1  0  0  0  0  0  0
  -27.0240  -30.4200   24.8770 C   0  0  0  0  0  1  0  0  0  0  0  0
  -27.5520  -32.6050   25.9240 C   0  0  0  0  0  1  0  0  0  0  0  0
  1  4  2  0
  2  5  2  0
  3  1  1  0
  3  2  1  0
  6  3  1  0
  7 10  1  0
  9 12  2  0
 10  8  2  0
 10  1  1  0
 11  7  2  0
 11  9  1  0
 12  8  1  0
 12 13  1  0
 14 22  1  0
 15 20  1  0
 16 17  1  0
 16 15  1  0
 18 17  1  0
 18 27  1  0
 18 19  1  0
 20 14  1  0
 20 19  1  0
 21 14  2  0
 22 11  1  0
 22 23  1  0
 24 25  2  0
 25 44  1  0
 26 25  1  0
 26 29  1  0
 27 28  1  0
 27 24  1  0
 28 26  2  0
 29 30  1  0
 30 31  2  0
 32 35  1  0
 32 31  1  0
 33 32  2  0
 34 33  1  0
 34 29  2  0
 35 36  1  0
 36 41  2  0
 36 37  1  0
 37 38  2  0
 38 39  1  0
 39 43  1  0
 40 39  2  0
 41 40  1  0
 42 41  1  0
 44 45  1  0
 45 48  1  0
 45 47  1  0
 46 44  2  0
 49 24  1  0
 49 50  1  0
 51 49  1  0
 52 53  2  0
 52  2  1  0
 54 53  1  0
 55 66  2  0
 56 54  1  0
 56 61  1  0
 57 65  1  0
 57 67  1  0
 58 64  1  0
 58 60  1  0
 59 65  1  0
 60 59  1  0
 61 60  2  0
 62 63  1  0
 62 56  2  0
 63 58  2  0
 64 57  1  0
 65 55  1  0
 67 69  2  0
 68 67  1  0
 70 68  1  0
 71 80  2  0
 71 76  1  0
 72 68  1  0
 72 76  1  0
 73 72  1  0
 74 75  1  0
 74 73  1  0
 75 71  1  0
 76 77  2  0
 77 78  1  0
 79 78  2  0
 80 79  1  0
 81 55  1  0
 81 82  1  0
 81 91  1  0
 82 85  1  0
 83 87  1  0
 83 82  1  0
 84 83  2  0
 87 86  1  0
 89 87  1  0
 89 90  1  0
 89 88  1  0
 91 94  1  1
 91 92  1  0
 93 91  1  0
M  ISO  4  14 100  22 100  53 101  54 101
M  END
>  <TORSDO>  (80) 
F 18

>  <SCORE>  (80) 
-14.289

>  <name>  (80) 
79

>  <ligand_id>  (80) 
79

>  <original_smiles>  (80) 
[H]C(Oc1c([H])c([H])c2c(c1[H])C([H])([H])N(C(=O)C([H])(N([H])C(=O)C([H])(N([H])C([H])([H])[H])C([H])([H])[H])C(C([H])([H])[H])(C([H])([H])[H])C([H])([H])[H])C([H])(C(=O)N([H])C1([H])c3c([H])c([H])c([H])c([H])c3C([H])([H])C([H])([H])C1([H])[H])C2([H])[H])=C([H])C(=O)N([H])C(=O)c1c([H])c(F)c([H])c(N([H])C(=O)N2C([H])([H])C([H])([H])C([H])([H])C([H])(n3nc(-c4c([H])c([H])c(Oc5c([H])c([H])c(F)c([H])c5F)c([H])c4[H])c(C(=O)N([H])[H])c3N([H])[H])C2([H])[H])c1[H]

>  <smiles>  (80) 
[H]C(Oc1c([H])c([H])c2c(c1[H])C([H])([H])N(C(=O)C([H])(N([H])C(=O)C([H])(N([H])C([H])([H])[H])C([H])([H])[H])C(C([H])([H])[H])(C([H])([H])[H])C([H])([H])[H])C([H])(C(=O)N([H])C1([H])c3c([H])c([H])c([H])c([H])c3C([H])([H])C([H])([H])C1([H])[H])C2([H])[H])=C([H])C(=O)N([H])C(=O)c1c([H])c(F)c([H])c(N([H])C(=O)N2C([H])([H])C([H])([H])C([H])([H])C([H])(n3nc(-c4c([H])c([H])c(Oc5c([H])c([H])c(F)c([H])c5F)c([H])c4[H])c(C(=O)N([H])[H])c3N([H])[H])C2([H])[H])c1[H]

$$$$
81:0:0
     RDKit          3D

 93101  0  0  1  0  0  0  0  0999 V2000
  -29.7630  -23.0160   20.4710 C   0  0  0  0  0  0  0  0  0  0  0  0
  -29.4490  -21.6800   20.5640 N   0  0  0  0  0  0  0  0  0  0  0  0
  -30.9200  -23.4180   20.3100 O   0  0  0  0  0  0  0  0  0  0  0  0
  -28.4760  -21.5120   20.7890 H   0  0  0  0  0  0  0  0  0  0  0  0
  -32.1070  -19.2510   19.3270 C   0  0  0  0  0  3  0  0  0  0  0  0
  -31.7410  -18.0490   19.9680 C   0  0  0  0  0  3  0  0  0  0  0  0
  -31.3740  -20.4420   19.5210 C   0  0  0  0  0  3  0  0  0  0  0  0
  -29.8760  -19.2230   20.9840 C   0  0  0  0  0  3  0  0  0  0  0  0
  -30.5960  -17.9910   20.7830 C   0  0  0  0  0  0  0  0  0  0  0  0
  -30.2470  -20.4700   20.3770 C   0  0  0  0  0  0  0  0  0  0  0  0
  -30.7880  -14.6130   20.2000 C   0  0  0  0  0  0  0  0  0  0  0  0
  -30.4650  -12.4740   18.9310 C   0  0  0  0  0  2  0  0  0  0  0  0
  -29.4550  -12.7290   17.7920 C   0  0  0  0  0  2  0  0  0  0  0  0
  -28.0070  -12.5560   18.2920 C   0  0  0  0  0  2  0  0  0  0  0  0
  -27.7490  -13.3200   19.6160 C   0  0  0  0  0  3  0  0  0  0  0  0
  -28.8620  -13.0500   20.6520 C   0  0  0  0  0  2  0  0  0  0  0  0
  -30.1570  -13.4060   20.0380 N   0  0  0  0  0  0  0  0  0  0  0  0
  -31.8130  -14.8780   19.5620 O   0  0  0  0  0  0  0  0  0  0  0  0
  -30.1840  -16.7200   21.5420 C   0  0  0  0  0  0  0  0  0  0  0  0
  -30.1770  -15.4250   21.1060 N   0  0  0  0  0  0  0  0  0  0  0  0
  -29.6670  -16.9030   22.6450 O   0  0  0  0  0  0  0  0  0  0  0  0
  -29.5520  -14.8910   21.6920 H   0  0  0  0  0  0  0  0  0  0  0  0
  -25.4080  -13.9090   20.5060 C   0  0  0  0  0  0  0  0  0  0  0  0
  -24.3640  -13.1250   20.9160 C   0  0  0  0  0  0  0  0  0  0  0  0
  -24.8140  -11.7750   20.8030 C   0  0  0  0  0  0  0  0  0  0  0  0
  -26.4270  -13.0340   20.1670 N   0  0  0  0  0  0  0  0  0  0  0  0
  -26.0800  -11.7420   20.4040 N   0  0  0  0  0  0  0  0  0  0  0  0
  -24.0930  -10.5080   20.9900 C   0  0  0  0  0  0  0  0  0  0  0  0
  -24.5520   -9.5260   21.8950 C   0  0  0  0  0  3  0  0  0  0  0  0
  -23.8300   -8.3260   22.0690 C   0  0  0  0  0  3  0  0  0  0  0  0
  -22.6390   -8.0990   21.3400 C   0  0  0  0  0  0  0  0  0  0  0  0
  -22.2000   -9.0700   20.4230 C   0  0  0  0  0  3  0  0  0  0  0  0
  -22.9210  -10.2640   20.2470 C   0  0  0  0  0  3  0  0  0  0  0  0
  -21.8890   -6.9530   21.4260 O   0  0  0  0  0  0  0  0  0  0  0  0
  -21.8230   -6.2190   22.5830 C   0  0  0  0  0  0  0  0  0  0  0  0
  -21.3840   -6.7810   23.8000 C   0  0  0  0  0  3  0  0  0  0  0  0
  -21.2680   -5.9730   24.9480 C   0  0  0  0  0  3  0  0  0  0  0  0
  -21.5810   -4.6020   24.8820 C   0  0  0  0  0  0  0  0  0  0  0  0
  -22.0110   -4.0370   23.6700 C   0  0  0  0  0  3  0  0  0  0  0  0
  -22.1280   -4.8420   22.5230 C   0  0  0  0  0  0  0  0  0  0  0  0
  -22.5260   -4.2890   21.3500 F   0  0  0  0  0  0  0  0  0  0  0  0
  -21.4610   -3.8230   25.9830 F   0  0  0  0  0  0  0  0  0  0  0  0
  -22.9920  -13.5980   21.2980 C   0  0  0  0  0  0  0  0  0  0  0  0
  -22.3250  -12.8880   22.2000 N   0  0  0  0  0  0  0  0  0  0  0  0
  -22.5190  -14.6320   20.8240 O   0  0  0  0  0  0  0  0  0  0  0  0
  -22.7180  -12.0600   22.6200 H   0  0  0  0  0  0  0  0  0  0  0  0
  -21.4010  -13.1810   22.4790 H   0  0  0  0  0  0  0  0  0  0  0  0
  -25.5630  -15.2860   20.3840 N   0  0  0  0  0  0  0  0  0  0  0  0
  -24.8020  -15.9220   20.5880 H   0  0  0  0  0  0  0  0  0  0  0  0
  -26.4000  -15.7610   20.0640 H   0  0  0  0  0  0  0  0  0  0  0  0
  -28.5790  -24.0550   20.5760 C   0  0  0  0  0  2  0  0  0  0  0  0
  -28.7660  -25.5610   21.0500 C   0  0  0  0  0  2  0  0  0  0  0  0
  -28.5040  -26.6280   20.0850 O   0  0  0  0  0  0  0  0  0  0  0  0
  -24.7220  -31.9080   23.2390 C   0  0  0  0  0  0  0  0  0  0  0  0
  -27.3360  -27.3820   20.1850 C   0  0  0  0  0  0  0  0  0  0  0  0
  -23.5030  -30.5190   21.5920 C   0  0  0  0  0  3  0  0  0  0  0  0
  -24.9500  -28.9390   20.1890 C   0  0  0  0  0  0  0  0  0  0  0  0
  -26.0370  -30.8330   21.4020 C   0  0  0  0  0  2  0  0  0  0  0  0
  -26.1150  -29.4470   20.7800 C   0  0  0  0  0  0  0  0  0  0  0  0
  -27.3080  -28.6770   20.7730 C   0  0  0  0  0  3  0  0  0  0  0  0
  -26.1520  -26.8980   19.5910 C   0  0  0  0  0  3  0  0  0  0  0  0
  -24.9670  -27.6650   19.5940 C   0  0  0  0  0  3  0  0  0  0  0  0
  -23.7180  -29.8220   20.2190 C   0  0  0  0  0  2  0  0  0  0  0  0
  -24.7720  -31.1030   22.1360 N   0  0  0  0  0  0  0  0  0  0  0  0
  -23.6440  -32.1930   23.7800 O   0  0  0  0  0  0  0  0  0  0  0  0
  -22.8290  -29.5160   22.5590 C   0  0  0  0  0  0  0  0  0  0  0  0
  -21.4990  -29.3660   22.4460 N   0  0  0  0  0  0  0  0  0  0  0  0
  -23.5030  -28.8700   23.3660 O   0  0  0  0  0  0  0  0  0  0  0  0
  -21.0090  -29.9440   21.7750 H   0  0  0  0  0  0  0  0  0  0  0  0
  -18.1070  -28.2280   22.9660 C   0  0  0  0  0  0  0  0  0  0  0  0
  -20.6700  -28.4400   23.2200 C   0  0  0  0  0  3  0  0  0  0  0  0
  -20.7430  -27.0070   22.6420 C   0  0  0  0  0  2  0  0  0  0  0  0
  -19.6310  -26.7080   21.6320 C   0  0  0  0  0  2  0  0  0  0  0  0
  -18.2560  -26.8780   22.2870 C   0  0  0  0  0  2  0  0  0  0  0  0
  -19.2420  -28.9690   23.3920 C   0  0  0  0  0  0  0  0  0  0  0  0
  -19.0530  -30.2320   23.9920 C   0  0  0  0  0  3  0  0  0  0  0  0
  -17.7600  -30.7600   24.1670 C   0  0  0  0  0  3  0  0  0  0  0  0
  -16.6380  -30.0170   23.7580 C   0  0  0  0  0  3  0  0  0  0  0  0
  -16.8120  -28.7530   23.1640 C   0  0  0  0  0  3  0  0  0  0  0  0
  -26.0140  -32.5290   23.8570 C   0  0  0  0  0  3  0  0  0  0  0  0
  -26.5260  -31.7560   25.1350 C   0  0  1  0  0  0  0  0  0  0  0  0
  -25.4320  -31.5380   26.2060 C   0  0  0  0  0  1  0  0  0  0  0  0
  -27.0850  -30.3690   24.7390 C   0  0  0  0  0  1  0  0  0  0  0  0
  -27.6850  -32.5360   25.7960 C   0  0  0  0  0  1  0  0  0  0  0  0
  -25.7230  -33.9320   24.1850 N   0  0  0  0  0  0  0  0  0  0  0  0
  -26.0800  -34.9790   23.4320 C   0  0  0  0  0  0  0  0  0  0  0  0
  -26.7540  -34.8660   22.4040 O   0  0  0  0  0  0  0  0  0  0  0  0
  -25.1180  -34.0940   24.9780 H   0  0  0  0  0  0  0  0  0  0  0  0
  -24.3890  -36.8080   23.0650 C   0  0  0  0  0  1  0  0  0  0  0  0
  -25.6130  -36.3750   23.8880 C   0  0  0  0  0  3  0  0  0  0  0  0
  -27.7540  -37.2200   24.7450 C   0  0  0  0  0  1  0  0  0  0  0  0
  -26.6650  -37.4100   23.7930 N   0  0  0  0  0  0  0  0  0  0  0  0
  -26.2730  -38.3350   23.9460 H   0  0  0  0  0  0  0  0  0  0  0  0
  1  2  1  0
  1 51  1  0
  2  4  1  0
  3  1  2  0
  5  7  2  0
  5  6  1  0
  6  9  2  0
  7 10  1  0
  9  8  1  0
  9 19  1  0
 10  2  1  0
 10  8  2  0
 11 20  1  0
 12 17  1  0
 13 14  1  0
 13 12  1  0
 15 14  1  0
 15 26  1  0
 15 16  1  0
 17 11  1  0
 17 16  1  0
 18 11  2  0
 19 21  2  0
 20 19  1  0
 20 22  1  0
 23 24  2  0
 24 43  1  0
 25 24  1  0
 25 28  1  0
 26 27  1  0
 26 23  1  0
 27 25  2  0
 28 29  1  0
 29 30  2  0
 31 34  1  0
 31 30  1  0
 32 31  2  0
 33 32  1  0
 33 28  2  0
 34 35  1  0
 35 36  1  0
 36 37  2  0
 38 37  1  0
 38 42  1  0
 39 38  2  0
 40 35  2  0
 40 39  1  0
 41 40  1  0
 43 44  1  0
 44 47  1  0
 44 46  1  0
 45 43  2  0
 48 23  1  0
 48 49  1  0
 50 48  1  0
 51 52  1  0
 53 55  1  0
 53 52  1  0
 54 65  2  0
 55 60  1  0
 56 64  1  0
 56 66  1  0
 57 63  1  0
 57 59  1  0
 58 64  1  0
 59 58  1  0
 60 59  2  0
 61 62  1  0
 61 55  2  0
 62 57  2  0
 63 56  1  0
 64 54  1  0
 66 68  2  0
 67 66  1  0
 69 67  1  0
 70 79  2  0
 70 75  1  0
 71 67  1  0
 71 75  1  0
 72 71  1  0
 73 74  1  0
 73 72  1  0
 74 70  1  0
 75 76  2  0
 76 77  1  0
 78 77  2  0
 79 78  1  0
 80 54  1  0
 80 85  1  0
 80 81  1  0
 81 84  1  1
 81 82  1  0
 83 81  1  0
 85 88  1  0
 86 90  1  0
 86 85  1  0
 87 86  2  0
 90 89  1  0
 92 90  1  0
 92 93  1  0
 92 91  1  0
M  ISO  4  11 100  20 100  52 101  53 101
M  END
>  <TORSDO>  (81) 
F 19

>  <SCORE>  (81) 
-13.711

>  <name>  (81) 
81

>  <ligand_id>  (81) 
81

>  <original_smiles>  (81) 
[H]c1c([H])c(C(=O)N([H])C(=O)N2C([H])([H])C([H])([H])C([H])([H])C([H])(n3nc(-c4c([H])c([H])c(Oc5c([H])c([H])c(F)c([H])c5F)c([H])c4[H])c(C(=O)N([H])[H])c3N([H])[H])C2([H])[H])c([H])c(N([H])C(=O)C([H])([H])C([H])([H])Oc2c([H])c([H])c3c(c2[H])C([H])([H])N(C(=O)C([H])(N([H])C(=O)C([H])(N([H])C([H])([H])[H])C([H])([H])[H])C(C([H])([H])[H])(C([H])([H])[H])C([H])([H])[H])C([H])(C(=O)N([H])C2([H])c4c([H])c([H])c([H])c([H])c4C([H])([H])C([H])([H])C2([H])[H])C3([H])[H])c1[H]

>  <smiles>  (81) 
[H]c1c([H])c(C(=O)N([H])C(=O)N2C([H])([H])C([H])([H])C([H])([H])C([H])(n3nc(-c4c([H])c([H])c(Oc5c([H])c([H])c(F)c([H])c5F)c([H])c4[H])c(C(=O)N([H])[H])c3N([H])[H])C2([H])[H])c([H])c(N([H])C(=O)C([H])([H])C([H])([H])Oc2c([H])c([H])c3c(c2[H])C([H])([H])N(C(=O)C([H])(N([H])C(=O)C([H])(N([H])C([H])([H])[H])C([H])([H])[H])C(C([H])([H])[H])(C([H])([H])[H])C([H])([H])[H])C([H])(C(=O)N([H])C2([H])c4c([H])c([H])c([H])c([H])c4C([H])([H])C([H])([H])C2([H])[H])C3([H])[H])c1[H]

$$$$
82:0:0
     RDKit          3D

 97106  0  0  1  0  0  0  0  0999 V2000
  -28.3120  -22.9170   19.0940 C   0  0  0  0  0  3  0  0  0  0  0  0
  -28.8360  -23.5600   20.1420 C   0  0  0  0  0  0  0  0  0  0  0  0
  -28.6950  -21.5020   19.1010 C   0  0  0  0  0  0  0  0  0  0  0  0
  -29.6530  -22.5040   20.8060 C   0  0  0  0  0  0  0  0  0  0  0  0
  -29.4970  -21.2740   20.1700 N   0  0  0  0  0  0  0  0  0  0  0  0
  -28.2940  -20.6510   18.3000 O   0  0  0  0  0  0  0  0  0  0  0  0
  -30.4040  -22.7000   21.7670 O   0  0  0  0  0  0  0  0  0  0  0  0
  -30.2590  -19.7640   22.0310 C   0  0  0  0  0  3  0  0  0  0  0  0
  -30.9130  -17.4040   21.8370 C   0  0  0  0  0  3  0  0  0  0  0  0
  -29.9910  -19.9060   20.6430 C   0  0  0  0  0  0  0  0  0  0  0  0
  -30.7120  -18.5600   22.6140 C   0  0  0  0  0  0  0  0  0  0  0  0
  -30.6350  -17.3920   20.4570 C   0  0  0  0  0  0  0  0  0  0  0  0
  -30.1720  -18.6610   19.8730 C   0  0  0  0  0  0  0  0  0  0  0  0
  -29.8930  -18.6570   18.5490 F   0  0  0  0  0  0  0  0  0  0  0  0
  -31.3930  -14.9030   19.9350 C   0  0  0  0  0  0  0  0  0  0  0  0
  -31.1050  -12.6010   18.9780 C   0  0  0  0  0  2  0  0  0  0  0  0
  -30.1260  -12.6420   17.7850 C   0  0  0  0  0  2  0  0  0  0  0  0
  -28.6540  -12.5930   18.2560 C   0  0  0  0  0  2  0  0  0  0  0  0
  -28.3640  -13.5450   19.4480 C   0  0  0  0  0  3  0  0  0  0  0  0
  -29.4440  -13.4120   20.5400 C   0  0  0  0  0  2  0  0  0  0  0  0
  -30.7260  -13.7020   19.8880 N   0  0  0  0  0  0  0  0  0  0  0  0
  -32.6090  -14.9370   19.7200 O   0  0  0  0  0  0  0  0  0  0  0  0
  -30.6080  -16.0460   19.8170 N   0  0  0  0  0  0  0  0  0  0  0  0
  -29.6800  -15.7970   19.5150 H   0  0  0  0  0  0  0  0  0  0  0  0
  -26.0620  -14.3330   20.2650 C   0  0  0  0  0  0  0  0  0  0  0  0
  -24.9440  -13.6470   20.6530 C   0  0  0  0  0  0  0  0  0  0  0  0
  -25.2860  -12.2630   20.5830 C   0  0  0  0  0  0  0  0  0  0  0  0
  -27.0180  -13.3680   19.9800 N   0  0  0  0  0  0  0  0  0  0  0  0
  -26.5580  -12.1170   20.2370 N   0  0  0  0  0  0  0  0  0  0  0  0
  -24.4560  -11.0660   20.7720 C   0  0  0  0  0  0  0  0  0  0  0  0
  -24.8190  -10.0510   21.6850 C   0  0  0  0  0  3  0  0  0  0  0  0
  -23.9950   -8.9190   21.8610 C   0  0  0  0  0  3  0  0  0  0  0  0
  -22.7920   -8.7950   21.1250 C   0  0  0  0  0  0  0  0  0  0  0  0
  -22.4460   -9.7980   20.2000 C   0  0  0  0  0  3  0  0  0  0  0  0
  -23.2710  -10.9210   20.0210 C   0  0  0  0  0  3  0  0  0  0  0  0
  -21.9420   -7.7200   21.2140 O   0  0  0  0  0  0  0  0  0  0  0  0
  -21.8120   -6.9980   22.3740 C   0  0  0  0  0  0  0  0  0  0  0  0
  -21.4410   -7.6080   23.5940 C   0  0  0  0  0  3  0  0  0  0  0  0
  -21.2520   -6.8200   24.7450 C   0  0  0  0  0  3  0  0  0  0  0  0
  -21.4210   -5.4230   24.6800 C   0  0  0  0  0  0  0  0  0  0  0  0
  -21.7860   -4.8130   23.4650 C   0  0  0  0  0  3  0  0  0  0  0  0
  -21.9760   -5.5990   22.3150 C   0  0  0  0  0  0  0  0  0  0  0  0
  -22.3050   -5.0050   21.1430 F   0  0  0  0  0  0  0  0  0  0  0  0
  -21.2310   -4.6650   25.7840 F   0  0  0  0  0  0  0  0  0  0  0  0
  -23.6030  -14.2390   20.9700 C   0  0  0  0  0  0  0  0  0  0  0  0
  -22.8500  -13.6130   21.8680 N   0  0  0  0  0  0  0  0  0  0  0  0
  -23.2310  -15.2940   20.4560 O   0  0  0  0  0  0  0  0  0  0  0  0
  -23.1590  -12.7580   22.3060 H   0  0  0  0  0  0  0  0  0  0  0  0
  -21.9460  -13.9910   22.1170 H   0  0  0  0  0  0  0  0  0  0  0  0
  -26.3330  -15.6880   20.1080 N   0  0  0  0  0  0  0  0  0  0  0  0
  -25.6140  -16.3880   20.2580 H   0  0  0  0  0  0  0  0  0  0  0  0
  -27.2030  -16.0860   19.7780 H   0  0  0  0  0  0  0  0  0  0  0  0
  -30.9270  -18.5010   23.9930 N   0  0  0  0  0  0  0  0  0  0  0  0
  -30.6110  -19.2670   24.5800 H   0  0  0  0  0  0  0  0  0  0  0  0
  -30.8750  -17.6030   24.4670 H   0  0  0  0  0  0  0  0  0  0  0  0
  -28.4280  -24.9950   20.7660 C   0  0  0  0  0  2  0  0  0  0  0  0
  -28.5930  -26.3460   20.1000 O   0  0  0  0  0  0  0  0  0  0  0  0
  -24.6010  -31.6820   23.1260 C   0  0  0  0  0  0  0  0  0  0  0  0
  -27.4780  -27.2250   20.0880 C   0  0  0  0  0  0  0  0  0  0  0  0
  -23.5040  -30.2620   21.4330 C   0  0  0  0  0  3  0  0  0  0  0  0
  -25.0570  -28.7840   20.0320 C   0  0  0  0  0  0  0  0  0  0  0  0
  -26.0400  -30.6710   21.3340 C   0  0  0  0  0  2  0  0  0  0  0  0
  -26.1970  -29.3030   20.6620 C   0  0  0  0  0  0  0  0  0  0  0  0
  -27.4140  -28.5410   20.6720 C   0  0  0  0  0  3  0  0  0  0  0  0
  -26.3130  -26.7750   19.4340 C   0  0  0  0  0  3  0  0  0  0  0  0
  -25.1210  -27.5270   19.4100 C   0  0  0  0  0  3  0  0  0  0  0  0
  -23.7870  -29.6120   20.0540 C   0  0  0  0  0  2  0  0  0  0  0  0
  -24.7310  -30.8930   22.0190 N   0  0  0  0  0  0  0  0  0  0  0  0
  -23.4920  -31.9060   23.6360 O   0  0  0  0  0  0  0  0  0  0  0  0
  -22.8550  -29.2060   22.3630 C   0  0  0  0  0  0  0  0  0  0  0  0
  -21.5330  -29.0050   22.2280 N   0  0  0  0  0  0  0  0  0  0  0  0
  -23.5450  -28.5700   23.1630 O   0  0  0  0  0  0  0  0  0  0  0  0
  -21.0330  -29.5720   21.5580 H   0  0  0  0  0  0  0  0  0  0  0  0
  -18.1820  -27.7240   22.6910 C   0  0  0  0  0  0  0  0  0  0  0  0
  -20.7340  -28.0290   22.9720 C   0  0  0  0  0  3  0  0  0  0  0  0
  -20.8620  -26.6180   22.3570 C   0  0  0  0  0  2  0  0  0  0  0  0
  -19.7720  -26.3180   21.3230 C   0  0  0  0  0  2  0  0  0  0  0  0
  -18.3880  -26.4010   21.9720 C   0  0  0  0  0  2  0  0  0  0  0  0
  -19.2840  -28.4960   23.1460 C   0  0  0  0  0  0  0  0  0  0  0  0
  -19.0380  -29.7370   23.7760 C   0  0  0  0  0  3  0  0  0  0  0  0
  -17.7220  -30.2070   23.9490 C   0  0  0  0  0  3  0  0  0  0  0  0
  -16.6350  -29.4310   23.5100 C   0  0  0  0  0  3  0  0  0  0  0  0
  -16.8650  -28.1910   22.8870 C   0  0  0  0  0  3  0  0  0  0  0  0
  -25.8350  -32.3620   23.7930 C   0  0  0  0  0  3  0  0  0  0  0  0
  -26.3400  -31.6060   25.0840 C   0  0  1  0  0  0  0  0  0  0  0  0
  -25.2270  -31.3240   26.1220 C   0  0  0  0  0  1  0  0  0  0  0  0
  -26.9860  -30.2510   24.7120 C   0  0  0  0  0  1  0  0  0  0  0  0
  -27.4350  -32.4440   25.7850 C   0  0  0  0  0  1  0  0  0  0  0  0
  -25.4540  -33.7440   24.1240 N   0  0  0  0  0  0  0  0  0  0  0  0
  -25.7690  -34.8210   23.3930 C   0  0  0  0  0  0  0  0  0  0  0  0
  -26.4740  -34.7580   22.3820 O   0  0  0  0  0  0  0  0  0  0  0  0
  -24.8150  -33.8600   24.8970 H   0  0  0  0  0  0  0  0  0  0  0  0
  -23.9770  -36.5530   23.0190 C   0  0  0  0  0  1  0  0  0  0  0  0
  -25.2150  -36.1850   23.8550 C   0  0  0  0  0  3  0  0  0  0  0  0
  -27.2920  -37.1480   24.7440 C   0  0  0  0  0  1  0  0  0  0  0  0
  -26.2060  -37.2790   23.7770 N   0  0  0  0  0  0  0  0  0  0  0  0
  -25.7590  -38.1810   23.9220 H   0  0  0  0  0  0  0  0  0  0  0  0
  1  3  1  0
  1  2  2  0
  2 56  1  0
  2  4  1  0
  3  5  1  0
  4  7  2  0
  5 10  1  0
  5  4  1  0
  6  3  2  0
  8 11  1  0
  9 11  2  0
 10  8  2  0
 11 53  1  0
 12  9  1  0
 13 12  2  0
 13 10  1  0
 14 13  1  0
 16 21  1  0
 17 18  1  0
 17 16  1  0
 19 18  1  0
 19 28  1  0
 19 20  1  0
 21 15  1  0
 21 20  1  0
 22 15  2  0
 23 15  1  0
 23 12  1  0
 24 23  1  0
 25 26  2  0
 26 45  1  0
 27 26  1  0
 27 30  1  0
 28 29  1  0
 28 25  1  0
 29 27  2  0
 30 31  1  0
 31 32  2  0
 33 36  1  0
 33 32  1  0
 34 33  2  0
 35 34  1  0
 35 30  2  0
 36 37  1  0
 37 38  1  0
 38 39  2  0
 40 39  1  0
 40 44  1  0
 41 40  2  0
 42 37  2  0
 42 41  1  0
 43 42  1  0
 45 46  1  0
 46 49  1  0
 46 48  1  0
 47 45  2  0
 50 51  1  0
 50 25  1  0
 52 50  1  0
 53 55  1  0
 53 54  1  0
 57 56  1  0
 58 69  2  0
 59 57  1  0
 59 64  1  0
 60 68  1  0
 60 70  1  0
 61 67  1  0
 61 63  1  0
 62 68  1  0
 63 64  2  0
 63 62  1  0
 65 59  2  0
 66 65  1  0
 66 61  2  0
 67 60  1  0
 68 58  1  0
 70 72  2  0
 71 70  1  0
 73 71  1  0
 74 83  2  0
 74 79  1  0
 75 71  1  0
 75 79  1  0
 76 75  1  0
 77 78  1  0
 77 76  1  0
 78 74  1  0
 79 80  2  0
 80 81  1  0
 82 81  2  0
 83 82  1  0
 84 58  1  0
 84 89  1  0
 84 85  1  0
 85 88  1  1
 85 86  1  0
 87 85  1  0
 89 92  1  0
 90 94  1  0
 90 89  1  0
 91 90  2  0
 94 93  1  0
 96 94  1  0
 96 97  1  0
 96 95  1  0
M  ISO  4  15 100  23 100  56 101  57 101
M  END
>  <TORSDO>  (82) 
F 19

>  <SCORE>  (82) 
-13.346

>  <name>  (82) 
82

>  <ligand_id>  (82) 
82

>  <original_smiles>  (82) 
[H]C1=C(C([H])([H])Oc2c([H])c([H])c3c(c2[H])C([H])([H])N(C(=O)C([H])(N([H])C(=O)C([H])(N([H])C([H])([H])[H])C([H])([H])[H])C(C([H])([H])[H])(C([H])([H])[H])C([H])([H])[H])C([H])(C(=O)N([H])C2([H])c4c([H])c([H])c([H])c([H])c4C([H])([H])C([H])([H])C2([H])[H])C3([H])[H])C(=O)N(c2c([H])c(N([H])[H])c([H])c(N([H])C(=O)N3C([H])([H])C([H])([H])C([H])([H])C([H])(n4nc(-c5c([H])c([H])c(Oc6c([H])c([H])c(F)c([H])c6F)c([H])c5[H])c(C(=O)N([H])[H])c4N([H])[H])C3([H])[H])c2F)C1=O

>  <smiles>  (82) 
[H]C1=C(C([H])([H])Oc2c([H])c([H])c3c(c2[H])C([H])([H])N(C(=O)C([H])(N([H])C(=O)C([H])(N([H])C([H])([H])[H])C([H])([H])[H])C(C([H])([H])[H])(C([H])([H])[H])C([H])([H])[H])C([H])(C(=O)N([H])C2([H])c4c([H])c([H])c([H])c([H])c4C([H])([H])C([H])([H])C2([H])[H])C3([H])[H])C(=O)N(c2c([H])c(N([H])[H])c([H])c(N([H])C(=O)N3C([H])([H])C([H])([H])C([H])([H])C([H])(n4nc(-c5c([H])c([H])c(Oc6c([H])c([H])c(F)c([H])c6F)c([H])c5[H])c(C(=O)N([H])[H])c4N([H])[H])C3([H])[H])c2F)C1=O

$$$$
83:0:0
     RDKit          3D

 97106  0  0  1  0  0  0  0  0999 V2000
  -31.1720  -17.8270   19.7810 C   0  0  0  0  0  3  0  0  0  0  0  0
  -31.1180  -19.2650   19.6160 C   0  0  0  0  0  0  0  0  0  0  0  0
  -30.0730  -17.2310   20.3650 C   0  0  0  0  0  0  0  0  0  0  0  0
  -29.9700  -19.8810   20.0780 C   0  0  0  0  0  0  0  0  0  0  0  0
  -28.9300  -18.5820   20.7410 S   0  0  0  0  0  0  0  0  0  0  0  0
  -30.5970  -14.7400   20.3070 C   0  0  0  0  0  0  0  0  0  0  0  0
  -30.3710  -12.4890   19.2590 C   0  0  0  0  0  2  0  0  0  0  0  0
  -29.4230  -12.6040   18.0460 C   0  0  0  0  0  2  0  0  0  0  0  0
  -27.9560  -12.4360   18.4860 C   0  0  0  0  0  2  0  0  0  0  0  0
  -27.5990  -13.2970   19.7270 C   0  0  0  0  0  3  0  0  0  0  0  0
  -28.6670  -13.1690   20.8350 C   0  0  0  0  0  2  0  0  0  0  0  0
  -29.9650  -13.5200   20.2410 N   0  0  0  0  0  0  0  0  0  0  0  0
  -31.7750  -14.8360   19.9480 O   0  0  0  0  0  0  0  0  0  0  0  0
  -29.8340  -15.8610   20.5990 N   0  0  0  0  0  0  0  0  0  0  0  0
  -28.9080  -15.6420   20.9360 H   0  0  0  0  0  0  0  0  0  0  0  0
  -25.2120  -13.8820   20.4660 C   0  0  0  0  0  0  0  0  0  0  0  0
  -24.1490  -13.1050   20.8390 C   0  0  0  0  0  0  0  0  0  0  0  0
  -24.6150  -11.7540   20.8030 C   0  0  0  0  0  0  0  0  0  0  0  0
  -26.2580  -13.0050   20.2220 N   0  0  0  0  0  0  0  0  0  0  0  0
  -25.9050  -11.7210   20.4880 N   0  0  0  0  0  0  0  0  0  0  0  0
  -23.8920  -10.4900   20.9930 C   0  0  0  0  0  0  0  0  0  0  0  0
  -24.3150   -9.5320   21.9410 C   0  0  0  0  0  3  0  0  0  0  0  0
  -23.5900   -8.3340   22.1190 C   0  0  0  0  0  3  0  0  0  0  0  0
  -22.4290   -8.0840   21.3490 C   0  0  0  0  0  0  0  0  0  0  0  0
  -22.0270   -9.0310   20.3900 C   0  0  0  0  0  3  0  0  0  0  0  0
  -22.7520  -10.2210   20.2100 C   0  0  0  0  0  3  0  0  0  0  0  0
  -21.6790   -6.9360   21.4350 O   0  0  0  0  0  0  0  0  0  0  0  0
  -21.6000   -6.2130   22.5980 C   0  0  0  0  0  0  0  0  0  0  0  0
  -21.1180   -6.7830   23.7970 C   0  0  0  0  0  3  0  0  0  0  0  0
  -20.9870   -5.9860   24.9530 C   0  0  0  0  0  3  0  0  0  0  0  0
  -21.3270   -4.6200   24.9090 C   0  0  0  0  0  0  0  0  0  0  0  0
  -21.8040   -4.0520   23.7150 C   0  0  0  0  0  3  0  0  0  0  0  0
  -21.9370   -4.8450   22.5620 C   0  0  0  0  0  0  0  0  0  0  0  0
  -22.3750   -4.2870   21.4080 F   0  0  0  0  0  0  0  0  0  0  0  0
  -21.1950   -3.8530   26.0160 F   0  0  0  0  0  0  0  0  0  0  0  0
  -22.7520  -13.5780   21.1180 C   0  0  0  0  0  0  0  0  0  0  0  0
  -22.0260  -12.8770   21.9810 N   0  0  0  0  0  0  0  0  0  0  0  0
  -22.3130  -14.6060   20.6040 O   0  0  0  0  0  0  0  0  0  0  0  0
  -22.3930  -12.0470   22.4220 H   0  0  0  0  0  0  0  0  0  0  0  0
  -21.0880  -13.1780   22.2060 H   0  0  0  0  0  0  0  0  0  0  0  0
  -25.3690  -15.2540   20.2910 N   0  0  0  0  0  0  0  0  0  0  0  0
  -24.5910  -15.8970   20.3950 H   0  0  0  0  0  0  0  0  0  0  0  0
  -26.2020  -15.7030   19.9320 H   0  0  0  0  0  0  0  0  0  0  0  0
  -35.0590  -19.7310   18.9760 C   0  0  0  0  0  0  0  0  0  0  0  0
  -34.2050  -18.8110   18.1050 C   0  0  0  0  0  2  0  0  0  0  0  0
  -34.3470  -20.4050   20.1490 C   0  0  0  0  0  2  0  0  0  0  0  0
  -32.8290  -19.4350   17.7970 C   0  0  0  0  0  2  0  0  0  0  0  0
  -32.9590  -20.9470   19.7510 C   0  0  0  0  0  2  0  0  0  0  0  0
  -32.1800  -19.9660   18.9950 N   0  0  0  0  0  0  0  0  0  0  0  0
  -36.2660  -19.8860   18.7690 O   0  0  0  0  0  0  0  0  0  0  0  0
  -29.7430  -21.3080   19.9150 N   0  0  0  0  0  0  0  0  0  0  0  0
  -30.4810  -21.7720   19.3890 H   0  0  0  0  0  0  0  0  0  0  0  0
  -28.7560  -22.2800   20.5100 C   0  0  0  0  0  2  0  0  0  0  0  0
  -28.9970  -23.8270   20.1430 C   0  0  0  0  0  0  0  0  0  0  0  0
  -29.9830  -24.1170   19.4550 O   0  0  0  0  0  0  0  0  0  0  0  0
  -28.0090  -24.9810   20.6300 C   0  0  0  0  0  2  0  0  0  0  0  0
  -28.3050  -26.4040   20.2350 O   0  0  0  0  0  0  0  0  0  0  0  0
  -24.5930  -31.8740   23.2390 C   0  0  0  0  0  0  0  0  0  0  0  0
  -27.2140  -27.2940   20.1960 C   0  0  0  0  0  0  0  0  0  0  0  0
  -23.3970  -30.4740   21.5940 C   0  0  0  0  0  3  0  0  0  0  0  0
  -24.8560  -28.9270   20.1700 C   0  0  0  0  0  0  0  0  0  0  0  0
  -25.9400  -30.7900   21.4220 C   0  0  0  0  0  2  0  0  0  0  0  0
  -26.0250  -29.4110   20.7730 C   0  0  0  0  0  0  0  0  0  0  0  0
  -27.2090  -28.6070   20.7740 C   0  0  0  0  0  3  0  0  0  0  0  0
  -26.0270  -26.8820   19.5530 C   0  0  0  0  0  3  0  0  0  0  0  0
  -24.8600  -27.6700   19.5490 C   0  0  0  0  0  3  0  0  0  0  0  0
  -23.6190  -29.8040   20.2130 C   0  0  0  0  0  2  0  0  0  0  0  0
  -24.6620  -31.0650   22.1410 N   0  0  0  0  0  0  0  0  0  0  0  0
  -23.5070  -32.1490   23.7700 O   0  0  0  0  0  0  0  0  0  0  0  0
  -22.7330  -29.4540   22.5500 C   0  0  0  0  0  0  0  0  0  0  0  0
  -21.4080  -29.2720   22.4180 N   0  0  0  0  0  0  0  0  0  0  0  0
  -23.4090  -28.8310   23.3720 O   0  0  0  0  0  0  0  0  0  0  0  0
  -20.9190  -29.8250   21.7270 H   0  0  0  0  0  0  0  0  0  0  0  0
  -18.0300  -28.0790   22.9200 C   0  0  0  0  0  0  0  0  0  0  0  0
  -20.5890  -28.3330   23.1880 C   0  0  0  0  0  3  0  0  0  0  0  0
  -20.6870  -26.9030   22.6080 C   0  0  0  0  0  2  0  0  0  0  0  0
  -19.5840  -26.5880   21.5930 C   0  0  0  0  0  2  0  0  0  0  0  0
  -18.2030  -26.7330   22.2380 C   0  0  0  0  0  2  0  0  0  0  0  0
  -19.1500  -28.8380   23.3520 C   0  0  0  0  0  0  0  0  0  0  0  0
  -18.9340  -30.0980   23.9510 C   0  0  0  0  0  3  0  0  0  0  0  0
  -17.6300  -30.5990   24.1220 C   0  0  0  0  0  3  0  0  0  0  0  0
  -16.5240  -29.8370   23.7060 C   0  0  0  0  0  3  0  0  0  0  0  0
  -16.7250  -28.5790   23.1100 C   0  0  0  0  0  3  0  0  0  0  0  0
  -25.8730  -32.5090   23.8640 C   0  0  0  0  0  3  0  0  0  0  0  0
  -25.5630  -33.9110   24.1790 N   0  0  0  0  0  0  0  0  0  0  0  0
  -25.9000  -34.9560   23.4110 C   0  0  0  0  0  0  0  0  0  0  0  0
  -26.5730  -34.8430   22.3840 O   0  0  0  0  0  0  0  0  0  0  0  0
  -24.9660  -34.0730   24.9760 H   0  0  0  0  0  0  0  0  0  0  0  0
  -24.1810  -36.7530   23.0260 C   0  0  0  0  0  1  0  0  0  0  0  0
  -25.4110  -36.3490   23.8550 C   0  0  0  0  0  3  0  0  0  0  0  0
  -27.5390  -37.2340   24.7030 C   0  0  0  0  0  1  0  0  0  0  0  0
  -26.4470  -37.4010   23.7480 N   0  0  0  0  0  0  0  0  0  0  0  0
  -26.0410  -38.3210   23.8900 H   0  0  0  0  0  0  0  0  0  0  0  0
  -26.3760  -31.7490   25.1520 C   0  0  1  0  0  0  0  0  0  0  0  0
  -25.2740  -31.5280   26.2140 C   0  0  0  0  0  1  0  0  0  0  0  0
  -26.9560  -30.3640   24.7820 C   0  0  0  0  0  1  0  0  0  0  0  0
  -27.5250  -32.5450   25.8150 C   0  0  0  0  0  1  0  0  0  0  0  0
  1  3  2  0
  2  1  1  0
  2  4  2  0
  3 14  1  0
  3  5  1  0
  4  5  1  0
  6 14  1  0
  7 12  1  0
  8  9  1  0
  8  7  1  0
 10  9  1  0
 10 19  1  0
 10 11  1  0
 12  6  1  0
 12 11  1  0
 13  6  2  0
 14 15  1  0
 16 17  2  0
 17 36  1  0
 18 17  1  0
 18 21  1  0
 19 16  1  0
 19 20  1  0
 20 18  2  0
 21 22  1  0
 22 23  2  0
 24 27  1  0
 24 23  1  0
 25 24  2  0
 26 25  1  0
 26 21  2  0
 27 28  1  0
 28 29  1  0
 29 30  2  0
 31 30  1  0
 31 35  1  0
 32 31  2  0
 33 28  2  0
 33 32  1  0
 34 33  1  0
 36 37  1  0
 37 40  1  0
 37 39  1  0
 38 36  2  0
 41 42  1  0
 41 16  1  0
 43 41  1  0
 44 46  1  0
 45 44  1  0
 47 45  1  0
 47 49  1  0
 48 46  1  0
 49  2  1  0
 49 48  1  0
 50 44  2  0
 51  4  1  0
 51 53  1  0
 52 51  1  0
 54 53  1  0
 54 56  1  0
 55 54  2  0
 57 56  1  0
 58 69  2  0
 59 57  1  0
 59 64  1  0
 60 68  1  0
 60 70  1  0
 61 67  1  0
 61 63  1  0
 62 68  1  0
 63 64  2  0
 63 62  1  0
 65 59  2  0
 66 65  1  0
 66 61  2  0
 67 60  1  0
 68 58  1  0
 70 72  2  0
 71 70  1  0
 73 71  1  0
 74 83  2  0
 74 79  1  0
 75 71  1  0
 75 79  1  0
 76 75  1  0
 77 78  1  0
 77 76  1  0
 78 74  1  0
 79 80  2  0
 80 81  1  0
 82 81  2  0
 83 82  1  0
 84 58  1  0
 84 85  1  0
 84 94  1  0
 85 88  1  0
 86 90  1  0
 86 85  1  0
 87 86  2  0
 90 89  1  0
 92 90  1  0
 92 93  1  0
 92 91  1  0
 94 97  1  1
 94 95  1  0
 96 94  1  0
M  ISO  4   6 100  14 100  56 101  57 101
M  END
>  <TORSDO>  (83) 
F 21

>  <SCORE>  (83) 
-13.425

>  <name>  (83) 
83

>  <ligand_id>  (83) 
83

>  <original_smiles>  (83) 
[H]c1c([H])c([H])c2c(c1[H])C([H])([H])C([H])([H])C([H])([H])C2([H])N([H])C(=O)C1([H])N(C(=O)C([H])(N([H])C(=O)C([H])(N([H])C([H])([H])[H])C([H])([H])[H])C(C([H])([H])[H])(C([H])([H])[H])C([H])([H])[H])C([H])([H])c2c([H])c(OC([H])([H])C(=O)C([H])([H])N([H])c3sc(N([H])C(=O)N4C([H])([H])C([H])([H])C([H])([H])C([H])(n5nc(-c6c([H])c([H])c(Oc7c([H])c([H])c(F)c([H])c7F)c([H])c6[H])c(C(=O)N([H])[H])c5N([H])[H])C4([H])[H])c([H])c3N3C([H])([H])C([H])([H])C(=O)C([H])([H])C3([H])[H])c([H])c([H])c2C1([H])[H]

>  <smiles>  (83) 
[H]c1c([H])c([H])c2c(c1[H])C([H])([H])C([H])([H])C([H])([H])C2([H])N([H])C(=O)C1([H])N(C(=O)C([H])(N([H])C(=O)C([H])(N([H])C([H])([H])[H])C([H])([H])[H])C(C([H])([H])[H])(C([H])([H])[H])C([H])([H])[H])C([H])([H])c2c([H])c(OC([H])([H])C(=O)C([H])([H])N([H])c3sc(N([H])C(=O)N4C([H])([H])C([H])([H])C([H])([H])C([H])(n5nc(-c6c([H])c([H])c(Oc7c([H])c([H])c(F)c([H])c7F)c([H])c6[H])c(C(=O)N([H])[H])c5N([H])[H])C4([H])[H])c([H])c3N3C([H])([H])C([H])([H])C(=O)C([H])([H])C3([H])[H])c([H])c([H])c2C1([H])[H]

$$$$
84:0:0
     RDKit          3D

 93102  0  0  1  0  0  0  0  0999 V2000
  -30.4490  -23.8070   19.9190 C   0  0  0  0  0  3  0  0  0  0  0  0
  -29.1250  -23.8010   19.7680 C   0  0  0  0  0  0  0  0  0  0  0  0
  -28.7040  -22.3810   19.8310 C   0  0  0  0  0  0  0  0  0  0  0  0
  -31.0010  -22.4040   20.0690 C   0  0  0  0  0  2  0  0  0  0  0  0
  -29.7990  -21.5630   20.0050 N   0  0  0  0  0  0  0  0  0  0  0  0
  -27.5430  -21.9780   19.7230 O   0  0  0  0  0  0  0  0  0  0  0  0
  -31.0300  -19.3520   19.7150 C   0  0  0  0  0  3  0  0  0  0  0  0
  -31.1010  -17.9230   19.7740 C   0  0  0  0  0  3  0  0  0  0  0  0
  -28.7770  -19.2870   20.5310 C   0  0  0  0  0  3  0  0  0  0  0  0
  -28.8480  -17.8620   20.6190 C   0  0  0  0  0  0  0  0  0  0  0  0
  -29.8590  -20.0850   20.0710 C   0  0  0  0  0  0  0  0  0  0  0  0
  -30.0060  -17.1330   20.2200 C   0  0  0  0  0  0  0  0  0  0  0  0
  -27.6470  -17.1180   21.1760 C   0  0  0  0  0  1  0  0  0  0  0  0
  -30.6580  -14.6640   19.6280 C   0  0  0  0  0  0  0  0  0  0  0  0
  -30.2830  -12.4870   18.4740 C   0  0  0  0  0  2  0  0  0  0  0  0
  -29.1770  -12.6760   17.4120 C   0  0  0  0  0  2  0  0  0  0  0  0
  -27.7770  -12.4960   18.0320 C   0  0  0  0  0  2  0  0  0  0  0  0
  -27.6020  -13.2920   19.3540 C   0  0  0  0  0  3  0  0  0  0  0  0
  -28.8050  -13.0700   20.2990 C   0  0  0  0  0  2  0  0  0  0  0  0
  -30.0280  -13.4450   19.5690 N   0  0  0  0  0  0  0  0  0  0  0  0
  -31.7310  -14.8560   19.0480 O   0  0  0  0  0  0  0  0  0  0  0  0
  -29.9660  -15.6640   20.2620 N   0  0  0  0  0  0  0  0  0  0  0  0
  -29.1790  -15.2990   20.7730 H   0  0  0  0  0  0  0  0  0  0  0  0
  -25.3680  -13.8610   20.4890 C   0  0  0  0  0  0  0  0  0  0  0  0
  -24.3380  -13.0760   20.9330 C   0  0  0  0  0  0  0  0  0  0  0  0
  -24.7320  -11.7280   20.6780 C   0  0  0  0  0  0  0  0  0  0  0  0
  -26.3290  -12.9890   20.0030 N   0  0  0  0  0  0  0  0  0  0  0  0
  -25.9580  -11.6930   20.1710 N   0  0  0  0  0  0  0  0  0  0  0  0
  -23.9870  -10.4710   20.8310 C   0  0  0  0  0  0  0  0  0  0  0  0
  -24.4300   -9.4510   21.7030 C   0  0  0  0  0  3  0  0  0  0  0  0
  -23.6860   -8.2600   21.8470 C   0  0  0  0  0  3  0  0  0  0  0  0
  -22.4860   -8.0810   21.1200 C   0  0  0  0  0  0  0  0  0  0  0  0
  -22.0620   -9.0890   20.2360 C   0  0  0  0  0  3  0  0  0  0  0  0
  -22.8070  -10.2710   20.0890 C   0  0  0  0  0  3  0  0  0  0  0  0
  -21.7130   -6.9460   21.1770 O   0  0  0  0  0  0  0  0  0  0  0  0
  -21.5840   -6.2210   22.3350 C   0  0  0  0  0  0  0  0  0  0  0  0
  -21.0870   -6.7970   23.5250 C   0  0  0  0  0  3  0  0  0  0  0  0
  -20.9060   -5.9980   24.6720 C   0  0  0  0  0  3  0  0  0  0  0  0
  -21.2110   -4.6250   24.6300 C   0  0  0  0  0  0  0  0  0  0  0  0
  -21.7010   -4.0480   23.4440 C   0  0  0  0  0  3  0  0  0  0  0  0
  -21.8840   -4.8440   22.3000 C   0  0  0  0  0  0  0  0  0  0  0  0
  -22.3360   -4.2790   21.1540 F   0  0  0  0  0  0  0  0  0  0  0  0
  -21.0290   -3.8560   25.7280 F   0  0  0  0  0  0  0  0  0  0  0  0
  -23.0200  -13.5540   21.4720 C   0  0  0  0  0  0  0  0  0  0  0  0
  -22.4210  -12.7980   22.3850 N   0  0  0  0  0  0  0  0  0  0  0  0
  -22.5370  -14.6280   21.1190 O   0  0  0  0  0  0  0  0  0  0  0  0
  -22.8270  -11.9270   22.6930 H   0  0  0  0  0  0  0  0  0  0  0  0
  -21.5420  -13.0970   22.7860 H   0  0  0  0  0  0  0  0  0  0  0  0
  -25.5540  -15.2380   20.4360 N   0  0  0  0  0  0  0  0  0  0  0  0
  -24.8290  -15.8870   20.7210 H   0  0  0  0  0  0  0  0  0  0  0  0
  -26.3330  -15.6920   19.9750 H   0  0  0  0  0  0  0  0  0  0  0  0
  -28.1550  -24.9790   19.4070 C   0  0  0  0  0  2  0  0  0  0  0  0
  -28.4570  -26.4130   19.6830 O   0  0  0  0  0  0  0  0  0  0  0  0
  -24.6250  -31.5770   23.0200 C   0  0  0  0  0  0  0  0  0  0  0  0
  -27.3380  -27.2760   19.6760 C   0  0  0  0  0  0  0  0  0  0  0  0
  -23.4520  -30.2520   21.3020 C   0  0  0  0  0  3  0  0  0  0  0  0
  -24.9360  -28.8420   19.7760 C   0  0  0  0  0  0  0  0  0  0  0  0
  -25.9850  -30.6450   21.1340 C   0  0  0  0  0  2  0  0  0  0  0  0
  -26.0990  -29.3120   20.4010 C   0  0  0  0  0  0  0  0  0  0  0  0
  -27.3030  -28.5420   20.3440 C   0  0  0  0  0  3  0  0  0  0  0  0
  -26.1450  -26.8780   19.0200 C   0  0  0  0  0  3  0  0  0  0  0  0
  -24.9620  -27.6310   19.0770 C   0  0  0  0  0  3  0  0  0  0  0  0
  -23.6780  -29.6780   19.8800 C   0  0  0  0  0  2  0  0  0  0  0  0
  -24.7060  -30.8380   21.8760 N   0  0  0  0  0  0  0  0  0  0  0  0
  -23.5360  -31.7920   23.5720 O   0  0  0  0  0  0  0  0  0  0  0  0
  -22.8220  -29.1570   22.1950 C   0  0  0  0  0  0  0  0  0  0  0  0
  -21.4940  -28.9740   22.0850 N   0  0  0  0  0  0  0  0  0  0  0  0
  -23.5240  -28.4790   22.9500 O   0  0  0  0  0  0  0  0  0  0  0  0
  -20.9850  -29.5760   21.4530 H   0  0  0  0  0  0  0  0  0  0  0  0
  -18.1270  -27.7740   22.6470 C   0  0  0  0  0  0  0  0  0  0  0  0
  -20.7010  -27.9750   22.8040 C   0  0  0  0  0  3  0  0  0  0  0  0
  -20.7480  -26.6050   22.0880 C   0  0  0  0  0  2  0  0  0  0  0  0
  -19.5890  -26.3960   21.1070 C   0  0  0  0  0  2  0  0  0  0  0  0
  -18.2460  -26.4940   21.8360 C   0  0  0  0  0  2  0  0  0  0  0  0
  -19.2800  -28.4770   23.0880 C   0  0  0  0  0  0  0  0  0  0  0  0
  -19.1140  -29.6780   23.8120 C   0  0  0  0  0  3  0  0  0  0  0  0
  -17.8280  -30.1760   24.0940 C   0  0  0  0  0  3  0  0  0  0  0  0
  -16.6910  -29.4690   23.6670 C   0  0  0  0  0  3  0  0  0  0  0  0
  -16.8420  -28.2690   22.9510 C   0  0  0  0  0  3  0  0  0  0  0  0
  -25.8930  -32.2030   23.6750 C   0  0  0  0  0  3  0  0  0  0  0  0
  -25.5540  -33.5770   24.0720 N   0  0  0  0  0  0  0  0  0  0  0  0
  -25.8330  -34.6700   23.3480 C   0  0  0  0  0  0  0  0  0  0  0  0
  -26.4750  -34.6280   22.2940 O   0  0  0  0  0  0  0  0  0  0  0  0
  -24.9790  -33.6820   24.8950 H   0  0  0  0  0  0  0  0  0  0  0  0
  -24.0280  -36.4090   23.1390 C   0  0  0  0  0  1  0  0  0  0  0  0
  -25.3200  -36.0230   23.8760 C   0  0  0  0  0  3  0  0  0  0  0  0
  -27.4540  -36.9640   24.6440 C   0  0  0  0  0  1  0  0  0  0  0  0
  -26.3080  -37.1170   23.7520 N   0  0  0  0  0  0  0  0  0  0  0  0
  -25.8750  -38.0170   23.9460 H   0  0  0  0  0  0  0  0  0  0  0  0
  -26.4220  -31.3810   24.9150 C   0  0  1  0  0  0  0  0  0  0  0  0
  -25.3300  -31.0680   25.9630 C   0  0  0  0  0  1  0  0  0  0  0  0
  -27.0380  -30.0380   24.4600 C   0  0  0  0  0  1  0  0  0  0  0  0
  -27.5510  -32.1680   25.6200 C   0  0  0  0  0  1  0  0  0  0  0  0
  1  4  1  0
  2  3  1  0
  2  1  2  0
  3  5  1  0
  5  4  1  0
  5 11  1  0
  6  3  2  0
  7  8  2  0
  7 11  1  0
  8 12  1  0
  9 10  1  0
 10 13  1  0
 11  9  2  0
 12 22  1  0
 12 10  2  0
 14 22  1  0
 15 20  1  0
 16 17  1  0
 16 15  1  0
 18 17  1  0
 18 27  1  0
 18 19  1  0
 20 14  1  0
 20 19  1  0
 21 14  2  0
 22 23  1  0
 24 25  2  0
 25 44  1  0
 26 29  1  0
 26 25  1  0
 27 28  1  0
 27 24  1  0
 28 26  2  0
 29 30  1  0
 30 31  2  0
 32 35  1  0
 32 31  1  0
 33 32  2  0
 34 33  1  0
 34 29  2  0
 35 36  1  0
 36 37  1  0
 37 38  2  0
 39 38  1  0
 39 43  1  0
 40 39  2  0
 41 36  2  0
 41 40  1  0
 42 41  1  0
 44 45  1  0
 45 47  1  0
 45 48  1  0
 46 44  2  0
 49 24  1  0
 49 50  1  0
 51 49  1  0
 52 53  1  0
 52  2  1  0
 54 65  2  0
 55 53  1  0
 55 60  1  0
 56 64  1  0
 56 66  1  0
 57 63  1  0
 57 59  1  0
 58 64  1  0
 59 58  1  0
 60 59  2  0
 61 62  1  0
 61 55  2  0
 62 57  2  0
 63 56  1  0
 64 54  1  0
 66 68  2  0
 67 66  1  0
 69 67  1  0
 70 79  2  0
 70 75  1  0
 71 67  1  0
 71 75  1  0
 72 71  1  0
 73 74  1  0
 73 72  1  0
 74 70  1  0
 75 76  2  0
 76 77  1  0
 78 77  2  0
 79 78  1  0
 80 54  1  0
 80 81  1  0
 80 90  1  0
 81 84  1  0
 82 86  1  0
 82 81  1  0
 83 82  2  0
 86 85  1  0
 88 86  1  0
 88 89  1  0
 88 87  1  0
 90 93  1  1
 90 91  1  0
 92 90  1  0
M  ISO  4  14 100  22 100  52 101  53 101
M  END
>  <TORSDO>  (84) 
F 18

>  <SCORE>  (84) 
-11.907

>  <name>  (84) 
84

>  <ligand_id>  (84) 
84

>  <original_smiles>  (84) 
[H]C1=C(C([H])([H])Oc2c([H])c([H])c3c(c2[H])C([H])([H])N(C(=O)C([H])(N([H])C(=O)C([H])(N([H])C([H])([H])[H])C([H])([H])[H])C(C([H])([H])[H])(C([H])([H])[H])C([H])([H])[H])C([H])(C(=O)N([H])C2([H])c4c([H])c([H])c([H])c([H])c4C([H])([H])C([H])([H])C2([H])[H])C3([H])[H])C(=O)N(c2c([H])c([H])c(N([H])C(=O)N3C([H])([H])C([H])([H])C([H])([H])C([H])(n4nc(-c5c([H])c([H])c(Oc6c([H])c([H])c(F)c([H])c6F)c([H])c5[H])c(C(=O)N([H])[H])c4N([H])[H])C3([H])[H])c(C([H])([H])[H])c2[H])C1([H])[H]

>  <smiles>  (84) 
[H]C1=C(C([H])([H])Oc2c([H])c([H])c3c(c2[H])C([H])([H])N(C(=O)C([H])(N([H])C(=O)C([H])(N([H])C([H])([H])[H])C([H])([H])[H])C(C([H])([H])[H])(C([H])([H])[H])C([H])([H])[H])C([H])(C(=O)N([H])C2([H])c4c([H])c([H])c([H])c([H])c4C([H])([H])C([H])([H])C2([H])[H])C3([H])[H])C(=O)N(c2c([H])c([H])c(N([H])C(=O)N3C([H])([H])C([H])([H])C([H])([H])C([H])(n4nc(-c5c([H])c([H])c(Oc6c([H])c([H])c(F)c([H])c6F)c([H])c5[H])c(C(=O)N([H])[H])c4N([H])[H])C3([H])[H])c(C([H])([H])[H])c2[H])C1([H])[H]

$$$$
85:0:0
     RDKit          3D

 94103  0  0  1  0  0  0  0  0999 V2000
  -27.8360  -23.6590   18.7360 C   0  0  0  0  0  3  0  0  0  0  0  0
  -28.3210  -23.7300   19.9870 C   0  0  0  0  0  0  0  0  0  0  0  0
  -28.8070  -22.4260   20.6380 C   0  0  0  0  0  0  0  0  0  0  0  0
  -27.7260  -22.3720   17.9640 C   0  0  0  0  0  2  0  0  0  0  0  0
  -28.8020  -21.3730   18.4080 C   0  0  0  0  0  2  0  0  0  0  0  0
  -28.9760  -21.2420   19.8760 N   0  0  0  0  0  0  0  0  0  0  0  0
  -29.0200  -22.4070   21.8540 O   0  0  0  0  0  0  0  0  0  0  0  0
  -29.4320  -18.7050   19.6430 C   0  0  0  0  0  3  0  0  0  0  0  0
  -30.0280  -17.5050   20.2880 C   0  0  0  0  0  0  0  0  0  0  0  0
  -30.5140  -17.8710   21.5270 C   0  0  0  0  0  0  0  0  0  0  0  0
  -29.4290  -19.9500   20.3150 C   0  0  0  0  0  0  0  0  0  0  0  0
  -30.1580  -19.5800   21.8860 S   0  0  0  0  0  0  0  0  0  0  0  0
  -30.7670  -14.9540   19.9360 C   0  0  0  0  0  0  0  0  0  0  0  0
  -30.5260  -12.6330   18.9630 C   0  0  0  0  0  2  0  0  0  0  0  0
  -29.5340  -12.5530   17.7720 C   0  0  0  0  0  2  0  0  0  0  0  0
  -28.0710  -12.4690   18.2600 C   0  0  0  0  0  2  0  0  0  0  0  0
  -27.7430  -13.4050   19.4550 C   0  0  0  0  0  3  0  0  0  0  0  0
  -28.8510  -13.3710   20.5300 C   0  0  0  0  0  2  0  0  0  0  0  0
  -30.1060  -13.7350   19.8640 N   0  0  0  0  0  0  0  0  0  0  0  0
  -31.9840  -14.9750   19.7280 O   0  0  0  0  0  0  0  0  0  0  0  0
  -29.6850  -16.2040   18.2360 C   0  0  0  0  0  1  0  0  0  0  0  0
  -30.0320  -16.1250   19.6620 N   0  0  0  0  0  0  0  0  0  0  0  0
  -25.3880  -14.0100   20.2810 C   0  0  0  0  0  0  0  0  0  0  0  0
  -24.3300  -13.2410   20.6830 C   0  0  0  0  0  0  0  0  0  0  0  0
  -24.7850  -11.8860   20.6410 C   0  0  0  0  0  0  0  0  0  0  0  0
  -26.4180  -13.1230   20.0090 N   0  0  0  0  0  0  0  0  0  0  0  0
  -26.0640  -11.8420   20.2910 N   0  0  0  0  0  0  0  0  0  0  0  0
  -24.0600  -10.6250   20.8540 C   0  0  0  0  0  0  0  0  0  0  0  0
  -24.4920   -9.6710   21.8020 C   0  0  0  0  0  3  0  0  0  0  0  0
  -23.7640   -8.4760   22.0010 C   0  0  0  0  0  3  0  0  0  0  0  0
  -22.5910   -8.2250   21.2510 C   0  0  0  0  0  0  0  0  0  0  0  0
  -22.1770   -9.1690   20.2920 C   0  0  0  0  0  3  0  0  0  0  0  0
  -22.9070  -10.3540   20.0920 C   0  0  0  0  0  3  0  0  0  0  0  0
  -21.8390   -7.0790   21.3570 O   0  0  0  0  0  0  0  0  0  0  0  0
  -21.7550   -6.3830   22.5370 C   0  0  0  0  0  0  0  0  0  0  0  0
  -21.2750   -6.9850   23.7210 C   0  0  0  0  0  3  0  0  0  0  0  0
  -21.1390   -6.2200   24.8970 C   0  0  0  0  0  3  0  0  0  0  0  0
  -21.4680   -4.8510   24.8860 C   0  0  0  0  0  0  0  0  0  0  0  0
  -21.9360   -4.2460   23.7070 C   0  0  0  0  0  3  0  0  0  0  0  0
  -22.0760   -5.0120   22.5350 C   0  0  0  0  0  0  0  0  0  0  0  0
  -22.5110   -4.4190   21.3960 F   0  0  0  0  0  0  0  0  0  0  0  0
  -21.3260   -4.1120   26.0120 F   0  0  0  0  0  0  0  0  0  0  0  0
  -22.9460  -13.7230   21.0070 C   0  0  0  0  0  0  0  0  0  0  0  0
  -22.2590  -13.0380   21.9120 N   0  0  0  0  0  0  0  0  0  0  0  0
  -22.4860  -14.7440   20.4950 O   0  0  0  0  0  0  0  0  0  0  0  0
  -22.6410  -12.2000   22.3260 H   0  0  0  0  0  0  0  0  0  0  0  0
  -21.3420  -13.3500   22.1950 H   0  0  0  0  0  0  0  0  0  0  0  0
  -25.5700  -15.3770   20.0960 N   0  0  0  0  0  0  0  0  0  0  0  0
  -24.8440  -16.0740   20.2170 H   0  0  0  0  0  0  0  0  0  0  0  0
  -26.4480  -15.7710   19.7820 H   0  0  0  0  0  0  0  0  0  0  0  0
  -31.0670  -17.1470   23.8590 C   0  0  0  0  0  2  0  0  0  0  0  0
  -31.1710  -17.0720   22.5220 C   0  0  0  0  0  3  0  0  0  0  0  0
  -28.2240  -25.1170   20.7880 C   0  0  0  0  0  2  0  0  0  0  0  0
  -28.3060  -26.4670   20.1180 O   0  0  0  0  0  0  0  0  0  0  0  0
  -24.6070  -31.9200   23.2260 C   0  0  0  0  0  0  0  0  0  0  0  0
  -27.2010  -27.3440   20.1540 C   0  0  0  0  0  0  0  0  0  0  0  0
  -23.3960  -30.5260   21.5860 C   0  0  0  0  0  3  0  0  0  0  0  0
  -24.8410  -28.9810   20.1450 C   0  0  0  0  0  0  0  0  0  0  0  0
  -25.9330  -30.8530   21.3770 C   0  0  0  0  0  2  0  0  0  0  0  0
  -26.0140  -29.4690   20.7310 C   0  0  0  0  0  0  0  0  0  0  0  0
  -27.2050  -28.6680   20.7120 C   0  0  0  0  0  3  0  0  0  0  0  0
  -26.0010  -26.9120   19.5540 C   0  0  0  0  0  3  0  0  0  0  0  0
  -24.8400  -27.7110   19.5400 C   0  0  0  0  0  3  0  0  0  0  0  0
  -23.6050  -29.8580   20.2000 C   0  0  0  0  0  2  0  0  0  0  0  0
  -24.6660  -31.1190   22.1200 N   0  0  0  0  0  0  0  0  0  0  0  0
  -23.5280  -32.1870   23.7740 O   0  0  0  0  0  0  0  0  0  0  0  0
  -22.7440  -29.5030   22.5510 C   0  0  0  0  0  0  0  0  0  0  0  0
  -21.4200  -29.3130   22.4300 N   0  0  0  0  0  0  0  0  0  0  0  0
  -23.4320  -28.8800   23.3650 O   0  0  0  0  0  0  0  0  0  0  0  0
  -20.9200  -29.8770   21.7580 H   0  0  0  0  0  0  0  0  0  0  0  0
  -18.0580  -28.0660   22.9300 C   0  0  0  0  0  0  0  0  0  0  0  0
  -20.6130  -28.3620   23.2000 C   0  0  0  0  0  3  0  0  0  0  0  0
  -20.7350  -26.9330   22.6230 C   0  0  0  0  0  2  0  0  0  0  0  0
  -19.6370  -26.5930   21.6100 C   0  0  0  0  0  2  0  0  0  0  0  0
  -18.2530  -26.7200   22.2530 C   0  0  0  0  0  2  0  0  0  0  0  0
  -19.1660  -28.8440   23.3590 C   0  0  0  0  0  0  0  0  0  0  0  0
  -18.9290  -30.1040   23.9500 C   0  0  0  0  0  3  0  0  0  0  0  0
  -17.6180  -30.5850   24.1200 C   0  0  0  0  0  3  0  0  0  0  0  0
  -16.5240  -29.8040   23.7070 C   0  0  0  0  0  3  0  0  0  0  0  0
  -16.7450  -28.5470   23.1170 C   0  0  0  0  0  3  0  0  0  0  0  0
  -25.8920  -32.5590   23.8400 C   0  0  0  0  0  3  0  0  0  0  0  0
  -26.4010  -31.8040   25.1300 C   0  0  1  0  0  0  0  0  0  0  0  0
  -25.3080  -31.5980   26.2020 C   0  0  0  0  0  1  0  0  0  0  0  0
  -26.9730  -30.4170   24.7610 C   0  0  0  0  0  1  0  0  0  0  0  0
  -27.5530  -32.6040   25.7840 C   0  0  0  0  0  1  0  0  0  0  0  0
  -25.5910  -33.9640   24.1550 N   0  0  0  0  0  0  0  0  0  0  0  0
  -25.9230  -35.0080   23.3840 C   0  0  0  0  0  0  0  0  0  0  0  0
  -26.5910  -34.8920   22.3530 O   0  0  0  0  0  0  0  0  0  0  0  0
  -25.0170  -34.1320   24.9680 H   0  0  0  0  0  0  0  0  0  0  0  0
  -24.2110  -36.8090   23.0010 C   0  0  0  0  0  1  0  0  0  0  0  0
  -25.4430  -36.4040   23.8260 C   0  0  0  0  0  3  0  0  0  0  0  0
  -27.5770  -37.2840   24.6640 C   0  0  0  0  0  1  0  0  0  0  0  0
  -26.4830  -37.4500   23.7110 N   0  0  0  0  0  0  0  0  0  0  0  0
  -26.0790  -38.3730   23.8470 H   0  0  0  0  0  0  0  0  0  0  0  0
  1  2  2  0
  2  3  1  0
  2 53  1  0
  3  7  2  0
  4  5  1  0
  4  1  1  0
  5  6  1  0
  6 11  1  0
  6  3  1  0
  8  9  1  0
  8 11  2  0
  9 10  2  0
 10 12  1  0
 10 52  1  0
 11 12  1  0
 14 19  1  0
 15 16  1  0
 15 14  1  0
 17 16  1  0
 17 26  1  0
 17 18  1  0
 19 13  1  0
 19 18  1  0
 20 13  2  0
 21 22  1  0
 22 13  1  0
 22  9  1  0
 23 24  2  0
 24 43  1  0
 25 24  1  0
 25 28  1  0
 26 23  1  0
 26 27  1  0
 27 25  2  0
 28 29  1  0
 29 30  2  0
 31 34  1  0
 31 30  1  0
 32 31  2  0
 33 32  1  0
 33 28  2  0
 34 35  1  0
 35 36  1  0
 36 37  2  0
 38 37  1  0
 38 42  1  0
 39 38  2  0
 40 35  2  0
 40 39  1  0
 41 40  1  0
 43 44  1  0
 44 47  1  0
 44 46  1  0
 45 43  2  0
 48 49  1  0
 48 23  1  0
 50 48  1  0
 52 51  2  0
 54 56  1  0
 54 53  1  0
 55 66  2  0
 56 61  1  0
 57 65  1  0
 57 67  1  0
 58 64  1  0
 58 60  1  0
 59 65  1  0
 60 59  1  0
 61 60  2  0
 62 56  2  0
 63 62  1  0
 63 58  2  0
 64 57  1  0
 65 55  1  0
 67 69  2  0
 68 67  1  0
 70 68  1  0
 71 80  2  0
 71 76  1  0
 72 68  1  0
 72 76  1  0
 73 72  1  0
 74 75  1  0
 74 73  1  0
 75 71  1  0
 76 77  2  0
 77 78  1  0
 79 78  2  0
 80 79  1  0
 81 55  1  0
 81 86  1  0
 81 82  1  0
 82 85  1  1
 82 83  1  0
 84 82  1  0
 86 89  1  0
 87 91  1  0
 87 86  1  0
 88 87  2  0
 91 90  1  0
 93 91  1  0
 93 94  1  0
 93 92  1  0
M  ISO  4  13 100  22 100  53 101  54 101
M  END
>  <TORSDO>  (85) 
F 19

>  <SCORE>  (85) 
-11.838

>  <name>  (85) 
85

>  <ligand_id>  (85) 
85

>  <original_smiles>  (85) 
[H]C([H])=C([H])c1sc(N2C(=O)C(C([H])([H])Oc3c([H])c([H])c4c(c3[H])C([H])([H])N(C(=O)C([H])(N([H])C(=O)C([H])(N([H])C([H])([H])[H])C([H])([H])[H])C(C([H])([H])[H])(C([H])([H])[H])C([H])([H])[H])C([H])(C(=O)N([H])C3([H])c5c([H])c([H])c([H])c([H])c5C([H])([H])C([H])([H])C3([H])[H])C4([H])[H])=C([H])C([H])([H])C2([H])[H])c([H])c1N(C(=O)N1C([H])([H])C([H])([H])C([H])([H])C([H])(n2nc(-c3c([H])c([H])c(Oc4c([H])c([H])c(F)c([H])c4F)c([H])c3[H])c(C(=O)N([H])[H])c2N([H])[H])C1([H])[H])C([H])([H])[H]

>  <smiles>  (85) 
[H]C([H])=C([H])c1sc(N2C(=O)C(C([H])([H])Oc3c([H])c([H])c4c(c3[H])C([H])([H])N(C(=O)C([H])(N([H])C(=O)C([H])(N([H])C([H])([H])[H])C([H])([H])[H])C(C([H])([H])[H])(C([H])([H])[H])C([H])([H])[H])C([H])(C(=O)N([H])C3([H])c5c([H])c([H])c([H])c([H])c5C([H])([H])C([H])([H])C3([H])[H])C4([H])[H])=C([H])C([H])([H])C2([H])[H])c([H])c1N(C(=O)N1C([H])([H])C([H])([H])C([H])([H])C([H])(n2nc(-c3c([H])c([H])c(Oc4c([H])c([H])c(F)c([H])c4F)c([H])c3[H])c(C(=O)N([H])[H])c2N([H])[H])C1([H])[H])C([H])([H])[H]

$$$$
86:0:0
     RDKit          3D

 96104  0  0  1  0  0  0  0  0999 V2000
  -31.0400  -19.3520   19.9970 C   0  0  0  0  0  3  0  0  0  0  0  0
  -31.1240  -17.9290   20.0900 C   0  0  0  0  0  3  0  0  0  0  0  0
  -29.8160  -20.0680   20.1340 C   0  0  0  0  0  0  0  0  0  0  0  0
  -29.9720  -17.1380   20.3420 C   0  0  0  0  0  0  0  0  0  0  0  0
  -28.6640  -19.2700   20.3940 C   0  0  0  0  0  0  0  0  0  0  0  0
  -28.7510  -17.8460   20.4830 C   0  0  0  0  0  0  0  0  0  0  0  0
  -27.6190  -17.1340   20.7170 F   0  0  0  0  0  0  0  0  0  0  0  0
  -30.6770  -14.6550   20.0020 C   0  0  0  0  0  0  0  0  0  0  0  0
  -30.3780  -12.4360   18.9240 C   0  0  0  0  0  2  0  0  0  0  0  0
  -29.3630  -12.5980   17.7700 C   0  0  0  0  0  2  0  0  0  0  0  0
  -27.9150  -12.4570   18.2840 C   0  0  0  0  0  2  0  0  0  0  0  0
  -27.6450  -13.3070   19.5540 C   0  0  0  0  0  3  0  0  0  0  0  0
  -28.7650  -13.1080   20.6010 C   0  0  0  0  0  2  0  0  0  0  0  0
  -30.0470  -13.4390   19.9540 N   0  0  0  0  0  0  0  0  0  0  0  0
  -31.8040  -14.8200   19.5250 O   0  0  0  0  0  0  0  0  0  0  0  0
  -29.9150  -15.6850   20.4720 N   0  0  0  0  0  0  0  0  0  0  0  0
  -29.0480  -15.3660   20.8800 H   0  0  0  0  0  0  0  0  0  0  0  0
  -25.3110  -13.9380   20.4320 C   0  0  0  0  0  0  0  0  0  0  0  0
  -24.2500  -13.1780   20.8430 C   0  0  0  0  0  0  0  0  0  0  0  0
  -24.6770  -11.8200   20.7460 C   0  0  0  0  0  0  0  0  0  0  0  0
  -26.3200  -13.0440   20.1120 N   0  0  0  0  0  0  0  0  0  0  0  0
  -25.9460  -11.7610   20.3580 N   0  0  0  0  0  0  0  0  0  0  0  0
  -23.9350  -10.5680   20.9440 C   0  0  0  0  0  0  0  0  0  0  0  0
  -24.3840   -9.5780   21.8450 C   0  0  0  0  0  3  0  0  0  0  0  0
  -23.6420   -8.3920   22.0330 C   0  0  0  0  0  3  0  0  0  0  0  0
  -22.4370   -8.1880   21.3200 C   0  0  0  0  0  0  0  0  0  0  0  0
  -22.0060   -9.1670   20.4080 C   0  0  0  0  0  3  0  0  0  0  0  0
  -22.7480  -10.3450   20.2180 C   0  0  0  0  0  3  0  0  0  0  0  0
  -21.6650   -7.0550   21.4180 O   0  0  0  0  0  0  0  0  0  0  0  0
  -21.6280   -6.3070   22.5670 C   0  0  0  0  0  0  0  0  0  0  0  0
  -21.2160   -6.8560   23.8010 C   0  0  0  0  0  3  0  0  0  0  0  0
  -21.1270   -6.0350   24.9420 C   0  0  0  0  0  3  0  0  0  0  0  0
  -21.4370   -4.6650   24.8510 C   0  0  0  0  0  0  0  0  0  0  0  0
  -21.8420   -4.1150   23.6220 C   0  0  0  0  0  3  0  0  0  0  0  0
  -21.9330   -4.9340   22.4820 C   0  0  0  0  0  0  0  0  0  0  0  0
  -22.3030   -4.3940   21.2960 F   0  0  0  0  0  0  0  0  0  0  0  0
  -21.3430   -3.8730   25.9450 F   0  0  0  0  0  0  0  0  0  0  0  0
  -22.8840  -13.6790   21.2150 C   0  0  0  0  0  0  0  0  0  0  0  0
  -22.1990  -12.9790   22.1140 N   0  0  0  0  0  0  0  0  0  0  0  0
  -22.4350  -14.7240   20.7470 O   0  0  0  0  0  0  0  0  0  0  0  0
  -22.5760  -12.1340   22.5160 H   0  0  0  0  0  0  0  0  0  0  0  0
  -21.2850  -13.2960   22.4050 H   0  0  0  0  0  0  0  0  0  0  0  0
  -25.4930  -15.3100   20.2870 N   0  0  0  0  0  0  0  0  0  0  0  0
  -24.7590  -15.9740   20.5020 H   0  0  0  0  0  0  0  0  0  0  0  0
  -26.3600  -15.7580   20.0190 H   0  0  0  0  0  0  0  0  0  0  0  0
  -28.9200  -22.4480   19.6400 C   0  0  0  0  0  0  0  0  0  0  0  0
  -29.8270  -21.5390   20.1160 N   0  0  0  0  0  0  0  0  0  0  0  0
  -27.8920  -22.1180   19.0390 O   0  0  0  0  0  0  0  0  0  0  0  0
  -30.6620  -21.9790   20.4770 H   0  0  0  0  0  0  0  0  0  0  0  0
  -29.2670  -24.0010   19.8720 C   0  0  0  0  0  0  0  0  0  0  0  0
  -30.3570  -24.3600   20.3370 O   0  0  0  0  0  0  0  0  0  0  0  0
  -28.1650  -25.0530   19.4770 C   0  0  0  0  0  2  0  0  0  0  0  0
  -28.3990  -26.4840   19.7920 O   0  0  0  0  0  0  0  0  0  0  0  0
  -24.5120  -31.6260   23.0430 C   0  0  0  0  0  0  0  0  0  0  0  0
  -27.2600  -27.3080   19.7710 C   0  0  0  0  0  0  0  0  0  0  0  0
  -23.3500  -30.2730   21.3370 C   0  0  0  0  0  3  0  0  0  0  0  0
  -24.8470  -28.8450   19.8390 C   0  0  0  0  0  0  0  0  0  0  0  0
  -25.8800  -30.6760   21.1750 C   0  0  0  0  0  2  0  0  0  0  0  0
  -26.0020  -29.3360   20.4620 C   0  0  0  0  0  0  0  0  0  0  0  0
  -27.2100  -28.5800   20.4210 C   0  0  0  0  0  3  0  0  0  0  0  0
  -26.0790  -26.8760   19.1200 C   0  0  0  0  0  3  0  0  0  0  0  0
  -24.8880  -27.6200   19.1600 C   0  0  0  0  0  3  0  0  0  0  0  0
  -23.5850  -29.6770   19.9250 C   0  0  0  0  0  2  0  0  0  0  0  0
  -24.5990  -30.8730   21.9090 N   0  0  0  0  0  0  0  0  0  0  0  0
  -23.4210  -31.8470   23.5880 O   0  0  0  0  0  0  0  0  0  0  0  0
  -22.7190  -29.1900   22.2440 C   0  0  0  0  0  0  0  0  0  0  0  0
  -21.3930  -29.0060   22.1310 N   0  0  0  0  0  0  0  0  0  0  0  0
  -23.4200  -28.5230   23.0090 O   0  0  0  0  0  0  0  0  0  0  0  0
  -20.8860  -29.6000   21.4900 H   0  0  0  0  0  0  0  0  0  0  0  0
  -18.0330  -27.7650   22.6360 C   0  0  0  0  0  0  0  0  0  0  0  0
  -20.5960  -28.0170   22.8590 C   0  0  0  0  0  3  0  0  0  0  0  0
  -20.6870  -26.6260   22.1890 C   0  0  0  0  0  2  0  0  0  0  0  0
  -19.5610  -26.3650   21.1840 C   0  0  0  0  0  2  0  0  0  0  0  0
  -18.1950  -26.4620   21.8700 C   0  0  0  0  0  2  0  0  0  0  0  0
  -19.1600  -28.5020   23.0870 C   0  0  0  0  0  0  0  0  0  0  0  0
  -18.9530  -29.7220   23.7650 C   0  0  0  0  0  3  0  0  0  0  0  0
  -17.6500  -30.2060   23.9960 C   0  0  0  0  0  3  0  0  0  0  0  0
  -16.5380  -29.4640   23.5610 C   0  0  0  0  0  3  0  0  0  0  0  0
  -16.7310  -28.2450   22.8870 C   0  0  0  0  0  3  0  0  0  0  0  0
  -25.7770  -32.2630   23.6980 C   0  0  0  0  0  3  0  0  0  0  0  0
  -26.3040  -31.4550   24.9450 C   0  0  1  0  0  0  0  0  0  0  0  0
  -25.2150  -31.1620   26.0040 C   0  0  0  0  0  1  0  0  0  0  0  0
  -26.9100  -30.1020   24.5050 C   0  0  0  0  0  1  0  0  0  0  0  0
  -27.4430  -32.2430   25.6350 C   0  0  0  0  0  1  0  0  0  0  0  0
  -25.4300  -33.6400   24.0800 N   0  0  0  0  0  0  0  0  0  0  0  0
  -25.7340  -34.7290   23.3620 C   0  0  0  0  0  0  0  0  0  0  0  0
  -26.4060  -34.6830   22.3290 O   0  0  0  0  0  0  0  0  0  0  0  0
  -24.8330  -33.7480   24.8870 H   0  0  0  0  0  0  0  0  0  0  0  0
  -23.9600  -36.4890   23.0750 C   0  0  0  0  0  1  0  0  0  0  0  0
  -25.2110  -36.0860   23.8720 C   0  0  0  0  0  3  0  0  0  0  0  0
  -27.3170  -36.9960   24.7450 C   0  0  0  0  0  1  0  0  0  0  0  0
  -26.2160  -37.1690   23.8020 N   0  0  0  0  0  0  0  0  0  0  0  0
  -25.7850  -38.0730   23.9790 H   0  0  0  0  0  0  0  0  0  0  0  0
  -27.4170  -19.8620   20.5990 N   0  0  0  0  0  0  0  0  0  0  0  0
  -27.2760  -20.6990   20.0370 H   0  0  0  0  0  0  0  0  0  0  0  0
  -26.6350  -19.2200   20.5250 H   0  0  0  0  0  0  0  0  0  0  0  0
  1  2  2  0
  1  3  1  0
  2  4  1  0
  3  5  2  0
  4 16  1  0
  4  6  2  0
  5  6  1  0
  5 94  1  0
  6  7  1  0
  8 16  1  0
  9 14  1  0
 10 11  1  0
 10  9  1  0
 12 11  1  0
 12 21  1  0
 12 13  1  0
 14  8  1  0
 14 13  1  0
 15  8  2  0
 16 17  1  0
 18 19  2  0
 19 38  1  0
 20 19  1  0
 20 23  1  0
 21 22  1  0
 21 18  1  0
 22 20  2  0
 23 24  1  0
 24 25  2  0
 26 29  1  0
 26 25  1  0
 27 26  2  0
 28 27  1  0
 28 23  2  0
 29 30  1  0
 30 31  1  0
 31 32  2  0
 33 32  1  0
 33 37  1  0
 34 33  2  0
 35 30  2  0
 35 34  1  0
 36 35  1  0
 38 39  1  0
 39 42  1  0
 39 41  1  0
 40 38  2  0
 43 18  1  0
 43 44  1  0
 45 43  1  0
 46 50  1  0
 46 47  1  0
 47  3  1  0
 47 49  1  0
 48 46  2  0
 50 51  2  0
 52 53  1  0
 52 50  1  0
 54 65  2  0
 55 53  1  0
 55 60  1  0
 56 64  1  0
 56 66  1  0
 57 63  1  0
 57 59  1  0
 58 64  1  0
 59 58  1  0
 60 59  2  0
 61 62  1  0
 61 55  2  0
 62 57  2  0
 63 56  1  0
 64 54  1  0
 66 68  2  0
 67 66  1  0
 69 67  1  0
 70 79  2  0
 70 75  1  0
 71 67  1  0
 71 75  1  0
 72 71  1  0
 73 74  1  0
 73 72  1  0
 74 70  1  0
 75 76  2  0
 76 77  1  0
 78 77  2  0
 79 78  1  0
 80 54  1  0
 80 85  1  0
 80 81  1  0
 81 84  1  1
 81 82  1  0
 83 81  1  0
 85 88  1  0
 86 90  1  0
 86 85  1  0
 87 86  2  0
 90 89  1  0
 92 90  1  0
 92 93  1  0
 92 91  1  0
 95 94  1  0
 96 94  1  0
M  ISO  4   8 100  16 100  52 101  53 101
M  END
>  <TORSDO>  (86) 
F 20

>  <SCORE>  (86) 
-13.711

>  <name>  (86) 
86

>  <ligand_id>  (86) 
86

>  <original_smiles>  (86) 
[H]c1c([H])c([H])c2c(c1[H])C([H])([H])C([H])([H])C([H])([H])C2([H])N([H])C(=O)C1([H])N(C(=O)C([H])(N([H])C(=O)C([H])(N([H])C([H])([H])[H])C([H])([H])[H])C(C([H])([H])[H])(C([H])([H])[H])C([H])([H])[H])C([H])([H])c2c([H])c(OC([H])([H])C(=O)C(=O)N([H])c3c([H])c([H])c(N([H])C(=O)N4C([H])([H])C([H])([H])C([H])([H])C([H])(n5nc(-c6c([H])c([H])c(Oc7c([H])c([H])c(F)c([H])c7F)c([H])c6[H])c(C(=O)N([H])[H])c5N([H])[H])C4([H])[H])c(F)c3N([H])[H])c([H])c([H])c2C1([H])[H]

>  <smiles>  (86) 
[H]c1c([H])c([H])c2c(c1[H])C([H])([H])C([H])([H])C([H])([H])C2([H])N([H])C(=O)C1([H])N(C(=O)C([H])(N([H])C(=O)C([H])(N([H])C([H])([H])[H])C([H])([H])[H])C(C([H])([H])[H])(C([H])([H])[H])C([H])([H])[H])C([H])([H])c2c([H])c(OC([H])([H])C(=O)C(=O)N([H])c3c([H])c([H])c(N([H])C(=O)N4C([H])([H])C([H])([H])C([H])([H])C([H])(n5nc(-c6c([H])c([H])c(Oc7c([H])c([H])c(F)c([H])c7F)c([H])c6[H])c(C(=O)N([H])[H])c5N([H])[H])C4([H])[H])c(F)c3N([H])[H])c([H])c([H])c2C1([H])[H]

$$$$
87:0:0
     RDKit          3D

 92100  0  0  1  0  0  0  0  0999 V2000
  -30.9780  -17.9010   19.8280 C   0  0  0  0  0  3  0  0  0  0  0  0
  -28.6190  -19.2990   20.4420 C   0  0  0  0  0  3  0  0  0  0  0  0
  -29.8770  -17.1360   20.2970 C   0  0  0  0  0  0  0  0  0  0  0  0
  -29.7130  -20.0640   19.9610 C   0  0  0  0  0  0  0  0  0  0  0  0
  -28.7010  -17.8800   20.5990 C   0  0  0  0  0  0  0  0  0  0  0  0
  -30.8940  -19.3200   19.6650 C   0  0  0  0  0  0  0  0  0  0  0  0
  -27.6130  -17.2050   21.0410 F   0  0  0  0  0  0  0  0  0  0  0  0
  -31.9810  -19.9870   19.2040 F   0  0  0  0  0  0  0  0  0  0  0  0
  -30.6040  -14.6420   19.9990 C   0  0  0  0  0  0  0  0  0  0  0  0
  -30.3450  -12.4120   18.9230 C   0  0  0  0  0  2  0  0  0  0  0  0
  -29.3280  -12.5520   17.7680 C   0  0  0  0  0  2  0  0  0  0  0  0
  -27.8840  -12.3830   18.2810 C   0  0  0  0  0  2  0  0  0  0  0  0
  -27.5990  -13.2270   19.5520 C   0  0  0  0  0  3  0  0  0  0  0  0
  -28.7220  -13.0550   20.5990 C   0  0  0  0  0  2  0  0  0  0  0  0
  -29.9960  -13.4120   19.9520 N   0  0  0  0  0  0  0  0  0  0  0  0
  -31.7310  -14.8130   19.5230 O   0  0  0  0  0  0  0  0  0  0  0  0
  -29.8330  -15.6760   20.4630 N   0  0  0  0  0  0  0  0  0  0  0  0
  -28.9860  -15.3600   20.9110 H   0  0  0  0  0  0  0  0  0  0  0  0
  -25.2560  -13.8150   20.4260 C   0  0  0  0  0  0  0  0  0  0  0  0
  -24.2090  -13.0360   20.8410 C   0  0  0  0  0  0  0  0  0  0  0  0
  -24.6640  -11.6850   20.7520 C   0  0  0  0  0  0  0  0  0  0  0  0
  -26.2810  -12.9380   20.1110 N   0  0  0  0  0  0  0  0  0  0  0  0
  -25.9340  -11.6500   20.3650 N   0  0  0  0  0  0  0  0  0  0  0  0
  -23.9460  -10.4200   20.9570 C   0  0  0  0  0  0  0  0  0  0  0  0
  -24.4070   -9.4500   21.8740 C   0  0  0  0  0  3  0  0  0  0  0  0
  -23.6880   -8.2500   22.0670 C   0  0  0  0  0  3  0  0  0  0  0  0
  -22.4940   -8.0130   21.3450 C   0  0  0  0  0  0  0  0  0  0  0  0
  -22.0530   -8.9720   20.4170 C   0  0  0  0  0  3  0  0  0  0  0  0
  -22.7720  -10.1640   20.2210 C   0  0  0  0  0  3  0  0  0  0  0  0
  -21.7450   -6.8660   21.4480 O   0  0  0  0  0  0  0  0  0  0  0  0
  -21.6970   -6.1400   22.6110 C   0  0  0  0  0  0  0  0  0  0  0  0
  -21.2460   -6.7040   23.8240 C   0  0  0  0  0  3  0  0  0  0  0  0
  -21.1480   -5.9030   24.9800 C   0  0  0  0  0  3  0  0  0  0  0  0
  -21.4900   -4.5400   24.9230 C   0  0  0  0  0  0  0  0  0  0  0  0
  -21.9350   -3.9750   23.7150 C   0  0  0  0  0  3  0  0  0  0  0  0
  -22.0350   -4.7720   22.5610 C   0  0  0  0  0  0  0  0  0  0  0  0
  -22.4440   -4.2180   21.3940 F   0  0  0  0  0  0  0  0  0  0  0  0
  -21.3890   -3.7670   26.0300 F   0  0  0  0  0  0  0  0  0  0  0  0
  -22.8330  -13.5100   21.2090 C   0  0  0  0  0  0  0  0  0  0  0  0
  -22.1580  -12.7980   22.1050 N   0  0  0  0  0  0  0  0  0  0  0  0
  -22.3660  -14.5470   20.7390 O   0  0  0  0  0  0  0  0  0  0  0  0
  -22.5500  -11.9590   22.5070 H   0  0  0  0  0  0  0  0  0  0  0  0
  -21.2380  -13.0980   22.3940 H   0  0  0  0  0  0  0  0  0  0  0  0
  -25.4130  -15.1890   20.2720 N   0  0  0  0  0  0  0  0  0  0  0  0
  -24.6640  -15.8420   20.4730 H   0  0  0  0  0  0  0  0  0  0  0  0
  -26.2590  -15.6450   19.9570 H   0  0  0  0  0  0  0  0  0  0  0  0
  -29.7050  -21.4910   19.7480 N   0  0  0  0  0  0  0  0  0  0  0  0
  -30.5600  -21.8610   19.3400 H   0  0  0  0  0  0  0  0  0  0  0  0
  -28.6940  -22.4920   20.2140 C   0  0  0  0  0  2  0  0  0  0  0  0
  -28.9230  -24.0070   19.8470 C   0  0  0  0  0  3  0  0  0  0  0  0
  -28.0430  -25.0450   20.0400 C   0  0  0  0  0  3  0  0  0  0  0  0
  -28.2420  -26.4140   19.7420 O   0  0  0  0  0  0  0  0  0  0  0  0
  -24.6210  -31.7210   23.0690 C   0  0  0  0  0  0  0  0  0  0  0  0
  -27.1380  -27.2800   19.7780 C   0  0  0  0  0  0  0  0  0  0  0  0
  -23.3730  -30.3980   21.3970 C   0  0  0  0  0  3  0  0  0  0  0  0
  -24.7840  -28.8990   19.8800 C   0  0  0  0  0  0  0  0  0  0  0  0
  -25.9090  -30.7090   21.1750 C   0  0  0  0  0  2  0  0  0  0  0  0
  -25.9660  -29.3570   20.4750 C   0  0  0  0  0  0  0  0  0  0  0  0
  -27.1480  -28.5580   20.4180 C   0  0  0  0  0  3  0  0  0  0  0  0
  -25.9360  -26.8790   19.1550 C   0  0  0  0  0  3  0  0  0  0  0  0
  -24.7690  -27.6640   19.2110 C   0  0  0  0  0  3  0  0  0  0  0  0
  -23.5540  -29.7780   19.9870 C   0  0  0  0  0  2  0  0  0  0  0  0
  -24.6540  -30.9570   21.9370 N   0  0  0  0  0  0  0  0  0  0  0  0
  -23.5510  -31.9830   23.6380 O   0  0  0  0  0  0  0  0  0  0  0  0
  -22.7230  -29.3480   22.3290 C   0  0  0  0  0  0  0  0  0  0  0  0
  -21.3900  -29.2000   22.2350 N   0  0  0  0  0  0  0  0  0  0  0  0
  -23.4140  -28.6730   23.0950 O   0  0  0  0  0  0  0  0  0  0  0  0
  -20.8920  -29.7960   21.5910 H   0  0  0  0  0  0  0  0  0  0  0  0
  -18.0040  -28.0670   22.8140 C   0  0  0  0  0  0  0  0  0  0  0  0
  -20.5780  -28.2400   22.9860 C   0  0  0  0  0  3  0  0  0  0  0  0
  -20.6130  -26.8420   22.3250 C   0  0  0  0  0  2  0  0  0  0  0  0
  -19.4600  -26.6100   21.3430 C   0  0  0  0  0  2  0  0  0  0  0  0
  -18.1110  -26.7550   22.0550 C   0  0  0  0  0  2  0  0  0  0  0  0
  -19.1620  -28.7720   23.2380 C   0  0  0  0  0  0  0  0  0  0  0  0
  -19.0050  -30.0040   23.9100 C   0  0  0  0  0  3  0  0  0  0  0  0
  -17.7240  -30.5290   24.1620 C   0  0  0  0  0  3  0  0  0  0  0  0
  -16.5810  -29.8200   23.7540 C   0  0  0  0  0  3  0  0  0  0  0  0
  -16.7220  -28.5910   23.0860 C   0  0  0  0  0  3  0  0  0  0  0  0
  -25.9220  -32.3170   23.6900 C   0  0  0  0  0  3  0  0  0  0  0  0
  -26.4600  -31.4870   24.9200 C   0  0  1  0  0  0  0  0  0  0  0  0
  -25.3890  -31.2140   26.0020 C   0  0  0  0  0  1  0  0  0  0  0  0
  -27.0200  -30.1220   24.4580 C   0  0  0  0  0  1  0  0  0  0  0  0
  -27.6340  -32.2420   25.5880 C   0  0  0  0  0  1  0  0  0  0  0  0
  -25.6300  -33.7010   24.0880 N   0  0  0  0  0  0  0  0  0  0  0  0
  -25.9470  -34.7840   23.3660 C   0  0  0  0  0  0  0  0  0  0  0  0
  -26.5870  -34.7210   22.3130 O   0  0  0  0  0  0  0  0  0  0  0  0
  -25.0580  -33.8240   24.9110 H   0  0  0  0  0  0  0  0  0  0  0  0
  -24.2190  -36.5980   23.1400 C   0  0  0  0  0  1  0  0  0  0  0  0
  -25.4820  -36.1540   23.8960 C   0  0  0  0  0  3  0  0  0  0  0  0
  -27.6420  -36.9980   24.7020 C   0  0  0  0  0  1  0  0  0  0  0  0
  -26.5160  -37.2070   23.7950 N   0  0  0  0  0  0  0  0  0  0  0  0
  -26.1190  -38.1220   23.9900 H   0  0  0  0  0  0  0  0  0  0  0  0
  1  3  1  0
  2  5  1  0
  3 17  1  0
  3  5  2  0
  4  2  2  0
  5  7  1  0
  6  1  2  0
  6  4  1  0
  8  6  1  0
  9 17  1  0
 10 15  1  0
 11 12  1  0
 11 10  1  0
 13 12  1  0
 13 22  1  0
 13 14  1  0
 15  9  1  0
 15 14  1  0
 16  9  2  0
 17 18  1  0
 19 20  2  0
 20 39  1  0
 21 20  1  0
 21 24  1  0
 22 23  1  0
 22 19  1  0
 23 21  2  0
 24 25  1  0
 25 26  2  0
 27 30  1  0
 27 26  1  0
 28 27  2  0
 29 28  1  0
 29 24  2  0
 30 31  1  0
 31 32  1  0
 32 33  2  0
 34 33  1  0
 34 38  1  0
 35 34  2  0
 36 31  2  0
 36 35  1  0
 37 36  1  0
 39 40  1  0
 40 43  1  0
 40 42  1  0
 41 39  2  0
 44 19  1  0
 44 45  1  0
 46 44  1  0
 47  4  1  0
 47 49  1  0
 48 47  1  0
 50 51  2  0
 50 49  1  0
 52 54  1  0
 52 51  1  0
 53 64  2  0
 54 59  1  0
 55 63  1  0
 55 65  1  0
 56 62  1  0
 56 58  1  0
 57 63  1  0
 58 57  1  0
 59 58  2  0
 60 61  1  0
 60 54  2  0
 61 56  2  0
 62 55  1  0
 63 53  1  0
 65 67  2  0
 66 65  1  0
 68 66  1  0
 69 78  2  0
 69 74  1  0
 70 66  1  0
 70 74  1  0
 71 70  1  0
 72 73  1  0
 72 71  1  0
 73 69  1  0
 74 75  2  0
 75 76  1  0
 77 76  2  0
 78 77  1  0
 79 53  1  0
 79 84  1  0
 79 80  1  0
 80 83  1  1
 80 81  1  0
 82 80  1  0
 84 87  1  0
 85 89  1  0
 85 84  1  0
 86 85  2  0
 89 88  1  0
 91 89  1  0
 91 92  1  0
 91 90  1  0
M  ISO  4   9 100  17 100  51 101  52 101
M  END
>  <TORSDO>  (87) 
F 19

>  <SCORE>  (87) 
-13.748

>  <name>  (87) 
87

>  <ligand_id>  (87) 
87

>  <original_smiles>  (87) 
[H]C(Oc1c([H])c([H])c2c(c1[H])C([H])([H])N(C(=O)C([H])(N([H])C(=O)C([H])(N([H])C([H])([H])[H])C([H])([H])[H])C(C([H])([H])[H])(C([H])([H])[H])C([H])([H])[H])C([H])(C(=O)N([H])C1([H])c3c([H])c([H])c([H])c([H])c3C([H])([H])C([H])([H])C1([H])[H])C2([H])[H])=C([H])C([H])([H])N([H])c1c([H])c(F)c(N([H])C(=O)N2C([H])([H])C([H])([H])C([H])([H])C([H])(n3nc(-c4c([H])c([H])c(Oc5c([H])c([H])c(F)c([H])c5F)c([H])c4[H])c(C(=O)N([H])[H])c3N([H])[H])C2([H])[H])c([H])c1F

>  <smiles>  (87) 
[H]C(Oc1c([H])c([H])c2c(c1[H])C([H])([H])N(C(=O)C([H])(N([H])C(=O)C([H])(N([H])C([H])([H])[H])C([H])([H])[H])C(C([H])([H])[H])(C([H])([H])[H])C([H])([H])[H])C([H])(C(=O)N([H])C1([H])c3c([H])c([H])c([H])c([H])c3C([H])([H])C([H])([H])C1([H])[H])C2([H])[H])=C([H])C([H])([H])N([H])c1c([H])c(F)c(N([H])C(=O)N2C([H])([H])C([H])([H])C([H])([H])C([H])(n3nc(-c4c([H])c([H])c(Oc5c([H])c([H])c(F)c([H])c5F)c([H])c4[H])c(C(=O)N([H])[H])c3N([H])[H])C2([H])[H])c([H])c1F

$$$$
88:0:0
     RDKit          3D

 96105  0  0  1  0  0  0  0  0999 V2000
  -30.2900  -23.8700   20.9030 C   0  0  0  0  0  3  0  0  0  0  0  0
  -28.7150  -22.4780   20.1800 C   0  0  0  0  0  3  0  0  0  0  0  0
  -28.9910  -23.8390   20.3170 C   0  0  0  0  0  0  0  0  0  0  0  0
  -30.7260  -22.5760   21.0700 C   0  0  0  0  0  0  0  0  0  0  0  0
  -29.7700  -21.6580   20.6280 N   0  0  0  0  0  0  0  0  0  0  0  0
  -28.7190  -19.3580   20.8450 C   0  0  0  0  0  3  0  0  0  0  0  0
  -28.7940  -17.9320   20.7580 C   0  0  0  0  0  3  0  0  0  0  0  0
  -31.0630  -19.4940   20.3430 C   0  0  0  0  0  3  0  0  0  0  0  0
  -29.8510  -20.1890   20.6170 C   0  0  0  0  0  0  0  0  0  0  0  0
  -30.0000  -17.2390   20.4450 C   0  0  0  0  0  0  0  0  0  0  0  0
  -31.1440  -18.0690   20.2460 C   0  0  0  0  0  0  0  0  0  0  0  0
  -30.6460  -14.7370   20.4470 C   0  0  0  0  0  0  0  0  0  0  0  0
  -30.4510  -12.4310   19.5460 C   0  0  0  0  0  2  0  0  0  0  0  0
  -29.5350  -12.4170   18.3040 C   0  0  0  0  0  2  0  0  0  0  0  0
  -28.0490  -12.3160   18.7030 C   0  0  0  0  0  2  0  0  0  0  0  0
  -27.6410  -13.2450   19.8810 C   0  0  0  0  0  3  0  0  0  0  0  0
  -28.6870  -13.2120   21.0160 C   0  0  0  0  0  2  0  0  0  0  0  0
  -29.9910  -13.5290   20.4190 N   0  0  0  0  0  0  0  0  0  0  0  0
  -31.8760  -14.7630   20.3770 O   0  0  0  0  0  0  0  0  0  0  0  0
  -29.7150  -15.8410   18.5240 C   0  0  0  0  0  1  0  0  0  0  0  0
  -29.9350  -15.8420   19.9840 N   0  0  0  0  0  0  0  0  0  0  0  0
  -25.2320  -13.8610   20.5120 C   0  0  0  0  0  0  0  0  0  0  0  0
  -24.1510  -13.0950   20.8530 C   0  0  0  0  0  0  0  0  0  0  0  0
  -24.6130  -11.7440   20.8700 C   0  0  0  0  0  0  0  0  0  0  0  0
  -26.2840  -12.9740   20.3420 N   0  0  0  0  0  0  0  0  0  0  0  0
  -25.9160  -11.6980   20.6200 N   0  0  0  0  0  0  0  0  0  0  0  0
  -23.8820  -10.4850   21.0530 C   0  0  0  0  0  0  0  0  0  0  0  0
  -24.2950   -9.5250   22.0010 C   0  0  0  0  0  3  0  0  0  0  0  0
  -23.5640   -8.3300   22.1760 C   0  0  0  0  0  3  0  0  0  0  0  0
  -22.4060   -8.0880   21.3990 C   0  0  0  0  0  0  0  0  0  0  0  0
  -22.0110   -9.0370   20.4400 C   0  0  0  0  0  3  0  0  0  0  0  0
  -22.7440  -10.2220   20.2630 C   0  0  0  0  0  3  0  0  0  0  0  0
  -21.6490   -6.9430   21.4830 O   0  0  0  0  0  0  0  0  0  0  0  0
  -21.5910   -6.2020   22.6350 C   0  0  0  0  0  0  0  0  0  0  0  0
  -21.1750   -6.7650   23.8620 C   0  0  0  0  0  3  0  0  0  0  0  0
  -21.0560   -5.9510   25.0050 C   0  0  0  0  0  3  0  0  0  0  0  0
  -21.3510   -4.5760   24.9260 C   0  0  0  0  0  0  0  0  0  0  0  0
  -21.7650   -4.0140   23.7040 C   0  0  0  0  0  3  0  0  0  0  0  0
  -21.8790   -4.8250   22.5620 C   0  0  0  0  0  0  0  0  0  0  0  0
  -22.2540   -4.2740   21.3820 F   0  0  0  0  0  0  0  0  0  0  0  0
  -21.2330   -3.7910   26.0220 F   0  0  0  0  0  0  0  0  0  0  0  0
  -22.7420  -13.5750   21.0550 C   0  0  0  0  0  0  0  0  0  0  0  0
  -21.9830  -12.8980   21.9100 N   0  0  0  0  0  0  0  0  0  0  0  0
  -22.3230  -14.5850   20.4930 O   0  0  0  0  0  0  0  0  0  0  0  0
  -22.3310  -12.0800   22.3870 H   0  0  0  0  0  0  0  0  0  0  0  0
  -21.0370  -13.2040   22.0900 H   0  0  0  0  0  0  0  0  0  0  0  0
  -25.4080  -15.2270   20.3070 N   0  0  0  0  0  0  0  0  0  0  0  0
  -24.6510  -15.9010   20.3620 H   0  0  0  0  0  0  0  0  0  0  0  0
  -26.2780  -15.6380   19.9960 H   0  0  0  0  0  0  0  0  0  0  0  0
  -32.3610  -17.5120   19.8520 N   0  0  0  0  0  0  0  0  0  0  0  0
  -32.4660  -16.5010   19.9810 H   0  0  0  0  0  0  0  0  0  0  0  0
  -33.2150  -18.0310   20.0190 H   0  0  0  0  0  0  0  0  0  0  0  0
  -31.9100  -22.1650   21.5970 O   0  0  0  0  0  0  0  0  0  0  0  0
  -32.4000  -22.9410   21.8520 H   0  0  0  0  0  0  0  0  0  0  0  0
  -28.0510  -25.0180   19.8880 C   0  0  0  0  0  2  0  0  0  0  0  0
  -28.3270  -26.4460   20.1900 O   0  0  0  0  0  0  0  0  0  0  0  0
  -24.6380  -31.8700   23.2250 C   0  0  0  0  0  0  0  0  0  0  0  0
  -27.2240  -27.3250   20.1200 C   0  0  0  0  0  0  0  0  0  0  0  0
  -23.4190  -30.4800   21.5910 C   0  0  0  0  0  3  0  0  0  0  0  0
  -24.8580  -28.9480   20.1390 C   0  0  0  0  0  0  0  0  0  0  0  0
  -25.9570  -30.8040   21.3840 C   0  0  0  0  0  2  0  0  0  0  0  0
  -26.0340  -29.4290   20.7280 C   0  0  0  0  0  0  0  0  0  0  0  0
  -27.2200  -28.6310   20.7110 C   0  0  0  0  0  3  0  0  0  0  0  0
  -26.0210  -26.9150   19.4910 C   0  0  0  0  0  3  0  0  0  0  0  0
  -24.8540  -27.6950   19.5150 C   0  0  0  0  0  3  0  0  0  0  0  0
  -23.6200  -29.8150   20.2050 C   0  0  0  0  0  2  0  0  0  0  0  0
  -24.6910  -31.0670   22.1220 N   0  0  0  0  0  0  0  0  0  0  0  0
  -23.5590  -32.1440   23.7700 O   0  0  0  0  0  0  0  0  0  0  0  0
  -22.7660  -29.4570   22.5510 C   0  0  0  0  0  0  0  0  0  0  0  0
  -21.4390  -29.2770   22.4350 N   0  0  0  0  0  0  0  0  0  0  0  0
  -23.4530  -28.8270   23.3600 O   0  0  0  0  0  0  0  0  0  0  0  0
  -20.9450  -29.8360   21.7550 H   0  0  0  0  0  0  0  0  0  0  0  0
  -18.0680  -28.0680   22.9510 C   0  0  0  0  0  0  0  0  0  0  0  0
  -20.6270  -28.3370   23.2100 C   0  0  0  0  0  3  0  0  0  0  0  0
  -20.7320  -26.9050   22.6330 C   0  0  0  0  0  2  0  0  0  0  0  0
  -19.6260  -26.5790   21.6250 C   0  0  0  0  0  2  0  0  0  0  0  0
  -18.2460  -26.7200   22.2740 C   0  0  0  0  0  2  0  0  0  0  0  0
  -19.1870  -28.8360   23.3760 C   0  0  0  0  0  0  0  0  0  0  0  0
  -18.9630  -30.0970   23.9670 C   0  0  0  0  0  3  0  0  0  0  0  0
  -17.6570  -30.5930   24.1390 C   0  0  0  0  0  3  0  0  0  0  0  0
  -16.5550  -29.8240   23.7290 C   0  0  0  0  0  3  0  0  0  0  0  0
  -16.7620  -28.5630   23.1420 C   0  0  0  0  0  3  0  0  0  0  0  0
  -25.9260  -32.4990   23.8360 C   0  0  0  0  0  3  0  0  0  0  0  0
  -26.4580  -31.7190   25.1000 C   0  0  1  0  0  0  0  0  0  0  0  0
  -25.3780  -31.4760   26.1780 C   0  0  0  0  0  1  0  0  0  0  0  0
  -27.0360  -30.3440   24.6920 C   0  0  0  0  0  1  0  0  0  0  0  0
  -27.6190  -32.5090   25.7510 C   0  0  0  0  0  1  0  0  0  0  0  0
  -25.6190  -33.8950   24.1810 N   0  0  0  0  0  0  0  0  0  0  0  0
  -25.9350  -34.9530   23.4240 C   0  0  0  0  0  0  0  0  0  0  0  0
  -26.5870  -34.8600   22.3800 O   0  0  0  0  0  0  0  0  0  0  0  0
  -25.0370  -34.0440   24.9940 H   0  0  0  0  0  0  0  0  0  0  0  0
  -24.1920  -36.7410   23.1190 C   0  0  0  0  0  1  0  0  0  0  0  0
  -25.4520  -36.3370   23.9010 C   0  0  0  0  0  3  0  0  0  0  0  0
  -27.6010  -37.2220   24.6930 C   0  0  0  0  0  1  0  0  0  0  0  0
  -26.4790  -37.3940   23.7750 N   0  0  0  0  0  0  0  0  0  0  0  0
  -26.0710  -38.3110   23.9400 H   0  0  0  0  0  0  0  0  0  0  0  0
  1  4  2  0
  2  3  2  0
  2  5  1  0
  3  1  1  0
  4 53  1  0
  5  4  1  0
  7  6  1  0
  8  9  1  0
  9  5  1  0
  9  6  2  0
 10  7  2  0
 11  8  2  0
 11 10  1  0
 13 18  1  0
 14 15  1  0
 14 13  1  0
 16 15  1  0
 16 25  1  0
 16 17  1  0
 18 12  1  0
 18 17  1  0
 19 12  2  0
 20 21  1  0
 21 10  1  0
 21 12  1  0
 22 23  2  0
 23 24  1  0
 23 42  1  0
 24 27  1  0
 25 22  1  0
 25 26  1  0
 26 24  2  0
 27 28  1  0
 28 29  2  0
 30 33  1  0
 30 29  1  0
 31 30  2  0
 32 31  1  0
 32 27  2  0
 33 34  1  0
 34 35  1  0
 35 36  2  0
 37 36  1  0
 37 41  1  0
 38 37  2  0
 39 34  2  0
 39 38  1  0
 40 39  1  0
 42 43  1  0
 43 46  1  0
 43 45  1  0
 44 42  2  0
 47 48  1  0
 47 22  1  0
 49 47  1  0
 50 51  1  0
 50 52  1  0
 50 11  1  0
 53 54  1  0
 55 56  1  0
 55  3  1  0
 57 68  2  0
 58 56  1  0
 58 63  1  0
 59 67  1  0
 59 69  1  0
 60 66  1  0
 60 62  1  0
 61 67  1  0
 62 61  1  0
 63 62  2  0
 64 65  1  0
 64 58  2  0
 65 60  2  0
 66 59  1  0
 67 57  1  0
 69 71  2  0
 70 69  1  0
 72 70  1  0
 73 82  2  0
 73 78  1  0
 74 70  1  0
 74 78  1  0
 75 74  1  0
 76 77  1  0
 76 75  1  0
 77 73  1  0
 78 79  2  0
 79 80  1  0
 81 80  2  0
 82 81  1  0
 83 57  1  0
 83 88  1  0
 83 84  1  0
 84 87  1  1
 84 85  1  0
 86 84  1  0
 88 91  1  0
 89 93  1  0
 89 88  1  0
 90 89  2  0
 93 92  1  0
 95 93  1  0
 95 96  1  0
 95 94  1  0
M  ISO  4  12 100  21 100  55 101  56 101
M  END
>  <TORSDO>  (88) 
F 20

>  <SCORE>  (88) 
-13.908

>  <name>  (88) 
88

>  <ligand_id>  (88) 
88

>  <original_smiles>  (88) 
[H]Oc1c([H])c(C([H])([H])Oc2c([H])c([H])c3c(c2[H])C([H])([H])N(C(=O)C([H])(N([H])C(=O)C([H])(N([H])C([H])([H])[H])C([H])([H])[H])C(C([H])([H])[H])(C([H])([H])[H])C([H])([H])[H])C([H])(C(=O)N([H])C2([H])c4c([H])c([H])c([H])c([H])c4C([H])([H])C([H])([H])C2([H])[H])C3([H])[H])c([H])n1-c1c([H])c([H])c(N(C(=O)N2C([H])([H])C([H])([H])C([H])([H])C([H])(n3nc(-c4c([H])c([H])c(Oc5c([H])c([H])c(F)c([H])c5F)c([H])c4[H])c(C(=O)N([H])[H])c3N([H])[H])C2([H])[H])C([H])([H])[H])c(N([H])[H])c1[H]

>  <smiles>  (88) 
[H]Oc1c([H])c(C([H])([H])Oc2c([H])c([H])c3c(c2[H])C([H])([H])N(C(=O)C([H])(N([H])C(=O)C([H])(N([H])C([H])([H])[H])C([H])([H])[H])C(C([H])([H])[H])(C([H])([H])[H])C([H])([H])[H])C([H])(C(=O)N([H])C2([H])c4c([H])c([H])c([H])c([H])c4C([H])([H])C([H])([H])C2([H])[H])C3([H])[H])c([H])n1-c1c([H])c([H])c(N(C(=O)N2C([H])([H])C([H])([H])C([H])([H])C([H])(n3nc(-c4c([H])c([H])c(Oc5c([H])c([H])c(F)c([H])c5F)c([H])c4[H])c(C(=O)N([H])[H])c3N([H])[H])C2([H])[H])C([H])([H])[H])c(N([H])[H])c1[H]

$$$$
