0:0:0
     RDKit          3D

 94102  0  0  1  0  0  0  0  0999 V2000
  -29.4640  -19.8360   20.6340 C   0  0  0  0  0  3  0  0  0  0  0  0
  -31.8630  -20.1240   20.7660 C   0  0  0  0  0  3  0  0  0  0  0  0
  -29.6050  -18.4510   20.9240 C   0  0  0  0  0  0  0  0  0  0  0  0
  -30.8940  -17.8920   21.1470 C   0  0  0  0  0  0  0  0  0  0  0  0
  -30.5890  -20.6920   20.5720 C   0  0  0  0  0  0  0  0  0  0  0  0
  -32.0170  -18.7510   21.0520 C   0  0  0  0  0  0  0  0  0  0  0  0
  -28.3480  -17.6040   21.0290 C   0  0  0  0  0  1  0  0  0  0  0  0
  -33.2660  -18.2710   21.2700 F   0  0  0  0  0  0  0  0  0  0  0  0
  -30.5070  -22.0830   20.3370 N   0  0  0  0  0  0  0  0  0  0  0  0
  -31.3470  -22.6540   20.4030 H   0  0  0  0  0  0  0  0  0  0  0  0
  -29.2450  -22.8370   20.3520 C   0  0  0  0  0  2  0  0  0  0  0  0
  -29.4370  -24.3760   20.3330 C   0  0  0  0  0  0  0  0  0  0  0  0
  -30.5360  -24.8840   20.5890 O   0  0  0  0  0  0  0  0  0  0  0  0
  -28.2050  -25.2250   19.9660 C   0  0  0  0  0  2  0  0  0  0  0  0
  -28.3970  -26.6510   20.1210 O   0  0  0  0  0  0  0  0  0  0  0  0
  -24.5700  -31.8320   23.2030 C   0  0  0  0  0  0  0  0  0  0  0  0
  -27.2360  -27.4100   20.0890 C   0  0  0  0  0  0  0  0  0  0  0  0
  -23.3760  -30.4430   21.5440 C   0  0  0  0  0  3  0  0  0  0  0  0
  -24.8400  -28.9310   20.1060 C   0  0  0  0  0  0  0  0  0  0  0  0
  -25.9050  -30.8090   21.3600 C   0  0  0  0  0  2  0  0  0  0  0  0
  -25.9970  -29.4450   20.7030 C   0  0  0  0  0  0  0  0  0  0  0  0
  -27.1990  -28.6940   20.6880 C   0  0  0  0  0  3  0  0  0  0  0  0
  -26.0530  -26.9250   19.4790 C   0  0  0  0  0  3  0  0  0  0  0  0
  -24.8640  -27.6720   19.4890 C   0  0  0  0  0  3  0  0  0  0  0  0
  -23.5920  -29.7820   20.1570 C   0  0  0  0  0  2  0  0  0  0  0  0
  -24.6350  -31.0420   22.0940 N   0  0  0  0  0  0  0  0  0  0  0  0
  -23.4860  -32.0920   23.7420 O   0  0  0  0  0  0  0  0  0  0  0  0
  -22.7260  -29.4070   22.4900 C   0  0  0  0  0  0  0  0  0  0  0  0
  -21.4100  -29.1900   22.3280 N   0  0  0  0  0  0  0  0  0  0  0  0
  -23.4030  -28.8010   23.3240 O   0  0  0  0  0  0  0  0  0  0  0  0
  -20.9240  -29.7340   21.6290 H   0  0  0  0  0  0  0  0  0  0  0  0
  -18.0570  -27.9010   22.7300 C   0  0  0  0  0  0  0  0  0  0  0  0
  -20.5960  -28.2360   23.0810 C   0  0  0  0  0  3  0  0  0  0  0  0
  -20.7580  -26.8030   22.5220 C   0  0  0  0  0  2  0  0  0  0  0  0
  -19.7000  -26.4400   21.4760 C   0  0  0  0  0  2  0  0  0  0  0  0
  -18.2940  -26.5510   22.0730 C   0  0  0  0  0  2  0  0  0  0  0  0
  -19.1380  -28.6990   23.1890 C   0  0  0  0  0  0  0  0  0  0  0  0
  -18.8650  -29.9610   23.7590 C   0  0  0  0  0  3  0  0  0  0  0  0
  -17.5420  -30.4260   23.8760 C   0  0  0  0  0  3  0  0  0  0  0  0
  -16.4740  -29.6270   23.4350 C   0  0  0  0  0  3  0  0  0  0  0  0
  -16.7330  -28.3650   22.8680 C   0  0  0  0  0  3  0  0  0  0  0  0
  -25.8510  -32.4620   23.8330 C   0  0  0  0  0  3  0  0  0  0  0  0
  -25.5270  -33.8460   24.2010 N   0  0  0  0  0  0  0  0  0  0  0  0
  -25.8640  -34.9230   23.4780 C   0  0  0  0  0  0  0  0  0  0  0  0
  -26.5520  -34.8550   22.4550 O   0  0  0  0  0  0  0  0  0  0  0  0
  -24.9240  -33.9740   25.0000 H   0  0  0  0  0  0  0  0  0  0  0  0
  -24.1440  -36.7240   23.1260 C   0  0  0  0  0  1  0  0  0  0  0  0
  -25.3570  -36.2930   23.9660 C   0  0  0  0  0  3  0  0  0  0  0  0
  -27.4570  -37.1520   24.9040 C   0  0  0  0  0  1  0  0  0  0  0  0
  -26.3900  -37.3520   23.9270 N   0  0  0  0  0  0  0  0  0  0  0  0
  -25.9760  -38.2650   24.0900 H   0  0  0  0  0  0  0  0  0  0  0  0
  -26.3850  -31.6630   25.0850 C   0  0  1  0  0  0  0  0  0  0  0  0
  -25.2990  -31.3670   26.1460 C   0  0  0  0  0  1  0  0  0  0  0  0
  -26.9980  -30.3120   24.6480 C   0  0  0  0  0  1  0  0  0  0  0  0
  -27.5200  -32.4600   25.7700 C   0  0  0  0  0  1  0  0  0  0  0  0
  -31.1230  -16.4400   21.6210 C   0  0  0  0  0  2  0  0  0  0  0  0
  -30.8110  -14.4860   20.0840 C   0  0  0  0  0  0  0  0  0  0  0  0
  -30.3440  -12.4280   18.7930 C   0  0  0  0  0  2  0  0  0  0  0  0
  -29.3160  -12.6970   17.6790 C   0  0  0  0  0  2  0  0  0  0  0  0
  -27.8790  -12.5520   18.2140 C   0  0  0  0  0  2  0  0  0  0  0  0
  -27.6510  -13.3340   19.5350 C   0  0  0  0  0  3  0  0  0  0  0  0
  -28.7820  -13.0460   20.5470 C   0  0  0  0  0  2  0  0  0  0  0  0
  -30.0680  -13.3590   19.8980 N   0  0  0  0  0  0  0  0  0  0  0  0
  -31.8470  -14.7130   19.4560 O   0  0  0  0  0  0  0  0  0  0  0  0
  -30.3490  -15.3510   21.0020 N   0  0  0  0  0  0  0  0  0  0  0  0
  -29.4810  -15.1010   21.4480 H   0  0  0  0  0  0  0  0  0  0  0  0
  -25.3100  -13.9370   20.4170 C   0  0  0  0  0  0  0  0  0  0  0  0
  -24.2660  -13.1620   20.8450 C   0  0  0  0  0  0  0  0  0  0  0  0
  -24.7160  -11.8090   20.7560 C   0  0  0  0  0  0  0  0  0  0  0  0
  -26.3330  -13.0560   20.1000 N   0  0  0  0  0  0  0  0  0  0  0  0
  -25.9810  -11.7690   20.3600 N   0  0  0  0  0  0  0  0  0  0  0  0
  -23.9970  -10.5470   20.9710 C   0  0  0  0  0  0  0  0  0  0  0  0
  -24.4470   -9.5900   21.9060 C   0  0  0  0  0  3  0  0  0  0  0  0
  -23.7270   -8.3910   22.1080 C   0  0  0  0  0  3  0  0  0  0  0  0
  -22.5430   -8.1420   21.3730 C   0  0  0  0  0  0  0  0  0  0  0  0
  -22.1130   -9.0880   20.4260 C   0  0  0  0  0  3  0  0  0  0  0  0
  -22.8330  -10.2770   20.2220 C   0  0  0  0  0  3  0  0  0  0  0  0
  -21.7950   -6.9960   21.4830 O   0  0  0  0  0  0  0  0  0  0  0  0
  -21.7190   -6.2970   22.6620 C   0  0  0  0  0  0  0  0  0  0  0  0
  -21.2270   -6.8860   23.8480 C   0  0  0  0  0  3  0  0  0  0  0  0
  -21.1000   -6.1120   25.0180 C   0  0  0  0  0  3  0  0  0  0  0  0
  -21.4540   -4.7490   25.0030 C   0  0  0  0  0  0  0  0  0  0  0  0
  -21.9370   -4.1590   23.8230 C   0  0  0  0  0  3  0  0  0  0  0  0
  -22.0660   -4.9310   22.6540 C   0  0  0  0  0  0  0  0  0  0  0  0
  -22.5130   -4.3530   21.5130 F   0  0  0  0  0  0  0  0  0  0  0  0
  -21.3250   -4.0030   26.1240 F   0  0  0  0  0  0  0  0  0  0  0  0
  -22.8930  -13.6400   21.2220 C   0  0  0  0  0  0  0  0  0  0  0  0
  -22.2240  -12.9320   22.1250 N   0  0  0  0  0  0  0  0  0  0  0  0
  -22.4250  -14.6760   20.7520 O   0  0  0  0  0  0  0  0  0  0  0  0
  -22.6150  -12.0920   22.5250 H   0  0  0  0  0  0  0  0  0  0  0  0
  -21.3050  -13.2320   22.4180 H   0  0  0  0  0  0  0  0  0  0  0  0
  -25.4690  -15.3090   20.2520 N   0  0  0  0  0  0  0  0  0  0  0  0
  -24.7100  -15.9620   20.4130 H   0  0  0  0  0  0  0  0  0  0  0  0
  -26.2860  -15.7440   19.8440 H   0  0  0  0  0  0  0  0  0  0  0  0
  1  3  1  0
  2  6  2  0
  3  7  1  0
  3  4  2  0
  4 56  1  0
  5  1  2  0
  5  2  1  0
  6  4  1  0
  6  8  1  0
  9 11  1  0
  9 10  1  0
  9  5  1  0
 12 11  1  0
 12 13  2  0
 14 15  1  0
 14 12  1  0
 16 27  2  0
 17 15  1  0
 17 22  1  0
 18 26  1  0
 18 28  1  0
 19 25  1  0
 19 21  1  0
 20 26  1  0
 21 20  1  0
 22 21  2  0
 23 24  1  0
 23 17  2  0
 24 19  2  0
 25 18  1  0
 26 16  1  0
 28 30  2  0
 29 28  1  0
 31 29  1  0
 32 41  2  0
 32 37  1  0
 33 29  1  0
 33 37  1  0
 34 33  1  0
 35 36  1  0
 35 34  1  0
 36 32  1  0
 37 38  2  0
 38 39  1  0
 40 39  2  0
 41 40  1  0
 42 16  1  0
 42 43  1  0
 42 52  1  0
 43 46  1  0
 44 48  1  0
 44 43  1  0
 45 44  2  0
 48 47  1  0
 50 48  1  0
 50 51  1  0
 50 49  1  0
 52 55  1  1
 52 53  1  0
 54 52  1  0
 57 65  1  0
 58 63  1  0
 59 60  1  0
 59 58  1  0
 61 60  1  0
 61 70  1  0
 61 62  1  0
 63 57  1  0
 63 62  1  0
 64 57  2  0
 65 66  1  0
 65 56  1  0
 67 68  2  0
 68 87  1  0
 69 68  1  0
 69 72  1  0
 70 71  1  0
 70 67  1  0
 71 69  2  0
 72 73  1  0
 73 74  2  0
 75 78  1  0
 75 74  1  0
 76 75  2  0
 77 76  1  0
 77 72  2  0
 78 79  1  0
 79 80  1  0
 80 81  2  0
 82 81  1  0
 82 86  1  0
 83 82  2  0
 84 79  2  0
 84 83  1  0
 85 84  1  0
 87 88  1  0
 88 91  1  0
 88 90  1  0
 89 87  2  0
 92 93  1  0
 92 67  1  0
 94 92  1  0
M  ISO  4  14 101  15 101  57 100  65 100
M  END
>  <TORSDO>  (1) 
F 21

>  <SCORE>  (1) 
-12.937

>  <name>  (1) 
0

>  <ligand_id>  (1) 
0

>  <original_smiles>  (1) 
[H]c1c([H])c([H])c2c(c1[H])C([H])([H])C([H])([H])C([H])([H])C2([H])N([H])C(=O)C1([H])N(C(=O)C([H])(N([H])C(=O)C([H])(N([H])C([H])([H])[H])C([H])([H])[H])C(C([H])([H])[H])(C([H])([H])[H])C([H])([H])[H])C([H])([H])c2c([H])c(OC([H])([H])C(=O)C([H])([H])N([H])c3c([H])c(F)c(C([H])([H])N([H])C(=O)N4C([H])([H])C([H])([H])C([H])([H])C([H])(n5nc(-c6c([H])c([H])c(Oc7c([H])c([H])c(F)c([H])c7F)c([H])c6[H])c(C(=O)N([H])[H])c5N([H])[H])C4([H])[H])c(C([H])([H])[H])c3[H])c([H])c([H])c2C1([H])[H]

>  <smiles>  (1) 
[H]c1c([H])c([H])c2c(c1[H])C([H])([H])C([H])([H])C([H])([H])C2([H])N([H])C(=O)C1([H])N(C(=O)C([H])(N([H])C(=O)C([H])(N([H])C([H])([H])[H])C([H])([H])[H])C(C([H])([H])[H])(C([H])([H])[H])C([H])([H])[H])C([H])([H])c2c([H])c(OC([H])([H])C(=O)C([H])([H])N([H])c3c([H])c(F)c(C([H])([H])N([H])C(=O)N4C([H])([H])C([H])([H])C([H])([H])C([H])(n5nc(-c6c([H])c([H])c(Oc7c([H])c([H])c(F)c([H])c7F)c([H])c6[H])c(C(=O)N([H])[H])c5N([H])[H])C4([H])[H])c(C([H])([H])[H])c3[H])c([H])c([H])c2C1([H])[H]

$$$$
1:0:0
     RDKit          3D

 92100  0  0  1  0  0  0  0  0999 V2000
  -29.2080  -20.6020   21.2500 N   0  0  0  0  0  0  0  0  0  0  0  0
  -29.3160  -20.9320   22.2070 H   0  0  0  0  0  0  0  0  0  0  0  0
  -29.5650  -17.1390   19.7900 C   0  0  0  0  0  3  0  0  0  0  0  0
  -29.1930  -18.5020   19.9010 C   0  0  0  0  0  3  0  0  0  0  0  0
  -30.6240  -17.2500   21.9680 C   0  0  0  0  0  3  0  0  0  0  0  0
  -30.3070  -16.4880   20.8160 C   0  0  0  0  0  0  0  0  0  0  0  0
  -29.5360  -19.2480   21.0500 C   0  0  0  0  0  0  0  0  0  0  0  0
  -30.2450  -18.6010   22.0840 C   0  0  0  0  0  0  0  0  0  0  0  0
  -30.5740  -19.2940   23.2040 F   0  0  0  0  0  0  0  0  0  0  0  0
  -30.9220  -14.4330   19.5660 C   0  0  0  0  0  0  0  0  0  0  0  0
  -30.3090  -12.4410   18.2280 C   0  0  0  0  0  2  0  0  0  0  0  0
  -29.1780  -12.7430   17.2280 C   0  0  0  0  0  2  0  0  0  0  0  0
  -27.8010  -12.5690   17.8950 C   0  0  0  0  0  2  0  0  0  0  0  0
  -27.7010  -13.3190   19.2490 C   0  0  0  0  0  3  0  0  0  0  0  0
  -28.9180  -13.0040   20.1440 C   0  0  0  0  0  2  0  0  0  0  0  0
  -30.1480  -13.3240   19.3950 N   0  0  0  0  0  0  0  0  0  0  0  0
  -31.7970  -14.7690   18.7600 O   0  0  0  0  0  0  0  0  0  0  0  0
  -31.3060  -14.4650   21.9300 C   0  0  0  0  0  1  0  0  0  0  0  0
  -30.7480  -15.1090   20.7290 N   0  0  0  0  0  0  0  0  0  0  0  0
  -25.4800  -13.8970   20.4140 C   0  0  0  0  0  0  0  0  0  0  0  0
  -24.4680  -13.1110   20.8980 C   0  0  0  0  0  0  0  0  0  0  0  0
  -24.8760  -11.7610   20.6740 C   0  0  0  0  0  0  0  0  0  0  0  0
  -26.4420  -13.0240   19.9310 N   0  0  0  0  0  0  0  0  0  0  0  0
  -26.0920  -11.7290   20.1410 N   0  0  0  0  0  0  0  0  0  0  0  0
  -24.1570  -10.4980   20.8830 C   0  0  0  0  0  0  0  0  0  0  0  0
  -24.6230   -9.5230   21.7930 C   0  0  0  0  0  3  0  0  0  0  0  0
  -23.9040   -8.3250   21.9890 C   0  0  0  0  0  3  0  0  0  0  0  0
  -22.7050   -8.0910   21.2760 C   0  0  0  0  0  0  0  0  0  0  0  0
  -22.2580   -9.0540   20.3540 C   0  0  0  0  0  3  0  0  0  0  0  0
  -22.9770  -10.2440   20.1560 C   0  0  0  0  0  3  0  0  0  0  0  0
  -21.9540   -6.9460   21.3820 O   0  0  0  0  0  0  0  0  0  0  0  0
  -21.8140   -6.2850   22.5760 C   0  0  0  0  0  0  0  0  0  0  0  0
  -21.2840   -6.9190   23.7210 C   0  0  0  0  0  3  0  0  0  0  0  0
  -21.0940   -6.1840   24.9080 C   0  0  0  0  0  3  0  0  0  0  0  0
  -21.4230   -4.8160   24.9510 C   0  0  0  0  0  0  0  0  0  0  0  0
  -21.9450   -4.1820   23.8100 C   0  0  0  0  0  3  0  0  0  0  0  0
  -22.1380   -4.9140   22.6250 C   0  0  0  0  0  0  0  0  0  0  0  0
  -22.6220   -4.2930   21.5220 F   0  0  0  0  0  0  0  0  0  0  0  0
  -21.2320   -4.1070   26.0880 F   0  0  0  0  0  0  0  0  0  0  0  0
  -23.1550  -13.5830   21.4510 C   0  0  0  0  0  0  0  0  0  0  0  0
  -22.5950  -12.8520   22.4090 N   0  0  0  0  0  0  0  0  0  0  0  0
  -22.6400  -14.6350   21.0700 O   0  0  0  0  0  0  0  0  0  0  0  0
  -23.0280  -12.0020   22.7370 H   0  0  0  0  0  0  0  0  0  0  0  0
  -21.7210  -13.1480   22.8200 H   0  0  0  0  0  0  0  0  0  0  0  0
  -25.6540  -15.2750   20.3250 N   0  0  0  0  0  0  0  0  0  0  0  0
  -24.9440  -15.9330   20.6270 H   0  0  0  0  0  0  0  0  0  0  0  0
  -26.4600  -15.7260   19.9100 H   0  0  0  0  0  0  0  0  0  0  0  0
  -29.1160  -21.6090   20.1940 C   0  0  0  0  0  2  0  0  0  0  0  0
  -28.9260  -23.0110   20.8230 C   0  0  0  0  0  2  0  0  0  0  0  0
  -28.8440  -24.2100   19.8480 C   0  0  0  0  0  2  0  0  0  0  0  0
  -28.5880  -25.5390   20.6000 C   0  0  0  0  0  2  0  0  0  0  0  0
  -28.5660  -26.6950   19.7490 O   0  0  0  0  0  0  0  0  0  0  0  0
  -24.6080  -31.6510   22.9960 C   0  0  0  0  0  0  0  0  0  0  0  0
  -27.3820  -27.3940   19.7830 C   0  0  0  0  0  0  0  0  0  0  0  0
  -23.4310  -30.2280   21.3500 C   0  0  0  0  0  3  0  0  0  0  0  0
  -24.9230  -28.7810   19.8690 C   0  0  0  0  0  0  0  0  0  0  0  0
  -25.9320  -30.7050   21.1090 C   0  0  0  0  0  2  0  0  0  0  0  0
  -26.0680  -29.3510   20.4410 C   0  0  0  0  0  0  0  0  0  0  0  0
  -27.3030  -28.6660   20.3930 C   0  0  0  0  0  3  0  0  0  0  0  0
  -26.2230  -26.8320   19.2090 C   0  0  0  0  0  3  0  0  0  0  0  0
  -24.9950  -27.5200   19.2490 C   0  0  0  0  0  3  0  0  0  0  0  0
  -23.6420  -29.5800   19.9540 C   0  0  0  0  0  2  0  0  0  0  0  0
  -24.6750  -30.8760   21.8770 N   0  0  0  0  0  0  0  0  0  0  0  0
  -23.5260  -31.8660   23.5620 O   0  0  0  0  0  0  0  0  0  0  0  0
  -22.8430  -29.1630   22.3040 C   0  0  0  0  0  0  0  0  0  0  0  0
  -21.5360  -28.8890   22.1620 N   0  0  0  0  0  0  0  0  0  0  0  0
  -23.5610  -28.5850   23.1240 O   0  0  0  0  0  0  0  0  0  0  0  0
  -21.0160  -29.4110   21.4720 H   0  0  0  0  0  0  0  0  0  0  0  0
  -18.2560  -27.4390   22.5960 C   0  0  0  0  0  0  0  0  0  0  0  0
  -20.7790  -27.8950   22.9220 C   0  0  0  0  0  3  0  0  0  0  0  0
  -21.0040  -26.4730   22.3580 C   0  0  0  0  0  2  0  0  0  0  0  0
  -19.9530  -26.0610   21.3230 C   0  0  0  0  0  2  0  0  0  0  0  0
  -18.5510  -26.1030   21.9360 C   0  0  0  0  0  2  0  0  0  0  0  0
  -19.3030  -28.2880   23.0460 C   0  0  0  0  0  0  0  0  0  0  0  0
  -18.9750  -29.5350   23.6200 C   0  0  0  0  0  3  0  0  0  0  0  0
  -17.6320  -29.9360   23.7540 C   0  0  0  0  0  3  0  0  0  0  0  0
  -16.5990  -29.0850   23.3230 C   0  0  0  0  0  3  0  0  0  0  0  0
  -16.9120  -27.8390   22.7500 C   0  0  0  0  0  3  0  0  0  0  0  0
  -25.8770  -32.3250   23.6030 C   0  0  0  0  0  3  0  0  0  0  0  0
  -25.4990  -33.6790   24.0290 N   0  0  0  0  0  0  0  0  0  0  0  0
  -25.7410  -34.7930   23.3220 C   0  0  0  0  0  0  0  0  0  0  0  0
  -26.3770  -34.7900   22.2650 O   0  0  0  0  0  0  0  0  0  0  0  0
  -24.9280  -33.7500   24.8560 H   0  0  0  0  0  0  0  0  0  0  0  0
  -23.8920  -36.4860   23.1380 C   0  0  0  0  0  1  0  0  0  0  0  0
  -25.1870  -36.1180   23.8780 C   0  0  0  0  0  3  0  0  0  0  0  0
  -27.3010  -37.0840   24.6710 C   0  0  0  0  0  1  0  0  0  0  0  0
  -26.1480  -37.2400   23.7900 N   0  0  0  0  0  0  0  0  0  0  0  0
  -25.6920  -38.1210   24.0170 H   0  0  0  0  0  0  0  0  0  0  0  0
  -26.4970  -31.5140   24.8080 C   0  0  1  0  0  0  0  0  0  0  0  0
  -25.4600  -31.1020   25.8770 C   0  0  0  0  0  1  0  0  0  0  0  0
  -27.1890  -30.2270   24.2990 C   0  0  0  0  0  1  0  0  0  0  0  0
  -27.5900  -32.3600   25.5030 C   0  0  0  0  0  1  0  0  0  0  0  0
  1  2  1  0
  3  4  2  0
  3  6  1  0
  4  7  1  0
  5  8  1  0
  6  5  2  0
  7  1  1  0
  7  8  2  0
  8  9  1  0
 10 19  1  0
 11 16  1  0
 12 13  1  0
 12 11  1  0
 14 13  1  0
 14 23  1  0
 14 15  1  0
 16 10  1  0
 16 15  1  0
 17 10  2  0
 19  6  1  0
 19 18  1  0
 20 21  2  0
 21 40  1  0
 22 25  1  0
 22 21  1  0
 23 24  1  0
 23 20  1  0
 24 22  2  0
 25 26  1  0
 26 27  2  0
 28 31  1  0
 28 27  1  0
 29 28  2  0
 30 29  1  0
 30 25  2  0
 31 32  1  0
 32 37  2  0
 32 33  1  0
 33 34  2  0
 34 35  1  0
 35 39  1  0
 36 35  2  0
 37 36  1  0
 38 37  1  0
 40 41  1  0
 41 43  1  0
 41 44  1  0
 42 40  2  0
 45 20  1  0
 45 46  1  0
 47 45  1  0
 48 49  1  0
 48  1  1  0
 50 51  1  0
 50 49  1  0
 52 54  1  0
 52 51  1  0
 53 64  2  0
 54 59  1  0
 55 63  1  0
 55 65  1  0
 56 62  1  0
 56 58  1  0
 57 63  1  0
 58 57  1  0
 59 58  2  0
 60 61  1  0
 60 54  2  0
 61 56  2  0
 62 55  1  0
 63 53  1  0
 65 67  2  0
 66 65  1  0
 68 66  1  0
 69 78  2  0
 69 74  1  0
 70 66  1  0
 70 74  1  0
 71 70  1  0
 72 73  1  0
 72 71  1  0
 73 69  1  0
 74 75  2  0
 75 76  1  0
 77 76  2  0
 78 77  1  0
 79 53  1  0
 79 80  1  0
 79 89  1  0
 80 83  1  0
 81 85  1  0
 81 80  1  0
 82 81  2  0
 85 84  1  0
 87 85  1  0
 87 88  1  0
 87 86  1  0
 89 92  1  1
 89 90  1  0
 91 89  1  0
M  ISO  4  10 100  19 100  51 101  52 101
M  END
>  <TORSDO>  (2) 
F 21

>  <SCORE>  (2) 
-10.902

>  <name>  (2) 
1

>  <ligand_id>  (2) 
1

>  <original_smiles>  (2) 
[H]c1c([H])c([H])c2c(c1[H])C([H])([H])C([H])([H])C([H])([H])C2([H])N([H])C(=O)C1([H])N(C(=O)C([H])(N([H])C(=O)C([H])(N([H])C([H])([H])[H])C([H])([H])[H])C(C([H])([H])[H])(C([H])([H])[H])C([H])([H])[H])C([H])([H])c2c([H])c(OC([H])([H])C([H])([H])C([H])([H])C([H])([H])N([H])c3c([H])c([H])c(N(C(=O)N4C([H])([H])C([H])([H])C([H])([H])C([H])(n5nc(-c6c([H])c([H])c(Oc7c([H])c([H])c(F)c([H])c7F)c([H])c6[H])c(C(=O)N([H])[H])c5N([H])[H])C4([H])[H])C([H])([H])[H])c([H])c3F)c([H])c([H])c2C1([H])[H]

>  <smiles>  (2) 
[H]c1c([H])c([H])c2c(c1[H])C([H])([H])C([H])([H])C([H])([H])C2([H])N([H])C(=O)C1([H])N(C(=O)C([H])(N([H])C(=O)C([H])(N([H])C([H])([H])[H])C([H])([H])[H])C(C([H])([H])[H])(C([H])([H])[H])C([H])([H])[H])C([H])([H])c2c([H])c(OC([H])([H])C([H])([H])C([H])([H])C([H])([H])N([H])c3c([H])c([H])c(N(C(=O)N4C([H])([H])C([H])([H])C([H])([H])C([H])(n5nc(-c6c([H])c([H])c(Oc7c([H])c([H])c(F)c([H])c7F)c([H])c6[H])c(C(=O)N([H])[H])c5N([H])[H])C4([H])[H])C([H])([H])[H])c([H])c3F)c([H])c([H])c2C1([H])[H]

$$$$
2:0:0
     RDKit          3D

 94102  0  0  1  0  0  0  0  0999 V2000
  -30.5600  -18.0400   21.6980 C   0  0  0  0  0  3  0  0  0  0  0  0
  -30.4660  -19.3930   21.3070 C   0  0  0  0  0  3  0  0  0  0  0  0
  -29.7130  -17.3460   19.5370 C   0  0  0  0  0  3  0  0  0  0  0  0
  -30.2010  -16.9910   20.8180 C   0  0  0  0  0  0  0  0  0  0  0  0
  -29.9990  -19.7360   20.0180 C   0  0  0  0  0  0  0  0  0  0  0  0
  -29.6050  -18.7030   19.1310 C   0  0  0  0  0  0  0  0  0  0  0  0
  -30.2960  -15.5600   21.2580 C   0  0  0  0  0  0  0  0  0  0  0  0
  -30.0920  -15.2300   22.4680 N   0  0  0  0  0  0  0  0  0  0  0  0
  -29.8340  -16.0350   23.0250 H   0  0  0  0  0  0  0  0  0  0  0  0
  -30.7460  -14.5640   20.1850 C   0  0  0  0  0  0  0  0  0  0  0  0
  -30.2890  -12.5260   18.8690 C   0  0  0  0  0  2  0  0  0  0  0  0
  -29.2820  -12.8370   17.7430 C   0  0  0  0  0  2  0  0  0  0  0  0
  -27.8320  -12.6900   18.2460 C   0  0  0  0  0  2  0  0  0  0  0  0
  -27.5940  -13.4360   19.5850 C   0  0  0  0  0  3  0  0  0  0  0  0
  -28.7020  -13.0980   20.6040 C   0  0  0  0  0  2  0  0  0  0  0  0
  -30.0080  -13.4270   20.0010 N   0  0  0  0  0  0  0  0  0  0  0  0
  -31.7500  -14.8260   19.5120 O   0  0  0  0  0  0  0  0  0  0  0  0
  -25.2360  -14.0360   20.4270 C   0  0  0  0  0  0  0  0  0  0  0  0
  -24.1870  -13.2590   20.8390 C   0  0  0  0  0  0  0  0  0  0  0  0
  -24.6410  -11.9070   20.7570 C   0  0  0  0  0  0  0  0  0  0  0  0
  -26.2640  -13.1560   20.1250 N   0  0  0  0  0  0  0  0  0  0  0  0
  -25.9130  -11.8710   20.3770 N   0  0  0  0  0  0  0  0  0  0  0  0
  -23.9240  -10.6440   20.9640 C   0  0  0  0  0  0  0  0  0  0  0  0
  -24.3920   -9.6680   21.8720 C   0  0  0  0  0  3  0  0  0  0  0  0
  -23.6750   -8.4680   22.0670 C   0  0  0  0  0  3  0  0  0  0  0  0
  -22.4760   -8.2340   21.3520 C   0  0  0  0  0  0  0  0  0  0  0  0
  -22.0260   -9.1990   20.4330 C   0  0  0  0  0  3  0  0  0  0  0  0
  -22.7430  -10.3900   20.2370 C   0  0  0  0  0  3  0  0  0  0  0  0
  -21.7270   -7.0880   21.4570 O   0  0  0  0  0  0  0  0  0  0  0  0
  -21.7060   -6.3440   22.6100 C   0  0  0  0  0  0  0  0  0  0  0  0
  -21.3220   -6.9010   23.8490 C   0  0  0  0  0  3  0  0  0  0  0  0
  -21.2480   -6.0850   24.9960 C   0  0  0  0  0  3  0  0  0  0  0  0
  -21.5470   -4.7120   24.9040 C   0  0  0  0  0  0  0  0  0  0  0  0
  -21.9240   -4.1540   23.6690 C   0  0  0  0  0  3  0  0  0  0  0  0
  -22.0000   -4.9680   22.5250 C   0  0  0  0  0  0  0  0  0  0  0  0
  -22.3430   -4.4220   21.3340 F   0  0  0  0  0  0  0  0  0  0  0  0
  -21.4680   -3.9260   26.0020 F   0  0  0  0  0  0  0  0  0  0  0  0
  -22.8080  -13.7330   21.1970 C   0  0  0  0  0  0  0  0  0  0  0  0
  -22.1300  -13.0250   22.0920 N   0  0  0  0  0  0  0  0  0  0  0  0
  -22.3430  -14.7670   20.7200 O   0  0  0  0  0  0  0  0  0  0  0  0
  -22.5190  -12.1870   22.5000 H   0  0  0  0  0  0  0  0  0  0  0  0
  -21.2070  -13.3230   22.3740 H   0  0  0  0  0  0  0  0  0  0  0  0
  -25.3950  -15.4090   20.2690 N   0  0  0  0  0  0  0  0  0  0  0  0
  -24.6380  -16.0620   20.4430 H   0  0  0  0  0  0  0  0  0  0  0  0
  -26.2370  -15.8600   19.9360 H   0  0  0  0  0  0  0  0  0  0  0  0
  -29.9230  -21.0590   19.5440 N   0  0  0  0  0  0  0  0  0  0  0  0
  -29.5190  -21.1350   18.6130 H   0  0  0  0  0  0  0  0  0  0  0  0
  -29.8090  -22.2390   20.4070 C   0  0  0  0  0  2  0  0  0  0  0  0
  -30.3380  -23.4970   19.6810 C   0  0  0  0  0  2  0  0  0  0  0  0
  -30.0660  -24.8550   20.3750 C   0  0  0  0  0  2  0  0  0  0  0  0
  -28.7310  -25.5240   19.9850 C   0  0  0  0  0  2  0  0  0  0  0  0
  -28.7040  -26.8960   20.4010 O   0  0  0  0  0  0  0  0  0  0  0  0
  -24.6920  -31.9980   23.3290 C   0  0  0  0  0  0  0  0  0  0  0  0
  -27.5020  -27.5790   20.3480 C   0  0  0  0  0  0  0  0  0  0  0  0
  -23.5510  -30.5490   21.6830 C   0  0  0  0  0  3  0  0  0  0  0  0
  -25.0670  -29.0310   20.3040 C   0  0  0  0  0  0  0  0  0  0  0  0
  -26.0730  -30.9630   21.5290 C   0  0  0  0  0  2  0  0  0  0  0  0
  -26.2010  -29.5880   20.9060 C   0  0  0  0  0  0  0  0  0  0  0  0
  -27.4200  -28.8680   20.9250 C   0  0  0  0  0  3  0  0  0  0  0  0
  -26.3420  -27.0380   19.7420 C   0  0  0  0  0  3  0  0  0  0  0  0
  -25.1320  -27.7550   19.7210 C   0  0  0  0  0  3  0  0  0  0  0  0
  -23.8010  -29.8580   20.3170 C   0  0  0  0  0  2  0  0  0  0  0  0
  -24.7890  -31.1860   22.2390 N   0  0  0  0  0  0  0  0  0  0  0  0
  -23.5930  -32.2510   23.8440 O   0  0  0  0  0  0  0  0  0  0  0  0
  -22.9070  -29.5230   22.6420 C   0  0  0  0  0  0  0  0  0  0  0  0
  -21.5960  -29.2840   22.4700 N   0  0  0  0  0  0  0  0  0  0  0  0
  -23.5820  -28.9430   23.4950 O   0  0  0  0  0  0  0  0  0  0  0  0
  -21.1110  -29.8040   21.7530 H   0  0  0  0  0  0  0  0  0  0  0  0
  -18.2600  -27.9510   22.8550 C   0  0  0  0  0  0  0  0  0  0  0  0
  -20.7880  -28.3320   23.2310 C   0  0  0  0  0  3  0  0  0  0  0  0
  -20.9800  -26.8920   22.7020 C   0  0  0  0  0  2  0  0  0  0  0  0
  -19.9400  -26.4920   21.6500 C   0  0  0  0  0  2  0  0  0  0  0  0
  -18.5250  -26.5930   22.2280 C   0  0  0  0  0  2  0  0  0  0  0  0
  -19.3230  -28.7750   23.3100 C   0  0  0  0  0  0  0  0  0  0  0  0
  -19.0230  -30.0440   23.8520 C   0  0  0  0  0  3  0  0  0  0  0  0
  -17.6910  -30.4900   23.9440 C   0  0  0  0  0  3  0  0  0  0  0  0
  -16.6410  -29.6640   23.5070 C   0  0  0  0  0  3  0  0  0  0  0  0
  -16.9260  -28.3970   22.9670 C   0  0  0  0  0  3  0  0  0  0  0  0
  -25.9510  -32.6650   23.9660 C   0  0  0  0  0  3  0  0  0  0  0  0
  -25.6180  -34.0710   24.2330 N   0  0  0  0  0  0  0  0  0  0  0  0
  -25.9610  -35.0970   23.4440 C   0  0  0  0  0  0  0  0  0  0  0  0
  -26.6620  -34.9630   22.4370 O   0  0  0  0  0  0  0  0  0  0  0  0
  -24.9990  -34.2490   25.0100 H   0  0  0  0  0  0  0  0  0  0  0  0
  -24.2150  -36.8460   22.9790 C   0  0  0  0  0  1  0  0  0  0  0  0
  -25.4430  -36.4960   23.8330 C   0  0  0  0  0  3  0  0  0  0  0  0
  -27.5480  -37.4440   24.6720 C   0  0  0  0  0  1  0  0  0  0  0  0
  -26.4640  -37.5580   23.6990 N   0  0  0  0  0  0  0  0  0  0  0  0
  -26.0420  -38.4770   23.8010 H   0  0  0  0  0  0  0  0  0  0  0  0
  -26.4400  -31.9460   25.2830 C   0  0  1  0  0  0  0  0  0  0  0  0
  -25.3140  -31.7100   26.3160 C   0  0  0  0  0  1  0  0  0  0  0  0
  -27.0740  -30.5740   24.9540 C   0  0  0  0  0  1  0  0  0  0  0  0
  -27.5440  -32.7910   25.9610 C   0  0  0  0  0  1  0  0  0  0  0  0
  -28.5560  -18.1000   17.0500 C   0  0  0  0  0  1  0  0  0  0  0  0
  -29.1280  -19.0910   17.8940 O   0  0  0  0  0  0  0  0  0  0  0  0
  2  1  1  0
  3  4  1  0
  4  7  1  0
  4  1  2  0
  5  2  2  0
  6  3  2  0
  6  5  1  0
  7  8  2  0
  8  9  1  0
 10  7  1  0
 11 16  1  0
 12 13  1  0
 12 11  1  0
 14 13  1  0
 14 21  1  0
 14 15  1  0
 16 10  1  0
 16 15  1  0
 17 10  2  0
 18 19  2  0
 19 38  1  0
 20 19  1  0
 20 23  1  0
 21 22  1  0
 21 18  1  0
 22 20  2  0
 23 24  1  0
 24 25  2  0
 26 29  1  0
 26 25  1  0
 27 26  2  0
 28 27  1  0
 28 23  2  0
 29 30  1  0
 30 31  1  0
 31 32  2  0
 33 32  1  0
 33 37  1  0
 34 33  2  0
 35 30  2  0
 35 34  1  0
 36 35  1  0
 38 39  1  0
 39 42  1  0
 39 41  1  0
 40 38  2  0
 43 18  1  0
 43 44  1  0
 45 43  1  0
 46  5  1  0
 46 48  1  0
 47 46  1  0
 49 50  1  0
 49 48  1  0
 51 50  1  0
 51 52  1  0
 53 64  2  0
 54 52  1  0
 54 59  1  0
 55 63  1  0
 55 65  1  0
 56 62  1  0
 56 58  1  0
 57 63  1  0
 58 59  2  0
 58 57  1  0
 60 54  2  0
 61 60  1  0
 61 56  2  0
 62 55  1  0
 63 53  1  0
 65 67  2  0
 66 65  1  0
 68 66  1  0
 69 78  2  0
 69 74  1  0
 70 66  1  0
 70 74  1  0
 71 70  1  0
 72 73  1  0
 72 71  1  0
 73 69  1  0
 74 75  2  0
 75 76  1  0
 77 76  2  0
 78 77  1  0
 79 53  1  0
 79 80  1  0
 79 89  1  0
 80 83  1  0
 81 85  1  0
 81 80  1  0
 82 81  2  0
 85 84  1  0
 87 88  1  0
 87 85  1  0
 87 86  1  0
 89 92  1  1
 89 90  1  0
 91 89  1  0
 93 94  1  0
 94  6  1  0
M  ISO  4   7 100  10 100  51 101  52 101
M  END
>  <TORSDO>  (3) 
F 23

>  <SCORE>  (3) 
-11.664

>  <name>  (3) 
2

>  <ligand_id>  (3) 
2

>  <original_smiles>  (3) 
[H]N=C(C(=O)N1C([H])([H])C([H])([H])C([H])([H])C([H])(n2nc(-c3c([H])c([H])c(Oc4c([H])c([H])c(F)c([H])c4F)c([H])c3[H])c(C(=O)N([H])[H])c2N([H])[H])C1([H])[H])c1c([H])c([H])c(N([H])C([H])([H])C([H])([H])C([H])([H])C([H])([H])Oc2c([H])c([H])c3c(c2[H])C([H])([H])N(C(=O)C([H])(N([H])C(=O)C([H])(N([H])C([H])([H])[H])C([H])([H])[H])C(C([H])([H])[H])(C([H])([H])[H])C([H])([H])[H])C([H])(C(=O)N([H])C2([H])c4c([H])c([H])c([H])c([H])c4C([H])([H])C([H])([H])C2([H])[H])C3([H])[H])c(OC([H])([H])[H])c1[H]

>  <smiles>  (3) 
[H]N=C(C(=O)N1C([H])([H])C([H])([H])C([H])([H])C([H])(n2nc(-c3c([H])c([H])c(Oc4c([H])c([H])c(F)c([H])c4F)c([H])c3[H])c(C(=O)N([H])[H])c2N([H])[H])C1([H])[H])c1c([H])c([H])c(N([H])C([H])([H])C([H])([H])C([H])([H])C([H])([H])Oc2c([H])c([H])c3c(c2[H])C([H])([H])N(C(=O)C([H])(N([H])C(=O)C([H])(N([H])C([H])([H])[H])C([H])([H])[H])C(C([H])([H])[H])(C([H])([H])[H])C([H])([H])[H])C([H])(C(=O)N([H])C2([H])c4c([H])c([H])c([H])c([H])c4C([H])([H])C([H])([H])C2([H])[H])C3([H])[H])c(OC([H])([H])[H])c1[H]

$$$$
3:0:0
     RDKit          3D

 93101  0  0  1  0  0  0  0  0999 V2000
  -30.6180  -21.1960   21.7060 C   0  0  0  0  0  0  0  0  0  0  0  0
  -30.3700  -22.1540   20.7860 N   0  0  0  0  0  0  0  0  0  0  0  0
  -30.8490  -21.4910   22.8810 O   0  0  0  0  0  0  0  0  0  0  0  0
  -30.1090  -21.8870   19.8460 H   0  0  0  0  0  0  0  0  0  0  0  0
  -31.0350  -19.2040   20.1160 C   0  0  0  0  0  3  0  0  0  0  0  0
  -31.0830  -17.7980   19.8890 C   0  0  0  0  0  3  0  0  0  0  0  0
  -30.1300  -18.8080   22.3300 C   0  0  0  0  0  3  0  0  0  0  0  0
  -30.5560  -19.7260   21.3440 C   0  0  0  0  0  0  0  0  0  0  0  0
  -30.6440  -16.8910   20.8920 C   0  0  0  0  0  0  0  0  0  0  0  0
  -30.1680  -17.4190   22.1070 C   0  0  0  0  0  0  0  0  0  0  0  0
  -29.7480  -16.5760   23.0820 F   0  0  0  0  0  0  0  0  0  0  0  0
  -31.0810  -14.6060   19.8740 C   0  0  0  0  0  0  0  0  0  0  0  0
  -30.6370  -12.4960   18.6530 C   0  0  0  0  0  2  0  0  0  0  0  0
  -29.5850  -12.7760   17.5600 C   0  0  0  0  0  2  0  0  0  0  0  0
  -28.1570  -12.6300   18.1210 C   0  0  0  0  0  2  0  0  0  0  0  0
  -27.9610  -13.3980   19.4510 C   0  0  0  0  0  3  0  0  0  0  0  0
  -29.1170  -13.1100   20.4360 C   0  0  0  0  0  2  0  0  0  0  0  0
  -30.3950  -13.4290   19.7660 N   0  0  0  0  0  0  0  0  0  0  0  0
  -32.0810  -14.8640   19.1970 O   0  0  0  0  0  0  0  0  0  0  0  0
  -30.5890  -15.4630   20.7860 N   0  0  0  0  0  0  0  0  0  0  0  0
  -29.9410  -15.0390   21.4330 H   0  0  0  0  0  0  0  0  0  0  0  0
  -25.6460  -13.9880   20.4070 C   0  0  0  0  0  0  0  0  0  0  0  0
  -24.6090  -13.2070   20.8460 C   0  0  0  0  0  0  0  0  0  0  0  0
  -25.0530  -11.8560   20.7240 C   0  0  0  0  0  0  0  0  0  0  0  0
  -26.6560  -13.1100   20.0450 N   0  0  0  0  0  0  0  0  0  0  0  0
  -26.3060  -11.8200   20.2860 N   0  0  0  0  0  0  0  0  0  0  0  0
  -24.3360  -10.5930   20.9420 C   0  0  0  0  0  0  0  0  0  0  0  0
  -24.7570   -9.6650   21.9200 C   0  0  0  0  0  3  0  0  0  0  0  0
  -24.0420   -8.4660   22.1250 C   0  0  0  0  0  3  0  0  0  0  0  0
  -22.8900   -8.1850   21.3510 C   0  0  0  0  0  0  0  0  0  0  0  0
  -22.4880   -9.1020   20.3650 C   0  0  0  0  0  3  0  0  0  0  0  0
  -23.2060  -10.2920   20.1580 C   0  0  0  0  0  3  0  0  0  0  0  0
  -22.1470   -7.0350   21.4630 O   0  0  0  0  0  0  0  0  0  0  0  0
  -21.9410   -6.4250   22.6750 C   0  0  0  0  0  0  0  0  0  0  0  0
  -21.3450   -7.1050   23.7600 C   0  0  0  0  0  3  0  0  0  0  0  0
  -21.0880   -6.4210   24.9650 C   0  0  0  0  0  3  0  0  0  0  0  0
  -21.4160   -5.0570   25.0840 C   0  0  0  0  0  0  0  0  0  0  0  0
  -22.0050   -4.3770   24.0040 C   0  0  0  0  0  3  0  0  0  0  0  0
  -22.2650   -5.0600   22.8020 C   0  0  0  0  0  0  0  0  0  0  0  0
  -22.8110   -4.3940   21.7560 F   0  0  0  0  0  0  0  0  0  0  0  0
  -21.1630   -4.3960   26.2370 F   0  0  0  0  0  0  0  0  0  0  0  0
  -23.2500  -13.6830   21.2720 C   0  0  0  0  0  0  0  0  0  0  0  0
  -22.6190  -12.9820   22.2100 N   0  0  0  0  0  0  0  0  0  0  0  0
  -22.7560  -14.7100   20.8090 O   0  0  0  0  0  0  0  0  0  0  0  0
  -23.0340  -12.1540   22.6100 H   0  0  0  0  0  0  0  0  0  0  0  0
  -21.7110  -13.2840   22.5340 H   0  0  0  0  0  0  0  0  0  0  0  0
  -25.8070  -15.3650   20.2720 N   0  0  0  0  0  0  0  0  0  0  0  0
  -25.0740  -16.0230   20.5140 H   0  0  0  0  0  0  0  0  0  0  0  0
  -26.6700  -15.8180   19.9950 H   0  0  0  0  0  0  0  0  0  0  0  0
  -30.4240  -23.5910   21.1410 C   0  0  0  0  0  2  0  0  0  0  0  0
  -30.2360  -24.6240   19.9850 C   0  0  0  0  0  2  0  0  0  0  0  0
  -28.8290  -25.2840   19.8610 C   0  0  0  0  0  2  0  0  0  0  0  0
  -28.8410  -26.7310   19.8750 O   0  0  0  0  0  0  0  0  0  0  0  0
  -24.6180  -31.5180   23.0750 C   0  0  0  0  0  0  0  0  0  0  0  0
  -27.6130  -27.3830   19.8660 C   0  0  0  0  0  0  0  0  0  0  0  0
  -23.5380  -30.1100   21.3540 C   0  0  0  0  0  3  0  0  0  0  0  0
  -25.1140  -28.7370   19.8930 C   0  0  0  0  0  0  0  0  0  0  0  0
  -26.0380  -30.6430   21.2200 C   0  0  0  0  0  2  0  0  0  0  0  0
  -26.2270  -29.3100   20.5220 C   0  0  0  0  0  0  0  0  0  0  0  0
  -27.4770  -28.6440   20.4980 C   0  0  0  0  0  3  0  0  0  0  0  0
  -26.4730  -26.8280   19.2370 C   0  0  0  0  0  3  0  0  0  0  0  0
  -25.2340  -27.4960   19.2450 C   0  0  0  0  0  3  0  0  0  0  0  0
  -23.8160  -29.5100   19.9500 C   0  0  0  0  0  2  0  0  0  0  0  0
  -24.7470  -30.7720   21.9400 N   0  0  0  0  0  0  0  0  0  0  0  0
  -23.5110  -31.6960   23.6030 O   0  0  0  0  0  0  0  0  0  0  0  0
  -22.9390  -29.0090   22.2600 C   0  0  0  0  0  0  0  0  0  0  0  0
  -21.6380  -28.7260   22.0850 N   0  0  0  0  0  0  0  0  0  0  0  0
  -23.6440  -28.4140   23.0790 O   0  0  0  0  0  0  0  0  0  0  0  0
  -21.1240  -29.2660   21.4030 H   0  0  0  0  0  0  0  0  0  0  0  0
  -18.3600  -27.2390   22.4350 C   0  0  0  0  0  0  0  0  0  0  0  0
  -20.8790  -27.6990   22.7970 C   0  0  0  0  0  3  0  0  0  0  0  0
  -21.1180  -26.3010   22.1820 C   0  0  0  0  0  2  0  0  0  0  0  0
  -20.0770  -25.9220   21.1230 C   0  0  0  0  0  2  0  0  0  0  0  0
  -18.6700  -25.9310   21.7270 C   0  0  0  0  0  2  0  0  0  0  0  0
  -19.3980  -28.0760   22.9250 C   0  0  0  0  0  0  0  0  0  0  0  0
  -19.0560  -29.2950   23.5480 C   0  0  0  0  0  3  0  0  0  0  0  0
  -17.7100  -29.6840   23.6870 C   0  0  0  0  0  3  0  0  0  0  0  0
  -16.6860  -28.8460   23.2080 C   0  0  0  0  0  3  0  0  0  0  0  0
  -17.0120  -27.6250   22.5910 C   0  0  0  0  0  3  0  0  0  0  0  0
  -25.8490  -32.2070   23.7460 C   0  0  0  0  0  3  0  0  0  0  0  0
  -26.3900  -31.4270   25.0080 C   0  0  1  0  0  0  0  0  0  0  0  0
  -25.2890  -31.0600   26.0280 C   0  0  0  0  0  1  0  0  0  0  0  0
  -27.0990  -30.1190   24.5830 C   0  0  0  0  0  1  0  0  0  0  0  0
  -27.4490  -32.2850   25.7390 C   0  0  0  0  0  1  0  0  0  0  0  0
  -25.4460  -33.5730   24.1120 N   0  0  0  0  0  0  0  0  0  0  0  0
  -25.7190  -34.6660   23.3880 C   0  0  0  0  0  0  0  0  0  0  0  0
  -26.4080  -34.6370   22.3650 O   0  0  0  0  0  0  0  0  0  0  0  0
  -24.8400  -33.6670   24.9140 H   0  0  0  0  0  0  0  0  0  0  0  0
  -23.8770  -36.3470   23.0660 C   0  0  0  0  0  1  0  0  0  0  0  0
  -25.1360  -36.0060   23.8770 C   0  0  0  0  0  3  0  0  0  0  0  0
  -27.1990  -37.0120   24.7500 C   0  0  0  0  0  1  0  0  0  0  0  0
  -26.0960  -37.1280   23.7990 N   0  0  0  0  0  0  0  0  0  0  0  0
  -25.6270  -38.0150   23.9600 H   0  0  0  0  0  0  0  0  0  0  0  0
  1  3  2  0
  2 50  1  0
  2  1  1  0
  4  2  1  0
  5  8  1  0
  6  5  2  0
  6  9  1  0
  8  1  1  0
  8  7  2  0
  9 10  2  0
 10  7  1  0
 10 11  1  0
 12 20  1  0
 13 18  1  0
 14 15  1  0
 14 13  1  0
 16 15  1  0
 16 25  1  0
 16 17  1  0
 18 12  1  0
 18 17  1  0
 19 12  2  0
 20  9  1  0
 20 21  1  0
 22 23  2  0
 23 42  1  0
 24 23  1  0
 24 27  1  0
 25 26  1  0
 25 22  1  0
 26 24  2  0
 27 28  1  0
 28 29  2  0
 30 33  1  0
 30 29  1  0
 31 30  2  0
 32 31  1  0
 32 27  2  0
 33 34  1  0
 34 39  2  0
 34 35  1  0
 35 36  2  0
 36 37  1  0
 37 41  1  0
 38 37  2  0
 39 38  1  0
 40 39  1  0
 42 43  1  0
 43 46  1  0
 43 45  1  0
 44 42  2  0
 47 22  1  0
 47 48  1  0
 49 47  1  0
 51 50  1  0
 52 53  1  0
 52 51  1  0
 54 65  2  0
 55 53  1  0
 55 60  1  0
 56 64  1  0
 56 66  1  0
 57 63  1  0
 57 59  1  0
 58 64  1  0
 59 58  1  0
 60 59  2  0
 61 62  1  0
 61 55  2  0
 62 57  2  0
 63 56  1  0
 64 54  1  0
 66 68  2  0
 67 66  1  0
 69 67  1  0
 70 79  2  0
 70 75  1  0
 71 67  1  0
 71 75  1  0
 72 71  1  0
 73 74  1  0
 73 72  1  0
 74 70  1  0
 75 76  2  0
 76 77  1  0
 78 77  2  0
 79 78  1  0
 80 54  1  0
 80 85  1  0
 80 81  1  0
 81 84  1  1
 81 82  1  0
 83 81  1  0
 85 88  1  0
 86 90  1  0
 86 85  1  0
 87 86  2  0
 90 89  1  0
 92 90  1  0
 92 93  1  0
 92 91  1  0
M  ISO  4  12 100  20 100  52 101  53 101
M  END
>  <TORSDO>  (4) 
F 20

>  <SCORE>  (4) 
-11.077

>  <name>  (4) 
3

>  <ligand_id>  (4) 
3

>  <original_smiles>  (4) 
[H]c1c([H])c([H])c2c(c1[H])C([H])([H])C([H])([H])C([H])([H])C2([H])N([H])C(=O)C1([H])N(C(=O)C([H])(N([H])C(=O)C([H])(N([H])C([H])([H])[H])C([H])([H])[H])C(C([H])([H])[H])(C([H])([H])[H])C([H])([H])[H])C([H])([H])c2c([H])c(OC([H])([H])C([H])([H])C([H])([H])N([H])C(=O)c3c([H])c([H])c(N([H])C(=O)N4C([H])([H])C([H])([H])C([H])([H])C([H])(n5nc(-c6c([H])c([H])c(Oc7c([H])c([H])c(F)c([H])c7F)c([H])c6[H])c(C(=O)N([H])[H])c5N([H])[H])C4([H])[H])c(F)c3[H])c([H])c([H])c2C1([H])[H]

>  <smiles>  (4) 
[H]c1c([H])c([H])c2c(c1[H])C([H])([H])C([H])([H])C([H])([H])C2([H])N([H])C(=O)C1([H])N(C(=O)C([H])(N([H])C(=O)C([H])(N([H])C([H])([H])[H])C([H])([H])[H])C(C([H])([H])[H])(C([H])([H])[H])C([H])([H])[H])C([H])([H])c2c([H])c(OC([H])([H])C([H])([H])C([H])([H])N([H])C(=O)c3c([H])c([H])c(N([H])C(=O)N4C([H])([H])C([H])([H])C([H])([H])C([H])(n5nc(-c6c([H])c([H])c(Oc7c([H])c([H])c(F)c([H])c7F)c([H])c6[H])c(C(=O)N([H])[H])c5N([H])[H])C4([H])[H])c(F)c3[H])c([H])c([H])c2C1([H])[H]

$$$$
4:0:0
     RDKit          3D

 94102  0  0  1  0  0  0  0  0999 V2000
  -29.2890  -18.1790   21.3750 C   0  0  0  0  0  3  0  0  0  0  0  0
  -28.5500  -19.3800   21.4250 C   0  0  0  0  0  3  0  0  0  0  0  0
  -30.8360  -19.2430   19.8260 C   0  0  0  0  0  3  0  0  0  0  0  0
  -30.4560  -18.0940   20.5850 C   0  0  0  0  0  0  0  0  0  0  0  0
  -28.9700  -20.5250   20.7140 C   0  0  0  0  0  0  0  0  0  0  0  0
  -30.1150  -20.4680   19.8800 C   0  0  0  0  0  0  0  0  0  0  0  0
  -31.5380  -14.4740   20.9440 C   0  0  0  0  0  0  0  0  0  0  0  0
  -31.2850  -12.0640   20.4640 C   0  0  0  0  0  2  0  0  0  0  0  0
  -30.5640  -11.9120   19.1110 C   0  0  0  0  0  2  0  0  0  0  0  0
  -29.0380  -11.8830   19.3220 C   0  0  0  0  0  2  0  0  0  0  0  0
  -28.5350  -13.0350   20.2360 C   0  0  0  0  0  3  0  0  0  0  0  0
  -29.4120  -13.2000   21.5000 C   0  0  0  0  0  2  0  0  0  0  0  0
  -30.8110  -13.3230   21.0720 N   0  0  0  0  0  0  0  0  0  0  0  0
  -32.7410  -14.4120   20.6770 O   0  0  0  0  0  0  0  0  0  0  0  0
  -31.3720  -16.8830   20.6430 C   0  0  0  0  0  0  0  0  0  0  0  0
  -30.8580  -15.6540   20.9490 N   0  0  0  0  0  0  0  0  0  0  0  0
  -32.5650  -17.0900   20.3800 O   0  0  0  0  0  0  0  0  0  0  0  0
  -29.8740  -15.6120   21.1460 H   0  0  0  0  0  0  0  0  0  0  0  0
  -26.1260  -13.8340   20.6400 C   0  0  0  0  0  0  0  0  0  0  0  0
  -24.9680  -13.1580   20.9100 C   0  0  0  0  0  0  0  0  0  0  0  0
  -25.3240  -11.7770   20.9830 C   0  0  0  0  0  0  0  0  0  0  0  0
  -27.1210  -12.8720   20.5670 N   0  0  0  0  0  0  0  0  0  0  0  0
  -26.6350  -11.6310   20.8310 N   0  0  0  0  0  0  0  0  0  0  0  0
  -24.4830  -10.5800   21.1330 C   0  0  0  0  0  0  0  0  0  0  0  0
  -24.7840   -9.5800   22.0840 C   0  0  0  0  0  3  0  0  0  0  0  0
  -23.9470   -8.4510   22.2250 C   0  0  0  0  0  3  0  0  0  0  0  0
  -22.7970   -8.3140   21.4120 C   0  0  0  0  0  0  0  0  0  0  0  0
  -22.5150   -9.3000   20.4510 C   0  0  0  0  0  3  0  0  0  0  0  0
  -23.3510  -10.4210   20.3090 C   0  0  0  0  0  3  0  0  0  0  0  0
  -21.9420   -7.2380   21.4580 O   0  0  0  0  0  0  0  0  0  0  0  0
  -21.8500   -6.4390   22.5690 C   0  0  0  0  0  0  0  0  0  0  0  0
  -21.5100   -6.9620   23.8360 C   0  0  0  0  0  3  0  0  0  0  0  0
  -21.3600   -6.0960   24.9380 C   0  0  0  0  0  3  0  0  0  0  0  0
  -21.5380   -4.7090   24.7740 C   0  0  0  0  0  0  0  0  0  0  0  0
  -21.8700   -4.1870   23.5100 C   0  0  0  0  0  3  0  0  0  0  0  0
  -22.0230   -5.0490   22.4110 C   0  0  0  0  0  0  0  0  0  0  0  0
  -22.3220   -4.5390   21.1920 F   0  0  0  0  0  0  0  0  0  0  0  0
  -21.3870   -3.8750   25.8290 F   0  0  0  0  0  0  0  0  0  0  0  0
  -23.5900  -13.7460   21.0010 C   0  0  0  0  0  0  0  0  0  0  0  0
  -22.7220  -13.1550   21.8150 N   0  0  0  0  0  0  0  0  0  0  0  0
  -23.2910  -14.7690   20.3860 O   0  0  0  0  0  0  0  0  0  0  0  0
  -22.9730  -12.3280   22.3380 H   0  0  0  0  0  0  0  0  0  0  0  0
  -21.7920  -13.5360   21.9170 H   0  0  0  0  0  0  0  0  0  0  0  0
  -26.4130  -15.1800   20.4290 N   0  0  0  0  0  0  0  0  0  0  0  0
  -25.6890  -15.8880   20.4090 H   0  0  0  0  0  0  0  0  0  0  0  0
  -27.3190  -15.5420   20.1620 H   0  0  0  0  0  0  0  0  0  0  0  0
  -28.2900  -21.7240   20.9200 N   0  0  0  0  0  0  0  0  0  0  0  0
  -27.7760  -21.8170   21.7880 H   0  0  0  0  0  0  0  0  0  0  0  0
  -28.8140  -22.5620   20.6930 H   0  0  0  0  0  0  0  0  0  0  0  0
  -30.6380  -21.5970   19.2530 O   0  0  0  0  0  0  0  0  0  0  0  0
  -29.7490  -22.4940   18.5580 C   0  0  0  0  0  2  0  0  0  0  0  0
  -30.1250  -24.0020   18.7400 C   0  0  0  0  0  2  0  0  0  0  0  0
  -28.9870  -24.9490   18.2780 C   0  0  0  0  0  2  0  0  0  0  0  0
  -29.1070  -26.3470   18.6480 O   0  0  0  0  0  0  0  0  0  0  0  0
  -25.1670  -30.5490   22.8730 C   0  0  0  0  0  0  0  0  0  0  0  0
  -27.9160  -27.0520   18.7930 C   0  0  0  0  0  0  0  0  0  0  0  0
  -23.9750  -29.4630   21.0040 C   0  0  0  0  0  3  0  0  0  0  0  0
  -25.4460  -28.3960   19.2160 C   0  0  0  0  0  0  0  0  0  0  0  0
  -26.4730  -30.0140   20.8130 C   0  0  0  0  0  2  0  0  0  0  0  0
  -26.6030  -28.8340   19.8720 C   0  0  0  0  0  0  0  0  0  0  0  0
  -27.8400  -28.1740   19.6570 C   0  0  0  0  0  3  0  0  0  0  0  0
  -26.7370  -26.6650   18.1090 C   0  0  0  0  0  3  0  0  0  0  0  0
  -25.5120  -27.3190   18.3240 C   0  0  0  0  0  3  0  0  0  0  0  0
  -24.1550  -29.1320   19.5000 C   0  0  0  0  0  2  0  0  0  0  0  0
  -25.2250  -30.0140   21.6200 N   0  0  0  0  0  0  0  0  0  0  0  0
  -24.0960  -30.6230   23.4910 O   0  0  0  0  0  0  0  0  0  0  0  0
  -23.4330  -28.2100   21.7300 C   0  0  0  0  0  0  0  0  0  0  0  0
  -22.1250  -27.9460   21.5740 N   0  0  0  0  0  0  0  0  0  0  0  0
  -24.1850  -27.4880   22.3910 O   0  0  0  0  0  0  0  0  0  0  0  0
  -21.5770  -28.5910   21.0230 H   0  0  0  0  0  0  0  0  0  0  0  0
  -18.8810  -26.3630   21.7690 C   0  0  0  0  0  0  0  0  0  0  0  0
  -21.4020  -26.8050   22.1350 C   0  0  0  0  0  3  0  0  0  0  0  0
  -21.6440  -25.5270   21.2970 C   0  0  0  0  0  2  0  0  0  0  0  0
  -20.5780  -25.3020   20.2200 C   0  0  0  0  0  2  0  0  0  0  0  0
  -19.1880  -25.1920   20.8520 C   0  0  0  0  0  2  0  0  0  0  0  0
  -19.9210  -27.1320   22.3570 C   0  0  0  0  0  0  0  0  0  0  0  0
  -19.5800  -28.2360   23.1690 C   0  0  0  0  0  3  0  0  0  0  0  0
  -18.2340  -28.5680   23.4040 C   0  0  0  0  0  3  0  0  0  0  0  0
  -17.2090  -27.7950   22.8330 C   0  0  0  0  0  3  0  0  0  0  0  0
  -17.5330  -26.6940   22.0200 C   0  0  0  0  0  3  0  0  0  0  0  0
  -26.4380  -31.1170   23.5790 C   0  0  0  0  0  3  0  0  0  0  0  0
  -26.0580  -32.3860   24.2140 N   0  0  0  0  0  0  0  0  0  0  0  0
  -26.3350  -33.5990   23.7190 C   0  0  0  0  0  0  0  0  0  0  0  0
  -27.0090  -33.7690   22.6980 O   0  0  0  0  0  0  0  0  0  0  0  0
  -25.4600  -32.3260   25.0250 H   0  0  0  0  0  0  0  0  0  0  0  0
  -24.5180  -35.3350   23.7660 C   0  0  0  0  0  1  0  0  0  0  0  0
  -25.7800  -34.8200   24.4760 C   0  0  0  0  0  3  0  0  0  0  0  0
  -27.8660  -35.5930   25.5140 C   0  0  0  0  0  1  0  0  0  0  0  0
  -26.7570  -35.9190   24.6200 N   0  0  0  0  0  0  0  0  0  0  0  0
  -26.3060  -36.7590   24.9690 H   0  0  0  0  0  0  0  0  0  0  0  0
  -27.0570  -30.1240   24.6360 C   0  0  1  0  0  0  0  0  0  0  0  0
  -26.0310  -29.5920   25.6640 C   0  0  0  0  0  1  0  0  0  0  0  0
  -27.6940  -28.9050   23.9300 C   0  0  0  0  0  1  0  0  0  0  0  0
  -28.1930  -30.8290   25.4150 C   0  0  0  0  0  1  0  0  0  0  0  0
  1  2  1  0
  3  6  2  0
  3  4  1  0
  4 15  1  0
  4  1  2  0
  5 47  1  0
  5  2  2  0
  6  5  1  0
  7 16  1  0
  7 13  1  0
  8 13  1  0
  9 10  1  0
  9  8  1  0
 11 10  1  0
 11 22  1  0
 11 12  1  0
 13 12  1  0
 14  7  2  0
 15 16  1  0
 16 18  1  0
 17 15  2  0
 19 20  2  0
 20 21  1  0
 20 39  1  0
 21 24  1  0
 22 19  1  0
 22 23  1  0
 23 21  2  0
 24 25  1  0
 25 26  2  0
 27 30  1  0
 27 26  1  0
 28 27  2  0
 29 28  1  0
 29 24  2  0
 30 31  1  0
 31 32  1  0
 32 33  2  0
 34 33  1  0
 34 38  1  0
 35 34  2  0
 36 31  2  0
 36 35  1  0
 37 36  1  0
 39 40  1  0
 40 43  1  0
 40 42  1  0
 41 39  2  0
 44 19  1  0
 45 44  1  0
 46 44  1  0
 47 48  1  0
 49 47  1  0
 50  6  1  0
 51 52  1  0
 51 50  1  0
 53 54  1  0
 53 52  1  0
 54 56  1  0
 55 66  2  0
 56 61  1  0
 57 65  1  0
 57 67  1  0
 58 64  1  0
 58 60  1  0
 59 65  1  0
 60 59  1  0
 61 60  2  0
 62 63  1  0
 62 56  2  0
 63 58  2  0
 64 57  1  0
 65 55  1  0
 67 69  2  0
 68 67  1  0
 70 68  1  0
 71 80  2  0
 71 76  1  0
 72 68  1  0
 72 76  1  0
 73 72  1  0
 74 75  1  0
 74 73  1  0
 75 71  1  0
 76 77  2  0
 77 78  1  0
 79 78  2  0
 80 79  1  0
 81 55  1  0
 81 82  1  0
 81 91  1  0
 82 85  1  0
 83 82  1  0
 83 87  1  0
 84 83  2  0
 87 86  1  0
 87 89  1  0
 89 90  1  0
 89 88  1  0
 91 94  1  1
 91 92  1  0
 93 91  1  0
M  ISO  4   7 100  16 100  53 101  54 101
M  END
>  <TORSDO>  (5) 
F 21

>  <SCORE>  (5) 
-8.788

>  <name>  (5) 
4

>  <ligand_id>  (5) 
4

>  <original_smiles>  (5) 
[H]c1c([H])c([H])c2c(c1[H])C([H])([H])C([H])([H])C([H])([H])C2([H])N([H])C(=O)C1([H])N(C(=O)C([H])(N([H])C(=O)C([H])(N([H])C([H])([H])[H])C([H])([H])[H])C(C([H])([H])[H])(C([H])([H])[H])C([H])([H])[H])C([H])([H])c2c([H])c(OC([H])([H])C([H])([H])C([H])([H])Oc3c([H])c(C(=O)N([H])C(=O)N4C([H])([H])C([H])([H])C([H])([H])C([H])(n5nc(-c6c([H])c([H])c(Oc7c([H])c([H])c(F)c([H])c7F)c([H])c6[H])c(C(=O)N([H])[H])c5N([H])[H])C4([H])[H])c([H])c([H])c3N([H])[H])c([H])c([H])c2C1([H])[H]

>  <smiles>  (5) 
[H]c1c([H])c([H])c2c(c1[H])C([H])([H])C([H])([H])C([H])([H])C2([H])N([H])C(=O)C1([H])N(C(=O)C([H])(N([H])C(=O)C([H])(N([H])C([H])([H])[H])C([H])([H])[H])C(C([H])([H])[H])(C([H])([H])[H])C([H])([H])[H])C([H])([H])c2c([H])c(OC([H])([H])C([H])([H])C([H])([H])Oc3c([H])c(C(=O)N([H])C(=O)N4C([H])([H])C([H])([H])C([H])([H])C([H])(n5nc(-c6c([H])c([H])c(Oc7c([H])c([H])c(F)c([H])c7F)c([H])c6[H])c(C(=O)N([H])[H])c5N([H])[H])C4([H])[H])c([H])c([H])c3N([H])[H])c([H])c([H])c2C1([H])[H]

$$$$
5:0:0
     RDKit          3D

 95104  0  0  1  0  0  0  0  0999 V2000
  -29.2190  -22.5840   20.8000 C   0  0  0  0  0  0  0  0  0  0  0  0
  -28.0150  -22.8420   18.8230 C   0  0  0  0  0  2  0  0  0  0  0  0
  -28.7240  -21.4640   18.8640 C   0  0  0  0  0  2  0  0  0  0  0  0
  -28.7170  -23.7520   19.8540 C   0  0  0  0  0  3  0  0  0  0  0  0
  -29.3000  -21.3360   20.1970 N   0  0  0  0  0  0  0  0  0  0  0  0
  -29.4720  -22.8040   21.9880 O   0  0  0  0  0  0  0  0  0  0  0  0
  -30.9560  -20.0960   21.6160 C   0  0  0  0  0  3  0  0  0  0  0  0
  -29.5640  -18.7290   20.1640 C   0  0  0  0  0  3  0  0  0  0  0  0
  -31.2600  -17.6560   21.5310 C   0  0  0  0  0  3  0  0  0  0  0  0
  -29.9100  -20.0540   20.6620 C   0  0  0  0  0  0  0  0  0  0  0  0
  -31.6120  -18.9200   22.0440 C   0  0  0  0  0  0  0  0  0  0  0  0
  -30.2290  -17.5000   20.5830 C   0  0  0  0  0  0  0  0  0  0  0  0
  -30.6230  -14.9700   20.0650 C   0  0  0  0  0  0  0  0  0  0  0  0
  -30.3860  -12.7020   19.0300 C   0  0  0  0  0  2  0  0  0  0  0  0
  -29.3860  -12.7260   17.8570 C   0  0  0  0  0  2  0  0  0  0  0  0
  -27.9450  -12.5250   18.3650 C   0  0  0  0  0  2  0  0  0  0  0  0
  -27.6020  -13.4300   19.5800 C   0  0  0  0  0  3  0  0  0  0  0  0
  -28.7180  -13.3970   20.6450 C   0  0  0  0  0  2  0  0  0  0  0  0
  -29.9750  -13.7600   19.9790 N   0  0  0  0  0  0  0  0  0  0  0  0
  -31.8170  -15.0490   19.7720 O   0  0  0  0  0  0  0  0  0  0  0  0
  -29.8570  -16.1240   20.1650 N   0  0  0  0  0  0  0  0  0  0  0  0
  -28.8820  -15.9890   19.9550 H   0  0  0  0  0  0  0  0  0  0  0  0
  -25.2550  -13.9580   20.4720 C   0  0  0  0  0  0  0  0  0  0  0  0
  -24.2220  -13.1530   20.8660 C   0  0  0  0  0  0  0  0  0  0  0  0
  -24.7020  -11.8120   20.7670 C   0  0  0  0  0  0  0  0  0  0  0  0
  -26.2960  -13.1040   20.1500 N   0  0  0  0  0  0  0  0  0  0  0  0
  -25.9770  -11.8050   20.3960 N   0  0  0  0  0  0  0  0  0  0  0  0
  -24.0060  -10.5350   20.9570 C   0  0  0  0  0  0  0  0  0  0  0  0
  -24.4620   -9.5740   21.8860 C   0  0  0  0  0  3  0  0  0  0  0  0
  -23.7610   -8.3610   22.0610 C   0  0  0  0  0  3  0  0  0  0  0  0
  -22.5920   -8.1000   21.3090 C   0  0  0  0  0  0  0  0  0  0  0  0
  -22.1580   -9.0530   20.3720 C   0  0  0  0  0  3  0  0  0  0  0  0
  -22.8570  -10.2570   20.1940 C   0  0  0  0  0  3  0  0  0  0  0  0
  -21.8600   -6.9400   21.3950 O   0  0  0  0  0  0  0  0  0  0  0  0
  -21.7920   -6.2160   22.5580 C   0  0  0  0  0  0  0  0  0  0  0  0
  -21.2800   -6.7720   23.7510 C   0  0  0  0  0  3  0  0  0  0  0  0
  -21.1620   -5.9730   24.9060 C   0  0  0  0  0  3  0  0  0  0  0  0
  -21.5450   -4.6200   24.8680 C   0  0  0  0  0  0  0  0  0  0  0  0
  -22.0480   -4.0630   23.6800 C   0  0  0  0  0  3  0  0  0  0  0  0
  -22.1710   -4.8590   22.5270 C   0  0  0  0  0  0  0  0  0  0  0  0
  -22.6360   -4.3110   21.3780 F   0  0  0  0  0  0  0  0  0  0  0  0
  -21.4250   -3.8510   25.9740 F   0  0  0  0  0  0  0  0  0  0  0  0
  -22.8350  -13.5990   21.2250 C   0  0  0  0  0  0  0  0  0  0  0  0
  -22.1630  -12.8540   22.0970 N   0  0  0  0  0  0  0  0  0  0  0  0
  -22.3600  -14.6370   20.7690 O   0  0  0  0  0  0  0  0  0  0  0  0
  -22.5570  -12.0070   22.4760 H   0  0  0  0  0  0  0  0  0  0  0  0
  -21.2350  -13.1300   22.3810 H   0  0  0  0  0  0  0  0  0  0  0  0
  -25.3940  -15.3370   20.3310 N   0  0  0  0  0  0  0  0  0  0  0  0
  -24.6450  -15.9870   20.5370 H   0  0  0  0  0  0  0  0  0  0  0  0
  -26.2450  -15.8010   20.0380 H   0  0  0  0  0  0  0  0  0  0  0  0
  -32.6180  -19.0090   23.0120 N   0  0  0  0  0  0  0  0  0  0  0  0
  -32.5180  -19.7410   23.7050 H   0  0  0  0  0  0  0  0  0  0  0  0
  -32.9430  -18.1440   23.4400 H   0  0  0  0  0  0  0  0  0  0  0  0
  -27.8290  -25.0160   20.4090 C   0  0  0  0  0  2  0  0  0  0  0  0
  -28.1230  -26.4870   20.1500 O   0  0  0  0  0  0  0  0  0  0  0  0
  -24.5360  -32.0250   23.2960 C   0  0  0  0  0  0  0  0  0  0  0  0
  -27.0490  -27.4170   20.1480 C   0  0  0  0  0  0  0  0  0  0  0  0
  -23.2980  -30.6390   21.6730 C   0  0  0  0  0  3  0  0  0  0  0  0
  -24.7120  -29.0910   20.2020 C   0  0  0  0  0  0  0  0  0  0  0  0
  -25.8410  -30.9280   21.4500 C   0  0  0  0  0  2  0  0  0  0  0  0
  -25.8990  -29.5510   20.7860 C   0  0  0  0  0  0  0  0  0  0  0  0
  -27.0730  -28.7230   20.7540 C   0  0  0  0  0  3  0  0  0  0  0  0
  -25.8440  -27.0520   19.5120 C   0  0  0  0  0  3  0  0  0  0  0  0
  -24.6890  -27.8510   19.5530 C   0  0  0  0  0  3  0  0  0  0  0  0
  -23.4830  -29.9720   20.2860 C   0  0  0  0  0  2  0  0  0  0  0  0
  -24.5770  -31.2190   22.1910 N   0  0  0  0  0  0  0  0  0  0  0  0
  -23.4640  -32.3030   23.8500 O   0  0  0  0  0  0  0  0  0  0  0  0
  -22.6490  -29.6190   22.6420 C   0  0  0  0  0  0  0  0  0  0  0  0
  -21.3300  -29.4120   22.5190 N   0  0  0  0  0  0  0  0  0  0  0  0
  -23.3400  -29.0190   23.4760 O   0  0  0  0  0  0  0  0  0  0  0  0
  -20.8260  -29.9610   21.8360 H   0  0  0  0  0  0  0  0  0  0  0  0
  -17.9960  -28.0670   22.9540 C   0  0  0  0  0  0  0  0  0  0  0  0
  -20.5300  -28.4570   23.2940 C   0  0  0  0  0  3  0  0  0  0  0  0
  -20.7130  -27.0100   22.7810 C   0  0  0  0  0  2  0  0  0  0  0  0
  -19.6710  -26.6010   21.7380 C   0  0  0  0  0  2  0  0  0  0  0  0
  -18.2570  -26.7140   22.3140 C   0  0  0  0  0  2  0  0  0  0  0  0
  -19.0630  -28.8960   23.3930 C   0  0  0  0  0  0  0  0  0  0  0  0
  -18.7680  -30.1650   23.9340 C   0  0  0  0  0  3  0  0  0  0  0  0
  -17.4390  -30.6080   24.0500 C   0  0  0  0  0  3  0  0  0  0  0  0
  -16.3840  -29.7740   23.6370 C   0  0  0  0  0  3  0  0  0  0  0  0
  -16.6630  -28.5070   23.0970 C   0  0  0  0  0  3  0  0  0  0  0  0
  -25.8300  -32.6570   23.8940 C   0  0  0  0  0  3  0  0  0  0  0  0
  -26.3590  -31.8970   25.1720 C   0  0  1  0  0  0  0  0  0  0  0  0
  -25.2750  -31.6670   26.2520 C   0  0  0  0  0  1  0  0  0  0  0  0
  -26.9430  -30.5190   24.7900 C   0  0  0  0  0  1  0  0  0  0  0  0
  -27.5120  -32.6990   25.8170 C   0  0  0  0  0  1  0  0  0  0  0  0
  -25.5350  -34.0640   24.2130 N   0  0  0  0  0  0  0  0  0  0  0  0
  -25.8710  -35.1090   23.4460 C   0  0  0  0  0  0  0  0  0  0  0  0
  -26.5280  -34.9890   22.4080 O   0  0  0  0  0  0  0  0  0  0  0  0
  -24.9550  -34.2320   25.0220 H   0  0  0  0  0  0  0  0  0  0  0  0
  -24.1670  -36.9240   23.0940 C   0  0  0  0  0  1  0  0  0  0  0  0
  -25.4060  -36.5060   23.9010 C   0  0  0  0  0  3  0  0  0  0  0  0
  -27.5550  -37.3710   24.7160 C   0  0  0  0  0  1  0  0  0  0  0  0
  -26.4510  -37.5430   23.7740 N   0  0  0  0  0  0  0  0  0  0  0  0
  -26.0590  -38.4700   23.9110 H   0  0  0  0  0  0  0  0  0  0  0  0
  1  6  2  0
  2  3  1  0
  2  4  1  0
  3  5  1  0
  4 54  1  0
  4  1  1  0
  5 10  1  0
  5  1  1  0
  7 11  1  0
  8 12  2  0
  8 10  1  0
  9 11  2  0
 10  7  2  0
 11 51  1  0
 12  9  1  0
 13 21  1  0
 14 19  1  0
 15 16  1  0
 15 14  1  0
 17 16  1  0
 17 26  1  0
 17 18  1  0
 19 13  1  0
 19 18  1  0
 20 13  2  0
 21 12  1  0
 22 21  1  0
 23 24  2  0
 24 43  1  0
 25 24  1  0
 25 28  1  0
 26 27  1  0
 26 23  1  0
 27 25  2  0
 28 29  1  0
 29 30  2  0
 31 34  1  0
 31 30  1  0
 32 31  2  0
 33 32  1  0
 33 28  2  0
 34 35  1  0
 35 36  1  0
 36 37  2  0
 38 37  1  0
 38 42  1  0
 39 38  2  0
 40 35  2  0
 40 39  1  0
 41 40  1  0
 43 44  1  0
 44 47  1  0
 44 46  1  0
 45 43  2  0
 48 23  1  0
 48 49  1  0
 50 48  1  0
 51 53  1  0
 51 52  1  0
 55 54  1  0
 56 67  2  0
 57 55  1  0
 57 62  1  0
 58 66  1  0
 58 68  1  0
 59 65  1  0
 59 61  1  0
 60 66  1  0
 61 60  1  0
 62 61  2  0
 63 64  1  0
 63 57  2  0
 64 59  2  0
 65 58  1  0
 66 56  1  0
 68 70  2  0
 69 68  1  0
 71 69  1  0
 72 81  2  0
 72 77  1  0
 73 69  1  0
 73 77  1  0
 74 73  1  0
 75 76  1  0
 75 74  1  0
 76 72  1  0
 77 78  2  0
 78 79  1  0
 80 79  2  0
 81 80  1  0
 82 56  1  0
 82 87  1  0
 82 83  1  0
 83 86  1  1
 83 84  1  0
 85 83  1  0
 87 90  1  0
 88 92  1  0
 88 87  1  0
 89 88  2  0
 92 91  1  0
 94 92  1  0
 94 95  1  0
 94 93  1  0
M  ISO  4  13 100  21 100  54 101  55 101
M  END
>  <TORSDO>  (6) 
F 19

>  <SCORE>  (6) 
-13.926

>  <name>  (6) 
5

>  <ligand_id>  (6) 
5

>  <original_smiles>  (6) 
[H]c1c([H])c([H])c2c(c1[H])C([H])([H])C([H])([H])C([H])([H])C2([H])N([H])C(=O)C1([H])N(C(=O)C([H])(N([H])C(=O)C([H])(N([H])C([H])([H])[H])C([H])([H])[H])C(C([H])([H])[H])(C([H])([H])[H])C([H])([H])[H])C([H])([H])c2c([H])c(OC([H])([H])C3([H])C(=O)N(c4c([H])c(N([H])[H])c([H])c(N([H])C(=O)N5C([H])([H])C([H])([H])C([H])([H])C([H])(n6nc(-c7c([H])c([H])c(Oc8c([H])c([H])c(F)c([H])c8F)c([H])c7[H])c(C(=O)N([H])[H])c6N([H])[H])C5([H])[H])c4[H])C([H])([H])C3([H])[H])c([H])c([H])c2C1([H])[H]

>  <smiles>  (6) 
[H]c1c([H])c([H])c2c(c1[H])C([H])([H])C([H])([H])C([H])([H])C2([H])N([H])C(=O)C1([H])N(C(=O)C([H])(N([H])C(=O)C([H])(N([H])C([H])([H])[H])C([H])([H])[H])C(C([H])([H])[H])(C([H])([H])[H])C([H])([H])[H])C([H])([H])c2c([H])c(OC([H])([H])C3([H])C(=O)N(c4c([H])c(N([H])[H])c([H])c(N([H])C(=O)N5C([H])([H])C([H])([H])C([H])([H])C([H])(n6nc(-c7c([H])c([H])c(Oc8c([H])c([H])c(F)c([H])c8F)c([H])c7[H])c(C(=O)N([H])[H])c6N([H])[H])C5([H])[H])c4[H])C([H])([H])C3([H])[H])c([H])c([H])c2C1([H])[H]

$$$$
6:0:0
     RDKit          3D

 93101  0  0  1  0  0  0  0  0999 V2000
  -30.9760  -18.0440   18.4890 C   0  0  0  0  0  3  0  0  0  0  0  0
  -30.6380  -19.3140   17.9110 C   0  0  0  0  0  3  0  0  0  0  0  0
  -29.0170  -18.1870   19.8410 C   0  0  0  0  0  3  0  0  0  0  0  0
  -30.1830  -17.4350   19.5030 C   0  0  0  0  0  0  0  0  0  0  0  0
  -29.4950  -20.0750   18.2910 C   0  0  0  0  0  0  0  0  0  0  0  0
  -28.6660  -19.4630   19.2730 C   0  0  0  0  0  0  0  0  0  0  0  0
  -31.1190  -15.0210   19.7110 C   0  0  0  0  0  0  0  0  0  0  0  0
  -30.9210  -12.6030   19.0820 C   0  0  0  0  0  2  0  0  0  0  0  0
  -29.9890  -12.4180   17.8640 C   0  0  0  0  0  2  0  0  0  0  0  0
  -28.5190  -12.3110   18.3140 C   0  0  0  0  0  2  0  0  0  0  0  0
  -28.1280  -13.4260   19.3180 C   0  0  0  0  0  3  0  0  0  0  0  0
  -29.1690  -13.5420   20.4480 C   0  0  0  0  0  2  0  0  0  0  0  0
  -30.4820  -13.8040   19.8330 N   0  0  0  0  0  0  0  0  0  0  0  0
  -32.2230  -15.0870   19.1540 O   0  0  0  0  0  0  0  0  0  0  0  0
  -30.5070  -16.1610   20.2170 N   0  0  0  0  0  0  0  0  0  0  0  0
  -25.8020  -14.1830   20.1020 C   0  0  0  0  0  0  0  0  0  0  0  0
  -24.7000  -13.4850   20.5170 C   0  0  0  0  0  0  0  0  0  0  0  0
  -25.0790  -12.1070   20.5020 C   0  0  0  0  0  0  0  0  0  0  0  0
  -26.7810  -13.2350   19.8490 N   0  0  0  0  0  0  0  0  0  0  0  0
  -26.3550  -11.9830   20.1550 N   0  0  0  0  0  0  0  0  0  0  0  0
  -24.2830  -10.8960   20.7380 C   0  0  0  0  0  0  0  0  0  0  0  0
  -24.7020   -9.9030   21.6510 C   0  0  0  0  0  3  0  0  0  0  0  0
  -23.9110   -8.7570   21.8740 C   0  0  0  0  0  3  0  0  0  0  0  0
  -22.6860   -8.5940   21.1860 C   0  0  0  0  0  0  0  0  0  0  0  0
  -22.2840   -9.5750   20.2620 C   0  0  0  0  0  3  0  0  0  0  0  0
  -23.0750  -10.7130   20.0370 C   0  0  0  0  0  3  0  0  0  0  0  0
  -21.8660   -7.5000   21.3200 O   0  0  0  0  0  0  0  0  0  0  0  0
  -21.8800   -6.7230   22.4500 C   0  0  0  0  0  0  0  0  0  0  0  0
  -21.6140   -7.2600   23.7280 C   0  0  0  0  0  3  0  0  0  0  0  0
  -21.5700   -6.4120   24.8530 C   0  0  0  0  0  3  0  0  0  0  0  0
  -21.7830   -5.0290   24.7020 C   0  0  0  0  0  0  0  0  0  0  0  0
  -22.0440   -4.4910   23.4280 C   0  0  0  0  0  3  0  0  0  0  0  0
  -22.0890   -5.3370   22.3050 C   0  0  0  0  0  0  0  0  0  0  0  0
  -22.3200   -4.8100   21.0800 F   0  0  0  0  0  0  0  0  0  0  0  0
  -21.7340   -4.2130   25.7810 F   0  0  0  0  0  0  0  0  0  0  0  0
  -23.3430  -14.0520   20.8160 C   0  0  0  0  0  0  0  0  0  0  0  0
  -22.6050  -13.4300   21.7280 N   0  0  0  0  0  0  0  0  0  0  0  0
  -22.9490  -15.0850   20.2740 O   0  0  0  0  0  0  0  0  0  0  0  0
  -22.9380  -12.5970   22.1910 H   0  0  0  0  0  0  0  0  0  0  0  0
  -21.6950  -13.7950   21.9690 H   0  0  0  0  0  0  0  0  0  0  0  0
  -26.0450  -15.5380   19.8990 N   0  0  0  0  0  0  0  0  0  0  0  0
  -25.3210  -16.2360   20.0250 H   0  0  0  0  0  0  0  0  0  0  0  0
  -26.9110  -15.9220   19.5440 H   0  0  0  0  0  0  0  0  0  0  0  0
  -31.3790  -17.2890   22.3030 C   0  0  0  0  0  1  0  0  0  0  0  0
  -30.4650  -16.2070   21.6980 C   0  0  0  0  0  2  0  0  0  0  0  0
  -26.3680  -19.3470   19.9710 C   0  0  0  0  0  1  0  0  0  0  0  0
  -27.5030  -20.1280   19.6100 O   0  0  0  0  0  0  0  0  0  0  0  0
  -29.1580  -21.3090   17.6100 N   0  0  0  0  0  0  0  0  0  0  0  0
  -29.5250  -21.3170   16.6610 H   0  0  0  0  0  0  0  0  0  0  0  0
  -29.2520  -22.6780   18.2260 C   0  0  0  0  0  2  0  0  0  0  0  0
  -28.0790  -23.7730   18.0130 C   0  0  0  0  0  2  0  0  0  0  0  0
  -28.2980  -25.1360   17.1970 C   0  0  0  0  0  2  0  0  0  0  0  0
  -28.3090  -26.4690   17.8630 O   0  0  0  0  0  0  0  0  0  0  0  0
  -24.9570  -30.6840   22.6450 C   0  0  0  0  0  0  0  0  0  0  0  0
  -27.1780  -27.2580   18.1330 C   0  0  0  0  0  0  0  0  0  0  0  0
  -23.5810  -29.8580   20.7650 C   0  0  0  0  0  3  0  0  0  0  0  0
  -24.8600  -28.8010   18.8160 C   0  0  0  0  0  0  0  0  0  0  0  0
  -26.1030  -30.2050   20.4680 C   0  0  0  0  0  2  0  0  0  0  0  0
  -26.0840  -29.0850   19.4320 C   0  0  0  0  0  0  0  0  0  0  0  0
  -27.2400  -28.3270   19.0840 C   0  0  0  0  0  3  0  0  0  0  0  0
  -25.9300  -27.0230   17.5150 C   0  0  0  0  0  3  0  0  0  0  0  0
  -24.7850  -27.7800   17.8510 C   0  0  0  0  0  3  0  0  0  0  0  0
  -23.6600  -29.6300   19.2300 C   0  0  0  0  0  2  0  0  0  0  0  0
  -24.9040  -30.2500   21.3510 N   0  0  0  0  0  0  0  0  0  0  0  0
  -23.9290  -30.7900   23.3280 O   0  0  0  0  0  0  0  0  0  0  0  0
  -22.9650  -28.6040   21.4280 C   0  0  0  0  0  0  0  0  0  0  0  0
  -21.6310  -28.4650   21.3330 N   0  0  0  0  0  0  0  0  0  0  0  0
  -23.6830  -27.7720   21.9870 O   0  0  0  0  0  0  0  0  0  0  0  0
  -21.1120  -29.1940   20.8670 H   0  0  0  0  0  0  0  0  0  0  0  0
  -18.2790  -27.1350   21.6180 C   0  0  0  0  0  0  0  0  0  0  0  0
  -20.8470  -27.3390   21.8430 C   0  0  0  0  0  3  0  0  0  0  0  0
  -20.9230  -26.1280   20.8850 C   0  0  0  0  0  2  0  0  0  0  0  0
  -19.7770  -26.0890   19.8680 C   0  0  0  0  0  2  0  0  0  0  0  0
  -18.4250  -26.0300   20.5830 C   0  0  0  0  0  2  0  0  0  0  0  0
  -19.4150  -27.7580   22.1980 C   0  0  0  0  0  0  0  0  0  0  0  0
  -19.2220  -28.8010   23.1300 C   0  0  0  0  0  3  0  0  0  0  0  0
  -17.9250  -29.2200   23.4840 C   0  0  0  0  0  3  0  0  0  0  0  0
  -16.8050  -28.5890   22.9180 C   0  0  0  0  0  3  0  0  0  0  0  0
  -16.9820  -27.5460   21.9920 C   0  0  0  0  0  3  0  0  0  0  0  0
  -26.3050  -31.0870   23.3190 C   0  0  0  0  0  3  0  0  0  0  0  0
  -26.0620  -32.3060   24.1030 N   0  0  0  0  0  0  0  0  0  0  0  0
  -26.4360  -33.5370   23.7320 C   0  0  0  0  0  0  0  0  0  0  0  0
  -27.0920  -33.7560   22.7100 O   0  0  0  0  0  0  0  0  0  0  0  0
  -25.4850  -32.2080   24.9250 H   0  0  0  0  0  0  0  0  0  0  0  0
  -24.8110  -35.4340   24.0200 C   0  0  0  0  0  1  0  0  0  0  0  0
  -26.0190  -34.7120   24.6380 C   0  0  0  0  0  3  0  0  0  0  0  0
  -28.1860  -35.1430   25.7090 C   0  0  0  0  0  1  0  0  0  0  0  0
  -27.1070  -35.6810   24.8850 N   0  0  0  0  0  0  0  0  0  0  0  0
  -26.7490  -36.5190   25.3350 H   0  0  0  0  0  0  0  0  0  0  0  0
  -26.9030  -29.9510   24.2350 C   0  0  1  0  0  0  0  0  0  0  0  0
  -25.9000  -29.3960   25.2750 C   0  0  0  0  0  1  0  0  0  0  0  0
  -27.4010  -28.7630   23.3780 C   0  0  0  0  0  1  0  0  0  0  0  0
  -28.1350  -30.4900   25.0020 C   0  0  0  0  0  1  0  0  0  0  0  0
  1  4  1  0
  2  5  1  0
  2  1  2  0
  4  3  2  0
  4 15  1  0
  5  6  2  0
  6 47  1  0
  6  3  1  0
  7 13  1  0
  7 15  1  0
  8 13  1  0
  9 10  1  0
  9  8  1  0
 11 10  1  0
 11 19  1  0
 11 12  1  0
 13 12  1  0
 14  7  2  0
 15 45  1  0
 16 17  2  0
 17 36  1  0
 18 17  1  0
 18 21  1  0
 19 16  1  0
 19 20  1  0
 20 18  2  0
 21 22  1  0
 22 23  2  0
 24 27  1  0
 24 23  1  0
 25 24  2  0
 26 25  1  0
 26 21  2  0
 27 28  1  0
 28 29  1  0
 29 30  2  0
 31 30  1  0
 31 35  1  0
 32 31  2  0
 33 28  2  0
 33 32  1  0
 34 33  1  0
 36 37  1  0
 37 40  1  0
 37 39  1  0
 38 36  2  0
 41 42  1  0
 41 16  1  0
 43 41  1  0
 45 44  1  0
 47 46  1  0
 48 50  1  0
 48  5  1  0
 49 48  1  0
 51 50  1  0
 52 53  1  0
 52 51  1  0
 53 55  1  0
 54 65  2  0
 55 60  1  0
 56 64  1  0
 56 66  1  0
 57 63  1  0
 57 59  1  0
 58 64  1  0
 59 58  1  0
 60 59  2  0
 61 62  1  0
 61 55  2  0
 62 57  2  0
 63 56  1  0
 64 54  1  0
 66 68  2  0
 67 66  1  0
 69 67  1  0
 70 79  2  0
 70 75  1  0
 71 67  1  0
 71 75  1  0
 72 71  1  0
 73 74  1  0
 73 72  1  0
 74 70  1  0
 75 76  2  0
 76 77  1  0
 78 77  2  0
 79 78  1  0
 80 54  1  0
 80 81  1  0
 80 90  1  0
 81 84  1  0
 82 81  1  0
 82 86  1  0
 83 82  2  0
 86 85  1  0
 86 88  1  0
 88 89  1  0
 88 87  1  0
 90 93  1  1
 90 91  1  0
 92 90  1  0
M  ISO  4   7 100  15 100  52 101  53 101
M  END
>  <TORSDO>  (7) 
F 22

>  <SCORE>  (7) 
-8.468

>  <name>  (7) 
6

>  <ligand_id>  (7) 
6

>  <original_smiles>  (7) 
[H]c1c([H])c([H])c2c(c1[H])C([H])([H])C([H])([H])C([H])([H])C2([H])N([H])C(=O)C1([H])N(C(=O)C([H])(N([H])C(=O)C([H])(N([H])C([H])([H])[H])C([H])([H])[H])C(C([H])([H])[H])(C([H])([H])[H])C([H])([H])[H])C([H])([H])c2c([H])c(OC([H])([H])C([H])([H])C([H])([H])N([H])c3c([H])c([H])c(N(C(=O)N4C([H])([H])C([H])([H])C([H])([H])C([H])(n5nc(-c6c([H])c([H])c(Oc7c([H])c([H])c(F)c([H])c7F)c([H])c6[H])c(C(=O)N([H])[H])c5N([H])[H])C4([H])[H])C([H])([H])C([H])([H])[H])c([H])c3OC([H])([H])[H])c([H])c([H])c2C1([H])[H]

>  <smiles>  (7) 
[H]c1c([H])c([H])c2c(c1[H])C([H])([H])C([H])([H])C([H])([H])C2([H])N([H])C(=O)C1([H])N(C(=O)C([H])(N([H])C(=O)C([H])(N([H])C([H])([H])[H])C([H])([H])[H])C(C([H])([H])[H])(C([H])([H])[H])C([H])([H])[H])C([H])([H])c2c([H])c(OC([H])([H])C([H])([H])C([H])([H])N([H])c3c([H])c([H])c(N(C(=O)N4C([H])([H])C([H])([H])C([H])([H])C([H])(n5nc(-c6c([H])c([H])c(Oc7c([H])c([H])c(F)c([H])c7F)c([H])c6[H])c(C(=O)N([H])[H])c5N([H])[H])C4([H])[H])C([H])([H])C([H])([H])[H])c([H])c3OC([H])([H])[H])c([H])c([H])c2C1([H])[H]

$$$$
7:0:0
     RDKit          3D

 91 99  0  0  1  0  0  0  0  0999 V2000
  -30.0660  -21.5420   20.4620 C   0  0  0  0  0  2  0  0  0  0  0  0
  -28.9680  -22.5730   20.0220 C   0  0  0  0  0  2  0  0  0  0  0  0
  -29.1920  -24.0890   20.3360 C   0  0  0  0  0  0  0  0  0  0  0  0
  -30.2100  -24.4880   20.9120 O   0  0  0  0  0  0  0  0  0  0  0  0
  -28.0700  -25.0710   19.8880 C   0  0  0  0  0  2  0  0  0  0  0  0
  -28.2770  -26.4930   20.1830 O   0  0  0  0  0  0  0  0  0  0  0  0
  -24.5390  -31.8620   23.1480 C   0  0  0  0  0  0  0  0  0  0  0  0
  -27.1370  -27.2990   20.1320 C   0  0  0  0  0  0  0  0  0  0  0  0
  -23.3140  -30.4230   21.5570 C   0  0  0  0  0  3  0  0  0  0  0  0
  -24.7490  -28.8610   20.1400 C   0  0  0  0  0  0  0  0  0  0  0  0
  -25.8450  -30.7630   21.3240 C   0  0  0  0  0  2  0  0  0  0  0  0
  -25.9220  -29.3760   20.7050 C   0  0  0  0  0  0  0  0  0  0  0  0
  -27.1170  -28.6050   20.6980 C   0  0  0  0  0  3  0  0  0  0  0  0
  -25.9370  -26.8290   19.5390 C   0  0  0  0  0  3  0  0  0  0  0  0
  -24.7570  -27.5890   19.5510 C   0  0  0  0  0  3  0  0  0  0  0  0
  -23.5070  -29.7220   20.1880 C   0  0  0  0  0  2  0  0  0  0  0  0
  -24.5860  -31.0330   22.0660 N   0  0  0  0  0  0  0  0  0  0  0  0
  -23.4630  -32.1430   23.6950 O   0  0  0  0  0  0  0  0  0  0  0  0
  -22.6770  -29.4200   22.5480 C   0  0  0  0  0  0  0  0  0  0  0  0
  -21.3510  -29.2300   22.4440 N   0  0  0  0  0  0  0  0  0  0  0  0
  -23.3730  -28.8140   23.3670 O   0  0  0  0  0  0  0  0  0  0  0  0
  -20.8490  -29.7720   21.7540 H   0  0  0  0  0  0  0  0  0  0  0  0
  -17.9910  -28.0230   23.0100 C   0  0  0  0  0  0  0  0  0  0  0  0
  -20.5490  -28.3060   23.2480 C   0  0  0  0  0  3  0  0  0  0  0  0
  -20.6560  -26.8610   22.7090 C   0  0  0  0  0  2  0  0  0  0  0  0
  -19.5460  -26.5040   21.7150 C   0  0  0  0  0  2  0  0  0  0  0  0
  -18.1700  -26.6570   22.3690 C   0  0  0  0  0  2  0  0  0  0  0  0
  -19.1090  -28.8040   23.4080 C   0  0  0  0  0  0  0  0  0  0  0  0
  -18.8860  -30.0820   23.9670 C   0  0  0  0  0  3  0  0  0  0  0  0
  -17.5800  -30.5780   24.1330 C   0  0  0  0  0  3  0  0  0  0  0  0
  -16.4770  -29.7960   23.7510 C   0  0  0  0  0  3  0  0  0  0  0  0
  -16.6830  -28.5200   23.1960 C   0  0  0  0  0  3  0  0  0  0  0  0
  -25.8300  -32.5130   23.7330 C   0  0  0  0  0  3  0  0  0  0  0  0
  -25.5130  -33.9090   24.0600 N   0  0  0  0  0  0  0  0  0  0  0  0
  -25.8170  -34.9610   23.2870 C   0  0  0  0  0  0  0  0  0  0  0  0
  -26.4640  -34.8590   22.2420 O   0  0  0  0  0  0  0  0  0  0  0  0
  -24.9400  -34.0630   24.8760 H   0  0  0  0  0  0  0  0  0  0  0  0
  -24.0620  -36.7310   22.9560 C   0  0  0  0  0  1  0  0  0  0  0  0
  -25.3220  -36.3450   23.7460 C   0  0  0  0  0  3  0  0  0  0  0  0
  -27.4650  -37.2550   24.5260 C   0  0  0  0  0  1  0  0  0  0  0  0
  -26.3400  -37.4100   23.6080 N   0  0  0  0  0  0  0  0  0  0  0  0
  -25.9280  -38.3250   23.7640 H   0  0  0  0  0  0  0  0  0  0  0  0
  -26.3860  -31.7560   25.0020 C   0  0  1  0  0  0  0  0  0  0  0  0
  -25.3220  -31.5170   26.0980 C   0  0  0  0  0  1  0  0  0  0  0  0
  -26.9750  -30.3820   24.6050 C   0  0  0  0  0  1  0  0  0  0  0  0
  -27.5420  -32.5690   25.6310 C   0  0  0  0  0  1  0  0  0  0  0  0
  -29.8680  -20.2160   19.8770 O   0  0  0  0  0  0  0  0  0  0  0  0
  -30.5240  -17.7790   20.1450 C   0  0  0  0  0  3  0  0  0  0  0  0
  -30.5000  -17.4360   22.4480 C   0  0  0  0  0  3  0  0  0  0  0  0
  -30.7060  -16.8290   21.2260 C   0  0  0  0  0  0  0  0  0  0  0  0
  -30.1990  -19.0690   20.5670 C   0  0  0  0  0  0  0  0  0  0  0  0
  -30.0790  -19.1180   22.3120 S   0  0  0  0  0  0  0  0  0  0  0  0
  -31.0580  -15.3380   21.1880 C   0  0  0  0  0  0  0  0  0  0  0  0
  -31.2390  -14.7200   22.2860 N   0  0  0  0  0  0  0  0  0  0  0  0
  -31.1130  -15.3410   23.0740 H   0  0  0  0  0  0  0  0  0  0  0  0
  -31.2500  -14.5670   19.8600 C   0  0  0  0  0  0  0  0  0  0  0  0
  -30.6680  -12.5840   18.4700 C   0  0  0  0  0  2  0  0  0  0  0  0
  -29.6060  -12.9200   17.4040 C   0  0  0  0  0  2  0  0  0  0  0  0
  -28.1830  -12.7930   17.9820 C   0  0  0  0  0  2  0  0  0  0  0  0
  -28.0340  -13.5240   19.3410 C   0  0  0  0  0  3  0  0  0  0  0  0
  -29.1810  -13.1370   20.2970 C   0  0  0  0  0  2  0  0  0  0  0  0
  -30.4650  -13.4600   19.6430 N   0  0  0  0  0  0  0  0  0  0  0  0
  -32.1810  -14.8710   19.1060 O   0  0  0  0  0  0  0  0  0  0  0  0
  -25.7660  -14.1920   20.3600 C   0  0  0  0  0  0  0  0  0  0  0  0
  -24.6990  -13.4460   20.7840 C   0  0  0  0  0  0  0  0  0  0  0  0
  -25.0700  -12.0800   20.5950 C   0  0  0  0  0  0  0  0  0  0  0  0
  -26.7240  -13.2800   19.9430 N   0  0  0  0  0  0  0  0  0  0  0  0
  -26.3140  -12.0000   20.1390 N   0  0  0  0  0  0  0  0  0  0  0  0
  -24.2930  -10.8460   20.7640 C   0  0  0  0  0  0  0  0  0  0  0  0
  -24.7670   -9.7790   21.5600 C   0  0  0  0  0  3  0  0  0  0  0  0
  -23.9930   -8.6090   21.7220 C   0  0  0  0  0  3  0  0  0  0  0  0
  -22.7320   -8.5000   21.0900 C   0  0  0  0  0  0  0  0  0  0  0  0
  -22.2750   -9.5550   20.2810 C   0  0  0  0  0  3  0  0  0  0  0  0
  -23.0480  -10.7160   20.1170 C   0  0  0  0  0  3  0  0  0  0  0  0
  -21.9230   -7.3920   21.1710 O   0  0  0  0  0  0  0  0  0  0  0  0
  -21.9580   -6.5530   22.2560 C   0  0  0  0  0  0  0  0  0  0  0  0
  -21.7420   -7.0230   23.5690 C   0  0  0  0  0  3  0  0  0  0  0  0
  -21.7170   -6.1150   24.6470 C   0  0  0  0  0  3  0  0  0  0  0  0
  -21.8970   -4.7390   24.4140 C   0  0  0  0  0  0  0  0  0  0  0  0
  -22.1070   -4.2680   23.1050 C   0  0  0  0  0  3  0  0  0  0  0  0
  -22.1340   -5.1730   22.0290 C   0  0  0  0  0  0  0  0  0  0  0  0
  -22.3150   -4.7110   20.7680 F   0  0  0  0  0  0  0  0  0  0  0  0
  -21.8660   -3.8660   25.4460 F   0  0  0  0  0  0  0  0  0  0  0  0
  -23.3700  -13.9700   21.2500 C   0  0  0  0  0  0  0  0  0  0  0  0
  -22.7110  -13.2550   22.1540 N   0  0  0  0  0  0  0  0  0  0  0  0
  -22.9300  -15.0460   20.8480 O   0  0  0  0  0  0  0  0  0  0  0  0
  -23.0810  -12.3820   22.5020 H   0  0  0  0  0  0  0  0  0  0  0  0
  -21.8230  -13.5850   22.5040 H   0  0  0  0  0  0  0  0  0  0  0  0
  -25.9930  -15.5620   20.2760 N   0  0  0  0  0  0  0  0  0  0  0  0
  -25.2850  -16.2420   20.5320 H   0  0  0  0  0  0  0  0  0  0  0  0
  -26.8330  -15.9850   19.9020 H   0  0  0  0  0  0  0  0  0  0  0  0
  2  3  1  0
  2  1  1  0
  3  4  2  0
  5  6  1  0
  5  3  1  0
  7 18  2  0
  8  6  1  0
  8 13  1  0
  9 17  1  0
  9 19  1  0
 10 16  1  0
 10 12  1  0
 11 17  1  0
 12 11  1  0
 13 12  2  0
 14 15  1  0
 14  8  2  0
 15 10  2  0
 16  9  1  0
 17  7  1  0
 19 21  2  0
 20 19  1  0
 22 20  1  0
 23 32  2  0
 23 28  1  0
 24 20  1  0
 24 28  1  0
 25 24  1  0
 26 27  1  0
 26 25  1  0
 27 23  1  0
 28 29  2  0
 29 30  1  0
 31 30  2  0
 32 31  1  0
 33  7  1  0
 33 34  1  0
 33 43  1  0
 34 37  1  0
 35 39  1  0
 35 34  1  0
 36 35  2  0
 39 38  1  0
 41 39  1  0
 41 42  1  0
 41 40  1  0
 43 46  1  1
 43 44  1  0
 45 43  1  0
 47  1  1  0
 47 51  1  0
 48 51  2  0
 48 50  1  0
 50 49  2  0
 51 52  1  0
 52 49  1  0
 53 50  1  0
 53 54  2  0
 54 55  1  0
 56 53  1  0
 57 62  1  0
 58 59  1  0
 58 57  1  0
 60 59  1  0
 60 67  1  0
 60 61  1  0
 62 56  1  0
 62 61  1  0
 63 56  2  0
 64 65  2  0
 65 84  1  0
 66 69  1  0
 66 65  1  0
 67 68  1  0
 67 64  1  0
 68 66  2  0
 69 70  1  0
 70 71  2  0
 72 75  1  0
 72 71  1  0
 73 72  2  0
 74 73  1  0
 74 69  2  0
 75 76  1  0
 76 77  1  0
 77 78  2  0
 79 78  1  0
 79 83  1  0
 80 79  2  0
 81 76  2  0
 81 80  1  0
 82 81  1  0
 84 85  1  0
 85 87  1  0
 85 88  1  0
 86 84  2  0
 89 64  1  0
 89 90  1  0
 91 89  1  0
M  ISO  4   5 101   6 101  53 100  56 100
M  END
>  <TORSDO>  (8) 
F 22

>  <SCORE>  (8) 
-10.721

>  <name>  (8) 
7

>  <ligand_id>  (8) 
7

>  <original_smiles>  (8) 
[H]N=C(C(=O)N1C([H])([H])C([H])([H])C([H])([H])C([H])(n2nc(-c3c([H])c([H])c(Oc4c([H])c([H])c(F)c([H])c4F)c([H])c3[H])c(C(=O)N([H])[H])c2N([H])[H])C1([H])[H])c1c([H])sc(OC([H])([H])C([H])([H])C(=O)C([H])([H])Oc2c([H])c([H])c3c(c2[H])C([H])([H])N(C(=O)C([H])(N([H])C(=O)C([H])(N([H])C([H])([H])[H])C([H])([H])[H])C(C([H])([H])[H])(C([H])([H])[H])C([H])([H])[H])C([H])(C(=O)N([H])C2([H])c4c([H])c([H])c([H])c([H])c4C([H])([H])C([H])([H])C2([H])[H])C3([H])[H])c1[H]

>  <smiles>  (8) 
[H]N=C(C(=O)N1C([H])([H])C([H])([H])C([H])([H])C([H])(n2nc(-c3c([H])c([H])c(Oc4c([H])c([H])c(F)c([H])c4F)c([H])c3[H])c(C(=O)N([H])[H])c2N([H])[H])C1([H])[H])c1c([H])sc(OC([H])([H])C([H])([H])C(=O)C([H])([H])Oc2c([H])c([H])c3c(c2[H])C([H])([H])N(C(=O)C([H])(N([H])C(=O)C([H])(N([H])C([H])([H])[H])C([H])([H])[H])C(C([H])([H])[H])(C([H])([H])[H])C([H])([H])[H])C([H])(C(=O)N([H])C2([H])c4c([H])c([H])c([H])c([H])c4C([H])([H])C([H])([H])C2([H])[H])C3([H])[H])c1[H]

$$$$
8:0:0
     RDKit          3D

 98101  0  0  1  0  0  0  0  0999 V2000
  -30.7030  -28.4730   14.9750 C   0  0  0  0  0  0  0  0  0  0  0  0
  -28.8020  -26.1890   14.6150 C   0  0  0  0  0  0  0  0  0  0  0  0
  -31.4980  -27.1480   15.1770 C   0  0  0  0  0  2  0  0  0  0  0  0
  -29.2240  -28.6100   14.4630 C   0  0  0  0  0  2  0  0  0  0  0  0
  -30.9330  -25.9990   16.0560 C   0  0  0  0  0  2  0  0  0  0  0  0
  -29.4120  -25.8550   16.0040 C   0  0  0  0  0  3  0  0  0  0  0  0
  -28.2960  -27.4400   14.5020 N   0  0  0  0  0  0  0  0  0  0  0  0
  -31.3480  -29.5150   15.0990 O   0  0  0  0  0  0  0  0  0  0  0  0
  -28.7450  -25.3410   13.7170 O   0  0  0  0  0  0  0  0  0  0  0  0
  -25.5110  -26.9420   16.9750 C   0  0  0  0  0  3  0  0  0  0  0  0
  -25.9140  -26.8570   15.2720 C   0  0  0  0  0  2  0  0  0  0  0  0
  -27.1610  -28.2910   16.4620 C   0  0  0  0  0  2  0  0  0  0  0  0
  -25.0810  -25.6790   18.3090 C   0  0  0  0  0  3  0  0  0  0  0  0
  -27.1080  -27.6090   15.2600 C   0  0  0  0  0  3  0  0  0  0  0  0
  -25.8810  -27.7010   17.2790 C   0  0  0  0  0  3  0  0  0  0  0  0
  -25.7610  -29.2140   17.4810 N   0  0  0  0  0  0  0  0  0  0  0  0
  -25.7970  -29.7130   16.5920 H   0  0  0  0  0  0  0  0  0  0  0  0
  -24.9310  -29.4630   17.9860 H   0  0  0  0  0  0  0  0  0  0  0  0
  -26.3460  -23.0090   18.8050 C   0  0  0  0  0 15  0  0  0  0  0  0
  -27.0100  -20.9800   19.2320 N   0  0  0  0  0 15  0  0  0  0  0  0
  -28.2620  -18.8970   19.6030 C   0  0  0  0  0  2  0  0  0  0  0  0
  -29.6180  -15.7670   19.6440 C   0  0  0  0  0  2  0  0  0  0  0  0
  -29.5110  -14.2600   18.8960 C   0  0  0  0  0  2  0  0  0  0  0  0
  -28.4670  -13.2940   19.4520 C   0  0  0  0  0  2  0  0  0  0  0  0
  -27.3930  -14.2670   19.9310 C   0  0  0  0  0  3  0  0  0  0  0  0
  -27.8050  -15.7060   20.6910 C   0  0  0  0  0  2  0  0  0  0  0  0
  -28.4050  -17.0360   19.8670 N   0  0  0  0  0  0  0  0  0  0  0  0
  -29.5700  -18.6320   19.6810 O   0  0  0  0  0  1  0  0  0  0  0  0
  -25.0140  -14.2680   20.6030 C   0  0  0  0  0  0  0  0  0  0  0  0
  -24.0540  -13.3670   20.9310 C   0  0  0  0  0  0  0  0  0  0  0  0
  -24.6720  -12.0760   20.8900 C   0  0  0  0  0  0  0  0  0  0  0  0
  -26.1830  -13.5800   20.4300 N   0  0  0  0  0  0  0  0  0  0  0  0
  -25.9880  -12.2210   20.6130 N   0  0  0  0  0  0  0  0  0  0  0  0
  -24.0190  -10.7480   21.0450 C   0  0  0  0  0  0  0  0  0  0  0  0
  -24.4490   -9.8000   22.0030 C   0  0  0  0  0  3  0  0  0  0  0  0
  -23.7630   -8.5730   22.1690 C   0  0  0  0  0  3  0  0  0  0  0  0
  -22.6260   -8.2740   21.3820 C   0  0  0  0  0  0  0  0  0  0  0  0
  -22.2080   -9.2060   20.4160 C   0  0  0  0  0  3  0  0  0  0  0  0
  -22.8960  -10.4230   20.2480 C   0  0  0  0  0  3  0  0  0  0  0  0
  -21.9150   -7.0950   21.4550 O   0  0  0  0  0  0  0  0  0  0  0  0
  -21.8300   -6.3670   22.6160 C   0  0  0  0  0  0  0  0  0  0  0  0
  -21.2840   -6.9140   23.7970 C   0  0  0  0  0  3  0  0  0  0  0  0
  -21.1500   -6.1150   24.9500 C   0  0  0  0  0  3  0  0  0  0  0  0
  -21.5540   -4.7670   24.9240 C   0  0  0  0  0  0  0  0  0  0  0  0
  -22.0940   -4.2170   23.7480 C   0  0  0  0  0  3  0  0  0  0  0  0
  -22.2280   -5.0140   22.5980 C   0  0  0  0  0  0  0  0  0  0  0  0
  -22.7300   -4.4710   21.4620 F   0  0  0  0  0  0  0  0  0  0  0  0
  -21.4200   -3.9970   26.0300 F   0  0  0  0  0  0  0  0  0  0  0  0
  -22.6140  -13.7150   21.1480 C   0  0  0  0  0  0  0  0  0  0  0  0
  -21.9370  -12.9810   22.0200 N   0  0  0  0  0  0  0  0  0  0  0  0
  -22.1100  -14.6910   20.5930 O   0  0  0  0  0  0  0  0  0  0  0  0
  -22.3710  -12.2000   22.4880 H   0  0  0  0  0  0  0  0  0  0  0  0
  -20.9760  -13.1960   22.2340 H   0  0  0  0  0  0  0  0  0  0  0  0
  -24.9760  -15.6390   20.3900 N   0  0  0  0  0  0  0  0  0  0  0  0
  -24.1150  -16.1710   20.4590 H   0  0  0  0  0  0  0  0  0  0  0  0
  -25.7820  -16.1850   20.1100 H   0  0  0  0  0  0  0  0  0  0  0  0
  -28.7480  -24.6920   16.7850 C   0  0  0  0  0  2  0  0  0  0  0  0
  -28.4480  -25.1490   18.1030 O   0  0  0  0  0  0  0  0  0  0  0  0
  -24.2600  -30.5120   22.9210 C   0  0  0  0  0  0  0  0  0  0  0  0
  -27.2610  -24.8800   18.5760 C   0  0  0  0  0  1  0  0  0  0  0  0
  -22.8750  -29.1620   21.2520 C   0  0  0  0  0  3  0  0  0  0  0  0
  -23.6640  -26.6220   19.8310 C   0  0  0  0  0  2  0  0  0  0  0  0
  -25.2890  -28.4660   21.5780 C   0  0  0  0  0  2  0  0  0  0  0  0
  -25.2440  -26.9020   20.8220 C   0  0  0  0  0  2  0  0  0  0  0  0
  -27.0160  -26.0100   20.4080 C   0  0  0  0  0 15  0  0  0  0  0  0
  -25.3830  -24.3010   17.4240 C   0  0  0  0  0  1  0  0  0  0  0  0
  -23.4900  -25.2460   18.2740 C   0  0  0  0  0  1  0  0  0  0  0  0
  -22.8800  -28.1120   19.9620 C   0  0  0  0  0  2  0  0  0  0  0  0
  -24.2060  -29.5390   21.8660 N   0  0  0  0  0  0  0  0  0  0  0  0
  -23.2240  -30.9800   23.4400 O   0  0  0  0  0  0  0  0  0  0  0  0
  -22.0480  -28.4980   22.3470 C   0  0  0  0  0  0  0  0  0  0  0  0
  -20.7090  -28.5660   22.2970 N   0  0  0  0  0  0  0  0  0  0  0  0
  -22.6420  -27.8430   23.2010 O   0  0  0  0  0  0  0  0  0  0  0  0
  -20.2790  -29.1400   21.5910 H   0  0  0  0  0  0  0  0  0  0  0  0
  -17.3320  -27.3100   22.6690 C   0  0  0  0  0  0  0  0  0  0  0  0
  -19.8610  -27.6330   23.0340 C   0  0  0  0  0  3  0  0  0  0  0  0
  -20.0230  -26.2110   22.4430 C   0  0  0  0  0  2  0  0  0  0  0  0
  -18.9700  -25.8980   21.3770 C   0  0  0  0  0  2  0  0  0  0  0  0
  -17.5710  -25.9780   21.9870 C   0  0  0  0  0  2  0  0  0  0  0  0
  -18.4070  -28.1020   23.1460 C   0  0  0  0  0  0  0  0  0  0  0  0
  -18.1310  -29.3440   23.7610 C   0  0  0  0  0  3  0  0  0  0  0  0
  -16.8030  -29.7880   23.9100 C   0  0  0  0  0  3  0  0  0  0  0  0
  -15.7420  -28.9940   23.4410 C   0  0  0  0  0  3  0  0  0  0  0  0
  -16.0080  -27.7600   22.8260 C   0  0  0  0  0  3  0  0  0  0  0  0
  -25.5800  -31.1130   23.5940 C   0  0  0  0  0  3  0  0  0  0  0  0
  -25.9980  -30.4410   24.9760 C   0  0  1  0  0  0  0  0  0  0  0  0
  -24.8260  -30.3790   25.9880 C   0  0  0  0  0  1  0  0  0  0  0  0
  -26.5370  -29.0050   24.8250 C   0  0  0  0  0  1  0  0  0  0  0  0
  -27.1780  -31.2190   25.6220 C   0  0  0  0  0  1  0  0  0  0  0  0
  -25.4170  -32.5890   23.8710 N   0  0  0  0  0  0  0  0  0  0  0  0
  -26.0200  -33.6220   23.2490 C   0  0  0  0  0  0  0  0  0  0  0  0
  -26.7550  -33.4410   22.2780 O   0  0  0  0  0  0  0  0  0  0  0  0
  -24.7620  -32.8310   24.6020 H   0  0  0  0  0  0  0  0  0  0  0  0
  -24.6190  -35.7180   22.9630 C   0  0  0  0  0  1  0  0  0  0  0  0
  -25.7730  -35.0760   23.7550 C   0  0  0  0  0  3  0  0  0  0  0  0
  -28.0150  -35.6310   24.6160 C   0  0  0  0  0  1  0  0  0  0  0  0
  -26.9570  -35.9690   23.6680 N   0  0  0  0  0  0  0  0  0  0  0  0
  -26.6960  -36.9420   23.8080 H   0  0  0  0  0  0  0  0  0  0  0  0
  1  8  2  0
  1  3  1  0
  2  6  1  0
  3  5  1  0
  4  7  1  0
  4  1  1  0
  6  5  1  0
  6 57  1  0
  7  2  1  0
  9  2  2  0
 10 15  1  0
 10 13  1  0
 11 10  1  0
 12 15  1  0
 14  7  1  0
 14 11  1  0
 14 12  1  0
 15 16  1  0
 16 18  1  0
 17 16  1  0
 21 28  1  0
 21 27  1  0
 22 27  1  0
 23 24  1  0
 23 22  1  0
 25 24  1  0
 25 32  1  0
 25 26  1  0
 27 26  1  0
 29 30  2  0
 30 49  1  0
 31 30  1  0
 31 34  1  0
 32 29  1  0
 32 33  1  0
 33 31  2  0
 34 35  1  0
 35 36  2  0
 37 40  1  0
 37 36  1  0
 38 37  2  0
 39 38  1  0
 39 34  2  0
 40 41  1  0
 41 42  1  0
 42 43  2  0
 44 43  1  0
 44 48  1  0
 45 44  2  0
 46 41  2  0
 46 45  1  0
 47 46  1  0
 49 50  1  0
 50 53  1  0
 50 52  1  0
 51 49  2  0
 54 55  1  0
 54 29  1  0
 56 54  1  0
 57 58  1  0
 58 60  1  0
 59 70  2  0
 61 69  1  0
 61 71  1  0
 62 68  1  0
 62 64  1  0
 63 69  1  0
 64 63  1  0
 66 13  1  0
 67 13  1  0
 68 61  1  0
 69 59  1  0
 71 73  2  0
 72 71  1  0
 74 72  1  0
 75 84  2  0
 75 80  1  0
 76 72  1  0
 76 80  1  0
 77 76  1  0
 78 79  1  0
 78 77  1  0
 79 75  1  0
 80 81  2  0
 81 82  1  0
 83 82  2  0
 84 83  1  0
 85 59  1  0
 85 90  1  0
 85 86  1  0
 86 89  1  1
 86 87  1  0
 88 86  1  0
 90 93  1  0
 91 95  1  0
 91 90  1  0
 92 91  2  0
 95 94  1  0
 97 95  1  0
 97 98  1  0
 97 96  1  0
M  ISO  4  20 100  21 100  57 101  58 101
M  END
>  <TORSDO>  (9) 
F 20

>  <SCORE>  (9) 
-11.994

>  <name>  (9) 
8

>  <ligand_id>  (9) 
8

>  <original_smiles>  (9) 
[H]C(=NC(=O)N1C([H])([H])C([H])([H])C([H])([H])C([H])(n2nc(-c3c([H])c([H])c(Oc4c([H])c([H])c(F)c([H])c4F)c([H])c3[H])c(C(=O)N([H])[H])c2N([H])[H])C1([H])[H])c1c([H])c([H])c(N2C(=O)C([H])(C([H])([H])Oc3c([H])c([H])c4c(c3[H])C([H])([H])N(C(=O)C([H])(N([H])C(=O)C([H])(N([H])C([H])([H])[H])C([H])([H])[H])C(C([H])([H])[H])(C([H])([H])[H])C([H])([H])[H])C([H])(C(=O)N([H])C3([H])c5c([H])c([H])c([H])c([H])c5C([H])([H])C([H])([H])C3([H])[H])C4([H])[H])C([H])([H])C([H])([H])C(=O)C2([H])[H])c([H])c1N([H])[H]

>  <smiles>  (9) 
[H]C(=NC(=O)N1C([H])([H])C([H])([H])C([H])([H])C([H])(n2nc(-c3c([H])c([H])c(Oc4c([H])c([H])c(F)c([H])c4F)c([H])c3[H])c(C(=O)N([H])[H])c2N([H])[H])C1([H])[H])c1c([H])c([H])c(N2C(=O)C([H])(C([H])([H])Oc3c([H])c([H])c4c(c3[H])C([H])([H])N(C(=O)C([H])(N([H])C(=O)C([H])(N([H])C([H])([H])[H])C([H])([H])[H])C(C([H])([H])[H])(C([H])([H])[H])C([H])([H])[H])C([H])(C(=O)N([H])C3([H])c5c([H])c([H])c([H])c([H])c5C([H])([H])C([H])([H])C3([H])[H])C4([H])[H])C([H])([H])C([H])([H])C(=O)C2([H])[H])c([H])c1N([H])[H]

$$$$
9:0:0
     RDKit          3D

 93101  0  0  1  0  0  0  0  0999 V2000
  -28.6520  -19.7180   20.6150 C   0  0  0  0  0  3  0  0  0  0  0  0
  -30.5580  -18.5620   18.9810 C   0  0  0  0  0  3  0  0  0  0  0  0
  -28.9330  -18.3000   20.6780 C   0  0  0  0  0  0  0  0  0  0  0  0
  -29.2840  -20.6590   19.7430 C   0  0  0  0  0  0  0  0  0  0  0  0
  -29.8850  -17.6210   19.8440 C   0  0  0  0  0  0  0  0  0  0  0  0
  -30.2760  -20.0110   18.9150 C   0  0  0  0  0  0  0  0  0  0  0  0
  -28.1480  -17.4810   21.6910 C   0  0  0  0  0  1  0  0  0  0  0  0
  -30.7600  -15.0040   19.4470 C   0  0  0  0  0  0  0  0  0  0  0  0
  -30.5640  -12.6670   18.4810 C   0  0  0  0  0  2  0  0  0  0  0  0
  -29.4670  -12.6520   17.3890 C   0  0  0  0  0  2  0  0  0  0  0  0
  -28.0740  -12.4220   18.0100 C   0  0  0  0  0  2  0  0  0  0  0  0
  -27.8300  -13.3150   19.2530 C   0  0  0  0  0  3  0  0  0  0  0  0
  -29.0290  -13.2860   20.2280 C   0  0  0  0  0  2  0  0  0  0  0  0
  -30.2140  -13.7210   19.4730 N   0  0  0  0  0  0  0  0  0  0  0  0
  -31.8740  -15.1490   18.9320 O   0  0  0  0  0  0  0  0  0  0  0  0
  -29.9640  -16.0860   19.8930 N   0  0  0  0  0  0  0  0  0  0  0  0
  -29.1710  -15.7020   20.3830 H   0  0  0  0  0  0  0  0  0  0  0  0
  -25.5960  -13.8710   20.3770 C   0  0  0  0  0  0  0  0  0  0  0  0
  -24.5760  -13.0840   20.8410 C   0  0  0  0  0  0  0  0  0  0  0  0
  -24.9930  -11.7340   20.6320 C   0  0  0  0  0  0  0  0  0  0  0  0
  -26.5690  -12.9990   19.9170 N   0  0  0  0  0  0  0  0  0  0  0  0
  -26.2230  -11.7030   20.1310 N   0  0  0  0  0  0  0  0  0  0  0  0
  -24.2670  -10.4710   20.8260 C   0  0  0  0  0  0  0  0  0  0  0  0
  -24.6970   -9.5070   21.7650 C   0  0  0  0  0  3  0  0  0  0  0  0
  -23.9690   -8.3130   21.9470 C   0  0  0  0  0  3  0  0  0  0  0  0
  -22.7980   -8.0710   21.1900 C   0  0  0  0  0  0  0  0  0  0  0  0
  -22.3870   -9.0230   20.2400 C   0  0  0  0  0  3  0  0  0  0  0  0
  -23.1160  -10.2110   20.0560 C   0  0  0  0  0  3  0  0  0  0  0  0
  -22.0430   -6.9270   21.2800 O   0  0  0  0  0  0  0  0  0  0  0  0
  -21.8200   -6.3050   22.4830 C   0  0  0  0  0  0  0  0  0  0  0  0
  -21.1750   -6.9620   23.5530 C   0  0  0  0  0  3  0  0  0  0  0  0
  -20.9040   -6.2640   24.7470 C   0  0  0  0  0  3  0  0  0  0  0  0
  -21.2670   -4.9100   24.8700 C   0  0  0  0  0  0  0  0  0  0  0  0
  -21.9060   -4.2530   23.8030 C   0  0  0  0  0  3  0  0  0  0  0  0
  -22.1780   -4.9480   22.6130 C   0  0  0  0  0  0  0  0  0  0  0  0
  -22.7740   -4.3030   21.5800 F   0  0  0  0  0  0  0  0  0  0  0  0
  -21.0010   -4.2370   26.0140 F   0  0  0  0  0  0  0  0  0  0  0  0
  -23.2480  -13.5600   21.3540 C   0  0  0  0  0  0  0  0  0  0  0  0
  -22.6460  -12.8180   22.2770 N   0  0  0  0  0  0  0  0  0  0  0  0
  -22.7600  -14.6230   20.9740 O   0  0  0  0  0  0  0  0  0  0  0  0
  -23.0560  -11.9550   22.6030 H   0  0  0  0  0  0  0  0  0  0  0  0
  -21.7630  -13.1190   22.6620 H   0  0  0  0  0  0  0  0  0  0  0  0
  -25.7640  -15.2490   20.2810 N   0  0  0  0  0  0  0  0  0  0  0  0
  -25.0220  -15.8930   20.5300 H   0  0  0  0  0  0  0  0  0  0  0  0
  -26.5280  -15.7000   19.7960 H   0  0  0  0  0  0  0  0  0  0  0  0
  -29.1690  -23.4330   19.6400 C   0  0  0  0  0  0  0  0  0  0  0  0
  -28.7230  -22.0870   19.6500 N   0  0  0  0  0  0  0  0  0  0  0  0
  -30.3710  -23.6900   19.7480 O   0  0  0  0  0  0  0  0  0  0  0  0
  -27.7130  -22.0810   19.6600 H   0  0  0  0  0  0  0  0  0  0  0  0
  -28.1080  -24.6970   19.4680 C   0  0  0  0  0  2  0  0  0  0  0  0
  -28.4340  -26.2000   19.7210 O   0  0  0  0  0  0  0  0  0  0  0  0
  -24.7270  -31.6410   23.0670 C   0  0  0  0  0  0  0  0  0  0  0  0
  -27.3660  -27.1760   19.7250 C   0  0  0  0  0  0  0  0  0  0  0  0
  -23.5410  -30.3340   21.3470 C   0  0  0  0  0  3  0  0  0  0  0  0
  -25.0060  -28.8810   19.8200 C   0  0  0  0  0  0  0  0  0  0  0  0
  -26.0910  -30.6510   21.1910 C   0  0  0  0  0  2  0  0  0  0  0  0
  -26.1830  -29.3050   20.4500 C   0  0  0  0  0  0  0  0  0  0  0  0
  -27.3620  -28.4700   20.3870 C   0  0  0  0  0  3  0  0  0  0  0  0
  -26.1570  -26.8590   19.0630 C   0  0  0  0  0  3  0  0  0  0  0  0
  -25.0060  -27.6720   19.1130 C   0  0  0  0  0  3  0  0  0  0  0  0
  -23.7650  -29.7520   19.9290 C   0  0  0  0  0  2  0  0  0  0  0  0
  -24.8060  -30.8930   21.9250 N   0  0  0  0  0  0  0  0  0  0  0  0
  -23.6400  -31.8740   23.6150 O   0  0  0  0  0  0  0  0  0  0  0  0
  -22.8840  -29.2560   22.2470 C   0  0  0  0  0  0  0  0  0  0  0  0
  -21.5570  -29.0730   22.1160 N   0  0  0  0  0  0  0  0  0  0  0  0
  -23.5700  -28.5890   23.0250 O   0  0  0  0  0  0  0  0  0  0  0  0
  -21.0600  -29.6640   21.4640 H   0  0  0  0  0  0  0  0  0  0  0  0
  -18.1870  -27.8360   22.6080 C   0  0  0  0  0  0  0  0  0  0  0  0
  -20.7540  -28.0770   22.8300 C   0  0  0  0  0  3  0  0  0  0  0  0
  -20.8380  -26.6960   22.1410 C   0  0  0  0  0  2  0  0  0  0  0  0
  -19.7100  -26.4540   21.1330 C   0  0  0  0  0  2  0  0  0  0  0  0
  -18.3440  -26.5460   21.8210 C   0  0  0  0  0  2  0  0  0  0  0  0
  -19.3180  -28.5630   23.0690 C   0  0  0  0  0  0  0  0  0  0  0  0
  -19.1160  -29.7730   23.7680 C   0  0  0  0  0  3  0  0  0  0  0  0
  -17.8160  -30.2560   24.0090 C   0  0  0  0  0  3  0  0  0  0  0  0
  -16.7010  -29.5260   23.5640 C   0  0  0  0  0  3  0  0  0  0  0  0
  -16.8870  -28.3180   22.8690 C   0  0  0  0  0  3  0  0  0  0  0  0
  -25.9990  -32.2560   23.7270 C   0  0  0  0  0  3  0  0  0  0  0  0
  -26.5100  -31.4310   24.9720 C   0  0  1  0  0  0  0  0  0  0  0  0
  -25.4060  -31.1190   26.0080 C   0  0  0  0  0  1  0  0  0  0  0  0
  -27.1290  -30.0850   24.5270 C   0  0  0  0  0  1  0  0  0  0  0  0
  -27.6350  -32.2130   25.6920 C   0  0  0  0  0  1  0  0  0  0  0  0
  -25.6750  -33.6350   24.1240 N   0  0  0  0  0  0  0  0  0  0  0  0
  -25.9520  -34.7250   23.3950 C   0  0  0  0  0  0  0  0  0  0  0  0
  -26.5750  -34.6750   22.3320 O   0  0  0  0  0  0  0  0  0  0  0  0
  -25.1180  -33.7460   24.9590 H   0  0  0  0  0  0  0  0  0  0  0  0
  -24.1520  -36.4740   23.2300 C   0  0  0  0  0  1  0  0  0  0  0  0
  -25.4630  -36.0850   23.9310 C   0  0  0  0  0  3  0  0  0  0  0  0
  -27.6210  -37.0230   24.6350 C   0  0  0  0  0  1  0  0  0  0  0  0
  -26.4530  -37.1720   23.7700 N   0  0  0  0  0  0  0  0  0  0  0  0
  -26.0300  -38.0770   23.9630 H   0  0  0  0  0  0  0  0  0  0  0  0
  -31.8710  -20.2890   17.1320 C   0  0  0  0  0  1  0  0  0  0  0  0
  -30.9030  -20.8450   18.0120 O   0  0  0  0  0  0  0  0  0  0  0  0
  1  3  1  0
  2  5  1  0
  3  7  1  0
  4  1  2  0
  5 16  1  0
  5  3  2  0
  6  2  2  0
  6  4  1  0
  8 14  1  0
  8 16  1  0
  9 14  1  0
 10 11  1  0
 10  9  1  0
 12 11  1  0
 12 21  1  0
 12 13  1  0
 14 13  1  0
 15  8  2  0
 16 17  1  0
 18 19  2  0
 19 38  1  0
 20 23  1  0
 20 19  1  0
 21 22  1  0
 21 18  1  0
 22 20  2  0
 23 24  1  0
 24 25  2  0
 26 29  1  0
 26 25  1  0
 27 26  2  0
 28 27  1  0
 28 23  2  0
 29 30  1  0
 30 35  2  0
 30 31  1  0
 31 32  2  0
 32 33  1  0
 33 37  1  0
 34 33  2  0
 35 34  1  0
 36 35  1  0
 38 39  1  0
 39 41  1  0
 39 42  1  0
 40 38  2  0
 43 18  1  0
 43 44  1  0
 45 43  1  0
 46 47  1  0
 46 48  2  0
 47 49  1  0
 47  4  1  0
 50 46  1  0
 50 51  1  0
 51 53  1  0
 52 63  2  0
 53 58  1  0
 54 62  1  0
 54 64  1  0
 55 61  1  0
 55 57  1  0
 56 62  1  0
 57 56  1  0
 58 57  2  0
 59 60  1  0
 59 53  2  0
 60 55  2  0
 61 54  1  0
 62 52  1  0
 64 66  2  0
 65 64  1  0
 67 65  1  0
 68 77  2  0
 68 73  1  0
 69 65  1  0
 69 73  1  0
 70 69  1  0
 71 72  1  0
 71 70  1  0
 72 68  1  0
 73 74  2  0
 74 75  1  0
 76 75  2  0
 77 76  1  0
 78 52  1  0
 78 83  1  0
 78 79  1  0
 79 82  1  1
 79 80  1  0
 81 79  1  0
 83 86  1  0
 84 88  1  0
 84 83  1  0
 85 84  2  0
 88 87  1  0
 90 88  1  0
 90 91  1  0
 90 89  1  0
 92 93  1  0
 93  6  1  0
M  ISO  4   8 100  16 100  50 101  51 101
M  END
>  <TORSDO>  (10) 
F 19

>  <SCORE>  (10) 
-10.546

>  <name>  (10) 
9

>  <ligand_id>  (10) 
9

>  <original_smiles>  (10) 
[H]c1c([H])c([H])c2c(c1[H])C([H])([H])C([H])([H])C([H])([H])C2([H])N([H])C(=O)C1([H])N(C(=O)C([H])(N([H])C(=O)C([H])(N([H])C([H])([H])[H])C([H])([H])[H])C(C([H])([H])[H])(C([H])([H])[H])C([H])([H])[H])C([H])([H])c2c([H])c(OC([H])([H])C(=O)N([H])c3c([H])c(C([H])([H])[H])c(N([H])C(=O)N4C([H])([H])C([H])([H])C([H])([H])C([H])(n5nc(-c6c([H])c([H])c(Oc7c([H])c([H])c(F)c([H])c7F)c([H])c6[H])c(C(=O)N([H])[H])c5N([H])[H])C4([H])[H])c([H])c3OC([H])([H])[H])c([H])c([H])c2C1([H])[H]

>  <smiles>  (10) 
[H]c1c([H])c([H])c2c(c1[H])C([H])([H])C([H])([H])C([H])([H])C2([H])N([H])C(=O)C1([H])N(C(=O)C([H])(N([H])C(=O)C([H])(N([H])C([H])([H])[H])C([H])([H])[H])C(C([H])([H])[H])(C([H])([H])[H])C([H])([H])[H])C([H])([H])c2c([H])c(OC([H])([H])C(=O)N([H])c3c([H])c(C([H])([H])[H])c(N([H])C(=O)N4C([H])([H])C([H])([H])C([H])([H])C([H])(n5nc(-c6c([H])c([H])c(Oc7c([H])c([H])c(F)c([H])c7F)c([H])c6[H])c(C(=O)N([H])[H])c5N([H])[H])C4([H])[H])c([H])c3OC([H])([H])[H])c([H])c([H])c2C1([H])[H]

$$$$
10:0:0
     RDKit          3D

 92100  0  0  1  0  0  0  0  0999 V2000
  -30.5930  -17.4760   20.3270 C   0  0  0  0  0  3  0  0  0  0  0  0
  -30.3080  -18.8640   20.3820 C   0  0  0  0  0  3  0  0  0  0  0  0
  -30.8530  -17.4320   22.7280 C   0  0  0  0  0  3  0  0  0  0  0  0
  -30.8810  -16.7260   21.5000 C   0  0  0  0  0  0  0  0  0  0  0  0
  -30.3010  -19.5500   21.6210 C   0  0  0  0  0  0  0  0  0  0  0  0
  -30.5710  -18.8090   22.7890 C   0  0  0  0  0  0  0  0  0  0  0  0
  -30.5660  -19.4310   23.9930 F   0  0  0  0  0  0  0  0  0  0  0  0
  -31.2220  -15.2520   21.5270 C   0  0  0  0  0  0  0  0  0  0  0  0
  -31.3550  -14.6260   22.6270 N   0  0  0  0  0  0  0  0  0  0  0  0
  -31.2120  -15.2370   23.4200 H   0  0  0  0  0  0  0  0  0  0  0  0
  -31.4200  -14.5120   20.2020 C   0  0  0  0  0  0  0  0  0  0  0  0
  -30.8580  -12.5270   18.8360 C   0  0  0  0  0  2  0  0  0  0  0  0
  -29.8350  -12.8550   17.7320 C   0  0  0  0  0  2  0  0  0  0  0  0
  -28.3970  -12.7380   18.2670 C   0  0  0  0  0  2  0  0  0  0  0  0
  -28.2020  -13.5050   19.6000 C   0  0  0  0  0  3  0  0  0  0  0  0
  -29.3150  -13.1460   20.6070 C   0  0  0  0  0  2  0  0  0  0  0  0
  -30.6230  -13.4250   19.9790 N   0  0  0  0  0  0  0  0  0  0  0  0
  -32.3560  -14.8250   19.4560 O   0  0  0  0  0  0  0  0  0  0  0  0
  -25.8980  -14.1860   20.5290 C   0  0  0  0  0  0  0  0  0  0  0  0
  -24.8210  -13.4450   20.9360 C   0  0  0  0  0  0  0  0  0  0  0  0
  -25.2050  -12.0770   20.7860 C   0  0  0  0  0  0  0  0  0  0  0  0
  -26.8730  -13.2710   20.1640 N   0  0  0  0  0  0  0  0  0  0  0  0
  -26.4620  -11.9940   20.3720 N   0  0  0  0  0  0  0  0  0  0  0  0
  -24.4280  -10.8420   20.9570 C   0  0  0  0  0  0  0  0  0  0  0  0
  -24.8410   -9.8290   21.8510 C   0  0  0  0  0  3  0  0  0  0  0  0
  -24.0680   -8.6590   22.0100 C   0  0  0  0  0  3  0  0  0  0  0  0
  -22.8700   -8.4930   21.2770 C   0  0  0  0  0  0  0  0  0  0  0  0
  -22.4760   -9.4950   20.3730 C   0  0  0  0  0  3  0  0  0  0  0  0
  -23.2480  -10.6570   20.2110 C   0  0  0  0  0  3  0  0  0  0  0  0
  -22.0690   -7.3780   21.3490 O   0  0  0  0  0  0  0  0  0  0  0  0
  -21.9340   -6.6630   22.5120 C   0  0  0  0  0  0  0  0  0  0  0  0
  -21.4790   -7.2620   23.7060 C   0  0  0  0  0  3  0  0  0  0  0  0
  -21.2880   -6.4750   24.8610 C   0  0  0  0  0  3  0  0  0  0  0  0
  -21.5410   -5.0910   24.8190 C   0  0  0  0  0  0  0  0  0  0  0  0
  -21.9900   -4.4920   23.6290 C   0  0  0  0  0  3  0  0  0  0  0  0
  -22.1830   -5.2760   22.4770 C   0  0  0  0  0  0  0  0  0  0  0  0
  -22.5940   -4.6910   21.3270 F   0  0  0  0  0  0  0  0  0  0  0  0
  -21.3510   -4.3340   25.9250 F   0  0  0  0  0  0  0  0  0  0  0  0
  -23.4770  -13.9710   21.3490 C   0  0  0  0  0  0  0  0  0  0  0  0
  -22.7970  -13.2750   22.2530 N   0  0  0  0  0  0  0  0  0  0  0  0
  -23.0420  -15.0330   20.9060 O   0  0  0  0  0  0  0  0  0  0  0  0
  -23.1630  -12.4130   22.6320 H   0  0  0  0  0  0  0  0  0  0  0  0
  -21.8980  -13.6070   22.5720 H   0  0  0  0  0  0  0  0  0  0  0  0
  -26.1230  -15.5560   20.4240 N   0  0  0  0  0  0  0  0  0  0  0  0
  -25.4060  -16.2400   20.6350 H   0  0  0  0  0  0  0  0  0  0  0  0
  -26.9750  -15.9710   20.0650 H   0  0  0  0  0  0  0  0  0  0  0  0
  -30.0500  -20.8980   21.7960 O   0  0  0  0  0  0  0  0  0  0  0  0
  -29.8900  -21.7740   20.6810 C   0  0  0  0  0  2  0  0  0  0  0  0
  -29.5140  -23.1470   21.2860 C   0  0  0  0  0  2  0  0  0  0  0  0
  -29.3680  -24.3350   20.3050 C   0  0  0  0  0  2  0  0  0  0  0  0
  -28.9030  -25.6160   21.0400 C   0  0  0  0  0  2  0  0  0  0  0  0
  -28.9370  -26.7920   20.2210 O   0  0  0  0  0  0  0  0  0  0  0  0
  -24.8480  -31.7410   23.3170 C   0  0  0  0  0  0  0  0  0  0  0  0
  -27.7560  -27.4980   20.2070 C   0  0  0  0  0  0  0  0  0  0  0  0
  -23.7500  -30.3460   21.5930 C   0  0  0  0  0  3  0  0  0  0  0  0
  -25.3080  -28.9030   20.1780 C   0  0  0  0  0  0  0  0  0  0  0  0
  -26.2640  -30.8050   21.4920 C   0  0  0  0  0  2  0  0  0  0  0  0
  -26.4240  -29.4580   20.8180 C   0  0  0  0  0  0  0  0  0  0  0  0
  -27.6550  -28.7620   20.8280 C   0  0  0  0  0  3  0  0  0  0  0  0
  -26.6260  -26.9520   19.5650 C   0  0  0  0  0  3  0  0  0  0  0  0
  -25.4030  -27.6480   19.5490 C   0  0  0  0  0  3  0  0  0  0  0  0
  -24.0300  -29.7140   20.2040 C   0  0  0  0  0  2  0  0  0  0  0  0
  -24.9690  -30.9770   22.1940 N   0  0  0  0  0  0  0  0  0  0  0  0
  -23.7400  -31.9580   23.8260 O   0  0  0  0  0  0  0  0  0  0  0  0
  -23.1030  -29.2770   22.5020 C   0  0  0  0  0  0  0  0  0  0  0  0
  -21.7860  -29.0680   22.3360 N   0  0  0  0  0  0  0  0  0  0  0  0
  -23.7830  -28.6370   23.3080 O   0  0  0  0  0  0  0  0  0  0  0  0
  -21.2990  -29.6380   21.6600 H   0  0  0  0  0  0  0  0  0  0  0  0
  -18.4300  -27.7870   22.7160 C   0  0  0  0  0  0  0  0  0  0  0  0
  -20.9760  -28.0840   23.0520 C   0  0  0  0  0  3  0  0  0  0  0  0
  -21.1200  -26.6800   22.4210 C   0  0  0  0  0  2  0  0  0  0  0  0
  -20.0450  -26.3770   21.3720 C   0  0  0  0  0  2  0  0  0  0  0  0
  -18.6480  -26.4680   21.9920 C   0  0  0  0  0  2  0  0  0  0  0  0
  -19.5240  -28.5530   23.2000 C   0  0  0  0  0  0  0  0  0  0  0  0
  -19.2680  -29.7870   23.8350 C   0  0  0  0  0  3  0  0  0  0  0  0
  -17.9500  -30.2560   23.9920 C   0  0  0  0  0  3  0  0  0  0  0  0
  -16.8700  -29.4870   23.5260 C   0  0  0  0  0  3  0  0  0  0  0  0
  -17.1110  -28.2530   22.8940 C   0  0  0  0  0  3  0  0  0  0  0  0
  -26.0890  -32.3970   24.0000 C   0  0  0  0  0  3  0  0  0  0  0  0
  -25.7310  -33.7820   24.3310 N   0  0  0  0  0  0  0  0  0  0  0  0
  -26.0680  -34.8510   23.5960 C   0  0  0  0  0  0  0  0  0  0  0  0
  -26.7830  -34.7760   22.5940 O   0  0  0  0  0  0  0  0  0  0  0  0
  -25.1000  -33.9130   25.1070 H   0  0  0  0  0  0  0  0  0  0  0  0
  -24.3060  -36.5990   23.1880 C   0  0  0  0  0  1  0  0  0  0  0  0
  -25.5250  -36.2210   24.0460 C   0  0  0  0  0  3  0  0  0  0  0  0
  -27.6000  -37.1520   24.9690 C   0  0  0  0  0  1  0  0  0  0  0  0
  -26.5320  -37.3020   23.9850 N   0  0  0  0  0  0  0  0  0  0  0  0
  -26.0950  -38.2090   24.1260 H   0  0  0  0  0  0  0  0  0  0  0  0
  -26.5740  -31.6210   25.2860 C   0  0  1  0  0  0  0  0  0  0  0  0
  -25.4460  -31.3410   26.3050 C   0  0  0  0  0  1  0  0  0  0  0  0
  -27.2070  -30.2650   24.8970 C   0  0  0  0  0  1  0  0  0  0  0  0
  -27.6760  -32.4350   26.0040 C   0  0  0  0  0  1  0  0  0  0  0  0
  1  2  2  0
  1  4  1  0
  2  5  1  0
  3  6  1  0
  4  8  1  0
  4  3  2  0
  5 47  1  0
  5  6  2  0
  6  7  1  0
  8  9  2  0
  9 10  1  0
 11  8  1  0
 12 17  1  0
 13 14  1  0
 13 12  1  0
 15 14  1  0
 15 22  1  0
 15 16  1  0
 17 11  1  0
 17 16  1  0
 18 11  2  0
 19 20  2  0
 20 39  1  0
 21 20  1  0
 21 24  1  0
 22 23  1  0
 22 19  1  0
 23 21  2  0
 24 25  1  0
 25 26  2  0
 27 30  1  0
 27 26  1  0
 28 27  2  0
 29 28  1  0
 29 24  2  0
 30 31  1  0
 31 32  1  0
 32 33  2  0
 34 33  1  0
 34 38  1  0
 35 34  2  0
 36 31  2  0
 36 35  1  0
 37 36  1  0
 39 40  1  0
 40 43  1  0
 40 42  1  0
 41 39  2  0
 44 19  1  0
 44 45  1  0
 46 44  1  0
 48 49  1  0
 48 47  1  0
 50 51  1  0
 50 49  1  0
 52 51  1  0
 53 64  2  0
 54 52  1  0
 54 59  1  0
 55 63  1  0
 55 65  1  0
 56 62  1  0
 56 58  1  0
 57 63  1  0
 58 59  2  0
 58 57  1  0
 60 54  2  0
 61 60  1  0
 61 56  2  0
 62 55  1  0
 63 53  1  0
 65 67  2  0
 66 65  1  0
 68 66  1  0
 69 78  2  0
 69 74  1  0
 70 66  1  0
 70 74  1  0
 71 70  1  0
 72 73  1  0
 72 71  1  0
 73 69  1  0
 74 75  2  0
 75 76  1  0
 77 76  2  0
 78 77  1  0
 79 53  1  0
 79 80  1  0
 79 89  1  0
 80 83  1  0
 81 85  1  0
 81 80  1  0
 82 81  2  0
 85 84  1  0
 87 85  1  0
 87 88  1  0
 87 86  1  0
 89 92  1  1
 89 90  1  0
 91 89  1  0
M  ISO  4   8 100  11 100  51 101  52 101
M  END
>  <TORSDO>  (11) 
F 22

>  <SCORE>  (11) 
-10.745

>  <name>  (11) 
10

>  <ligand_id>  (11) 
10

>  <original_smiles>  (11) 
[H]N=C(C(=O)N1C([H])([H])C([H])([H])C([H])([H])C([H])(n2nc(-c3c([H])c([H])c(Oc4c([H])c([H])c(F)c([H])c4F)c([H])c3[H])c(C(=O)N([H])[H])c2N([H])[H])C1([H])[H])c1c([H])c([H])c(OC([H])([H])C([H])([H])C([H])([H])C([H])([H])Oc2c([H])c([H])c3c(c2[H])C([H])([H])N(C(=O)C([H])(N([H])C(=O)C([H])(N([H])C([H])([H])[H])C([H])([H])[H])C(C([H])([H])[H])(C([H])([H])[H])C([H])([H])[H])C([H])(C(=O)N([H])C2([H])c4c([H])c([H])c([H])c([H])c4C([H])([H])C([H])([H])C2([H])[H])C3([H])[H])c(F)c1[H]

>  <smiles>  (11) 
[H]N=C(C(=O)N1C([H])([H])C([H])([H])C([H])([H])C([H])(n2nc(-c3c([H])c([H])c(Oc4c([H])c([H])c(F)c([H])c4F)c([H])c3[H])c(C(=O)N([H])[H])c2N([H])[H])C1([H])[H])c1c([H])c([H])c(OC([H])([H])C([H])([H])C([H])([H])C([H])([H])Oc2c([H])c([H])c3c(c2[H])C([H])([H])N(C(=O)C([H])(N([H])C(=O)C([H])(N([H])C([H])([H])[H])C([H])([H])[H])C(C([H])([H])[H])(C([H])([H])[H])C([H])([H])[H])C([H])(C(=O)N([H])C2([H])c4c([H])c([H])c([H])c([H])c4C([H])([H])C([H])([H])C2([H])[H])C3([H])[H])c(F)c1[H]

$$$$
11:0:0
     RDKit          3D

 95104  0  0  1  0  0  0  0  0999 V2000
  -31.4700  -21.1090   19.3670 C   0  0  0  0  0  0  0  0  0  0  0  0
  -30.7280  -24.7140   19.1560 C   0  0  0  0  0  2  0  0  0  0  0  0
  -31.6970  -23.5350   19.1630 C   0  0  0  0  0  2  0  0  0  0  0  0
  -29.6490  -22.8070   20.1630 C   0  0  0  0  0  2  0  0  0  0  0  0
  -29.7140  -24.3750   20.2350 C   0  0  0  0  0  3  0  0  0  0  0  0
  -30.9490  -22.3530   19.6160 N   0  0  0  0  0  0  0  0  0  0  0  0
  -32.5230  -20.9970   18.7270 O   0  0  0  0  0  0  0  0  0  0  0  0
  -30.3610  -18.9010   18.8650 C   0  0  0  0  0  3  0  0  0  0  0  0
  -30.1430  -17.5350   19.1580 C   0  0  0  0  0  3  0  0  0  0  0  0
  -31.0890  -19.2830   21.1370 C   0  0  0  0  0  3  0  0  0  0  0  0
  -30.8710  -19.7940   19.8370 C   0  0  0  0  0  0  0  0  0  0  0  0
  -30.4350  -16.9980   20.4330 C   0  0  0  0  0  0  0  0  0  0  0  0
  -30.8730  -17.9100   21.4470 C   0  0  0  0  0  0  0  0  0  0  0  0
  -30.9240  -14.5760   20.0360 C   0  0  0  0  0  0  0  0  0  0  0  0
  -30.5330  -12.4770   18.7960 C   0  0  0  0  0  2  0  0  0  0  0  0
  -29.5040  -12.7600   17.6800 C   0  0  0  0  0  2  0  0  0  0  0  0
  -28.0650  -12.5950   18.2080 C   0  0  0  0  0  2  0  0  0  0  0  0
  -27.8320  -13.3470   19.5460 C   0  0  0  0  0  3  0  0  0  0  0  0
  -28.9660  -13.0650   20.5570 C   0  0  0  0  0  2  0  0  0  0  0  0
  -30.2460  -13.3980   19.9120 N   0  0  0  0  0  0  0  0  0  0  0  0
  -32.0210  -14.7590   19.5060 O   0  0  0  0  0  0  0  0  0  0  0  0
  -30.2680  -15.5830   20.6630 N   0  0  0  0  0  0  0  0  0  0  0  0
  -29.4540  -15.3070   21.1880 H   0  0  0  0  0  0  0  0  0  0  0  0
  -25.4900  -13.9180   20.4370 C   0  0  0  0  0  0  0  0  0  0  0  0
  -24.4510  -13.1290   20.8510 C   0  0  0  0  0  0  0  0  0  0  0  0
  -24.9120  -11.7800   20.7460 C   0  0  0  0  0  0  0  0  0  0  0  0
  -26.5170  -13.0500   20.1060 N   0  0  0  0  0  0  0  0  0  0  0  0
  -26.1770  -11.7580   20.3480 N   0  0  0  0  0  0  0  0  0  0  0  0
  -24.2040  -10.5100   20.9420 C   0  0  0  0  0  0  0  0  0  0  0  0
  -24.6460   -9.5550   21.8840 C   0  0  0  0  0  3  0  0  0  0  0  0
  -23.9340   -8.3480   22.0650 C   0  0  0  0  0  3  0  0  0  0  0  0
  -22.7670   -8.0890   21.3060 C   0  0  0  0  0  0  0  0  0  0  0  0
  -22.3460   -9.0310   20.3550 C   0  0  0  0  0  3  0  0  0  0  0  0
  -23.0580  -10.2290   20.1710 C   0  0  0  0  0  3  0  0  0  0  0  0
  -22.0310   -6.9330   21.3980 O   0  0  0  0  0  0  0  0  0  0  0  0
  -21.9060   -6.2510   22.5810 C   0  0  0  0  0  0  0  0  0  0  0  0
  -21.3760   -6.8580   23.7400 C   0  0  0  0  0  3  0  0  0  0  0  0
  -21.2030   -6.1000   24.9150 C   0  0  0  0  0  3  0  0  0  0  0  0
  -21.5480   -4.7350   24.9320 C   0  0  0  0  0  0  0  0  0  0  0  0
  -22.0700   -4.1280   23.7770 C   0  0  0  0  0  3  0  0  0  0  0  0
  -22.2450   -4.8840   22.6050 C   0  0  0  0  0  0  0  0  0  0  0  0
  -22.7310   -4.2880   21.4880 F   0  0  0  0  0  0  0  0  0  0  0  0
  -21.3740   -4.0040   26.0580 F   0  0  0  0  0  0  0  0  0  0  0  0
  -23.0750  -13.5910   21.2330 C   0  0  0  0  0  0  0  0  0  0  0  0
  -22.4160  -12.8750   22.1380 N   0  0  0  0  0  0  0  0  0  0  0  0
  -22.5920  -14.6190   20.7610 O   0  0  0  0  0  0  0  0  0  0  0  0
  -22.8170  -12.0410   22.5410 H   0  0  0  0  0  0  0  0  0  0  0  0
  -21.4960  -13.1680   22.4360 H   0  0  0  0  0  0  0  0  0  0  0  0
  -25.6420  -15.2960   20.2990 N   0  0  0  0  0  0  0  0  0  0  0  0
  -24.8860  -15.9440   20.4850 H   0  0  0  0  0  0  0  0  0  0  0  0
  -26.4660  -15.7480   19.9200 H   0  0  0  0  0  0  0  0  0  0  0  0
  -30.3440  -16.6430   23.4090 C   0  0  0  0  0  1  0  0  0  0  0  0
  -31.2210  -17.5240   22.7210 O   0  0  0  0  0  0  0  0  0  0  0  0
  -28.3900  -25.1890   20.0750 C   0  0  0  0  0  2  0  0  0  0  0  0
  -28.5490  -26.6320   20.2150 O   0  0  0  0  0  0  0  0  0  0  0  0
  -24.7340  -31.8720   23.2770 C   0  0  0  0  0  0  0  0  0  0  0  0
  -27.3960  -27.4140   20.1780 C   0  0  0  0  0  0  0  0  0  0  0  0
  -23.5490  -30.4960   21.6030 C   0  0  0  0  0  3  0  0  0  0  0  0
  -25.0160  -28.9740   20.1760 C   0  0  0  0  0  0  0  0  0  0  0  0
  -26.0870  -30.8330   21.4560 C   0  0  0  0  0  2  0  0  0  0  0  0
  -26.1750  -29.4720   20.7850 C   0  0  0  0  0  0  0  0  0  0  0  0
  -27.3690  -28.7040   20.7750 C   0  0  0  0  0  3  0  0  0  0  0  0
  -26.2110  -26.9500   19.5580 C   0  0  0  0  0  3  0  0  0  0  0  0
  -25.0330  -27.7160   19.5560 C   0  0  0  0  0  3  0  0  0  0  0  0
  -23.7780  -29.8420   20.2160 C   0  0  0  0  0  2  0  0  0  0  0  0
  -24.8080  -31.0810   22.1690 N   0  0  0  0  0  0  0  0  0  0  0  0
  -23.6460  -32.1410   23.8030 O   0  0  0  0  0  0  0  0  0  0  0  0
  -22.8810  -29.4620   22.5390 C   0  0  0  0  0  0  0  0  0  0  0  0
  -21.5620  -29.2640   22.3730 N   0  0  0  0  0  0  0  0  0  0  0  0
  -23.5470  -28.8440   23.3750 O   0  0  0  0  0  0  0  0  0  0  0  0
  -21.0860  -29.8140   21.6730 H   0  0  0  0  0  0  0  0  0  0  0  0
  -18.1930  -28.0120   22.7600 C   0  0  0  0  0  0  0  0  0  0  0  0
  -20.7340  -28.3160   23.1190 C   0  0  0  0  0  3  0  0  0  0  0  0
  -20.8810  -26.8840   22.5550 C   0  0  0  0  0  2  0  0  0  0  0  0
  -19.8220  -26.5390   21.5030 C   0  0  0  0  0  2  0  0  0  0  0  0
  -18.4160  -26.6630   22.0980 C   0  0  0  0  0  2  0  0  0  0  0  0
  -19.2820  -28.7950   23.2250 C   0  0  0  0  0  0  0  0  0  0  0  0
  -19.0210  -30.0570   23.8020 C   0  0  0  0  0  3  0  0  0  0  0  0
  -17.7030  -30.5370   23.9200 C   0  0  0  0  0  3  0  0  0  0  0  0
  -16.6270  -29.7520   23.4710 C   0  0  0  0  0  3  0  0  0  0  0  0
  -16.8730  -28.4920   22.8960 C   0  0  0  0  0  3  0  0  0  0  0  0
  -26.0130  -32.4950   23.9210 C   0  0  0  0  0  3  0  0  0  0  0  0
  -26.5370  -31.6890   25.1720 C   0  0  1  0  0  0  0  0  0  0  0  0
  -25.4450  -31.4020   26.2290 C   0  0  0  0  0  1  0  0  0  0  0  0
  -27.1410  -30.3330   24.7410 C   0  0  0  0  0  1  0  0  0  0  0  0
  -27.6730  -32.4780   25.8640 C   0  0  0  0  0  1  0  0  0  0  0  0
  -25.6870  -33.8770   24.2940 N   0  0  0  0  0  0  0  0  0  0  0  0
  -25.9980  -34.9580   23.5650 C   0  0  0  0  0  0  0  0  0  0  0  0
  -26.6610  -34.8960   22.5260 O   0  0  0  0  0  0  0  0  0  0  0  0
  -25.0970  -33.9990   25.1040 H   0  0  0  0  0  0  0  0  0  0  0  0
  -24.2370  -36.7340   23.2870 C   0  0  0  0  0  1  0  0  0  0  0  0
  -25.4950  -36.3240   24.0700 C   0  0  0  0  0  3  0  0  0  0  0  0
  -27.6240  -37.2180   24.9040 C   0  0  0  0  0  1  0  0  0  0  0  0
  -26.5090  -37.3970   23.9780 N   0  0  0  0  0  0  0  0  0  0  0  0
  -26.0890  -38.3040   24.1590 H   0  0  0  0  0  0  0  0  0  0  0  0
  1  6  1  0
  1 11  1  0
  2  3  1  0
  2  5  1  0
  3  6  1  0
  4  5  1  0
  5 54  1  0
  6  4  1  0
  7  1  2  0
  8  9  2  0
  8 11  1  0
  9 12  1  0
 10 13  1  0
 11 10  2  0
 12 22  1  0
 12 13  2  0
 13 53  1  0
 14 22  1  0
 15 20  1  0
 16 17  1  0
 16 15  1  0
 18 17  1  0
 18 27  1  0
 18 19  1  0
 20 14  1  0
 20 19  1  0
 21 14  2  0
 22 23  1  0
 24 25  2  0
 25 44  1  0
 26 25  1  0
 26 29  1  0
 27 28  1  0
 27 24  1  0
 28 26  2  0
 29 30  1  0
 30 31  2  0
 32 35  1  0
 32 31  1  0
 33 32  2  0
 34 33  1  0
 34 29  2  0
 35 36  1  0
 36 41  2  0
 36 37  1  0
 37 38  2  0
 38 39  1  0
 39 43  1  0
 40 39  2  0
 41 40  1  0
 42 41  1  0
 44 45  1  0
 45 48  1  0
 45 47  1  0
 46 44  2  0
 49 24  1  0
 49 50  1  0
 51 49  1  0
 53 52  1  0
 54 55  1  0
 56 67  2  0
 57 55  1  0
 57 62  1  0
 58 66  1  0
 58 68  1  0
 59 65  1  0
 59 61  1  0
 60 66  1  0
 61 60  1  0
 62 61  2  0
 63 57  2  0
 64 63  1  0
 64 59  2  0
 65 58  1  0
 66 56  1  0
 68 70  2  0
 69 68  1  0
 71 69  1  0
 72 81  2  0
 72 77  1  0
 73 69  1  0
 73 77  1  0
 74 73  1  0
 75 76  1  0
 75 74  1  0
 76 72  1  0
 77 78  2  0
 78 79  1  0
 80 79  2  0
 81 80  1  0
 82 56  1  0
 82 87  1  0
 82 83  1  0
 83 86  1  1
 83 84  1  0
 85 83  1  0
 87 90  1  0
 88 92  1  0
 88 87  1  0
 89 88  2  0
 92 91  1  0
 94 92  1  0
 94 95  1  0
 94 93  1  0
M  ISO  4  14 100  22 100  54 101  55 101
M  END
>  <TORSDO>  (12) 
F 19

>  <SCORE>  (12) 
-12.182

>  <name>  (12) 
11

>  <ligand_id>  (12) 
11

>  <original_smiles>  (12) 
[H]c1c([H])c([H])c2c(c1[H])C([H])([H])C([H])([H])C([H])([H])C2([H])N([H])C(=O)C1([H])N(C(=O)C([H])(N([H])C(=O)C([H])(N([H])C([H])([H])[H])C([H])([H])[H])C(C([H])([H])[H])(C([H])([H])[H])C([H])([H])[H])C([H])([H])c2c([H])c(OC([H])([H])C3([H])C([H])([H])N(C(=O)c4c([H])c([H])c(N([H])C(=O)N5C([H])([H])C([H])([H])C([H])([H])C([H])(n6nc(-c7c([H])c([H])c(Oc8c([H])c([H])c(F)c([H])c8F)c([H])c7[H])c(C(=O)N([H])[H])c6N([H])[H])C5([H])[H])c(OC([H])([H])[H])c4[H])C([H])([H])C3([H])[H])c([H])c([H])c2C1([H])[H]

>  <smiles>  (12) 
[H]c1c([H])c([H])c2c(c1[H])C([H])([H])C([H])([H])C([H])([H])C2([H])N([H])C(=O)C1([H])N(C(=O)C([H])(N([H])C(=O)C([H])(N([H])C([H])([H])[H])C([H])([H])[H])C(C([H])([H])[H])(C([H])([H])[H])C([H])([H])[H])C([H])([H])c2c([H])c(OC([H])([H])C3([H])C([H])([H])N(C(=O)c4c([H])c([H])c(N([H])C(=O)N5C([H])([H])C([H])([H])C([H])([H])C([H])(n6nc(-c7c([H])c([H])c(Oc8c([H])c([H])c(F)c([H])c8F)c([H])c7[H])c(C(=O)N([H])[H])c6N([H])[H])C5([H])[H])c(OC([H])([H])[H])c4[H])C([H])([H])C3([H])[H])c([H])c([H])c2C1([H])[H]

$$$$
12:0:0
     RDKit          3D

 93101  0  0  1  0  0  0  0  0999 V2000
  -28.1850  -17.9850   19.8410 C   0  0  0  0  0  3  0  0  0  0  0  0
  -29.8740  -19.5750   20.5850 C   0  0  0  0  0  3  0  0  0  0  0  0
  -27.7610  -20.4040   19.7120 C   0  0  0  0  0  3  0  0  0  0  0  0
  -29.4640  -18.2160   20.4010 C   0  0  0  0  0  0  0  0  0  0  0  0
  -27.3500  -19.0710   19.4830 C   0  0  0  0  0  0  0  0  0  0  0  0
  -29.0330  -20.6840   20.2570 C   0  0  0  0  0  0  0  0  0  0  0  0
  -26.1200  -18.8240   18.8680 N   0  0  0  0  0  0  0  0  0  0  0  0
  -25.9750  -17.9300   18.4060 H   0  0  0  0  0  0  0  0  0  0  0  0
  -25.6530  -19.5840   18.3790 H   0  0  0  0  0  0  0  0  0  0  0  0
  -30.4230  -17.0440   20.7650 C   0  0  0  0  0  2  0  0  0  0  0  0
  -30.6600  -14.5460   20.3120 C   0  0  0  0  0  0  0  0  0  0  0  0
  -30.3330  -12.3670   19.1760 C   0  0  0  0  0  2  0  0  0  0  0  0
  -29.3900  -12.6170   17.9800 C   0  0  0  0  0  2  0  0  0  0  0  0
  -27.9170  -12.4870   18.4260 C   0  0  0  0  0  2  0  0  0  0  0  0
  -27.6060  -13.2910   19.7200 C   0  0  0  0  0  3  0  0  0  0  0  0
  -28.6800  -13.0580   20.8070 C   0  0  0  0  0  2  0  0  0  0  0  0
  -29.9870  -13.3610   20.2070 N   0  0  0  0  0  0  0  0  0  0  0  0
  -31.8160  -14.6700   19.9060 O   0  0  0  0  0  0  0  0  0  0  0  0
  -29.9370  -15.6310   20.7020 N   0  0  0  0  0  0  0  0  0  0  0  0
  -28.9950  -15.4560   21.0180 H   0  0  0  0  0  0  0  0  0  0  0  0
  -25.2240  -13.8960   20.4770 C   0  0  0  0  0  0  0  0  0  0  0  0
  -24.1610  -13.1260   20.8600 C   0  0  0  0  0  0  0  0  0  0  0  0
  -24.6180  -11.7740   20.8140 C   0  0  0  0  0  0  0  0  0  0  0  0
  -26.2640  -13.0150   20.2260 N   0  0  0  0  0  0  0  0  0  0  0  0
  -25.9030  -11.7340   20.4840 N   0  0  0  0  0  0  0  0  0  0  0  0
  -23.8890  -10.5160   21.0120 C   0  0  0  0  0  0  0  0  0  0  0  0
  -24.3280   -9.5440   21.9390 C   0  0  0  0  0  3  0  0  0  0  0  0
  -23.6000   -8.3500   22.1240 C   0  0  0  0  0  3  0  0  0  0  0  0
  -22.4190   -8.1200   21.3810 C   0  0  0  0  0  0  0  0  0  0  0  0
  -21.9990   -9.0790   20.4440 C   0  0  0  0  0  3  0  0  0  0  0  0
  -22.7280  -10.2640   20.2560 C   0  0  0  0  0  3  0  0  0  0  0  0
  -21.6560   -6.9790   21.4780 O   0  0  0  0  0  0  0  0  0  0  0  0
  -21.6110   -6.2370   22.6300 C   0  0  0  0  0  0  0  0  0  0  0  0
  -21.1890   -6.7940   23.8590 C   0  0  0  0  0  3  0  0  0  0  0  0
  -21.0940   -5.9760   25.0050 C   0  0  0  0  0  3  0  0  0  0  0  0
  -21.4050   -4.6060   24.9220 C   0  0  0  0  0  0  0  0  0  0  0  0
  -21.8200   -4.0500   23.6990 C   0  0  0  0  0  3  0  0  0  0  0  0
  -21.9200   -4.8630   22.5570 C   0  0  0  0  0  0  0  0  0  0  0  0
  -22.2980   -4.3190   21.3750 F   0  0  0  0  0  0  0  0  0  0  0  0
  -21.3080   -3.8210   26.0190 F   0  0  0  0  0  0  0  0  0  0  0  0
  -22.7700  -13.6110   21.1510 C   0  0  0  0  0  0  0  0  0  0  0  0
  -22.0480  -12.9160   22.0240 N   0  0  0  0  0  0  0  0  0  0  0  0
  -22.3330  -14.6420   20.6410 O   0  0  0  0  0  0  0  0  0  0  0  0
  -22.4160  -12.0840   22.4650 H   0  0  0  0  0  0  0  0  0  0  0  0
  -21.1160  -13.2220   22.2610 H   0  0  0  0  0  0  0  0  0  0  0  0
  -25.3820  -15.2670   20.3080 N   0  0  0  0  0  0  0  0  0  0  0  0
  -24.6070  -15.9040   20.4400 H   0  0  0  0  0  0  0  0  0  0  0  0
  -26.2210  -15.7220   19.9740 H   0  0  0  0  0  0  0  0  0  0  0  0
  -29.4970  -21.9980   20.3480 O   0  0  0  0  0  0  0  0  0  0  0  0
  -28.7820  -22.9710   21.1540 C   0  0  0  0  0  2  0  0  0  0  0  0
  -27.9450  -24.1050   20.4550 C   0  0  0  0  0  2  0  0  0  0  0  0
  -28.6690  -25.3280   19.7890 C   0  0  0  0  0  2  0  0  0  0  0  0
  -28.5220  -26.6450   20.4000 O   0  0  0  0  0  0  0  0  0  0  0  0
  -24.6120  -31.8990   23.2670 C   0  0  0  0  0  0  0  0  0  0  0  0
  -27.3470  -27.3840   20.3050 C   0  0  0  0  0  0  0  0  0  0  0  0
  -23.4500  -30.4630   21.6250 C   0  0  0  0  0  3  0  0  0  0  0  0
  -24.9450  -28.9120   20.2420 C   0  0  0  0  0  0  0  0  0  0  0  0
  -25.9810  -30.8210   21.4780 C   0  0  0  0  0  2  0  0  0  0  0  0
  -26.0890  -29.4420   20.8530 C   0  0  0  0  0  0  0  0  0  0  0  0
  -27.2880  -28.6810   20.8820 C   0  0  0  0  0  3  0  0  0  0  0  0
  -26.1830  -26.8880   19.6770 C   0  0  0  0  0  3  0  0  0  0  0  0
  -24.9930  -27.6390   19.6470 C   0  0  0  0  0  3  0  0  0  0  0  0
  -23.6920  -29.7630   20.2590 C   0  0  0  0  0  2  0  0  0  0  0  0
  -24.6980  -31.0780   22.1800 N   0  0  0  0  0  0  0  0  0  0  0  0
  -23.5150  -32.1720   23.7770 O   0  0  0  0  0  0  0  0  0  0  0  0
  -22.7870  -29.4520   22.5870 C   0  0  0  0  0  0  0  0  0  0  0  0
  -21.4650  -29.2620   22.4440 N   0  0  0  0  0  0  0  0  0  0  0  0
  -23.4600  -28.8420   23.4230 O   0  0  0  0  0  0  0  0  0  0  0  0
  -20.9830  -29.8060   21.7420 H   0  0  0  0  0  0  0  0  0  0  0  0
  -18.0850  -28.0740   22.9250 C   0  0  0  0  0  0  0  0  0  0  0  0
  -20.6410  -28.3280   23.2130 C   0  0  0  0  0  3  0  0  0  0  0  0
  -20.7440  -26.8970   22.6410 C   0  0  0  0  0  2  0  0  0  0  0  0
  -19.6480  -26.5720   21.6200 C   0  0  0  0  0  2  0  0  0  0  0  0
  -18.2630  -26.7220   22.2540 C   0  0  0  0  0  2  0  0  0  0  0  0
  -19.2020  -28.8340   23.3600 C   0  0  0  0  0  0  0  0  0  0  0  0
  -18.9840  -30.1010   23.9450 C   0  0  0  0  0  3  0  0  0  0  0  0
  -17.6790  -30.6090   24.0970 C   0  0  0  0  0  3  0  0  0  0  0  0
  -16.5750  -29.8440   23.6790 C   0  0  0  0  0  3  0  0  0  0  0  0
  -16.7780  -28.5770   23.1000 C   0  0  0  0  0  3  0  0  0  0  0  0
  -25.8770  -32.5510   23.9030 C   0  0  0  0  0  3  0  0  0  0  0  0
  -25.5510  -33.9500   24.2100 N   0  0  0  0  0  0  0  0  0  0  0  0
  -25.8860  -34.9960   23.4400 C   0  0  0  0  0  0  0  0  0  0  0  0
  -26.5760  -34.8830   22.4240 O   0  0  0  0  0  0  0  0  0  0  0  0
  -24.9420  -34.1100   24.9970 H   0  0  0  0  0  0  0  0  0  0  0  0
  -24.1510  -36.7660   23.0290 C   0  0  0  0  0  1  0  0  0  0  0  0
  -25.3790  -36.3850   23.8700 C   0  0  0  0  0  3  0  0  0  0  0  0
  -27.4900  -37.3020   24.7270 C   0  0  0  0  0  1  0  0  0  0  0  0
  -26.4040  -37.4460   23.7620 N   0  0  0  0  0  0  0  0  0  0  0  0
  -25.9870  -38.3640   23.8850 H   0  0  0  0  0  0  0  0  0  0  0  0
  -26.3770  -31.8000   25.1970 C   0  0  1  0  0  0  0  0  0  0  0  0
  -25.2670  -31.5610   26.2490 C   0  0  0  0  0  1  0  0  0  0  0  0
  -26.9830  -30.4250   24.8300 C   0  0  0  0  0  1  0  0  0  0  0  0
  -27.5090  -32.6130   25.8700 C   0  0  0  0  0  1  0  0  0  0  0  0
  1  4  1  0
  3  6  2  0
  4  2  2  0
  4 10  1  0
  5  3  1  0
  5  1  2  0
  6 49  1  0
  6  2  1  0
  7  5  1  0
  8  7  1  0
  9  7  1  0
 11 19  1  0
 12 17  1  0
 13 14  1  0
 13 12  1  0
 15 14  1  0
 15 24  1  0
 15 16  1  0
 17 11  1  0
 17 16  1  0
 18 11  2  0
 19 10  1  0
 19 20  1  0
 21 22  2  0
 22 41  1  0
 23 22  1  0
 23 26  1  0
 24 21  1  0
 24 25  1  0
 25 23  2  0
 26 27  1  0
 27 28  2  0
 29 32  1  0
 29 28  1  0
 30 29  2  0
 31 30  1  0
 31 26  2  0
 32 33  1  0
 33 34  1  0
 34 35  2  0
 36 35  1  0
 36 40  1  0
 37 36  2  0
 38 33  2  0
 38 37  1  0
 39 38  1  0
 41 42  1  0
 42 45  1  0
 42 44  1  0
 43 41  2  0
 46 47  1  0
 46 21  1  0
 48 46  1  0
 49 50  1  0
 51 50  1  0
 52 53  1  0
 52 51  1  0
 54 65  2  0
 55 53  1  0
 55 60  1  0
 56 64  1  0
 56 66  1  0
 57 63  1  0
 57 59  1  0
 58 64  1  0
 59 60  2  0
 59 58  1  0
 61 55  2  0
 62 61  1  0
 62 57  2  0
 63 56  1  0
 64 54  1  0
 66 68  2  0
 67 66  1  0
 69 67  1  0
 70 79  2  0
 70 75  1  0
 71 67  1  0
 71 75  1  0
 72 71  1  0
 73 74  1  0
 73 72  1  0
 74 70  1  0
 75 76  2  0
 76 77  1  0
 78 77  2  0
 79 78  1  0
 80 54  1  0
 80 81  1  0
 80 90  1  0
 81 84  1  0
 82 86  1  0
 82 81  1  0
 83 82  2  0
 86 85  1  0
 88 86  1  0
 88 89  1  0
 88 87  1  0
 90 93  1  1
 90 91  1  0
 92 90  1  0
M  ISO  4  11 100  19 100  52 101  53 101
M  END
>  <TORSDO>  (13) 
F 22

>  <SCORE>  (13) 
-13.267

>  <name>  (13) 
12

>  <ligand_id>  (13) 
12

>  <original_smiles>  (13) 
[H]c1c([H])c([H])c2c(c1[H])C([H])([H])C([H])([H])C([H])([H])C2([H])N([H])C(=O)C1([H])N(C(=O)C([H])(N([H])C(=O)C([H])(N([H])C([H])([H])[H])C([H])([H])[H])C(C([H])([H])[H])(C([H])([H])[H])C([H])([H])[H])C([H])([H])c2c([H])c(OC([H])([H])C([H])([H])C([H])([H])Oc3c([H])c(N([H])[H])c([H])c(C([H])([H])N([H])C(=O)N4C([H])([H])C([H])([H])C([H])([H])C([H])(n5nc(-c6c([H])c([H])c(Oc7c([H])c([H])c(F)c([H])c7F)c([H])c6[H])c(C(=O)N([H])[H])c5N([H])[H])C4([H])[H])c3[H])c([H])c([H])c2C1([H])[H]

>  <smiles>  (13) 
[H]c1c([H])c([H])c2c(c1[H])C([H])([H])C([H])([H])C([H])([H])C2([H])N([H])C(=O)C1([H])N(C(=O)C([H])(N([H])C(=O)C([H])(N([H])C([H])([H])[H])C([H])([H])[H])C(C([H])([H])[H])(C([H])([H])[H])C([H])([H])[H])C([H])([H])c2c([H])c(OC([H])([H])C([H])([H])C([H])([H])Oc3c([H])c(N([H])[H])c([H])c(C([H])([H])N([H])C(=O)N4C([H])([H])C([H])([H])C([H])([H])C([H])(n5nc(-c6c([H])c([H])c(Oc7c([H])c([H])c(F)c([H])c7F)c([H])c6[H])c(C(=O)N([H])[H])c5N([H])[H])C4([H])[H])c3[H])c([H])c([H])c2C1([H])[H]

$$$$
13:0:0
     RDKit          3D

 95104  0  0  1  0  0  0  0  0999 V2000
  -29.0720  -23.9610   18.4970 C   0  0  0  0  0  0  0  0  0  0  0  0
  -29.8100  -22.7840   17.8630 C   0  0  0  0  0  2  0  0  0  0  0  0
  -30.7680  -22.0840   18.8460 C   0  0  0  0  0  2  0  0  0  0  0  0
  -29.1720  -22.6940   20.6820 C   0  0  0  0  0  2  0  0  0  0  0  0
  -29.2490  -24.1450   20.0120 C   0  0  0  0  0  3  0  0  0  0  0  0
  -30.1010  -21.6770   20.0930 N   0  0  0  0  0  0  0  0  0  0  0  0
  -28.3670  -24.7040   17.8070 O   0  0  0  0  0  0  0  0  0  0  0  0
  -31.3810  -19.5470   20.1870 C   0  0  0  0  0  3  0  0  0  0  0  0
  -31.4560  -18.1310   20.2560 C   0  0  0  0  0  3  0  0  0  0  0  0
  -29.1830  -18.0700   21.0410 C   0  0  0  0  0  3  0  0  0  0  0  0
  -30.1810  -20.2740   20.4370 C   0  0  0  0  0  0  0  0  0  0  0  0
  -30.3320  -17.3480   20.6110 C   0  0  0  0  0  0  0  0  0  0  0  0
  -29.0990  -19.4940   20.9500 C   0  0  0  0  0  0  0  0  0  0  0  0
  -27.9240  -20.0890   21.2720 F   0  0  0  0  0  0  0  0  0  0  0  0
  -30.9880  -14.8850   20.5950 C   0  0  0  0  0  0  0  0  0  0  0  0
  -30.8630  -12.5330   19.7890 C   0  0  0  0  0  2  0  0  0  0  0  0
  -29.9970  -12.3990   18.5150 C   0  0  0  0  0  2  0  0  0  0  0  0
  -28.4850  -12.3860   18.8430 C   0  0  0  0  0  2  0  0  0  0  0  0
  -28.0370  -13.3530   19.9790 C   0  0  0  0  0  3  0  0  0  0  0  0
  -29.0390  -13.3670   21.1540 C   0  0  0  0  0  2  0  0  0  0  0  0
  -30.3600  -13.6630   20.5950 N   0  0  0  0  0  0  0  0  0  0  0  0
  -32.2170  -14.9530   20.5070 O   0  0  0  0  0  0  0  0  0  0  0  0
  -30.2240  -15.9630   20.1600 N   0  0  0  0  0  0  0  0  0  0  0  0
  -25.6230  -13.9680   20.6060 C   0  0  0  0  0  0  0  0  0  0  0  0
  -24.5360  -13.2000   20.9230 C   0  0  0  0  0  0  0  0  0  0  0  0
  -24.9950  -11.8480   20.9190 C   0  0  0  0  0  0  0  0  0  0  0  0
  -26.6730  -13.0810   20.4200 N   0  0  0  0  0  0  0  0  0  0  0  0
  -26.2980  -11.8030   20.6780 N   0  0  0  0  0  0  0  0  0  0  0  0
  -24.2570  -10.5860   21.0730 C   0  0  0  0  0  0  0  0  0  0  0  0
  -24.6460   -9.6150   22.0210 C   0  0  0  0  0  3  0  0  0  0  0  0
  -23.9110   -8.4180   22.1620 C   0  0  0  0  0  3  0  0  0  0  0  0
  -22.7740   -8.1850   21.3530 C   0  0  0  0  0  0  0  0  0  0  0  0
  -22.4050   -9.1450   20.3940 C   0  0  0  0  0  3  0  0  0  0  0  0
  -23.1410  -10.3340   20.2520 C   0  0  0  0  0  3  0  0  0  0  0  0
  -22.0150   -7.0410   21.4040 O   0  0  0  0  0  0  0  0  0  0  0  0
  -21.8940   -6.3090   22.5570 C   0  0  0  0  0  0  0  0  0  0  0  0
  -21.3780   -6.8700   23.7460 C   0  0  0  0  0  3  0  0  0  0  0  0
  -21.2040   -6.0630   24.8870 C   0  0  0  0  0  3  0  0  0  0  0  0
  -21.5380   -4.6960   24.8420 C   0  0  0  0  0  0  0  0  0  0  0  0
  -22.0470   -4.1350   23.6570 C   0  0  0  0  0  3  0  0  0  0  0  0
  -22.2210   -4.9390   22.5170 C   0  0  0  0  0  0  0  0  0  0  0  0
  -22.6900   -4.3880   21.3720 F   0  0  0  0  0  0  0  0  0  0  0  0
  -21.3640   -3.9170   25.9340 F   0  0  0  0  0  0  0  0  0  0  0  0
  -23.1300  -13.6830   21.1250 C   0  0  0  0  0  0  0  0  0  0  0  0
  -22.3620  -12.9950   21.9630 N   0  0  0  0  0  0  0  0  0  0  0  0
  -22.7170  -14.7020   20.5740 O   0  0  0  0  0  0  0  0  0  0  0  0
  -22.7060  -12.1700   22.4310 H   0  0  0  0  0  0  0  0  0  0  0  0
  -21.4160  -13.3010   22.1410 H   0  0  0  0  0  0  0  0  0  0  0  0
  -25.8040  -15.3370   20.4380 N   0  0  0  0  0  0  0  0  0  0  0  0
  -25.0420  -16.0020   20.5110 H   0  0  0  0  0  0  0  0  0  0  0  0
  -26.6800  -15.7620   20.1580 H   0  0  0  0  0  0  0  0  0  0  0  0
  -28.8740  -16.8570   18.1590 C   0  0  0  0  0  1  0  0  0  0  0  0
  -30.0020  -15.9510   18.6920 C   0  0  0  0  0  2  0  0  0  0  0  0
  -28.2910  -25.2680   20.5890 C   0  0  0  0  0  2  0  0  0  0  0  0
  -28.4710  -26.6610   20.1300 O   0  0  0  0  0  0  0  0  0  0  0  0
  -24.6960  -31.9370   23.2260 C   0  0  0  0  0  0  0  0  0  0  0  0
  -27.3360  -27.4740   20.1070 C   0  0  0  0  0  0  0  0  0  0  0  0
  -23.4920  -30.5420   21.5800 C   0  0  0  0  0  3  0  0  0  0  0  0
  -24.9480  -29.0300   20.1220 C   0  0  0  0  0  0  0  0  0  0  0  0
  -26.0210  -30.9040   21.3730 C   0  0  0  0  0  2  0  0  0  0  0  0
  -26.1110  -29.5360   20.7160 C   0  0  0  0  0  0  0  0  0  0  0  0
  -27.3100  -28.7690   20.6990 C   0  0  0  0  0  3  0  0  0  0  0  0
  -26.1570  -27.0190   19.4750 C   0  0  0  0  0  3  0  0  0  0  0  0
  -24.9710  -27.7760   19.4910 C   0  0  0  0  0  3  0  0  0  0  0  0
  -23.7000  -29.8830   20.1900 C   0  0  0  0  0  2  0  0  0  0  0  0
  -24.7550  -31.1440   22.1170 N   0  0  0  0  0  0  0  0  0  0  0  0
  -23.6150  -32.1940   23.7760 O   0  0  0  0  0  0  0  0  0  0  0  0
  -22.8520  -29.5060   22.5340 C   0  0  0  0  0  0  0  0  0  0  0  0
  -21.5290  -29.3140   22.4150 N   0  0  0  0  0  0  0  0  0  0  0  0
  -23.5460  -28.8800   23.3390 O   0  0  0  0  0  0  0  0  0  0  0  0
  -21.0280  -29.8710   21.7370 H   0  0  0  0  0  0  0  0  0  0  0  0
  -18.1690  -28.0760   22.9270 C   0  0  0  0  0  0  0  0  0  0  0  0
  -20.7270  -28.3590   23.1820 C   0  0  0  0  0  3  0  0  0  0  0  0
  -20.8410  -26.9350   22.5890 C   0  0  0  0  0  2  0  0  0  0  0  0
  -19.7340  -26.6110   21.5800 C   0  0  0  0  0  2  0  0  0  0  0  0
  -18.3560  -26.7350   22.2350 C   0  0  0  0  0  2  0  0  0  0  0  0
  -19.2840  -28.8450   23.3570 C   0  0  0  0  0  0  0  0  0  0  0  0
  -19.0550  -30.0990   23.9630 C   0  0  0  0  0  3  0  0  0  0  0  0
  -17.7460  -30.5850   24.1430 C   0  0  0  0  0  3  0  0  0  0  0  0
  -16.6470  -29.8120   23.7300 C   0  0  0  0  0  3  0  0  0  0  0  0
  -16.8600  -28.5600   23.1270 C   0  0  0  0  0  3  0  0  0  0  0  0
  -25.9780  -32.5740   23.8440 C   0  0  0  0  0  3  0  0  0  0  0  0
  -26.5080  -31.8000   25.1140 C   0  0  1  0  0  0  0  0  0  0  0  0
  -25.4230  -31.5520   26.1870 C   0  0  0  0  0  1  0  0  0  0  0  0
  -27.0960  -30.4280   24.7130 C   0  0  0  0  0  1  0  0  0  0  0  0
  -27.6560  -32.5990   25.7730 C   0  0  0  0  0  1  0  0  0  0  0  0
  -25.6620  -33.9690   24.1810 N   0  0  0  0  0  0  0  0  0  0  0  0
  -25.9800  -35.0260   23.4220 C   0  0  0  0  0  0  0  0  0  0  0  0
  -26.6400  -34.9310   22.3850 O   0  0  0  0  0  0  0  0  0  0  0  0
  -25.0720  -34.1160   24.9870 H   0  0  0  0  0  0  0  0  0  0  0  0
  -24.2380  -36.8100   23.0850 C   0  0  0  0  0  1  0  0  0  0  0  0
  -25.4850  -36.4090   23.8880 C   0  0  0  0  0  3  0  0  0  0  0  0
  -27.6170  -37.3060   24.7150 C   0  0  0  0  0  1  0  0  0  0  0  0
  -26.5110  -37.4690   23.7750 N   0  0  0  0  0  0  0  0  0  0  0  0
  -26.0990  -38.3870   23.9270 H   0  0  0  0  0  0  0  0  0  0  0  0
  1  5  1  0
  2  1  1  0
  2  3  1  0
  3  6  1  0
  5 54  1  0
  5  4  1  0
  6 11  1  0
  6  4  1  0
  7  1  2  0
  8  9  2  0
  8 11  1  0
  9 12  1  0
 11 13  2  0
 12 10  2  0
 13 10  1  0
 13 14  1  0
 16 21  1  0
 17 18  1  0
 17 16  1  0
 19 18  1  0
 19 27  1  0
 19 20  1  0
 21 15  1  0
 21 20  1  0
 22 15  2  0
 23 15  1  0
 23 12  1  0
 24 25  2  0
 25 44  1  0
 26 25  1  0
 26 29  1  0
 27 24  1  0
 27 28  1  0
 28 26  2  0
 29 30  1  0
 30 31  2  0
 32 35  1  0
 32 31  1  0
 33 32  2  0
 34 33  1  0
 34 29  2  0
 35 36  1  0
 36 37  1  0
 37 38  2  0
 39 38  1  0
 39 43  1  0
 40 39  2  0
 41 36  2  0
 41 40  1  0
 42 41  1  0
 44 45  1  0
 45 48  1  0
 45 47  1  0
 46 44  2  0
 49 50  1  0
 49 24  1  0
 51 49  1  0
 52 53  1  0
 53 23  1  0
 55 54  1  0
 56 67  2  0
 57 55  1  0
 57 62  1  0
 58 66  1  0
 58 68  1  0
 59 65  1  0
 59 61  1  0
 60 66  1  0
 61 60  1  0
 62 61  2  0
 63 64  1  0
 63 57  2  0
 64 59  2  0
 65 58  1  0
 66 56  1  0
 68 70  2  0
 69 68  1  0
 71 69  1  0
 72 81  2  0
 72 77  1  0
 73 69  1  0
 73 77  1  0
 74 73  1  0
 75 76  1  0
 75 74  1  0
 76 72  1  0
 77 78  2  0
 78 79  1  0
 80 79  2  0
 81 80  1  0
 82 56  1  0
 82 87  1  0
 82 83  1  0
 83 86  1  1
 83 84  1  0
 85 83  1  0
 87 90  1  0
 88 92  1  0
 88 87  1  0
 89 88  2  0
 92 91  1  0
 94 92  1  0
 94 95  1  0
 94 93  1  0
M  ISO  4  15 100  23 100  54 101  55 101
M  END
>  <TORSDO>  (14) 
F 19

>  <SCORE>  (14) 
-12.957

>  <name>  (14) 
13

>  <ligand_id>  (14) 
13

>  <original_smiles>  (14) 
[H]c1c([H])c([H])c2c(c1[H])C([H])([H])C([H])([H])C([H])([H])C2([H])N([H])C(=O)C1([H])N(C(=O)C([H])(N([H])C(=O)C([H])(N([H])C([H])([H])[H])C([H])([H])[H])C(C([H])([H])[H])(C([H])([H])[H])C([H])([H])[H])C([H])([H])c2c([H])c(OC([H])([H])C3([H])C(=O)C([H])([H])C([H])([H])N(c4c([H])c([H])c(N(C(=O)N5C([H])([H])C([H])([H])C([H])([H])C([H])(n6nc(-c7c([H])c([H])c(Oc8c([H])c([H])c(F)c([H])c8F)c([H])c7[H])c(C(=O)N([H])[H])c6N([H])[H])C5([H])[H])C([H])([H])C([H])([H])[H])c([H])c4F)C3([H])[H])c([H])c([H])c2C1([H])[H]

>  <smiles>  (14) 
[H]c1c([H])c([H])c2c(c1[H])C([H])([H])C([H])([H])C([H])([H])C2([H])N([H])C(=O)C1([H])N(C(=O)C([H])(N([H])C(=O)C([H])(N([H])C([H])([H])[H])C([H])([H])[H])C(C([H])([H])[H])(C([H])([H])[H])C([H])([H])[H])C([H])([H])c2c([H])c(OC([H])([H])C3([H])C(=O)C([H])([H])C([H])([H])N(c4c([H])c([H])c(N(C(=O)N5C([H])([H])C([H])([H])C([H])([H])C([H])(n6nc(-c7c([H])c([H])c(Oc8c([H])c([H])c(F)c([H])c8F)c([H])c7[H])c(C(=O)N([H])[H])c6N([H])[H])C5([H])[H])C([H])([H])C([H])([H])[H])c([H])c4F)C3([H])[H])c([H])c([H])c2C1([H])[H]

$$$$
14:0:0
     RDKit          3D

 92100  0  0  1  0  0  0  0  0999 V2000
  -28.7490  -18.7410   21.5000 C   0  0  0  0  0  3  0  0  0  0  0  0
  -30.8730  -18.9140   20.3480 C   0  0  0  0  0  3  0  0  0  0  0  0
  -28.5430  -20.1280   21.3280 C   0  0  0  0  0  3  0  0  0  0  0  0
  -30.6600  -20.3040   20.1640 C   0  0  0  0  0  3  0  0  0  0  0  0
  -29.9140  -18.1090   21.0080 C   0  0  0  0  0  0  0  0  0  0  0  0
  -29.4880  -20.9320   20.6550 C   0  0  0  0  0  0  0  0  0  0  0  0
  -31.2350  -16.3360   22.2500 C   0  0  0  0  0  1  0  0  0  0  0  0
  -30.1110  -16.5890   21.2210 C   0  0  0  0  0  3  0  0  0  0  0  0
  -30.9920  -14.6450   19.8480 C   0  0  0  0  0  0  0  0  0  0  0  0
  -30.6460  -12.4250   18.8310 C   0  0  0  0  0  2  0  0  0  0  0  0
  -29.6550  -12.5770   17.6580 C   0  0  0  0  0  2  0  0  0  0  0  0
  -28.1970  -12.4810   18.1520 C   0  0  0  0  0  2  0  0  0  0  0  0
  -27.9160  -13.3620   19.4000 C   0  0  0  0  0  3  0  0  0  0  0  0
  -29.0210  -13.1970   20.4660 C   0  0  0  0  0  2  0  0  0  0  0  0
  -30.3150  -13.4620   19.8200 N   0  0  0  0  0  0  0  0  0  0  0  0
  -32.1450  -14.7610   19.4210 O   0  0  0  0  0  0  0  0  0  0  0  0
  -29.7280  -16.3810   18.7510 C   0  0  0  0  0  1  0  0  0  0  0  0
  -30.2120  -15.7510   19.9900 N   0  0  0  0  0  0  0  0  0  0  0  0
  -25.5740  -14.0190   20.2320 C   0  0  0  0  0  0  0  0  0  0  0  0
  -24.5070  -13.2680   20.6460 C   0  0  0  0  0  0  0  0  0  0  0  0
  -24.9360  -11.9060   20.5870 C   0  0  0  0  0  0  0  0  0  0  0  0
  -26.5860  -13.1150   19.9480 N   0  0  0  0  0  0  0  0  0  0  0  0
  -26.2100  -11.8400   20.2200 N   0  0  0  0  0  0  0  0  0  0  0  0
  -24.1930  -10.6590   20.8040 C   0  0  0  0  0  0  0  0  0  0  0  0
  -24.6010   -9.7190   21.7760 C   0  0  0  0  0  3  0  0  0  0  0  0
  -23.8600   -8.5350   21.9800 C   0  0  0  0  0  3  0  0  0  0  0  0
  -22.6980   -8.2830   21.2120 C   0  0  0  0  0  0  0  0  0  0  0  0
  -22.3090   -9.2130   20.2310 C   0  0  0  0  0  3  0  0  0  0  0  0
  -23.0510  -10.3880   20.0250 C   0  0  0  0  0  3  0  0  0  0  0  0
  -21.9300   -7.1500   21.3240 O   0  0  0  0  0  0  0  0  0  0  0  0
  -21.7910   -6.4910   22.5190 C   0  0  0  0  0  0  0  0  0  0  0  0
  -21.2670   -7.1280   23.6650 C   0  0  0  0  0  3  0  0  0  0  0  0
  -21.0730   -6.3960   24.8520 C   0  0  0  0  0  3  0  0  0  0  0  0
  -21.3930   -5.0250   24.8940 C   0  0  0  0  0  0  0  0  0  0  0  0
  -21.9100   -4.3870   23.7530 C   0  0  0  0  0  3  0  0  0  0  0  0
  -22.1050   -5.1180   22.5680 C   0  0  0  0  0  0  0  0  0  0  0  0
  -22.5820   -4.4920   21.4640 F   0  0  0  0  0  0  0  0  0  0  0  0
  -21.2010   -4.3180   26.0320 F   0  0  0  0  0  0  0  0  0  0  0  0
  -23.1350  -13.7740   20.9860 C   0  0  0  0  0  0  0  0  0  0  0  0
  -22.4380  -13.0920   21.8890 N   0  0  0  0  0  0  0  0  0  0  0  0
  -22.6920  -14.8080   20.4880 O   0  0  0  0  0  0  0  0  0  0  0  0
  -22.8090  -12.2540   22.3110 H   0  0  0  0  0  0  0  0  0  0  0  0
  -21.5200  -13.4130   22.1590 H   0  0  0  0  0  0  0  0  0  0  0  0
  -25.7620  -15.3860   20.0550 N   0  0  0  0  0  0  0  0  0  0  0  0
  -25.0220  -16.0620   20.2080 H   0  0  0  0  0  0  0  0  0  0  0  0
  -26.6170  -15.8050   19.7120 H   0  0  0  0  0  0  0  0  0  0  0  0
  -29.2170  -22.3130   20.5260 N   0  0  0  0  0  0  0  0  0  0  0  0
  -28.3060  -22.6410   20.8380 H   0  0  0  0  0  0  0  0  0  0  0  0
  -29.9630  -23.1860   19.6120 C   0  0  0  0  0  2  0  0  0  0  0  0
  -29.7840  -24.7100   19.8790 C   0  0  0  0  0  2  0  0  0  0  0  0
  -28.4820  -25.3770   19.3670 C   0  0  0  0  0  2  0  0  0  0  0  0
  -28.5240  -26.8030   19.5770 O   0  0  0  0  0  0  0  0  0  0  0  0
  -24.6830  -31.6460   23.1090 C   0  0  0  0  0  0  0  0  0  0  0  0
  -27.3290  -27.5000   19.6280 C   0  0  0  0  0  0  0  0  0  0  0  0
  -23.4580  -30.3460   21.3970 C   0  0  0  0  0  3  0  0  0  0  0  0
  -24.9020  -28.9560   19.8160 C   0  0  0  0  0  0  0  0  0  0  0  0
  -25.9700  -30.7750   21.1580 C   0  0  0  0  0  2  0  0  0  0  0  0
  -26.0650  -29.4590   20.4100 C   0  0  0  0  0  0  0  0  0  0  0  0
  -27.2800  -28.7410   20.3100 C   0  0  0  0  0  3  0  0  0  0  0  0
  -26.1430  -27.0170   19.0250 C   0  0  0  0  0  3  0  0  0  0  0  0
  -24.9380  -27.7370   19.1190 C   0  0  0  0  0  3  0  0  0  0  0  0
  -23.6410  -29.7790   19.9640 C   0  0  0  0  0  2  0  0  0  0  0  0
  -24.7230  -30.9330   21.9470 N   0  0  0  0  0  0  0  0  0  0  0  0
  -23.6130  -31.8500   23.6990 O   0  0  0  0  0  0  0  0  0  0  0  0
  -22.8580  -29.2390   22.2950 C   0  0  0  0  0  0  0  0  0  0  0  0
  -21.5410  -29.0100   22.1630 N   0  0  0  0  0  0  0  0  0  0  0  0
  -23.5730  -28.5930   23.0660 O   0  0  0  0  0  0  0  0  0  0  0  0
  -21.0230  -29.5870   21.5150 H   0  0  0  0  0  0  0  0  0  0  0  0
  -18.2290  -27.6240   22.5710 C   0  0  0  0  0  0  0  0  0  0  0  0
  -20.7690  -27.9910   22.8740 C   0  0  0  0  0  3  0  0  0  0  0  0
  -20.9450  -26.6020   22.2210 C   0  0  0  0  0  2  0  0  0  0  0  0
  -19.8650  -26.2820   21.1810 C   0  0  0  0  0  2  0  0  0  0  0  0
  -18.4750  -26.3250   21.8220 C   0  0  0  0  0  2  0  0  0  0  0  0
  -19.3070  -28.4140   23.0500 C   0  0  0  0  0  0  0  0  0  0  0  0
  -19.0240  -29.6310   23.7090 C   0  0  0  0  0  3  0  0  0  0  0  0
  -17.6950  -30.0580   23.8920 C   0  0  0  0  0  3  0  0  0  0  0  0
  -16.6320  -29.2640   23.4300 C   0  0  0  0  0  3  0  0  0  0  0  0
  -16.8990  -28.0490   22.7750 C   0  0  0  0  0  3  0  0  0  0  0  0
  -25.9730  -32.2570   23.7400 C   0  0  0  0  0  3  0  0  0  0  0  0
  -25.6530  -33.6280   24.1590 N   0  0  0  0  0  0  0  0  0  0  0  0
  -25.9630  -34.7280   23.4600 C   0  0  0  0  0  0  0  0  0  0  0  0
  -26.6210  -34.6960   22.4160 O   0  0  0  0  0  0  0  0  0  0  0  0
  -25.0680  -33.7270   24.9750 H   0  0  0  0  0  0  0  0  0  0  0  0
  -24.2100  -36.5170   23.2350 C   0  0  0  0  0  1  0  0  0  0  0  0
  -25.4670  -36.0800   24.0060 C   0  0  0  0  0  3  0  0  0  0  0  0
  -27.5990  -36.9400   24.8660 C   0  0  0  0  0  1  0  0  0  0  0  0
  -26.4850  -37.1510   23.9450 N   0  0  0  0  0  0  0  0  0  0  0  0
  -26.0700  -38.0560   24.1530 H   0  0  0  0  0  0  0  0  0  0  0  0
  -26.5300  -31.4170   24.9540 C   0  0  1  0  0  0  0  0  0  0  0  0
  -25.4640  -31.0980   26.0290 C   0  0  0  0  0  1  0  0  0  0  0  0
  -27.1220  -30.0750   24.4650 C   0  0  0  0  0  1  0  0  0  0  0  0
  -27.6830  -32.1880   25.6390 C   0  0  0  0  0  1  0  0  0  0  0  0
  2  5  1  0
  3  1  1  0
  4  2  2  0
  4  6  1  0
  5  8  1  0
  5  1  2  0
  6  3  2  0
  8  7  1  0
  9 18  1  0
 10 15  1  0
 11 12  1  0
 11 10  1  0
 13 12  1  0
 13 22  1  0
 13 14  1  0
 15  9  1  0
 15 14  1  0
 16  9  2  0
 17 18  1  0
 18  8  1  0
 19 20  2  0
 20 39  1  0
 21 20  1  0
 21 24  1  0
 22 23  1  0
 22 19  1  0
 23 21  2  0
 24 25  1  0
 25 26  2  0
 27 30  1  0
 27 26  1  0
 28 27  2  0
 29 28  1  0
 29 24  2  0
 30 31  1  0
 31 36  2  0
 31 32  1  0
 32 33  2  0
 33 34  1  0
 34 38  1  0
 35 34  2  0
 36 35  1  0
 37 36  1  0
 39 40  1  0
 40 43  1  0
 40 42  1  0
 41 39  2  0
 44 45  1  0
 44 19  1  0
 46 44  1  0
 47  6  1  0
 47 48  1  0
 49 50  1  0
 49 47  1  0
 51 52  1  0
 51 50  1  0
 52 54  1  0
 53 64  2  0
 54 59  1  0
 55 63  1  0
 55 65  1  0
 56 62  1  0
 56 58  1  0
 57 63  1  0
 58 57  1  0
 59 58  2  0
 60 61  1  0
 60 54  2  0
 61 56  2  0
 62 55  1  0
 63 53  1  0
 65 67  2  0
 66 65  1  0
 68 66  1  0
 69 78  2  0
 69 74  1  0
 70 66  1  0
 70 74  1  0
 71 70  1  0
 72 73  1  0
 72 71  1  0
 73 69  1  0
 74 75  2  0
 75 76  1  0
 77 76  2  0
 78 77  1  0
 79 53  1  0
 79 80  1  0
 79 89  1  0
 80 83  1  0
 81 85  1  0
 81 80  1  0
 82 81  2  0
 85 84  1  0
 87 85  1  0
 87 88  1  0
 87 86  1  0
 89 92  1  1
 89 90  1  0
 91 89  1  0
M  ISO  4   9 100  18 100  51 101  52 101
M  END
>  <TORSDO>  (15) 
F 21

>  <SCORE>  (15) 
-10.773

>  <name>  (15) 
14

>  <ligand_id>  (15) 
14

>  <original_smiles>  (15) 
[H]c1c([H])c([H])c2c(c1[H])C([H])([H])C([H])([H])C([H])([H])C2([H])N([H])C(=O)C1([H])N(C(=O)C([H])(N([H])C(=O)C([H])(N([H])C([H])([H])[H])C([H])([H])[H])C(C([H])([H])[H])(C([H])([H])[H])C([H])([H])[H])C([H])([H])c2c([H])c(OC([H])([H])C([H])([H])C([H])([H])N([H])c3c([H])c([H])c(C([H])(N(C(=O)N4C([H])([H])C([H])([H])C([H])([H])C([H])(n5nc(-c6c([H])c([H])c(Oc7c([H])c([H])c(F)c([H])c7F)c([H])c6[H])c(C(=O)N([H])[H])c5N([H])[H])C4([H])[H])C([H])([H])[H])C([H])([H])[H])c([H])c3[H])c([H])c([H])c2C1([H])[H]

>  <smiles>  (15) 
[H]c1c([H])c([H])c2c(c1[H])C([H])([H])C([H])([H])C([H])([H])C2([H])N([H])C(=O)C1([H])N(C(=O)C([H])(N([H])C(=O)C([H])(N([H])C([H])([H])[H])C([H])([H])[H])C(C([H])([H])[H])(C([H])([H])[H])C([H])([H])[H])C([H])([H])c2c([H])c(OC([H])([H])C([H])([H])C([H])([H])N([H])c3c([H])c([H])c(C([H])(N(C(=O)N4C([H])([H])C([H])([H])C([H])([H])C([H])(n5nc(-c6c([H])c([H])c(Oc7c([H])c([H])c(F)c([H])c7F)c([H])c6[H])c(C(=O)N([H])[H])c5N([H])[H])C4([H])[H])C([H])([H])[H])C([H])([H])[H])c([H])c3[H])c([H])c([H])c2C1([H])[H]

$$$$
15:0:0
     RDKit          3D

 96105  0  0  1  0  0  0  0  0999 V2000
  -29.2020  -21.1220   19.8920 C   0  0  0  0  0  2  0  0  0  0  0  0
  -31.4200  -23.3960   20.3070 C   0  0  0  0  0  2  0  0  0  0  0  0
  -30.4380  -24.1870   19.4300 C   0  0  0  0  0  2  0  0  0  0  0  0
  -30.5440  -22.6660   21.3290 C   0  0  0  0  0  2  0  0  0  0  0  0
  -29.0160  -23.7850   19.8820 C   0  0  0  0  0  3  0  0  0  0  0  0
  -29.2370  -22.4640   20.6620 N   0  0  1  0  0  4  0  0  0  0  0  0
  -28.5170  -22.3820   21.3680 H   0  0  0  0  0  0  0  0  0  0  0  0
  -28.2960  -25.0260   20.6550 C   0  0  0  0  0  2  0  0  0  0  0  0
  -28.4460  -26.4540   20.2050 O   0  0  0  0  0  0  0  0  0  0  0  0
  -24.6490  -31.8800   23.2020 C   0  0  0  0  0  0  0  0  0  0  0  0
  -27.3220  -27.3050   20.1960 C   0  0  0  0  0  0  0  0  0  0  0  0
  -23.4660  -30.4590   21.5670 C   0  0  0  0  0  3  0  0  0  0  0  0
  -24.9400  -28.9080   20.1580 C   0  0  0  0  0  0  0  0  0  0  0  0
  -26.0040  -30.7990   21.3880 C   0  0  0  0  0  2  0  0  0  0  0  0
  -26.1030  -29.4130   20.7510 C   0  0  0  0  0  0  0  0  0  0  0  0
  -27.3000  -28.6260   20.7550 C   0  0  0  0  0  3  0  0  0  0  0  0
  -26.1350  -26.8600   19.5740 C   0  0  0  0  0  3  0  0  0  0  0  0
  -24.9600  -27.6390   19.5550 C   0  0  0  0  0  3  0  0  0  0  0  0
  -23.6920  -29.7740   20.1930 C   0  0  0  0  0  2  0  0  0  0  0  0
  -24.7250  -31.0630   22.1090 N   0  0  0  0  0  0  0  0  0  0  0  0
  -23.5620  -32.1510   23.7310 O   0  0  0  0  0  0  0  0  0  0  0  0
  -22.8100  -29.4430   22.5330 C   0  0  0  0  0  0  0  0  0  0  0  0
  -21.4830  -29.2690   22.4170 N   0  0  0  0  0  0  0  0  0  0  0  0
  -23.4950  -28.8180   23.3460 O   0  0  0  0  0  0  0  0  0  0  0  0
  -20.9910  -29.8260   21.7320 H   0  0  0  0  0  0  0  0  0  0  0  0
  -18.1070  -28.0800   22.9480 C   0  0  0  0  0  0  0  0  0  0  0  0
  -20.6680  -28.3320   23.1930 C   0  0  0  0  0  3  0  0  0  0  0  0
  -20.7600  -26.9020   22.6120 C   0  0  0  0  0  2  0  0  0  0  0  0
  -19.6470  -26.5860   21.6070 C   0  0  0  0  0  2  0  0  0  0  0  0
  -18.2720  -26.7320   22.2650 C   0  0  0  0  0  2  0  0  0  0  0  0
  -19.2330  -28.8380   23.3670 C   0  0  0  0  0  0  0  0  0  0  0  0
  -19.0240  -30.0990   23.9650 C   0  0  0  0  0  3  0  0  0  0  0  0
  -17.7220  -30.6000   24.1560 C   0  0  0  0  0  3  0  0  0  0  0  0
  -16.6110  -29.8400   23.7490 C   0  0  0  0  0  3  0  0  0  0  0  0
  -16.8040  -28.5830   23.1500 C   0  0  0  0  0  3  0  0  0  0  0  0
  -25.9220  -32.5310   23.8230 C   0  0  0  0  0  3  0  0  0  0  0  0
  -26.4520  -31.7630   25.0950 C   0  0  1  0  0  0  0  0  0  0  0  0
  -25.3650  -31.5020   26.1650 C   0  0  0  0  0  1  0  0  0  0  0  0
  -27.0610  -30.3990   24.6970 C   0  0  0  0  0  1  0  0  0  0  0  0
  -27.5900  -32.5750   25.7590 C   0  0  0  0  0  1  0  0  0  0  0  0
  -25.5900  -33.9230   24.1620 N   0  0  0  0  0  0  0  0  0  0  0  0
  -25.9020  -34.9860   23.4090 C   0  0  0  0  0  0  0  0  0  0  0  0
  -26.5690  -34.8990   22.3750 O   0  0  0  0  0  0  0  0  0  0  0  0
  -24.9970  -34.0640   24.9660 H   0  0  0  0  0  0  0  0  0  0  0  0
  -24.1390  -36.7530   23.0810 C   0  0  0  0  0  1  0  0  0  0  0  0
  -25.3930  -36.3630   23.8780 C   0  0  0  0  0  3  0  0  0  0  0  0
  -27.5160  -37.2790   24.7020 C   0  0  0  0  0  1  0  0  0  0  0  0
  -26.4060  -37.4350   23.7660 N   0  0  0  0  0  0  0  0  0  0  0  0
  -25.9840  -38.3440   23.9300 H   0  0  0  0  0  0  0  0  0  0  0  0
  -30.0380  -19.7010   21.9210 C   0  0  0  0  0  3  0  0  0  0  0  0
  -30.6740  -17.3320   21.7890 C   0  0  0  0  0  3  0  0  0  0  0  0
  -29.8820  -18.5060   19.8110 C   0  0  0  0  0  3  0  0  0  0  0  0
  -30.4940  -18.5160   22.5480 C   0  0  0  0  0  0  0  0  0  0  0  0
  -29.7390  -19.7580   20.5390 C   0  0  0  0  0  0  0  0  0  0  0  0
  -30.3490  -17.2710   20.4160 C   0  0  0  0  0  0  0  0  0  0  0  0
  -31.0590  -14.8050   19.8180 C   0  0  0  0  0  0  0  0  0  0  0  0
  -30.7420  -12.5430   18.7910 C   0  0  0  0  0  2  0  0  0  0  0  0
  -29.7330  -12.6490   17.6250 C   0  0  0  0  0  2  0  0  0  0  0  0
  -28.2800  -12.5440   18.1370 C   0  0  0  0  0  2  0  0  0  0  0  0
  -28.0120  -13.4550   19.3630 C   0  0  0  0  0  3  0  0  0  0  0  0
  -29.1210  -13.3060   20.4250 C   0  0  0  0  0  2  0  0  0  0  0  0
  -30.3970  -13.6030   19.7590 N   0  0  0  0  0  0  0  0  0  0  0  0
  -32.2570  -14.8810   19.5300 O   0  0  0  0  0  0  0  0  0  0  0  0
  -30.2480  -15.9280   19.8120 N   0  0  0  0  0  0  0  0  0  0  0  0
  -29.2940  -15.6620   19.6270 H   0  0  0  0  0  0  0  0  0  0  0  0
  -25.6970  -14.1740   20.2070 C   0  0  0  0  0  0  0  0  0  0  0  0
  -24.6150  -13.4560   20.6370 C   0  0  0  0  0  0  0  0  0  0  0  0
  -25.0110  -12.0840   20.5960 C   0  0  0  0  0  0  0  0  0  0  0  0
  -26.6830  -13.2430   19.9260 N   0  0  0  0  0  0  0  0  0  0  0  0
  -26.2800  -11.9810   20.2220 N   0  0  0  0  0  0  0  0  0  0  0  0
  -24.2350  -10.8600   20.8300 C   0  0  0  0  0  0  0  0  0  0  0  0
  -24.6530   -9.8890   21.7660 C   0  0  0  0  0  3  0  0  0  0  0  0
  -23.8800   -8.7300   21.9870 C   0  0  0  0  0  3  0  0  0  0  0  0
  -22.6760   -8.5320   21.2710 C   0  0  0  0  0  0  0  0  0  0  0  0
  -22.2770   -9.4900   20.3220 C   0  0  0  0  0  3  0  0  0  0  0  0
  -23.0490  -10.6420   20.1000 C   0  0  0  0  0  3  0  0  0  0  0  0
  -21.8730   -7.4240   21.4010 O   0  0  0  0  0  0  0  0  0  0  0  0
  -21.7940   -6.7280   22.5810 C   0  0  0  0  0  0  0  0  0  0  0  0
  -21.4180   -7.3520   23.7900 C   0  0  0  0  0  3  0  0  0  0  0  0
  -21.2810   -6.5860   24.9640 C   0  0  0  0  0  3  0  0  0  0  0  0
  -21.5110   -5.1970   24.9310 C   0  0  0  0  0  0  0  0  0  0  0  0
  -21.8810   -4.5730   23.7260 C   0  0  0  0  0  3  0  0  0  0  0  0
  -22.0190   -5.3370   22.5540 C   0  0  0  0  0  0  0  0  0  0  0  0
  -22.3550   -4.7280   21.3910 F   0  0  0  0  0  0  0  0  0  0  0  0
  -21.3720   -4.4590   26.0570 F   0  0  0  0  0  0  0  0  0  0  0  0
  -23.2590  -14.0020   20.9760 C   0  0  0  0  0  0  0  0  0  0  0  0
  -22.5480  -13.3550   21.8920 N   0  0  0  0  0  0  0  0  0  0  0  0
  -22.8400  -15.0390   20.4600 O   0  0  0  0  0  0  0  0  0  0  0  0
  -22.9020  -12.5160   22.3300 H   0  0  0  0  0  0  0  0  0  0  0  0
  -21.6390  -13.7020   22.1630 H   0  0  0  0  0  0  0  0  0  0  0  0
  -25.9140  -15.5350   20.0030 N   0  0  0  0  0  0  0  0  0  0  0  0
  -25.1720  -16.2150   20.1270 H   0  0  0  0  0  0  0  0  0  0  0  0
  -26.7410  -15.9320   19.5800 H   0  0  0  0  0  0  0  0  0  0  0  0
  -31.7250  -17.7420   24.5430 C   0  0  0  0  0  2  0  0  0  0  0  0
  -30.7540  -18.5000   24.0060 C   0  0  0  0  0  0  0  0  0  0  0  0
  -29.8350  -19.3270   24.8930 C   0  0  0  0  0  1  0  0  0  0  0  0
  1 54  1  0
  1  6  1  0
  2  4  1  0
  3  5  1  0
  3  2  1  0
  5  8  1  0
  5  6  1  0
  6  4  1  0
  6  7  1  1
  9  8  1  0
 10 21  2  0
 11  9  1  0
 11 16  1  0
 12 20  1  0
 12 22  1  0
 13 19  1  0
 13 15  1  0
 14 20  1  0
 15 16  2  0
 15 14  1  0
 17 11  2  0
 18 17  1  0
 18 13  2  0
 19 12  1  0
 20 10  1  0
 22 24  2  0
 23 22  1  0
 25 23  1  0
 26 35  2  0
 26 31  1  0
 27 23  1  0
 27 31  1  0
 28 27  1  0
 29 30  1  0
 29 28  1  0
 30 26  1  0
 31 32  2  0
 32 33  1  0
 34 33  2  0
 35 34  1  0
 36 10  1  0
 36 41  1  0
 36 37  1  0
 37 40  1  1
 37 38  1  0
 39 37  1  0
 41 44  1  0
 42 46  1  0
 42 41  1  0
 43 42  2  0
 46 45  1  0
 48 46  1  0
 48 49  1  0
 48 47  1  0
 50 53  1  0
 51 53  2  0
 52 55  2  0
 52 54  1  0
 53 95  1  0
 54 50  2  0
 55 51  1  0
 57 62  1  0
 58 59  1  0
 58 57  1  0
 60 59  1  0
 60 69  1  0
 60 61  1  0
 62 56  1  0
 62 61  1  0
 63 56  2  0
 64 56  1  0
 64 55  1  0
 65 64  1  0
 66 67  2  0
 67 86  1  0
 68 67  1  0
 68 71  1  0
 69 66  1  0
 69 70  1  0
 70 68  2  0
 71 72  1  0
 72 73  2  0
 74 77  1  0
 74 73  1  0
 75 74  2  0
 76 75  1  0
 76 71  2  0
 77 78  1  0
 78 79  1  0
 79 80  2  0
 81 80  1  0
 81 85  1  0
 82 81  2  0
 83 78  2  0
 83 82  1  0
 84 83  1  0
 86 87  1  0
 87 90  1  0
 87 89  1  0
 88 86  2  0
 91 92  1  0
 91 66  1  0
 93 91  1  0
 95 94  2  0
 95 96  1  0
M  ISO  4   8 101   9 101  56 100  64 100
M  END
>  <TORSDO>  (16) 
F 20

>  <SCORE>  (16) 
-8.065

>  <name>  (16) 
15

>  <ligand_id>  (16) 
15

>  <original_smiles>  (16) 
[H]C([H])=C(c1c([H])c(N([H])C(=O)N2C([H])([H])C([H])([H])C([H])([H])C([H])(n3nc(-c4c([H])c([H])c(Oc5c([H])c([H])c(F)c([H])c5F)c([H])c4[H])c(C(=O)N([H])[H])c3N([H])[H])C2([H])[H])c([H])c(C([H])([H])[N+]2([H])C([H])([H])C([H])([H])C([H])([H])C2([H])C([H])([H])Oc2c([H])c([H])c3c(c2[H])C([H])([H])N(C(=O)C([H])(N([H])C(=O)C([H])(N([H])C([H])([H])[H])C([H])([H])[H])C(C([H])([H])[H])(C([H])([H])[H])C([H])([H])[H])C([H])(C(=O)N([H])C2([H])c4c([H])c([H])c([H])c([H])c4C([H])([H])C([H])([H])C2([H])[H])C3([H])[H])c1[H])C([H])([H])[H]

>  <smiles>  (16) 
[H]C([H])=C(c1c([H])c(N([H])C(=O)N2C([H])([H])C([H])([H])C([H])([H])C([H])(n3nc(-c4c([H])c([H])c(Oc5c([H])c([H])c(F)c([H])c5F)c([H])c4[H])c(C(=O)N([H])[H])c3N([H])[H])C2([H])[H])c([H])c(C([H])([H])[N+]2([H])C([H])([H])C([H])([H])C([H])([H])C2([H])C([H])([H])Oc2c([H])c([H])c3c(c2[H])C([H])([H])N(C(=O)C([H])(N([H])C(=O)C([H])(N([H])C([H])([H])[H])C([H])([H])[H])C(C([H])([H])[H])(C([H])([H])[H])C([H])([H])[H])C([H])(C(=O)N([H])C2([H])c4c([H])c([H])c([H])c([H])c4C([H])([H])C([H])([H])C2([H])[H])C3([H])[H])c1[H])C([H])([H])[H]

$$$$
16:0:0
     RDKit          3D

 95104  0  0  1  0  0  0  0  0999 V2000
  -27.3300  -22.0730   21.2930 C   0  0  0  0  0  0  0  0  0  0  0  0
  -26.4250  -23.2850   21.4440 C   0  0  0  0  0  2  0  0  0  0  0  0
  -26.9740  -24.6420   20.9820 C   0  0  0  0  0  2  0  0  0  0  0  0
  -29.0480  -23.3430   20.1260 C   0  0  0  0  0  2  0  0  0  0  0  0
  -28.1740  -24.6410   20.0030 C   0  0  0  0  0  3  0  0  0  0  0  0
  -28.2860  -22.0920   20.3380 N   0  0  0  0  0  0  0  0  0  0  0  0
  -27.0170  -21.0700   21.9250 O   0  0  0  0  0  0  0  0  0  0  0  0
  -28.3760  -20.9860   19.3410 C   0  0  0  0  0  2  0  0  0  0  0  0
  -29.3060  -19.2160   20.9860 C   0  0  0  0  0  3  0  0  0  0  0  0
  -29.8700  -17.9510   21.2400 C   0  0  0  0  0  3  0  0  0  0  0  0
  -29.6660  -18.8900   18.6150 C   0  0  0  0  0  3  0  0  0  0  0  0
  -29.1650  -19.6990   19.6650 C   0  0  0  0  0  0  0  0  0  0  0  0
  -30.3170  -17.1260   20.1960 C   0  0  0  0  0  0  0  0  0  0  0  0
  -30.2400  -17.6170   18.8660 C   0  0  0  0  0  0  0  0  0  0  0  0
  -30.6430  -16.8680   17.8090 F   0  0  0  0  0  0  0  0  0  0  0  0
  -31.3400  -14.8940   19.8330 C   0  0  0  0  0  0  0  0  0  0  0  0
  -31.1090  -12.7320   18.6730 C   0  0  0  0  0  2  0  0  0  0  0  0
  -30.1700  -12.9140   17.4640 C   0  0  0  0  0  2  0  0  0  0  0  0
  -28.6970  -12.7330   17.8870 C   0  0  0  0  0  2  0  0  0  0  0  0
  -28.3360  -13.5850   19.1340 C   0  0  0  0  0  3  0  0  0  0  0  0
  -29.3760  -13.3730   20.2580 C   0  0  0  0  0  2  0  0  0  0  0  0
  -30.7090  -13.6970   19.7070 N   0  0  0  0  0  0  0  0  0  0  0  0
  -32.4350  -15.1420   19.3200 O   0  0  0  0  0  0  0  0  0  0  0  0
  -30.6770  -15.7970   20.5640 N   0  0  0  0  0  0  0  0  0  0  0  0
  -30.0310  -15.3710   21.2100 H   0  0  0  0  0  0  0  0  0  0  0  0
  -25.9530  -14.1630   19.9190 C   0  0  0  0  0  0  0  0  0  0  0  0
  -24.8800  -13.3800   20.2220 C   0  0  0  0  0  0  0  0  0  0  0  0
  -25.3240  -12.0270   20.0750 C   0  0  0  0  0  0  0  0  0  0  0  0
  -26.9860  -13.2910   19.6040 N   0  0  0  0  0  0  0  0  0  0  0  0
  -26.6120  -11.9970   19.7570 N   0  0  0  0  0  0  0  0  0  0  0  0
  -24.5900  -10.7600   20.1660 C   0  0  0  0  0  0  0  0  0  0  0  0
  -24.9590   -9.7600   21.0920 C   0  0  0  0  0  3  0  0  0  0  0  0
  -24.2320   -8.5510   21.1690 C   0  0  0  0  0  3  0  0  0  0  0  0
  -23.1200   -8.3380   20.3210 C   0  0  0  0  0  0  0  0  0  0  0  0
  -22.7700   -9.3250   19.3860 C   0  0  0  0  0  3  0  0  0  0  0  0
  -23.4960  -10.5260   19.3070 C   0  0  0  0  0  3  0  0  0  0  0  0
  -22.3700   -7.1870   20.3110 O   0  0  0  0  0  0  0  0  0  0  0  0
  -22.1340   -6.4690   21.4530 C   0  0  0  0  0  0  0  0  0  0  0  0
  -21.5010   -7.0420   22.5800 C   0  0  0  0  0  3  0  0  0  0  0  0
  -21.2190   -6.2470   23.7070 C   0  0  0  0  0  3  0  0  0  0  0  0
  -21.5570   -4.8820   23.7110 C   0  0  0  0  0  0  0  0  0  0  0  0
  -22.1820   -4.3090   22.5900 C   0  0  0  0  0  3  0  0  0  0  0  0
  -22.4670   -5.0990   21.4640 C   0  0  0  0  0  0  0  0  0  0  0  0
  -23.0510   -4.5380   20.3770 F   0  0  0  0  0  0  0  0  0  0  0  0
  -21.2780   -4.1170   24.7920 F   0  0  0  0  0  0  0  0  0  0  0  0
  -23.4870  -13.8450   20.5490 C   0  0  0  0  0  0  0  0  0  0  0  0
  -22.7660  -13.0870   21.3660 N   0  0  0  0  0  0  0  0  0  0  0  0
  -23.0430  -14.9010   20.1060 O   0  0  0  0  0  0  0  0  0  0  0  0
  -23.1300  -12.2240   21.7470 H   0  0  0  0  0  0  0  0  0  0  0  0
  -21.8300  -13.3710   21.6260 H   0  0  0  0  0  0  0  0  0  0  0  0
  -26.1500  -15.5380   19.8490 N   0  0  0  0  0  0  0  0  0  0  0  0
  -25.4300  -16.2250   20.0450 H   0  0  0  0  0  0  0  0  0  0  0  0
  -27.0330  -15.9600   19.5930 H   0  0  0  0  0  0  0  0  0  0  0  0
  -29.0300  -25.9440   20.2080 C   0  0  0  0  0  2  0  0  0  0  0  0
  -28.6750  -27.1670   19.5420 O   0  0  0  0  0  0  0  0  0  0  0  0
  -24.7740  -31.9620   23.2020 C   0  0  0  0  0  0  0  0  0  0  0  0
  -27.4640  -27.7920   19.7700 C   0  0  0  0  0  0  0  0  0  0  0  0
  -23.5680  -30.5950   21.5300 C   0  0  0  0  0  3  0  0  0  0  0  0
  -25.0190  -29.1930   19.9810 C   0  0  0  0  0  0  0  0  0  0  0  0
  -26.0710  -31.0680   21.2620 C   0  0  0  0  0  2  0  0  0  0  0  0
  -26.1800  -29.7340   20.5470 C   0  0  0  0  0  0  0  0  0  0  0  0
  -27.4110  -29.0380   20.4370 C   0  0  0  0  0  3  0  0  0  0  0  0
  -26.2870  -27.2790   19.1830 C   0  0  0  0  0  3  0  0  0  0  0  0
  -25.0600  -27.9570   19.3140 C   0  0  0  0  0  3  0  0  0  0  0  0
  -23.7520  -29.9990   20.1130 C   0  0  0  0  0  2  0  0  0  0  0  0
  -24.8240  -31.2250   22.0530 N   0  0  0  0  0  0  0  0  0  0  0  0
  -23.7000  -32.1540   23.7940 O   0  0  0  0  0  0  0  0  0  0  0  0
  -22.9900  -29.5000   22.4590 C   0  0  0  0  0  0  0  0  0  0  0  0
  -21.6760  -29.2420   22.3490 N   0  0  0  0  0  0  0  0  0  0  0  0
  -23.7300  -28.8770   23.2300 O   0  0  0  0  0  0  0  0  0  0  0  0
  -21.1480  -29.7660   21.6740 H   0  0  0  0  0  0  0  0  0  0  0  0
  -18.3680  -27.8750   22.8480 C   0  0  0  0  0  0  0  0  0  0  0  0
  -20.9150  -28.2430   23.0950 C   0  0  0  0  0  3  0  0  0  0  0  0
  -21.0680  -26.8410   22.4660 C   0  0  0  0  0  2  0  0  0  0  0  0
  -19.9780  -26.5250   21.4380 C   0  0  0  0  0  2  0  0  0  0  0  0
  -18.5760  -26.5870   22.0690 C   0  0  0  0  0  2  0  0  0  0  0  0
  -19.4590  -28.6660   23.3040 C   0  0  0  0  0  0  0  0  0  0  0  0
  -19.1940  -29.8800   23.9790 C   0  0  0  0  0  3  0  0  0  0  0  0
  -17.8680  -30.2980   24.2110 C   0  0  0  0  0  3  0  0  0  0  0  0
  -16.8020  -29.4970   23.7770 C   0  0  0  0  0  3  0  0  0  0  0  0
  -17.0510  -28.2990   23.0910 C   0  0  0  0  0  3  0  0  0  0  0  0
  -26.0520  -32.6160   23.8080 C   0  0  0  0  0  3  0  0  0  0  0  0
  -26.5910  -31.8640   25.0870 C   0  0  1  0  0  0  0  0  0  0  0  0
  -25.5100  -31.6120   26.1630 C   0  0  0  0  0  1  0  0  0  0  0  0
  -27.1990  -30.4980   24.6990 C   0  0  0  0  0  1  0  0  0  0  0  0
  -27.7340  -32.6820   25.7340 C   0  0  0  0  0  1  0  0  0  0  0  0
  -25.7360  -34.0160   24.1220 N   0  0  0  0  0  0  0  0  0  0  0  0
  -26.0530  -35.0630   23.3470 C   0  0  0  0  0  0  0  0  0  0  0  0
  -26.7350  -34.9530   22.3240 O   0  0  0  0  0  0  0  0  0  0  0  0
  -25.1450  -34.1720   24.9240 H   0  0  0  0  0  0  0  0  0  0  0  0
  -24.3180  -36.8350   22.9800 C   0  0  0  0  0  1  0  0  0  0  0  0
  -25.5650  -36.4520   23.7930 C   0  0  0  0  0  3  0  0  0  0  0  0
  -27.6950  -37.3670   24.6080 C   0  0  0  0  0  1  0  0  0  0  0  0
  -26.5880  -37.5150   23.6620 N   0  0  0  0  0  0  0  0  0  0  0  0
  -26.1750  -38.4330   23.8090 H   0  0  0  0  0  0  0  0  0  0  0  0
  1  2  1  0
  1  7  2  0
  3  2  1  0
  4  6  1  0
  5  4  1  0
  5 54  1  0
  5  3  1  0
  6  1  1  0
  8 12  1  0
  8  6  1  0
  9 10  1  0
 11 14  2  0
 11 12  1  0
 12  9  2  0
 13 24  1  0
 13 10  2  0
 14 13  1  0
 15 14  1  0
 16 24  1  0
 17 22  1  0
 18 19  1  0
 18 17  1  0
 20 19  1  0
 20 29  1  0
 20 21  1  0
 22 16  1  0
 22 21  1  0
 23 16  2  0
 24 25  1  0
 26 27  2  0
 27 46  1  0
 28 31  1  0
 28 27  1  0
 29 30  1  0
 29 26  1  0
 30 28  2  0
 31 32  1  0
 32 33  2  0
 34 33  1  0
 35 34  2  0
 36 35  1  0
 36 31  2  0
 37 34  1  0
 37 38  1  0
 38 43  2  0
 38 39  1  0
 39 40  2  0
 40 41  1  0
 41 45  1  0
 42 41  2  0
 43 42  1  0
 44 43  1  0
 46 47  1  0
 47 50  1  0
 47 49  1  0
 48 46  2  0
 51 26  1  0
 51 52  1  0
 53 51  1  0
 55 57  1  0
 55 54  1  0
 56 67  2  0
 57 62  1  0
 58 66  1  0
 58 68  1  0
 59 65  1  0
 59 61  1  0
 60 66  1  0
 61 60  1  0
 62 61  2  0
 63 64  1  0
 63 57  2  0
 64 59  2  0
 65 58  1  0
 66 56  1  0
 68 70  2  0
 69 68  1  0
 71 69  1  0
 72 81  2  0
 72 77  1  0
 73 69  1  0
 73 77  1  0
 74 73  1  0
 75 76  1  0
 75 74  1  0
 76 72  1  0
 77 78  2  0
 78 79  1  0
 80 79  2  0
 81 80  1  0
 82 56  1  0
 82 87  1  0
 82 83  1  0
 83 86  1  1
 83 84  1  0
 85 83  1  0
 87 90  1  0
 88 92  1  0
 88 87  1  0
 89 88  2  0
 92 91  1  0
 94 92  1  0
 94 95  1  0
 94 93  1  0
M  ISO  4  16 100  24 100  54 101  55 101
M  END
>  <TORSDO>  (17) 
F 19

>  <SCORE>  (17) 
-6.727

>  <name>  (17) 
16

>  <ligand_id>  (17) 
16

>  <original_smiles>  (17) 
[H]c1c([H])c([H])c2c(c1[H])C([H])([H])C([H])([H])C([H])([H])C2([H])N([H])C(=O)C1([H])N(C(=O)C([H])(N([H])C(=O)C([H])(N([H])C([H])([H])[H])C([H])([H])[H])C(C([H])([H])[H])(C([H])([H])[H])C([H])([H])[H])C([H])([H])c2c([H])c(OC([H])([H])C3([H])C([H])([H])N(C([H])([H])c4c([H])c([H])c(N([H])C(=O)N5C([H])([H])C([H])([H])C([H])([H])C([H])(n6nc(-c7c([H])c([H])c(Oc8c([H])c([H])c(F)c([H])c8F)c([H])c7[H])c(C(=O)N([H])[H])c6N([H])[H])C5([H])[H])c(F)c4[H])C(=O)C([H])([H])C3([H])[H])c([H])c([H])c2C1([H])[H]

>  <smiles>  (17) 
[H]c1c([H])c([H])c2c(c1[H])C([H])([H])C([H])([H])C([H])([H])C2([H])N([H])C(=O)C1([H])N(C(=O)C([H])(N([H])C(=O)C([H])(N([H])C([H])([H])[H])C([H])([H])[H])C(C([H])([H])[H])(C([H])([H])[H])C([H])([H])[H])C([H])([H])c2c([H])c(OC([H])([H])C3([H])C([H])([H])N(C([H])([H])c4c([H])c([H])c(N([H])C(=O)N5C([H])([H])C([H])([H])C([H])([H])C([H])(n6nc(-c7c([H])c([H])c(Oc8c([H])c([H])c(F)c([H])c8F)c([H])c7[H])c(C(=O)N([H])[H])c6N([H])[H])C5([H])[H])c(F)c4[H])C(=O)C([H])([H])C3([H])[H])c([H])c([H])c2C1([H])[H]

$$$$
17:0:0
     RDKit          3D

 93101  0  0  1  0  0  0  0  0999 V2000
  -28.1850  -17.9850   19.8410 C   0  0  0  0  0  3  0  0  0  0  0  0
  -29.8740  -19.5750   20.5850 C   0  0  0  0  0  3  0  0  0  0  0  0
  -27.7610  -20.4040   19.7120 C   0  0  0  0  0  3  0  0  0  0  0  0
  -29.4640  -18.2160   20.4010 C   0  0  0  0  0  0  0  0  0  0  0  0
  -27.3500  -19.0710   19.4830 C   0  0  0  0  0  0  0  0  0  0  0  0
  -29.0330  -20.6840   20.2570 C   0  0  0  0  0  0  0  0  0  0  0  0
  -26.1200  -18.8240   18.8680 N   0  0  0  0  0  0  0  0  0  0  0  0
  -25.9750  -17.9300   18.4060 H   0  0  0  0  0  0  0  0  0  0  0  0
  -25.6530  -19.5840   18.3790 H   0  0  0  0  0  0  0  0  0  0  0  0
  -30.4230  -17.0440   20.7650 C   0  0  0  0  0  2  0  0  0  0  0  0
  -30.6600  -14.5460   20.3120 C   0  0  0  0  0  0  0  0  0  0  0  0
  -30.3330  -12.3670   19.1760 C   0  0  0  0  0  2  0  0  0  0  0  0
  -29.3900  -12.6170   17.9800 C   0  0  0  0  0  2  0  0  0  0  0  0
  -27.9170  -12.4870   18.4260 C   0  0  0  0  0  2  0  0  0  0  0  0
  -27.6060  -13.2910   19.7200 C   0  0  0  0  0  3  0  0  0  0  0  0
  -28.6800  -13.0580   20.8070 C   0  0  0  0  0  2  0  0  0  0  0  0
  -29.9870  -13.3610   20.2070 N   0  0  0  0  0  0  0  0  0  0  0  0
  -31.8160  -14.6700   19.9060 O   0  0  0  0  0  0  0  0  0  0  0  0
  -29.9370  -15.6310   20.7020 N   0  0  0  0  0  0  0  0  0  0  0  0
  -28.9950  -15.4560   21.0180 H   0  0  0  0  0  0  0  0  0  0  0  0
  -25.2240  -13.8960   20.4770 C   0  0  0  0  0  0  0  0  0  0  0  0
  -24.1610  -13.1260   20.8600 C   0  0  0  0  0  0  0  0  0  0  0  0
  -24.6180  -11.7740   20.8140 C   0  0  0  0  0  0  0  0  0  0  0  0
  -26.2640  -13.0150   20.2260 N   0  0  0  0  0  0  0  0  0  0  0  0
  -25.9030  -11.7340   20.4840 N   0  0  0  0  0  0  0  0  0  0  0  0
  -23.8890  -10.5160   21.0120 C   0  0  0  0  0  0  0  0  0  0  0  0
  -24.3280   -9.5440   21.9390 C   0  0  0  0  0  3  0  0  0  0  0  0
  -23.6000   -8.3500   22.1240 C   0  0  0  0  0  3  0  0  0  0  0  0
  -22.4190   -8.1200   21.3810 C   0  0  0  0  0  0  0  0  0  0  0  0
  -21.9990   -9.0790   20.4440 C   0  0  0  0  0  3  0  0  0  0  0  0
  -22.7280  -10.2640   20.2560 C   0  0  0  0  0  3  0  0  0  0  0  0
  -21.6560   -6.9790   21.4780 O   0  0  0  0  0  0  0  0  0  0  0  0
  -21.6110   -6.2370   22.6300 C   0  0  0  0  0  0  0  0  0  0  0  0
  -21.1890   -6.7940   23.8590 C   0  0  0  0  0  3  0  0  0  0  0  0
  -21.0940   -5.9760   25.0050 C   0  0  0  0  0  3  0  0  0  0  0  0
  -21.4050   -4.6060   24.9220 C   0  0  0  0  0  0  0  0  0  0  0  0
  -21.8200   -4.0500   23.6990 C   0  0  0  0  0  3  0  0  0  0  0  0
  -21.9200   -4.8630   22.5570 C   0  0  0  0  0  0  0  0  0  0  0  0
  -22.2980   -4.3190   21.3750 F   0  0  0  0  0  0  0  0  0  0  0  0
  -21.3080   -3.8210   26.0190 F   0  0  0  0  0  0  0  0  0  0  0  0
  -22.7700  -13.6110   21.1510 C   0  0  0  0  0  0  0  0  0  0  0  0
  -22.0480  -12.9160   22.0240 N   0  0  0  0  0  0  0  0  0  0  0  0
  -22.3330  -14.6420   20.6410 O   0  0  0  0  0  0  0  0  0  0  0  0
  -22.4160  -12.0840   22.4650 H   0  0  0  0  0  0  0  0  0  0  0  0
  -21.1160  -13.2220   22.2610 H   0  0  0  0  0  0  0  0  0  0  0  0
  -25.3820  -15.2670   20.3080 N   0  0  0  0  0  0  0  0  0  0  0  0
  -24.6070  -15.9040   20.4400 H   0  0  0  0  0  0  0  0  0  0  0  0
  -26.2210  -15.7220   19.9740 H   0  0  0  0  0  0  0  0  0  0  0  0
  -29.4970  -21.9980   20.3480 O   0  0  0  0  0  0  0  0  0  0  0  0
  -28.7820  -22.9710   21.1540 C   0  0  0  0  0  2  0  0  0  0  0  0
  -27.9450  -24.1050   20.4550 C   0  0  0  0  0  2  0  0  0  0  0  0
  -28.6690  -25.3280   19.7890 C   0  0  0  0  0  2  0  0  0  0  0  0
  -28.5220  -26.6450   20.4000 O   0  0  0  0  0  0  0  0  0  0  0  0
  -24.6120  -31.8990   23.2670 C   0  0  0  0  0  0  0  0  0  0  0  0
  -27.3470  -27.3840   20.3050 C   0  0  0  0  0  0  0  0  0  0  0  0
  -23.4500  -30.4630   21.6250 C   0  0  0  0  0  3  0  0  0  0  0  0
  -24.9450  -28.9120   20.2420 C   0  0  0  0  0  0  0  0  0  0  0  0
  -25.9810  -30.8210   21.4780 C   0  0  0  0  0  2  0  0  0  0  0  0
  -26.0890  -29.4420   20.8530 C   0  0  0  0  0  0  0  0  0  0  0  0
  -27.2880  -28.6810   20.8820 C   0  0  0  0  0  3  0  0  0  0  0  0
  -26.1830  -26.8880   19.6770 C   0  0  0  0  0  3  0  0  0  0  0  0
  -24.9930  -27.6390   19.6470 C   0  0  0  0  0  3  0  0  0  0  0  0
  -23.6920  -29.7630   20.2590 C   0  0  0  0  0  2  0  0  0  0  0  0
  -24.6980  -31.0780   22.1800 N   0  0  0  0  0  0  0  0  0  0  0  0
  -23.5150  -32.1720   23.7770 O   0  0  0  0  0  0  0  0  0  0  0  0
  -22.7870  -29.4520   22.5870 C   0  0  0  0  0  0  0  0  0  0  0  0
  -21.4650  -29.2620   22.4440 N   0  0  0  0  0  0  0  0  0  0  0  0
  -23.4600  -28.8420   23.4230 O   0  0  0  0  0  0  0  0  0  0  0  0
  -20.9830  -29.8060   21.7420 H   0  0  0  0  0  0  0  0  0  0  0  0
  -18.0850  -28.0740   22.9250 C   0  0  0  0  0  0  0  0  0  0  0  0
  -20.6410  -28.3280   23.2130 C   0  0  0  0  0  3  0  0  0  0  0  0
  -20.7440  -26.8970   22.6410 C   0  0  0  0  0  2  0  0  0  0  0  0
  -19.6480  -26.5720   21.6200 C   0  0  0  0  0  2  0  0  0  0  0  0
  -18.2630  -26.7220   22.2540 C   0  0  0  0  0  2  0  0  0  0  0  0
  -19.2020  -28.8340   23.3600 C   0  0  0  0  0  0  0  0  0  0  0  0
  -18.9840  -30.1010   23.9450 C   0  0  0  0  0  3  0  0  0  0  0  0
  -17.6790  -30.6090   24.0970 C   0  0  0  0  0  3  0  0  0  0  0  0
  -16.5750  -29.8440   23.6790 C   0  0  0  0  0  3  0  0  0  0  0  0
  -16.7780  -28.5770   23.1000 C   0  0  0  0  0  3  0  0  0  0  0  0
  -25.8770  -32.5510   23.9030 C   0  0  0  0  0  3  0  0  0  0  0  0
  -25.5510  -33.9500   24.2100 N   0  0  0  0  0  0  0  0  0  0  0  0
  -25.8860  -34.9960   23.4400 C   0  0  0  0  0  0  0  0  0  0  0  0
  -26.5760  -34.8830   22.4240 O   0  0  0  0  0  0  0  0  0  0  0  0
  -24.9420  -34.1100   24.9970 H   0  0  0  0  0  0  0  0  0  0  0  0
  -24.1510  -36.7660   23.0290 C   0  0  0  0  0  1  0  0  0  0  0  0
  -25.3790  -36.3850   23.8700 C   0  0  0  0  0  3  0  0  0  0  0  0
  -27.4900  -37.3020   24.7270 C   0  0  0  0  0  1  0  0  0  0  0  0
  -26.4040  -37.4460   23.7620 N   0  0  0  0  0  0  0  0  0  0  0  0
  -25.9870  -38.3640   23.8850 H   0  0  0  0  0  0  0  0  0  0  0  0
  -26.3770  -31.8000   25.1970 C   0  0  1  0  0  0  0  0  0  0  0  0
  -25.2670  -31.5610   26.2490 C   0  0  0  0  0  1  0  0  0  0  0  0
  -26.9830  -30.4250   24.8300 C   0  0  0  0  0  1  0  0  0  0  0  0
  -27.5090  -32.6130   25.8700 C   0  0  0  0  0  1  0  0  0  0  0  0
  1  4  1  0
  3  6  2  0
  4  2  2  0
  4 10  1  0
  5  3  1  0
  5  1  2  0
  6 49  1  0
  6  2  1  0
  7  5  1  0
  8  7  1  0
  9  7  1  0
 11 19  1  0
 12 17  1  0
 13 14  1  0
 13 12  1  0
 15 14  1  0
 15 24  1  0
 15 16  1  0
 17 11  1  0
 17 16  1  0
 18 11  2  0
 19 10  1  0
 19 20  1  0
 21 22  2  0
 22 41  1  0
 23 22  1  0
 23 26  1  0
 24 21  1  0
 24 25  1  0
 25 23  2  0
 26 27  1  0
 27 28  2  0
 29 32  1  0
 29 28  1  0
 30 29  2  0
 31 30  1  0
 31 26  2  0
 32 33  1  0
 33 34  1  0
 34 35  2  0
 36 35  1  0
 36 40  1  0
 37 36  2  0
 38 33  2  0
 38 37  1  0
 39 38  1  0
 41 42  1  0
 42 45  1  0
 42 44  1  0
 43 41  2  0
 46 47  1  0
 46 21  1  0
 48 46  1  0
 49 50  1  0
 51 50  1  0
 52 53  1  0
 52 51  1  0
 54 65  2  0
 55 53  1  0
 55 60  1  0
 56 64  1  0
 56 66  1  0
 57 63  1  0
 57 59  1  0
 58 64  1  0
 59 60  2  0
 59 58  1  0
 61 55  2  0
 62 61  1  0
 62 57  2  0
 63 56  1  0
 64 54  1  0
 66 68  2  0
 67 66  1  0
 69 67  1  0
 70 79  2  0
 70 75  1  0
 71 67  1  0
 71 75  1  0
 72 71  1  0
 73 74  1  0
 73 72  1  0
 74 70  1  0
 75 76  2  0
 76 77  1  0
 78 77  2  0
 79 78  1  0
 80 54  1  0
 80 81  1  0
 80 90  1  0
 81 84  1  0
 82 86  1  0
 82 81  1  0
 83 82  2  0
 86 85  1  0
 88 86  1  0
 88 89  1  0
 88 87  1  0
 90 93  1  1
 90 91  1  0
 92 90  1  0
M  ISO  4  11 100  19 100  52 101  53 101
M  END
>  <TORSDO>  (18) 
F 22

>  <SCORE>  (18) 
-13.267

>  <name>  (18) 
17

>  <ligand_id>  (18) 
17

>  <original_smiles>  (18) 
[H]c1c([H])c([H])c2c(c1[H])C([H])([H])C([H])([H])C([H])([H])C2([H])N([H])C(=O)C1([H])N(C(=O)C([H])(N([H])C(=O)C([H])(N([H])C([H])([H])[H])C([H])([H])[H])C(C([H])([H])[H])(C([H])([H])[H])C([H])([H])[H])C([H])([H])c2c([H])c(OC([H])([H])C([H])([H])C([H])([H])Oc3c([H])c(N([H])[H])c([H])c(C([H])([H])N([H])C(=O)N4C([H])([H])C([H])([H])C([H])([H])C([H])(n5nc(-c6c([H])c([H])c(Oc7c([H])c([H])c(F)c([H])c7F)c([H])c6[H])c(C(=O)N([H])[H])c5N([H])[H])C4([H])[H])c3[H])c([H])c([H])c2C1([H])[H]

>  <smiles>  (18) 
[H]c1c([H])c([H])c2c(c1[H])C([H])([H])C([H])([H])C([H])([H])C2([H])N([H])C(=O)C1([H])N(C(=O)C([H])(N([H])C(=O)C([H])(N([H])C([H])([H])[H])C([H])([H])[H])C(C([H])([H])[H])(C([H])([H])[H])C([H])([H])[H])C([H])([H])c2c([H])c(OC([H])([H])C([H])([H])C([H])([H])Oc3c([H])c(N([H])[H])c([H])c(C([H])([H])N([H])C(=O)N4C([H])([H])C([H])([H])C([H])([H])C([H])(n5nc(-c6c([H])c([H])c(Oc7c([H])c([H])c(F)c([H])c7F)c([H])c6[H])c(C(=O)N([H])[H])c5N([H])[H])C4([H])[H])c3[H])c([H])c([H])c2C1([H])[H]

$$$$
18:0:0
     RDKit          3D

 94102  0  0  1  0  0  0  0  0999 V2000
  -29.0720  -21.7320   22.0090 N   0  0  0  0  0  0  0  0  0  0  0  0
  -28.7020  -21.8810   22.9440 H   0  0  0  0  0  0  0  0  0  0  0  0
  -30.2960  -18.3160   22.8210 C   0  0  0  0  0  3  0  0  0  0  0  0
  -29.6490  -19.5640   22.9240 C   0  0  0  0  0  3  0  0  0  0  0  0
  -30.4910  -20.1890   20.7290 C   0  0  0  0  0  3  0  0  0  0  0  0
  -31.0410  -17.9880   21.6660 C   0  0  0  0  0  0  0  0  0  0  0  0
  -29.7380  -20.5060   21.8830 C   0  0  0  0  0  0  0  0  0  0  0  0
  -31.1370  -18.9400   20.6200 C   0  0  0  0  0  0  0  0  0  0  0  0
  -31.8390  -18.6560   19.4950 F   0  0  0  0  0  0  0  0  0  0  0  0
  -31.7110  -16.6150   21.5830 C   0  0  0  0  0  2  0  0  0  0  0  0
  -32.1840  -14.8720   19.9250 C   0  0  0  0  0  0  0  0  0  0  0  0
  -31.6590  -12.7240   18.8530 C   0  0  0  0  0  2  0  0  0  0  0  0
  -30.6940  -12.9860   17.6780 C   0  0  0  0  0  2  0  0  0  0  0  0
  -29.2290  -13.0030   18.1580 C   0  0  0  0  0  2  0  0  0  0  0  0
  -29.0140  -13.8920   19.4140 C   0  0  0  0  0  3  0  0  0  0  0  0
  -30.0840  -13.5910   20.4860 C   0  0  0  0  0  2  0  0  0  0  0  0
  -31.4080  -13.7590   19.8640 N   0  0  0  0  0  0  0  0  0  0  0  0
  -33.3010  -14.9550   19.4170 O   0  0  0  0  0  0  0  0  0  0  0  0
  -31.5410  -15.9900   20.2800 N   0  0  0  0  0  0  0  0  0  0  0  0
  -31.7030  -16.7020   19.5820 H   0  0  0  0  0  0  0  0  0  0  0  0
  -26.7320  -14.7260   20.2580 C   0  0  0  0  0  0  0  0  0  0  0  0
  -25.5970  -14.0600   20.6330 C   0  0  0  0  0  0  0  0  0  0  0  0
  -25.8970  -12.6680   20.5140 C   0  0  0  0  0  0  0  0  0  0  0  0
  -27.6600  -13.7470   19.9370 N   0  0  0  0  0  0  0  0  0  0  0  0
  -27.1630  -12.5010   20.1480 N   0  0  0  0  0  0  0  0  0  0  0  0
  -25.0370  -11.4890   20.6760 C   0  0  0  0  0  0  0  0  0  0  0  0
  -25.3690  -10.4490   21.5740 C   0  0  0  0  0  3  0  0  0  0  0  0
  -24.5210   -9.3320   21.7240 C   0  0  0  0  0  3  0  0  0  0  0  0
  -23.3230   -9.2450   20.9760 C   0  0  0  0  0  0  0  0  0  0  0  0
  -23.0070  -10.2710   20.0680 C   0  0  0  0  0  3  0  0  0  0  0  0
  -23.8550  -11.3810   19.9150 C   0  0  0  0  0  3  0  0  0  0  0  0
  -22.4540   -8.1850   21.0370 O   0  0  0  0  0  0  0  0  0  0  0  0
  -22.2730   -7.4640   22.1910 C   0  0  0  0  0  0  0  0  0  0  0  0
  -21.8810   -8.0820   23.3990 C   0  0  0  0  0  3  0  0  0  0  0  0
  -21.6430   -7.2980   24.5450 C   0  0  0  0  0  3  0  0  0  0  0  0
  -21.7860   -5.9000   24.4840 C   0  0  0  0  0  0  0  0  0  0  0  0
  -22.1680   -5.2810   23.2800 C   0  0  0  0  0  3  0  0  0  0  0  0
  -22.4110   -6.0630   22.1360 C   0  0  0  0  0  0  0  0  0  0  0  0
  -22.7610   -5.4610   20.9740 F   0  0  0  0  0  0  0  0  0  0  0  0
  -21.5470   -5.1450   25.5830 F   0  0  0  0  0  0  0  0  0  0  0  0
  -24.2770  -14.6740   20.9980 C   0  0  0  0  0  0  0  0  0  0  0  0
  -23.5250  -14.0310   21.8840 N   0  0  0  0  0  0  0  0  0  0  0  0
  -23.9240  -15.7570   20.5320 O   0  0  0  0  0  0  0  0  0  0  0  0
  -23.8340  -13.1610   22.2920 H   0  0  0  0  0  0  0  0  0  0  0  0
  -22.6300  -14.4120   22.1560 H   0  0  0  0  0  0  0  0  0  0  0  0
  -27.0490  -16.0760   20.1530 N   0  0  0  0  0  0  0  0  0  0  0  0
  -26.3770  -16.8080   20.3510 H   0  0  0  0  0  0  0  0  0  0  0  0
  -27.9610  -16.4320   19.8890 H   0  0  0  0  0  0  0  0  0  0  0  0
  -28.0670  -21.9400   20.9670 C   0  0  0  0  0  2  0  0  0  0  0  0
  -26.7580  -23.8620   22.0530 C   0  0  0  0  0  1  0  0  0  0  0  0
  -27.5960  -23.4110   20.8410 C   0  0  0  0  0  3  0  0  0  0  0  0
  -28.7720  -24.3640   20.5090 C   0  0  0  0  0  2  0  0  0  0  0  0
  -28.5380  -25.3650   19.3480 C   0  0  0  0  0  2  0  0  0  0  0  0
  -28.4000  -26.7160   19.7960 O   0  0  0  0  0  0  0  0  0  0  0  0
  -24.6170  -31.7040   23.0900 C   0  0  0  0  0  0  0  0  0  0  0  0
  -27.1820  -27.3620   19.8250 C   0  0  0  0  0  0  0  0  0  0  0  0
  -23.3630  -30.3440   21.4450 C   0  0  0  0  0  3  0  0  0  0  0  0
  -24.7770  -28.8490   19.9410 C   0  0  0  0  0  0  0  0  0  0  0  0
  -25.8810  -30.7200   21.1850 C   0  0  0  0  0  2  0  0  0  0  0  0
  -25.9480  -29.3710   20.5010 C   0  0  0  0  0  0  0  0  0  0  0  0
  -27.1500  -28.6350   20.4350 C   0  0  0  0  0  3  0  0  0  0  0  0
  -25.9830  -26.8370   19.2890 C   0  0  0  0  0  3  0  0  0  0  0  0
  -24.7870  -27.5790   19.3370 C   0  0  0  0  0  3  0  0  0  0  0  0
  -23.5300  -29.6970   20.0420 C   0  0  0  0  0  2  0  0  0  0  0  0
  -24.6380  -30.9400   21.9610 N   0  0  0  0  0  0  0  0  0  0  0  0
  -23.5520  -31.9590   23.6690 O   0  0  0  0  0  0  0  0  0  0  0  0
  -22.7480  -29.2930   22.3970 C   0  0  0  0  0  0  0  0  0  0  0  0
  -21.4290  -29.0780   22.2770 N   0  0  0  0  0  0  0  0  0  0  0  0
  -23.4540  -28.6720   23.1970 O   0  0  0  0  0  0  0  0  0  0  0  0
  -20.9180  -29.6250   21.6000 H   0  0  0  0  0  0  0  0  0  0  0  0
  -18.1000  -27.7590   22.7470 C   0  0  0  0  0  0  0  0  0  0  0  0
  -20.6430  -28.1110   23.0430 C   0  0  0  0  0  3  0  0  0  0  0  0
  -20.8030  -26.6850   22.4660 C   0  0  0  0  0  2  0  0  0  0  0  0
  -19.7220  -26.3230   21.4410 C   0  0  0  0  0  2  0  0  0  0  0  0
  -18.3310  -26.4190   22.0730 C   0  0  0  0  0  2  0  0  0  0  0  0
  -19.1860  -28.5600   23.1880 C   0  0  0  0  0  0  0  0  0  0  0  0
  -18.9160  -29.8160   23.7760 C   0  0  0  0  0  3  0  0  0  0  0  0
  -17.5910  -30.2700   23.9290 C   0  0  0  0  0  3  0  0  0  0  0  0
  -16.5190  -29.4640   23.5060 C   0  0  0  0  0  3  0  0  0  0  0  0
  -16.7750  -28.2100   22.9220 C   0  0  0  0  0  3  0  0  0  0  0  0
  -25.9210  -32.3230   23.6860 C   0  0  0  0  0  3  0  0  0  0  0  0
  -25.6130  -33.7020   24.0840 N   0  0  0  0  0  0  0  0  0  0  0  0
  -25.9160  -34.7880   23.3610 C   0  0  0  0  0  0  0  0  0  0  0  0
  -26.5620  -34.7380   22.3110 O   0  0  0  0  0  0  0  0  0  0  0  0
  -25.0470  -33.8130   24.9110 H   0  0  0  0  0  0  0  0  0  0  0  0
  -24.1680  -36.5830   23.1240 C   0  0  0  0  0  1  0  0  0  0  0  0
  -25.4260  -36.1490   23.8930 C   0  0  0  0  0  3  0  0  0  0  0  0
  -27.5710  -37.0130   24.7220 C   0  0  0  0  0  1  0  0  0  0  0  0
  -26.4480  -37.2140   23.8120 N   0  0  0  0  0  0  0  0  0  0  0  0
  -26.0360  -38.1190   24.0170 H   0  0  0  0  0  0  0  0  0  0  0  0
  -26.4980  -31.5100   24.9100 C   0  0  1  0  0  0  0  0  0  0  0  0
  -25.4520  -31.2220   26.0110 C   0  0  0  0  0  1  0  0  0  0  0  0
  -27.0780  -30.1550   24.4440 C   0  0  0  0  0  1  0  0  0  0  0  0
  -27.6640  -32.2880   25.5630 C   0  0  0  0  0  1  0  0  0  0  0  0
  1  2  1  0
  3  4  1  0
  5  7  1  0
  6  3  2  0
  7  1  1  0
  7  4  2  0
  8  5  2  0
  8  6  1  0
  9  8  1  0
 10  6  1  0
 11 19  1  0
 12 17  1  0
 13 14  1  0
 13 12  1  0
 15 14  1  0
 15 24  1  0
 15 16  1  0
 17 11  1  0
 17 16  1  0
 18 11  2  0
 19 10  1  0
 20 19  1  0
 21 22  2  0
 22 41  1  0
 23 22  1  0
 23 26  1  0
 24 25  1  0
 24 21  1  0
 25 23  2  0
 26 27  1  0
 27 28  2  0
 29 32  1  0
 29 28  1  0
 30 29  2  0
 31 30  1  0
 31 26  2  0
 32 33  1  0
 33 34  1  0
 34 35  2  0
 36 35  1  0
 36 40  1  0
 37 36  2  0
 38 33  2  0
 38 37  1  0
 39 38  1  0
 41 42  1  0
 42 45  1  0
 42 44  1  0
 43 41  2  0
 46 21  1  0
 46 47  1  0
 48 46  1  0
 49  1  1  0
 51 49  1  0
 51 50  1  0
 52 51  1  0
 53 54  1  0
 53 52  1  0
 54 56  1  0
 55 66  2  0
 56 61  1  0
 57 65  1  0
 57 67  1  0
 58 64  1  0
 58 60  1  0
 59 65  1  0
 60 59  1  0
 61 60  2  0
 62 63  1  0
 62 56  2  0
 63 58  2  0
 64 57  1  0
 65 55  1  0
 67 69  2  0
 68 67  1  0
 70 68  1  0
 71 80  2  0
 71 76  1  0
 72 68  1  0
 72 76  1  0
 73 72  1  0
 74 75  1  0
 74 73  1  0
 75 71  1  0
 76 77  2  0
 77 78  1  0
 79 78  2  0
 80 79  1  0
 81 55  1  0
 81 82  1  0
 81 91  1  0
 82 85  1  0
 83 87  1  0
 83 82  1  0
 84 83  2  0
 87 86  1  0
 89 87  1  0
 89 90  1  0
 89 88  1  0
 91 94  1  1
 91 92  1  0
 93 91  1  0
M  ISO  4  11 100  19 100  53 101  54 101
M  END
>  <TORSDO>  (19) 
F 22

>  <SCORE>  (19) 
-8.319

>  <name>  (19) 
18

>  <ligand_id>  (19) 
18

>  <original_smiles>  (19) 
[H]c1c([H])c([H])c2c(c1[H])C([H])([H])C([H])([H])C([H])([H])C2([H])N([H])C(=O)C1([H])N(C(=O)C([H])(N([H])C(=O)C([H])(N([H])C([H])([H])[H])C([H])([H])[H])C(C([H])([H])[H])(C([H])([H])[H])C([H])([H])[H])C([H])([H])c2c([H])c(OC([H])([H])C([H])([H])C([H])(C([H])([H])[H])C([H])([H])N([H])c3c([H])c([H])c(C([H])([H])N([H])C(=O)N4C([H])([H])C([H])([H])C([H])([H])C([H])(n5nc(-c6c([H])c([H])c(Oc7c([H])c([H])c(F)c([H])c7F)c([H])c6[H])c(C(=O)N([H])[H])c5N([H])[H])C4([H])[H])c(F)c3[H])c([H])c([H])c2C1([H])[H]

>  <smiles>  (19) 
[H]c1c([H])c([H])c2c(c1[H])C([H])([H])C([H])([H])C([H])([H])C2([H])N([H])C(=O)C1([H])N(C(=O)C([H])(N([H])C(=O)C([H])(N([H])C([H])([H])[H])C([H])([H])[H])C(C([H])([H])[H])(C([H])([H])[H])C([H])([H])[H])C([H])([H])c2c([H])c(OC([H])([H])C([H])([H])C([H])(C([H])([H])[H])C([H])([H])N([H])c3c([H])c([H])c(C([H])([H])N([H])C(=O)N4C([H])([H])C([H])([H])C([H])([H])C([H])(n5nc(-c6c([H])c([H])c(Oc7c([H])c([H])c(F)c([H])c7F)c([H])c6[H])c(C(=O)N([H])[H])c5N([H])[H])C4([H])[H])c(F)c3[H])c([H])c([H])c2C1([H])[H]

$$$$
19:0:0
     RDKit          3D

 96105  0  0  1  0  0  0  0  0999 V2000
  -27.5760  -21.3670   18.3030 C   0  0  0  0  0  0  0  0  0  0  0  0
  -27.4610  -19.9330   17.6960 C   0  0  0  0  0  2  0  0  0  0  0  0
  -26.2750  -19.0220   18.1860 C   0  0  0  0  0  2  0  0  0  0  0  0
  -26.8130  -19.8730   20.3470 C   0  0  0  0  0  2  0  0  0  0  0  0
  -27.5290  -21.5720   19.8370 C   0  0  0  0  0  3  0  0  0  0  0  0
  -26.5190  -18.4110   19.4990 N   0  0  0  0  0  0  0  0  0  0  0  0
  -27.7780  -22.3270   17.5510 O   0  0  0  0  0  0  0  0  0  0  0  0
  -29.5910  -15.6400   19.2190 C   0  0  0  0  0  1  0  0  0  0  0  0
  -28.1120  -16.4770   18.5310 C   0  0  0  0  0  2  0  0  0  0  0  0
  -26.3460  -15.6990   21.0570 C   0  0  0  0  0  2  0  0  0  0  0  0
  -29.5240  -14.7090   20.8680 C   0  0  0  0  0  3  0  0  0  0  0  0
  -26.5770  -16.7580   19.4770 C   0  0  0  0  0  3  0  0  0  0  0  0
  -27.8360  -14.6970   21.8210 C   0  0  1  0  0  0  0  0  0  0  0  0
  -27.7200  -14.1090   23.0380 F   0  0  0  0  0  0  0  0  0  0  0  0
  -32.4220  -13.4440   19.9140 C   0  0  0  0  0  0  0  0  0  0  0  0
  -32.0380  -11.1560   18.9440 C   0  0  0  0  0  2  0  0  0  0  0  0
  -30.9500  -10.9200   17.8480 C   0  0  0  0  0  2  0  0  0  0  0  0
  -29.4630  -10.9880   18.3650 C   0  0  0  0  0  2  0  0  0  0  0  0
  -29.3550  -12.2220   19.2420 C   0  0  0  0  0  3  0  0  0  0  0  0
  -30.3870  -12.0200   20.3800 C   0  0  0  0  0  2  0  0  0  0  0  0
  -31.6990  -12.2990   19.8140 N   0  0  0  0  0  0  0  0  0  0  0  0
  -33.4510  -13.5930   19.2220 O   0  0  0  0  0  0  0  0  0  0  0  0
  -30.8900  -14.6830   21.5690 C   0  0  0  0  0  0  0  0  0  0  0  0
  -32.0480  -14.3440   20.8890 N   0  0  0  0  0  0  0  0  0  0  0  0
  -30.9720  -15.0940   22.7250 O   0  0  0  0  0  0  0  0  0  0  0  0
  -32.8540  -14.8290   21.2540 H   0  0  0  0  0  0  0  0  0  0  0  0
  -27.6000  -14.2970   20.0330 C   0  0  0  0  0  3  0  0  0  0  0  0
  -26.2600  -13.5730   20.3250 C   0  0  0  0  0  0  0  0  0  0  0  0
  -26.2300  -12.0710   20.4030 C   0  0  0  0  0  0  0  0  0  0  0  0
  -28.0630  -12.8420   19.6720 N   0  0  0  0  0  0  0  0  0  0  0  0
  -27.3820  -11.7100   20.0320 N   0  0  0  0  0  2  0  0  0  0  0  0
  -25.2420  -10.8830   20.6990 C   0  0  0  0  0  0  0  0  0  0  0  0
  -25.4890   -9.8380   21.6560 C   0  0  0  0  0  3  0  0  0  0  0  0
  -24.5720   -8.7660   21.9150 C   0  0  0  0  0  3  0  0  0  0  0  0
  -23.3480   -8.6680   21.2100 C   0  0  0  0  0  0  0  0  0  0  0  0
  -23.1070   -9.6560   20.2330 C   0  0  0  0  0  3  0  0  0  0  0  0
  -24.0230  -10.7170   19.9830 C   0  0  0  0  0  3  0  0  0  0  0  0
  -22.4010   -7.6610   21.3590 O   0  0  0  0  0  0  0  0  0  0  0  0
  -22.2100   -6.9440   22.5270 C   0  0  0  0  0  0  0  0  0  0  0  0
  -21.8580   -7.5710   23.7450 C   0  0  0  0  0  3  0  0  0  0  0  0
  -21.6080   -6.8010   24.8990 C   0  0  0  0  0  3  0  0  0  0  0  0
  -21.6950   -5.3960   24.8490 C   0  0  0  0  0  0  0  0  0  0  0  0
  -22.0210   -4.7620   23.6380 C   0  0  0  0  0  3  0  0  0  0  0  0
  -22.2660   -5.5290   22.4820 C   0  0  0  0  0  0  0  0  0  0  0  0
  -22.5480   -4.8970   21.3180 F   0  0  0  0  0  0  0  0  0  0  0  0
  -21.4690   -4.6560   25.9610 F   0  0  0  0  0  0  0  0  0  0  0  0
  -24.8600  -14.1180   20.5460 C   0  0  0  0  0  0  0  0  0  0  0  0
  -24.1370  -13.7050   21.5960 N   0  0  0  0  0  0  0  0  0  0  0  0
  -24.3730  -14.9080   19.7520 O   0  0  0  0  0  0  0  0  0  0  0  0
  -24.5050  -13.0400   22.2620 H   0  0  0  0  0  0  0  0  0  0  0  0
  -23.1900  -14.0390   21.7130 H   0  0  0  0  0  0  0  0  0  0  0  0
  -29.0350  -16.3740   20.8230 N   0  0  0  0  0  0  0  0  0  0  0  0
  -28.5680  -17.2550   20.6040 H   0  0  0  0  0  0  0  0  0  0  0  0
  -29.9520  -16.3790   20.3990 H   0  0  0  0  0  0  0  0  0  0  0  0
  -27.3510  -23.4800   20.2720 C   0  0  0  0  0  2  0  0  0  0  0  0
  -28.1680  -25.0560   20.4850 O   0  0  0  0  0  0  0  0  0  0  0  0
  -25.0180  -31.6360   22.8830 C   0  0  0  0  0  0  0  0  0  0  0  0
  -27.5710  -26.4460   20.2810 C   0  0  0  0  0  0  0  0  0  0  0  0
  -23.9930  -30.1440   21.2430 C   0  0  0  0  0  3  0  0  0  0  0  0
  -25.5400  -28.5530   19.9370 C   0  0  0  0  0  0  0  0  0  0  0  0
  -26.5680  -30.3390   21.2990 C   0  0  0  0  0  2  0  0  0  0  0  0
  -26.6690  -28.8920   20.6910 C   0  0  0  0  0  0  0  0  0  0  0  0
  -27.7110  -27.8420   20.8500 C   0  0  0  0  0  3  0  0  0  0  0  0
  -26.5320  -26.3920   19.3640 C   0  0  0  0  0  3  0  0  0  0  0  0
  -25.5210  -27.3500   19.2370 C   0  0  0  0  0  3  0  0  0  0  0  0
  -24.3340  -29.4800   19.8880 C   0  0  0  0  0  2  0  0  0  0  0  0
  -25.2160  -30.7460   21.8570 N   0  0  0  0  0  0  0  0  0  0  0  0
  -23.8800  -31.9050   23.3080 O   0  0  0  0  0  0  0  0  0  0  0  0
  -23.2870  -29.1300   22.1860 C   0  0  0  0  0  0  0  0  0  0  0  0
  -21.9510  -29.0030   22.0840 N   0  0  0  0  0  0  0  0  0  0  0  0
  -23.9490  -28.4700   22.9930 O   0  0  0  0  0  0  0  0  0  0  0  0
  -21.4680  -29.5920   21.4210 H   0  0  0  0  0  0  0  0  0  0  0  0
  -18.5340  -27.9710   22.7490 C   0  0  0  0  0  0  0  0  0  0  0  0
  -21.1180  -28.0750   22.8580 C   0  0  0  0  0  3  0  0  0  0  0  0
  -21.0950  -26.6710   22.2100 C   0  0  0  0  0  2  0  0  0  0  0  0
  -19.9150  -26.4660   21.2550 C   0  0  0  0  0  2  0  0  0  0  0  0
  -18.5860  -26.6550   21.9930 C   0  0  0  0  0  2  0  0  0  0  0  0
  -19.7210  -28.6450   23.1430 C   0  0  0  0  0  0  0  0  0  0  0  0
  -19.6130  -29.8800   23.8190 C   0  0  0  0  0  3  0  0  0  0  0  0
  -18.3520  -30.4390   24.1010 C   0  0  0  0  0  3  0  0  0  0  0  0
  -17.1810  -29.7630   23.7170 C   0  0  0  0  0  3  0  0  0  0  0  0
  -17.2730  -28.5290   23.0480 C   0  0  0  0  0  3  0  0  0  0  0  0
  -26.2040  -32.3780   23.5660 C   0  0  0  0  0  3  0  0  0  0  0  0
  -25.7240  -33.7090   23.9900 N   0  0  0  0  0  0  0  0  0  0  0  0
  -26.0190  -34.8680   23.3850 C   0  0  0  0  0  0  0  0  0  0  0  0
  -26.7870  -34.9360   22.4230 O   0  0  0  0  0  0  0  0  0  0  0  0
  -25.0470  -33.7220   24.7380 H   0  0  0  0  0  0  0  0  0  0  0  0
  -24.1850  -36.5630   23.0380 C   0  0  0  0  0  1  0  0  0  0  0  0
  -25.3660  -36.1540   23.9350 C   0  0  0  0  0  3  0  0  0  0  0  0
  -27.3110  -37.1000   25.1020 C   0  0  0  0  0  1  0  0  0  0  0  0
  -26.3070  -37.2900   24.0580 N   0  0  0  0  0  0  0  0  0  0  0  0
  -25.8060  -38.1530   24.2530 H   0  0  0  0  0  0  0  0  0  0  0  0
  -26.7820  -31.5990   24.8110 C   0  0  1  0  0  0  0  0  0  0  0  0
  -25.7020  -31.1570   25.8270 C   0  0  0  0  0  1  0  0  0  0  0  0
  -27.5490  -30.3330   24.3700 C   0  0  0  0  0  1  0  0  0  0  0  0
  -27.8020  -32.4900   25.5570 C   0  0  0  0  0  1  0  0  0  0  0  0
  1  5  1  0
  2  3  1  0
  2  1  1  0
  3  6  1  0
  5 55  1  0
  5  4  1  0
  6  4  1  0
  7  1  2  0
  9  8  1  0
 10 13  1  0
 11 52  1  0
 11 23  1  0
 11 13  1  0
 12  9  1  0
 12  6  1  0
 12 10  1  0
 13 14  1  1
 15 24  1  0
 16 21  1  0
 17 18  1  0
 17 16  1  0
 19 18  1  0
 19 30  1  0
 19 20  1  0
 21 15  1  0
 21 20  1  0
 22 15  2  0
 23 25  2  0
 24 26  1  0
 24 23  1  0
 27 28  1  0
 27 13  1  0
 28 29  2  0
 28 47  1  0
 29 32  1  0
 30 31  1  0
 30 27  1  0
 31 29  1  0
 32 33  1  0
 33 34  2  0
 35 38  1  0
 35 34  1  0
 36 35  2  0
 37 36  1  0
 37 32  2  0
 38 39  1  0
 39 40  1  0
 40 41  2  0
 42 41  1  0
 42 46  1  0
 43 42  2  0
 44 39  2  0
 44 43  1  0
 45 44  1  0
 47 48  1  0
 48 51  1  0
 48 50  1  0
 49 47  2  0
 53 52  1  0
 54 52  1  0
 55 56  1  0
 57 68  2  0
 58 56  1  0
 58 63  1  0
 59 67  1  0
 59 69  1  0
 60 62  1  0
 61 67  1  0
 62 63  2  0
 62 61  1  0
 64 58  2  0
 65 64  1  0
 65 60  2  0
 66 60  1  0
 66 59  1  0
 67 57  1  0
 69 71  2  0
 70 69  1  0
 72 70  1  0
 73 82  2  0
 73 78  1  0
 74 70  1  0
 74 78  1  0
 75 74  1  0
 76 77  1  0
 76 75  1  0
 77 73  1  0
 78 79  2  0
 79 80  1  0
 81 80  2  0
 82 81  1  0
 83 57  1  0
 83 84  1  0
 83 93  1  0
 84 87  1  0
 85 89  1  0
 85 84  1  0
 86 85  2  0
 89 88  1  0
 89 91  1  0
 91 92  1  0
 91 90  1  0
 93 96  1  1
 93 94  1  0
 95 93  1  0
M  ISO  4  15 100  24 100  55 101  56 101
M  END
>  <TORSDO>  (20) 
F 18

>  <SCORE>  (20) 
-5.117

>  <name>  (20) 
19

>  <ligand_id>  (20) 
19

>  <original_smiles>  (20) 
[H]c1c([H])c([H])c2c(c1[H])C([H])([H])C([H])([H])C([H])([H])C2([H])N([H])C(=O)C1([H])N(C(=O)C([H])(N([H])C(=O)C([H])(N([H])C([H])([H])[H])C([H])([H])[H])C(C([H])([H])[H])(C([H])([H])[H])C([H])([H])[H])C([H])([H])c2c([H])c(OC([H])([H])C3([H])C(=O)C([H])([H])C([H])([H])N(c4c([H])c([H])c(C(=O)N([H])C(=O)N5C([H])([H])C([H])([H])C([H])([H])C([H])(n6nc(-c7c([H])c([H])c(Oc8c([H])c([H])c(F)c([H])c8F)c([H])c7[H])c(C(=O)N([H])[H])c6N([H])[H])C5([H])[H])c(F)c4[H])C3([H])[H])c([H])c([H])c2C1([H])[H]

>  <smiles>  (20) 
[H]c1c([H])c([H])c2c(c1[H])C([H])([H])C([H])([H])C([H])([H])C2([H])N([H])C(=O)C1([H])N(C(=O)C([H])(N([H])C(=O)C([H])(N([H])C([H])([H])[H])C([H])([H])[H])C(C([H])([H])[H])(C([H])([H])[H])C([H])([H])[H])C([H])([H])c2c([H])c(OC([H])([H])C3([H])C(=O)C([H])([H])C([H])([H])N(c4c([H])c([H])c(C(=O)N([H])C(=O)N5C([H])([H])C([H])([H])C([H])([H])C([H])(n6nc(-c7c([H])c([H])c(Oc8c([H])c([H])c(F)c([H])c8F)c([H])c7[H])c(C(=O)N([H])[H])c6N([H])[H])C5([H])[H])c(F)c4[H])C3([H])[H])c([H])c([H])c2C1([H])[H]

$$$$
20:0:0
     RDKit          3D

 94103  0  0  1  0  0  0  0  0999 V2000
  -29.9570  -21.0570   19.7390 C   0  0  0  0  0  0  0  0  0  0  0  0
  -30.5990  -24.3260   20.1650 C   0  0  0  0  0  2  0  0  0  0  0  0
  -31.1640  -22.9690   20.6040 C   0  0  0  0  0  2  0  0  0  0  0  0
  -28.8300  -22.8710   20.8860 C   0  0  0  0  0  2  0  0  0  0  0  0
  -29.2310  -24.3670   20.8280 C   0  0  0  0  0  3  0  0  0  0  0  0
  -30.0310  -22.0400   20.6670 N   0  0  0  0  0  0  0  0  0  0  0  0
  -29.8070  -21.3120   18.5380 O   0  0  0  0  0  0  0  0  0  0  0  0
  -29.0160  -18.7240   19.6300 C   0  0  0  0  0  3  0  0  0  0  0  0
  -29.0170  -17.3530   19.9590 C   0  0  0  0  0  3  0  0  0  0  0  0
  -30.9370  -17.7090   21.4080 C   0  0  0  0  0  3  0  0  0  0  0  0
  -29.9570  -19.6160   20.1960 C   0  0  0  0  0  0  0  0  0  0  0  0
  -29.9890  -16.8270   20.8350 C   0  0  0  0  0  0  0  0  0  0  0  0
  -30.9200  -19.0930   21.0970 C   0  0  0  0  0  0  0  0  0  0  0  0
  -31.8570  -19.9010   21.6490 F   0  0  0  0  0  0  0  0  0  0  0  0
  -30.6390  -14.4730   20.5470 C   0  0  0  0  0  0  0  0  0  0  0  0
  -30.3580  -12.3280   19.3580 C   0  0  0  0  0  2  0  0  0  0  0  0
  -29.4230  -12.5480   18.1490 C   0  0  0  0  0  2  0  0  0  0  0  0
  -27.9440  -12.4140   18.5610 C   0  0  0  0  0  2  0  0  0  0  0  0
  -27.6000  -13.2370   19.8320 C   0  0  0  0  0  3  0  0  0  0  0  0
  -28.6410  -12.9830   20.9460 C   0  0  0  0  0  2  0  0  0  0  0  0
  -29.9760  -13.2920   20.4020 N   0  0  0  0  0  0  0  0  0  0  0  0
  -31.7560  -14.6840   20.0650 O   0  0  0  0  0  0  0  0  0  0  0  0
  -29.9410  -15.4420   21.1700 N   0  0  0  0  0  0  0  0  0  0  0  0
  -29.0570  -15.1130   21.5260 H   0  0  0  0  0  0  0  0  0  0  0  0
  -25.1920  -13.8550   20.4990 C   0  0  0  0  0  0  0  0  0  0  0  0
  -24.1170  -13.0880   20.8580 C   0  0  0  0  0  0  0  0  0  0  0  0
  -24.5740  -11.7350   20.8430 C   0  0  0  0  0  0  0  0  0  0  0  0
  -26.2380  -12.9690   20.2910 N   0  0  0  0  0  0  0  0  0  0  0  0
  -25.8680  -11.6900   20.5510 N   0  0  0  0  0  0  0  0  0  0  0  0
  -23.8440  -10.4770   21.0330 C   0  0  0  0  0  0  0  0  0  0  0  0
  -24.2670   -9.5140   21.9760 C   0  0  0  0  0  3  0  0  0  0  0  0
  -23.5380   -8.3180   22.1530 C   0  0  0  0  0  3  0  0  0  0  0  0
  -22.3730   -8.0760   21.3880 C   0  0  0  0  0  0  0  0  0  0  0  0
  -21.9700   -9.0260   20.4340 C   0  0  0  0  0  3  0  0  0  0  0  0
  -22.6990  -10.2140   20.2550 C   0  0  0  0  0  3  0  0  0  0  0  0
  -21.6190   -6.9320   21.4730 O   0  0  0  0  0  0  0  0  0  0  0  0
  -21.5580   -6.1950   22.6280 C   0  0  0  0  0  0  0  0  0  0  0  0
  -21.1150   -6.7530   23.8480 C   0  0  0  0  0  3  0  0  0  0  0  0
  -21.0030   -5.9420   24.9940 C   0  0  0  0  0  3  0  0  0  0  0  0
  -21.3210   -4.5720   24.9220 C   0  0  0  0  0  0  0  0  0  0  0  0
  -21.7540   -4.0130   23.7080 C   0  0  0  0  0  3  0  0  0  0  0  0
  -21.8690   -4.8210   22.5640 C   0  0  0  0  0  0  0  0  0  0  0  0
  -22.2680   -4.2730   21.3900 F   0  0  0  0  0  0  0  0  0  0  0  0
  -21.2050   -3.7910   26.0210 F   0  0  0  0  0  0  0  0  0  0  0  0
  -22.7160  -13.5690   21.1090 C   0  0  0  0  0  0  0  0  0  0  0  0
  -21.9770  -12.8780   21.9700 N   0  0  0  0  0  0  0  0  0  0  0  0
  -22.2850  -14.5910   20.5750 O   0  0  0  0  0  0  0  0  0  0  0  0
  -22.3390  -12.0520   22.4220 H   0  0  0  0  0  0  0  0  0  0  0  0
  -21.0350  -13.1790   22.1800 H   0  0  0  0  0  0  0  0  0  0  0  0
  -25.3640  -15.2230   20.3130 N   0  0  0  0  0  0  0  0  0  0  0  0
  -24.6000  -15.8840   20.4020 H   0  0  0  0  0  0  0  0  0  0  0  0
  -26.2230  -15.6520   19.9930 H   0  0  0  0  0  0  0  0  0  0  0  0
  -28.1710  -25.2440   20.1180 C   0  0  0  0  0  2  0  0  0  0  0  0
  -28.3600  -26.6690   20.2300 O   0  0  0  0  0  0  0  0  0  0  0  0
  -24.5890  -31.9000   23.2420 C   0  0  0  0  0  0  0  0  0  0  0  0
  -27.2060  -27.4350   20.1660 C   0  0  0  0  0  0  0  0  0  0  0  0
  -23.3770  -30.5060   21.6000 C   0  0  0  0  0  3  0  0  0  0  0  0
  -24.8230  -28.9710   20.1680 C   0  0  0  0  0  0  0  0  0  0  0  0
  -25.9070  -30.8490   21.4070 C   0  0  0  0  0  2  0  0  0  0  0  0
  -25.9850  -29.4810   20.7600 C   0  0  0  0  0  0  0  0  0  0  0  0
  -27.1800  -28.7230   20.7530 C   0  0  0  0  0  3  0  0  0  0  0  0
  -26.0270  -26.9580   19.5430 C   0  0  0  0  0  3  0  0  0  0  0  0
  -24.8400  -27.7120   19.5520 C   0  0  0  0  0  3  0  0  0  0  0  0
  -23.5830  -29.8330   20.2180 C   0  0  0  0  0  2  0  0  0  0  0  0
  -24.6420  -31.1000   22.1400 N   0  0  0  0  0  0  0  0  0  0  0  0
  -23.5080  -32.1770   23.7820 O   0  0  0  0  0  0  0  0  0  0  0  0
  -22.7230  -29.4840   22.5580 C   0  0  0  0  0  0  0  0  0  0  0  0
  -21.3960  -29.3120   22.4360 N   0  0  0  0  0  0  0  0  0  0  0  0
  -23.4040  -28.8510   23.3690 O   0  0  0  0  0  0  0  0  0  0  0  0
  -20.9070  -29.8740   21.7540 H   0  0  0  0  0  0  0  0  0  0  0  0
  -18.0130  -28.1460   22.9500 C   0  0  0  0  0  0  0  0  0  0  0  0
  -20.5750  -28.3790   23.2070 C   0  0  0  0  0  3  0  0  0  0  0  0
  -20.6590  -26.9490   22.6250 C   0  0  0  0  0  2  0  0  0  0  0  0
  -19.5490  -26.6410   21.6160 C   0  0  0  0  0  2  0  0  0  0  0  0
  -18.1720  -26.7980   22.2690 C   0  0  0  0  0  2  0  0  0  0  0  0
  -19.1420  -28.8960   23.3770 C   0  0  0  0  0  0  0  0  0  0  0  0
  -18.9390  -30.1590   23.9730 C   0  0  0  0  0  3  0  0  0  0  0  0
  -17.6410  -30.6730   24.1480 C   0  0  0  0  0  3  0  0  0  0  0  0
  -16.5270  -29.9220   23.7370 C   0  0  0  0  0  3  0  0  0  0  0  0
  -16.7140  -28.6600   23.1440 C   0  0  0  0  0  3  0  0  0  0  0  0
  -25.8770  -32.5270   23.8590 C   0  0  0  0  0  3  0  0  0  0  0  0
  -25.5720  -33.9250   24.1930 N   0  0  0  0  0  0  0  0  0  0  0  0
  -25.8990  -34.9770   23.4320 C   0  0  0  0  0  0  0  0  0  0  0  0
  -26.5610  -34.8730   22.3960 O   0  0  0  0  0  0  0  0  0  0  0  0
  -24.9830  -34.0780   24.9980 H   0  0  0  0  0  0  0  0  0  0  0  0
  -24.1670  -36.7680   23.0910 C   0  0  0  0  0  1  0  0  0  0  0  0
  -25.4150  -36.3640   23.8920 C   0  0  0  0  0  3  0  0  0  0  0  0
  -27.5560  -37.2500   24.7060 C   0  0  0  0  0  1  0  0  0  0  0  0
  -26.4450  -37.4190   23.7720 N   0  0  0  0  0  0  0  0  0  0  0  0
  -26.0400  -38.3380   23.9250 H   0  0  0  0  0  0  0  0  0  0  0  0
  -26.3980  -31.7500   25.1310 C   0  0  1  0  0  0  0  0  0  0  0  0
  -25.3100  -31.5110   26.2040 C   0  0  0  0  0  1  0  0  0  0  0  0
  -26.9780  -30.3740   24.7330 C   0  0  0  0  0  1  0  0  0  0  0  0
  -27.5510  -32.5420   25.7920 C   0  0  0  0  0  1  0  0  0  0  0  0
  1 11  1  0
  1  6  1  0
  2  3  1  0
  2  5  1  0
  3  6  1  0
  5 53  1  0
  5  4  1  0
  6  4  1  0
  7  1  2  0
  8  9  2  0
  8 11  1  0
  9 12  1  0
 11 13  2  0
 12 23  1  0
 12 10  2  0
 13 10  1  0
 13 14  1  0
 15 23  1  0
 16 21  1  0
 17 18  1  0
 17 16  1  0
 19 18  1  0
 19 28  1  0
 19 20  1  0
 21 15  1  0
 21 20  1  0
 22 15  2  0
 23 24  1  0
 25 26  2  0
 26 45  1  0
 27 26  1  0
 27 30  1  0
 28 25  1  0
 28 29  1  0
 29 27  2  0
 30 31  1  0
 31 32  2  0
 33 36  1  0
 33 32  1  0
 34 33  2  0
 35 34  1  0
 35 30  2  0
 36 37  1  0
 37 38  1  0
 38 39  2  0
 40 39  1  0
 40 44  1  0
 41 40  2  0
 42 37  2  0
 42 41  1  0
 43 42  1  0
 45 46  1  0
 46 49  1  0
 46 48  1  0
 47 45  2  0
 50 51  1  0
 50 25  1  0
 52 50  1  0
 53 54  1  0
 55 66  2  0
 56 54  1  0
 56 61  1  0
 57 65  1  0
 57 67  1  0
 58 64  1  0
 58 60  1  0
 59 65  1  0
 60 59  1  0
 61 60  2  0
 62 63  1  0
 62 56  2  0
 63 58  2  0
 64 57  1  0
 65 55  1  0
 67 69  2  0
 68 67  1  0
 70 68  1  0
 71 80  2  0
 71 76  1  0
 72 68  1  0
 72 76  1  0
 73 72  1  0
 74 75  1  0
 74 73  1  0
 75 71  1  0
 76 77  2  0
 77 78  1  0
 79 78  2  0
 80 79  1  0
 81 55  1  0
 81 82  1  0
 81 91  1  0
 82 85  1  0
 83 87  1  0
 83 82  1  0
 84 83  2  0
 87 86  1  0
 89 87  1  0
 89 90  1  0
 89 88  1  0
 91 94  1  1
 91 92  1  0
 93 91  1  0
M  ISO  4  15 100  23 100  53 101  54 101
M  END
>  <TORSDO>  (21) 
F 18

>  <SCORE>  (21) 
-15.099

>  <name>  (21) 
20

>  <ligand_id>  (21) 
20

>  <original_smiles>  (21) 
[H]c1c([H])c([H])c2c(c1[H])C([H])([H])C([H])([H])C([H])([H])C2([H])N([H])C(=O)C1([H])N(C(=O)C([H])(N([H])C(=O)C([H])(N([H])C([H])([H])[H])C([H])([H])[H])C(C([H])([H])[H])(C([H])([H])[H])C([H])([H])[H])C([H])([H])c2c([H])c(OC([H])([H])C3([H])C([H])([H])N(C(=O)c4c([H])c([H])c(N([H])C(=O)N5C([H])([H])C([H])([H])C([H])([H])C([H])(n6nc(-c7c([H])c([H])c(Oc8c([H])c([H])c(F)c([H])c8F)c([H])c7[H])c(C(=O)N([H])[H])c6N([H])[H])C5([H])[H])c([H])c4F)C([H])([H])C3([H])[H])c([H])c([H])c2C1([H])[H]

>  <smiles>  (21) 
[H]c1c([H])c([H])c2c(c1[H])C([H])([H])C([H])([H])C([H])([H])C2([H])N([H])C(=O)C1([H])N(C(=O)C([H])(N([H])C(=O)C([H])(N([H])C([H])([H])[H])C([H])([H])[H])C(C([H])([H])[H])(C([H])([H])[H])C([H])([H])[H])C([H])([H])c2c([H])c(OC([H])([H])C3([H])C([H])([H])N(C(=O)c4c([H])c([H])c(N([H])C(=O)N5C([H])([H])C([H])([H])C([H])([H])C([H])(n6nc(-c7c([H])c([H])c(Oc8c([H])c([H])c(F)c([H])c8F)c([H])c7[H])c(C(=O)N([H])[H])c6N([H])[H])C5([H])[H])c([H])c4F)C([H])([H])C3([H])[H])c([H])c([H])c2C1([H])[H]

$$$$
21:0:0
     RDKit          3D

 92100  0  0  1  0  0  0  0  0999 V2000
  -30.0800  -21.7020   20.4120 C   0  0  0  0  0  0  0  0  0  0  0  0
  -31.3490  -22.0490   21.1950 C   0  0  0  0  0  1  0  0  0  0  0  0
  -29.2140  -22.6150   20.0040 N   0  0  0  0  0  0  0  0  0  0  0  0
  -31.1180  -19.3830   19.8530 C   0  0  0  0  0  3  0  0  0  0  0  0
  -31.1470  -17.9510   19.9040 C   0  0  0  0  0  3  0  0  0  0  0  0
  -28.8700  -19.3970   20.6710 C   0  0  0  0  0  3  0  0  0  0  0  0
  -29.9920  -20.1630   20.2600 C   0  0  0  0  0  0  0  0  0  0  0  0
  -30.0340  -17.1990   20.3650 C   0  0  0  0  0  0  0  0  0  0  0  0
  -28.8910  -17.9670   20.7240 C   0  0  0  0  0  0  0  0  0  0  0  0
  -27.7870  -17.3130   21.1550 F   0  0  0  0  0  0  0  0  0  0  0  0
  -30.6920  -14.6980   19.9410 C   0  0  0  0  0  0  0  0  0  0  0  0
  -30.3920  -12.4920   18.8210 C   0  0  0  0  0  2  0  0  0  0  0  0
  -29.3680  -12.6700   17.6770 C   0  0  0  0  0  2  0  0  0  0  0  0
  -27.9250  -12.5200   18.1980 C   0  0  0  0  0  2  0  0  0  0  0  0
  -27.6650  -13.3350   19.4920 C   0  0  0  0  0  3  0  0  0  0  0  0
  -28.7950  -13.1210   20.5240 C   0  0  0  0  0  2  0  0  0  0  0  0
  -30.0650  -13.4770   19.8740 N   0  0  0  0  0  0  0  0  0  0  0  0
  -31.8090  -14.8620   19.4410 O   0  0  0  0  0  0  0  0  0  0  0  0
  -29.9560  -15.7320   20.4660 N   0  0  0  0  0  0  0  0  0  0  0  0
  -29.1300  -15.4190   20.9530 H   0  0  0  0  0  0  0  0  0  0  0  0
  -25.3380  -13.9470   20.3890 C   0  0  0  0  0  0  0  0  0  0  0  0
  -24.2850  -13.1790   20.8070 C   0  0  0  0  0  0  0  0  0  0  0  0
  -24.7200  -11.8220   20.7010 C   0  0  0  0  0  0  0  0  0  0  0  0
  -26.3480  -13.0580   20.0560 N   0  0  0  0  0  0  0  0  0  0  0  0
  -25.9850  -11.7740   20.3030 N   0  0  0  0  0  0  0  0  0  0  0  0
  -23.9840  -10.5670   20.9010 C   0  0  0  0  0  0  0  0  0  0  0  0
  -24.4160   -9.5980   21.8340 C   0  0  0  0  0  3  0  0  0  0  0  0
  -23.6820   -8.4070   22.0220 C   0  0  0  0  0  3  0  0  0  0  0  0
  -22.5020   -8.1750   21.2770 C   0  0  0  0  0  0  0  0  0  0  0  0
  -22.0880   -9.1320   20.3340 C   0  0  0  0  0  3  0  0  0  0  0  0
  -22.8220  -10.3150   20.1440 C   0  0  0  0  0  3  0  0  0  0  0  0
  -21.7400   -7.0350   21.3740 O   0  0  0  0  0  0  0  0  0  0  0  0
  -21.6310   -6.3400   22.5510 C   0  0  0  0  0  0  0  0  0  0  0  0
  -21.1340   -6.9420   23.7270 C   0  0  0  0  0  3  0  0  0  0  0  0
  -20.9710   -6.1730   24.8970 C   0  0  0  0  0  3  0  0  0  0  0  0
  -21.2970   -4.8030   24.8910 C   0  0  0  0  0  0  0  0  0  0  0  0
  -21.7860   -4.2010   23.7190 C   0  0  0  0  0  3  0  0  0  0  0  0
  -21.9510   -4.9670   22.5510 C   0  0  0  0  0  0  0  0  0  0  0  0
  -22.4030   -4.3770   21.4180 F   0  0  0  0  0  0  0  0  0  0  0  0
  -21.1330   -4.0630   26.0120 F   0  0  0  0  0  0  0  0  0  0  0  0
  -22.9200  -13.6700   21.1930 C   0  0  0  0  0  0  0  0  0  0  0  0
  -22.2480  -12.9710   22.1020 N   0  0  0  0  0  0  0  0  0  0  0  0
  -22.4580  -14.7080   20.7230 O   0  0  0  0  0  0  0  0  0  0  0  0
  -22.6350  -12.1320   22.5070 H   0  0  0  0  0  0  0  0  0  0  0  0
  -21.3350  -13.2850   22.3990 H   0  0  0  0  0  0  0  0  0  0  0  0
  -25.5160  -15.3200   20.2470 N   0  0  0  0  0  0  0  0  0  0  0  0
  -24.7780  -15.9860   20.4450 H   0  0  0  0  0  0  0  0  0  0  0  0
  -26.3620  -15.7580   19.9080 H   0  0  0  0  0  0  0  0  0  0  0  0
  -29.3820  -24.0350   20.1990 C   0  0  0  0  0  0  0  0  0  0  0  0
  -30.3440  -24.6040   20.7180 O   0  0  0  0  0  0  0  0  0  0  0  0
  -28.2220  -24.9840   19.6940 C   0  0  0  0  0  2  0  0  0  0  0  0
  -28.3820  -26.4390   19.9910 O   0  0  0  0  0  0  0  0  0  0  0  0
  -24.4640  -31.6600   23.1040 C   0  0  0  0  0  0  0  0  0  0  0  0
  -27.2410  -27.2610   19.9460 C   0  0  0  0  0  0  0  0  0  0  0  0
  -23.3180  -30.2690   21.4170 C   0  0  0  0  0  3  0  0  0  0  0  0
  -24.8270  -28.8070   19.9600 C   0  0  0  0  0  0  0  0  0  0  0  0
  -25.8490  -30.6670   21.2680 C   0  0  0  0  0  2  0  0  0  0  0  0
  -25.9760  -29.3110   20.5820 C   0  0  0  0  0  0  0  0  0  0  0  0
  -27.1850  -28.5510   20.5660 C   0  0  0  0  0  3  0  0  0  0  0  0
  -26.0660  -26.8160   19.2960 C   0  0  0  0  0  3  0  0  0  0  0  0
  -24.8740  -27.5650   19.3080 C   0  0  0  0  0  3  0  0  0  0  0  0
  -23.5630  -29.6410   20.0200 C   0  0  0  0  0  2  0  0  0  0  0  0
  -24.5610  -30.8820   21.9870 N   0  0  0  0  0  0  0  0  0  0  0  0
  -23.3680  -31.8890   23.6370 O   0  0  0  0  0  0  0  0  0  0  0  0
  -22.6800  -29.2060   22.3440 C   0  0  0  0  0  0  0  0  0  0  0  0
  -21.3600  -28.9930   22.2040 N   0  0  0  0  0  0  0  0  0  0  0  0
  -23.3720  -28.5770   23.1480 O   0  0  0  0  0  0  0  0  0  0  0  0
  -20.8580  -29.5550   21.5310 H   0  0  0  0  0  0  0  0  0  0  0  0
  -18.0110  -27.7120   22.6780 C   0  0  0  0  0  0  0  0  0  0  0  0
  -20.5650  -28.0120   22.9460 C   0  0  0  0  0  3  0  0  0  0  0  0
  -20.6920  -26.6040   22.3170 C   0  0  0  0  0  2  0  0  0  0  0  0
  -19.5910  -26.2960   21.2970 C   0  0  0  0  0  2  0  0  0  0  0  0
  -18.2110  -26.3920   21.9520 C   0  0  0  0  0  2  0  0  0  0  0  0
  -19.1170  -28.4800   23.1310 C   0  0  0  0  0  0  0  0  0  0  0  0
  -18.8760  -29.7150   23.7700 C   0  0  0  0  0  3  0  0  0  0  0  0
  -17.5630  -30.1820   23.9620 C   0  0  0  0  0  3  0  0  0  0  0  0
  -16.4710  -29.4120   23.5270 C   0  0  0  0  0  3  0  0  0  0  0  0
  -16.6970  -28.1790   22.8900 C   0  0  0  0  0  3  0  0  0  0  0  0
  -25.7220  -32.3150   23.7520 C   0  0  0  0  0  3  0  0  0  0  0  0
  -26.2340  -31.5430   25.0290 C   0  0  1  0  0  0  0  0  0  0  0  0
  -25.1290  -31.2700   26.0760 C   0  0  0  0  0  1  0  0  0  0  0  0
  -26.8590  -30.1840   24.6380 C   0  0  0  0  0  1  0  0  0  0  0  0
  -27.3540  -32.3590   25.7190 C   0  0  0  0  0  1  0  0  0  0  0  0
  -25.3740  -33.7030   24.0920 N   0  0  0  0  0  0  0  0  0  0  0  0
  -25.6720  -34.7690   23.3390 C   0  0  0  0  0  0  0  0  0  0  0  0
  -26.3380  -34.6910   22.3030 O   0  0  0  0  0  0  0  0  0  0  0  0
  -24.7810  -33.8340   24.8970 H   0  0  0  0  0  0  0  0  0  0  0  0
  -23.8800  -36.5070   23.0220 C   0  0  0  0  0  1  0  0  0  0  0  0
  -25.1500  -36.1400   23.8080 C   0  0  0  0  0  3  0  0  0  0  0  0
  -27.2660  -37.1000   24.6030 C   0  0  0  0  0  1  0  0  0  0  0  0
  -26.1440  -37.2280   23.6760 N   0  0  0  0  0  0  0  0  0  0  0  0
  -25.7090  -38.1340   23.8280 H   0  0  0  0  0  0  0  0  0  0  0  0
  1  2  1  0
  3 49  1  0
  3  1  2  0
  4  5  2  0
  4  7  1  0
  5  8  1  0
  6  9  1  0
  7  1  1  0
  7  6  2  0
  8 19  1  0
  8  9  2  0
  9 10  1  0
 11 19  1  0
 12 17  1  0
 13 14  1  0
 13 12  1  0
 15 14  1  0
 15 24  1  0
 15 16  1  0
 17 11  1  0
 17 16  1  0
 18 11  2  0
 19 20  1  0
 21 22  2  0
 22 41  1  0
 23 22  1  0
 23 26  1  0
 24 25  1  0
 24 21  1  0
 25 23  2  0
 26 27  1  0
 27 28  2  0
 29 32  1  0
 29 28  1  0
 30 29  2  0
 31 30  1  0
 31 26  2  0
 32 33  1  0
 33 38  2  0
 33 34  1  0
 34 35  2  0
 36 35  1  0
 36 40  1  0
 37 36  2  0
 38 37  1  0
 39 38  1  0
 41 42  1  0
 42 45  1  0
 42 44  1  0
 43 41  2  0
 46 21  1  0
 46 47  1  0
 48 46  1  0
 49 50  2  0
 51 52  1  0
 51 49  1  0
 53 64  2  0
 54 52  1  0
 54 59  1  0
 55 63  1  0
 55 65  1  0
 56 62  1  0
 56 58  1  0
 57 63  1  0
 58 57  1  0
 59 58  2  0
 60 61  1  0
 60 54  2  0
 61 56  2  0
 62 55  1  0
 63 53  1  0
 65 67  2  0
 66 65  1  0
 68 66  1  0
 69 78  2  0
 69 74  1  0
 70 66  1  0
 70 74  1  0
 71 70  1  0
 72 73  1  0
 72 71  1  0
 73 69  1  0
 74 75  2  0
 75 76  1  0
 77 76  2  0
 78 77  1  0
 79 53  1  0
 79 84  1  0
 79 80  1  0
 80 83  1  1
 80 81  1  0
 82 80  1  0
 84 87  1  0
 85 89  1  0
 85 84  1  0
 86 85  2  0
 89 88  1  0
 91 89  1  0
 91 92  1  0
 91 90  1  0
M  ISO  4  11 100  19 100  51 101  52 101
M  END
>  <TORSDO>  (22) 
F 19

>  <SCORE>  (22) 
-13.549

>  <name>  (22) 
21

>  <ligand_id>  (22) 
21

>  <original_smiles>  (22) 
[H]c1c([H])c([H])c2c(c1[H])C([H])([H])C([H])([H])C([H])([H])C2([H])N([H])C(=O)C1([H])N(C(=O)C([H])(N([H])C(=O)C([H])(N([H])C([H])([H])[H])C([H])([H])[H])C(C([H])([H])[H])(C([H])([H])[H])C([H])([H])[H])C([H])([H])c2c([H])c(OC([H])([H])C(=O)N=C(c3c([H])c([H])c(N([H])C(=O)N4C([H])([H])C([H])([H])C([H])([H])C([H])(n5nc(-c6c([H])c([H])c(Oc7c([H])c([H])c(F)c([H])c7F)c([H])c6[H])c(C(=O)N([H])[H])c5N([H])[H])C4([H])[H])c(F)c3[H])C([H])([H])[H])c([H])c([H])c2C1([H])[H]

>  <smiles>  (22) 
[H]c1c([H])c([H])c2c(c1[H])C([H])([H])C([H])([H])C([H])([H])C2([H])N([H])C(=O)C1([H])N(C(=O)C([H])(N([H])C(=O)C([H])(N([H])C([H])([H])[H])C([H])([H])[H])C(C([H])([H])[H])(C([H])([H])[H])C([H])([H])[H])C([H])([H])c2c([H])c(OC([H])([H])C(=O)N=C(c3c([H])c([H])c(N([H])C(=O)N4C([H])([H])C([H])([H])C([H])([H])C([H])(n5nc(-c6c([H])c([H])c(Oc7c([H])c([H])c(F)c([H])c7F)c([H])c6[H])c(C(=O)N([H])[H])c5N([H])[H])C4([H])[H])c(F)c3[H])C([H])([H])[H])c([H])c([H])c2C1([H])[H]

$$$$
22:0:0
     RDKit          3D

 96104  0  0  1  0  0  0  0  0999 V2000
  -28.8080  -18.1600   20.2460 C   0  0  0  0  0  3  0  0  0  0  0  0
  -27.9690  -19.2870   20.3460 C   0  0  0  0  0  3  0  0  0  0  0  0
  -30.4370  -19.2460   21.7030 C   0  0  0  0  0  3  0  0  0  0  0  0
  -30.0680  -18.1610   20.8870 C   0  0  0  0  0  0  0  0  0  0  0  0
  -28.3900  -20.4230   21.0810 C   0  0  0  0  0  0  0  0  0  0  0  0
  -29.5930  -20.3690   21.8170 C   0  0  0  0  0  0  0  0  0  0  0  0
  -27.1880  -22.3310   20.0350 C   0  0  0  0  0  0  0  0  0  0  0  0
  -27.7370  -21.6800   21.0670 N   0  0  0  0  0  0  0  0  0  0  0  0
  -26.7030  -21.7960   19.0420 O   0  0  0  0  0  0  0  0  0  0  0  0
  -28.0610  -22.2830   21.8140 H   0  0  0  0  0  0  0  0  0  0  0  0
  -27.1470  -23.8520   20.1770 C   0  0  0  0  0  2  0  0  0  0  0  0
  -28.3610  -24.5170   19.4780 C   0  0  0  0  0  2  0  0  0  0  0  0
  -28.8670  -25.7860   20.1910 C   0  0  0  0  0  2  0  0  0  0  0  0
  -28.6990  -26.9610   19.4030 O   0  0  0  0  0  0  0  0  0  0  0  0
  -24.7870  -31.5920   23.1340 C   0  0  0  0  0  0  0  0  0  0  0  0
  -27.4990  -27.6060   19.5590 C   0  0  0  0  0  0  0  0  0  0  0  0
  -23.5760  -30.3080   21.3910 C   0  0  0  0  0  3  0  0  0  0  0  0
  -25.0490  -28.9750   19.7910 C   0  0  0  0  0  0  0  0  0  0  0  0
  -26.0790  -30.7930   21.1680 C   0  0  0  0  0  2  0  0  0  0  0  0
  -26.1980  -29.4940   20.4010 C   0  0  0  0  0  0  0  0  0  0  0  0
  -27.4290  -28.8090   20.2920 C   0  0  0  0  0  3  0  0  0  0  0  0
  -26.3320  -27.0930   18.9490 C   0  0  0  0  0  3  0  0  0  0  0  0
  -25.1050  -27.7670   19.0730 C   0  0  0  0  0  3  0  0  0  0  0  0
  -23.7740  -29.7700   19.9430 C   0  0  0  0  0  2  0  0  0  0  0  0
  -24.8300  -30.9060   21.9580 N   0  0  0  0  0  0  0  0  0  0  0  0
  -23.7160  -31.7640   23.7330 O   0  0  0  0  0  0  0  0  0  0  0  0
  -22.9980  -29.1750   22.2690 C   0  0  0  0  0  0  0  0  0  0  0  0
  -21.6830  -28.9420   22.1560 N   0  0  0  0  0  0  0  0  0  0  0  0
  -23.7300  -28.5110   23.0090 O   0  0  0  0  0  0  0  0  0  0  0  0
  -21.1510  -29.5350   21.5360 H   0  0  0  0  0  0  0  0  0  0  0  0
  -18.3940  -27.5000   22.5580 C   0  0  0  0  0  0  0  0  0  0  0  0
  -20.9300  -27.9020   22.8550 C   0  0  0  0  0  3  0  0  0  0  0  0
  -21.1210  -26.5240   22.1770 C   0  0  0  0  0  2  0  0  0  0  0  0
  -20.0390  -26.2100   21.1380 C   0  0  0  0  0  2  0  0  0  0  0  0
  -18.6540  -26.2160   21.7890 C   0  0  0  0  0  2  0  0  0  0  0  0
  -19.4630  -28.2990   23.0460 C   0  0  0  0  0  0  0  0  0  0  0  0
  -19.1630  -29.4980   23.7260 C   0  0  0  0  0  3  0  0  0  0  0  0
  -17.8320  -29.9030   23.9250 C   0  0  0  0  0  3  0  0  0  0  0  0
  -16.7760  -29.1010   23.4560 C   0  0  0  0  0  3  0  0  0  0  0  0
  -17.0590  -27.9020   22.7740 C   0  0  0  0  0  3  0  0  0  0  0  0
  -26.0750  -32.2040   23.7710 C   0  0  0  0  0  3  0  0  0  0  0  0
  -25.7380  -33.5620   24.2240 N   0  0  0  0  0  0  0  0  0  0  0  0
  -26.0320  -34.6820   23.5530 C   0  0  0  0  0  0  0  0  0  0  0  0
  -26.6850  -34.6820   22.5050 O   0  0  0  0  0  0  0  0  0  0  0  0
  -25.1520  -33.6340   25.0430 H   0  0  0  0  0  0  0  0  0  0  0  0
  -24.2430  -36.4400   23.3820 C   0  0  0  0  0  1  0  0  0  0  0  0
  -25.5160  -36.0130   24.1280 C   0  0  0  0  0  3  0  0  0  0  0  0
  -27.6470  -36.8950   24.9720 C   0  0  0  0  0  1  0  0  0  0  0  0
  -26.5140  -37.1030   24.0750 N   0  0  0  0  0  0  0  0  0  0  0  0
  -26.0840  -37.9930   24.3060 H   0  0  0  0  0  0  0  0  0  0  0  0
  -26.6560  -31.3440   24.9630 C   0  0  1  0  0  0  0  0  0  0  0  0
  -25.6060  -30.9960   26.0420 C   0  0  0  0  0  1  0  0  0  0  0  0
  -27.2540  -30.0160   24.4420 C   0  0  0  0  0  1  0  0  0  0  0  0
  -27.8110  -32.1110   25.6480 C   0  0  0  0  0  1  0  0  0  0  0  0
  -29.9790  -21.4390   22.6260 N   0  0  0  0  0  0  0  0  0  0  0  0
  -30.8130  -21.2890   23.1830 H   0  0  0  0  0  0  0  0  0  0  0  0
  -29.2490  -21.8290   23.2120 H   0  0  0  0  0  0  0  0  0  0  0  0
  -31.0800  -17.0580   20.6300 C   0  0  0  0  0  2  0  0  0  0  0  0
  -31.1870  -14.6680   20.0640 C   0  0  0  0  0  0  0  0  0  0  0  0
  -30.8540  -12.4470   19.0640 C   0  0  0  0  0  2  0  0  0  0  0  0
  -29.9080  -12.5780   17.8540 C   0  0  0  0  0  2  0  0  0  0  0  0
  -28.4350  -12.4890   18.2990 C   0  0  0  0  0  2  0  0  0  0  0  0
  -28.1160  -13.4250   19.4950 C   0  0  0  0  0  3  0  0  0  0  0  0
  -29.1700  -13.2690   20.6140 C   0  0  0  0  0  2  0  0  0  0  0  0
  -30.4950  -13.5040   20.0200 N   0  0  0  0  0  0  0  0  0  0  0  0
  -32.3070  -14.8080   19.5630 O   0  0  0  0  0  0  0  0  0  0  0  0
  -30.5230  -15.7130   20.5760 N   0  0  0  0  0  0  0  0  0  0  0  0
  -29.5880  -15.5660   20.9270 H   0  0  0  0  0  0  0  0  0  0  0  0
  -25.7630  -14.1280   20.2720 C   0  0  0  0  0  0  0  0  0  0  0  0
  -24.6700  -13.3960   20.6450 C   0  0  0  0  0  0  0  0  0  0  0  0
  -25.0700  -12.0250   20.5810 C   0  0  0  0  0  0  0  0  0  0  0  0
  -26.7610  -13.2030   19.9990 N   0  0  0  0  0  0  0  0  0  0  0  0
  -26.3490  -11.9330   20.2440 N   0  0  0  0  0  0  0  0  0  0  0  0
  -24.2950  -10.7930   20.7620 C   0  0  0  0  0  0  0  0  0  0  0  0
  -24.6990   -9.7920   21.6730 C   0  0  0  0  0  3  0  0  0  0  0  0
  -23.9250   -8.6230   21.8420 C   0  0  0  0  0  3  0  0  0  0  0  0
  -22.7320   -8.4470   21.1010 C   0  0  0  0  0  0  0  0  0  0  0  0
  -22.3500   -9.4330   20.1740 C   0  0  0  0  0  3  0  0  0  0  0  0
  -23.1250  -10.5940   20.0030 C   0  0  0  0  0  3  0  0  0  0  0  0
  -21.9340   -7.3330   21.1780 O   0  0  0  0  0  0  0  0  0  0  0  0
  -21.8620   -6.5810   22.3220 C   0  0  0  0  0  0  0  0  0  0  0  0
  -21.4750   -7.1390   23.5590 C   0  0  0  0  0  3  0  0  0  0  0  0
  -21.3450   -6.3150   24.6930 C   0  0  0  0  0  3  0  0  0  0  0  0
  -21.5930   -4.9320   24.5940 C   0  0  0  0  0  0  0  0  0  0  0  0
  -21.9730   -4.3730   23.3610 C   0  0  0  0  0  3  0  0  0  0  0  0
  -22.1030   -5.1950   22.2270 C   0  0  0  0  0  0  0  0  0  0  0  0
  -22.4490   -4.6460   21.0380 F   0  0  0  0  0  0  0  0  0  0  0  0
  -21.4610   -4.1350   25.6830 F   0  0  0  0  0  0  0  0  0  0  0  0
  -23.3030  -13.9280   20.9600 C   0  0  0  0  0  0  0  0  0  0  0  0
  -22.5690  -13.2530   21.8370 N   0  0  0  0  0  0  0  0  0  0  0  0
  -22.8910  -14.9730   20.4580 O   0  0  0  0  0  0  0  0  0  0  0  0
  -22.9150  -12.4050   22.2650 H   0  0  0  0  0  0  0  0  0  0  0  0
  -21.6500  -13.5900   22.0920 H   0  0  0  0  0  0  0  0  0  0  0  0
  -25.9850  -15.4930   20.1190 N   0  0  0  0  0  0  0  0  0  0  0  0
  -25.2530  -16.1770   20.2800 H   0  0  0  0  0  0  0  0  0  0  0  0
  -26.8520  -15.9060   19.8010 H   0  0  0  0  0  0  0  0  0  0  0  0
  1  2  2  0
  1  4  1  0
  2  5  1  0
  3  6  1  0
  4  3  2  0
  5  6  2  0
  6 55  1  0
  7 11  1  0
  7  8  1  0
  8  5  1  0
  8 10  1  0
  9  7  2  0
 12 11  1  0
 12 13  1  0
 14 16  1  0
 14 13  1  0
 15 26  2  0
 16 21  1  0
 17 25  1  0
 17 27  1  0
 18 24  1  0
 18 20  1  0
 19 25  1  0
 20 19  1  0
 21 20  2  0
 22 23  1  0
 22 16  2  0
 23 18  2  0
 24 17  1  0
 25 15  1  0
 27 29  2  0
 28 27  1  0
 30 28  1  0
 31 40  2  0
 31 36  1  0
 32 28  1  0
 32 36  1  0
 33 32  1  0
 34 35  1  0
 34 33  1  0
 35 31  1  0
 36 37  2  0
 37 38  1  0
 39 38  2  0
 40 39  1  0
 41 15  1  0
 41 42  1  0
 41 51  1  0
 42 45  1  0
 43 47  1  0
 43 42  1  0
 44 43  2  0
 47 46  1  0
 49 47  1  0
 49 50  1  0
 49 48  1  0
 51 54  1  1
 51 52  1  0
 53 51  1  0
 55 56  1  0
 55 57  1  0
 58  4  1  0
 59 67  1  0
 60 65  1  0
 61 62  1  0
 61 60  1  0
 63 62  1  0
 63 72  1  0
 63 64  1  0
 65 59  1  0
 65 64  1  0
 66 59  2  0
 67 58  1  0
 67 68  1  0
 69 70  2  0
 70 89  1  0
 71 70  1  0
 71 74  1  0
 72 73  1  0
 72 69  1  0
 73 71  2  0
 74 75  1  0
 75 76  2  0
 77 80  1  0
 77 76  1  0
 78 77  2  0
 79 78  1  0
 79 74  2  0
 80 81  1  0
 81 82  1  0
 82 83  2  0
 84 83  1  0
 84 88  1  0
 85 84  2  0
 86 81  2  0
 86 85  1  0
 87 86  1  0
 89 90  1  0
 90 93  1  0
 90 92  1  0
 91 89  2  0
 94 69  1  0
 94 95  1  0
 96 94  1  0
M  ISO  4  13 101  14 101  59 100  67 100
M  END
>  <TORSDO>  (23) 
F 22

>  <SCORE>  (23) 
-11.837

>  <name>  (23) 
22

>  <ligand_id>  (23) 
22

>  <original_smiles>  (23) 
[H]c1c([H])c([H])c2c(c1[H])C([H])([H])C([H])([H])C([H])([H])C2([H])N([H])C(=O)C1([H])N(C(=O)C([H])(N([H])C(=O)C([H])(N([H])C([H])([H])[H])C([H])([H])[H])C(C([H])([H])[H])(C([H])([H])[H])C([H])([H])[H])C([H])([H])c2c([H])c(OC([H])([H])C([H])([H])C([H])([H])C(=O)N([H])c3c([H])c([H])c(C([H])([H])N([H])C(=O)N4C([H])([H])C([H])([H])C([H])([H])C([H])(n5nc(-c6c([H])c([H])c(Oc7c([H])c([H])c(F)c([H])c7F)c([H])c6[H])c(C(=O)N([H])[H])c5N([H])[H])C4([H])[H])c([H])c3N([H])[H])c([H])c([H])c2C1([H])[H]

>  <smiles>  (23) 
[H]c1c([H])c([H])c2c(c1[H])C([H])([H])C([H])([H])C([H])([H])C2([H])N([H])C(=O)C1([H])N(C(=O)C([H])(N([H])C(=O)C([H])(N([H])C([H])([H])[H])C([H])([H])[H])C(C([H])([H])[H])(C([H])([H])[H])C([H])([H])[H])C([H])([H])c2c([H])c(OC([H])([H])C([H])([H])C([H])([H])C(=O)N([H])c3c([H])c([H])c(C([H])([H])N([H])C(=O)N4C([H])([H])C([H])([H])C([H])([H])C([H])(n5nc(-c6c([H])c([H])c(Oc7c([H])c([H])c(F)c([H])c7F)c([H])c6[H])c(C(=O)N([H])[H])c5N([H])[H])C4([H])[H])c([H])c3N([H])[H])c([H])c([H])c2C1([H])[H]

$$$$
23:0:0
     RDKit          3D

 94103  0  0  1  0  0  0  0  0999 V2000
  -29.8870  -21.1270   19.7540 C   0  0  0  0  0  0  0  0  0  0  0  0
  -28.0730  -23.3750   22.0880 C   0  0  0  0  0  2  0  0  0  0  0  0
  -28.3230  -21.9410   21.5810 C   0  0  0  0  0  2  0  0  0  0  0  0
  -29.2000  -23.5070   19.9870 C   0  0  0  0  0  2  0  0  0  0  0  0
  -28.1900  -24.2810   20.8560 C   0  0  0  0  0  3  0  0  0  0  0  0
  -29.1440  -22.0830   20.3780 N   0  0  0  0  0  0  0  0  0  0  0  0
  -30.6250  -21.4150   18.8070 O   0  0  0  0  0  0  0  0  0  0  0  0
  -28.7010  -18.8980   20.2720 C   0  0  0  0  0  3  0  0  0  0  0  0
  -28.7700  -17.5080   20.5410 C   0  0  0  0  0  3  0  0  0  0  0  0
  -31.1140  -19.0380   20.4780 C   0  0  0  0  0  3  0  0  0  0  0  0
  -29.8810  -19.6810   20.2170 C   0  0  0  0  0  0  0  0  0  0  0  0
  -30.0130  -16.8610   20.7520 C   0  0  0  0  0  0  0  0  0  0  0  0
  -31.1840  -17.6580   20.7720 C   0  0  0  0  0  0  0  0  0  0  0  0
  -32.3850  -17.1220   21.0870 F   0  0  0  0  0  0  0  0  0  0  0  0
  -30.6900  -14.5170   20.2320 C   0  0  0  0  0  0  0  0  0  0  0  0
  -30.3750  -12.3930   19.0100 C   0  0  0  0  0  2  0  0  0  0  0  0
  -29.3800  -12.6150   17.8510 C   0  0  0  0  0  2  0  0  0  0  0  0
  -27.9210  -12.4770   18.3320 C   0  0  0  0  0  2  0  0  0  0  0  0
  -27.6380  -13.2740   19.6340 C   0  0  0  0  0  3  0  0  0  0  0  0
  -28.7310  -12.9940   20.6880 C   0  0  0  0  0  2  0  0  0  0  0  0
  -30.0370  -13.3300   20.0930 N   0  0  0  0  0  0  0  0  0  0  0  0
  -31.7630  -14.7430   19.6660 O   0  0  0  0  0  0  0  0  0  0  0  0
  -30.0260  -15.4430   20.9610 N   0  0  0  0  0  0  0  0  0  0  0  0
  -29.2040  -15.0650   21.4040 H   0  0  0  0  0  0  0  0  0  0  0  0
  -25.2630  -13.8720   20.4380 C   0  0  0  0  0  0  0  0  0  0  0  0
  -24.2100  -13.0940   20.8370 C   0  0  0  0  0  0  0  0  0  0  0  0
  -24.6700  -11.7440   20.7680 C   0  0  0  0  0  0  0  0  0  0  0  0
  -26.2990  -12.9950   20.1550 N   0  0  0  0  0  0  0  0  0  0  0  0
  -25.9470  -11.7090   20.4090 N   0  0  0  0  0  0  0  0  0  0  0  0
  -23.9530  -10.4790   20.9630 C   0  0  0  0  0  0  0  0  0  0  0  0
  -24.3890   -9.5180   21.9000 C   0  0  0  0  0  3  0  0  0  0  0  0
  -23.6730   -8.3160   22.0810 C   0  0  0  0  0  3  0  0  0  0  0  0
  -22.5040   -8.0660   21.3250 C   0  0  0  0  0  0  0  0  0  0  0  0
  -22.0870   -9.0150   20.3740 C   0  0  0  0  0  3  0  0  0  0  0  0
  -22.8050  -10.2080   20.1910 C   0  0  0  0  0  3  0  0  0  0  0  0
  -21.7550   -6.9190   21.4190 O   0  0  0  0  0  0  0  0  0  0  0  0
  -21.6740   -6.2030   22.5850 C   0  0  0  0  0  0  0  0  0  0  0  0
  -21.1620   -6.7710   23.7730 C   0  0  0  0  0  3  0  0  0  0  0  0
  -21.0320   -5.9800   24.9320 C   0  0  0  0  0  3  0  0  0  0  0  0
  -21.4030   -4.6220   24.9050 C   0  0  0  0  0  0  0  0  0  0  0  0
  -21.9100   -4.0550   23.7230 C   0  0  0  0  0  3  0  0  0  0  0  0
  -22.0420   -4.8420   22.5660 C   0  0  0  0  0  0  0  0  0  0  0  0
  -22.5090   -4.2840   21.4240 F   0  0  0  0  0  0  0  0  0  0  0  0
  -21.2710   -3.8610   26.0160 F   0  0  0  0  0  0  0  0  0  0  0  0
  -22.8250  -13.5670   21.1690 C   0  0  0  0  0  0  0  0  0  0  0  0
  -22.1240  -12.8500   22.0400 N   0  0  0  0  0  0  0  0  0  0  0  0
  -22.3730  -14.6080   20.6920 O   0  0  0  0  0  0  0  0  0  0  0  0
  -22.5020  -12.0090   22.4500 H   0  0  0  0  0  0  0  0  0  0  0  0
  -21.1940  -13.1460   22.3020 H   0  0  0  0  0  0  0  0  0  0  0  0
  -25.4190  -15.2450   20.2750 N   0  0  0  0  0  0  0  0  0  0  0  0
  -24.6470  -15.8870   20.4150 H   0  0  0  0  0  0  0  0  0  0  0  0
  -26.2300  -15.6830   19.8590 H   0  0  0  0  0  0  0  0  0  0  0  0
  -28.5580  -25.7610   21.1900 C   0  0  0  0  0  2  0  0  0  0  0  0
  -28.4310  -26.6990   20.1050 O   0  0  0  0  0  0  0  0  0  0  0  0
  -24.6010  -31.8920   23.1700 C   0  0  0  0  0  0  0  0  0  0  0  0
  -27.2790  -27.4540   20.1150 C   0  0  0  0  0  0  0  0  0  0  0  0
  -23.4100  -30.4870   21.5150 C   0  0  0  0  0  3  0  0  0  0  0  0
  -24.8810  -28.9530   20.1000 C   0  0  0  0  0  0  0  0  0  0  0  0
  -25.9350  -30.8550   21.3350 C   0  0  0  0  0  2  0  0  0  0  0  0
  -26.0320  -29.4820   20.7000 C   0  0  0  0  0  0  0  0  0  0  0  0
  -27.2360  -28.7390   20.7070 C   0  0  0  0  0  3  0  0  0  0  0  0
  -26.1180  -26.9420   19.5040 C   0  0  0  0  0  3  0  0  0  0  0  0
  -24.9190  -27.6820   19.4990 C   0  0  0  0  0  3  0  0  0  0  0  0
  -23.6330  -29.8070   20.1370 C   0  0  0  0  0  2  0  0  0  0  0  0
  -24.6650  -31.0940   22.0640 N   0  0  0  0  0  0  0  0  0  0  0  0
  -23.5150  -32.1570   23.7050 O   0  0  0  0  0  0  0  0  0  0  0  0
  -22.7580  -29.4630   22.4740 C   0  0  0  0  0  0  0  0  0  0  0  0
  -21.4320  -29.2880   22.3560 N   0  0  0  0  0  0  0  0  0  0  0  0
  -23.4440  -28.8260   23.2790 O   0  0  0  0  0  0  0  0  0  0  0  0
  -20.9400  -29.8540   21.6790 H   0  0  0  0  0  0  0  0  0  0  0  0
  -18.0510  -28.1380   22.8980 C   0  0  0  0  0  0  0  0  0  0  0  0
  -20.6170  -28.3470   23.1230 C   0  0  0  0  0  3  0  0  0  0  0  0
  -20.6830  -26.9280   22.5130 C   0  0  0  0  0  2  0  0  0  0  0  0
  -19.5550  -26.6470   21.5140 C   0  0  0  0  0  2  0  0  0  0  0  0
  -18.1900  -26.8010   22.1900 C   0  0  0  0  0  2  0  0  0  0  0  0
  -19.1910  -28.8710   23.3220 C   0  0  0  0  0  0  0  0  0  0  0  0
  -19.0070  -30.1250   23.9460 C   0  0  0  0  0  3  0  0  0  0  0  0
  -17.7160  -30.6450   24.1490 C   0  0  0  0  0  3  0  0  0  0  0  0
  -16.5900  -29.9090   23.7420 C   0  0  0  0  0  3  0  0  0  0  0  0
  -16.7580  -28.6570   23.1220 C   0  0  0  0  0  3  0  0  0  0  0  0
  -25.8800  -32.5300   23.7960 C   0  0  0  0  0  3  0  0  0  0  0  0
  -25.5590  -33.9210   24.1390 N   0  0  0  0  0  0  0  0  0  0  0  0
  -25.8900  -34.9830   23.3900 C   0  0  0  0  0  0  0  0  0  0  0  0
  -26.5680  -34.8950   22.3630 O   0  0  0  0  0  0  0  0  0  0  0  0
  -24.9620  -34.0650   24.9390 H   0  0  0  0  0  0  0  0  0  0  0  0
  -24.1630  -36.7730   23.0270 C   0  0  0  0  0  1  0  0  0  0  0  0
  -25.3890  -36.3630   23.8580 C   0  0  0  0  0  3  0  0  0  0  0  0
  -27.4980  -37.2480   24.7500 C   0  0  0  0  0  1  0  0  0  0  0  0
  -26.4190  -37.4210   23.7800 N   0  0  0  0  0  0  0  0  0  0  0  0
  -26.0050  -38.3380   23.9240 H   0  0  0  0  0  0  0  0  0  0  0  0
  -26.4050  -31.7510   25.0650 C   0  0  1  0  0  0  0  0  0  0  0  0
  -25.3170  -31.4880   26.1300 C   0  0  0  0  0  1  0  0  0  0  0  0
  -27.0070  -30.3860   24.6560 C   0  0  0  0  0  1  0  0  0  0  0  0
  -27.5440  -32.5530   25.7400 C   0  0  0  0  0  1  0  0  0  0  0  0
  1 11  1  0
  1  6  1  0
  3  2  1  0
  4  6  1  0
  4  5  1  0
  5 53  1  0
  5  2  1  0
  6  3  1  0
  7  1  2  0
  8  9  1  0
  9 12  2  0
 10 13  2  0
 11  8  2  0
 11 10  1  0
 12 13  1  0
 12 23  1  0
 13 14  1  0
 15 23  1  0
 16 21  1  0
 17 18  1  0
 17 16  1  0
 19 18  1  0
 19 28  1  0
 19 20  1  0
 21 15  1  0
 21 20  1  0
 22 15  2  0
 23 24  1  0
 25 26  2  0
 26 45  1  0
 27 26  1  0
 27 30  1  0
 28 29  1  0
 28 25  1  0
 29 27  2  0
 30 31  1  0
 31 32  2  0
 33 36  1  0
 33 32  1  0
 34 33  2  0
 35 34  1  0
 35 30  2  0
 36 37  1  0
 37 38  1  0
 38 39  2  0
 40 39  1  0
 40 44  1  0
 41 40  2  0
 42 37  2  0
 42 41  1  0
 43 42  1  0
 45 46  1  0
 46 49  1  0
 46 48  1  0
 47 45  2  0
 50 51  1  0
 50 25  1  0
 52 50  1  0
 54 56  1  0
 54 53  1  0
 55 66  2  0
 56 61  1  0
 57 65  1  0
 57 67  1  0
 58 64  1  0
 58 60  1  0
 59 65  1  0
 60 61  2  0
 60 59  1  0
 62 56  2  0
 63 62  1  0
 63 58  2  0
 64 57  1  0
 65 55  1  0
 67 69  2  0
 68 67  1  0
 70 68  1  0
 71 80  2  0
 71 76  1  0
 72 68  1  0
 72 76  1  0
 73 72  1  0
 74 75  1  0
 74 73  1  0
 75 71  1  0
 76 77  2  0
 77 78  1  0
 79 78  2  0
 80 79  1  0
 81 55  1  0
 81 82  1  0
 81 91  1  0
 82 85  1  0
 83 87  1  0
 83 82  1  0
 84 83  2  0
 87 86  1  0
 89 87  1  0
 89 90  1  0
 89 88  1  0
 91 94  1  1
 91 92  1  0
 93 91  1  0
M  ISO  4  15 100  23 100  53 101  54 101
M  END
>  <TORSDO>  (24) 
F 18

>  <SCORE>  (24) 
-14.940

>  <name>  (24) 
23

>  <ligand_id>  (24) 
23

>  <original_smiles>  (24) 
[H]c1c([H])c([H])c2c(c1[H])C([H])([H])C([H])([H])C([H])([H])C2([H])N([H])C(=O)C1([H])N(C(=O)C([H])(N([H])C(=O)C([H])(N([H])C([H])([H])[H])C([H])([H])[H])C(C([H])([H])[H])(C([H])([H])[H])C([H])([H])[H])C([H])([H])c2c([H])c(OC([H])([H])C3([H])C([H])([H])N(C(=O)c4c([H])c([H])c(N([H])C(=O)N5C([H])([H])C([H])([H])C([H])([H])C([H])(n6nc(-c7c([H])c([H])c(Oc8c([H])c([H])c(F)c([H])c8F)c([H])c7[H])c(C(=O)N([H])[H])c6N([H])[H])C5([H])[H])c(F)c4[H])C([H])([H])C3([H])[H])c([H])c([H])c2C1([H])[H]

>  <smiles>  (24) 
[H]c1c([H])c([H])c2c(c1[H])C([H])([H])C([H])([H])C([H])([H])C2([H])N([H])C(=O)C1([H])N(C(=O)C([H])(N([H])C(=O)C([H])(N([H])C([H])([H])[H])C([H])([H])[H])C(C([H])([H])[H])(C([H])([H])[H])C([H])([H])[H])C([H])([H])c2c([H])c(OC([H])([H])C3([H])C([H])([H])N(C(=O)c4c([H])c([H])c(N([H])C(=O)N5C([H])([H])C([H])([H])C([H])([H])C([H])(n6nc(-c7c([H])c([H])c(Oc8c([H])c([H])c(F)c([H])c8F)c([H])c7[H])c(C(=O)N([H])[H])c6N([H])[H])C5([H])[H])c(F)c4[H])C([H])([H])C3([H])[H])c([H])c([H])c2C1([H])[H]

$$$$
24:0:0
     RDKit          3D

 94103  0  0  1  0  0  0  0  0999 V2000
  -30.4500  -21.4500   18.9290 C   0  0  0  0  0  0  0  0  0  0  0  0
  -29.0110  -22.1940   20.6830 C   0  0  0  0  0  0  0  0  0  0  0  0
  -30.2850  -22.7970   18.2010 C   0  0  0  0  0  2  0  0  0  0  0  0
  -30.0080  -23.9630   19.1520 C   0  0  0  0  0  2  0  0  0  0  0  0
  -28.7860  -23.6430   20.0080 C   0  0  0  0  0  3  0  0  0  0  0  0
  -29.7880  -21.1780   20.0970 N   0  0  0  0  0  0  0  0  0  0  0  0
  -31.2230  -20.6470   18.3900 O   0  0  0  0  0  0  0  0  0  0  0  0
  -28.4200  -21.9950   21.7510 O   0  0  0  0  0  0  0  0  0  0  0  0
  -30.9780  -18.5750   22.6520 C   0  0  0  0  0  3  0  0  0  0  0  0
  -30.5660  -19.7910   22.0570 C   0  0  0  0  0  3  0  0  0  0  0  0
  -30.9280  -17.3430   21.9620 C   0  0  0  0  0  3  0  0  0  0  0  0
  -30.0060  -18.5440   20.0630 C   0  0  0  0  0  3  0  0  0  0  0  0
  -30.0730  -19.8380   20.7310 C   0  0  0  0  0  0  0  0  0  0  0  0
  -30.4430  -17.2700   20.6400 C   0  0  0  0  0  0  0  0  0  0  0  0
  -31.0640  -14.7650   20.2250 C   0  0  0  0  0  0  0  0  0  0  0  0
  -30.8000  -12.4390   19.3280 C   0  0  0  0  0  2  0  0  0  0  0  0
  -29.8690  -12.4020   18.0940 C   0  0  0  0  0  2  0  0  0  0  0  0
  -28.3800  -12.3870   18.5080 C   0  0  0  0  0  2  0  0  0  0  0  0
  -28.0300  -13.3370   19.6880 C   0  0  0  0  0  3  0  0  0  0  0  0
  -29.0840  -13.2820   20.8120 C   0  0  0  0  0  2  0  0  0  0  0  0
  -30.3820  -13.5660   20.1920 N   0  0  0  0  0  0  0  0  0  0  0  0
  -32.2910  -14.7580   20.0730 O   0  0  0  0  0  0  0  0  0  0  0  0
  -29.9110  -16.0740   18.5540 C   0  0  0  0  0  1  0  0  0  0  0  0
  -30.3540  -15.9480   19.9500 N   0  0  0  0  0  0  0  0  0  0  0  0
  -25.6710  -14.0420   20.4050 C   0  0  0  0  0  0  0  0  0  0  0  0
  -24.5690  -13.3190   20.7720 C   0  0  0  0  0  0  0  0  0  0  0  0
  -24.9760  -11.9490   20.7640 C   0  0  0  0  0  0  0  0  0  0  0  0
  -26.6770  -13.1140   20.1870 N   0  0  0  0  0  0  0  0  0  0  0  0
  -26.2660  -11.8530   20.4720 N   0  0  0  0  0  0  0  0  0  0  0  0
  -24.1970  -10.7200   20.9600 C   0  0  0  0  0  0  0  0  0  0  0  0
  -24.5760   -9.7500   21.9150 C   0  0  0  0  0  3  0  0  0  0  0  0
  -23.8000   -8.5850   22.0990 C   0  0  0  0  0  3  0  0  0  0  0  0
  -22.6310   -8.3840   21.3270 C   0  0  0  0  0  0  0  0  0  0  0  0
  -22.2720   -9.3400   20.3610 C   0  0  0  0  0  3  0  0  0  0  0  0
  -23.0480  -10.4970   20.1750 C   0  0  0  0  0  3  0  0  0  0  0  0
  -21.8300   -7.2710   21.4200 O   0  0  0  0  0  0  0  0  0  0  0  0
  -21.7190   -6.5590   22.5870 C   0  0  0  0  0  0  0  0  0  0  0  0
  -21.2770   -7.1580   23.7860 C   0  0  0  0  0  3  0  0  0  0  0  0
  -21.1110   -6.3740   24.9460 C   0  0  0  0  0  3  0  0  0  0  0  0
  -21.3780   -4.9920   24.9050 C   0  0  0  0  0  0  0  0  0  0  0  0
  -21.8140   -4.3940   23.7100 C   0  0  0  0  0  3  0  0  0  0  0  0
  -21.9810   -5.1740   22.5530 C   0  0  0  0  0  0  0  0  0  0  0  0
  -22.3800   -4.5890   21.3990 F   0  0  0  0  0  0  0  0  0  0  0  0
  -21.2120   -4.2360   26.0160 F   0  0  0  0  0  0  0  0  0  0  0  0
  -23.1900  -13.8570   21.0210 C   0  0  0  0  0  0  0  0  0  0  0  0
  -22.4280  -13.2100   21.8970 N   0  0  0  0  0  0  0  0  0  0  0  0
  -22.7970  -14.8860   20.4740 O   0  0  0  0  0  0  0  0  0  0  0  0
  -22.7600  -12.3780   22.3610 H   0  0  0  0  0  0  0  0  0  0  0  0
  -21.5020  -13.5540   22.1060 H   0  0  0  0  0  0  0  0  0  0  0  0
  -25.8960  -15.4030   20.2130 N   0  0  0  0  0  0  0  0  0  0  0  0
  -25.1630  -16.0940   20.3230 H   0  0  0  0  0  0  0  0  0  0  0  0
  -26.7790  -15.8020   19.9210 H   0  0  0  0  0  0  0  0  0  0  0  0
  -28.3540  -24.9130   20.9130 C   0  0  0  0  0  2  0  0  0  0  0  0
  -28.5130  -26.3280   20.4340 O   0  0  0  0  0  0  0  0  0  0  0  0
  -24.6490  -31.7620   23.2890 C   0  0  0  0  0  0  0  0  0  0  0  0
  -27.3920  -27.1770   20.3830 C   0  0  0  0  0  0  0  0  0  0  0  0
  -23.5100  -30.3350   21.6280 C   0  0  0  0  0  3  0  0  0  0  0  0
  -25.0200  -28.7780   20.2660 C   0  0  0  0  0  0  0  0  0  0  0  0
  -26.0510  -30.6750   21.5160 C   0  0  0  0  0  2  0  0  0  0  0  0
  -26.1660  -29.2870   20.8910 C   0  0  0  0  0  0  0  0  0  0  0  0
  -27.3590  -28.5000   20.9320 C   0  0  0  0  0  3  0  0  0  0  0  0
  -26.2270  -26.7220   19.7350 C   0  0  0  0  0  3  0  0  0  0  0  0
  -25.0540  -27.5030   19.6760 C   0  0  0  0  0  3  0  0  0  0  0  0
  -23.7740  -29.6440   20.2630 C   0  0  0  0  0  2  0  0  0  0  0  0
  -24.7540  -30.9430   22.2020 N   0  0  0  0  0  0  0  0  0  0  0  0
  -23.5470  -32.0340   23.7880 O   0  0  0  0  0  0  0  0  0  0  0  0
  -22.8280  -29.3230   22.5790 C   0  0  0  0  0  0  0  0  0  0  0  0
  -21.5110  -29.1180   22.4030 N   0  0  0  0  0  0  0  0  0  0  0  0
  -23.4830  -28.7250   23.4360 O   0  0  0  0  0  0  0  0  0  0  0  0
  -21.0400  -29.6530   21.6870 H   0  0  0  0  0  0  0  0  0  0  0  0
  -18.1480  -27.8320   22.7600 C   0  0  0  0  0  0  0  0  0  0  0  0
  -20.6800  -28.1770   23.1570 C   0  0  0  0  0  3  0  0  0  0  0  0
  -20.8540  -26.7340   22.6280 C   0  0  0  0  0  2  0  0  0  0  0  0
  -19.8170  -26.3510   21.5680 C   0  0  0  0  0  2  0  0  0  0  0  0
  -18.3990  -26.4710   22.1330 C   0  0  0  0  0  2  0  0  0  0  0  0
  -19.2190  -28.6390   23.2260 C   0  0  0  0  0  0  0  0  0  0  0  0
  -18.9330  -29.9100   23.7700 C   0  0  0  0  0  3  0  0  0  0  0  0
  -17.6060  -30.3750   23.8540 C   0  0  0  0  0  3  0  0  0  0  0  0
  -16.5490  -29.5660   23.4030 C   0  0  0  0  0  3  0  0  0  0  0  0
  -16.8200  -28.2970   22.8630 C   0  0  0  0  0  3  0  0  0  0  0  0
  -25.9060  -32.4150   23.9460 C   0  0  0  0  0  3  0  0  0  0  0  0
  -25.5770  -33.8190   24.2330 N   0  0  0  0  0  0  0  0  0  0  0  0
  -25.9270  -34.8570   23.4630 C   0  0  0  0  0  0  0  0  0  0  0  0
  -26.6260  -34.7340   22.4530 O   0  0  0  0  0  0  0  0  0  0  0  0
  -24.9580  -33.9880   25.0130 H   0  0  0  0  0  0  0  0  0  0  0  0
  -24.1960  -36.6300   23.0260 C   0  0  0  0  0  1  0  0  0  0  0  0
  -25.4210  -36.2530   23.8750 C   0  0  0  0  0  3  0  0  0  0  0  0
  -27.5300  -37.1740   24.7330 C   0  0  0  0  0  1  0  0  0  0  0  0
  -26.4480  -37.3100   23.7590 N   0  0  0  0  0  0  0  0  0  0  0  0
  -26.0330  -38.2300   23.8740 H   0  0  0  0  0  0  0  0  0  0  0  0
  -26.3760  -31.6750   25.2570 C   0  0  1  0  0  0  0  0  0  0  0  0
  -25.2450  -31.4560   26.2900 C   0  0  0  0  0  1  0  0  0  0  0  0
  -26.9780  -30.2900   24.9190 C   0  0  0  0  0  1  0  0  0  0  0  0
  -27.4980  -32.4890   25.9440 C   0  0  0  0  0  1  0  0  0  0  0  0
  1  6  1  0
  2  8  2  0
  3  1  1  0
  3  4  1  0
  4  5  1  0
  5  2  1  0
  5 53  1  0
  6  2  1  0
  6 13  1  0
  7  1  2  0
 10  9  1  0
 11  9  2  0
 12 14  2  0
 12 13  1  0
 13 10  2  0
 14 11  1  0
 16 21  1  0
 17 18  1  0
 17 16  1  0
 19 18  1  0
 19 28  1  0
 19 20  1  0
 21 15  1  0
 21 20  1  0
 22 15  2  0
 23 24  1  0
 24 15  1  0
 24 14  1  0
 25 26  2  0
 26 45  1  0
 27 26  1  0
 27 30  1  0
 28 25  1  0
 28 29  1  0
 29 27  2  0
 30 31  1  0
 31 32  2  0
 33 36  1  0
 33 32  1  0
 34 33  2  0
 35 34  1  0
 35 30  2  0
 36 37  1  0
 37 38  1  0
 38 39  2  0
 40 39  1  0
 40 44  1  0
 41 40  2  0
 42 37  2  0
 42 41  1  0
 43 42  1  0
 45 46  1  0
 46 49  1  0
 46 48  1  0
 47 45  2  0
 50 51  1  0
 50 25  1  0
 52 50  1  0
 54 53  1  0
 55 66  2  0
 56 54  1  0
 56 61  1  0
 57 65  1  0
 57 67  1  0
 58 60  1  0
 59 65  1  0
 60 61  2  0
 60 59  1  0
 62 56  2  0
 63 62  1  0
 63 58  2  0
 64 58  1  0
 64 57  1  0
 65 55  1  0
 67 69  2  0
 68 67  1  0
 70 68  1  0
 71 80  2  0
 71 76  1  0
 72 68  1  0
 72 76  1  0
 73 72  1  0
 74 75  1  0
 74 73  1  0
 75 71  1  0
 76 77  2  0
 77 78  1  0
 79 78  2  0
 80 79  1  0
 81 55  1  0
 81 82  1  0
 81 91  1  0
 82 85  1  0
 83 87  1  0
 83 82  1  0
 84 83  2  0
 87 86  1  0
 89 90  1  0
 89 87  1  0
 89 88  1  0
 91 94  1  1
 91 92  1  0
 93 91  1  0
M  ISO  4  15 100  24 100  53 101  54 101
M  END
>  <TORSDO>  (25) 
F 18

>  <SCORE>  (25) 
-14.016

>  <name>  (25) 
24

>  <ligand_id>  (25) 
24

>  <original_smiles>  (25) 
[H]c1c([H])c(N2C(=O)C([H])([H])C([H])([H])C([H])(C([H])([H])Oc3c([H])c([H])c4c(c3[H])C([H])([H])N(C(=O)C([H])(N([H])C(=O)C([H])(N([H])C([H])([H])[H])C([H])([H])[H])C(C([H])([H])[H])(C([H])([H])[H])C([H])([H])[H])C([H])(C(=O)N([H])C3([H])c5c([H])c([H])c([H])c([H])c5C([H])([H])C([H])([H])C3([H])[H])C4([H])[H])C2=O)c([H])c(N(C(=O)N2C([H])([H])C([H])([H])C([H])([H])C([H])(n3nc(-c4c([H])c([H])c(Oc5c([H])c([H])c(F)c([H])c5F)c([H])c4[H])c(C(=O)N([H])[H])c3N([H])[H])C2([H])[H])C([H])([H])[H])c1[H]

>  <smiles>  (25) 
[H]c1c([H])c(N2C(=O)C([H])([H])C([H])([H])C([H])(C([H])([H])Oc3c([H])c([H])c4c(c3[H])C([H])([H])N(C(=O)C([H])(N([H])C(=O)C([H])(N([H])C([H])([H])[H])C([H])([H])[H])C(C([H])([H])[H])(C([H])([H])[H])C([H])([H])[H])C([H])(C(=O)N([H])C3([H])c5c([H])c([H])c([H])c([H])c5C([H])([H])C([H])([H])C3([H])[H])C4([H])[H])C2=O)c([H])c(N(C(=O)N2C([H])([H])C([H])([H])C([H])([H])C([H])(n3nc(-c4c([H])c([H])c(Oc5c([H])c([H])c(F)c([H])c5F)c([H])c4[H])c(C(=O)N([H])[H])c3N([H])[H])C2([H])[H])C([H])([H])[H])c1[H]

$$$$
25:0:0
     RDKit          3D

 93101  0  0  1  0  0  0  0  0999 V2000
  -30.1160  -21.6860   20.8740 C   0  0  0  0  0  0  0  0  0  0  0  0
  -29.2450  -22.5890   20.3230 N   0  0  0  0  0  0  0  0  0  0  0  0
  -31.0060  -22.1060   21.6160 O   0  0  0  0  0  0  0  0  0  0  0  0
  -28.5230  -22.2400   19.7070 H   0  0  0  0  0  0  0  0  0  0  0  0
  -28.8470  -19.4290   20.6410 C   0  0  0  0  0  3  0  0  0  0  0  0
  -31.2030  -17.9160   20.4790 C   0  0  0  0  0  3  0  0  0  0  0  0
  -30.0670  -20.1560   20.6130 C   0  0  0  0  0  0  0  0  0  0  0  0
  -31.2560  -19.3470   20.5140 C   0  0  0  0  0  0  0  0  0  0  0  0
  -29.9810  -17.2030   20.5460 C   0  0  0  0  0  0  0  0  0  0  0  0
  -28.8080  -18.0010   20.6140 C   0  0  0  0  0  0  0  0  0  0  0  0
  -32.6400  -19.9820   20.4670 C   0  0  0  0  0  1  0  0  0  0  0  0
  -27.6080  -17.3760   20.6820 F   0  0  0  0  0  0  0  0  0  0  0  0
  -30.5940  -14.7000   20.1270 C   0  0  0  0  0  0  0  0  0  0  0  0
  -30.2980  -12.5050   18.9890 C   0  0  0  0  0  2  0  0  0  0  0  0
  -29.2870  -12.6840   17.8340 C   0  0  0  0  0  2  0  0  0  0  0  0
  -27.8380  -12.5260   18.3370 C   0  0  0  0  0  2  0  0  0  0  0  0
  -27.5590  -13.3440   19.6260 C   0  0  0  0  0  3  0  0  0  0  0  0
  -28.6770  -13.1370   20.6740 C   0  0  0  0  0  2  0  0  0  0  0  0
  -29.9570  -13.4890   20.0370 N   0  0  0  0  0  0  0  0  0  0  0  0
  -31.7330  -14.8550   19.6740 O   0  0  0  0  0  0  0  0  0  0  0  0
  -29.8330  -15.7430   20.5840 N   0  0  0  0  0  0  0  0  0  0  0  0
  -28.9280  -15.4480   20.9150 H   0  0  0  0  0  0  0  0  0  0  0  0
  -25.2090  -13.9400   20.4750 C   0  0  0  0  0  0  0  0  0  0  0  0
  -24.1550  -13.1640   20.8780 C   0  0  0  0  0  0  0  0  0  0  0  0
  -24.6070  -11.8110   20.7970 C   0  0  0  0  0  0  0  0  0  0  0  0
  -26.2360  -13.0590   20.1720 N   0  0  0  0  0  0  0  0  0  0  0  0
  -25.8810  -11.7730   20.4240 N   0  0  0  0  0  0  0  0  0  0  0  0
  -23.8830  -10.5490   20.9960 C   0  0  0  0  0  0  0  0  0  0  0  0
  -24.3390   -9.5710   21.9070 C   0  0  0  0  0  3  0  0  0  0  0  0
  -23.6130   -8.3750   22.0960 C   0  0  0  0  0  3  0  0  0  0  0  0
  -22.4180   -8.1480   21.3730 C   0  0  0  0  0  0  0  0  0  0  0  0
  -21.9810   -9.1150   20.4490 C   0  0  0  0  0  3  0  0  0  0  0  0
  -22.7070  -10.3030   20.2590 C   0  0  0  0  0  3  0  0  0  0  0  0
  -21.6620   -7.0050   21.4720 O   0  0  0  0  0  0  0  0  0  0  0  0
  -21.6190   -6.2680   22.6280 C   0  0  0  0  0  0  0  0  0  0  0  0
  -21.1950   -6.8260   23.8530 C   0  0  0  0  0  3  0  0  0  0  0  0
  -21.1000   -6.0150   25.0020 C   0  0  0  0  0  3  0  0  0  0  0  0
  -21.4200   -4.6470   24.9270 C   0  0  0  0  0  0  0  0  0  0  0  0
  -21.8390   -4.0880   23.7060 C   0  0  0  0  0  3  0  0  0  0  0  0
  -21.9350   -4.8960   22.5590 C   0  0  0  0  0  0  0  0  0  0  0  0
  -22.3190   -4.3470   21.3810 F   0  0  0  0  0  0  0  0  0  0  0  0
  -21.3230   -3.8650   26.0270 F   0  0  0  0  0  0  0  0  0  0  0  0
  -22.7770  -13.6430   21.2320 C   0  0  0  0  0  0  0  0  0  0  0  0
  -22.0900  -12.9330   22.1190 N   0  0  0  0  0  0  0  0  0  0  0  0
  -22.3200  -14.6830   20.7580 O   0  0  0  0  0  0  0  0  0  0  0  0
  -22.4720  -12.0910   22.5230 H   0  0  0  0  0  0  0  0  0  0  0  0
  -21.1680  -13.2350   22.4000 H   0  0  0  0  0  0  0  0  0  0  0  0
  -25.3710  -15.3130   20.3240 N   0  0  0  0  0  0  0  0  0  0  0  0
  -24.6200  -15.9660   20.5180 H   0  0  0  0  0  0  0  0  0  0  0  0
  -26.2340  -15.7780   20.0740 H   0  0  0  0  0  0  0  0  0  0  0  0
  -29.3480  -24.0890   20.5410 C   0  0  0  0  0  3  0  0  0  0  0  0
  -28.2160  -25.0550   19.9780 C   0  0  0  0  0  3  0  0  0  0  0  0
  -28.3790  -26.5140   20.1980 O   0  0  0  0  0  0  0  0  0  0  0  0
  -24.6240  -31.8730   23.2180 C   0  0  0  0  0  0  0  0  0  0  0  0
  -27.2500  -27.3480   20.1330 C   0  0  0  0  0  0  0  0  0  0  0  0
  -23.4220  -30.4810   21.5690 C   0  0  0  0  0  3  0  0  0  0  0  0
  -24.8760  -28.9490   20.1260 C   0  0  0  0  0  0  0  0  0  0  0  0
  -25.9600  -30.8130   21.3840 C   0  0  0  0  0  2  0  0  0  0  0  0
  -26.0430  -29.4410   20.7250 C   0  0  0  0  0  0  0  0  0  0  0  0
  -27.2300  -28.6520   20.7190 C   0  0  0  0  0  3  0  0  0  0  0  0
  -26.0620  -26.9110   19.5040 C   0  0  0  0  0  3  0  0  0  0  0  0
  -24.8890  -27.6890   19.5060 C   0  0  0  0  0  3  0  0  0  0  0  0
  -23.6350  -29.8170   20.1830 C   0  0  0  0  0  2  0  0  0  0  0  0
  -24.6880  -31.0710   22.1150 N   0  0  0  0  0  0  0  0  0  0  0  0
  -23.5420  -32.1430   23.7570 O   0  0  0  0  0  0  0  0  0  0  0  0
  -22.7660  -29.4530   22.5230 C   0  0  0  0  0  0  0  0  0  0  0  0
  -21.4380  -29.2800   22.4040 N   0  0  0  0  0  0  0  0  0  0  0  0
  -23.4480  -28.8180   23.3300 O   0  0  0  0  0  0  0  0  0  0  0  0
  -20.9480  -29.8480   21.7270 H   0  0  0  0  0  0  0  0  0  0  0  0
  -18.0570  -28.0960   22.9130 C   0  0  0  0  0  0  0  0  0  0  0  0
  -20.6190  -28.3360   23.1680 C   0  0  0  0  0  3  0  0  0  0  0  0
  -20.7090  -26.9130   22.5730 C   0  0  0  0  0  2  0  0  0  0  0  0
  -19.5960  -26.6090   21.5640 C   0  0  0  0  0  2  0  0  0  0  0  0
  -18.2200  -26.7540   22.2200 C   0  0  0  0  0  2  0  0  0  0  0  0
  -19.1850  -28.8460   23.3440 C   0  0  0  0  0  0  0  0  0  0  0  0
  -18.9790  -30.1020   23.9540 C   0  0  0  0  0  3  0  0  0  0  0  0
  -17.6780  -30.6080   24.1390 C   0  0  0  0  0  3  0  0  0  0  0  0
  -16.5660  -29.8550   23.7270 C   0  0  0  0  0  3  0  0  0  0  0  0
  -16.7570  -28.6020   23.1180 C   0  0  0  0  0  3  0  0  0  0  0  0
  -25.9080  -32.5040   23.8440 C   0  0  0  0  0  3  0  0  0  0  0  0
  -26.4230  -31.7260   25.1170 C   0  0  1  0  0  0  0  0  0  0  0  0
  -25.3290  -31.4830   26.1830 C   0  0  0  0  0  1  0  0  0  0  0  0
  -27.0100  -30.3530   24.7180 C   0  0  0  0  0  1  0  0  0  0  0  0
  -27.5720  -32.5190   25.7850 C   0  0  0  0  0  1  0  0  0  0  0  0
  -25.5970  -33.9000   24.1810 N   0  0  0  0  0  0  0  0  0  0  0  0
  -25.9150  -34.9570   23.4230 C   0  0  0  0  0  0  0  0  0  0  0  0
  -26.5700  -34.8590   22.3830 O   0  0  0  0  0  0  0  0  0  0  0  0
  -25.0140  -34.0490   24.9930 H   0  0  0  0  0  0  0  0  0  0  0  0
  -24.1690  -36.7400   23.1020 C   0  0  0  0  0  1  0  0  0  0  0  0
  -25.4270  -36.3410   23.8920 C   0  0  0  0  0  3  0  0  0  0  0  0
  -27.5670  -37.2400   24.6900 C   0  0  0  0  0  1  0  0  0  0  0  0
  -26.4490  -37.4010   23.7630 N   0  0  0  0  0  0  0  0  0  0  0  0
  -26.0400  -38.3190   23.9140 H   0  0  0  0  0  0  0  0  0  0  0  0
  1  3  2  0
  2 51  1  0
  2  1  1  0
  4  2  1  0
  6  8  2  0
  6  9  1  0
  7  5  2  0
  7  1  1  0
  8  7  1  0
  9 21  1  0
  9 10  2  0
 10  5  1  0
 10 12  1  0
 11  8  1  0
 13 21  1  0
 14 19  1  0
 15 16  1  0
 15 14  1  0
 17 16  1  0
 17 26  1  0
 17 18  1  0
 19 13  1  0
 19 18  1  0
 20 13  2  0
 21 22  1  0
 23 24  2  0
 24 43  1  0
 25 24  1  0
 25 28  1  0
 26 27  1  0
 26 23  1  0
 27 25  2  0
 28 29  1  0
 29 30  2  0
 31 34  1  0
 31 30  1  0
 32 31  2  0
 33 32  1  0
 33 28  2  0
 34 35  1  0
 35 36  1  0
 36 37  2  0
 38 37  1  0
 38 42  1  0
 39 38  2  0
 40 35  2  0
 40 39  1  0
 41 40  1  0
 43 44  1  0
 44 47  1  0
 44 46  1  0
 45 43  2  0
 48 23  1  0
 48 49  1  0
 50 48  1  0
 52 53  1  0
 52 51  2  0
 54 65  2  0
 55 53  1  0
 55 60  1  0
 56 64  1  0
 56 66  1  0
 57 63  1  0
 57 59  1  0
 58 64  1  0
 59 58  1  0
 60 59  2  0
 61 62  1  0
 61 55  2  0
 62 57  2  0
 63 56  1  0
 64 54  1  0
 66 68  2  0
 67 66  1  0
 69 67  1  0
 70 79  2  0
 70 75  1  0
 71 67  1  0
 71 75  1  0
 72 71  1  0
 73 74  1  0
 73 72  1  0
 74 70  1  0
 75 76  2  0
 76 77  1  0
 78 77  2  0
 79 78  1  0
 80 54  1  0
 80 85  1  0
 80 81  1  0
 81 84  1  1
 81 82  1  0
 83 81  1  0
 85 88  1  0
 86 90  1  0
 86 85  1  0
 87 86  2  0
 90 89  1  0
 92 90  1  0
 92 93  1  0
 92 91  1  0
M  ISO  4  13 100  21 100  52 101  53 101
M  END
>  <TORSDO>  (26) 
F 19

>  <SCORE>  (26) 
-14.483

>  <name>  (26) 
25

>  <ligand_id>  (26) 
25

>  <original_smiles>  (26) 
[H]c1c([H])c([H])c2c(c1[H])C([H])([H])C([H])([H])C([H])([H])C2([H])N([H])C(=O)C1([H])N(C(=O)C([H])(N([H])C(=O)C([H])(N([H])C([H])([H])[H])C([H])([H])[H])C(C([H])([H])[H])(C([H])([H])[H])C([H])([H])[H])C([H])([H])c2c([H])c(OC([H])([H])C([H])([H])N([H])C(=O)c3c([H])c(F)c(N([H])C(=O)N4C([H])([H])C([H])([H])C([H])([H])C([H])(n5nc(-c6c([H])c([H])c(Oc7c([H])c([H])c(F)c([H])c7F)c([H])c6[H])c(C(=O)N([H])[H])c5N([H])[H])C4([H])[H])c([H])c3C([H])([H])[H])c([H])c([H])c2C1([H])[H]

>  <smiles>  (26) 
[H]c1c([H])c([H])c2c(c1[H])C([H])([H])C([H])([H])C([H])([H])C2([H])N([H])C(=O)C1([H])N(C(=O)C([H])(N([H])C(=O)C([H])(N([H])C([H])([H])[H])C([H])([H])[H])C(C([H])([H])[H])(C([H])([H])[H])C([H])([H])[H])C([H])([H])c2c([H])c(OC([H])([H])C([H])([H])N([H])C(=O)c3c([H])c(F)c(N([H])C(=O)N4C([H])([H])C([H])([H])C([H])([H])C([H])(n5nc(-c6c([H])c([H])c(Oc7c([H])c([H])c(F)c([H])c7F)c([H])c6[H])c(C(=O)N([H])[H])c5N([H])[H])C4([H])[H])c([H])c3C([H])([H])[H])c([H])c([H])c2C1([H])[H]

$$$$
26:0:0
     RDKit          3D

 93101  0  0  1  0  0  0  0  0999 V2000
  -30.0050  -21.5570   20.0040 N   0  0  0  0  0  0  0  0  0  0  0  0
  -30.9040  -22.0380   20.0250 H   0  0  0  0  0  0  0  0  0  0  0  0
  -28.8690  -19.2820   20.0670 C   0  0  0  0  0  3  0  0  0  0  0  0
  -28.9770  -17.8560   20.1490 C   0  0  0  0  0  3  0  0  0  0  0  0
  -31.2620  -19.4380   20.0940 C   0  0  0  0  0  3  0  0  0  0  0  0
  -30.0160  -20.1190   20.0540 C   0  0  0  0  0  0  0  0  0  0  0  0
  -30.2270  -17.1760   20.2310 C   0  0  0  0  0  0  0  0  0  0  0  0
  -31.3770  -18.0190   20.1910 C   0  0  0  0  0  0  0  0  0  0  0  0
  -32.9720  -17.3710   20.3620 Cl  0  0  0  0  0  0  0  0  0  0  0  0
  -30.6660  -14.7550   19.6500 C   0  0  0  0  0  0  0  0  0  0  0  0
  -30.1610  -12.6400   18.4190 C   0  0  0  0  0  2  0  0  0  0  0  0
  -29.0480  -12.8490   17.3680 C   0  0  0  0  0  2  0  0  0  0  0  0
  -27.6670  -12.6210   18.0030 C   0  0  0  0  0  2  0  0  0  0  0  0
  -27.5000  -13.4060   19.3250 C   0  0  0  0  0  3  0  0  0  0  0  0
  -28.7110  -13.2050   20.2600 C   0  0  0  0  0  2  0  0  0  0  0  0
  -29.9370  -13.5870   19.5380 N   0  0  0  0  0  0  0  0  0  0  0  0
  -31.6360  -14.9350   18.9100 O   0  0  0  0  0  0  0  0  0  0  0  0
  -30.2940  -15.7360   20.5580 N   0  0  0  0  0  0  0  0  0  0  0  0
  -25.2660  -13.9370   20.4790 C   0  0  0  0  0  0  0  0  0  0  0  0
  -24.2670  -13.1340   20.9590 C   0  0  0  0  0  0  0  0  0  0  0  0
  -24.7040  -11.7910   20.7420 C   0  0  0  0  0  0  0  0  0  0  0  0
  -26.2460  -13.0810   20.0000 N   0  0  0  0  0  0  0  0  0  0  0  0
  -25.9260  -11.7810   20.2230 N   0  0  0  0  0  0  0  0  0  0  0  0
  -24.0070  -10.5160   20.9500 C   0  0  0  0  0  0  0  0  0  0  0  0
  -24.5050   -9.5340   21.8340 C   0  0  0  0  0  3  0  0  0  0  0  0
  -23.8050   -8.3240   22.0270 C   0  0  0  0  0  3  0  0  0  0  0  0
  -22.5940   -8.0860   21.3360 C   0  0  0  0  0  0  0  0  0  0  0  0
  -22.1150   -9.0570   20.4380 C   0  0  0  0  0  3  0  0  0  0  0  0
  -22.8150  -10.2590   20.2440 C   0  0  0  0  0  3  0  0  0  0  0  0
  -21.8620   -6.9290   21.4410 O   0  0  0  0  0  0  0  0  0  0  0  0
  -21.7970   -6.2190   22.6140 C   0  0  0  0  0  0  0  0  0  0  0  0
  -21.3350   -6.8030   23.8120 C   0  0  0  0  0  3  0  0  0  0  0  0
  -21.2180   -6.0190   24.9780 C   0  0  0  0  0  3  0  0  0  0  0  0
  -21.5540   -4.6530   24.9470 C   0  0  0  0  0  0  0  0  0  0  0  0
  -22.0120   -4.0690   23.7530 C   0  0  0  0  0  3  0  0  0  0  0  0
  -22.1310   -4.8490   22.5890 C   0  0  0  0  0  0  0  0  0  0  0  0
  -22.5500   -4.2750   21.4340 F   0  0  0  0  0  0  0  0  0  0  0  0
  -21.4370   -3.8990   26.0640 F   0  0  0  0  0  0  0  0  0  0  0  0
  -22.9380  -13.5830   21.4930 C   0  0  0  0  0  0  0  0  0  0  0  0
  -22.3670  -12.8380   22.4320 N   0  0  0  0  0  0  0  0  0  0  0  0
  -22.4210  -14.6330   21.1120 O   0  0  0  0  0  0  0  0  0  0  0  0
  -22.8050  -11.9920   22.7650 H   0  0  0  0  0  0  0  0  0  0  0  0
  -21.4810  -13.1230   22.8280 H   0  0  0  0  0  0  0  0  0  0  0  0
  -25.4120  -15.3180   20.3910 N   0  0  0  0  0  0  0  0  0  0  0  0
  -24.6820  -15.9560   20.6910 H   0  0  0  0  0  0  0  0  0  0  0  0
  -26.1980  -15.7900   19.9660 H   0  0  0  0  0  0  0  0  0  0  0  0
  -30.7850  -16.5890   22.9440 C   0  0  0  0  0  1  0  0  0  0  0  0
  -30.5320  -15.4010   21.9900 C   0  0  0  0  0  2  0  0  0  0  0  0
  -28.8430  -22.4980   20.1370 C   0  0  0  0  0  2  0  0  0  0  0  0
  -29.1690  -24.0550   20.1730 C   0  0  0  0  0  0  0  0  0  0  0  0
  -30.3410  -24.4350   20.2540 O   0  0  0  0  0  0  0  0  0  0  0  0
  -27.9780  -25.0910   20.0840 C   0  0  0  0  0  2  0  0  0  0  0  0
  -28.2750  -26.5500   20.1330 O   0  0  0  0  0  0  0  0  0  0  0  0
  -24.5740  -31.9390   23.2350 C   0  0  0  0  0  0  0  0  0  0  0  0
  -27.1560  -27.4060   20.1090 C   0  0  0  0  0  0  0  0  0  0  0  0
  -23.3460  -30.5420   21.6140 C   0  0  0  0  0  3  0  0  0  0  0  0
  -24.7800  -29.0080   20.1540 C   0  0  0  0  0  0  0  0  0  0  0  0
  -25.8800  -30.8750   21.3850 C   0  0  0  0  0  2  0  0  0  0  0  0
  -25.9570  -29.4990   20.7320 C   0  0  0  0  0  0  0  0  0  0  0  0
  -27.1490  -28.7090   20.7010 C   0  0  0  0  0  3  0  0  0  0  0  0
  -25.9490  -26.9790   19.5030 C   0  0  0  0  0  3  0  0  0  0  0  0
  -24.7800  -27.7530   19.5280 C   0  0  0  0  0  3  0  0  0  0  0  0
  -23.5380  -29.8710   20.2280 C   0  0  0  0  0  2  0  0  0  0  0  0
  -24.6200  -31.1340   22.1340 N   0  0  0  0  0  0  0  0  0  0  0  0
  -23.5000  -32.2070   23.7910 O   0  0  0  0  0  0  0  0  0  0  0  0
  -22.7030  -29.5200   22.5830 C   0  0  0  0  0  0  0  0  0  0  0  0
  -21.3770  -29.3270   22.4700 N   0  0  0  0  0  0  0  0  0  0  0  0
  -23.3970  -28.9050   23.3970 O   0  0  0  0  0  0  0  0  0  0  0  0
  -20.8740  -29.8740   21.7850 H   0  0  0  0  0  0  0  0  0  0  0  0
  -18.0190  -28.0980   23.0160 C   0  0  0  0  0  0  0  0  0  0  0  0
  -20.5790  -28.3820   23.2530 C   0  0  0  0  0  3  0  0  0  0  0  0
  -20.6880  -26.9520   22.6790 C   0  0  0  0  0  2  0  0  0  0  0  0
  -19.5750  -26.6160   21.6800 C   0  0  0  0  0  2  0  0  0  0  0  0
  -18.2000  -26.7490   22.3410 C   0  0  0  0  0  2  0  0  0  0  0  0
  -19.1350  -28.8710   23.4300 C   0  0  0  0  0  0  0  0  0  0  0  0
  -18.9120  -30.1330   24.0230 C   0  0  0  0  0  3  0  0  0  0  0  0
  -17.6040  -30.6220   24.2060 C   0  0  0  0  0  3  0  0  0  0  0  0
  -16.5020  -29.8460   23.8050 C   0  0  0  0  0  3  0  0  0  0  0  0
  -16.7100  -28.5860   23.2170 C   0  0  0  0  0  3  0  0  0  0  0  0
  -25.8650  -32.5760   23.8340 C   0  0  0  0  0  3  0  0  0  0  0  0
  -25.5510  -33.9640   24.2000 N   0  0  0  0  0  0  0  0  0  0  0  0
  -25.8370  -35.0340   23.4450 C   0  0  0  0  0  0  0  0  0  0  0  0
  -26.4640  -34.9550   22.3850 O   0  0  0  0  0  0  0  0  0  0  0  0
  -24.9930  -34.0960   25.0310 H   0  0  0  0  0  0  0  0  0  0  0  0
  -24.0740  -36.8080   23.1880 C   0  0  0  0  0  1  0  0  0  0  0  0
  -25.3520  -36.4090   23.9440 C   0  0  0  0  0  3  0  0  0  0  0  0
  -27.5050  -37.3110   24.7040 C   0  0  0  0  0  1  0  0  0  0  0  0
  -26.3640  -37.4770   23.8060 N   0  0  0  0  0  0  0  0  0  0  0  0
  -25.9530  -38.3900   23.9840 H   0  0  0  0  0  0  0  0  0  0  0  0
  -26.4250  -31.7840   25.0800 C   0  0  1  0  0  0  0  0  0  0  0  0
  -25.3650  -31.5080   26.1710 C   0  0  0  0  0  1  0  0  0  0  0  0
  -27.0170  -30.4240   24.6420 C   0  0  0  0  0  1  0  0  0  0  0  0
  -27.5820  -32.5810   25.7270 C   0  0  0  0  0  1  0  0  0  0  0  0
  1  2  1  0
  1  6  1  0
  1 49  1  0
  3  4  1  0
  4  7  2  0
  5  8  2  0
  6  3  2  0
  6  5  1  0
  7 18  1  0
  8  7  1  0
  8  9  1  0
 10 18  1  0
 11 16  1  0
 12 13  1  0
 12 11  1  0
 14 13  1  0
 14 22  1  0
 14 15  1  0
 16 10  1  0
 16 15  1  0
 17 10  2  0
 18 48  1  0
 19 20  2  0
 20 39  1  0
 21 24  1  0
 21 20  1  0
 22 23  1  0
 22 19  1  0
 23 21  2  0
 24 25  1  0
 25 26  2  0
 27 30  1  0
 27 26  1  0
 28 27  2  0
 29 28  1  0
 29 24  2  0
 30 31  1  0
 31 32  1  0
 32 33  2  0
 34 33  1  0
 34 38  1  0
 35 34  2  0
 36 31  2  0
 36 35  1  0
 37 36  1  0
 39 40  1  0
 40 42  1  0
 40 43  1  0
 41 39  2  0
 44 19  1  0
 44 45  1  0
 46 44  1  0
 48 47  1  0
 49 50  1  0
 50 51  2  0
 52 53  1  0
 52 50  1  0
 54 65  2  0
 55 53  1  0
 55 60  1  0
 56 64  1  0
 56 66  1  0
 57 63  1  0
 57 59  1  0
 58 64  1  0
 59 58  1  0
 60 59  2  0
 61 62  1  0
 61 55  2  0
 62 57  2  0
 63 56  1  0
 64 54  1  0
 66 68  2  0
 67 66  1  0
 69 67  1  0
 70 79  2  0
 70 75  1  0
 71 67  1  0
 71 75  1  0
 72 71  1  0
 73 74  1  0
 73 72  1  0
 74 70  1  0
 75 76  2  0
 76 77  1  0
 78 77  2  0
 79 78  1  0
 80 54  1  0
 80 81  1  0
 80 90  1  0
 81 84  1  0
 82 86  1  0
 82 81  1  0
 83 82  2  0
 86 85  1  0
 88 86  1  0
 88 89  1  0
 88 87  1  0
 90 93  1  1
 90 91  1  0
 92 90  1  0
M  ISO  4  10 100  18 100  52 101  53 101
M  END
>  <TORSDO>  (27) 
F 21

>  <SCORE>  (27) 
-11.672

>  <name>  (27) 
26

>  <ligand_id>  (27) 
26

>  <original_smiles>  (27) 
[H]c1c([H])c([H])c2c(c1[H])C([H])([H])C([H])([H])C([H])([H])C2([H])N([H])C(=O)C1([H])N(C(=O)C([H])(N([H])C(=O)C([H])(N([H])C([H])([H])[H])C([H])([H])[H])C(C([H])([H])[H])(C([H])([H])[H])C([H])([H])[H])C([H])([H])c2c([H])c(OC([H])([H])C(=O)C([H])([H])N([H])c3c([H])c([H])c(N(C(=O)N4C([H])([H])C([H])([H])C([H])([H])C([H])(n5nc(-c6c([H])c([H])c(Oc7c([H])c([H])c(F)c([H])c7F)c([H])c6[H])c(C(=O)N([H])[H])c5N([H])[H])C4([H])[H])C([H])([H])C([H])([H])[H])c(Cl)c3[H])c([H])c([H])c2C1([H])[H]

>  <smiles>  (27) 
[H]c1c([H])c([H])c2c(c1[H])C([H])([H])C([H])([H])C([H])([H])C2([H])N([H])C(=O)C1([H])N(C(=O)C([H])(N([H])C(=O)C([H])(N([H])C([H])([H])[H])C([H])([H])[H])C(C([H])([H])[H])(C([H])([H])[H])C([H])([H])[H])C([H])([H])c2c([H])c(OC([H])([H])C(=O)C([H])([H])N([H])c3c([H])c([H])c(N(C(=O)N4C([H])([H])C([H])([H])C([H])([H])C([H])(n5nc(-c6c([H])c([H])c(Oc7c([H])c([H])c(F)c([H])c7F)c([H])c6[H])c(C(=O)N([H])[H])c5N([H])[H])C4([H])[H])C([H])([H])C([H])([H])[H])c(Cl)c3[H])c([H])c([H])c2C1([H])[H]

$$$$
27:0:0
     RDKit          3D

 95104  0  0  1  0  0  0  0  0999 V2000
  -27.9140  -23.6970   19.0260 C   0  0  0  0  0  2  0  0  0  0  0  0
  -28.3080  -22.2130   18.8680 C   0  0  0  0  0  2  0  0  0  0  0  0
  -29.0380  -22.9950   20.9930 C   0  0  0  0  0  2  0  0  0  0  0  0
  -28.8410  -24.2530   20.1110 C   0  0  0  0  0  3  0  0  0  0  0  0
  -29.0920  -21.8280   20.0700 N   0  0  1  0  0  4  0  0  0  0  0  0
  -30.0480  -21.7590   19.7550 H   0  0  0  0  0  0  0  0  0  0  0  0
  -28.7730  -20.4900   20.6750 C   0  0  0  0  0  2  0  0  0  0  0  0
  -29.5610  -18.0340   20.5290 C   0  0  0  0  0  3  0  0  0  0  0  0
  -31.2320  -19.8050   20.4520 C   0  0  0  0  0  3  0  0  0  0  0  0
  -31.9240  -17.4700   20.3700 C   0  0  0  0  0  3  0  0  0  0  0  0
  -29.8750  -19.4230   20.5240 C   0  0  0  0  0  0  0  0  0  0  0  0
  -30.5770  -17.0420   20.4480 C   0  0  0  0  0  0  0  0  0  0  0  0
  -32.2600  -18.8470   20.3670 C   0  0  0  0  0  0  0  0  0  0  0  0
  -30.9320  -14.5660   20.0910 C   0  0  0  0  0  0  0  0  0  0  0  0
  -30.6030  -12.3230   19.1190 C   0  0  0  0  0  2  0  0  0  0  0  0
  -29.6330  -12.4580   17.9270 C   0  0  0  0  0  2  0  0  0  0  0  0
  -28.1710  -12.3350   18.4060 C   0  0  0  0  0  2  0  0  0  0  0  0
  -27.8670  -13.2440   19.6270 C   0  0  0  0  0  3  0  0  0  0  0  0
  -28.9590  -13.1160   20.7150 C   0  0  0  0  0  2  0  0  0  0  0  0
  -30.2600  -13.3810   20.0820 N   0  0  0  0  0  0  0  0  0  0  0  0
  -32.0580  -14.6810   19.5980 O   0  0  0  0  0  0  0  0  0  0  0  0
  -30.2170  -15.6460   20.4980 N   0  0  0  0  0  0  0  0  0  0  0  0
  -29.2690  -15.4370   20.7690 H   0  0  0  0  0  0  0  0  0  0  0  0
  -25.5280  -13.8900   20.4700 C   0  0  0  0  0  0  0  0  0  0  0  0
  -24.4560  -13.1360   20.8700 C   0  0  0  0  0  0  0  0  0  0  0  0
  -24.8750  -11.7740   20.7760 C   0  0  0  0  0  0  0  0  0  0  0  0
  -26.5320  -12.9880   20.1640 N   0  0  0  0  0  0  0  0  0  0  0  0
  -26.1490  -11.7080   20.4060 N   0  0  0  0  0  0  0  0  0  0  0  0
  -24.1230  -10.5270   20.9610 C   0  0  0  0  0  0  0  0  0  0  0  0
  -24.5250   -9.5560   21.9050 C   0  0  0  0  0  3  0  0  0  0  0  0
  -23.7750   -8.3740   22.0790 C   0  0  0  0  0  3  0  0  0  0  0  0
  -22.6060   -8.1550   21.3110 C   0  0  0  0  0  0  0  0  0  0  0  0
  -22.2230   -9.1140   20.3580 C   0  0  0  0  0  3  0  0  0  0  0  0
  -22.9740  -10.2880   20.1810 C   0  0  0  0  0  3  0  0  0  0  0  0
  -21.8290   -7.0250   21.3910 O   0  0  0  0  0  0  0  0  0  0  0  0
  -21.6890   -6.3320   22.5660 C   0  0  0  0  0  0  0  0  0  0  0  0
  -21.1610   -6.9330   23.7300 C   0  0  0  0  0  3  0  0  0  0  0  0
  -20.9720   -6.1650   24.8960 C   0  0  0  0  0  3  0  0  0  0  0  0
  -21.2980   -4.7950   24.8980 C   0  0  0  0  0  0  0  0  0  0  0  0
  -21.8180   -4.1940   23.7380 C   0  0  0  0  0  3  0  0  0  0  0  0
  -22.0090   -4.9600   22.5750 C   0  0  0  0  0  0  0  0  0  0  0  0
  -22.4900   -4.3700   21.4540 F   0  0  0  0  0  0  0  0  0  0  0  0
  -21.1110   -4.0540   26.0150 F   0  0  0  0  0  0  0  0  0  0  0  0
  -23.0890  -13.6440   21.2260 C   0  0  0  0  0  0  0  0  0  0  0  0
  -22.3830  -12.9420   22.1040 N   0  0  0  0  0  0  0  0  0  0  0  0
  -22.6590  -14.6990   20.7590 O   0  0  0  0  0  0  0  0  0  0  0  0
  -22.7450  -12.0880   22.5000 H   0  0  0  0  0  0  0  0  0  0  0  0
  -21.4680  -13.2650   22.3880 H   0  0  0  0  0  0  0  0  0  0  0  0
  -25.7200  -15.2600   20.3180 N   0  0  0  0  0  0  0  0  0  0  0  0
  -24.9610  -15.9190   20.4550 H   0  0  0  0  0  0  0  0  0  0  0  0
  -26.5510  -15.6850   19.9270 H   0  0  0  0  0  0  0  0  0  0  0  0
  -34.5890  -18.4460   19.9270 C   0  0  0  0  0  1  0  0  0  0  0  0
  -33.5460  -19.3360   20.3070 O   0  0  0  0  0  0  0  0  0  0  0  0
  -28.3020  -25.5050   20.8620 C   0  0  0  0  0  2  0  0  0  0  0  0
  -28.4080  -26.7470   20.1300 O   0  0  0  0  0  0  0  0  0  0  0  0
  -24.5870  -31.9180   23.2410 C   0  0  0  0  0  0  0  0  0  0  0  0
  -27.2600  -27.5120   20.1260 C   0  0  0  0  0  0  0  0  0  0  0  0
  -23.3940  -30.5230   21.5850 C   0  0  0  0  0  3  0  0  0  0  0  0
  -24.8600  -29.0090   20.1450 C   0  0  0  0  0  0  0  0  0  0  0  0
  -25.9190  -30.9000   21.3900 C   0  0  0  0  0  2  0  0  0  0  0  0
  -26.0170  -29.5360   20.7340 C   0  0  0  0  0  0  0  0  0  0  0  0
  -27.2260  -28.8000   20.7130 C   0  0  0  0  0  3  0  0  0  0  0  0
  -26.0880  -27.0010   19.5310 C   0  0  0  0  0  3  0  0  0  0  0  0
  -24.8920  -27.7410   19.5380 C   0  0  0  0  0  3  0  0  0  0  0  0
  -23.6090  -29.8560   20.2000 C   0  0  0  0  0  2  0  0  0  0  0  0
  -24.6530  -31.1280   22.1300 N   0  0  0  0  0  0  0  0  0  0  0  0
  -23.5030  -32.1760   23.7830 O   0  0  0  0  0  0  0  0  0  0  0  0
  -22.7490  -29.4880   22.5370 C   0  0  0  0  0  0  0  0  0  0  0  0
  -21.4260  -29.2990   22.4060 N   0  0  0  0  0  0  0  0  0  0  0  0
  -23.4360  -28.8580   23.3450 O   0  0  0  0  0  0  0  0  0  0  0  0
  -20.9350  -29.8570   21.7210 H   0  0  0  0  0  0  0  0  0  0  0  0
  -18.0590  -28.0730   22.8820 C   0  0  0  0  0  0  0  0  0  0  0  0
  -20.6130  -28.3470   23.1640 C   0  0  0  0  0  3  0  0  0  0  0  0
  -20.7280  -26.9230   22.5740 C   0  0  0  0  0  2  0  0  0  0  0  0
  -19.6310  -26.6020   21.5530 C   0  0  0  0  0  2  0  0  0  0  0  0
  -18.2470  -26.7310   22.1950 C   0  0  0  0  0  2  0  0  0  0  0  0
  -19.1700  -28.8390   23.3220 C   0  0  0  0  0  0  0  0  0  0  0  0
  -18.9390  -30.0970   23.9220 C   0  0  0  0  0  3  0  0  0  0  0  0
  -17.6310  -30.5860   24.0890 C   0  0  0  0  0  3  0  0  0  0  0  0
  -16.5340  -29.8150   23.6670 C   0  0  0  0  0  3  0  0  0  0  0  0
  -16.7490  -28.5610   23.0690 C   0  0  0  0  0  3  0  0  0  0  0  0
  -25.8670  -32.5520   23.8690 C   0  0  0  0  0  3  0  0  0  0  0  0
  -26.3770  -31.7860   25.1510 C   0  0  1  0  0  0  0  0  0  0  0  0
  -25.2770  -31.5460   26.2110 C   0  0  0  0  0  1  0  0  0  0  0  0
  -26.9660  -30.4110   24.7640 C   0  0  0  0  0  1  0  0  0  0  0  0
  -27.5220  -32.5850   25.8160 C   0  0  0  0  0  1  0  0  0  0  0  0
  -25.5550  -33.9520   24.1900 N   0  0  0  0  0  0  0  0  0  0  0  0
  -25.8980  -35.0020   23.4310 C   0  0  0  0  0  0  0  0  0  0  0  0
  -26.5800  -34.8940   22.4090 O   0  0  0  0  0  0  0  0  0  0  0  0
  -24.9490  -34.1080   24.9820 H   0  0  0  0  0  0  0  0  0  0  0  0
  -24.1800  -36.7970   23.0390 C   0  0  0  0  0  1  0  0  0  0  0  0
  -25.4040  -36.3920   23.8760 C   0  0  0  0  0  3  0  0  0  0  0  0
  -27.5220  -37.2740   24.7520 C   0  0  0  0  0  1  0  0  0  0  0  0
  -26.4420  -37.4420   23.7830 N   0  0  0  0  0  0  0  0  0  0  0  0
  -26.0360  -38.3640   23.9170 H   0  0  0  0  0  0  0  0  0  0  0  0
  1  4  1  0
  2  1  1  0
  2  5  1  0
  4 54  1  0
  4  3  1  0
  5  7  1  0
  5  3  1  0
  5  6  1  6
  9 11  2  0
 10 12  1  0
 11  8  1  0
 11  7  1  0
 12 22  1  0
 12  8  2  0
 13 10  2  0
 13  9  1  0
 14 22  1  0
 15 20  1  0
 16 17  1  0
 16 15  1  0
 18 17  1  0
 18 27  1  0
 18 19  1  0
 20 14  1  0
 20 19  1  0
 21 14  2  0
 22 23  1  0
 24 25  2  0
 25 44  1  0
 26 25  1  0
 26 29  1  0
 27 28  1  0
 27 24  1  0
 28 26  2  0
 29 30  1  0
 30 31  2  0
 32 35  1  0
 32 31  1  0
 33 32  2  0
 34 33  1  0
 34 29  2  0
 35 36  1  0
 36 41  2  0
 36 37  1  0
 37 38  2  0
 38 39  1  0
 39 43  1  0
 40 39  2  0
 41 40  1  0
 42 41  1  0
 44 45  1  0
 45 48  1  0
 45 47  1  0
 46 44  2  0
 49 50  1  0
 49 24  1  0
 51 49  1  0
 52 53  1  0
 53 13  1  0
 55 54  1  0
 56 67  2  0
 57 55  1  0
 57 62  1  0
 58 66  1  0
 58 68  1  0
 59 65  1  0
 59 61  1  0
 60 66  1  0
 61 60  1  0
 62 61  2  0
 63 64  1  0
 63 57  2  0
 64 59  2  0
 65 58  1  0
 66 56  1  0
 68 70  2  0
 69 68  1  0
 71 69  1  0
 72 81  2  0
 72 77  1  0
 73 69  1  0
 73 77  1  0
 74 73  1  0
 75 76  1  0
 75 74  1  0
 76 72  1  0
 77 78  2  0
 78 79  1  0
 80 79  2  0
 81 80  1  0
 82 56  1  0
 82 87  1  0
 82 83  1  0
 83 86  1  1
 83 84  1  0
 85 83  1  0
 87 90  1  0
 88 92  1  0
 88 87  1  0
 89 88  2  0
 92 91  1  0
 94 92  1  0
 94 95  1  0
 94 93  1  0
M  ISO  4  14 100  22 100  54 101  55 101
M  END
>  <TORSDO>  (28) 
F 20

>  <SCORE>  (28) 
-13.919

>  <name>  (28) 
27

>  <ligand_id>  (28) 
27

>  <original_smiles>  (28) 
[H]c1c([H])c([H])c2c(c1[H])C([H])([H])C([H])([H])C([H])([H])C2([H])N([H])C(=O)C1([H])N(C(=O)C([H])(N([H])C(=O)C([H])(N([H])C([H])([H])[H])C([H])([H])[H])C(C([H])([H])[H])(C([H])([H])[H])C([H])([H])[H])C([H])([H])c2c([H])c(OC([H])([H])C3([H])C([H])([H])C([H])([H])[N+]([H])(C([H])([H])c4c([H])c(OC([H])([H])[H])c([H])c(N([H])C(=O)N5C([H])([H])C([H])([H])C([H])([H])C([H])(n6nc(-c7c([H])c([H])c(Oc8c([H])c([H])c(F)c([H])c8F)c([H])c7[H])c(C(=O)N([H])[H])c6N([H])[H])C5([H])[H])c4[H])C3([H])[H])c([H])c([H])c2C1([H])[H]

>  <smiles>  (28) 
[H]c1c([H])c([H])c2c(c1[H])C([H])([H])C([H])([H])C([H])([H])C2([H])N([H])C(=O)C1([H])N(C(=O)C([H])(N([H])C(=O)C([H])(N([H])C([H])([H])[H])C([H])([H])[H])C(C([H])([H])[H])(C([H])([H])[H])C([H])([H])[H])C([H])([H])c2c([H])c(OC([H])([H])C3([H])C([H])([H])C([H])([H])[N+]([H])(C([H])([H])c4c([H])c(OC([H])([H])[H])c([H])c(N([H])C(=O)N5C([H])([H])C([H])([H])C([H])([H])C([H])(n6nc(-c7c([H])c([H])c(Oc8c([H])c([H])c(F)c([H])c8F)c([H])c7[H])c(C(=O)N([H])[H])c6N([H])[H])C5([H])[H])c4[H])C3([H])[H])c([H])c([H])c2C1([H])[H]

$$$$
28:0:0
     RDKit          3D

 92100  0  0  1  0  0  0  0  0999 V2000
  -28.8000  -18.0320   20.6260 C   0  0  0  0  0  3  0  0  0  0  0  0
  -28.7730  -19.4600   20.6600 C   0  0  0  0  0  3  0  0  0  0  0  0
  -31.1360  -18.0370   21.1880 C   0  0  0  0  0  3  0  0  0  0  0  0
  -29.9940  -17.2730   20.8320 C   0  0  0  0  0  0  0  0  0  0  0  0
  -29.9400  -20.2180   20.9340 C   0  0  0  0  0  0  0  0  0  0  0  0
  -31.1060  -19.4630   21.2410 C   0  0  0  0  0  0  0  0  0  0  0  0
  -32.2520  -20.1230   21.5420 F   0  0  0  0  0  0  0  0  0  0  0  0
  -30.7300  -14.8170   21.0770 C   0  0  0  0  0  0  0  0  0  0  0  0
  -30.6570  -12.4470   20.3030 C   0  0  0  0  0  2  0  0  0  0  0  0
  -29.8530  -12.3140   18.9880 C   0  0  0  0  0  2  0  0  0  0  0  0
  -28.3400  -12.2170   19.2580 C   0  0  0  0  0  2  0  0  0  0  0  0
  -27.8200  -13.2250   20.3180 C   0  0  0  0  0  3  0  0  0  0  0  0
  -28.7530  -13.3000   21.5440 C   0  0  0  0  0  2  0  0  0  0  0  0
  -30.1040  -13.5910   21.0480 N   0  0  0  0  0  0  0  0  0  0  0  0
  -31.9550  -14.8760   21.1850 O   0  0  0  0  0  0  0  0  0  0  0  0
  -29.9650  -15.7700   19.0680 C   0  0  0  0  0  0  0  0  0  0  0  0
  -31.2160  -15.4940   18.2200 C   0  0  0  0  0  1  0  0  0  0  0  0
  -30.0750  -15.8570   20.4210 N   0  0  0  0  0  0  0  0  0  0  0  0
  -28.9010  -15.9790   18.4770 O   0  0  0  0  0  0  0  0  0  0  0  0
  -25.3710  -13.8530   20.7560 C   0  0  0  0  0  0  0  0  0  0  0  0
  -24.2660  -13.0920   21.0210 C   0  0  0  0  0  0  0  0  0  0  0  0
  -24.7250  -11.7400   21.0900 C   0  0  0  0  0  0  0  0  0  0  0  0
  -26.4310  -12.9630   20.6750 N   0  0  0  0  0  0  0  0  0  0  0  0
  -26.0420  -11.6920   20.9420 N   0  0  0  0  0  0  0  0  0  0  0  0
  -23.9800  -10.4830   21.2260 C   0  0  0  0  0  0  0  0  0  0  0  0
  -24.3310   -9.5210   22.1980 C   0  0  0  0  0  3  0  0  0  0  0  0
  -23.5900   -8.3270   22.3240 C   0  0  0  0  0  3  0  0  0  0  0  0
  -22.4820   -8.0880   21.4760 C   0  0  0  0  0  0  0  0  0  0  0  0
  -22.1520   -9.0370   20.4940 C   0  0  0  0  0  3  0  0  0  0  0  0
  -22.8950  -10.2230   20.3660 C   0  0  0  0  0  3  0  0  0  0  0  0
  -21.7180   -6.9470   21.5110 O   0  0  0  0  0  0  0  0  0  0  0  0
  -21.6000   -6.1940   22.6520 C   0  0  0  0  0  0  0  0  0  0  0  0
  -21.1070   -6.7400   23.8570 C   0  0  0  0  0  3  0  0  0  0  0  0
  -20.9380   -5.9130   24.9860 C   0  0  0  0  0  3  0  0  0  0  0  0
  -21.2520   -4.5430   24.9100 C   0  0  0  0  0  0  0  0  0  0  0  0
  -21.7390   -3.9970   23.7100 C   0  0  0  0  0  3  0  0  0  0  0  0
  -21.9100   -4.8210   22.5820 C   0  0  0  0  0  0  0  0  0  0  0  0
  -22.3590   -4.2850   21.4220 F   0  0  0  0  0  0  0  0  0  0  0  0
  -21.0820   -3.7480   25.9920 F   0  0  0  0  0  0  0  0  0  0  0  0
  -22.8470  -13.5750   21.1060 C   0  0  0  0  0  0  0  0  0  0  0  0
  -22.0230  -12.9160   21.9140 N   0  0  0  0  0  0  0  0  0  0  0  0
  -22.4720  -14.5720   20.4900 O   0  0  0  0  0  0  0  0  0  0  0  0
  -22.3360  -12.1100   22.4350 H   0  0  0  0  0  0  0  0  0  0  0  0
  -21.0660  -13.2230   22.0130 H   0  0  0  0  0  0  0  0  0  0  0  0
  -25.5600  -15.2170   20.5500 N   0  0  0  0  0  0  0  0  0  0  0  0
  -24.7870  -15.8710   20.5280 H   0  0  0  0  0  0  0  0  0  0  0  0
  -26.4390  -15.6260   20.2580 H   0  0  0  0  0  0  0  0  0  0  0  0
  -30.0260  -21.6290   20.9300 O   0  0  0  0  0  0  0  0  0  0  0  0
  -28.9530  -22.5000   20.4520 C   0  0  0  0  0  2  0  0  0  0  0  0
  -29.2860  -24.0610   20.5020 C   0  0  0  0  0  3  0  0  0  0  0  0
  -28.1620  -25.0760   20.0250 C   0  0  0  0  0  3  0  0  0  0  0  0
  -28.3830  -26.5370   20.1230 O   0  0  0  0  0  0  0  0  0  0  0  0
  -24.6030  -31.8600   23.1810 C   0  0  0  0  0  0  0  0  0  0  0  0
  -27.2530  -27.3710   20.0700 C   0  0  0  0  0  0  0  0  0  0  0  0
  -23.4070  -30.4650   21.5310 C   0  0  0  0  0  3  0  0  0  0  0  0
  -24.8670  -28.9510   20.0810 C   0  0  0  0  0  0  0  0  0  0  0  0
  -25.9400  -30.8180   21.3390 C   0  0  0  0  0  2  0  0  0  0  0  0
  -26.0340  -29.4490   20.6780 C   0  0  0  0  0  0  0  0  0  0  0  0
  -27.2290  -28.6720   20.6610 C   0  0  0  0  0  3  0  0  0  0  0  0
  -26.0620  -26.9280   19.4460 C   0  0  0  0  0  3  0  0  0  0  0  0
  -24.8840  -27.6960   19.4570 C   0  0  0  0  0  3  0  0  0  0  0  0
  -23.6210  -29.8090   20.1440 C   0  0  0  0  0  2  0  0  0  0  0  0
  -24.6690  -31.0640   22.0740 N   0  0  0  0  0  0  0  0  0  0  0  0
  -23.5190  -32.1190   23.7240 O   0  0  0  0  0  0  0  0  0  0  0  0
  -22.7600  -29.4310   22.4830 C   0  0  0  0  0  0  0  0  0  0  0  0
  -21.4330  -29.2510   22.3700 N   0  0  0  0  0  0  0  0  0  0  0  0
  -23.4510  -28.7930   23.2820 O   0  0  0  0  0  0  0  0  0  0  0  0
  -20.9350  -29.8180   21.6990 H   0  0  0  0  0  0  0  0  0  0  0  0
  -18.0640  -28.0480   22.9000 C   0  0  0  0  0  0  0  0  0  0  0  0
  -20.6260  -28.3020   23.1360 C   0  0  0  0  0  3  0  0  0  0  0  0
  -20.7170  -26.8800   22.5350 C   0  0  0  0  0  2  0  0  0  0  0  0
  -19.6000  -26.5760   21.5310 C   0  0  0  0  0  2  0  0  0  0  0  0
  -18.2280  -26.7110   22.1990 C   0  0  0  0  0  2  0  0  0  0  0  0
  -19.1890  -28.8020   23.3260 C   0  0  0  0  0  0  0  0  0  0  0  0
  -18.9800  -30.0550   23.9430 C   0  0  0  0  0  3  0  0  0  0  0  0
  -17.6780  -30.5550   24.1360 C   0  0  0  0  0  3  0  0  0  0  0  0
  -16.5670  -29.7980   23.7250 C   0  0  0  0  0  3  0  0  0  0  0  0
  -16.7600  -28.5460   23.1130 C   0  0  0  0  0  3  0  0  0  0  0  0
  -25.8830  -32.4980   23.8040 C   0  0  0  0  0  3  0  0  0  0  0  0
  -26.4110  -31.7200   25.0710 C   0  0  1  0  0  0  0  0  0  0  0  0
  -25.3250  -31.4610   26.1410 C   0  0  0  0  0  1  0  0  0  0  0  0
  -27.0060  -30.3520   24.6640 C   0  0  0  0  0  1  0  0  0  0  0  0
  -27.5560  -32.5180   25.7360 C   0  0  0  0  0  1  0  0  0  0  0  0
  -25.5600  -33.8900   24.1490 N   0  0  0  0  0  0  0  0  0  0  0  0
  -25.8900  -34.9550   23.4060 C   0  0  0  0  0  0  0  0  0  0  0  0
  -26.5680  -34.8690   22.3780 O   0  0  0  0  0  0  0  0  0  0  0  0
  -24.9580  -34.0300   24.9470 H   0  0  0  0  0  0  0  0  0  0  0  0
  -24.1570  -36.7440   23.0570 C   0  0  0  0  0  1  0  0  0  0  0  0
  -25.3890  -36.3340   23.8780 C   0  0  0  0  0  3  0  0  0  0  0  0
  -27.5070  -37.2190   24.7520 C   0  0  0  0  0  1  0  0  0  0  0  0
  -26.4180  -37.3940   23.7940 N   0  0  0  0  0  0  0  0  0  0  0  0
  -26.0050  -38.3100   23.9460 H   0  0  0  0  0  0  0  0  0  0  0  0
  1  2  2  0
  1  4  1  0
  2  5  1  0
  3  6  1  0
  4  3  2  0
  5  6  2  0
  6  7  1  0
  8 15  2  0
  9 14  1  0
 10 11  1  0
 10  9  1  0
 12 11  1  0
 12 23  1  0
 12 13  1  0
 14  8  1  0
 14 13  1  0
 16 18  1  0
 17 16  1  0
 18  4  1  0
 18  8  1  0
 19 16  2  0
 20 21  2  0
 21 22  1  0
 21 40  1  0
 22 25  1  0
 23 20  1  0
 23 24  1  0
 24 22  2  0
 25 26  1  0
 26 27  2  0
 28 31  1  0
 28 27  1  0
 29 28  2  0
 30 29  1  0
 30 25  2  0
 31 32  1  0
 32 33  1  0
 33 34  2  0
 35 34  1  0
 35 39  1  0
 36 35  2  0
 37 32  2  0
 37 36  1  0
 38 37  1  0
 40 41  1  0
 41 44  1  0
 41 43  1  0
 42 40  2  0
 45 20  1  0
 46 45  1  0
 47 45  1  0
 48  5  1  0
 49 50  1  0
 49 48  1  0
 51 52  1  0
 51 50  2  0
 53 64  2  0
 54 52  1  0
 54 59  1  0
 55 63  1  0
 55 65  1  0
 56 62  1  0
 56 58  1  0
 57 63  1  0
 58 57  1  0
 59 58  2  0
 60 61  1  0
 60 54  2  0
 61 56  2  0
 62 55  1  0
 63 53  1  0
 65 67  2  0
 66 65  1  0
 68 66  1  0
 69 78  2  0
 69 74  1  0
 70 66  1  0
 70 74  1  0
 71 70  1  0
 72 73  1  0
 72 71  1  0
 73 69  1  0
 74 75  2  0
 75 76  1  0
 77 76  2  0
 78 77  1  0
 79 53  1  0
 79 84  1  0
 79 80  1  0
 80 83  1  1
 80 81  1  0
 82 80  1  0
 84 87  1  0
 85 89  1  0
 85 84  1  0
 86 85  2  0
 89 88  1  0
 91 89  1  0
 91 92  1  0
 91 90  1  0
M  ISO  4   8 100  18 100  51 101  52 101
M  END
>  <TORSDO>  (29) 
F 20

>  <SCORE>  (29) 
-13.178

>  <name>  (29) 
28

>  <ligand_id>  (29) 
28

>  <original_smiles>  (29) 
[H]c1c([H])c([H])c2c(c1[H])C([H])([H])C([H])([H])C([H])([H])C2([H])N([H])C(=O)C1([H])N(C(=O)C([H])(N([H])C(=O)C([H])(N([H])C([H])([H])[H])C([H])([H])[H])C(C([H])([H])[H])(C([H])([H])[H])C([H])([H])[H])C([H])([H])c2c([H])c(OC([H])([H])C([H])([H])C([H])([H])Oc3c([H])c([H])c(N(C(=O)N4C([H])([H])C([H])([H])C([H])([H])C([H])(n5nc(-c6c([H])c([H])c(Oc7c([H])c([H])c(F)c([H])c7F)c([H])c6[H])c(C(=O)N([H])[H])c5N([H])[H])C4([H])[H])C(=O)C([H])([H])[H])c([H])c3F)c([H])c([H])c2C1([H])[H]

>  <smiles>  (29) 
[H]c1c([H])c([H])c2c(c1[H])C([H])([H])C([H])([H])C([H])([H])C2([H])N([H])C(=O)C1([H])N(C(=O)C([H])(N([H])C(=O)C([H])(N([H])C([H])([H])[H])C([H])([H])[H])C(C([H])([H])[H])(C([H])([H])[H])C([H])([H])[H])C([H])([H])c2c([H])c(OC([H])([H])C([H])([H])C([H])([H])Oc3c([H])c([H])c(N(C(=O)N4C([H])([H])C([H])([H])C([H])([H])C([H])(n5nc(-c6c([H])c([H])c(Oc7c([H])c([H])c(F)c([H])c7F)c([H])c6[H])c(C(=O)N([H])[H])c5N([H])[H])C4([H])[H])C(=O)C([H])([H])[H])c([H])c3F)c([H])c([H])c2C1([H])[H]

$$$$
29:0:0
     RDKit          3D

 94103  0  0  1  0  0  0  0  0999 V2000
  -31.1170  -21.9850   21.2610 C   0  0  0  0  0  0  0  0  0  0  0  0
  -31.2490  -23.4940   21.5220 C   0  0  0  0  0  2  0  0  0  0  0  0
  -29.9650  -24.2990   21.3030 C   0  0  0  0  0  2  0  0  0  0  0  0
  -29.1180  -22.4350   19.8490 C   0  0  0  0  0  2  0  0  0  0  0  0
  -29.4090  -24.0050   19.9170 C   0  0  0  0  0  3  0  0  0  0  0  0
  -30.1720  -21.5010   20.4010 N   0  0  0  0  0  0  0  0  0  0  0  0
  -31.9240  -21.2600   21.8550 O   0  0  0  0  0  0  0  0  0  0  0  0
  -31.2290  -19.2210   20.0260 C   0  0  0  0  0  3  0  0  0  0  0  0
  -31.1790  -17.7980   20.0630 C   0  0  0  0  0  3  0  0  0  0  0  0
  -28.8650  -19.3360   20.4380 C   0  0  0  0  0  3  0  0  0  0  0  0
  -28.8080  -17.9100   20.4930 C   0  0  0  0  0  0  0  0  0  0  0  0
  -30.0810  -20.0370   20.2460 C   0  0  0  0  0  0  0  0  0  0  0  0
  -29.9720  -17.0960   20.3210 C   0  0  0  0  0  0  0  0  0  0  0  0
  -27.4440  -17.2960   20.7730 C   0  0  0  0  0  1  0  0  0  0  0  0
  -30.6210  -14.5970   19.9390 C   0  0  0  0  0  0  0  0  0  0  0  0
  -30.2930  -12.3910   18.8440 C   0  0  0  0  0  2  0  0  0  0  0  0
  -29.2650  -12.5750   17.7040 C   0  0  0  0  0  2  0  0  0  0  0  0
  -27.8220  -12.4400   18.2340 C   0  0  0  0  0  2  0  0  0  0  0  0
  -27.5760  -13.2750   19.5180 C   0  0  0  0  0  3  0  0  0  0  0  0
  -28.7080  -13.0570   20.5490 C   0  0  0  0  0  2  0  0  0  0  0  0
  -29.9820  -13.3860   19.8880 N   0  0  0  0  0  0  0  0  0  0  0  0
  -31.7500  -14.7460   19.4630 O   0  0  0  0  0  0  0  0  0  0  0  0
  -29.8590  -15.6380   20.3970 N   0  0  0  0  0  0  0  0  0  0  0  0
  -28.9890  -15.3170   20.7900 H   0  0  0  0  0  0  0  0  0  0  0  0
  -25.2560  -13.9070   20.4250 C   0  0  0  0  0  0  0  0  0  0  0  0
  -24.2020  -13.1510   20.8560 C   0  0  0  0  0  0  0  0  0  0  0  0
  -24.6250  -11.7910   20.7510 C   0  0  0  0  0  0  0  0  0  0  0  0
  -26.2590  -13.0110   20.0920 N   0  0  0  0  0  0  0  0  0  0  0  0
  -25.8870  -11.7310   20.3460 N   0  0  0  0  0  0  0  0  0  0  0  0
  -23.8820  -10.5420   20.9550 C   0  0  0  0  0  0  0  0  0  0  0  0
  -24.3310   -9.5550   21.8590 C   0  0  0  0  0  3  0  0  0  0  0  0
  -23.5900   -8.3700   22.0520 C   0  0  0  0  0  3  0  0  0  0  0  0
  -22.3860   -8.1620   21.3400 C   0  0  0  0  0  0  0  0  0  0  0  0
  -21.9540   -9.1370   20.4210 C   0  0  0  0  0  3  0  0  0  0  0  0
  -22.6950  -10.3140   20.2280 C   0  0  0  0  0  3  0  0  0  0  0  0
  -21.6130   -7.0310   21.4440 O   0  0  0  0  0  0  0  0  0  0  0  0
  -21.5510   -6.3050   22.6060 C   0  0  0  0  0  0  0  0  0  0  0  0
  -21.1420   -6.8870   23.8260 C   0  0  0  0  0  3  0  0  0  0  0  0
  -21.0270   -6.0880   24.9820 C   0  0  0  0  0  3  0  0  0  0  0  0
  -21.3100   -4.7110   24.9180 C   0  0  0  0  0  0  0  0  0  0  0  0
  -21.7130   -4.1290   23.7030 C   0  0  0  0  0  3  0  0  0  0  0  0
  -21.8300   -4.9250   22.5500 C   0  0  0  0  0  0  0  0  0  0  0  0
  -22.1970   -4.3560   21.3760 F   0  0  0  0  0  0  0  0  0  0  0  0
  -21.1940   -3.9430   26.0260 F   0  0  0  0  0  0  0  0  0  0  0  0
  -22.8410  -13.6530   21.2460 C   0  0  0  0  0  0  0  0  0  0  0  0
  -22.1680  -12.9540   22.1550 N   0  0  0  0  0  0  0  0  0  0  0  0
  -22.3880  -14.6980   20.7830 O   0  0  0  0  0  0  0  0  0  0  0  0
  -22.5510  -12.1080   22.5490 H   0  0  0  0  0  0  0  0  0  0  0  0
  -21.2580  -13.2700   22.4590 H   0  0  0  0  0  0  0  0  0  0  0  0
  -25.4350  -15.2770   20.2620 N   0  0  0  0  0  0  0  0  0  0  0  0
  -24.6730  -15.9300   20.4040 H   0  0  0  0  0  0  0  0  0  0  0  0
  -26.2270  -15.6910   19.7860 H   0  0  0  0  0  0  0  0  0  0  0  0
  -28.2190  -24.9890   19.5530 C   0  0  0  0  0  2  0  0  0  0  0  0
  -28.4070  -26.4480   19.7150 O   0  0  0  0  0  0  0  0  0  0  0  0
  -24.5430  -31.5770   23.0150 C   0  0  0  0  0  0  0  0  0  0  0  0
  -27.2570  -27.2540   19.7230 C   0  0  0  0  0  0  0  0  0  0  0  0
  -23.3650  -30.2270   21.3170 C   0  0  0  0  0  3  0  0  0  0  0  0
  -24.8450  -28.7880   19.8130 C   0  0  0  0  0  0  0  0  0  0  0  0
  -25.8920  -30.6260   21.1320 C   0  0  0  0  0  2  0  0  0  0  0  0
  -26.0050  -29.2840   20.4210 C   0  0  0  0  0  0  0  0  0  0  0  0
  -27.2160  -28.5300   20.3660 C   0  0  0  0  0  3  0  0  0  0  0  0
  -26.0670  -26.8090   19.1020 C   0  0  0  0  0  3  0  0  0  0  0  0
  -24.8760  -27.5550   19.1480 C   0  0  0  0  0  3  0  0  0  0  0  0
  -23.5860  -29.6240   19.9070 C   0  0  0  0  0  2  0  0  0  0  0  0
  -24.6190  -30.8240   21.8800 N   0  0  0  0  0  0  0  0  0  0  0  0
  -23.4570  -31.7970   23.5700 O   0  0  0  0  0  0  0  0  0  0  0  0
  -22.7370  -29.1470   22.2310 C   0  0  0  0  0  0  0  0  0  0  0  0
  -21.4120  -28.9540   22.1180 N   0  0  0  0  0  0  0  0  0  0  0  0
  -23.4410  -28.4880   23.0010 O   0  0  0  0  0  0  0  0  0  0  0  0
  -20.9010  -29.5410   21.4720 H   0  0  0  0  0  0  0  0  0  0  0  0
  -18.0580  -27.7100   22.6490 C   0  0  0  0  0  0  0  0  0  0  0  0
  -20.6220  -27.9640   22.8530 C   0  0  0  0  0  3  0  0  0  0  0  0
  -20.7110  -26.5740   22.1820 C   0  0  0  0  0  2  0  0  0  0  0  0
  -19.5780  -26.3100   21.1850 C   0  0  0  0  0  2  0  0  0  0  0  0
  -18.2170  -26.4090   21.8810 C   0  0  0  0  0  2  0  0  0  0  0  0
  -19.1880  -28.4480   23.0920 C   0  0  0  0  0  0  0  0  0  0  0  0
  -18.9850  -29.6680   23.7730 C   0  0  0  0  0  3  0  0  0  0  0  0
  -17.6860  -30.1530   24.0110 C   0  0  0  0  0  3  0  0  0  0  0  0
  -16.5700  -29.4120   23.5840 C   0  0  0  0  0  3  0  0  0  0  0  0
  -16.7570  -28.1920   22.9090 C   0  0  0  0  0  3  0  0  0  0  0  0
  -25.8140  -32.2140   23.6590 C   0  0  0  0  0  3  0  0  0  0  0  0
  -25.4750  -33.5910   24.0410 N   0  0  0  0  0  0  0  0  0  0  0  0
  -25.7700  -34.6770   23.3140 C   0  0  0  0  0  0  0  0  0  0  0  0
  -26.4270  -34.6260   22.2710 O   0  0  0  0  0  0  0  0  0  0  0  0
  -24.8910  -33.7040   24.8550 H   0  0  0  0  0  0  0  0  0  0  0  0
  -23.9890  -36.4310   23.0500 C   0  0  0  0  0  1  0  0  0  0  0  0
  -25.2550  -36.0360   23.8250 C   0  0  0  0  0  3  0  0  0  0  0  0
  -27.3800  -36.9520   24.6470 C   0  0  0  0  0  1  0  0  0  0  0  0
  -26.2560  -37.1210   23.7300 N   0  0  0  0  0  0  0  0  0  0  0  0
  -25.8280  -38.0230   23.9160 H   0  0  0  0  0  0  0  0  0  0  0  0
  -26.3480  -31.4070   24.9050 C   0  0  1  0  0  0  0  0  0  0  0  0
  -25.2630  -31.1140   25.9670 C   0  0  0  0  0  1  0  0  0  0  0  0
  -26.9520  -30.0540   24.4630 C   0  0  0  0  0  1  0  0  0  0  0  0
  -27.4890  -32.1950   25.5890 C   0  0  0  0  0  1  0  0  0  0  0  0
  1  2  1  0
  1  7  2  0
  3  2  1  0
  4  5  1  0
  4  6  1  0
  5 53  1  0
  5  3  1  0
  6  1  1  0
  8  9  2  0
  8 12  1  0
  9 13  1  0
 10 11  1  0
 11 14  1  0
 12  6  1  0
 12 10  2  0
 13 23  1  0
 13 11  2  0
 15 23  1  0
 16 21  1  0
 17 18  1  0
 17 16  1  0
 19 18  1  0
 19 28  1  0
 19 20  1  0
 21 15  1  0
 21 20  1  0
 22 15  2  0
 23 24  1  0
 25 26  2  0
 26 45  1  0
 27 26  1  0
 27 30  1  0
 28 29  1  0
 28 25  1  0
 29 27  2  0
 30 31  1  0
 31 32  2  0
 33 36  1  0
 33 32  1  0
 34 33  2  0
 35 34  1  0
 35 30  2  0
 36 37  1  0
 37 38  1  0
 38 39  2  0
 40 39  1  0
 40 44  1  0
 41 40  2  0
 42 37  2  0
 42 41  1  0
 43 42  1  0
 45 46  1  0
 46 49  1  0
 46 48  1  0
 47 45  2  0
 50 51  1  0
 50 25  1  0
 52 50  1  0
 53 54  1  0
 54 56  1  0
 55 66  2  0
 56 61  1  0
 57 65  1  0
 57 67  1  0
 58 64  1  0
 58 60  1  0
 59 65  1  0
 60 59  1  0
 61 60  2  0
 62 63  1  0
 62 56  2  0
 63 58  2  0
 64 57  1  0
 65 55  1  0
 67 69  2  0
 68 67  1  0
 70 68  1  0
 71 80  2  0
 71 76  1  0
 72 68  1  0
 72 76  1  0
 73 72  1  0
 74 75  1  0
 74 73  1  0
 75 71  1  0
 76 77  2  0
 77 78  1  0
 79 78  2  0
 80 79  1  0
 81 55  1  0
 81 82  1  0
 81 91  1  0
 82 85  1  0
 83 87  1  0
 83 82  1  0
 84 83  2  0
 87 86  1  0
 89 87  1  0
 89 90  1  0
 89 88  1  0
 91 94  1  1
 91 92  1  0
 93 91  1  0
M  ISO  4  15 100  23 100  53 101  54 101
M  END
>  <TORSDO>  (30) 
F 18

>  <SCORE>  (30) 
-13.538

>  <name>  (30) 
29

>  <ligand_id>  (30) 
29

>  <original_smiles>  (30) 
[H]c1c([H])c([H])c2c(c1[H])C([H])([H])C([H])([H])C([H])([H])C2([H])N([H])C(=O)C1([H])N(C(=O)C([H])(N([H])C(=O)C([H])(N([H])C([H])([H])[H])C([H])([H])[H])C(C([H])([H])[H])(C([H])([H])[H])C([H])([H])[H])C([H])([H])c2c([H])c(OC([H])([H])C3([H])C([H])([H])N(c4c([H])c([H])c(N([H])C(=O)N5C([H])([H])C([H])([H])C([H])([H])C([H])(n6nc(-c7c([H])c([H])c(Oc8c([H])c([H])c(F)c([H])c8F)c([H])c7[H])c(C(=O)N([H])[H])c6N([H])[H])C5([H])[H])c(C([H])([H])[H])c4[H])C(=O)C([H])([H])C3([H])[H])c([H])c([H])c2C1([H])[H]

>  <smiles>  (30) 
[H]c1c([H])c([H])c2c(c1[H])C([H])([H])C([H])([H])C([H])([H])C2([H])N([H])C(=O)C1([H])N(C(=O)C([H])(N([H])C(=O)C([H])(N([H])C([H])([H])[H])C([H])([H])[H])C(C([H])([H])[H])(C([H])([H])[H])C([H])([H])[H])C([H])([H])c2c([H])c(OC([H])([H])C3([H])C([H])([H])N(c4c([H])c([H])c(N([H])C(=O)N5C([H])([H])C([H])([H])C([H])([H])C([H])(n6nc(-c7c([H])c([H])c(Oc8c([H])c([H])c(F)c([H])c8F)c([H])c7[H])c(C(=O)N([H])[H])c6N([H])[H])C5([H])[H])c(C([H])([H])[H])c4[H])C(=O)C([H])([H])C3([H])[H])c([H])c([H])c2C1([H])[H]

$$$$
30:0:0
     RDKit          3D

 96104  0  0  1  0  0  0  0  0999 V2000
  -29.8620  -19.1940   20.5440 C   0  0  0  0  0  3  0  0  0  0  0  0
  -31.1050  -20.4550   22.1990 C   0  0  0  0  0  3  0  0  0  0  0  0
  -30.9310  -18.0090   22.3790 C   0  0  0  0  0  3  0  0  0  0  0  0
  -30.3060  -20.4480   21.0370 C   0  0  0  0  0  0  0  0  0  0  0  0
  -30.1440  -17.9460   21.2050 C   0  0  0  0  0  0  0  0  0  0  0  0
  -31.4120  -19.2460   22.8660 C   0  0  0  0  0  0  0  0  0  0  0  0
  -30.3600  -15.5380   20.5000 C   0  0  0  0  0  0  0  0  0  0  0  0
  -30.3490  -13.2590   19.4840 C   0  0  0  0  0  2  0  0  0  0  0  0
  -29.4010  -13.1500   18.2710 C   0  0  0  0  0  2  0  0  0  0  0  0
  -27.9750  -12.7810   18.7260 C   0  0  0  0  0  2  0  0  0  0  0  0
  -27.4870  -13.6550   19.9020 C   0  0  0  0  0  3  0  0  0  0  0  0
  -28.5620  -13.7760   21.0200 C   0  0  0  0  0  2  0  0  0  0  0  0
  -29.7980  -14.2810   20.4030 N   0  0  0  0  0  0  0  0  0  0  0  0
  -31.5420  -15.6920   20.1840 O   0  0  0  0  0  0  0  0  0  0  0  0
  -29.5840  -16.6750   20.7390 N   0  0  0  0  0  0  0  0  0  0  0  0
  -25.0810  -14.0290   20.7320 C   0  0  0  0  0  0  0  0  0  0  0  0
  -24.0990  -13.1450   21.0850 C   0  0  0  0  0  0  0  0  0  0  0  0
  -24.6850  -11.8480   20.9780 C   0  0  0  0  0  0  0  0  0  0  0  0
  -26.1910  -13.2540   20.4230 N   0  0  0  0  0  0  0  0  0  0  0  0
  -25.9620  -11.9390   20.6420 N   0  0  0  0  0  0  0  0  0  0  0  0
  -24.0900  -10.5170   21.1140 C   0  0  0  0  0  0  0  0  0  0  0  0
  -24.5310   -9.6140   22.1050 C   0  0  0  0  0  3  0  0  0  0  0  0
  -23.9320   -8.3430   22.2270 C   0  0  0  0  0  3  0  0  0  0  0  0
  -22.8830   -7.9680   21.3560 C   0  0  0  0  0  0  0  0  0  0  0  0
  -22.4660   -8.8630   20.3540 C   0  0  0  0  0  3  0  0  0  0  0  0
  -23.0660  -10.1260   20.2310 C   0  0  0  0  0  3  0  0  0  0  0  0
  -22.2590   -6.7450   21.3840 O   0  0  0  0  0  0  0  0  0  0  0  0
  -22.0260   -6.0870   22.5640 C   0  0  0  0  0  0  0  0  0  0  0  0
  -21.1990   -6.6310   23.5710 C   0  0  0  0  0  3  0  0  0  0  0  0
  -20.9310   -5.8890   24.7390 C   0  0  0  0  0  3  0  0  0  0  0  0
  -21.4790   -4.6010   24.8960 C   0  0  0  0  0  0  0  0  0  0  0  0
  -22.2990   -4.0570   23.8920 C   0  0  0  0  0  3  0  0  0  0  0  0
  -22.5690   -4.7960   22.7280 C   0  0  0  0  0  0  0  0  0  0  0  0
  -23.3420   -4.2590   21.7540 F   0  0  0  0  0  0  0  0  0  0  0  0
  -21.2140   -3.8840   26.0140 F   0  0  0  0  0  0  0  0  0  0  0  0
  -22.6700  -13.4770   21.4050 C   0  0  0  0  0  0  0  0  0  0  0  0
  -22.0300  -12.6730   22.2470 N   0  0  0  0  0  0  0  0  0  0  0  0
  -22.1250  -14.4790   20.9440 O   0  0  0  0  0  0  0  0  0  0  0  0
  -22.4860  -11.8640   22.6430 H   0  0  0  0  0  0  0  0  0  0  0  0
  -21.0740  -12.8710   22.5030 H   0  0  0  0  0  0  0  0  0  0  0  0
  -25.0990  -15.4150   20.6270 N   0  0  0  0  0  0  0  0  0  0  0  0
  -24.2690  -15.9730   20.7940 H   0  0  0  0  0  0  0  0  0  0  0  0
  -25.8780  -15.9550   20.2780 H   0  0  0  0  0  0  0  0  0  0  0  0
  -28.2130  -16.8290   20.2210 C   0  0  0  0  0  2  0  0  0  0  0  0
  -26.8660  -18.1740   18.4720 C   0  0  0  0  0  1  0  0  0  0  0  0
  -28.1870  -17.4780   18.8120 C   0  0  0  0  0  2  0  0  0  0  0  0
  -28.9310  -22.4140   20.2510 C   0  0  0  0  0  0  0  0  0  0  0  0
  -30.0690  -21.6790   20.3230 N   0  0  0  0  0  0  0  0  0  0  0  0
  -27.9160  -22.1250   20.8870 O   0  0  0  0  0  0  0  0  0  0  0  0
  -30.8680  -22.0680   19.8440 H   0  0  0  0  0  0  0  0  0  0  0  0
  -28.9210  -23.6500   19.3030 C   0  0  0  0  0  2  0  0  0  0  0  0
  -28.2940  -24.9910   19.8350 C   0  0  0  0  0  2  0  0  0  0  0  0
  -28.1360  -26.1030   18.7410 C   0  0  0  0  0  2  0  0  0  0  0  0
  -28.0470  -27.4640   19.2380 O   0  0  0  0  0  0  0  0  0  0  0  0
  -24.5750  -32.1060   23.3830 C   0  0  0  0  0  0  0  0  0  0  0  0
  -26.8510  -28.1540   19.4150 C   0  0  0  0  0  0  0  0  0  0  0  0
  -23.1900  -30.9510   21.6910 C   0  0  0  0  0  3  0  0  0  0  0  0
  -24.4720  -29.6450   19.9060 C   0  0  0  0  0  0  0  0  0  0  0  0
  -25.6840  -31.3480   21.2780 C   0  0  0  0  0  2  0  0  0  0  0  0
  -25.6900  -30.0830   20.4360 C   0  0  0  0  0  0  0  0  0  0  0  0
  -26.8730  -29.3450   20.1880 C   0  0  0  0  0  3  0  0  0  0  0  0
  -25.6060  -27.7340   18.8890 C   0  0  0  0  0  3  0  0  0  0  0  0
  -24.4270  -28.4720   19.1300 C   0  0  0  0  0  3  0  0  0  0  0  0
  -23.2460  -30.4800   20.2120 C   0  0  0  0  0  2  0  0  0  0  0  0
  -24.5090  -31.4760   22.1750 N   0  0  0  0  0  0  0  0  0  0  0  0
  -23.5610  -32.2880   24.0700 O   0  0  0  0  0  0  0  0  0  0  0  0
  -22.6340  -29.7980   22.5570 C   0  0  0  0  0  0  0  0  0  0  0  0
  -21.3210  -29.5390   22.4430 N   0  0  0  0  0  0  0  0  0  0  0  0
  -23.3810  -29.1420   23.2890 O   0  0  0  0  0  0  0  0  0  0  0  0
  -20.7750  -30.1260   21.8280 H   0  0  0  0  0  0  0  0  0  0  0  0
  -18.0720  -27.9990   22.8090 C   0  0  0  0  0  0  0  0  0  0  0  0
  -20.5930  -28.4730   23.1300 C   0  0  0  0  0  3  0  0  0  0  0  0
  -20.8330  -27.1060   22.4470 C   0  0  0  0  0  2  0  0  0  0  0  0
  -19.7710  -26.7620   21.3990 C   0  0  0  0  0  2  0  0  0  0  0  0
  -18.3780  -26.7280   22.0350 C   0  0  0  0  0  2  0  0  0  0  0  0
  -19.1120  -28.8260   23.3090 C   0  0  0  0  0  0  0  0  0  0  0  0
  -18.7730  -30.0150   23.9910 C   0  0  0  0  0  3  0  0  0  0  0  0
  -17.4270  -30.3800   24.1790 C   0  0  0  0  0  3  0  0  0  0  0  0
  -16.4020  -29.5490   23.6940 C   0  0  0  0  0  3  0  0  0  0  0  0
  -16.7240  -28.3610   23.0150 C   0  0  0  0  0  3  0  0  0  0  0  0
  -25.9260  -32.6490   23.9480 C   0  0  0  0  0  3  0  0  0  0  0  0
  -25.6880  -34.0190   24.4250 N   0  0  0  0  0  0  0  0  0  0  0  0
  -26.0460  -35.1280   23.7630 C   0  0  0  0  0  0  0  0  0  0  0  0
  -26.6820  -35.0990   22.7050 O   0  0  0  0  0  0  0  0  0  0  0  0
  -25.1230  -34.1170   25.2550 H   0  0  0  0  0  0  0  0  0  0  0  0
  -24.4190  -37.0390   23.6080 C   0  0  0  0  0  1  0  0  0  0  0  0
  -25.6330  -36.4820   24.3690 C   0  0  0  0  0  3  0  0  0  0  0  0
  -27.8010  -37.1580   25.3010 C   0  0  0  0  0  1  0  0  0  0  0  0
  -26.7210  -37.4830   24.3720 N   0  0  0  0  0  0  0  0  0  0  0  0
  -26.3640  -38.4030   24.6100 H   0  0  0  0  0  0  0  0  0  0  0  0
  -26.5230  -31.7540   25.1030 C   0  0  1  0  0  0  0  0  0  0  0  0
  -25.5120  -31.4380   26.2300 C   0  0  0  0  0  1  0  0  0  0  0  0
  -27.0360  -30.4090   24.5400 C   0  0  0  0  0  1  0  0  0  0  0  0
  -27.7420  -32.4610   25.7390 C   0  0  0  0  0  1  0  0  0  0  0  0
  -32.1770  -19.2620   23.9970 O   0  0  0  0  0  0  0  0  0  0  0  0
  -32.4700  -20.1340   24.2450 H   0  0  0  0  0  0  0  0  0  0  0  0
  1  4  2  0
  1  5  1  0
  2  6  2  0
  3  6  1  0
  4  2  1  0
  5  3  2  0
  6 95  1  0
  7 15  1  0
  8 13  1  0
  9 10  1  0
  9  8  1  0
 11 10  1  0
 11 19  1  0
 11 12  1  0
 13  7  1  0
 13 12  1  0
 14  7  2  0
 15  5  1  0
 16 17  2  0
 17 36  1  0
 18 17  1  0
 18 21  1  0
 19 20  1  0
 19 16  1  0
 20 18  2  0
 21 22  1  0
 22 23  2  0
 24 27  1  0
 24 23  1  0
 25 24  2  0
 26 25  1  0
 26 21  2  0
 27 28  1  0
 28 33  2  0
 28 29  1  0
 29 30  2  0
 30 31  1  0
 31 35  1  0
 32 31  2  0
 33 32  1  0
 34 33  1  0
 36 37  1  0
 37 40  1  0
 37 39  1  0
 38 36  2  0
 41 16  1  0
 41 42  1  0
 43 41  1  0
 44 15  1  0
 45 46  1  0
 46 44  1  0
 47 48  1  0
 47 49  2  0
 48  4  1  0
 50 48  1  0
 51 52  1  0
 51 47  1  0
 53 54  1  0
 53 52  1  0
 54 56  1  0
 55 66  2  0
 56 61  1  0
 57 65  1  0
 57 67  1  0
 58 64  1  0
 58 60  1  0
 59 65  1  0
 60 59  1  0
 61 60  2  0
 62 63  1  0
 62 56  2  0
 63 58  2  0
 64 57  1  0
 65 55  1  0
 67 69  2  0
 68 67  1  0
 70 68  1  0
 71 80  2  0
 71 76  1  0
 72 68  1  0
 72 76  1  0
 73 72  1  0
 74 75  1  0
 74 73  1  0
 75 71  1  0
 76 77  2  0
 77 78  1  0
 79 78  2  0
 80 79  1  0
 81 55  1  0
 81 82  1  0
 81 91  1  0
 82 85  1  0
 83 87  1  0
 83 82  1  0
 84 83  2  0
 87 86  1  0
 87 89  1  0
 89 90  1  0
 89 88  1  0
 91 94  1  1
 91 92  1  0
 93 91  1  0
 95 96  1  0
M  ISO  4   7 100  15 100  53 101  54 101
M  END
>  <TORSDO>  (31) 
F 23

>  <SCORE>  (31) 
-11.098

>  <name>  (31) 
30

>  <ligand_id>  (31) 
30

>  <original_smiles>  (31) 
[H]Oc1c([H])c(N([H])C(=O)C([H])([H])C([H])([H])C([H])([H])Oc2c([H])c([H])c3c(c2[H])C([H])([H])N(C(=O)C([H])(N([H])C(=O)C([H])(N([H])C([H])([H])[H])C([H])([H])[H])C(C([H])([H])[H])(C([H])([H])[H])C([H])([H])[H])C([H])(C(=O)N([H])C2([H])c4c([H])c([H])c([H])c([H])c4C([H])([H])C([H])([H])C2([H])[H])C3([H])[H])c([H])c(N(C(=O)N2C([H])([H])C([H])([H])C([H])([H])C([H])(n3nc(-c4c([H])c([H])c(Oc5c([H])c([H])c(F)c([H])c5F)c([H])c4[H])c(C(=O)N([H])[H])c3N([H])[H])C2([H])[H])C([H])([H])C([H])([H])C([H])([H])[H])c1[H]

>  <smiles>  (31) 
[H]Oc1c([H])c(N([H])C(=O)C([H])([H])C([H])([H])C([H])([H])Oc2c([H])c([H])c3c(c2[H])C([H])([H])N(C(=O)C([H])(N([H])C(=O)C([H])(N([H])C([H])([H])[H])C([H])([H])[H])C(C([H])([H])[H])(C([H])([H])[H])C([H])([H])[H])C([H])(C(=O)N([H])C2([H])c4c([H])c([H])c([H])c([H])c4C([H])([H])C([H])([H])C2([H])[H])C3([H])[H])c([H])c(N(C(=O)N2C([H])([H])C([H])([H])C([H])([H])C([H])(n3nc(-c4c([H])c([H])c(Oc5c([H])c([H])c(F)c([H])c5F)c([H])c4[H])c(C(=O)N([H])[H])c3N([H])[H])C2([H])[H])C([H])([H])C([H])([H])C([H])([H])[H])c1[H]

$$$$
31:0:0
     RDKit          3D

 94102  0  0  1  0  0  0  0  0999 V2000
  -29.0600  -20.3280   20.4720 C   0  0  0  0  0  3  0  0  0  0  0  0
  -29.7390  -19.8280   18.2050 C   0  0  0  0  0  3  0  0  0  0  0  0
  -30.0580  -18.1240   19.9530 C   0  0  0  0  0  0  0  0  0  0  0  0
  -29.4800  -19.0320   20.8890 C   0  0  0  0  0  0  0  0  0  0  0  0
  -29.2100  -20.7560   19.1310 C   0  0  0  0  0  0  0  0  0  0  0  0
  -30.1570  -18.5400   18.6060 C   0  0  0  0  0  0  0  0  0  0  0  0
  -29.2980  -18.6390   22.3500 C   0  0  0  0  0  1  0  0  0  0  0  0
  -30.7150  -17.7250   17.6770 F   0  0  0  0  0  0  0  0  0  0  0  0
  -30.8190  -14.5110   19.7410 C   0  0  0  0  0  0  0  0  0  0  0  0
  -30.3350  -12.3820   18.5910 C   0  0  0  0  0  2  0  0  0  0  0  0
  -29.2790  -12.5960   17.4910 C   0  0  0  0  0  2  0  0  0  0  0  0
  -27.8640  -12.4520   18.0790 C   0  0  0  0  0  2  0  0  0  0  0  0
  -27.6610  -13.2760   19.3800 C   0  0  0  0  0  3  0  0  0  0  0  0
  -28.8300  -13.0810   20.3680 C   0  0  0  0  0  2  0  0  0  0  0  0
  -30.0720  -13.3760   19.6420 N   0  0  0  0  0  0  0  0  0  0  0  0
  -31.9730  -14.5540   19.3020 O   0  0  0  0  0  0  0  0  0  0  0  0
  -30.7410  -16.8320   20.3690 C   0  0  0  0  0  0  0  0  0  0  0  0
  -30.1550  -15.6500   20.0600 N   0  0  0  0  0  0  0  0  0  0  0  0
  -31.8250  -16.9130   20.9570 O   0  0  0  0  0  0  0  0  0  0  0  0
  -29.1600  -15.6530   19.9210 H   0  0  0  0  0  0  0  0  0  0  0  0
  -25.3520  -13.8650   20.3520 C   0  0  0  0  0  0  0  0  0  0  0  0
  -24.3270  -13.0860   20.8210 C   0  0  0  0  0  0  0  0  0  0  0  0
  -24.7870  -11.7360   20.7280 C   0  0  0  0  0  0  0  0  0  0  0  0
  -26.3680  -12.9900   20.0000 N   0  0  0  0  0  0  0  0  0  0  0  0
  -26.0400  -11.7050   20.2850 N   0  0  0  0  0  0  0  0  0  0  0  0
  -24.0830  -10.4690   20.9680 C   0  0  0  0  0  0  0  0  0  0  0  0
  -24.5350   -9.5460   21.9360 C   0  0  0  0  0  3  0  0  0  0  0  0
  -23.8320   -8.3430   22.1620 C   0  0  0  0  0  3  0  0  0  0  0  0
  -22.6610   -8.0550   21.4170 C   0  0  0  0  0  0  0  0  0  0  0  0
  -22.2300   -8.9670   20.4360 C   0  0  0  0  0  3  0  0  0  0  0  0
  -22.9370  -10.1610   20.2090 C   0  0  0  0  0  3  0  0  0  0  0  0
  -21.9290   -6.9000   21.5520 O   0  0  0  0  0  0  0  0  0  0  0  0
  -21.7940   -6.2690   22.7630 C   0  0  0  0  0  0  0  0  0  0  0  0
  -21.2310   -6.9210   23.8820 C   0  0  0  0  0  3  0  0  0  0  0  0
  -21.0450   -6.2150   25.0870 C   0  0  0  0  0  3  0  0  0  0  0  0
  -21.4100   -4.8590   25.1740 C   0  0  0  0  0  0  0  0  0  0  0  0
  -21.9610   -4.2070   24.0590 C   0  0  0  0  0  3  0  0  0  0  0  0
  -22.1490   -4.9080   22.8560 C   0  0  0  0  0  0  0  0  0  0  0  0
  -22.6640   -4.2700   21.7770 F   0  0  0  0  0  0  0  0  0  0  0  0
  -21.2240   -4.1770   26.3300 F   0  0  0  0  0  0  0  0  0  0  0  0
  -22.9630  -13.5560   21.2410 C   0  0  0  0  0  0  0  0  0  0  0  0
  -22.3290  -12.8540   22.1750 N   0  0  0  0  0  0  0  0  0  0  0  0
  -22.4690  -14.5840   20.7770 O   0  0  0  0  0  0  0  0  0  0  0  0
  -22.7470  -12.0260   22.5740 H   0  0  0  0  0  0  0  0  0  0  0  0
  -21.4170  -13.1470   22.4940 H   0  0  0  0  0  0  0  0  0  0  0  0
  -25.4930  -15.2380   20.1710 N   0  0  0  0  0  0  0  0  0  0  0  0
  -24.7230  -15.8750   20.3410 H   0  0  0  0  0  0  0  0  0  0  0  0
  -26.2710  -15.6800   19.7000 H   0  0  0  0  0  0  0  0  0  0  0  0
  -28.8660  -22.0390   18.6430 N   0  0  0  0  0  0  0  0  0  0  0  0
  -28.9910  -22.1860   17.6420 H   0  0  0  0  0  0  0  0  0  0  0  0
  -28.3630  -23.2090   19.3960 C   0  0  0  0  0  2  0  0  0  0  0  0
  -29.3600  -24.4120   19.3670 C   0  0  0  0  0  2  0  0  0  0  0  0
  -28.8180  -25.8170   18.9510 C   0  0  0  0  0  2  0  0  0  0  0  0
  -28.4970  -26.7020   20.0450 O   0  0  0  0  0  0  0  0  0  0  0  0
  -24.6140  -31.8000   23.1830 C   0  0  0  0  0  0  0  0  0  0  0  0
  -27.3090  -27.4120   20.0290 C   0  0  0  0  0  0  0  0  0  0  0  0
  -23.4210  -30.3860   21.5430 C   0  0  0  0  0  3  0  0  0  0  0  0
  -24.8850  -28.8830   20.0930 C   0  0  0  0  0  0  0  0  0  0  0  0
  -25.9410  -30.7830   21.3320 C   0  0  0  0  0  2  0  0  0  0  0  0
  -26.0380  -29.4170   20.6790 C   0  0  0  0  0  0  0  0  0  0  0  0
  -27.2480  -28.6870   20.6500 C   0  0  0  0  0  3  0  0  0  0  0  0
  -26.1290  -26.8880   19.4560 C   0  0  0  0  0  3  0  0  0  0  0  0
  -24.9220  -27.6180   19.4850 C   0  0  0  0  0  3  0  0  0  0  0  0
  -23.6260  -29.7190   20.1580 C   0  0  0  0  0  2  0  0  0  0  0  0
  -24.6770  -31.0090   22.0750 N   0  0  0  0  0  0  0  0  0  0  0  0
  -23.5320  -32.0480   23.7330 O   0  0  0  0  0  0  0  0  0  0  0  0
  -22.7980  -29.3500   22.5010 C   0  0  0  0  0  0  0  0  0  0  0  0
  -21.4850  -29.1110   22.3480 N   0  0  0  0  0  0  0  0  0  0  0  0
  -23.4930  -28.7650   23.3370 O   0  0  0  0  0  0  0  0  0  0  0  0
  -20.9890  -29.6310   21.6380 H   0  0  0  0  0  0  0  0  0  0  0  0
  -18.1710  -27.7330   22.7550 C   0  0  0  0  0  0  0  0  0  0  0  0
  -20.6970  -28.1450   23.1110 C   0  0  0  0  0  3  0  0  0  0  0  0
  -20.9040  -26.7110   22.5730 C   0  0  0  0  0  2  0  0  0  0  0  0
  -19.8620  -26.3020   21.5280 C   0  0  0  0  0  2  0  0  0  0  0  0
  -18.4500  -26.3830   22.1180 C   0  0  0  0  0  2  0  0  0  0  0  0
  -19.2270  -28.5680   23.2070 C   0  0  0  0  0  0  0  0  0  0  0  0
  -18.9160  -29.8300   23.7580 C   0  0  0  0  0  3  0  0  0  0  0  0
  -17.5800  -30.2600   23.8630 C   0  0  0  0  0  3  0  0  0  0  0  0
  -16.5360  -29.4230   23.4300 C   0  0  0  0  0  3  0  0  0  0  0  0
  -16.8330  -28.1610   22.8850 C   0  0  0  0  0  3  0  0  0  0  0  0
  -25.8970  -32.4480   23.7920 C   0  0  0  0  0  3  0  0  0  0  0  0
  -26.4500  -31.6730   25.0540 C   0  0  1  0  0  0  0  0  0  0  0  0
  -25.3770  -31.3920   26.1310 C   0  0  0  0  0  1  0  0  0  0  0  0
  -27.0660  -30.3170   24.6380 C   0  0  0  0  0  1  0  0  0  0  0  0
  -27.5770  -32.4920   25.7260 C   0  0  0  0  0  1  0  0  0  0  0  0
  -25.5680  -33.8360   24.1360 N   0  0  0  0  0  0  0  0  0  0  0  0
  -25.8760  -34.9020   23.3850 C   0  0  0  0  0  0  0  0  0  0  0  0
  -26.5440  -34.8210   22.3500 O   0  0  0  0  0  0  0  0  0  0  0  0
  -24.9830  -33.9690   24.9480 H   0  0  0  0  0  0  0  0  0  0  0  0
  -24.1220  -36.6760   23.0450 C   0  0  0  0  0  1  0  0  0  0  0  0
  -25.3630  -36.2760   23.8570 C   0  0  0  0  0  3  0  0  0  0  0  0
  -27.4750  -37.1920   24.7180 C   0  0  0  0  0  1  0  0  0  0  0  0
  -26.3780  -37.3460   23.7650 N   0  0  0  0  0  0  0  0  0  0  0  0
  -25.9520  -38.2550   23.9200 H   0  0  0  0  0  0  0  0  0  0  0  0
  1  4  1  0
  2  6  2  0
  2  5  1  0
  3 17  1  0
  3  4  2  0
  4  7  1  0
  5  1  2  0
  6  3  1  0
  8  6  1  0
  9 18  1  0
 10 15  1  0
 11 12  1  0
 11 10  1  0
 13 12  1  0
 13 24  1  0
 13 14  1  0
 15  9  1  0
 15 14  1  0
 16  9  2  0
 17 19  2  0
 18 17  1  0
 20 18  1  0
 21 22  2  0
 22 41  1  0
 23 22  1  0
 23 26  1  0
 24 25  1  0
 24 21  1  0
 25 23  2  0
 26 27  1  0
 27 28  2  0
 29 32  1  0
 29 28  1  0
 30 29  2  0
 31 30  1  0
 31 26  2  0
 32 33  1  0
 33 38  2  0
 33 34  1  0
 34 35  2  0
 35 36  1  0
 36 40  1  0
 37 36  2  0
 38 37  1  0
 39 38  1  0
 41 42  1  0
 42 45  1  0
 42 44  1  0
 43 41  2  0
 46 47  1  0
 46 21  1  0
 48 46  1  0
 49  5  1  0
 49 51  1  0
 50 49  1  0
 52 51  1  0
 53 52  1  0
 53 54  1  0
 55 66  2  0
 56 54  1  0
 56 61  1  0
 57 65  1  0
 57 67  1  0
 58 64  1  0
 58 60  1  0
 59 65  1  0
 60 59  1  0
 61 60  2  0
 62 63  1  0
 62 56  2  0
 63 58  2  0
 64 57  1  0
 65 55  1  0
 67 69  2  0
 68 67  1  0
 70 68  1  0
 71 80  2  0
 71 76  1  0
 72 68  1  0
 72 76  1  0
 73 72  1  0
 74 75  1  0
 74 73  1  0
 75 71  1  0
 76 77  2  0
 77 78  1  0
 79 78  2  0
 80 79  1  0
 81 55  1  0
 81 86  1  0
 81 82  1  0
 82 85  1  1
 82 83  1  0
 84 82  1  0
 86 89  1  0
 87 91  1  0
 87 86  1  0
 88 87  2  0
 91 90  1  0
 93 91  1  0
 93 94  1  0
 93 92  1  0
M  ISO  4   9 100  18 100  53 101  54 101
M  END
>  <TORSDO>  (32) 
F 20

>  <SCORE>  (32) 
-11.311

>  <name>  (32) 
31

>  <ligand_id>  (32) 
31

>  <original_smiles>  (32) 
[H]c1c([H])c([H])c2c(c1[H])C([H])([H])C([H])([H])C([H])([H])C2([H])N([H])C(=O)C1([H])N(C(=O)C([H])(N([H])C(=O)C([H])(N([H])C([H])([H])[H])C([H])([H])[H])C(C([H])([H])[H])(C([H])([H])[H])C([H])([H])[H])C([H])([H])c2c([H])c(OC([H])([H])C([H])([H])C([H])([H])N([H])c3c([H])c(F)c(C(=O)N([H])C(=O)N4C([H])([H])C([H])([H])C([H])([H])C([H])(n5nc(-c6c([H])c([H])c(Oc7c([H])c([H])c(F)c([H])c7F)c([H])c6[H])c(C(=O)N([H])[H])c5N([H])[H])C4([H])[H])c(C([H])([H])[H])c3[H])c([H])c([H])c2C1([H])[H]

>  <smiles>  (32) 
[H]c1c([H])c([H])c2c(c1[H])C([H])([H])C([H])([H])C([H])([H])C2([H])N([H])C(=O)C1([H])N(C(=O)C([H])(N([H])C(=O)C([H])(N([H])C([H])([H])[H])C([H])([H])[H])C(C([H])([H])[H])(C([H])([H])[H])C([H])([H])[H])C([H])([H])c2c([H])c(OC([H])([H])C([H])([H])C([H])([H])N([H])c3c([H])c(F)c(C(=O)N([H])C(=O)N4C([H])([H])C([H])([H])C([H])([H])C([H])(n5nc(-c6c([H])c([H])c(Oc7c([H])c([H])c(F)c([H])c7F)c([H])c6[H])c(C(=O)N([H])[H])c5N([H])[H])C4([H])[H])c(C([H])([H])[H])c3[H])c([H])c([H])c2C1([H])[H]

$$$$
32:0:0
     RDKit          3D

 89 97  0  0  1  0  0  0  0  0999 V2000
  -31.0530  -19.2090   18.2090 C   0  0  0  0  0  3  0  0  0  0  0  0
  -30.8660  -17.9240   18.7600 C   0  0  0  0  0  3  0  0  0  0  0  0
  -29.4350  -18.9850   20.3880 C   0  0  0  0  0  3  0  0  0  0  0  0
  -30.4690  -20.4010   18.7150 C   0  0  0  0  0  0  0  0  0  0  0  0
  -30.0630  -17.7010   19.8940 C   0  0  0  0  0  0  0  0  0  0  0  0
  -29.6030  -20.3840   19.8560 C   0  0  0  0  0  0  0  0  0  0  0  0
  -30.8200  -21.6610   17.9390 C   0  0  0  0  0  1  0  0  0  0  0  0
  -30.6070  -14.9960   20.0150 C   0  0  0  0  0  0  0  0  0  0  0  0
  -30.3870  -12.6820   18.9410 C   0  0  0  0  0  2  0  0  0  0  0  0
  -29.3720  -12.6820   17.7720 C   0  0  0  0  0  2  0  0  0  0  0  0
  -27.9380  -12.4550   18.2870 C   0  0  0  0  0  2  0  0  0  0  0  0
  -27.6280  -13.3190   19.5340 C   0  0  0  0  0  3  0  0  0  0  0  0
  -28.7530  -13.2370   20.5790 C   0  0  0  0  0  2  0  0  0  0  0  0
  -29.9780  -13.7370   19.9290 N   0  0  0  0  0  0  0  0  0  0  0  0
  -31.7660  -15.0190   19.5760 O   0  0  0  0  0  0  0  0  0  0  0  0
  -29.2620  -16.1760   21.7200 C   0  0  0  0  0  1  0  0  0  0  0  0
  -29.9430  -16.2330   20.4220 N   0  0  0  0  0  0  0  0  0  0  0  0
  -25.3120  -13.8960   20.4450 C   0  0  0  0  0  0  0  0  0  0  0  0
  -24.2680  -13.1190   20.8630 C   0  0  0  0  0  0  0  0  0  0  0  0
  -24.7170  -11.7660   20.7660 C   0  0  0  0  0  0  0  0  0  0  0  0
  -26.3270  -13.0150   20.1110 N   0  0  0  0  0  0  0  0  0  0  0  0
  -25.9850  -11.7280   20.3720 N   0  0  0  0  0  0  0  0  0  0  0  0
  -23.9920  -10.5050   20.9680 C   0  0  0  0  0  0  0  0  0  0  0  0
  -24.4450   -9.5270   21.8790 C   0  0  0  0  0  3  0  0  0  0  0  0
  -23.7170   -8.3330   22.0700 C   0  0  0  0  0  3  0  0  0  0  0  0
  -22.5220   -8.1090   21.3470 C   0  0  0  0  0  0  0  0  0  0  0  0
  -22.0860   -9.0760   20.4240 C   0  0  0  0  0  3  0  0  0  0  0  0
  -22.8150  -10.2620   20.2330 C   0  0  0  0  0  3  0  0  0  0  0  0
  -21.7620   -6.9690   21.4500 O   0  0  0  0  0  0  0  0  0  0  0  0
  -21.7130   -6.2360   22.6080 C   0  0  0  0  0  0  0  0  0  0  0  0
  -21.2700   -6.7960   23.8260 C   0  0  0  0  0  3  0  0  0  0  0  0
  -21.1720   -5.9880   24.9780 C   0  0  0  0  0  3  0  0  0  0  0  0
  -21.5070   -4.6220   24.9100 C   0  0  0  0  0  0  0  0  0  0  0  0
  -21.9450   -4.0630   23.6970 C   0  0  0  0  0  3  0  0  0  0  0  0
  -22.0440   -4.8670   22.5490 C   0  0  0  0  0  0  0  0  0  0  0  0
  -22.4450   -4.3180   21.3770 F   0  0  0  0  0  0  0  0  0  0  0  0
  -21.4070   -3.8450   26.0140 F   0  0  0  0  0  0  0  0  0  0  0  0
  -22.8970  -13.6000   21.2340 C   0  0  0  0  0  0  0  0  0  0  0  0
  -22.2180  -12.8860   22.1240 N   0  0  0  0  0  0  0  0  0  0  0  0
  -22.4390  -14.6440   20.7700 O   0  0  0  0  0  0  0  0  0  0  0  0
  -22.6030  -12.0410   22.5200 H   0  0  0  0  0  0  0  0  0  0  0  0
  -21.2990  -13.1870   22.4160 H   0  0  0  0  0  0  0  0  0  0  0  0
  -25.4790  -15.2700   20.2950 N   0  0  0  0  0  0  0  0  0  0  0  0
  -24.7260  -15.9280   20.4660 H   0  0  0  0  0  0  0  0  0  0  0  0
  -26.3170  -15.7100   19.9370 H   0  0  0  0  0  0  0  0  0  0  0  0
  -28.9510  -21.6120   20.3990 O   0  0  0  0  0  0  0  0  0  0  0  0
  -29.1230  -23.1420   20.0440 C   0  0  0  0  0  3  0  0  0  0  0  0
  -28.2030  -24.4930   20.5790 C   0  0  0  0  0  3  0  0  0  0  0  0
  -28.4480  -26.0520   20.4240 O   0  0  0  0  0  0  0  0  0  0  0  0
  -24.6380  -31.7990   23.2250 C   0  0  0  0  0  0  0  0  0  0  0  0
  -27.3830  -27.0410   20.3570 C   0  0  0  0  0  0  0  0  0  0  0  0
  -23.5290  -30.3800   21.5480 C   0  0  0  0  0  3  0  0  0  0  0  0
  -25.0480  -28.7920   20.2130 C   0  0  0  0  0  0  0  0  0  0  0  0
  -26.0900  -30.6500   21.5020 C   0  0  0  0  0  2  0  0  0  0  0  0
  -26.2010  -29.2500   20.8630 C   0  0  0  0  0  0  0  0  0  0  0  0
  -27.3720  -28.3930   20.9090 C   0  0  0  0  0  3  0  0  0  0  0  0
  -26.2010  -26.6960   19.6690 C   0  0  0  0  0  3  0  0  0  0  0  0
  -25.0610  -27.5280   19.6040 C   0  0  0  0  0  3  0  0  0  0  0  0
  -23.8160  -29.6840   20.1920 C   0  0  0  0  0  2  0  0  0  0  0  0
  -24.7700  -30.9670   22.1470 N   0  0  0  0  0  0  0  0  0  0  0  0
  -23.5260  -32.0830   23.6980 O   0  0  0  0  0  0  0  0  0  0  0  0
  -22.8070  -29.3810   22.4900 C   0  0  0  0  0  0  0  0  0  0  0  0
  -21.4820  -29.2170   22.3180 N   0  0  0  0  0  0  0  0  0  0  0  0
  -23.4430  -28.7530   23.3390 O   0  0  0  0  0  0  0  0  0  0  0  0
  -21.0240  -29.7770   21.6130 H   0  0  0  0  0  0  0  0  0  0  0  0
  -18.0760  -28.0460   22.7310 C   0  0  0  0  0  0  0  0  0  0  0  0
  -20.6300  -28.2850   23.0630 C   0  0  0  0  0  3  0  0  0  0  0  0
  -20.7320  -26.8540   22.4840 C   0  0  0  0  0  2  0  0  0  0  0  0
  -19.6550  -26.5470   21.4400 C   0  0  0  0  0  2  0  0  0  0  0  0
  -18.2560  -26.7000   22.0490 C   0  0  0  0  0  2  0  0  0  0  0  0
  -19.1900  -28.7960   23.1920 C   0  0  0  0  0  0  0  0  0  0  0  0
  -18.9670  -30.0550   23.7910 C   0  0  0  0  0  3  0  0  0  0  0  0
  -17.6630  -30.5650   23.9310 C   0  0  0  0  0  3  0  0  0  0  0  0
  -16.5630  -29.8130   23.4840 C   0  0  0  0  0  3  0  0  0  0  0  0
  -16.7700  -28.5540   22.8910 C   0  0  0  0  0  3  0  0  0  0  0  0
  -25.8780  -32.4520   23.9070 C   0  0  0  0  0  3  0  0  0  0  0  0
  -26.3240  -31.7090   25.2280 C   0  0  1  0  0  0  0  0  0  0  0  0
  -25.1700  -31.4820   26.2340 C   0  0  0  0  0  1  0  0  0  0  0  0
  -26.9360  -30.3270   24.9040 C   0  0  0  0  0  1  0  0  0  0  0  0
  -27.4340  -32.5210   25.9340 C   0  0  0  0  0  1  0  0  0  0  0  0
  -25.5420  -33.8560   24.2020 N   0  0  0  0  0  0  0  0  0  0  0  0
  -25.9030  -34.9030   23.4490 C   0  0  0  0  0  0  0  0  0  0  0  0
  -26.6170  -34.7900   22.4480 O   0  0  0  0  0  0  0  0  0  0  0  0
  -24.9090  -34.0140   24.9720 H   0  0  0  0  0  0  0  0  0  0  0  0
  -24.1800  -36.6860   23.0100 C   0  0  0  0  0  1  0  0  0  0  0  0
  -25.3940  -36.2980   23.8680 C   0  0  0  0  0  3  0  0  0  0  0  0
  -27.4920  -37.2100   24.7640 C   0  0  0  0  0  1  0  0  0  0  0  0
  -26.4270  -37.3540   23.7740 N   0  0  0  0  0  0  0  0  0  0  0  0
  -26.0150  -38.2770   23.8840 H   0  0  0  0  0  0  0  0  0  0  0  0
  1  4  2  0
  1  2  1  0
  2  5  2  0
  4  6  1  0
  5  3  1  0
  5 17  1  0
  6  3  2  0
  6 46  1  0
  7  4  1  0
  8 17  1  0
  9 14  1  0
 10 11  1  0
 10  9  1  0
 12 11  1  0
 12 21  1  0
 12 13  1  0
 14  8  1  0
 14 13  1  0
 15  8  2  0
 17 16  1  0
 18 19  2  0
 19 38  1  0
 20 19  1  0
 20 23  1  0
 21 22  1  0
 21 18  1  0
 22 20  2  0
 23 24  1  0
 24 25  2  0
 26 29  1  0
 26 25  1  0
 27 26  2  0
 28 27  1  0
 28 23  2  0
 29 30  1  0
 30 31  1  0
 31 32  2  0
 33 32  1  0
 33 37  1  0
 34 33  2  0
 35 30  2  0
 35 34  1  0
 36 35  1  0
 38 39  1  0
 39 42  1  0
 39 41  1  0
 40 38  2  0
 43 18  1  0
 43 44  1  0
 45 43  1  0
 47 46  1  0
 47 48  2  0
 49 48  1  0
 50 61  2  0
 51 49  1  0
 51 56  1  0
 52 60  1  0
 52 62  1  0
 53 55  1  0
 54 60  1  0
 55 56  2  0
 55 54  1  0
 57 51  2  0
 58 57  1  0
 58 53  2  0
 59 53  1  0
 59 52  1  0
 60 50  1  0
 62 64  2  0
 63 62  1  0
 65 63  1  0
 66 75  2  0
 66 71  1  0
 67 63  1  0
 67 71  1  0
 68 67  1  0
 69 70  1  0
 69 68  1  0
 70 66  1  0
 71 72  2  0
 72 73  1  0
 74 73  2  0
 75 74  1  0
 76 50  1  0
 76 81  1  0
 76 77  1  0
 77 80  1  1
 77 78  1  0
 79 77  1  0
 81 84  1  0
 82 86  1  0
 82 81  1  0
 83 82  2  0
 86 85  1  0
 88 86  1  0
 88 89  1  0
 88 87  1  0
M  ISO  4   8 100  17 100  48 101  49 101
M  END
>  <TORSDO>  (33) 
F 19

>  <SCORE>  (33) 
-14.359

>  <name>  (33) 
32

>  <ligand_id>  (33) 
32

>  <original_smiles>  (33) 
[H]c1c([H])c([H])c2c(c1[H])C([H])([H])C([H])([H])C([H])([H])C2([H])N([H])C(=O)C1([H])N(C(=O)C([H])(N([H])C(=O)C([H])(N([H])C([H])([H])[H])C([H])([H])[H])C(C([H])([H])[H])(C([H])([H])[H])C([H])([H])[H])C([H])([H])c2c([H])c(OC([H])([H])C([H])([H])Oc3c([H])c(N(C(=O)N4C([H])([H])C([H])([H])C([H])([H])C([H])(n5nc(-c6c([H])c([H])c(Oc7c([H])c([H])c(F)c([H])c7F)c([H])c6[H])c(C(=O)N([H])[H])c5N([H])[H])C4([H])[H])C([H])([H])[H])c([H])c([H])c3C([H])([H])[H])c([H])c([H])c2C1([H])[H]

>  <smiles>  (33) 
[H]c1c([H])c([H])c2c(c1[H])C([H])([H])C([H])([H])C([H])([H])C2([H])N([H])C(=O)C1([H])N(C(=O)C([H])(N([H])C(=O)C([H])(N([H])C([H])([H])[H])C([H])([H])[H])C(C([H])([H])[H])(C([H])([H])[H])C([H])([H])[H])C([H])([H])c2c([H])c(OC([H])([H])C([H])([H])Oc3c([H])c(N(C(=O)N4C([H])([H])C([H])([H])C([H])([H])C([H])(n5nc(-c6c([H])c([H])c(Oc7c([H])c([H])c(F)c([H])c7F)c([H])c6[H])c(C(=O)N([H])[H])c5N([H])[H])C4([H])[H])C([H])([H])[H])c([H])c([H])c3C([H])([H])[H])c([H])c([H])c2C1([H])[H]

$$$$
33:0:0
     RDKit          3D

 97106  0  0  1  0  0  0  0  0999 V2000
  -31.3360  -23.9710   19.9820 C   0  0  0  0  0  2  0  0  0  0  0  0
  -30.7620  -22.7550   19.2580 C   0  0  0  0  0  2  0  0  0  0  0  0
  -30.6420  -25.2840   19.5640 C   0  0  0  0  0  2  0  0  0  0  0  0
  -30.8540  -22.9300   17.7290 C   0  0  0  0  0  2  0  0  0  0  0  0
  -29.7760  -25.1780   18.2780 C   0  0  0  0  0  3  0  0  0  0  0  0
  -30.4750  -24.2900   17.2270 N   0  0  1  0  0  4  0  0  0  0  0  0
  -29.8030  -24.1170   16.4930 H   0  0  0  0  0  0  0  0  0  0  0  0
  -31.6140  -24.9730   16.4730 C   0  0  0  0  0  2  0  0  0  0  0  0
  -34.2100  -24.9460   16.4270 C   0  0  0  0  0  3  0  0  0  0  0  0
  -35.4970  -24.4080   16.1240 C   0  0  0  0  0  3  0  0  0  0  0  0
  -34.4230  -22.4460   15.2690 C   0  0  0  0  0  3  0  0  0  0  0  0
  -32.9920  -24.2620   16.1530 C   0  0  0  0  0  0  0  0  0  0  0  0
  -35.6560  -23.1180   15.5520 C   0  0  0  0  0  0  0  0  0  0  0  0
  -33.1210  -22.9940   15.5290 C   0  0  0  0  0  0  0  0  0  0  0  0
  -38.2170  -22.9870   15.6380 C   0  0  0  0  0  0  0  0  0  0  0  0
  -40.4140  -23.8940   14.8500 C   0  0  0  0  0  2  0  0  0  0  0  0
  -40.2140  -25.2510   14.1410 C   0  0  0  0  0  2  0  0  0  0  0  0
  -39.8950  -25.0440   12.6490 C   0  0  0  0  0  2  0  0  0  0  0  0
  -38.7880  -23.9830   12.4260 C   0  0  0  0  0  3  0  0  0  0  0  0
  -39.0630  -22.7120   13.2480 C   0  0  0  0  0  2  0  0  0  0  0  0
  -39.1820  -23.0930   14.6610 N   0  0  0  0  0  0  0  0  0  0  0  0
  -38.4670  -23.3640   16.7870 O   0  0  0  0  0  0  0  0  0  0  0  0
  -36.9710  -22.4590   15.3240 N   0  0  0  0  0  0  0  0  0  0  0  0
  -37.5140  -23.9520   10.1980 C   0  0  0  0  0  0  0  0  0  0  0  0
  -37.8650  -23.5270    8.9440 C   0  0  0  0  0  0  0  0  0  0  0  0
  -39.1850  -22.9920    9.0650 C   0  0  0  0  0  0  0  0  0  0  0  0
  -38.6000  -23.6760   11.0110 N   0  0  0  0  0  0  0  0  0  0  0  0
  -39.5870  -23.0380   10.3300 N   0  0  0  0  0  0  0  0  0  0  0  0
  -40.1080  -22.4920    8.0380 C   0  0  0  0  0  0  0  0  0  0  0  0
  -40.6420  -21.1850    8.0920 C   0  0  0  0  0  3  0  0  0  0  0  0
  -41.5170  -20.7250    7.0850 C   0  0  0  0  0  3  0  0  0  0  0  0
  -41.8630  -21.5720    6.0050 C   0  0  0  0  0  0  0  0  0  0  0  0
  -41.3450  -22.8790    5.9640 C   0  0  0  0  0  3  0  0  0  0  0  0
  -40.4780  -23.3370    6.9710 C   0  0  0  0  0  3  0  0  0  0  0  0
  -42.7210  -21.2200    4.9900 O   0  0  0  0  0  0  0  0  0  0  0  0
  -42.8210  -19.9250    4.5500 C   0  0  0  0  0  0  0  0  0  0  0  0
  -41.7000  -19.2110    4.0730 C   0  0  0  0  0  3  0  0  0  0  0  0
  -41.8610  -17.9060    3.5640 C   0  0  0  0  0  3  0  0  0  0  0  0
  -43.1380  -17.3170    3.5220 C   0  0  0  0  0  0  0  0  0  0  0  0
  -44.2560  -18.0300    3.9900 C   0  0  0  0  0  3  0  0  0  0  0  0
  -44.0980  -19.3310    4.5010 C   0  0  0  0  0  0  0  0  0  0  0  0
  -45.1820  -20.0190    4.9310 F   0  0  0  0  0  0  0  0  0  0  0  0
  -43.2930  -16.0660    3.0280 F   0  0  0  0  0  0  0  0  0  0  0  0
  -37.0610  -23.6930    7.6890 C   0  0  0  0  0  0  0  0  0  0  0  0
  -37.1650  -22.7470    6.7620 N   0  0  0  0  0  0  0  0  0  0  0  0
  -36.2970  -24.6460    7.5390 O   0  0  0  0  0  0  0  0  0  0  0  0
  -37.7720  -21.9530    6.8910 H   0  0  0  0  0  0  0  0  0  0  0  0
  -36.6300  -22.8200    5.9080 H   0  0  0  0  0  0  0  0  0  0  0  0
  -36.3740  -24.5670   10.7090 N   0  0  0  0  0  0  0  0  0  0  0  0
  -35.5820  -24.8100   10.1230 H   0  0  0  0  0  0  0  0  0  0  0  0
  -36.2470  -24.8300   11.6780 H   0  0  0  0  0  0  0  0  0  0  0  0
  -36.7100  -20.3280   13.9390 C   0  0  0  0  0  1  0  0  0  0  0  0
  -36.9170  -20.9770   15.3250 C   0  0  0  0  0  2  0  0  0  0  0  0
  -32.0190  -21.0650   14.5920 C   0  0  0  0  0  1  0  0  0  0  0  0
  -31.9450  -22.3450   15.2100 O   0  0  0  0  0  0  0  0  0  0  0  0
  -28.2400  -24.8600   18.6150 C   0  0  0  0  0  2  0  0  0  0  0  0
  -27.4570  -25.8540   19.3930 O   0  0  0  0  0  0  0  0  0  0  0  0
  -20.7330  -27.9690   20.9600 C   0  0  0  0  0  0  0  0  0  0  0  0
  -26.1740  -26.1930   18.9510 C   0  0  0  0  0  0  0  0  0  0  0  0
  -21.1110  -27.0610   18.6940 C   0  0  0  0  0  3  0  0  0  0  0  0
  -23.5540  -26.7970   17.9870 C   0  0  0  0  0  0  0  0  0  0  0  0
  -23.0110  -28.2370   19.9510 C   0  0  0  0  0  2  0  0  0  0  0  0
  -23.9930  -27.3510   19.1970 C   0  0  0  0  0  0  0  0  0  0  0  0
  -25.3070  -27.0670   19.6730 C   0  0  0  0  0  3  0  0  0  0  0  0
  -25.7070  -25.6820   17.7210 C   0  0  0  0  0  3  0  0  0  0  0  0
  -24.4140  -25.9720   17.2430 C   0  0  0  0  0  3  0  0  0  0  0  0
  -22.1450  -27.1190   17.5370 C   0  0  0  0  0  2  0  0  0  0  0  0
  -21.6020  -27.7540   19.9290 N   0  0  0  0  0  0  0  0  0  0  0  0
  -19.5430  -27.6350   20.8780 O   0  0  0  0  0  0  0  0  0  0  0  0
  -20.7110  -25.5860   18.9350 C   0  0  0  0  0  0  0  0  0  0  0  0
  -19.4040  -25.3380   19.1300 N   0  0  0  0  0  0  0  0  0  0  0  0
  -21.5620  -24.6940   18.9170 O   0  0  0  0  0  0  0  0  0  0  0  0
  -18.7730  -26.1270   19.1370 H   0  0  0  0  0  0  0  0  0  0  0  0
  -16.3850  -23.6470   20.1770 C   0  0  0  0  0  0  0  0  0  0  0  0
  -18.7990  -24.0220   19.3300 C   0  0  0  0  0  3  0  0  0  0  0  0
  -18.3130  -23.4260   17.9900 C   0  0  0  0  0  2  0  0  0  0  0  0
  -16.8420  -23.7340   17.6900 C   0  0  0  0  0  2  0  0  0  0  0  0
  -15.9400  -23.1870   18.7990 C   0  0  0  0  0  2  0  0  0  0  0  0
  -17.7220  -24.0550   20.4230 C   0  0  0  0  0  0  0  0  0  0  0  0
  -18.0720  -24.5080   21.7140 C   0  0  0  0  0  3  0  0  0  0  0  0
  -17.1160  -24.5540   22.7450 C   0  0  0  0  0  3  0  0  0  0  0  0
  -15.7980  -24.1330   22.5000 C   0  0  0  0  0  3  0  0  0  0  0  0
  -15.4360  -23.6760   21.2190 C   0  0  0  0  0  3  0  0  0  0  0  0
  -21.1870  -28.6650   22.2800 C   0  0  0  0  0  3  0  0  0  0  0  0
  -20.0560  -28.6200   23.2180 N   0  0  0  0  0  0  0  0  0  0  0  0
  -18.9520  -29.3710   23.1150 C   0  0  0  0  0  0  0  0  0  0  0  0
  -18.8090  -30.2340   22.2460 O   0  0  0  0  0  0  0  0  0  0  0  0
  -20.0820  -27.8940   23.9190 H   0  0  0  0  0  0  0  0  0  0  0  0
  -16.7500  -28.2220   23.5160 C   0  0  0  0  0  1  0  0  0  0  0  0
  -17.8260  -29.1260   24.1390 C   0  0  0  0  0  3  0  0  0  0  0  0
  -18.1450  -31.2570   25.3170 C   0  0  0  0  0  1  0  0  0  0  0  0
  -17.2030  -30.3710   24.6380 N   0  0  0  0  0  0  0  0  0  0  0  0
  -16.4440  -30.1620   25.2810 H   0  0  0  0  0  0  0  0  0  0  0  0
  -22.4680  -28.0020   22.9230 C   0  0  1  0  0  0  0  0  0  0  0  0
  -22.3290  -26.4790   23.1580 C   0  0  0  0  0  1  0  0  0  0  0  0
  -23.7090  -28.2280   22.0250 C   0  0  0  0  0  1  0  0  0  0  0  0
  -22.7800  -28.6730   24.2810 C   0  0  0  0  0  1  0  0  0  0  0  0
  2  1  1  0
  3  1  1  0
  4  2  1  0
  5 56  1  0
  5  3  1  0
  6  4  1  0
  6  5  1  0
  6  7  1  6
  8  6  1  0
 10  9  2  0
 11 14  1  0
 11 13  2  0
 12  9  1  0
 12  8  1  0
 13 10  1  0
 14 12  2  0
 15 22  2  0
 17 16  1  0
 18 17  1  0
 19 27  1  0
 19 18  1  0
 19 20  1  0
 20 21  1  0
 21 16  1  0
 21 15  1  0
 23 53  1  0
 23 13  1  0
 23 15  1  0
 24 49  1  0
 24 27  1  0
 25 26  1  0
 25 24  2  0
 26 28  2  0
 28 27  1  0
 29 30  1  0
 29 26  1  0
 31 30  2  0
 32 31  1  0
 33 32  2  0
 33 34  1  0
 34 29  2  0
 35 32  1  0
 36 35  1  0
 37 36  2  0
 38 37  1  0
 39 38  2  0
 39 40  1  0
 40 41  2  0
 41 36  1  0
 41 42  1  0
 43 39  1  0
 44 25  1  0
 45 47  1  0
 45 44  1  0
 46 44  2  0
 48 45  1  0
 49 51  1  0
 50 49  1  0
 52 53  1  0
 54 55  1  0
 55 14  1  0
 56 57  1  0
 59 57  1  0
 59 64  1  0
 60 70  1  0
 60 68  1  0
 61 63  1  0
 63 64  2  0
 63 62  1  0
 65 59  2  0
 66 65  1  0
 66 61  2  0
 67 61  1  0
 67 60  1  0
 68 62  1  0
 68 58  1  0
 69 58  2  0
 70 71  1  0
 71 73  1  0
 72 70  2  0
 74 79  2  0
 74 83  1  0
 75 71  1  0
 75 79  1  0
 76 75  1  0
 77 76  1  0
 77 78  1  0
 78 74  1  0
 79 80  1  0
 80 81  2  0
 82 81  1  0
 83 82  2  0
 84 58  1  0
 84 94  1  0
 84 85  1  0
 85 88  1  0
 86 85  1  0
 86 90  1  0
 87 86  2  0
 90 89  1  0
 90 92  1  0
 92 93  1  0
 92 91  1  0
 94 95  1  1
 94 97  1  0
 96 94  1  0
M  ISO  4  15 100  23 100  56 101  57 101
M  END
>  <TORSDO>  (34) 
F 21

>  <SCORE>  (34) 
0.843

>  <name>  (34) 
33

>  <ligand_id>  (34) 
33

>  <original_smiles>  (34) 
[H]c1c([H])c([H])c2c(c1[H])C([H])([H])C([H])([H])C([H])([H])C2([H])N([H])C(=O)C1([H])N(C(=O)C([H])(N([H])C(=O)C([H])(N([H])C([H])([H])[H])C([H])([H])[H])C(C([H])([H])[H])(C([H])([H])[H])C([H])([H])[H])C([H])([H])c2c([H])c(OC([H])([H])C3([H])C([H])([H])C([H])([H])C([H])([H])C([H])([H])[N+]3([H])C([H])([H])c3c([H])c([H])c(N(C(=O)N4C([H])([H])C([H])([H])C([H])([H])C([H])(n5nc(-c6c([H])c([H])c(Oc7c([H])c([H])c(F)c([H])c7F)c([H])c6[H])c(C(=O)N([H])[H])c5N([H])[H])C4([H])[H])C([H])([H])C([H])([H])[H])c([H])c3OC([H])([H])[H])c([H])c([H])c2C1([H])[H]

>  <smiles>  (34) 
[H]c1c([H])c([H])c2c(c1[H])C([H])([H])C([H])([H])C([H])([H])C2([H])N([H])C(=O)C1([H])N(C(=O)C([H])(N([H])C(=O)C([H])(N([H])C([H])([H])[H])C([H])([H])[H])C(C([H])([H])[H])(C([H])([H])[H])C([H])([H])[H])C([H])([H])c2c([H])c(OC([H])([H])C3([H])C([H])([H])C([H])([H])C([H])([H])C([H])([H])[N+]3([H])C([H])([H])c3c([H])c([H])c(N(C(=O)N4C([H])([H])C([H])([H])C([H])([H])C([H])(n5nc(-c6c([H])c([H])c(Oc7c([H])c([H])c(F)c([H])c7F)c([H])c6[H])c(C(=O)N([H])[H])c5N([H])[H])C4([H])[H])C([H])([H])C([H])([H])[H])c([H])c3OC([H])([H])[H])c([H])c([H])c2C1([H])[H]

$$$$
34:0:0
     RDKit          3D

 96104  0  0  1  0  0  0  0  0999 V2000
  -30.7180  -19.5720   18.8070 C   0  0  0  0  0  3  0  0  0  0  0  0
  -30.3130  -20.9280   18.9100 C   0  0  0  0  0  3  0  0  0  0  0  0
  -30.7040  -18.6500   19.8930 C   0  0  0  0  0  0  0  0  0  0  0  0
  -30.1960  -19.1600   21.1390 C   0  0  0  0  0  0  0  0  0  0  0  0
  -29.7190  -20.5340   21.2170 C   0  0  0  0  0  0  0  0  0  0  0  0
  -29.8280  -21.4600   20.1250 C   0  0  0  0  0  0  0  0  0  0  0  0
  -29.0940  -21.0510   22.5170 C   0  0  0  0  0  1  0  0  0  0  0  0
  -31.5180  -14.8560   19.4310 C   0  0  0  0  0  0  0  0  0  0  0  0
  -31.0360  -12.6430   18.4140 C   0  0  0  0  0  2  0  0  0  0  0  0
  -29.9600  -12.7940   17.3220 C   0  0  0  0  0  2  0  0  0  0  0  0
  -28.5580  -12.6480   17.9390 C   0  0  0  0  0  2  0  0  0  0  0  0
  -28.3710  -13.5110   19.2160 C   0  0  0  0  0  3  0  0  0  0  0  0
  -29.5680  -13.3900   20.1870 C   0  0  0  0  0  2  0  0  0  0  0  0
  -30.7840  -13.6950   19.4250 N   0  0  0  0  0  0  0  0  0  0  0  0
  -32.6540  -14.8240   18.9580 O   0  0  0  0  0  0  0  0  0  0  0  0
  -31.4640  -17.3150   19.6700 C   0  0  0  0  0  0  0  0  0  0  0  0
  -30.9000  -16.0540   19.7530 N   0  0  0  0  0  0  0  0  0  0  0  0
  -32.6540  -17.4810   19.3790 O   0  0  0  0  0  0  0  0  0  0  0  0
  -29.9350  -16.0140   20.0250 H   0  0  0  0  0  0  0  0  0  0  0  0
  -26.1310  -14.1130   20.3080 C   0  0  0  0  0  0  0  0  0  0  0  0
  -25.1000  -13.3450   20.7750 C   0  0  0  0  0  0  0  0  0  0  0  0
  -25.5040  -11.9860   20.5920 C   0  0  0  0  0  0  0  0  0  0  0  0
  -27.1000  -13.2260   19.8740 N   0  0  0  0  0  0  0  0  0  0  0  0
  -26.7380  -11.9360   20.1050 N   0  0  0  0  0  0  0  0  0  0  0  0
  -24.7630  -10.7340   20.7970 C   0  0  0  0  0  0  0  0  0  0  0  0
  -25.1660   -9.7880   21.7640 C   0  0  0  0  0  3  0  0  0  0  0  0
  -24.4250   -8.6020   21.9570 C   0  0  0  0  0  3  0  0  0  0  0  0
  -23.2680   -8.3540   21.1810 C   0  0  0  0  0  0  0  0  0  0  0  0
  -22.8850   -9.2880   20.2030 C   0  0  0  0  0  3  0  0  0  0  0  0
  -23.6260  -10.4660   20.0090 C   0  0  0  0  0  3  0  0  0  0  0  0
  -22.5010   -7.2170   21.2810 O   0  0  0  0  0  0  0  0  0  0  0  0
  -22.2070   -6.6520   22.4960 C   0  0  0  0  0  0  0  0  0  0  0  0
  -21.5240   -7.3660   23.5040 C   0  0  0  0  0  3  0  0  0  0  0  0
  -21.1820   -6.7240   24.7110 C   0  0  0  0  0  3  0  0  0  0  0  0
  -21.5110   -5.3700   24.9080 C   0  0  0  0  0  0  0  0  0  0  0  0
  -22.1850   -4.6560   23.9020 C   0  0  0  0  0  3  0  0  0  0  0  0
  -22.5290   -5.2950   22.6980 C   0  0  0  0  0  0  0  0  0  0  0  0
  -23.1600   -4.5960   21.7240 F   0  0  0  0  0  0  0  0  0  0  0  0
  -21.1750   -4.7510   26.0650 F   0  0  0  0  0  0  0  0  0  0  0  0
  -23.7720  -13.8410   21.2680 C   0  0  0  0  0  0  0  0  0  0  0  0
  -23.1630  -13.1290   22.2120 N   0  0  0  0  0  0  0  0  0  0  0  0
  -23.2880  -14.8930   20.8530 O   0  0  0  0  0  0  0  0  0  0  0  0
  -23.5710  -12.2760   22.5650 H   0  0  0  0  0  0  0  0  0  0  0  0
  -22.2790  -13.4410   22.5840 H   0  0  0  0  0  0  0  0  0  0  0  0
  -26.3130  -15.4870   20.1900 N   0  0  0  0  0  0  0  0  0  0  0  0
  -25.5820  -16.1450   20.4380 H   0  0  0  0  0  0  0  0  0  0  0  0
  -27.0950  -15.9260   19.7250 H   0  0  0  0  0  0  0  0  0  0  0  0
  -29.5660  -24.0230   19.5670 C   0  0  0  0  0  0  0  0  0  0  0  0
  -29.4530  -22.8720   20.3110 N   0  0  0  0  0  0  0  0  0  0  0  0
  -30.0230  -24.0420   18.4200 O   0  0  0  0  0  0  0  0  0  0  0  0
  -29.0570  -23.0580   21.2210 H   0  0  0  0  0  0  0  0  0  0  0  0
  -29.0720  -25.3690   20.2430 C   0  0  0  0  0  2  0  0  0  0  0  0
  -29.0610  -26.6120   19.4290 O   0  0  0  0  0  0  0  0  0  0  0  0
  -24.7250  -31.1970   22.9380 C   0  0  0  0  0  0  0  0  0  0  0  0
  -27.8630  -27.3340   19.4730 C   0  0  0  0  0  0  0  0  0  0  0  0
  -23.6900  -29.7980   21.1870 C   0  0  0  0  0  3  0  0  0  0  0  0
  -25.3090  -28.5960   19.6150 C   0  0  0  0  0  0  0  0  0  0  0  0
  -26.1570  -30.4800   21.0140 C   0  0  0  0  0  2  0  0  0  0  0  0
  -26.4110  -29.1890   20.2450 C   0  0  0  0  0  0  0  0  0  0  0  0
  -27.6940  -28.5710   20.1650 C   0  0  0  0  0  3  0  0  0  0  0  0
  -26.7380  -26.7960   18.8130 C   0  0  0  0  0  3  0  0  0  0  0  0
  -25.4730  -27.4070   18.8880 C   0  0  0  0  0  3  0  0  0  0  0  0
  -23.9650  -29.2830   19.7500 C   0  0  0  0  0  2  0  0  0  0  0  0
  -24.8750  -30.5060   21.7710 N   0  0  0  0  0  0  0  0  0  0  0  0
  -23.6260  -31.2760   23.5040 O   0  0  0  0  0  0  0  0  0  0  0  0
  -23.1910  -28.6190   22.0570 C   0  0  0  0  0  0  0  0  0  0  0  0
  -21.9150  -28.2350   21.8770 N   0  0  0  0  0  0  0  0  0  0  0  0
  -23.9490  -28.0570   22.8500 O   0  0  0  0  0  0  0  0  0  0  0  0
  -21.3540  -28.7500   21.2150 H   0  0  0  0  0  0  0  0  0  0  0  0
  -18.8050  -26.4040   22.1230 C   0  0  0  0  0  0  0  0  0  0  0  0
  -21.2500  -27.1220   22.5590 C   0  0  0  0  0  3  0  0  0  0  0  0
  -21.6520  -25.7660   21.9340 C   0  0  0  0  0  2  0  0  0  0  0  0
  -20.6860  -25.2960   20.8420 C   0  0  0  0  0  2  0  0  0  0  0  0
  -19.2690  -25.1470   21.4050 C   0  0  0  0  0  2  0  0  0  0  0  0
  -19.7350  -27.3390   22.6500 C   0  0  0  0  0  0  0  0  0  0  0  0
  -19.2500  -28.5070   23.2780 C   0  0  0  0  0  3  0  0  0  0  0  0
  -17.8670  -28.7460   23.3850 C   0  0  0  0  0  3  0  0  0  0  0  0
  -16.9510  -27.8100   22.8730 C   0  0  0  0  0  3  0  0  0  0  0  0
  -17.4200  -26.6410   22.2490 C   0  0  0  0  0  3  0  0  0  0  0  0
  -25.9230  -31.9410   23.6050 C   0  0  0  0  0  3  0  0  0  0  0  0
  -26.5410  -31.1550   24.8270 C   0  0  1  0  0  0  0  0  0  0  0  0
  -25.4950  -30.7250   25.8820 C   0  0  0  0  0  1  0  0  0  0  0  0
  -27.2740  -29.8820   24.3450 C   0  0  0  0  0  1  0  0  0  0  0  0
  -27.6000  -32.0330   25.5330 C   0  0  0  0  0  1  0  0  0  0  0  0
  -25.4430  -33.2640   24.0310 N   0  0  0  0  0  0  0  0  0  0  0  0
  -25.6400  -34.4010   23.3520 C   0  0  0  0  0  0  0  0  0  0  0  0
  -26.3140  -34.4550   22.3190 O   0  0  0  0  0  0  0  0  0  0  0  0
  -24.8370  -33.2850   24.8390 H   0  0  0  0  0  0  0  0  0  0  0  0
  -23.7050  -35.9900   23.1110 C   0  0  0  0  0  1  0  0  0  0  0  0
  -24.9860  -35.6820   23.9030 C   0  0  0  0  0  3  0  0  0  0  0  0
  -26.9890  -36.7640   24.8240 C   0  0  0  0  0  1  0  0  0  0  0  0
  -25.8810  -36.8600   23.8770 N   0  0  0  0  0  0  0  0  0  0  0  0
  -25.3640  -37.7100   24.0800 H   0  0  0  0  0  0  0  0  0  0  0  0
  -31.5500  -18.1980   23.1610 C   0  0  0  0  0  1  0  0  0  0  0  0
  -29.5050  -16.9390   22.2230 C   0  0  0  0  0  1  0  0  0  0  0  0
  -30.1980  -18.2950   22.4250 C   0  0  0  0  0  3  0  0  0  0  0  0
  1  2  2  0
  1  3  1  0
  2  6  1  0
  3  4  2  0
  4  5  1  0
  4 96  1  0
  5  7  1  0
  6 49  1  0
  6  5  2  0
  8 17  1  0
  9 14  1  0
 10 11  1  0
 10  9  1  0
 12 11  1  0
 12 23  1  0
 12 13  1  0
 14  8  1  0
 14 13  1  0
 15  8  2  0
 16 17  1  0
 16  3  1  0
 17 19  1  0
 18 16  2  0
 20 21  2  0
 21 40  1  0
 22 21  1  0
 22 25  1  0
 23 24  1  0
 23 20  1  0
 24 22  2  0
 25 26  1  0
 26 27  2  0
 28 31  1  0
 28 27  1  0
 29 28  2  0
 30 29  1  0
 30 25  2  0
 31 32  1  0
 32 37  2  0
 32 33  1  0
 33 34  2  0
 34 35  1  0
 35 39  1  0
 36 35  2  0
 37 36  1  0
 38 37  1  0
 40 41  1  0
 41 43  1  0
 41 44  1  0
 42 40  2  0
 45 20  1  0
 45 46  1  0
 47 45  1  0
 48 52  1  0
 48 49  1  0
 49 51  1  0
 50 48  2  0
 53 55  1  0
 53 52  1  0
 54 65  2  0
 55 60  1  0
 56 64  1  0
 56 66  1  0
 57 63  1  0
 57 59  1  0
 58 64  1  0
 59 58  1  0
 60 59  2  0
 61 62  1  0
 61 55  2  0
 62 57  2  0
 63 56  1  0
 64 54  1  0
 66 68  2  0
 67 66  1  0
 69 67  1  0
 70 79  2  0
 70 75  1  0
 71 67  1  0
 71 75  1  0
 72 71  1  0
 73 74  1  0
 73 72  1  0
 74 70  1  0
 75 76  2  0
 76 77  1  0
 78 77  2  0
 79 78  1  0
 80 54  1  0
 80 85  1  0
 80 81  1  0
 81 84  1  1
 81 82  1  0
 83 81  1  0
 85 88  1  0
 86 90  1  0
 86 85  1  0
 87 86  2  0
 90 89  1  0
 92 90  1  0
 92 93  1  0
 92 91  1  0
 95 96  1  0
 96 94  1  0
M  ISO  4   8 100  17 100  52 101  53 101
M  END
>  <TORSDO>  (35) 
F 19

>  <SCORE>  (35) 
-7.847

>  <name>  (35) 
34

>  <ligand_id>  (35) 
34

>  <original_smiles>  (35) 
[H]c1c([H])c([H])c2c(c1[H])C([H])([H])C([H])([H])C([H])([H])C2([H])N([H])C(=O)C1([H])N(C(=O)C([H])(N([H])C(=O)C([H])(N([H])C([H])([H])[H])C([H])([H])[H])C(C([H])([H])[H])(C([H])([H])[H])C([H])([H])[H])C([H])([H])c2c([H])c(OC([H])([H])C(=O)N([H])c3c([H])c([H])c(C(=O)N([H])C(=O)N4C([H])([H])C([H])([H])C([H])([H])C([H])(n5nc(-c6c([H])c([H])c(Oc7c([H])c([H])c(F)c([H])c7F)c([H])c6[H])c(C(=O)N([H])[H])c5N([H])[H])C4([H])[H])c(C([H])(C([H])([H])[H])C([H])([H])[H])c3C([H])([H])[H])c([H])c([H])c2C1([H])[H]

>  <smiles>  (35) 
[H]c1c([H])c([H])c2c(c1[H])C([H])([H])C([H])([H])C([H])([H])C2([H])N([H])C(=O)C1([H])N(C(=O)C([H])(N([H])C(=O)C([H])(N([H])C([H])([H])[H])C([H])([H])[H])C(C([H])([H])[H])(C([H])([H])[H])C([H])([H])[H])C([H])([H])c2c([H])c(OC([H])([H])C(=O)N([H])c3c([H])c([H])c(C(=O)N([H])C(=O)N4C([H])([H])C([H])([H])C([H])([H])C([H])(n5nc(-c6c([H])c([H])c(Oc7c([H])c([H])c(F)c([H])c7F)c([H])c6[H])c(C(=O)N([H])[H])c5N([H])[H])C4([H])[H])c(C([H])(C([H])([H])[H])C([H])([H])[H])c3C([H])([H])[H])c([H])c([H])c2C1([H])[H]

$$$$
35:0:0
     RDKit          3D

 96105  0  0  1  0  0  0  0  0999 V2000
  -30.8570  -21.8860   19.1720 C   0  0  0  0  0  0  0  0  0  0  0  0
  -28.8650  -22.5080   20.3450 C   0  0  0  0  0  0  0  0  0  0  0  0
  -31.0110  -23.3070   18.6160 C   0  0  0  0  0  2  0  0  0  0  0  0
  -30.4150  -24.3530   19.5520 C   0  0  0  0  0  2  0  0  0  0  0  0
  -28.9530  -24.0110   19.8210 C   0  0  0  0  0  3  0  0  0  0  0  0
  -29.8050  -21.5500   19.9840 N   0  0  0  0  0  0  0  0  0  0  0  0
  -31.7250  -21.0760   18.8260 O   0  0  0  0  0  0  0  0  0  0  0  0
  -27.9080  -22.2140   21.0740 O   0  0  0  0  0  0  0  0  0  0  0  0
  -28.7530  -19.2910   19.6510 C   0  0  0  0  0  3  0  0  0  0  0  0
  -30.6270  -19.4180   21.1420 C   0  0  0  0  0  3  0  0  0  0  0  0
  -28.8360  -17.8690   19.6680 C   0  0  0  0  0  0  0  0  0  0  0  0
  -29.6930  -20.1110   20.3140 C   0  0  0  0  0  0  0  0  0  0  0  0
  -29.8770  -17.1680   20.3700 C   0  0  0  0  0  0  0  0  0  0  0  0
  -30.7160  -17.9890   21.1810 C   0  0  0  0  0  0  0  0  0  0  0  0
  -27.7890  -17.1620   18.8220 C   0  0  0  0  0  1  0  0  0  0  0  0
  -31.6830  -17.4280   21.9430 F   0  0  0  0  0  0  0  0  0  0  0  0
  -30.7800  -14.7710   20.8250 C   0  0  0  0  0  0  0  0  0  0  0  0
  -30.6290  -12.4310   20.0060 C   0  0  0  0  0  2  0  0  0  0  0  0
  -29.7930  -12.3820   18.7080 C   0  0  0  0  0  2  0  0  0  0  0  0
  -28.2830  -12.3230   19.0130 C   0  0  0  0  0  2  0  0  0  0  0  0
  -27.8220  -13.2760   20.1510 C   0  0  0  0  0  3  0  0  0  0  0  0
  -28.7970  -13.2780   21.3460 C   0  0  0  0  0  2  0  0  0  0  0  0
  -30.1300  -13.5630   20.8090 N   0  0  0  0  0  0  0  0  0  0  0  0
  -32.0100  -14.7910   20.9070 O   0  0  0  0  0  0  0  0  0  0  0  0
  -30.6270  -15.6620   18.6290 C   0  0  0  0  0  1  0  0  0  0  0  0
  -30.1900  -15.7570   20.0440 N   0  0  0  0  0  0  0  0  0  0  0  0
  -25.3820  -13.8970   20.6600 C   0  0  0  0  0  0  0  0  0  0  0  0
  -24.2850  -13.1330   20.9480 C   0  0  0  0  0  0  0  0  0  0  0  0
  -24.7460  -11.7820   21.0020 C   0  0  0  0  0  0  0  0  0  0  0  0
  -26.4420  -13.0110   20.5470 N   0  0  0  0  0  0  0  0  0  0  0  0
  -26.0600  -11.7370   20.8190 N   0  0  0  0  0  0  0  0  0  0  0  0
  -24.0030  -10.5240   21.1610 C   0  0  0  0  0  0  0  0  0  0  0  0
  -24.3740   -9.5650   22.1280 C   0  0  0  0  0  3  0  0  0  0  0  0
  -23.6320   -8.3730   22.2730 C   0  0  0  0  0  3  0  0  0  0  0  0
  -22.5070   -8.1300   21.4510 C   0  0  0  0  0  0  0  0  0  0  0  0
  -22.1570   -9.0780   20.4730 C   0  0  0  0  0  3  0  0  0  0  0  0
  -22.8990  -10.2630   20.3260 C   0  0  0  0  0  3  0  0  0  0  0  0
  -21.7460   -6.9870   21.5040 O   0  0  0  0  0  0  0  0  0  0  0  0
  -21.6490   -6.2410   22.6500 C   0  0  0  0  0  0  0  0  0  0  0  0
  -21.1950   -6.7990   23.8650 C   0  0  0  0  0  3  0  0  0  0  0  0
  -21.0400   -5.9800   25.0020 C   0  0  0  0  0  3  0  0  0  0  0  0
  -21.3320   -4.6060   24.9260 C   0  0  0  0  0  0  0  0  0  0  0  0
  -21.7820   -4.0470   23.7160 C   0  0  0  0  0  3  0  0  0  0  0  0
  -21.9360   -4.8620   22.5810 C   0  0  0  0  0  0  0  0  0  0  0  0
  -22.3460   -4.3150   21.4120 F   0  0  0  0  0  0  0  0  0  0  0  0
  -21.1800   -3.8180   26.0150 F   0  0  0  0  0  0  0  0  0  0  0  0
  -22.8690  -13.6140   21.0730 C   0  0  0  0  0  0  0  0  0  0  0  0
  -22.0650  -12.9480   21.8980 N   0  0  0  0  0  0  0  0  0  0  0  0
  -22.4780  -14.6170   20.4770 O   0  0  0  0  0  0  0  0  0  0  0  0
  -22.3920  -12.1380   22.4030 H   0  0  0  0  0  0  0  0  0  0  0  0
  -21.1120  -13.2550   22.0230 H   0  0  0  0  0  0  0  0  0  0  0  0
  -25.5630  -15.2630   20.4640 N   0  0  0  0  0  0  0  0  0  0  0  0
  -24.7940  -15.9220   20.5130 H   0  0  0  0  0  0  0  0  0  0  0  0
  -26.4560  -15.7110   20.3030 H   0  0  0  0  0  0  0  0  0  0  0  0
  -28.2580  -25.1690   20.6590 C   0  0  0  0  0  2  0  0  0  0  0  0
  -28.3850  -26.5550   20.1530 O   0  0  0  0  0  0  0  0  0  0  0  0
  -24.6490  -31.9010   23.2040 C   0  0  0  0  0  0  0  0  0  0  0  0
  -27.2500  -27.3680   20.1430 C   0  0  0  0  0  0  0  0  0  0  0  0
  -23.4270  -30.4910   21.5830 C   0  0  0  0  0  3  0  0  0  0  0  0
  -24.8700  -28.9420   20.1440 C   0  0  0  0  0  0  0  0  0  0  0  0
  -25.9570  -30.8310   21.3610 C   0  0  0  0  0  2  0  0  0  0  0  0
  -26.0380  -29.4510   20.7250 C   0  0  0  0  0  0  0  0  0  0  0  0
  -27.2330  -28.6750   20.7140 C   0  0  0  0  0  3  0  0  0  0  0  0
  -26.0640  -26.9060   19.5340 C   0  0  0  0  0  3  0  0  0  0  0  0
  -24.8830  -27.6750   19.5370 C   0  0  0  0  0  3  0  0  0  0  0  0
  -23.6250  -29.8100   20.2030 C   0  0  0  0  0  2  0  0  0  0  0  0
  -24.6960  -31.0910   22.1070 N   0  0  0  0  0  0  0  0  0  0  0  0
  -23.5730  -32.1770   23.7540 O   0  0  0  0  0  0  0  0  0  0  0  0
  -22.7850  -29.4770   22.5580 C   0  0  0  0  0  0  0  0  0  0  0  0
  -21.4600  -29.2890   22.4460 N   0  0  0  0  0  0  0  0  0  0  0  0
  -23.4780  -28.8610   23.3720 O   0  0  0  0  0  0  0  0  0  0  0  0
  -20.9590  -29.8380   21.7630 H   0  0  0  0  0  0  0  0  0  0  0  0
  -18.0990  -28.0660   22.9790 C   0  0  0  0  0  0  0  0  0  0  0  0
  -20.6560  -28.3510   23.2310 C   0  0  0  0  0  3  0  0  0  0  0  0
  -20.7700  -26.9170   22.6670 C   0  0  0  0  0  2  0  0  0  0  0  0
  -19.6640  -26.5730   21.6640 C   0  0  0  0  0  2  0  0  0  0  0  0
  -18.2840  -26.7120   22.3160 C   0  0  0  0  0  2  0  0  0  0  0  0
  -19.2130  -28.8420   23.3960 C   0  0  0  0  0  0  0  0  0  0  0  0
  -18.9860  -30.1090   23.9760 C   0  0  0  0  0  3  0  0  0  0  0  0
  -17.6780  -30.5980   24.1470 C   0  0  0  0  0  3  0  0  0  0  0  0
  -16.5790  -29.8200   23.7480 C   0  0  0  0  0  3  0  0  0  0  0  0
  -16.7900  -28.5560   23.1660 C   0  0  0  0  0  3  0  0  0  0  0  0
  -25.9400  -32.5390   23.8040 C   0  0  0  0  0  3  0  0  0  0  0  0
  -25.6220  -33.9310   24.1570 N   0  0  0  0  0  0  0  0  0  0  0  0
  -25.9300  -34.9960   23.4050 C   0  0  0  0  0  0  0  0  0  0  0  0
  -26.5830  -34.9130   22.3610 O   0  0  0  0  0  0  0  0  0  0  0  0
  -25.0390  -34.0690   24.9690 H   0  0  0  0  0  0  0  0  0  0  0  0
  -24.1800  -36.7780   23.1020 C   0  0  0  0  0  1  0  0  0  0  0  0
  -25.4370  -36.3740   23.8890 C   0  0  0  0  0  3  0  0  0  0  0  0
  -27.5760  -37.2690   24.6940 C   0  0  0  0  0  1  0  0  0  0  0  0
  -26.4570  -37.4390   23.7720 N   0  0  0  0  0  0  0  0  0  0  0  0
  -26.0450  -38.3540   23.9400 H   0  0  0  0  0  0  0  0  0  0  0  0
  -26.4900  -31.7600   25.0600 C   0  0  1  0  0  0  0  0  0  0  0  0
  -25.4230  -31.5030   26.1490 C   0  0  0  0  0  1  0  0  0  0  0  0
  -27.0750  -30.3910   24.6420 C   0  0  0  0  0  1  0  0  0  0  0  0
  -27.6460  -32.5580   25.7060 C   0  0  0  0  0  1  0  0  0  0  0  0
  1  6  1  0
  2  8  2  0
  3  1  1  0
  3  4  1  0
  4  5  1  0
  5  2  1  0
  5 55  1  0
  6 12  1  0
  6  2  1  0
  7  1  2  0
  9 11  2  0
  9 12  1  0
 10 14  1  0
 11 13  1  0
 12 10  2  0
 13 14  2  0
 14 16  1  0
 15 11  1  0
 17 24  2  0
 18 23  1  0
 19 20  1  0
 19 18  1  0
 21 20  1  0
 21 30  1  0
 21 22  1  0
 23 17  1  0
 23 22  1  0
 25 26  1  0
 26 13  1  0
 26 17  1  0
 27 28  2  0
 28 29  1  0
 28 47  1  0
 29 32  1  0
 30 27  1  0
 30 31  1  0
 31 29  2  0
 32 33  1  0
 33 34  2  0
 35 38  1  0
 35 34  1  0
 36 35  2  0
 37 36  1  0
 37 32  2  0
 38 39  1  0
 39 40  1  0
 40 41  2  0
 42 41  1  0
 42 46  1  0
 43 42  2  0
 44 39  2  0
 44 43  1  0
 45 44  1  0
 47 48  1  0
 48 51  1  0
 48 50  1  0
 49 47  2  0
 52 53  1  0
 52 27  1  0
 54 52  1  0
 56 55  1  0
 57 68  2  0
 58 56  1  0
 58 63  1  0
 59 67  1  0
 59 69  1  0
 60 66  1  0
 60 62  1  0
 61 67  1  0
 62 61  1  0
 63 62  2  0
 64 65  1  0
 64 58  2  0
 65 60  2  0
 66 59  1  0
 67 57  1  0
 69 71  2  0
 70 69  1  0
 72 70  1  0
 73 82  2  0
 73 78  1  0
 74 70  1  0
 74 78  1  0
 75 74  1  0
 76 77  1  0
 76 75  1  0
 77 73  1  0
 78 79  2  0
 79 80  1  0
 81 80  2  0
 82 81  1  0
 83 57  1  0
 83 84  1  0
 83 93  1  0
 84 87  1  0
 85 89  1  0
 85 84  1  0
 86 85  2  0
 89 88  1  0
 91 89  1  0
 91 92  1  0
 91 90  1  0
 93 96  1  1
 93 94  1  0
 95 93  1  0
M  ISO  4  17 100  26 100  55 101  56 101
M  END
>  <TORSDO>  (36) 
F 18

>  <SCORE>  (36) 
-14.813

>  <name>  (36) 
35

>  <ligand_id>  (36) 
35

>  <original_smiles>  (36) 
[H]c1c([H])c([H])c2c(c1[H])C([H])([H])C([H])([H])C([H])([H])C2([H])N([H])C(=O)C1([H])N(C(=O)C([H])(N([H])C(=O)C([H])(N([H])C([H])([H])[H])C([H])([H])[H])C(C([H])([H])[H])(C([H])([H])[H])C([H])([H])[H])C([H])([H])c2c([H])c(OC([H])([H])C3([H])C(=O)N(c4c([H])c(F)c(N(C(=O)N5C([H])([H])C([H])([H])C([H])([H])C([H])(n6nc(-c7c([H])c([H])c(Oc8c([H])c([H])c(F)c([H])c8F)c([H])c7[H])c(C(=O)N([H])[H])c6N([H])[H])C5([H])[H])C([H])([H])[H])c(C([H])([H])[H])c4[H])C(=O)C([H])([H])C3([H])[H])c([H])c([H])c2C1([H])[H]

>  <smiles>  (36) 
[H]c1c([H])c([H])c2c(c1[H])C([H])([H])C([H])([H])C([H])([H])C2([H])N([H])C(=O)C1([H])N(C(=O)C([H])(N([H])C(=O)C([H])(N([H])C([H])([H])[H])C([H])([H])[H])C(C([H])([H])[H])(C([H])([H])[H])C([H])([H])[H])C([H])([H])c2c([H])c(OC([H])([H])C3([H])C(=O)N(c4c([H])c(F)c(N(C(=O)N5C([H])([H])C([H])([H])C([H])([H])C([H])(n6nc(-c7c([H])c([H])c(Oc8c([H])c([H])c(F)c([H])c8F)c([H])c7[H])c(C(=O)N([H])[H])c6N([H])[H])C5([H])[H])C([H])([H])[H])c(C([H])([H])[H])c4[H])C(=O)C([H])([H])C3([H])[H])c([H])c([H])c2C1([H])[H]

$$$$
36:0:0
     RDKit          3D

 94102  0  0  1  0  0  0  0  0999 V2000
  -31.2510  -17.8900   23.3060 C   0  0  0  0  0  3  0  0  0  0  0  0
  -30.9250  -17.0130   22.2660 C   0  0  0  0  0  3  0  0  0  0  0  0
  -30.5450  -19.7320   21.9220 C   0  0  0  0  0  3  0  0  0  0  0  0
  -31.0430  -19.2550   23.1400 C   0  0  0  0  0  0  0  0  0  0  0  0
  -30.3890  -17.4270   21.0120 C   0  0  0  0  0  0  0  0  0  0  0  0
  -30.2050  -18.9070   20.8140 C   0  0  0  0  0  0  0  0  0  0  0  0
  -30.7340  -15.0330   20.0180 C   0  0  0  0  0  0  0  0  0  0  0  0
  -30.5020  -12.7290   19.0300 C   0  0  0  0  0  2  0  0  0  0  0  0
  -29.5120  -12.7340   17.8470 C   0  0  0  0  0  2  0  0  0  0  0  0
  -28.0670  -12.5500   18.3480 C   0  0  0  0  0  2  0  0  0  0  0  0
  -27.7320  -13.4640   19.5580 C   0  0  0  0  0  3  0  0  0  0  0  0
  -28.8410  -13.4430   20.6280 C   0  0  0  0  0  2  0  0  0  0  0  0
  -30.0850  -13.8160   19.9490 N   0  0  0  0  0  0  0  0  0  0  0  0
  -31.9260  -15.0800   19.6960 O   0  0  0  0  0  0  0  0  0  0  0  0
  -30.0130  -16.2300   20.1960 N   0  0  0  0  0  0  0  0  0  0  0  0
  -29.0280  -16.1640   19.9910 H   0  0  0  0  0  0  0  0  0  0  0  0
  -25.3910  -14.0470   20.4140 C   0  0  0  0  0  0  0  0  0  0  0  0
  -24.3430  -13.2710   20.8290 C   0  0  0  0  0  0  0  0  0  0  0  0
  -24.8020  -11.9210   20.7650 C   0  0  0  0  0  0  0  0  0  0  0  0
  -26.4190  -13.1690   20.1190 N   0  0  0  0  0  0  0  0  0  0  0  0
  -26.0770  -11.8840   20.3950 N   0  0  0  0  0  0  0  0  0  0  0  0
  -24.0830  -10.6590   20.9780 C   0  0  0  0  0  0  0  0  0  0  0  0
  -24.5310   -9.7000   21.9150 C   0  0  0  0  0  3  0  0  0  0  0  0
  -23.8090   -8.5040   22.1150 C   0  0  0  0  0  3  0  0  0  0  0  0
  -22.6260   -8.2570   21.3790 C   0  0  0  0  0  0  0  0  0  0  0  0
  -22.1980   -9.2030   20.4320 C   0  0  0  0  0  3  0  0  0  0  0  0
  -22.9200  -10.3910   20.2300 C   0  0  0  0  0  3  0  0  0  0  0  0
  -21.8750   -7.1120   21.4880 O   0  0  0  0  0  0  0  0  0  0  0  0
  -21.8220   -6.3930   22.6560 C   0  0  0  0  0  0  0  0  0  0  0  0
  -21.3560   -6.9650   23.8610 C   0  0  0  0  0  3  0  0  0  0  0  0
  -21.2540   -6.1720   25.0210 C   0  0  0  0  0  3  0  0  0  0  0  0
  -21.6060   -4.8090   24.9790 C   0  0  0  0  0  0  0  0  0  0  0  0
  -22.0630   -4.2390   23.7780 C   0  0  0  0  0  3  0  0  0  0  0  0
  -22.1680   -5.0280   22.6200 C   0  0  0  0  0  0  0  0  0  0  0  0
  -22.5900   -4.4670   21.4610 F   0  0  0  0  0  0  0  0  0  0  0  0
  -21.5000   -4.0460   26.0910 F   0  0  0  0  0  0  0  0  0  0  0  0
  -22.9620  -13.7500   21.1660 C   0  0  0  0  0  0  0  0  0  0  0  0
  -22.2750  -13.0510   22.0620 N   0  0  0  0  0  0  0  0  0  0  0  0
  -22.5040  -14.7790   20.6710 O   0  0  0  0  0  0  0  0  0  0  0  0
  -22.6610  -12.2180   22.4830 H   0  0  0  0  0  0  0  0  0  0  0  0
  -21.3500  -13.3530   22.3330 H   0  0  0  0  0  0  0  0  0  0  0  0
  -25.5470  -15.4190   20.2390 N   0  0  0  0  0  0  0  0  0  0  0  0
  -24.7830  -16.0690   20.3910 H   0  0  0  0  0  0  0  0  0  0  0  0
  -26.3710  -15.8650   19.8560 H   0  0  0  0  0  0  0  0  0  0  0  0
  -31.3070  -20.1380   24.1820 N   0  0  0  0  0  0  0  0  0  0  0  0
  -31.3250  -19.7640   25.1270 H   0  0  0  0  0  0  0  0  0  0  0  0
  -30.8710  -21.0560   24.1460 H   0  0  0  0  0  0  0  0  0  0  0  0
  -29.6990  -19.6750   19.7120 O   0  0  0  0  0  0  0  0  0  0  0  0
  -29.8620  -21.2000   19.6120 C   0  0  0  0  0  2  0  0  0  0  0  0
  -28.1090  -22.1590   21.3120 C   0  0  0  0  0  1  0  0  0  0  0  0
  -28.7120  -22.3470   19.9110 C   0  0  0  0  0  3  0  0  0  0  0  0
  -28.9950  -23.9250   19.6550 C   0  0  0  0  0  3  0  0  0  0  0  0
  -28.1950  -25.0340   19.9560 C   0  0  0  0  0  3  0  0  0  0  0  0
  -28.4200  -26.4490   19.7560 O   0  0  0  0  0  0  0  0  0  0  0  0
  -24.5920  -31.7350   23.0870 C   0  0  0  0  0  0  0  0  0  0  0  0
  -27.3240  -27.3560   19.7910 C   0  0  0  0  0  0  0  0  0  0  0  0
  -23.4280  -30.3750   21.3890 C   0  0  0  0  0  3  0  0  0  0  0  0
  -24.9210  -28.9480   19.8700 C   0  0  0  0  0  0  0  0  0  0  0  0
  -25.9590  -30.7740   21.2100 C   0  0  0  0  0  2  0  0  0  0  0  0
  -26.0830  -29.4260   20.4940 C   0  0  0  0  0  0  0  0  0  0  0  0
  -27.2870  -28.6410   20.4460 C   0  0  0  0  0  3  0  0  0  0  0  0
  -26.1380  -26.9660   19.1310 C   0  0  0  0  0  3  0  0  0  0  0  0
  -24.9550  -27.7290   19.1770 C   0  0  0  0  0  3  0  0  0  0  0  0
  -23.6570  -29.7830   19.9730 C   0  0  0  0  0  2  0  0  0  0  0  0
  -24.6790  -30.9790   21.9520 N   0  0  0  0  0  0  0  0  0  0  0  0
  -23.5030  -31.9440   23.6410 O   0  0  0  0  0  0  0  0  0  0  0  0
  -22.8100  -29.2870   22.3040 C   0  0  0  0  0  0  0  0  0  0  0  0
  -21.4910  -29.0630   22.1770 N   0  0  0  0  0  0  0  0  0  0  0  0
  -23.5190  -28.6530   23.0880 O   0  0  0  0  0  0  0  0  0  0  0  0
  -20.9750  -29.6310   21.5210 H   0  0  0  0  0  0  0  0  0  0  0  0
  -18.1680  -27.7140   22.6610 C   0  0  0  0  0  0  0  0  0  0  0  0
  -20.7200  -28.0560   22.9090 C   0  0  0  0  0  3  0  0  0  0  0  0
  -20.8640  -26.6630   22.2560 C   0  0  0  0  0  2  0  0  0  0  0  0
  -19.7590  -26.3530   21.2410 C   0  0  0  0  0  2  0  0  0  0  0  0
  -18.3830  -26.4110   21.9090 C   0  0  0  0  0  2  0  0  0  0  0  0
  -19.2640  -28.4940   23.1170 C   0  0  0  0  0  0  0  0  0  0  0  0
  -19.0060  -29.7140   23.7810 C   0  0  0  0  0  3  0  0  0  0  0  0
  -17.6860  -30.1550   23.9920 C   0  0  0  0  0  3  0  0  0  0  0  0
  -16.6050  -29.3720   23.5500 C   0  0  0  0  0  3  0  0  0  0  0  0
  -16.8470  -28.1530   22.8920 C   0  0  0  0  0  3  0  0  0  0  0  0
  -25.8550  -32.3880   23.7300 C   0  0  0  0  0  3  0  0  0  0  0  0
  -25.5030  -33.7670   24.1030 N   0  0  0  0  0  0  0  0  0  0  0  0
  -25.7830  -34.8510   23.3680 C   0  0  0  0  0  0  0  0  0  0  0  0
  -26.4350  -34.8000   22.3210 O   0  0  0  0  0  0  0  0  0  0  0  0
  -24.9240  -33.8800   24.9220 H   0  0  0  0  0  0  0  0  0  0  0  0
  -23.9830  -36.5880   23.0990 C   0  0  0  0  0  1  0  0  0  0  0  0
  -25.2570  -36.2090   23.8720 C   0  0  0  0  0  3  0  0  0  0  0  0
  -27.3690  -37.1560   24.6910 C   0  0  0  0  0  1  0  0  0  0  0  0
  -26.2480  -37.3010   23.7660 N   0  0  0  0  0  0  0  0  0  0  0  0
  -25.8100  -38.2020   23.9380 H   0  0  0  0  0  0  0  0  0  0  0  0
  -26.3880  -31.5980   24.9870 C   0  0  1  0  0  0  0  0  0  0  0  0
  -25.2990  -31.3060   26.0460 C   0  0  0  0  0  1  0  0  0  0  0  0
  -27.0060  -30.2450   24.5620 C   0  0  0  0  0  1  0  0  0  0  0  0
  -27.5150  -32.4020   25.6750 C   0  0  0  0  0  1  0  0  0  0  0  0
  2  1  2  0
  3  4  2  0
  4  1  1  0
  4 45  1  0
  5  2  1  0
  6  5  2  0
  6  3  1  0
  7 15  1  0
  8 13  1  0
  9 10  1  0
  9  8  1  0
 11 10  1  0
 11 20  1  0
 11 12  1  0
 13  7  1  0
 13 12  1  0
 14  7  2  0
 15  5  1  0
 16 15  1  0
 17 18  2  0
 18 37  1  0
 19 18  1  0
 19 22  1  0
 20 21  1  0
 20 17  1  0
 21 19  2  0
 22 23  1  0
 23 24  2  0
 25 28  1  0
 25 24  1  0
 26 25  2  0
 27 26  1  0
 27 22  2  0
 28 29  1  0
 29 30  1  0
 30 31  2  0
 32 31  1  0
 32 36  1  0
 33 32  2  0
 34 29  2  0
 34 33  1  0
 35 34  1  0
 37 38  1  0
 38 41  1  0
 38 40  1  0
 39 37  2  0
 42 43  1  0
 42 17  1  0
 44 42  1  0
 45 46  1  0
 47 45  1  0
 48  6  1  0
 49 48  1  0
 49 51  1  0
 51 50  1  0
 52 51  1  0
 52 53  2  0
 54 56  1  0
 54 53  1  0
 55 66  2  0
 56 61  1  0
 57 65  1  0
 57 67  1  0
 58 64  1  0
 58 60  1  0
 59 65  1  0
 60 59  1  0
 61 60  2  0
 62 63  1  0
 62 56  2  0
 63 58  2  0
 64 57  1  0
 65 55  1  0
 67 69  2  0
 68 67  1  0
 70 68  1  0
 71 80  2  0
 71 76  1  0
 72 68  1  0
 72 76  1  0
 73 72  1  0
 74 75  1  0
 74 73  1  0
 75 71  1  0
 76 77  2  0
 77 78  1  0
 79 78  2  0
 80 79  1  0
 81 55  1  0
 81 82  1  0
 81 91  1  0
 82 85  1  0
 83 87  1  0
 83 82  1  0
 84 83  2  0
 87 86  1  0
 89 87  1  0
 89 90  1  0
 89 88  1  0
 91 94  1  1
 91 92  1  0
 93 91  1  0
M  ISO  4   7 100  15 100  53 101  54 101
M  END
>  <TORSDO>  (37) 
F 21

>  <SCORE>  (37) 
-12.785

>  <name>  (37) 
36

>  <ligand_id>  (37) 
36

>  <original_smiles>  (37) 
[H]C(Oc1c([H])c([H])c2c(c1[H])C([H])([H])N(C(=O)C([H])(N([H])C(=O)C([H])(N([H])C([H])([H])[H])C([H])([H])[H])C(C([H])([H])[H])(C([H])([H])[H])C([H])([H])[H])C([H])(C(=O)N([H])C1([H])c3c([H])c([H])c([H])c([H])c3C([H])([H])C([H])([H])C1([H])[H])C2([H])[H])=C([H])C([H])(C([H])([H])[H])C([H])([H])Oc1c([H])c(N([H])[H])c([H])c([H])c1N([H])C(=O)N1C([H])([H])C([H])([H])C([H])([H])C([H])(n2nc(-c3c([H])c([H])c(Oc4c([H])c([H])c(F)c([H])c4F)c([H])c3[H])c(C(=O)N([H])[H])c2N([H])[H])C1([H])[H]

>  <smiles>  (37) 
[H]C(Oc1c([H])c([H])c2c(c1[H])C([H])([H])N(C(=O)C([H])(N([H])C(=O)C([H])(N([H])C([H])([H])[H])C([H])([H])[H])C(C([H])([H])[H])(C([H])([H])[H])C([H])([H])[H])C([H])(C(=O)N([H])C1([H])c3c([H])c([H])c([H])c([H])c3C([H])([H])C([H])([H])C1([H])[H])C2([H])[H])=C([H])C([H])(C([H])([H])[H])C([H])([H])Oc1c([H])c(N([H])[H])c([H])c([H])c1N([H])C(=O)N1C([H])([H])C([H])([H])C([H])([H])C([H])(n2nc(-c3c([H])c([H])c(Oc4c([H])c([H])c(F)c([H])c4F)c([H])c3[H])c(C(=O)N([H])[H])c2N([H])[H])C1([H])[H]

$$$$
38:0:0
     RDKit          3D

 97105  0  0  1  0  0  0  0  0999 V2000
  -29.1870  -20.8650   19.4230 C   0  0  0  0  0  0  0  0  0  0  0  0
  -29.7010  -21.9450   20.0340 N   0  0  0  0  0  0  0  0  0  0  0  0
  -28.4810  -20.9740   18.4170 O   0  0  0  0  0  0  0  0  0  0  0  0
  -30.2640  -21.8050   20.8610 H   0  0  0  0  0  0  0  0  0  0  0  0
  -28.3630  -18.5750   20.0670 C   0  0  0  0  0  3  0  0  0  0  0  0
  -28.5640  -17.2410   20.4740 C   0  0  0  0  0  3  0  0  0  0  0  0
  -30.9370  -17.6810   20.7470 C   0  0  0  0  0  3  0  0  0  0  0  0
  -29.4390  -19.4890   20.0010 C   0  0  0  0  0  0  0  0  0  0  0  0
  -29.8540  -16.7700   20.7830 C   0  0  0  0  0  0  0  0  0  0  0  0
  -30.7330  -19.0310   20.3610 C   0  0  0  0  0  0  0  0  0  0  0  0
  -31.8000  -19.8670   20.3080 F   0  0  0  0  0  0  0  0  0  0  0  0
  -30.6480  -14.4620   20.4520 C   0  0  0  0  0  0  0  0  0  0  0  0
  -30.3420  -12.3320   19.2390 C   0  0  0  0  0  2  0  0  0  0  0  0
  -29.3850  -12.5690   18.0510 C   0  0  0  0  0  2  0  0  0  0  0  0
  -27.9120  -12.4350   18.4870 C   0  0  0  0  0  2  0  0  0  0  0  0
  -27.5920  -13.2470   19.7710 C   0  0  0  0  0  3  0  0  0  0  0  0
  -28.6520  -12.9720   20.8640 C   0  0  0  0  0  2  0  0  0  0  0  0
  -29.9840  -13.2820   20.3050 N   0  0  0  0  0  0  0  0  0  0  0  0
  -31.7440  -14.6900   19.9270 O   0  0  0  0  0  0  0  0  0  0  0  0
  -29.9820  -15.3980   21.1510 N   0  0  0  0  0  0  0  0  0  0  0  0
  -29.1640  -15.0050   21.5940 H   0  0  0  0  0  0  0  0  0  0  0  0
  -25.1950  -13.8640   20.4880 C   0  0  0  0  0  0  0  0  0  0  0  0
  -24.1270  -13.0950   20.8670 C   0  0  0  0  0  0  0  0  0  0  0  0
  -24.5830  -11.7430   20.8300 C   0  0  0  0  0  0  0  0  0  0  0  0
  -26.2370  -12.9810   20.2520 N   0  0  0  0  0  0  0  0  0  0  0  0
  -25.8710  -11.6990   20.5140 N   0  0  0  0  0  0  0  0  0  0  0  0
  -23.8530  -10.4850   21.0230 C   0  0  0  0  0  0  0  0  0  0  0  0
  -24.2800   -9.5190   21.9610 C   0  0  0  0  0  3  0  0  0  0  0  0
  -23.5510   -8.3240   22.1400 C   0  0  0  0  0  3  0  0  0  0  0  0
  -22.3810   -8.0850   21.3800 C   0  0  0  0  0  0  0  0  0  0  0  0
  -21.9740   -9.0380   20.4300 C   0  0  0  0  0  3  0  0  0  0  0  0
  -22.7030  -10.2250   20.2490 C   0  0  0  0  0  3  0  0  0  0  0  0
  -21.6230   -6.9420   21.4690 O   0  0  0  0  0  0  0  0  0  0  0  0
  -21.5610   -6.2090   22.6270 C   0  0  0  0  0  0  0  0  0  0  0  0
  -21.0970   -6.7670   23.8380 C   0  0  0  0  0  3  0  0  0  0  0  0
  -20.9820   -5.9600   24.9870 C   0  0  0  0  0  3  0  0  0  0  0  0
  -21.3190   -4.5940   24.9250 C   0  0  0  0  0  0  0  0  0  0  0  0
  -21.7750   -4.0340   23.7190 C   0  0  0  0  0  3  0  0  0  0  0  0
  -21.8920   -4.8390   22.5720 C   0  0  0  0  0  0  0  0  0  0  0  0
  -22.3120   -4.2920   21.4060 F   0  0  0  0  0  0  0  0  0  0  0  0
  -21.2010   -3.8160   26.0270 F   0  0  0  0  0  0  0  0  0  0  0  0
  -22.7340  -13.5790   21.1490 C   0  0  0  0  0  0  0  0  0  0  0  0
  -22.0060  -12.8830   22.0180 N   0  0  0  0  0  0  0  0  0  0  0  0
  -22.2960  -14.6070   20.6350 O   0  0  0  0  0  0  0  0  0  0  0  0
  -22.3720  -12.0520   22.4580 H   0  0  0  0  0  0  0  0  0  0  0  0
  -21.0710  -13.1890   22.2490 H   0  0  0  0  0  0  0  0  0  0  0  0
  -25.3550  -15.2320   20.3010 N   0  0  0  0  0  0  0  0  0  0  0  0
  -24.5740  -15.8760   20.3880 H   0  0  0  0  0  0  0  0  0  0  0  0
  -26.1650  -15.6520   19.8660 H   0  0  0  0  0  0  0  0  0  0  0  0
  -29.7960  -23.2840   19.4060 C   0  0  0  0  0  3  0  0  0  0  0  0
  -31.2720  -23.7130   19.4440 C   0  0  0  0  0  0  0  0  0  0  0  0
  -31.8780  -24.3070   18.1760 C   0  0  0  0  0  1  0  0  0  0  0  0
  -31.9800  -23.5820   20.4480 O   0  0  0  0  0  0  0  0  0  0  0  0
  -28.8760  -24.3460   20.0690 C   0  0  0  0  0  0  0  0  0  0  0  0
  -28.2580  -24.1390   21.1220 O   0  0  0  0  0  0  0  0  0  0  0  0
  -28.7060  -25.6920   19.3190 C   0  0  0  0  0  2  0  0  0  0  0  0
  -28.4300  -26.7840   20.2100 O   0  0  0  0  0  0  0  0  0  0  0  0
  -24.5500  -31.8910   23.2370 C   0  0  0  0  0  0  0  0  0  0  0  0
  -27.2240  -27.4580   20.1660 C   0  0  0  0  0  0  0  0  0  0  0  0
  -23.3490  -30.4800   21.5930 C   0  0  0  0  0  3  0  0  0  0  0  0
  -24.8100  -28.9400   20.1760 C   0  0  0  0  0  0  0  0  0  0  0  0
  -25.8730  -30.8490   21.3970 C   0  0  0  0  0  2  0  0  0  0  0  0
  -25.9630  -29.4770   20.7620 C   0  0  0  0  0  0  0  0  0  0  0  0
  -27.1660  -28.7400   20.7570 C   0  0  0  0  0  3  0  0  0  0  0  0
  -26.0480  -26.9240   19.5910 C   0  0  0  0  0  3  0  0  0  0  0  0
  -24.8470  -27.6610   19.5920 C   0  0  0  0  0  3  0  0  0  0  0  0
  -23.5620  -29.7920   20.2170 C   0  0  0  0  0  2  0  0  0  0  0  0
  -24.6090  -31.0880   22.1340 N   0  0  0  0  0  0  0  0  0  0  0  0
  -23.4680  -32.1600   23.7760 O   0  0  0  0  0  0  0  0  0  0  0  0
  -22.6960  -29.4640   22.5560 C   0  0  0  0  0  0  0  0  0  0  0  0
  -21.3720  -29.2830   22.4260 N   0  0  0  0  0  0  0  0  0  0  0  0
  -23.3780  -28.8380   23.3710 O   0  0  0  0  0  0  0  0  0  0  0  0
  -20.8850  -29.8350   21.7340 H   0  0  0  0  0  0  0  0  0  0  0  0
  -17.9920  -28.1090   22.9330 C   0  0  0  0  0  0  0  0  0  0  0  0
  -20.5530  -28.3470   23.1950 C   0  0  0  0  0  3  0  0  0  0  0  0
  -20.6440  -26.9190   22.6080 C   0  0  0  0  0  2  0  0  0  0  0  0
  -19.5350  -26.6110   21.5980 C   0  0  0  0  0  2  0  0  0  0  0  0
  -18.1560  -26.7640   22.2480 C   0  0  0  0  0  2  0  0  0  0  0  0
  -19.1180  -28.8600   23.3630 C   0  0  0  0  0  0  0  0  0  0  0  0
  -18.9120  -30.1230   23.9590 C   0  0  0  0  0  3  0  0  0  0  0  0
  -17.6110  -30.6330   24.1340 C   0  0  0  0  0  3  0  0  0  0  0  0
  -16.5000  -29.8780   23.7220 C   0  0  0  0  0  3  0  0  0  0  0  0
  -16.6910  -28.6190   23.1260 C   0  0  0  0  0  3  0  0  0  0  0  0
  -25.8360  -32.5240   23.8560 C   0  0  0  0  0  3  0  0  0  0  0  0
  -25.5300  -33.9240   24.1780 N   0  0  0  0  0  0  0  0  0  0  0  0
  -25.8720  -34.9710   23.4150 C   0  0  0  0  0  0  0  0  0  0  0  0
  -26.5500  -34.8580   22.3900 O   0  0  0  0  0  0  0  0  0  0  0  0
  -24.9290  -34.0850   24.9750 H   0  0  0  0  0  0  0  0  0  0  0  0
  -24.1580  -36.7670   23.0170 C   0  0  0  0  0  1  0  0  0  0  0  0
  -25.3810  -36.3630   23.8560 C   0  0  0  0  0  3  0  0  0  0  0  0
  -27.5050  -37.2330   24.7250 C   0  0  0  0  0  1  0  0  0  0  0  0
  -26.4190  -37.4120   23.7650 N   0  0  0  0  0  0  0  0  0  0  0  0
  -26.0140  -38.3330   23.9180 H   0  0  0  0  0  0  0  0  0  0  0  0
  -26.3430  -31.7600   25.1380 C   0  0  1  0  0  0  0  0  0  0  0  0
  -25.2460  -31.5320   26.2050 C   0  0  0  0  0  1  0  0  0  0  0  0
  -26.9240  -30.3790   24.7560 C   0  0  0  0  0  1  0  0  0  0  0  0
  -27.4980  -32.5510   25.7970 C   0  0  0  0  0  1  0  0  0  0  0  0
  1  8  1  0
  1  2  1  0
  2  4  1  0
  3  1  2  0
  5  6  1  0
  6  9  2  0
  7  9  1  0
  8  5  2  0
  8 10  1  0
  9 20  1  0
 10  7  2  0
 11 10  1  0
 12 20  1  0
 13 18  1  0
 14 15  1  0
 14 13  1  0
 16 15  1  0
 16 25  1  0
 16 17  1  0
 18 12  1  0
 18 17  1  0
 19 12  2  0
 20 21  1  0
 22 23  2  0
 23 42  1  0
 24 23  1  0
 24 27  1  0
 25 22  1  0
 25 26  1  0
 26 24  2  0
 27 28  1  0
 28 29  2  0
 30 33  1  0
 30 29  1  0
 31 30  2  0
 32 31  1  0
 32 27  2  0
 33 34  1  0
 34 35  1  0
 35 36  2  0
 37 36  1  0
 37 41  1  0
 38 37  2  0
 39 34  2  0
 39 38  1  0
 40 39  1  0
 42 43  1  0
 43 46  1  0
 43 45  1  0
 44 42  2  0
 47 48  1  0
 47 22  1  0
 49 47  1  0
 50 51  1  0
 50  2  1  0
 50 54  1  0
 51 53  2  0
 52 51  1  0
 54 55  2  0
 56 54  1  0
 56 57  1  0
 58 69  2  0
 59 57  1  0
 59 64  1  0
 60 68  1  0
 60 70  1  0
 61 67  1  0
 61 63  1  0
 62 68  1  0
 63 62  1  0
 64 63  2  0
 65 66  1  0
 65 59  2  0
 66 61  2  0
 67 60  1  0
 68 58  1  0
 70 72  2  0
 71 70  1  0
 73 71  1  0
 74 83  2  0
 74 79  1  0
 75 71  1  0
 75 79  1  0
 76 75  1  0
 77 78  1  0
 77 76  1  0
 78 74  1  0
 79 80  2  0
 80 81  1  0
 82 81  2  0
 83 82  1  0
 84 58  1  0
 84 85  1  0
 84 94  1  0
 85 88  1  0
 86 90  1  0
 86 85  1  0
 87 86  2  0
 90 89  1  0
 92 90  1  0
 92 93  1  0
 92 91  1  0
 94 97  1  1
 94 95  1  0
 96 94  1  0
M  ISO  4  12 100  20 100  56 101  57 101
M  END
>  <TORSDO>  (38) 
F 21

>  <SCORE>  (38) 
-13.843

>  <name>  (38) 
38

>  <ligand_id>  (38) 
38

>  <original_smiles>  (38) 
[H]c1c([H])c([H])c2c(c1[H])C([H])([H])C([H])([H])C([H])([H])C2([H])N([H])C(=O)C1([H])N(C(=O)C([H])(N([H])C(=O)C([H])(N([H])C([H])([H])[H])C([H])([H])[H])C(C([H])([H])[H])(C([H])([H])[H])C([H])([H])[H])C([H])([H])c2c([H])c(OC([H])([H])C(=O)C([H])(C(=O)C([H])([H])[H])N([H])C(=O)c3c([H])c([H])c(N([H])C(=O)N4C([H])([H])C([H])([H])C([H])([H])C([H])(n5nc(-c6c([H])c([H])c(Oc7c([H])c([H])c(F)c([H])c7F)c([H])c6[H])c(C(=O)N([H])[H])c5N([H])[H])C4([H])[H])c([H])c3F)c([H])c([H])c2C1([H])[H]

>  <smiles>  (38) 
[H]c1c([H])c([H])c2c(c1[H])C([H])([H])C([H])([H])C([H])([H])C2([H])N([H])C(=O)C1([H])N(C(=O)C([H])(N([H])C(=O)C([H])(N([H])C([H])([H])[H])C([H])([H])[H])C(C([H])([H])[H])(C([H])([H])[H])C([H])([H])[H])C([H])([H])c2c([H])c(OC([H])([H])C(=O)C([H])(C(=O)C([H])([H])[H])N([H])C(=O)c3c([H])c([H])c(N([H])C(=O)N4C([H])([H])C([H])([H])C([H])([H])C([H])(n5nc(-c6c([H])c([H])c(Oc7c([H])c([H])c(F)c([H])c7F)c([H])c6[H])c(C(=O)N([H])[H])c5N([H])[H])C4([H])[H])c([H])c3F)c([H])c([H])c2C1([H])[H]

$$$$
39:0:0
     RDKit          3D

 94103  0  0  1  0  0  0  0  0999 V2000
  -30.5620  -23.8910   19.9780 C   0  0  0  0  0  2  0  0  0  0  0  0
  -30.6140  -22.4630   20.5390 C   0  0  0  0  0  2  0  0  0  0  0  0
  -28.3450  -23.0100   20.0060 C   0  0  0  0  0  2  0  0  0  0  0  0
  -29.1140  -24.3280   20.2120 C   0  0  0  0  0  3  0  0  0  0  0  0
  -29.2590  -21.8890   20.3630 N   0  0  1  0  0  4  0  0  0  0  0  0
  -28.9650  -21.5350   21.2610 H   0  0  0  0  0  0  0  0  0  0  0  0
  -29.1820  -20.7520   19.4050 C   0  0  0  0  0  2  0  0  0  0  0  0
  -28.5240  -18.5590   20.5260 C   0  0  0  0  0  3  0  0  0  0  0  0
  -28.8020  -17.2260   20.8860 C   0  0  0  0  0  3  0  0  0  0  0  0
  -30.8500  -18.8720   19.9020 C   0  0  0  0  0  3  0  0  0  0  0  0
  -29.5360  -19.3830   19.9890 C   0  0  0  0  0  0  0  0  0  0  0  0
  -30.0920  -16.6800   20.7110 C   0  0  0  0  0  0  0  0  0  0  0  0
  -31.1370  -17.5390   20.2720 C   0  0  0  0  0  0  0  0  0  0  0  0
  -32.4200  -17.1190   20.1890 F   0  0  0  0  0  0  0  0  0  0  0  0
  -30.7770  -14.3730   20.1560 C   0  0  0  0  0  0  0  0  0  0  0  0
  -30.3540  -12.2800   18.9270 C   0  0  0  0  0  2  0  0  0  0  0  0
  -29.3650  -12.5740   17.7810 C   0  0  0  0  0  2  0  0  0  0  0  0
  -27.9080  -12.4510   18.2690 C   0  0  0  0  0  2  0  0  0  0  0  0
  -27.6550  -13.2300   19.5880 C   0  0  0  0  0  3  0  0  0  0  0  0
  -28.7550  -12.9310   20.6340 C   0  0  0  0  0  2  0  0  0  0  0  0
  -30.0670  -13.2190   20.0240 N   0  0  0  0  0  0  0  0  0  0  0  0
  -31.8260  -14.5700   19.5390 O   0  0  0  0  0  0  0  0  0  0  0  0
  -30.2400  -15.2860   20.9820 N   0  0  0  0  0  0  0  0  0  0  0  0
  -29.4950  -14.8930   21.5360 H   0  0  0  0  0  0  0  0  0  0  0  0
  -25.2880  -13.8540   20.3890 C   0  0  0  0  0  0  0  0  0  0  0  0
  -24.2280  -13.0880   20.7940 C   0  0  0  0  0  0  0  0  0  0  0  0
  -24.6730  -11.7320   20.7340 C   0  0  0  0  0  0  0  0  0  0  0  0
  -26.3160  -12.9640   20.1130 N   0  0  0  0  0  0  0  0  0  0  0  0
  -25.9490  -11.6830   20.3720 N   0  0  0  0  0  0  0  0  0  0  0  0
  -23.9410  -10.4760   20.9440 C   0  0  0  0  0  0  0  0  0  0  0  0
  -24.3830   -9.5130   21.8780 C   0  0  0  0  0  3  0  0  0  0  0  0
  -23.6550   -8.3210   22.0750 C   0  0  0  0  0  3  0  0  0  0  0  0
  -22.4690   -8.0820   21.3420 C   0  0  0  0  0  0  0  0  0  0  0  0
  -22.0460   -9.0330   20.3960 C   0  0  0  0  0  3  0  0  0  0  0  0
  -22.7750  -10.2180   20.1960 C   0  0  0  0  0  3  0  0  0  0  0  0
  -21.7110   -6.9420   21.4490 O   0  0  0  0  0  0  0  0  0  0  0  0
  -21.6520   -6.2240   22.6180 C   0  0  0  0  0  0  0  0  0  0  0  0
  -21.2260   -6.8060   23.8300 C   0  0  0  0  0  3  0  0  0  0  0  0
  -21.1140   -6.0150   24.9900 C   0  0  0  0  0  3  0  0  0  0  0  0
  -21.4180   -4.6420   24.9390 C   0  0  0  0  0  0  0  0  0  0  0  0
  -21.8360   -4.0580   23.7300 C   0  0  0  0  0  3  0  0  0  0  0  0
  -21.9490   -4.8460   22.5720 C   0  0  0  0  0  0  0  0  0  0  0  0
  -22.3320   -4.2740   21.4040 F   0  0  0  0  0  0  0  0  0  0  0  0
  -21.3030   -3.8790   26.0510 F   0  0  0  0  0  0  0  0  0  0  0  0
  -22.8480  -13.5770   21.1280 C   0  0  0  0  0  0  0  0  0  0  0  0
  -22.1490  -12.8820   22.0180 N   0  0  0  0  0  0  0  0  0  0  0  0
  -22.4000  -14.6100   20.6320 O   0  0  0  0  0  0  0  0  0  0  0  0
  -22.5220  -12.0430   22.4380 H   0  0  0  0  0  0  0  0  0  0  0  0
  -21.2240  -13.1910   22.2840 H   0  0  0  0  0  0  0  0  0  0  0  0
  -25.4610  -15.2240   20.2170 N   0  0  0  0  0  0  0  0  0  0  0  0
  -24.7010  -15.8820   20.3490 H   0  0  0  0  0  0  0  0  0  0  0  0
  -26.3040  -15.6580   19.8650 H   0  0  0  0  0  0  0  0  0  0  0  0
  -28.6470  -25.5010   19.3060 C   0  0  0  0  0  2  0  0  0  0  0  0
  -28.4440  -26.7100   20.0560 O   0  0  0  0  0  0  0  0  0  0  0  0
  -24.5850  -31.8120   23.1720 C   0  0  0  0  0  0  0  0  0  0  0  0
  -27.2360  -27.3880   20.0430 C   0  0  0  0  0  0  0  0  0  0  0  0
  -23.3810  -30.4250   21.5160 C   0  0  0  0  0  3  0  0  0  0  0  0
  -24.8350  -28.9010   20.0830 C   0  0  0  0  0  0  0  0  0  0  0  0
  -25.9100  -30.7790   21.3310 C   0  0  0  0  0  2  0  0  0  0  0  0
  -25.9940  -29.4160   20.6730 C   0  0  0  0  0  0  0  0  0  0  0  0
  -27.1910  -28.6670   20.6510 C   0  0  0  0  0  3  0  0  0  0  0  0
  -26.0430  -26.8820   19.4690 C   0  0  0  0  0  3  0  0  0  0  0  0
  -24.8530  -27.6330   19.4840 C   0  0  0  0  0  3  0  0  0  0  0  0
  -23.5930  -29.7580   20.1330 C   0  0  0  0  0  2  0  0  0  0  0  0
  -24.6430  -31.0210   22.0630 N   0  0  0  0  0  0  0  0  0  0  0  0
  -23.5030  -32.0830   23.7100 O   0  0  0  0  0  0  0  0  0  0  0  0
  -22.7280  -29.3970   22.4670 C   0  0  0  0  0  0  0  0  0  0  0  0
  -21.4000  -29.2280   22.3480 N   0  0  0  0  0  0  0  0  0  0  0  0
  -23.4110  -28.7520   23.2670 O   0  0  0  0  0  0  0  0  0  0  0  0
  -20.9110  -29.8010   21.6750 H   0  0  0  0  0  0  0  0  0  0  0  0
  -18.0160  -28.0740   22.8630 C   0  0  0  0  0  0  0  0  0  0  0  0
  -20.5800  -28.2880   23.1090 C   0  0  0  0  0  3  0  0  0  0  0  0
  -20.6540  -26.8670   22.5050 C   0  0  0  0  0  2  0  0  0  0  0  0
  -19.5360  -26.5800   21.4980 C   0  0  0  0  0  2  0  0  0  0  0  0
  -18.1650  -26.7340   22.1610 C   0  0  0  0  0  2  0  0  0  0  0  0
  -19.1510  -28.8110   23.2940 C   0  0  0  0  0  0  0  0  0  0  0  0
  -18.9580  -30.0660   23.9090 C   0  0  0  0  0  3  0  0  0  0  0  0
  -17.6630  -30.5850   24.0960 C   0  0  0  0  0  3  0  0  0  0  0  0
  -16.5420  -29.8440   23.6830 C   0  0  0  0  0  3  0  0  0  0  0  0
  -16.7200  -28.5890   23.0720 C   0  0  0  0  0  3  0  0  0  0  0  0
  -25.8710  -32.4370   23.7980 C   0  0  0  0  0  3  0  0  0  0  0  0
  -26.4000  -31.6420   25.0550 C   0  0  1  0  0  0  0  0  0  0  0  0
  -25.3150  -31.3770   26.1250 C   0  0  0  0  0  1  0  0  0  0  0  0
  -26.9890  -30.2760   24.6310 C   0  0  0  0  0  1  0  0  0  0  0  0
  -27.5520  -32.4300   25.7260 C   0  0  0  0  0  1  0  0  0  0  0  0
  -25.5580  -33.8270   24.1560 N   0  0  0  0  0  0  0  0  0  0  0  0
  -25.8840  -34.8950   23.4160 C   0  0  0  0  0  0  0  0  0  0  0  0
  -26.5510  -34.8140   22.3810 O   0  0  0  0  0  0  0  0  0  0  0  0
  -24.9640  -33.9630   24.9620 H   0  0  0  0  0  0  0  0  0  0  0  0
  -24.1430  -36.6810   23.0980 C   0  0  0  0  0  1  0  0  0  0  0  0
  -25.3890  -36.2710   23.9010 C   0  0  0  0  0  3  0  0  0  0  0  0
  -27.5200  -37.1490   24.7440 C   0  0  0  0  0  1  0  0  0  0  0  0
  -26.4150  -37.3320   23.8060 N   0  0  0  0  0  0  0  0  0  0  0  0
  -26.0050  -38.2460   23.9760 H   0  0  0  0  0  0  0  0  0  0  0  0
  1  4  1  0
  1  2  1  0
  3  4  1  0
  3  5  1  0
  4 53  1  0
  5  2  1  0
  5  6  1  1
  7 11  1  0
  7  5  1  0
  8  9  1  0
 10 11  1  0
 10 13  2  0
 11  8  2  0
 12  9  2  0
 12 23  1  0
 13 12  1  0
 14 13  1  0
 15 23  1  0
 16 21  1  0
 17 18  1  0
 17 16  1  0
 19 18  1  0
 19 28  1  0
 19 20  1  0
 21 15  1  0
 21 20  1  0
 22 15  2  0
 23 24  1  0
 25 26  2  0
 26 45  1  0
 27 26  1  0
 27 30  1  0
 28 29  1  0
 28 25  1  0
 29 27  2  0
 30 31  1  0
 31 32  2  0
 33 36  1  0
 33 32  1  0
 34 33  2  0
 35 34  1  0
 35 30  2  0
 36 37  1  0
 37 38  1  0
 38 39  2  0
 40 39  1  0
 40 44  1  0
 41 40  2  0
 42 37  2  0
 42 41  1  0
 43 42  1  0
 45 46  1  0
 46 49  1  0
 46 48  1  0
 47 45  2  0
 50 51  1  0
 50 25  1  0
 52 50  1  0
 53 54  1  0
 55 66  2  0
 56 54  1  0
 56 61  1  0
 57 65  1  0
 57 67  1  0
 58 64  1  0
 58 60  1  0
 59 65  1  0
 60 59  1  0
 61 60  2  0
 62 63  1  0
 62 56  2  0
 63 58  2  0
 64 57  1  0
 65 55  1  0
 67 69  2  0
 68 67  1  0
 70 68  1  0
 71 80  2  0
 71 76  1  0
 72 68  1  0
 72 76  1  0
 73 72  1  0
 74 75  1  0
 74 73  1  0
 75 71  1  0
 76 77  2  0
 77 78  1  0
 79 78  2  0
 80 79  1  0
 81 55  1  0
 81 86  1  0
 81 82  1  0
 82 85  1  1
 82 83  1  0
 84 82  1  0
 86 89  1  0
 87 91  1  0
 87 86  1  0
 88 87  2  0
 91 90  1  0
 93 91  1  0
 93 94  1  0
 93 92  1  0
M  ISO  4  15 100  23 100  53 101  54 101
M  END
>  <TORSDO>  (39) 
F 19

>  <SCORE>  (39) 
-14.276

>  <name>  (39) 
39

>  <ligand_id>  (39) 
39

>  <original_smiles>  (39) 
[H]c1c([H])c([H])c2c(c1[H])C([H])([H])C([H])([H])C([H])([H])C2([H])N([H])C(=O)C1([H])N(C(=O)C([H])(N([H])C(=O)C([H])(N([H])C([H])([H])[H])C([H])([H])[H])C(C([H])([H])[H])(C([H])([H])[H])C([H])([H])[H])C([H])([H])c2c([H])c(OC([H])([H])C3([H])C([H])([H])C([H])([H])[N+]([H])(C([H])([H])c4c([H])c([H])c(N([H])C(=O)N5C([H])([H])C([H])([H])C([H])([H])C([H])(n6nc(-c7c([H])c([H])c(Oc8c([H])c([H])c(F)c([H])c8F)c([H])c7[H])c(C(=O)N([H])[H])c6N([H])[H])C5([H])[H])c(F)c4[H])C3([H])[H])c([H])c([H])c2C1([H])[H]

>  <smiles>  (39) 
[H]c1c([H])c([H])c2c(c1[H])C([H])([H])C([H])([H])C([H])([H])C2([H])N([H])C(=O)C1([H])N(C(=O)C([H])(N([H])C(=O)C([H])(N([H])C([H])([H])[H])C([H])([H])[H])C(C([H])([H])[H])(C([H])([H])[H])C([H])([H])[H])C([H])([H])c2c([H])c(OC([H])([H])C3([H])C([H])([H])C([H])([H])[N+]([H])(C([H])([H])c4c([H])c([H])c(N([H])C(=O)N5C([H])([H])C([H])([H])C([H])([H])C([H])(n6nc(-c7c([H])c([H])c(Oc8c([H])c([H])c(F)c([H])c8F)c([H])c7[H])c(C(=O)N([H])[H])c6N([H])[H])C5([H])[H])c(F)c4[H])C3([H])[H])c([H])c([H])c2C1([H])[H]

$$$$
40:0:0
     RDKit          3D

 94103  0  0  1  0  0  0  0  0999 V2000
  -31.0570  -22.1640   21.9260 C   0  0  0  0  0  0  0  0  0  0  0  0
  -31.2350  -23.6870   22.0680 C   0  0  0  0  0  2  0  0  0  0  0  0
  -29.9560  -24.5030   21.8370 C   0  0  0  0  0  2  0  0  0  0  0  0
  -29.0480  -22.5660   20.5160 C   0  0  0  0  0  2  0  0  0  0  0  0
  -29.3410  -24.1390   20.4850 C   0  0  0  0  0  3  0  0  0  0  0  0
  -30.1140  -21.6500   21.0820 N   0  0  0  0  0  0  0  0  0  0  0  0
  -31.8170  -21.4570   22.5980 O   0  0  0  0  0  0  0  0  0  0  0  0
  -31.1730  -19.4580   20.3690 C   0  0  0  0  0  3  0  0  0  0  0  0
  -28.9520  -19.3900   21.2850 C   0  0  0  0  0  3  0  0  0  0  0  0
  -31.1480  -18.0480   20.1720 C   0  0  0  0  0  3  0  0  0  0  0  0
  -28.9400  -17.9690   21.1200 C   0  0  0  0  0  3  0  0  0  0  0  0
  -30.0670  -20.1850   20.9020 C   0  0  0  0  0  0  0  0  0  0  0  0
  -30.0140  -17.2590   20.5080 C   0  0  0  0  0  0  0  0  0  0  0  0
  -30.5830  -14.7860   20.1260 C   0  0  0  0  0  0  0  0  0  0  0  0
  -30.3620  -12.4910   19.1670 C   0  0  0  0  0  2  0  0  0  0  0  0
  -29.3840  -12.4610   17.9700 C   0  0  0  0  0  2  0  0  0  0  0  0
  -27.9160  -12.3710   18.4390 C   0  0  0  0  0  2  0  0  0  0  0  0
  -27.5700  -13.2700   19.6570 C   0  0  0  0  0  3  0  0  0  0  0  0
  -28.6690  -13.2330   20.7400 C   0  0  0  0  0  2  0  0  0  0  0  0
  -29.9390  -13.5690   20.0870 N   0  0  0  0  0  0  0  0  0  0  0  0
  -31.7940  -14.8420   19.9010 O   0  0  0  0  0  0  0  0  0  0  0  0
  -29.8060  -15.9280   19.9200 N   0  0  0  0  0  0  0  0  0  0  0  0
  -25.2020  -13.8460   20.4600 C   0  0  0  0  0  0  0  0  0  0  0  0
  -24.1520  -13.0630   20.8570 C   0  0  0  0  0  0  0  0  0  0  0  0
  -24.6270  -11.7170   20.8150 C   0  0  0  0  0  0  0  0  0  0  0  0
  -26.2460  -12.9730   20.1950 N   0  0  0  0  0  0  0  0  0  0  0  0
  -25.9080  -11.6910   20.4730 N   0  0  0  0  0  0  0  0  0  0  0  0
  -23.9170  -10.4470   21.0160 C   0  0  0  0  0  0  0  0  0  0  0  0
  -24.3760   -9.4830   21.9390 C   0  0  0  0  0  3  0  0  0  0  0  0
  -23.6680   -8.2780   22.1320 C   0  0  0  0  0  3  0  0  0  0  0  0
  -22.4830   -8.0280   21.4010 C   0  0  0  0  0  0  0  0  0  0  0  0
  -22.0400   -8.9810   20.4660 C   0  0  0  0  0  3  0  0  0  0  0  0
  -22.7510  -10.1780   20.2710 C   0  0  0  0  0  3  0  0  0  0  0  0
  -21.7390   -6.8770   21.5070 O   0  0  0  0  0  0  0  0  0  0  0  0
  -21.7120   -6.1430   22.6650 C   0  0  0  0  0  0  0  0  0  0  0  0
  -21.2680   -6.6940   23.8870 C   0  0  0  0  0  3  0  0  0  0  0  0
  -21.1890   -5.8840   25.0360 C   0  0  0  0  0  3  0  0  0  0  0  0
  -21.5400   -4.5220   24.9650 C   0  0  0  0  0  0  0  0  0  0  0  0
  -21.9760   -3.9710   23.7480 C   0  0  0  0  0  3  0  0  0  0  0  0
  -22.0570   -4.7780   22.6010 C   0  0  0  0  0  0  0  0  0  0  0  0
  -22.4570   -4.2360   21.4260 F   0  0  0  0  0  0  0  0  0  0  0  0
  -21.4580   -3.7400   26.0670 F   0  0  0  0  0  0  0  0  0  0  0  0
  -22.7590  -13.5260   21.1700 C   0  0  0  0  0  0  0  0  0  0  0  0
  -22.0620  -12.8260   22.0590 N   0  0  0  0  0  0  0  0  0  0  0  0
  -22.2940  -14.5430   20.6590 O   0  0  0  0  0  0  0  0  0  0  0  0
  -22.4500  -12.0010   22.4940 H   0  0  0  0  0  0  0  0  0  0  0  0
  -21.1300  -13.1220   22.3090 H   0  0  0  0  0  0  0  0  0  0  0  0
  -25.3530  -15.2190   20.2810 N   0  0  0  0  0  0  0  0  0  0  0  0
  -24.5920  -15.8760   20.4060 H   0  0  0  0  0  0  0  0  0  0  0  0
  -26.2060  -15.6540   19.9520 H   0  0  0  0  0  0  0  0  0  0  0  0
  -28.2140  -17.0550   18.2470 C   0  0  0  0  0  1  0  0  0  0  0  0
  -29.3900  -16.0870   18.5030 C   0  0  0  0  0  2  0  0  0  0  0  0
  -28.1270  -25.0990   20.1000 C   0  0  0  0  0  2  0  0  0  0  0  0
  -28.3220  -26.5660   20.1020 O   0  0  0  0  0  0  0  0  0  0  0  0
  -24.5620  -31.8650   23.1880 C   0  0  0  0  0  0  0  0  0  0  0  0
  -27.1840  -27.3860   20.0520 C   0  0  0  0  0  0  0  0  0  0  0  0
  -23.3520  -30.4970   21.5230 C   0  0  0  0  0  3  0  0  0  0  0  0
  -24.8040  -28.9730   20.0690 C   0  0  0  0  0  0  0  0  0  0  0  0
  -25.8850  -30.8330   21.3290 C   0  0  0  0  0  2  0  0  0  0  0  0
  -25.9700  -29.4630   20.6660 C   0  0  0  0  0  0  0  0  0  0  0  0
  -27.1640  -28.6840   20.6420 C   0  0  0  0  0  3  0  0  0  0  0  0
  -25.9930  -26.9430   19.4300 C   0  0  0  0  0  3  0  0  0  0  0  0
  -24.8150  -27.7160   19.4410 C   0  0  0  0  0  3  0  0  0  0  0  0
  -23.5630  -29.8390   20.1320 C   0  0  0  0  0  2  0  0  0  0  0  0
  -24.6190  -31.0800   22.0730 N   0  0  0  0  0  0  0  0  0  0  0  0
  -23.4800  -32.1320   23.7310 O   0  0  0  0  0  0  0  0  0  0  0  0
  -22.6900  -29.4660   22.4660 C   0  0  0  0  0  0  0  0  0  0  0  0
  -21.3650  -29.2870   22.3330 N   0  0  0  0  0  0  0  0  0  0  0  0
  -23.3680  -28.8300   23.2820 O   0  0  0  0  0  0  0  0  0  0  0  0
  -20.8770  -29.8520   21.6510 H   0  0  0  0  0  0  0  0  0  0  0  0
  -17.9910  -28.0660   22.7930 C   0  0  0  0  0  0  0  0  0  0  0  0
  -20.5460  -28.3350   23.0860 C   0  0  0  0  0  3  0  0  0  0  0  0
  -20.6610  -26.9110   22.4930 C   0  0  0  0  0  2  0  0  0  0  0  0
  -19.5690  -26.5950   21.4660 C   0  0  0  0  0  2  0  0  0  0  0  0
  -18.1810  -26.7260   22.1010 C   0  0  0  0  0  2  0  0  0  0  0  0
  -19.1020  -28.8280   23.2410 C   0  0  0  0  0  0  0  0  0  0  0  0
  -18.8720  -30.0820   23.8470 C   0  0  0  0  0  3  0  0  0  0  0  0
  -17.5640  -30.5770   24.0080 C   0  0  0  0  0  3  0  0  0  0  0  0
  -16.4660  -29.8090   23.5780 C   0  0  0  0  0  3  0  0  0  0  0  0
  -16.6810  -28.5560   22.9770 C   0  0  0  0  0  3  0  0  0  0  0  0
  -25.8470  -32.4850   23.8200 C   0  0  0  0  0  3  0  0  0  0  0  0
  -26.3570  -31.6950   25.0860 C   0  0  1  0  0  0  0  0  0  0  0  0
  -25.2620  -31.4470   26.1500 C   0  0  0  0  0  1  0  0  0  0  0  0
  -26.9330  -30.3200   24.6740 C   0  0  0  0  0  1  0  0  0  0  0  0
  -27.5150  -32.4720   25.7600 C   0  0  0  0  0  1  0  0  0  0  0  0
  -25.5470  -33.8820   24.1640 N   0  0  0  0  0  0  0  0  0  0  0  0
  -25.8760  -34.9390   23.4090 C   0  0  0  0  0  0  0  0  0  0  0  0
  -26.5330  -34.8410   22.3700 O   0  0  0  0  0  0  0  0  0  0  0  0
  -24.9690  -34.0340   24.9770 H   0  0  0  0  0  0  0  0  0  0  0  0
  -24.1510  -36.7410   23.0860 C   0  0  0  0  0  1  0  0  0  0  0  0
  -25.3990  -36.3270   23.8820 C   0  0  0  0  0  3  0  0  0  0  0  0
  -27.5420  -37.1990   24.7030 C   0  0  0  0  0  1  0  0  0  0  0  0
  -26.4350  -37.3760   23.7680 N   0  0  0  0  0  0  0  0  0  0  0  0
  -26.0330  -38.2970   23.9240 H   0  0  0  0  0  0  0  0  0  0  0  0
  1  2  1  0
  1  7  2  0
  3  2  1  0
  4  6  1  0
  5 53  1  0
  5  4  1  0
  5  3  1  0
  6  1  1  0
  8 12  1  0
 10  8  2  0
 10 13  1  0
 11  9  1  0
 12  6  1  0
 12  9  2  0
 13 11  2  0
 15 20  1  0
 16 17  1  0
 16 15  1  0
 18 17  1  0
 18 26  1  0
 18 19  1  0
 20 14  1  0
 20 19  1  0
 21 14  2  0
 22 14  1  0
 22 13  1  0
 23 24  2  0
 24 43  1  0
 25 24  1  0
 25 28  1  0
 26 23  1  0
 26 27  1  0
 27 25  2  0
 28 29  1  0
 29 30  2  0
 31 34  1  0
 31 30  1  0
 32 31  2  0
 33 32  1  0
 33 28  2  0
 34 35  1  0
 35 36  1  0
 36 37  2  0
 38 37  1  0
 38 42  1  0
 39 38  2  0
 40 35  2  0
 40 39  1  0
 41 40  1  0
 43 44  1  0
 44 47  1  0
 44 46  1  0
 45 43  2  0
 48 49  1  0
 48 23  1  0
 50 48  1  0
 51 52  1  0
 52 22  1  0
 53 54  1  0
 55 66  2  0
 56 54  1  0
 56 61  1  0
 57 65  1  0
 57 67  1  0
 58 64  1  0
 58 60  1  0
 59 65  1  0
 60 59  1  0
 61 60  2  0
 62 63  1  0
 62 56  2  0
 63 58  2  0
 64 57  1  0
 65 55  1  0
 67 69  2  0
 68 67  1  0
 70 68  1  0
 71 80  2  0
 71 76  1  0
 72 68  1  0
 72 76  1  0
 73 72  1  0
 74 75  1  0
 74 73  1  0
 75 71  1  0
 76 77  2  0
 77 78  1  0
 79 78  2  0
 80 79  1  0
 81 55  1  0
 81 86  1  0
 81 82  1  0
 82 85  1  1
 82 83  1  0
 84 82  1  0
 86 89  1  0
 87 91  1  0
 87 86  1  0
 88 87  2  0
 91 90  1  0
 93 91  1  0
 93 94  1  0
 93 92  1  0
M  ISO  4  14 100  22 100  53 101  54 101
M  END
>  <TORSDO>  (40) 
F 19

>  <SCORE>  (40) 
-12.263

>  <name>  (40) 
40

>  <ligand_id>  (40) 
40

>  <original_smiles>  (40) 
[H]c1c([H])c([H])c2c(c1[H])C([H])([H])C([H])([H])C([H])([H])C2([H])N([H])C(=O)C1([H])N(C(=O)C([H])(N([H])C(=O)C([H])(N([H])C([H])([H])[H])C([H])([H])[H])C(C([H])([H])[H])(C([H])([H])[H])C([H])([H])[H])C([H])([H])c2c([H])c(OC([H])([H])C3([H])C([H])([H])N(c4c([H])c([H])c(N(C(=O)N5C([H])([H])C([H])([H])C([H])([H])C([H])(n6nc(-c7c([H])c([H])c(Oc8c([H])c([H])c(F)c([H])c8F)c([H])c7[H])c(C(=O)N([H])[H])c6N([H])[H])C5([H])[H])C([H])([H])C([H])([H])[H])c([H])c4[H])C(=O)C([H])([H])C3([H])[H])c([H])c([H])c2C1([H])[H]

>  <smiles>  (40) 
[H]c1c([H])c([H])c2c(c1[H])C([H])([H])C([H])([H])C([H])([H])C2([H])N([H])C(=O)C1([H])N(C(=O)C([H])(N([H])C(=O)C([H])(N([H])C([H])([H])[H])C([H])([H])[H])C(C([H])([H])[H])(C([H])([H])[H])C([H])([H])[H])C([H])([H])c2c([H])c(OC([H])([H])C3([H])C([H])([H])N(c4c([H])c([H])c(N(C(=O)N5C([H])([H])C([H])([H])C([H])([H])C([H])(n6nc(-c7c([H])c([H])c(Oc8c([H])c([H])c(F)c([H])c8F)c([H])c7[H])c(C(=O)N([H])[H])c6N([H])[H])C5([H])[H])C([H])([H])C([H])([H])[H])c([H])c4[H])C(=O)C([H])([H])C3([H])[H])c([H])c([H])c2C1([H])[H]

$$$$
41:0:0
     RDKit          3D

 95103  0  0  1  0  0  0  0  0999 V2000
  -30.8820  -18.6600   22.3580 C   0  0  0  0  0  3  0  0  0  0  0  0
  -29.3850  -17.5390   20.7960 C   0  0  0  0  0  3  0  0  0  0  0  0
  -30.4900  -17.4890   21.6770 C   0  0  0  0  0  0  0  0  0  0  0  0
  -30.1730  -19.8660   22.1880 C   0  0  0  0  0  0  0  0  0  0  0  0
  -28.6680  -18.7390   20.6310 C   0  0  0  0  0  0  0  0  0  0  0  0
  -29.0550  -19.9070   21.3270 C   0  0  0  0  0  0  0  0  0  0  0  0
  -30.6200  -21.1020   22.9480 C   0  0  0  0  0  1  0  0  0  0  0  0
  -27.5540  -18.7670   19.7970 N   0  0  0  0  0  0  0  0  0  0  0  0
  -27.1320  -17.8720   19.5720 H   0  0  0  0  0  0  0  0  0  0  0  0
  -26.8680  -19.4770   20.0320 H   0  0  0  0  0  0  0  0  0  0  0  0
  -31.2600  -16.2030   21.9530 C   0  0  0  0  0  2  0  0  0  0  0  0
  -30.8870  -14.4160   20.2420 C   0  0  0  0  0  0  0  0  0  0  0  0
  -30.4120  -12.3990   18.9010 C   0  0  0  0  0  2  0  0  0  0  0  0
  -29.4070  -12.6570   17.7640 C   0  0  0  0  0  2  0  0  0  0  0  0
  -27.9590  -12.5270   18.2720 C   0  0  0  0  0  2  0  0  0  0  0  0
  -27.7090  -13.3480   19.5610 C   0  0  0  0  0  3  0  0  0  0  0  0
  -28.8010  -13.0590   20.6100 C   0  0  0  0  0  2  0  0  0  0  0  0
  -30.1250  -13.3220   20.0070 N   0  0  0  0  0  0  0  0  0  0  0  0
  -31.8050  -14.7880   19.5010 O   0  0  0  0  0  0  0  0  0  0  0  0
  -30.6360  -15.0010   21.4160 N   0  0  0  0  0  0  0  0  0  0  0  0
  -29.9390  -14.5560   21.9950 H   0  0  0  0  0  0  0  0  0  0  0  0
  -25.3710  -14.0110   20.4230 C   0  0  0  0  0  0  0  0  0  0  0  0
  -24.2980  -13.2630   20.8260 C   0  0  0  0  0  0  0  0  0  0  0  0
  -24.7090  -11.8980   20.7130 C   0  0  0  0  0  0  0  0  0  0  0  0
  -26.3710  -13.1060   20.0980 N   0  0  0  0  0  0  0  0  0  0  0  0
  -25.9760  -11.8280   20.3280 N   0  0  0  0  0  0  0  0  0  0  0  0
  -23.9500  -10.6530   20.8950 C   0  0  0  0  0  0  0  0  0  0  0  0
  -24.4050   -9.6300   21.7570 C   0  0  0  0  0  3  0  0  0  0  0  0
  -23.6500   -8.4490   21.9270 C   0  0  0  0  0  3  0  0  0  0  0  0
  -22.4270   -8.2830   21.2340 C   0  0  0  0  0  0  0  0  0  0  0  0
  -21.9910   -9.2950   20.3610 C   0  0  0  0  0  3  0  0  0  0  0  0
  -22.7450  -10.4680   20.1900 C   0  0  0  0  0  3  0  0  0  0  0  0
  -21.6430   -7.1580   21.3160 O   0  0  0  0  0  0  0  0  0  0  0  0
  -21.6330   -6.3680   22.4390 C   0  0  0  0  0  0  0  0  0  0  0  0
  -21.3120   -6.8880   23.7110 C   0  0  0  0  0  3  0  0  0  0  0  0
  -21.2440   -6.0280   24.8260 C   0  0  0  0  0  3  0  0  0  0  0  0
  -21.4870   -4.6500   24.6690 C   0  0  0  0  0  0  0  0  0  0  0  0
  -21.7960   -4.1290   23.4020 C   0  0  0  0  0  3  0  0  0  0  0  0
  -21.8670   -4.9870   22.2890 C   0  0  0  0  0  0  0  0  0  0  0  0
  -22.1470   -4.4770   21.0650 F   0  0  0  0  0  0  0  0  0  0  0  0
  -21.4130   -3.8230   25.7370 F   0  0  0  0  0  0  0  0  0  0  0  0
  -22.9370  -13.7760   21.2030 C   0  0  0  0  0  0  0  0  0  0  0  0
  -22.2430  -13.0710   22.0910 N   0  0  0  0  0  0  0  0  0  0  0  0
  -22.5000  -14.8310   20.7460 O   0  0  0  0  0  0  0  0  0  0  0  0
  -22.6120  -12.2210   22.4870 H   0  0  0  0  0  0  0  0  0  0  0  0
  -21.3320  -13.3930   22.3850 H   0  0  0  0  0  0  0  0  0  0  0  0
  -25.5770  -15.3810   20.2820 N   0  0  0  0  0  0  0  0  0  0  0  0
  -24.8140  -16.0430   20.3670 H   0  0  0  0  0  0  0  0  0  0  0  0
  -26.3880  -15.7760   19.8250 H   0  0  0  0  0  0  0  0  0  0  0  0
  -28.3130  -21.0550   21.1990 O   0  0  0  0  0  0  0  0  0  0  0  0
  -28.8080  -21.9770   20.2350 C   0  0  0  0  0  2  0  0  0  0  0  0
  -28.7220  -23.3990   20.8120 C   0  0  0  0  0  2  0  0  0  0  0  0
  -28.8950  -24.4790   19.7350 C   0  0  0  0  0  2  0  0  0  0  0  0
  -29.0550  -25.8910   20.3650 C   0  0  0  0  0  2  0  0  0  0  0  0
  -28.9890  -27.2760   19.9760 O   0  0  0  0  0  0  0  0  0  0  0  0
  -24.6100  -31.8440   23.2000 C   0  0  0  0  0  0  0  0  0  0  0  0
  -27.7380  -27.8740   19.9740 C   0  0  0  0  0  0  0  0  0  0  0  0
  -23.5760  -30.4080   21.4700 C   0  0  0  0  0  3  0  0  0  0  0  0
  -25.1990  -29.0950   20.0080 C   0  0  0  0  0  0  0  0  0  0  0  0
  -26.0460  -31.0410   21.3290 C   0  0  0  0  0  2  0  0  0  0  0  0
  -26.2850  -29.7190   20.6330 C   0  0  0  0  0  0  0  0  0  0  0  0
  -27.5640  -29.1190   20.6080 C   0  0  0  0  0  3  0  0  0  0  0  0
  -26.6350  -27.2530   19.3530 C   0  0  0  0  0  3  0  0  0  0  0  0
  -25.3650  -27.8580   19.3640 C   0  0  0  0  0  3  0  0  0  0  0  0
  -23.8720  -29.8150   20.0660 C   0  0  0  0  0  2  0  0  0  0  0  0
  -24.7600  -31.1100   22.0600 N   0  0  0  0  0  0  0  0  0  0  0  0
  -23.5010  -31.9780   23.7350 O   0  0  0  0  0  0  0  0  0  0  0  0
  -23.0190  -29.2800   22.3700 C   0  0  0  0  0  0  0  0  0  0  0  0
  -21.7210  -28.9730   22.2080 N   0  0  0  0  0  0  0  0  0  0  0  0
  -23.7500  -28.6880   23.1650 O   0  0  0  0  0  0  0  0  0  0  0  0
  -21.1900  -29.5100   21.5380 H   0  0  0  0  0  0  0  0  0  0  0  0
  -18.4810  -27.4170   22.5660 C   0  0  0  0  0  0  0  0  0  0  0  0
  -20.9900  -27.9260   22.9200 C   0  0  0  0  0  3  0  0  0  0  0  0
  -21.2560  -26.5370   22.2990 C   0  0  0  0  0  2  0  0  0  0  0  0
  -20.2220  -26.1400   21.2420 C   0  0  0  0  0  2  0  0  0  0  0  0
  -18.8150  -26.1200   21.8490 C   0  0  0  0  0  2  0  0  0  0  0  0
  -19.5030  -28.2730   23.0560 C   0  0  0  0  0  0  0  0  0  0  0  0
  -19.1400  -29.4820   23.6880 C   0  0  0  0  0  3  0  0  0  0  0  0
  -17.7860  -29.8370   23.8370 C   0  0  0  0  0  3  0  0  0  0  0  0
  -16.7780  -28.9770   23.3640 C   0  0  0  0  0  3  0  0  0  0  0  0
  -17.1260  -27.7700   22.7340 C   0  0  0  0  0  3  0  0  0  0  0  0
  -25.8180  -32.5680   23.8730 C   0  0  0  0  0  3  0  0  0  0  0  0
  -25.4010  -33.9460   24.1600 N   0  0  0  0  0  0  0  0  0  0  0  0
  -25.7100  -35.0060   23.3980 C   0  0  0  0  0  0  0  0  0  0  0  0
  -26.4460  -34.9300   22.4110 O   0  0  0  0  0  0  0  0  0  0  0  0
  -24.7550  -34.0710   24.9250 H   0  0  0  0  0  0  0  0  0  0  0  0
  -23.8830  -36.6640   22.9110 C   0  0  0  0  0  1  0  0  0  0  0  0
  -25.1040  -36.3640   23.7970 C   0  0  0  0  0  3  0  0  0  0  0  0
  -27.1330  -37.4050   24.7070 C   0  0  0  0  0  1  0  0  0  0  0  0
  -26.0670  -37.4840   23.7120 N   0  0  0  0  0  0  0  0  0  0  0  0
  -25.5940  -38.3770   23.8250 H   0  0  0  0  0  0  0  0  0  0  0  0
  -26.3190  -31.8500   25.1850 C   0  0  1  0  0  0  0  0  0  0  0  0
  -25.1930  -31.5540   26.2010 C   0  0  0  0  0  1  0  0  0  0  0  0
  -27.0130  -30.5100   24.8420 C   0  0  0  0  0  1  0  0  0  0  0  0
  -27.3820  -32.7270   25.8900 C   0  0  0  0  0  1  0  0  0  0  0  0
  2  3  1  0
  3 11  1  0
  3  1  2  0
  4  1  1  0
  4  7  1  0
  5  2  2  0
  5  6  1  0
  6  4  2  0
  8 10  1  0
  8  5  1  0
  9  8  1  0
 12 20  1  0
 13 18  1  0
 14 15  1  0
 14 13  1  0
 16 15  1  0
 16 25  1  0
 16 17  1  0
 18 12  1  0
 18 17  1  0
 19 12  2  0
 20 11  1  0
 20 21  1  0
 22 23  2  0
 23 42  1  0
 24 23  1  0
 24 27  1  0
 25 26  1  0
 25 22  1  0
 26 24  2  0
 27 28  1  0
 28 29  2  0
 30 33  1  0
 30 29  1  0
 31 30  2  0
 32 31  1  0
 32 27  2  0
 33 34  1  0
 34 35  1  0
 35 36  2  0
 37 36  1  0
 37 41  1  0
 38 37  2  0
 39 34  2  0
 39 38  1  0
 40 39  1  0
 42 43  1  0
 43 46  1  0
 43 45  1  0
 44 42  2  0
 47 48  1  0
 47 22  1  0
 49 47  1  0
 50  6  1  0
 51 52  1  0
 51 50  1  0
 53 54  1  0
 53 52  1  0
 55 54  1  0
 56 67  2  0
 57 55  1  0
 57 62  1  0
 58 66  1  0
 58 68  1  0
 59 65  1  0
 59 61  1  0
 60 66  1  0
 61 60  1  0
 62 61  2  0
 63 64  1  0
 63 57  2  0
 64 59  2  0
 65 58  1  0
 66 56  1  0
 68 70  2  0
 69 68  1  0
 71 69  1  0
 72 81  2  0
 72 77  1  0
 73 69  1  0
 73 77  1  0
 74 73  1  0
 75 76  1  0
 75 74  1  0
 76 72  1  0
 77 78  2  0
 78 79  1  0
 80 79  2  0
 81 80  1  0
 82 56  1  0
 82 83  1  0
 82 92  1  0
 83 86  1  0
 84 88  1  0
 84 83  1  0
 85 84  2  0
 88 87  1  0
 90 88  1  0
 90 91  1  0
 90 89  1  0
 92 95  1  1
 92 93  1  0
 94 92  1  0
M  ISO  4  12 100  20 100  54 101  55 101
M  END
>  <TORSDO>  (41) 
F 23

>  <SCORE>  (41) 
-11.562

>  <name>  (41) 
41

>  <ligand_id>  (41) 
41

>  <original_smiles>  (41) 
[H]c1c([H])c([H])c2c(c1[H])C([H])([H])C([H])([H])C([H])([H])C2([H])N([H])C(=O)C1([H])N(C(=O)C([H])(N([H])C(=O)C([H])(N([H])C([H])([H])[H])C([H])([H])[H])C(C([H])([H])[H])(C([H])([H])[H])C([H])([H])[H])C([H])([H])c2c([H])c(OC([H])([H])C([H])([H])C([H])([H])C([H])([H])Oc3c(N([H])[H])c([H])c(C([H])([H])N([H])C(=O)N4C([H])([H])C([H])([H])C([H])([H])C([H])(n5nc(-c6c([H])c([H])c(Oc7c([H])c([H])c(F)c([H])c7F)c([H])c6[H])c(C(=O)N([H])[H])c5N([H])[H])C4([H])[H])c([H])c3C([H])([H])[H])c([H])c([H])c2C1([H])[H]

>  <smiles>  (41) 
[H]c1c([H])c([H])c2c(c1[H])C([H])([H])C([H])([H])C([H])([H])C2([H])N([H])C(=O)C1([H])N(C(=O)C([H])(N([H])C(=O)C([H])(N([H])C([H])([H])[H])C([H])([H])[H])C(C([H])([H])[H])(C([H])([H])[H])C([H])([H])[H])C([H])([H])c2c([H])c(OC([H])([H])C([H])([H])C([H])([H])C([H])([H])Oc3c(N([H])[H])c([H])c(C([H])([H])N([H])C(=O)N4C([H])([H])C([H])([H])C([H])([H])C([H])(n5nc(-c6c([H])c([H])c(Oc7c([H])c([H])c(F)c([H])c7F)c([H])c6[H])c(C(=O)N([H])[H])c5N([H])[H])C4([H])[H])c([H])c3C([H])([H])[H])c([H])c([H])c2C1([H])[H]

$$$$
42:0:0
     RDKit          3D

 96105  0  0  1  0  0  0  0  0999 V2000
  -26.1690  -22.9670   21.1040 C   0  0  0  0  0  0  0  0  0  0  0  0
  -28.8740  -22.9170   20.2120 C   0  0  0  0  0  0  0  0  0  0  0  0
  -26.5510  -24.2310   20.3620 C   0  0  0  0  0  2  0  0  0  0  0  0
  -26.7430  -21.6930   20.5020 C   0  0  0  0  0  2  0  0  0  0  0  0
  -28.0580  -24.2940   19.9920 C   0  0  0  0  0  3  0  0  0  0  0  0
  -28.2210  -21.6940   20.3920 N   0  0  0  0  0  0  0  0  0  0  0  0
  -25.4450  -22.9750   22.1000 O   0  0  0  0  0  0  0  0  0  0  0  0
  -30.1050  -22.9800   20.1810 O   0  0  0  0  0  0  0  0  0  0  0  0
  -30.1230  -19.9560   20.8060 C   0  0  0  0  0  3  0  0  0  0  0  0
  -28.0590  -19.2350   19.8430 C   0  0  0  0  0  3  0  0  0  0  0  0
  -30.6270  -18.6070   20.7290 C   0  0  0  0  0  0  0  0  0  0  0  0
  -28.8230  -20.3280   20.3480 C   0  0  0  0  0  0  0  0  0  0  0  0
  -29.8370  -17.5300   20.2050 C   0  0  0  0  0  0  0  0  0  0  0  0
  -28.5410  -17.9030   19.7650 C   0  0  0  0  0  0  0  0  0  0  0  0
  -32.0650  -18.3630   21.1480 C   0  0  0  0  0  1  0  0  0  0  0  0
  -27.7540  -16.9780   19.1720 F   0  0  0  0  0  0  0  0  0  0  0  0
  -30.9440  -15.1840   20.4860 C   0  0  0  0  0  0  0  0  0  0  0  0
  -30.7600  -12.8770   19.5930 C   0  0  0  0  0  2  0  0  0  0  0  0
  -29.8720  -12.8680   18.3310 C   0  0  0  0  0  2  0  0  0  0  0  0
  -28.3870  -12.7320   18.7100 C   0  0  0  0  0  2  0  0  0  0  0  0
  -27.9560  -13.6850   19.8570 C   0  0  0  0  0  3  0  0  0  0  0  0
  -28.9680  -13.6840   21.0210 C   0  0  0  0  0  2  0  0  0  0  0  0
  -30.2840  -13.9820   20.4480 N   0  0  0  0  0  0  0  0  0  0  0  0
  -32.1780  -15.1920   20.5120 O   0  0  0  0  0  0  0  0  0  0  0  0
  -30.8070  -16.3040   18.3770 C   0  0  0  0  0  1  0  0  0  0  0  0
  -30.3420  -16.2130   19.7750 N   0  0  0  0  0  0  0  0  0  0  0  0
  -25.5490  -14.2960   20.5100 C   0  0  0  0  0  0  0  0  0  0  0  0
  -24.4600  -13.5270   20.8200 C   0  0  0  0  0  0  0  0  0  0  0  0
  -24.9120  -12.1730   20.7880 C   0  0  0  0  0  0  0  0  0  0  0  0
  -26.5940  -13.4100   20.3020 N   0  0  0  0  0  0  0  0  0  0  0  0
  -26.2140  -12.1280   20.5390 N   0  0  0  0  0  0  0  0  0  0  0  0
  -24.1660  -10.9150   20.9230 C   0  0  0  0  0  0  0  0  0  0  0  0
  -24.5460   -9.9290   21.8600 C   0  0  0  0  0  3  0  0  0  0  0  0
  -23.8010   -8.7370   21.9850 C   0  0  0  0  0  3  0  0  0  0  0  0
  -22.6640   -8.5230   21.1710 C   0  0  0  0  0  0  0  0  0  0  0  0
  -22.3040   -9.4980   20.2230 C   0  0  0  0  0  3  0  0  0  0  0  0
  -23.0490  -10.6820   20.0970 C   0  0  0  0  0  3  0  0  0  0  0  0
  -21.8950   -7.3850   21.2060 O   0  0  0  0  0  0  0  0  0  0  0  0
  -21.7600   -6.6430   22.3510 C   0  0  0  0  0  0  0  0  0  0  0  0
  -21.2390   -7.1980   23.5410 C   0  0  0  0  0  3  0  0  0  0  0  0
  -21.0510   -6.3820   24.6740 C   0  0  0  0  0  3  0  0  0  0  0  0
  -21.3740   -5.0120   24.6180 C   0  0  0  0  0  0  0  0  0  0  0  0
  -21.8880   -4.4580   23.4340 C   0  0  0  0  0  3  0  0  0  0  0  0
  -22.0770   -5.2700   22.3020 C   0  0  0  0  0  0  0  0  0  0  0  0
  -22.5530   -4.7270   21.1550 F   0  0  0  0  0  0  0  0  0  0  0  0
  -21.1870   -4.2270   25.7050 F   0  0  0  0  0  0  0  0  0  0  0  0
  -23.0570  -14.0150   21.0320 C   0  0  0  0  0  0  0  0  0  0  0  0
  -22.2900  -13.3240   21.8680 N   0  0  0  0  0  0  0  0  0  0  0  0
  -22.6480  -15.0420   20.4930 O   0  0  0  0  0  0  0  0  0  0  0  0
  -22.6320  -12.4930   22.3250 H   0  0  0  0  0  0  0  0  0  0  0  0
  -21.3460  -13.6330   22.0540 H   0  0  0  0  0  0  0  0  0  0  0  0
  -25.7220  -15.6660   20.3590 N   0  0  0  0  0  0  0  0  0  0  0  0
  -24.9390  -16.3080   20.3990 H   0  0  0  0  0  0  0  0  0  0  0  0
  -26.5630  -16.0940   19.9770 H   0  0  0  0  0  0  0  0  0  0  0  0
  -28.6640  -25.6530   20.5880 C   0  0  0  0  0  2  0  0  0  0  0  0
  -28.5170  -26.9760   19.9300 O   0  0  0  0  0  0  0  0  0  0  0  0
  -24.7110  -32.0480   23.4230 C   0  0  0  0  0  0  0  0  0  0  0  0
  -27.3590  -27.7470   20.0610 C   0  0  0  0  0  0  0  0  0  0  0  0
  -23.5070  -30.7290   21.7160 C   0  0  0  0  0  3  0  0  0  0  0  0
  -24.9640  -29.2940   20.1820 C   0  0  0  0  0  0  0  0  0  0  0  0
  -26.0350  -31.1130   21.5140 C   0  0  0  0  0  2  0  0  0  0  0  0
  -26.1300  -29.7750   20.7920 C   0  0  0  0  0  0  0  0  0  0  0  0
  -27.3320  -29.0130   20.7220 C   0  0  0  0  0  3  0  0  0  0  0  0
  -26.1790  -27.3210   19.4220 C   0  0  0  0  0  3  0  0  0  0  0  0
  -24.9870  -28.0710   19.4910 C   0  0  0  0  0  3  0  0  0  0  0  0
  -23.7130  -30.1420   20.2940 C   0  0  0  0  0  2  0  0  0  0  0  0
  -24.7700  -31.3130   22.2760 N   0  0  0  0  0  0  0  0  0  0  0  0
  -23.6320  -32.2690   23.9910 O   0  0  0  0  0  0  0  0  0  0  0  0
  -22.8800  -29.6430   22.6210 C   0  0  0  0  0  0  0  0  0  0  0  0
  -21.5640  -29.4200   22.4740 N   0  0  0  0  0  0  0  0  0  0  0  0
  -23.5780  -29.0030   23.4130 O   0  0  0  0  0  0  0  0  0  0  0  0
  -21.0600  -29.9880   21.8070 H   0  0  0  0  0  0  0  0  0  0  0  0
  -18.2370  -28.0530   22.8640 C   0  0  0  0  0  0  0  0  0  0  0  0
  -20.7770  -28.4150   23.1890 C   0  0  0  0  0  3  0  0  0  0  0  0
  -20.9550  -27.0160   22.5560 C   0  0  0  0  0  2  0  0  0  0  0  0
  -19.8840  -26.6870   21.5100 C   0  0  0  0  0  2  0  0  0  0  0  0
  -18.4870  -26.7420   22.1350 C   0  0  0  0  0  2  0  0  0  0  0  0
  -19.3130  -28.8450   23.3450 C   0  0  0  0  0  0  0  0  0  0  0  0
  -19.0290  -30.0710   23.9860 C   0  0  0  0  0  3  0  0  0  0  0  0
  -17.7010  -30.5060   24.1510 C   0  0  0  0  0  3  0  0  0  0  0  0
  -16.6390  -29.7100   23.6880 C   0  0  0  0  0  3  0  0  0  0  0  0
  -16.9080  -28.4850   23.0510 C   0  0  0  0  0  3  0  0  0  0  0  0
  -25.9910  -32.6650   24.0660 C   0  0  0  0  0  3  0  0  0  0  0  0
  -25.6820  -34.0570   24.4220 N   0  0  0  0  0  0  0  0  0  0  0  0
  -26.0230  -35.1250   23.6890 C   0  0  0  0  0  0  0  0  0  0  0  0
  -26.7010  -35.0410   22.6600 O   0  0  0  0  0  0  0  0  0  0  0  0
  -25.0830  -34.1970   25.2230 H   0  0  0  0  0  0  0  0  0  0  0  0
  -24.3040  -36.9310   23.3600 C   0  0  0  0  0  1  0  0  0  0  0  0
  -25.5360  -36.5060   24.1720 C   0  0  0  0  0  3  0  0  0  0  0  0
  -27.6620  -37.3680   25.0440 C   0  0  0  0  0  1  0  0  0  0  0  0
  -26.5730  -37.5560   24.0910 N   0  0  0  0  0  0  0  0  0  0  0  0
  -26.1680  -38.4750   24.2510 H   0  0  0  0  0  0  0  0  0  0  0  0
  -26.4980  -31.8670   25.3300 C   0  0  1  0  0  0  0  0  0  0  0  0
  -25.3960  -31.5990   26.3820 C   0  0  0  0  0  1  0  0  0  0  0  0
  -27.0920  -30.5010   24.9120 C   0  0  0  0  0  1  0  0  0  0  0  0
  -27.6410  -32.6500   26.0190 C   0  0  0  0  0  1  0  0  0  0  0  0
  1  7  2  0
  2  6  1  0
  3  1  1  0
  4  1  1  0
  5  2  1  0
  5  3  1  0
  5 55  1  0
  6  4  1  0
  8  2  2  0
 10 12  1  0
 11  9  1  0
 11 15  1  0
 12  6  1  0
 12  9  2  0
 13 11  2  0
 14 10  2  0
 14 13  1  0
 16 14  1  0
 17 24  2  0
 18 23  1  0
 19 20  1  0
 19 18  1  0
 21 20  1  0
 21 30  1  0
 21 22  1  0
 23 17  1  0
 23 22  1  0
 25 26  1  0
 26 13  1  0
 26 17  1  0
 27 28  2  0
 28 47  1  0
 29 28  1  0
 29 32  1  0
 30 27  1  0
 30 31  1  0
 31 29  2  0
 32 33  1  0
 33 34  2  0
 35 38  1  0
 35 34  1  0
 36 35  2  0
 37 36  1  0
 37 32  2  0
 38 39  1  0
 39 40  1  0
 40 41  2  0
 42 41  1  0
 42 46  1  0
 43 42  2  0
 44 39  2  0
 44 43  1  0
 45 44  1  0
 47 48  1  0
 48 51  1  0
 48 50  1  0
 49 47  2  0
 52 53  1  0
 52 27  1  0
 54 52  1  0
 56 58  1  0
 56 55  1  0
 57 68  2  0
 58 63  1  0
 59 67  1  0
 59 69  1  0
 60 66  1  0
 60 62  1  0
 61 67  1  0
 62 61  1  0
 63 62  2  0
 64 65  1  0
 64 58  2  0
 65 60  2  0
 66 59  1  0
 67 57  1  0
 69 71  2  0
 70 69  1  0
 72 70  1  0
 73 82  2  0
 73 78  1  0
 74 70  1  0
 74 78  1  0
 75 74  1  0
 76 77  1  0
 76 75  1  0
 77 73  1  0
 78 79  2  0
 79 80  1  0
 81 80  2  0
 82 81  1  0
 83 57  1  0
 83 84  1  0
 83 93  1  0
 84 87  1  0
 85 89  1  0
 85 84  1  0
 86 85  2  0
 89 88  1  0
 91 89  1  0
 91 92  1  0
 91 90  1  0
 93 96  1  1
 93 94  1  0
 95 93  1  0
M  ISO  4  17 100  26 100  55 101  56 101
M  END
>  <TORSDO>  (42) 
F 18

>  <SCORE>  (42) 
-13.718

>  <name>  (42) 
42

>  <ligand_id>  (42) 
42

>  <original_smiles>  (42) 
[H]c1c([H])c([H])c2c(c1[H])C([H])([H])C([H])([H])C([H])([H])C2([H])N([H])C(=O)C1([H])N(C(=O)C([H])(N([H])C(=O)C([H])(N([H])C([H])([H])[H])C([H])([H])[H])C(C([H])([H])[H])(C([H])([H])[H])C([H])([H])[H])C([H])([H])c2c([H])c(OC([H])([H])C3([H])C(=O)N(c4c([H])c(F)c(N(C(=O)N5C([H])([H])C([H])([H])C([H])([H])C([H])(n6nc(-c7c([H])c([H])c(Oc8c([H])c([H])c(F)c([H])c8F)c([H])c7[H])c(C(=O)N([H])[H])c6N([H])[H])C5([H])[H])C([H])([H])[H])c(C([H])([H])[H])c4[H])C([H])([H])C(=O)C3([H])[H])c([H])c([H])c2C1([H])[H]

>  <smiles>  (42) 
[H]c1c([H])c([H])c2c(c1[H])C([H])([H])C([H])([H])C([H])([H])C2([H])N([H])C(=O)C1([H])N(C(=O)C([H])(N([H])C(=O)C([H])(N([H])C([H])([H])[H])C([H])([H])[H])C(C([H])([H])[H])(C([H])([H])[H])C([H])([H])[H])C([H])([H])c2c([H])c(OC([H])([H])C3([H])C(=O)N(c4c([H])c(F)c(N(C(=O)N5C([H])([H])C([H])([H])C([H])([H])C([H])(n6nc(-c7c([H])c([H])c(Oc8c([H])c([H])c(F)c([H])c8F)c([H])c7[H])c(C(=O)N([H])[H])c6N([H])[H])C5([H])[H])C([H])([H])[H])c(C([H])([H])[H])c4[H])C([H])([H])C(=O)C3([H])[H])c([H])c([H])c2C1([H])[H]

$$$$
43:0:0
     RDKit          3D

 93102  0  0  1  0  0  0  0  0999 V2000
  -30.5080  -23.9610   19.7060 C   0  0  0  0  0  2  0  0  0  0  0  0
  -31.1040  -22.5740   20.0540 C   0  0  0  0  0  2  0  0  0  0  0  0
  -28.7540  -22.5120   20.3470 C   0  0  0  0  0  2  0  0  0  0  0  0
  -29.1780  -24.0190   20.4530 C   0  0  0  0  0  3  0  0  0  0  0  0
  -29.9910  -21.6680   20.4560 N   0  0  1  0  0  4  0  0  0  0  0  0
  -30.1410  -21.4850   21.4360 H   0  0  0  0  0  0  0  0  0  0  0  0
  -30.0210  -20.3120   19.7700 C   0  0  0  0  0  2  0  0  0  0  0  0
  -28.0960  -19.1580   20.9860 C   0  0  0  0  0  3  0  0  0  0  0  0
  -28.1630  -16.8310   21.7070 C   0  0  0  0  0  3  0  0  0  0  0  0
  -30.1020  -17.8060   20.6090 C   0  0  0  0  0  3  0  0  0  0  0  0
  -27.4770  -18.0540   21.5970 C   0  0  0  0  0  0  0  0  0  0  0  0
  -29.4170  -19.0720   20.4970 C   0  0  0  0  0  0  0  0  0  0  0  0
  -29.4750  -16.6650   21.2160 C   0  0  0  0  0  0  0  0  0  0  0  0
  -26.0650  -18.1870   22.1320 C   0  0  0  0  0  1  0  0  0  0  0  0
  -30.0080  -15.3970   21.4720 O   0  0  0  0  0  0  0  0  0  0  0  0
  -30.6800  -14.5610   20.5980 C   0  0  0  0  0  0  0  0  0  0  0  0
  -30.4370  -12.3540   19.4220 C   0  0  0  0  0  2  0  0  0  0  0  0
  -29.4990  -12.5260   18.2110 C   0  0  0  0  0  2  0  0  0  0  0  0
  -28.0240  -12.3690   18.6280 C   0  0  0  0  0  2  0  0  0  0  0  0
  -27.6600  -13.2130   19.8790 C   0  0  0  0  0  3  0  0  0  0  0  0
  -28.6980  -13.0040   21.0060 C   0  0  0  0  0  2  0  0  0  0  0  0
  -30.0260  -13.3160   20.4550 N   0  0  0  0  0  0  0  0  0  0  0  0
  -31.7310  -14.8660   20.0280 O   0  0  0  0  0  0  0  0  0  0  0  0
  -25.2550  -13.8150   20.5660 C   0  0  0  0  0  0  0  0  0  0  0  0
  -24.1820  -13.0420   20.9180 C   0  0  0  0  0  0  0  0  0  0  0  0
  -24.6390  -11.6900   20.8740 C   0  0  0  0  0  0  0  0  0  0  0  0
  -26.3010  -12.9350   20.3380 N   0  0  0  0  0  0  0  0  0  0  0  0
  -25.9320  -11.6500   20.5760 N   0  0  0  0  0  0  0  0  0  0  0  0
  -23.9060  -10.4280   21.0410 C   0  0  0  0  0  0  0  0  0  0  0  0
  -24.3610   -9.4200   21.9190 C   0  0  0  0  0  3  0  0  0  0  0  0
  -23.6290   -8.2230   22.0750 C   0  0  0  0  0  3  0  0  0  0  0  0
  -22.4270   -8.0270   21.3540 C   0  0  0  0  0  0  0  0  0  0  0  0
  -21.9900   -9.0240   20.4640 C   0  0  0  0  0  3  0  0  0  0  0  0
  -22.7240  -10.2120   20.3050 C   0  0  0  0  0  3  0  0  0  0  0  0
  -21.6640   -6.8860   21.4250 O   0  0  0  0  0  0  0  0  0  0  0  0
  -21.6850   -6.0720   22.5280 C   0  0  0  0  0  0  0  0  0  0  0  0
  -21.4010   -6.5620   23.8220 C   0  0  0  0  0  3  0  0  0  0  0  0
  -21.3670   -5.6780   24.9190 C   0  0  0  0  0  3  0  0  0  0  0  0
  -21.6050   -4.3040   24.7250 C   0  0  0  0  0  0  0  0  0  0  0  0
  -21.8820   -3.8130   23.4370 C   0  0  0  0  0  3  0  0  0  0  0  0
  -21.9190   -4.6950   22.3420 C   0  0  0  0  0  0  0  0  0  0  0  0
  -22.1660   -4.2130   21.1000 F   0  0  0  0  0  0  0  0  0  0  0  0
  -21.5650   -3.4530   25.7760 F   0  0  0  0  0  0  0  0  0  0  0  0
  -22.7850  -13.5210   21.1870 C   0  0  0  0  0  0  0  0  0  0  0  0
  -22.0490  -12.8200   22.0430 N   0  0  0  0  0  0  0  0  0  0  0  0
  -22.3510  -14.5530   20.6740 O   0  0  0  0  0  0  0  0  0  0  0  0
  -22.4100  -11.9850   22.4790 H   0  0  0  0  0  0  0  0  0  0  0  0
  -21.1110  -13.1220   22.2640 H   0  0  0  0  0  0  0  0  0  0  0  0
  -25.4220  -15.1860   20.4030 N   0  0  0  0  0  0  0  0  0  0  0  0
  -24.6540  -15.8380   20.5090 H   0  0  0  0  0  0  0  0  0  0  0  0
  -26.2820  -15.6320   20.1130 H   0  0  0  0  0  0  0  0  0  0  0  0
  -28.1290  -25.0770   19.9320 C   0  0  0  0  0  2  0  0  0  0  0  0
  -28.3500  -26.5150   20.1530 O   0  0  0  0  0  0  0  0  0  0  0  0
  -24.6230  -31.8630   23.2060 C   0  0  0  0  0  0  0  0  0  0  0  0
  -27.2250  -27.3490   20.1000 C   0  0  0  0  0  0  0  0  0  0  0  0
  -23.4150  -30.4870   21.5490 C   0  0  0  0  0  3  0  0  0  0  0  0
  -24.8600  -28.9520   20.1090 C   0  0  0  0  0  0  0  0  0  0  0  0
  -25.9550  -30.8000   21.3770 C   0  0  0  0  0  2  0  0  0  0  0  0
  -26.0290  -29.4320   20.7140 C   0  0  0  0  0  0  0  0  0  0  0  0
  -27.2130  -28.6420   20.7030 C   0  0  0  0  0  3  0  0  0  0  0  0
  -26.0320  -26.9220   19.4670 C   0  0  0  0  0  3  0  0  0  0  0  0
  -24.8630  -27.7000   19.4780 C   0  0  0  0  0  3  0  0  0  0  0  0
  -23.6270  -29.8260   20.1630 C   0  0  0  0  0  2  0  0  0  0  0  0
  -24.6830  -31.0660   22.1010 N   0  0  0  0  0  0  0  0  0  0  0  0
  -23.5400  -32.1420   23.7410 O   0  0  0  0  0  0  0  0  0  0  0  0
  -22.7460  -29.4630   22.4970 C   0  0  0  0  0  0  0  0  0  0  0  0
  -21.4180  -29.3030   22.3700 N   0  0  0  0  0  0  0  0  0  0  0  0
  -23.4190  -28.8180   23.3040 O   0  0  0  0  0  0  0  0  0  0  0  0
  -20.9360  -29.8740   21.6900 H   0  0  0  0  0  0  0  0  0  0  0  0
  -18.0280  -28.1380   22.8490 C   0  0  0  0  0  0  0  0  0  0  0  0
  -20.5880  -28.3670   23.1300 C   0  0  0  0  0  3  0  0  0  0  0  0
  -20.6770  -26.9410   22.5410 C   0  0  0  0  0  2  0  0  0  0  0  0
  -19.5750  -26.6380   21.5210 C   0  0  0  0  0  2  0  0  0  0  0  0
  -18.1930  -26.7920   22.1620 C   0  0  0  0  0  2  0  0  0  0  0  0
  -19.1530  -28.8850   23.2880 C   0  0  0  0  0  0  0  0  0  0  0  0
  -18.9460  -30.1450   23.8890 C   0  0  0  0  0  3  0  0  0  0  0  0
  -17.6460  -30.6590   24.0560 C   0  0  0  0  0  3  0  0  0  0  0  0
  -16.5350  -29.9080   23.6330 C   0  0  0  0  0  3  0  0  0  0  0  0
  -16.7270  -28.6490   23.0360 C   0  0  0  0  0  3  0  0  0  0  0  0
  -25.9100  -32.4790   23.8380 C   0  0  0  0  0  3  0  0  0  0  0  0
  -26.4490  -31.6600   25.0750 C   0  0  1  0  0  0  0  0  0  0  0  0
  -25.3730  -31.3730   26.1480 C   0  0  0  0  0  1  0  0  0  0  0  0
  -27.0340  -30.3030   24.6210 C   0  0  0  0  0  1  0  0  0  0  0  0
  -27.6040  -32.4350   25.7520 C   0  0  0  0  0  1  0  0  0  0  0  0
  -25.5920  -33.8590   24.2300 N   0  0  0  0  0  0  0  0  0  0  0  0
  -25.9050  -34.9460   23.5110 C   0  0  0  0  0  0  0  0  0  0  0  0
  -26.5610  -34.8920   22.4670 O   0  0  0  0  0  0  0  0  0  0  0  0
  -25.0070  -33.9750   25.0440 H   0  0  0  0  0  0  0  0  0  0  0  0
  -24.1490  -36.7300   23.2640 C   0  0  0  0  0  1  0  0  0  0  0  0
  -25.4110  -36.3090   24.0330 C   0  0  0  0  0  3  0  0  0  0  0  0
  -27.5580  -37.1810   24.8460 C   0  0  0  0  0  1  0  0  0  0  0  0
  -26.4290  -37.3780   23.9410 N   0  0  0  0  0  0  0  0  0  0  0  0
  -26.0170  -38.2860   24.1410 H   0  0  0  0  0  0  0  0  0  0  0  0
  1  2  1  0
  1  4  1  0
  2  5  1  0
  3  4  1  0
  3  5  1  0
  4 52  1  0
  5  6  1  1
  7  5  1  0
  7 12  1  0
  8 11  1  0
 10 13  2  0
 11  9  2  0
 11 14  1  0
 12 10  1  0
 12  8  2  0
 13 15  1  0
 13  9  1  0
 16 15  1  0
 17 22  1  0
 18 19  1  0
 18 17  1  0
 20 19  1  0
 20 27  1  0
 20 21  1  0
 22 16  1  0
 22 21  1  0
 23 16  2  0
 24 25  2  0
 25 44  1  0
 26 25  1  0
 26 29  1  0
 27 24  1  0
 27 28  1  0
 28 26  2  0
 29 30  1  0
 30 31  2  0
 32 35  1  0
 32 31  1  0
 33 32  2  0
 34 33  1  0
 34 29  2  0
 35 36  1  0
 36 37  1  0
 37 38  2  0
 39 38  1  0
 39 43  1  0
 40 39  2  0
 41 36  2  0
 41 40  1  0
 42 41  1  0
 44 45  1  0
 45 48  1  0
 45 47  1  0
 46 44  2  0
 49 50  1  0
 49 24  1  0
 51 49  1  0
 52 53  1  0
 54 65  2  0
 55 53  1  0
 55 60  1  0
 56 64  1  0
 56 66  1  0
 57 63  1  0
 57 59  1  0
 58 64  1  0
 59 58  1  0
 60 59  2  0
 61 62  1  0
 61 55  2  0
 62 57  2  0
 63 56  1  0
 64 54  1  0
 66 68  2  0
 67 66  1  0
 69 67  1  0
 70 79  2  0
 70 75  1  0
 71 67  1  0
 71 75  1  0
 72 71  1  0
 73 74  1  0
 73 72  1  0
 74 70  1  0
 75 76  2  0
 76 77  1  0
 78 77  2  0
 79 78  1  0
 80 54  1  0
 80 85  1  0
 80 81  1  0
 81 84  1  1
 81 82  1  0
 83 81  1  0
 85 88  1  0
 86 90  1  0
 86 85  1  0
 87 86  2  0
 90 89  1  0
 92 90  1  0
 92 93  1  0
 92 91  1  0
M  ISO  4  15 100  16 100  52 101  53 101
M  END
>  <TORSDO>  (43) 
F 20

>  <SCORE>  (43) 
-2.699

>  <name>  (43) 
43

>  <ligand_id>  (43) 
43

>  <original_smiles>  (43) 
[H]c1c([H])c([H])c2c(c1[H])C([H])([H])C([H])([H])C([H])([H])C2([H])N([H])C(=O)C1([H])N(C(=O)C([H])(N([H])C(=O)C([H])(N([H])C([H])([H])[H])C([H])([H])[H])C(C([H])([H])[H])(C([H])([H])[H])C([H])([H])[H])C([H])([H])c2c([H])c(OC([H])([H])C3([H])C([H])([H])C([H])([H])[N+]([H])(C([H])([H])c4c([H])c(OC(=O)N5C([H])([H])C([H])([H])C([H])([H])C([H])(n6nc(-c7c([H])c([H])c(Oc8c([H])c([H])c(F)c([H])c8F)c([H])c7[H])c(C(=O)N([H])[H])c6N([H])[H])C5([H])[H])c([H])c(C([H])([H])[H])c4[H])C3([H])[H])c([H])c([H])c2C1([H])[H]

>  <smiles>  (43) 
[H]c1c([H])c([H])c2c(c1[H])C([H])([H])C([H])([H])C([H])([H])C2([H])N([H])C(=O)C1([H])N(C(=O)C([H])(N([H])C(=O)C([H])(N([H])C([H])([H])[H])C([H])([H])[H])C(C([H])([H])[H])(C([H])([H])[H])C([H])([H])[H])C([H])([H])c2c([H])c(OC([H])([H])C3([H])C([H])([H])C([H])([H])[N+]([H])(C([H])([H])c4c([H])c(OC(=O)N5C([H])([H])C([H])([H])C([H])([H])C([H])(n6nc(-c7c([H])c([H])c(Oc8c([H])c([H])c(F)c([H])c8F)c([H])c7[H])c(C(=O)N([H])[H])c6N([H])[H])C5([H])[H])c([H])c(C([H])([H])[H])c4[H])C3([H])[H])c([H])c([H])c2C1([H])[H]

$$$$
44:0:0
     RDKit          3D

 91100  0  0  1  0  0  0  0  0999 V2000
  -28.9660  -21.7490   19.3370 C   0  0  0  0  0  2  0  0  0  0  0  0
  -29.9710  -21.8010   21.6260 C   0  0  0  0  0  2  0  0  0  0  0  0
  -28.3150  -23.1540   19.5800 C   0  0  0  0  0  2  0  0  0  0  0  0
  -29.3080  -23.1840   21.8850 C   0  0  0  0  0  2  0  0  0  0  0  0
  -29.1620  -20.9320   20.6400 C   0  0  0  0  0  3  0  0  0  0  0  0
  -29.0510  -24.0510   20.6180 C   0  0  0  0  0  3  0  0  0  0  0  0
  -31.0910  -17.7340   19.9940 C   0  0  0  0  0  3  0  0  0  0  0  0
  -30.0520  -16.9670   20.4870 C   0  0  0  0  0  0  0  0  0  0  0  0
  -29.6690  -19.4880   20.4830 C   0  0  0  0  0  0  0  0  0  0  0  0
  -30.8660  -19.1290   19.9970 N   0  0  0  0  0  0  0  0  0  0  0  0
  -28.7430  -18.0500   20.9720 S   0  0  0  0  0  0  0  0  0  0  0  0
  -30.6590  -14.5860   20.0880 C   0  0  0  0  0  0  0  0  0  0  0  0
  -30.3390  -12.4270   18.9200 C   0  0  0  0  0  2  0  0  0  0  0  0
  -29.3250  -12.6470   17.7760 C   0  0  0  0  0  2  0  0  0  0  0  0
  -27.8780  -12.4910   18.2860 C   0  0  0  0  0  2  0  0  0  0  0  0
  -27.6130  -13.2900   19.5900 C   0  0  0  0  0  3  0  0  0  0  0  0
  -28.7330  -13.0430   20.6270 C   0  0  0  0  0  2  0  0  0  0  0  0
  -30.0170  -13.3840   19.9930 N   0  0  0  0  0  0  0  0  0  0  0  0
  -31.7770  -14.7720   19.5990 O   0  0  0  0  0  0  0  0  0  0  0  0
  -29.9190  -15.5990   20.6170 N   0  0  0  0  0  0  0  0  0  0  0  0
  -29.0550  -15.2890   21.0350 H   0  0  0  0  0  0  0  0  0  0  0  0
  -25.2610  -13.8840   20.4460 C   0  0  0  0  0  0  0  0  0  0  0  0
  -24.2140  -13.1060   20.8570 C   0  0  0  0  0  0  0  0  0  0  0  0
  -24.6690  -11.7540   20.7720 C   0  0  0  0  0  0  0  0  0  0  0  0
  -26.2890  -13.0060   20.1380 N   0  0  0  0  0  0  0  0  0  0  0  0
  -25.9390  -11.7190   20.3920 N   0  0  0  0  0  0  0  0  0  0  0  0
  -23.9500  -10.4890   20.9740 C   0  0  0  0  0  0  0  0  0  0  0  0
  -24.4050   -9.5200   21.8950 C   0  0  0  0  0  3  0  0  0  0  0  0
  -23.6870   -8.3200   22.0850 C   0  0  0  0  0  3  0  0  0  0  0  0
  -22.4990   -8.0800   21.3550 C   0  0  0  0  0  0  0  0  0  0  0  0
  -22.0630   -9.0380   20.4230 C   0  0  0  0  0  3  0  0  0  0  0  0
  -22.7810  -10.2290   20.2300 C   0  0  0  0  0  3  0  0  0  0  0  0
  -21.7510   -6.9330   21.4550 O   0  0  0  0  0  0  0  0  0  0  0  0
  -21.6980   -6.2060   22.6190 C   0  0  0  0  0  0  0  0  0  0  0  0
  -21.2340   -6.7700   23.8270 C   0  0  0  0  0  3  0  0  0  0  0  0
  -21.1310   -5.9690   24.9830 C   0  0  0  0  0  3  0  0  0  0  0  0
  -21.4810   -4.6060   24.9300 C   0  0  0  0  0  0  0  0  0  0  0  0
  -21.9380   -4.0430   23.7260 C   0  0  0  0  0  3  0  0  0  0  0  0
  -22.0430   -4.8410   22.5720 C   0  0  0  0  0  0  0  0  0  0  0  0
  -22.4640   -4.2880   21.4090 F   0  0  0  0  0  0  0  0  0  0  0  0
  -21.3750   -3.8350   26.0370 F   0  0  0  0  0  0  0  0  0  0  0  0
  -22.8350  -13.5790   21.2180 C   0  0  0  0  0  0  0  0  0  0  0  0
  -22.1530  -12.8640   22.1050 N   0  0  0  0  0  0  0  0  0  0  0  0
  -22.3720  -14.6180   20.7470 O   0  0  0  0  0  0  0  0  0  0  0  0
  -22.5410  -12.0240   22.5080 H   0  0  0  0  0  0  0  0  0  0  0  0
  -21.2300  -13.1620   22.3890 H   0  0  0  0  0  0  0  0  0  0  0  0
  -25.4210  -15.2570   20.2890 N   0  0  0  0  0  0  0  0  0  0  0  0
  -24.6610  -15.9100   20.4520 H   0  0  0  0  0  0  0  0  0  0  0  0
  -26.2470  -15.7020   19.9080 H   0  0  0  0  0  0  0  0  0  0  0  0
  -28.2720  -25.3720   21.0070 C   0  0  0  0  0  2  0  0  0  0  0  0
  -28.4440  -26.5850   20.2180 O   0  0  0  0  0  0  0  0  0  0  0  0
  -24.6170  -31.8710   23.2140 C   0  0  0  0  0  0  0  0  0  0  0  0
  -27.3200  -27.3990   20.1830 C   0  0  0  0  0  0  0  0  0  0  0  0
  -23.4450  -30.4620   21.5550 C   0  0  0  0  0  3  0  0  0  0  0  0
  -24.9290  -28.9320   20.1470 C   0  0  0  0  0  0  0  0  0  0  0  0
  -25.9760  -30.8250   21.3960 C   0  0  0  0  0  2  0  0  0  0  0  0
  -26.0810  -29.4510   20.7540 C   0  0  0  0  0  0  0  0  0  0  0  0
  -27.2830  -28.6950   20.7650 C   0  0  0  0  0  3  0  0  0  0  0  0
  -26.1540  -26.9110   19.5570 C   0  0  0  0  0  3  0  0  0  0  0  0
  -24.9640  -27.6640   19.5400 C   0  0  0  0  0  3  0  0  0  0  0  0
  -23.6800  -29.7870   20.1780 C   0  0  0  0  0  2  0  0  0  0  0  0
  -24.6970  -31.0680   22.1130 N   0  0  0  0  0  0  0  0  0  0  0  0
  -23.5260  -32.1360   23.7380 O   0  0  0  0  0  0  0  0  0  0  0  0
  -22.7830  -29.4380   22.5070 C   0  0  0  0  0  0  0  0  0  0  0  0
  -21.4560  -29.2720   22.3840 N   0  0  0  0  0  0  0  0  0  0  0  0
  -23.4620  -28.7950   23.3120 O   0  0  0  0  0  0  0  0  0  0  0  0
  -20.9690  -29.8420   21.7050 H   0  0  0  0  0  0  0  0  0  0  0  0
  -18.0660  -28.1280   22.9050 C   0  0  0  0  0  0  0  0  0  0  0  0
  -20.6320  -28.3340   23.1460 C   0  0  0  0  0  3  0  0  0  0  0  0
  -20.7000  -26.9130   22.5390 C   0  0  0  0  0  2  0  0  0  0  0  0
  -19.5790  -26.6330   21.5340 C   0  0  0  0  0  2  0  0  0  0  0  0
  -18.2090  -26.7890   22.1990 C   0  0  0  0  0  2  0  0  0  0  0  0
  -19.2040  -28.8600   23.3350 C   0  0  0  0  0  0  0  0  0  0  0  0
  -19.0170  -30.1150   23.9540 C   0  0  0  0  0  3  0  0  0  0  0  0
  -17.7240  -30.6370   24.1480 C   0  0  0  0  0  3  0  0  0  0  0  0
  -16.6000  -29.9000   23.7340 C   0  0  0  0  0  3  0  0  0  0  0  0
  -16.7720  -28.6480   23.1180 C   0  0  0  0  0  3  0  0  0  0  0  0
  -25.8890  -32.5100   23.8520 C   0  0  0  0  0  3  0  0  0  0  0  0
  -25.5680  -33.9070   24.1750 N   0  0  0  0  0  0  0  0  0  0  0  0
  -25.9040  -34.9590   23.4190 C   0  0  0  0  0  0  0  0  0  0  0  0
  -26.5870  -34.8580   22.3960 O   0  0  0  0  0  0  0  0  0  0  0  0
  -24.9630  -34.0590   24.9690 H   0  0  0  0  0  0  0  0  0  0  0  0
  -24.1750  -36.7440   23.0330 C   0  0  0  0  0  1  0  0  0  0  0  0
  -25.4020  -36.3460   23.8670 C   0  0  0  0  0  3  0  0  0  0  0  0
  -27.5150  -37.2420   24.7400 C   0  0  0  0  0  1  0  0  0  0  0  0
  -26.4320  -37.4040   23.7730 N   0  0  0  0  0  0  0  0  0  0  0  0
  -26.0190  -38.3220   23.9090 H   0  0  0  0  0  0  0  0  0  0  0  0
  -26.3940  -31.7430   25.1350 C   0  0  1  0  0  0  0  0  0  0  0  0
  -25.2870  -31.4960   26.1880 C   0  0  0  0  0  1  0  0  0  0  0  0
  -26.9930  -30.3690   24.7500 C   0  0  0  0  0  1  0  0  0  0  0  0
  -27.5290  -32.5450   25.8140 C   0  0  0  0  0  1  0  0  0  0  0  0
  1  3  1  0
  1  5  1  0
  2  4  1  0
  3  6  1  0
  5  9  1  0
  5  2  1  0
  6 50  1  0
  6  4  1  0
  7 10  1  0
  7  8  2  0
  8 20  1  0
  8 11  1  0
  9 11  1  0
 10  9  2  0
 12 20  1  0
 13 18  1  0
 14 15  1  0
 14 13  1  0
 16 15  1  0
 16 25  1  0
 16 17  1  0
 18 12  1  0
 18 17  1  0
 19 12  2  0
 20 21  1  0
 22 23  2  0
 23 42  1  0
 24 23  1  0
 24 27  1  0
 25 26  1  0
 25 22  1  0
 26 24  2  0
 27 28  1  0
 28 29  2  0
 30 33  1  0
 30 29  1  0
 31 30  2  0
 32 31  1  0
 32 27  2  0
 33 34  1  0
 34 35  1  0
 35 36  2  0
 37 36  1  0
 37 41  1  0
 38 37  2  0
 39 34  2  0
 39 38  1  0
 40 39  1  0
 42 43  1  0
 43 46  1  0
 43 45  1  0
 44 42  2  0
 47 22  1  0
 47 48  1  0
 49 47  1  0
 51 50  1  0
 52 63  2  0
 53 51  1  0
 53 58  1  0
 54 62  1  0
 54 64  1  0
 55 61  1  0
 55 57  1  0
 56 62  1  0
 57 58  2  0
 57 56  1  0
 59 53  2  0
 60 59  1  0
 60 55  2  0
 61 54  1  0
 62 52  1  0
 64 66  2  0
 65 64  1  0
 67 65  1  0
 68 77  2  0
 68 73  1  0
 69 65  1  0
 69 73  1  0
 70 69  1  0
 71 72  1  0
 71 70  1  0
 72 68  1  0
 73 74  2  0
 74 75  1  0
 76 75  2  0
 77 76  1  0
 78 52  1  0
 78 79  1  0
 78 88  1  0
 79 82  1  0
 80 84  1  0
 80 79  1  0
 81 80  2  0
 84 83  1  0
 86 84  1  0
 86 87  1  0
 86 85  1  0
 88 91  1  1
 88 89  1  0
 90 88  1  0
M  ISO  4  12 100  20 100  50 101  51 101
M  END
>  <TORSDO>  (44) 
F 18

>  <SCORE>  (44) 
-14.366

>  <name>  (44) 
44

>  <ligand_id>  (44) 
44

>  <original_smiles>  (44) 
[H]c1nc(C2([H])C([H])([H])C([H])([H])C([H])(C([H])([H])Oc3c([H])c([H])c4c(c3[H])C([H])([H])N(C(=O)C([H])(N([H])C(=O)C([H])(N([H])C([H])([H])[H])C([H])([H])[H])C(C([H])([H])[H])(C([H])([H])[H])C([H])([H])[H])C([H])(C(=O)N([H])C3([H])c5c([H])c([H])c([H])c([H])c5C([H])([H])C([H])([H])C3([H])[H])C4([H])[H])C([H])([H])C2([H])[H])sc1N([H])C(=O)N1C([H])([H])C([H])([H])C([H])([H])C([H])(n2nc(-c3c([H])c([H])c(Oc4c([H])c([H])c(F)c([H])c4F)c([H])c3[H])c(C(=O)N([H])[H])c2N([H])[H])C1([H])[H]

>  <smiles>  (44) 
[H]c1nc(C2([H])C([H])([H])C([H])([H])C([H])(C([H])([H])Oc3c([H])c([H])c4c(c3[H])C([H])([H])N(C(=O)C([H])(N([H])C(=O)C([H])(N([H])C([H])([H])[H])C([H])([H])[H])C(C([H])([H])[H])(C([H])([H])[H])C([H])([H])[H])C([H])(C(=O)N([H])C3([H])c5c([H])c([H])c([H])c([H])c5C([H])([H])C([H])([H])C3([H])[H])C4([H])[H])C([H])([H])C2([H])[H])sc1N([H])C(=O)N1C([H])([H])C([H])([H])C([H])([H])C([H])(n2nc(-c3c([H])c([H])c(Oc4c([H])c([H])c(F)c([H])c4F)c([H])c3[H])c(C(=O)N([H])[H])c2N([H])[H])C1([H])[H]

$$$$
45:0:0
     RDKit          3D

 94102  0  0  1  0  0  0  0  0999 V2000
  -30.2020  -18.5200   20.1020 C   0  0  0  0  0  3  0  0  0  0  0  0
  -30.7980  -20.4630   22.0370 C   0  0  0  0  0  3  0  0  0  0  0  0
  -30.6210  -18.0940   21.3880 C   0  0  0  0  0  0  0  0  0  0  0  0
  -30.8940  -19.0910   22.3650 C   0  0  0  0  0  0  0  0  0  0  0  0
  -30.1050  -19.9020   19.7820 C   0  0  0  0  0  0  0  0  0  0  0  0
  -30.4250  -20.8880   20.7500 C   0  0  0  0  0  0  0  0  0  0  0  0
  -31.3210  -18.7230   23.7780 C   0  0  0  0  0  1  0  0  0  0  0  0
  -29.7510  -20.2980   18.4940 N   0  0  0  0  0  0  0  0  0  0  0  0
  -29.8260  -19.6230   17.7420 H   0  0  0  0  0  0  0  0  0  0  0  0
  -30.0650  -21.2230   18.2180 H   0  0  0  0  0  0  0  0  0  0  0  0
  -30.8800  -16.6100   21.7380 C   0  0  0  0  0  2  0  0  0  0  0  0
  -30.8440  -14.5550   20.3030 C   0  0  0  0  0  0  0  0  0  0  0  0
  -30.4990  -12.4150   19.1070 C   0  0  0  0  0  2  0  0  0  0  0  0
  -29.5370  -12.6160   17.9200 C   0  0  0  0  0  2  0  0  0  0  0  0
  -28.0680  -12.4890   18.3720 C   0  0  0  0  0  2  0  0  0  0  0  0
  -27.7580  -13.3310   19.6390 C   0  0  0  0  0  3  0  0  0  0  0  0
  -28.8260  -13.0960   20.7300 C   0  0  0  0  0  2  0  0  0  0  0  0
  -30.1390  -13.4000   20.1380 N   0  0  0  0  0  0  0  0  0  0  0  0
  -31.9640  -14.7280   19.8180 O   0  0  0  0  0  0  0  0  0  0  0  0
  -30.2170  -15.5330   20.9860 N   0  0  0  0  0  0  0  0  0  0  0  0
  -29.2680  -15.3300   21.2600 H   0  0  0  0  0  0  0  0  0  0  0  0
  -25.3770  -13.9670   20.3820 C   0  0  0  0  0  0  0  0  0  0  0  0
  -24.3040  -13.2090   20.7640 C   0  0  0  0  0  0  0  0  0  0  0  0
  -24.7480  -11.8510   20.7270 C   0  0  0  0  0  0  0  0  0  0  0  0
  -26.4080  -13.0740   20.1390 N   0  0  0  0  0  0  0  0  0  0  0  0
  -26.0340  -11.7950   20.4030 N   0  0  0  0  0  0  0  0  0  0  0  0
  -24.0080  -10.5980   20.9250 C   0  0  0  0  0  0  0  0  0  0  0  0
  -24.4210   -9.6380   21.8750 C   0  0  0  0  0  3  0  0  0  0  0  0
  -23.6830   -8.4490   22.0590 C   0  0  0  0  0  3  0  0  0  0  0  0
  -22.5160   -8.2130   21.2930 C   0  0  0  0  0  0  0  0  0  0  0  0
  -22.1220   -9.1610   20.3330 C   0  0  0  0  0  3  0  0  0  0  0  0
  -22.8610  -10.3410   20.1470 C   0  0  0  0  0  3  0  0  0  0  0  0
  -21.7500   -7.0760   21.3860 O   0  0  0  0  0  0  0  0  0  0  0  0
  -21.6550   -6.3650   22.5560 C   0  0  0  0  0  0  0  0  0  0  0  0
  -21.1500   -6.9450   23.7400 C   0  0  0  0  0  3  0  0  0  0  0  0
  -21.0040   -6.1600   24.9010 C   0  0  0  0  0  3  0  0  0  0  0  0
  -21.3520   -4.7970   24.8780 C   0  0  0  0  0  0  0  0  0  0  0  0
  -21.8510   -4.2170   23.6980 C   0  0  0  0  0  3  0  0  0  0  0  0
  -21.9980   -4.9980   22.5400 C   0  0  0  0  0  0  0  0  0  0  0  0
  -22.4590   -4.4300   21.4000 F   0  0  0  0  0  0  0  0  0  0  0  0
  -21.2050   -4.0400   25.9910 F   0  0  0  0  0  0  0  0  0  0  0  0
  -22.9160  -13.7030   21.0550 C   0  0  0  0  0  0  0  0  0  0  0  0
  -22.1910  -13.0150   21.9300 N   0  0  0  0  0  0  0  0  0  0  0  0
  -22.4840  -14.7340   20.5400 O   0  0  0  0  0  0  0  0  0  0  0  0
  -22.5540  -12.1820   22.3670 H   0  0  0  0  0  0  0  0  0  0  0  0
  -21.2600  -13.3280   22.1670 H   0  0  0  0  0  0  0  0  0  0  0  0
  -25.5570  -15.3350   20.2020 N   0  0  0  0  0  0  0  0  0  0  0  0
  -24.8000  -16.0000   20.3200 H   0  0  0  0  0  0  0  0  0  0  0  0
  -26.4080  -15.7620   19.8570 H   0  0  0  0  0  0  0  0  0  0  0  0
  -30.5140  -22.2400   20.4570 O   0  0  0  0  0  0  0  0  0  0  0  0
  -29.3000  -22.9560   20.2150 C   0  0  0  0  0  2  0  0  0  0  0  0
  -29.5380  -24.4880   20.3300 C   0  0  0  0  0  2  0  0  0  0  0  0
  -28.2950  -25.3280   19.9510 C   0  0  0  0  0  2  0  0  0  0  0  0
  -28.4050  -26.7350   20.2570 O   0  0  0  0  0  0  0  0  0  0  0  0
  -24.5630  -31.9130   23.3260 C   0  0  0  0  0  0  0  0  0  0  0  0
  -27.2340  -27.4800   20.2250 C   0  0  0  0  0  0  0  0  0  0  0  0
  -23.3740  -30.5270   21.6610 C   0  0  0  0  0  3  0  0  0  0  0  0
  -24.8400  -29.0050   20.2320 C   0  0  0  0  0  0  0  0  0  0  0  0
  -25.9060  -30.8800   21.4950 C   0  0  0  0  0  2  0  0  0  0  0  0
  -25.9950  -29.5150   20.8370 C   0  0  0  0  0  0  0  0  0  0  0  0
  -27.1940  -28.7620   20.8290 C   0  0  0  0  0  3  0  0  0  0  0  0
  -26.0540  -26.9960   19.6090 C   0  0  0  0  0  3  0  0  0  0  0  0
  -24.8650  -27.7460   19.6140 C   0  0  0  0  0  3  0  0  0  0  0  0
  -23.5960  -29.8630   20.2760 C   0  0  0  0  0  2  0  0  0  0  0  0
  -24.6320  -31.1210   22.2190 N   0  0  0  0  0  0  0  0  0  0  0  0
  -23.4780  -32.1830   23.8580 O   0  0  0  0  0  0  0  0  0  0  0  0
  -22.7120  -29.4970   22.6040 C   0  0  0  0  0  0  0  0  0  0  0  0
  -21.3940  -29.2970   22.4430 N   0  0  0  0  0  0  0  0  0  0  0  0
  -23.3810  -28.8810   23.4360 O   0  0  0  0  0  0  0  0  0  0  0  0
  -20.9140  -29.8430   21.7420 H   0  0  0  0  0  0  0  0  0  0  0  0
  -18.0260  -28.0560   22.8530 C   0  0  0  0  0  0  0  0  0  0  0  0
  -20.5710  -28.3490   23.1940 C   0  0  0  0  0  3  0  0  0  0  0  0
  -20.7110  -26.9190   22.6230 C   0  0  0  0  0  2  0  0  0  0  0  0
  -19.6410  -26.5810   21.5800 C   0  0  0  0  0  2  0  0  0  0  0  0
  -18.2390  -26.7070   22.1870 C   0  0  0  0  0  2  0  0  0  0  0  0
  -19.1220  -28.8330   23.3130 C   0  0  0  0  0  0  0  0  0  0  0  0
  -18.8710  -30.0940   23.8940 C   0  0  0  0  0  3  0  0  0  0  0  0
  -17.5570  -30.5780   24.0270 C   0  0  0  0  0  3  0  0  0  0  0  0
  -16.4730  -29.7980   23.5870 C   0  0  0  0  0  3  0  0  0  0  0  0
  -16.7090  -28.5390   23.0050 C   0  0  0  0  0  3  0  0  0  0  0  0
  -25.8430  -32.5370   23.9630 C   0  0  0  0  0  3  0  0  0  0  0  0
  -25.5500  -33.9470   24.2520 N   0  0  0  0  0  0  0  0  0  0  0  0
  -25.9020  -34.9740   23.4670 C   0  0  0  0  0  0  0  0  0  0  0  0
  -26.5780  -34.8340   22.4440 O   0  0  0  0  0  0  0  0  0  0  0  0
  -24.9470  -34.1300   25.0410 H   0  0  0  0  0  0  0  0  0  0  0  0
  -24.1980  -36.7760   23.0490 C   0  0  0  0  0  1  0  0  0  0  0  0
  -25.4280  -36.3800   23.8810 C   0  0  0  0  0  3  0  0  0  0  0  0
  -27.5600  -37.2700   24.7090 C   0  0  0  0  0  1  0  0  0  0  0  0
  -26.4730  -37.4170   23.7460 N   0  0  0  0  0  0  0  0  0  0  0  0
  -26.0760  -38.3460   23.8570 H   0  0  0  0  0  0  0  0  0  0  0  0
  -26.3180  -31.7880   25.2680 C   0  0  1  0  0  0  0  0  0  0  0  0
  -25.1930  -31.5870   26.3120 C   0  0  0  0  0  1  0  0  0  0  0  0
  -26.8910  -30.3940   24.9200 C   0  0  0  0  0  1  0  0  0  0  0  0
  -27.4590  -32.5820   25.9430 C   0  0  0  0  0  1  0  0  0  0  0  0
  1  3  1  0
  2  4  1  0
  3 11  1  0
  3  4  2  0
  4  7  1  0
  5  1  2  0
  5  6  1  0
  6  2  2  0
  8  5  1  0
  9  8  1  0
 10  8  1  0
 12 20  1  0
 13 18  1  0
 14 15  1  0
 14 13  1  0
 16 15  1  0
 16 25  1  0
 16 17  1  0
 18 12  1  0
 18 17  1  0
 19 12  2  0
 20 21  1  0
 20 11  1  0
 22 23  2  0
 23 42  1  0
 24 23  1  0
 24 27  1  0
 25 22  1  0
 25 26  1  0
 26 24  2  0
 27 28  1  0
 28 29  2  0
 30 33  1  0
 30 29  1  0
 31 30  2  0
 32 31  1  0
 32 27  2  0
 33 34  1  0
 34 35  1  0
 35 36  2  0
 37 36  1  0
 37 41  1  0
 38 37  2  0
 39 34  2  0
 39 38  1  0
 40 39  1  0
 42 43  1  0
 43 46  1  0
 43 45  1  0
 44 42  2  0
 47 48  1  0
 47 22  1  0
 49 47  1  0
 50  6  1  0
 51 52  1  0
 51 50  1  0
 53 54  1  0
 53 52  1  0
 55 66  2  0
 56 54  1  0
 56 61  1  0
 57 65  1  0
 57 67  1  0
 58 64  1  0
 58 60  1  0
 59 65  1  0
 60 59  1  0
 61 60  2  0
 62 63  1  0
 62 56  2  0
 63 58  2  0
 64 57  1  0
 65 55  1  0
 67 69  2  0
 68 67  1  0
 70 68  1  0
 71 80  2  0
 71 76  1  0
 72 68  1  0
 72 76  1  0
 73 72  1  0
 74 75  1  0
 74 73  1  0
 75 71  1  0
 76 77  2  0
 77 78  1  0
 79 78  2  0
 80 79  1  0
 81 55  1  0
 81 82  1  0
 81 91  1  0
 82 85  1  0
 83 87  1  0
 83 82  1  0
 84 83  2  0
 87 86  1  0
 89 90  1  0
 89 87  1  0
 89 88  1  0
 91 94  1  1
 91 92  1  0
 93 91  1  0
M  ISO  4  12 100  20 100  53 101  54 101
M  END
>  <TORSDO>  (45) 
F 22

>  <SCORE>  (45) 
-12.940

>  <name>  (45) 
45

>  <ligand_id>  (45) 
45

>  <original_smiles>  (45) 
[H]c1c([H])c([H])c2c(c1[H])C([H])([H])C([H])([H])C([H])([H])C2([H])N([H])C(=O)C1([H])N(C(=O)C([H])(N([H])C(=O)C([H])(N([H])C([H])([H])[H])C([H])([H])[H])C(C([H])([H])[H])(C([H])([H])[H])C([H])([H])[H])C([H])([H])c2c([H])c(OC([H])([H])C([H])([H])C([H])([H])Oc3c([H])c(C([H])([H])[H])c(C([H])([H])N([H])C(=O)N4C([H])([H])C([H])([H])C([H])([H])C([H])(n5nc(-c6c([H])c([H])c(Oc7c([H])c([H])c(F)c([H])c7F)c([H])c6[H])c(C(=O)N([H])[H])c5N([H])[H])C4([H])[H])c([H])c3N([H])[H])c([H])c([H])c2C1([H])[H]

>  <smiles>  (45) 
[H]c1c([H])c([H])c2c(c1[H])C([H])([H])C([H])([H])C([H])([H])C2([H])N([H])C(=O)C1([H])N(C(=O)C([H])(N([H])C(=O)C([H])(N([H])C([H])([H])[H])C([H])([H])[H])C(C([H])([H])[H])(C([H])([H])[H])C([H])([H])[H])C([H])([H])c2c([H])c(OC([H])([H])C([H])([H])C([H])([H])Oc3c([H])c(C([H])([H])[H])c(C([H])([H])N([H])C(=O)N4C([H])([H])C([H])([H])C([H])([H])C([H])(n5nc(-c6c([H])c([H])c(Oc7c([H])c([H])c(F)c([H])c7F)c([H])c6[H])c(C(=O)N([H])[H])c5N([H])[H])C4([H])[H])c([H])c3N([H])[H])c([H])c([H])c2C1([H])[H]

$$$$
46:0:0
     RDKit          3D

 95104  0  0  1  0  0  0  0  0999 V2000
  -28.7240  -19.6290   20.4070 C   0  0  0  0  0  3  0  0  0  0  0  0
  -31.1130  -18.1700   20.5590 C   0  0  0  0  0  3  0  0  0  0  0  0
  -28.7330  -18.1960   20.3500 C   0  0  0  0  0  0  0  0  0  0  0  0
  -29.8980  -20.3960   20.5870 C   0  0  0  0  0  0  0  0  0  0  0  0
  -29.9210  -17.3970   20.4240 C   0  0  0  0  0  0  0  0  0  0  0  0
  -31.0970  -19.6100   20.6590 C   0  0  0  0  0  0  0  0  0  0  0  0
  -27.3970  -17.5130   20.2260 C   0  0  0  0  0  1  0  0  0  0  0  0
  -30.6140  -14.8290   20.0760 C   0  0  0  0  0  0  0  0  0  0  0  0
  -30.3660  -12.5890   18.9750 C   0  0  0  0  0  2  0  0  0  0  0  0
  -29.3520  -12.7040   17.8140 C   0  0  0  0  0  2  0  0  0  0  0  0
  -27.9080  -12.5110   18.3210 C   0  0  0  0  0  2  0  0  0  0  0  0
  -27.6050  -13.3470   19.5930 C   0  0  0  0  0  3  0  0  0  0  0  0
  -28.7320  -13.2080   20.6430 C   0  0  0  0  0  2  0  0  0  0  0  0
  -29.9970  -13.5960   19.9960 N   0  0  0  0  0  0  0  0  0  0  0  0
  -31.7730  -14.9670   19.6730 O   0  0  0  0  0  0  0  0  0  0  0  0
  -29.8110  -15.9040   20.4270 N   0  0  0  0  0  0  0  0  0  0  0  0
  -28.8860  -15.5830   20.6620 H   0  0  0  0  0  0  0  0  0  0  0  0
  -25.2430  -13.8960   20.4470 C   0  0  0  0  0  0  0  0  0  0  0  0
  -24.2090  -13.1130   20.8690 C   0  0  0  0  0  0  0  0  0  0  0  0
  -24.6800  -11.7690   20.7860 C   0  0  0  0  0  0  0  0  0  0  0  0
  -26.2880  -13.0370   20.1470 N   0  0  0  0  0  0  0  0  0  0  0  0
  -25.9550  -11.7470   20.4090 N   0  0  0  0  0  0  0  0  0  0  0  0
  -23.9680  -10.5020   20.9820 C   0  0  0  0  0  0  0  0  0  0  0  0
  -24.4290   -9.5320   21.8990 C   0  0  0  0  0  3  0  0  0  0  0  0
  -23.7130   -8.3310   22.0850 C   0  0  0  0  0  3  0  0  0  0  0  0
  -22.5240   -8.0920   21.3570 C   0  0  0  0  0  0  0  0  0  0  0  0
  -22.0830   -9.0520   20.4290 C   0  0  0  0  0  3  0  0  0  0  0  0
  -22.7990  -10.2450   20.2390 C   0  0  0  0  0  3  0  0  0  0  0  0
  -21.7780   -6.9430   21.4560 O   0  0  0  0  0  0  0  0  0  0  0  0
  -21.7360   -6.2110   22.6160 C   0  0  0  0  0  0  0  0  0  0  0  0
  -21.2720   -6.7650   23.8280 C   0  0  0  0  0  3  0  0  0  0  0  0
  -21.1780   -5.9580   24.9810 C   0  0  0  0  0  3  0  0  0  0  0  0
  -21.5390   -4.6000   24.9200 C   0  0  0  0  0  0  0  0  0  0  0  0
  -21.9970   -4.0450   23.7110 C   0  0  0  0  0  3  0  0  0  0  0  0
  -22.0920   -4.8490   22.5610 C   0  0  0  0  0  0  0  0  0  0  0  0
  -22.5130   -4.3050   21.3940 F   0  0  0  0  0  0  0  0  0  0  0  0
  -21.4430   -3.8220   26.0230 F   0  0  0  0  0  0  0  0  0  0  0  0
  -22.8270  -13.5820   21.2220 C   0  0  0  0  0  0  0  0  0  0  0  0
  -22.1450  -12.8670   22.1090 N   0  0  0  0  0  0  0  0  0  0  0  0
  -22.3630  -14.6200   20.7500 O   0  0  0  0  0  0  0  0  0  0  0  0
  -22.5340  -12.0280   22.5140 H   0  0  0  0  0  0  0  0  0  0  0  0
  -21.2200  -13.1640   22.3880 H   0  0  0  0  0  0  0  0  0  0  0  0
  -25.3550  -15.2630   20.2640 N   0  0  0  0  0  0  0  0  0  0  0  0
  -24.5530  -15.8730   20.3780 H   0  0  0  0  0  0  0  0  0  0  0  0
  -26.1140  -15.6950   19.7570 H   0  0  0  0  0  0  0  0  0  0  0  0
  -28.7720  -24.0550   21.1710 C   0  0  0  0  0  0  0  0  0  0  0  0
  -28.4410  -25.4100   21.1850 C   0  0  0  0  0  3  0  0  0  0  0  0
  -28.7630  -23.2680   22.4620 C   0  0  0  0  0  2  0  0  0  0  0  0
  -29.2380  -22.9800   20.1300 C   0  0  0  0  0  2  0  0  0  0  0  0
  -29.7760  -22.1200   22.2910 C   0  0  0  0  0  2  0  0  0  0  0  0
  -29.8860  -21.8270   20.8640 N   0  0  0  0  0  0  0  0  0  0  0  0
  -28.4320  -26.4550   20.2370 O   0  0  0  0  0  0  0  0  0  0  0  0
  -24.6150  -31.8850   23.2510 C   0  0  0  0  0  0  0  0  0  0  0  0
  -27.3390  -27.3440   20.2410 C   0  0  0  0  0  0  0  0  0  0  0  0
  -23.4580  -30.4780   21.5840 C   0  0  0  0  0  3  0  0  0  0  0  0
  -24.9560  -28.9400   20.1860 C   0  0  0  0  0  0  0  0  0  0  0  0
  -25.9970  -30.8190   21.4520 C   0  0  0  0  0  2  0  0  0  0  0  0
  -26.1090  -29.4380   20.8080 C   0  0  0  0  0  0  0  0  0  0  0  0
  -27.3060  -28.6520   20.8280 C   0  0  0  0  0  3  0  0  0  0  0  0
  -26.1630  -26.9010   19.6010 C   0  0  0  0  0  3  0  0  0  0  0  0
  -24.9860  -27.6760   19.5730 C   0  0  0  0  0  3  0  0  0  0  0  0
  -23.7080  -29.8030   20.2090 C   0  0  0  0  0  2  0  0  0  0  0  0
  -24.7070  -31.0790   22.1530 N   0  0  0  0  0  0  0  0  0  0  0  0
  -23.5190  -32.1520   23.7650 O   0  0  0  0  0  0  0  0  0  0  0  0
  -22.7840  -29.4560   22.5320 C   0  0  0  0  0  0  0  0  0  0  0  0
  -21.4580  -29.2820   22.3940 N   0  0  0  0  0  0  0  0  0  0  0  0
  -23.4550  -28.8220   23.3500 O   0  0  0  0  0  0  0  0  0  0  0  0
  -20.9760  -29.8460   21.7070 H   0  0  0  0  0  0  0  0  0  0  0  0
  -18.0680  -28.1210   22.8970 C   0  0  0  0  0  0  0  0  0  0  0  0
  -20.6330  -28.3390   23.1510 C   0  0  0  0  0  3  0  0  0  0  0  0
  -20.7100  -26.9200   22.5420 C   0  0  0  0  0  2  0  0  0  0  0  0
  -19.5960  -26.6360   21.5300 C   0  0  0  0  0  2  0  0  0  0  0  0
  -18.2210  -26.7850   22.1890 C   0  0  0  0  0  2  0  0  0  0  0  0
  -19.2010  -28.8580   23.3350 C   0  0  0  0  0  0  0  0  0  0  0  0
  -19.0040  -30.1090   23.9580 C   0  0  0  0  0  3  0  0  0  0  0  0
  -17.7070  -30.6220   24.1480 C   0  0  0  0  0  3  0  0  0  0  0  0
  -16.5890  -29.8820   23.7250 C   0  0  0  0  0  3  0  0  0  0  0  0
  -16.7710  -28.6330   23.1060 C   0  0  0  0  0  3  0  0  0  0  0  0
  -25.8790  -32.5300   23.8990 C   0  0  0  0  0  3  0  0  0  0  0  0
  -25.5550  -33.9290   24.2110 N   0  0  0  0  0  0  0  0  0  0  0  0
  -25.9010  -34.9790   23.4540 C   0  0  0  0  0  0  0  0  0  0  0  0
  -26.5940  -34.8720   22.4390 O   0  0  0  0  0  0  0  0  0  0  0  0
  -24.9430  -34.0850   24.9980 H   0  0  0  0  0  0  0  0  0  0  0  0
  -24.1820  -36.7700   23.0420 C   0  0  0  0  0  1  0  0  0  0  0  0
  -25.3980  -36.3690   23.8930 C   0  0  0  0  0  3  0  0  0  0  0  0
  -27.5020  -37.2620   24.7910 C   0  0  0  0  0  1  0  0  0  0  0  0
  -26.4330  -37.4230   23.8090 N   0  0  0  0  0  0  0  0  0  0  0  0
  -26.0210  -38.3430   23.9370 H   0  0  0  0  0  0  0  0  0  0  0  0
  -26.3690  -31.7710   25.1930 C   0  0  1  0  0  0  0  0  0  0  0  0
  -25.2500  -31.5340   26.2350 C   0  0  0  0  0  1  0  0  0  0  0  0
  -26.9710  -30.3940   24.8280 C   0  0  0  0  0  1  0  0  0  0  0  0
  -27.4960  -32.5780   25.8790 C   0  0  0  0  0  1  0  0  0  0  0  0
  -32.2990  -20.2880   20.8630 N   0  0  0  0  0  0  0  0  0  0  0  0
  -33.1360  -19.8960   20.4460 H   0  0  0  0  0  0  0  0  0  0  0  0
  -32.2170  -21.2910   20.7180 H   0  0  0  0  0  0  0  0  0  0  0  0
  1  4  1  0
  2  6  1  0
  3  1  2  0
  3  5  1  0
  4  6  2  0
  4 51  1  0
  5 16  1  0
  5  2  2  0
  6 93  1  0
  7  3  1  0
  8 16  1  0
  9 14  1  0
 10 11  1  0
 10  9  1  0
 12 11  1  0
 12 21  1  0
 12 13  1  0
 14  8  1  0
 14 13  1  0
 15  8  2  0
 16 17  1  0
 18 19  2  0
 19 38  1  0
 20 19  1  0
 20 23  1  0
 21 22  1  0
 21 18  1  0
 22 20  2  0
 23 24  1  0
 24 25  2  0
 26 29  1  0
 26 25  1  0
 27 26  2  0
 28 27  1  0
 28 23  2  0
 29 30  1  0
 30 31  1  0
 31 32  2  0
 33 32  1  0
 33 37  1  0
 34 33  2  0
 35 30  2  0
 35 34  1  0
 36 35  1  0
 38 39  1  0
 39 42  1  0
 39 41  1  0
 40 38  2  0
 43 44  1  0
 43 18  1  0
 45 43  1  0
 46 47  2  0
 46 48  1  0
 49 51  1  0
 49 46  1  0
 50 48  1  0
 51 50  1  0
 52 54  1  0
 52 47  1  0
 53 64  2  0
 54 59  1  0
 55 63  1  0
 55 65  1  0
 56 62  1  0
 56 58  1  0
 57 63  1  0
 58 59  2  0
 58 57  1  0
 60 54  2  0
 61 60  1  0
 61 56  2  0
 62 55  1  0
 63 53  1  0
 65 67  2  0
 66 65  1  0
 68 66  1  0
 69 78  2  0
 69 74  1  0
 70 66  1  0
 70 74  1  0
 71 70  1  0
 72 73  1  0
 72 71  1  0
 73 69  1  0
 74 75  2  0
 75 76  1  0
 77 76  2  0
 78 77  1  0
 79 53  1  0
 79 80  1  0
 79 89  1  0
 80 83  1  0
 81 85  1  0
 81 80  1  0
 82 81  2  0
 85 84  1  0
 87 85  1  0
 87 88  1  0
 87 86  1  0
 89 92  1  1
 89 90  1  0
 91 89  1  0
 94 93  1  0
 95 93  1  0
M  ISO  4   8 100  16 100  47 101  52 101
M  END
>  <TORSDO>  (46) 
F 18

>  <SCORE>  (46) 
-15.233

>  <name>  (46) 
46

>  <ligand_id>  (46) 
46

>  <original_smiles>  (46) 
[H]C(Oc1c([H])c([H])c2c(c1[H])C([H])([H])N(C(=O)C([H])(N([H])C(=O)C([H])(N([H])C([H])([H])[H])C([H])([H])[H])C(C([H])([H])[H])(C([H])([H])[H])C([H])([H])[H])C([H])(C(=O)N([H])C1([H])c3c([H])c([H])c([H])c([H])c3C([H])([H])C([H])([H])C1([H])[H])C2([H])[H])=C1C([H])([H])N(c2c([H])c(C([H])([H])[H])c(N([H])C(=O)N3C([H])([H])C([H])([H])C([H])([H])C([H])(n4nc(-c5c([H])c([H])c(Oc6c([H])c([H])c(F)c([H])c6F)c([H])c5[H])c(C(=O)N([H])[H])c4N([H])[H])C3([H])[H])c([H])c2N([H])[H])C([H])([H])C1([H])[H]

>  <smiles>  (46) 
[H]C(Oc1c([H])c([H])c2c(c1[H])C([H])([H])N(C(=O)C([H])(N([H])C(=O)C([H])(N([H])C([H])([H])[H])C([H])([H])[H])C(C([H])([H])[H])(C([H])([H])[H])C([H])([H])[H])C([H])(C(=O)N([H])C1([H])c3c([H])c([H])c([H])c([H])c3C([H])([H])C([H])([H])C1([H])[H])C2([H])[H])=C1C([H])([H])N(c2c([H])c(C([H])([H])[H])c(N([H])C(=O)N3C([H])([H])C([H])([H])C([H])([H])C([H])(n4nc(-c5c([H])c([H])c(Oc6c([H])c([H])c(F)c([H])c6F)c([H])c5[H])c(C(=O)N([H])[H])c4N([H])[H])C3([H])[H])c([H])c2N([H])[H])C([H])([H])C1([H])[H]

$$$$
47:0:0
     RDKit          3D

101109  0  0  1  0  0  0  0  0999 V2000
  -29.0710  -22.6430   20.6870 C   0  0  0  0  0  3  0  0  0  0  0  0
  -27.4320  -21.3850   18.8090 C   0  0  0  0  0  3  0  0  0  0  0  0
  -29.3370  -21.2920   20.3370 C   0  0  0  0  0  0  0  0  0  0  0  0
  -28.0040  -23.3690   20.0980 C   0  0  0  0  0  0  0  0  0  0  0  0
  -27.1760  -22.7130   19.1630 C   0  0  0  0  0  0  0  0  0  0  0  0
  -28.5190  -20.6650   19.3610 C   0  0  0  0  0  0  0  0  0  0  0  0
  -26.0750  -23.3330   18.5790 N   0  0  0  0  0  0  0  0  0  0  0  0
  -25.4180  -22.7400   18.0800 H   0  0  0  0  0  0  0  0  0  0  0  0
  -25.6090  -24.0510   19.1180 H   0  0  0  0  0  0  0  0  0  0  0  0
  -30.4040  -20.5220   21.0430 C   0  0  0  0  0  0  0  0  0  0  0  0
  -30.5260  -20.8760   22.5240 C   0  0  0  0  0  1  0  0  0  0  0  0
  -31.0930  -19.6030   20.4670 N   0  0  0  0  0  0  0  0  0  0  0  0
  -32.0850  -18.8020   21.1870 C   0  0  0  0  0  3  0  0  0  0  0  0
  -31.9910  -16.2420   20.7520 C   0  0  0  0  0  3  0  0  0  0  0  0
  -32.3530  -17.5100   20.3980 C   0  0  0  0  0  0  0  0  0  0  0  0
  -32.3790  -15.0710   19.9470 C   0  0  0  0  0  0  0  0  0  0  0  0
  -31.8800  -12.8240   19.0490 C   0  0  0  0  0  2  0  0  0  0  0  0
  -30.9250  -12.9020   17.8420 C   0  0  0  0  0  2  0  0  0  0  0  0
  -29.4610  -12.8680   18.3130 C   0  0  0  0  0  2  0  0  0  0  0  0
  -29.1840  -13.8720   19.4590 C   0  0  0  0  0  3  0  0  0  0  0  0
  -30.2590  -13.7910   20.5680 C   0  0  0  0  0  2  0  0  0  0  0  0
  -31.5870  -13.9560   19.9510 N   0  0  0  0  0  0  0  0  0  0  0  0
  -33.4080  -15.1030   19.2640 O   0  0  0  0  0  0  0  0  0  0  0  0
  -26.9080  -14.6560   20.3590 C   0  0  0  0  0  0  0  0  0  0  0  0
  -25.7790  -13.9810   20.7320 C   0  0  0  0  0  0  0  0  0  0  0  0
  -26.0910  -12.5980   20.5830 C   0  0  0  0  0  0  0  0  0  0  0  0
  -27.8380  -13.6960   20.0000 N   0  0  0  0  0  0  0  0  0  0  0  0
  -27.3510  -12.4430   20.1920 N   0  0  0  0  0  0  0  0  0  0  0  0
  -25.2440  -11.4110   20.7390 C   0  0  0  0  0  0  0  0  0  0  0  0
  -25.5320  -10.4230   21.7040 C   0  0  0  0  0  3  0  0  0  0  0  0
  -24.6920   -9.2980   21.8470 C   0  0  0  0  0  3  0  0  0  0  0  0
  -23.5500   -9.1570   21.0230 C   0  0  0  0  0  0  0  0  0  0  0  0
  -23.2810  -10.1340   20.0470 C   0  0  0  0  0  3  0  0  0  0  0  0
  -24.1210  -11.2500   19.9030 C   0  0  0  0  0  3  0  0  0  0  0  0
  -22.6930   -8.0850   21.0720 O   0  0  0  0  0  0  0  0  0  0  0  0
  -22.3760   -7.4720   22.2560 C   0  0  0  0  0  0  0  0  0  0  0  0
  -21.7680   -8.1750   23.3200 C   0  0  0  0  0  3  0  0  0  0  0  0
  -21.3960   -7.4910   24.4950 C   0  0  0  0  0  3  0  0  0  0  0  0
  -21.6210   -6.1060   24.6060 C   0  0  0  0  0  0  0  0  0  0  0  0
  -22.2230   -5.4040   23.5450 C   0  0  0  0  0  3  0  0  0  0  0  0
  -22.5970   -6.0850   22.3740 C   0  0  0  0  0  0  0  0  0  0  0  0
  -23.1570   -5.4000   21.3470 F   0  0  0  0  0  0  0  0  0  0  0  0
  -21.2580   -5.4460   25.7300 F   0  0  0  0  0  0  0  0  0  0  0  0
  -24.4630  -14.5890   21.1230 C   0  0  0  0  0  0  0  0  0  0  0  0
  -23.7240  -13.9290   22.0080 N   0  0  0  0  0  0  0  0  0  0  0  0
  -24.1030  -15.6780   20.6780 O   0  0  0  0  0  0  0  0  0  0  0  0
  -24.0280  -13.0450   22.3850 H   0  0  0  0  0  0  0  0  0  0  0  0
  -22.8430  -14.3160   22.3160 H   0  0  0  0  0  0  0  0  0  0  0  0
  -27.2170  -15.9990   20.2860 N   0  0  0  0  0  0  0  0  0  0  0  0
  -26.5550  -16.7240   20.5340 H   0  0  0  0  0  0  0  0  0  0  0  0
  -28.1250  -16.3560   20.0110 H   0  0  0  0  0  0  0  0  0  0  0  0
  -33.0360  -17.8100   19.2770 O   0  0  0  0  0  0  0  0  0  0  0  0
  -33.2690  -16.9830   18.8650 H   0  0  0  0  0  0  0  0  0  0  0  0
  -34.4130  -19.0180   22.3350 C   0  0  0  0  0  1  0  0  0  0  0  0
  -33.3860  -19.6410   21.3770 C   0  0  0  0  0  2  0  0  0  0  0  0
  -28.7880  -19.3590   19.0000 O   0  0  0  0  0  0  0  0  0  0  0  0
  -28.9150  -19.4880   16.5400 C   0  0  0  0  0  1  0  0  0  0  0  0
  -28.2540  -18.8620   17.7770 C   0  0  0  0  0  2  0  0  0  0  0  0
  -27.7160  -24.8160   20.4980 C   0  0  0  0  0  2  0  0  0  0  0  0
  -28.5080  -25.8600   19.6700 C   0  0  0  0  0  2  0  0  0  0  0  0
  -28.4870  -27.1720   20.2630 O   0  0  0  0  0  0  0  0  0  0  0  0
  -24.6400  -32.1570   23.5850 C   0  0  0  0  0  0  0  0  0  0  0  0
  -27.2970  -27.8790   20.2740 C   0  0  0  0  0  0  0  0  0  0  0  0
  -23.4280  -30.8080   21.9010 C   0  0  0  0  0  3  0  0  0  0  0  0
  -24.8810  -29.3540   20.3880 C   0  0  0  0  0  0  0  0  0  0  0  0
  -25.9490  -31.2020   21.6880 C   0  0  0  0  0  2  0  0  0  0  0  0
  -26.0390  -29.8610   20.9880 C   0  0  0  0  0  0  0  0  0  0  0  0
  -27.2490  -29.1310   20.9290 C   0  0  0  0  0  3  0  0  0  0  0  0
  -26.1240  -27.4030   19.6420 C   0  0  0  0  0  3  0  0  0  0  0  0
  -24.9190  -28.1280   19.7050 C   0  0  0  0  0  3  0  0  0  0  0  0
  -23.6260  -30.1900   20.4930 C   0  0  0  0  0  2  0  0  0  0  0  0
  -24.6920  -31.4030   22.4510 N   0  0  0  0  0  0  0  0  0  0  0  0
  -23.5620  -32.3960   24.1470 O   0  0  0  0  0  0  0  0  0  0  0  0
  -22.8010  -29.7360   22.8230 C   0  0  0  0  0  0  0  0  0  0  0  0
  -21.4960  -29.4810   22.6470 N   0  0  0  0  0  0  0  0  0  0  0  0
  -23.4890  -29.1390   23.6520 O   0  0  0  0  0  0  0  0  0  0  0  0
  -21.0000  -30.0200   21.9520 H   0  0  0  0  0  0  0  0  0  0  0  0
  -18.1970  -28.0370   22.9290 C   0  0  0  0  0  0  0  0  0  0  0  0
  -20.7030  -28.4880   23.3710 C   0  0  0  0  0  3  0  0  0  0  0  0
  -20.9520  -27.0640   22.8230 C   0  0  0  0  0  2  0  0  0  0  0  0
  -19.9470  -26.6510   21.7410 C   0  0  0  0  0  2  0  0  0  0  0  0
  -18.5180  -26.6990   22.2900 C   0  0  0  0  0  2  0  0  0  0  0  0
  -19.2230  -28.8870   23.4240 C   0  0  0  0  0  0  0  0  0  0  0  0
  -18.8690  -30.1370   23.9740 C   0  0  0  0  0  3  0  0  0  0  0  0
  -17.5190  -30.5350   24.0510 C   0  0  0  0  0  3  0  0  0  0  0  0
  -16.5080  -29.6820   23.5770 C   0  0  0  0  0  3  0  0  0  0  0  0
  -16.8480  -28.4390   23.0150 C   0  0  0  0  0  3  0  0  0  0  0  0
  -25.9270  -32.7770   24.2100 C   0  0  0  0  0  3  0  0  0  0  0  0
  -26.3760  -32.0630   25.5430 C   0  0  1  0  0  0  0  0  0  0  0  0
  -25.2250  -31.8600   26.5560 C   0  0  0  0  0  1  0  0  0  0  0  0
  -26.9830  -30.6730   25.2400 C   0  0  0  0  0  1  0  0  0  0  0  0
  -27.4840  -32.8900   26.2380 C   0  0  0  0  0  1  0  0  0  0  0  0
  -25.6570  -34.2020   24.4490 N   0  0  0  0  0  0  0  0  0  0  0  0
  -26.0550  -35.1950   23.6420 C   0  0  0  0  0  0  0  0  0  0  0  0
  -26.7610  -35.0110   22.6460 O   0  0  0  0  0  0  0  0  0  0  0  0
  -25.0350  -34.4220   25.2130 H   0  0  0  0  0  0  0  0  0  0  0  0
  -24.4070  -37.0250   23.1250 C   0  0  0  0  0  1  0  0  0  0  0  0
  -25.6010  -36.6190   24.0040 C   0  0  0  0  0  3  0  0  0  0  0  0
  -27.7360  -37.4720   24.8650 C   0  0  0  0  0  1  0  0  0  0  0  0
  -26.6730  -37.6290   23.8780 N   0  0  0  0  0  0  0  0  0  0  0  0
  -26.2920  -38.5660   23.9720 H   0  0  0  0  0  0  0  0  0  0  0  0
  2  5  2  0
  2  6  1  0
  3  1  1  0
  3 10  1  0
  4 59  1  0
  4  1  2  0
  5  4  1  0
  6  3  2  0
  7  9  1  0
  7  5  1  0
  8  7  1  0
 10 11  1  0
 12 10  2  0
 12 13  1  0
 13 55  1  0
 15 14  2  0
 15 13  1  0
 16 22  1  0
 16 14  1  0
 17 22  1  0
 18 19  1  0
 18 17  1  0
 20 19  1  0
 20 27  1  0
 20 21  1  0
 22 21  1  0
 23 16  2  0
 24 25  2  0
 25 44  1  0
 26 25  1  0
 26 29  1  0
 27 28  1  0
 27 24  1  0
 28 26  2  0
 29 30  1  0
 30 31  2  0
 32 35  1  0
 32 31  1  0
 33 32  2  0
 34 33  1  0
 34 29  2  0
 35 36  1  0
 36 41  2  0
 36 37  1  0
 37 38  2  0
 38 39  1  0
 39 43  1  0
 40 39  2  0
 41 40  1  0
 42 41  1  0
 44 45  1  0
 45 48  1  0
 45 47  1  0
 46 44  2  0
 49 24  1  0
 49 50  1  0
 51 49  1  0
 52 15  1  0
 53 52  1  0
 55 54  1  0
 56  6  1  0
 57 58  1  0
 58 56  1  0
 60 61  1  0
 60 59  1  0
 61 63  1  0
 62 73  2  0
 63 68  1  0
 64 72  1  0
 64 74  1  0
 65 71  1  0
 65 67  1  0
 66 72  1  0
 67 66  1  0
 68 67  2  0
 69 70  1  0
 69 63  2  0
 70 65  2  0
 71 64  1  0
 72 62  1  0
 74 76  2  0
 75 74  1  0
 77 75  1  0
 78 87  2  0
 78 83  1  0
 79 75  1  0
 79 83  1  0
 80 79  1  0
 81 82  1  0
 81 80  1  0
 82 78  1  0
 83 84  2  0
 84 85  1  0
 86 85  2  0
 87 86  1  0
 88 62  1  0
 88 93  1  0
 88 89  1  0
 89 92  1  1
 89 90  1  0
 91 89  1  0
 93 96  1  0
 94 98  1  0
 94 93  1  0
 95 94  2  0
 98 97  1  0
100101  1  0
100 98  1  0
100 99  1  0
M  ISO  4  14 100  16 100  60 101  61 101
M  END
>  <TORSDO>  (47) 
F 26

>  <SCORE>  (47) 
-9.536

>  <name>  (47) 
47

>  <ligand_id>  (47) 
47

>  <original_smiles>  (47) 
[H]OC(=C([H])C(=O)N1C([H])([H])C([H])([H])C([H])([H])C([H])(n2nc(-c3c([H])c([H])c(Oc4c([H])c([H])c(F)c([H])c4F)c([H])c3[H])c(C(=O)N([H])[H])c2N([H])[H])C1([H])[H])C([H])(N=C(c1c([H])c(C([H])([H])C([H])([H])Oc2c([H])c([H])c3c(c2[H])C([H])([H])N(C(=O)C([H])(N([H])C(=O)C([H])(N([H])C([H])([H])[H])C([H])([H])[H])C(C([H])([H])[H])(C([H])([H])[H])C([H])([H])[H])C([H])(C(=O)N([H])C2([H])c4c([H])c([H])c([H])c([H])c4C([H])([H])C([H])([H])C2([H])[H])C3([H])[H])c(N([H])[H])c([H])c1OC([H])([H])C([H])([H])[H])C([H])([H])[H])C([H])([H])C([H])([H])[H]

>  <smiles>  (47) 
[H]OC(=C([H])C(=O)N1C([H])([H])C([H])([H])C([H])([H])C([H])(n2nc(-c3c([H])c([H])c(Oc4c([H])c([H])c(F)c([H])c4F)c([H])c3[H])c(C(=O)N([H])[H])c2N([H])[H])C1([H])[H])C([H])(N=C(c1c([H])c(C([H])([H])C([H])([H])Oc2c([H])c([H])c3c(c2[H])C([H])([H])N(C(=O)C([H])(N([H])C(=O)C([H])(N([H])C([H])([H])[H])C([H])([H])[H])C(C([H])([H])[H])(C([H])([H])[H])C([H])([H])[H])C([H])(C(=O)N([H])C2([H])c4c([H])c([H])c([H])c([H])c4C([H])([H])C([H])([H])C2([H])[H])C3([H])[H])c(N([H])[H])c([H])c1OC([H])([H])C([H])([H])[H])C([H])([H])[H])C([H])([H])C([H])([H])[H]

$$$$
48:0:0
     RDKit          3D

 97106  0  0  1  0  0  0  0  0999 V2000
  -30.9360  -22.1500   21.8890 C   0  0  0  0  0  0  0  0  0  0  0  0
  -29.3710  -22.4760   20.1170 C   0  0  0  0  0  0  0  0  0  0  0  0
  -31.2590  -23.6520   21.9390 C   0  0  0  0  0  2  0  0  0  0  0  0
  -30.0840  -24.5230   21.4980 C   0  0  0  0  0  2  0  0  0  0  0  0
  -29.5490  -24.0650   20.1380 C   0  0  0  0  0  3  0  0  0  0  0  0
  -30.1170  -21.6250   20.9270 N   0  0  0  0  0  0  0  0  0  0  0  0
  -31.4510  -21.4540   22.7750 O   0  0  0  0  0  0  0  0  0  0  0  0
  -28.5390  -22.0190   19.3250 O   0  0  0  0  0  0  0  0  0  0  0  0
  -31.3120  -19.3900   20.7090 C   0  0  0  0  0  3  0  0  0  0  0  0
  -31.3400  -17.9670   20.6480 C   0  0  0  0  0  3  0  0  0  0  0  0
  -28.9140  -19.3500   20.8570 C   0  0  0  0  0  3  0  0  0  0  0  0
  -30.1000  -20.1410   20.8100 C   0  0  0  0  0  0  0  0  0  0  0  0
  -30.1550  -17.1870   20.6610 C   0  0  0  0  0  0  0  0  0  0  0  0
  -28.9410  -17.9220   20.7720 C   0  0  0  0  0  0  0  0  0  0  0  0
  -27.7660  -17.2470   20.7250 F   0  0  0  0  0  0  0  0  0  0  0  0
  -30.8210  -14.7130   20.7940 C   0  0  0  0  0  0  0  0  0  0  0  0
  -30.7190  -12.3480   20.0370 C   0  0  0  0  0  2  0  0  0  0  0  0
  -29.9040  -12.2160   18.7330 C   0  0  0  0  0  2  0  0  0  0  0  0
  -28.3870  -12.1440   19.0190 C   0  0  0  0  0  2  0  0  0  0  0  0
  -27.8840  -13.1350   20.1090 C   0  0  0  0  0  3  0  0  0  0  0  0
  -28.8430  -13.2060   21.3160 C   0  0  0  0  0  2  0  0  0  0  0  0
  -30.1800  -13.4990   20.7860 N   0  0  0  0  0  0  0  0  0  0  0  0
  -32.0510  -14.7580   20.8340 O   0  0  0  0  0  0  0  0  0  0  0  0
  -30.1400  -15.7860   20.2270 N   0  0  0  0  0  0  0  0  0  0  0  0
  -25.4450  -13.7420   20.6070 C   0  0  0  0  0  0  0  0  0  0  0  0
  -24.3490  -12.9740   20.8950 C   0  0  0  0  0  0  0  0  0  0  0  0
  -24.8140  -11.6270   20.9560 C   0  0  0  0  0  0  0  0  0  0  0  0
  -26.5060  -12.8590   20.5020 N   0  0  0  0  0  0  0  0  0  0  0  0
  -26.1290  -11.5830   20.7770 N   0  0  0  0  0  0  0  0  0  0  0  0
  -24.0770  -10.3670   21.1160 C   0  0  0  0  0  0  0  0  0  0  0  0
  -24.4460   -9.4180   22.0950 C   0  0  0  0  0  3  0  0  0  0  0  0
  -23.7120   -8.2230   22.2410 C   0  0  0  0  0  3  0  0  0  0  0  0
  -22.5980   -7.9650   21.4100 C   0  0  0  0  0  0  0  0  0  0  0  0
  -22.2490   -8.9010   20.4210 C   0  0  0  0  0  3  0  0  0  0  0  0
  -22.9820  -10.0900   20.2730 C   0  0  0  0  0  3  0  0  0  0  0  0
  -21.8420   -6.8170   21.4650 O   0  0  0  0  0  0  0  0  0  0  0  0
  -21.7210   -6.0910   22.6230 C   0  0  0  0  0  0  0  0  0  0  0  0
  -21.2080   -6.6590   23.8100 C   0  0  0  0  0  3  0  0  0  0  0  0
  -21.0370   -5.8580   24.9570 C   0  0  0  0  0  3  0  0  0  0  0  0
  -21.3650   -4.4910   24.9150 C   0  0  0  0  0  0  0  0  0  0  0  0
  -21.8680   -3.9200   23.7310 C   0  0  0  0  0  3  0  0  0  0  0  0
  -22.0420   -4.7200   22.5870 C   0  0  0  0  0  0  0  0  0  0  0  0
  -22.5070   -4.1630   21.4420 F   0  0  0  0  0  0  0  0  0  0  0  0
  -21.1920   -3.7170   26.0110 F   0  0  0  0  0  0  0  0  0  0  0  0
  -22.9300  -13.4520   21.0180 C   0  0  0  0  0  0  0  0  0  0  0  0
  -22.1290  -12.7930   21.8490 N   0  0  0  0  0  0  0  0  0  0  0  0
  -22.5350  -14.4450   20.4080 O   0  0  0  0  0  0  0  0  0  0  0  0
  -22.4580  -11.9880   22.3610 H   0  0  0  0  0  0  0  0  0  0  0  0
  -21.1760  -13.0970   21.9760 H   0  0  0  0  0  0  0  0  0  0  0  0
  -25.6260  -15.1070   20.4050 N   0  0  0  0  0  0  0  0  0  0  0  0
  -24.8620  -15.7710   20.4400 H   0  0  0  0  0  0  0  0  0  0  0  0
  -26.5280  -15.5540   20.2750 H   0  0  0  0  0  0  0  0  0  0  0  0
  -29.9600  -15.7600   18.7540 C   0  0  0  0  0  2  0  0  0  0  0  0
  -31.6790  -16.8350   17.2260 C   0  0  0  0  0  2  0  0  0  0  0  0
  -31.2690  -15.8000   17.9770 C   0  0  0  0  0  3  0  0  0  0  0  0
  -28.3120  -24.9700   19.6880 C   0  0  0  0  0  2  0  0  0  0  0  0
  -28.4330  -26.4430   19.7880 O   0  0  0  0  0  0  0  0  0  0  0  0
  -24.5290  -31.6050   22.9700 C   0  0  0  0  0  0  0  0  0  0  0  0
  -27.2650  -27.2240   19.7740 C   0  0  0  0  0  0  0  0  0  0  0  0
  -23.3530  -30.2190   21.2960 C   0  0  0  0  0  3  0  0  0  0  0  0
  -24.8400  -28.7460   19.8250 C   0  0  0  0  0  0  0  0  0  0  0  0
  -25.8790  -30.6160   21.1060 C   0  0  0  0  0  2  0  0  0  0  0  0
  -25.9960  -29.2590   20.4240 C   0  0  0  0  0  0  0  0  0  0  0  0
  -27.2110  -28.5120   20.3850 C   0  0  0  0  0  3  0  0  0  0  0  0
  -26.0770  -26.7520   19.1670 C   0  0  0  0  0  3  0  0  0  0  0  0
  -24.8810  -27.4960   19.1880 C   0  0  0  0  0  3  0  0  0  0  0  0
  -23.5770  -29.5810   19.8990 C   0  0  0  0  0  2  0  0  0  0  0  0
  -24.6060  -30.8290   21.8480 N   0  0  0  0  0  0  0  0  0  0  0  0
  -23.4420  -31.8390   23.5150 O   0  0  0  0  0  0  0  0  0  0  0  0
  -22.7230  -29.1610   22.2320 C   0  0  0  0  0  0  0  0  0  0  0  0
  -21.3960  -28.9820   22.1330 N   0  0  0  0  0  0  0  0  0  0  0  0
  -23.4260  -28.5060   23.0070 O   0  0  0  0  0  0  0  0  0  0  0  0
  -20.8890  -29.5650   21.4820 H   0  0  0  0  0  0  0  0  0  0  0  0
  -18.0330  -27.7690   22.6870 C   0  0  0  0  0  0  0  0  0  0  0  0
  -20.5990  -28.0110   22.8850 C   0  0  0  0  0  3  0  0  0  0  0  0
  -20.6780  -26.6080   22.2380 C   0  0  0  0  0  2  0  0  0  0  0  0
  -19.5410  -26.3370   21.2480 C   0  0  0  0  0  2  0  0  0  0  0  0
  -18.1820  -26.4540   21.9440 C   0  0  0  0  0  2  0  0  0  0  0  0
  -19.1680  -28.5090   23.1140 C   0  0  0  0  0  0  0  0  0  0  0  0
  -18.9720  -29.7430   23.7720 C   0  0  0  0  0  3  0  0  0  0  0  0
  -17.6740  -30.2370   24.0060 C   0  0  0  0  0  3  0  0  0  0  0  0
  -16.5550  -29.4940   23.5930 C   0  0  0  0  0  3  0  0  0  0  0  0
  -16.7350  -28.2620   22.9390 C   0  0  0  0  0  3  0  0  0  0  0  0
  -25.7980  -32.2520   23.6030 C   0  0  0  0  0  3  0  0  0  0  0  0
  -26.3610  -31.4400   24.8350 C   0  0  1  0  0  0  0  0  0  0  0  0
  -25.2960  -31.1280   25.9120 C   0  0  0  0  0  1  0  0  0  0  0  0
  -26.9710  -30.0960   24.3720 C   0  0  0  0  0  1  0  0  0  0  0  0
  -27.5010  -32.2380   25.5110 C   0  0  0  0  0  1  0  0  0  0  0  0
  -25.4450  -33.6210   24.0040 N   0  0  0  0  0  0  0  0  0  0  0  0
  -25.7520  -34.7230   23.3050 C   0  0  0  0  0  0  0  0  0  0  0  0
  -26.4320  -34.6940   22.2770 O   0  0  0  0  0  0  0  0  0  0  0  0
  -24.8400  -33.7150   24.8070 H   0  0  0  0  0  0  0  0  0  0  0  0
  -23.9810  -36.4890   23.0240 C   0  0  0  0  0  1  0  0  0  0  0  0
  -25.2210  -36.0700   23.8320 C   0  0  0  0  0  3  0  0  0  0  0  0
  -27.3170  -36.9630   24.7490 C   0  0  0  0  0  1  0  0  0  0  0  0
  -26.2260  -37.1550   23.7960 N   0  0  0  0  0  0  0  0  0  0  0  0
  -25.7940  -38.0540   23.9870 H   0  0  0  0  0  0  0  0  0  0  0  0
  1  3  1  0
  1  7  2  0
  2  5  1  0
  2  6  1  0
  4  3  1  0
  5 56  1  0
  5  4  1  0
  6  1  1  0
  8  2  2  0
  9 12  1  0
 10 13  1  0
 10  9  2  0
 12 11  2  0
 12  6  1  0
 13 14  2  0
 14 11  1  0
 15 14  1  0
 16 23  2  0
 17 22  1  0
 18 19  1  0
 18 17  1  0
 20 19  1  0
 20 28  1  0
 20 21  1  0
 22 16  1  0
 22 21  1  0
 24 13  1  0
 24 16  1  0
 25 26  2  0
 26 27  1  0
 26 45  1  0
 27 30  1  0
 28 25  1  0
 28 29  1  0
 29 27  2  0
 30 31  1  0
 31 32  2  0
 33 36  1  0
 33 32  1  0
 34 33  2  0
 35 34  1  0
 35 30  2  0
 36 37  1  0
 37 38  1  0
 38 39  2  0
 40 39  1  0
 40 44  1  0
 41 40  2  0
 42 37  2  0
 42 41  1  0
 43 42  1  0
 45 46  1  0
 46 49  1  0
 46 48  1  0
 47 45  2  0
 50 51  1  0
 50 25  1  0
 52 50  1  0
 53 24  1  0
 54 55  2  0
 55 53  1  0
 56 57  1  0
 58 69  2  0
 59 57  1  0
 59 64  1  0
 60 68  1  0
 60 70  1  0
 61 67  1  0
 61 63  1  0
 62 68  1  0
 63 62  1  0
 64 63  2  0
 65 66  1  0
 65 59  2  0
 66 61  2  0
 67 60  1  0
 68 58  1  0
 70 72  2  0
 71 70  1  0
 73 71  1  0
 74 83  2  0
 74 79  1  0
 75 71  1  0
 75 79  1  0
 76 75  1  0
 77 78  1  0
 77 76  1  0
 78 74  1  0
 79 80  2  0
 80 81  1  0
 82 81  2  0
 83 82  1  0
 84 58  1  0
 84 89  1  0
 84 85  1  0
 85 88  1  1
 85 86  1  0
 87 85  1  0
 89 92  1  0
 90 94  1  0
 90 89  1  0
 91 90  2  0
 94 93  1  0
 96 94  1  0
 96 97  1  0
 96 95  1  0
M  ISO  4  16 100  24 100  56 101  57 101
M  END
>  <TORSDO>  (48) 
F 20

>  <SCORE>  (48) 
-12.325

>  <name>  (48) 
48

>  <ligand_id>  (48) 
48

>  <original_smiles>  (48) 
[H]C([H])=C([H])C([H])([H])N(C(=O)N1C([H])([H])C([H])([H])C([H])([H])C([H])(n2nc(-c3c([H])c([H])c(Oc4c([H])c([H])c(F)c([H])c4F)c([H])c3[H])c(C(=O)N([H])[H])c2N([H])[H])C1([H])[H])c1c([H])c([H])c(N2C(=O)C([H])([H])C([H])([H])C([H])(C([H])([H])Oc3c([H])c([H])c4c(c3[H])C([H])([H])N(C(=O)C([H])(N([H])C(=O)C([H])(N([H])C([H])([H])[H])C([H])([H])[H])C(C([H])([H])[H])(C([H])([H])[H])C([H])([H])[H])C([H])(C(=O)N([H])C3([H])c5c([H])c([H])c([H])c([H])c5C([H])([H])C([H])([H])C3([H])[H])C4([H])[H])C2=O)c([H])c1F

>  <smiles>  (48) 
[H]C([H])=C([H])C([H])([H])N(C(=O)N1C([H])([H])C([H])([H])C([H])([H])C([H])(n2nc(-c3c([H])c([H])c(Oc4c([H])c([H])c(F)c([H])c4F)c([H])c3[H])c(C(=O)N([H])[H])c2N([H])[H])C1([H])[H])c1c([H])c([H])c(N2C(=O)C([H])([H])C([H])([H])C([H])(C([H])([H])Oc3c([H])c([H])c4c(c3[H])C([H])([H])N(C(=O)C([H])(N([H])C(=O)C([H])(N([H])C([H])([H])[H])C([H])([H])[H])C(C([H])([H])[H])(C([H])([H])[H])C([H])([H])[H])C([H])(C(=O)N([H])C3([H])c5c([H])c([H])c([H])c([H])c5C([H])([H])C([H])([H])C3([H])[H])C4([H])[H])C2=O)c([H])c1F

$$$$
49:0:0
     RDKit          3D

 94102  0  0  1  0  0  0  0  0999 V2000
  -29.1790  -21.3390   20.9510 C   0  0  0  0  0  0  0  0  0  0  0  0
  -29.3470  -21.3020   22.1700 O   0  0  0  0  0  0  0  0  0  0  0  0
  -29.7840  -18.7180   20.8750 C   0  0  0  0  0  3  0  0  0  0  0  0
  -29.0960  -19.8680   18.8430 C   0  0  0  0  0  3  0  0  0  0  0  0
  -29.5860  -17.4510   18.8130 C   0  0  0  0  0  3  0  0  0  0  0  0
  -29.3740  -19.9630   20.2230 C   0  0  0  0  0  0  0  0  0  0  0  0
  -29.9140  -17.4370   20.1860 C   0  0  0  0  0  0  0  0  0  0  0  0
  -29.1600  -18.6320   18.1590 C   0  0  0  0  0  0  0  0  0  0  0  0
  -30.9090  -15.0150   20.3680 C   0  0  0  0  0  0  0  0  0  0  0  0
  -30.7530  -12.7210   19.3700 C   0  0  0  0  0  2  0  0  0  0  0  0
  -29.8310  -12.8020   18.1290 C   0  0  0  0  0  2  0  0  0  0  0  0
  -28.3460  -12.6500   18.5280 C   0  0  0  0  0  2  0  0  0  0  0  0
  -27.9690  -13.5380   19.7450 C   0  0  0  0  0  3  0  0  0  0  0  0
  -29.0080  -13.3930   20.8800 C   0  0  0  0  0  2  0  0  0  0  0  0
  -30.3160  -13.7670   20.3280 N   0  0  0  0  0  0  0  0  0  0  0  0
  -32.0610  -15.1460   19.9400 O   0  0  0  0  0  0  0  0  0  0  0  0
  -30.1710  -16.1070   20.8180 N   0  0  0  0  0  0  0  0  0  0  0  0
  -29.4370  -15.8340   21.4570 H   0  0  0  0  0  0  0  0  0  0  0  0
  -25.5810  -14.1860   20.4240 C   0  0  0  0  0  0  0  0  0  0  0  0
  -24.4960  -13.4330   20.7830 C   0  0  0  0  0  0  0  0  0  0  0  0
  -24.9330  -12.0740   20.7660 C   0  0  0  0  0  0  0  0  0  0  0  0
  -26.6120  -13.2840   20.2100 N   0  0  0  0  0  0  0  0  0  0  0  0
  -26.2270  -12.0090   20.4760 N   0  0  0  0  0  0  0  0  0  0  0  0
  -24.1860  -10.8250   20.9500 C   0  0  0  0  0  0  0  0  0  0  0  0
  -24.5750   -9.8650   21.9110 C   0  0  0  0  0  3  0  0  0  0  0  0
  -23.8280   -8.6810   22.0840 C   0  0  0  0  0  3  0  0  0  0  0  0
  -22.6760   -8.4450   21.2970 C   0  0  0  0  0  0  0  0  0  0  0  0
  -22.3070   -9.3930   20.3250 C   0  0  0  0  0  3  0  0  0  0  0  0
  -23.0560  -10.5690   20.1500 C   0  0  0  0  0  3  0  0  0  0  0  0
  -21.9080   -7.3080   21.3740 O   0  0  0  0  0  0  0  0  0  0  0  0
  -21.7990   -6.5920   22.5390 C   0  0  0  0  0  0  0  0  0  0  0  0
  -21.3160   -7.1750   23.7310 C   0  0  0  0  0  3  0  0  0  0  0  0
  -21.1570   -6.3840   24.8870 C   0  0  0  0  0  3  0  0  0  0  0  0
  -21.4670   -5.0130   24.8520 C   0  0  0  0  0  0  0  0  0  0  0  0
  -21.9420   -4.4290   23.6660 C   0  0  0  0  0  3  0  0  0  0  0  0
  -22.1050   -5.2160   22.5120 C   0  0  0  0  0  0  0  0  0  0  0  0
  -22.5450   -4.6430   21.3650 F   0  0  0  0  0  0  0  0  0  0  0  0
  -21.3030   -4.2520   25.9610 F   0  0  0  0  0  0  0  0  0  0  0  0
  -23.1010  -13.9370   21.0240 C   0  0  0  0  0  0  0  0  0  0  0  0
  -22.3440  -13.2670   21.8870 N   0  0  0  0  0  0  0  0  0  0  0  0
  -22.6920  -14.9620   20.4800 O   0  0  0  0  0  0  0  0  0  0  0  0
  -22.6880  -12.4420   22.3560 H   0  0  0  0  0  0  0  0  0  0  0  0
  -21.4070  -13.5870   22.0830 H   0  0  0  0  0  0  0  0  0  0  0  0
  -25.7760  -15.5530   20.2340 N   0  0  0  0  0  0  0  0  0  0  0  0
  -25.0130  -16.2180   20.2990 H   0  0  0  0  0  0  0  0  0  0  0  0
  -26.6160  -15.9570   19.8420 H   0  0  0  0  0  0  0  0  0  0  0  0
  -27.5930  -19.2120   16.4770 C   0  0  0  0  0  1  0  0  0  0  0  0
  -28.8010  -18.5350   16.8360 O   0  0  0  0  0  0  0  0  0  0  0  0
  -28.9050  -23.7980   20.6080 C   0  0  0  0  0  0  0  0  0  0  0  0
  -28.8010  -22.5260   20.2080 N   0  0  0  0  0  0  0  0  0  0  0  0
  -28.5380  -24.6110   22.9930 C   0  0  0  0  0  1  0  0  0  0  0  0
  -29.5640  -24.2670   21.9020 C   0  0  0  0  0  2  0  0  0  0  0  0
  -28.3460  -25.0510   19.7400 C   0  0  0  0  0  2  0  0  0  0  0  0
  -28.4180  -26.5030   20.2090 O   0  0  0  0  0  0  0  0  0  0  0  0
  -24.6480  -31.9640   23.2340 C   0  0  0  0  0  0  0  0  0  0  0  0
  -27.3210  -27.4130   20.1170 C   0  0  0  0  0  0  0  0  0  0  0  0
  -23.4700  -30.5720   21.5700 C   0  0  0  0  0  3  0  0  0  0  0  0
  -24.9500  -29.0580   20.1300 C   0  0  0  0  0  0  0  0  0  0  0  0
  -26.0130  -30.9020   21.4170 C   0  0  0  0  0  2  0  0  0  0  0  0
  -26.1150  -29.5300   20.7470 C   0  0  0  0  0  0  0  0  0  0  0  0
  -27.2980  -28.7150   20.7400 C   0  0  0  0  0  3  0  0  0  0  0  0
  -26.1390  -27.0460   19.4340 C   0  0  0  0  0  3  0  0  0  0  0  0
  -24.9680  -27.8250   19.4660 C   0  0  0  0  0  3  0  0  0  0  0  0
  -23.7060  -29.9190   20.1850 C   0  0  0  0  0  2  0  0  0  0  0  0
  -24.7280  -31.1660   22.1300 N   0  0  0  0  0  0  0  0  0  0  0  0
  -23.5560  -32.2290   23.7630 O   0  0  0  0  0  0  0  0  0  0  0  0
  -22.8120  -29.5390   22.5170 C   0  0  0  0  0  0  0  0  0  0  0  0
  -21.4930  -29.3240   22.3690 N   0  0  0  0  0  0  0  0  0  0  0  0
  -23.4940  -28.9320   23.3500 O   0  0  0  0  0  0  0  0  0  0  0  0
  -21.0030  -29.8420   21.6520 H   0  0  0  0  0  0  0  0  0  0  0  0
  -18.1400  -28.0510   22.8440 C   0  0  0  0  0  0  0  0  0  0  0  0
  -20.6900  -28.3670   23.1300 C   0  0  0  0  0  3  0  0  0  0  0  0
  -20.8280  -26.9470   22.5380 C   0  0  0  0  0  2  0  0  0  0  0  0
  -19.7380  -26.6220   21.5110 C   0  0  0  0  0  2  0  0  0  0  0  0
  -18.3550  -26.7100   22.1640 C   0  0  0  0  0  2  0  0  0  0  0  0
  -19.2390  -28.8390   23.2840 C   0  0  0  0  0  0  0  0  0  0  0  0
  -18.9900  -30.0920   23.8800 C   0  0  0  0  0  3  0  0  0  0  0  0
  -17.6750  -30.5630   24.0480 C   0  0  0  0  0  3  0  0  0  0  0  0
  -16.5900  -29.7740   23.6300 C   0  0  0  0  0  3  0  0  0  0  0  0
  -16.8220  -28.5210   23.0340 C   0  0  0  0  0  3  0  0  0  0  0  0
  -25.9210  -32.6040   23.8690 C   0  0  0  0  0  3  0  0  0  0  0  0
  -25.5970  -34.0000   24.1940 N   0  0  0  0  0  0  0  0  0  0  0  0
  -25.9200  -35.0570   23.4360 C   0  0  0  0  0  0  0  0  0  0  0  0
  -26.5910  -34.9570   22.4040 O   0  0  0  0  0  0  0  0  0  0  0  0
  -24.9980  -34.1480   24.9920 H   0  0  0  0  0  0  0  0  0  0  0  0
  -24.1710  -36.8340   23.0840 C   0  0  0  0  0  1  0  0  0  0  0  0
  -25.4170  -36.4410   23.8920 C   0  0  0  0  0  3  0  0  0  0  0  0
  -27.5380  -37.3560   24.7230 C   0  0  0  0  0  1  0  0  0  0  0  0
  -26.4360  -37.5050   23.7780 N   0  0  0  0  0  0  0  0  0  0  0  0
  -26.0180  -38.4200   23.9200 H   0  0  0  0  0  0  0  0  0  0  0  0
  -26.4270  -31.8380   25.1530 C   0  0  1  0  0  0  0  0  0  0  0  0
  -25.3220  -31.5950   26.2060 C   0  0  0  0  0  1  0  0  0  0  0  0
  -27.0320  -30.4640   24.7800 C   0  0  0  0  0  1  0  0  0  0  0  0
  -27.5570  -32.6480   25.8310 C   0  0  0  0  0  1  0  0  0  0  0  0
  1  2  2  0
  4  6  2  0
  5  7  1  0
  6  3  1  0
  6  1  1  0
  7 17  1  0
  7  3  2  0
  8  5  2  0
  8  4  1  0
  9 17  1  0
 10 15  1  0
 11 12  1  0
 11 10  1  0
 13 12  1  0
 13 22  1  0
 13 14  1  0
 15  9  1  0
 15 14  1  0
 16  9  2  0
 17 18  1  0
 19 20  2  0
 20 39  1  0
 21 20  1  0
 21 24  1  0
 22 19  1  0
 22 23  1  0
 23 21  2  0
 24 25  1  0
 25 26  2  0
 27 30  1  0
 27 26  1  0
 28 27  2  0
 29 28  1  0
 29 24  2  0
 30 31  1  0
 31 32  1  0
 32 33  2  0
 34 33  1  0
 34 38  1  0
 35 34  2  0
 36 31  2  0
 36 35  1  0
 37 36  1  0
 39 40  1  0
 40 43  1  0
 40 42  1  0
 41 39  2  0
 44 45  1  0
 44 19  1  0
 46 44  1  0
 47 48  1  0
 48  8  1  0
 49 52  1  0
 50 49  2  0
 50  1  1  0
 52 51  1  0
 53 54  1  0
 53 49  1  0
 55 66  2  0
 56 54  1  0
 56 61  1  0
 57 65  1  0
 57 67  1  0
 58 64  1  0
 58 60  1  0
 59 65  1  0
 60 59  1  0
 61 60  2  0
 62 63  1  0
 62 56  2  0
 63 58  2  0
 64 57  1  0
 65 55  1  0
 67 69  2  0
 68 67  1  0
 70 68  1  0
 71 80  2  0
 71 76  1  0
 72 68  1  0
 72 76  1  0
 73 72  1  0
 74 75  1  0
 74 73  1  0
 75 71  1  0
 76 77  2  0
 77 78  1  0
 79 78  2  0
 80 79  1  0
 81 55  1  0
 81 82  1  0
 81 91  1  0
 82 85  1  0
 83 87  1  0
 83 82  1  0
 84 83  2  0
 87 86  1  0
 89 87  1  0
 89 90  1  0
 89 88  1  0
 91 94  1  1
 91 92  1  0
 93 91  1  0
M  ISO  4   9 100  17 100  53 101  54 101
M  END
>  <TORSDO>  (49) 
F 21

>  <SCORE>  (49) 
-13.360

>  <name>  (49) 
49

>  <ligand_id>  (49) 
49

>  <original_smiles>  (49) 
[H]c1c([H])c([H])c2c(c1[H])C([H])([H])C([H])([H])C([H])([H])C2([H])N([H])C(=O)C1([H])N(C(=O)C([H])(N([H])C(=O)C([H])(N([H])C([H])([H])[H])C([H])([H])[H])C(C([H])([H])[H])(C([H])([H])[H])C([H])([H])[H])C([H])([H])c2c([H])c(OC([H])([H])C(=NC(=O)c3c([H])c(OC([H])([H])[H])c([H])c(N([H])C(=O)N4C([H])([H])C([H])([H])C([H])([H])C([H])(n5nc(-c6c([H])c([H])c(Oc7c([H])c([H])c(F)c([H])c7F)c([H])c6[H])c(C(=O)N([H])[H])c5N([H])[H])C4([H])[H])c3[H])C([H])([H])C([H])([H])[H])c([H])c([H])c2C1([H])[H]

>  <smiles>  (49) 
[H]c1c([H])c([H])c2c(c1[H])C([H])([H])C([H])([H])C([H])([H])C2([H])N([H])C(=O)C1([H])N(C(=O)C([H])(N([H])C(=O)C([H])(N([H])C([H])([H])[H])C([H])([H])[H])C(C([H])([H])[H])(C([H])([H])[H])C([H])([H])[H])C([H])([H])c2c([H])c(OC([H])([H])C(=NC(=O)c3c([H])c(OC([H])([H])[H])c([H])c(N([H])C(=O)N4C([H])([H])C([H])([H])C([H])([H])C([H])(n5nc(-c6c([H])c([H])c(Oc7c([H])c([H])c(F)c([H])c7F)c([H])c6[H])c(C(=O)N([H])[H])c5N([H])[H])C4([H])[H])c3[H])C([H])([H])C([H])([H])[H])c([H])c([H])c2C1([H])[H]

$$$$
50:0:0
     RDKit          3D

 93101  0  0  1  0  0  0  0  0999 V2000
  -30.6350  -18.5930   19.3770 C   0  0  0  0  0  3  0  0  0  0  0  0
  -28.3890  -19.9540   20.2610 C   0  0  0  0  0  3  0  0  0  0  0  0
  -29.6900  -17.7260   20.0270 C   0  0  0  0  0  0  0  0  0  0  0  0
  -29.3300  -20.8020   19.6100 C   0  0  0  0  0  0  0  0  0  0  0  0
  -28.5380  -18.5220   20.4420 C   0  0  0  0  0  0  0  0  0  0  0  0
  -30.4640  -20.0260   19.1670 C   0  0  0  0  0  0  0  0  0  0  0  0
  -31.4380  -20.6750   18.4850 F   0  0  0  0  0  0  0  0  0  0  0  0
  -29.8610  -16.1410   20.3870 C   0  0  0  0  0  3  0  0  0  0  0  0
  -29.5550  -15.8200   21.5750 N   0  0  0  0  0  2  0  0  0  0  0  0
  -29.2240  -16.6510   22.0620 H   0  0  0  0  0  0  0  0  0  0  0  0
  -30.4470  -14.8870   19.4940 C   0  0  0  0  0  0  0  0  0  0  0  0
  -30.1900  -12.5640   18.5050 C   0  0  0  0  0  2  0  0  0  0  0  0
  -29.1100  -12.5730   17.3960 C   0  0  0  0  0  2  0  0  0  0  0  0
  -27.7030  -12.3650   17.9910 C   0  0  0  0  0  2  0  0  0  0  0  0
  -27.4620  -13.2550   19.2370 C   0  0  0  0  0  3  0  0  0  0  0  0
  -28.6430  -13.1730   20.2240 C   0  0  0  0  0  2  0  0  0  0  0  0
  -29.8550  -13.6160   19.5110 N   0  0  0  0  0  0  0  0  0  0  0  0
  -31.4880  -15.0260   18.8420 O   0  0  0  0  0  0  0  0  0  0  0  0
  -25.2030  -13.8500   20.2900 C   0  0  0  0  0  0  0  0  0  0  0  0
  -24.1770  -13.0780   20.7640 C   0  0  0  0  0  0  0  0  0  0  0  0
  -24.6030  -11.7220   20.6180 C   0  0  0  0  0  0  0  0  0  0  0  0
  -26.1870  -12.9640   19.8820 N   0  0  0  0  0  0  0  0  0  0  0  0
  -25.8410  -11.6760   20.1400 N   0  0  0  0  0  0  0  0  0  0  0  0
  -23.8780  -10.4660   20.8510 C   0  0  0  0  0  0  0  0  0  0  0  0
  -24.3740   -9.4790   21.7310 C   0  0  0  0  0  3  0  0  0  0  0  0
  -23.6480   -8.2890   21.9540 C   0  0  0  0  0  3  0  0  0  0  0  0
  -22.4140   -8.0760   21.2960 C   0  0  0  0  0  0  0  0  0  0  0  0
  -21.9360   -9.0520   20.4040 C   0  0  0  0  0  3  0  0  0  0  0  0
  -22.6610  -10.2340   20.1790 C   0  0  0  0  0  3  0  0  0  0  0  0
  -21.6540   -6.9390   21.4300 O   0  0  0  0  0  0  0  0  0  0  0  0
  -21.6510   -6.2070   22.5910 C   0  0  0  0  0  0  0  0  0  0  0  0
  -21.2800   -6.7760   23.8280 C   0  0  0  0  0  3  0  0  0  0  0  0
  -21.2240   -5.9700   24.9830 C   0  0  0  0  0  3  0  0  0  0  0  0
  -21.5310   -4.5990   24.9020 C   0  0  0  0  0  0  0  0  0  0  0  0
  -21.8970   -4.0300   23.6690 C   0  0  0  0  0  3  0  0  0  0  0  0
  -21.9540   -4.8330   22.5160 C   0  0  0  0  0  0  0  0  0  0  0  0
  -22.2860   -4.2760   21.3270 F   0  0  0  0  0  0  0  0  0  0  0  0
  -21.4710   -3.8240   26.0110 F   0  0  0  0  0  0  0  0  0  0  0  0
  -22.8390  -13.5690   21.2360 C   0  0  0  0  0  0  0  0  0  0  0  0
  -22.2170  -12.8520   22.1650 N   0  0  0  0  0  0  0  0  0  0  0  0
  -22.3590  -14.6200   20.8140 O   0  0  0  0  0  0  0  0  0  0  0  0
  -22.6210  -12.0010   22.5260 H   0  0  0  0  0  0  0  0  0  0  0  0
  -21.3240  -13.1610   22.5220 H   0  0  0  0  0  0  0  0  0  0  0  0
  -25.3730  -15.2240   20.1500 N   0  0  0  0  0  0  0  0  0  0  0  0
  -24.6420  -15.8850   20.3920 H   0  0  0  0  0  0  0  0  0  0  0  0
  -26.1800  -15.6650   19.7290 H   0  0  0  0  0  0  0  0  0  0  0  0
  -27.4270  -17.9290   21.0520 N   0  0  0  0  0  0  0  0  0  0  0  0
  -26.5760  -18.4790   21.1210 H   0  0  0  0  0  0  0  0  0  0  0  0
  -27.2230  -16.9590   20.8270 H   0  0  0  0  0  0  0  0  0  0  0  0
  -28.8060  -23.3530   19.8790 C   0  0  0  0  0  3  0  0  0  0  0  0
  -29.0580  -22.2180   19.2060 N   0  0  0  0  0  0  0  0  0  0  0  0
  -28.1810  -24.7600   19.2560 C   0  0  0  0  0  2  0  0  0  0  0  0
  -28.3720  -26.2100   19.7770 O   0  0  0  0  0  0  0  0  0  0  0  0
  -24.5650  -31.6160   23.0000 C   0  0  0  0  0  0  0  0  0  0  0  0
  -27.2930  -27.1670   19.7280 C   0  0  0  0  0  0  0  0  0  0  0  0
  -23.4080  -30.2690   21.2910 C   0  0  0  0  0  3  0  0  0  0  0  0
  -24.9060  -28.8260   19.7840 C   0  0  0  0  0  0  0  0  0  0  0  0
  -25.9510  -30.6260   21.1450 C   0  0  0  0  0  2  0  0  0  0  0  0
  -26.0690  -29.2760   20.4220 C   0  0  0  0  0  0  0  0  0  0  0  0
  -27.2600  -28.4590   20.3870 C   0  0  0  0  0  3  0  0  0  0  0  0
  -26.1070  -26.8340   19.0320 C   0  0  0  0  0  3  0  0  0  0  0  0
  -24.9370  -27.6190   19.0740 C   0  0  0  0  0  3  0  0  0  0  0  0
  -23.6490  -29.6740   19.8780 C   0  0  0  0  0  2  0  0  0  0  0  0
  -24.6610  -30.8560   21.8680 N   0  0  0  0  0  0  0  0  0  0  0  0
  -23.4710  -31.8370   23.5420 O   0  0  0  0  0  0  0  0  0  0  0  0
  -22.7650  -29.1900   22.1990 C   0  0  0  0  0  0  0  0  0  0  0  0
  -21.4360  -29.0110   22.0920 N   0  0  0  0  0  0  0  0  0  0  0  0
  -23.4630  -28.5170   22.9630 O   0  0  0  0  0  0  0  0  0  0  0  0
  -20.9290  -29.6060   21.4530 H   0  0  0  0  0  0  0  0  0  0  0  0
  -18.0730  -27.7840   22.6400 C   0  0  0  0  0  0  0  0  0  0  0  0
  -20.6420  -28.0170   22.8200 C   0  0  0  0  0  3  0  0  0  0  0  0
  -20.7120  -26.6360   22.1280 C   0  0  0  0  0  2  0  0  0  0  0  0
  -19.5660  -26.3970   21.1390 C   0  0  0  0  0  2  0  0  0  0  0  0
  -18.2130  -26.4940   21.8490 C   0  0  0  0  0  2  0  0  0  0  0  0
  -19.2130  -28.5070   23.0810 C   0  0  0  0  0  0  0  0  0  0  0  0
  -19.0250  -29.7170   23.7840 C   0  0  0  0  0  3  0  0  0  0  0  0
  -17.7310  -30.2030   24.0470 C   0  0  0  0  0  3  0  0  0  0  0  0
  -16.6060  -29.4770   23.6190 C   0  0  0  0  0  3  0  0  0  0  0  0
  -16.7780  -28.2680   22.9220 C   0  0  0  0  0  3  0  0  0  0  0  0
  -25.8220  -32.2580   23.6590 C   0  0  0  0  0  3  0  0  0  0  0  0
  -26.3480  -31.4520   24.9100 C   0  0  1  0  0  0  0  0  0  0  0  0
  -25.2550  -31.1520   25.9610 C   0  0  0  0  0  1  0  0  0  0  0  0
  -26.9640  -30.1030   24.4760 C   0  0  0  0  0  1  0  0  0  0  0  0
  -27.4770  -32.2480   25.6080 C   0  0  0  0  0  1  0  0  0  0  0  0
  -25.4710  -33.6340   24.0460 N   0  0  0  0  0  0  0  0  0  0  0  0
  -25.7750  -34.7290   23.3360 C   0  0  0  0  0  0  0  0  0  0  0  0
  -26.4470  -34.6890   22.3030 O   0  0  0  0  0  0  0  0  0  0  0  0
  -24.8730  -33.7370   24.8520 H   0  0  0  0  0  0  0  0  0  0  0  0
  -23.9930  -36.4870   23.0700 C   0  0  0  0  0  1  0  0  0  0  0  0
  -25.2510  -36.0840   23.8560 C   0  0  0  0  0  3  0  0  0  0  0  0
  -27.3620  -36.9990   24.7130 C   0  0  0  0  0  1  0  0  0  0  0  0
  -26.2530  -37.1700   23.7800 N   0  0  0  0  0  0  0  0  0  0  0  0
  -25.8200  -38.0720   23.9640 H   0  0  0  0  0  0  0  0  0  0  0  0
  1  3  1  0
  2  5  1  0
  3  8  1  0
  3  5  2  0
  4  2  2  0
  5 47  1  0
  6  1  2  0
  6  4  1  0
  7  6  1  0
  8 11  1  0
  8  9  1  0
  9 10  1  0
 11 17  1  0
 12 17  1  0
 13 14  1  0
 13 12  1  0
 15 14  1  0
 15 22  1  0
 15 16  1  0
 17 16  1  0
 18 11  2  0
 19 20  2  0
 20 39  1  0
 21 20  1  0
 21 24  1  0
 22 23  1  0
 22 19  1  0
 23 21  2  0
 24 25  1  0
 25 26  2  0
 27 30  1  0
 27 26  1  0
 28 27  2  0
 29 28  1  0
 29 24  2  0
 30 31  1  0
 31 32  1  0
 32 33  2  0
 34 33  1  0
 34 38  1  0
 35 34  2  0
 36 31  2  0
 36 35  1  0
 37 36  1  0
 39 40  1  0
 40 43  1  0
 40 42  1  0
 41 39  2  0
 44 19  1  0
 44 45  1  0
 46 44  1  0
 47 48  1  0
 49 47  1  0
 51  4  1  0
 51 50  2  0
 52 53  1  0
 52 50  1  0
 54 65  2  0
 55 53  1  0
 55 60  1  0
 56 64  1  0
 56 66  1  0
 57 63  1  0
 57 59  1  0
 58 64  1  0
 59 58  1  0
 60 59  2  0
 61 62  1  0
 61 55  2  0
 62 57  2  0
 63 56  1  0
 64 54  1  0
 66 68  2  0
 67 66  1  0
 69 67  1  0
 70 79  2  0
 70 75  1  0
 71 67  1  0
 71 75  1  0
 72 71  1  0
 73 74  1  0
 73 72  1  0
 74 70  1  0
 75 76  2  0
 76 77  1  0
 78 77  2  0
 79 78  1  0
 80 54  1  0
 80 85  1  0
 80 81  1  0
 81 84  1  1
 81 82  1  0
 83 81  1  0
 85 88  1  0
 86 90  1  0
 86 85  1  0
 87 86  2  0
 90 89  1  0
 92 90  1  0
 92 93  1  0
 92 91  1  0
M  ISO  4   8 100  11 100  52 101  53 101
M  END
>  <TORSDO>  (50) 
F 20

>  <SCORE>  (50) 
-12.561

>  <name>  (50) 
50

>  <ligand_id>  (50) 
50

>  <original_smiles>  (50) 
[H]N=C(C(=O)N1C([H])([H])C([H])([H])C([H])([H])C([H])(n2nc(-c3c([H])c([H])c(Oc4c([H])c([H])c(F)c([H])c4F)c([H])c3[H])c(C(=O)N([H])[H])c2N([H])[H])C1([H])[H])c1c([H])c(F)c(N=C([H])C([H])([H])Oc2c([H])c([H])c3c(c2[H])C([H])([H])N(C(=O)C([H])(N([H])C(=O)C([H])(N([H])C([H])([H])[H])C([H])([H])[H])C(C([H])([H])[H])(C([H])([H])[H])C([H])([H])[H])C([H])(C(=O)N([H])C2([H])c4c([H])c([H])c([H])c([H])c4C([H])([H])C([H])([H])C2([H])[H])C3([H])[H])c([H])c1N([H])[H]

>  <smiles>  (50) 
[H]N=C(C(=O)N1C([H])([H])C([H])([H])C([H])([H])C([H])(n2nc(-c3c([H])c([H])c(Oc4c([H])c([H])c(F)c([H])c4F)c([H])c3[H])c(C(=O)N([H])[H])c2N([H])[H])C1([H])[H])c1c([H])c(F)c(N=C([H])C([H])([H])Oc2c([H])c([H])c3c(c2[H])C([H])([H])N(C(=O)C([H])(N([H])C(=O)C([H])(N([H])C([H])([H])[H])C([H])([H])[H])C(C([H])([H])[H])(C([H])([H])[H])C([H])([H])[H])C([H])(C(=O)N([H])C2([H])c4c([H])c([H])c([H])c([H])c4C([H])([H])C([H])([H])C2([H])[H])C3([H])[H])c([H])c1N([H])[H]

$$$$
51:0:0
     RDKit          3D

 95104  0  0  1  0  0  0  0  0999 V2000
  -28.9770  -19.3890   19.7630 C   0  0  0  0  0  3  0  0  0  0  0  0
  -30.7530  -17.9360   21.3650 C   0  0  0  0  0  3  0  0  0  0  0  0
  -28.9930  -17.9590   19.7200 C   0  0  0  0  0  0  0  0  0  0  0  0
  -29.8340  -20.1440   20.6060 C   0  0  0  0  0  0  0  0  0  0  0  0
  -29.8790  -17.1900   20.5340 C   0  0  0  0  0  0  0  0  0  0  0  0
  -30.7280  -19.3660   21.4080 C   0  0  0  0  0  0  0  0  0  0  0  0
  -28.0240  -17.2740   18.7750 C   0  0  0  0  0  1  0  0  0  0  0  0
  -30.5820  -14.6850   20.4080 C   0  0  0  0  0  0  0  0  0  0  0  0
  -30.3810  -12.4490   19.3380 C   0  0  0  0  0  2  0  0  0  0  0  0
  -29.4290  -12.5830   18.1290 C   0  0  0  0  0  2  0  0  0  0  0  0
  -27.9570  -12.4200   18.5640 C   0  0  0  0  0  2  0  0  0  0  0  0
  -27.6010  -13.2770   19.8070 C   0  0  0  0  0  3  0  0  0  0  0  0
  -28.6670  -13.1140   20.9150 C   0  0  0  0  0  2  0  0  0  0  0  0
  -29.9730  -13.4600   20.3320 N   0  0  0  0  0  0  0  0  0  0  0  0
  -31.7600  -14.8430   20.0770 O   0  0  0  0  0  0  0  0  0  0  0  0
  -29.7330  -15.7350   20.6410 N   0  0  0  0  0  0  0  0  0  0  0  0
  -28.7830  -15.4240   20.7690 H   0  0  0  0  0  0  0  0  0  0  0  0
  -25.2110  -13.8820   20.5390 C   0  0  0  0  0  0  0  0  0  0  0  0
  -24.1420  -13.1130   20.9030 C   0  0  0  0  0  0  0  0  0  0  0  0
  -24.5990  -11.7610   20.8620 C   0  0  0  0  0  0  0  0  0  0  0  0
  -26.2530  -13.0000   20.2950 N   0  0  0  0  0  0  0  0  0  0  0  0
  -25.8890  -11.7180   20.5510 N   0  0  0  0  0  0  0  0  0  0  0  0
  -23.8680  -10.5010   21.0450 C   0  0  0  0  0  0  0  0  0  0  0  0
  -24.2920   -9.5310   21.9810 C   0  0  0  0  0  3  0  0  0  0  0  0
  -23.5600   -8.3360   22.1520 C   0  0  0  0  0  3  0  0  0  0  0  0
  -22.3910   -8.1040   21.3900 C   0  0  0  0  0  0  0  0  0  0  0  0
  -21.9880   -9.0630   20.4440 C   0  0  0  0  0  3  0  0  0  0  0  0
  -22.7190  -10.2490   20.2700 C   0  0  0  0  0  3  0  0  0  0  0  0
  -21.6340   -6.9610   21.4700 O   0  0  0  0  0  0  0  0  0  0  0  0
  -21.5680   -6.2210   22.6230 C   0  0  0  0  0  0  0  0  0  0  0  0
  -21.1070   -6.7740   23.8380 C   0  0  0  0  0  3  0  0  0  0  0  0
  -20.9900   -5.9600   24.9820 C   0  0  0  0  0  3  0  0  0  0  0  0
  -21.3220   -4.5940   24.9130 C   0  0  0  0  0  0  0  0  0  0  0  0
  -21.7770   -4.0410   23.7030 C   0  0  0  0  0  3  0  0  0  0  0  0
  -21.8960   -4.8520   22.5600 C   0  0  0  0  0  0  0  0  0  0  0  0
  -22.3140   -4.3090   21.3910 F   0  0  0  0  0  0  0  0  0  0  0  0
  -21.2020   -3.8100   26.0090 F   0  0  0  0  0  0  0  0  0  0  0  0
  -22.7470  -13.5970   21.1780 C   0  0  0  0  0  0  0  0  0  0  0  0
  -22.0130  -12.8950   22.0340 N   0  0  0  0  0  0  0  0  0  0  0  0
  -22.3170  -14.6310   20.6710 O   0  0  0  0  0  0  0  0  0  0  0  0
  -22.3720  -12.0590   22.4700 H   0  0  0  0  0  0  0  0  0  0  0  0
  -21.0770  -13.2010   22.2610 H   0  0  0  0  0  0  0  0  0  0  0  0
  -25.3750  -15.2530   20.3750 N   0  0  0  0  0  0  0  0  0  0  0  0
  -24.6050  -15.9020   20.4960 H   0  0  0  0  0  0  0  0  0  0  0  0
  -26.2180  -15.6990   20.0480 H   0  0  0  0  0  0  0  0  0  0  0  0
  -30.5290  -23.8690   20.6740 C   0  0  0  0  0  2  0  0  0  0  0  0
  -30.9700  -22.4110   20.4240 C   0  0  0  0  0  2  0  0  0  0  0  0
  -28.6050  -22.4550   20.4180 C   0  0  0  0  0  2  0  0  0  0  0  0
  -29.0900  -23.9390   20.1520 C   0  0  0  0  0  3  0  0  0  0  0  0
  -29.7870  -21.5900   20.6730 N   0  0  0  0  0  0  0  0  0  0  0  0
  -28.1930  -25.1220   20.7300 C   0  0  0  0  0  2  0  0  0  0  0  0
  -28.4150  -26.5260   20.3090 O   0  0  0  0  0  0  0  0  0  0  0  0
  -24.6240  -31.9260   23.2530 C   0  0  0  0  0  0  0  0  0  0  0  0
  -27.2910  -27.3620   20.2690 C   0  0  0  0  0  0  0  0  0  0  0  0
  -23.4420  -30.5030   21.6180 C   0  0  0  0  0  3  0  0  0  0  0  0
  -24.9140  -28.9470   20.2230 C   0  0  0  0  0  0  0  0  0  0  0  0
  -25.9800  -30.8360   21.4540 C   0  0  0  0  0  2  0  0  0  0  0  0
  -26.0730  -29.4520   20.8250 C   0  0  0  0  0  0  0  0  0  0  0  0
  -27.2670  -28.6710   20.8400 C   0  0  0  0  0  3  0  0  0  0  0  0
  -26.1150  -26.9140   19.6290 C   0  0  0  0  0  3  0  0  0  0  0  0
  -24.9360  -27.6820   19.6160 C   0  0  0  0  0  3  0  0  0  0  0  0
  -23.6720  -29.8130   20.2480 C   0  0  0  0  0  2  0  0  0  0  0  0
  -24.7000  -31.1060   22.1650 N   0  0  0  0  0  0  0  0  0  0  0  0
  -23.5340  -32.2040   23.7740 O   0  0  0  0  0  0  0  0  0  0  0  0
  -22.7760  -29.4930   22.5820 C   0  0  0  0  0  0  0  0  0  0  0  0
  -21.4500  -29.3130   22.4480 N   0  0  0  0  0  0  0  0  0  0  0  0
  -23.4490  -28.8730   23.4090 O   0  0  0  0  0  0  0  0  0  0  0  0
  -20.9670  -29.8660   21.7530 H   0  0  0  0  0  0  0  0  0  0  0  0
  -18.0650  -28.1480   22.9580 C   0  0  0  0  0  0  0  0  0  0  0  0
  -20.6250  -28.3840   23.2210 C   0  0  0  0  0  3  0  0  0  0  0  0
  -20.7130  -26.9510   22.6460 C   0  0  0  0  0  2  0  0  0  0  0  0
  -19.6050  -26.6380   21.6350 C   0  0  0  0  0  2  0  0  0  0  0  0
  -18.2270  -26.7960   22.2820 C   0  0  0  0  0  2  0  0  0  0  0  0
  -19.1910  -28.9000   23.3850 C   0  0  0  0  0  0  0  0  0  0  0  0
  -18.9850  -30.1660   23.9770 C   0  0  0  0  0  3  0  0  0  0  0  0
  -17.6850  -30.6780   24.1460 C   0  0  0  0  0  3  0  0  0  0  0  0
  -16.5730  -29.9230   23.7360 C   0  0  0  0  0  3  0  0  0  0  0  0
  -16.7630  -28.6600   23.1490 C   0  0  0  0  0  3  0  0  0  0  0  0
  -25.8970  -32.5690   23.8810 C   0  0  0  0  0  3  0  0  0  0  0  0
  -26.4030  -31.8160   25.1730 C   0  0  1  0  0  0  0  0  0  0  0  0
  -25.2990  -31.5840   26.2310 C   0  0  0  0  0  1  0  0  0  0  0  0
  -26.9960  -30.4360   24.8040 C   0  0  0  0  0  1  0  0  0  0  0  0
  -27.5430  -32.6220   25.8380 C   0  0  0  0  0  1  0  0  0  0  0  0
  -25.5800  -33.9700   24.1910 N   0  0  0  0  0  0  0  0  0  0  0  0
  -25.9210  -35.0150   23.4260 C   0  0  0  0  0  0  0  0  0  0  0  0
  -26.6060  -34.9020   22.4050 O   0  0  0  0  0  0  0  0  0  0  0  0
  -24.9750  -34.1330   24.9830 H   0  0  0  0  0  0  0  0  0  0  0  0
  -24.2060  -36.8080   23.0140 C   0  0  0  0  0  1  0  0  0  0  0  0
  -25.4240  -36.4080   23.8600 C   0  0  0  0  0  3  0  0  0  0  0  0
  -27.5380  -37.2960   24.7400 C   0  0  0  0  0  1  0  0  0  0  0  0
  -26.4610  -37.4600   23.7670 N   0  0  0  0  0  0  0  0  0  0  0  0
  -26.0520  -38.3810   23.8980 H   0  0  0  0  0  0  0  0  0  0  0  0
  -31.5560  -20.0100   22.3270 N   0  0  0  0  0  0  0  0  0  0  0  0
  -31.7590  -19.5140   23.1870 H   0  0  0  0  0  0  0  0  0  0  0  0
  -31.2690  -20.9680   22.5010 H   0  0  0  0  0  0  0  0  0  0  0  0
  1  4  1  0
  2  6  1  0
  3  1  2  0
  3  5  1  0
  4 50  1  0
  4  6  2  0
  5 16  1  0
  5  2  2  0
  6 93  1  0
  7  3  1  0
  8 16  1  0
  9 14  1  0
 10 11  1  0
 10  9  1  0
 12 11  1  0
 12 21  1  0
 12 13  1  0
 14  8  1  0
 14 13  1  0
 15  8  2  0
 16 17  1  0
 18 19  2  0
 19 38  1  0
 20 19  1  0
 20 23  1  0
 21 18  1  0
 21 22  1  0
 22 20  2  0
 23 24  1  0
 24 25  2  0
 26 29  1  0
 26 25  1  0
 27 26  2  0
 28 27  1  0
 28 23  2  0
 29 30  1  0
 30 31  1  0
 31 32  2  0
 33 32  1  0
 33 37  1  0
 34 33  2  0
 35 30  2  0
 35 34  1  0
 36 35  1  0
 38 39  1  0
 39 42  1  0
 39 41  1  0
 40 38  2  0
 43 44  1  0
 43 18  1  0
 45 43  1  0
 47 50  1  0
 47 46  1  0
 48 50  1  0
 49 48  1  0
 49 46  1  0
 49 51  1  0
 52 51  1  0
 53 64  2  0
 54 52  1  0
 54 59  1  0
 55 63  1  0
 55 65  1  0
 56 62  1  0
 56 58  1  0
 57 63  1  0
 58 59  2  0
 58 57  1  0
 60 54  2  0
 61 60  1  0
 61 56  2  0
 62 55  1  0
 63 53  1  0
 65 67  2  0
 66 65  1  0
 68 66  1  0
 69 78  2  0
 69 74  1  0
 70 66  1  0
 70 74  1  0
 71 70  1  0
 72 73  1  0
 72 71  1  0
 73 69  1  0
 74 75  2  0
 75 76  1  0
 77 76  2  0
 78 77  1  0
 79 53  1  0
 79 84  1  0
 79 80  1  0
 80 83  1  1
 80 81  1  0
 82 80  1  0
 84 87  1  0
 85 89  1  0
 85 84  1  0
 86 85  2  0
 89 88  1  0
 91 89  1  0
 91 92  1  0
 91 90  1  0
 93 95  1  0
 93 94  1  0
M  ISO  4   8 100  16 100  51 101  52 101
M  END
>  <TORSDO>  (51) 
F 19

>  <SCORE>  (51) 
-14.999

>  <name>  (51) 
51

>  <ligand_id>  (51) 
51

>  <original_smiles>  (51) 
[H]c1c([H])c([H])c2c(c1[H])C([H])([H])C([H])([H])C([H])([H])C2([H])N([H])C(=O)C1([H])N(C(=O)C([H])(N([H])C(=O)C([H])(N([H])C([H])([H])[H])C([H])([H])[H])C(C([H])([H])[H])(C([H])([H])[H])C([H])([H])[H])C([H])([H])c2c([H])c(OC([H])([H])C3([H])C([H])([H])N(c4c([H])c(C([H])([H])[H])c(N([H])C(=O)N5C([H])([H])C([H])([H])C([H])([H])C([H])(n6nc(-c7c([H])c([H])c(Oc8c([H])c([H])c(F)c([H])c8F)c([H])c7[H])c(C(=O)N([H])[H])c6N([H])[H])C5([H])[H])c([H])c4N([H])[H])C([H])([H])C3([H])[H])c([H])c([H])c2C1([H])[H]

>  <smiles>  (51) 
[H]c1c([H])c([H])c2c(c1[H])C([H])([H])C([H])([H])C([H])([H])C2([H])N([H])C(=O)C1([H])N(C(=O)C([H])(N([H])C(=O)C([H])(N([H])C([H])([H])[H])C([H])([H])[H])C(C([H])([H])[H])(C([H])([H])[H])C([H])([H])[H])C([H])([H])c2c([H])c(OC([H])([H])C3([H])C([H])([H])N(c4c([H])c(C([H])([H])[H])c(N([H])C(=O)N5C([H])([H])C([H])([H])C([H])([H])C([H])(n6nc(-c7c([H])c([H])c(Oc8c([H])c([H])c(F)c([H])c8F)c([H])c7[H])c(C(=O)N([H])[H])c6N([H])[H])C5([H])[H])c([H])c4N([H])[H])C([H])([H])C3([H])[H])c([H])c([H])c2C1([H])[H]

$$$$
52:0:0
     RDKit          3D

 93101  0  0  1  0  0  0  0  0999 V2000
  -29.7440  -18.8380   19.4020 C   0  0  0  0  0  3  0  0  0  0  0  0
  -29.4240  -20.1910   19.0860 C   0  0  0  0  0  3  0  0  0  0  0  0
  -29.8940  -20.8640   21.3420 C   0  0  0  0  0  3  0  0  0  0  0  0
  -30.1800  -18.4550   20.6950 C   0  0  0  0  0  0  0  0  0  0  0  0
  -29.5110  -21.2520   20.0320 C   0  0  0  0  0  0  0  0  0  0  0  0
  -30.2270  -19.5070   21.6660 C   0  0  0  0  0  0  0  0  0  0  0  0
  -30.6100  -19.2320   22.9370 F   0  0  0  0  0  0  0  0  0  0  0  0
  -30.9720  -14.7750   20.0940 C   0  0  0  0  0  0  0  0  0  0  0  0
  -30.6050  -12.6040   18.9230 C   0  0  0  0  0  2  0  0  0  0  0  0
  -29.5860  -12.7460   17.7750 C   0  0  0  0  0  2  0  0  0  0  0  0
  -28.1480  -12.5890   18.3020 C   0  0  0  0  0  2  0  0  0  0  0  0
  -27.8760  -13.4440   19.5700 C   0  0  0  0  0  3  0  0  0  0  0  0
  -29.0000  -13.2790   20.6130 C   0  0  0  0  0  2  0  0  0  0  0  0
  -30.2590  -13.6170   19.9390 N   0  0  0  0  0  0  0  0  0  0  0  0
  -32.1500  -14.8270   19.7270 O   0  0  0  0  0  0  0  0  0  0  0  0
  -30.7850  -17.0600   20.9620 C   0  0  0  0  0  0  0  0  0  0  0  0
  -30.2770  -15.9210   20.3910 N   0  0  0  0  0  0  0  0  0  0  0  0
  -31.7520  -17.0020   21.7300 O   0  0  0  0  0  0  0  0  0  0  0  0
  -29.3110  -15.9490   20.1160 H   0  0  0  0  0  0  0  0  0  0  0  0
  -25.5530  -14.0680   20.4640 C   0  0  0  0  0  0  0  0  0  0  0  0
  -24.4930  -13.3050   20.8730 C   0  0  0  0  0  0  0  0  0  0  0  0
  -24.9210  -11.9450   20.7680 C   0  0  0  0  0  0  0  0  0  0  0  0
  -26.5580  -13.1730   20.1350 N   0  0  0  0  0  0  0  0  0  0  0  0
  -26.1890  -11.8900   20.3800 N   0  0  0  0  0  0  0  0  0  0  0  0
  -24.1790  -10.6920   20.9580 C   0  0  0  0  0  0  0  0  0  0  0  0
  -24.6060   -9.7100   21.8790 C   0  0  0  0  0  3  0  0  0  0  0  0
  -23.8620   -8.5230   22.0550 C   0  0  0  0  0  3  0  0  0  0  0  0
  -22.6790   -8.3100   21.3090 C   0  0  0  0  0  0  0  0  0  0  0  0
  -22.2720   -9.2790   20.3740 C   0  0  0  0  0  3  0  0  0  0  0  0
  -23.0170  -10.4570   20.1970 C   0  0  0  0  0  3  0  0  0  0  0  0
  -21.9070   -7.1760   21.3950 O   0  0  0  0  0  0  0  0  0  0  0  0
  -21.7950   -6.4700   22.5670 C   0  0  0  0  0  0  0  0  0  0  0  0
  -21.2840   -7.0570   23.7450 C   0  0  0  0  0  3  0  0  0  0  0  0
  -21.1190   -6.2760   24.9060 C   0  0  0  0  0  3  0  0  0  0  0  0
  -21.4580   -4.9100   24.8900 C   0  0  0  0  0  0  0  0  0  0  0  0
  -21.9630   -4.3220   23.7170 C   0  0  0  0  0  3  0  0  0  0  0  0
  -22.1280   -5.1000   22.5580 C   0  0  0  0  0  0  0  0  0  0  0  0
  -22.5950   -4.5250   21.4240 F   0  0  0  0  0  0  0  0  0  0  0  0
  -21.2930   -4.1570   26.0040 F   0  0  0  0  0  0  0  0  0  0  0  0
  -23.1260  -13.8020   21.2440 C   0  0  0  0  0  0  0  0  0  0  0  0
  -22.4380  -13.0980   22.1360 N   0  0  0  0  0  0  0  0  0  0  0  0
  -22.6800  -14.8490   20.7770 O   0  0  0  0  0  0  0  0  0  0  0  0
  -22.8110  -12.2490   22.5340 H   0  0  0  0  0  0  0  0  0  0  0  0
  -21.5250  -13.4160   22.4290 H   0  0  0  0  0  0  0  0  0  0  0  0
  -25.7350  -15.4400   20.3230 N   0  0  0  0  0  0  0  0  0  0  0  0
  -24.9820  -16.0990   20.4950 H   0  0  0  0  0  0  0  0  0  0  0  0
  -26.5560  -15.8730   19.9220 H   0  0  0  0  0  0  0  0  0  0  0  0
  -29.1980  -22.5900   19.6090 N   0  0  0  0  0  0  0  0  0  0  0  0
  -29.1060  -22.7130   18.6050 H   0  0  0  0  0  0  0  0  0  0  0  0
  -29.2840  -23.9020   20.3350 C   0  0  0  0  0  2  0  0  0  0  0  0
  -28.8420  -25.1720   18.1210 C   0  0  0  0  0  1  0  0  0  0  0  0
  -28.4920  -25.1040   19.6200 C   0  0  0  0  0  3  0  0  0  0  0  0
  -28.5720  -26.5130   20.1120 O   0  0  0  0  0  0  0  0  0  0  0  0
  -24.5990  -31.7380   23.1530 C   0  0  0  0  0  0  0  0  0  0  0  0
  -27.4410  -27.3540   20.0170 C   0  0  0  0  0  0  0  0  0  0  0  0
  -23.4900  -30.3340   21.4600 C   0  0  0  0  0  3  0  0  0  0  0  0
  -25.0250  -28.8990   20.0130 C   0  0  0  0  0  0  0  0  0  0  0  0
  -26.0200  -30.7560   21.3360 C   0  0  0  0  0  2  0  0  0  0  0  0
  -26.1640  -29.4000   20.6530 C   0  0  0  0  0  0  0  0  0  0  0  0
  -27.3720  -28.6350   20.6570 C   0  0  0  0  0  3  0  0  0  0  0  0
  -26.2820  -26.9380   19.3200 C   0  0  0  0  0  3  0  0  0  0  0  0
  -25.0860  -27.6730   19.3410 C   0  0  0  0  0  3  0  0  0  0  0  0
  -23.7550  -29.7210   20.0650 C   0  0  0  0  0  2  0  0  0  0  0  0
  -24.7210  -30.9620   22.0380 N   0  0  0  0  0  0  0  0  0  0  0  0
  -23.4950  -31.9560   23.6700 O   0  0  0  0  0  0  0  0  0  0  0  0
  -22.8550  -29.2600   22.3750 C   0  0  0  0  0  0  0  0  0  0  0  0
  -21.5380  -29.0410   22.2320 N   0  0  0  0  0  0  0  0  0  0  0  0
  -23.5500  -28.6280   23.1760 O   0  0  0  0  0  0  0  0  0  0  0  0
  -21.0360  -29.6050   21.5590 H   0  0  0  0  0  0  0  0  0  0  0  0
  -18.1960  -27.7290   22.6790 C   0  0  0  0  0  0  0  0  0  0  0  0
  -20.7460  -28.0520   22.9650 C   0  0  0  0  0  3  0  0  0  0  0  0
  -20.8880  -26.6460   22.3370 C   0  0  0  0  0  2  0  0  0  0  0  0
  -19.7970  -26.3300   21.3080 C   0  0  0  0  0  2  0  0  0  0  0  0
  -18.4120  -26.4120   21.9540 C   0  0  0  0  0  2  0  0  0  0  0  0
  -19.2930  -28.5060   23.1400 C   0  0  0  0  0  0  0  0  0  0  0  0
  -19.0340  -29.7370   23.7800 C   0  0  0  0  0  3  0  0  0  0  0  0
  -17.7150  -30.1940   23.9580 C   0  0  0  0  0  3  0  0  0  0  0  0
  -16.6340  -29.4130   23.5130 C   0  0  0  0  0  3  0  0  0  0  0  0
  -16.8770  -28.1820   22.8810 C   0  0  0  0  0  3  0  0  0  0  0  0
  -25.8420  -32.4060   23.8160 C   0  0  0  0  0  3  0  0  0  0  0  0
  -26.3480  -31.6390   25.0990 C   0  0  1  0  0  0  0  0  0  0  0  0
  -25.2350  -31.3580   26.1360 C   0  0  0  0  0  1  0  0  0  0  0  0
  -26.9860  -30.2840   24.7120 C   0  0  0  0  0  1  0  0  0  0  0  0
  -27.4550  -32.4630   25.7970 C   0  0  0  0  0  1  0  0  0  0  0  0
  -25.4750  -33.7890   24.1520 N   0  0  0  0  0  0  0  0  0  0  0  0
  -25.7680  -34.8560   23.3980 C   0  0  0  0  0  0  0  0  0  0  0  0
  -26.4440  -34.7820   22.3700 O   0  0  0  0  0  0  0  0  0  0  0  0
  -24.8750  -33.9140   24.9540 H   0  0  0  0  0  0  0  0  0  0  0  0
  -23.9680  -36.5760   23.0420 C   0  0  0  0  0  1  0  0  0  0  0  0
  -25.2230  -36.2220   23.8570 C   0  0  0  0  0  3  0  0  0  0  0  0
  -27.3160  -37.1980   24.6980 C   0  0  0  0  0  1  0  0  0  0  0  0
  -26.2130  -37.3170   23.7460 N   0  0  0  0  0  0  0  0  0  0  0  0
  -25.7680  -38.2220   23.8830 H   0  0  0  0  0  0  0  0  0  0  0  0
  1  4  1  0
  2  1  2  0
  2  5  1  0
  3  6  1  0
  4 16  1  0
  4  6  2  0
  5  3  2  0
  6  7  1  0
  8 17  1  0
  9 14  1  0
 10 11  1  0
 10  9  1  0
 12 11  1  0
 12 23  1  0
 12 13  1  0
 14  8  1  0
 14 13  1  0
 15  8  2  0
 16 18  2  0
 17 16  1  0
 19 17  1  0
 20 21  2  0
 21 40  1  0
 22 21  1  0
 22 25  1  0
 23 24  1  0
 23 20  1  0
 24 22  2  0
 25 26  1  0
 26 27  2  0
 28 31  1  0
 28 27  1  0
 29 28  2  0
 30 29  1  0
 30 25  2  0
 31 32  1  0
 32 33  1  0
 33 34  2  0
 35 34  1  0
 35 39  1  0
 36 35  2  0
 37 32  2  0
 37 36  1  0
 38 37  1  0
 40 41  1  0
 41 44  1  0
 41 43  1  0
 42 40  2  0
 45 20  1  0
 45 46  1  0
 47 45  1  0
 48  5  1  0
 48 50  1  0
 49 48  1  0
 52 51  1  0
 52 53  1  0
 52 50  1  0
 54 65  2  0
 55 53  1  0
 55 60  1  0
 56 64  1  0
 56 66  1  0
 57 63  1  0
 57 59  1  0
 58 64  1  0
 59 60  2  0
 59 58  1  0
 61 62  1  0
 61 55  2  0
 62 57  2  0
 63 56  1  0
 64 54  1  0
 66 68  2  0
 67 66  1  0
 69 67  1  0
 70 79  2  0
 70 75  1  0
 71 67  1  0
 71 75  1  0
 72 71  1  0
 73 74  1  0
 73 72  1  0
 74 70  1  0
 75 76  2  0
 76 77  1  0
 78 77  2  0
 79 78  1  0
 80 54  1  0
 80 85  1  0
 80 81  1  0
 81 84  1  1
 81 82  1  0
 83 81  1  0
 85 88  1  0
 86 90  1  0
 86 85  1  0
 87 86  2  0
 90 89  1  0
 92 90  1  0
 92 93  1  0
 92 91  1  0
M  ISO  4   8 100  17 100  52 101  53 101
M  END
>  <TORSDO>  (52) 
F 19

>  <SCORE>  (52) 
-13.483

>  <name>  (52) 
52

>  <ligand_id>  (52) 
52

>  <original_smiles>  (52) 
[H]c1c([H])c([H])c2c(c1[H])C([H])([H])C([H])([H])C([H])([H])C2([H])N([H])C(=O)C1([H])N(C(=O)C([H])(N([H])C(=O)C([H])(N([H])C([H])([H])[H])C([H])([H])[H])C(C([H])([H])[H])(C([H])([H])[H])C([H])([H])[H])C([H])([H])c2c([H])c(OC([H])(C([H])([H])[H])C([H])([H])N([H])c3c([H])c([H])c(C(=O)N([H])C(=O)N4C([H])([H])C([H])([H])C([H])([H])C([H])(n5nc(-c6c([H])c([H])c(Oc7c([H])c([H])c(F)c([H])c7F)c([H])c6[H])c(C(=O)N([H])[H])c5N([H])[H])C4([H])[H])c(F)c3[H])c([H])c([H])c2C1([H])[H]

>  <smiles>  (52) 
[H]c1c([H])c([H])c2c(c1[H])C([H])([H])C([H])([H])C([H])([H])C2([H])N([H])C(=O)C1([H])N(C(=O)C([H])(N([H])C(=O)C([H])(N([H])C([H])([H])[H])C([H])([H])[H])C(C([H])([H])[H])(C([H])([H])[H])C([H])([H])[H])C([H])([H])c2c([H])c(OC([H])(C([H])([H])[H])C([H])([H])N([H])c3c([H])c([H])c(C(=O)N([H])C(=O)N4C([H])([H])C([H])([H])C([H])([H])C([H])(n5nc(-c6c([H])c([H])c(Oc7c([H])c([H])c(F)c([H])c7F)c([H])c6[H])c(C(=O)N([H])[H])c5N([H])[H])C4([H])[H])c(F)c3[H])c([H])c([H])c2C1([H])[H]

$$$$
53:0:0
     RDKit          3D

 95103  0  0  1  0  0  0  0  0999 V2000
  -28.6210  -20.7070   19.0790 C   0  0  0  0  0  0  0  0  0  0  0  0
  -28.7070  -21.7270   19.9500 N   0  0  0  0  0  0  0  0  0  0  0  0
  -28.0910  -20.8280   17.9720 O   0  0  0  0  0  0  0  0  0  0  0  0
  -29.2410  -21.5920   20.7980 H   0  0  0  0  0  0  0  0  0  0  0  0
  -29.6470  -18.4730   18.5020 C   0  0  0  0  0  3  0  0  0  0  0  0
  -30.0290  -17.1570   18.8370 C   0  0  0  0  0  3  0  0  0  0  0  0
  -29.1640  -18.9430   20.8360 C   0  0  0  0  0  3  0  0  0  0  0  0
  -29.1940  -19.3740   19.4890 C   0  0  0  0  0  0  0  0  0  0  0  0
  -29.9520  -16.7100   20.1790 C   0  0  0  0  0  0  0  0  0  0  0  0
  -29.5310  -17.6230   21.1720 C   0  0  0  0  0  0  0  0  0  0  0  0
  -29.4420  -17.2160   22.4620 F   0  0  0  0  0  0  0  0  0  0  0  0
  -30.7670  -14.3850   19.8450 C   0  0  0  0  0  0  0  0  0  0  0  0
  -30.3310  -12.2700   18.6640 C   0  0  0  0  0  2  0  0  0  0  0  0
  -29.2770  -12.5420   17.5680 C   0  0  0  0  0  2  0  0  0  0  0  0
  -27.8520  -12.4110   18.1400 C   0  0  0  0  0  2  0  0  0  0  0  0
  -27.6600  -13.2050   19.4600 C   0  0  0  0  0  3  0  0  0  0  0  0
  -28.8120  -12.9140   20.4480 C   0  0  0  0  0  2  0  0  0  0  0  0
  -30.0860  -13.2100   19.7680 N   0  0  0  0  0  0  0  0  0  0  0  0
  -31.8190  -14.5960   19.2320 O   0  0  0  0  0  0  0  0  0  0  0  0
  -30.1660  -15.3500   20.5610 N   0  0  0  0  0  0  0  0  0  0  0  0
  -29.5240  -15.0200   21.2650 H   0  0  0  0  0  0  0  0  0  0  0  0
  -25.3560  -13.8350   20.4220 C   0  0  0  0  0  0  0  0  0  0  0  0
  -24.3110  -13.0680   20.8630 C   0  0  0  0  0  0  0  0  0  0  0  0
  -24.7340  -11.7100   20.7330 C   0  0  0  0  0  0  0  0  0  0  0  0
  -26.3530  -12.9420   20.0560 N   0  0  0  0  0  0  0  0  0  0  0  0
  -25.9860  -11.6590   20.2980 N   0  0  0  0  0  0  0  0  0  0  0  0
  -24.0010  -10.4550   20.9450 C   0  0  0  0  0  0  0  0  0  0  0  0
  -24.4760   -9.4650   21.8340 C   0  0  0  0  0  3  0  0  0  0  0  0
  -23.7450   -8.2750   22.0360 C   0  0  0  0  0  3  0  0  0  0  0  0
  -22.5270   -8.0640   21.3480 C   0  0  0  0  0  0  0  0  0  0  0  0
  -22.0700   -9.0430   20.4460 C   0  0  0  0  0  3  0  0  0  0  0  0
  -22.8000  -10.2250   20.2430 C   0  0  0  0  0  3  0  0  0  0  0  0
  -21.7640   -6.9270   21.4580 O   0  0  0  0  0  0  0  0  0  0  0  0
  -21.7270   -6.1960   22.6170 C   0  0  0  0  0  0  0  0  0  0  0  0
  -21.3350   -6.7690   23.8480 C   0  0  0  0  0  3  0  0  0  0  0  0
  -21.2450   -5.9650   25.0010 C   0  0  0  0  0  3  0  0  0  0  0  0
  -21.5370   -4.5900   24.9260 C   0  0  0  0  0  0  0  0  0  0  0  0
  -21.9220   -4.0160   23.7020 C   0  0  0  0  0  3  0  0  0  0  0  0
  -22.0140   -4.8160   22.5500 C   0  0  0  0  0  0  0  0  0  0  0  0
  -22.3640   -4.2560   21.3680 F   0  0  0  0  0  0  0  0  0  0  0  0
  -21.4430   -3.8160   26.0330 F   0  0  0  0  0  0  0  0  0  0  0  0
  -22.9580  -13.5600   21.2920 C   0  0  0  0  0  0  0  0  0  0  0  0
  -22.3130  -12.8510   22.2110 N   0  0  0  0  0  0  0  0  0  0  0  0
  -22.4860  -14.6050   20.8490 O   0  0  0  0  0  0  0  0  0  0  0  0
  -22.7040  -12.0000   22.5870 H   0  0  0  0  0  0  0  0  0  0  0  0
  -21.4120  -13.1650   22.5440 H   0  0  0  0  0  0  0  0  0  0  0  0
  -25.5370  -15.2080   20.2870 N   0  0  0  0  0  0  0  0  0  0  0  0
  -24.8100  -15.8760   20.5140 H   0  0  0  0  0  0  0  0  0  0  0  0
  -26.3750  -15.6470   19.9230 H   0  0  0  0  0  0  0  0  0  0  0  0
  -26.6160  -22.9090   20.4720 C   0  0  0  0  0  1  0  0  0  0  0  0
  -27.9990  -23.0110   19.8030 C   0  0  0  0  0  3  0  0  0  0  0  0
  -28.8110  -24.2160   20.3220 C   0  0  0  0  0  0  0  0  0  0  0  0
  -29.4470  -24.1700   21.3820 O   0  0  0  0  0  0  0  0  0  0  0  0
  -28.8250  -25.4950   19.4570 C   0  0  0  0  0  2  0  0  0  0  0  0
  -28.6120  -26.6840   20.2390 O   0  0  0  0  0  0  0  0  0  0  0  0
  -24.5410  -31.7330   23.1800 C   0  0  0  0  0  0  0  0  0  0  0  0
  -27.3900  -27.3320   20.2020 C   0  0  0  0  0  0  0  0  0  0  0  0
  -23.4130  -30.2790   21.5270 C   0  0  0  0  0  3  0  0  0  0  0  0
  -24.9430  -28.7710   20.1560 C   0  0  0  0  0  0  0  0  0  0  0  0
  -25.9340  -30.7090   21.3820 C   0  0  0  0  0  2  0  0  0  0  0  0
  -26.0730  -29.3320   20.7610 C   0  0  0  0  0  0  0  0  0  0  0  0
  -27.2940  -28.6190   20.7840 C   0  0  0  0  0  3  0  0  0  0  0  0
  -26.2270  -26.7740   19.6160 C   0  0  0  0  0  3  0  0  0  0  0  0
  -25.0140  -27.4880   19.5890 C   0  0  0  0  0  3  0  0  0  0  0  0
  -23.6760  -29.5960   20.1590 C   0  0  0  0  0  2  0  0  0  0  0  0
  -24.6470  -30.9220   22.0900 N   0  0  0  0  0  0  0  0  0  0  0  0
  -23.4400  -31.9820   23.6910 O   0  0  0  0  0  0  0  0  0  0  0  0
  -22.7700  -29.2490   22.4810 C   0  0  0  0  0  0  0  0  0  0  0  0
  -21.4550  -29.0250   22.3230 N   0  0  0  0  0  0  0  0  0  0  0  0
  -23.4510  -28.6540   23.3210 O   0  0  0  0  0  0  0  0  0  0  0  0
  -20.9640  -29.5550   21.6170 H   0  0  0  0  0  0  0  0  0  0  0  0
  -18.1120  -27.7260   22.7410 C   0  0  0  0  0  0  0  0  0  0  0  0
  -20.6500  -28.0710   23.0830 C   0  0  0  0  0  3  0  0  0  0  0  0
  -20.8180  -26.6380   22.5290 C   0  0  0  0  0  2  0  0  0  0  0  0
  -19.7590  -26.2680   21.4870 C   0  0  0  0  0  2  0  0  0  0  0  0
  -18.3540  -26.3760   22.0880 C   0  0  0  0  0  2  0  0  0  0  0  0
  -19.1920  -28.5300   23.1940 C   0  0  0  0  0  0  0  0  0  0  0  0
  -18.9170  -29.7940   23.7580 C   0  0  0  0  0  3  0  0  0  0  0  0
  -17.5920  -30.2550   23.8760 C   0  0  0  0  0  3  0  0  0  0  0  0
  -16.5250  -29.4490   23.4400 C   0  0  0  0  0  3  0  0  0  0  0  0
  -16.7870  -28.1860   22.8780 C   0  0  0  0  0  3  0  0  0  0  0  0
  -25.7950  -32.4060   23.8220 C   0  0  0  0  0  3  0  0  0  0  0  0
  -26.3140  -31.6540   25.1090 C   0  0  1  0  0  0  0  0  0  0  0  0
  -25.2100  -31.3830   26.1570 C   0  0  0  0  0  1  0  0  0  0  0  0
  -26.9490  -30.2970   24.7300 C   0  0  0  0  0  1  0  0  0  0  0  0
  -27.4250  -32.4890   25.7910 C   0  0  0  0  0  1  0  0  0  0  0  0
  -25.4370  -33.7940   24.1380 N   0  0  0  0  0  0  0  0  0  0  0  0
  -25.7370  -34.8500   23.3710 C   0  0  0  0  0  0  0  0  0  0  0  0
  -26.4180  -34.7610   22.3460 O   0  0  0  0  0  0  0  0  0  0  0  0
  -24.8340  -33.9340   24.9350 H   0  0  0  0  0  0  0  0  0  0  0  0
  -23.9470  -36.5740   22.9880 C   0  0  0  0  0  1  0  0  0  0  0  0
  -25.1970  -36.2240   23.8110 C   0  0  0  0  0  3  0  0  0  0  0  0
  -27.2940  -37.1940   24.6430 C   0  0  0  0  0  1  0  0  0  0  0  0
  -26.1920  -37.3130   23.6910 N   0  0  0  0  0  0  0  0  0  0  0  0
  -25.7520  -38.2190   23.8260 H   0  0  0  0  0  0  0  0  0  0  0  0
  1  8  1  0
  1  2  1  0
  2  4  1  0
  3  1  2  0
  5  6  2  0
  5  8  1  0
  6  9  1  0
  7 10  1  0
  8  7  2  0
  9 20  1  0
  9 10  2  0
 10 11  1  0
 12 20  1  0
 13 18  1  0
 14 15  1  0
 14 13  1  0
 16 15  1  0
 16 25  1  0
 16 17  1  0
 18 12  1  0
 18 17  1  0
 19 12  2  0
 20 21  1  0
 22 23  2  0
 23 42  1  0
 24 23  1  0
 24 27  1  0
 25 26  1  0
 25 22  1  0
 26 24  2  0
 27 28  1  0
 28 29  2  0
 30 33  1  0
 30 29  1  0
 31 30  2  0
 32 31  1  0
 32 27  2  0
 33 34  1  0
 34 35  1  0
 35 36  2  0
 37 36  1  0
 37 41  1  0
 38 37  2  0
 39 34  2  0
 39 38  1  0
 40 39  1  0
 42 43  1  0
 43 46  1  0
 43 45  1  0
 44 42  2  0
 47 22  1  0
 47 48  1  0
 49 47  1  0
 51  2  1  0
 51 52  1  0
 51 50  1  0
 52 53  2  0
 54 55  1  0
 54 52  1  0
 56 67  2  0
 57 55  1  0
 57 62  1  0
 58 66  1  0
 58 68  1  0
 59 65  1  0
 59 61  1  0
 60 66  1  0
 61 62  2  0
 61 60  1  0
 63 57  2  0
 64 63  1  0
 64 59  2  0
 65 58  1  0
 66 56  1  0
 68 70  2  0
 69 68  1  0
 71 69  1  0
 72 81  2  0
 72 77  1  0
 73 69  1  0
 73 77  1  0
 74 73  1  0
 75 76  1  0
 75 74  1  0
 76 72  1  0
 77 78  2  0
 78 79  1  0
 80 79  2  0
 81 80  1  0
 82 56  1  0
 82 87  1  0
 82 83  1  0
 83 86  1  1
 83 84  1  0
 85 83  1  0
 87 90  1  0
 88 92  1  0
 88 87  1  0
 89 88  2  0
 92 91  1  0
 94 92  1  0
 94 95  1  0
 94 93  1  0
M  ISO  4  12 100  20 100  54 101  55 101
M  END
>  <TORSDO>  (53) 
F 20

>  <SCORE>  (53) 
-12.977

>  <name>  (53) 
53

>  <ligand_id>  (53) 
53

>  <original_smiles>  (53) 
[H]c1c([H])c([H])c2c(c1[H])C([H])([H])C([H])([H])C([H])([H])C2([H])N([H])C(=O)C1([H])N(C(=O)C([H])(N([H])C(=O)C([H])(N([H])C([H])([H])[H])C([H])([H])[H])C(C([H])([H])[H])(C([H])([H])[H])C([H])([H])[H])C([H])([H])c2c([H])c(OC([H])([H])C(=O)C([H])(N([H])C(=O)c3c([H])c([H])c(N([H])C(=O)N4C([H])([H])C([H])([H])C([H])([H])C([H])(n5nc(-c6c([H])c([H])c(Oc7c([H])c([H])c(F)c([H])c7F)c([H])c6[H])c(C(=O)N([H])[H])c5N([H])[H])C4([H])[H])c(F)c3[H])C([H])([H])[H])c([H])c([H])c2C1([H])[H]

>  <smiles>  (53) 
[H]c1c([H])c([H])c2c(c1[H])C([H])([H])C([H])([H])C([H])([H])C2([H])N([H])C(=O)C1([H])N(C(=O)C([H])(N([H])C(=O)C([H])(N([H])C([H])([H])[H])C([H])([H])[H])C(C([H])([H])[H])(C([H])([H])[H])C([H])([H])[H])C([H])([H])c2c([H])c(OC([H])([H])C(=O)C([H])(N([H])C(=O)c3c([H])c([H])c(N([H])C(=O)N4C([H])([H])C([H])([H])C([H])([H])C([H])(n5nc(-c6c([H])c([H])c(Oc7c([H])c([H])c(F)c([H])c7F)c([H])c6[H])c(C(=O)N([H])[H])c5N([H])[H])C4([H])[H])c(F)c3[H])C([H])([H])[H])c([H])c([H])c2C1([H])[H]

$$$$
54:0:0
     RDKit          3D

 98106  0  0  1  0  0  0  0  0999 V2000
  -28.4110  -21.2260   20.0040 N   0  0  0  0  0  0  0  0  0  0  0  0
  -27.4030  -21.2470   19.8730 H   0  0  0  0  0  0  0  0  0  0  0  0
  -30.5600  -18.0100   20.3470 C   0  0  0  0  0  3  0  0  0  0  0  0
  -28.2260  -17.5030   20.5760 C   0  0  0  0  0  3  0  0  0  0  0  0
  -29.5560  -17.0130   20.5360 C   0  0  0  0  0  0  0  0  0  0  0  0
  -30.2350  -19.4070   20.1890 C   0  0  0  0  0  0  0  0  0  0  0  0
  -28.8820  -19.8760   20.2190 C   0  0  0  0  0  0  0  0  0  0  0  0
  -27.8960  -18.8730   20.4090 C   0  0  0  0  0  0  0  0  0  0  0  0
  -26.5890  -19.2380   20.4240 F   0  0  0  0  0  0  0  0  0  0  0  0
  -30.5610  -14.6000   20.1650 C   0  0  0  0  0  0  0  0  0  0  0  0
  -30.3860  -12.3730   19.0510 C   0  0  0  0  0  2  0  0  0  0  0  0
  -29.3890  -12.5080   17.8770 C   0  0  0  0  0  2  0  0  0  0  0  0
  -27.9320  -12.3310   18.3540 C   0  0  0  0  0  2  0  0  0  0  0  0
  -27.6150  -13.1650   19.6210 C   0  0  0  0  0  3  0  0  0  0  0  0
  -28.7100  -12.9630   20.6920 C   0  0  0  0  0  2  0  0  0  0  0  0
  -29.9960  -13.3500   20.0880 N   0  0  0  0  0  0  0  0  0  0  0  0
  -31.6800  -14.8320   19.6980 O   0  0  0  0  0  0  0  0  0  0  0  0
  -29.7340  -15.5620   20.6930 N   0  0  0  0  0  0  0  0  0  0  0  0
  -28.9380  -15.1170   21.1240 H   0  0  0  0  0  0  0  0  0  0  0  0
  -25.2440  -13.7500   20.4240 C   0  0  0  0  0  0  0  0  0  0  0  0
  -24.1970  -12.9680   20.8300 C   0  0  0  0  0  0  0  0  0  0  0  0
  -24.6670  -11.6200   20.7720 C   0  0  0  0  0  0  0  0  0  0  0  0
  -26.2840  -12.8770   20.1460 N   0  0  0  0  0  0  0  0  0  0  0  0
  -25.9440  -11.5900   20.4140 N   0  0  0  0  0  0  0  0  0  0  0  0
  -23.9570  -10.3510   20.9760 C   0  0  0  0  0  0  0  0  0  0  0  0
  -24.3960   -9.4030   21.9270 C   0  0  0  0  0  3  0  0  0  0  0  0
  -23.6830   -8.1990   22.1170 C   0  0  0  0  0  3  0  0  0  0  0  0
  -22.5190   -7.9340   21.3570 C   0  0  0  0  0  0  0  0  0  0  0  0
  -22.0990   -8.8730   20.3970 C   0  0  0  0  0  3  0  0  0  0  0  0
  -22.8120  -10.0670   20.2040 C   0  0  0  0  0  3  0  0  0  0  0  0
  -21.7760   -6.7820   21.4570 O   0  0  0  0  0  0  0  0  0  0  0  0
  -21.6810   -6.0890   22.6380 C   0  0  0  0  0  0  0  0  0  0  0  0
  -21.1770   -6.6840   23.8140 C   0  0  0  0  0  3  0  0  0  0  0  0
  -21.0320   -5.9150   24.9860 C   0  0  0  0  0  3  0  0  0  0  0  0
  -21.3800   -4.5520   24.9810 C   0  0  0  0  0  0  0  0  0  0  0  0
  -21.8780   -3.9550   23.8100 C   0  0  0  0  0  3  0  0  0  0  0  0
  -22.0260   -4.7220   22.6400 C   0  0  0  0  0  0  0  0  0  0  0  0
  -22.4860   -4.1370   21.5070 F   0  0  0  0  0  0  0  0  0  0  0  0
  -21.2330   -3.8100   26.1040 F   0  0  0  0  0  0  0  0  0  0  0  0
  -22.8070  -13.4330   21.1570 C   0  0  0  0  0  0  0  0  0  0  0  0
  -22.1200  -12.7330   22.0520 N   0  0  0  0  0  0  0  0  0  0  0  0
  -22.3400  -14.4530   20.6510 O   0  0  0  0  0  0  0  0  0  0  0  0
  -22.5090  -11.9040   22.4780 H   0  0  0  0  0  0  0  0  0  0  0  0
  -21.1910  -13.0260   22.3150 H   0  0  0  0  0  0  0  0  0  0  0  0
  -25.3940  -15.1230   20.2440 N   0  0  0  0  0  0  0  0  0  0  0  0
  -24.6140  -15.7630   20.3470 H   0  0  0  0  0  0  0  0  0  0  0  0
  -26.2000  -15.5500   19.8080 H   0  0  0  0  0  0  0  0  0  0  0  0
  -31.2610  -20.3230   19.9580 N   0  0  0  0  0  0  0  0  0  0  0  0
  -32.1920  -20.1010   20.2900 H   0  0  0  0  0  0  0  0  0  0  0  0
  -31.0070  -21.2970   20.0860 H   0  0  0  0  0  0  0  0  0  0  0  0
  -28.9290  -22.5520   20.4820 C   0  0  0  0  0  3  0  0  0  0  0  0
  -27.9830  -23.8050   20.1150 C   0  0  0  0  0  0  0  0  0  0  0  0
  -26.7760  -23.7600   20.3770 O   0  0  0  0  0  0  0  0  0  0  0  0
  -28.5550  -25.1030   19.4130 C   0  0  0  0  0  2  0  0  0  0  0  0
  -28.3970  -26.3980   20.1110 O   0  0  0  0  0  0  0  0  0  0  0  0
  -24.6020  -31.7030   23.1300 C   0  0  0  0  0  0  0  0  0  0  0  0
  -27.2470  -27.1960   20.0330 C   0  0  0  0  0  0  0  0  0  0  0  0
  -23.4080  -30.3140   21.4730 C   0  0  0  0  0  3  0  0  0  0  0  0
  -24.8690  -28.7820   20.0310 C   0  0  0  0  0  0  0  0  0  0  0  0
  -25.9410  -30.6520   21.2960 C   0  0  0  0  0  2  0  0  0  0  0  0
  -26.0280  -29.2800   20.6360 C   0  0  0  0  0  0  0  0  0  0  0  0
  -27.2160  -28.4940   20.6320 C   0  0  0  0  0  3  0  0  0  0  0  0
  -26.0620  -26.7390   19.4140 C   0  0  0  0  0  3  0  0  0  0  0  0
  -24.8870  -27.5200   19.4140 C   0  0  0  0  0  3  0  0  0  0  0  0
  -23.6260  -29.6500   20.0860 C   0  0  0  0  0  2  0  0  0  0  0  0
  -24.6690  -30.9070   22.0240 N   0  0  0  0  0  0  0  0  0  0  0  0
  -23.5170  -31.9700   23.6680 O   0  0  0  0  0  0  0  0  0  0  0  0
  -22.7480  -29.2880   22.4240 C   0  0  0  0  0  0  0  0  0  0  0  0
  -21.4200  -29.1250   22.3080 N   0  0  0  0  0  0  0  0  0  0  0  0
  -23.4300  -28.6400   23.2220 O   0  0  0  0  0  0  0  0  0  0  0  0
  -20.9320  -29.6980   21.6360 H   0  0  0  0  0  0  0  0  0  0  0  0
  -18.0280  -27.9900   22.8520 C   0  0  0  0  0  0  0  0  0  0  0  0
  -20.5960  -28.1830   23.0690 C   0  0  0  0  0  3  0  0  0  0  0  0
  -20.6530  -26.7690   22.4470 C   0  0  0  0  0  2  0  0  0  0  0  0
  -19.5210  -26.5030   21.4500 C   0  0  0  0  0  2  0  0  0  0  0  0
  -18.1580  -26.6570   22.1330 C   0  0  0  0  0  2  0  0  0  0  0  0
  -19.1740  -28.7140   23.2770 C   0  0  0  0  0  0  0  0  0  0  0  0
  -18.9980  -29.9630   23.9100 C   0  0  0  0  0  3  0  0  0  0  0  0
  -17.7110  -30.4870   24.1270 C   0  0  0  0  0  3  0  0  0  0  0  0
  -16.5790  -29.7590   23.7200 C   0  0  0  0  0  3  0  0  0  0  0  0
  -16.7380  -28.5140   23.0850 C   0  0  0  0  0  3  0  0  0  0  0  0
  -25.8810  -32.3370   23.7600 C   0  0  0  0  0  3  0  0  0  0  0  0
  -25.5610  -33.7290   24.1060 N   0  0  0  0  0  0  0  0  0  0  0  0
  -25.8850  -34.7960   23.3610 C   0  0  0  0  0  0  0  0  0  0  0  0
  -26.5510  -34.7100   22.3250 O   0  0  0  0  0  0  0  0  0  0  0  0
  -24.9630  -33.8660   24.9060 H   0  0  0  0  0  0  0  0  0  0  0  0
  -24.1380  -36.5820   23.0380 C   0  0  0  0  0  1  0  0  0  0  0  0
  -25.3890  -36.1760   23.8350 C   0  0  0  0  0  3  0  0  0  0  0  0
  -27.5220  -37.0730   24.6620 C   0  0  0  0  0  1  0  0  0  0  0  0
  -26.4130  -37.2380   23.7260 N   0  0  0  0  0  0  0  0  0  0  0  0
  -26.0000  -38.1550   23.8840 H   0  0  0  0  0  0  0  0  0  0  0  0
  -26.3970  -31.5570   25.0290 C   0  0  1  0  0  0  0  0  0  0  0  0
  -25.3000  -31.3020   26.0900 C   0  0  0  0  0  1  0  0  0  0  0  0
  -26.9910  -30.1870   24.6260 C   0  0  0  0  0  1  0  0  0  0  0  0
  -27.5370  -32.3530   25.7070 C   0  0  0  0  0  1  0  0  0  0  0  0
  -29.1040  -22.5030   22.0210 C   0  0  0  0  0  2  0  0  0  0  0  0
  -29.4270  -23.7540   24.2220 C   0  0  0  0  0  1  0  0  0  0  0  0
  -29.4960  -23.8340   22.6930 C   0  0  0  0  0  2  0  0  0  0  0  0
  1  7  1  0
  1 51  1  0
  2  1  1  0
  3  5  1  0
  5  4  2  0
  5 18  1  0
  6  7  1  0
  6  3  2  0
  7  8  2  0
  8  9  1  0
  8  4  1  0
 10 18  1  0
 11 16  1  0
 12 13  1  0
 12 11  1  0
 14 13  1  0
 14 23  1  0
 14 15  1  0
 16 10  1  0
 16 15  1  0
 17 10  2  0
 18 19  1  0
 20 21  2  0
 21 40  1  0
 22 21  1  0
 22 25  1  0
 23 24  1  0
 23 20  1  0
 24 22  2  0
 25 26  1  0
 26 27  2  0
 28 31  1  0
 28 27  1  0
 29 28  2  0
 30 29  1  0
 30 25  2  0
 31 32  1  0
 32 37  2  0
 32 33  1  0
 33 34  2  0
 35 34  1  0
 35 39  1  0
 36 35  2  0
 37 36  1  0
 38 37  1  0
 40 41  1  0
 41 44  1  0
 41 43  1  0
 42 40  2  0
 45 46  1  0
 45 20  1  0
 47 45  1  0
 48 50  1  0
 48  6  1  0
 48 49  1  0
 51 96  1  0
 52 53  2  0
 52 51  1  0
 54 55  1  0
 54 52  1  0
 56 67  2  0
 57 55  1  0
 57 62  1  0
 58 66  1  0
 58 68  1  0
 59 65  1  0
 59 61  1  0
 60 66  1  0
 61 60  1  0
 62 61  2  0
 63 57  2  0
 64 63  1  0
 64 59  2  0
 65 58  1  0
 66 56  1  0
 68 70  2  0
 69 68  1  0
 71 69  1  0
 72 81  2  0
 72 77  1  0
 73 69  1  0
 73 77  1  0
 74 73  1  0
 75 76  1  0
 75 74  1  0
 76 72  1  0
 77 78  2  0
 78 79  1  0
 80 79  2  0
 81 80  1  0
 82 56  1  0
 82 83  1  0
 82 92  1  0
 83 86  1  0
 84 88  1  0
 84 83  1  0
 85 84  2  0
 88 87  1  0
 90 88  1  0
 90 91  1  0
 90 89  1  0
 92 95  1  1
 92 93  1  0
 94 92  1  0
 96 98  1  0
 98 97  1  0
M  ISO  4  10 100  18 100  54 101  55 101
M  END
>  <TORSDO>  (54) 
F 23

>  <SCORE>  (54) 
-12.173

>  <name>  (54) 
54

>  <ligand_id>  (54) 
54

>  <original_smiles>  (54) 
[H]c1c([H])c([H])c2c(c1[H])C([H])([H])C([H])([H])C([H])([H])C2([H])N([H])C(=O)C1([H])N(C(=O)C([H])(N([H])C(=O)C([H])(N([H])C([H])([H])[H])C([H])([H])[H])C(C([H])([H])[H])(C([H])([H])[H])C([H])([H])[H])C([H])([H])c2c([H])c(OC([H])([H])C(=O)C([H])(N([H])c3c(F)c([H])c(N([H])C(=O)N4C([H])([H])C([H])([H])C([H])([H])C([H])(n5nc(-c6c([H])c([H])c(Oc7c([H])c([H])c(F)c([H])c7F)c([H])c6[H])c(C(=O)N([H])[H])c5N([H])[H])C4([H])[H])c([H])c3N([H])[H])C([H])([H])C([H])([H])C([H])([H])[H])c([H])c([H])c2C1([H])[H]

>  <smiles>  (54) 
[H]c1c([H])c([H])c2c(c1[H])C([H])([H])C([H])([H])C([H])([H])C2([H])N([H])C(=O)C1([H])N(C(=O)C([H])(N([H])C(=O)C([H])(N([H])C([H])([H])[H])C([H])([H])[H])C(C([H])([H])[H])(C([H])([H])[H])C([H])([H])[H])C([H])([H])c2c([H])c(OC([H])([H])C(=O)C([H])(N([H])c3c(F)c([H])c(N([H])C(=O)N4C([H])([H])C([H])([H])C([H])([H])C([H])(n5nc(-c6c([H])c([H])c(Oc7c([H])c([H])c(F)c([H])c7F)c([H])c6[H])c(C(=O)N([H])[H])c5N([H])[H])C4([H])[H])c([H])c3N([H])[H])C([H])([H])C([H])([H])C([H])([H])[H])c([H])c([H])c2C1([H])[H]

$$$$
55:0:0
     RDKit          3D

 96105  0  0  1  0  0  0  0  0999 V2000
  -29.1080  -18.8580   20.9120 C   0  0  0  0  0  3  0  0  0  0  0  0
  -31.4320  -19.0910   20.2770 C   0  0  0  0  0  3  0  0  0  0  0  0
  -30.4000  -18.2880   20.8130 C   0  0  0  0  0  0  0  0  0  0  0  0
  -28.8540  -20.2000   20.5010 C   0  0  0  0  0  0  0  0  0  0  0  0
  -29.8990  -21.0100   19.9770 C   0  0  0  0  0  0  0  0  0  0  0  0
  -31.1910  -20.4250   19.8740 C   0  0  0  0  0  0  0  0  0  0  0  0
  -27.4410  -20.7470   20.6200 C   0  0  0  0  0  1  0  0  0  0  0  0
  -29.3820  -24.6620   19.0910 C   0  0  0  0  0  0  0  0  0  0  0  0
  -29.0970  -25.9930   19.1530 C   0  0  0  0  0  3  0  0  0  0  0  0
  -29.7110  -23.9920   17.7740 C   0  0  0  0  0  2  0  0  0  0  0  0
  -29.4100  -23.5750   20.1750 C   0  0  0  0  0  2  0  0  0  0  0  0
  -29.5560  -22.4890   18.0170 C   0  0  0  0  0  2  0  0  0  0  0  0
  -29.6860  -22.3180   19.4540 N   0  0  0  0  0  0  0  0  0  0  0  0
  -28.7590  -26.7570   20.2540 O   0  0  0  0  0  0  0  0  0  0  0  0
  -24.6600  -31.8390   23.2170 C   0  0  0  0  0  0  0  0  0  0  0  0
  -27.6000  -27.5190   20.1810 C   0  0  0  0  0  0  0  0  0  0  0  0
  -23.5870  -30.4350   21.4890 C   0  0  0  0  0  3  0  0  0  0  0  0
  -25.1610  -28.9770   20.1070 C   0  0  0  0  0  0  0  0  0  0  0  0
  -26.1110  -30.8700   21.4300 C   0  0  0  0  0  2  0  0  0  0  0  0
  -26.2760  -29.5150   20.7650 C   0  0  0  0  0  0  0  0  0  0  0  0
  -27.4970  -28.7910   20.8030 C   0  0  0  0  0  3  0  0  0  0  0  0
  -26.4570  -27.0020   19.5290 C   0  0  0  0  0  3  0  0  0  0  0  0
  -25.2470  -27.7210   19.4870 C   0  0  0  0  0  3  0  0  0  0  0  0
  -23.8910  -29.7980   20.1080 C   0  0  0  0  0  2  0  0  0  0  0  0
  -24.8010  -31.0630   22.1050 N   0  0  0  0  0  0  0  0  0  0  0  0
  -23.5430  -32.0650   23.7050 O   0  0  0  0  0  0  0  0  0  0  0  0
  -22.9200  -29.3730   22.3920 C   0  0  0  0  0  0  0  0  0  0  0  0
  -21.5980  -29.1920   22.2320 N   0  0  0  0  0  0  0  0  0  0  0  0
  -23.5900  -28.7160   23.1940 O   0  0  0  0  0  0  0  0  0  0  0  0
  -21.1190  -29.7760   21.5620 H   0  0  0  0  0  0  0  0  0  0  0  0
  -18.2080  -28.0200   22.6790 C   0  0  0  0  0  0  0  0  0  0  0  0
  -20.7720  -28.2190   22.9470 C   0  0  0  0  0  3  0  0  0  0  0  0
  -20.8460  -26.8260   22.2810 C   0  0  0  0  0  2  0  0  0  0  0  0
  -19.7320  -26.5880   21.2560 C   0  0  0  0  0  2  0  0  0  0  0  0
  -18.3580  -26.7140   21.9180 C   0  0  0  0  0  2  0  0  0  0  0  0
  -19.3420  -28.7350   23.1490 C   0  0  0  0  0  0  0  0  0  0  0  0
  -19.1490  -29.9610   23.8210 C   0  0  0  0  0  3  0  0  0  0  0  0
  -17.8540  -30.4720   24.0290 C   0  0  0  0  0  3  0  0  0  0  0  0
  -16.7340  -29.7530   23.5750 C   0  0  0  0  0  3  0  0  0  0  0  0
  -16.9120  -28.5290   22.9060 C   0  0  0  0  0  3  0  0  0  0  0  0
  -25.8900  -32.4990   23.9160 C   0  0  0  0  0  3  0  0  0  0  0  0
  -26.3360  -31.7460   25.2280 C   0  0  1  0  0  0  0  0  0  0  0  0
  -25.1800  -31.4940   26.2250 C   0  0  0  0  0  1  0  0  0  0  0  0
  -26.9700  -30.3770   24.8860 C   0  0  0  0  0  1  0  0  0  0  0  0
  -27.4250  -32.5670   25.9580 C   0  0  0  0  0  1  0  0  0  0  0  0
  -25.5360  -33.8940   24.2110 N   0  0  0  0  0  0  0  0  0  0  0  0
  -25.9020  -34.9450   23.4650 C   0  0  0  0  0  0  0  0  0  0  0  0
  -26.6430  -34.8440   22.4830 O   0  0  0  0  0  0  0  0  0  0  0  0
  -24.8850  -34.0440   24.9670 H   0  0  0  0  0  0  0  0  0  0  0  0
  -24.1830  -36.7110   22.9630 C   0  0  0  0  0  1  0  0  0  0  0  0
  -25.3600  -36.3280   23.8740 C   0  0  0  0  0  3  0  0  0  0  0  0
  -27.4020  -37.2530   24.8750 C   0  0  0  0  0  1  0  0  0  0  0  0
  -26.3840  -37.3950   23.8380 N   0  0  0  0  0  0  0  0  0  0  0  0
  -25.9540  -38.3100   23.9400 H   0  0  0  0  0  0  0  0  0  0  0  0
  -32.2450  -21.1900   19.3760 N   0  0  0  0  0  0  0  0  0  0  0  0
  -32.9210  -20.7140   18.7890 H   0  0  0  0  0  0  0  0  0  0  0  0
  -31.9080  -22.0530   18.9600 H   0  0  0  0  0  0  0  0  0  0  0  0
  -30.7440  -16.9070   21.4220 C   0  0  0  0  0  2  0  0  0  0  0  0
  -30.7330  -14.6900   20.2150 C   0  0  0  0  0  0  0  0  0  0  0  0
  -30.3570  -12.6080   18.9310 C   0  0  0  0  0  2  0  0  0  0  0  0
  -29.3460  -12.8680   17.7970 C   0  0  0  0  0  2  0  0  0  0  0  0
  -27.9020  -12.6920   18.3050 C   0  0  0  0  0  2  0  0  0  0  0  0
  -27.6370  -13.4500   19.6330 C   0  0  0  0  0  3  0  0  0  0  0  0
  -28.7560  -13.1790   20.6630 C   0  0  0  0  0  2  0  0  0  0  0  0
  -30.0370  -13.5330   20.0320 N   0  0  0  0  0  0  0  0  0  0  0  0
  -31.8470  -14.8720   19.7160 O   0  0  0  0  0  0  0  0  0  0  0  0
  -30.1030  -15.6830   20.8870 N   0  0  0  0  0  0  0  0  0  0  0  0
  -29.1670  -15.4860   21.2040 H   0  0  0  0  0  0  0  0  0  0  0  0
  -25.2710  -14.0000   20.4760 C   0  0  0  0  0  0  0  0  0  0  0  0
  -24.2320  -13.2010   20.8750 C   0  0  0  0  0  0  0  0  0  0  0  0
  -24.7100  -11.8580   20.7880 C   0  0  0  0  0  0  0  0  0  0  0  0
  -26.3140  -13.1400   20.1720 N   0  0  0  0  0  0  0  0  0  0  0  0
  -25.9850  -11.8460   20.4180 N   0  0  0  0  0  0  0  0  0  0  0  0
  -24.0110  -10.5810   20.9780 C   0  0  0  0  0  0  0  0  0  0  0  0
  -24.4660   -9.6210   21.9090 C   0  0  0  0  0  3  0  0  0  0  0  0
  -23.7660   -8.4090   22.0860 C   0  0  0  0  0  3  0  0  0  0  0  0
  -22.5970   -8.1470   21.3340 C   0  0  0  0  0  0  0  0  0  0  0  0
  -22.1620   -9.0960   20.3920 C   0  0  0  0  0  3  0  0  0  0  0  0
  -22.8630  -10.3000   20.2120 C   0  0  0  0  0  3  0  0  0  0  0  0
  -21.8670   -6.9860   21.4210 O   0  0  0  0  0  0  0  0  0  0  0  0
  -21.7980   -6.2660   22.5870 C   0  0  0  0  0  0  0  0  0  0  0  0
  -21.2810   -6.8210   23.7770 C   0  0  0  0  0  3  0  0  0  0  0  0
  -21.1640   -6.0240   24.9340 C   0  0  0  0  0  3  0  0  0  0  0  0
  -21.5530   -4.6720   24.9000 C   0  0  0  0  0  0  0  0  0  0  0  0
  -22.0640   -4.1150   23.7140 C   0  0  0  0  0  3  0  0  0  0  0  0
  -22.1820   -4.9100   22.5600 C   0  0  0  0  0  0  0  0  0  0  0  0
  -22.6550   -4.3620   21.4140 F   0  0  0  0  0  0  0  0  0  0  0  0
  -21.4340   -3.9040   26.0080 F   0  0  0  0  0  0  0  0  0  0  0  0
  -22.8430  -13.6510   21.2250 C   0  0  0  0  0  0  0  0  0  0  0  0
  -22.1640  -12.9190   22.1020 N   0  0  0  0  0  0  0  0  0  0  0  0
  -22.3690  -14.6850   20.7560 O   0  0  0  0  0  0  0  0  0  0  0  0
  -22.5610  -12.0820   22.5010 H   0  0  0  0  0  0  0  0  0  0  0  0
  -21.2340  -13.2010   22.3770 H   0  0  0  0  0  0  0  0  0  0  0  0
  -25.4090  -15.3760   20.3260 N   0  0  0  0  0  0  0  0  0  0  0  0
  -24.6380  -16.0160   20.4830 H   0  0  0  0  0  0  0  0  0  0  0  0
  -26.2330  -15.8330   19.9580 H   0  0  0  0  0  0  0  0  0  0  0  0
  2  3  2  0
  3  1  1  0
  3 58  1  0
  4  7  1  0
  4  1  2  0
  5  4  1  0
  6  5  2  0
  6  2  1  0
  8  9  2  0
  8 11  1  0
  9 14  1  0
 10 12  1  0
 10  8  1  0
 12 13  1  0
 13  5  1  0
 13 11  1  0
 15 26  2  0
 16 14  1  0
 16 21  1  0
 17 25  1  0
 17 27  1  0
 18 24  1  0
 18 20  1  0
 19 25  1  0
 20 21  2  0
 20 19  1  0
 22 16  2  0
 23 22  1  0
 23 18  2  0
 24 17  1  0
 25 15  1  0
 27 29  2  0
 28 27  1  0
 30 28  1  0
 31 40  2  0
 31 36  1  0
 32 28  1  0
 32 36  1  0
 33 32  1  0
 34 35  1  0
 34 33  1  0
 35 31  1  0
 36 37  2  0
 37 38  1  0
 39 38  2  0
 40 39  1  0
 41 15  1  0
 41 46  1  0
 41 42  1  0
 42 45  1  1
 42 43  1  0
 44 42  1  0
 46 49  1  0
 47 51  1  0
 47 46  1  0
 48 47  2  0
 51 50  1  0
 53 51  1  0
 53 54  1  0
 53 52  1  0
 55  6  1  0
 56 55  1  0
 57 55  1  0
 59 67  1  0
 60 65  1  0
 61 62  1  0
 61 60  1  0
 63 62  1  0
 63 72  1  0
 63 64  1  0
 65 59  1  0
 65 64  1  0
 66 59  2  0
 67 68  1  0
 67 58  1  0
 69 70  2  0
 70 89  1  0
 71 70  1  0
 71 74  1  0
 72 73  1  0
 72 69  1  0
 73 71  2  0
 74 75  1  0
 75 76  2  0
 77 80  1  0
 77 76  1  0
 78 77  2  0
 79 78  1  0
 79 74  2  0
 80 81  1  0
 81 82  1  0
 82 83  2  0
 84 83  1  0
 84 88  1  0
 85 84  2  0
 86 81  2  0
 86 85  1  0
 87 86  1  0
 89 90  1  0
 90 93  1  0
 90 92  1  0
 91 89  2  0
 94 69  1  0
 94 95  1  0
 96 94  1  0
M  ISO  4   9 101  14 101  59 100  67 100
M  END
>  <TORSDO>  (55) 
F 19

>  <SCORE>  (55) 
-13.886

>  <name>  (55) 
55

>  <ligand_id>  (55) 
55

>  <original_smiles>  (55) 
[H]C(Oc1c([H])c([H])c2c(c1[H])C([H])([H])N(C(=O)C([H])(N([H])C(=O)C([H])(N([H])C([H])([H])[H])C([H])([H])[H])C(C([H])([H])[H])(C([H])([H])[H])C([H])([H])[H])C([H])(C(=O)N([H])C1([H])c3c([H])c([H])c([H])c([H])c3C([H])([H])C([H])([H])C1([H])[H])C2([H])[H])=C1C([H])([H])N(c2c(N([H])[H])c([H])c(C([H])([H])N([H])C(=O)N3C([H])([H])C([H])([H])C([H])([H])C([H])(n4nc(-c5c([H])c([H])c(Oc6c([H])c([H])c(F)c([H])c6F)c([H])c5[H])c(C(=O)N([H])[H])c4N([H])[H])C3([H])[H])c([H])c2C([H])([H])[H])C([H])([H])C1([H])[H]

>  <smiles>  (55) 
[H]C(Oc1c([H])c([H])c2c(c1[H])C([H])([H])N(C(=O)C([H])(N([H])C(=O)C([H])(N([H])C([H])([H])[H])C([H])([H])[H])C(C([H])([H])[H])(C([H])([H])[H])C([H])([H])[H])C([H])(C(=O)N([H])C1([H])c3c([H])c([H])c([H])c([H])c3C([H])([H])C([H])([H])C1([H])[H])C2([H])[H])=C1C([H])([H])N(c2c(N([H])[H])c([H])c(C([H])([H])N([H])C(=O)N3C([H])([H])C([H])([H])C([H])([H])C([H])(n4nc(-c5c([H])c([H])c(Oc6c([H])c([H])c(F)c([H])c6F)c([H])c5[H])c(C(=O)N([H])[H])c4N([H])[H])C3([H])[H])c([H])c2C([H])([H])[H])C([H])([H])C1([H])[H]

$$$$
56:0:0
     RDKit          3D

 98107  0  0  1  0  0  0  0  0999 V2000
  -30.7120  -19.0510   22.4980 C   0  0  0  0  0  3  0  0  0  0  0  0
  -29.1580  -19.9930   20.3820 C   0  0  0  0  0  3  0  0  0  0  0  0
  -30.5200  -18.2110   21.3850 C   0  0  0  0  0  0  0  0  0  0  0  0
  -29.3750  -20.8530   21.4920 C   0  0  0  0  0  0  0  0  0  0  0  0
  -29.7270  -18.6960   20.3100 C   0  0  0  0  0  0  0  0  0  0  0  0
  -30.1720  -20.3470   22.5570 C   0  0  0  0  0  0  0  0  0  0  0  0
  -30.4690  -21.0950   23.6470 F   0  0  0  0  0  0  0  0  0  0  0  0
  -28.1330  -25.2790   22.0990 C   0  0  0  0  0  3  0  0  0  0  0  0
  -28.9380  -25.3770   21.0220 C   0  0  0  0  0  0  0  0  0  0  0  0
  -27.6770  -24.0080   22.7950 C   0  0  0  0  0  2  0  0  0  0  0  0
  -29.4770  -24.1930   20.2140 C   0  0  0  0  0  2  0  0  0  0  0  0
  -28.7320  -22.8890   22.7850 C   0  0  0  0  0  2  0  0  0  0  0  0
  -28.6390  -22.9010   20.2680 C   0  0  0  0  0  2  0  0  0  0  0  0
  -28.8050  -22.1590   21.5200 N   0  0  0  0  0  0  0  0  0  0  0  0
  -29.3950  -26.7380   20.5170 C   0  0  0  0  0  2  0  0  0  0  0  0
  -28.6760  -27.1000   19.3440 O   0  0  0  0  0  0  0  0  0  0  0  0
  -24.5400  -31.6210   23.0400 C   0  0  0  0  0  0  0  0  0  0  0  0
  -27.4630  -27.7170   19.5310 C   0  0  0  0  0  0  0  0  0  0  0  0
  -23.4110  -30.2750   21.2990 C   0  0  0  0  0  3  0  0  0  0  0  0
  -24.9530  -28.9860   19.7260 C   0  0  0  0  0  0  0  0  0  0  0  0
  -25.8920  -30.8590   21.0940 C   0  0  0  0  0  2  0  0  0  0  0  0
  -26.0760  -29.5580   20.3400 C   0  0  0  0  0  0  0  0  0  0  0  0
  -27.3350  -28.9270   20.2480 C   0  0  0  0  0  3  0  0  0  0  0  0
  -26.3280  -27.1510   18.9180 C   0  0  0  0  0  3  0  0  0  0  0  0
  -25.0690  -27.7740   19.0200 C   0  0  0  0  0  3  0  0  0  0  0  0
  -23.6460  -29.7360   19.8620 C   0  0  0  0  0  2  0  0  0  0  0  0
  -24.6320  -30.9270   21.8720 N   0  0  0  0  0  0  0  0  0  0  0  0
  -23.4540  -31.7610   23.6200 O   0  0  0  0  0  0  0  0  0  0  0  0
  -22.8660  -29.1210   22.1720 C   0  0  0  0  0  0  0  0  0  0  0  0
  -21.5600  -28.8410   22.0440 N   0  0  0  0  0  0  0  0  0  0  0  0
  -23.6140  -28.4840   22.9200 O   0  0  0  0  0  0  0  0  0  0  0  0
  -21.0150  -29.4160   21.4160 H   0  0  0  0  0  0  0  0  0  0  0  0
  -18.3230  -27.2760   22.3910 C   0  0  0  0  0  0  0  0  0  0  0  0
  -20.8350  -27.7760   22.7360 C   0  0  0  0  0  3  0  0  0  0  0  0
  -21.0950  -26.4040   22.0750 C   0  0  0  0  0  2  0  0  0  0  0  0
  -20.0500  -26.0350   21.0170 C   0  0  0  0  0  2  0  0  0  0  0  0
  -18.6500  -25.9970   21.6390 C   0  0  0  0  0  2  0  0  0  0  0  0
  -19.3510  -28.1190   22.8920 C   0  0  0  0  0  0  0  0  0  0  0  0
  -18.9970  -29.3130   23.5560 C   0  0  0  0  0  3  0  0  0  0  0  0
  -17.6450  -29.6730   23.7200 C   0  0  0  0  0  3  0  0  0  0  0  0
  -16.6320  -28.8270   23.2350 C   0  0  0  0  0  3  0  0  0  0  0  0
  -16.9710  -27.6300   22.5800 C   0  0  0  0  0  3  0  0  0  0  0  0
  -25.7900  -32.2920   23.6920 C   0  0  0  0  0  3  0  0  0  0  0  0
  -26.3340  -31.5060   24.9470 C   0  0  1  0  0  0  0  0  0  0  0  0
  -25.2480  -31.1930   26.0000 C   0  0  0  0  0  1  0  0  0  0  0  0
  -26.9750  -30.1660   24.5150 C   0  0  0  0  0  1  0  0  0  0  0  0
  -27.4530  -32.3240   25.6350 C   0  0  0  0  0  1  0  0  0  0  0  0
  -25.4120  -33.6630   24.0560 N   0  0  0  0  0  0  0  0  0  0  0  0
  -25.7150  -34.7490   23.3330 C   0  0  0  0  0  0  0  0  0  0  0  0
  -26.4110  -34.7050   22.3150 O   0  0  0  0  0  0  0  0  0  0  0  0
  -24.7930  -33.7710   24.8460 H   0  0  0  0  0  0  0  0  0  0  0  0
  -23.9250  -36.4760   22.9700 C   0  0  0  0  0  1  0  0  0  0  0  0
  -25.1530  -36.1000   23.8140 C   0  0  0  0  0  3  0  0  0  0  0  0
  -27.2090  -37.0490   24.7590 C   0  0  0  0  0  1  0  0  0  0  0  0
  -26.1440  -37.1970   23.7710 N   0  0  0  0  0  0  0  0  0  0  0  0
  -25.6930  -38.0950   23.9260 H   0  0  0  0  0  0  0  0  0  0  0  0
  -29.5140  -17.9330   19.1610 N   0  0  0  0  0  0  0  0  0  0  0  0
  -30.1270  -17.1380   19.0240 H   0  0  0  0  0  0  0  0  0  0  0  0
  -29.3030  -18.4150   18.2920 H   0  0  0  0  0  0  0  0  0  0  0  0
  -31.3000  -16.8870   21.3920 C   0  0  0  0  0  2  0  0  0  0  0  0
  -31.0810  -14.7580   20.1330 C   0  0  0  0  0  0  0  0  0  0  0  0
  -30.6820  -12.6360   18.9430 C   0  0  0  0  0  2  0  0  0  0  0  0
  -29.7190  -12.8650   17.7650 C   0  0  0  0  0  2  0  0  0  0  0  0
  -28.2620  -12.7090   18.2380 C   0  0  0  0  0  2  0  0  0  0  0  0
  -27.9600  -13.5440   19.5150 C   0  0  0  0  0  3  0  0  0  0  0  0
  -29.0440  -13.3420   20.5970 C   0  0  0  0  0  2  0  0  0  0  0  0
  -30.3570  -13.6180   19.9870 N   0  0  0  0  0  0  0  0  0  0  0  0
  -32.1170  -14.9760   19.5000 O   0  0  0  0  0  0  0  0  0  0  0  0
  -30.6000  -15.6620   20.9980 N   0  0  0  0  0  0  0  0  0  0  0  0
  -29.7410  -15.4400   21.4760 H   0  0  0  0  0  0  0  0  0  0  0  0
  -25.5900  -14.1390   20.3110 C   0  0  0  0  0  0  0  0  0  0  0  0
  -24.5340  -13.3610   20.7030 C   0  0  0  0  0  0  0  0  0  0  0  0
  -24.9940  -12.0080   20.6450 C   0  0  0  0  0  0  0  0  0  0  0  0
  -26.6250  -13.2600   20.0360 N   0  0  0  0  0  0  0  0  0  0  0  0
  -26.2740  -11.9740   20.2930 N   0  0  0  0  0  0  0  0  0  0  0  0
  -24.2760  -10.7440   20.8440 C   0  0  0  0  0  0  0  0  0  0  0  0
  -24.6700   -9.8200   21.8380 C   0  0  0  0  0  3  0  0  0  0  0  0
  -23.9550   -8.6180   22.0220 C   0  0  0  0  0  3  0  0  0  0  0  0
  -22.8320   -8.3290   21.2100 C   0  0  0  0  0  0  0  0  0  0  0  0
  -22.4580   -9.2390   20.2070 C   0  0  0  0  0  3  0  0  0  0  0  0
  -23.1750  -10.4340   20.0210 C   0  0  0  0  0  3  0  0  0  0  0  0
  -22.0930   -7.1750   21.2990 O   0  0  0  0  0  0  0  0  0  0  0  0
  -21.8710   -6.5510   22.5010 C   0  0  0  0  0  0  0  0  0  0  0  0
  -21.2040   -7.1980   23.5650 C   0  0  0  0  0  3  0  0  0  0  0  0
  -20.9360   -6.4960   24.7570 C   0  0  0  0  0  3  0  0  0  0  0  0
  -21.3240   -5.1480   24.8840 C   0  0  0  0  0  0  0  0  0  0  0  0
  -21.9860   -4.5020   23.8240 C   0  0  0  0  0  3  0  0  0  0  0  0
  -22.2550   -5.2020   22.6360 C   0  0  0  0  0  0  0  0  0  0  0  0
  -22.8740   -4.5680   21.6100 F   0  0  0  0  0  0  0  0  0  0  0  0
  -21.0590   -4.4740   26.0250 F   0  0  0  0  0  0  0  0  0  0  0  0
  -23.1470  -13.8310   21.0320 C   0  0  0  0  0  0  0  0  0  0  0  0
  -22.4580  -13.1260   21.9220 N   0  0  0  0  0  0  0  0  0  0  0  0
  -22.6860  -14.8580   20.5360 O   0  0  0  0  0  0  0  0  0  0  0  0
  -22.8510  -12.2970   22.3420 H   0  0  0  0  0  0  0  0  0  0  0  0
  -21.5270  -13.4160   22.1900 H   0  0  0  0  0  0  0  0  0  0  0  0
  -25.7550  -15.5110   20.1410 N   0  0  0  0  0  0  0  0  0  0  0  0
  -26.6200  -15.9470   19.8390 H   0  0  0  0  0  0  0  0  0  0  0  0
  -24.9870  -16.1690   20.2060 H   0  0  0  0  0  0  0  0  0  0  0  0
  1  6  1  0
  2  4  1  0
  3 60  1  0
  3  1  2  0
  4 14  1  0
  4  6  2  0
  5  2  2  0
  5  3  1  0
  6  7  1  0
  8 10  1  0
  9  8  2  0
 11 13  1  0
 11  9  1  0
 12 10  1  0
 13 14  1  0
 14 12  1  0
 15  9  1  0
 16 18  1  0
 16 15  1  0
 17 28  2  0
 18 23  1  0
 19 27  1  0
 19 29  1  0
 20 26  1  0
 20 22  1  0
 21 27  1  0
 22 21  1  0
 23 22  2  0
 24 25  1  0
 24 18  2  0
 25 20  2  0
 26 19  1  0
 27 17  1  0
 29 31  2  0
 30 29  1  0
 32 30  1  0
 33 42  2  0
 33 38  1  0
 34 30  1  0
 34 38  1  0
 35 34  1  0
 36 37  1  0
 36 35  1  0
 37 33  1  0
 38 39  2  0
 39 40  1  0
 41 40  2  0
 42 41  1  0
 43 17  1  0
 43 48  1  0
 43 44  1  0
 44 47  1  1
 44 45  1  0
 46 44  1  0
 48 51  1  0
 49 53  1  0
 49 48  1  0
 50 49  2  0
 53 52  1  0
 55 53  1  0
 55 56  1  0
 55 54  1  0
 57  5  1  0
 58 57  1  0
 59 57  1  0
 61 69  1  0
 62 67  1  0
 63 64  1  0
 63 62  1  0
 65 64  1  0
 65 74  1  0
 65 66  1  0
 67 61  1  0
 67 66  1  0
 68 61  2  0
 69 60  1  0
 69 70  1  0
 71 72  2  0
 72 91  1  0
 73 72  1  0
 73 76  1  0
 74 75  1  0
 74 71  1  0
 75 73  2  0
 76 77  1  0
 77 78  2  0
 79 82  1  0
 79 78  1  0
 80 79  2  0
 81 80  1  0
 81 76  2  0
 82 83  1  0
 83 88  2  0
 83 84  1  0
 84 85  2  0
 85 86  1  0
 86 90  1  0
 87 86  2  0
 88 87  1  0
 89 88  1  0
 91 92  1  0
 92 95  1  0
 92 94  1  0
 93 91  2  0
 96 98  1  0
 96 71  1  0
 97 96  1  0
M  ISO  4  15 101  16 101  61 100  69 100
M  END
>  <TORSDO>  (56) 
F 20

>  <SCORE>  (56) 
-11.647

>  <name>  (56) 
56

>  <ligand_id>  (56) 
56

>  <original_smiles>  (56) 
[H]C1=C(C([H])([H])Oc2c([H])c([H])c3c(c2[H])C([H])([H])N(C(=O)C([H])(N([H])C(=O)C([H])(N([H])C([H])([H])[H])C([H])([H])[H])C(C([H])([H])[H])(C([H])([H])[H])C([H])([H])[H])C([H])(C(=O)N([H])C2([H])c4c([H])c([H])c([H])c([H])c4C([H])([H])C([H])([H])C2([H])[H])C3([H])[H])C([H])([H])C([H])([H])N(c2c([H])c(N([H])[H])c(C([H])([H])N([H])C(=O)N3C([H])([H])C([H])([H])C([H])([H])C([H])(n4nc(-c5c([H])c([H])c(Oc6c([H])c([H])c(F)c([H])c6F)c([H])c5[H])c(C(=O)N([H])[H])c4N([H])[H])C3([H])[H])c([H])c2F)C([H])([H])C1([H])[H]

>  <smiles>  (56) 
[H]C1=C(C([H])([H])Oc2c([H])c([H])c3c(c2[H])C([H])([H])N(C(=O)C([H])(N([H])C(=O)C([H])(N([H])C([H])([H])[H])C([H])([H])[H])C(C([H])([H])[H])(C([H])([H])[H])C([H])([H])[H])C([H])(C(=O)N([H])C2([H])c4c([H])c([H])c([H])c([H])c4C([H])([H])C([H])([H])C2([H])[H])C3([H])[H])C([H])([H])C([H])([H])N(c2c([H])c(N([H])[H])c(C([H])([H])N([H])C(=O)N3C([H])([H])C([H])([H])C([H])([H])C([H])(n4nc(-c5c([H])c([H])c(Oc6c([H])c([H])c(F)c([H])c6F)c([H])c5[H])c(C(=O)N([H])[H])c4N([H])[H])C3([H])[H])c([H])c2F)C([H])([H])C1([H])[H]

$$$$
57:0:0
     RDKit          3D

 94103  0  0  1  0  0  0  0  0999 V2000
  -28.3230  -22.6560   21.8930 C   0  0  0  0  0  0  0  0  0  0  0  0
  -27.0620  -23.5020   22.0780 C   0  0  0  0  0  2  0  0  0  0  0  0
  -26.4920  -23.5730   20.6760 C   0  0  0  0  0  2  0  0  0  0  0  0
  -27.7400  -23.3360   19.8250 C   0  0  0  0  0  3  0  0  0  0  0  0
  -28.4930  -22.2050   20.6200 N   0  0  0  0  0  0  0  0  0  0  0  0
  -29.0940  -22.4970   22.8430 O   0  0  0  0  0  0  0  0  0  0  0  0
  -29.4460  -19.8970   21.4190 C   0  0  0  0  0  3  0  0  0  0  0  0
  -29.7770  -18.5020   21.3710 C   0  0  0  0  0  3  0  0  0  0  0  0
  -28.6310  -19.7970   19.2460 C   0  0  0  0  0  3  0  0  0  0  0  0
  -28.8390  -20.6860   20.3860 C   0  0  0  0  0  0  0  0  0  0  0  0
  -29.5830  -17.5980   20.2700 C   0  0  0  0  0  0  0  0  0  0  0  0
  -28.9860  -18.3560   19.1840 C   0  0  0  0  0  0  0  0  0  0  0  0
  -28.6980  -17.6810   18.0440 F   0  0  0  0  0  0  0  0  0  0  0  0
  -30.3710  -15.0260   19.5630 C   0  0  0  0  0  0  0  0  0  0  0  0
  -30.1030  -12.7230   18.4980 C   0  0  0  0  0  2  0  0  0  0  0  0
  -29.0140  -12.7140   17.4000 C   0  0  0  0  0  2  0  0  0  0  0  0
  -27.6260  -12.4620   18.0200 C   0  0  0  0  0  2  0  0  0  0  0  0
  -27.3760  -13.3670   19.2480 C   0  0  0  0  0  3  0  0  0  0  0  0
  -28.5560  -13.3270   20.2330 C   0  0  0  0  0  2  0  0  0  0  0  0
  -29.7620  -13.7660   19.5130 N   0  0  0  0  0  0  0  0  0  0  0  0
  -31.4060  -15.1630   18.8950 O   0  0  0  0  0  0  0  0  0  0  0  0
  -29.9010  -16.0690   20.4250 N   0  0  0  0  0  0  0  0  0  0  0  0
  -25.1520  -13.9370   20.3780 C   0  0  0  0  0  0  0  0  0  0  0  0
  -24.1360  -13.1520   20.8530 C   0  0  0  0  0  0  0  0  0  0  0  0
  -24.5550  -11.8010   20.6560 C   0  0  0  0  0  0  0  0  0  0  0  0
  -26.1180  -13.0610   19.9160 N   0  0  0  0  0  0  0  0  0  0  0  0
  -25.7820  -11.7660   20.1510 N   0  0  0  0  0  0  0  0  0  0  0  0
  -23.8310  -10.5400   20.8660 C   0  0  0  0  0  0  0  0  0  0  0  0
  -24.3250   -9.5360   21.7280 C   0  0  0  0  0  3  0  0  0  0  0  0
  -23.6010   -8.3400   21.9230 C   0  0  0  0  0  3  0  0  0  0  0  0
  -22.3660   -8.1400   21.2580 C   0  0  0  0  0  0  0  0  0  0  0  0
  -21.8920   -9.1330   20.3820 C   0  0  0  0  0  3  0  0  0  0  0  0
  -22.6170  -10.3200   20.1850 C   0  0  0  0  0  3  0  0  0  0  0  0
  -21.6060   -7.0010   21.3690 O   0  0  0  0  0  0  0  0  0  0  0  0
  -21.5850   -6.2620   22.5240 C   0  0  0  0  0  0  0  0  0  0  0  0
  -21.2130   -6.8220   23.7650 C   0  0  0  0  0  3  0  0  0  0  0  0
  -21.1390   -6.0080   24.9120 C   0  0  0  0  0  3  0  0  0  0  0  0
  -21.4270   -4.6340   24.8210 C   0  0  0  0  0  0  0  0  0  0  0  0
  -21.7940   -4.0710   23.5850 C   0  0  0  0  0  3  0  0  0  0  0  0
  -21.8710   -4.8840   22.4380 C   0  0  0  0  0  0  0  0  0  0  0  0
  -22.2050   -4.3320   21.2460 F   0  0  0  0  0  0  0  0  0  0  0  0
  -21.3480   -3.8490   25.9190 F   0  0  0  0  0  0  0  0  0  0  0  0
  -22.8080  -13.6330   21.3610 C   0  0  0  0  0  0  0  0  0  0  0  0
  -22.2030  -12.9050   22.2940 N   0  0  0  0  0  0  0  0  0  0  0  0
  -22.3180  -14.6870   20.9630 O   0  0  0  0  0  0  0  0  0  0  0  0
  -22.6090  -12.0500   22.6460 H   0  0  0  0  0  0  0  0  0  0  0  0
  -21.3180  -13.2120   22.6710 H   0  0  0  0  0  0  0  0  0  0  0  0
  -25.3250  -15.3150   20.2800 N   0  0  0  0  0  0  0  0  0  0  0  0
  -24.6000  -15.9680   20.5540 H   0  0  0  0  0  0  0  0  0  0  0  0
  -26.1300  -15.7690   19.8680 H   0  0  0  0  0  0  0  0  0  0  0  0
  -31.6390  -16.0440   22.2750 C   0  0  0  0  0  1  0  0  0  0  0  0
  -30.2000  -15.6920   21.8330 C   0  0  0  0  0  2  0  0  0  0  0  0
  -28.3690  -24.8710   19.4920 C   0  0  0  0  0  2  0  0  0  0  0  0
  -28.2150  -26.2940   20.0920 O   0  0  0  0  0  0  0  0  0  0  0  0
  -24.5290  -31.8200   23.1550 C   0  0  0  0  0  0  0  0  0  0  0  0
  -27.1390  -27.2370   19.9700 C   0  0  0  0  0  0  0  0  0  0  0  0
  -23.3320  -30.4330   21.5070 C   0  0  0  0  0  3  0  0  0  0  0  0
  -24.7850  -28.9290   20.0050 C   0  0  0  0  0  0  0  0  0  0  0  0
  -25.8710  -30.7520   21.3110 C   0  0  0  0  0  2  0  0  0  0  0  0
  -25.9590  -29.3790   20.6250 C   0  0  0  0  0  0  0  0  0  0  0  0
  -27.1300  -28.5420   20.6000 C   0  0  0  0  0  3  0  0  0  0  0  0
  -25.9570  -26.8960   19.2830 C   0  0  0  0  0  3  0  0  0  0  0  0
  -24.8000  -27.7070   19.3130 C   0  0  0  0  0  3  0  0  0  0  0  0
  -23.5420  -29.8020   20.1030 C   0  0  0  0  0  2  0  0  0  0  0  0
  -24.5970  -31.0250   22.0450 N   0  0  0  0  0  0  0  0  0  0  0  0
  -23.4480  -32.0710   23.7080 O   0  0  0  0  0  0  0  0  0  0  0  0
  -22.7020  -29.3830   22.4570 C   0  0  0  0  0  0  0  0  0  0  0  0
  -21.3930  -29.1230   22.2970 N   0  0  0  0  0  0  0  0  0  0  0  0
  -23.3940  -28.8120   23.3030 O   0  0  0  0  0  0  0  0  0  0  0  0
  -20.8900  -29.6320   21.5830 H   0  0  0  0  0  0  0  0  0  0  0  0
  -18.1070  -27.6440   22.6620 C   0  0  0  0  0  0  0  0  0  0  0  0
  -20.6140  -28.1420   23.0580 C   0  0  0  0  0  3  0  0  0  0  0  0
  -20.8770  -26.7080   22.5430 C   0  0  0  0  0  2  0  0  0  0  0  0
  -19.8660  -26.2590   21.4830 C   0  0  0  0  0  2  0  0  0  0  0  0
  -18.4410  -26.2990   22.0420 C   0  0  0  0  0  2  0  0  0  0  0  0
  -19.1270  -28.5170   23.1250 C   0  0  0  0  0  0  0  0  0  0  0  0
  -18.7610  -29.7720   23.6640 C   0  0  0  0  0  3  0  0  0  0  0  0
  -17.4080  -30.1560   23.7390 C   0  0  0  0  0  3  0  0  0  0  0  0
  -16.4020  -29.2840   23.2880 C   0  0  0  0  0  3  0  0  0  0  0  0
  -16.7520  -28.0280   22.7570 C   0  0  0  0  0  3  0  0  0  0  0  0
  -25.8070  -32.4710   23.7680 C   0  0  0  0  0  3  0  0  0  0  0  0
  -26.3480  -31.7060   25.0390 C   0  0  1  0  0  0  0  0  0  0  0  0
  -25.2620  -31.4280   26.1050 C   0  0  0  0  0  1  0  0  0  0  0  0
  -26.9700  -30.3500   24.6380 C   0  0  0  0  0  1  0  0  0  0  0  0
  -27.4780  -32.5250   25.7100 C   0  0  0  0  0  1  0  0  0  0  0  0
  -25.4810  -33.8650   24.1140 N   0  0  0  0  0  0  0  0  0  0  0  0
  -25.7650  -34.9280   23.3520 C   0  0  0  0  0  0  0  0  0  0  0  0
  -26.4030  -34.8410   22.2990 O   0  0  0  0  0  0  0  0  0  0  0  0
  -24.9210  -34.0030   24.9440 H   0  0  0  0  0  0  0  0  0  0  0  0
  -23.9810  -36.6770   23.0670 C   0  0  0  0  0  1  0  0  0  0  0  0
  -25.2630  -36.3060   23.8290 C   0  0  0  0  0  3  0  0  0  0  0  0
  -27.4120  -37.2350   24.5760 C   0  0  0  0  0  1  0  0  0  0  0  0
  -26.2670  -37.3840   23.6800 N   0  0  0  0  0  0  0  0  0  0  0  0
  -25.8460  -38.2920   23.8590 H   0  0  0  0  0  0  0  0  0  0  0  0
  1  2  1  0
  1  6  2  0
  3  2  1  0
  4 53  1  0
  4  5  1  0
  4  3  1  0
  5  1  1  0
  8  7  1  0
  9 10  1  0
 10  5  1  0
 10  7  2  0
 11 22  1  0
 11  8  2  0
 12  9  2  0
 12 11  1  0
 13 12  1  0
 14 22  1  0
 15 20  1  0
 16 17  1  0
 16 15  1  0
 18 17  1  0
 18 26  1  0
 18 19  1  0
 20 14  1  0
 20 19  1  0
 21 14  2  0
 22 52  1  0
 23 24  2  0
 24 43  1  0
 25 24  1  0
 25 28  1  0
 26 27  1  0
 26 23  1  0
 27 25  2  0
 28 29  1  0
 29 30  2  0
 31 34  1  0
 31 30  1  0
 32 31  2  0
 33 32  1  0
 33 28  2  0
 34 35  1  0
 35 36  1  0
 36 37  2  0
 38 37  1  0
 38 42  1  0
 39 38  2  0
 40 35  2  0
 40 39  1  0
 41 40  1  0
 43 44  1  0
 44 46  1  0
 44 47  1  0
 45 43  2  0
 48 23  1  0
 48 49  1  0
 50 48  1  0
 52 51  1  0
 53 54  1  0
 55 66  2  0
 56 54  1  0
 56 61  1  0
 57 65  1  0
 57 67  1  0
 58 64  1  0
 58 60  1  0
 59 65  1  0
 60 59  1  0
 61 60  2  0
 62 63  1  0
 62 56  2  0
 63 58  2  0
 64 57  1  0
 65 55  1  0
 67 69  2  0
 68 67  1  0
 70 68  1  0
 71 80  2  0
 71 76  1  0
 72 68  1  0
 72 76  1  0
 73 72  1  0
 74 75  1  0
 74 73  1  0
 75 71  1  0
 76 77  2  0
 77 78  1  0
 79 78  2  0
 80 79  1  0
 81 55  1  0
 81 86  1  0
 81 82  1  0
 82 85  1  1
 82 83  1  0
 84 82  1  0
 86 89  1  0
 87 91  1  0
 87 86  1  0
 88 87  2  0
 91 90  1  0
 93 91  1  0
 93 94  1  0
 93 92  1  0
M  ISO  4  14 100  22 100  53 101  54 101
M  END
>  <TORSDO>  (57) 
F 19

>  <SCORE>  (57) 
-11.879

>  <name>  (57) 
57

>  <ligand_id>  (57) 
57

>  <original_smiles>  (57) 
[H]c1c([H])c([H])c2c(c1[H])C([H])([H])C([H])([H])C([H])([H])C2([H])N([H])C(=O)C1([H])N(C(=O)C([H])(N([H])C(=O)C([H])(N([H])C([H])([H])[H])C([H])([H])[H])C(C([H])([H])[H])(C([H])([H])[H])C([H])([H])[H])C([H])([H])c2c([H])c(OC([H])([H])C3([H])N(c4c([H])c([H])c(N(C(=O)N5C([H])([H])C([H])([H])C([H])([H])C([H])(n6nc(-c7c([H])c([H])c(Oc8c([H])c([H])c(F)c([H])c8F)c([H])c7[H])c(C(=O)N([H])[H])c6N([H])[H])C5([H])[H])C([H])([H])C([H])([H])[H])c(F)c4[H])C(=O)C([H])([H])C3([H])[H])c([H])c([H])c2C1([H])[H]

>  <smiles>  (57) 
[H]c1c([H])c([H])c2c(c1[H])C([H])([H])C([H])([H])C([H])([H])C2([H])N([H])C(=O)C1([H])N(C(=O)C([H])(N([H])C(=O)C([H])(N([H])C([H])([H])[H])C([H])([H])[H])C(C([H])([H])[H])(C([H])([H])[H])C([H])([H])[H])C([H])([H])c2c([H])c(OC([H])([H])C3([H])N(c4c([H])c([H])c(N(C(=O)N5C([H])([H])C([H])([H])C([H])([H])C([H])(n6nc(-c7c([H])c([H])c(Oc8c([H])c([H])c(F)c([H])c8F)c([H])c7[H])c(C(=O)N([H])[H])c6N([H])[H])C5([H])[H])C([H])([H])C([H])([H])[H])c(F)c4[H])C(=O)C([H])([H])C3([H])[H])c([H])c([H])c2C1([H])[H]

$$$$
58:0:0
     RDKit          3D

 97105  0  0  1  0  0  0  0  0999 V2000
  -29.6490  -18.9060   18.2120 C   0  0  0  0  0  3  0  0  0  0  0  0
  -30.0160  -17.9820   19.2020 C   0  0  0  0  0  3  0  0  0  0  0  0
  -29.0070  -20.1130   18.5660 C   0  0  0  0  0  0  0  0  0  0  0  0
  -29.7210  -18.2870   20.5380 C   0  0  0  0  0  0  0  0  0  0  0  0
  -28.6900  -20.3000   19.9430 C   0  0  0  0  0  0  0  0  0  0  0  0
  -29.0250  -19.3890   20.8840 N   0  0  0  0  0  0  0  0  0  0  0  0
  -27.6900  -21.5890   21.7710 C   0  0  0  0  0  1  0  0  0  0  0  0
  -28.0460  -21.4380   20.3920 O   0  0  0  0  0  0  0  0  0  0  0  0
  -28.7420  -20.9620   17.5050 O   0  0  0  0  0  0  0  0  0  0  0  0
  -28.1570  -22.2510   17.6840 C   0  0  0  0  0  2  0  0  0  0  0  0
  -29.1550  -23.3000   18.2100 C   0  0  0  0  0  2  0  0  0  0  0  0
  -28.4990  -24.4940   18.9490 C   0  0  0  0  0  2  0  0  0  0  0  0
  -28.8660  -25.9160   18.4320 C   0  0  0  0  0  2  0  0  0  0  0  0
  -28.6300  -26.9640   19.3920 O   0  0  0  0  0  0  0  0  0  0  0  0
  -24.5530  -31.5690   23.0160 C   0  0  0  0  0  0  0  0  0  0  0  0
  -27.3930  -27.5760   19.4840 C   0  0  0  0  0  0  0  0  0  0  0  0
  -23.3970  -30.2430   21.2800 C   0  0  0  0  0  3  0  0  0  0  0  0
  -24.9060  -28.9210   19.6970 C   0  0  0  0  0  0  0  0  0  0  0  0
  -25.8940  -30.7510   21.0840 C   0  0  0  0  0  2  0  0  0  0  0  0
  -26.0420  -29.4440   20.3290 C   0  0  0  0  0  0  0  0  0  0  0  0
  -27.2810  -28.7710   20.2400 C   0  0  0  0  0  3  0  0  0  0  0  0
  -26.2340  -27.0680   18.8530 C   0  0  0  0  0  3  0  0  0  0  0  0
  -24.9970  -27.7330   18.9550 C   0  0  0  0  0  3  0  0  0  0  0  0
  -23.6130  -29.6930   19.8450 C   0  0  0  0  0  2  0  0  0  0  0  0
  -24.6330  -30.8690   21.8480 N   0  0  0  0  0  0  0  0  0  0  0  0
  -23.4690  -31.7330   23.5900 O   0  0  0  0  0  0  0  0  0  0  0  0
  -22.8270  -29.1050   22.1560 C   0  0  0  0  0  0  0  0  0  0  0  0
  -21.5080  -28.8810   22.0550 N   0  0  0  0  0  0  0  0  0  0  0  0
  -23.5680  -28.4320   22.8820 O   0  0  0  0  0  0  0  0  0  0  0  0
  -20.9680  -29.4810   21.4460 H   0  0  0  0  0  0  0  0  0  0  0  0
  -18.2090  -27.5140   22.5710 C   0  0  0  0  0  0  0  0  0  0  0  0
  -20.7600  -27.8400   22.7570 C   0  0  0  0  0  3  0  0  0  0  0  0
  -20.8810  -26.4830   22.0300 C   0  0  0  0  0  2  0  0  0  0  0  0
  -19.7430  -26.2210   21.0360 C   0  0  0  0  0  2  0  0  0  0  0  0
  -18.3920  -26.2510   21.7490 C   0  0  0  0  0  2  0  0  0  0  0  0
  -19.3200  -28.2680   23.0300 C   0  0  0  0  0  0  0  0  0  0  0  0
  -19.0920  -29.4540   23.7590 C   0  0  0  0  0  3  0  0  0  0  0  0
  -17.7840  -29.8880   24.0340 C   0  0  0  0  0  3  0  0  0  0  0  0
  -16.6850  -29.1320   23.5830 C   0  0  0  0  0  3  0  0  0  0  0  0
  -16.9010  -27.9430   22.8630 C   0  0  0  0  0  3  0  0  0  0  0  0
  -25.8140  -32.2200   23.6670 C   0  0  0  0  0  3  0  0  0  0  0  0
  -26.3760  -31.3960   24.8890 C   0  0  1  0  0  0  0  0  0  0  0  0
  -25.3050  -31.0390   25.9500 C   0  0  0  0  0  1  0  0  0  0  0  0
  -27.0170  -30.0760   24.4020 C   0  0  0  0  0  1  0  0  0  0  0  0
  -27.4970  -32.2030   25.5890 C   0  0  0  0  0  1  0  0  0  0  0  0
  -25.4410  -33.5770   24.0860 N   0  0  0  0  0  0  0  0  0  0  0  0
  -25.7270  -34.6940   23.4000 C   0  0  0  0  0  0  0  0  0  0  0  0
  -26.4050  -34.6880   22.3710 O   0  0  0  0  0  0  0  0  0  0  0  0
  -24.8320  -33.6440   24.8880 H   0  0  0  0  0  0  0  0  0  0  0  0
  -23.9140  -36.4230   23.1440 C   0  0  0  0  0  1  0  0  0  0  0  0
  -25.1710  -36.0280   23.9410 C   0  0  0  0  0  3  0  0  0  0  0  0
  -27.2590  -36.9540   24.8420 C   0  0  0  0  0  1  0  0  0  0  0  0
  -26.1540  -37.1340   23.9040 N   0  0  0  0  0  0  0  0  0  0  0  0
  -25.7060  -38.0240   24.1000 H   0  0  0  0  0  0  0  0  0  0  0  0
  -30.2420  -17.4410   21.6950 C   0  0  0  0  0  3  0  0  0  0  0  0
  -30.9750  -15.0990   20.8150 C   0  0  0  0  0  0  0  0  0  0  0  0
  -30.8830  -12.8640   19.7400 C   0  0  0  0  0  2  0  0  0  0  0  0
  -30.0270  -12.9290   18.4550 C   0  0  0  0  0  2  0  0  0  0  0  0
  -28.5220  -12.7730   18.7720 C   0  0  0  0  0  2  0  0  0  0  0  0
  -28.0700  -13.6870   19.9420 C   0  0  0  0  0  3  0  0  0  0  0  0
  -29.0270  -13.5350   21.1410 C   0  0  0  0  0  2  0  0  0  0  0  0
  -30.3830  -13.8830   20.6700 N   0  0  0  0  0  0  0  0  0  0  0  0
  -32.0890  -15.3660   20.3490 O   0  0  0  0  0  0  0  0  0  0  0  0
  -30.1860  -15.9930   21.4350 N   0  0  0  0  0  0  0  0  0  0  0  0
  -29.2980  -15.5990   21.7050 H   0  0  0  0  0  0  0  0  0  0  0  0
  -25.6530  -14.3250   20.5370 C   0  0  0  0  0  0  0  0  0  0  0  0
  -24.5520  -13.5590   20.8180 C   0  0  0  0  0  0  0  0  0  0  0  0
  -24.9840  -12.2020   20.7550 C   0  0  0  0  0  0  0  0  0  0  0  0
  -26.6880  -13.4280   20.3240 N   0  0  0  0  0  0  0  0  0  0  0  0
  -26.2870  -12.1440   20.5120 N   0  0  0  0  0  0  0  0  0  0  0  0
  -24.2190  -10.9510   20.8540 C   0  0  0  0  0  0  0  0  0  0  0  0
  -24.5940   -9.9350   21.7580 C   0  0  0  0  0  3  0  0  0  0  0  0
  -23.8420   -8.7430   21.8490 C   0  0  0  0  0  3  0  0  0  0  0  0
  -22.6970   -8.5650   21.0350 C   0  0  0  0  0  0  0  0  0  0  0  0
  -22.3410   -9.5690   20.1190 C   0  0  0  0  0  3  0  0  0  0  0  0
  -23.0950  -10.7530   20.0260 C   0  0  0  0  0  3  0  0  0  0  0  0
  -21.9160   -7.4340   21.0370 O   0  0  0  0  0  0  0  0  0  0  0  0
  -21.8090   -6.6380   22.1500 C   0  0  0  0  0  0  0  0  0  0  0  0
  -21.3530   -7.1410   23.3880 C   0  0  0  0  0  3  0  0  0  0  0  0
  -21.1920   -6.2720   24.4860 C   0  0  0  0  0  3  0  0  0  0  0  0
  -21.4730   -4.8990   24.3450 C   0  0  0  0  0  0  0  0  0  0  0  0
  -21.9220   -4.3960   23.1110 C   0  0  0  0  0  3  0  0  0  0  0  0
  -22.0880   -5.2630   22.0170 C   0  0  0  0  0  0  0  0  0  0  0  0
  -22.5010   -4.7680   20.8260 F   0  0  0  0  0  0  0  0  0  0  0  0
  -21.3080   -4.0650   25.3970 F   0  0  0  0  0  0  0  0  0  0  0  0
  -23.1540  -14.0590   21.0270 C   0  0  0  0  0  0  0  0  0  0  0  0
  -22.3680  -13.3440   21.8300 N   0  0  0  0  0  0  0  0  0  0  0  0
  -22.7610  -15.1050   20.5140 O   0  0  0  0  0  0  0  0  0  0  0  0
  -22.7050  -12.4980   22.2620 H   0  0  0  0  0  0  0  0  0  0  0  0
  -21.4250  -13.6520   22.0200 H   0  0  0  0  0  0  0  0  0  0  0  0
  -25.8440  -15.6980   20.4220 N   0  0  0  0  0  0  0  0  0  0  0  0
  -25.0570  -16.3390   20.4510 H   0  0  0  0  0  0  0  0  0  0  0  0
  -26.7100  -16.1380   20.1360 H   0  0  0  0  0  0  0  0  0  0  0  0
  -31.5570  -18.0000   22.3080 C   0  0  0  0  0  2  0  0  0  0  0  0
  -31.3920  -19.2370   23.2400 C   0  0  0  0  0  2  0  0  0  0  0  0
  -30.7560  -21.7220   23.4560 C   0  0  0  0  0  1  0  0  0  0  0  0
  -31.4140  -20.6400   22.5810 C   0  0  0  0  0  2  0  0  0  0  0  0
  1  3  2  0
  1  2  1  0
  2  4  2  0
  3  5  1  0
  4  6  1  0
  4 55  1  0
  5  8  1  0
  5  6  2  0
  8  7  1  0
  9 10  1  0
  9  3  1  0
 10 11  1  0
 11 12  1  0
 13 12  1  0
 13 14  1  0
 14 16  1  0
 15 26  2  0
 16 21  1  0
 17 25  1  0
 17 27  1  0
 18 24  1  0
 18 20  1  0
 19 25  1  0
 20 19  1  0
 21 20  2  0
 22 23  1  0
 22 16  2  0
 23 18  2  0
 24 17  1  0
 25 15  1  0
 27 29  2  0
 28 27  1  0
 30 28  1  0
 31 40  2  0
 31 36  1  0
 32 28  1  0
 32 36  1  0
 33 32  1  0
 34 35  1  0
 34 33  1  0
 35 31  1  0
 36 37  2  0
 37 38  1  0
 39 38  2  0
 40 39  1  0
 41 15  1  0
 41 46  1  0
 41 42  1  0
 42 45  1  1
 42 43  1  0
 44 42  1  0
 46 49  1  0
 47 51  1  0
 47 46  1  0
 48 47  2  0
 51 50  1  0
 53 51  1  0
 53 54  1  0
 53 52  1  0
 55 94  1  0
 56 64  1  0
 57 62  1  0
 58 59  1  0
 58 57  1  0
 60 59  1  0
 60 69  1  0
 60 61  1  0
 62 56  1  0
 62 61  1  0
 63 56  2  0
 64 55  1  0
 64 65  1  0
 66 67  2  0
 67 86  1  0
 68 67  1  0
 68 71  1  0
 69 70  1  0
 69 66  1  0
 70 68  2  0
 71 72  1  0
 72 73  2  0
 74 77  1  0
 74 73  1  0
 75 74  2  0
 76 75  1  0
 76 71  2  0
 77 78  1  0
 78 79  1  0
 79 80  2  0
 81 80  1  0
 81 85  1  0
 82 81  2  0
 83 78  2  0
 83 82  1  0
 84 83  1  0
 86 87  1  0
 87 90  1  0
 87 89  1  0
 88 86  2  0
 91 92  1  0
 91 66  1  0
 93 91  1  0
 94 95  1  0
 97 95  1  0
 97 96  1  0
M  ISO  4  13 101  14 101  56 100  64 100
M  END
>  <TORSDO>  (58) 
F 26

>  <SCORE>  (58) 
-10.436

>  <name>  (58) 
58

>  <ligand_id>  (58) 
58

>  <original_smiles>  (58) 
[H]c1c(C([H])(N([H])C(=O)N2C([H])([H])C([H])([H])C([H])([H])C([H])(n3nc(-c4c([H])c([H])c(Oc5c([H])c([H])c(F)c([H])c5F)c([H])c4[H])c(C(=O)N([H])[H])c3N([H])[H])C2([H])[H])C([H])([H])C([H])([H])C([H])([H])C([H])([H])[H])nc(OC([H])([H])[H])c(OC([H])([H])C([H])([H])C([H])([H])C([H])([H])Oc2c([H])c([H])c3c(c2[H])C([H])([H])N(C(=O)C([H])(N([H])C(=O)C([H])(N([H])C([H])([H])[H])C([H])([H])[H])C(C([H])([H])[H])(C([H])([H])[H])C([H])([H])[H])C([H])(C(=O)N([H])C2([H])c4c([H])c([H])c([H])c([H])c4C([H])([H])C([H])([H])C2([H])[H])C3([H])[H])c1[H]

>  <smiles>  (58) 
[H]c1c(C([H])(N([H])C(=O)N2C([H])([H])C([H])([H])C([H])([H])C([H])(n3nc(-c4c([H])c([H])c(Oc5c([H])c([H])c(F)c([H])c5F)c([H])c4[H])c(C(=O)N([H])[H])c3N([H])[H])C2([H])[H])C([H])([H])C([H])([H])C([H])([H])C([H])([H])[H])nc(OC([H])([H])[H])c(OC([H])([H])C([H])([H])C([H])([H])C([H])([H])Oc2c([H])c([H])c3c(c2[H])C([H])([H])N(C(=O)C([H])(N([H])C(=O)C([H])(N([H])C([H])([H])[H])C([H])([H])[H])C(C([H])([H])[H])(C([H])([H])[H])C([H])([H])[H])C([H])(C(=O)N([H])C2([H])c4c([H])c([H])c([H])c([H])c4C([H])([H])C([H])([H])C2([H])[H])C3([H])[H])c1[H]

$$$$
59:0:0
     RDKit          3D

 93101  0  0  1  0  0  0  0  0999 V2000
  -31.2790  -17.7040   21.5340 C   0  0  0  0  0  3  0  0  0  0  0  0
  -30.8680  -20.1280   21.4330 C   0  0  0  0  0  3  0  0  0  0  0  0
  -29.3370  -18.5790   20.3570 C   0  0  0  0  0  3  0  0  0  0  0  0
  -31.6410  -19.0270   21.8640 C   0  0  0  0  0  0  0  0  0  0  0  0
  -30.1210  -17.4180   20.7730 C   0  0  0  0  0  0  0  0  0  0  0  0
  -29.6960  -19.9630   20.6540 C   0  0  0  0  0  0  0  0  0  0  0  0
  -30.5640  -14.8570   20.3870 C   0  0  0  0  0  0  0  0  0  0  0  0
  -30.3990  -12.5730   19.3730 C   0  0  0  0  0  2  0  0  0  0  0  0
  -29.4630  -12.6200   18.1480 C   0  0  0  0  0  2  0  0  0  0  0  0
  -27.9960  -12.4200   18.5750 C   0  0  0  0  0  2  0  0  0  0  0  0
  -27.6000  -13.3100   19.7840 C   0  0  0  0  0  3  0  0  0  0  0  0
  -28.6590  -13.2580   20.9070 C   0  0  0  0  0  2  0  0  0  0  0  0
  -29.9460  -13.6290   20.3070 N   0  0  0  0  0  0  0  0  0  0  0  0
  -31.7600  -14.9550   20.0960 O   0  0  0  0  0  0  0  0  0  0  0  0
  -29.7670  -15.9900   20.5290 N   0  0  0  0  0  0  0  0  0  0  0  0
  -28.7790  -15.7930   20.4960 H   0  0  0  0  0  0  0  0  0  0  0  0
  -25.2090  -13.8680   20.5230 C   0  0  0  0  0  0  0  0  0  0  0  0
  -24.1540  -13.0790   20.8950 C   0  0  0  0  0  0  0  0  0  0  0  0
  -24.6340  -11.7340   20.8580 C   0  0  0  0  0  0  0  0  0  0  0  0
  -26.2630  -13.0020   20.2800 N   0  0  0  0  0  0  0  0  0  0  0  0
  -25.9260  -11.7140   20.5470 N   0  0  0  0  0  0  0  0  0  0  0  0
  -23.9230  -10.4630   21.0420 C   0  0  0  0  0  0  0  0  0  0  0  0
  -24.3680   -9.4970   21.9710 C   0  0  0  0  0  3  0  0  0  0  0  0
  -23.6580   -8.2900   22.1480 C   0  0  0  0  0  3  0  0  0  0  0  0
  -22.4870   -8.0400   21.3930 C   0  0  0  0  0  0  0  0  0  0  0  0
  -22.0600   -8.9940   20.4520 C   0  0  0  0  0  3  0  0  0  0  0  0
  -22.7720  -10.1930   20.2750 C   0  0  0  0  0  3  0  0  0  0  0  0
  -21.7470   -6.8850   21.4770 O   0  0  0  0  0  0  0  0  0  0  0  0
  -21.7050   -6.1390   22.6270 C   0  0  0  0  0  0  0  0  0  0  0  0
  -21.2560   -6.6810   23.8520 C   0  0  0  0  0  3  0  0  0  0  0  0
  -21.1640   -5.8600   24.9930 C   0  0  0  0  0  3  0  0  0  0  0  0
  -21.5110   -4.4970   24.9120 C   0  0  0  0  0  0  0  0  0  0  0  0
  -21.9530   -3.9550   23.6930 C   0  0  0  0  0  3  0  0  0  0  0  0
  -22.0480   -4.7740   22.5530 C   0  0  0  0  0  0  0  0  0  0  0  0
  -22.4540   -4.2420   21.3750 F   0  0  0  0  0  0  0  0  0  0  0  0
  -21.4160   -3.7070   26.0060 F   0  0  0  0  0  0  0  0  0  0  0  0
  -22.7510  -13.5390   21.1650 C   0  0  0  0  0  0  0  0  0  0  0  0
  -22.0270  -12.8300   22.0250 N   0  0  0  0  0  0  0  0  0  0  0  0
  -22.3030  -14.5620   20.6500 O   0  0  0  0  0  0  0  0  0  0  0  0
  -22.4010  -12.0040   22.4680 H   0  0  0  0  0  0  0  0  0  0  0  0
  -21.0840  -13.1190   22.2420 H   0  0  0  0  0  0  0  0  0  0  0  0
  -25.3520  -15.2410   20.3510 N   0  0  0  0  0  0  0  0  0  0  0  0
  -24.5710  -15.8790   20.4570 H   0  0  0  0  0  0  0  0  0  0  0  0
  -26.1840  -15.6970   19.9980 H   0  0  0  0  0  0  0  0  0  0  0  0
  -32.7940  -19.2440   22.6220 N   0  0  0  0  0  0  0  0  0  0  0  0
  -33.2050  -18.4670   23.1280 H   0  0  0  0  0  0  0  0  0  0  0  0
  -32.9270  -20.1350   23.0900 H   0  0  0  0  0  0  0  0  0  0  0  0
  -29.0210  -21.1260   20.1530 O   0  0  0  0  0  0  0  0  0  0  0  0
  -28.8460  -22.3990   20.8590 C   0  0  0  0  0  0  0  0  0  0  0  0
  -28.8860  -22.4790   22.0890 O   0  0  0  0  0  0  0  0  0  0  0  0
  -28.6500  -23.7480   20.0070 C   0  0  0  0  0  2  0  0  0  0  0  0
  -28.0120  -25.0780   20.6970 C   0  0  0  0  0  2  0  0  0  0  0  0
  -28.1840  -26.4740   20.1540 O   0  0  0  0  0  0  0  0  0  0  0  0
  -24.5190  -31.9610   23.2170 C   0  0  0  0  0  0  0  0  0  0  0  0
  -27.0810  -27.3550   20.1560 C   0  0  0  0  0  0  0  0  0  0  0  0
  -23.2940  -30.5610   21.5940 C   0  0  0  0  0  3  0  0  0  0  0  0
  -24.7260  -28.9970   20.1560 C   0  0  0  0  0  0  0  0  0  0  0  0
  -25.8330  -30.8670   21.3790 C   0  0  0  0  0  2  0  0  0  0  0  0
  -25.9050  -29.4820   20.7380 C   0  0  0  0  0  0  0  0  0  0  0  0
  -27.0880  -28.6760   20.7200 C   0  0  0  0  0  3  0  0  0  0  0  0
  -25.8810  -26.9340   19.5470 C   0  0  0  0  0  3  0  0  0  0  0  0
  -24.7180  -27.7300   19.5490 C   0  0  0  0  0  3  0  0  0  0  0  0
  -23.4920  -29.8770   20.2140 C   0  0  0  0  0  2  0  0  0  0  0  0
  -24.5690  -31.1470   22.1200 N   0  0  0  0  0  0  0  0  0  0  0  0
  -23.4420  -32.2410   23.7640 O   0  0  0  0  0  0  0  0  0  0  0  0
  -22.6360  -29.5510   22.5640 C   0  0  0  0  0  0  0  0  0  0  0  0
  -21.3100  -29.3670   22.4420 N   0  0  0  0  0  0  0  0  0  0  0  0
  -23.3180  -28.9350   23.3880 O   0  0  0  0  0  0  0  0  0  0  0  0
  -20.8170  -29.9130   21.7500 H   0  0  0  0  0  0  0  0  0  0  0  0
  -17.9390  -28.1530   22.9600 C   0  0  0  0  0  0  0  0  0  0  0  0
  -20.4970  -28.4300   23.2220 C   0  0  0  0  0  3  0  0  0  0  0  0
  -20.6070  -26.9960   22.6570 C   0  0  0  0  0  2  0  0  0  0  0  0
  -19.5060  -26.6580   21.6480 C   0  0  0  0  0  2  0  0  0  0  0  0
  -18.1230  -26.8000   22.2930 C   0  0  0  0  0  2  0  0  0  0  0  0
  -19.0550  -28.9260   23.3820 C   0  0  0  0  0  0  0  0  0  0  0  0
  -18.8290  -30.1910   23.9650 C   0  0  0  0  0  3  0  0  0  0  0  0
  -17.5210  -30.6860   24.1290 C   0  0  0  0  0  3  0  0  0  0  0  0
  -16.4210  -29.9100   23.7240 C   0  0  0  0  0  3  0  0  0  0  0  0
  -16.6310  -28.6460   23.1450 C   0  0  0  0  0  3  0  0  0  0  0  0
  -25.8100  -32.5910   23.8250 C   0  0  0  0  0  3  0  0  0  0  0  0
  -25.5110  -33.9950   24.1460 N   0  0  0  0  0  0  0  0  0  0  0  0
  -25.8470  -35.0390   23.3770 C   0  0  0  0  0  0  0  0  0  0  0  0
  -26.5110  -34.9230   22.3430 O   0  0  0  0  0  0  0  0  0  0  0  0
  -24.9210  -34.1600   24.9470 H   0  0  0  0  0  0  0  0  0  0  0  0
  -24.1420  -36.8510   23.0080 C   0  0  0  0  0  1  0  0  0  0  0  0
  -25.3760  -36.4370   23.8260 C   0  0  0  0  0  3  0  0  0  0  0  0
  -27.5160  -37.3030   24.6610 C   0  0  0  0  0  1  0  0  0  0  0  0
  -26.4210  -37.4780   23.7100 N   0  0  0  0  0  0  0  0  0  0  0  0
  -26.0260  -38.4040   23.8500 H   0  0  0  0  0  0  0  0  0  0  0  0
  -26.3280  -31.8290   25.1060 C   0  0  1  0  0  0  0  0  0  0  0  0
  -25.2380  -31.6070   26.1800 C   0  0  0  0  0  1  0  0  0  0  0  0
  -26.9010  -30.4440   24.7260 C   0  0  0  0  0  1  0  0  0  0  0  0
  -27.4880  -32.6210   25.7550 C   0  0  0  0  0  1  0  0  0  0  0  0
  1  4  1  0
  2  4  2  0
  3  6  2  0
  3  5  1  0
  4 45  1  0
  5  1  2  0
  6  2  1  0
  7 15  1  0
  8 13  1  0
  9 10  1  0
  9  8  1  0
 11 10  1  0
 11 20  1  0
 11 12  1  0
 13  7  1  0
 13 12  1  0
 14  7  2  0
 15  5  1  0
 16 15  1  0
 17 18  2  0
 18 37  1  0
 19 18  1  0
 19 22  1  0
 20 17  1  0
 20 21  1  0
 21 19  2  0
 22 23  1  0
 23 24  2  0
 25 28  1  0
 25 24  1  0
 26 25  2  0
 27 26  1  0
 27 22  2  0
 28 29  1  0
 29 30  1  0
 30 31  2  0
 32 31  1  0
 32 36  1  0
 33 32  2  0
 34 29  2  0
 34 33  1  0
 35 34  1  0
 37 38  1  0
 38 41  1  0
 38 40  1  0
 39 37  2  0
 42 43  1  0
 42 17  1  0
 44 42  1  0
 45 47  1  0
 45 46  1  0
 48  6  1  0
 48 49  1  0
 49 50  2  0
 51 52  1  0
 51 49  1  0
 53 55  1  0
 53 52  1  0
 54 65  2  0
 55 60  1  0
 56 64  1  0
 56 66  1  0
 57 63  1  0
 57 59  1  0
 58 64  1  0
 59 58  1  0
 60 59  2  0
 61 62  1  0
 61 55  2  0
 62 57  2  0
 63 56  1  0
 64 54  1  0
 66 68  2  0
 67 66  1  0
 69 67  1  0
 70 79  2  0
 70 75  1  0
 71 67  1  0
 71 75  1  0
 72 71  1  0
 73 74  1  0
 73 72  1  0
 74 70  1  0
 75 76  2  0
 76 77  1  0
 78 77  2  0
 79 78  1  0
 80 54  1  0
 80 81  1  0
 80 90  1  0
 81 84  1  0
 82 86  1  0
 82 81  1  0
 83 82  2  0
 86 85  1  0
 88 86  1  0
 88 89  1  0
 88 87  1  0
 90 93  1  1
 90 91  1  0
 92 90  1  0
M  ISO  4   7 100  15 100  52 101  53 101
M  END
>  <TORSDO>  (59) 
F 21

>  <SCORE>  (59) 
-13.664

>  <name>  (59) 
59

>  <ligand_id>  (59) 
59

>  <original_smiles>  (59) 
[H]c1c([H])c([H])c2c(c1[H])C([H])([H])C([H])([H])C([H])([H])C2([H])N([H])C(=O)C1([H])N(C(=O)C([H])(N([H])C(=O)C([H])(N([H])C([H])([H])[H])C([H])([H])[H])C(C([H])([H])[H])(C([H])([H])[H])C([H])([H])[H])C([H])([H])c2c([H])c(OC([H])([H])C([H])([H])C(=O)Oc3c([H])c(N([H])[H])c([H])c(N([H])C(=O)N4C([H])([H])C([H])([H])C([H])([H])C([H])(n5nc(-c6c([H])c([H])c(Oc7c([H])c([H])c(F)c([H])c7F)c([H])c6[H])c(C(=O)N([H])[H])c5N([H])[H])C4([H])[H])c3[H])c([H])c([H])c2C1([H])[H]

>  <smiles>  (59) 
[H]c1c([H])c([H])c2c(c1[H])C([H])([H])C([H])([H])C([H])([H])C2([H])N([H])C(=O)C1([H])N(C(=O)C([H])(N([H])C(=O)C([H])(N([H])C([H])([H])[H])C([H])([H])[H])C(C([H])([H])[H])(C([H])([H])[H])C([H])([H])[H])C([H])([H])c2c([H])c(OC([H])([H])C([H])([H])C(=O)Oc3c([H])c(N([H])[H])c([H])c(N([H])C(=O)N4C([H])([H])C([H])([H])C([H])([H])C([H])(n5nc(-c6c([H])c([H])c(Oc7c([H])c([H])c(F)c([H])c7F)c([H])c6[H])c(C(=O)N([H])[H])c5N([H])[H])C4([H])[H])c3[H])c([H])c([H])c2C1([H])[H]

$$$$
60:0:0
     RDKit          3D

 97106  0  0  1  0  0  0  0  0999 V2000
  -27.9120  -21.3660   19.5020 C   0  0  0  0  0  3  0  0  0  0  0  0
  -27.3700  -19.3310   18.3750 C   0  0  0  0  0  3  0  0  0  0  0  0
  -29.5050  -19.3810   19.7040 C   0  0  0  0  0  0  0  0  0  0  0  0
  -27.0100  -20.6290   18.7190 C   0  0  0  0  0  0  0  0  0  0  0  0
  -29.1790  -20.8920   19.9630 C   0  0  0  0  0  0  0  0  0  0  0  0
  -28.5500  -18.7470   18.8460 C   0  0  0  0  0  0  0  0  0  0  0  0
  -28.7510  -17.4940   18.3820 F   0  0  0  0  0  0  0  0  0  0  0  0
  -31.1810  -15.6770   20.7220 C   0  0  0  0  0  0  0  0  0  0  0  0
  -31.1300  -13.1480   20.2710 C   0  0  0  0  0  2  0  0  0  0  0  0
  -30.3950  -12.8300   18.9480 C   0  0  0  0  0  2  0  0  0  0  0  0
  -28.8760  -12.7180   19.1770 C   0  0  0  0  0  2  0  0  0  0  0  0
  -28.3270  -13.8640   20.0610 C   0  0  0  0  0  3  0  0  0  0  0  0
  -29.1990  -14.1100   21.3110 C   0  0  0  0  0  2  0  0  0  0  0  0
  -30.5520  -14.4180   20.8220 N   0  0  0  0  0  0  0  0  0  0  0  0
  -32.4180  -15.6280   20.7030 O   0  0  0  0  0  0  0  0  0  0  0  0
  -30.6810  -18.3080   20.1320 C   0  0  0  0  0  0  0  0  0  0  0  0
  -30.4360  -16.8970   20.4480 N   0  0  0  0  0  0  0  0  0  0  0  0
  -31.8320  -18.7510   20.1900 O   0  0  0  0  0  0  0  0  0  0  0  0
  -29.4460  -16.7160   20.3700 H   0  0  0  0  0  0  0  0  0  0  0  0
  -25.9240  -14.6440   20.4590 C   0  0  0  0  0  0  0  0  0  0  0  0
  -24.7590  -13.9730   20.6880 C   0  0  0  0  0  0  0  0  0  0  0  0
  -25.1090  -12.5910   20.7470 C   0  0  0  0  0  0  0  0  0  0  0  0
  -26.9160  -13.6830   20.3810 N   0  0  0  0  0  0  0  0  0  0  0  0
  -26.4250  -12.4380   20.6220 N   0  0  0  0  0  0  0  0  0  0  0  0
  -24.2540  -11.4050   20.8550 C   0  0  0  0  0  0  0  0  0  0  0  0
  -24.5800  -10.3340   21.7150 C   0  0  0  0  0  3  0  0  0  0  0  0
  -23.7260   -9.2150   21.8150 C   0  0  0  0  0  3  0  0  0  0  0  0
  -22.5310   -9.1650   21.0580 C   0  0  0  0  0  0  0  0  0  0  0  0
  -22.2260  -10.2230   20.1860 C   0  0  0  0  0  3  0  0  0  0  0  0
  -23.0800  -11.3330   20.0800 C   0  0  0  0  0  3  0  0  0  0  0  0
  -21.6520   -8.1070   21.0760 O   0  0  0  0  0  0  0  0  0  0  0  0
  -21.6600   -7.1840   22.0890 C   0  0  0  0  0  0  0  0  0  0  0  0
  -21.5600   -7.5630   23.4440 C   0  0  0  0  0  3  0  0  0  0  0  0
  -21.4980   -6.5760   24.4490 C   0  0  0  0  0  3  0  0  0  0  0  0
  -21.5290   -5.2120   24.1000 C   0  0  0  0  0  0  0  0  0  0  0  0
  -21.6260   -4.8330   22.7490 C   0  0  0  0  0  3  0  0  0  0  0  0
  -21.6860   -5.8160   21.7470 C   0  0  0  0  0  0  0  0  0  0  0  0
  -21.7560   -5.4430   20.4450 F   0  0  0  0  0  0  0  0  0  0  0  0
  -21.4660   -4.2620   25.0630 F   0  0  0  0  0  0  0  0  0  0  0  0
  -23.3880  -14.5780   20.7510 C   0  0  0  0  0  0  0  0  0  0  0  0
  -22.5030  -14.0090   21.5570 N   0  0  0  0  0  0  0  0  0  0  0  0
  -23.1110  -15.5990   20.1190 O   0  0  0  0  0  0  0  0  0  0  0  0
  -22.7410  -13.1790   22.0810 H   0  0  0  0  0  0  0  0  0  0  0  0
  -21.5730  -14.3970   21.6370 H   0  0  0  0  0  0  0  0  0  0  0  0
  -26.1970  -15.9920   20.2920 N   0  0  0  0  0  0  0  0  0  0  0  0
  -25.4600  -16.6840   20.3180 H   0  0  0  0  0  0  0  0  0  0  0  0
  -27.1120  -16.3940   20.1080 H   0  0  0  0  0  0  0  0  0  0  0  0
  -25.1270  -22.2520   18.6850 C   0  0  0  0  0  0  0  0  0  0  0  0
  -23.8620  -22.5210   17.8830 C   0  0  0  0  0  2  0  0  0  0  0  0
  -23.7440  -21.2940   16.9810 C   0  0  0  0  0  2  0  0  0  0  0  0
  -25.1290  -20.6370   17.0230 C   0  0  0  0  0  2  0  0  0  0  0  0
  -25.8100  -21.2030   18.1880 N   0  0  0  0  0  0  0  0  0  0  0  0
  -25.4360  -22.9340   19.6660 O   0  0  0  0  0  0  0  0  0  0  0  0
  -29.8780  -22.0780   20.4920 O   0  0  0  0  0  0  0  0  0  0  0  0
  -29.2970  -23.5270   20.8770 C   0  0  0  0  0  2  0  0  0  0  0  0
  -28.7140  -24.9140   20.0230 C   0  0  0  0  0  2  0  0  0  0  0  0
  -28.7390  -26.4580   20.4260 O   0  0  0  0  0  0  0  0  0  0  0  0
  -24.7070  -31.9620   23.3510 C   0  0  0  0  0  0  0  0  0  0  0  0
  -27.6300  -27.4020   20.3220 C   0  0  0  0  0  0  0  0  0  0  0  0
  -23.6240  -30.5030   21.6870 C   0  0  0  0  0  3  0  0  0  0  0  0
  -25.1930  -29.0290   20.2680 C   0  0  0  0  0  0  0  0  0  0  0  0
  -26.1610  -30.9190   21.5620 C   0  0  0  0  0  2  0  0  0  0  0  0
  -26.3360  -29.5350   20.9000 C   0  0  0  0  0  0  0  0  0  0  0  0
  -27.5480  -28.7380   20.9140 C   0  0  0  0  0  3  0  0  0  0  0  0
  -26.4560  -27.0170   19.6350 C   0  0  0  0  0  3  0  0  0  0  0  0
  -25.2700  -27.7870   19.6170 C   0  0  0  0  0  3  0  0  0  0  0  0
  -23.9110  -29.8530   20.3060 C   0  0  0  0  0  2  0  0  0  0  0  0
  -24.8500  -31.1530   22.2560 N   0  0  0  0  0  0  0  0  0  0  0  0
  -23.5970  -32.1710   23.8660 O   0  0  0  0  0  0  0  0  0  0  0  0
  -22.9980  -29.4470   22.6330 C   0  0  0  0  0  0  0  0  0  0  0  0
  -21.6930  -29.1680   22.4660 N   0  0  0  0  0  0  0  0  0  0  0  0
  -23.6930  -28.8820   23.4810 O   0  0  0  0  0  0  0  0  0  0  0  0
  -21.1840  -29.6800   21.7600 H   0  0  0  0  0  0  0  0  0  0  0  0
  -18.4060  -27.7020   22.8870 C   0  0  0  0  0  0  0  0  0  0  0  0
  -20.9300  -28.1670   23.2150 C   0  0  0  0  0  3  0  0  0  0  0  0
  -21.1600  -26.7490   22.6450 C   0  0  0  0  0  2  0  0  0  0  0  0
  -20.1140  -26.3420   21.6030 C   0  0  0  0  0  2  0  0  0  0  0  0
  -18.7080  -26.3750   22.2120 C   0  0  0  0  0  2  0  0  0  0  0  0
  -19.4500  -28.5510   23.3440 C   0  0  0  0  0  0  0  0  0  0  0  0
  -19.1160  -29.7890   23.9350 C   0  0  0  0  0  3  0  0  0  0  0  0
  -17.7710  -30.1800   24.0770 C   0  0  0  0  0  3  0  0  0  0  0  0
  -16.7430  -29.3310   23.6350 C   0  0  0  0  0  3  0  0  0  0  0  0
  -17.0610  -28.0940   23.0450 C   0  0  0  0  0  3  0  0  0  0  0  0
  -25.9280  -32.6780   24.0030 C   0  0  0  0  0  3  0  0  0  0  0  0
  -26.4250  -31.9770   25.3280 C   0  0  1  0  0  0  0  0  0  0  0  0
  -25.2920  -31.6640   26.3330 C   0  0  0  0  0  1  0  0  0  0  0  0
  -27.1480  -30.6480   25.0100 C   0  0  0  0  0  1  0  0  0  0  0  0
  -27.4570  -32.8810   26.0430 C   0  0  0  0  0  1  0  0  0  0  0  0
  -25.5370  -34.0710   24.2780 N   0  0  0  0  0  0  0  0  0  0  0  0
  -25.8620  -35.1240   23.5140 C   0  0  0  0  0  0  0  0  0  0  0  0
  -26.5850  -35.0270   22.5200 O   0  0  0  0  0  0  0  0  0  0  0  0
  -24.9020  -34.2170   25.0490 H   0  0  0  0  0  0  0  0  0  0  0  0
  -24.0690  -36.8310   23.0480 C   0  0  0  0  0  1  0  0  0  0  0  0
  -25.2950  -36.5010   23.9150 C   0  0  0  0  0  3  0  0  0  0  0  0
  -27.3630  -37.4990   24.7900 C   0  0  0  0  0  1  0  0  0  0  0  0
  -26.2820  -37.5980   23.8130 N   0  0  0  0  0  0  0  0  0  0  0  0
  -25.8290  -38.5010   23.9300 H   0  0  0  0  0  0  0  0  0  0  0  0
  1  5  1  0
  2  4  1  0
  2  6  2  0
  3  5  2  0
  3 16  1  0
  4  1  2  0
  5 54  1  0
  6  3  1  0
  7  6  1  0
  8 14  1  0
  9 14  1  0
 10 11  1  0
 10  9  1  0
 12 11  1  0
 12 23  1  0
 12 13  1  0
 14 13  1  0
 15  8  2  0
 16 18  2  0
 16 17  1  0
 17  8  1  0
 19 17  1  0
 20 21  2  0
 21 22  1  0
 21 40  1  0
 22 25  1  0
 23 20  1  0
 23 24  1  0
 24 22  2  0
 25 26  1  0
 26 27  2  0
 28 31  1  0
 28 27  1  0
 29 28  2  0
 30 29  1  0
 30 25  2  0
 31 32  1  0
 32 33  1  0
 33 34  2  0
 35 34  1  0
 35 39  1  0
 36 35  2  0
 37 32  2  0
 37 36  1  0
 38 37  1  0
 40 41  1  0
 41 44  1  0
 41 43  1  0
 42 40  2  0
 45 46  1  0
 45 20  1  0
 47 45  1  0
 48 53  2  0
 49 48  1  0
 50 51  1  0
 50 49  1  0
 51 52  1  0
 52 48  1  0
 52  4  1  0
 54 55  1  0
 56 57  1  0
 56 55  1  0
 58 69  2  0
 59 57  1  0
 59 64  1  0
 60 68  1  0
 60 70  1  0
 61 67  1  0
 61 63  1  0
 62 68  1  0
 63 64  2  0
 63 62  1  0
 65 59  2  0
 66 65  1  0
 66 61  2  0
 67 60  1  0
 68 58  1  0
 70 72  2  0
 71 70  1  0
 73 71  1  0
 74 83  2  0
 74 79  1  0
 75 71  1  0
 75 79  1  0
 76 75  1  0
 77 78  1  0
 77 76  1  0
 78 74  1  0
 79 80  2  0
 80 81  1  0
 82 81  2  0
 83 82  1  0
 84 58  1  0
 84 89  1  0
 84 85  1  0
 85 88  1  1
 85 86  1  0
 87 85  1  0
 89 92  1  0
 90 94  1  0
 90 89  1  0
 91 90  2  0
 94 93  1  0
 96 94  1  0
 96 97  1  0
 96 95  1  0
M  ISO  4   8 100  17 100  56 101  57 101
M  END
>  <TORSDO>  (60) 
F 20

>  <SCORE>  (60) 
-12.731

>  <name>  (60) 
60

>  <ligand_id>  (60) 
60

>  <original_smiles>  (60) 
[H]c1c([H])c([H])c2c(c1[H])C([H])([H])C([H])([H])C([H])([H])C2([H])N([H])C(=O)C1([H])N(C(=O)C([H])(N([H])C(=O)C([H])(N([H])C([H])([H])[H])C([H])([H])[H])C(C([H])([H])[H])(C([H])([H])[H])C([H])([H])[H])C([H])([H])c2c([H])c(OC([H])([H])C([H])([H])Oc3c([H])c(N4C(=O)C([H])([H])C([H])([H])C4([H])[H])c([H])c(F)c3C(=O)N([H])C(=O)N3C([H])([H])C([H])([H])C([H])([H])C([H])(n4nc(-c5c([H])c([H])c(Oc6c([H])c([H])c(F)c([H])c6F)c([H])c5[H])c(C(=O)N([H])[H])c4N([H])[H])C3([H])[H])c([H])c([H])c2C1([H])[H]

>  <smiles>  (60) 
[H]c1c([H])c([H])c2c(c1[H])C([H])([H])C([H])([H])C([H])([H])C2([H])N([H])C(=O)C1([H])N(C(=O)C([H])(N([H])C(=O)C([H])(N([H])C([H])([H])[H])C([H])([H])[H])C(C([H])([H])[H])(C([H])([H])[H])C([H])([H])[H])C([H])([H])c2c([H])c(OC([H])([H])C([H])([H])Oc3c([H])c(N4C(=O)C([H])([H])C([H])([H])C4([H])[H])c([H])c(F)c3C(=O)N([H])C(=O)N3C([H])([H])C([H])([H])C([H])([H])C([H])(n4nc(-c5c([H])c([H])c(Oc6c([H])c([H])c(F)c([H])c6F)c([H])c5[H])c(C(=O)N([H])[H])c4N([H])[H])C3([H])[H])c([H])c([H])c2C1([H])[H]

$$$$
61:0:0
     RDKit          3D

 96105  0  0  1  0  0  0  0  0999 V2000
  -30.6900  -24.1890   19.8320 C   0  0  0  0  0  3  0  0  0  0  0  0
  -31.2190  -21.8300   20.0140 C   0  0  0  0  0  3  0  0  0  0  0  0
  -29.4080  -23.9420   19.4900 C   0  0  0  0  0  0  0  0  0  0  0  0
  -31.6310  -23.1110   20.0980 C   0  0  0  0  0  0  0  0  0  0  0  0
  -28.9810  -22.4930   19.3830 C   0  0  0  0  0  0  0  0  0  0  0  0
  -29.9030  -21.4760   19.6640 N   0  0  0  0  0  0  0  0  0  0  0  0
  -27.8260  -22.2010   19.0580 O   0  0  0  0  0  0  0  0  0  0  0  0
  -30.9310  -14.8940   19.9730 C   0  0  0  0  0  0  0  0  0  0  0  0
  -30.7810  -12.5910   18.9890 C   0  0  0  0  0  2  0  0  0  0  0  0
  -29.8010  -12.6270   17.7920 C   0  0  0  0  0  2  0  0  0  0  0  0
  -28.3370  -12.4690   18.2550 C   0  0  0  0  0  2  0  0  0  0  0  0
  -27.9920  -13.3860   19.4570 C   0  0  0  0  0  3  0  0  0  0  0  0
  -29.0730  -13.2740   20.5570 C   0  0  0  0  0  2  0  0  0  0  0  0
  -30.3700  -13.6350   19.9550 N   0  0  0  0  0  0  0  0  0  0  0  0
  -32.0360  -15.1250   19.4620 O   0  0  0  0  0  0  0  0  0  0  0  0
  -29.9250  -17.3570   20.4370 C   0  0  0  0  0  3  0  0  0  0  0  0
  -28.8360  -19.5230   20.9890 C   0  0  0  0  0  3  0  0  0  0  0  0
  -29.5130  -19.9880   19.6750 C   0  0  0  0  0  3  0  0  0  0  0  0
  -27.3620  -19.9390   21.1310 C   0  0  0  0  0  1  0  0  0  0  0  0
  -28.9970  -18.0480   21.1430 N   0  0  0  0  0  0  0  0  0  0  0  0
  -30.0640  -15.9680   20.5180 N   0  0  0  0  0  0  0  0  0  0  0  0
  -30.7750  -18.6150   19.3810 S   0  0  0  0  0  0  0  0  0  0  0  0
  -28.4630  -17.6080   21.8790 H   0  0  0  0  0  0  0  0  0  0  0  0
  -29.2870  -15.6160   21.0450 H   0  0  0  0  0  0  0  0  0  0  0  0
  -25.6320  -14.0300   20.2480 C   0  0  0  0  0  0  0  0  0  0  0  0
  -24.5610  -13.2770   20.6460 C   0  0  0  0  0  0  0  0  0  0  0  0
  -24.9930  -11.9160   20.5880 C   0  0  0  0  0  0  0  0  0  0  0  0
  -26.6500  -13.1290   19.9740 N   0  0  0  0  0  0  0  0  0  0  0  0
  -26.2720  -11.8530   20.2390 N   0  0  0  0  0  0  0  0  0  0  0  0
  -24.2460  -10.6680   20.7890 C   0  0  0  0  0  0  0  0  0  0  0  0
  -24.5870   -9.7620   21.8160 C   0  0  0  0  0  3  0  0  0  0  0  0
  -23.8420   -8.5760   22.0010 C   0  0  0  0  0  3  0  0  0  0  0  0
  -22.7420   -8.2910   21.1570 C   0  0  0  0  0  0  0  0  0  0  0  0
  -22.4220   -9.1850   20.1210 C   0  0  0  0  0  3  0  0  0  0  0  0
  -23.1670  -10.3620   19.9350 C   0  0  0  0  0  3  0  0  0  0  0  0
  -21.9780   -7.1520   21.2460 O   0  0  0  0  0  0  0  0  0  0  0  0
  -21.6500   -6.5990   22.4570 C   0  0  0  0  0  0  0  0  0  0  0  0
  -20.9120   -7.3130   23.4280 C   0  0  0  0  0  3  0  0  0  0  0  0
  -20.5370   -6.6820   24.6310 C   0  0  0  0  0  3  0  0  0  0  0  0
  -20.8870   -5.3390   24.8620 C   0  0  0  0  0  0  0  0  0  0  0  0
  -21.6170   -4.6250   23.8950 C   0  0  0  0  0  3  0  0  0  0  0  0
  -21.9940   -5.2530   22.6940 C   0  0  0  0  0  0  0  0  0  0  0  0
  -22.6790   -4.5540   21.7570 F   0  0  0  0  0  0  0  0  0  0  0  0
  -20.5200   -4.7300   26.0140 F   0  0  0  0  0  0  0  0  0  0  0  0
  -23.1820  -13.7800   20.9620 C   0  0  0  0  0  0  0  0  0  0  0  0
  -22.4790  -13.1150   21.8720 N   0  0  0  0  0  0  0  0  0  0  0  0
  -22.7380  -14.8000   20.4350 O   0  0  0  0  0  0  0  0  0  0  0  0
  -22.8510  -12.2910   22.3200 H   0  0  0  0  0  0  0  0  0  0  0  0
  -21.5540  -13.4340   22.1230 H   0  0  0  0  0  0  0  0  0  0  0  0
  -25.8180  -15.3990   20.0740 N   0  0  0  0  0  0  0  0  0  0  0  0
  -25.0350  -16.0380   20.1680 H   0  0  0  0  0  0  0  0  0  0  0  0
  -26.5930  -15.8030   19.5690 H   0  0  0  0  0  0  0  0  0  0  0  0
  -32.8970  -23.3820   20.4310 O   0  0  0  0  0  0  0  0  0  0  0  0
  -33.0070  -24.3260   20.4290 H   0  0  0  0  0  0  0  0  0  0  0  0
  -28.3600  -25.0970   19.2010 C   0  0  0  0  0  2  0  0  0  0  0  0
  -28.5740  -26.5260   19.6140 O   0  0  0  0  0  0  0  0  0  0  0  0
  -24.6940  -31.5270   23.1810 C   0  0  0  0  0  0  0  0  0  0  0  0
  -27.4340  -27.3700   19.6540 C   0  0  0  0  0  0  0  0  0  0  0  0
  -23.5170  -30.2370   21.4390 C   0  0  0  0  0  3  0  0  0  0  0  0
  -25.0040  -28.8980   19.8440 C   0  0  0  0  0  0  0  0  0  0  0  0
  -26.0410  -30.6750   21.2450 C   0  0  0  0  0  2  0  0  0  0  0  0
  -26.1660  -29.3690   20.4660 C   0  0  0  0  0  0  0  0  0  0  0  0
  -27.3840  -28.6180   20.3630 C   0  0  0  0  0  3  0  0  0  0  0  0
  -26.2390  -26.9750   19.0040 C   0  0  0  0  0  3  0  0  0  0  0  0
  -25.0440  -27.7090   19.1030 C   0  0  0  0  0  3  0  0  0  0  0  0
  -23.7310  -29.7090   19.9970 C   0  0  0  0  0  2  0  0  0  0  0  0
  -24.7710  -30.8270   22.0120 N   0  0  0  0  0  0  0  0  0  0  0  0
  -23.6100  -31.7050   23.7580 O   0  0  0  0  0  0  0  0  0  0  0  0
  -22.9180  -29.1060   22.3080 C   0  0  0  0  0  0  0  0  0  0  0  0
  -21.6110  -28.8390   22.1420 N   0  0  0  0  0  0  0  0  0  0  0  0
  -23.6280  -28.4730   23.0940 O   0  0  0  0  0  0  0  0  0  0  0  0
  -21.0910  -29.4080   21.4870 H   0  0  0  0  0  0  0  0  0  0  0  0
  -18.3280  -27.3530   22.4800 C   0  0  0  0  0  0  0  0  0  0  0  0
  -20.8540  -27.7900   22.8260 C   0  0  0  0  0  3  0  0  0  0  0  0
  -21.0770  -26.4140   22.1580 C   0  0  0  0  0  2  0  0  0  0  0  0
  -20.0230  -26.0790   21.0980 C   0  0  0  0  0  2  0  0  0  0  0  0
  -18.6230  -26.0720   21.7170 C   0  0  0  0  0  2  0  0  0  0  0  0
  -19.3750  -28.1670   22.9880 C   0  0  0  0  0  0  0  0  0  0  0  0
  -19.0480  -29.3640   23.6600 C   0  0  0  0  0  3  0  0  0  0  0  0
  -17.7050  -29.7500   23.8300 C   0  0  0  0  0  3  0  0  0  0  0  0
  -16.6720  -28.9340   23.3390 C   0  0  0  0  0  3  0  0  0  0  0  0
  -16.9840  -27.7370   22.6700 C   0  0  0  0  0  3  0  0  0  0  0  0
  -25.9600  -32.1560   23.8380 C   0  0  0  0  0  3  0  0  0  0  0  0
  -25.6370  -33.5490   24.1830 N   0  0  0  0  0  0  0  0  0  0  0  0
  -25.9240  -34.6090   23.4150 C   0  0  0  0  0  0  0  0  0  0  0  0
  -26.5580  -34.5190   22.3600 O   0  0  0  0  0  0  0  0  0  0  0  0
  -25.0700  -33.6920   25.0050 H   0  0  0  0  0  0  0  0  0  0  0  0
  -24.1460  -36.3670   23.1400 C   0  0  0  0  0  1  0  0  0  0  0  0
  -25.4300  -35.9870   23.8940 C   0  0  0  0  0  3  0  0  0  0  0  0
  -27.5690  -36.9300   24.6460 C   0  0  0  0  0  1  0  0  0  0  0  0
  -26.4350  -37.0610   23.7350 N   0  0  0  0  0  0  0  0  0  0  0  0
  -26.0140  -37.9750   23.8830 H   0  0  0  0  0  0  0  0  0  0  0  0
  -26.4510  -31.3700   25.1160 C   0  0  1  0  0  0  0  0  0  0  0  0
  -25.3350  -31.1100   26.1540 C   0  0  0  0  0  1  0  0  0  0  0  0
  -27.0520  -30.0020   24.7200 C   0  0  0  0  0  1  0  0  0  0  0  0
  -27.5810  -32.1620   25.8160 C   0  0  0  0  0  1  0  0  0  0  0  0
  1  4  1  0
  2  4  2  0
  3  1  2  0
  4 53  1  0
  5  3  1  0
  5  6  1  0
  6  2  1  0
  7  5  2  0
  8 21  1  0
  9 14  1  0
 10 11  1  0
 10  9  1  0
 12 11  1  0
 12 28  1  0
 12 13  1  0
 14  8  1  0
 14 13  1  0
 15  8  2  0
 16 21  1  0
 16 20  1  0
 17 19  1  0
 17 20  1  0
 18  6  1  0
 18 17  1  0
 20 23  1  0
 21 24  1  0
 22 18  1  0
 22 16  1  0
 25 26  2  0
 26 45  1  0
 27 26  1  0
 27 30  1  0
 28 29  1  0
 28 25  1  0
 29 27  2  0
 30 31  1  0
 31 32  2  0
 33 36  1  0
 33 32  1  0
 34 33  2  0
 35 34  1  0
 35 30  2  0
 36 37  1  0
 37 42  2  0
 37 38  1  0
 38 39  2  0
 39 40  1  0
 40 44  1  0
 41 40  2  0
 42 41  1  0
 43 42  1  0
 45 46  1  0
 46 49  1  0
 46 48  1  0
 47 45  2  0
 50 51  1  0
 50 25  1  0
 52 50  1  0
 54 53  1  0
 55  3  1  0
 55 56  1  0
 56 58  1  0
 57 68  2  0
 58 63  1  0
 59 67  1  0
 59 69  1  0
 60 66  1  0
 60 62  1  0
 61 67  1  0
 62 61  1  0
 63 62  2  0
 64 65  1  0
 64 58  2  0
 65 60  2  0
 66 59  1  0
 67 57  1  0
 69 71  2  0
 70 69  1  0
 72 70  1  0
 73 82  2  0
 73 78  1  0
 74 70  1  0
 74 78  1  0
 75 74  1  0
 76 77  1  0
 76 75  1  0
 77 73  1  0
 78 79  2  0
 79 80  1  0
 81 80  2  0
 82 81  1  0
 83 57  1  0
 83 84  1  0
 83 93  1  0
 84 87  1  0
 85 89  1  0
 85 84  1  0
 86 85  2  0
 89 88  1  0
 91 92  1  0
 91 89  1  0
 91 90  1  0
 93 96  1  1
 93 94  1  0
 95 93  1  0
M  ISO  4   8 100  21 100  55 101  56 101
M  END
>  <TORSDO>  (61) 
F 18

>  <SCORE>  (61) 
-11.567

>  <name>  (61) 
61

>  <ligand_id>  (61) 
61

>  <original_smiles>  (61) 
[H]Oc1c([H])c(C([H])([H])Oc2c([H])c([H])c3c(c2[H])C([H])([H])N(C(=O)C([H])(N([H])C(=O)C([H])(N([H])C([H])([H])[H])C([H])([H])[H])C(C([H])([H])[H])(C([H])([H])[H])C([H])([H])[H])C([H])(C(=O)N([H])C2([H])c4c([H])c([H])c([H])c([H])c4C([H])([H])C([H])([H])C2([H])[H])C3([H])[H])c(=O)n(C2([H])SC(N([H])C(=O)N3C([H])([H])C([H])([H])C([H])([H])C([H])(n4nc(-c5c([H])c([H])c(Oc6c([H])c([H])c(F)c([H])c6F)c([H])c5[H])c(C(=O)N([H])[H])c4N([H])[H])C3([H])[H])=[N+]([H])C2([H])C([H])([H])[H])c1[H]

>  <smiles>  (61) 
[H]Oc1c([H])c(C([H])([H])Oc2c([H])c([H])c3c(c2[H])C([H])([H])N(C(=O)C([H])(N([H])C(=O)C([H])(N([H])C([H])([H])[H])C([H])([H])[H])C(C([H])([H])[H])(C([H])([H])[H])C([H])([H])[H])C([H])(C(=O)N([H])C2([H])c4c([H])c([H])c([H])c([H])c4C([H])([H])C([H])([H])C2([H])[H])C3([H])[H])c(=O)n(C2([H])SC(N([H])C(=O)N3C([H])([H])C([H])([H])C([H])([H])C([H])(n4nc(-c5c([H])c([H])c(Oc6c([H])c([H])c(F)c([H])c6F)c([H])c5[H])c(C(=O)N([H])[H])c4N([H])[H])C3([H])[H])=[N+]([H])C2([H])C([H])([H])[H])c1[H]

$$$$
62:0:0
     RDKit          3D

 95104  0  0  1  0  0  0  0  0999 V2000
  -28.9270  -18.0340   20.4230 C   0  0  0  0  0  3  0  0  0  0  0  0
  -31.3290  -18.0630   20.3550 C   0  0  0  0  0  3  0  0  0  0  0  0
  -28.8770  -19.4600   20.3350 C   0  0  0  0  0  0  0  0  0  0  0  0
  -30.0710  -20.2350   20.2560 C   0  0  0  0  0  0  0  0  0  0  0  0
  -30.1380  -17.2920   20.4410 C   0  0  0  0  0  0  0  0  0  0  0  0
  -31.2910  -19.4920   20.2660 C   0  0  0  0  0  0  0  0  0  0  0  0
  -27.5110  -20.1260   20.3540 C   0  0  0  0  0  1  0  0  0  0  0  0
  -30.8540  -14.7880   20.1770 C   0  0  0  0  0  0  0  0  0  0  0  0
  -30.6080  -12.5500   19.1180 C   0  0  0  0  0  2  0  0  0  0  0  0
  -29.6480  -12.6890   17.9140 C   0  0  0  0  0  2  0  0  0  0  0  0
  -28.1770  -12.5560   18.3610 C   0  0  0  0  0  2  0  0  0  0  0  0
  -27.8480  -13.4290   19.6010 C   0  0  0  0  0  3  0  0  0  0  0  0
  -28.9170  -13.2480   20.7040 C   0  0  0  0  0  2  0  0  0  0  0  0
  -30.2270  -13.5690   20.1140 N   0  0  0  0  0  0  0  0  0  0  0  0
  -32.0090  -14.9380   19.7670 O   0  0  0  0  0  0  0  0  0  0  0  0
  -30.0540  -15.8330   20.5620 N   0  0  0  0  0  0  0  0  0  0  0  0
  -29.1580  -15.5020   20.8830 H   0  0  0  0  0  0  0  0  0  0  0  0
  -25.4860  -14.0850   20.3760 C   0  0  0  0  0  0  0  0  0  0  0  0
  -24.4030  -13.3360   20.7460 C   0  0  0  0  0  0  0  0  0  0  0  0
  -24.8210  -11.9720   20.6680 C   0  0  0  0  0  0  0  0  0  0  0  0
  -26.4990  -13.1780   20.1000 N   0  0  0  0  0  0  0  0  0  0  0  0
  -26.1030  -11.9010   20.3350 N   0  0  0  0  0  0  0  0  0  0  0  0
  -24.0590  -10.7280   20.8360 C   0  0  0  0  0  0  0  0  0  0  0  0
  -24.4670   -9.7280   21.7450 C   0  0  0  0  0  3  0  0  0  0  0  0
  -23.7060   -8.5490   21.9020 C   0  0  0  0  0  3  0  0  0  0  0  0
  -22.5240   -8.3620   21.1490 C   0  0  0  0  0  0  0  0  0  0  0  0
  -22.1340   -9.3510   20.2280 C   0  0  0  0  0  3  0  0  0  0  0  0
  -22.8940  -10.5200   20.0690 C   0  0  0  0  0  3  0  0  0  0  0  0
  -21.7380   -7.2370   21.2160 O   0  0  0  0  0  0  0  0  0  0  0  0
  -21.6540   -6.4840   22.3590 C   0  0  0  0  0  0  0  0  0  0  0  0
  -21.1560   -7.0160   23.5680 C   0  0  0  0  0  3  0  0  0  0  0  0
  -21.0230   -6.1880   24.7000 C   0  0  0  0  0  3  0  0  0  0  0  0
  -21.3780   -4.8280   24.6250 C   0  0  0  0  0  0  0  0  0  0  0  0
  -21.8700   -4.2950   23.4200 C   0  0  0  0  0  3  0  0  0  0  0  0
  -22.0050   -5.1200   22.2900 C   0  0  0  0  0  0  0  0  0  0  0  0
  -22.4590   -4.5960   21.1260 F   0  0  0  0  0  0  0  0  0  0  0  0
  -21.2440   -4.0310   25.7090 F   0  0  0  0  0  0  0  0  0  0  0  0
  -23.0250  -13.8490   21.0550 C   0  0  0  0  0  0  0  0  0  0  0  0
  -22.2930  -13.1560   21.9190 N   0  0  0  0  0  0  0  0  0  0  0  0
  -22.6090  -14.8990   20.5660 O   0  0  0  0  0  0  0  0  0  0  0  0
  -22.6420  -12.3060   22.3380 H   0  0  0  0  0  0  0  0  0  0  0  0
  -21.3700  -13.4810   22.1680 H   0  0  0  0  0  0  0  0  0  0  0  0
  -25.6910  -15.4540   20.2290 N   0  0  0  0  0  0  0  0  0  0  0  0
  -24.9370  -16.1210   20.3460 H   0  0  0  0  0  0  0  0  0  0  0  0
  -26.5200  -15.8650   19.8210 H   0  0  0  0  0  0  0  0  0  0  0  0
  -29.6630  -23.7660   21.4230 C   0  0  0  0  0  2  0  0  0  0  0  0
  -30.3080  -22.3590   21.5390 C   0  0  0  0  0  2  0  0  0  0  0  0
  -29.3290  -22.5980   19.3950 C   0  0  0  0  0  2  0  0  0  0  0  0
  -29.5670  -24.0670   19.9210 C   0  0  0  0  0  3  0  0  0  0  0  0
  -30.1090  -21.6800   20.2600 N   0  0  0  0  0  0  0  0  0  0  0  0
  -28.5060  -25.1790   19.4990 C   0  0  0  0  0  2  0  0  0  0  0  0
  -28.6510  -26.6010   19.8950 O   0  0  0  0  0  0  0  0  0  0  0  0
  -24.6110  -31.6830   23.0540 C   0  0  0  0  0  0  0  0  0  0  0  0
  -27.5040  -27.4140   19.8400 C   0  0  0  0  0  0  0  0  0  0  0  0
  -23.5200  -30.3430   21.2910 C   0  0  0  0  0  3  0  0  0  0  0  0
  -25.0790  -28.9380   19.8350 C   0  0  0  0  0  0  0  0  0  0  0  0
  -26.0520  -30.7620   21.2250 C   0  0  0  0  0  2  0  0  0  0  0  0
  -26.2070  -29.4300   20.5030 C   0  0  0  0  0  0  0  0  0  0  0  0
  -27.4210  -28.6800   20.4970 C   0  0  0  0  0  3  0  0  0  0  0  0
  -26.3480  -26.9820   19.1440 C   0  0  0  0  0  3  0  0  0  0  0  0
  -25.1520  -27.7190   19.1480 C   0  0  0  0  0  3  0  0  0  0  0  0
  -23.8100  -29.7620   19.8830 C   0  0  0  0  0  2  0  0  0  0  0  0
  -24.7440  -30.9430   21.9150 N   0  0  0  0  0  0  0  0  0  0  0  0
  -23.5000  -31.8900   23.5610 O   0  0  0  0  0  0  0  0  0  0  0  0
  -22.8630  -29.2470   22.1640 C   0  0  0  0  0  0  0  0  0  0  0  0
  -21.5360  -29.0870   22.0340 N   0  0  0  0  0  0  0  0  0  0  0  0
  -23.5460  -28.5480   22.9170 O   0  0  0  0  0  0  0  0  0  0  0  0
  -21.0440  -29.7040   21.4030 H   0  0  0  0  0  0  0  0  0  0  0  0
  -18.1430  -27.9440   22.5510 C   0  0  0  0  0  0  0  0  0  0  0  0
  -20.7180  -28.0900   22.7280 C   0  0  0  0  0  3  0  0  0  0  0  0
  -20.7430  -26.7340   21.9860 C   0  0  0  0  0  2  0  0  0  0  0  0
  -19.5870  -26.5680   20.9950 C   0  0  0  0  0  2  0  0  0  0  0  0
  -18.2400  -26.6790   21.7160 C   0  0  0  0  0  2  0  0  0  0  0  0
  -19.3060  -28.6150   23.0140 C   0  0  0  0  0  0  0  0  0  0  0  0
  -19.1590  -29.8050   23.7590 C   0  0  0  0  0  3  0  0  0  0  0  0
  -17.8820  -30.3240   24.0450 C   0  0  0  0  0  3  0  0  0  0  0  0
  -16.7330  -29.6480   23.5970 C   0  0  0  0  0  3  0  0  0  0  0  0
  -16.8650  -28.4590   22.8570 C   0  0  0  0  0  3  0  0  0  0  0  0
  -25.8460  -32.3220   23.7600 C   0  0  0  0  0  3  0  0  0  0  0  0
  -26.3000  -31.5350   25.0500 C   0  0  1  0  0  0  0  0  0  0  0  0
  -25.1530  -31.2740   26.0550 C   0  0  0  0  0  1  0  0  0  0  0  0
  -26.9130  -30.1670   24.6710 C   0  0  0  0  0  1  0  0  0  0  0  0
  -27.4080  -32.3260   25.7840 C   0  0  0  0  0  1  0  0  0  0  0  0
  -25.4950  -33.7090   24.0970 N   0  0  0  0  0  0  0  0  0  0  0  0
  -25.8340  -34.7790   23.3650 C   0  0  0  0  0  0  0  0  0  0  0  0
  -26.5440  -34.7040   22.3590 O   0  0  0  0  0  0  0  0  0  0  0  0
  -24.8680  -33.8410   24.8770 H   0  0  0  0  0  0  0  0  0  0  0  0
  -24.0810  -36.5410   22.9750 C   0  0  0  0  0  1  0  0  0  0  0  0
  -25.3020  -36.1520   23.8230 C   0  0  0  0  0  3  0  0  0  0  0  0
  -27.3740  -37.0830   24.7540 C   0  0  0  0  0  1  0  0  0  0  0  0
  -26.3150  -37.2270   23.7580 N   0  0  0  0  0  0  0  0  0  0  0  0
  -25.8820  -38.1370   23.8840 H   0  0  0  0  0  0  0  0  0  0  0  0
  -32.4890  -20.2040   20.2000 N   0  0  0  0  0  0  0  0  0  0  0  0
  -33.2620  -19.8480   20.7500 H   0  0  0  0  0  0  0  0  0  0  0  0
  -32.3320  -21.1980   20.3450 H   0  0  0  0  0  0  0  0  0  0  0  0
  1  5  1  0
  2  5  2  0
  3  7  1  0
  3  1  2  0
  4 50  1  0
  4  6  2  0
  4  3  1  0
  5 16  1  0
  6  2  1  0
  8 16  1  0
  9 14  1  0
 10 11  1  0
 10  9  1  0
 12 11  1  0
 12 21  1  0
 12 13  1  0
 14  8  1  0
 14 13  1  0
 15  8  2  0
 16 17  1  0
 18 19  2  0
 19 38  1  0
 20 19  1  0
 20 23  1  0
 21 22  1  0
 21 18  1  0
 22 20  2  0
 23 24  1  0
 24 25  2  0
 26 29  1  0
 26 25  1  0
 27 26  2  0
 28 27  1  0
 28 23  2  0
 29 30  1  0
 30 31  1  0
 31 32  2  0
 33 32  1  0
 33 37  1  0
 34 33  2  0
 35 30  2  0
 35 34  1  0
 36 35  1  0
 38 39  1  0
 39 42  1  0
 39 41  1  0
 40 38  2  0
 43 44  1  0
 43 18  1  0
 45 43  1  0
 46 47  1  0
 48 49  1  0
 48 50  1  0
 49 51  1  0
 49 46  1  0
 50 47  1  0
 51 52  1  0
 53 64  2  0
 54 52  1  0
 54 59  1  0
 55 63  1  0
 55 65  1  0
 56 62  1  0
 56 58  1  0
 57 63  1  0
 58 57  1  0
 59 58  2  0
 60 61  1  0
 60 54  2  0
 61 56  2  0
 62 55  1  0
 63 53  1  0
 65 67  2  0
 66 65  1  0
 68 66  1  0
 69 78  2  0
 69 74  1  0
 70 66  1  0
 70 74  1  0
 71 70  1  0
 72 73  1  0
 72 71  1  0
 73 69  1  0
 74 75  2  0
 75 76  1  0
 77 76  2  0
 78 77  1  0
 79 53  1  0
 79 84  1  0
 79 80  1  0
 80 83  1  1
 80 81  1  0
 82 80  1  0
 84 87  1  0
 85 89  1  0
 85 84  1  0
 86 85  2  0
 89 88  1  0
 91 89  1  0
 91 92  1  0
 91 90  1  0
 93  6  1  0
 93 95  1  0
 93 94  1  0
M  ISO  4   8 100  16 100  51 101  52 101
M  END
>  <TORSDO>  (62) 
F 19

>  <SCORE>  (62) 
-13.897

>  <name>  (62) 
62

>  <ligand_id>  (62) 
62

>  <original_smiles>  (62) 
[H]c1c([H])c([H])c2c(c1[H])C([H])([H])C([H])([H])C([H])([H])C2([H])N([H])C(=O)C1([H])N(C(=O)C([H])(N([H])C(=O)C([H])(N([H])C([H])([H])[H])C([H])([H])[H])C(C([H])([H])[H])(C([H])([H])[H])C([H])([H])[H])C([H])([H])c2c([H])c(OC([H])([H])C3([H])C([H])([H])N(c4c(N([H])[H])c([H])c(N([H])C(=O)N5C([H])([H])C([H])([H])C([H])([H])C([H])(n6nc(-c7c([H])c([H])c(Oc8c([H])c([H])c(F)c([H])c8F)c([H])c7[H])c(C(=O)N([H])[H])c6N([H])[H])C5([H])[H])c([H])c4C([H])([H])[H])C([H])([H])C3([H])[H])c([H])c([H])c2C1([H])[H]

>  <smiles>  (62) 
[H]c1c([H])c([H])c2c(c1[H])C([H])([H])C([H])([H])C([H])([H])C2([H])N([H])C(=O)C1([H])N(C(=O)C([H])(N([H])C(=O)C([H])(N([H])C([H])([H])[H])C([H])([H])[H])C(C([H])([H])[H])(C([H])([H])[H])C([H])([H])[H])C([H])([H])c2c([H])c(OC([H])([H])C3([H])C([H])([H])N(c4c(N([H])[H])c([H])c(N([H])C(=O)N5C([H])([H])C([H])([H])C([H])([H])C([H])(n6nc(-c7c([H])c([H])c(Oc8c([H])c([H])c(F)c([H])c8F)c([H])c7[H])c(C(=O)N([H])[H])c6N([H])[H])C5([H])[H])c([H])c4C([H])([H])[H])C([H])([H])C3([H])[H])c([H])c([H])c2C1([H])[H]

$$$$
63:0:0
     RDKit          3D

 95103  0  0  1  0  0  0  0  0999 V2000
  -28.9040  -22.3630   20.1670 C   0  0  0  0  0  2  0  0  0  0  0  0
  -29.2720  -23.8880   19.8510 C   0  0  0  0  0  3  0  0  0  0  0  0
  -29.5130  -24.0100   18.3900 N   0  0  0  0  0  4  0  0  0  0  0  0
  -28.7330  -23.6640   17.8540 H   0  0  0  0  0  0  0  0  0  0  0  0
  -30.3190  -23.4680   18.1260 H   0  0  0  0  0  0  0  0  0  0  0  0
  -29.6780  -24.9640   18.1130 H   0  0  0  0  0  0  0  0  0  0  0  0
  -28.2080  -24.9780   20.3340 C   0  0  0  0  0  2  0  0  0  0  0  0
  -28.4320  -26.4270   20.0630 O   0  0  0  0  0  0  0  0  0  0  0  0
  -24.6270  -31.7560   23.1950 C   0  0  0  0  0  0  0  0  0  0  0  0
  -27.3110  -27.2750   20.0630 C   0  0  0  0  0  0  0  0  0  0  0  0
  -23.4550  -30.3780   21.5180 C   0  0  0  0  0  3  0  0  0  0  0  0
  -24.9330  -28.8680   20.0850 C   0  0  0  0  0  0  0  0  0  0  0  0
  -25.9980  -30.7170   21.3750 C   0  0  0  0  0  2  0  0  0  0  0  0
  -26.0960  -29.3540   20.6970 C   0  0  0  0  0  0  0  0  0  0  0  0
  -27.2890  -28.5690   20.6770 C   0  0  0  0  0  3  0  0  0  0  0  0
  -26.1290  -26.8590   19.4110 C   0  0  0  0  0  3  0  0  0  0  0  0
  -24.9510  -27.6250   19.4390 C   0  0  0  0  0  3  0  0  0  0  0  0
  -23.6910  -29.7300   20.1320 C   0  0  0  0  0  2  0  0  0  0  0  0
  -24.7120  -30.9670   22.0840 N   0  0  0  0  0  0  0  0  0  0  0  0
  -23.5340  -32.0140   23.7200 O   0  0  0  0  0  0  0  0  0  0  0  0
  -22.7900  -29.3360   22.4500 C   0  0  0  0  0  0  0  0  0  0  0  0
  -21.4690  -29.1450   22.2970 N   0  0  0  0  0  0  0  0  0  0  0  0
  -23.4630  -28.7050   23.2690 O   0  0  0  0  0  0  0  0  0  0  0  0
  -20.9860  -29.7060   21.6090 H   0  0  0  0  0  0  0  0  0  0  0  0
  -18.0920  -27.9250   22.7420 C   0  0  0  0  0  0  0  0  0  0  0  0
  -20.6470  -28.1870   23.0410 C   0  0  0  0  0  3  0  0  0  0  0  0
  -20.7590  -26.7690   22.4340 C   0  0  0  0  0  2  0  0  0  0  0  0
  -19.6670  -26.4650   21.4040 C   0  0  0  0  0  2  0  0  0  0  0  0
  -18.2790  -26.5910   22.0370 C   0  0  0  0  0  2  0  0  0  0  0  0
  -19.2040  -28.6820   23.1970 C   0  0  0  0  0  0  0  0  0  0  0  0
  -18.9750  -29.9310   23.8140 C   0  0  0  0  0  3  0  0  0  0  0  0
  -17.6670  -30.4230   23.9800 C   0  0  0  0  0  3  0  0  0  0  0  0
  -16.5690  -29.6630   23.5420 C   0  0  0  0  0  3  0  0  0  0  0  0
  -16.7820  -28.4160   22.9290 C   0  0  0  0  0  3  0  0  0  0  0  0
  -25.8960  -32.3860   23.8450 C   0  0  0  0  0  3  0  0  0  0  0  0
  -25.5760  -33.7830   24.1740 N   0  0  0  0  0  0  0  0  0  0  0  0
  -25.9120  -34.8380   23.4210 C   0  0  0  0  0  0  0  0  0  0  0  0
  -26.5920  -34.7410   22.3960 O   0  0  0  0  0  0  0  0  0  0  0  0
  -24.9680  -33.9320   24.9660 H   0  0  0  0  0  0  0  0  0  0  0  0
  -24.1770  -36.6230   23.0630 C   0  0  0  0  0  1  0  0  0  0  0  0
  -25.4160  -36.2240   23.8790 C   0  0  0  0  0  3  0  0  0  0  0  0
  -27.5360  -37.1240   24.7310 C   0  0  0  0  0  1  0  0  0  0  0  0
  -26.4440  -37.2830   23.7750 N   0  0  0  0  0  0  0  0  0  0  0  0
  -26.0300  -38.2020   23.9160 H   0  0  0  0  0  0  0  0  0  0  0  0
  -26.3860  -31.6110   25.1300 C   0  0  1  0  0  0  0  0  0  0  0  0
  -25.2690  -31.3670   26.1720 C   0  0  0  0  0  1  0  0  0  0  0  0
  -26.9780  -30.2350   24.7480 C   0  0  0  0  0  1  0  0  0  0  0  0
  -27.5180  -32.4060   25.8200 C   0  0  0  0  0  1  0  0  0  0  0  0
  -30.0210  -21.4140   20.0910 O   0  0  0  0  0  0  0  0  0  0  0  0
  -31.0730  -17.8870   20.8810 C   0  0  0  0  0  3  0  0  0  0  0  0
  -31.0320  -19.3030   20.7240 C   0  0  0  0  0  3  0  0  0  0  0  0
  -28.8250  -17.7680   20.0500 C   0  0  0  0  0  3  0  0  0  0  0  0
  -29.9640  -17.0760   20.5440 C   0  0  0  0  0  0  0  0  0  0  0  0
  -29.9030  -20.0050   20.2200 C   0  0  0  0  0  0  0  0  0  0  0  0
  -28.7830  -19.1930   19.8630 C   0  0  0  0  0  0  0  0  0  0  0  0
  -30.7230  -14.6080   20.2700 C   0  0  0  0  0  0  0  0  0  0  0  0
  -30.4880  -12.4160   19.1350 C   0  0  0  0  0  2  0  0  0  0  0  0
  -29.5160  -12.6470   17.9560 C   0  0  0  0  0  2  0  0  0  0  0  0
  -28.0450  -12.4940   18.4070 C   0  0  0  0  0  2  0  0  0  0  0  0
  -27.7390  -13.2590   19.7240 C   0  0  0  0  0  3  0  0  0  0  0  0
  -28.8330  -13.0070   20.7890 C   0  0  0  0  0  2  0  0  0  0  0  0
  -30.1260  -13.3770   20.1930 N   0  0  0  0  0  0  0  0  0  0  0  0
  -31.8610  -14.8030   19.8300 O   0  0  0  0  0  0  0  0  0  0  0  0
  -29.9060  -15.6210   20.6970 N   0  0  0  0  0  0  0  0  0  0  0  0
  -29.0180  -15.2660   21.0200 H   0  0  0  0  0  0  0  0  0  0  0  0
  -25.3720  -13.8510   20.5350 C   0  0  0  0  0  0  0  0  0  0  0  0
  -24.3100  -13.0760   20.9220 C   0  0  0  0  0  0  0  0  0  0  0  0
  -24.7580  -11.7230   20.8290 C   0  0  0  0  0  0  0  0  0  0  0  0
  -26.3990  -12.9700   20.2340 N   0  0  0  0  0  0  0  0  0  0  0  0
  -26.0360  -11.6830   20.4660 N   0  0  0  0  0  0  0  0  0  0  0  0
  -24.0250  -10.4630   21.0110 C   0  0  0  0  0  0  0  0  0  0  0  0
  -24.4520   -9.4940   21.9430 C   0  0  0  0  0  3  0  0  0  0  0  0
  -23.7250   -8.2960   22.1150 C   0  0  0  0  0  3  0  0  0  0  0  0
  -22.5580   -8.0580   21.3500 C   0  0  0  0  0  0  0  0  0  0  0  0
  -22.1470   -9.0200   20.4100 C   0  0  0  0  0  3  0  0  0  0  0  0
  -22.8740  -10.2100   20.2380 C   0  0  0  0  0  3  0  0  0  0  0  0
  -21.8040   -6.9120   21.4270 O   0  0  0  0  0  0  0  0  0  0  0  0
  -21.6960   -6.1980   22.5930 C   0  0  0  0  0  0  0  0  0  0  0  0
  -21.1590   -6.7690   23.7680 C   0  0  0  0  0  3  0  0  0  0  0  0
  -20.9990   -5.9800   24.9240 C   0  0  0  0  0  3  0  0  0  0  0  0
  -21.3650   -4.6200   24.9070 C   0  0  0  0  0  0  0  0  0  0  0  0
  -21.8940   -4.0490   23.7370 C   0  0  0  0  0  3  0  0  0  0  0  0
  -22.0560   -4.8340   22.5820 C   0  0  0  0  0  0  0  0  0  0  0  0
  -22.5460   -4.2730   21.4510 F   0  0  0  0  0  0  0  0  0  0  0  0
  -21.2040   -3.8610   26.0160 F   0  0  0  0  0  0  0  0  0  0  0  0
  -22.9310  -13.5620   21.2590 C   0  0  0  0  0  0  0  0  0  0  0  0
  -22.2260  -12.8590   22.1390 N   0  0  0  0  0  0  0  0  0  0  0  0
  -22.4850  -14.6020   20.7790 O   0  0  0  0  0  0  0  0  0  0  0  0
  -22.5930  -12.0190   22.5580 H   0  0  0  0  0  0  0  0  0  0  0  0
  -21.3010  -13.1740   22.3980 H   0  0  0  0  0  0  0  0  0  0  0  0
  -25.5340  -15.2250   20.3950 N   0  0  0  0  0  0  0  0  0  0  0  0
  -24.7540  -15.8560   20.5320 H   0  0  0  0  0  0  0  0  0  0  0  0
  -26.3370  -15.6650   19.9700 H   0  0  0  0  0  0  0  0  0  0  0  0
  -26.7780  -19.0770   18.5200 C   0  0  0  0  0  1  0  0  0  0  0  0
  -27.6850  -19.8240   19.3220 O   0  0  0  0  0  0  0  0  0  0  0  0
  2  1  1  0
  2  7  1  0
  3  2  1  0
  4  3  1  0
  5  3  1  0
  6  3  1  0
  8 10  1  0
  8  7  1  0
  9 20  2  0
 10 15  1  0
 11 19  1  0
 11 21  1  0
 12 18  1  0
 12 14  1  0
 13 19  1  0
 14 13  1  0
 15 14  2  0
 16 17  1  0
 16 10  2  0
 17 12  2  0
 18 11  1  0
 19  9  1  0
 21 23  2  0
 22 21  1  0
 24 22  1  0
 25 34  2  0
 25 30  1  0
 26 22  1  0
 26 30  1  0
 27 26  1  0
 28 29  1  0
 28 27  1  0
 29 25  1  0
 30 31  2  0
 31 32  1  0
 33 32  2  0
 34 33  1  0
 35  9  1  0
 35 36  1  0
 35 45  1  0
 36 39  1  0
 37 41  1  0
 37 36  1  0
 38 37  2  0
 41 40  1  0
 43 41  1  0
 43 44  1  0
 43 42  1  0
 45 48  1  1
 45 46  1  0
 47 45  1  0
 49  1  1  0
 49 54  1  0
 51 50  1  0
 52 53  1  0
 53 64  1  0
 53 50  2  0
 54 51  2  0
 55 52  2  0
 55 54  1  0
 56 64  1  0
 57 62  1  0
 58 59  1  0
 58 57  1  0
 60 59  1  0
 60 69  1  0
 60 61  1  0
 62 56  1  0
 62 61  1  0
 63 56  2  0
 64 65  1  0
 66 67  2  0
 67 86  1  0
 68 67  1  0
 68 71  1  0
 69 70  1  0
 69 66  1  0
 70 68  2  0
 71 72  1  0
 72 73  2  0
 74 77  1  0
 74 73  1  0
 75 74  2  0
 76 75  1  0
 76 71  2  0
 77 78  1  0
 78 79  1  0
 79 80  2  0
 81 80  1  0
 81 85  1  0
 82 81  2  0
 83 78  2  0
 83 82  1  0
 84 83  1  0
 86 87  1  0
 87 90  1  0
 87 89  1  0
 88 86  2  0
 91 92  1  0
 91 66  1  0
 93 91  1  0
 94 95  1  0
 95 55  1  0
M  ISO  4   7 101   8 101  56 100  64 100
M  END
>  <TORSDO>  (63) 
F 22

>  <SCORE>  (63) 
-13.210

>  <name>  (63) 
63

>  <ligand_id>  (63) 
63

>  <original_smiles>  (63) 
[H]c1c([H])c([H])c2c(c1[H])C([H])([H])C([H])([H])C([H])([H])C2([H])N([H])C(=O)C1([H])N(C(=O)C([H])(N([H])C(=O)C([H])(N([H])C([H])([H])[H])C([H])([H])[H])C(C([H])([H])[H])(C([H])([H])[H])C([H])([H])[H])C([H])([H])c2c([H])c(OC([H])([H])C([H])(C([H])([H])Oc3c([H])c([H])c(N([H])C(=O)N4C([H])([H])C([H])([H])C([H])([H])C([H])(n5nc(-c6c([H])c([H])c(Oc7c([H])c([H])c(F)c([H])c7F)c([H])c6[H])c(C(=O)N([H])[H])c5N([H])[H])C4([H])[H])c([H])c3OC([H])([H])[H])[N+]([H])([H])[H])c([H])c([H])c2C1([H])[H]

>  <smiles>  (63) 
[H]c1c([H])c([H])c2c(c1[H])C([H])([H])C([H])([H])C([H])([H])C2([H])N([H])C(=O)C1([H])N(C(=O)C([H])(N([H])C(=O)C([H])(N([H])C([H])([H])[H])C([H])([H])[H])C(C([H])([H])[H])(C([H])([H])[H])C([H])([H])[H])C([H])([H])c2c([H])c(OC([H])([H])C([H])(C([H])([H])Oc3c([H])c([H])c(N([H])C(=O)N4C([H])([H])C([H])([H])C([H])([H])C([H])(n5nc(-c6c([H])c([H])c(Oc7c([H])c([H])c(F)c([H])c7F)c([H])c6[H])c(C(=O)N([H])[H])c5N([H])[H])C4([H])[H])c([H])c3OC([H])([H])[H])[N+]([H])([H])[H])c([H])c([H])c2C1([H])[H]

$$$$
64:0:0
     RDKit          3D

 95104  0  0  1  0  0  0  0  0999 V2000
  -31.5070  -22.0010   19.3740 C   0  0  0  0  0  0  0  0  0  0  0  0
  -31.6710  -23.4890   19.0320 C   0  0  0  0  0  2  0  0  0  0  0  0
  -30.8770  -24.4360   19.9320 C   0  0  0  0  0  2  0  0  0  0  0  0
  -29.3290  -22.5180   20.4470 C   0  0  0  0  0  2  0  0  0  0  0  0
  -29.4070  -24.0340   19.9330 C   0  0  0  0  0  3  0  0  0  0  0  0
  -30.3320  -21.5270   19.8890 N   0  0  0  0  0  0  0  0  0  0  0  0
  -32.4820  -21.2790   19.1370 O   0  0  0  0  0  0  0  0  0  0  0  0
  -30.2200  -19.4430   21.3560 C   0  0  0  0  0  3  0  0  0  0  0  0
  -30.1240  -19.1670   18.9720 C   0  0  0  0  0  3  0  0  0  0  0  0
  -30.2300  -18.0190   21.5110 C   0  0  0  0  0  0  0  0  0  0  0  0
  -30.2010  -20.0640   20.0790 C   0  0  0  0  0  0  0  0  0  0  0  0
  -30.2150  -17.1340   20.3890 C   0  0  0  0  0  0  0  0  0  0  0  0
  -30.1320  -17.7500   19.1120 C   0  0  0  0  0  0  0  0  0  0  0  0
  -30.2740  -17.4420   22.9150 C   0  0  0  0  0  1  0  0  0  0  0  0
  -30.0170  -16.9870   17.9980 F   0  0  0  0  0  0  0  0  0  0  0  0
  -30.8860  -14.6650   20.0350 C   0  0  0  0  0  0  0  0  0  0  0  0
  -30.5920  -12.4650   18.9180 C   0  0  0  0  0  2  0  0  0  0  0  0
  -29.5590  -12.6440   17.7840 C   0  0  0  0  0  2  0  0  0  0  0  0
  -28.1230  -12.4690   18.3180 C   0  0  0  0  0  2  0  0  0  0  0  0
  -27.8640  -13.2850   19.6130 C   0  0  0  0  0  3  0  0  0  0  0  0
  -29.0030  -13.0820   20.6380 C   0  0  0  0  0  2  0  0  0  0  0  0
  -30.2670  -13.4430   19.9770 N   0  0  0  0  0  0  0  0  0  0  0  0
  -32.0010  -14.8420   19.5390 O   0  0  0  0  0  0  0  0  0  0  0  0
  -30.1560  -15.6850   20.5840 N   0  0  0  0  0  0  0  0  0  0  0  0
  -29.3670  -15.3670   21.1240 H   0  0  0  0  0  0  0  0  0  0  0  0
  -25.5470  -13.8610   20.5650 C   0  0  0  0  0  0  0  0  0  0  0  0
  -24.5010  -13.0760   20.9700 C   0  0  0  0  0  0  0  0  0  0  0  0
  -24.9370  -11.7250   20.8110 C   0  0  0  0  0  0  0  0  0  0  0  0
  -26.5530  -12.9870   20.1870 N   0  0  0  0  0  0  0  0  0  0  0  0
  -26.1970  -11.6930   20.3930 N   0  0  0  0  0  0  0  0  0  0  0  0
  -24.2070  -10.4610   20.9780 C   0  0  0  0  0  0  0  0  0  0  0  0
  -24.6250   -9.4840   21.9080 C   0  0  0  0  0  3  0  0  0  0  0  0
  -23.8970   -8.2850   22.0630 C   0  0  0  0  0  3  0  0  0  0  0  0
  -22.7360   -8.0540   21.2880 C   0  0  0  0  0  0  0  0  0  0  0  0
  -22.3380   -9.0200   20.3470 C   0  0  0  0  0  3  0  0  0  0  0  0
  -23.0670  -10.2100   20.1890 C   0  0  0  0  0  3  0  0  0  0  0  0
  -21.9810   -6.9080   21.3520 O   0  0  0  0  0  0  0  0  0  0  0  0
  -21.8030   -6.2290   22.5300 C   0  0  0  0  0  0  0  0  0  0  0  0
  -21.2110   -6.8370   23.6580 C   0  0  0  0  0  3  0  0  0  0  0  0
  -20.9830   -6.0820   24.8270 C   0  0  0  0  0  3  0  0  0  0  0  0
  -21.3360   -4.7210   24.8660 C   0  0  0  0  0  0  0  0  0  0  0  0
  -21.9210   -4.1120   23.7420 C   0  0  0  0  0  3  0  0  0  0  0  0
  -22.1510   -4.8640   22.5760 C   0  0  0  0  0  0  0  0  0  0  0  0
  -22.6950   -4.2670   21.4880 F   0  0  0  0  0  0  0  0  0  0  0  0
  -21.1110   -3.9930   25.9840 F   0  0  0  0  0  0  0  0  0  0  0  0
  -23.1390  -13.5500   21.3890 C   0  0  0  0  0  0  0  0  0  0  0  0
  -22.4850  -12.8210   22.2880 N   0  0  0  0  0  0  0  0  0  0  0  0
  -22.6660  -14.6000   20.9550 O   0  0  0  0  0  0  0  0  0  0  0  0
  -22.8830  -11.9720   22.6600 H   0  0  0  0  0  0  0  0  0  0  0  0
  -21.5750  -13.1200   22.6100 H   0  0  0  0  0  0  0  0  0  0  0  0
  -25.7200  -15.2380   20.4680 N   0  0  0  0  0  0  0  0  0  0  0  0
  -24.9750  -15.8910   20.6850 H   0  0  0  0  0  0  0  0  0  0  0  0
  -26.5450  -15.6910   20.0950 H   0  0  0  0  0  0  0  0  0  0  0  0
  -28.5260  -25.1350   20.6710 C   0  0  0  0  0  2  0  0  0  0  0  0
  -28.6670  -26.5470   20.2450 O   0  0  0  0  0  0  0  0  0  0  0  0
  -24.7660  -31.8370   23.2270 C   0  0  0  0  0  0  0  0  0  0  0  0
  -27.5210  -27.3500   20.2180 C   0  0  0  0  0  0  0  0  0  0  0  0
  -23.6150  -30.4160   21.5640 C   0  0  0  0  0  3  0  0  0  0  0  0
  -25.1210  -28.8950   20.1640 C   0  0  0  0  0  0  0  0  0  0  0  0
  -26.1480  -30.7920   21.4210 C   0  0  0  0  0  2  0  0  0  0  0  0
  -26.2670  -29.4150   20.7790 C   0  0  0  0  0  0  0  0  0  0  0  0
  -27.4730  -28.6550   20.7940 C   0  0  0  0  0  3  0  0  0  0  0  0
  -26.3560  -26.8790   19.5750 C   0  0  0  0  0  3  0  0  0  0  0  0
  -25.1670  -27.6310   19.5540 C   0  0  0  0  0  3  0  0  0  0  0  0
  -23.8650  -29.7430   20.1880 C   0  0  0  0  0  2  0  0  0  0  0  0
  -24.8610  -31.0330   22.1280 N   0  0  0  0  0  0  0  0  0  0  0  0
  -23.6690  -32.0930   23.7440 O   0  0  0  0  0  0  0  0  0  0  0  0
  -22.9580  -29.3870   22.5130 C   0  0  0  0  0  0  0  0  0  0  0  0
  -21.6330  -29.2030   22.3800 N   0  0  0  0  0  0  0  0  0  0  0  0
  -23.6380  -28.7560   23.3270 O   0  0  0  0  0  0  0  0  0  0  0  0
  -21.1450  -29.7640   21.6970 H   0  0  0  0  0  0  0  0  0  0  0  0
  -18.2560  -28.0110   22.8820 C   0  0  0  0  0  0  0  0  0  0  0  0
  -20.8170  -28.2540   23.1380 C   0  0  0  0  0  3  0  0  0  0  0  0
  -20.9080  -26.8330   22.5350 C   0  0  0  0  0  2  0  0  0  0  0  0
  -19.7980  -26.5350   21.5230 C   0  0  0  0  0  2  0  0  0  0  0  0
  -18.4220  -26.6750   22.1780 C   0  0  0  0  0  2  0  0  0  0  0  0
  -19.3820  -28.7600   23.3180 C   0  0  0  0  0  0  0  0  0  0  0  0
  -19.1720  -30.0130   23.9350 C   0  0  0  0  0  3  0  0  0  0  0  0
  -17.8710  -30.5160   24.1210 C   0  0  0  0  0  3  0  0  0  0  0  0
  -16.7600  -29.7640   23.7010 C   0  0  0  0  0  3  0  0  0  0  0  0
  -16.9540  -28.5130   23.0880 C   0  0  0  0  0  3  0  0  0  0  0  0
  -26.0270  -32.4920   23.8700 C   0  0  0  0  0  3  0  0  0  0  0  0
  -25.6750  -33.8710   24.2350 N   0  0  0  0  0  0  0  0  0  0  0  0
  -25.9570  -34.9510   23.4950 C   0  0  0  0  0  0  0  0  0  0  0  0
  -26.6120  -34.8930   22.4500 O   0  0  0  0  0  0  0  0  0  0  0  0
  -25.0900  -33.9880   25.0500 H   0  0  0  0  0  0  0  0  0  0  0  0
  -24.1520  -36.6800   23.2150 C   0  0  0  0  0  1  0  0  0  0  0  0
  -25.4280  -36.3120   23.9890 C   0  0  0  0  0  3  0  0  0  0  0  0
  -27.5430  -37.2680   24.7870 C   0  0  0  0  0  1  0  0  0  0  0  0
  -26.4160  -37.4050   23.8690 N   0  0  0  0  0  0  0  0  0  0  0  0
  -25.9770  -38.3070   24.0380 H   0  0  0  0  0  0  0  0  0  0  0  0
  -26.5620  -31.7030   25.1280 C   0  0  1  0  0  0  0  0  0  0  0  0
  -25.4710  -31.4010   26.1820 C   0  0  0  0  0  1  0  0  0  0  0  0
  -27.1920  -30.3570   24.7040 C   0  0  0  0  0  1  0  0  0  0  0  0
  -27.6810  -32.5170   25.8200 C   0  0  0  0  0  1  0  0  0  0  0  0
  1  6  1  0
  2  1  1  0
  2  3  1  0
  3  5  1  0
  5  4  1  0
  5 54  1  0
  6 11  1  0
  6  4  1  0
  7  1  2  0
  8 10  1  0
  9 13  2  0
  9 11  1  0
 10 14  1  0
 11  8  2  0
 12 24  1  0
 12 10  2  0
 13 12  1  0
 15 13  1  0
 16 24  1  0
 17 22  1  0
 18 19  1  0
 18 17  1  0
 20 19  1  0
 20 29  1  0
 20 21  1  0
 22 16  1  0
 22 21  1  0
 23 16  2  0
 24 25  1  0
 26 27  2  0
 27 46  1  0
 28 27  1  0
 28 31  1  0
 29 30  1  0
 29 26  1  0
 30 28  2  0
 31 32  1  0
 32 33  2  0
 34 37  1  0
 34 33  1  0
 35 34  2  0
 36 35  1  0
 36 31  2  0
 37 38  1  0
 38 43  2  0
 38 39  1  0
 39 40  2  0
 40 41  1  0
 41 45  1  0
 42 41  2  0
 43 42  1  0
 44 43  1  0
 46 47  1  0
 47 50  1  0
 47 49  1  0
 48 46  2  0
 51 26  1  0
 51 52  1  0
 53 51  1  0
 55 54  1  0
 56 67  2  0
 57 55  1  0
 57 62  1  0
 58 66  1  0
 58 68  1  0
 59 65  1  0
 59 61  1  0
 60 66  1  0
 61 62  2  0
 61 60  1  0
 63 57  2  0
 64 63  1  0
 64 59  2  0
 65 58  1  0
 66 56  1  0
 68 70  2  0
 69 68  1  0
 71 69  1  0
 72 81  2  0
 72 77  1  0
 73 69  1  0
 73 77  1  0
 74 73  1  0
 75 76  1  0
 75 74  1  0
 76 72  1  0
 77 78  2  0
 78 79  1  0
 80 79  2  0
 81 80  1  0
 82 56  1  0
 82 83  1  0
 82 92  1  0
 83 86  1  0
 84 88  1  0
 84 83  1  0
 85 84  2  0
 88 87  1  0
 90 88  1  0
 90 91  1  0
 90 89  1  0
 92 95  1  1
 92 93  1  0
 94 92  1  0
M  ISO  4  16 100  24 100  54 101  55 101
M  END
>  <TORSDO>  (64) 
F 18

>  <SCORE>  (64) 
-13.551

>  <name>  (64) 
64

>  <ligand_id>  (64) 
64

>  <original_smiles>  (64) 
[H]c1c([H])c([H])c2c(c1[H])C([H])([H])C([H])([H])C([H])([H])C2([H])N([H])C(=O)C1([H])N(C(=O)C([H])(N([H])C(=O)C([H])(N([H])C([H])([H])[H])C([H])([H])[H])C(C([H])([H])[H])(C([H])([H])[H])C([H])([H])[H])C([H])([H])c2c([H])c(OC([H])([H])C3([H])C([H])([H])N(c4c([H])c(F)c(N([H])C(=O)N5C([H])([H])C([H])([H])C([H])([H])C([H])(n6nc(-c7c([H])c([H])c(Oc8c([H])c([H])c(F)c([H])c8F)c([H])c7[H])c(C(=O)N([H])[H])c6N([H])[H])C5([H])[H])c(C([H])([H])[H])c4[H])C(=O)C([H])([H])C3([H])[H])c([H])c([H])c2C1([H])[H]

>  <smiles>  (64) 
[H]c1c([H])c([H])c2c(c1[H])C([H])([H])C([H])([H])C([H])([H])C2([H])N([H])C(=O)C1([H])N(C(=O)C([H])(N([H])C(=O)C([H])(N([H])C([H])([H])[H])C([H])([H])[H])C(C([H])([H])[H])(C([H])([H])[H])C([H])([H])[H])C([H])([H])c2c([H])c(OC([H])([H])C3([H])C([H])([H])N(c4c([H])c(F)c(N([H])C(=O)N5C([H])([H])C([H])([H])C([H])([H])C([H])(n6nc(-c7c([H])c([H])c(Oc8c([H])c([H])c(F)c([H])c8F)c([H])c7[H])c(C(=O)N([H])[H])c6N([H])[H])C5([H])[H])c(C([H])([H])[H])c4[H])C(=O)C([H])([H])C3([H])[H])c([H])c([H])c2C1([H])[H]

$$$$
65:0:0
     RDKit          3D

 94102  0  0  1  0  0  0  0  0999 V2000
  -30.8850  -19.6900   20.7410 C   0  0  0  0  0  3  0  0  0  0  0  0
  -30.4180  -21.0320   20.7620 C   0  0  0  0  0  3  0  0  0  0  0  0
  -28.6940  -18.8730   20.1990 C   0  0  0  0  0  3  0  0  0  0  0  0
  -30.0590  -18.5600   20.4480 C   0  0  0  0  0  0  0  0  0  0  0  0
  -29.0620  -21.3420   20.5090 C   0  0  0  0  0  0  0  0  0  0  0  0
  -28.2130  -20.2250   20.2470 C   0  0  0  0  0  0  0  0  0  0  0  0
  -26.8950  -20.4530   20.0290 F   0  0  0  0  0  0  0  0  0  0  0  0
  -30.7100  -14.6980   20.2420 C   0  0  0  0  0  0  0  0  0  0  0  0
  -30.3350  -12.4510   19.2540 C   0  0  0  0  0  2  0  0  0  0  0  0
  -29.4140  -12.5650   18.0250 C   0  0  0  0  0  2  0  0  0  0  0  0
  -27.9440  -12.4370   18.4590 C   0  0  0  0  0  2  0  0  0  0  0  0
  -27.5960  -13.3400   19.6750 C   0  0  0  0  0  3  0  0  0  0  0  0
  -28.6590  -13.2670   20.7940 C   0  0  0  0  0  2  0  0  0  0  0  0
  -29.9620  -13.5450   20.1830 N   0  0  0  0  0  0  0  0  0  0  0  0
  -31.8970  -14.6130   19.9210 O   0  0  0  0  0  0  0  0  0  0  0  0
  -30.7280  -17.1660   20.3060 C   0  0  0  0  0  0  0  0  0  0  0  0
  -30.1010  -15.9330   20.4390 N   0  0  0  0  0  0  0  0  0  0  0  0
  -31.9400  -17.2430   20.0680 O   0  0  0  0  0  0  0  0  0  0  0  0
  -29.1180  -15.9400   20.6480 H   0  0  0  0  0  0  0  0  0  0  0  0
  -25.2170  -13.9550   20.4090 C   0  0  0  0  0  0  0  0  0  0  0  0
  -24.1470  -13.1940   20.7880 C   0  0  0  0  0  0  0  0  0  0  0  0
  -24.5970  -11.8380   20.7690 C   0  0  0  0  0  0  0  0  0  0  0  0
  -26.2530  -13.0660   20.1770 N   0  0  0  0  0  0  0  0  0  0  0  0
  -25.8870  -11.7880   20.4570 N   0  0  0  0  0  0  0  0  0  0  0  0
  -23.8570  -10.5850   20.9710 C   0  0  0  0  0  0  0  0  0  0  0  0
  -24.2870   -9.6160   21.9040 C   0  0  0  0  0  3  0  0  0  0  0  0
  -23.5470   -8.4290   22.0950 C   0  0  0  0  0  3  0  0  0  0  0  0
  -22.3650   -8.2010   21.3510 C   0  0  0  0  0  0  0  0  0  0  0  0
  -21.9550   -9.1580   20.4070 C   0  0  0  0  0  3  0  0  0  0  0  0
  -22.6950  -10.3370   20.2140 C   0  0  0  0  0  3  0  0  0  0  0  0
  -21.5970   -7.0660   21.4520 O   0  0  0  0  0  0  0  0  0  0  0  0
  -21.5540   -6.3260   22.6060 C   0  0  0  0  0  0  0  0  0  0  0  0
  -21.1470   -6.8850   23.8360 C   0  0  0  0  0  3  0  0  0  0  0  0
  -21.0520   -6.0710   24.9820 C   0  0  0  0  0  3  0  0  0  0  0  0
  -21.3520   -4.6990   24.8990 C   0  0  0  0  0  0  0  0  0  0  0  0
  -21.7520   -4.1380   23.6730 C   0  0  0  0  0  3  0  0  0  0  0  0
  -21.8490   -4.9490   22.5290 C   0  0  0  0  0  0  0  0  0  0  0  0
  -22.2150   -4.4000   21.3460 F   0  0  0  0  0  0  0  0  0  0  0  0
  -21.2530   -3.9150   25.9980 F   0  0  0  0  0  0  0  0  0  0  0  0
  -22.7540  -13.6870   21.0560 C   0  0  0  0  0  0  0  0  0  0  0  0
  -22.0210  -13.0070   21.9290 N   0  0  0  0  0  0  0  0  0  0  0  0
  -22.3270  -14.7120   20.5250 O   0  0  0  0  0  0  0  0  0  0  0  0
  -22.3810  -12.1790   22.3810 H   0  0  0  0  0  0  0  0  0  0  0  0
  -21.0870  -13.3200   22.1520 H   0  0  0  0  0  0  0  0  0  0  0  0
  -25.3940  -15.3230   20.2150 N   0  0  0  0  0  0  0  0  0  0  0  0
  -24.6290  -15.9820   20.3140 H   0  0  0  0  0  0  0  0  0  0  0  0
  -26.2330  -15.7450   19.8420 H   0  0  0  0  0  0  0  0  0  0  0  0
  -29.0770  -23.9430   20.4370 C   0  0  0  0  0  0  0  0  0  0  0  0
  -28.5160  -22.6990   20.6130 N   0  0  0  0  0  0  0  0  0  0  0  0
  -30.1610  -24.0820   19.8650 O   0  0  0  0  0  0  0  0  0  0  0  0
  -27.5490  -22.7270   20.9090 H   0  0  0  0  0  0  0  0  0  0  0  0
  -26.9240  -24.8940   21.5410 C   0  0  0  0  0  1  0  0  0  0  0  0
  -28.3350  -25.2400   20.9950 C   0  0  0  0  0  3  0  0  0  0  0  0
  -28.4720  -26.4910   20.1850 O   0  0  0  0  0  0  0  0  0  0  0  0
  -24.6570  -31.8410   23.1850 C   0  0  0  0  0  0  0  0  0  0  0  0
  -27.3840  -27.3710   20.1240 C   0  0  0  0  0  0  0  0  0  0  0  0
  -23.5070  -30.4500   21.4990 C   0  0  0  0  0  3  0  0  0  0  0  0
  -25.0100  -28.9510   20.0720 C   0  0  0  0  0  0  0  0  0  0  0  0
  -26.0440  -30.8100   21.3730 C   0  0  0  0  0  2  0  0  0  0  0  0
  -26.1560  -29.4440   20.7090 C   0  0  0  0  0  0  0  0  0  0  0  0
  -27.3500  -28.6630   20.7320 C   0  0  0  0  0  3  0  0  0  0  0  0
  -26.2350  -26.9510   19.4240 C   0  0  0  0  0  3  0  0  0  0  0  0
  -25.0510  -27.7100   19.4170 C   0  0  0  0  0  3  0  0  0  0  0  0
  -23.7570  -29.8030   20.1110 C   0  0  0  0  0  2  0  0  0  0  0  0
  -24.7520  -31.0510   22.0760 N   0  0  0  0  0  0  0  0  0  0  0  0
  -23.5590  -32.0920   23.7030 O   0  0  0  0  0  0  0  0  0  0  0  0
  -22.8420  -29.4070   22.4290 C   0  0  0  0  0  0  0  0  0  0  0  0
  -21.5220  -29.2140   22.2770 N   0  0  0  0  0  0  0  0  0  0  0  0
  -23.5150  -28.7750   23.2480 O   0  0  0  0  0  0  0  0  0  0  0  0
  -21.0370  -29.7760   21.5910 H   0  0  0  0  0  0  0  0  0  0  0  0
  -18.1460  -27.9920   22.7200 C   0  0  0  0  0  0  0  0  0  0  0  0
  -20.7010  -28.2550   23.0180 C   0  0  0  0  0  3  0  0  0  0  0  0
  -20.8150  -26.8380   22.4090 C   0  0  0  0  0  2  0  0  0  0  0  0
  -19.7230  -26.5360   21.3780 C   0  0  0  0  0  2  0  0  0  0  0  0
  -18.3340  -26.6600   22.0130 C   0  0  0  0  0  2  0  0  0  0  0  0
  -19.2580  -28.7470   23.1770 C   0  0  0  0  0  0  0  0  0  0  0  0
  -19.0280  -29.9940   23.7980 C   0  0  0  0  0  3  0  0  0  0  0  0
  -17.7200  -30.4860   23.9660 C   0  0  0  0  0  3  0  0  0  0  0  0
  -16.6220  -29.7270   23.5250 C   0  0  0  0  0  3  0  0  0  0  0  0
  -16.8360  -28.4820   22.9080 C   0  0  0  0  0  3  0  0  0  0  0  0
  -25.9180  -32.4820   23.8410 C   0  0  0  0  0  3  0  0  0  0  0  0
  -25.5850  -33.8750   24.1720 N   0  0  0  0  0  0  0  0  0  0  0  0
  -25.9210  -34.9360   23.4270 C   0  0  0  0  0  0  0  0  0  0  0  0
  -26.6130  -34.8470   22.4090 O   0  0  0  0  0  0  0  0  0  0  0  0
  -24.9740  -34.0180   24.9630 H   0  0  0  0  0  0  0  0  0  0  0  0
  -24.1810  -36.7130   23.0480 C   0  0  0  0  0  1  0  0  0  0  0  0
  -25.4090  -36.3170   23.8820 C   0  0  0  0  0  3  0  0  0  0  0  0
  -27.5160  -37.2220   24.7630 C   0  0  0  0  0  1  0  0  0  0  0  0
  -26.4320  -37.3820   23.7960 N   0  0  0  0  0  0  0  0  0  0  0  0
  -26.0120  -38.2970   23.9400 H   0  0  0  0  0  0  0  0  0  0  0  0
  -26.4120  -31.7090   25.1250 C   0  0  1  0  0  0  0  0  0  0  0  0
  -25.2960  -31.4540   26.1650 C   0  0  0  0  0  1  0  0  0  0  0  0
  -27.0170  -30.3380   24.7400 C   0  0  0  0  0  1  0  0  0  0  0  0
  -27.5390  -32.5100   25.8180 C   0  0  0  0  0  1  0  0  0  0  0  0
  1  2  1  0
  3  6  2  0
  3  4  1  0
  4  1  2  0
  5 49  1  0
  5  2  2  0
  6  5  1  0
  7  6  1  0
  8 17  1  0
  9 14  1  0
 10 11  1  0
 10  9  1  0
 12 11  1  0
 12 23  1  0
 12 13  1  0
 14  8  1  0
 14 13  1  0
 15  8  2  0
 16 17  1  0
 16  4  1  0
 17 19  1  0
 18 16  2  0
 20 21  2  0
 21 40  1  0
 22 21  1  0
 22 25  1  0
 23 20  1  0
 23 24  1  0
 24 22  2  0
 25 26  1  0
 26 27  2  0
 28 31  1  0
 28 27  1  0
 29 28  2  0
 30 29  1  0
 30 25  2  0
 31 32  1  0
 32 33  1  0
 33 34  2  0
 35 34  1  0
 35 39  1  0
 36 35  2  0
 37 32  2  0
 37 36  1  0
 38 37  1  0
 40 41  1  0
 41 44  1  0
 41 43  1  0
 42 40  2  0
 45 46  1  0
 45 20  1  0
 47 45  1  0
 48 49  1  0
 48 53  1  0
 49 51  1  0
 50 48  2  0
 53 52  1  0
 54 53  1  0
 55 66  2  0
 56 54  1  0
 56 61  1  0
 57 65  1  0
 57 67  1  0
 58 64  1  0
 58 60  1  0
 59 65  1  0
 60 61  2  0
 60 59  1  0
 62 56  2  0
 63 62  1  0
 63 58  2  0
 64 57  1  0
 65 55  1  0
 67 69  2  0
 68 67  1  0
 70 68  1  0
 71 80  2  0
 71 76  1  0
 72 68  1  0
 72 76  1  0
 73 72  1  0
 74 75  1  0
 74 73  1  0
 75 71  1  0
 76 77  2  0
 77 78  1  0
 79 78  2  0
 80 79  1  0
 81 55  1  0
 81 82  1  0
 81 91  1  0
 82 85  1  0
 83 87  1  0
 83 82  1  0
 84 83  2  0
 87 86  1  0
 89 87  1  0
 89 90  1  0
 89 88  1  0
 91 94  1  1
 91 92  1  0
 93 91  1  0
M  ISO  4   8 100  17 100  53 101  54 101
M  END
>  <TORSDO>  (65) 
F 18

>  <SCORE>  (65) 
-14.567

>  <name>  (65) 
65

>  <ligand_id>  (65) 
65

>  <original_smiles>  (65) 
[H]c1c([H])c([H])c2c(c1[H])C([H])([H])C([H])([H])C([H])([H])C2([H])N([H])C(=O)C1([H])N(C(=O)C([H])(N([H])C(=O)C([H])(N([H])C([H])([H])[H])C([H])([H])[H])C(C([H])([H])[H])(C([H])([H])[H])C([H])([H])[H])C([H])([H])c2c([H])c(OC([H])(C(=O)N([H])c3c([H])c([H])c(C(=O)N([H])C(=O)N4C([H])([H])C([H])([H])C([H])([H])C([H])(n5nc(-c6c([H])c([H])c(Oc7c([H])c([H])c(F)c([H])c7F)c([H])c6[H])c(C(=O)N([H])[H])c5N([H])[H])C4([H])[H])c([H])c3F)C([H])([H])[H])c([H])c([H])c2C1([H])[H]

>  <smiles>  (65) 
[H]c1c([H])c([H])c2c(c1[H])C([H])([H])C([H])([H])C([H])([H])C2([H])N([H])C(=O)C1([H])N(C(=O)C([H])(N([H])C(=O)C([H])(N([H])C([H])([H])[H])C([H])([H])[H])C(C([H])([H])[H])(C([H])([H])[H])C([H])([H])[H])C([H])([H])c2c([H])c(OC([H])(C(=O)N([H])c3c([H])c([H])c(C(=O)N([H])C(=O)N4C([H])([H])C([H])([H])C([H])([H])C([H])(n5nc(-c6c([H])c([H])c(Oc7c([H])c([H])c(F)c([H])c7F)c([H])c6[H])c(C(=O)N([H])[H])c5N([H])[H])C4([H])[H])c([H])c3F)C([H])([H])[H])c([H])c([H])c2C1([H])[H]

$$$$
66:0:0
     RDKit          3D

 93101  0  0  1  0  0  0  0  0999 V2000
  -30.9040  -18.9870   20.4890 C   0  0  0  0  0  3  0  0  0  0  0  0
  -28.1480  -19.2020   20.0480 C   0  0  0  0  0  3  0  0  0  0  0  0
  -30.3600  -20.2150   20.0390 C   0  0  0  0  0  0  0  0  0  0  0  0
  -30.0880  -17.8550   20.7200 C   0  0  0  0  0  0  0  0  0  0  0  0
  -28.9570  -20.3430   19.8370 C   0  0  0  0  0  0  0  0  0  0  0  0
  -28.7020  -17.9740   20.4830 C   0  0  0  0  0  0  0  0  0  0  0  0
  -31.3170  -21.3590   19.7490 C   0  0  0  0  0  1  0  0  0  0  0  0
  -27.8880  -16.9100   20.6940 F   0  0  0  0  0  0  0  0  0  0  0  0
  -28.3540  -21.5400   19.3890 N   0  0  0  0  0  0  0  0  0  0  0  0
  -27.4120  -21.3950   19.0310 H   0  0  0  0  0  0  0  0  0  0  0  0
  -28.4190  -22.7240   20.2580 C   0  0  0  0  0  2  0  0  0  0  0  0
  -28.2370  -24.0600   19.4880 C   0  0  0  0  0  2  0  0  0  0  0  0
  -28.2130  -25.2920   20.4310 C   0  0  0  0  0  2  0  0  0  0  0  0
  -28.2670  -26.5700   19.7710 O   0  0  0  0  0  0  0  0  0  0  0  0
  -24.5520  -31.6800   23.0800 C   0  0  0  0  0  0  0  0  0  0  0  0
  -27.1140  -27.3200   19.8210 C   0  0  0  0  0  0  0  0  0  0  0  0
  -23.3160  -30.3470   21.4020 C   0  0  0  0  0  3  0  0  0  0  0  0
  -24.7390  -28.8500   19.9050 C   0  0  0  0  0  0  0  0  0  0  0  0
  -25.8410  -30.6940   21.1850 C   0  0  0  0  0  2  0  0  0  0  0  0
  -25.9080  -29.3440   20.5000 C   0  0  0  0  0  0  0  0  0  0  0  0
  -27.1020  -28.5860   20.4520 C   0  0  0  0  0  3  0  0  0  0  0  0
  -25.9320  -26.8430   19.2200 C   0  0  0  0  0  3  0  0  0  0  0  0
  -24.7460  -27.6020   19.2610 C   0  0  0  0  0  3  0  0  0  0  0  0
  -23.5040  -29.7180   19.9960 C   0  0  0  0  0  2  0  0  0  0  0  0
  -24.5890  -30.9190   21.9480 N   0  0  0  0  0  0  0  0  0  0  0  0
  -23.4800  -31.9410   23.6410 O   0  0  0  0  0  0  0  0  0  0  0  0
  -22.6690  -29.2970   22.3330 C   0  0  0  0  0  0  0  0  0  0  0  0
  -21.3380  -29.1510   22.2380 N   0  0  0  0  0  0  0  0  0  0  0  0
  -23.3600  -28.6160   23.0970 O   0  0  0  0  0  0  0  0  0  0  0  0
  -20.8440  -29.7510   21.5930 H   0  0  0  0  0  0  0  0  0  0  0  0
  -17.9460  -28.0400   22.7990 C   0  0  0  0  0  0  0  0  0  0  0  0
  -20.5200  -28.1970   22.9860 C   0  0  0  0  0  3  0  0  0  0  0  0
  -20.5510  -26.8000   22.3230 C   0  0  0  0  0  2  0  0  0  0  0  0
  -19.4000  -26.5740   21.3380 C   0  0  0  0  0  2  0  0  0  0  0  0
  -18.0500  -26.7270   22.0430 C   0  0  0  0  0  2  0  0  0  0  0  0
  -19.1060  -28.7380   23.2280 C   0  0  0  0  0  0  0  0  0  0  0  0
  -18.9550  -29.9720   23.8970 C   0  0  0  0  0  3  0  0  0  0  0  0
  -17.6770  -30.5070   24.1420 C   0  0  0  0  0  3  0  0  0  0  0  0
  -16.5310  -29.8040   23.7300 C   0  0  0  0  0  3  0  0  0  0  0  0
  -16.6660  -28.5720   23.0650 C   0  0  0  0  0  3  0  0  0  0  0  0
  -25.8500  -32.2780   23.7070 C   0  0  0  0  0  3  0  0  0  0  0  0
  -25.5600  -33.6660   24.0920 N   0  0  0  0  0  0  0  0  0  0  0  0
  -25.8910  -34.7400   23.3630 C   0  0  0  0  0  0  0  0  0  0  0  0
  -26.5460  -34.6670   22.3200 O   0  0  0  0  0  0  0  0  0  0  0  0
  -24.9830  -33.7990   24.9080 H   0  0  0  0  0  0  0  0  0  0  0  0
  -24.1750  -36.5560   23.0920 C   0  0  0  0  0  1  0  0  0  0  0  0
  -25.4220  -36.1150   23.8740 C   0  0  0  0  0  3  0  0  0  0  0  0
  -27.5710  -36.9570   24.7110 C   0  0  0  0  0  1  0  0  0  0  0  0
  -26.4620  -37.1630   23.7820 N   0  0  0  0  0  0  0  0  0  0  0  0
  -26.0680  -38.0810   23.9610 H   0  0  0  0  0  0  0  0  0  0  0  0
  -26.3780  -31.4550   24.9470 C   0  0  1  0  0  0  0  0  0  0  0  0
  -25.2990  -31.1870   26.0220 C   0  0  0  0  0  1  0  0  0  0  0  0
  -26.9390  -30.0900   24.4870 C   0  0  0  0  0  1  0  0  0  0  0  0
  -27.5460  -32.2140   25.6210 C   0  0  0  0  0  1  0  0  0  0  0  0
  -30.7030  -16.5750   21.3070 C   0  0  0  0  0  2  0  0  0  0  0  0
  -30.7130  -14.3550   20.1130 C   0  0  0  0  0  0  0  0  0  0  0  0
  -30.3270  -12.2170   18.9350 C   0  0  0  0  0  2  0  0  0  0  0  0
  -29.3140  -12.4250   17.7900 C   0  0  0  0  0  2  0  0  0  0  0  0
  -27.8640  -12.3050   18.3060 C   0  0  0  0  0  2  0  0  0  0  0  0
  -27.6140  -13.1460   19.5870 C   0  0  0  0  0  3  0  0  0  0  0  0
  -28.7230  -12.8950   20.6300 C   0  0  0  0  0  2  0  0  0  0  0  0
  -30.0150  -13.1960   19.9870 N   0  0  0  0  0  0  0  0  0  0  0  0
  -31.7820  -14.5600   19.5290 O   0  0  0  0  0  0  0  0  0  0  0  0
  -30.1250  -15.2960   20.8740 N   0  0  0  0  0  0  0  0  0  0  0  0
  -29.2290  -15.0560   21.2730 H   0  0  0  0  0  0  0  0  0  0  0  0
  -25.2830  -13.8060   20.4530 C   0  0  0  0  0  0  0  0  0  0  0  0
  -24.2150  -13.0540   20.8650 C   0  0  0  0  0  0  0  0  0  0  0  0
  -24.6350  -11.6910   20.7740 C   0  0  0  0  0  0  0  0  0  0  0  0
  -26.2840  -12.9010   20.1380 N   0  0  0  0  0  0  0  0  0  0  0  0
  -25.9010  -11.6220   20.3860 N   0  0  0  0  0  0  0  0  0  0  0  0
  -23.8840  -10.4450   20.9770 C   0  0  0  0  0  0  0  0  0  0  0  0
  -24.3200   -9.4620   21.8930 C   0  0  0  0  0  3  0  0  0  0  0  0
  -23.5700   -8.2810   22.0850 C   0  0  0  0  0  3  0  0  0  0  0  0
  -22.3700   -8.0770   21.3600 C   0  0  0  0  0  0  0  0  0  0  0  0
  -21.9550   -9.0500   20.4340 C   0  0  0  0  0  3  0  0  0  0  0  0
  -22.7040  -10.2210   20.2400 C   0  0  0  0  0  3  0  0  0  0  0  0
  -21.5890   -6.9510   21.4630 O   0  0  0  0  0  0  0  0  0  0  0  0
  -21.5330   -6.2190   22.6220 C   0  0  0  0  0  0  0  0  0  0  0  0
  -21.0990   -6.7840   23.8420 C   0  0  0  0  0  3  0  0  0  0  0  0
  -20.9890   -5.9760   24.9900 C   0  0  0  0  0  3  0  0  0  0  0  0
  -21.3000   -4.6040   24.9220 C   0  0  0  0  0  0  0  0  0  0  0  0
  -21.7280   -4.0390   23.7070 C   0  0  0  0  0  3  0  0  0  0  0  0
  -21.8400   -4.8450   22.5600 C   0  0  0  0  0  0  0  0  0  0  0  0
  -22.2310   -4.2910   21.3870 F   0  0  0  0  0  0  0  0  0  0  0  0
  -21.1870   -3.8270   26.0240 F   0  0  0  0  0  0  0  0  0  0  0  0
  -22.8550  -13.5640   21.2380 C   0  0  0  0  0  0  0  0  0  0  0  0
  -22.1650  -12.8690   22.1370 N   0  0  0  0  0  0  0  0  0  0  0  0
  -22.4130  -14.6120   20.7700 O   0  0  0  0  0  0  0  0  0  0  0  0
  -22.5340  -12.0190   22.5360 H   0  0  0  0  0  0  0  0  0  0  0  0
  -21.2530  -13.1920   22.4270 H   0  0  0  0  0  0  0  0  0  0  0  0
  -25.4790  -15.1760   20.3070 N   0  0  0  0  0  0  0  0  0  0  0  0
  -24.7550  -15.8500   20.5320 H   0  0  0  0  0  0  0  0  0  0  0  0
  -26.3580  -15.6110   20.0520 H   0  0  0  0  0  0  0  0  0  0  0  0
  1  4  1  0
  2  6  1  0
  3  1  2  0
  4 55  1  0
  5  3  1  0
  5  2  2  0
  6  8  1  0
  6  4  2  0
  7  3  1  0
  9  5  1  0
  9 11  1  0
 10  9  1  0
 12 11  1  0
 12 13  1  0
 14 16  1  0
 14 13  1  0
 15 26  2  0
 16 21  1  0
 17 25  1  0
 17 27  1  0
 18 24  1  0
 18 20  1  0
 19 25  1  0
 20 19  1  0
 21 20  2  0
 22 23  1  0
 22 16  2  0
 23 18  2  0
 24 17  1  0
 25 15  1  0
 27 29  2  0
 28 27  1  0
 30 28  1  0
 31 40  2  0
 31 36  1  0
 32 28  1  0
 32 36  1  0
 33 32  1  0
 34 35  1  0
 34 33  1  0
 35 31  1  0
 36 37  2  0
 37 38  1  0
 39 38  2  0
 40 39  1  0
 41 15  1  0
 41 42  1  0
 41 51  1  0
 42 45  1  0
 43 47  1  0
 43 42  1  0
 44 43  2  0
 47 46  1  0
 49 47  1  0
 49 50  1  0
 49 48  1  0
 51 54  1  1
 51 52  1  0
 53 51  1  0
 56 64  1  0
 57 62  1  0
 58 59  1  0
 58 57  1  0
 60 59  1  0
 60 69  1  0
 60 61  1  0
 62 56  1  0
 62 61  1  0
 63 56  2  0
 64 65  1  0
 64 55  1  0
 66 67  2  0
 67 86  1  0
 68 67  1  0
 68 71  1  0
 69 70  1  0
 69 66  1  0
 70 68  2  0
 71 72  1  0
 72 73  2  0
 74 77  1  0
 74 73  1  0
 75 74  2  0
 76 75  1  0
 76 71  2  0
 77 78  1  0
 78 79  1  0
 79 80  2  0
 81 80  1  0
 81 85  1  0
 82 81  2  0
 83 78  2  0
 83 82  1  0
 84 83  1  0
 86 87  1  0
 87 90  1  0
 87 89  1  0
 88 86  2  0
 91 66  1  0
 91 92  1  0
 93 91  1  0
M  ISO  4  13 101  14 101  56 100  64 100
M  END
>  <TORSDO>  (66) 
F 21

>  <SCORE>  (66) 
-13.373

>  <name>  (66) 
66

>  <ligand_id>  (66) 
66

>  <original_smiles>  (66) 
[H]c1c([H])c([H])c2c(c1[H])C([H])([H])C([H])([H])C([H])([H])C2([H])N([H])C(=O)C1([H])N(C(=O)C([H])(N([H])C(=O)C([H])(N([H])C([H])([H])[H])C([H])([H])[H])C(C([H])([H])[H])(C([H])([H])[H])C([H])([H])[H])C([H])([H])c2c([H])c(OC([H])([H])C([H])([H])C([H])([H])N([H])c3c([H])c(F)c(C([H])([H])N([H])C(=O)N4C([H])([H])C([H])([H])C([H])([H])C([H])(n5nc(-c6c([H])c([H])c(Oc7c([H])c([H])c(F)c([H])c7F)c([H])c6[H])c(C(=O)N([H])[H])c5N([H])[H])C4([H])[H])c([H])c3C([H])([H])[H])c([H])c([H])c2C1([H])[H]

>  <smiles>  (66) 
[H]c1c([H])c([H])c2c(c1[H])C([H])([H])C([H])([H])C([H])([H])C2([H])N([H])C(=O)C1([H])N(C(=O)C([H])(N([H])C(=O)C([H])(N([H])C([H])([H])[H])C([H])([H])[H])C(C([H])([H])[H])(C([H])([H])[H])C([H])([H])[H])C([H])([H])c2c([H])c(OC([H])([H])C([H])([H])C([H])([H])N([H])c3c([H])c(F)c(C([H])([H])N([H])C(=O)N4C([H])([H])C([H])([H])C([H])([H])C([H])(n5nc(-c6c([H])c([H])c(Oc7c([H])c([H])c(F)c([H])c7F)c([H])c6[H])c(C(=O)N([H])[H])c5N([H])[H])C4([H])[H])c([H])c3C([H])([H])[H])c([H])c([H])c2C1([H])[H]

$$$$
67:0:0
     RDKit          3D

 97106  0  0  1  0  0  0  0  0999 V2000
  -29.5300  -18.7370   20.5730 C   0  0  0  0  0  3  0  0  0  0  0  0
  -31.7640  -17.8180   20.8120 C   0  0  0  0  0  3  0  0  0  0  0  0
  -29.9990  -20.1360   20.6430 C   0  0  0  0  0  0  0  0  0  0  0  0
  -30.3890  -17.5400   20.6310 C   0  0  0  0  0  0  0  0  0  0  0  0
  -32.2620  -19.1320   20.8890 C   0  0  0  0  0  0  0  0  0  0  0  0
  -31.4100  -20.2620   20.8090 C   0  0  0  0  0  0  0  0  0  0  0  0
  -30.6570  -14.9090   20.3100 C   0  0  0  0  0  0  0  0  0  0  0  0
  -30.4150  -12.6280   19.2860 C   0  0  0  0  0  2  0  0  0  0  0  0
  -29.4610  -12.6830   18.0730 C   0  0  0  0  0  2  0  0  0  0  0  0
  -28.0000  -12.5020   18.5230 C   0  0  0  0  0  2  0  0  0  0  0  0
  -27.6420  -13.3800   19.7520 C   0  0  0  0  0  3  0  0  0  0  0  0
  -28.7210  -13.3220   20.8550 C   0  0  0  0  0  2  0  0  0  0  0  0
  -29.9980  -13.6930   20.2330 N   0  0  0  0  0  0  0  0  0  0  0  0
  -31.8360  -14.9430   19.9480 O   0  0  0  0  0  0  0  0  0  0  0  0
  -29.9450  -16.0950   20.5660 N   0  0  0  0  0  0  0  0  0  0  0  0
  -28.9570  -15.9470   20.7070 H   0  0  0  0  0  0  0  0  0  0  0  0
  -25.2720  -13.9530   20.5400 C   0  0  0  0  0  0  0  0  0  0  0  0
  -24.2130  -13.1730   20.9180 C   0  0  0  0  0  0  0  0  0  0  0  0
  -24.6740  -11.8220   20.8550 C   0  0  0  0  0  0  0  0  0  0  0  0
  -26.3100  -13.0780   20.2680 N   0  0  0  0  0  0  0  0  0  0  0  0
  -25.9590  -11.7900   20.5190 N   0  0  0  0  0  0  0  0  0  0  0  0
  -23.9480  -10.5580   21.0370 C   0  0  0  0  0  0  0  0  0  0  0  0
  -24.3790   -9.5850   21.9650 C   0  0  0  0  0  3  0  0  0  0  0  0
  -23.6520   -8.3880   22.1370 C   0  0  0  0  0  3  0  0  0  0  0  0
  -22.4790   -8.1540   21.3800 C   0  0  0  0  0  0  0  0  0  0  0  0
  -22.0670   -9.1150   20.4420 C   0  0  0  0  0  3  0  0  0  0  0  0
  -22.7950  -10.3050   20.2680 C   0  0  0  0  0  3  0  0  0  0  0  0
  -21.7230   -7.0100   21.4620 O   0  0  0  0  0  0  0  0  0  0  0  0
  -21.6490   -6.2780   22.6200 C   0  0  0  0  0  0  0  0  0  0  0  0
  -21.1560   -6.8310   23.8210 C   0  0  0  0  0  3  0  0  0  0  0  0
  -21.0300   -6.0240   24.9690 C   0  0  0  0  0  3  0  0  0  0  0  0
  -21.3870   -4.6630   24.9170 C   0  0  0  0  0  0  0  0  0  0  0  0
  -21.8720   -4.1090   23.7190 C   0  0  0  0  0  3  0  0  0  0  0  0
  -22.0010   -4.9130   22.5740 C   0  0  0  0  0  0  0  0  0  0  0  0
  -22.4480   -4.3680   21.4170 F   0  0  0  0  0  0  0  0  0  0  0  0
  -21.2610   -3.8860   26.0180 F   0  0  0  0  0  0  0  0  0  0  0  0
  -22.8220  -13.6490   21.2220 C   0  0  0  0  0  0  0  0  0  0  0  0
  -22.1060  -12.9360   22.0840 N   0  0  0  0  0  0  0  0  0  0  0  0
  -22.3800  -14.6870   20.7320 O   0  0  0  0  0  0  0  0  0  0  0  0
  -22.4760  -12.0950   22.5030 H   0  0  0  0  0  0  0  0  0  0  0  0
  -21.1720  -13.2340   22.3300 H   0  0  0  0  0  0  0  0  0  0  0  0
  -25.4330  -15.3260   20.3810 N   0  0  0  0  0  0  0  0  0  0  0  0
  -24.6660  -15.9760   20.5110 H   0  0  0  0  0  0  0  0  0  0  0  0
  -26.2640  -15.7690   20.0090 H   0  0  0  0  0  0  0  0  0  0  0  0
  -28.2070  -23.7040   20.7800 C   0  0  0  0  0  0  0  0  0  0  0  0
  -27.8280  -25.0560   20.8090 C   0  0  0  0  0  3  0  0  0  0  0  0
  -27.2720  -22.6760   21.4020 C   0  0  0  0  0  2  0  0  0  0  0  0
  -29.3970  -22.8120   20.2730 C   0  0  0  0  0  2  0  0  0  0  0  0
  -27.7610  -21.2470   21.0590 C   0  0  0  0  0  2  0  0  0  0  0  0
  -29.1460  -21.3430   20.6250 N   0  0  0  0  0  0  0  0  0  0  0  0
  -28.2910  -26.3410   20.3600 O   0  0  0  0  0  0  0  0  0  0  0  0
  -24.6410  -31.9620   23.2600 C   0  0  0  0  0  0  0  0  0  0  0  0
  -27.2780  -27.3370   20.2490 C   0  0  0  0  0  0  0  0  0  0  0  0
  -23.4580  -30.5490   21.6200 C   0  0  0  0  0  3  0  0  0  0  0  0
  -24.9300  -29.0030   20.2030 C   0  0  0  0  0  0  0  0  0  0  0  0
  -26.0060  -30.8590   21.4620 C   0  0  0  0  0  2  0  0  0  0  0  0
  -26.0980  -29.4750   20.8160 C   0  0  0  0  0  0  0  0  0  0  0  0
  -27.2780  -28.6530   20.8360 C   0  0  0  0  0  3  0  0  0  0  0  0
  -26.0970  -26.9620   19.5730 C   0  0  0  0  0  3  0  0  0  0  0  0
  -24.9380  -27.7550   19.5660 C   0  0  0  0  0  3  0  0  0  0  0  0
  -23.6890  -29.8730   20.2430 C   0  0  0  0  0  2  0  0  0  0  0  0
  -24.7210  -31.1410   22.1700 N   0  0  0  0  0  0  0  0  0  0  0  0
  -23.5490  -32.2320   23.7840 O   0  0  0  0  0  0  0  0  0  0  0  0
  -22.7910  -29.5320   22.5770 C   0  0  0  0  0  0  0  0  0  0  0  0
  -21.4660  -29.3480   22.4410 N   0  0  0  0  0  0  0  0  0  0  0  0
  -23.4670  -28.9150   23.4030 O   0  0  0  0  0  0  0  0  0  0  0  0
  -20.9780  -29.8990   21.7480 H   0  0  0  0  0  0  0  0  0  0  0  0
  -18.0850  -28.1570   22.9470 C   0  0  0  0  0  0  0  0  0  0  0  0
  -20.6450  -28.4100   23.2100 C   0  0  0  0  0  3  0  0  0  0  0  0
  -20.7400  -26.9790   22.6280 C   0  0  0  0  0  2  0  0  0  0  0  0
  -19.6340  -26.6660   21.6140 C   0  0  0  0  0  2  0  0  0  0  0  0
  -18.2560  -26.8110   22.2630 C   0  0  0  0  0  2  0  0  0  0  0  0
  -19.2060  -28.9150   23.3750 C   0  0  0  0  0  0  0  0  0  0  0  0
  -18.9920  -30.1750   23.9750 C   0  0  0  0  0  3  0  0  0  0  0  0
  -17.6880  -30.6770   24.1490 C   0  0  0  0  0  3  0  0  0  0  0  0
  -16.5820  -29.9150   23.7360 C   0  0  0  0  0  3  0  0  0  0  0  0
  -16.7810  -28.6580   23.1400 C   0  0  0  0  0  3  0  0  0  0  0  0
  -25.9120  -32.6060   23.8910 C   0  0  0  0  0  3  0  0  0  0  0  0
  -26.4160  -31.8470   25.1800 C   0  0  1  0  0  0  0  0  0  0  0  0
  -25.3100  -31.6130   26.2360 C   0  0  0  0  0  1  0  0  0  0  0  0
  -27.0130  -30.4700   24.8090 C   0  0  0  0  0  1  0  0  0  0  0  0
  -27.5510  -32.6540   25.8510 C   0  0  0  0  0  1  0  0  0  0  0  0
  -25.5910  -34.0040   24.2100 N   0  0  0  0  0  0  0  0  0  0  0  0
  -25.9140  -35.0530   23.4410 C   0  0  0  0  0  0  0  0  0  0  0  0
  -26.5850  -34.9470   22.4120 O   0  0  0  0  0  0  0  0  0  0  0  0
  -24.9970  -34.1610   25.0100 H   0  0  0  0  0  0  0  0  0  0  0  0
  -24.1750  -36.8320   23.0750 C   0  0  0  0  0  1  0  0  0  0  0  0
  -25.4200  -36.4430   23.8900 C   0  0  0  0  0  3  0  0  0  0  0  0
  -27.5450  -37.3530   24.7190 C   0  0  0  0  0  1  0  0  0  0  0  0
  -26.4450  -37.5030   23.7690 N   0  0  0  0  0  0  0  0  0  0  0  0
  -26.0310  -38.4220   23.9030 H   0  0  0  0  0  0  0  0  0  0  0  0
  -33.6360  -19.3320   21.0720 N   0  0  0  0  0  0  0  0  0  0  0  0
  -34.2510  -18.5830   20.7740 H   0  0  0  0  0  0  0  0  0  0  0  0
  -33.9610  -20.2330   20.7400 H   0  0  0  0  0  0  0  0  0  0  0  0
  -32.0270  -21.5000   20.9930 N   0  0  0  0  0  0  0  0  0  0  0  0
  -31.3860  -22.1890   21.3630 H   0  0  0  0  0  0  0  0  0  0  0  0
  -32.8450  -21.4040   21.5820 H   0  0  0  0  0  0  0  0  0  0  0  0
  1  4  2  0
  1  3  1  0
  2  5  2  0
  3  6  2  0
  4  2  1  0
  5 92  1  0
  6  5  1  0
  6 95  1  0
  7 15  1  0
  8 13  1  0
  9 10  1  0
  9  8  1  0
 11 10  1  0
 11 20  1  0
 11 12  1  0
 13  7  1  0
 13 12  1  0
 14  7  2  0
 15  4  1  0
 15 16  1  0
 17 18  2  0
 18 37  1  0
 19 18  1  0
 19 22  1  0
 20 21  1  0
 20 17  1  0
 21 19  2  0
 22 23  1  0
 23 24  2  0
 25 28  1  0
 25 24  1  0
 26 25  2  0
 27 26  1  0
 27 22  2  0
 28 29  1  0
 29 30  1  0
 30 31  2  0
 32 31  1  0
 32 36  1  0
 33 32  2  0
 34 29  2  0
 34 33  1  0
 35 34  1  0
 37 38  1  0
 38 41  1  0
 38 40  1  0
 39 37  2  0
 42 43  1  0
 42 17  1  0
 44 42  1  0
 45 46  2  0
 45 47  1  0
 48 50  1  0
 48 45  1  0
 49 47  1  0
 50  3  1  0
 50 49  1  0
 51 46  1  0
 52 63  2  0
 53 51  1  0
 53 58  1  0
 54 62  1  0
 54 64  1  0
 55 61  1  0
 55 57  1  0
 56 62  1  0
 57 58  2  0
 57 56  1  0
 59 53  2  0
 60 59  1  0
 60 55  2  0
 61 54  1  0
 62 52  1  0
 64 66  2  0
 65 64  1  0
 67 65  1  0
 68 77  2  0
 68 73  1  0
 69 65  1  0
 69 73  1  0
 70 69  1  0
 71 72  1  0
 71 70  1  0
 72 68  1  0
 73 74  2  0
 74 75  1  0
 76 75  2  0
 77 76  1  0
 78 52  1  0
 78 83  1  0
 78 79  1  0
 79 82  1  1
 79 80  1  0
 81 79  1  0
 83 86  1  0
 84 88  1  0
 84 83  1  0
 85 84  2  0
 88 87  1  0
 90 88  1  0
 90 91  1  0
 90 89  1  0
 93 92  1  0
 94 92  1  0
 95 96  1  0
 95 97  1  0
M  ISO  4   7 100  15 100  46 101  51 101
M  END
>  <TORSDO>  (67) 
F 19

>  <SCORE>  (67) 
-14.897

>  <name>  (67) 
67

>  <ligand_id>  (67) 
67

>  <original_smiles>  (67) 
[H]C(Oc1c([H])c([H])c2c(c1[H])C([H])([H])N(C(=O)C([H])(N([H])C(=O)C([H])(N([H])C([H])([H])[H])C([H])([H])[H])C(C([H])([H])[H])(C([H])([H])[H])C([H])([H])[H])C([H])(C(=O)N([H])C1([H])c3c([H])c([H])c([H])c([H])c3C([H])([H])C([H])([H])C1([H])[H])C2([H])[H])=C1C([H])([H])N(c2c([H])c(N([H])C(=O)N3C([H])([H])C([H])([H])C([H])([H])C([H])(n4nc(-c5c([H])c([H])c(Oc6c([H])c([H])c(F)c([H])c6F)c([H])c5[H])c(C(=O)N([H])[H])c4N([H])[H])C3([H])[H])c([H])c(N([H])[H])c2N([H])[H])C([H])([H])C1([H])[H]

>  <smiles>  (67) 
[H]C(Oc1c([H])c([H])c2c(c1[H])C([H])([H])N(C(=O)C([H])(N([H])C(=O)C([H])(N([H])C([H])([H])[H])C([H])([H])[H])C(C([H])([H])[H])(C([H])([H])[H])C([H])([H])[H])C([H])(C(=O)N([H])C1([H])c3c([H])c([H])c([H])c([H])c3C([H])([H])C([H])([H])C1([H])[H])C2([H])[H])=C1C([H])([H])N(c2c([H])c(N([H])C(=O)N3C([H])([H])C([H])([H])C([H])([H])C([H])(n4nc(-c5c([H])c([H])c(Oc6c([H])c([H])c(F)c([H])c6F)c([H])c5[H])c(C(=O)N([H])[H])c4N([H])[H])C3([H])[H])c([H])c(N([H])[H])c2N([H])[H])C([H])([H])C1([H])[H]

$$$$
68:0:0
     RDKit          3D

 94102  0  0  1  0  0  0  0  0999 V2000
  -28.8160  -18.3690   20.3250 C   0  0  0  0  0  3  0  0  0  0  0  0
  -28.1190  -19.5700   20.0450 C   0  0  0  0  0  3  0  0  0  0  0  0
  -30.8830  -19.4390   19.7140 C   0  0  0  0  0  3  0  0  0  0  0  0
  -30.2250  -18.2730   20.1850 C   0  0  0  0  0  0  0  0  0  0  0  0
  -28.8030  -20.7340   19.6310 C   0  0  0  0  0  0  0  0  0  0  0  0
  -30.2010  -20.6460   19.4470 C   0  0  0  0  0  0  0  0  0  0  0  0
  -30.9030  -21.7140   18.9990 F   0  0  0  0  0  0  0  0  0  0  0  0
  -31.0390  -17.0460   20.5440 C   0  0  0  0  0  3  0  0  0  0  0  0
  -30.9630  -14.7210   19.6230 C   0  0  0  0  0  0  0  0  0  0  0  0
  -30.5690  -12.4580   18.7100 C   0  0  0  0  0  2  0  0  0  0  0  0
  -29.5220  -12.5140   17.5800 C   0  0  0  0  0  2  0  0  0  0  0  0
  -28.0960  -12.4200   18.1540 C   0  0  0  0  0  2  0  0  0  0  0  0
  -27.8580  -13.3990   19.3350 C   0  0  0  0  0  3  0  0  0  0  0  0
  -29.0060  -13.3090   20.3660 C   0  0  0  0  0  2  0  0  0  0  0  0
  -30.2710  -13.5490   19.6530 N   0  0  0  0  0  0  0  0  0  0  0  0
  -32.0290  -14.8470   19.0160 O   0  0  0  0  0  0  0  0  0  0  0  0
  -30.3770  -15.7700   20.2260 N   0  0  0  0  0  0  0  0  0  0  0  0
  -29.5170  -15.5890   20.7190 H   0  0  0  0  0  0  0  0  0  0  0  0
  -25.5970  -14.1060   20.3410 C   0  0  0  0  0  0  0  0  0  0  0  0
  -24.5310  -13.3770   20.7960 C   0  0  0  0  0  0  0  0  0  0  0  0
  -24.9020  -12.0040   20.6540 C   0  0  0  0  0  0  0  0  0  0  0  0
  -26.5530  -13.1780   19.9550 N   0  0  0  0  0  0  0  0  0  0  0  0
  -26.1450  -11.9060   20.2000 N   0  0  0  0  0  0  0  0  0  0  0  0
  -24.1250  -10.7770   20.8680 C   0  0  0  0  0  0  0  0  0  0  0  0
  -24.5640   -9.7670   21.7530 C   0  0  0  0  0  3  0  0  0  0  0  0
  -23.7890   -8.6060   21.9540 C   0  0  0  0  0  3  0  0  0  0  0  0
  -22.5590   -8.4460   21.2710 C   0  0  0  0  0  0  0  0  0  0  0  0
  -22.1380   -9.4420   20.3740 C   0  0  0  0  0  3  0  0  0  0  0  0
  -22.9140  -10.5960   20.1710 C   0  0  0  0  0  3  0  0  0  0  0  0
  -21.7510   -7.3380   21.3870 O   0  0  0  0  0  0  0  0  0  0  0  0
  -21.6840   -6.6140   22.5490 C   0  0  0  0  0  0  0  0  0  0  0  0
  -21.2820   -7.2010   23.7700 C   0  0  0  0  0  3  0  0  0  0  0  0
  -21.1590   -6.4050   24.9260 C   0  0  0  0  0  3  0  0  0  0  0  0
  -21.4300   -5.0240   24.8640 C   0  0  0  0  0  0  0  0  0  0  0  0
  -21.8260   -4.4390   23.6490 C   0  0  0  0  0  3  0  0  0  0  0  0
  -21.9500   -5.2310   22.4950 C   0  0  0  0  0  0  0  0  0  0  0  0
  -22.3120   -4.6580   21.3210 F   0  0  0  0  0  0  0  0  0  0  0  0
  -21.3050   -4.2580   25.9730 F   0  0  0  0  0  0  0  0  0  0  0  0
  -23.2050  -13.9180   21.2470 C   0  0  0  0  0  0  0  0  0  0  0  0
  -22.5370  -13.2220   22.1610 N   0  0  0  0  0  0  0  0  0  0  0  0
  -22.7750  -14.9900   20.8240 O   0  0  0  0  0  0  0  0  0  0  0  0
  -22.9000  -12.3510   22.5210 H   0  0  0  0  0  0  0  0  0  0  0  0
  -21.6540  -13.5660   22.5090 H   0  0  0  0  0  0  0  0  0  0  0  0
  -25.8260  -15.4700   20.2030 N   0  0  0  0  0  0  0  0  0  0  0  0
  -25.1150  -16.1600   20.4200 H   0  0  0  0  0  0  0  0  0  0  0  0
  -26.6430  -15.8720   19.7600 H   0  0  0  0  0  0  0  0  0  0  0  0
  -31.2310  -17.1380   22.0700 C   0  0  0  0  0  0  0  0  0  0  0  0
  -32.1890  -18.1980   22.5980 C   0  0  0  0  0  1  0  0  0  0  0  0
  -30.6530  -16.3900   22.8660 O   0  0  0  0  0  0  0  0  0  0  0  0
  -28.0850  -21.8870   19.3590 O   0  0  0  0  0  0  0  0  0  0  0  0
  -28.3740  -23.0410   20.1620 C   0  0  0  0  0  2  0  0  0  0  0  0
  -27.9270  -24.3620   19.4720 C   0  0  0  0  0  2  0  0  0  0  0  0
  -28.0600  -25.6080   20.3870 C   0  0  0  0  0  2  0  0  0  0  0  0
  -28.0350  -26.8730   19.6960 O   0  0  0  0  0  0  0  0  0  0  0  0
  -24.4740  -31.9740   23.1910 C   0  0  0  0  0  0  0  0  0  0  0  0
  -26.8760  -27.6100   19.8130 C   0  0  0  0  0  0  0  0  0  0  0  0
  -23.1510  -30.6310   21.5900 C   0  0  0  0  0  3  0  0  0  0  0  0
  -24.4980  -29.1280   20.0270 C   0  0  0  0  0  0  0  0  0  0  0  0
  -25.6600  -30.9840   21.2340 C   0  0  0  0  0  2  0  0  0  0  0  0
  -25.6970  -29.6330   20.5460 C   0  0  0  0  0  0  0  0  0  0  0  0
  -26.8910  -28.8840   20.4310 C   0  0  0  0  0  3  0  0  0  0  0  0
  -25.6620  -27.1180   19.2940 C   0  0  0  0  0  3  0  0  0  0  0  0
  -24.4740  -27.8700   19.3990 C   0  0  0  0  0  3  0  0  0  0  0  0
  -23.2640  -29.9900   20.1800 C   0  0  0  0  0  2  0  0  0  0  0  0
  -24.4510  -31.2080   22.0630 N   0  0  0  0  0  0  0  0  0  0  0  0
  -23.4340  -32.2370   23.8100 O   0  0  0  0  0  0  0  0  0  0  0  0
  -22.5580  -29.5840   22.5610 C   0  0  0  0  0  0  0  0  0  0  0  0
  -21.2380  -29.3570   22.4620 N   0  0  0  0  0  0  0  0  0  0  0  0
  -23.2820  -28.9780   23.3560 O   0  0  0  0  0  0  0  0  0  0  0  0
  -20.7150  -29.9030   21.7910 H   0  0  0  0  0  0  0  0  0  0  0  0
  -17.9320  -27.9880   22.9660 C   0  0  0  0  0  0  0  0  0  0  0  0
  -20.4720  -28.3890   23.2430 C   0  0  0  0  0  3  0  0  0  0  0  0
  -20.6540  -26.9570   22.6880 C   0  0  0  0  0  2  0  0  0  0  0  0
  -19.5760  -26.5610   21.6740 C   0  0  0  0  0  2  0  0  0  0  0  0
  -18.1840  -26.6410   22.3100 C   0  0  0  0  0  2  0  0  0  0  0  0
  -19.0060  -28.8160   23.3870 C   0  0  0  0  0  0  0  0  0  0  0  0
  -18.7190  -30.0750   23.9580 C   0  0  0  0  0  3  0  0  0  0  0  0
  -17.3890  -30.5110   24.1080 C   0  0  0  0  0  3  0  0  0  0  0  0
  -16.3280  -29.6820   23.7020 C   0  0  0  0  0  3  0  0  0  0  0  0
  -16.6020  -28.4230   23.1400 C   0  0  0  0  0  3  0  0  0  0  0  0
  -25.8040  -32.5770   23.7430 C   0  0  0  0  0  3  0  0  0  0  0  0
  -25.5370  -33.9750   24.1070 N   0  0  0  0  0  0  0  0  0  0  0  0
  -25.8580  -35.0320   23.3480 C   0  0  0  0  0  0  0  0  0  0  0  0
  -26.4820  -34.9300   22.2870 O   0  0  0  0  0  0  0  0  0  0  0  0
  -24.9770  -34.1290   24.9320 H   0  0  0  0  0  0  0  0  0  0  0  0
  -24.1520  -36.8610   23.0920 C   0  0  0  0  0  1  0  0  0  0  0  0
  -25.4170  -36.4210   23.8460 C   0  0  0  0  0  3  0  0  0  0  0  0
  -27.6010  -37.2550   24.6010 C   0  0  0  0  0  1  0  0  0  0  0  0
  -26.4650  -37.4560   23.7050 N   0  0  0  0  0  0  0  0  0  0  0  0
  -26.0840  -38.3820   23.8800 H   0  0  0  0  0  0  0  0  0  0  0  0
  -26.3840  -31.7810   24.9750 C   0  0  1  0  0  0  0  0  0  0  0  0
  -25.3510  -31.5420   26.1000 C   0  0  0  0  0  1  0  0  0  0  0  0
  -26.9260  -30.4020   24.5300 C   0  0  0  0  0  1  0  0  0  0  0  0
  -27.5810  -32.5510   25.5820 C   0  0  0  0  0  1  0  0  0  0  0  0
  2  1  2  0
  3  4  2  0
  4  1  1  0
  4  8  1  0
  5  2  1  0
  6  5  2  0
  6  3  1  0
  7  6  1  0
  8 47  1  0
  9 15  1  0
  9 17  1  0
 10 15  1  0
 11 12  1  0
 11 10  1  0
 13 12  1  0
 13 22  1  0
 13 14  1  0
 15 14  1  0
 16  9  2  0
 17  8  1  0
 17 18  1  0
 19 20  2  0
 20 39  1  0
 21 20  1  0
 21 24  1  0
 22 23  1  0
 22 19  1  0
 23 21  2  0
 24 25  1  0
 25 26  2  0
 27 30  1  0
 27 26  1  0
 28 27  2  0
 29 28  1  0
 29 24  2  0
 30 31  1  0
 31 32  1  0
 32 33  2  0
 34 33  1  0
 34 38  1  0
 35 34  2  0
 36 31  2  0
 36 35  1  0
 37 36  1  0
 39 40  1  0
 40 43  1  0
 40 42  1  0
 41 39  2  0
 44 19  1  0
 44 45  1  0
 46 44  1  0
 47 48  1  0
 47 49  2  0
 50  5  1  0
 50 51  1  0
 52 51  1  0
 52 53  1  0
 54 56  1  0
 54 53  1  0
 55 66  2  0
 56 61  1  0
 57 65  1  0
 57 67  1  0
 58 64  1  0
 58 60  1  0
 59 65  1  0
 60 59  1  0
 61 60  2  0
 62 63  1  0
 62 56  2  0
 63 58  2  0
 64 57  1  0
 65 55  1  0
 67 69  2  0
 68 67  1  0
 70 68  1  0
 71 80  2  0
 71 76  1  0
 72 68  1  0
 72 76  1  0
 73 72  1  0
 74 75  1  0
 74 73  1  0
 75 71  1  0
 76 77  2  0
 77 78  1  0
 79 78  2  0
 80 79  1  0
 81 55  1  0
 81 82  1  0
 81 91  1  0
 82 85  1  0
 83 87  1  0
 83 82  1  0
 84 83  2  0
 87 86  1  0
 89 87  1  0
 89 90  1  0
 89 88  1  0
 91 94  1  1
 91 92  1  0
 93 91  1  0
M  ISO  4   9 100  17 100  53 101  54 101
M  END
>  <TORSDO>  (68) 
F 22

>  <SCORE>  (68) 
-11.701

>  <name>  (68) 
68

>  <ligand_id>  (68) 
68

>  <original_smiles>  (68) 
[H]c1c([H])c([H])c2c(c1[H])C([H])([H])C([H])([H])C([H])([H])C2([H])N([H])C(=O)C1([H])N(C(=O)C([H])(N([H])C(=O)C([H])(N([H])C([H])([H])[H])C([H])([H])[H])C(C([H])([H])[H])(C([H])([H])[H])C([H])([H])[H])C([H])([H])c2c([H])c(OC([H])([H])C([H])([H])C([H])([H])Oc3c([H])c([H])c(C([H])(C(=O)C([H])([H])[H])N([H])C(=O)N4C([H])([H])C([H])([H])C([H])([H])C([H])(n5nc(-c6c([H])c([H])c(Oc7c([H])c([H])c(F)c([H])c7F)c([H])c6[H])c(C(=O)N([H])[H])c5N([H])[H])C4([H])[H])c([H])c3F)c([H])c([H])c2C1([H])[H]

>  <smiles>  (68) 
[H]c1c([H])c([H])c2c(c1[H])C([H])([H])C([H])([H])C([H])([H])C2([H])N([H])C(=O)C1([H])N(C(=O)C([H])(N([H])C(=O)C([H])(N([H])C([H])([H])[H])C([H])([H])[H])C(C([H])([H])[H])(C([H])([H])[H])C([H])([H])[H])C([H])([H])c2c([H])c(OC([H])([H])C([H])([H])C([H])([H])Oc3c([H])c([H])c(C([H])(C(=O)C([H])([H])[H])N([H])C(=O)N4C([H])([H])C([H])([H])C([H])([H])C([H])(n5nc(-c6c([H])c([H])c(Oc7c([H])c([H])c(F)c([H])c7F)c([H])c6[H])c(C(=O)N([H])[H])c5N([H])[H])C4([H])[H])c([H])c3F)c([H])c([H])c2C1([H])[H]

$$$$
69:0:0
     RDKit          3D

 94103  0  0  1  0  0  0  0  0999 V2000
  -30.4650  -22.6430   22.6300 C   0  0  0  0  0  0  0  0  0  0  0  0
  -30.2830  -24.1390   22.9140 C   0  0  0  0  0  2  0  0  0  0  0  0
  -29.2020  -24.8040   22.0640 C   0  0  0  0  0  2  0  0  0  0  0  0
  -29.3650  -22.9170   20.4120 C   0  0  0  0  0  2  0  0  0  0  0  0
  -29.4090  -24.4700   20.5860 C   0  0  0  0  0  3  0  0  0  0  0  0
  -30.1450  -22.1340   21.4050 N   0  0  0  0  0  0  0  0  0  0  0  0
  -30.9290  -21.9570   23.5480 O   0  0  0  0  0  0  0  0  0  0  0  0
  -29.6530  -18.3980   21.0360 C   0  0  0  0  0  3  0  0  0  0  0  0
  -32.0280  -18.8920   21.1470 C   0  0  0  0  0  3  0  0  0  0  0  0
  -29.3670  -19.7880   21.0320 C   0  0  0  0  0  3  0  0  0  0  0  0
  -31.7460  -20.2730   21.1460 C   0  0  0  0  0  3  0  0  0  0  0  0
  -30.9880  -17.9370   21.1470 C   0  0  0  0  0  0  0  0  0  0  0  0
  -30.4110  -20.7400   21.1530 C   0  0  0  0  0  0  0  0  0  0  0  0
  -31.3370  -16.4710   21.4500 C   0  0  0  0  0  2  0  0  0  0  0  0
  -30.9650  -14.4520   20.0430 C   0  0  0  0  0  0  0  0  0  0  0  0
  -30.4930  -12.3110   18.8980 C   0  0  0  0  0  2  0  0  0  0  0  0
  -29.4840  -12.5130   17.7510 C   0  0  0  0  0  2  0  0  0  0  0  0
  -28.0400  -12.4180   18.2760 C   0  0  0  0  0  2  0  0  0  0  0  0
  -27.8040  -13.2930   19.5370 C   0  0  0  0  0  3  0  0  0  0  0  0
  -28.9170  -13.0680   20.5840 C   0  0  0  0  0  2  0  0  0  0  0  0
  -30.2120  -13.3230   19.9300 N   0  0  0  0  0  0  0  0  0  0  0  0
  -32.0180  -14.6090   19.4190 O   0  0  0  0  0  0  0  0  0  0  0  0
  -30.5050  -15.4030   20.8780 N   0  0  0  0  0  0  0  0  0  0  0  0
  -29.6170  -15.2270   21.3200 H   0  0  0  0  0  0  0  0  0  0  0  0
  -25.4930  -13.9890   20.4270 C   0  0  0  0  0  0  0  0  0  0  0  0
  -24.4160  -13.2570   20.8480 C   0  0  0  0  0  0  0  0  0  0  0  0
  -24.8050  -11.8860   20.7460 C   0  0  0  0  0  0  0  0  0  0  0  0
  -26.4750  -13.0660   20.1010 N   0  0  0  0  0  0  0  0  0  0  0  0
  -26.0680  -11.7950   20.3490 N   0  0  0  0  0  0  0  0  0  0  0  0
  -24.0330  -10.6540   20.9500 C   0  0  0  0  0  0  0  0  0  0  0  0
  -24.4540   -9.6590   21.8590 C   0  0  0  0  0  3  0  0  0  0  0  0
  -23.6840   -8.4920   22.0500 C   0  0  0  0  0  3  0  0  0  0  0  0
  -22.4780   -8.3110   21.3310 C   0  0  0  0  0  0  0  0  0  0  0  0
  -22.0760   -9.2940   20.4100 C   0  0  0  0  0  3  0  0  0  0  0  0
  -22.8450  -10.4530   20.2170 C   0  0  0  0  0  3  0  0  0  0  0  0
  -21.6790   -7.1990   21.4340 O   0  0  0  0  0  0  0  0  0  0  0  0
  -21.5980   -6.4740   22.5970 C   0  0  0  0  0  0  0  0  0  0  0  0
  -21.1830   -7.0610   23.8120 C   0  0  0  0  0  3  0  0  0  0  0  0
  -21.0480   -6.2650   24.9680 C   0  0  0  0  0  3  0  0  0  0  0  0
  -21.3160   -4.8850   24.9080 C   0  0  0  0  0  0  0  0  0  0  0  0
  -21.7240   -4.2980   23.6970 C   0  0  0  0  0  3  0  0  0  0  0  0
  -21.8610   -5.0900   22.5440 C   0  0  0  0  0  0  0  0  0  0  0  0
  -22.2340   -4.5170   21.3740 F   0  0  0  0  0  0  0  0  0  0  0  0
  -21.1790   -4.1180   26.0150 F   0  0  0  0  0  0  0  0  0  0  0  0
  -23.0650  -13.7900   21.2310 C   0  0  0  0  0  0  0  0  0  0  0  0
  -22.3700  -13.1080   22.1360 N   0  0  0  0  0  0  0  0  0  0  0  0
  -22.6390  -14.8450   20.7650 O   0  0  0  0  0  0  0  0  0  0  0  0
  -22.7300  -12.2520   22.5330 H   0  0  0  0  0  0  0  0  0  0  0  0
  -21.4680  -13.4460   22.4370 H   0  0  0  0  0  0  0  0  0  0  0  0
  -25.7150  -15.3550   20.2770 N   0  0  0  0  0  0  0  0  0  0  0  0
  -24.9950  -16.0470   20.4560 H   0  0  0  0  0  0  0  0  0  0  0  0
  -26.5670  -15.7570   19.9060 H   0  0  0  0  0  0  0  0  0  0  0  0
  -28.3730  -25.2220   19.7120 C   0  0  0  0  0  2  0  0  0  0  0  0
  -28.4660  -26.6570   19.8550 O   0  0  0  0  0  0  0  0  0  0  0  0
  -24.5190  -31.6630   23.0440 C   0  0  0  0  0  0  0  0  0  0  0  0
  -27.2810  -27.3710   19.8400 C   0  0  0  0  0  0  0  0  0  0  0  0
  -23.3540  -30.2760   21.3640 C   0  0  0  0  0  3  0  0  0  0  0  0
  -24.8480  -28.8240   19.8930 C   0  0  0  0  0  0  0  0  0  0  0  0
  -25.8700  -30.7060   21.1780 C   0  0  0  0  0  2  0  0  0  0  0  0
  -25.9930  -29.3570   20.4970 C   0  0  0  0  0  0  0  0  0  0  0  0
  -27.2120  -28.6390   20.4640 C   0  0  0  0  0  3  0  0  0  0  0  0
  -26.1150  -26.8630   19.2170 C   0  0  0  0  0  3  0  0  0  0  0  0
  -24.9040  -27.5780   19.2500 C   0  0  0  0  0  3  0  0  0  0  0  0
  -23.5810  -29.6460   19.9640 C   0  0  0  0  0  2  0  0  0  0  0  0
  -24.5990  -30.8960   21.9210 N   0  0  0  0  0  0  0  0  0  0  0  0
  -23.4310  -31.8890   23.5910 O   0  0  0  0  0  0  0  0  0  0  0  0
  -22.7330  -29.2080   22.2940 C   0  0  0  0  0  0  0  0  0  0  0  0
  -21.4110  -29.0010   22.1720 N   0  0  0  0  0  0  0  0  0  0  0  0
  -23.4370  -28.5680   23.0800 O   0  0  0  0  0  0  0  0  0  0  0  0
  -20.9040  -29.5720   21.5100 H   0  0  0  0  0  0  0  0  0  0  0  0
  -18.0620  -27.7460   22.6800 C   0  0  0  0  0  0  0  0  0  0  0  0
  -20.6210  -28.0230   22.9160 C   0  0  0  0  0  3  0  0  0  0  0  0
  -20.7290  -26.6180   22.2780 C   0  0  0  0  0  2  0  0  0  0  0  0
  -19.6120  -26.3260   21.2720 C   0  0  0  0  0  2  0  0  0  0  0  0
  -18.2410  -26.4270   21.9470 C   0  0  0  0  0  2  0  0  0  0  0  0
  -19.1800  -28.5030   23.1210 C   0  0  0  0  0  0  0  0  0  0  0  0
  -18.9600  -29.7380   23.7670 C   0  0  0  0  0  3  0  0  0  0  0  0
  -17.6530  -30.2170   23.9770 C   0  0  0  0  0  3  0  0  0  0  0  0
  -16.5480  -29.4570   23.5530 C   0  0  0  0  0  3  0  0  0  0  0  0
  -16.7540  -28.2240   22.9090 C   0  0  0  0  0  3  0  0  0  0  0  0
  -25.7860  -32.3140   23.6800 C   0  0  0  0  0  3  0  0  0  0  0  0
  -26.3320  -31.5180   24.9290 C   0  0  1  0  0  0  0  0  0  0  0  0
  -25.2510  -31.2090   25.9900 C   0  0  0  0  0  1  0  0  0  0  0  0
  -26.9610  -30.1770   24.4860 C   0  0  0  0  0  1  0  0  0  0  0  0
  -27.4560  -32.3290   25.6170 C   0  0  0  0  0  1  0  0  0  0  0  0
  -25.4360  -33.6910   24.0540 N   0  0  0  0  0  0  0  0  0  0  0  0
  -25.7460  -34.7770   23.3330 C   0  0  0  0  0  0  0  0  0  0  0  0
  -26.4270  -34.7260   22.3060 O   0  0  0  0  0  0  0  0  0  0  0  0
  -24.8290  -33.8020   24.8530 H   0  0  0  0  0  0  0  0  0  0  0  0
  -23.9710  -36.5300   23.0190 C   0  0  0  0  0  1  0  0  0  0  0  0
  -25.2150  -36.1340   23.8320 C   0  0  0  0  0  3  0  0  0  0  0  0
  -27.3110  -37.0500   24.7230 C   0  0  0  0  0  1  0  0  0  0  0  0
  -26.2180  -37.2190   23.7680 N   0  0  0  0  0  0  0  0  0  0  0  0
  -25.7840  -38.1220   23.9380 H   0  0  0  0  0  0  0  0  0  0  0  0
  1  2  1  0
  1  7  2  0
  3  2  1  0
  4  5  1  0
  4  6  1  0
  5 53  1  0
  5  3  1  0
  6  1  1  0
  8 12  1  0
 10  8  2  0
 10 13  1  0
 11  9  1  0
 11 13  2  0
 12  9  2  0
 12 14  1  0
 13  6  1  0
 15 23  1  0
 16 21  1  0
 17 18  1  0
 17 16  1  0
 19 18  1  0
 19 28  1  0
 19 20  1  0
 21 15  1  0
 21 20  1  0
 22 15  2  0
 23 24  1  0
 23 14  1  0
 25 26  2  0
 26 45  1  0
 27 26  1  0
 27 30  1  0
 28 29  1  0
 28 25  1  0
 29 27  2  0
 30 31  1  0
 31 32  2  0
 33 36  1  0
 33 32  1  0
 34 33  2  0
 35 34  1  0
 35 30  2  0
 36 37  1  0
 37 38  1  0
 38 39  2  0
 40 39  1  0
 40 44  1  0
 41 40  2  0
 42 37  2  0
 42 41  1  0
 43 42  1  0
 45 46  1  0
 46 49  1  0
 46 48  1  0
 47 45  2  0
 50 25  1  0
 50 51  1  0
 52 50  1  0
 53 54  1  0
 55 66  2  0
 56 54  1  0
 56 61  1  0
 57 65  1  0
 57 67  1  0
 58 64  1  0
 58 60  1  0
 59 65  1  0
 60 59  1  0
 61 60  2  0
 62 63  1  0
 62 56  2  0
 63 58  2  0
 64 57  1  0
 65 55  1  0
 67 69  2  0
 68 67  1  0
 70 68  1  0
 71 80  2  0
 71 76  1  0
 72 68  1  0
 72 76  1  0
 73 72  1  0
 74 75  1  0
 74 73  1  0
 75 71  1  0
 76 77  2  0
 77 78  1  0
 79 78  2  0
 80 79  1  0
 81 55  1  0
 81 86  1  0
 81 82  1  0
 82 85  1  1
 82 83  1  0
 84 82  1  0
 86 89  1  0
 87 91  1  0
 87 86  1  0
 88 87  2  0
 91 90  1  0
 93 91  1  0
 93 94  1  0
 93 92  1  0
M  ISO  4  15 100  23 100  53 101  54 101
M  END
>  <TORSDO>  (69) 
F 19

>  <SCORE>  (69) 
-13.595

>  <name>  (69) 
69

>  <ligand_id>  (69) 
69

>  <original_smiles>  (69) 
[H]c1c([H])c([H])c2c(c1[H])C([H])([H])C([H])([H])C([H])([H])C2([H])N([H])C(=O)C1([H])N(C(=O)C([H])(N([H])C(=O)C([H])(N([H])C([H])([H])[H])C([H])([H])[H])C(C([H])([H])[H])(C([H])([H])[H])C([H])([H])[H])C([H])([H])c2c([H])c(OC([H])([H])C3([H])C([H])([H])N(c4c([H])c([H])c(C([H])([H])N([H])C(=O)N5C([H])([H])C([H])([H])C([H])([H])C([H])(n6nc(-c7c([H])c([H])c(Oc8c([H])c([H])c(F)c([H])c8F)c([H])c7[H])c(C(=O)N([H])[H])c6N([H])[H])C5([H])[H])c([H])c4[H])C(=O)C([H])([H])C3([H])[H])c([H])c([H])c2C1([H])[H]

>  <smiles>  (69) 
[H]c1c([H])c([H])c2c(c1[H])C([H])([H])C([H])([H])C([H])([H])C2([H])N([H])C(=O)C1([H])N(C(=O)C([H])(N([H])C(=O)C([H])(N([H])C([H])([H])[H])C([H])([H])[H])C(C([H])([H])[H])(C([H])([H])[H])C([H])([H])[H])C([H])([H])c2c([H])c(OC([H])([H])C3([H])C([H])([H])N(c4c([H])c([H])c(C([H])([H])N([H])C(=O)N5C([H])([H])C([H])([H])C([H])([H])C([H])(n6nc(-c7c([H])c([H])c(Oc8c([H])c([H])c(F)c([H])c8F)c([H])c7[H])c(C(=O)N([H])[H])c6N([H])[H])C5([H])[H])c([H])c4[H])C(=O)C([H])([H])C3([H])[H])c([H])c([H])c2C1([H])[H]

$$$$
70:0:0
     RDKit          3D

 95103  0  0  1  0  0  0  0  0999 V2000
  -29.3350  -22.6750   19.5920 C   0  0  0  0  0  0  0  0  0  0  0  0
  -29.1320  -21.3850   19.2690 N   0  0  0  0  0  0  0  0  0  0  0  0
  -30.3410  -23.0920   20.1700 O   0  0  0  0  0  0  0  0  0  0  0  0
  -28.2570  -21.1930   18.7990 H   0  0  0  0  0  0  0  0  0  0  0  0
  -31.8210  -19.0110   20.4470 C   0  0  0  0  0  3  0  0  0  0  0  0
  -31.2020  -20.2080   20.0310 C   0  0  0  0  0  3  0  0  0  0  0  0
  -29.7060  -17.8290   20.2130 C   0  0  0  0  0  3  0  0  0  0  0  0
  -31.0790  -17.8120   20.5280 C   0  0  0  0  0  0  0  0  0  0  0  0
  -29.8210  -20.2240   19.7190 C   0  0  0  0  0  0  0  0  0  0  0  0
  -29.0660  -19.0320   19.8310 C   0  0  0  0  0  0  0  0  0  0  0  0
  -26.8720  -18.2960   20.3930 C   0  0  0  0  0  1  0  0  0  0  0  0
  -27.7160  -19.0910   19.5610 O   0  0  0  0  0  0  0  0  0  0  0  0
  -31.7340  -16.5200   21.0080 C   0  0  0  0  0  2  0  0  0  0  0  0
  -31.4410  -14.3250   19.8640 C   0  0  0  0  0  0  0  0  0  0  0  0
  -30.9450  -12.1390   18.8260 C   0  0  0  0  0  2  0  0  0  0  0  0
  -29.9580  -12.3050   17.6550 C   0  0  0  0  0  2  0  0  0  0  0  0
  -28.5040  -12.2710   18.1600 C   0  0  0  0  0  2  0  0  0  0  0  0
  -28.2680  -13.2170   19.3690 C   0  0  0  0  0  3  0  0  0  0  0  0
  -29.3590  -13.0150   20.4430 C   0  0  0  0  0  2  0  0  0  0  0  0
  -30.6730  -13.2030   19.8040 N   0  0  0  0  0  0  0  0  0  0  0  0
  -32.4830  -14.4590   19.2150 O   0  0  0  0  0  0  0  0  0  0  0  0
  -30.9990  -15.2960   20.6760 N   0  0  0  0  0  0  0  0  0  0  0  0
  -30.1300  -15.1240   21.1600 H   0  0  0  0  0  0  0  0  0  0  0  0
  -25.9740  -14.0070   20.2270 C   0  0  0  0  0  0  0  0  0  0  0  0
  -24.8680  -13.3190   20.6490 C   0  0  0  0  0  0  0  0  0  0  0  0
  -25.2120  -11.9350   20.5750 C   0  0  0  0  0  0  0  0  0  0  0  0
  -26.9260  -13.0470   19.9240 N   0  0  0  0  0  0  0  0  0  0  0  0
  -26.4740  -11.7940   20.1880 N   0  0  0  0  0  0  0  0  0  0  0  0
  -24.3970  -10.7330   20.7970 C   0  0  0  0  0  0  0  0  0  0  0  0
  -24.7600   -9.7590   21.7520 C   0  0  0  0  0  3  0  0  0  0  0  0
  -23.9500   -8.6210   21.9580 C   0  0  0  0  0  3  0  0  0  0  0  0
  -22.7600   -8.4520   21.2080 C   0  0  0  0  0  0  0  0  0  0  0  0
  -22.4150   -9.4140   20.2420 C   0  0  0  0  0  3  0  0  0  0  0  0
  -23.2270  -10.5430   20.0360 C   0  0  0  0  0  3  0  0  0  0  0  0
  -21.9250   -7.3670   21.3220 O   0  0  0  0  0  0  0  0  0  0  0  0
  -21.7740   -6.6970   22.5100 C   0  0  0  0  0  0  0  0  0  0  0  0
  -21.3340   -7.3510   23.6830 C   0  0  0  0  0  3  0  0  0  0  0  0
  -21.1250   -6.6110   24.8640 C   0  0  0  0  0  3  0  0  0  0  0  0
  -21.3460   -5.2210   24.8730 C   0  0  0  0  0  0  0  0  0  0  0  0
  -21.7770   -4.5690   23.7060 C   0  0  0  0  0  3  0  0  0  0  0  0
  -21.9880   -5.3040   22.5280 C   0  0  0  0  0  0  0  0  0  0  0  0
  -22.3840   -4.6680   21.4000 F   0  0  0  0  0  0  0  0  0  0  0  0
  -21.1380   -4.5090   26.0060 F   0  0  0  0  0  0  0  0  0  0  0  0
  -23.5330  -13.9070   21.0110 C   0  0  0  0  0  0  0  0  0  0  0  0
  -22.8120  -13.2720   21.9280 N   0  0  0  0  0  0  0  0  0  0  0  0
  -23.1420  -14.9630   20.5140 O   0  0  0  0  0  0  0  0  0  0  0  0
  -23.1410  -12.4170   22.3530 H   0  0  0  0  0  0  0  0  0  0  0  0
  -21.9190  -13.6470   22.2130 H   0  0  0  0  0  0  0  0  0  0  0  0
  -26.2420  -15.3620   20.0540 N   0  0  0  0  0  0  0  0  0  0  0  0
  -25.5470  -16.0790   20.2310 H   0  0  0  0  0  0  0  0  0  0  0  0
  -27.1100  -15.7320   19.6910 H   0  0  0  0  0  0  0  0  0  0  0  0
  -28.2060  -23.6430   19.2030 C   0  0  0  0  0  2  0  0  0  0  0  0
  -28.5870  -24.7210   18.1590 C   0  0  0  0  0  2  0  0  0  0  0  0
  -29.0990  -26.0680   18.7170 C   0  0  0  0  0  2  0  0  0  0  0  0
  -28.5250  -26.5130   19.9490 O   0  0  0  0  0  0  0  0  0  0  0  0
  -24.7140  -31.5480   23.2010 C   0  0  0  0  0  0  0  0  0  0  0  0
  -27.3530  -27.2370   19.9280 C   0  0  0  0  0  0  0  0  0  0  0  0
  -23.5130  -30.2380   21.4810 C   0  0  0  0  0  3  0  0  0  0  0  0
  -24.9650  -28.7500   20.0070 C   0  0  0  0  0  0  0  0  0  0  0  0
  -26.0450  -30.5740   21.3380 C   0  0  0  0  0  2  0  0  0  0  0  0
  -26.1190  -29.2340   20.6360 C   0  0  0  0  0  0  0  0  0  0  0  0
  -27.3120  -28.4800   20.5980 C   0  0  0  0  0  3  0  0  0  0  0  0
  -26.1740  -26.7550   19.3190 C   0  0  0  0  0  3  0  0  0  0  0  0
  -24.9870  -27.5090   19.3510 C   0  0  0  0  0  3  0  0  0  0  0  0
  -23.7310  -29.6160   20.0770 C   0  0  0  0  0  2  0  0  0  0  0  0
  -24.7750  -30.7980   22.0660 N   0  0  0  0  0  0  0  0  0  0  0  0
  -23.6280  -31.8110   23.7370 O   0  0  0  0  0  0  0  0  0  0  0  0
  -22.8360  -29.1820   22.3880 C   0  0  0  0  0  0  0  0  0  0  0  0
  -21.5120  -29.0240   22.2340 N   0  0  0  0  0  0  0  0  0  0  0  0
  -23.5000  -28.5080   23.1770 O   0  0  0  0  0  0  0  0  0  0  0  0
  -21.0420  -29.6210   21.5690 H   0  0  0  0  0  0  0  0  0  0  0  0
  -18.1130  -27.8650   22.6370 C   0  0  0  0  0  0  0  0  0  0  0  0
  -20.6720  -28.0620   22.9460 C   0  0  0  0  0  3  0  0  0  0  0  0
  -20.7550  -26.6590   22.2990 C   0  0  0  0  0  2  0  0  0  0  0  0
  -19.6600  -26.4080   21.2590 C   0  0  0  0  0  2  0  0  0  0  0  0
  -18.2730  -26.5470   21.8940 C   0  0  0  0  0  2  0  0  0  0  0  0
  -19.2400  -28.5830   23.1180 C   0  0  0  0  0  0  0  0  0  0  0  0
  -19.0410  -29.8190   23.7710 C   0  0  0  0  0  3  0  0  0  0  0  0
  -17.7460  -30.3380   23.9490 C   0  0  0  0  0  3  0  0  0  0  0  0
  -16.6320  -29.6130   23.4920 C   0  0  0  0  0  3  0  0  0  0  0  0
  -16.8160  -28.3800   22.8390 C   0  0  0  0  0  3  0  0  0  0  0  0
  -26.0000  -32.1320   23.8690 C   0  0  0  0  0  3  0  0  0  0  0  0
  -25.7150  -33.5230   24.2400 N   0  0  0  0  0  0  0  0  0  0  0  0
  -26.0860  -34.5930   23.5250 C   0  0  0  0  0  0  0  0  0  0  0  0
  -26.7780  -34.5120   22.5070 O   0  0  0  0  0  0  0  0  0  0  0  0
  -25.1160  -33.6700   25.0400 H   0  0  0  0  0  0  0  0  0  0  0  0
  -24.4070  -36.4320   23.1890 C   0  0  0  0  0  1  0  0  0  0  0  0
  -25.6140  -35.9730   24.0220 C   0  0  0  0  0  3  0  0  0  0  0  0
  -27.7440  -36.7790   24.9410 C   0  0  0  0  0  1  0  0  0  0  0  0
  -26.6710  -37.0060   23.9760 N   0  0  0  0  0  0  0  0  0  0  0  0
  -26.2810  -37.9270   24.1510 H   0  0  0  0  0  0  0  0  0  0  0  0
  -26.4800  -31.3060   25.1270 C   0  0  1  0  0  0  0  0  0  0  0  0
  -25.3570  -31.0490   26.1610 C   0  0  0  0  0  1  0  0  0  0  0  0
  -27.0540  -29.9360   24.6970 C   0  0  0  0  0  1  0  0  0  0  0  0
  -27.6290  -32.0590   25.8390 C   0  0  0  0  0  1  0  0  0  0  0  0
  1  3  2  0
  2  1  1  0
  2  9  1  0
  4  2  1  0
  5  8  1  0
  6  5  2  0
  7  8  2  0
  8 13  1  0
  9 10  2  0
  9  6  1  0
 10  7  1  0
 12 10  1  0
 12 11  1  0
 14 22  1  0
 15 20  1  0
 16 17  1  0
 16 15  1  0
 18 17  1  0
 18 27  1  0
 18 19  1  0
 20 14  1  0
 20 19  1  0
 21 14  2  0
 22 13  1  0
 22 23  1  0
 24 25  2  0
 25 44  1  0
 26 25  1  0
 26 29  1  0
 27 28  1  0
 27 24  1  0
 28 26  2  0
 29 30  1  0
 30 31  2  0
 32 35  1  0
 32 31  1  0
 33 32  2  0
 34 33  1  0
 34 29  2  0
 35 36  1  0
 36 41  2  0
 36 37  1  0
 37 38  2  0
 38 39  1  0
 39 43  1  0
 40 39  2  0
 41 40  1  0
 42 41  1  0
 44 45  1  0
 45 48  1  0
 45 47  1  0
 46 44  2  0
 49 24  1  0
 49 50  1  0
 51 49  1  0
 52  1  1  0
 53 54  1  0
 53 52  1  0
 54 55  1  0
 56 67  2  0
 57 55  1  0
 57 62  1  0
 58 66  1  0
 58 68  1  0
 59 65  1  0
 59 61  1  0
 60 66  1  0
 61 60  1  0
 62 61  2  0
 63 64  1  0
 63 57  2  0
 64 59  2  0
 65 58  1  0
 66 56  1  0
 68 70  2  0
 69 68  1  0
 71 69  1  0
 72 81  2  0
 72 77  1  0
 73 69  1  0
 73 77  1  0
 74 73  1  0
 75 76  1  0
 75 74  1  0
 76 72  1  0
 77 78  2  0
 78 79  1  0
 80 79  2  0
 81 80  1  0
 82 56  1  0
 82 83  1  0
 82 92  1  0
 83 86  1  0
 84 88  1  0
 84 83  1  0
 85 84  2  0
 88 87  1  0
 90 88  1  0
 90 91  1  0
 90 89  1  0
 92 95  1  1
 92 93  1  0
 94 92  1  0
M  ISO  4  14 100  22 100  54 101  55 101
M  END
>  <TORSDO>  (70) 
F 22

>  <SCORE>  (70) 
-12.053

>  <name>  (70) 
70

>  <ligand_id>  (70) 
70

>  <original_smiles>  (70) 
[H]c1c([H])c([H])c2c(c1[H])C([H])([H])C([H])([H])C([H])([H])C2([H])N([H])C(=O)C1([H])N(C(=O)C([H])(N([H])C(=O)C([H])(N([H])C([H])([H])[H])C([H])([H])[H])C(C([H])([H])[H])(C([H])([H])[H])C([H])([H])[H])C([H])([H])c2c([H])c(OC([H])([H])C([H])([H])C([H])([H])C(=O)N([H])c3c([H])c([H])c(C([H])([H])N([H])C(=O)N4C([H])([H])C([H])([H])C([H])([H])C([H])(n5nc(-c6c([H])c([H])c(Oc7c([H])c([H])c(F)c([H])c7F)c([H])c6[H])c(C(=O)N([H])[H])c5N([H])[H])C4([H])[H])c([H])c3OC([H])([H])[H])c([H])c([H])c2C1([H])[H]

>  <smiles>  (70) 
[H]c1c([H])c([H])c2c(c1[H])C([H])([H])C([H])([H])C([H])([H])C2([H])N([H])C(=O)C1([H])N(C(=O)C([H])(N([H])C(=O)C([H])(N([H])C([H])([H])[H])C([H])([H])[H])C(C([H])([H])[H])(C([H])([H])[H])C([H])([H])[H])C([H])([H])c2c([H])c(OC([H])([H])C([H])([H])C([H])([H])C(=O)N([H])c3c([H])c([H])c(C([H])([H])N([H])C(=O)N4C([H])([H])C([H])([H])C([H])([H])C([H])(n5nc(-c6c([H])c([H])c(Oc7c([H])c([H])c(F)c([H])c7F)c([H])c6[H])c(C(=O)N([H])[H])c5N([H])[H])C4([H])[H])c([H])c3OC([H])([H])[H])c([H])c([H])c2C1([H])[H]

$$$$
71:0:0
     RDKit          3D

 93102  0  0  1  0  0  0  0  0999 V2000
  -30.5620  -21.0190   19.2160 C   0  0  0  0  0  0  0  0  0  0  0  0
  -30.6480  -24.5080   19.5900 C   0  0  0  0  0  2  0  0  0  0  0  0
  -31.4460  -23.2230   19.8190 C   0  0  0  0  0  2  0  0  0  0  0  0
  -29.1730  -22.7640   20.3250 C   0  0  0  0  0  2  0  0  0  0  0  0
  -29.3970  -24.3050   20.4260 C   0  0  0  0  0  3  0  0  0  0  0  0
  -30.4690  -22.1360   19.9880 N   0  0  0  0  0  0  0  0  0  0  0  0
  -30.9690  -21.0830   18.0510 O   0  0  0  0  0  0  0  0  0  0  0  0
  -29.7960  -18.6240   18.9130 C   0  0  0  0  0  3  0  0  0  0  0  0
  -30.5950  -19.2630   21.1100 C   0  0  0  0  0  3  0  0  0  0  0  0
  -29.6990  -17.2780   19.3280 C   0  0  0  0  0  3  0  0  0  0  0  0
  -30.4910  -17.9100   21.5320 C   0  0  0  0  0  3  0  0  0  0  0  0
  -30.2610  -19.6390   19.7840 C   0  0  0  0  0  0  0  0  0  0  0  0
  -30.0740  -16.8960   20.6350 C   0  0  0  0  0  0  0  0  0  0  0  0
  -30.6580  -14.5000   20.4730 C   0  0  0  0  0  0  0  0  0  0  0  0
  -30.3570  -12.3340   19.3350 C   0  0  0  0  0  2  0  0  0  0  0  0
  -29.4200  -12.5520   18.1280 C   0  0  0  0  0  2  0  0  0  0  0  0
  -27.9440  -12.4190   18.5530 C   0  0  0  0  0  2  0  0  0  0  0  0
  -27.6100  -13.2460   19.8240 C   0  0  0  0  0  3  0  0  0  0  0  0
  -28.6640  -13.0150   20.9330 C   0  0  0  0  0  2  0  0  0  0  0  0
  -29.9910  -13.3160   20.3720 N   0  0  0  0  0  0  0  0  0  0  0  0
  -31.7780  -14.6760   19.9880 O   0  0  0  0  0  0  0  0  0  0  0  0
  -29.9770  -15.5230   21.0390 N   0  0  0  0  0  0  0  0  0  0  0  0
  -29.1380  -15.2620   21.5350 H   0  0  0  0  0  0  0  0  0  0  0  0
  -25.2090  -13.8570   20.5230 C   0  0  0  0  0  0  0  0  0  0  0  0
  -24.1370  -13.0860   20.8880 C   0  0  0  0  0  0  0  0  0  0  0  0
  -24.5940  -11.7330   20.8560 C   0  0  0  0  0  0  0  0  0  0  0  0
  -26.2530  -12.9740   20.2960 N   0  0  0  0  0  0  0  0  0  0  0  0
  -25.8850  -11.6910   20.5500 N   0  0  0  0  0  0  0  0  0  0  0  0
  -23.8620  -10.4740   21.0420 C   0  0  0  0  0  0  0  0  0  0  0  0
  -24.2840   -9.5050   21.9800 C   0  0  0  0  0  3  0  0  0  0  0  0
  -23.5510   -8.3110   22.1530 C   0  0  0  0  0  3  0  0  0  0  0  0
  -22.3840   -8.0760   21.3880 C   0  0  0  0  0  0  0  0  0  0  0  0
  -21.9820   -9.0330   20.4390 C   0  0  0  0  0  3  0  0  0  0  0  0
  -22.7150  -10.2180   20.2630 C   0  0  0  0  0  3  0  0  0  0  0  0
  -21.6260   -6.9330   21.4690 O   0  0  0  0  0  0  0  0  0  0  0  0
  -21.5560   -6.1980   22.6250 C   0  0  0  0  0  0  0  0  0  0  0  0
  -21.1010   -6.7570   23.8390 C   0  0  0  0  0  3  0  0  0  0  0  0
  -20.9790   -5.9480   24.9860 C   0  0  0  0  0  3  0  0  0  0  0  0
  -21.3030   -4.5790   24.9200 C   0  0  0  0  0  0  0  0  0  0  0  0
  -21.7530   -4.0180   23.7120 C   0  0  0  0  0  3  0  0  0  0  0  0
  -21.8760   -4.8260   22.5670 C   0  0  0  0  0  0  0  0  0  0  0  0
  -22.2880   -4.2760   21.3990 F   0  0  0  0  0  0  0  0  0  0  0  0
  -21.1800   -3.7990   26.0210 F   0  0  0  0  0  0  0  0  0  0  0  0
  -22.7420  -13.5680   21.1590 C   0  0  0  0  0  0  0  0  0  0  0  0
  -22.0070  -12.8710   22.0170 N   0  0  0  0  0  0  0  0  0  0  0  0
  -22.3090  -14.5980   20.6430 O   0  0  0  0  0  0  0  0  0  0  0  0
  -22.3660  -12.0360   22.4570 H   0  0  0  0  0  0  0  0  0  0  0  0
  -21.0710  -13.1790   22.2420 H   0  0  0  0  0  0  0  0  0  0  0  0
  -25.3780  -15.2290   20.3470 N   0  0  0  0  0  0  0  0  0  0  0  0
  -24.6110  -15.8840   20.4600 H   0  0  0  0  0  0  0  0  0  0  0  0
  -26.2300  -15.6680   20.0230 H   0  0  0  0  0  0  0  0  0  0  0  0
  -28.1930  -25.1920   19.9970 C   0  0  0  0  0  2  0  0  0  0  0  0
  -28.3610  -26.6200   20.1970 O   0  0  0  0  0  0  0  0  0  0  0  0
  -24.5940  -31.8720   23.2620 C   0  0  0  0  0  0  0  0  0  0  0  0
  -27.2080  -27.3970   20.1600 C   0  0  0  0  0  0  0  0  0  0  0  0
  -23.3820  -30.4830   21.6180 C   0  0  0  0  0  3  0  0  0  0  0  0
  -24.8260  -28.9500   20.1790 C   0  0  0  0  0  0  0  0  0  0  0  0
  -25.9140  -30.8220   21.4210 C   0  0  0  0  0  2  0  0  0  0  0  0
  -25.9920  -29.4540   20.7680 C   0  0  0  0  0  0  0  0  0  0  0  0
  -27.1870  -28.6870   20.7500 C   0  0  0  0  0  3  0  0  0  0  0  0
  -26.0170  -26.9270   19.5530 C   0  0  0  0  0  3  0  0  0  0  0  0
  -24.8360  -27.6900   19.5640 C   0  0  0  0  0  3  0  0  0  0  0  0
  -23.5860  -29.8140   20.2340 C   0  0  0  0  0  2  0  0  0  0  0  0
  -24.6490  -31.0740   22.1580 N   0  0  0  0  0  0  0  0  0  0  0  0
  -23.5150  -32.1470   23.8030 O   0  0  0  0  0  0  0  0  0  0  0  0
  -22.7270  -29.4590   22.5740 C   0  0  0  0  0  0  0  0  0  0  0  0
  -21.4020  -29.2790   22.4470 N   0  0  0  0  0  0  0  0  0  0  0  0
  -23.4090  -28.8290   23.3880 O   0  0  0  0  0  0  0  0  0  0  0  0
  -20.9130  -29.8410   21.7640 H   0  0  0  0  0  0  0  0  0  0  0  0
  -18.0230  -28.0930   22.9430 C   0  0  0  0  0  0  0  0  0  0  0  0
  -20.5820  -28.3410   23.2140 C   0  0  0  0  0  3  0  0  0  0  0  0
  -20.6790  -26.9110   22.6330 C   0  0  0  0  0  2  0  0  0  0  0  0
  -19.5750  -26.5970   21.6190 C   0  0  0  0  0  2  0  0  0  0  0  0
  -18.1940  -26.7450   22.2650 C   0  0  0  0  0  2  0  0  0  0  0  0
  -19.1450  -28.8490   23.3760 C   0  0  0  0  0  0  0  0  0  0  0  0
  -18.9300  -30.1120   23.9700 C   0  0  0  0  0  3  0  0  0  0  0  0
  -17.6270  -30.6170   24.1380 C   0  0  0  0  0  3  0  0  0  0  0  0
  -16.5200  -29.8570   23.7220 C   0  0  0  0  0  3  0  0  0  0  0  0
  -16.7200  -28.5970   23.1310 C   0  0  0  0  0  3  0  0  0  0  0  0
  -25.8830  -32.4970   23.8820 C   0  0  0  0  0  3  0  0  0  0  0  0
  -25.5780  -33.8940   24.2210 N   0  0  0  0  0  0  0  0  0  0  0  0
  -25.8980  -34.9480   23.4580 C   0  0  0  0  0  0  0  0  0  0  0  0
  -26.5540  -34.8490   22.4170 O   0  0  0  0  0  0  0  0  0  0  0  0
  -24.9940  -34.0450   25.0300 H   0  0  0  0  0  0  0  0  0  0  0  0
  -24.1590  -36.7370   23.1360 C   0  0  0  0  0  1  0  0  0  0  0  0
  -25.4140  -36.3340   23.9270 C   0  0  0  0  0  3  0  0  0  0  0  0
  -27.5600  -37.2240   24.7250 C   0  0  0  0  0  1  0  0  0  0  0  0
  -26.4430  -37.3900   23.7980 N   0  0  0  0  0  0  0  0  0  0  0  0
  -26.0370  -38.3090   23.9510 H   0  0  0  0  0  0  0  0  0  0  0  0
  -26.4050  -31.7180   25.1510 C   0  0  1  0  0  0  0  0  0  0  0  0
  -25.3150  -31.4720   26.2200 C   0  0  0  0  0  1  0  0  0  0  0  0
  -26.9860  -30.3430   24.7470 C   0  0  0  0  0  1  0  0  0  0  0  0
  -27.5590  -32.5060   25.8130 C   0  0  0  0  0  1  0  0  0  0  0  0
  1 12  1  0
  1  6  1  0
  2  3  1  0
  2  5  1  0
  3  6  1  0
  4  5  1  0
  5 52  1  0
  6  4  1  0
  7  1  2  0
  8 10  2  0
  8 12  1  0
  9 11  1  0
 10 13  1  0
 12  9  2  0
 13 22  1  0
 13 11  2  0
 14 22  1  0
 15 20  1  0
 16 17  1  0
 16 15  1  0
 18 17  1  0
 18 27  1  0
 18 19  1  0
 20 14  1  0
 20 19  1  0
 21 14  2  0
 22 23  1  0
 24 25  2  0
 25 44  1  0
 26 25  1  0
 26 29  1  0
 27 24  1  0
 27 28  1  0
 28 26  2  0
 29 30  1  0
 30 31  2  0
 32 35  1  0
 32 31  1  0
 33 32  2  0
 34 33  1  0
 34 29  2  0
 35 36  1  0
 36 37  1  0
 37 38  2  0
 39 38  1  0
 39 43  1  0
 40 39  2  0
 41 36  2  0
 41 40  1  0
 42 41  1  0
 44 45  1  0
 45 48  1  0
 45 47  1  0
 46 44  2  0
 49 50  1  0
 49 24  1  0
 51 49  1  0
 52 53  1  0
 54 65  2  0
 55 53  1  0
 55 60  1  0
 56 64  1  0
 56 66  1  0
 57 63  1  0
 57 59  1  0
 58 64  1  0
 59 58  1  0
 60 59  2  0
 61 62  1  0
 61 55  2  0
 62 57  2  0
 63 56  1  0
 64 54  1  0
 66 68  2  0
 67 66  1  0
 69 67  1  0
 70 79  2  0
 70 75  1  0
 71 67  1  0
 71 75  1  0
 72 71  1  0
 73 74  1  0
 73 72  1  0
 74 70  1  0
 75 76  2  0
 76 77  1  0
 78 77  2  0
 79 78  1  0
 80 54  1  0
 80 81  1  0
 80 90  1  0
 81 84  1  0
 82 86  1  0
 82 81  1  0
 83 82  2  0
 86 85  1  0
 88 86  1  0
 88 89  1  0
 88 87  1  0
 90 93  1  1
 90 91  1  0
 92 90  1  0
M  ISO  4  14 100  22 100  52 101  53 101
M  END
>  <TORSDO>  (71) 
F 18

>  <SCORE>  (71) 
-14.792

>  <name>  (71) 
71

>  <ligand_id>  (71) 
71

>  <original_smiles>  (71) 
[H]c1c([H])c([H])c2c(c1[H])C([H])([H])C([H])([H])C([H])([H])C2([H])N([H])C(=O)C1([H])N(C(=O)C([H])(N([H])C(=O)C([H])(N([H])C([H])([H])[H])C([H])([H])[H])C(C([H])([H])[H])(C([H])([H])[H])C([H])([H])[H])C([H])([H])c2c([H])c(OC([H])([H])C3([H])C([H])([H])N(C(=O)c4c([H])c([H])c(N([H])C(=O)N5C([H])([H])C([H])([H])C([H])([H])C([H])(n6nc(-c7c([H])c([H])c(Oc8c([H])c([H])c(F)c([H])c8F)c([H])c7[H])c(C(=O)N([H])[H])c6N([H])[H])C5([H])[H])c([H])c4[H])C([H])([H])C3([H])[H])c([H])c([H])c2C1([H])[H]

>  <smiles>  (71) 
[H]c1c([H])c([H])c2c(c1[H])C([H])([H])C([H])([H])C([H])([H])C2([H])N([H])C(=O)C1([H])N(C(=O)C([H])(N([H])C(=O)C([H])(N([H])C([H])([H])[H])C([H])([H])[H])C(C([H])([H])[H])(C([H])([H])[H])C([H])([H])[H])C([H])([H])c2c([H])c(OC([H])([H])C3([H])C([H])([H])N(C(=O)c4c([H])c([H])c(N([H])C(=O)N5C([H])([H])C([H])([H])C([H])([H])C([H])(n6nc(-c7c([H])c([H])c(Oc8c([H])c([H])c(F)c([H])c8F)c([H])c7[H])c(C(=O)N([H])[H])c6N([H])[H])C5([H])[H])c([H])c4[H])C([H])([H])C3([H])[H])c([H])c([H])c2C1([H])[H]

$$$$
72:0:0
     RDKit          3D

 94103  0  0  1  0  0  0  0  0999 V2000
  -29.8870  -21.1270   19.7540 C   0  0  0  0  0  0  0  0  0  0  0  0
  -28.0730  -23.3750   22.0880 C   0  0  0  0  0  2  0  0  0  0  0  0
  -28.3230  -21.9410   21.5810 C   0  0  0  0  0  2  0  0  0  0  0  0
  -29.2000  -23.5070   19.9870 C   0  0  0  0  0  2  0  0  0  0  0  0
  -28.1900  -24.2810   20.8560 C   0  0  0  0  0  3  0  0  0  0  0  0
  -29.1440  -22.0830   20.3780 N   0  0  0  0  0  0  0  0  0  0  0  0
  -30.6250  -21.4150   18.8070 O   0  0  0  0  0  0  0  0  0  0  0  0
  -28.7010  -18.8980   20.2720 C   0  0  0  0  0  3  0  0  0  0  0  0
  -28.7700  -17.5080   20.5410 C   0  0  0  0  0  3  0  0  0  0  0  0
  -31.1140  -19.0380   20.4780 C   0  0  0  0  0  3  0  0  0  0  0  0
  -29.8810  -19.6810   20.2170 C   0  0  0  0  0  0  0  0  0  0  0  0
  -30.0130  -16.8610   20.7520 C   0  0  0  0  0  0  0  0  0  0  0  0
  -31.1840  -17.6580   20.7720 C   0  0  0  0  0  0  0  0  0  0  0  0
  -32.3850  -17.1220   21.0870 F   0  0  0  0  0  0  0  0  0  0  0  0
  -30.6900  -14.5170   20.2320 C   0  0  0  0  0  0  0  0  0  0  0  0
  -30.3750  -12.3930   19.0100 C   0  0  0  0  0  2  0  0  0  0  0  0
  -29.3800  -12.6150   17.8510 C   0  0  0  0  0  2  0  0  0  0  0  0
  -27.9210  -12.4770   18.3320 C   0  0  0  0  0  2  0  0  0  0  0  0
  -27.6380  -13.2740   19.6340 C   0  0  0  0  0  3  0  0  0  0  0  0
  -28.7310  -12.9940   20.6880 C   0  0  0  0  0  2  0  0  0  0  0  0
  -30.0370  -13.3300   20.0930 N   0  0  0  0  0  0  0  0  0  0  0  0
  -31.7630  -14.7430   19.6660 O   0  0  0  0  0  0  0  0  0  0  0  0
  -30.0260  -15.4430   20.9610 N   0  0  0  0  0  0  0  0  0  0  0  0
  -29.2040  -15.0650   21.4040 H   0  0  0  0  0  0  0  0  0  0  0  0
  -25.2630  -13.8720   20.4380 C   0  0  0  0  0  0  0  0  0  0  0  0
  -24.2100  -13.0940   20.8370 C   0  0  0  0  0  0  0  0  0  0  0  0
  -24.6700  -11.7440   20.7680 C   0  0  0  0  0  0  0  0  0  0  0  0
  -26.2990  -12.9950   20.1550 N   0  0  0  0  0  0  0  0  0  0  0  0
  -25.9470  -11.7090   20.4090 N   0  0  0  0  0  0  0  0  0  0  0  0
  -23.9530  -10.4790   20.9630 C   0  0  0  0  0  0  0  0  0  0  0  0
  -24.3890   -9.5180   21.9000 C   0  0  0  0  0  3  0  0  0  0  0  0
  -23.6730   -8.3160   22.0810 C   0  0  0  0  0  3  0  0  0  0  0  0
  -22.5040   -8.0660   21.3250 C   0  0  0  0  0  0  0  0  0  0  0  0
  -22.0870   -9.0150   20.3740 C   0  0  0  0  0  3  0  0  0  0  0  0
  -22.8050  -10.2080   20.1910 C   0  0  0  0  0  3  0  0  0  0  0  0
  -21.7550   -6.9190   21.4190 O   0  0  0  0  0  0  0  0  0  0  0  0
  -21.6740   -6.2030   22.5850 C   0  0  0  0  0  0  0  0  0  0  0  0
  -21.1620   -6.7710   23.7730 C   0  0  0  0  0  3  0  0  0  0  0  0
  -21.0320   -5.9800   24.9320 C   0  0  0  0  0  3  0  0  0  0  0  0
  -21.4030   -4.6220   24.9050 C   0  0  0  0  0  0  0  0  0  0  0  0
  -21.9100   -4.0550   23.7230 C   0  0  0  0  0  3  0  0  0  0  0  0
  -22.0420   -4.8420   22.5660 C   0  0  0  0  0  0  0  0  0  0  0  0
  -22.5090   -4.2840   21.4240 F   0  0  0  0  0  0  0  0  0  0  0  0
  -21.2710   -3.8610   26.0160 F   0  0  0  0  0  0  0  0  0  0  0  0
  -22.8250  -13.5670   21.1690 C   0  0  0  0  0  0  0  0  0  0  0  0
  -22.1240  -12.8500   22.0400 N   0  0  0  0  0  0  0  0  0  0  0  0
  -22.3730  -14.6080   20.6920 O   0  0  0  0  0  0  0  0  0  0  0  0
  -22.5020  -12.0090   22.4500 H   0  0  0  0  0  0  0  0  0  0  0  0
  -21.1940  -13.1460   22.3020 H   0  0  0  0  0  0  0  0  0  0  0  0
  -25.4190  -15.2450   20.2750 N   0  0  0  0  0  0  0  0  0  0  0  0
  -24.6470  -15.8870   20.4150 H   0  0  0  0  0  0  0  0  0  0  0  0
  -26.2300  -15.6830   19.8590 H   0  0  0  0  0  0  0  0  0  0  0  0
  -28.5580  -25.7610   21.1900 C   0  0  0  0  0  2  0  0  0  0  0  0
  -28.4310  -26.6990   20.1050 O   0  0  0  0  0  0  0  0  0  0  0  0
  -24.6010  -31.8920   23.1700 C   0  0  0  0  0  0  0  0  0  0  0  0
  -27.2790  -27.4540   20.1150 C   0  0  0  0  0  0  0  0  0  0  0  0
  -23.4100  -30.4870   21.5150 C   0  0  0  0  0  3  0  0  0  0  0  0
  -24.8810  -28.9530   20.1000 C   0  0  0  0  0  0  0  0  0  0  0  0
  -25.9350  -30.8550   21.3350 C   0  0  0  0  0  2  0  0  0  0  0  0
  -26.0320  -29.4820   20.7000 C   0  0  0  0  0  0  0  0  0  0  0  0
  -27.2360  -28.7390   20.7070 C   0  0  0  0  0  3  0  0  0  0  0  0
  -26.1180  -26.9420   19.5040 C   0  0  0  0  0  3  0  0  0  0  0  0
  -24.9190  -27.6820   19.4990 C   0  0  0  0  0  3  0  0  0  0  0  0
  -23.6330  -29.8070   20.1370 C   0  0  0  0  0  2  0  0  0  0  0  0
  -24.6650  -31.0940   22.0640 N   0  0  0  0  0  0  0  0  0  0  0  0
  -23.5150  -32.1570   23.7050 O   0  0  0  0  0  0  0  0  0  0  0  0
  -22.7580  -29.4630   22.4740 C   0  0  0  0  0  0  0  0  0  0  0  0
  -21.4320  -29.2880   22.3560 N   0  0  0  0  0  0  0  0  0  0  0  0
  -23.4440  -28.8260   23.2790 O   0  0  0  0  0  0  0  0  0  0  0  0
  -20.9400  -29.8540   21.6790 H   0  0  0  0  0  0  0  0  0  0  0  0
  -18.0510  -28.1380   22.8980 C   0  0  0  0  0  0  0  0  0  0  0  0
  -20.6170  -28.3470   23.1230 C   0  0  0  0  0  3  0  0  0  0  0  0
  -20.6830  -26.9280   22.5130 C   0  0  0  0  0  2  0  0  0  0  0  0
  -19.5550  -26.6470   21.5140 C   0  0  0  0  0  2  0  0  0  0  0  0
  -18.1900  -26.8010   22.1900 C   0  0  0  0  0  2  0  0  0  0  0  0
  -19.1910  -28.8710   23.3220 C   0  0  0  0  0  0  0  0  0  0  0  0
  -19.0070  -30.1250   23.9460 C   0  0  0  0  0  3  0  0  0  0  0  0
  -17.7160  -30.6450   24.1490 C   0  0  0  0  0  3  0  0  0  0  0  0
  -16.5900  -29.9090   23.7420 C   0  0  0  0  0  3  0  0  0  0  0  0
  -16.7580  -28.6570   23.1220 C   0  0  0  0  0  3  0  0  0  0  0  0
  -25.8800  -32.5300   23.7960 C   0  0  0  0  0  3  0  0  0  0  0  0
  -25.5590  -33.9210   24.1390 N   0  0  0  0  0  0  0  0  0  0  0  0
  -25.8900  -34.9830   23.3900 C   0  0  0  0  0  0  0  0  0  0  0  0
  -26.5680  -34.8950   22.3630 O   0  0  0  0  0  0  0  0  0  0  0  0
  -24.9620  -34.0650   24.9390 H   0  0  0  0  0  0  0  0  0  0  0  0
  -24.1630  -36.7730   23.0270 C   0  0  0  0  0  1  0  0  0  0  0  0
  -25.3890  -36.3630   23.8580 C   0  0  0  0  0  3  0  0  0  0  0  0
  -27.4980  -37.2480   24.7500 C   0  0  0  0  0  1  0  0  0  0  0  0
  -26.4190  -37.4210   23.7800 N   0  0  0  0  0  0  0  0  0  0  0  0
  -26.0050  -38.3380   23.9240 H   0  0  0  0  0  0  0  0  0  0  0  0
  -26.4050  -31.7510   25.0650 C   0  0  1  0  0  0  0  0  0  0  0  0
  -25.3170  -31.4880   26.1300 C   0  0  0  0  0  1  0  0  0  0  0  0
  -27.0070  -30.3860   24.6560 C   0  0  0  0  0  1  0  0  0  0  0  0
  -27.5440  -32.5530   25.7400 C   0  0  0  0  0  1  0  0  0  0  0  0
  1 11  1  0
  1  6  1  0
  3  2  1  0
  4  6  1  0
  4  5  1  0
  5 53  1  0
  5  2  1  0
  6  3  1  0
  7  1  2  0
  8  9  1  0
  9 12  2  0
 10 13  2  0
 11  8  2  0
 11 10  1  0
 12 13  1  0
 12 23  1  0
 13 14  1  0
 15 23  1  0
 16 21  1  0
 17 18  1  0
 17 16  1  0
 19 18  1  0
 19 28  1  0
 19 20  1  0
 21 15  1  0
 21 20  1  0
 22 15  2  0
 23 24  1  0
 25 26  2  0
 26 45  1  0
 27 26  1  0
 27 30  1  0
 28 29  1  0
 28 25  1  0
 29 27  2  0
 30 31  1  0
 31 32  2  0
 33 36  1  0
 33 32  1  0
 34 33  2  0
 35 34  1  0
 35 30  2  0
 36 37  1  0
 37 38  1  0
 38 39  2  0
 40 39  1  0
 40 44  1  0
 41 40  2  0
 42 37  2  0
 42 41  1  0
 43 42  1  0
 45 46  1  0
 46 49  1  0
 46 48  1  0
 47 45  2  0
 50 51  1  0
 50 25  1  0
 52 50  1  0
 54 56  1  0
 54 53  1  0
 55 66  2  0
 56 61  1  0
 57 65  1  0
 57 67  1  0
 58 64  1  0
 58 60  1  0
 59 65  1  0
 60 61  2  0
 60 59  1  0
 62 56  2  0
 63 62  1  0
 63 58  2  0
 64 57  1  0
 65 55  1  0
 67 69  2  0
 68 67  1  0
 70 68  1  0
 71 80  2  0
 71 76  1  0
 72 68  1  0
 72 76  1  0
 73 72  1  0
 74 75  1  0
 74 73  1  0
 75 71  1  0
 76 77  2  0
 77 78  1  0
 79 78  2  0
 80 79  1  0
 81 55  1  0
 81 82  1  0
 81 91  1  0
 82 85  1  0
 83 87  1  0
 83 82  1  0
 84 83  2  0
 87 86  1  0
 89 87  1  0
 89 90  1  0
 89 88  1  0
 91 94  1  1
 91 92  1  0
 93 91  1  0
M  ISO  4  15 100  23 100  53 101  54 101
M  END
>  <TORSDO>  (72) 
F 18

>  <SCORE>  (72) 
-14.940

>  <name>  (72) 
72

>  <ligand_id>  (72) 
72

>  <original_smiles>  (72) 
[H]c1c([H])c([H])c2c(c1[H])C([H])([H])C([H])([H])C([H])([H])C2([H])N([H])C(=O)C1([H])N(C(=O)C([H])(N([H])C(=O)C([H])(N([H])C([H])([H])[H])C([H])([H])[H])C(C([H])([H])[H])(C([H])([H])[H])C([H])([H])[H])C([H])([H])c2c([H])c(OC([H])([H])C3([H])C([H])([H])N(C(=O)c4c([H])c([H])c(N([H])C(=O)N5C([H])([H])C([H])([H])C([H])([H])C([H])(n6nc(-c7c([H])c([H])c(Oc8c([H])c([H])c(F)c([H])c8F)c([H])c7[H])c(C(=O)N([H])[H])c6N([H])[H])C5([H])[H])c(F)c4[H])C([H])([H])C3([H])[H])c([H])c([H])c2C1([H])[H]

>  <smiles>  (72) 
[H]c1c([H])c([H])c2c(c1[H])C([H])([H])C([H])([H])C([H])([H])C2([H])N([H])C(=O)C1([H])N(C(=O)C([H])(N([H])C(=O)C([H])(N([H])C([H])([H])[H])C([H])([H])[H])C(C([H])([H])[H])(C([H])([H])[H])C([H])([H])[H])C([H])([H])c2c([H])c(OC([H])([H])C3([H])C([H])([H])N(C(=O)c4c([H])c([H])c(N([H])C(=O)N5C([H])([H])C([H])([H])C([H])([H])C([H])(n6nc(-c7c([H])c([H])c(Oc8c([H])c([H])c(F)c([H])c8F)c([H])c7[H])c(C(=O)N([H])[H])c6N([H])[H])C5([H])[H])c(F)c4[H])C([H])([H])C3([H])[H])c([H])c([H])c2C1([H])[H]

$$$$
73:0:0
     RDKit          3D

 88 96  0  0  1  0  0  0  0  0999 V2000
  -28.9060  -23.2610   20.3130 C   0  0  0  0  0  0  0  0  0  0  0  0
  -30.0850  -23.5210   20.5770 O   0  0  0  0  0  0  0  0  0  0  0  0
  -28.4730  -21.6320   20.2080 C   0  0  0  0  0  2  0  0  0  0  0  0
  -30.9600  -18.6110   20.2030 C   0  0  0  0  0  3  0  0  0  0  0  0
  -30.6490  -19.9740   20.1620 C   0  0  0  0  0  3  0  0  0  0  0  0
  -28.7780  -18.8440   20.3940 C   0  0  0  0  0  3  0  0  0  0  0  0
  -29.7740  -17.8210   20.3490 C   0  0  0  0  0  0  0  0  0  0  0  0
  -29.2720  -20.2200   20.2760 N   0  0  0  0  0  0  0  0  0  0  0  0
  -30.4730  -15.1010   20.2800 C   0  0  0  0  0  0  0  0  0  0  0  0
  -30.4060  -12.7230   19.3490 C   0  0  0  0  0  2  0  0  0  0  0  0
  -29.4630  -12.6380   18.1250 C   0  0  0  0  0  2  0  0  0  0  0  0
  -28.0060  -12.4020   18.5690 C   0  0  0  0  0  2  0  0  0  0  0  0
  -27.5930  -13.3270   19.7440 C   0  0  0  0  0  3  0  0  0  0  0  0
  -28.6570  -13.3660   20.8610 C   0  0  0  0  0  2  0  0  0  0  0  0
  -29.9110  -13.8160   20.2400 N   0  0  0  0  0  0  0  0  0  0  0  0
  -31.6760  -15.1750   19.9980 O   0  0  0  0  0  0  0  0  0  0  0  0
  -29.6420  -16.2680   20.4380 N   0  0  0  0  0  0  0  0  0  0  0  0
  -28.6950  -15.9770   20.6210 H   0  0  0  0  0  0  0  0  0  0  0  0
  -25.2160  -13.8830   20.5070 C   0  0  0  0  0  0  0  0  0  0  0  0
  -24.1610  -13.0980   20.8820 C   0  0  0  0  0  0  0  0  0  0  0  0
  -24.6340  -11.7500   20.8390 C   0  0  0  0  0  0  0  0  0  0  0  0
  -26.2630  -13.0130   20.2530 N   0  0  0  0  0  0  0  0  0  0  0  0
  -25.9230  -11.7250   20.5200 N   0  0  0  0  0  0  0  0  0  0  0  0
  -23.9160  -10.4830   21.0260 C   0  0  0  0  0  0  0  0  0  0  0  0
  -24.3460   -9.5210   21.9670 C   0  0  0  0  0  3  0  0  0  0  0  0
  -23.6260   -8.3190   22.1420 C   0  0  0  0  0  3  0  0  0  0  0  0
  -22.4620   -8.0710   21.3770 C   0  0  0  0  0  0  0  0  0  0  0  0
  -22.0510   -9.0220   20.4260 C   0  0  0  0  0  3  0  0  0  0  0  0
  -22.7720  -10.2140   20.2490 C   0  0  0  0  0  3  0  0  0  0  0  0
  -21.7140   -6.9220   21.4620 O   0  0  0  0  0  0  0  0  0  0  0  0
  -21.6450   -6.1910   22.6210 C   0  0  0  0  0  0  0  0  0  0  0  0
  -21.1700   -6.7500   23.8270 C   0  0  0  0  0  3  0  0  0  0  0  0
  -21.0510   -5.9450   24.9780 C   0  0  0  0  0  3  0  0  0  0  0  0
  -21.3970   -4.5820   24.9220 C   0  0  0  0  0  0  0  0  0  0  0  0
  -21.8650   -4.0220   23.7200 C   0  0  0  0  0  3  0  0  0  0  0  0
  -21.9860   -4.8250   22.5720 C   0  0  0  0  0  0  0  0  0  0  0  0
  -22.4170   -4.2750   21.4120 F   0  0  0  0  0  0  0  0  0  0  0  0
  -21.2750   -3.8060   26.0250 F   0  0  0  0  0  0  0  0  0  0  0  0
  -22.7620  -13.5650   21.1620 C   0  0  0  0  0  0  0  0  0  0  0  0
  -22.0450  -12.8640   22.0310 N   0  0  0  0  0  0  0  0  0  0  0  0
  -22.3160  -14.5890   20.6450 O   0  0  0  0  0  0  0  0  0  0  0  0
  -22.4190  -12.0360   22.4710 H   0  0  0  0  0  0  0  0  0  0  0  0
  -21.1060  -13.1580   22.2620 H   0  0  0  0  0  0  0  0  0  0  0  0
  -25.3670  -15.2560   20.3330 N   0  0  0  0  0  0  0  0  0  0  0  0
  -24.5870  -15.8950   20.4430 H   0  0  0  0  0  0  0  0  0  0  0  0
  -26.1890  -15.6990   19.9450 H   0  0  0  0  0  0  0  0  0  0  0  0
  -27.8590  -24.5650   20.0860 C   0  0  0  0  0  2  0  0  0  0  0  0
  -28.2040  -26.1030   20.2750 O   0  0  0  0  0  0  0  0  0  0  0  0
  -24.6260  -31.8950   23.2580 C   0  0  0  0  0  0  0  0  0  0  0  0
  -27.1750  -27.1350   20.2110 C   0  0  0  0  0  0  0  0  0  0  0  0
  -23.4200  -30.5100   21.6170 C   0  0  0  0  0  3  0  0  0  0  0  0
  -24.8610  -28.9280   20.1850 C   0  0  0  0  0  0  0  0  0  0  0  0
  -25.9790  -30.7520   21.4540 C   0  0  0  0  0  2  0  0  0  0  0  0
  -26.0460  -29.3570   20.7950 C   0  0  0  0  0  0  0  0  0  0  0  0
  -27.2030  -28.4780   20.7890 C   0  0  0  0  0  3  0  0  0  0  0  0
  -25.9610  -26.8260   19.5580 C   0  0  0  0  0  3  0  0  0  0  0  0
  -24.8340  -27.6790   19.5480 C   0  0  0  0  0  3  0  0  0  0  0  0
  -23.6390  -29.8350   20.2360 C   0  0  0  0  0  2  0  0  0  0  0  0
  -24.6960  -31.0750   22.1640 N   0  0  0  0  0  0  0  0  0  0  0  0
  -23.5400  -32.1830   23.7860 O   0  0  0  0  0  0  0  0  0  0  0  0
  -22.7340  -29.5050   22.5770 C   0  0  0  0  0  0  0  0  0  0  0  0
  -21.4060  -29.3380   22.4500 N   0  0  0  0  0  0  0  0  0  0  0  0
  -23.4030  -28.8770   23.4030 O   0  0  0  0  0  0  0  0  0  0  0  0
  -20.9220  -29.8960   21.7610 H   0  0  0  0  0  0  0  0  0  0  0  0
  -18.0220  -28.1370   22.9480 C   0  0  0  0  0  0  0  0  0  0  0  0
  -20.5810  -28.4010   23.2200 C   0  0  0  0  0  3  0  0  0  0  0  0
  -20.6830  -26.9690   22.6470 C   0  0  0  0  0  2  0  0  0  0  0  0
  -19.5850  -26.6450   21.6310 C   0  0  0  0  0  2  0  0  0  0  0  0
  -18.2010  -26.7890   22.2710 C   0  0  0  0  0  2  0  0  0  0  0  0
  -19.1390  -28.9010   23.3800 C   0  0  0  0  0  0  0  0  0  0  0  0
  -18.9160  -30.1620   23.9750 C   0  0  0  0  0  3  0  0  0  0  0  0
  -17.6100  -30.6600   24.1410 C   0  0  0  0  0  3  0  0  0  0  0  0
  -16.5080  -29.8930   23.7250 C   0  0  0  0  0  3  0  0  0  0  0  0
  -16.7150  -28.6340   23.1340 C   0  0  0  0  0  3  0  0  0  0  0  0
  -25.9040  -32.5270   23.8860 C   0  0  0  0  0  3  0  0  0  0  0  0
  -26.4100  -31.7560   25.1680 C   0  0  1  0  0  0  0  0  0  0  0  0
  -25.3110  -31.5270   26.2320 C   0  0  0  0  0  1  0  0  0  0  0  0
  -26.9880  -30.3730   24.7880 C   0  0  0  0  0  1  0  0  0  0  0  0
  -27.5620  -32.5460   25.8330 C   0  0  0  0  0  1  0  0  0  0  0  0
  -25.5960  -33.9270   24.2210 N   0  0  0  0  0  0  0  0  0  0  0  0
  -25.9080  -34.9830   23.4580 C   0  0  0  0  0  0  0  0  0  0  0  0
  -26.5490  -34.8810   22.4100 O   0  0  0  0  0  0  0  0  0  0  0  0
  -25.0230  -34.0800   25.0380 H   0  0  0  0  0  0  0  0  0  0  0  0
  -24.1560  -36.7690   23.1760 C   0  0  0  0  0  1  0  0  0  0  0  0
  -25.4340  -36.3720   23.9320 C   0  0  0  0  0  3  0  0  0  0  0  0
  -27.5950  -37.2780   24.6680 C   0  0  0  0  0  1  0  0  0  0  0  0
  -26.4560  -37.4300   23.7680 N   0  0  0  0  0  0  0  0  0  0  0  0
  -26.0500  -38.3500   23.9230 H   0  0  0  0  0  0  0  0  0  0  0  0
  1  2  2  0
  3  8  1  0
  3  1  1  0
  4  7  1  0
  5  4  2  0
  5  8  1  0
  7  6  2  0
  7 17  1  0
  8  6  1  0
  9 17  1  0
 10 15  1  0
 11 12  1  0
 11 10  1  0
 13 12  1  0
 13 22  1  0
 13 14  1  0
 15  9  1  0
 15 14  1  0
 16  9  2  0
 17 18  1  0
 19 20  2  0
 20 39  1  0
 21 20  1  0
 21 24  1  0
 22 19  1  0
 22 23  1  0
 23 21  2  0
 24 25  1  0
 25 26  2  0
 27 30  1  0
 27 26  1  0
 28 27  2  0
 29 28  1  0
 29 24  2  0
 30 31  1  0
 31 32  1  0
 32 33  2  0
 34 33  1  0
 34 38  1  0
 35 34  2  0
 36 31  2  0
 36 35  1  0
 37 36  1  0
 39 40  1  0
 40 43  1  0
 40 42  1  0
 41 39  2  0
 44 45  1  0
 44 19  1  0
 46 44  1  0
 47 48  1  0
 47  1  1  0
 49 60  2  0
 50 48  1  0
 50 55  1  0
 51 59  1  0
 51 61  1  0
 52 58  1  0
 52 54  1  0
 53 59  1  0
 54 53  1  0
 55 54  2  0
 56 50  2  0
 57 56  1  0
 57 52  2  0
 58 51  1  0
 59 49  1  0
 61 63  2  0
 62 61  1  0
 64 62  1  0
 65 74  2  0
 65 70  1  0
 66 62  1  0
 66 70  1  0
 67 66  1  0
 68 69  1  0
 68 67  1  0
 69 65  1  0
 70 71  2  0
 71 72  1  0
 73 72  2  0
 74 73  1  0
 75 49  1  0
 75 80  1  0
 75 76  1  0
 76 79  1  1
 76 77  1  0
 78 76  1  0
 80 83  1  0
 81 85  1  0
 81 80  1  0
 82 81  2  0
 85 84  1  0
 87 88  1  0
 87 85  1  0
 87 86  1  0
M  ISO  4   9 100  17 100  47 101  48 101
M  END
>  <TORSDO>  (73) 
F 19

>  <SCORE>  (73) 
-14.199

>  <name>  (73) 
73

>  <ligand_id>  (73) 
73

>  <original_smiles>  (73) 
[H]c1c([H])c([H])c2c(c1[H])C([H])([H])C([H])([H])C([H])([H])C2([H])N([H])C(=O)C1([H])N(C(=O)C([H])(N([H])C(=O)C([H])(N([H])C([H])([H])[H])C([H])([H])[H])C(C([H])([H])[H])(C([H])([H])[H])C([H])([H])[H])C([H])([H])c2c([H])c(OC([H])([H])C(=O)C([H])([H])n3c([H])c([H])c(N([H])C(=O)N4C([H])([H])C([H])([H])C([H])([H])C([H])(n5nc(-c6c([H])c([H])c(Oc7c([H])c([H])c(F)c([H])c7F)c([H])c6[H])c(C(=O)N([H])[H])c5N([H])[H])C4([H])[H])c3[H])c([H])c([H])c2C1([H])[H]

>  <smiles>  (73) 
[H]c1c([H])c([H])c2c(c1[H])C([H])([H])C([H])([H])C([H])([H])C2([H])N([H])C(=O)C1([H])N(C(=O)C([H])(N([H])C(=O)C([H])(N([H])C([H])([H])[H])C([H])([H])[H])C(C([H])([H])[H])(C([H])([H])[H])C([H])([H])[H])C([H])([H])c2c([H])c(OC([H])([H])C(=O)C([H])([H])n3c([H])c([H])c(N([H])C(=O)N4C([H])([H])C([H])([H])C([H])([H])C([H])(n5nc(-c6c([H])c([H])c(Oc7c([H])c([H])c(F)c([H])c7F)c([H])c6[H])c(C(=O)N([H])[H])c5N([H])[H])C4([H])[H])c3[H])c([H])c([H])c2C1([H])[H]

$$$$
74:0:0
     RDKit          3D

 90 98  0  0  1  0  0  0  0  0999 V2000
  -29.5300  -18.5010   20.7130 C   0  0  0  0  0  3  0  0  0  0  0  0
  -30.7970  -17.4670   18.9190 C   0  0  0  0  0  3  0  0  0  0  0  0
  -30.4380  -19.8950   18.9380 C   0  0  0  0  0  3  0  0  0  0  0  0
  -30.0790  -17.2850   20.1250 C   0  0  0  0  0  0  0  0  0  0  0  0
  -29.6920  -19.8340   20.1380 C   0  0  0  0  0  0  0  0  0  0  0  0
  -30.9760  -18.7390   18.3420 C   0  0  0  0  0  0  0  0  0  0  0  0
  -31.6800  -18.8530   17.1910 F   0  0  0  0  0  0  0  0  0  0  0  0
  -30.6080  -14.7480   20.3730 C   0  0  0  0  0  0  0  0  0  0  0  0
  -30.3670  -12.4840   19.3690 C   0  0  0  0  0  2  0  0  0  0  0  0
  -29.4340  -12.5850   18.1420 C   0  0  0  0  0  2  0  0  0  0  0  0
  -27.9620  -12.4260   18.5700 C   0  0  0  0  0  2  0  0  0  0  0  0
  -27.5980  -13.3070   19.7950 C   0  0  0  0  0  3  0  0  0  0  0  0
  -28.6570  -13.2020   20.9170 C   0  0  0  0  0  2  0  0  0  0  0  0
  -29.9590  -13.5350   20.3290 N   0  0  0  0  0  0  0  0  0  0  0  0
  -31.7920  -14.8170   20.0300 O   0  0  0  0  0  0  0  0  0  0  0  0
  -29.8790  -15.9010   20.6390 N   0  0  0  0  0  0  0  0  0  0  0  0
  -28.9990  -15.7400   21.1070 H   0  0  0  0  0  0  0  0  0  0  0  0
  -25.2110  -13.9050   20.5160 C   0  0  0  0  0  0  0  0  0  0  0  0
  -24.1420  -13.1340   20.8830 C   0  0  0  0  0  0  0  0  0  0  0  0
  -24.6000  -11.7820   20.8530 C   0  0  0  0  0  0  0  0  0  0  0  0
  -26.2520  -13.0220   20.2820 N   0  0  0  0  0  0  0  0  0  0  0  0
  -25.8930  -11.7390   20.5470 N   0  0  0  0  0  0  0  0  0  0  0  0
  -23.8690  -10.5210   21.0410 C   0  0  0  0  0  0  0  0  0  0  0  0
  -24.2960   -9.5520   21.9740 C   0  0  0  0  0  3  0  0  0  0  0  0
  -23.5630   -8.3570   22.1500 C   0  0  0  0  0  3  0  0  0  0  0  0
  -22.3920   -8.1240   21.3920 C   0  0  0  0  0  0  0  0  0  0  0  0
  -21.9850   -9.0830   20.4480 C   0  0  0  0  0  3  0  0  0  0  0  0
  -22.7170  -10.2680   20.2700 C   0  0  0  0  0  3  0  0  0  0  0  0
  -21.6320   -6.9820   21.4780 O   0  0  0  0  0  0  0  0  0  0  0  0
  -21.5730   -6.2410   22.6300 C   0  0  0  0  0  0  0  0  0  0  0  0
  -21.1370   -6.7980   23.8530 C   0  0  0  0  0  3  0  0  0  0  0  0
  -21.0260   -5.9840   24.9980 C   0  0  0  0  0  3  0  0  0  0  0  0
  -21.3400   -4.6130   24.9210 C   0  0  0  0  0  0  0  0  0  0  0  0
  -21.7680   -4.0550   23.7040 C   0  0  0  0  0  3  0  0  0  0  0  0
  -21.8810   -4.8670   22.5610 C   0  0  0  0  0  0  0  0  0  0  0  0
  -22.2740   -4.3190   21.3860 F   0  0  0  0  0  0  0  0  0  0  0  0
  -21.2250   -3.8300   26.0190 F   0  0  0  0  0  0  0  0  0  0  0  0
  -22.7460  -13.6160   21.1520 C   0  0  0  0  0  0  0  0  0  0  0  0
  -22.0110  -12.9170   22.0100 N   0  0  0  0  0  0  0  0  0  0  0  0
  -22.3160  -14.6470   20.6380 O   0  0  0  0  0  0  0  0  0  0  0  0
  -22.3710  -12.0820   22.4480 H   0  0  0  0  0  0  0  0  0  0  0  0
  -21.0740  -13.2230   22.2340 H   0  0  0  0  0  0  0  0  0  0  0  0
  -25.3810  -15.2750   20.3380 N   0  0  0  0  0  0  0  0  0  0  0  0
  -24.6140  -15.9310   20.4440 H   0  0  0  0  0  0  0  0  0  0  0  0
  -26.2280  -15.7100   19.9950 H   0  0  0  0  0  0  0  0  0  0  0  0
  -29.2120  -21.0330   20.7490 O   0  0  0  0  0  0  0  0  0  0  0  0
  -28.8210  -22.2620   19.9860 C   0  0  0  0  0  3  0  0  0  0  0  0
  -28.9590  -23.7440   20.6230 C   0  0  0  0  0  3  0  0  0  0  0  0
  -28.1130  -24.9530   19.9640 C   0  0  0  0  0  2  0  0  0  0  0  0
  -28.2910  -26.4040   20.3190 O   0  0  0  0  0  0  0  0  0  0  0  0
  -24.5950  -31.9190   23.2400 C   0  0  0  0  0  0  0  0  0  0  0  0
  -27.1970  -27.2990   20.2200 C   0  0  0  0  0  0  0  0  0  0  0  0
  -23.3940  -30.5160   21.6040 C   0  0  0  0  0  3  0  0  0  0  0  0
  -24.8450  -28.9550   20.1860 C   0  0  0  0  0  0  0  0  0  0  0  0
  -25.9390  -30.8120   21.4380 C   0  0  0  0  0  2  0  0  0  0  0  0
  -26.0140  -29.4280   20.7930 C   0  0  0  0  0  0  0  0  0  0  0  0
  -27.1900  -28.6100   20.8050 C   0  0  0  0  0  3  0  0  0  0  0  0
  -26.0080  -26.9070   19.5590 C   0  0  0  0  0  3  0  0  0  0  0  0
  -24.8470  -27.7020   19.5570 C   0  0  0  0  0  3  0  0  0  0  0  0
  -23.6130  -29.8370   20.2270 C   0  0  0  0  0  2  0  0  0  0  0  0
  -24.6610  -31.1010   22.1490 N   0  0  0  0  0  0  0  0  0  0  0  0
  -23.5110  -32.2040   23.7700 O   0  0  0  0  0  0  0  0  0  0  0  0
  -22.7230  -29.5040   22.5650 C   0  0  0  0  0  0  0  0  0  0  0  0
  -21.3970  -29.3340   22.4370 N   0  0  0  0  0  0  0  0  0  0  0  0
  -23.3970  -28.8770   23.3860 O   0  0  0  0  0  0  0  0  0  0  0  0
  -20.9120  -29.8910   21.7460 H   0  0  0  0  0  0  0  0  0  0  0  0
  -18.0080  -28.1740   22.9550 C   0  0  0  0  0  0  0  0  0  0  0  0
  -20.5700  -28.4050   23.2110 C   0  0  0  0  0  3  0  0  0  0  0  0
  -20.6540  -26.9720   22.6350 C   0  0  0  0  0  2  0  0  0  0  0  0
  -19.5430  -26.6640   21.6260 C   0  0  0  0  0  2  0  0  0  0  0  0
  -18.1660  -26.8230   22.2760 C   0  0  0  0  0  2  0  0  0  0  0  0
  -19.1370  -28.9230   23.3790 C   0  0  0  0  0  0  0  0  0  0  0  0
  -18.9350  -30.1870   23.9740 C   0  0  0  0  0  3  0  0  0  0  0  0
  -17.6360  -30.7020   24.1470 C   0  0  0  0  0  3  0  0  0  0  0  0
  -16.5220  -29.9490   23.7400 C   0  0  0  0  0  3  0  0  0  0  0  0
  -16.7080  -28.6870   23.1500 C   0  0  0  0  0  3  0  0  0  0  0  0
  -25.8770  -32.5520   23.8630 C   0  0  0  0  0  3  0  0  0  0  0  0
  -26.3880  -31.7860   25.1440 C   0  0  1  0  0  0  0  0  0  0  0  0
  -25.2890  -31.5540   26.2090 C   0  0  0  0  0  1  0  0  0  0  0  0
  -26.9710  -30.4050   24.7640 C   0  0  0  0  0  1  0  0  0  0  0  0
  -27.5380  -32.5810   25.8060 C   0  0  0  0  0  1  0  0  0  0  0  0
  -25.5690  -33.9510   24.1870 N   0  0  0  0  0  0  0  0  0  0  0  0
  -25.8990  -35.0010   23.4230 C   0  0  0  0  0  0  0  0  0  0  0  0
  -26.5640  -34.8930   22.3900 O   0  0  0  0  0  0  0  0  0  0  0  0
  -24.9770  -34.1080   24.9900 H   0  0  0  0  0  0  0  0  0  0  0  0
  -24.1740  -36.7980   23.0660 C   0  0  0  0  0  1  0  0  0  0  0  0
  -25.4150  -36.3920   23.8770 C   0  0  0  0  0  3  0  0  0  0  0  0
  -27.5510  -37.2770   24.7070 C   0  0  0  0  0  1  0  0  0  0  0  0
  -26.4510  -37.4430   23.7610 N   0  0  0  0  0  0  0  0  0  0  0  0
  -26.0470  -38.3640   23.9050 H   0  0  0  0  0  0  0  0  0  0  0  0
  2  4  1  0
  3  5  2  0
  4 16  1  0
  4  1  2  0
  5  1  1  0
  5 46  1  0
  6  2  2  0
  6  3  1  0
  7  6  1  0
  8 16  1  0
  9 14  1  0
 10 11  1  0
 10  9  1  0
 12 11  1  0
 12 21  1  0
 12 13  1  0
 14  8  1  0
 14 13  1  0
 15  8  2  0
 16 17  1  0
 18 19  2  0
 19 38  1  0
 20 19  1  0
 20 23  1  0
 21 18  1  0
 21 22  1  0
 22 20  2  0
 23 24  1  0
 24 25  2  0
 26 29  1  0
 26 25  1  0
 27 26  2  0
 28 27  1  0
 28 23  2  0
 29 30  1  0
 30 31  1  0
 31 32  2  0
 33 32  1  0
 33 37  1  0
 34 33  2  0
 35 30  2  0
 35 34  1  0
 36 35  1  0
 38 39  1  0
 39 42  1  0
 39 41  1  0
 40 38  2  0
 43 44  1  0
 43 18  1  0
 45 43  1  0
 47 48  2  0
 47 46  1  0
 49 50  1  0
 49 48  1  0
 51 62  2  0
 52 50  1  0
 52 57  1  0
 53 61  1  0
 53 63  1  0
 54 60  1  0
 54 56  1  0
 55 61  1  0
 56 57  2  0
 56 55  1  0
 58 52  2  0
 59 58  1  0
 59 54  2  0
 60 53  1  0
 61 51  1  0
 63 65  2  0
 64 63  1  0
 66 64  1  0
 67 76  2  0
 67 72  1  0
 68 64  1  0
 68 72  1  0
 69 68  1  0
 70 71  1  0
 70 69  1  0
 71 67  1  0
 72 73  2  0
 73 74  1  0
 75 74  2  0
 76 75  1  0
 77 51  1  0
 77 82  1  0
 77 78  1  0
 78 81  1  1
 78 79  1  0
 80 78  1  0
 82 85  1  0
 83 87  1  0
 83 82  1  0
 84 83  2  0
 87 86  1  0
 89 87  1  0
 89 90  1  0
 89 88  1  0
M  ISO  4   8 100  16 100  49 101  50 101
M  END
>  <TORSDO>  (74) 
F 20

>  <SCORE>  (74) 
-13.828

>  <name>  (74) 
74

>  <ligand_id>  (74) 
74

>  <original_smiles>  (74) 
[H]c1c([H])c([H])c2c(c1[H])C([H])([H])C([H])([H])C([H])([H])C2([H])N([H])C(=O)C1([H])N(C(=O)C([H])(N([H])C(=O)C([H])(N([H])C([H])([H])[H])C([H])([H])[H])C(C([H])([H])[H])(C([H])([H])[H])C([H])([H])[H])C([H])([H])c2c([H])c(OC([H])([H])C([H])([H])C([H])([H])Oc3c([H])c(F)c([H])c(N([H])C(=O)N4C([H])([H])C([H])([H])C([H])([H])C([H])(n5nc(-c6c([H])c([H])c(Oc7c([H])c([H])c(F)c([H])c7F)c([H])c6[H])c(C(=O)N([H])[H])c5N([H])[H])C4([H])[H])c3[H])c([H])c([H])c2C1([H])[H]

>  <smiles>  (74) 
[H]c1c([H])c([H])c2c(c1[H])C([H])([H])C([H])([H])C([H])([H])C2([H])N([H])C(=O)C1([H])N(C(=O)C([H])(N([H])C(=O)C([H])(N([H])C([H])([H])[H])C([H])([H])[H])C(C([H])([H])[H])(C([H])([H])[H])C([H])([H])[H])C([H])([H])c2c([H])c(OC([H])([H])C([H])([H])C([H])([H])Oc3c([H])c(F)c([H])c(N([H])C(=O)N4C([H])([H])C([H])([H])C([H])([H])C([H])(n5nc(-c6c([H])c([H])c(Oc7c([H])c([H])c(F)c([H])c7F)c([H])c6[H])c(C(=O)N([H])[H])c5N([H])[H])C4([H])[H])c3[H])c([H])c([H])c2C1([H])[H]

$$$$
75:0:0
     RDKit          3D

 98107  0  0  1  0  0  0  0  0999 V2000
  -31.7360  -17.7370   20.5870 C   0  0  0  0  0  3  0  0  0  0  0  0
  -29.8910  -19.9640   20.5090 C   0  0  0  0  0  0  0  0  0  0  0  0
  -32.1950  -19.0670   20.5510 C   0  0  0  0  0  0  0  0  0  0  0  0
  -30.3550  -17.4160   20.5670 C   0  0  0  0  0  0  0  0  0  0  0  0
  -31.3000  -20.1590   20.5100 C   0  0  0  0  0  0  0  0  0  0  0  0
  -29.4490  -18.5630   20.5440 C   0  0  0  0  0  0  0  0  0  0  0  0
  -28.1170  -18.3060   20.5690 F   0  0  0  0  0  0  0  0  0  0  0  0
  -30.6050  -14.7980   20.3690 C   0  0  0  0  0  0  0  0  0  0  0  0
  -30.3360  -12.5320   19.3500 C   0  0  0  0  0  2  0  0  0  0  0  0
  -29.4140  -12.6120   18.1160 C   0  0  0  0  0  2  0  0  0  0  0  0
  -27.9430  -12.4500   18.5370 C   0  0  0  0  0  2  0  0  0  0  0  0
  -27.5670  -13.3450   19.7480 C   0  0  0  0  0  3  0  0  0  0  0  0
  -28.6170  -13.2760   20.8780 C   0  0  0  0  0  2  0  0  0  0  0  0
  -29.9200  -13.6030   20.2880 N   0  0  0  0  0  0  0  0  0  0  0  0
  -31.7920  -14.8120   20.0380 O   0  0  0  0  0  0  0  0  0  0  0  0
  -29.9090  -15.9820   20.6040 N   0  0  0  0  0  0  0  0  0  0  0  0
  -28.9210  -15.8560   20.7640 H   0  0  0  0  0  0  0  0  0  0  0  0
  -25.1720  -13.9400   20.4460 C   0  0  0  0  0  0  0  0  0  0  0  0
  -24.1040  -13.1700   20.8140 C   0  0  0  0  0  0  0  0  0  0  0  0
  -24.5680  -11.8190   20.8050 C   0  0  0  0  0  0  0  0  0  0  0  0
  -26.2190  -13.0600   20.2310 N   0  0  0  0  0  0  0  0  0  0  0  0
  -25.8640  -11.7790   20.5120 N   0  0  0  0  0  0  0  0  0  0  0  0
  -23.8390  -10.5590   21.0020 C   0  0  0  0  0  0  0  0  0  0  0  0
  -24.2660   -9.5960   21.9440 C   0  0  0  0  0  3  0  0  0  0  0  0
  -23.5360   -8.4020   22.1290 C   0  0  0  0  0  3  0  0  0  0  0  0
  -22.3670   -8.1610   21.3700 C   0  0  0  0  0  0  0  0  0  0  0  0
  -21.9580   -9.1120   20.4170 C   0  0  0  0  0  3  0  0  0  0  0  0
  -22.6890  -10.2980   20.2330 C   0  0  0  0  0  3  0  0  0  0  0  0
  -21.6090   -7.0180   21.4630 O   0  0  0  0  0  0  0  0  0  0  0  0
  -21.5580   -6.2800   22.6190 C   0  0  0  0  0  0  0  0  0  0  0  0
  -21.1360   -6.8420   23.8430 C   0  0  0  0  0  3  0  0  0  0  0  0
  -21.0330   -6.0310   24.9910 C   0  0  0  0  0  3  0  0  0  0  0  0
  -21.3390   -4.6590   24.9140 C   0  0  0  0  0  0  0  0  0  0  0  0
  -21.7540   -4.0970   23.6950 C   0  0  0  0  0  3  0  0  0  0  0  0
  -21.8600   -4.9050   22.5490 C   0  0  0  0  0  0  0  0  0  0  0  0
  -22.2390   -4.3530   21.3720 F   0  0  0  0  0  0  0  0  0  0  0  0
  -21.2320   -3.8780   26.0150 F   0  0  0  0  0  0  0  0  0  0  0  0
  -22.7030  -13.6500   21.0620 C   0  0  0  0  0  0  0  0  0  0  0  0
  -21.9630  -12.9640   21.9250 N   0  0  0  0  0  0  0  0  0  0  0  0
  -22.2740  -14.6690   20.5240 O   0  0  0  0  0  0  0  0  0  0  0  0
  -22.3240  -12.1400   22.3820 H   0  0  0  0  0  0  0  0  0  0  0  0
  -21.0230  -13.2700   22.1330 H   0  0  0  0  0  0  0  0  0  0  0  0
  -25.3360  -15.3080   20.2530 N   0  0  0  0  0  0  0  0  0  0  0  0
  -24.5670  -15.9600   20.3560 H   0  0  0  0  0  0  0  0  0  0  0  0
  -26.1840  -15.7520   19.9220 H   0  0  0  0  0  0  0  0  0  0  0  0
  -28.3400  -23.1790   21.7180 C   0  0  0  0  0  2  0  0  0  0  0  0
  -28.8500  -21.7250   21.9010 C   0  0  0  0  0  2  0  0  0  0  0  0
  -29.0560  -22.3180   19.6340 C   0  0  0  0  0  2  0  0  0  0  0  0
  -28.9770  -23.7090   20.4240 C   0  0  0  0  0  3  0  0  0  0  0  0
  -29.0190  -21.1390   20.5710 N   0  0  0  0  0  0  0  0  0  0  0  0
  -28.2130  -24.9750   19.7470 C   0  0  0  0  0  2  0  0  0  0  0  0
  -28.3470  -26.4110   20.1980 O   0  0  0  0  0  0  0  0  0  0  0  0
  -24.6350  -31.8850   23.2110 C   0  0  0  0  0  0  0  0  0  0  0  0
  -27.2500  -27.3090   20.1160 C   0  0  0  0  0  0  0  0  0  0  0  0
  -23.4360  -30.4910   21.5670 C   0  0  0  0  0  3  0  0  0  0  0  0
  -24.8910  -28.9630   20.1170 C   0  0  0  0  0  0  0  0  0  0  0  0
  -25.9790  -30.8030   21.3900 C   0  0  0  0  0  2  0  0  0  0  0  0
  -26.0600  -29.4290   20.7280 C   0  0  0  0  0  0  0  0  0  0  0  0
  -27.2380  -28.6110   20.7260 C   0  0  0  0  0  3  0  0  0  0  0  0
  -26.0620  -26.9330   19.4460 C   0  0  0  0  0  3  0  0  0  0  0  0
  -24.8970  -27.7220   19.4640 C   0  0  0  0  0  3  0  0  0  0  0  0
  -23.6520  -29.8350   20.1790 C   0  0  0  0  0  2  0  0  0  0  0  0
  -24.7020  -31.0790   22.1120 N   0  0  0  0  0  0  0  0  0  0  0  0
  -23.5510  -32.1590   23.7470 O   0  0  0  0  0  0  0  0  0  0  0  0
  -22.7800  -29.4630   22.5210 C   0  0  0  0  0  0  0  0  0  0  0  0
  -21.4510  -29.2900   22.4060 N   0  0  0  0  0  0  0  0  0  0  0  0
  -23.4640  -28.8260   23.3240 O   0  0  0  0  0  0  0  0  0  0  0  0
  -20.9550  -29.8610   21.7360 H   0  0  0  0  0  0  0  0  0  0  0  0
  -18.0760  -28.0960   22.9230 C   0  0  0  0  0  0  0  0  0  0  0  0
  -20.6380  -28.3460   23.1730 C   0  0  0  0  0  3  0  0  0  0  0  0
  -20.7290  -26.9210   22.5790 C   0  0  0  0  0  2  0  0  0  0  0  0
  -19.6160  -26.6140   21.5710 C   0  0  0  0  0  2  0  0  0  0  0  0
  -18.2420  -26.7540   22.2300 C   0  0  0  0  0  2  0  0  0  0  0  0
  -19.2010  -28.8500   23.3510 C   0  0  0  0  0  0  0  0  0  0  0  0
  -18.9910  -30.1070   23.9590 C   0  0  0  0  0  3  0  0  0  0  0  0
  -17.6890  -30.6090   24.1460 C   0  0  0  0  0  3  0  0  0  0  0  0
  -16.5790  -29.8500   23.7350 C   0  0  0  0  0  3  0  0  0  0  0  0
  -16.7730  -28.5960   23.1280 C   0  0  0  0  0  3  0  0  0  0  0  0
  -25.9160  -32.5200   23.8340 C   0  0  0  0  0  3  0  0  0  0  0  0
  -26.4400  -31.7420   25.1020 C   0  0  1  0  0  0  0  0  0  0  0  0
  -25.3510  -31.4890   26.1710 C   0  0  0  0  0  1  0  0  0  0  0  0
  -27.0300  -30.3690   24.7000 C   0  0  0  0  0  1  0  0  0  0  0  0
  -27.5880  -32.5370   25.7660 C   0  0  0  0  0  1  0  0  0  0  0  0
  -25.5980  -33.9130   24.1800 N   0  0  0  0  0  0  0  0  0  0  0  0
  -25.9120  -34.9760   23.4270 C   0  0  0  0  0  0  0  0  0  0  0  0
  -26.5700  -34.8870   22.3850 O   0  0  0  0  0  0  0  0  0  0  0  0
  -25.0090  -34.0550   24.9850 H   0  0  0  0  0  0  0  0  0  0  0  0
  -24.1590  -36.7550   23.1220 C   0  0  0  0  0  1  0  0  0  0  0  0
  -25.4200  -36.3550   23.9050 C   0  0  0  0  0  3  0  0  0  0  0  0
  -27.5610  -37.2570   24.6990 C   0  0  0  0  0  1  0  0  0  0  0  0
  -26.4390  -37.4210   23.7780 N   0  0  0  0  0  0  0  0  0  0  0  0
  -26.0260  -38.3350   23.9450 H   0  0  0  0  0  0  0  0  0  0  0  0
  -33.5650  -19.3380   20.5670 N   0  0  0  0  0  0  0  0  0  0  0  0
  -34.1850  -18.6090   20.2330 H   0  0  0  0  0  0  0  0  0  0  0  0
  -33.7880  -20.2400   20.1530 H   0  0  0  0  0  0  0  0  0  0  0  0
  -31.8610  -21.4400   20.5500 N   0  0  0  0  0  0  0  0  0  0  0  0
  -31.1890  -22.1340   20.8530 H   0  0  0  0  0  0  0  0  0  0  0  0
  -32.7160  -21.4690   21.0930 H   0  0  0  0  0  0  0  0  0  0  0  0
  2  5  2  0
  2  6  1  0
  2 50  1  0
  3 93  1  0
  3  1  2  0
  4  1  1  0
  4 16  1  0
  5 96  1  0
  5  3  1  0
  6  4  2  0
  6  7  1  0
  8 16  1  0
  9 14  1  0
 10 11  1  0
 10  9  1  0
 12 11  1  0
 12 21  1  0
 12 13  1  0
 14  8  1  0
 14 13  1  0
 15  8  2  0
 16 17  1  0
 18 19  2  0
 19 38  1  0
 20 19  1  0
 20 23  1  0
 21 18  1  0
 21 22  1  0
 22 20  2  0
 23 24  1  0
 24 25  2  0
 26 29  1  0
 26 25  1  0
 27 26  2  0
 28 27  1  0
 28 23  2  0
 29 30  1  0
 30 31  1  0
 31 32  2  0
 33 32  1  0
 33 37  1  0
 34 33  2  0
 35 30  2  0
 35 34  1  0
 36 35  1  0
 38 39  1  0
 39 42  1  0
 39 41  1  0
 40 38  2  0
 43 44  1  0
 43 18  1  0
 45 43  1  0
 46 47  1  0
 48 49  1  0
 48 50  1  0
 49 51  1  0
 49 46  1  0
 50 47  1  0
 51 52  1  0
 53 64  2  0
 54 52  1  0
 54 59  1  0
 55 63  1  0
 55 65  1  0
 56 62  1  0
 56 58  1  0
 57 63  1  0
 58 57  1  0
 59 58  2  0
 60 61  1  0
 60 54  2  0
 61 56  2  0
 62 55  1  0
 63 53  1  0
 65 67  2  0
 66 65  1  0
 68 66  1  0
 69 78  2  0
 69 74  1  0
 70 66  1  0
 70 74  1  0
 71 70  1  0
 72 73  1  0
 72 71  1  0
 73 69  1  0
 74 75  2  0
 75 76  1  0
 77 76  2  0
 78 77  1  0
 79 53  1  0
 79 84  1  0
 79 80  1  0
 80 83  1  1
 80 81  1  0
 82 80  1  0
 84 87  1  0
 85 89  1  0
 85 84  1  0
 86 85  2  0
 89 88  1  0
 91 89  1  0
 91 92  1  0
 91 90  1  0
 94 93  1  0
 95 93  1  0
 96 97  1  0
 96 98  1  0
M  ISO  4   8 100  16 100  51 101  52 101
M  END
>  <TORSDO>  (75) 
F 20

>  <SCORE>  (75) 
-14.767

>  <name>  (75) 
75

>  <ligand_id>  (75) 
75

>  <original_smiles>  (75) 
[H]c1c([H])c([H])c2c(c1[H])C([H])([H])C([H])([H])C([H])([H])C2([H])N([H])C(=O)C1([H])N(C(=O)C([H])(N([H])C(=O)C([H])(N([H])C([H])([H])[H])C([H])([H])[H])C(C([H])([H])[H])(C([H])([H])[H])C([H])([H])[H])C([H])([H])c2c([H])c(OC([H])([H])C3([H])C([H])([H])N(c4c(F)c(N([H])C(=O)N5C([H])([H])C([H])([H])C([H])([H])C([H])(n6nc(-c7c([H])c([H])c(Oc8c([H])c([H])c(F)c([H])c8F)c([H])c7[H])c(C(=O)N([H])[H])c6N([H])[H])C5([H])[H])c([H])c(N([H])[H])c4N([H])[H])C([H])([H])C3([H])[H])c([H])c([H])c2C1([H])[H]

>  <smiles>  (75) 
[H]c1c([H])c([H])c2c(c1[H])C([H])([H])C([H])([H])C([H])([H])C2([H])N([H])C(=O)C1([H])N(C(=O)C([H])(N([H])C(=O)C([H])(N([H])C([H])([H])[H])C([H])([H])[H])C(C([H])([H])[H])(C([H])([H])[H])C([H])([H])[H])C([H])([H])c2c([H])c(OC([H])([H])C3([H])C([H])([H])N(c4c(F)c(N([H])C(=O)N5C([H])([H])C([H])([H])C([H])([H])C([H])(n6nc(-c7c([H])c([H])c(Oc8c([H])c([H])c(F)c([H])c8F)c([H])c7[H])c(C(=O)N([H])[H])c6N([H])[H])C5([H])[H])c([H])c(N([H])[H])c4N([H])[H])C([H])([H])C3([H])[H])c([H])c([H])c2C1([H])[H]

$$$$
76:0:0
     RDKit          3D

 94102  0  0  1  0  0  0  0  0999 V2000
  -31.3880  -18.3620   22.9400 C   0  0  0  0  0  3  0  0  0  0  0  0
  -31.0710  -19.6320   22.4170 C   0  0  0  0  0  3  0  0  0  0  0  0
  -30.0080  -18.5460   20.5430 C   0  0  0  0  0  3  0  0  0  0  0  0
  -30.3000  -17.2430   21.0460 C   0  0  0  0  0  0  0  0  0  0  0  0
  -30.9960  -17.1650   22.2930 C   0  0  0  0  0  0  0  0  0  0  0  0
  -30.3530  -19.7320   21.2110 C   0  0  0  0  0  0  0  0  0  0  0  0
  -31.2990  -15.9690   22.9560 N   0  0  0  0  0  0  0  0  0  0  0  0
  -31.5980  -16.0110   23.9270 H   0  0  0  0  0  0  0  0  0  0  0  0
  -30.7900  -15.1160   22.7530 H   0  0  0  0  0  0  0  0  0  0  0  0
  -29.7710  -16.0930   20.2190 C   0  0  0  0  0  3  0  0  0  0  0  0
  -28.7130  -16.2800   19.5450 N   0  0  0  0  0  2  0  0  0  0  0  0
  -28.5460  -15.4730   18.9550 H   0  0  0  0  0  0  0  0  0  0  0  0
  -30.5920  -14.7950   20.0460 C   0  0  0  0  0  0  0  0  0  0  0  0
  -30.2310  -12.6110   18.9430 C   0  0  0  0  0  2  0  0  0  0  0  0
  -29.2300  -12.7720   17.7780 C   0  0  0  0  0  2  0  0  0  0  0  0
  -27.7940  -12.5410   18.2850 C   0  0  0  0  0  2  0  0  0  0  0  0
  -27.4690  -13.4080   19.5230 C   0  0  0  0  0  3  0  0  0  0  0  0
  -28.5920  -13.3190   20.5900 C   0  0  0  0  0  2  0  0  0  0  0  0
  -29.8880  -13.6250   19.9550 N   0  0  0  0  0  0  0  0  0  0  0  0
  -31.7590  -14.9000   19.6670 O   0  0  0  0  0  0  0  0  0  0  0  0
  -25.1310  -14.0080   20.3950 C   0  0  0  0  0  0  0  0  0  0  0  0
  -24.0930  -13.2210   20.8110 C   0  0  0  0  0  0  0  0  0  0  0  0
  -24.5700  -11.8760   20.7490 C   0  0  0  0  0  0  0  0  0  0  0  0
  -26.1640  -13.1300   20.0930 N   0  0  0  0  0  0  0  0  0  0  0  0
  -25.8400  -11.8490   20.3740 N   0  0  0  0  0  0  0  0  0  0  0  0
  -23.8780  -10.6030   20.9570 C   0  0  0  0  0  0  0  0  0  0  0  0
  -24.3510   -9.6500   21.8860 C   0  0  0  0  0  3  0  0  0  0  0  0
  -23.6590   -8.4370   22.0770 C   0  0  0  0  0  3  0  0  0  0  0  0
  -22.4820   -8.1690   21.3380 C   0  0  0  0  0  0  0  0  0  0  0  0
  -22.0300   -9.1110   20.3970 C   0  0  0  0  0  3  0  0  0  0  0  0
  -22.7230  -10.3150   20.2030 C   0  0  0  0  0  3  0  0  0  0  0  0
  -21.7570   -7.0080   21.4440 O   0  0  0  0  0  0  0  0  0  0  0  0
  -21.7230   -6.2860   22.6100 C   0  0  0  0  0  0  0  0  0  0  0  0
  -21.2660   -6.8500   23.8220 C   0  0  0  0  0  3  0  0  0  0  0  0
  -21.1840   -6.0520   24.9820 C   0  0  0  0  0  3  0  0  0  0  0  0
  -21.5460   -4.6930   24.9280 C   0  0  0  0  0  0  0  0  0  0  0  0
  -21.9960   -4.1290   23.7220 C   0  0  0  0  0  3  0  0  0  0  0  0
  -22.0810   -4.9250   22.5640 C   0  0  0  0  0  0  0  0  0  0  0  0
  -22.4960   -4.3710   21.3980 F   0  0  0  0  0  0  0  0  0  0  0  0
  -21.4570   -3.9260   26.0390 F   0  0  0  0  0  0  0  0  0  0  0  0
  -22.7020  -13.6760   21.1560 C   0  0  0  0  0  0  0  0  0  0  0  0
  -22.0240  -12.9570   22.0420 N   0  0  0  0  0  0  0  0  0  0  0  0
  -22.2280  -14.7050   20.6730 O   0  0  0  0  0  0  0  0  0  0  0  0
  -22.4180  -12.1220   22.4540 H   0  0  0  0  0  0  0  0  0  0  0  0
  -21.0940  -13.2420   22.3160 H   0  0  0  0  0  0  0  0  0  0  0  0
  -25.2800  -15.3810   20.2210 N   0  0  0  0  0  0  0  0  0  0  0  0
  -24.5160  -16.0380   20.3500 H   0  0  0  0  0  0  0  0  0  0  0  0
  -26.1400  -15.8260   19.9160 H   0  0  0  0  0  0  0  0  0  0  0  0
  -29.9530  -20.9140   20.6170 O   0  0  0  0  0  0  0  0  0  0  0  0
  -30.0600  -22.1620   21.3070 C   0  0  0  0  0  2  0  0  0  0  0  0
  -29.2900  -23.1780   20.4290 C   0  0  0  0  0  2  0  0  0  0  0  0
  -29.2230  -24.6570   20.8920 C   0  0  0  0  0  2  0  0  0  0  0  0
  -28.6260  -25.5640   19.7850 C   0  0  0  0  0  2  0  0  0  0  0  0
  -28.5560  -26.9540   20.1770 O   0  0  0  0  0  0  0  0  0  0  0  0
  -24.5910  -31.9920   23.2630 C   0  0  0  0  0  0  0  0  0  0  0  0
  -27.3530  -27.6420   20.1270 C   0  0  0  0  0  0  0  0  0  0  0  0
  -23.4310  -30.5940   21.5860 C   0  0  0  0  0  3  0  0  0  0  0  0
  -24.9270  -29.1190   20.1390 C   0  0  0  0  0  0  0  0  0  0  0  0
  -25.9510  -31.0010   21.4190 C   0  0  0  0  0  2  0  0  0  0  0  0
  -26.0650  -29.6410   20.7630 C   0  0  0  0  0  0  0  0  0  0  0  0
  -27.2750  -28.9050   20.7630 C   0  0  0  0  0  3  0  0  0  0  0  0
  -26.2000  -27.1600   19.4600 C   0  0  0  0  0  3  0  0  0  0  0  0
  -24.9930  -27.8820   19.4810 C   0  0  0  0  0  3  0  0  0  0  0  0
  -23.6630  -29.9470   20.1930 C   0  0  0  0  0  2  0  0  0  0  0  0
  -24.6750  -31.2110   22.1470 N   0  0  0  0  0  0  0  0  0  0  0  0
  -23.4980  -32.2270   23.7990 O   0  0  0  0  0  0  0  0  0  0  0  0
  -22.7980  -29.5400   22.5230 C   0  0  0  0  0  0  0  0  0  0  0  0
  -21.4810  -29.3200   22.3770 N   0  0  0  0  0  0  0  0  0  0  0  0
  -23.4890  -28.9190   23.3360 O   0  0  0  0  0  0  0  0  0  0  0  0
  -20.9800  -29.8730   21.6960 H   0  0  0  0  0  0  0  0  0  0  0  0
  -18.1390  -28.0240   22.8300 C   0  0  0  0  0  0  0  0  0  0  0  0
  -20.6850  -28.3450   23.1240 C   0  0  0  0  0  3  0  0  0  0  0  0
  -20.8280  -26.9260   22.5240 C   0  0  0  0  0  2  0  0  0  0  0  0
  -19.7440  -26.5940   21.4940 C   0  0  0  0  0  2  0  0  0  0  0  0
  -18.3540  -26.6920   22.1290 C   0  0  0  0  0  2  0  0  0  0  0  0
  -19.2330  -28.8070   23.2840 C   0  0  0  0  0  0  0  0  0  0  0  0
  -18.9790  -30.0530   23.8950 C   0  0  0  0  0  3  0  0  0  0  0  0
  -17.6600  -30.5190   24.0570 C   0  0  0  0  0  3  0  0  0  0  0  0
  -16.5790  -29.7330   23.6210 C   0  0  0  0  0  3  0  0  0  0  0  0
  -16.8190  -28.4880   23.0150 C   0  0  0  0  0  3  0  0  0  0  0  0
  -25.8540  -32.6450   23.9010 C   0  0  0  0  0  3  0  0  0  0  0  0
  -25.5210  -34.0400   24.2180 N   0  0  0  0  0  0  0  0  0  0  0  0
  -25.8400  -35.0920   23.4530 C   0  0  0  0  0  0  0  0  0  0  0  0
  -26.5230  -34.9930   22.4300 O   0  0  0  0  0  0  0  0  0  0  0  0
  -24.9180  -34.1910   25.0140 H   0  0  0  0  0  0  0  0  0  0  0  0
  -24.0790  -36.8460   23.0710 C   0  0  0  0  0  1  0  0  0  0  0  0
  -25.3220  -36.4740   23.8930 C   0  0  0  0  0  3  0  0  0  0  0  0
  -27.4330  -37.4130   24.7310 C   0  0  0  0  0  1  0  0  0  0  0  0
  -26.3340  -37.5470   23.7770 N   0  0  0  0  0  0  0  0  0  0  0  0
  -25.9060  -38.4600   23.9130 H   0  0  0  0  0  0  0  0  0  0  0  0
  -26.3600  -31.8900   25.1910 C   0  0  1  0  0  0  0  0  0  0  0  0
  -25.2530  -31.6350   26.2420 C   0  0  0  0  0  1  0  0  0  0  0  0
  -26.9770  -30.5220   24.8150 C   0  0  0  0  0  1  0  0  0  0  0  0
  -27.4810  -32.7100   25.8750 C   0  0  0  0  0  1  0  0  0  0  0  0
  2  1  1  0
  3  4  2  0
  3  6  1  0
  4  5  1  0
  5  1  2  0
  5  7  1  0
  6  2  2  0
  7  8  1  0
  9  7  1  0
 10 11  1  0
 10  4  1  0
 12 11  1  0
 13 10  1  0
 14 19  1  0
 15 16  1  0
 15 14  1  0
 17 16  1  0
 17 24  1  0
 17 18  1  0
 19 13  1  0
 19 18  1  0
 20 13  2  0
 21 22  2  0
 22 41  1  0
 23 22  1  0
 23 26  1  0
 24 25  1  0
 24 21  1  0
 25 23  2  0
 26 27  1  0
 27 28  2  0
 29 32  1  0
 29 28  1  0
 30 29  2  0
 31 30  1  0
 31 26  2  0
 32 33  1  0
 33 34  1  0
 34 35  2  0
 36 35  1  0
 36 40  1  0
 37 36  2  0
 38 33  2  0
 38 37  1  0
 39 38  1  0
 41 42  1  0
 42 45  1  0
 42 44  1  0
 43 41  2  0
 46 47  1  0
 46 21  1  0
 48 46  1  0
 49  6  1  0
 49 50  1  0
 51 52  1  0
 51 50  1  0
 53 54  1  0
 53 52  1  0
 55 66  2  0
 56 54  1  0
 56 61  1  0
 57 65  1  0
 57 67  1  0
 58 64  1  0
 58 60  1  0
 59 65  1  0
 60 61  2  0
 60 59  1  0
 62 63  1  0
 62 56  2  0
 63 58  2  0
 64 57  1  0
 65 55  1  0
 67 69  2  0
 68 67  1  0
 70 68  1  0
 71 80  2  0
 71 76  1  0
 72 68  1  0
 72 76  1  0
 73 72  1  0
 74 75  1  0
 74 73  1  0
 75 71  1  0
 76 77  2  0
 77 78  1  0
 79 78  2  0
 80 79  1  0
 81 55  1  0
 81 82  1  0
 81 91  1  0
 82 85  1  0
 83 87  1  0
 83 82  1  0
 84 83  2  0
 87 86  1  0
 89 87  1  0
 89 90  1  0
 89 88  1  0
 91 94  1  1
 91 92  1  0
 93 91  1  0
M  ISO  4  10 100  13 100  53 101  54 101
M  END
>  <TORSDO>  (76) 
F 23

>  <SCORE>  (76) 
-12.092

>  <name>  (76) 
76

>  <ligand_id>  (76) 
76

>  <original_smiles>  (76) 
[H]N=C(C(=O)N1C([H])([H])C([H])([H])C([H])([H])C([H])(n2nc(-c3c([H])c([H])c(Oc4c([H])c([H])c(F)c([H])c4F)c([H])c3[H])c(C(=O)N([H])[H])c2N([H])[H])C1([H])[H])c1c([H])c(OC([H])([H])C([H])([H])C([H])([H])C([H])([H])Oc2c([H])c([H])c3c(c2[H])C([H])([H])N(C(=O)C([H])(N([H])C(=O)C([H])(N([H])C([H])([H])[H])C([H])([H])[H])C(C([H])([H])[H])(C([H])([H])[H])C([H])([H])[H])C([H])(C(=O)N([H])C2([H])c4c([H])c([H])c([H])c([H])c4C([H])([H])C([H])([H])C2([H])[H])C3([H])[H])c([H])c([H])c1N([H])[H]

>  <smiles>  (76) 
[H]N=C(C(=O)N1C([H])([H])C([H])([H])C([H])([H])C([H])(n2nc(-c3c([H])c([H])c(Oc4c([H])c([H])c(F)c([H])c4F)c([H])c3[H])c(C(=O)N([H])[H])c2N([H])[H])C1([H])[H])c1c([H])c(OC([H])([H])C([H])([H])C([H])([H])C([H])([H])Oc2c([H])c([H])c3c(c2[H])C([H])([H])N(C(=O)C([H])(N([H])C(=O)C([H])(N([H])C([H])([H])[H])C([H])([H])[H])C(C([H])([H])[H])(C([H])([H])[H])C([H])([H])[H])C([H])(C(=O)N([H])C2([H])c4c([H])c([H])c([H])c([H])c4C([H])([H])C([H])([H])C2([H])[H])C3([H])[H])c([H])c([H])c1N([H])[H]

$$$$
77:0:0
     RDKit          3D

 93101  0  0  1  0  0  0  0  0999 V2000
  -28.1850  -17.9850   19.8410 C   0  0  0  0  0  3  0  0  0  0  0  0
  -29.8740  -19.5750   20.5850 C   0  0  0  0  0  3  0  0  0  0  0  0
  -27.7610  -20.4040   19.7120 C   0  0  0  0  0  3  0  0  0  0  0  0
  -29.4640  -18.2160   20.4010 C   0  0  0  0  0  0  0  0  0  0  0  0
  -27.3500  -19.0710   19.4830 C   0  0  0  0  0  0  0  0  0  0  0  0
  -29.0330  -20.6840   20.2570 C   0  0  0  0  0  0  0  0  0  0  0  0
  -26.1200  -18.8240   18.8680 N   0  0  0  0  0  0  0  0  0  0  0  0
  -25.9750  -17.9300   18.4060 H   0  0  0  0  0  0  0  0  0  0  0  0
  -25.6530  -19.5840   18.3790 H   0  0  0  0  0  0  0  0  0  0  0  0
  -30.4230  -17.0440   20.7650 C   0  0  0  0  0  2  0  0  0  0  0  0
  -30.6600  -14.5460   20.3120 C   0  0  0  0  0  0  0  0  0  0  0  0
  -30.3330  -12.3670   19.1760 C   0  0  0  0  0  2  0  0  0  0  0  0
  -29.3900  -12.6170   17.9800 C   0  0  0  0  0  2  0  0  0  0  0  0
  -27.9170  -12.4870   18.4260 C   0  0  0  0  0  2  0  0  0  0  0  0
  -27.6060  -13.2910   19.7200 C   0  0  0  0  0  3  0  0  0  0  0  0
  -28.6800  -13.0580   20.8070 C   0  0  0  0  0  2  0  0  0  0  0  0
  -29.9870  -13.3610   20.2070 N   0  0  0  0  0  0  0  0  0  0  0  0
  -31.8160  -14.6700   19.9060 O   0  0  0  0  0  0  0  0  0  0  0  0
  -29.9370  -15.6310   20.7020 N   0  0  0  0  0  0  0  0  0  0  0  0
  -28.9950  -15.4560   21.0180 H   0  0  0  0  0  0  0  0  0  0  0  0
  -25.2240  -13.8960   20.4770 C   0  0  0  0  0  0  0  0  0  0  0  0
  -24.1610  -13.1260   20.8600 C   0  0  0  0  0  0  0  0  0  0  0  0
  -24.6180  -11.7740   20.8140 C   0  0  0  0  0  0  0  0  0  0  0  0
  -26.2640  -13.0150   20.2260 N   0  0  0  0  0  0  0  0  0  0  0  0
  -25.9030  -11.7340   20.4840 N   0  0  0  0  0  0  0  0  0  0  0  0
  -23.8890  -10.5160   21.0120 C   0  0  0  0  0  0  0  0  0  0  0  0
  -24.3280   -9.5440   21.9390 C   0  0  0  0  0  3  0  0  0  0  0  0
  -23.6000   -8.3500   22.1240 C   0  0  0  0  0  3  0  0  0  0  0  0
  -22.4190   -8.1200   21.3810 C   0  0  0  0  0  0  0  0  0  0  0  0
  -21.9990   -9.0790   20.4440 C   0  0  0  0  0  3  0  0  0  0  0  0
  -22.7280  -10.2640   20.2560 C   0  0  0  0  0  3  0  0  0  0  0  0
  -21.6560   -6.9790   21.4780 O   0  0  0  0  0  0  0  0  0  0  0  0
  -21.6110   -6.2370   22.6300 C   0  0  0  0  0  0  0  0  0  0  0  0
  -21.1890   -6.7940   23.8590 C   0  0  0  0  0  3  0  0  0  0  0  0
  -21.0940   -5.9760   25.0050 C   0  0  0  0  0  3  0  0  0  0  0  0
  -21.4050   -4.6060   24.9220 C   0  0  0  0  0  0  0  0  0  0  0  0
  -21.8200   -4.0500   23.6990 C   0  0  0  0  0  3  0  0  0  0  0  0
  -21.9200   -4.8630   22.5570 C   0  0  0  0  0  0  0  0  0  0  0  0
  -22.2980   -4.3190   21.3750 F   0  0  0  0  0  0  0  0  0  0  0  0
  -21.3080   -3.8210   26.0190 F   0  0  0  0  0  0  0  0  0  0  0  0
  -22.7700  -13.6110   21.1510 C   0  0  0  0  0  0  0  0  0  0  0  0
  -22.0480  -12.9160   22.0240 N   0  0  0  0  0  0  0  0  0  0  0  0
  -22.3330  -14.6420   20.6410 O   0  0  0  0  0  0  0  0  0  0  0  0
  -22.4160  -12.0840   22.4650 H   0  0  0  0  0  0  0  0  0  0  0  0
  -21.1160  -13.2220   22.2610 H   0  0  0  0  0  0  0  0  0  0  0  0
  -25.3820  -15.2670   20.3080 N   0  0  0  0  0  0  0  0  0  0  0  0
  -24.6070  -15.9040   20.4400 H   0  0  0  0  0  0  0  0  0  0  0  0
  -26.2210  -15.7220   19.9740 H   0  0  0  0  0  0  0  0  0  0  0  0
  -29.4970  -21.9980   20.3480 O   0  0  0  0  0  0  0  0  0  0  0  0
  -28.7820  -22.9710   21.1540 C   0  0  0  0  0  2  0  0  0  0  0  0
  -27.9450  -24.1050   20.4550 C   0  0  0  0  0  2  0  0  0  0  0  0
  -28.6690  -25.3280   19.7890 C   0  0  0  0  0  2  0  0  0  0  0  0
  -28.5220  -26.6450   20.4000 O   0  0  0  0  0  0  0  0  0  0  0  0
  -24.6120  -31.8990   23.2670 C   0  0  0  0  0  0  0  0  0  0  0  0
  -27.3470  -27.3840   20.3050 C   0  0  0  0  0  0  0  0  0  0  0  0
  -23.4500  -30.4630   21.6250 C   0  0  0  0  0  3  0  0  0  0  0  0
  -24.9450  -28.9120   20.2420 C   0  0  0  0  0  0  0  0  0  0  0  0
  -25.9810  -30.8210   21.4780 C   0  0  0  0  0  2  0  0  0  0  0  0
  -26.0890  -29.4420   20.8530 C   0  0  0  0  0  0  0  0  0  0  0  0
  -27.2880  -28.6810   20.8820 C   0  0  0  0  0  3  0  0  0  0  0  0
  -26.1830  -26.8880   19.6770 C   0  0  0  0  0  3  0  0  0  0  0  0
  -24.9930  -27.6390   19.6470 C   0  0  0  0  0  3  0  0  0  0  0  0
  -23.6920  -29.7630   20.2590 C   0  0  0  0  0  2  0  0  0  0  0  0
  -24.6980  -31.0780   22.1800 N   0  0  0  0  0  0  0  0  0  0  0  0
  -23.5150  -32.1720   23.7770 O   0  0  0  0  0  0  0  0  0  0  0  0
  -22.7870  -29.4520   22.5870 C   0  0  0  0  0  0  0  0  0  0  0  0
  -21.4650  -29.2620   22.4440 N   0  0  0  0  0  0  0  0  0  0  0  0
  -23.4600  -28.8420   23.4230 O   0  0  0  0  0  0  0  0  0  0  0  0
  -20.9830  -29.8060   21.7420 H   0  0  0  0  0  0  0  0  0  0  0  0
  -18.0850  -28.0740   22.9250 C   0  0  0  0  0  0  0  0  0  0  0  0
  -20.6410  -28.3280   23.2130 C   0  0  0  0  0  3  0  0  0  0  0  0
  -20.7440  -26.8970   22.6410 C   0  0  0  0  0  2  0  0  0  0  0  0
  -19.6480  -26.5720   21.6200 C   0  0  0  0  0  2  0  0  0  0  0  0
  -18.2630  -26.7220   22.2540 C   0  0  0  0  0  2  0  0  0  0  0  0
  -19.2020  -28.8340   23.3600 C   0  0  0  0  0  0  0  0  0  0  0  0
  -18.9840  -30.1010   23.9450 C   0  0  0  0  0  3  0  0  0  0  0  0
  -17.6790  -30.6090   24.0970 C   0  0  0  0  0  3  0  0  0  0  0  0
  -16.5750  -29.8440   23.6790 C   0  0  0  0  0  3  0  0  0  0  0  0
  -16.7780  -28.5770   23.1000 C   0  0  0  0  0  3  0  0  0  0  0  0
  -25.8770  -32.5510   23.9030 C   0  0  0  0  0  3  0  0  0  0  0  0
  -25.5510  -33.9500   24.2100 N   0  0  0  0  0  0  0  0  0  0  0  0
  -25.8860  -34.9960   23.4400 C   0  0  0  0  0  0  0  0  0  0  0  0
  -26.5760  -34.8830   22.4240 O   0  0  0  0  0  0  0  0  0  0  0  0
  -24.9420  -34.1100   24.9970 H   0  0  0  0  0  0  0  0  0  0  0  0
  -24.1510  -36.7660   23.0290 C   0  0  0  0  0  1  0  0  0  0  0  0
  -25.3790  -36.3850   23.8700 C   0  0  0  0  0  3  0  0  0  0  0  0
  -27.4900  -37.3020   24.7270 C   0  0  0  0  0  1  0  0  0  0  0  0
  -26.4040  -37.4460   23.7620 N   0  0  0  0  0  0  0  0  0  0  0  0
  -25.9870  -38.3640   23.8850 H   0  0  0  0  0  0  0  0  0  0  0  0
  -26.3770  -31.8000   25.1970 C   0  0  1  0  0  0  0  0  0  0  0  0
  -25.2670  -31.5610   26.2490 C   0  0  0  0  0  1  0  0  0  0  0  0
  -26.9830  -30.4250   24.8300 C   0  0  0  0  0  1  0  0  0  0  0  0
  -27.5090  -32.6130   25.8700 C   0  0  0  0  0  1  0  0  0  0  0  0
  1  4  1  0
  3  6  2  0
  4  2  2  0
  4 10  1  0
  5  3  1  0
  5  1  2  0
  6 49  1  0
  6  2  1  0
  7  5  1  0
  8  7  1  0
  9  7  1  0
 11 19  1  0
 12 17  1  0
 13 14  1  0
 13 12  1  0
 15 14  1  0
 15 24  1  0
 15 16  1  0
 17 11  1  0
 17 16  1  0
 18 11  2  0
 19 10  1  0
 19 20  1  0
 21 22  2  0
 22 41  1  0
 23 22  1  0
 23 26  1  0
 24 21  1  0
 24 25  1  0
 25 23  2  0
 26 27  1  0
 27 28  2  0
 29 32  1  0
 29 28  1  0
 30 29  2  0
 31 30  1  0
 31 26  2  0
 32 33  1  0
 33 34  1  0
 34 35  2  0
 36 35  1  0
 36 40  1  0
 37 36  2  0
 38 33  2  0
 38 37  1  0
 39 38  1  0
 41 42  1  0
 42 45  1  0
 42 44  1  0
 43 41  2  0
 46 47  1  0
 46 21  1  0
 48 46  1  0
 49 50  1  0
 51 50  1  0
 52 53  1  0
 52 51  1  0
 54 65  2  0
 55 53  1  0
 55 60  1  0
 56 64  1  0
 56 66  1  0
 57 63  1  0
 57 59  1  0
 58 64  1  0
 59 60  2  0
 59 58  1  0
 61 55  2  0
 62 61  1  0
 62 57  2  0
 63 56  1  0
 64 54  1  0
 66 68  2  0
 67 66  1  0
 69 67  1  0
 70 79  2  0
 70 75  1  0
 71 67  1  0
 71 75  1  0
 72 71  1  0
 73 74  1  0
 73 72  1  0
 74 70  1  0
 75 76  2  0
 76 77  1  0
 78 77  2  0
 79 78  1  0
 80 54  1  0
 80 81  1  0
 80 90  1  0
 81 84  1  0
 82 86  1  0
 82 81  1  0
 83 82  2  0
 86 85  1  0
 88 86  1  0
 88 89  1  0
 88 87  1  0
 90 93  1  1
 90 91  1  0
 92 90  1  0
M  ISO  4  11 100  19 100  52 101  53 101
M  END
>  <TORSDO>  (77) 
F 22

>  <SCORE>  (77) 
-13.267

>  <name>  (77) 
77

>  <ligand_id>  (77) 
77

>  <original_smiles>  (77) 
[H]c1c([H])c([H])c2c(c1[H])C([H])([H])C([H])([H])C([H])([H])C2([H])N([H])C(=O)C1([H])N(C(=O)C([H])(N([H])C(=O)C([H])(N([H])C([H])([H])[H])C([H])([H])[H])C(C([H])([H])[H])(C([H])([H])[H])C([H])([H])[H])C([H])([H])c2c([H])c(OC([H])([H])C([H])([H])C([H])([H])Oc3c([H])c(N([H])[H])c([H])c(C([H])([H])N([H])C(=O)N4C([H])([H])C([H])([H])C([H])([H])C([H])(n5nc(-c6c([H])c([H])c(Oc7c([H])c([H])c(F)c([H])c7F)c([H])c6[H])c(C(=O)N([H])[H])c5N([H])[H])C4([H])[H])c3[H])c([H])c([H])c2C1([H])[H]

>  <smiles>  (77) 
[H]c1c([H])c([H])c2c(c1[H])C([H])([H])C([H])([H])C([H])([H])C2([H])N([H])C(=O)C1([H])N(C(=O)C([H])(N([H])C(=O)C([H])(N([H])C([H])([H])[H])C([H])([H])[H])C(C([H])([H])[H])(C([H])([H])[H])C([H])([H])[H])C([H])([H])c2c([H])c(OC([H])([H])C([H])([H])C([H])([H])Oc3c([H])c(N([H])[H])c([H])c(C([H])([H])N([H])C(=O)N4C([H])([H])C([H])([H])C([H])([H])C([H])(n5nc(-c6c([H])c([H])c(Oc7c([H])c([H])c(F)c([H])c7F)c([H])c6[H])c(C(=O)N([H])[H])c5N([H])[H])C4([H])[H])c3[H])c([H])c([H])c2C1([H])[H]

$$$$
78:0:0
     RDKit          3D

 92100  0  0  1  0  0  0  0  0999 V2000
  -29.6140  -18.6890   20.6480 C   0  0  0  0  0  3  0  0  0  0  0  0
  -30.4240  -17.4600   18.7260 C   0  0  0  0  0  3  0  0  0  0  0  0
  -30.0380  -19.8830   18.5830 C   0  0  0  0  0  3  0  0  0  0  0  0
  -30.0170  -17.4100   20.0780 C   0  0  0  0  0  0  0  0  0  0  0  0
  -29.6070  -19.9510   19.9300 C   0  0  0  0  0  0  0  0  0  0  0  0
  -30.4410  -18.6660   18.0000 C   0  0  0  0  0  0  0  0  0  0  0  0
  -30.8550  -18.6530   16.7100 F   0  0  0  0  0  0  0  0  0  0  0  0
  -29.9570  -16.0410   20.8170 C   0  0  0  0  0  0  0  0  0  0  0  0
  -29.3230  -15.9900   21.9130 N   0  0  0  0  0  0  0  0  0  0  0  0
  -28.9230  -16.8910   22.1430 H   0  0  0  0  0  0  0  0  0  0  0  0
  -30.7120  -14.7510   20.2330 C   0  0  0  0  0  0  0  0  0  0  0  0
  -30.4610  -12.5400   19.1140 C   0  0  0  0  0  2  0  0  0  0  0  0
  -29.4950  -12.7050   17.9170 C   0  0  0  0  0  2  0  0  0  0  0  0
  -28.0250  -12.5510   18.3590 C   0  0  0  0  0  2  0  0  0  0  0  0
  -27.7000  -13.3530   19.6480 C   0  0  0  0  0  3  0  0  0  0  0  0
  -28.7800  -13.1230   20.7240 C   0  0  0  0  0  2  0  0  0  0  0  0
  -30.0740  -13.5280   20.1510 N   0  0  0  0  0  0  0  0  0  0  0  0
  -31.8510  -14.8820   19.7670 O   0  0  0  0  0  0  0  0  0  0  0  0
  -25.3120  -13.9310   20.3930 C   0  0  0  0  0  0  0  0  0  0  0  0
  -24.2580  -13.1500   20.7780 C   0  0  0  0  0  0  0  0  0  0  0  0
  -24.7310  -11.8020   20.7440 C   0  0  0  0  0  0  0  0  0  0  0  0
  -26.3620  -13.0600   20.1490 N   0  0  0  0  0  0  0  0  0  0  0  0
  -26.0180  -11.7730   20.4180 N   0  0  0  0  0  0  0  0  0  0  0  0
  -24.0180  -10.5350   20.9470 C   0  0  0  0  0  0  0  0  0  0  0  0
  -24.4570   -9.5810   21.8900 C   0  0  0  0  0  3  0  0  0  0  0  0
  -23.7410   -8.3810   22.0830 C   0  0  0  0  0  3  0  0  0  0  0  0
  -22.5700   -8.1240   21.3320 C   0  0  0  0  0  0  0  0  0  0  0  0
  -22.1470   -9.0680   20.3780 C   0  0  0  0  0  3  0  0  0  0  0  0
  -22.8650  -10.2600   20.1850 C   0  0  0  0  0  3  0  0  0  0  0  0
  -21.8260   -6.9730   21.4310 O   0  0  0  0  0  0  0  0  0  0  0  0
  -21.7680   -6.2530   22.5960 C   0  0  0  0  0  0  0  0  0  0  0  0
  -21.3080   -6.8240   23.8040 C   0  0  0  0  0  3  0  0  0  0  0  0
  -21.2000   -6.0290   24.9620 C   0  0  0  0  0  3  0  0  0  0  0  0
  -21.5390   -4.6630   24.9130 C   0  0  0  0  0  0  0  0  0  0  0  0
  -21.9910   -4.0920   23.7100 C   0  0  0  0  0  3  0  0  0  0  0  0
  -22.1030   -4.8840   22.5550 C   0  0  0  0  0  0  0  0  0  0  0  0
  -22.5190   -4.3250   21.3940 F   0  0  0  0  0  0  0  0  0  0  0  0
  -21.4270   -3.8960   26.0230 F   0  0  0  0  0  0  0  0  0  0  0  0
  -22.8610  -13.6170   21.0660 C   0  0  0  0  0  0  0  0  0  0  0  0
  -22.1520  -12.9200   21.9470 N   0  0  0  0  0  0  0  0  0  0  0  0
  -22.4080  -14.6360   20.5480 O   0  0  0  0  0  0  0  0  0  0  0  0
  -22.5290  -12.0940   22.3860 H   0  0  0  0  0  0  0  0  0  0  0  0
  -21.2180  -13.2210   22.1880 H   0  0  0  0  0  0  0  0  0  0  0  0
  -25.4610  -15.3010   20.2020 N   0  0  0  0  0  0  0  0  0  0  0  0
  -24.6930  -15.9530   20.3140 H   0  0  0  0  0  0  0  0  0  0  0  0
  -26.3150  -15.7460   19.8900 H   0  0  0  0  0  0  0  0  0  0  0  0
  -29.2380  -21.1870   20.5370 O   0  0  0  0  0  0  0  0  0  0  0  0
  -28.8820  -22.3990   19.7450 C   0  0  0  0  0  2  0  0  0  0  0  0
  -29.6540  -23.9890   21.5630 C   0  0  0  0  0  2  0  0  0  0  0  0
  -28.9010  -23.8070   20.4680 C   0  0  0  0  0  0  0  0  0  0  0  0
  -28.0260  -24.9860   19.8820 C   0  0  0  0  0  2  0  0  0  0  0  0
  -28.2510  -26.4130   20.3010 O   0  0  0  0  0  0  0  0  0  0  0  0
  -24.6200  -31.9610   23.2560 C   0  0  0  0  0  0  0  0  0  0  0  0
  -27.1690  -27.3220   20.2200 C   0  0  0  0  0  0  0  0  0  0  0  0
  -23.4020  -30.5640   21.6260 C   0  0  0  0  0  3  0  0  0  0  0  0
  -24.8360  -28.9970   20.2030 C   0  0  0  0  0  0  0  0  0  0  0  0
  -25.9490  -30.8450   21.4470 C   0  0  0  0  0  2  0  0  0  0  0  0
  -26.0120  -29.4580   20.8080 C   0  0  0  0  0  0  0  0  0  0  0  0
  -27.1780  -28.6270   20.8180 C   0  0  0  0  0  3  0  0  0  0  0  0
  -25.9750  -26.9460   19.5610 C   0  0  0  0  0  3  0  0  0  0  0  0
  -24.8210  -27.7480   19.5730 C   0  0  0  0  0  3  0  0  0  0  0  0
  -23.6090  -29.8850   20.2470 C   0  0  0  0  0  2  0  0  0  0  0  0
  -24.6760  -31.1420   22.1650 N   0  0  0  0  0  0  0  0  0  0  0  0
  -23.5380  -32.2550   23.7870 O   0  0  0  0  0  0  0  0  0  0  0  0
  -22.7310  -29.5580   22.5920 C   0  0  0  0  0  0  0  0  0  0  0  0
  -21.4040  -29.3830   22.4640 N   0  0  0  0  0  0  0  0  0  0  0  0
  -23.4030  -28.9360   23.4190 O   0  0  0  0  0  0  0  0  0  0  0  0
  -20.9180  -29.9410   21.7750 H   0  0  0  0  0  0  0  0  0  0  0  0
  -18.0180  -28.2130   22.9670 C   0  0  0  0  0  0  0  0  0  0  0  0
  -20.5780  -28.4580   23.2410 C   0  0  0  0  0  3  0  0  0  0  0  0
  -20.6710  -27.0210   22.6800 C   0  0  0  0  0  2  0  0  0  0  0  0
  -19.5700  -26.6960   21.6660 C   0  0  0  0  0  2  0  0  0  0  0  0
  -18.1880  -26.8570   22.3030 C   0  0  0  0  0  2  0  0  0  0  0  0
  -19.1410  -28.9720   23.3920 C   0  0  0  0  0  0  0  0  0  0  0  0
  -18.9280  -30.2410   23.9710 C   0  0  0  0  0  3  0  0  0  0  0  0
  -17.6260  -30.7520   24.1280 C   0  0  0  0  0  3  0  0  0  0  0  0
  -16.5180  -29.9890   23.7190 C   0  0  0  0  0  3  0  0  0  0  0  0
  -16.7150  -28.7210   23.1440 C   0  0  0  0  0  3  0  0  0  0  0  0
  -25.9070  -32.5870   23.8720 C   0  0  0  0  0  3  0  0  0  0  0  0
  -25.6120  -33.9890   24.1960 N   0  0  0  0  0  0  0  0  0  0  0  0
  -25.9450  -35.0350   23.4280 C   0  0  0  0  0  0  0  0  0  0  0  0
  -26.6020  -34.9200   22.3910 O   0  0  0  0  0  0  0  0  0  0  0  0
  -25.0250  -34.1550   25.0020 H   0  0  0  0  0  0  0  0  0  0  0  0
  -24.2260  -36.8390   23.0830 C   0  0  0  0  0  1  0  0  0  0  0  0
  -25.4740  -36.4300   23.8820 C   0  0  0  0  0  3  0  0  0  0  0  0
  -27.6220  -37.3050   24.6870 C   0  0  0  0  0  1  0  0  0  0  0  0
  -26.5120  -37.4740   23.7530 N   0  0  0  0  0  0  0  0  0  0  0  0
  -26.1130  -38.3980   23.8980 H   0  0  0  0  0  0  0  0  0  0  0  0
  -26.4220  -31.8170   25.1510 C   0  0  1  0  0  0  0  0  0  0  0  0
  -25.3280  -31.5880   26.2200 C   0  0  0  0  0  1  0  0  0  0  0  0
  -26.9990  -30.4360   24.7650 C   0  0  0  0  0  1  0  0  0  0  0  0
  -27.5760  -32.6090   25.8100 C   0  0  0  0  0  1  0  0  0  0  0  0
  2  4  2  0
  3  5  1  0
  4  1  1  0
  4  8  1  0
  5 47  1  0
  5  1  2  0
  6  3  2  0
  6  2  1  0
  7  6  1  0
  8  9  2  0
  9 10  1  0
 11  8  1  0
 12 17  1  0
 13 14  1  0
 13 12  1  0
 15 14  1  0
 15 22  1  0
 15 16  1  0
 17 11  1  0
 17 16  1  0
 18 11  2  0
 19 20  2  0
 20 39  1  0
 21 20  1  0
 21 24  1  0
 22 19  1  0
 22 23  1  0
 23 21  2  0
 24 25  1  0
 25 26  2  0
 27 30  1  0
 27 26  1  0
 28 27  2  0
 29 28  1  0
 29 24  2  0
 30 31  1  0
 31 32  1  0
 32 33  2  0
 34 33  1  0
 34 38  1  0
 35 34  2  0
 36 31  2  0
 36 35  1  0
 37 36  1  0
 39 40  1  0
 40 43  1  0
 40 42  1  0
 41 39  2  0
 44 45  1  0
 44 19  1  0
 46 44  1  0
 48 50  1  0
 48 47  1  0
 50 49  2  0
 51 52  1  0
 51 50  1  0
 53 64  2  0
 54 52  1  0
 54 59  1  0
 55 63  1  0
 55 65  1  0
 56 62  1  0
 56 58  1  0
 57 63  1  0
 58 59  2  0
 58 57  1  0
 60 61  1  0
 60 54  2  0
 61 56  2  0
 62 55  1  0
 63 53  1  0
 65 67  2  0
 66 65  1  0
 68 66  1  0
 69 78  2  0
 69 74  1  0
 70 66  1  0
 70 74  1  0
 71 70  1  0
 72 73  1  0
 72 71  1  0
 73 69  1  0
 74 75  2  0
 75 76  1  0
 77 76  2  0
 78 77  1  0
 79 53  1  0
 79 80  1  0
 79 89  1  0
 80 83  1  0
 81 85  1  0
 81 80  1  0
 82 81  2  0
 85 84  1  0
 87 85  1  0
 87 88  1  0
 87 86  1  0
 89 92  1  1
 89 90  1  0
 91 89  1  0
M  ISO  4   8 100  11 100  51 101  52 101
M  END
>  <TORSDO>  (78) 
F 21

>  <SCORE>  (78) 
-13.333

>  <name>  (78) 
78

>  <ligand_id>  (78) 
78

>  <original_smiles>  (78) 
[H]N=C(C(=O)N1C([H])([H])C([H])([H])C([H])([H])C([H])(n2nc(-c3c([H])c([H])c(Oc4c([H])c([H])c(F)c([H])c4F)c([H])c3[H])c(C(=O)N([H])[H])c2N([H])[H])C1([H])[H])c1c([H])c(F)c([H])c(OC([H])([H])C(=C([H])[H])C([H])([H])Oc2c([H])c([H])c3c(c2[H])C([H])([H])N(C(=O)C([H])(N([H])C(=O)C([H])(N([H])C([H])([H])[H])C([H])([H])[H])C(C([H])([H])[H])(C([H])([H])[H])C([H])([H])[H])C([H])(C(=O)N([H])C2([H])c4c([H])c([H])c([H])c([H])c4C([H])([H])C([H])([H])C2([H])[H])C3([H])[H])c1[H]

>  <smiles>  (78) 
[H]N=C(C(=O)N1C([H])([H])C([H])([H])C([H])([H])C([H])(n2nc(-c3c([H])c([H])c(Oc4c([H])c([H])c(F)c([H])c4F)c([H])c3[H])c(C(=O)N([H])[H])c2N([H])[H])C1([H])[H])c1c([H])c(F)c([H])c(OC([H])([H])C(=C([H])[H])C([H])([H])Oc2c([H])c([H])c3c(c2[H])C([H])([H])N(C(=O)C([H])(N([H])C(=O)C([H])(N([H])C([H])([H])[H])C([H])([H])[H])C(C([H])([H])[H])(C([H])([H])[H])C([H])([H])[H])C([H])(C(=O)N([H])C2([H])c4c([H])c([H])c([H])c([H])c4C([H])([H])C([H])([H])C2([H])[H])C3([H])[H])c1[H]

$$$$
79:0:0
     RDKit          3D

 92100  0  0  1  0  0  0  0  0999 V2000
  -28.5770  -21.1320   20.6700 C   0  0  0  0  0  2  0  0  0  0  0  0
  -29.2310  -18.4900   20.5980 C   0  0  0  0  0  3  0  0  0  0  0  0
  -30.8080  -20.1710   19.8060 C   0  0  0  0  0  3  0  0  0  0  0  0
  -31.4050  -17.7840   19.8020 C   0  0  0  0  0  3  0  0  0  0  0  0
  -29.5360  -19.8990   20.3440 C   0  0  0  0  0  0  0  0  0  0  0  0
  -30.1500  -17.3860   20.3330 C   0  0  0  0  0  0  0  0  0  0  0  0
  -31.7230  -19.1340   19.5440 C   0  0  0  0  0  0  0  0  0  0  0  0
  -32.9400  -19.4420   19.0340 F   0  0  0  0  0  0  0  0  0  0  0  0
  -30.5880  -14.7730   20.3410 C   0  0  0  0  0  0  0  0  0  0  0  0
  -30.3650  -12.4940   19.3390 C   0  0  0  0  0  2  0  0  0  0  0  0
  -29.4270  -12.5680   18.1140 C   0  0  0  0  0  2  0  0  0  0  0  0
  -27.9590  -12.4000   18.5460 C   0  0  0  0  0  2  0  0  0  0  0  0
  -27.5900  -13.2870   19.7660 C   0  0  0  0  0  3  0  0  0  0  0  0
  -28.6510  -13.2070   20.8840 C   0  0  0  0  0  2  0  0  0  0  0  0
  -29.9430  -13.5560   20.2850 N   0  0  0  0  0  0  0  0  0  0  0  0
  -31.7790  -14.8180   20.0260 O   0  0  0  0  0  0  0  0  0  0  0  0
  -29.8410  -15.9340   20.5620 N   0  0  0  0  0  0  0  0  0  0  0  0
  -28.8920  -15.7450   20.8480 H   0  0  0  0  0  0  0  0  0  0  0  0
  -25.2040  -13.8730   20.4980 C   0  0  0  0  0  0  0  0  0  0  0  0
  -24.1410  -13.0980   20.8730 C   0  0  0  0  0  0  0  0  0  0  0  0
  -24.6090  -11.7480   20.8460 C   0  0  0  0  0  0  0  0  0  0  0  0
  -26.2480  -12.9960   20.2610 N   0  0  0  0  0  0  0  0  0  0  0  0
  -25.8980  -11.7130   20.5360 N   0  0  0  0  0  0  0  0  0  0  0  0
  -23.8840  -10.4840   21.0410 C   0  0  0  0  0  0  0  0  0  0  0  0
  -24.3250   -9.5140   21.9680 C   0  0  0  0  0  3  0  0  0  0  0  0
  -23.6020   -8.3170   22.1510 C   0  0  0  0  0  3  0  0  0  0  0  0
  -22.4220   -8.0800   21.4060 C   0  0  0  0  0  0  0  0  0  0  0  0
  -22.0010   -9.0370   20.4660 C   0  0  0  0  0  3  0  0  0  0  0  0
  -22.7250  -10.2260   20.2830 C   0  0  0  0  0  3  0  0  0  0  0  0
  -21.6680   -6.9350   21.4990 O   0  0  0  0  0  0  0  0  0  0  0  0
  -21.6390   -6.1830   22.6470 C   0  0  0  0  0  0  0  0  0  0  0  0
  -21.2380   -6.7300   23.8850 C   0  0  0  0  0  3  0  0  0  0  0  0
  -21.1560   -5.9060   25.0250 C   0  0  0  0  0  3  0  0  0  0  0  0
  -21.4620   -4.5360   24.9280 C   0  0  0  0  0  0  0  0  0  0  0  0
  -21.8550   -3.9880   23.6930 C   0  0  0  0  0  3  0  0  0  0  0  0
  -21.9390   -4.8090   22.5560 C   0  0  0  0  0  0  0  0  0  0  0  0
  -22.2980   -4.2710   21.3650 F   0  0  0  0  0  0  0  0  0  0  0  0
  -21.3750   -3.7420   26.0210 F   0  0  0  0  0  0  0  0  0  0  0  0
  -22.7430  -13.5710   21.1450 C   0  0  0  0  0  0  0  0  0  0  0  0
  -22.0170  -12.8770   22.0130 N   0  0  0  0  0  0  0  0  0  0  0  0
  -22.3010  -14.5940   20.6200 O   0  0  0  0  0  0  0  0  0  0  0  0
  -22.3860  -12.0490   22.4570 H   0  0  0  0  0  0  0  0  0  0  0  0
  -21.0790  -13.1760   22.2390 H   0  0  0  0  0  0  0  0  0  0  0  0
  -25.3620  -15.2440   20.3120 N   0  0  0  0  0  0  0  0  0  0  0  0
  -24.5930  -15.8950   20.4230 H   0  0  0  0  0  0  0  0  0  0  0  0
  -26.1960  -15.6800   19.9390 H   0  0  0  0  0  0  0  0  0  0  0  0
  -28.3820  -23.7660   20.5450 C   0  0  0  0  0  0  0  0  0  0  0  0
  -28.7990  -22.5270   20.0740 N   0  0  0  0  0  0  0  0  0  0  0  0
  -27.9060  -23.8670   21.6770 O   0  0  0  0  0  0  0  0  0  0  0  0
  -29.1910  -22.5370   19.1420 H   0  0  0  0  0  0  0  0  0  0  0  0
  -28.4590  -25.0820   19.6290 C   0  0  0  0  0  2  0  0  0  0  0  0
  -28.3420  -26.4390   20.2720 O   0  0  0  0  0  0  0  0  0  0  0  0
  -24.6040  -31.8810   23.2410 C   0  0  0  0  0  0  0  0  0  0  0  0
  -27.2110  -27.2840   20.1860 C   0  0  0  0  0  0  0  0  0  0  0  0
  -23.4000  -30.4770   21.6060 C   0  0  0  0  0  3  0  0  0  0  0  0
  -24.8480  -28.9230   20.1750 C   0  0  0  0  0  0  0  0  0  0  0  0
  -25.9390  -30.7880   21.4180 C   0  0  0  0  0  2  0  0  0  0  0  0
  -26.0170  -29.4050   20.7750 C   0  0  0  0  0  0  0  0  0  0  0  0
  -27.1960  -28.5940   20.7730 C   0  0  0  0  0  3  0  0  0  0  0  0
  -26.0140  -26.8620   19.5640 C   0  0  0  0  0  3  0  0  0  0  0  0
  -24.8520  -27.6610   19.5590 C   0  0  0  0  0  3  0  0  0  0  0  0
  -23.6110  -29.7990   20.2260 C   0  0  0  0  0  2  0  0  0  0  0  0
  -24.6670  -31.0680   22.1450 N   0  0  0  0  0  0  0  0  0  0  0  0
  -23.5220  -32.1580   23.7780 O   0  0  0  0  0  0  0  0  0  0  0  0
  -22.7390  -29.4640   22.5710 C   0  0  0  0  0  0  0  0  0  0  0  0
  -21.4120  -29.2890   22.4510 N   0  0  0  0  0  0  0  0  0  0  0  0
  -23.4190  -28.8380   23.3870 O   0  0  0  0  0  0  0  0  0  0  0  0
  -20.9210  -29.8470   21.7650 H   0  0  0  0  0  0  0  0  0  0  0  0
  -18.0360  -28.0890   22.9620 C   0  0  0  0  0  0  0  0  0  0  0  0
  -20.5950  -28.3530   23.2240 C   0  0  0  0  0  3  0  0  0  0  0  0
  -20.6970  -26.9210   22.6520 C   0  0  0  0  0  2  0  0  0  0  0  0
  -19.5930  -26.5940   21.6410 C   0  0  0  0  0  2  0  0  0  0  0  0
  -18.2130  -26.7390   22.2870 C   0  0  0  0  0  2  0  0  0  0  0  0
  -19.1550  -28.8530   23.3890 C   0  0  0  0  0  0  0  0  0  0  0  0
  -18.9370  -30.1150   23.9810 C   0  0  0  0  0  3  0  0  0  0  0  0
  -17.6330  -30.6170   24.1480 C   0  0  0  0  0  3  0  0  0  0  0  0
  -16.5280  -29.8510   23.7380 C   0  0  0  0  0  3  0  0  0  0  0  0
  -16.7300  -28.5890   23.1510 C   0  0  0  0  0  3  0  0  0  0  0  0
  -25.8860  -32.5180   23.8600 C   0  0  0  0  0  3  0  0  0  0  0  0
  -26.4060  -31.7490   25.1380 C   0  0  1  0  0  0  0  0  0  0  0  0
  -25.3140  -31.5140   26.2090 C   0  0  0  0  0  1  0  0  0  0  0  0
  -26.9850  -30.3690   24.7470 C   0  0  0  0  0  1  0  0  0  0  0  0
  -27.5620  -32.5420   25.7930 C   0  0  0  0  0  1  0  0  0  0  0  0
  -25.5730  -33.9160   24.1910 N   0  0  0  0  0  0  0  0  0  0  0  0
  -25.9040  -34.9700   23.4330 C   0  0  0  0  0  0  0  0  0  0  0  0
  -26.5720  -34.8670   22.4000 O   0  0  0  0  0  0  0  0  0  0  0  0
  -24.9720  -34.0670   24.9870 H   0  0  0  0  0  0  0  0  0  0  0  0
  -24.1730  -36.7620   23.0870 C   0  0  0  0  0  1  0  0  0  0  0  0
  -25.4190  -36.3590   23.8930 C   0  0  0  0  0  3  0  0  0  0  0  0
  -27.5580  -37.2450   24.7100 C   0  0  0  0  0  1  0  0  0  0  0  0
  -26.4510  -37.4120   23.7730 N   0  0  0  0  0  0  0  0  0  0  0  0
  -26.0460  -38.3320   23.9220 H   0  0  0  0  0  0  0  0  0  0  0  0
  3  5  2  0
  4  6  1  0
  5  2  1  0
  5  1  1  0
  6 17  1  0
  6  2  2  0
  7  4  2  0
  7  3  1  0
  8  7  1  0
  9 17  1  0
 10 15  1  0
 11 12  1  0
 11 10  1  0
 13 12  1  0
 13 22  1  0
 13 14  1  0
 15  9  1  0
 15 14  1  0
 16  9  2  0
 17 18  1  0
 19 20  2  0
 20 39  1  0
 21 20  1  0
 21 24  1  0
 22 19  1  0
 22 23  1  0
 23 21  2  0
 24 25  1  0
 25 26  2  0
 27 30  1  0
 27 26  1  0
 28 27  2  0
 29 28  1  0
 29 24  2  0
 30 31  1  0
 31 32  1  0
 32 33  2  0
 34 33  1  0
 34 38  1  0
 35 34  2  0
 36 31  2  0
 36 35  1  0
 37 36  1  0
 39 40  1  0
 40 43  1  0
 40 42  1  0
 41 39  2  0
 44 45  1  0
 44 19  1  0
 46 44  1  0
 47 49  2  0
 48 47  1  0
 48  1  1  0
 50 48  1  0
 51 52  1  0
 51 47  1  0
 53 64  2  0
 54 52  1  0
 54 59  1  0
 55 63  1  0
 55 65  1  0
 56 62  1  0
 56 58  1  0
 57 63  1  0
 58 57  1  0
 59 58  2  0
 60 54  2  0
 61 60  1  0
 61 56  2  0
 62 55  1  0
 63 53  1  0
 65 67  2  0
 66 65  1  0
 68 66  1  0
 69 78  2  0
 69 74  1  0
 70 66  1  0
 70 74  1  0
 71 70  1  0
 72 73  1  0
 72 71  1  0
 73 69  1  0
 74 75  2  0
 75 76  1  0
 77 76  2  0
 78 77  1  0
 79 53  1  0
 79 84  1  0
 79 80  1  0
 80 83  1  1
 80 81  1  0
 82 80  1  0
 84 87  1  0
 85 89  1  0
 85 84  1  0
 86 85  2  0
 89 88  1  0
 91 89  1  0
 91 92  1  0
 91 90  1  0
M  ISO  4   9 100  17 100  51 101  52 101
M  END
>  <TORSDO>  (79) 
F 19

>  <SCORE>  (79) 
-14.315

>  <name>  (79) 
79

>  <ligand_id>  (79) 
79

>  <original_smiles>  (79) 
[H]c1c([H])c([H])c2c(c1[H])C([H])([H])C([H])([H])C([H])([H])C2([H])N([H])C(=O)C1([H])N(C(=O)C([H])(N([H])C(=O)C([H])(N([H])C([H])([H])[H])C([H])([H])[H])C(C([H])([H])[H])(C([H])([H])[H])C([H])([H])[H])C([H])([H])c2c([H])c(OC([H])([H])C(=O)N([H])C([H])([H])c3c([H])c(F)c([H])c(N([H])C(=O)N4C([H])([H])C([H])([H])C([H])([H])C([H])(n5nc(-c6c([H])c([H])c(Oc7c([H])c([H])c(F)c([H])c7F)c([H])c6[H])c(C(=O)N([H])[H])c5N([H])[H])C4([H])[H])c3[H])c([H])c([H])c2C1([H])[H]

>  <smiles>  (79) 
[H]c1c([H])c([H])c2c(c1[H])C([H])([H])C([H])([H])C([H])([H])C2([H])N([H])C(=O)C1([H])N(C(=O)C([H])(N([H])C(=O)C([H])(N([H])C([H])([H])[H])C([H])([H])[H])C(C([H])([H])[H])(C([H])([H])[H])C([H])([H])[H])C([H])([H])c2c([H])c(OC([H])([H])C(=O)N([H])C([H])([H])c3c([H])c(F)c([H])c(N([H])C(=O)N4C([H])([H])C([H])([H])C([H])([H])C([H])(n5nc(-c6c([H])c([H])c(Oc7c([H])c([H])c(F)c([H])c7F)c([H])c6[H])c(C(=O)N([H])[H])c5N([H])[H])C4([H])[H])c3[H])c([H])c([H])c2C1([H])[H]

$$$$
80:0:0
     RDKit          3D

 95104  0  0  1  0  0  0  0  0999 V2000
  -28.0990  -17.6290   19.7590 C   0  0  0  0  0  3  0  0  0  0  0  0
  -26.9930  -18.4330   19.4500 C   0  0  0  0  0  3  0  0  0  0  0  0
  -29.3780  -19.6330   20.3450 C   0  0  0  0  0  3  0  0  0  0  0  0
  -29.2900  -18.1990   20.2490 C   0  0  0  0  0  0  0  0  0  0  0  0
  -28.2470  -20.4810   20.0760 C   0  0  0  0  0  0  0  0  0  0  0  0
  -27.0440  -19.8230   19.6610 C   0  0  0  0  0  0  0  0  0  0  0  0
  -28.1800  -24.3210   20.4150 C   0  0  0  0  0  0  0  0  0  0  0  0
  -28.0130  -25.6660   20.2020 C   0  0  0  0  0  3  0  0  0  0  0  0
  -28.0420  -23.7860   21.8260 C   0  0  0  0  0  2  0  0  0  0  0  0
  -28.3980  -23.0750   19.5060 C   0  0  0  0  0  2  0  0  0  0  0  0
  -27.7090  -22.3000   21.6770 C   0  0  0  0  0  2  0  0  0  0  0  0
  -28.2630  -21.8830   20.3910 N   0  0  0  0  0  0  0  0  0  0  0  0
  -27.9880  -26.4770   19.0670 O   0  0  0  0  0  0  0  0  0  0  0  0
  -24.5120  -31.5630   22.7790 C   0  0  0  0  0  0  0  0  0  0  0  0
  -26.9540  -27.3970   19.1150 C   0  0  0  0  0  0  0  0  0  0  0  0
  -23.2270  -30.3010   21.0920 C   0  0  0  0  0  3  0  0  0  0  0  0
  -24.5930  -28.9370   19.4230 C   0  0  0  0  0  0  0  0  0  0  0  0
  -25.7400  -30.6860   20.7820 C   0  0  0  0  0  2  0  0  0  0  0  0
  -25.7920  -29.3870   19.9880 C   0  0  0  0  0  0  0  0  0  0  0  0
  -26.9850  -28.6310   19.8290 C   0  0  0  0  0  3  0  0  0  0  0  0
  -25.7440  -26.9940   18.5230 C   0  0  0  0  0  3  0  0  0  0  0  0
  -24.5690  -27.7480   18.6670 C   0  0  0  0  0  3  0  0  0  0  0  0
  -23.3580  -29.7820   19.6380 C   0  0  0  0  0  2  0  0  0  0  0  0
  -24.5160  -30.8580   21.6090 N   0  0  0  0  0  0  0  0  0  0  0  0
  -23.4630  -31.7790   23.3980 O   0  0  0  0  0  0  0  0  0  0  0  0
  -22.6360  -29.1830   21.9860 C   0  0  0  0  0  0  0  0  0  0  0  0
  -21.3030  -29.0230   21.9540 N   0  0  0  0  0  0  0  0  0  0  0  0
  -23.3760  -28.4730   22.6850 O   0  0  0  0  0  0  0  0  0  0  0  0
  -20.7760  -29.6020   21.3150 H   0  0  0  0  0  0  0  0  0  0  0  0
  -17.9460  -27.8710   22.5970 C   0  0  0  0  0  0  0  0  0  0  0  0
  -20.5220  -28.0450   22.7130 C   0  0  0  0  0  3  0  0  0  0  0  0
  -20.5300  -26.6790   21.9840 C   0  0  0  0  0  2  0  0  0  0  0  0
  -19.3980  -26.6210   20.9540 C   0  0  0  0  0  2  0  0  0  0  0  0
  -18.0600  -26.6320   21.7190 C   0  0  0  0  0  2  0  0  0  0  0  0
  -19.1080  -28.5550   23.0300 C   0  0  0  0  0  0  0  0  0  0  0  0
  -18.9510  -29.7550   23.7590 C   0  0  0  0  0  3  0  0  0  0  0  0
  -17.6720  -30.2540   24.0850 C   0  0  0  0  0  3  0  0  0  0  0  0
  -16.5270  -29.5520   23.6760 C   0  0  0  0  0  3  0  0  0  0  0  0
  -16.6700  -28.3720   22.9240 C   0  0  0  0  0  3  0  0  0  0  0  0
  -25.8350  -32.1480   23.3750 C   0  0  0  0  0  3  0  0  0  0  0  0
  -26.4800  -31.2100   24.4690 C   0  0  1  0  0  0  0  0  0  0  0  0
  -25.4960  -30.7870   25.5840 C   0  0  0  0  0  1  0  0  0  0  0  0
  -27.0560  -29.9290   23.8220 C   0  0  0  0  0  1  0  0  0  0  0  0
  -27.6650  -31.9380   25.1390 C   0  0  0  0  0  1  0  0  0  0  0  0
  -25.5210  -33.4680   23.9410 N   0  0  0  0  0  0  0  0  0  0  0  0
  -25.7950  -34.6380   23.3460 C   0  0  0  0  0  0  0  0  0  0  0  0
  -26.4040  -34.7120   22.2750 O   0  0  0  0  0  0  0  0  0  0  0  0
  -24.9790  -33.4810   24.7930 H   0  0  0  0  0  0  0  0  0  0  0  0
  -24.0220  -36.4170   23.3810 C   0  0  0  0  0  1  0  0  0  0  0  0
  -25.3150  -35.9170   24.0450 C   0  0  0  0  0  3  0  0  0  0  0  0
  -27.4790  -36.7230   24.8860 C   0  0  0  0  0  1  0  0  0  0  0  0
  -26.3190  -37.0040   24.0430 N   0  0  0  0  0  0  0  0  0  0  0  0
  -25.9040  -37.8790   24.3570 H   0  0  0  0  0  0  0  0  0  0  0  0
  -25.8550  -20.5200   19.4590 N   0  0  0  0  0  0  0  0  0  0  0  0
  -25.8390  -21.4120   19.9290 H   0  0  0  0  0  0  0  0  0  0  0  0
  -25.0210  -19.9790   19.6590 H   0  0  0  0  0  0  0  0  0  0  0  0
  -30.4320  -17.2520   20.7020 C   0  0  0  0  0  2  0  0  0  0  0  0
  -30.8660  -14.7320   20.4870 C   0  0  0  0  0  0  0  0  0  0  0  0
  -30.6640  -12.5170   19.4080 C   0  0  0  0  0  2  0  0  0  0  0  0
  -29.7520  -12.5990   18.1640 C   0  0  0  0  0  2  0  0  0  0  0  0
  -28.2670  -12.4550   18.5520 C   0  0  0  0  0  2  0  0  0  0  0  0
  -27.8700  -13.3460   19.7530 C   0  0  0  0  0  3  0  0  0  0  0  0
  -28.8820  -13.2370   20.9160 C   0  0  0  0  0  2  0  0  0  0  0  0
  -30.2160  -13.5330   20.3750 N   0  0  0  0  0  0  0  0  0  0  0  0
  -32.0450  -14.8730   20.1670 O   0  0  0  0  0  0  0  0  0  0  0  0
  -30.0780  -15.8010   20.7790 N   0  0  0  0  0  0  0  0  0  0  0  0
  -29.1210  -15.5830   21.0090 H   0  0  0  0  0  0  0  0  0  0  0  0
  -25.4510  -13.9420   20.3680 C   0  0  0  0  0  0  0  0  0  0  0  0
  -24.3750  -13.1690   20.7030 C   0  0  0  0  0  0  0  0  0  0  0  0
  -24.8460  -11.8230   20.7240 C   0  0  0  0  0  0  0  0  0  0  0  0
  -26.5100  -13.0680   20.1950 N   0  0  0  0  0  0  0  0  0  0  0  0
  -26.1490  -11.7910   20.4730 N   0  0  0  0  0  0  0  0  0  0  0  0
  -24.1220  -10.5610   20.9060 C   0  0  0  0  0  0  0  0  0  0  0  0
  -24.5380   -9.6060   21.8590 C   0  0  0  0  0  3  0  0  0  0  0  0
  -23.8150   -8.4070   22.0300 C   0  0  0  0  0  3  0  0  0  0  0  0
  -22.6620   -8.1540   21.2490 C   0  0  0  0  0  0  0  0  0  0  0  0
  -22.2710   -9.0970   20.2820 C   0  0  0  0  0  3  0  0  0  0  0  0
  -22.9940  -10.2880   20.1080 C   0  0  0  0  0  3  0  0  0  0  0  0
  -21.9080   -7.0080   21.3290 O   0  0  0  0  0  0  0  0  0  0  0  0
  -21.8540   -6.2610   22.4790 C   0  0  0  0  0  0  0  0  0  0  0  0
  -21.4090   -6.8070   23.7040 C   0  0  0  0  0  3  0  0  0  0  0  0
  -21.3060   -5.9870   24.8460 C   0  0  0  0  0  3  0  0  0  0  0  0
  -21.6300   -4.6200   24.7630 C   0  0  0  0  0  0  0  0  0  0  0  0
  -22.0650   -4.0710   23.5430 C   0  0  0  0  0  3  0  0  0  0  0  0
  -22.1740   -4.8910   22.4050 C   0  0  0  0  0  0  0  0  0  0  0  0
  -22.5720   -4.3510   21.2280 F   0  0  0  0  0  0  0  0  0  0  0  0
  -21.5260   -3.8290   25.8570 F   0  0  0  0  0  0  0  0  0  0  0  0
  -22.9650  -13.6440   20.9030 C   0  0  0  0  0  0  0  0  0  0  0  0
  -22.2110  -12.9640   21.7600 N   0  0  0  0  0  0  0  0  0  0  0  0
  -22.5380  -14.6500   20.3330 O   0  0  0  0  0  0  0  0  0  0  0  0
  -22.5660  -12.1480   22.2380 H   0  0  0  0  0  0  0  0  0  0  0  0
  -21.2630  -13.2650   21.9340 H   0  0  0  0  0  0  0  0  0  0  0  0
  -25.6120  -15.3070   20.1660 N   0  0  0  0  0  0  0  0  0  0  0  0
  -24.8540  -15.9730   20.2470 H   0  0  0  0  0  0  0  0  0  0  0  0
  -26.4760  -15.7410   19.8830 H   0  0  0  0  0  0  0  0  0  0  0  0
  1  4  1  0
  2  6  1  0
  2  1  2  0
  4  3  2  0
  4 57  1  0
  5  3  1  0
  5 12  1  0
  6  5  2  0
  7  9  1  0
  8  7  2  0
 10 12  1  0
 10  7  1  0
 11  9  1  0
 12 11  1  0
 13 15  1  0
 13  8  1  0
 14 25  2  0
 15 20  1  0
 16 24  1  0
 16 26  1  0
 17 23  1  0
 17 19  1  0
 18 24  1  0
 19 18  1  0
 20 19  2  0
 21 22  1  0
 21 15  2  0
 22 17  2  0
 23 16  1  0
 24 14  1  0
 26 28  2  0
 27 26  1  0
 29 27  1  0
 30 39  2  0
 30 35  1  0
 31 27  1  0
 31 35  1  0
 32 31  1  0
 33 34  1  0
 33 32  1  0
 34 30  1  0
 35 36  2  0
 36 37  1  0
 38 37  2  0
 39 38  1  0
 40 14  1  0
 40 45  1  0
 40 41  1  0
 41 44  1  1
 41 42  1  0
 43 41  1  0
 45 48  1  0
 46 45  1  0
 46 50  1  0
 47 46  2  0
 50 49  1  0
 52 50  1  0
 52 53  1  0
 52 51  1  0
 54 56  1  0
 54  6  1  0
 54 55  1  0
 57 66  1  0
 58 66  1  0
 59 64  1  0
 60 61  1  0
 60 59  1  0
 62 61  1  0
 62 71  1  0
 62 63  1  0
 64 58  1  0
 64 63  1  0
 65 58  2  0
 66 67  1  0
 68 69  2  0
 69 70  1  0
 69 88  1  0
 70 73  1  0
 71 68  1  0
 71 72  1  0
 72 70  2  0
 73 74  1  0
 74 75  2  0
 76 79  1  0
 76 75  1  0
 77 76  2  0
 78 77  1  0
 78 73  2  0
 79 80  1  0
 80 81  1  0
 81 82  2  0
 83 82  1  0
 83 87  1  0
 84 83  2  0
 85 80  2  0
 85 84  1  0
 86 85  1  0
 88 89  1  0
 89 92  1  0
 89 91  1  0
 90 88  2  0
 93 94  1  0
 93 68  1  0
 95 93  1  0
M  ISO  4   8 101  13 101  58 100  66 100
M  END
>  <TORSDO>  (80) 
F 19

>  <SCORE>  (80) 
-12.430

>  <name>  (80) 
80

>  <ligand_id>  (80) 
80

>  <original_smiles>  (80) 
[H]C(Oc1c([H])c([H])c2c(c1[H])C([H])([H])N(C(=O)C([H])(N([H])C(=O)C([H])(N([H])C([H])([H])[H])C([H])([H])[H])C(C([H])([H])[H])(C([H])([H])[H])C([H])([H])[H])C([H])(C(=O)N([H])C1([H])c3c([H])c([H])c([H])c([H])c3C([H])([H])C([H])([H])C1([H])[H])C2([H])[H])=C1C([H])([H])N(c2c([H])c(C([H])([H])N([H])C(=O)N3C([H])([H])C([H])([H])C([H])([H])C([H])(n4nc(-c5c([H])c([H])c(Oc6c([H])c([H])c(F)c([H])c6F)c([H])c5[H])c(C(=O)N([H])[H])c4N([H])[H])C3([H])[H])c([H])c([H])c2N([H])[H])C([H])([H])C1([H])[H]

>  <smiles>  (80) 
[H]C(Oc1c([H])c([H])c2c(c1[H])C([H])([H])N(C(=O)C([H])(N([H])C(=O)C([H])(N([H])C([H])([H])[H])C([H])([H])[H])C(C([H])([H])[H])(C([H])([H])[H])C([H])([H])[H])C([H])(C(=O)N([H])C1([H])c3c([H])c([H])c([H])c([H])c3C([H])([H])C([H])([H])C1([H])[H])C2([H])[H])=C1C([H])([H])N(c2c([H])c(C([H])([H])N([H])C(=O)N3C([H])([H])C([H])([H])C([H])([H])C([H])(n4nc(-c5c([H])c([H])c(Oc6c([H])c([H])c(F)c([H])c6F)c([H])c5[H])c(C(=O)N([H])[H])c4N([H])[H])C3([H])[H])c([H])c([H])c2N([H])[H])C([H])([H])C1([H])[H]

$$$$
81:0:0
     RDKit          3D

 96105  0  0  1  0  0  0  0  0999 V2000
  -27.2960  -24.1380   21.1960 C   0  0  0  0  0  0  0  0  0  0  0  0
  -26.8110  -22.7060   21.3880 C   0  0  0  0  0  2  0  0  0  0  0  0
  -27.4480  -21.7190   20.3960 C   0  0  0  0  0  2  0  0  0  0  0  0
  -29.5600  -23.0430   20.7360 C   0  0  0  0  0  2  0  0  0  0  0  0
  -28.6390  -24.3480   20.4760 C   0  0  0  0  0  3  0  0  0  0  0  0
  -28.9150  -21.7000   20.4630 N   0  0  0  0  0  0  0  0  0  0  0  0
  -26.6260  -25.0760   21.6410 O   0  0  0  0  0  0  0  0  0  0  0  0
  -30.7870  -18.4940   21.5530 C   0  0  0  0  0  3  0  0  0  0  0  0
  -28.8780  -19.3220   19.7150 C   0  0  0  0  0  3  0  0  0  0  0  0
  -30.4650  -19.8880   21.4290 C   0  0  0  0  0  0  0  0  0  0  0  0
  -29.4640  -20.3530   20.5170 C   0  0  0  0  0  0  0  0  0  0  0  0
  -30.1490  -17.4840   20.7860 C   0  0  0  0  0  0  0  0  0  0  0  0
  -29.1880  -17.9270   19.8440 C   0  0  0  0  0  0  0  0  0  0  0  0
  -31.1520  -20.8470   22.3800 C   0  0  0  0  0  1  0  0  0  0  0  0
  -31.0060  -15.0530   20.5650 C   0  0  0  0  0  0  0  0  0  0  0  0
  -30.8710  -12.7940   19.5070 C   0  0  0  0  0  2  0  0  0  0  0  0
  -29.9550  -12.8730   18.2640 C   0  0  0  0  0  2  0  0  0  0  0  0
  -28.4760  -12.6930   18.6520 C   0  0  0  0  0  2  0  0  0  0  0  0
  -28.0710  -13.5830   19.8530 C   0  0  0  0  0  3  0  0  0  0  0  0
  -29.0910  -13.4570   21.0080 C   0  0  0  0  0  2  0  0  0  0  0  0
  -30.4150  -13.8160   20.4760 N   0  0  0  0  0  0  0  0  0  0  0  0
  -32.1480  -15.2460   20.1310 O   0  0  0  0  0  0  0  0  0  0  0  0
  -30.2500  -16.0570   21.1100 N   0  0  0  0  0  0  0  0  0  0  0  0
  -29.4070  -15.6930   21.5260 H   0  0  0  0  0  0  0  0  0  0  0  0
  -25.6640  -14.2090   20.4990 C   0  0  0  0  0  0  0  0  0  0  0  0
  -24.5750  -13.4410   20.8190 C   0  0  0  0  0  0  0  0  0  0  0  0
  -25.0220  -12.0850   20.7730 C   0  0  0  0  0  0  0  0  0  0  0  0
  -26.7030  -13.3160   20.2870 N   0  0  0  0  0  0  0  0  0  0  0  0
  -26.3200  -12.0340   20.5070 N   0  0  0  0  0  0  0  0  0  0  0  0
  -24.2760  -10.8270   20.9130 C   0  0  0  0  0  0  0  0  0  0  0  0
  -24.6640   -9.8390   21.8420 C   0  0  0  0  0  3  0  0  0  0  0  0
  -23.9200   -8.6450   21.9700 C   0  0  0  0  0  3  0  0  0  0  0  0
  -22.7740   -8.4340   21.1680 C   0  0  0  0  0  0  0  0  0  0  0  0
  -22.4070   -9.4120   20.2270 C   0  0  0  0  0  3  0  0  0  0  0  0
  -23.1510  -10.5960   20.0970 C   0  0  0  0  0  3  0  0  0  0  0  0
  -22.0050   -7.2960   21.2040 O   0  0  0  0  0  0  0  0  0  0  0  0
  -21.8030   -6.6020   22.3710 C   0  0  0  0  0  0  0  0  0  0  0  0
  -21.1830   -7.1910   23.4930 C   0  0  0  0  0  3  0  0  0  0  0  0
  -20.9370   -6.4200   24.6470 C   0  0  0  0  0  3  0  0  0  0  0  0
  -21.3000   -5.0610   24.6750 C   0  0  0  0  0  0  0  0  0  0  0  0
  -21.9130   -4.4710   23.5560 C   0  0  0  0  0  3  0  0  0  0  0  0
  -22.1630   -5.2400   22.4060 C   0  0  0  0  0  0  0  0  0  0  0  0
  -22.7350   -4.6620   21.3220 F   0  0  0  0  0  0  0  0  0  0  0  0
  -21.0560   -4.3170   25.7780 F   0  0  0  0  0  0  0  0  0  0  0  0
  -23.1780  -13.9300   21.0600 C   0  0  0  0  0  0  0  0  0  0  0  0
  -22.4260  -13.2410   21.9130 N   0  0  0  0  0  0  0  0  0  0  0  0
  -22.7620  -14.9590   20.5300 O   0  0  0  0  0  0  0  0  0  0  0  0
  -22.7820  -12.4120   22.3650 H   0  0  0  0  0  0  0  0  0  0  0  0
  -21.4880  -13.5500   22.1200 H   0  0  0  0  0  0  0  0  0  0  0  0
  -25.8520  -15.5780   20.3480 N   0  0  0  0  0  0  0  0  0  0  0  0
  -25.0750  -16.2260   20.4100 H   0  0  0  0  0  0  0  0  0  0  0  0
  -26.7170  -16.0140   20.0500 H   0  0  0  0  0  0  0  0  0  0  0  0
  -27.6450  -17.2780   18.1020 C   0  0  0  0  0  1  0  0  0  0  0  0
  -28.5580  -16.9260   19.1320 O   0  0  0  0  0  0  0  0  0  0  0  0
  -29.2270  -25.7960   20.8430 C   0  0  0  0  0  2  0  0  0  0  0  0
  -28.9050  -27.0180   20.0810 O   0  0  0  0  0  0  0  0  0  0  0  0
  -24.7130  -31.9780   23.2910 C   0  0  0  0  0  0  0  0  0  0  0  0
  -27.6970  -27.7080   20.1920 C   0  0  0  0  0  0  0  0  0  0  0  0
  -23.6500  -30.5990   21.5350 C   0  0  0  0  0  3  0  0  0  0  0  0
  -25.2400  -29.1650   20.1310 C   0  0  0  0  0  0  0  0  0  0  0  0
  -26.1720  -31.0490   21.4830 C   0  0  0  0  0  2  0  0  0  0  0  0
  -26.3490  -29.6980   20.8000 C   0  0  0  0  0  0  0  0  0  0  0  0
  -27.5810  -28.9840   20.8210 C   0  0  0  0  0  3  0  0  0  0  0  0
  -26.5680  -27.2150   19.5050 C   0  0  0  0  0  3  0  0  0  0  0  0
  -25.3500  -27.9260   19.4760 C   0  0  0  0  0  3  0  0  0  0  0  0
  -23.9580  -29.9740   20.1460 C   0  0  0  0  0  2  0  0  0  0  0  0
  -24.8600  -31.2250   22.1620 N   0  0  0  0  0  0  0  0  0  0  0  0
  -23.5960  -32.1840   23.7870 O   0  0  0  0  0  0  0  0  0  0  0  0
  -22.9890  -29.5200   22.4220 C   0  0  0  0  0  0  0  0  0  0  0  0
  -21.6760  -29.3010   22.2340 N   0  0  0  0  0  0  0  0  0  0  0  0
  -23.6590  -28.8800   23.2350 O   0  0  0  0  0  0  0  0  0  0  0  0
  -21.1960  -29.8540   21.5360 H   0  0  0  0  0  0  0  0  0  0  0  0
  -18.3080  -28.0730   22.6660 C   0  0  0  0  0  0  0  0  0  0  0  0
  -20.8650  -28.3060   22.9330 C   0  0  0  0  0  3  0  0  0  0  0  0
  -20.9650  -26.9290   22.2380 C   0  0  0  0  0  2  0  0  0  0  0  0
  -19.8510  -26.6930   21.2130 C   0  0  0  0  0  2  0  0  0  0  0  0
  -18.4750  -26.7850   21.8790 C   0  0  0  0  0  2  0  0  0  0  0  0
  -19.4300  -28.7940   23.1510 C   0  0  0  0  0  0  0  0  0  0  0  0
  -19.2180  -29.9990   23.8570 C   0  0  0  0  0  3  0  0  0  0  0  0
  -17.9130  -30.4780   24.0850 C   0  0  0  0  0  3  0  0  0  0  0  0
  -16.8050  -29.7560   23.6090 C   0  0  0  0  0  3  0  0  0  0  0  0
  -17.0030  -28.5550   22.9040 C   0  0  0  0  0  3  0  0  0  0  0  0
  -25.9380  -32.6370   23.9990 C   0  0  0  0  0  3  0  0  0  0  0  0
  -26.3620  -31.8910   25.3230 C   0  0  1  0  0  0  0  0  0  0  0  0
  -25.1800  -31.5720   26.2660 C   0  0  0  0  0  1  0  0  0  0  0  0
  -27.0760  -30.5590   24.9940 C   0  0  0  0  0  1  0  0  0  0  0  0
  -27.3770  -32.7550   26.1120 C   0  0  0  0  0  1  0  0  0  0  0  0
  -25.5880  -34.0360   24.2830 N   0  0  0  0  0  0  0  0  0  0  0  0
  -25.9280  -35.0760   23.5130 C   0  0  0  0  0  0  0  0  0  0  0  0
  -26.6380  -34.9650   22.5110 O   0  0  0  0  0  0  0  0  0  0  0  0
  -24.9610  -34.1960   25.0580 H   0  0  0  0  0  0  0  0  0  0  0  0
  -24.1630  -36.8150   23.0680 C   0  0  0  0  0  1  0  0  0  0  0  0
  -25.3950  -36.4640   23.9180 C   0  0  0  0  0  3  0  0  0  0  0  0
  -27.4780  -37.4390   24.7800 C   0  0  0  0  0  1  0  0  0  0  0  0
  -26.4030  -37.5410   23.7970 N   0  0  0  0  0  0  0  0  0  0  0  0
  -25.9650  -38.4530   23.8990 H   0  0  0  0  0  0  0  0  0  0  0  0
  1  2  1  0
  1  7  2  0
  3  6  1  0
  3  2  1  0
  5  4  1  0
  5 55  1  0
  5  1  1  0
  6 11  1  0
  6  4  1  0
  9 13  2  0
  9 11  1  0
 10  8  1  0
 10 14  1  0
 11 10  2  0
 12 23  1  0
 12  8  2  0
 13 12  1  0
 15 23  1  0
 16 21  1  0
 17 18  1  0
 17 16  1  0
 19 18  1  0
 19 28  1  0
 19 20  1  0
 21 15  1  0
 21 20  1  0
 22 15  2  0
 23 24  1  0
 25 26  2  0
 26 45  1  0
 27 26  1  0
 27 30  1  0
 28 25  1  0
 28 29  1  0
 29 27  2  0
 30 31  1  0
 31 32  2  0
 33 36  1  0
 33 32  1  0
 34 33  2  0
 35 34  1  0
 35 30  2  0
 36 37  1  0
 37 42  2  0
 37 38  1  0
 38 39  2  0
 39 40  1  0
 40 44  1  0
 41 40  2  0
 42 41  1  0
 43 42  1  0
 45 46  1  0
 46 49  1  0
 46 48  1  0
 47 45  2  0
 50 51  1  0
 50 25  1  0
 52 50  1  0
 53 54  1  0
 54 13  1  0
 56 58  1  0
 56 55  1  0
 57 68  2  0
 58 63  1  0
 59 67  1  0
 59 69  1  0
 60 66  1  0
 60 62  1  0
 61 67  1  0
 62 63  2  0
 62 61  1  0
 64 58  2  0
 65 64  1  0
 65 60  2  0
 66 59  1  0
 67 57  1  0
 69 71  2  0
 70 69  1  0
 72 70  1  0
 73 82  2  0
 73 78  1  0
 74 70  1  0
 74 78  1  0
 75 74  1  0
 76 77  1  0
 76 75  1  0
 77 73  1  0
 78 79  2  0
 79 80  1  0
 81 80  2  0
 82 81  1  0
 83 57  1  0
 83 88  1  0
 83 84  1  0
 84 87  1  1
 84 85  1  0
 86 84  1  0
 88 91  1  0
 89 93  1  0
 89 88  1  0
 90 89  2  0
 93 92  1  0
 95 96  1  0
 95 93  1  0
 95 94  1  0
M  ISO  4  15 100  23 100  55 101  56 101
M  END
>  <TORSDO>  (81) 
F 19

>  <SCORE>  (81) 
-13.594

>  <name>  (81) 
81

>  <ligand_id>  (81) 
81

>  <original_smiles>  (81) 
[H]c1c([H])c([H])c2c(c1[H])C([H])([H])C([H])([H])C([H])([H])C2([H])N([H])C(=O)C1([H])N(C(=O)C([H])(N([H])C(=O)C([H])(N([H])C([H])([H])[H])C([H])([H])[H])C(C([H])([H])[H])(C([H])([H])[H])C([H])([H])[H])C([H])([H])c2c([H])c(OC([H])([H])C3([H])C(=O)C([H])([H])C([H])([H])N(c4c([H])c(OC([H])([H])[H])c(N([H])C(=O)N5C([H])([H])C([H])([H])C([H])([H])C([H])(n6nc(-c7c([H])c([H])c(Oc8c([H])c([H])c(F)c([H])c8F)c([H])c7[H])c(C(=O)N([H])[H])c6N([H])[H])C5([H])[H])c([H])c4C([H])([H])[H])C3([H])[H])c([H])c([H])c2C1([H])[H]

>  <smiles>  (81) 
[H]c1c([H])c([H])c2c(c1[H])C([H])([H])C([H])([H])C([H])([H])C2([H])N([H])C(=O)C1([H])N(C(=O)C([H])(N([H])C(=O)C([H])(N([H])C([H])([H])[H])C([H])([H])[H])C(C([H])([H])[H])(C([H])([H])[H])C([H])([H])[H])C([H])([H])c2c([H])c(OC([H])([H])C3([H])C(=O)C([H])([H])C([H])([H])N(c4c([H])c(OC([H])([H])[H])c(N([H])C(=O)N5C([H])([H])C([H])([H])C([H])([H])C([H])(n6nc(-c7c([H])c([H])c(Oc8c([H])c([H])c(F)c([H])c8F)c([H])c7[H])c(C(=O)N([H])[H])c6N([H])[H])C5([H])[H])c([H])c4C([H])([H])[H])C3([H])[H])c([H])c([H])c2C1([H])[H]

$$$$
82:0:0
     RDKit          3D

 97105  0  0  1  0  0  0  0  0999 V2000
  -29.2530  -20.3990   21.2090 C   0  0  0  0  0  0  0  0  0  0  0  0
  -28.7930  -22.7690   21.4750 C   0  0  0  0  0  0  0  0  0  0  0  0
  -29.5300  -21.7120   21.0830 N   0  0  0  0  0  0  0  0  0  0  0  0
  -28.2170  -19.9370   21.7010 O   0  0  0  0  0  0  0  0  0  0  0  0
  -27.6660  -22.6980   21.9780 O   0  0  0  0  0  0  0  0  0  0  0  0
  -30.4150  -21.9200   20.6510 H   0  0  0  0  0  0  0  0  0  0  0  0
  -30.0010  -18.0620   20.6020 C   0  0  0  0  0  3  0  0  0  0  0  0
  -31.5600  -19.9000   20.2340 C   0  0  0  0  0  3  0  0  0  0  0  0
  -32.2090  -17.6150   19.6830 C   0  0  0  0  0  3  0  0  0  0  0  0
  -30.2850  -19.4480   20.6520 C   0  0  0  0  0  0  0  0  0  0  0  0
  -30.9470  -17.1410   20.1070 C   0  0  0  0  0  0  0  0  0  0  0  0
  -32.5290  -18.9860   19.7470 C   0  0  0  0  0  0  0  0  0  0  0  0
  -31.2680  -14.7200   19.5740 C   0  0  0  0  0  0  0  0  0  0  0  0
  -31.0350  -12.3490   18.9170 C   0  0  0  0  0  2  0  0  0  0  0  0
  -30.0450  -12.2150   17.7420 C   0  0  0  0  0  2  0  0  0  0  0  0
  -28.5930  -12.1180   18.2540 C   0  0  0  0  0  2  0  0  0  0  0  0
  -28.2520  -13.2240   19.2870 C   0  0  0  0  0  3  0  0  0  0  0  0
  -29.3430  -13.3020   20.3780 C   0  0  0  0  0  2  0  0  0  0  0  0
  -30.6390  -13.5220   19.7100 N   0  0  0  0  0  0  0  0  0  0  0  0
  -32.3160  -14.8570   18.9330 O   0  0  0  0  0  0  0  0  0  0  0  0
  -30.6120  -15.7580   20.1220 N   0  0  0  0  0  0  0  0  0  0  0  0
  -29.7120  -15.5210   20.5100 H   0  0  0  0  0  0  0  0  0  0  0  0
  -25.9690  -13.9630   20.2270 C   0  0  0  0  0  0  0  0  0  0  0  0
  -24.8810  -13.2480   20.6510 C   0  0  0  0  0  0  0  0  0  0  0  0
  -25.2380  -11.8710   20.5160 C   0  0  0  0  0  0  0  0  0  0  0  0
  -26.9240  -13.0240   19.8660 N   0  0  0  0  0  0  0  0  0  0  0  0
  -26.4900  -11.7580   20.0940 N   0  0  0  0  0  0  0  0  0  0  0  0
  -24.4400  -10.6540   20.7090 C   0  0  0  0  0  0  0  0  0  0  0  0
  -24.8070   -9.6720   21.6550 C   0  0  0  0  0  3  0  0  0  0  0  0
  -24.0140   -8.5180   21.8340 C   0  0  0  0  0  3  0  0  0  0  0  0
  -22.8380   -8.3390   21.0670 C   0  0  0  0  0  0  0  0  0  0  0  0
  -22.4900   -9.3080   20.1100 C   0  0  0  0  0  3  0  0  0  0  0  0
  -23.2830  -10.4530   19.9290 C   0  0  0  0  0  3  0  0  0  0  0  0
  -22.0200   -7.2380   21.1540 O   0  0  0  0  0  0  0  0  0  0  0  0
  -21.8200   -6.5840   22.3430 C   0  0  0  0  0  0  0  0  0  0  0  0
  -21.2660   -7.2340   23.4680 C   0  0  0  0  0  3  0  0  0  0  0  0
  -21.0130   -6.5060   24.6470 C   0  0  0  0  0  3  0  0  0  0  0  0
  -21.3010   -5.1300   24.7030 C   0  0  0  0  0  0  0  0  0  0  0  0
  -21.8480   -4.4800   23.5820 C   0  0  0  0  0  3  0  0  0  0  0  0
  -22.1030   -5.2040   22.4050 C   0  0  0  0  0  0  0  0  0  0  0  0
  -22.6090   -4.5680   21.3210 F   0  0  0  0  0  0  0  0  0  0  0  0
  -21.0510   -4.4290   25.8330 F   0  0  0  0  0  0  0  0  0  0  0  0
  -23.5500  -13.8050   21.0690 C   0  0  0  0  0  0  0  0  0  0  0  0
  -22.8620  -13.1300   21.9810 N   0  0  0  0  0  0  0  0  0  0  0  0
  -23.1360  -14.8730   20.6200 O   0  0  0  0  0  0  0  0  0  0  0  0
  -23.2130  -12.2640   22.3650 H   0  0  0  0  0  0  0  0  0  0  0  0
  -21.9720  -13.4830   22.3030 H   0  0  0  0  0  0  0  0  0  0  0  0
  -26.2200  -15.3260   20.0990 N   0  0  0  0  0  0  0  0  0  0  0  0
  -25.5150  -16.0260   20.3020 H   0  0  0  0  0  0  0  0  0  0  0  0
  -27.0680  -15.7180   19.7100 H   0  0  0  0  0  0  0  0  0  0  0  0
  -33.7950  -19.3400   19.3320 O   0  0  0  0  0  0  0  0  0  0  0  0
  -35.5420  -20.8430   18.6880 C   0  0  0  0  0  1  0  0  0  0  0  0
  -34.1240  -20.7210   19.2490 C   0  0  0  0  0  2  0  0  0  0  0  0
  -29.4200  -24.1590   21.2950 C   0  0  0  0  0  2  0  0  0  0  0  0
  -28.5890  -25.0880   20.3820 C   0  0  0  0  0  2  0  0  0  0  0  0
  -29.0770  -26.5500   20.4030 C   0  0  0  0  0  2  0  0  0  0  0  0
  -28.5220  -27.2700   19.3080 O   0  0  0  0  0  0  0  0  0  0  0  0
  -24.7880  -31.7460   23.4220 C   0  0  0  0  0  0  0  0  0  0  0  0
  -27.3450  -27.9290   19.5580 C   0  0  0  0  0  0  0  0  0  0  0  0
  -23.5200  -30.5960   21.6320 C   0  0  0  0  0  3  0  0  0  0  0  0
  -24.9250  -29.3310   19.9200 C   0  0  0  0  0  0  0  0  0  0  0  0
  -26.0230  -31.0440   21.3760 C   0  0  0  0  0  2  0  0  0  0  0  0
  -26.0990  -29.7880   20.5350 C   0  0  0  0  0  0  0  0  0  0  0  0
  -27.3130  -29.0890   20.3600 C   0  0  0  0  0  3  0  0  0  0  0  0
  -26.1630  -27.4800   18.9390 C   0  0  0  0  0  3  0  0  0  0  0  0
  -24.9490  -28.1710   19.1240 C   0  0  0  0  0  3  0  0  0  0  0  0
  -23.6710  -30.1430   20.1540 C   0  0  0  0  0  2  0  0  0  0  0  0
  -24.7960  -31.1350   22.2030 N   0  0  0  0  0  0  0  0  0  0  0  0
  -23.7320  -31.9040   24.0500 O   0  0  0  0  0  0  0  0  0  0  0  0
  -22.9330  -29.4210   22.4480 C   0  0  0  0  0  0  0  0  0  0  0  0
  -21.6240  -29.1770   22.2870 N   0  0  0  0  0  0  0  0  0  0  0  0
  -23.6550  -28.7380   23.1810 O   0  0  0  0  0  0  0  0  0  0  0  0
  -21.1010  -29.7870   21.6750 H   0  0  0  0  0  0  0  0  0  0  0  0
  -18.3460  -27.6780   22.5260 C   0  0  0  0  0  0  0  0  0  0  0  0
  -20.8650  -28.1000   22.9210 C   0  0  0  0  0  3  0  0  0  0  0  0
  -21.1000  -26.7530   22.1980 C   0  0  0  0  0  2  0  0  0  0  0  0
  -20.0570  -26.4610   21.1140 C   0  0  0  0  0  2  0  0  0  0  0  0
  -18.6500  -26.4270   21.7170 C   0  0  0  0  0  2  0  0  0  0  0  0
  -19.3870  -28.4710   23.0780 C   0  0  0  0  0  0  0  0  0  0  0  0
  -19.0500  -29.6420   23.7910 C   0  0  0  0  0  3  0  0  0  0  0  0
  -17.7050  -30.0210   23.9580 C   0  0  0  0  0  3  0  0  0  0  0  0
  -16.6780  -29.2240   23.4240 C   0  0  0  0  0  3  0  0  0  0  0  0
  -16.9990  -28.0530   22.7150 C   0  0  0  0  0  3  0  0  0  0  0  0
  -26.0960  -32.2980   24.0710 C   0  0  0  0  0  3  0  0  0  0  0  0
  -25.8120  -33.6560   24.5510 N   0  0  0  0  0  0  0  0  0  0  0  0
  -26.1610  -34.7770   23.9070 C   0  0  0  0  0  0  0  0  0  0  0  0
  -26.8270  -34.7730   22.8670 O   0  0  0  0  0  0  0  0  0  0  0  0
  -25.2240  -33.7320   25.3670 H   0  0  0  0  0  0  0  0  0  0  0  0
  -24.4700  -36.6300   23.7390 C   0  0  0  0  0  1  0  0  0  0  0  0
  -25.6970  -36.1150   24.5100 C   0  0  0  0  0  3  0  0  0  0  0  0
  -27.8400  -36.8640   25.4450 C   0  0  0  0  0  1  0  0  0  0  0  0
  -26.7490  -37.1540   24.5180 N   0  0  0  0  0  0  0  0  0  0  0  0
  -26.3600  -38.0610   24.7610 H   0  0  0  0  0  0  0  0  0  0  0  0
  -26.6360  -31.3910   25.2440 C   0  0  1  0  0  0  0  0  0  0  0  0
  -25.5650  -31.0390   26.3020 C   0  0  0  0  0  1  0  0  0  0  0  0
  -27.2080  -30.0670   24.6880 C   0  0  0  0  0  1  0  0  0  0  0  0
  -27.8010  -32.1080   25.9670 C   0  0  0  0  0  1  0  0  0  0  0  0
  1  4  2  0
  2  5  2  0
  3  1  1  0
  3  2  1  0
  6  3  1  0
  7 10  1  0
  8 10  2  0
  9 12  2  0
  9 11  1  0
 10  1  1  0
 11 21  1  0
 11  7  2  0
 12  8  1  0
 13 19  1  0
 13 21  1  0
 14 19  1  0
 15 16  1  0
 15 14  1  0
 17 16  1  0
 17 26  1  0
 17 18  1  0
 19 18  1  0
 20 13  2  0
 21 22  1  0
 23 24  2  0
 24 43  1  0
 25 24  1  0
 25 28  1  0
 26 27  1  0
 26 23  1  0
 27 25  2  0
 28 29  1  0
 29 30  2  0
 31 34  1  0
 31 30  1  0
 32 31  2  0
 33 32  1  0
 33 28  2  0
 34 35  1  0
 35 40  2  0
 35 36  1  0
 36 37  2  0
 37 38  1  0
 38 42  1  0
 39 38  2  0
 40 39  1  0
 41 40  1  0
 43 44  1  0
 44 47  1  0
 44 46  1  0
 45 43  2  0
 48 23  1  0
 48 49  1  0
 50 48  1  0
 51 12  1  0
 52 53  1  0
 53 51  1  0
 54  2  1  0
 55 56  1  0
 55 54  1  0
 57 59  1  0
 57 56  1  0
 58 69  2  0
 59 64  1  0
 60 68  1  0
 60 70  1  0
 61 67  1  0
 61 63  1  0
 62 68  1  0
 63 62  1  0
 64 63  2  0
 65 66  1  0
 65 59  2  0
 66 61  2  0
 67 60  1  0
 68 58  1  0
 70 72  2  0
 71 70  1  0
 73 71  1  0
 74 83  2  0
 74 79  1  0
 75 71  1  0
 75 79  1  0
 76 75  1  0
 77 78  1  0
 77 76  1  0
 78 74  1  0
 79 80  2  0
 80 81  1  0
 82 81  2  0
 83 82  1  0
 84 58  1  0
 84 85  1  0
 84 94  1  0
 85 88  1  0
 86 90  1  0
 86 85  1  0
 87 86  2  0
 90 89  1  0
 90 92  1  0
 92 93  1  0
 92 91  1  0
 94 97  1  1
 94 95  1  0
 96 94  1  0
M  ISO  4  13 100  21 100  56 101  57 101
M  END
>  <TORSDO>  (82) 
F 22

>  <SCORE>  (82) 
-10.705

>  <name>  (82) 
82

>  <ligand_id>  (82) 
82

>  <original_smiles>  (82) 
[H]c1c([H])c([H])c2c(c1[H])C([H])([H])C([H])([H])C([H])([H])C2([H])N([H])C(=O)C1([H])N(C(=O)C([H])(N([H])C(=O)C([H])(N([H])C([H])([H])[H])C([H])([H])[H])C(C([H])([H])[H])(C([H])([H])[H])C([H])([H])[H])C([H])([H])c2c([H])c(OC([H])([H])C([H])([H])C([H])([H])C(=O)N([H])C(=O)c3c([H])c(OC([H])([H])C([H])([H])[H])c([H])c(N([H])C(=O)N4C([H])([H])C([H])([H])C([H])([H])C([H])(n5nc(-c6c([H])c([H])c(Oc7c([H])c([H])c(F)c([H])c7F)c([H])c6[H])c(C(=O)N([H])[H])c5N([H])[H])C4([H])[H])c3[H])c([H])c([H])c2C1([H])[H]

>  <smiles>  (82) 
[H]c1c([H])c([H])c2c(c1[H])C([H])([H])C([H])([H])C([H])([H])C2([H])N([H])C(=O)C1([H])N(C(=O)C([H])(N([H])C(=O)C([H])(N([H])C([H])([H])[H])C([H])([H])[H])C(C([H])([H])[H])(C([H])([H])[H])C([H])([H])[H])C([H])([H])c2c([H])c(OC([H])([H])C([H])([H])C([H])([H])C(=O)N([H])C(=O)c3c([H])c(OC([H])([H])C([H])([H])[H])c([H])c(N([H])C(=O)N4C([H])([H])C([H])([H])C([H])([H])C([H])(n5nc(-c6c([H])c([H])c(Oc7c([H])c([H])c(F)c([H])c7F)c([H])c6[H])c(C(=O)N([H])[H])c5N([H])[H])C4([H])[H])c3[H])c([H])c([H])c2C1([H])[H]

$$$$
83:0:0
     RDKit          3D

 94102  0  0  1  0  0  0  0  0999 V2000
  -27.3010  -20.7590   20.4180 N   0  0  0  0  0  0  0  0  0  0  0  0
  -26.3680  -20.4560   20.1450 H   0  0  0  0  0  0  0  0  0  0  0  0
  -28.8100  -17.3770   20.6420 C   0  0  0  0  0  3  0  0  0  0  0  0
  -27.9030  -18.4260   20.4020 C   0  0  0  0  0  3  0  0  0  0  0  0
  -29.5540  -20.0380   21.1670 C   0  0  0  0  0  3  0  0  0  0  0  0
  -30.1050  -17.6480   21.1450 C   0  0  0  0  0  0  0  0  0  0  0  0
  -28.2600  -19.7630   20.6670 C   0  0  0  0  0  0  0  0  0  0  0  0
  -30.4650  -18.9880   21.4040 C   0  0  0  0  0  0  0  0  0  0  0  0
  -31.6970  -19.2720   21.8910 F   0  0  0  0  0  0  0  0  0  0  0  0
  -31.1120  -16.5340   21.4270 C   0  0  0  0  0  2  0  0  0  0  0  0
  -31.0960  -14.3910   20.1200 C   0  0  0  0  0  0  0  0  0  0  0  0
  -30.6900  -12.2640   18.9280 C   0  0  0  0  0  2  0  0  0  0  0  0
  -29.7130  -12.4600   17.7530 C   0  0  0  0  0  2  0  0  0  0  0  0
  -28.2500  -12.3690   18.2260 C   0  0  0  0  0  2  0  0  0  0  0  0
  -27.9710  -13.2580   19.4660 C   0  0  0  0  0  3  0  0  0  0  0  0
  -29.0370  -13.0050   20.5530 C   0  0  0  0  0  2  0  0  0  0  0  0
  -30.3710  -13.2540   19.9670 N   0  0  0  0  0  0  0  0  0  0  0  0
  -32.0930  -14.6640   19.4440 O   0  0  0  0  0  0  0  0  0  0  0  0
  -30.6460  -15.1930   21.0930 N   0  0  0  0  0  0  0  0  0  0  0  0
  -29.8580  -14.8460   21.6170 H   0  0  0  0  0  0  0  0  0  0  0  0
  -25.6150  -13.9710   20.2320 C   0  0  0  0  0  0  0  0  0  0  0  0
  -24.5320  -13.2450   20.6500 C   0  0  0  0  0  0  0  0  0  0  0  0
  -24.9410  -11.8770   20.6220 C   0  0  0  0  0  0  0  0  0  0  0  0
  -26.6200  -13.0470   19.9840 N   0  0  0  0  0  0  0  0  0  0  0  0
  -26.2170  -11.7830   20.2710 N   0  0  0  0  0  0  0  0  0  0  0  0
  -24.1730  -10.6450   20.8520 C   0  0  0  0  0  0  0  0  0  0  0  0
  -24.5770   -9.6930   21.8130 C   0  0  0  0  0  3  0  0  0  0  0  0
  -23.8140   -8.5240   22.0250 C   0  0  0  0  0  3  0  0  0  0  0  0
  -22.6340   -8.3010   21.2760 C   0  0  0  0  0  0  0  0  0  0  0  0
  -22.2500   -9.2420   20.3040 C   0  0  0  0  0  3  0  0  0  0  0  0
  -23.0140  -10.4020   20.0910 C   0  0  0  0  0  3  0  0  0  0  0  0
  -21.8440   -7.1840   21.3970 O   0  0  0  0  0  0  0  0  0  0  0  0
  -21.7350   -6.5050   22.5830 C   0  0  0  0  0  0  0  0  0  0  0  0
  -21.3010   -7.1380   23.7690 C   0  0  0  0  0  3  0  0  0  0  0  0
  -21.1380   -6.3860   24.9490 C   0  0  0  0  0  3  0  0  0  0  0  0
  -21.3990   -5.0020   24.9450 C   0  0  0  0  0  0  0  0  0  0  0  0
  -21.8290   -4.3700   23.7650 C   0  0  0  0  0  3  0  0  0  0  0  0
  -21.9920   -5.1190   22.5870 C   0  0  0  0  0  0  0  0  0  0  0  0
  -22.3830   -4.5010   21.4460 F   0  0  0  0  0  0  0  0  0  0  0  0
  -21.2360   -4.2780   26.0760 F   0  0  0  0  0  0  0  0  0  0  0  0
  -23.1630  -13.7770   20.9610 C   0  0  0  0  0  0  0  0  0  0  0  0
  -22.4430  -13.1260   21.8680 N   0  0  0  0  0  0  0  0  0  0  0  0
  -22.7440  -14.8080   20.4370 O   0  0  0  0  0  0  0  0  0  0  0  0
  -22.7940  -12.2920   22.3150 H   0  0  0  0  0  0  0  0  0  0  0  0
  -21.5260  -13.4680   22.1200 H   0  0  0  0  0  0  0  0  0  0  0  0
  -25.8190  -15.3290   20.0220 N   0  0  0  0  0  0  0  0  0  0  0  0
  -25.0620  -15.9990   20.1080 H   0  0  0  0  0  0  0  0  0  0  0  0
  -26.6400  -15.7130   19.5730 H   0  0  0  0  0  0  0  0  0  0  0  0
  -27.4270  -22.1050   20.9750 C   0  0  0  0  0  2  0  0  0  0  0  0
  -28.2320  -23.0380   20.0530 C   0  0  0  0  0  2  0  0  0  0  0  0
  -28.2510  -24.4930   20.5280 C   0  0  0  0  0  0  0  0  0  0  0  0
  -28.0600  -24.7910   21.7130 O   0  0  0  0  0  0  0  0  0  0  0  0
  -28.5620  -25.5510   19.4610 C   0  0  0  0  0  2  0  0  0  0  0  0
  -28.4510  -26.8800   19.9860 O   0  0  0  0  0  0  0  0  0  0  0  0
  -24.5390  -31.8850   23.1410 C   0  0  0  0  0  0  0  0  0  0  0  0
  -27.2320  -27.5260   19.9930 C   0  0  0  0  0  0  0  0  0  0  0  0
  -23.3460  -30.4970   21.4760 C   0  0  0  0  0  3  0  0  0  0  0  0
  -24.8120  -28.9920   20.0350 C   0  0  0  0  0  0  0  0  0  0  0  0
  -25.8650  -30.8860   21.2820 C   0  0  0  0  0  2  0  0  0  0  0  0
  -25.9620  -29.5250   20.6280 C   0  0  0  0  0  0  0  0  0  0  0  0
  -27.1710  -28.7980   20.6040 C   0  0  0  0  0  3  0  0  0  0  0  0
  -26.0550  -26.9950   19.4110 C   0  0  0  0  0  3  0  0  0  0  0  0
  -24.8510  -27.7250   19.4290 C   0  0  0  0  0  3  0  0  0  0  0  0
  -23.5630  -29.8400   20.0870 C   0  0  0  0  0  2  0  0  0  0  0  0
  -24.6020  -31.1040   22.0250 N   0  0  0  0  0  0  0  0  0  0  0  0
  -23.4560  -32.1420   23.6840 O   0  0  0  0  0  0  0  0  0  0  0  0
  -22.7030  -29.4560   22.4180 C   0  0  0  0  0  0  0  0  0  0  0  0
  -21.3800  -29.2680   22.2840 N   0  0  0  0  0  0  0  0  0  0  0  0
  -23.3900  -28.8250   23.2250 O   0  0  0  0  0  0  0  0  0  0  0  0
  -20.8880  -29.8310   21.6050 H   0  0  0  0  0  0  0  0  0  0  0  0
  -18.0140  -28.0380   22.7420 C   0  0  0  0  0  0  0  0  0  0  0  0
  -20.5670  -28.3140   23.0390 C   0  0  0  0  0  3  0  0  0  0  0  0
  -20.6860  -26.8910   22.4480 C   0  0  0  0  0  2  0  0  0  0  0  0
  -19.5950  -26.5700   21.4210 C   0  0  0  0  0  2  0  0  0  0  0  0
  -18.2070  -26.6970   22.0550 C   0  0  0  0  0  2  0  0  0  0  0  0
  -19.1230  -28.8040   23.1910 C   0  0  0  0  0  0  0  0  0  0  0  0
  -18.8880  -30.0590   23.7920 C   0  0  0  0  0  3  0  0  0  0  0  0
  -17.5780  -30.5490   23.9500 C   0  0  0  0  0  3  0  0  0  0  0  0
  -16.4840  -29.7790   23.5180 C   0  0  0  0  0  3  0  0  0  0  0  0
  -16.7030  -28.5260   22.9210 C   0  0  0  0  0  3  0  0  0  0  0  0
  -25.8220  -32.5130   23.7730 C   0  0  0  0  0  3  0  0  0  0  0  0
  -25.5030  -33.9020   24.1300 N   0  0  0  0  0  0  0  0  0  0  0  0
  -25.8290  -34.9690   23.3880 C   0  0  0  0  0  0  0  0  0  0  0  0
  -26.5020  -34.8870   22.3580 O   0  0  0  0  0  0  0  0  0  0  0  0
  -24.9080  -34.0380   24.9340 H   0  0  0  0  0  0  0  0  0  0  0  0
  -24.0870  -36.7510   23.0610 C   0  0  0  0  0  1  0  0  0  0  0  0
  -25.3280  -36.3440   23.8690 C   0  0  0  0  0  3  0  0  0  0  0  0
  -27.4530  -37.2300   24.7210 C   0  0  0  0  0  1  0  0  0  0  0  0
  -26.3520  -37.4080   23.7780 N   0  0  0  0  0  0  0  0  0  0  0  0
  -25.9360  -38.3210   23.9410 H   0  0  0  0  0  0  0  0  0  0  0  0
  -26.3500  -31.7180   25.0310 C   0  0  1  0  0  0  0  0  0  0  0  0
  -25.2630  -31.4490   26.0970 C   0  0  0  0  0  1  0  0  0  0  0  0
  -26.9410  -30.3540   24.6040 C   0  0  0  0  0  1  0  0  0  0  0  0
  -27.4970  -32.5070   25.7070 C   0  0  0  0  0  1  0  0  0  0  0  0
  1  7  1  0
  1 49  1  0
  2  1  1  0
  3  6  1  0
  4  3  2  0
  4  7  1  0
  5  8  1  0
  6  8  2  0
  6 10  1  0
  7  5  2  0
  8  9  1  0
 11 19  1  0
 12 17  1  0
 13 14  1  0
 13 12  1  0
 15 14  1  0
 15 24  1  0
 15 16  1  0
 17 11  1  0
 17 16  1  0
 18 11  2  0
 19 10  1  0
 19 20  1  0
 21 22  2  0
 22 41  1  0
 23 22  1  0
 23 26  1  0
 24 21  1  0
 24 25  1  0
 25 23  2  0
 26 27  1  0
 27 28  2  0
 29 32  1  0
 29 28  1  0
 30 29  2  0
 31 30  1  0
 31 26  2  0
 32 33  1  0
 33 38  2  0
 33 34  1  0
 34 35  2  0
 36 35  1  0
 36 40  1  0
 37 36  2  0
 38 37  1  0
 39 38  1  0
 41 42  1  0
 42 45  1  0
 42 44  1  0
 43 41  2  0
 46 47  1  0
 46 21  1  0
 48 46  1  0
 50 51  1  0
 50 49  1  0
 51 52  2  0
 53 54  1  0
 53 51  1  0
 54 56  1  0
 55 66  2  0
 56 61  1  0
 57 65  1  0
 57 67  1  0
 58 64  1  0
 58 60  1  0
 59 65  1  0
 60 59  1  0
 61 60  2  0
 62 63  1  0
 62 56  2  0
 63 58  2  0
 64 57  1  0
 65 55  1  0
 67 69  2  0
 68 67  1  0
 70 68  1  0
 71 80  2  0
 71 76  1  0
 72 68  1  0
 72 76  1  0
 73 72  1  0
 74 75  1  0
 74 73  1  0
 75 71  1  0
 76 77  2  0
 77 78  1  0
 79 78  2  0
 80 79  1  0
 81 55  1  0
 81 82  1  0
 81 91  1  0
 82 85  1  0
 83 87  1  0
 83 82  1  0
 84 83  2  0
 87 86  1  0
 89 87  1  0
 89 90  1  0
 89 88  1  0
 91 94  1  1
 91 92  1  0
 93 91  1  0
M  ISO  4  11 100  19 100  53 101  54 101
M  END
>  <TORSDO>  (83) 
F 22

>  <SCORE>  (83) 
-12.869

>  <name>  (83) 
83

>  <ligand_id>  (83) 
83

>  <original_smiles>  (83) 
[H]c1c([H])c([H])c2c(c1[H])C([H])([H])C([H])([H])C([H])([H])C2([H])N([H])C(=O)C1([H])N(C(=O)C([H])(N([H])C(=O)C([H])(N([H])C([H])([H])[H])C([H])([H])[H])C(C([H])([H])[H])(C([H])([H])[H])C([H])([H])[H])C([H])([H])c2c([H])c(OC([H])([H])C(=O)C([H])([H])C([H])([H])N([H])c3c([H])c([H])c(C([H])([H])N([H])C(=O)N4C([H])([H])C([H])([H])C([H])([H])C([H])(n5nc(-c6c([H])c([H])c(Oc7c([H])c([H])c(F)c([H])c7F)c([H])c6[H])c(C(=O)N([H])[H])c5N([H])[H])C4([H])[H])c(F)c3[H])c([H])c([H])c2C1([H])[H]

>  <smiles>  (83) 
[H]c1c([H])c([H])c2c(c1[H])C([H])([H])C([H])([H])C([H])([H])C2([H])N([H])C(=O)C1([H])N(C(=O)C([H])(N([H])C(=O)C([H])(N([H])C([H])([H])[H])C([H])([H])[H])C(C([H])([H])[H])(C([H])([H])[H])C([H])([H])[H])C([H])([H])c2c([H])c(OC([H])([H])C(=O)C([H])([H])C([H])([H])N([H])c3c([H])c([H])c(C([H])([H])N([H])C(=O)N4C([H])([H])C([H])([H])C([H])([H])C([H])(n5nc(-c6c([H])c([H])c(Oc7c([H])c([H])c(F)c([H])c7F)c([H])c6[H])c(C(=O)N([H])[H])c5N([H])[H])C4([H])[H])c(F)c3[H])c([H])c([H])c2C1([H])[H]

$$$$
84:0:0
     RDKit          3D

 95104  0  0  1  0  0  0  0  0999 V2000
  -29.4860  -18.5820   20.6000 C   0  0  0  0  0  3  0  0  0  0  0  0
  -31.7350  -17.7480   20.2560 C   0  0  0  0  0  3  0  0  0  0  0  0
  -29.9170  -19.9740   20.4670 C   0  0  0  0  0  0  0  0  0  0  0  0
  -30.3740  -17.4240   20.4860 C   0  0  0  0  0  0  0  0  0  0  0  0
  -31.3020  -20.1680   20.2130 C   0  0  0  0  0  0  0  0  0  0  0  0
  -32.1840  -19.0730   20.1180 C   0  0  0  0  0  0  0  0  0  0  0  0
  -33.5070  -19.3010   19.9110 F   0  0  0  0  0  0  0  0  0  0  0  0
  -30.6320  -14.7950   20.3650 C   0  0  0  0  0  0  0  0  0  0  0  0
  -30.3480  -12.5380   19.3380 C   0  0  0  0  0  2  0  0  0  0  0  0
  -29.4050  -12.6190   18.1180 C   0  0  0  0  0  2  0  0  0  0  0  0
  -27.9440  -12.4390   18.5670 C   0  0  0  0  0  2  0  0  0  0  0  0
  -27.5800  -13.3320   19.7840 C   0  0  0  0  0  3  0  0  0  0  0  0
  -28.6500  -13.2700   20.8960 C   0  0  0  0  0  2  0  0  0  0  0  0
  -29.9440  -13.6040   20.2870 N   0  0  0  0  0  0  0  0  0  0  0  0
  -31.8180  -14.8010   20.0350 O   0  0  0  0  0  0  0  0  0  0  0  0
  -29.9440  -15.9870   20.6050 N   0  0  0  0  0  0  0  0  0  0  0  0
  -28.9690  -15.8470   20.8280 H   0  0  0  0  0  0  0  0  0  0  0  0
  -25.1990  -13.9110   20.5350 C   0  0  0  0  0  0  0  0  0  0  0  0
  -24.1380  -13.1340   20.9080 C   0  0  0  0  0  0  0  0  0  0  0  0
  -24.6040  -11.7840   20.8680 C   0  0  0  0  0  0  0  0  0  0  0  0
  -26.2430  -13.0360   20.2870 N   0  0  0  0  0  0  0  0  0  0  0  0
  -25.8940  -11.7500   20.5530 N   0  0  0  0  0  0  0  0  0  0  0  0
  -23.8810  -10.5190   21.0560 C   0  0  0  0  0  0  0  0  0  0  0  0
  -24.3180   -9.5470   21.9820 C   0  0  0  0  0  3  0  0  0  0  0  0
  -23.5930   -8.3470   22.1590 C   0  0  0  0  0  3  0  0  0  0  0  0
  -22.4170   -8.1110   21.4070 C   0  0  0  0  0  0  0  0  0  0  0  0
  -21.9980   -9.0730   20.4690 C   0  0  0  0  0  3  0  0  0  0  0  0
  -22.7230  -10.2630   20.2920 C   0  0  0  0  0  3  0  0  0  0  0  0
  -21.6640   -6.9660   21.4920 O   0  0  0  0  0  0  0  0  0  0  0  0
  -21.6160   -6.2190   22.6420 C   0  0  0  0  0  0  0  0  0  0  0  0
  -21.1830   -6.7680   23.8690 C   0  0  0  0  0  3  0  0  0  0  0  0
  -21.0810   -5.9480   25.0100 C   0  0  0  0  0  3  0  0  0  0  0  0
  -21.4050   -4.5810   24.9270 C   0  0  0  0  0  0  0  0  0  0  0  0
  -21.8320   -4.0310   23.7050 C   0  0  0  0  0  3  0  0  0  0  0  0
  -21.9340   -4.8480   22.5660 C   0  0  0  0  0  0  0  0  0  0  0  0
  -22.3250   -4.3090   21.3860 F   0  0  0  0  0  0  0  0  0  0  0  0
  -21.3020   -3.7920   26.0220 F   0  0  0  0  0  0  0  0  0  0  0  0
  -22.7410  -13.6060   21.1870 C   0  0  0  0  0  0  0  0  0  0  0  0
  -22.0160  -12.9060   22.0510 N   0  0  0  0  0  0  0  0  0  0  0  0
  -22.3010  -14.6350   20.6730 O   0  0  0  0  0  0  0  0  0  0  0  0
  -22.3850  -12.0740   22.4860 H   0  0  0  0  0  0  0  0  0  0  0  0
  -21.0790  -13.2080   22.2810 H   0  0  0  0  0  0  0  0  0  0  0  0
  -25.3610  -15.2830   20.3620 N   0  0  0  0  0  0  0  0  0  0  0  0
  -24.5910  -15.9330   20.4700 H   0  0  0  0  0  0  0  0  0  0  0  0
  -26.2010  -15.7220   20.0050 H   0  0  0  0  0  0  0  0  0  0  0  0
  -28.6150  -23.2170   21.8740 C   0  0  0  0  0  2  0  0  0  0  0  0
  -29.1640  -21.7700   21.9890 C   0  0  0  0  0  2  0  0  0  0  0  0
  -28.9040  -22.2930   19.7120 C   0  0  0  0  0  2  0  0  0  0  0  0
  -28.9740  -23.7060   20.4630 C   0  0  0  0  0  3  0  0  0  0  0  0
  -29.0610  -21.1410   20.6690 N   0  0  0  0  0  0  0  0  0  0  0  0
  -28.0870  -24.9500   19.9120 C   0  0  0  0  0  2  0  0  0  0  0  0
  -28.2910  -26.3970   20.2860 O   0  0  0  0  0  0  0  0  0  0  0  0
  -24.6090  -31.9230   23.2320 C   0  0  0  0  0  0  0  0  0  0  0  0
  -27.2040  -27.3040   20.1950 C   0  0  0  0  0  0  0  0  0  0  0  0
  -23.4060  -30.5250   21.5950 C   0  0  0  0  0  3  0  0  0  0  0  0
  -24.8580  -28.9720   20.1670 C   0  0  0  0  0  0  0  0  0  0  0  0
  -25.9530  -30.8190   21.4270 C   0  0  0  0  0  2  0  0  0  0  0  0
  -26.0280  -29.4370   20.7790 C   0  0  0  0  0  0  0  0  0  0  0  0
  -27.2020  -28.6140   20.7860 C   0  0  0  0  0  3  0  0  0  0  0  0
  -26.0140  -26.9210   19.5350 C   0  0  0  0  0  3  0  0  0  0  0  0
  -24.8560  -27.7200   19.5350 C   0  0  0  0  0  3  0  0  0  0  0  0
  -23.6240  -29.8530   20.2150 C   0  0  0  0  0  2  0  0  0  0  0  0
  -24.6750  -31.1080   22.1410 N   0  0  0  0  0  0  0  0  0  0  0  0
  -23.5250  -32.2100   23.7600 O   0  0  0  0  0  0  0  0  0  0  0  0
  -22.7380  -29.5100   22.5540 C   0  0  0  0  0  0  0  0  0  0  0  0
  -21.4100  -29.3440   22.4320 N   0  0  0  0  0  0  0  0  0  0  0  0
  -23.4150  -28.8780   23.3690 O   0  0  0  0  0  0  0  0  0  0  0  0
  -20.9230  -29.9110   21.7520 H   0  0  0  0  0  0  0  0  0  0  0  0
  -18.0230  -28.1810   22.9460 C   0  0  0  0  0  0  0  0  0  0  0  0
  -20.5860  -28.4120   23.2040 C   0  0  0  0  0  3  0  0  0  0  0  0
  -20.6680  -26.9810   22.6220 C   0  0  0  0  0  2  0  0  0  0  0  0
  -19.5570  -26.6740   21.6130 C   0  0  0  0  0  2  0  0  0  0  0  0
  -18.1800  -26.8320   22.2650 C   0  0  0  0  0  2  0  0  0  0  0  0
  -19.1520  -28.9290   23.3730 C   0  0  0  0  0  0  0  0  0  0  0  0
  -18.9490  -30.1930   23.9670 C   0  0  0  0  0  3  0  0  0  0  0  0
  -17.6510  -30.7050   24.1450 C   0  0  0  0  0  3  0  0  0  0  0  0
  -16.5370  -29.9530   23.7350 C   0  0  0  0  0  3  0  0  0  0  0  0
  -16.7240  -28.6930   23.1410 C   0  0  0  0  0  3  0  0  0  0  0  0
  -25.8910  -32.5550   23.8550 C   0  0  0  0  0  3  0  0  0  0  0  0
  -26.4040  -31.7840   25.1330 C   0  0  1  0  0  0  0  0  0  0  0  0
  -25.3070  -31.5480   26.1980 C   0  0  0  0  0  1  0  0  0  0  0  0
  -26.9880  -30.4050   24.7470 C   0  0  0  0  0  1  0  0  0  0  0  0
  -27.5530  -32.5800   25.7960 C   0  0  0  0  0  1  0  0  0  0  0  0
  -25.5830  -33.9540   24.1850 N   0  0  0  0  0  0  0  0  0  0  0  0
  -25.9100  -35.0060   23.4240 C   0  0  0  0  0  0  0  0  0  0  0  0
  -26.5700  -34.9010   22.3860 O   0  0  0  0  0  0  0  0  0  0  0  0
  -24.9920  -34.1090   24.9890 H   0  0  0  0  0  0  0  0  0  0  0  0
  -24.1730  -36.7970   23.0890 C   0  0  0  0  0  1  0  0  0  0  0  0
  -25.4240  -36.3940   23.8850 C   0  0  0  0  0  3  0  0  0  0  0  0
  -27.5660  -37.2870   24.6900 C   0  0  0  0  0  1  0  0  0  0  0  0
  -26.4540  -37.4490   23.7570 N   0  0  0  0  0  0  0  0  0  0  0  0
  -26.0480  -38.3690   23.9090 H   0  0  0  0  0  0  0  0  0  0  0  0
  -31.8390  -21.4550   20.1060 N   0  0  0  0  0  0  0  0  0  0  0  0
  -31.2540  -22.1780   20.5090 H   0  0  0  0  0  0  0  0  0  0  0  0
  -32.8220  -21.5450   20.3330 H   0  0  0  0  0  0  0  0  0  0  0  0
  2  4  2  0
  3  1  2  0
  3 50  1  0
  4  1  1  0
  4 16  1  0
  5  3  1  0
  6  5  2  0
  6  2  1  0
  7  6  1  0
  8 16  1  0
  9 14  1  0
 10 11  1  0
 10  9  1  0
 12 11  1  0
 12 21  1  0
 12 13  1  0
 14  8  1  0
 14 13  1  0
 15  8  2  0
 16 17  1  0
 18 19  2  0
 19 38  1  0
 20 19  1  0
 20 23  1  0
 21 18  1  0
 21 22  1  0
 22 20  2  0
 23 24  1  0
 24 25  2  0
 26 29  1  0
 26 25  1  0
 27 26  2  0
 28 27  1  0
 28 23  2  0
 29 30  1  0
 30 31  1  0
 31 32  2  0
 33 32  1  0
 33 37  1  0
 34 33  2  0
 35 30  2  0
 35 34  1  0
 36 35  1  0
 38 39  1  0
 39 42  1  0
 39 41  1  0
 40 38  2  0
 43 44  1  0
 43 18  1  0
 45 43  1  0
 46 47  1  0
 48 49  1  0
 48 50  1  0
 49 51  1  0
 49 46  1  0
 50 47  1  0
 51 52  1  0
 53 64  2  0
 54 52  1  0
 54 59  1  0
 55 63  1  0
 55 65  1  0
 56 62  1  0
 56 58  1  0
 57 63  1  0
 58 59  2  0
 58 57  1  0
 60 54  2  0
 61 60  1  0
 61 56  2  0
 62 55  1  0
 63 53  1  0
 65 67  2  0
 66 65  1  0
 68 66  1  0
 69 78  2  0
 69 74  1  0
 70 66  1  0
 70 74  1  0
 71 70  1  0
 72 73  1  0
 72 71  1  0
 73 69  1  0
 74 75  2  0
 75 76  1  0
 77 76  2  0
 78 77  1  0
 79 53  1  0
 79 84  1  0
 79 80  1  0
 80 83  1  1
 80 81  1  0
 82 80  1  0
 84 87  1  0
 85 89  1  0
 85 84  1  0
 86 85  2  0
 89 88  1  0
 91 89  1  0
 91 92  1  0
 91 90  1  0
 93  5  1  0
 93 95  1  0
 93 94  1  0
M  ISO  4   8 100  16 100  51 101  52 101
M  END
>  <TORSDO>  (84) 
F 19

>  <SCORE>  (84) 
-14.797

>  <name>  (84) 
84

>  <ligand_id>  (84) 
84

>  <original_smiles>  (84) 
[H]c1c([H])c([H])c2c(c1[H])C([H])([H])C([H])([H])C([H])([H])C2([H])N([H])C(=O)C1([H])N(C(=O)C([H])(N([H])C(=O)C([H])(N([H])C([H])([H])[H])C([H])([H])[H])C(C([H])([H])[H])(C([H])([H])[H])C([H])([H])[H])C([H])([H])c2c([H])c(OC([H])([H])C3([H])C([H])([H])N(c4c([H])c(N([H])C(=O)N5C([H])([H])C([H])([H])C([H])([H])C([H])(n6nc(-c7c([H])c([H])c(Oc8c([H])c([H])c(F)c([H])c8F)c([H])c7[H])c(C(=O)N([H])[H])c6N([H])[H])C5([H])[H])c([H])c(F)c4N([H])[H])C([H])([H])C3([H])[H])c([H])c([H])c2C1([H])[H]

>  <smiles>  (84) 
[H]c1c([H])c([H])c2c(c1[H])C([H])([H])C([H])([H])C([H])([H])C2([H])N([H])C(=O)C1([H])N(C(=O)C([H])(N([H])C(=O)C([H])(N([H])C([H])([H])[H])C([H])([H])[H])C(C([H])([H])[H])(C([H])([H])[H])C([H])([H])[H])C([H])([H])c2c([H])c(OC([H])([H])C3([H])C([H])([H])N(c4c([H])c(N([H])C(=O)N5C([H])([H])C([H])([H])C([H])([H])C([H])(n6nc(-c7c([H])c([H])c(Oc8c([H])c([H])c(F)c([H])c8F)c([H])c7[H])c(C(=O)N([H])[H])c6N([H])[H])C5([H])[H])c([H])c(F)c4N([H])[H])C([H])([H])C3([H])[H])c([H])c([H])c2C1([H])[H]

$$$$
85:0:0
     RDKit          3D

 93101  0  0  1  0  0  0  0  0999 V2000
  -29.9670  -18.2790   21.2410 C   0  0  0  0  0  3  0  0  0  0  0  0
  -29.2380  -19.4880   21.2100 C   0  0  0  0  0  3  0  0  0  0  0  0
  -31.4650  -19.2110   19.5670 C   0  0  0  0  0  3  0  0  0  0  0  0
  -31.0860  -18.1160   20.3980 C   0  0  0  0  0  0  0  0  0  0  0  0
  -29.6250  -20.5780   20.3840 C   0  0  0  0  0  0  0  0  0  0  0  0
  -30.7830  -20.4670   19.5640 C   0  0  0  0  0  0  0  0  0  0  0  0
  -32.0320  -14.4600   20.7940 C   0  0  0  0  0  0  0  0  0  0  0  0
  -31.6380  -12.0380   20.4710 C   0  0  0  0  0  2  0  0  0  0  0  0
  -30.8770  -11.8450   19.1420 C   0  0  0  0  0  2  0  0  0  0  0  0
  -29.3550  -11.9390   19.3730 C   0  0  0  0  0  2  0  0  0  0  0  0
  -28.9590  -13.1950   20.1900 C   0  0  0  0  0  3  0  0  0  0  0  0
  -29.8550  -13.3390   21.4420 C   0  0  0  0  0  2  0  0  0  0  0  0
  -31.2500  -13.3570   21.0000 N   0  0  0  0  0  0  0  0  0  0  0  0
  -33.2210  -14.3150   20.4920 O   0  0  0  0  0  0  0  0  0  0  0  0
  -31.9590  -16.8730   20.4690 C   0  0  0  0  0  0  0  0  0  0  0  0
  -31.4040  -15.6700   20.7930 N   0  0  0  0  0  0  0  0  0  0  0  0
  -33.1520  -17.0330   20.1910 O   0  0  0  0  0  0  0  0  0  0  0  0
  -30.4230  -15.6700   21.0150 H   0  0  0  0  0  0  0  0  0  0  0  0
  -26.6670  -14.2700   20.6350 C   0  0  0  0  0  0  0  0  0  0  0  0
  -25.4410  -13.7300   20.9220 C   0  0  0  0  0  0  0  0  0  0  0  0
  -25.6380  -12.3150   20.9800 C   0  0  0  0  0  0  0  0  0  0  0  0
  -27.5400  -13.1990   20.5380 N   0  0  0  0  0  0  0  0  0  0  0  0
  -26.9190  -12.0200   20.8000 N   0  0  0  0  0  0  0  0  0  0  0  0
  -24.6660  -11.2230   21.1300 C   0  0  0  0  0  0  0  0  0  0  0  0
  -24.8930  -10.1630   22.0310 C   0  0  0  0  0  3  0  0  0  0  0  0
  -23.9440   -9.1290   22.1780 C   0  0  0  0  0  3  0  0  0  0  0  0
  -22.7500   -9.1500   21.4220 C   0  0  0  0  0  0  0  0  0  0  0  0
  -22.5360  -10.1960   20.5080 C   0  0  0  0  0  3  0  0  0  0  0  0
  -23.4830  -11.2240   20.3610 C   0  0  0  0  0  3  0  0  0  0  0  0
  -21.7810   -8.1780   21.4780 O   0  0  0  0  0  0  0  0  0  0  0  0
  -21.6840   -7.3230   22.5450 C   0  0  0  0  0  0  0  0  0  0  0  0
  -21.5040   -7.7930   23.8650 C   0  0  0  0  0  3  0  0  0  0  0  0
  -21.3350   -6.8750   24.9210 C   0  0  0  0  0  3  0  0  0  0  0  0
  -21.3350   -5.4910   24.6620 C   0  0  0  0  0  0  0  0  0  0  0  0
  -21.5060   -5.0240   23.3470 C   0  0  0  0  0  3  0  0  0  0  0  0
  -21.6780   -5.9370   22.2920 C   0  0  0  0  0  0  0  0  0  0  0  0
  -21.8200   -5.4800   21.0260 F   0  0  0  0  0  0  0  0  0  0  0  0
  -21.1650   -4.6110   25.6760 F   0  0  0  0  0  0  0  0  0  0  0  0
  -24.1400  -14.4710   21.0380 C   0  0  0  0  0  0  0  0  0  0  0  0
  -23.2180  -13.9690   21.8570 N   0  0  0  0  0  0  0  0  0  0  0  0
  -23.9530  -15.5300   20.4410 O   0  0  0  0  0  0  0  0  0  0  0  0
  -23.3800  -13.1170   22.3720 H   0  0  0  0  0  0  0  0  0  0  0  0
  -22.3320  -14.4430   21.9630 H   0  0  0  0  0  0  0  0  0  0  0  0
  -27.1150  -15.5700   20.4340 N   0  0  0  0  0  0  0  0  0  0  0  0
  -26.4880  -16.3670   20.4100 H   0  0  0  0  0  0  0  0  0  0  0  0
  -28.0560  -15.8040   20.1480 H   0  0  0  0  0  0  0  0  0  0  0  0
  -28.4950  -22.3720   21.5200 C   0  0  0  0  0  1  0  0  0  0  0  0
  -28.8470  -21.7120   20.3090 O   0  0  0  0  0  0  0  0  0  0  0  0
  -31.2910  -21.4770   18.7270 O   0  0  0  0  0  0  0  0  0  0  0  0
  -31.3250  -22.8910   19.0940 C   0  0  0  0  0  2  0  0  0  0  0  0
  -31.0550  -23.8290   17.8620 C   0  0  0  0  0  2  0  0  0  0  0  0
  -30.8890  -25.3540   18.2210 C   0  0  0  0  0  2  0  0  0  0  0  0
  -30.1040  -26.1540   17.2940 O   0  0  0  0  0  0  0  0  0  0  0  0
  -26.0600  -28.4660   22.7500 C   0  0  0  0  0  0  0  0  0  0  0  0
  -28.8740  -26.6240   17.7400 C   0  0  0  0  0  0  0  0  0  0  0  0
  -24.8610  -27.9260   20.6560 C   0  0  0  0  0  3  0  0  0  0  0  0
  -26.3280  -27.5630   18.5930 C   0  0  0  0  0  0  0  0  0  0  0  0
  -27.2930  -28.7190   20.5870 C   0  0  0  0  0  2  0  0  0  0  0  0
  -27.4730  -27.8840   19.3330 C   0  0  0  0  0  0  0  0  0  0  0  0
  -28.7470  -27.4310   18.9000 C   0  0  0  0  0  3  0  0  0  0  0  0
  -27.7100  -26.3350   16.9990 C   0  0  0  0  0  3  0  0  0  0  0  0
  -26.4450  -26.7980   17.4160 C   0  0  0  0  0  3  0  0  0  0  0  0
  -25.0020  -28.0690   19.1150 C   0  0  0  0  0  2  0  0  0  0  0  0
  -26.0970  -28.3520   21.3900 N   0  0  0  0  0  0  0  0  0  0  0  0
  -25.0150  -28.2560   23.3840 O   0  0  0  0  0  0  0  0  0  0  0  0
  -24.4250  -26.4760   20.9760 C   0  0  0  0  0  0  0  0  0  0  0  0
  -23.1530  -26.1510   20.6940 N   0  0  0  0  0  0  0  0  0  0  0  0
  -25.2320  -25.6620   21.4370 O   0  0  0  0  0  0  0  0  0  0  0  0
  -22.5500  -26.8730   20.3230 H   0  0  0  0  0  0  0  0  0  0  0  0
  -20.1090  -24.2590   20.2070 C   0  0  0  0  0  0  0  0  0  0  0  0
  -22.5450  -24.8300   20.8660 C   0  0  0  0  0  3  0  0  0  0  0  0
  -22.9650  -23.8670   19.7330 C   0  0  0  0  0  2  0  0  0  0  0  0
  -21.9820  -23.8470   18.5580 C   0  0  0  0  0  2  0  0  0  0  0  0
  -20.5880  -23.4260   19.0300 C   0  0  0  0  0  2  0  0  0  0  0  0
  -21.0270  -24.9280   21.0610 C   0  0  0  0  0  0  0  0  0  0  0  0
  -20.5290  -25.7120   22.1240 C   0  0  0  0  0  3  0  0  0  0  0  0
  -19.1440  -25.8370   22.3400 C   0  0  0  0  0  3  0  0  0  0  0  0
  -18.2390  -25.1560   21.5060 C   0  0  0  0  0  3  0  0  0  0  0  0
  -18.7230  -24.3660   20.4470 C   0  0  0  0  0  3  0  0  0  0  0  0
  -27.3180  -28.8810   23.5720 C   0  0  0  0  0  3  0  0  0  0  0  0
  -26.8670  -29.7470   24.6740 N   0  0  0  0  0  0  0  0  0  0  0  0
  -27.0460  -31.0710   24.7180 C   0  0  0  0  0  0  0  0  0  0  0  0
  -27.6840  -31.6900   23.8610 O   0  0  0  0  0  0  0  0  0  0  0  0
  -26.2940  -29.3140   25.3830 H   0  0  0  0  0  0  0  0  0  0  0  0
  -25.1290  -32.5230   25.4520 C   0  0  0  0  0  1  0  0  0  0  0  0
  -26.4250  -31.8320   25.9050 C   0  0  0  0  0  3  0  0  0  0  0  0
  -28.4760  -32.2270   27.1960 C   0  0  0  0  0  1  0  0  0  0  0  0
  -27.3350  -32.8300   26.5080 N   0  0  0  0  0  0  0  0  0  0  0  0
  -26.8400  -33.4200   27.1690 H   0  0  0  0  0  0  0  0  0  0  0  0
  -28.1310  -27.6490   24.1300 C   0  0  1  0  0  0  0  0  0  0  0  0
  -27.2640  -26.6350   24.9120 C   0  0  0  0  0  1  0  0  0  0  0  0
  -28.8260  -26.8860   22.9780 C   0  0  0  0  0  1  0  0  0  0  0  0
  -29.2570  -28.1430   25.0670 C   0  0  0  0  0  1  0  0  0  0  0  0
  2  1  1  0
  3  4  1  0
  4 15  1  0
  4  1  2  0
  5  2  2  0
  6  3  2  0
  6  5  1  0
  7 13  1  0
  8 13  1  0
  9 10  1  0
  9  8  1  0
 11 10  1  0
 11 22  1  0
 11 12  1  0
 13 12  1  0
 14  7  2  0
 15 16  1  0
 16  7  1  0
 16 18  1  0
 17 15  2  0
 19 20  2  0
 20 21  1  0
 20 39  1  0
 21 24  1  0
 22 19  1  0
 22 23  1  0
 23 21  2  0
 24 25  1  0
 25 26  2  0
 27 30  1  0
 27 26  1  0
 28 27  2  0
 29 28  1  0
 29 24  2  0
 30 31  1  0
 31 32  1  0
 32 33  2  0
 34 33  1  0
 34 38  1  0
 35 34  2  0
 36 31  2  0
 36 35  1  0
 37 36  1  0
 39 40  1  0
 40 43  1  0
 40 42  1  0
 41 39  2  0
 44 19  1  0
 45 44  1  0
 46 44  1  0
 48  5  1  0
 48 47  1  0
 49 50  1  0
 49  6  1  0
 51 52  1  0
 51 50  1  0
 53 55  1  0
 53 52  1  0
 54 65  2  0
 55 60  1  0
 56 66  1  0
 56 64  1  0
 57 63  1  0
 57 59  1  0
 58 64  1  0
 59 58  1  0
 60 59  2  0
 61 62  1  0
 61 55  2  0
 62 57  2  0
 63 56  1  0
 64 54  1  0
 66 68  2  0
 67 66  1  0
 69 67  1  0
 70 79  2  0
 70 75  1  0
 71 67  1  0
 71 75  1  0
 72 71  1  0
 73 74  1  0
 73 72  1  0
 74 70  1  0
 75 76  2  0
 76 77  1  0
 78 77  2  0
 79 78  1  0
 80 54  1  0
 80 90  1  0
 80 81  1  0
 81 82  1  0
 81 84  1  0
 82 86  1  0
 83 82  2  0
 86 85  1  0
 86 88  1  0
 88 89  1  0
 88 87  1  0
 90 91  1  1
 90 93  1  0
 92 90  1  0
M  ISO  4   7 100  16 100  52 101  53 101
M  END
>  <TORSDO>  (85) 
F 21

>  <SCORE>  (85) 
-8.750

>  <name>  (85) 
85

>  <ligand_id>  (85) 
85

>  <original_smiles>  (85) 
[H]c1c([H])c([H])c2c(c1[H])C([H])([H])C([H])([H])C([H])([H])C2([H])N([H])C(=O)C1([H])N(C(=O)C([H])(N([H])C(=O)C([H])(N([H])C([H])([H])[H])C([H])([H])[H])C(C([H])([H])[H])(C([H])([H])[H])C([H])([H])[H])C([H])([H])c2c([H])c(OC([H])([H])C([H])([H])C([H])([H])Oc3c([H])c(C(=O)N([H])C(=O)N4C([H])([H])C([H])([H])C([H])([H])C([H])(n5nc(-c6c([H])c([H])c(Oc7c([H])c([H])c(F)c([H])c7F)c([H])c6[H])c(C(=O)N([H])[H])c5N([H])[H])C4([H])[H])c([H])c([H])c3OC([H])([H])[H])c([H])c([H])c2C1([H])[H]

>  <smiles>  (85) 
[H]c1c([H])c([H])c2c(c1[H])C([H])([H])C([H])([H])C([H])([H])C2([H])N([H])C(=O)C1([H])N(C(=O)C([H])(N([H])C(=O)C([H])(N([H])C([H])([H])[H])C([H])([H])[H])C(C([H])([H])[H])(C([H])([H])[H])C([H])([H])[H])C([H])([H])c2c([H])c(OC([H])([H])C([H])([H])C([H])([H])Oc3c([H])c(C(=O)N([H])C(=O)N4C([H])([H])C([H])([H])C([H])([H])C([H])(n5nc(-c6c([H])c([H])c(Oc7c([H])c([H])c(F)c([H])c7F)c([H])c6[H])c(C(=O)N([H])[H])c5N([H])[H])C4([H])[H])c([H])c([H])c3OC([H])([H])[H])c([H])c([H])c2C1([H])[H]

$$$$
86:0:0
     RDKit          3D

 97105  0  0  1  0  0  0  0  0999 V2000
  -30.5420  -18.6800   21.8840 C   0  0  0  0  0  3  0  0  0  0  0  0
  -30.0880  -19.9140   22.3930 C   0  0  0  0  0  3  0  0  0  0  0  0
  -29.1490  -18.9900   19.9210 C   0  0  0  0  0  3  0  0  0  0  0  0
  -30.1250  -18.2340   20.6130 C   0  0  0  0  0  0  0  0  0  0  0  0
  -29.2200  -20.7280   21.6320 C   0  0  0  0  0  0  0  0  0  0  0  0
  -28.7120  -20.2510   20.4040 C   0  0  0  0  0  0  0  0  0  0  0  0
  -27.5300  -20.7460   18.3720 C   0  0  0  0  0  1  0  0  0  0  0  0
  -27.8550  -21.0860   19.7140 O   0  0  0  0  0  0  0  0  0  0  0  0
  -28.9040  -22.0370   22.0300 N   0  0  0  0  0  0  0  0  0  0  0  0
  -28.2050  -22.4490   21.4150 H   0  0  0  0  0  0  0  0  0  0  0  0
  -30.0790  -22.8760   22.2530 C   0  0  0  0  0  2  0  0  0  0  0  0
  -29.7660  -24.3810   22.3290 C   0  0  0  0  0  2  0  0  0  0  0  0
  -29.2160  -25.0010   21.0290 C   0  0  0  0  0  2  0  0  0  0  0  0
  -29.0740  -26.5360   21.1110 C   0  0  0  0  0  2  0  0  0  0  0  0
  -28.6170  -27.0470   19.8600 O   0  0  0  0  0  0  0  0  0  0  0  0
  -24.6480  -31.9430   23.1800 C   0  0  0  0  0  0  0  0  0  0  0  0
  -27.4450  -27.7570   19.9180 C   0  0  0  0  0  0  0  0  0  0  0  0
  -23.4860  -30.5700   21.4800 C   0  0  0  0  0  3  0  0  0  0  0  0
  -24.9950  -29.1500   19.9880 C   0  0  0  0  0  0  0  0  0  0  0  0
  -25.9920  -31.0370   21.2900 C   0  0  0  0  0  2  0  0  0  0  0  0
  -26.1280  -29.6970   20.6030 C   0  0  0  0  0  0  0  0  0  0  0  0
  -27.3570  -29.0030   20.5760 C   0  0  0  0  0  3  0  0  0  0  0  0
  -26.3050  -27.2230   19.2890 C   0  0  0  0  0  3  0  0  0  0  0  0
  -25.0750  -27.9090   19.3300 C   0  0  0  0  0  3  0  0  0  0  0  0
  -23.7170  -29.9560   20.0710 C   0  0  0  0  0  2  0  0  0  0  0  0
  -24.7260  -31.1960   22.0420 N   0  0  0  0  0  0  0  0  0  0  0  0
  -23.5620  -32.1500   23.7360 O   0  0  0  0  0  0  0  0  0  0  0  0
  -22.8800  -29.4850   22.3980 C   0  0  0  0  0  0  0  0  0  0  0  0
  -21.5570  -29.2810   22.2890 N   0  0  0  0  0  0  0  0  0  0  0  0
  -23.5960  -28.8310   23.1610 O   0  0  0  0  0  0  0  0  0  0  0  0
  -21.0400  -29.8620   21.6440 H   0  0  0  0  0  0  0  0  0  0  0  0
  -18.2160  -28.0080   22.8050 C   0  0  0  0  0  0  0  0  0  0  0  0
  -20.7770  -28.2860   23.0230 C   0  0  0  0  0  3  0  0  0  0  0  0
  -20.8830  -26.8940   22.3600 C   0  0  0  0  0  2  0  0  0  0  0  0
  -19.7580  -26.6160   21.3570 C   0  0  0  0  0  2  0  0  0  0  0  0
  -18.3920  -26.7040   22.0440 C   0  0  0  0  0  2  0  0  0  0  0  0
  -19.3360  -28.7580   23.2500 C   0  0  0  0  0  0  0  0  0  0  0  0
  -19.1190  -29.9810   23.9210 C   0  0  0  0  0  3  0  0  0  0  0  0
  -17.8140  -30.4560   24.1480 C   0  0  0  0  0  3  0  0  0  0  0  0
  -16.7090  -29.7010   23.7210 C   0  0  0  0  0  3  0  0  0  0  0  0
  -16.9110  -28.4780   23.0560 C   0  0  0  0  0  3  0  0  0  0  0  0
  -25.9160  -32.5920   23.8210 C   0  0  0  0  0  3  0  0  0  0  0  0
  -26.4330  -31.8190   25.0960 C   0  0  1  0  0  0  0  0  0  0  0  0
  -25.3340  -31.5570   26.1520 C   0  0  0  0  0  1  0  0  0  0  0  0
  -27.0390  -30.4530   24.6940 C   0  0  0  0  0  1  0  0  0  0  0  0
  -27.5640  -32.6240   25.7750 C   0  0  0  0  0  1  0  0  0  0  0  0
  -25.5780  -33.9810   24.1560 N   0  0  0  0  0  0  0  0  0  0  0  0
  -25.9070  -35.0430   23.4090 C   0  0  0  0  0  0  0  0  0  0  0  0
  -26.5990  -34.9580   22.3910 O   0  0  0  0  0  0  0  0  0  0  0  0
  -24.9700  -34.1200   24.9490 H   0  0  0  0  0  0  0  0  0  0  0  0
  -24.1520  -36.8020   23.0310 C   0  0  0  0  0  1  0  0  0  0  0  0
  -25.3840  -36.4170   23.8650 C   0  0  0  0  0  3  0  0  0  0  0  0
  -27.4890  -37.3310   24.7380 C   0  0  0  0  0  1  0  0  0  0  0  0
  -26.3960  -37.4930   23.7840 N   0  0  0  0  0  0  0  0  0  0  0  0
  -25.9670  -38.4000   23.9450 H   0  0  0  0  0  0  0  0  0  0  0  0
  -30.8350  -17.0300   19.9700 C   0  0  0  0  0  3  0  0  0  0  0  0
  -31.3640  -14.6610   20.4410 C   0  0  0  0  0  0  0  0  0  0  0  0
  -31.0410  -12.4610   19.4050 C   0  0  0  0  0  2  0  0  0  0  0  0
  -30.1540  -12.6720   18.1600 C   0  0  0  0  0  2  0  0  0  0  0  0
  -28.6570  -12.6240   18.5330 C   0  0  0  0  0  2  0  0  0  0  0  0
  -28.3140  -13.5100   19.7610 C   0  0  0  0  0  3  0  0  0  0  0  0
  -29.3190  -13.2790   20.9140 C   0  0  0  0  0  2  0  0  0  0  0  0
  -30.6720  -13.4930   20.3850 N   0  0  0  0  0  0  0  0  0  0  0  0
  -32.5320  -14.7640   20.0550 O   0  0  0  0  0  0  0  0  0  0  0  0
  -30.5970  -15.7500   20.6470 N   0  0  0  0  0  0  0  0  0  0  0  0
  -29.6640  -15.5880   20.9910 H   0  0  0  0  0  0  0  0  0  0  0  0
  -25.9450  -14.2620   20.4320 C   0  0  0  0  0  0  0  0  0  0  0  0
  -24.8210  -13.5530   20.7610 C   0  0  0  0  0  0  0  0  0  0  0  0
  -25.1930  -12.1750   20.7070 C   0  0  0  0  0  0  0  0  0  0  0  0
  -26.9350  -13.3170   20.2020 N   0  0  0  0  0  0  0  0  0  0  0  0
  -26.4840  -12.0570   20.4230 N   0  0  0  0  0  0  0  0  0  0  0  0
  -24.3810  -10.9600   20.8510 C   0  0  0  0  0  0  0  0  0  0  0  0
  -24.7460   -9.9310   21.7460 C   0  0  0  0  0  3  0  0  0  0  0  0
  -23.9400   -8.7810   21.8800 C   0  0  0  0  0  3  0  0  0  0  0  0
  -22.7550   -8.6510   21.1190 C   0  0  0  0  0  0  0  0  0  0  0  0
  -22.4080   -9.6690   20.2120 C   0  0  0  0  0  3  0  0  0  0  0  0
  -23.2150  -10.8110   20.0750 C   0  0  0  0  0  3  0  0  0  0  0  0
  -21.9250   -7.5570   21.1640 O   0  0  0  0  0  0  0  0  0  0  0  0
  -21.8380   -6.7650   22.2810 C   0  0  0  0  0  0  0  0  0  0  0  0
  -21.4830   -7.2920   23.5430 C   0  0  0  0  0  3  0  0  0  0  0  0
  -21.3340   -6.4330   24.6490 C   0  0  0  0  0  3  0  0  0  0  0  0
  -21.5310   -5.0480   24.4970 C   0  0  0  0  0  0  0  0  0  0  0  0
  -21.8790   -4.5190   23.2410 C   0  0  0  0  0  3  0  0  0  0  0  0
  -22.0270   -5.3750   22.1360 C   0  0  0  0  0  0  0  0  0  0  0  0
  -22.3410   -4.8580   20.9230 F   0  0  0  0  0  0  0  0  0  0  0  0
  -21.3810   -4.2200   25.5580 F   0  0  0  0  0  0  0  0  0  0  0  0
  -23.4510  -14.1140   21.0190 C   0  0  0  0  0  0  0  0  0  0  0  0
  -22.6690  -13.4550   21.8670 N   0  0  0  0  0  0  0  0  0  0  0  0
  -23.0850  -15.1690   20.5010 O   0  0  0  0  0  0  0  0  0  0  0  0
  -22.9770  -12.5970   22.3000 H   0  0  0  0  0  0  0  0  0  0  0  0
  -21.7500  -13.8120   22.0810 H   0  0  0  0  0  0  0  0  0  0  0  0
  -26.2040  -15.6220   20.2920 N   0  0  0  0  0  0  0  0  0  0  0  0
  -25.4780  -16.3230   20.3870 H   0  0  0  0  0  0  0  0  0  0  0  0
  -27.0880  -16.0100   19.9940 H   0  0  0  0  0  0  0  0  0  0  0  0
  -30.5840  -16.8720   18.4440 C   0  0  0  0  0  2  0  0  0  0  0  0
  -30.7900  -17.9020   16.1130 C   0  0  0  0  0  1  0  0  0  0  0  0
  -31.1380  -18.0340   17.5990 C   0  0  0  0  0  2  0  0  0  0  0  0
  1  2  1  0
  3  6  2  0
  3  4  1  0
  4  1  2  0
  5  9  1  0
  5  2  2  0
  6  5  1  0
  7  8  1  0
  8  6  1  0
  9 11  1  0
 10  9  1  0
 11 12  1  0
 13 14  1  0
 13 12  1  0
 15 17  1  0
 15 14  1  0
 16 27  2  0
 17 22  1  0
 18 26  1  0
 18 28  1  0
 19 25  1  0
 19 21  1  0
 20 26  1  0
 21 20  1  0
 22 21  2  0
 23 24  1  0
 23 17  2  0
 24 19  2  0
 25 18  1  0
 26 16  1  0
 28 30  2  0
 29 28  1  0
 31 29  1  0
 32 41  2  0
 32 37  1  0
 33 29  1  0
 33 37  1  0
 34 33  1  0
 35 36  1  0
 35 34  1  0
 36 32  1  0
 37 38  2  0
 38 39  1  0
 40 39  2  0
 41 40  1  0
 42 16  1  0
 42 47  1  0
 42 43  1  0
 43 46  1  1
 43 44  1  0
 45 43  1  0
 47 50  1  0
 48 52  1  0
 48 47  1  0
 49 48  2  0
 52 51  1  0
 54 52  1  0
 54 55  1  0
 54 53  1  0
 56 95  1  0
 56  4  1  0
 56 65  1  0
 57 65  1  0
 58 63  1  0
 59 60  1  0
 59 58  1  0
 61 60  1  0
 61 70  1  0
 61 62  1  0
 63 57  1  0
 63 62  1  0
 64 57  2  0
 65 66  1  0
 67 68  2  0
 68 87  1  0
 69 68  1  0
 69 72  1  0
 70 71  1  0
 70 67  1  0
 71 69  2  0
 72 73  1  0
 73 74  2  0
 75 78  1  0
 75 74  1  0
 76 75  2  0
 77 76  1  0
 77 72  2  0
 78 79  1  0
 79 80  1  0
 80 81  2  0
 82 81  1  0
 82 86  1  0
 83 82  2  0
 84 79  2  0
 84 83  1  0
 85 84  1  0
 87 88  1  0
 88 91  1  0
 88 90  1  0
 89 87  2  0
 92 93  1  0
 92 67  1  0
 94 92  1  0
 96 97  1  0
 97 95  1  0
M  ISO  4  14 101  15 101  57 100  65 100
M  END
>  <TORSDO>  (86) 
F 25

>  <SCORE>  (86) 
-11.163

>  <name>  (86) 
86

>  <ligand_id>  (86) 
86

>  <original_smiles>  (86) 
[H]c1c([H])c([H])c2c(c1[H])C([H])([H])C([H])([H])C([H])([H])C2([H])N([H])C(=O)C1([H])N(C(=O)C([H])(N([H])C(=O)C([H])(N([H])C([H])([H])[H])C([H])([H])[H])C(C([H])([H])[H])(C([H])([H])[H])C([H])([H])[H])C([H])([H])c2c([H])c(OC([H])([H])C([H])([H])C([H])([H])C([H])([H])N([H])c3c([H])c([H])c(C([H])(N([H])C(=O)N4C([H])([H])C([H])([H])C([H])([H])C([H])(n5nc(-c6c([H])c([H])c(Oc7c([H])c([H])c(F)c([H])c7F)c([H])c6[H])c(C(=O)N([H])[H])c5N([H])[H])C4([H])[H])C([H])([H])C([H])([H])C([H])([H])[H])c([H])c3OC([H])([H])[H])c([H])c([H])c2C1([H])[H]

>  <smiles>  (86) 
[H]c1c([H])c([H])c2c(c1[H])C([H])([H])C([H])([H])C([H])([H])C2([H])N([H])C(=O)C1([H])N(C(=O)C([H])(N([H])C(=O)C([H])(N([H])C([H])([H])[H])C([H])([H])[H])C(C([H])([H])[H])(C([H])([H])[H])C([H])([H])[H])C([H])([H])c2c([H])c(OC([H])([H])C([H])([H])C([H])([H])C([H])([H])N([H])c3c([H])c([H])c(C([H])(N([H])C(=O)N4C([H])([H])C([H])([H])C([H])([H])C([H])(n5nc(-c6c([H])c([H])c(Oc7c([H])c([H])c(F)c([H])c7F)c([H])c6[H])c(C(=O)N([H])[H])c5N([H])[H])C4([H])[H])C([H])([H])C([H])([H])C([H])([H])[H])c([H])c3OC([H])([H])[H])c([H])c([H])c2C1([H])[H]

$$$$
87:0:0
     RDKit          3D

 94102  0  0  1  0  0  0  0  0999 V2000
  -29.5670  -17.8620   21.2120 C   0  0  0  0  0  3  0  0  0  0  0  0
  -29.4080  -19.2380   21.5680 C   0  0  0  0  0  3  0  0  0  0  0  0
  -30.6430  -18.5490   19.1950 C   0  0  0  0  0  3  0  0  0  0  0  0
  -30.1840  -17.4590   19.9970 C   0  0  0  0  0  0  0  0  0  0  0  0
  -29.8310  -20.3080   20.7290 C   0  0  0  0  0  0  0  0  0  0  0  0
  -30.4730  -19.9180   19.5280 C   0  0  0  0  0  0  0  0  0  0  0  0
  -30.9480  -20.8610   18.6780 F   0  0  0  0  0  0  0  0  0  0  0  0
  -29.2510  -22.6480   20.4330 C   0  0  0  0  0  3  0  0  0  0  0  0
  -29.7130  -21.6710   21.1570 N   0  0  0  0  0  0  0  0  0  0  0  0
  -29.2200  -24.1690   20.7900 C   0  0  0  0  0  0  0  0  0  0  0  0
  -29.8560  -24.6130   21.7560 O   0  0  0  0  0  0  0  0  0  0  0  0
  -28.3350  -25.1480   19.9430 C   0  0  0  0  0  2  0  0  0  0  0  0
  -28.4550  -26.5820   20.2880 O   0  0  0  0  0  0  0  0  0  0  0  0
  -24.6140  -31.8800   23.2530 C   0  0  0  0  0  0  0  0  0  0  0  0
  -27.3180  -27.3950   20.1980 C   0  0  0  0  0  0  0  0  0  0  0  0
  -23.4470  -30.4890   21.5780 C   0  0  0  0  0  3  0  0  0  0  0  0
  -24.9340  -28.9680   20.1610 C   0  0  0  0  0  0  0  0  0  0  0  0
  -25.9850  -30.8350   21.4430 C   0  0  0  0  0  2  0  0  0  0  0  0
  -26.0850  -29.4650   20.7860 C   0  0  0  0  0  0  0  0  0  0  0  0
  -27.2770  -28.6870   20.7990 C   0  0  0  0  0  3  0  0  0  0  0  0
  -26.1490  -26.9550   19.5340 C   0  0  0  0  0  3  0  0  0  0  0  0
  -24.9670  -27.7170   19.5270 C   0  0  0  0  0  3  0  0  0  0  0  0
  -23.6890  -29.8290   20.1950 C   0  0  0  0  0  2  0  0  0  0  0  0
  -24.6990  -31.0840   22.1480 N   0  0  0  0  0  0  0  0  0  0  0  0
  -23.5200  -32.1430   23.7730 O   0  0  0  0  0  0  0  0  0  0  0  0
  -22.7790  -29.4570   22.5170 C   0  0  0  0  0  0  0  0  0  0  0  0
  -21.4540  -29.2840   22.3790 N   0  0  0  0  0  0  0  0  0  0  0  0
  -23.4510  -28.8140   23.3280 O   0  0  0  0  0  0  0  0  0  0  0  0
  -20.9720  -29.8550   21.6980 H   0  0  0  0  0  0  0  0  0  0  0  0
  -18.0650  -28.1170   22.8620 C   0  0  0  0  0  0  0  0  0  0  0  0
  -20.6260  -28.3380   23.1280 C   0  0  0  0  0  3  0  0  0  0  0  0
  -20.7090  -26.9210   22.5170 C   0  0  0  0  0  2  0  0  0  0  0  0
  -19.5990  -26.6360   21.5000 C   0  0  0  0  0  2  0  0  0  0  0  0
  -18.2230  -26.7820   22.1530 C   0  0  0  0  0  2  0  0  0  0  0  0
  -19.1950  -28.8550   23.3060 C   0  0  0  0  0  0  0  0  0  0  0  0
  -18.9940  -30.1050   23.9300 C   0  0  0  0  0  3  0  0  0  0  0  0
  -17.6960  -30.6180   24.1140 C   0  0  0  0  0  3  0  0  0  0  0  0
  -16.5800  -29.8790   23.6850 C   0  0  0  0  0  3  0  0  0  0  0  0
  -16.7660  -28.6290   23.0650 C   0  0  0  0  0  3  0  0  0  0  0  0
  -25.8830  -32.5130   23.9010 C   0  0  0  0  0  3  0  0  0  0  0  0
  -25.5690  -33.9150   24.2100 N   0  0  0  0  0  0  0  0  0  0  0  0
  -25.9050  -34.9590   23.4390 C   0  0  0  0  0  0  0  0  0  0  0  0
  -26.5830  -34.8420   22.4140 O   0  0  0  0  0  0  0  0  0  0  0  0
  -24.9680  -34.0790   25.0040 H   0  0  0  0  0  0  0  0  0  0  0  0
  -24.1760  -36.7420   23.0470 C   0  0  0  0  0  1  0  0  0  0  0  0
  -25.4120  -36.3530   23.8730 C   0  0  0  0  0  3  0  0  0  0  0  0
  -27.5320  -37.2600   24.7140 C   0  0  0  0  0  1  0  0  0  0  0  0
  -26.4440  -37.4060   23.7520 N   0  0  0  0  0  0  0  0  0  0  0  0
  -26.0360  -38.3290   23.8710 H   0  0  0  0  0  0  0  0  0  0  0  0
  -26.3620  -31.7540   25.1990 C   0  0  1  0  0  0  0  0  0  0  0  0
  -25.2390  -31.5300   26.2380 C   0  0  0  0  0  1  0  0  0  0  0  0
  -26.9520  -30.3710   24.8380 C   0  0  0  0  0  1  0  0  0  0  0  0
  -27.4970  -32.5510   25.8820 C   0  0  0  0  0  1  0  0  0  0  0  0
  -30.2360  -16.0390   19.3790 C   0  0  0  0  0  3  0  0  0  0  0  0
  -30.7460  -14.7600   20.2110 C   0  0  0  0  0  0  0  0  0  0  0  0
  -30.4690  -12.4630   19.3710 C   0  0  0  0  0  2  0  0  0  0  0  0
  -29.5370  -12.4870   18.1410 C   0  0  0  0  0  2  0  0  0  0  0  0
  -28.0630  -12.3430   18.5760 C   0  0  0  0  0  2  0  0  0  0  0  0
  -27.6690  -13.2670   19.7610 C   0  0  0  0  0  3  0  0  0  0  0  0
  -28.7460  -13.2940   20.8670 C   0  0  0  0  0  2  0  0  0  0  0  0
  -30.0560  -13.5700   20.2520 N   0  0  0  0  0  0  0  0  0  0  0  0
  -31.9700  -14.7320   20.3290 O   0  0  0  0  0  0  0  0  0  0  0  0
  -25.2880  -13.8730   20.4850 C   0  0  0  0  0  0  0  0  0  0  0  0
  -24.2180  -13.0990   20.8360 C   0  0  0  0  0  0  0  0  0  0  0  0
  -24.6870  -11.7500   20.8260 C   0  0  0  0  0  0  0  0  0  0  0  0
  -26.3360  -12.9890   20.2710 N   0  0  0  0  0  0  0  0  0  0  0  0
  -25.9830  -11.7100   20.5420 N   0  0  0  0  0  0  0  0  0  0  0  0
  -23.9670  -10.4890   21.0140 C   0  0  0  0  0  0  0  0  0  0  0  0
  -24.3770   -9.5440   21.9780 C   0  0  0  0  0  3  0  0  0  0  0  0
  -23.6560   -8.3440   22.1540 C   0  0  0  0  0  3  0  0  0  0  0  0
  -22.5120   -8.0820   21.3640 C   0  0  0  0  0  0  0  0  0  0  0  0
  -22.1240   -9.0150   20.3870 C   0  0  0  0  0  3  0  0  0  0  0  0
  -22.8450  -10.2070   20.2090 C   0  0  0  0  0  3  0  0  0  0  0  0
  -21.7630   -6.9340   21.4490 O   0  0  0  0  0  0  0  0  0  0  0  0
  -21.6590   -6.2280   22.6210 C   0  0  0  0  0  0  0  0  0  0  0  0
  -21.1270   -6.8070   23.7930 C   0  0  0  0  0  3  0  0  0  0  0  0
  -20.9750   -6.0260   24.9570 C   0  0  0  0  0  3  0  0  0  0  0  0
  -21.3430   -4.6670   24.9460 C   0  0  0  0  0  0  0  0  0  0  0  0
  -21.8680   -4.0890   23.7770 C   0  0  0  0  0  3  0  0  0  0  0  0
  -22.0240   -4.8670   22.6170 C   0  0  0  0  0  0  0  0  0  0  0  0
  -22.5110   -4.3000   21.4870 F   0  0  0  0  0  0  0  0  0  0  0  0
  -21.1880   -3.9140   26.0590 F   0  0  0  0  0  0  0  0  0  0  0  0
  -22.8160  -13.5750   21.0800 C   0  0  0  0  0  0  0  0  0  0  0  0
  -22.0760  -12.8810   21.9370 N   0  0  0  0  0  0  0  0  0  0  0  0
  -22.3870  -14.5990   20.5500 O   0  0  0  0  0  0  0  0  0  0  0  0
  -22.4370  -12.0550   22.3900 H   0  0  0  0  0  0  0  0  0  0  0  0
  -21.1320  -13.1800   22.1420 H   0  0  0  0  0  0  0  0  0  0  0  0
  -25.4440  -15.2460   20.3130 N   0  0  0  0  0  0  0  0  0  0  0  0
  -24.6580  -15.8710   20.4660 H   0  0  0  0  0  0  0  0  0  0  0  0
  -26.3240  -15.7380   20.2980 H   0  0  0  0  0  0  0  0  0  0  0  0
  -29.0950  -15.8670   18.4770 N   0  0  0  0  0  4  0  0  0  0  0  0
  -29.0250  -16.6750   17.8850 H   0  0  0  0  0  0  0  0  0  0  0  0
  -28.2400  -15.7880   18.9890 H   0  0  0  0  0  0  0  0  0  0  0  0
  -29.2310  -15.0650   17.8870 H   0  0  0  0  0  0  0  0  0  0  0  0
  1  2  1  0
  3  6  2  0
  3  4  1  0
  4  1  2  0
  5  9  1  0
  5  2  2  0
  6  5  1  0
  7  6  1  0
  8 10  1  0
  8  9  2  0
 10 11  2  0
 12 13  1  0
 12 10  1  0
 14 25  2  0
 15 13  1  0
 15 20  1  0
 16 24  1  0
 16 26  1  0
 17 23  1  0
 17 19  1  0
 18 24  1  0
 19 20  2  0
 19 18  1  0
 21 15  2  0
 22 21  1  0
 22 17  2  0
 23 16  1  0
 24 14  1  0
 26 28  2  0
 27 26  1  0
 29 27  1  0
 30 39  2  0
 30 35  1  0
 31 27  1  0
 31 35  1  0
 32 31  1  0
 33 34  1  0
 33 32  1  0
 34 30  1  0
 35 36  2  0
 36 37  1  0
 38 37  2  0
 39 38  1  0
 40 14  1  0
 40 41  1  0
 40 50  1  0
 41 44  1  0
 42 46  1  0
 42 41  1  0
 43 42  2  0
 46 45  1  0
 48 49  1  0
 48 46  1  0
 48 47  1  0
 50 53  1  1
 50 51  1  0
 52 50  1  0
 54  4  1  0
 54 55  1  0
 55 61  1  0
 55 62  2  0
 56 61  1  0
 57 58  1  0
 57 56  1  0
 59 58  1  0
 59 66  1  0
 59 60  1  0
 61 60  1  0
 63 64  2  0
 64 83  1  0
 65 64  1  0
 65 68  1  0
 66 63  1  0
 66 67  1  0
 67 65  2  0
 68 69  1  0
 69 70  2  0
 71 74  1  0
 71 70  1  0
 72 71  2  0
 73 72  1  0
 73 68  2  0
 74 75  1  0
 75 76  1  0
 76 77  2  0
 78 77  1  0
 78 82  1  0
 79 78  2  0
 80 75  2  0
 80 79  1  0
 81 80  1  0
 83 84  1  0
 84 87  1  0
 84 86  1  0
 85 83  2  0
 88 89  1  0
 88 63  1  0
 90 88  1  0
 91 93  1  0
 91 54  1  0
 92 91  1  0
 94 91  1  0
M  ISO  4  12 101  13 101  54 100  55 100
M  END
>  <TORSDO>  (87) 
F 21

>  <SCORE>  (87) 
-12.964

>  <name>  (87) 
87

>  <ligand_id>  (87) 
87

>  <original_smiles>  (87) 
[H]C(=Nc1c([H])c([H])c(C([H])(C(=O)N2C([H])([H])C([H])([H])C([H])([H])C([H])(n3nc(-c4c([H])c([H])c(Oc5c([H])c([H])c(F)c([H])c5F)c([H])c4[H])c(C(=O)N([H])[H])c3N([H])[H])C2([H])[H])[N+]([H])([H])[H])c([H])c1F)C(=O)C([H])([H])Oc1c([H])c([H])c2c(c1[H])C([H])([H])N(C(=O)C([H])(N([H])C(=O)C([H])(N([H])C([H])([H])[H])C([H])([H])[H])C(C([H])([H])[H])(C([H])([H])[H])C([H])([H])[H])C([H])(C(=O)N([H])C1([H])c3c([H])c([H])c([H])c([H])c3C([H])([H])C([H])([H])C1([H])[H])C2([H])[H]

>  <smiles>  (87) 
[H]C(=Nc1c([H])c([H])c(C([H])(C(=O)N2C([H])([H])C([H])([H])C([H])([H])C([H])(n3nc(-c4c([H])c([H])c(Oc5c([H])c([H])c(F)c([H])c5F)c([H])c4[H])c(C(=O)N([H])[H])c3N([H])[H])C2([H])[H])[N+]([H])([H])[H])c([H])c1F)C(=O)C([H])([H])Oc1c([H])c([H])c2c(c1[H])C([H])([H])N(C(=O)C([H])(N([H])C(=O)C([H])(N([H])C([H])([H])[H])C([H])([H])[H])C(C([H])([H])[H])(C([H])([H])[H])C([H])([H])[H])C([H])(C(=O)N([H])C1([H])c3c([H])c([H])c([H])c([H])c3C([H])([H])C([H])([H])C1([H])[H])C2([H])[H]

$$$$
88:0:0
     RDKit          3D

 96105  0  0  1  0  0  0  0  0999 V2000
  -31.2770  -21.8000   19.6540 C   0  0  0  0  0  0  0  0  0  0  0  0
  -31.5230  -23.2840   19.3500 C   0  0  0  0  0  2  0  0  0  0  0  0
  -30.6070  -24.2550   20.1010 C   0  0  0  0  0  2  0  0  0  0  0  0
  -28.9560  -22.3700   20.3450 C   0  0  0  0  0  2  0  0  0  0  0  0
  -29.1450  -23.8950   19.8710 C   0  0  0  0  0  3  0  0  0  0  0  0
  -30.0280  -21.3600   19.9770 N   0  0  0  0  0  0  0  0  0  0  0  0
  -32.2540  -21.0480   19.5680 O   0  0  0  0  0  0  0  0  0  0  0  0
  -30.1440  -19.3390   21.4740 C   0  0  0  0  0  3  0  0  0  0  0  0
  -30.2690  -17.9330   21.6640 C   0  0  0  0  0  3  0  0  0  0  0  0
  -29.8260  -17.5540   19.3390 C   0  0  0  0  0  3  0  0  0  0  0  0
  -29.8900  -19.9070   20.2020 C   0  0  0  0  0  0  0  0  0  0  0  0
  -30.1580  -16.9830   20.6010 C   0  0  0  0  0  0  0  0  0  0  0  0
  -29.6920  -18.9700   19.1420 C   0  0  0  0  0  0  0  0  0  0  0  0
  -30.8020  -14.6020   19.9280 C   0  0  0  0  0  0  0  0  0  0  0  0
  -30.4170  -12.4720   18.6840 C   0  0  0  0  0  2  0  0  0  0  0  0
  -29.3670  -12.6690   17.5720 C   0  0  0  0  0  2  0  0  0  0  0  0
  -27.9420  -12.4680   18.1250 C   0  0  0  0  0  2  0  0  0  0  0  0
  -27.7040  -13.2650   19.4330 C   0  0  0  0  0  3  0  0  0  0  0  0
  -28.8510  -13.0370   20.4350 C   0  0  0  0  0  2  0  0  0  0  0  0
  -30.1160  -13.4180   19.7800 N   0  0  0  0  0  0  0  0  0  0  0  0
  -31.8180  -14.8270   19.2620 O   0  0  0  0  0  0  0  0  0  0  0  0
  -30.5580  -15.1200   22.2420 C   0  0  0  0  0  1  0  0  0  0  0  0
  -30.3460  -15.5300   20.8430 N   0  0  0  0  0  0  0  0  0  0  0  0
  -25.3890  -13.8290   20.3970 C   0  0  0  0  0  0  0  0  0  0  0  0
  -24.3600  -13.0360   20.8340 C   0  0  0  0  0  0  0  0  0  0  0  0
  -24.8190  -11.6890   20.7080 C   0  0  0  0  0  0  0  0  0  0  0  0
  -26.4050  -12.9610   20.0290 N   0  0  0  0  0  0  0  0  0  0  0  0
  -26.0740  -11.6670   20.2760 N   0  0  0  0  0  0  0  0  0  0  0  0
  -24.1150  -10.4170   20.9150 C   0  0  0  0  0  0  0  0  0  0  0  0
  -24.5790   -9.4570   21.8420 C   0  0  0  0  0  3  0  0  0  0  0  0
  -23.8740   -8.2490   22.0350 C   0  0  0  0  0  3  0  0  0  0  0  0
  -22.6900   -7.9940   21.3040 C   0  0  0  0  0  0  0  0  0  0  0  0
  -22.2450   -8.9410   20.3650 C   0  0  0  0  0  3  0  0  0  0  0  0
  -22.9520  -10.1400   20.1690 C   0  0  0  0  0  3  0  0  0  0  0  0
  -21.9540   -6.8380   21.4080 O   0  0  0  0  0  0  0  0  0  0  0  0
  -21.8730   -6.1410   22.5860 C   0  0  0  0  0  0  0  0  0  0  0  0
  -21.3910   -6.7330   23.7740 C   0  0  0  0  0  3  0  0  0  0  0  0
  -21.2610   -5.9600   24.9440 C   0  0  0  0  0  3  0  0  0  0  0  0
  -21.6010   -4.5930   24.9270 C   0  0  0  0  0  0  0  0  0  0  0  0
  -22.0750   -3.9990   23.7440 C   0  0  0  0  0  3  0  0  0  0  0  0
  -22.2070   -4.7710   22.5770 C   0  0  0  0  0  0  0  0  0  0  0  0
  -22.6450   -4.1890   21.4340 F   0  0  0  0  0  0  0  0  0  0  0  0
  -21.4680   -3.8470   26.0490 F   0  0  0  0  0  0  0  0  0  0  0  0
  -22.9940  -13.4970   21.2530 C   0  0  0  0  0  0  0  0  0  0  0  0
  -22.3590  -12.7760   22.1710 N   0  0  0  0  0  0  0  0  0  0  0  0
  -22.5010  -14.5300   20.8010 O   0  0  0  0  0  0  0  0  0  0  0  0
  -22.7720  -11.9420   22.5600 H   0  0  0  0  0  0  0  0  0  0  0  0
  -21.4450  -13.0640   22.4900 H   0  0  0  0  0  0  0  0  0  0  0  0
  -25.5410  -15.2040   20.2610 N   0  0  0  0  0  0  0  0  0  0  0  0
  -24.7980  -15.8630   20.4710 H   0  0  0  0  0  0  0  0  0  0  0  0
  -26.3750  -15.6560   19.9020 H   0  0  0  0  0  0  0  0  0  0  0  0
  -29.3620  -19.4330   17.8690 N   0  0  0  0  0  0  0  0  0  0  0  0
  -28.8340  -18.8050   17.2710 H   0  0  0  0  0  0  0  0  0  0  0  0
  -29.0210  -20.3850   17.8020 H   0  0  0  0  0  0  0  0  0  0  0  0
  -28.1890  -25.0160   20.4960 C   0  0  0  0  0  2  0  0  0  0  0  0
  -28.4070  -26.4490   20.1580 O   0  0  0  0  0  0  0  0  0  0  0  0
  -24.6440  -31.8410   23.1580 C   0  0  0  0  0  0  0  0  0  0  0  0
  -27.2890  -27.2940   20.1280 C   0  0  0  0  0  0  0  0  0  0  0  0
  -23.4500  -30.4390   21.5120 C   0  0  0  0  0  3  0  0  0  0  0  0
  -24.9150  -28.8880   20.0970 C   0  0  0  0  0  0  0  0  0  0  0  0
  -25.9900  -30.7620   21.3470 C   0  0  0  0  0  2  0  0  0  0  0  0
  -26.0760  -29.3840   20.7050 C   0  0  0  0  0  0  0  0  0  0  0  0
  -27.2670  -28.5980   20.7090 C   0  0  0  0  0  3  0  0  0  0  0  0
  -26.1170  -26.8600   19.4740 C   0  0  0  0  0  3  0  0  0  0  0  0
  -24.9380  -27.6330   19.4700 C   0  0  0  0  0  3  0  0  0  0  0  0
  -23.6730  -29.7590   20.1350 C   0  0  0  0  0  2  0  0  0  0  0  0
  -24.7130  -31.0330   22.0610 N   0  0  0  0  0  0  0  0  0  0  0  0
  -23.5580  -32.1170   23.6880 O   0  0  0  0  0  0  0  0  0  0  0  0
  -22.7860  -29.4230   22.4720 C   0  0  0  0  0  0  0  0  0  0  0  0
  -21.4590  -29.2530   22.3460 N   0  0  0  0  0  0  0  0  0  0  0  0
  -23.4640  -28.7900   23.2850 O   0  0  0  0  0  0  0  0  0  0  0  0
  -20.9730  -29.8160   21.6620 H   0  0  0  0  0  0  0  0  0  0  0  0
  -18.0760  -28.0780   22.8610 C   0  0  0  0  0  0  0  0  0  0  0  0
  -20.6370  -28.3190   23.1160 C   0  0  0  0  0  3  0  0  0  0  0  0
  -20.7230  -26.8870   22.5390 C   0  0  0  0  0  2  0  0  0  0  0  0
  -19.6140  -26.5760   21.5280 C   0  0  0  0  0  2  0  0  0  0  0  0
  -18.2370  -26.7290   22.1800 C   0  0  0  0  0  2  0  0  0  0  0  0
  -19.2020  -28.8300   23.2870 C   0  0  0  0  0  0  0  0  0  0  0  0
  -18.9970  -30.0910   23.8860 C   0  0  0  0  0  3  0  0  0  0  0  0
  -17.6970  -30.6030   24.0580 C   0  0  0  0  0  3  0  0  0  0  0  0
  -16.5840  -29.8490   23.6440 C   0  0  0  0  0  3  0  0  0  0  0  0
  -16.7750  -28.5870   23.0550 C   0  0  0  0  0  3  0  0  0  0  0  0
  -25.9230  -32.4760   23.7850 C   0  0  0  0  0  3  0  0  0  0  0  0
  -26.4420  -31.7020   25.0600 C   0  0  1  0  0  0  0  0  0  0  0  0
  -25.3470  -31.4520   26.1240 C   0  0  0  0  0  1  0  0  0  0  0  0
  -27.0390  -30.3300   24.6670 C   0  0  0  0  0  1  0  0  0  0  0  0
  -27.5830  -32.5060   25.7270 C   0  0  0  0  0  1  0  0  0  0  0  0
  -25.6050  -33.8720   24.1220 N   0  0  0  0  0  0  0  0  0  0  0  0
  -25.9360  -34.9310   23.3710 C   0  0  0  0  0  0  0  0  0  0  0  0
  -26.6120  -34.8350   22.3430 O   0  0  0  0  0  0  0  0  0  0  0  0
  -25.0010  -34.0150   24.9190 H   0  0  0  0  0  0  0  0  0  0  0  0
  -24.2040  -36.7210   23.0140 C   0  0  0  0  0  1  0  0  0  0  0  0
  -25.4400  -36.3160   23.8320 C   0  0  0  0  0  3  0  0  0  0  0  0
  -27.5660  -37.2030   24.6820 C   0  0  0  0  0  1  0  0  0  0  0  0
  -26.4690  -37.3730   23.7320 N   0  0  0  0  0  0  0  0  0  0  0  0
  -26.0590  -38.2920   23.8800 H   0  0  0  0  0  0  0  0  0  0  0  0
  1  6  1  0
  2  1  1  0
  2  3  1  0
  5  3  1  0
  5  4  1  0
  5 55  1  0
  6 11  1  0
  6  4  1  0
  7  1  2  0
  8  9  1  0
 10 12  1  0
 11  8  2  0
 12 23  1  0
 12  9  2  0
 13 10  2  0
 13 11  1  0
 14 23  1  0
 15 20  1  0
 16 17  1  0
 16 15  1  0
 18 17  1  0
 18 27  1  0
 18 19  1  0
 20 14  1  0
 20 19  1  0
 21 14  2  0
 23 22  1  0
 24 25  2  0
 25 44  1  0
 26 25  1  0
 26 29  1  0
 27 28  1  0
 27 24  1  0
 28 26  2  0
 29 30  1  0
 30 31  2  0
 32 35  1  0
 32 31  1  0
 33 32  2  0
 34 33  1  0
 34 29  2  0
 35 36  1  0
 36 37  1  0
 37 38  2  0
 39 38  1  0
 39 43  1  0
 40 39  2  0
 41 36  2  0
 41 40  1  0
 42 41  1  0
 44 45  1  0
 45 48  1  0
 45 47  1  0
 46 44  2  0
 49 24  1  0
 49 50  1  0
 51 49  1  0
 52 13  1  0
 53 52  1  0
 54 52  1  0
 56 55  1  0
 57 68  2  0
 58 56  1  0
 58 63  1  0
 59 67  1  0
 59 69  1  0
 60 66  1  0
 60 62  1  0
 61 67  1  0
 62 63  2  0
 62 61  1  0
 64 58  2  0
 65 64  1  0
 65 60  2  0
 66 59  1  0
 67 57  1  0
 69 71  2  0
 70 69  1  0
 72 70  1  0
 73 82  2  0
 73 78  1  0
 74 70  1  0
 74 78  1  0
 75 74  1  0
 76 77  1  0
 76 75  1  0
 77 73  1  0
 78 79  2  0
 79 80  1  0
 81 80  2  0
 82 81  1  0
 83 57  1  0
 83 88  1  0
 83 84  1  0
 84 87  1  1
 84 85  1  0
 86 84  1  0
 88 91  1  0
 89 93  1  0
 89 88  1  0
 90 89  2  0
 93 92  1  0
 95 93  1  0
 95 96  1  0
 95 94  1  0
M  ISO  4  14 100  23 100  55 101  56 101
M  END
>  <TORSDO>  (88) 
F 19

>  <SCORE>  (88) 
-13.194

>  <name>  (88) 
88

>  <ligand_id>  (88) 
88

>  <original_smiles>  (88) 
[H]c1c([H])c([H])c2c(c1[H])C([H])([H])C([H])([H])C([H])([H])C2([H])N([H])C(=O)C1([H])N(C(=O)C([H])(N([H])C(=O)C([H])(N([H])C([H])([H])[H])C([H])([H])[H])C(C([H])([H])[H])(C([H])([H])[H])C([H])([H])[H])C([H])([H])c2c([H])c(OC([H])([H])C3([H])C([H])([H])N(c4c([H])c([H])c(N(C(=O)N5C([H])([H])C([H])([H])C([H])([H])C([H])(n6nc(-c7c([H])c([H])c(Oc8c([H])c([H])c(F)c([H])c8F)c([H])c7[H])c(C(=O)N([H])[H])c6N([H])[H])C5([H])[H])C([H])([H])[H])c([H])c4N([H])[H])C(=O)C([H])([H])C3([H])[H])c([H])c([H])c2C1([H])[H]

>  <smiles>  (88) 
[H]c1c([H])c([H])c2c(c1[H])C([H])([H])C([H])([H])C([H])([H])C2([H])N([H])C(=O)C1([H])N(C(=O)C([H])(N([H])C(=O)C([H])(N([H])C([H])([H])[H])C([H])([H])[H])C(C([H])([H])[H])(C([H])([H])[H])C([H])([H])[H])C([H])([H])c2c([H])c(OC([H])([H])C3([H])C([H])([H])N(c4c([H])c([H])c(N(C(=O)N5C([H])([H])C([H])([H])C([H])([H])C([H])(n6nc(-c7c([H])c([H])c(Oc8c([H])c([H])c(F)c([H])c8F)c([H])c7[H])c(C(=O)N([H])[H])c6N([H])[H])C5([H])[H])C([H])([H])[H])c([H])c4N([H])[H])C(=O)C([H])([H])C3([H])[H])c([H])c([H])c2C1([H])[H]

$$$$
89:0:0
     RDKit          3D

 94102  0  0  1  0  0  0  0  0999 V2000
  -30.0300  -19.9920   20.2450 C   0  0  0  0  0  3  0  0  0  0  0  0
  -30.7290  -18.0290   21.5270 C   0  0  0  0  0  0  0  0  0  0  0  0
  -30.3960  -18.6290   20.2930 C   0  0  0  0  0  0  0  0  0  0  0  0
  -30.6350  -18.8510   22.6770 C   0  0  0  0  0  0  0  0  0  0  0  0
  -30.0230  -20.7330   21.4400 C   0  0  0  0  0  0  0  0  0  0  0  0
  -30.9400  -18.3300   24.0710 C   0  0  0  0  0  1  0  0  0  0  0  0
  -30.2980  -20.1620   22.6250 N   0  0  0  0  0  0  0  0  0  0  0  0
  -29.7640  -22.1080   21.5150 N   0  0  0  0  0  0  0  0  0  0  0  0
  -30.4650  -17.9150   19.1430 F   0  0  0  0  0  0  0  0  0  0  0  0
  -29.9510  -22.5940   22.3860 H   0  0  0  0  0  0  0  0  0  0  0  0
  -31.3400  -16.6110   21.5850 C   0  0  0  0  0  2  0  0  0  0  0  0
  -31.0640  -14.4950   20.2930 C   0  0  0  0  0  0  0  0  0  0  0  0
  -30.6270  -12.3650   19.1190 C   0  0  0  0  0  2  0  0  0  0  0  0
  -29.6840  -12.5920   17.9230 C   0  0  0  0  0  2  0  0  0  0  0  0
  -28.2120  -12.5120   18.3710 C   0  0  0  0  0  2  0  0  0  0  0  0
  -27.9210  -13.3780   19.6270 C   0  0  0  0  0  3  0  0  0  0  0  0
  -28.9770  -13.1340   20.7280 C   0  0  0  0  0  2  0  0  0  0  0  0
  -30.3070  -13.3740   20.1430 N   0  0  0  0  0  0  0  0  0  0  0  0
  -32.1540  -14.6310   19.7320 O   0  0  0  0  0  0  0  0  0  0  0  0
  -30.5570  -15.4720   21.0700 N   0  0  0  0  0  0  0  0  0  0  0  0
  -29.6500  -15.3030   21.4750 H   0  0  0  0  0  0  0  0  0  0  0  0
  -25.5560  -14.0820   20.3540 C   0  0  0  0  0  0  0  0  0  0  0  0
  -24.4610  -13.3540   20.7370 C   0  0  0  0  0  0  0  0  0  0  0  0
  -24.8690  -11.9850   20.7100 C   0  0  0  0  0  0  0  0  0  0  0  0
  -26.5630  -13.1600   20.1190 N   0  0  0  0  0  0  0  0  0  0  0  0
  -26.1540  -11.8930   20.3910 N   0  0  0  0  0  0  0  0  0  0  0  0
  -24.0950  -10.7530   20.9130 C   0  0  0  0  0  0  0  0  0  0  0  0
  -24.4970   -9.7740   21.8480 C   0  0  0  0  0  3  0  0  0  0  0  0
  -23.7270   -8.6070   22.0390 C   0  0  0  0  0  3  0  0  0  0  0  0
  -22.5390   -8.4120   21.2950 C   0  0  0  0  0  0  0  0  0  0  0  0
  -22.1550   -9.3790   20.3500 C   0  0  0  0  0  3  0  0  0  0  0  0
  -22.9250  -10.5370   20.1570 C   0  0  0  0  0  3  0  0  0  0  0  0
  -21.7410   -7.2980   21.3960 O   0  0  0  0  0  0  0  0  0  0  0  0
  -21.6650   -6.5680   22.5560 C   0  0  0  0  0  0  0  0  0  0  0  0
  -21.2790   -7.1550   23.7800 C   0  0  0  0  0  3  0  0  0  0  0  0
  -21.1470   -6.3540   24.9330 C   0  0  0  0  0  3  0  0  0  0  0  0
  -21.3910   -4.9710   24.8610 C   0  0  0  0  0  0  0  0  0  0  0  0
  -21.7710   -4.3840   23.6410 C   0  0  0  0  0  3  0  0  0  0  0  0
  -21.9040   -5.1810   22.4910 C   0  0  0  0  0  0  0  0  0  0  0  0
  -22.2490   -4.6080   21.3130 F   0  0  0  0  0  0  0  0  0  0  0  0
  -21.2570   -4.2000   25.9660 F   0  0  0  0  0  0  0  0  0  0  0  0
  -23.0880  -13.8880   21.0200 C   0  0  0  0  0  0  0  0  0  0  0  0
  -22.3450  -13.2310   21.9040 N   0  0  0  0  0  0  0  0  0  0  0  0
  -22.6810  -14.9220   20.4920 O   0  0  0  0  0  0  0  0  0  0  0  0
  -22.6850  -12.3930   22.3520 H   0  0  0  0  0  0  0  0  0  0  0  0
  -21.4220  -13.5720   22.1360 H   0  0  0  0  0  0  0  0  0  0  0  0
  -25.7740  -15.4430   20.1660 N   0  0  0  0  0  0  0  0  0  0  0  0
  -25.0380  -16.1320   20.2760 H   0  0  0  0  0  0  0  0  0  0  0  0
  -26.6430  -15.8430   19.8330 H   0  0  0  0  0  0  0  0  0  0  0  0
  -29.5360  -22.9530   20.3400 C   0  0  0  0  0  2  0  0  0  0  0  0
  -29.4000  -24.4470   20.7010 C   0  0  0  0  0  0  0  0  0  0  0  0
  -30.0410  -24.9250   21.6440 O   0  0  0  0  0  0  0  0  0  0  0  0
  -28.4040  -25.2920   19.8830 C   0  0  0  0  0  2  0  0  0  0  0  0
  -28.4640  -26.6990   20.2150 O   0  0  0  0  0  0  0  0  0  0  0  0
  -24.6180  -31.8840   23.2300 C   0  0  0  0  0  0  0  0  0  0  0  0
  -27.2900  -27.4330   20.1630 C   0  0  0  0  0  0  0  0  0  0  0  0
  -23.4280  -30.4820   21.5770 C   0  0  0  0  0  3  0  0  0  0  0  0
  -24.8950  -28.9570   20.1570 C   0  0  0  0  0  0  0  0  0  0  0  0
  -25.9580  -30.8410   21.4030 C   0  0  0  0  0  2  0  0  0  0  0  0
  -26.0480  -29.4710   20.7610 C   0  0  0  0  0  0  0  0  0  0  0  0
  -27.2460  -28.7170   20.7630 C   0  0  0  0  0  3  0  0  0  0  0  0
  -26.1170  -26.9510   19.5340 C   0  0  0  0  0  3  0  0  0  0  0  0
  -24.9250  -27.6950   19.5420 C   0  0  0  0  0  3  0  0  0  0  0  0
  -23.6490  -29.8120   20.1970 C   0  0  0  0  0  2  0  0  0  0  0  0
  -24.6860  -31.0850   22.1280 N   0  0  0  0  0  0  0  0  0  0  0  0
  -23.5310  -32.1530   23.7610 O   0  0  0  0  0  0  0  0  0  0  0  0
  -22.7740  -29.4560   22.5300 C   0  0  0  0  0  0  0  0  0  0  0  0
  -21.4560  -29.2480   22.3720 N   0  0  0  0  0  0  0  0  0  0  0  0
  -23.4480  -28.8480   23.3650 O   0  0  0  0  0  0  0  0  0  0  0  0
  -20.9730  -29.7900   21.6690 H   0  0  0  0  0  0  0  0  0  0  0  0
  -18.1010  -27.9660   22.7640 C   0  0  0  0  0  0  0  0  0  0  0  0
  -20.6370  -28.3030   23.1310 C   0  0  0  0  0  3  0  0  0  0  0  0
  -20.8030  -26.8640   22.5900 C   0  0  0  0  0  2  0  0  0  0  0  0
  -19.7510  -26.4890   21.5420 C   0  0  0  0  0  2  0  0  0  0  0  0
  -18.3420  -26.6080   22.1270 C   0  0  0  0  0  2  0  0  0  0  0  0
  -19.1800  -28.7690   23.2210 C   0  0  0  0  0  0  0  0  0  0  0  0
  -18.9030  -30.0370   23.7740 C   0  0  0  0  0  3  0  0  0  0  0  0
  -17.5790  -30.5050   23.8760 C   0  0  0  0  0  3  0  0  0  0  0  0
  -16.5140  -29.7000   23.4380 C   0  0  0  0  0  3  0  0  0  0  0  0
  -16.7750  -28.4330   22.8870 C   0  0  0  0  0  3  0  0  0  0  0  0
  -25.8980  -32.5170   23.8590 C   0  0  0  0  0  3  0  0  0  0  0  0
  -26.4120  -31.7430   25.1350 C   0  0  1  0  0  0  0  0  0  0  0  0
  -25.3160  -31.4970   26.1970 C   0  0  0  0  0  1  0  0  0  0  0  0
  -27.0020  -30.3690   24.7370 C   0  0  0  0  0  1  0  0  0  0  0  0
  -27.5570  -32.5380   25.8050 C   0  0  0  0  0  1  0  0  0  0  0  0
  -25.5830  -33.9130   24.1910 N   0  0  0  0  0  0  0  0  0  0  0  0
  -25.9120  -34.9670   23.4320 C   0  0  0  0  0  0  0  0  0  0  0  0
  -26.5850  -34.8680   22.4020 O   0  0  0  0  0  0  0  0  0  0  0  0
  -24.9850  -34.0640   24.9910 H   0  0  0  0  0  0  0  0  0  0  0  0
  -24.1700  -36.7460   23.0800 C   0  0  0  0  0  1  0  0  0  0  0  0
  -25.4160  -36.3520   23.8890 C   0  0  0  0  0  3  0  0  0  0  0  0
  -27.5480  -37.2500   24.7100 C   0  0  0  0  0  1  0  0  0  0  0  0
  -26.4400  -37.4130   23.7730 N   0  0  0  0  0  0  0  0  0  0  0  0
  -26.0290  -38.3300   23.9240 H   0  0  0  0  0  0  0  0  0  0  0  0
  1  3  2  0
  1  5  1  0
  2 11  1  0
  2  4  2  0
  3  2  1  0
  4  6  1  0
  5  8  1  0
  5  7  2  0
  7  4  1  0
  8 10  1  0
  9  3  1  0
 12 20  1  0
 13 18  1  0
 14 15  1  0
 14 13  1  0
 16 15  1  0
 16 25  1  0
 16 17  1  0
 18 12  1  0
 18 17  1  0
 19 12  2  0
 20 21  1  0
 20 11  1  0
 22 23  2  0
 23 42  1  0
 24 23  1  0
 24 27  1  0
 25 22  1  0
 25 26  1  0
 26 24  2  0
 27 28  1  0
 28 29  2  0
 30 33  1  0
 30 29  1  0
 31 30  2  0
 32 31  1  0
 32 27  2  0
 33 34  1  0
 34 35  1  0
 35 36  2  0
 37 36  1  0
 37 41  1  0
 38 37  2  0
 39 34  2  0
 39 38  1  0
 40 39  1  0
 42 43  1  0
 43 46  1  0
 43 45  1  0
 44 42  2  0
 47 48  1  0
 47 22  1  0
 49 47  1  0
 50 51  1  0
 50  8  1  0
 51 52  2  0
 53 54  1  0
 53 51  1  0
 55 66  2  0
 56 54  1  0
 56 61  1  0
 57 65  1  0
 57 67  1  0
 58 64  1  0
 58 60  1  0
 59 65  1  0
 60 61  2  0
 60 59  1  0
 62 63  1  0
 62 56  2  0
 63 58  2  0
 64 57  1  0
 65 55  1  0
 67 69  2  0
 68 67  1  0
 70 68  1  0
 71 80  2  0
 71 76  1  0
 72 68  1  0
 72 76  1  0
 73 72  1  0
 74 75  1  0
 74 73  1  0
 75 71  1  0
 76 77  2  0
 77 78  1  0
 79 78  2  0
 80 79  1  0
 81 55  1  0
 81 86  1  0
 81 82  1  0
 82 85  1  1
 82 83  1  0
 84 82  1  0
 86 89  1  0
 87 91  1  0
 87 86  1  0
 88 87  2  0
 91 90  1  0
 93 91  1  0
 93 94  1  0
 93 92  1  0
M  ISO  4  12 100  20 100  53 101  54 101
M  END
>  <TORSDO>  (89) 
F 20

>  <SCORE>  (89) 
-12.654

>  <name>  (89) 
89

>  <ligand_id>  (89) 
89

>  <original_smiles>  (89) 
[H]c1c([H])c([H])c2c(c1[H])C([H])([H])C([H])([H])C([H])([H])C2([H])N([H])C(=O)C1([H])N(C(=O)C([H])(N([H])C(=O)C([H])(N([H])C([H])([H])[H])C([H])([H])[H])C(C([H])([H])[H])(C([H])([H])[H])C([H])([H])[H])C([H])([H])c2c([H])c(OC([H])([H])C(=O)C([H])([H])N([H])c3nc(C([H])([H])[H])c(C([H])([H])N([H])C(=O)N4C([H])([H])C([H])([H])C([H])([H])C([H])(n5nc(-c6c([H])c([H])c(Oc7c([H])c([H])c(F)c([H])c7F)c([H])c6[H])c(C(=O)N([H])[H])c5N([H])[H])C4([H])[H])c(F)c3[H])c([H])c([H])c2C1([H])[H]

>  <smiles>  (89) 
[H]c1c([H])c([H])c2c(c1[H])C([H])([H])C([H])([H])C([H])([H])C2([H])N([H])C(=O)C1([H])N(C(=O)C([H])(N([H])C(=O)C([H])(N([H])C([H])([H])[H])C([H])([H])[H])C(C([H])([H])[H])(C([H])([H])[H])C([H])([H])[H])C([H])([H])c2c([H])c(OC([H])([H])C(=O)C([H])([H])N([H])c3nc(C([H])([H])[H])c(C([H])([H])N([H])C(=O)N4C([H])([H])C([H])([H])C([H])([H])C([H])(n5nc(-c6c([H])c([H])c(Oc7c([H])c([H])c(F)c([H])c7F)c([H])c6[H])c(C(=O)N([H])[H])c5N([H])[H])C4([H])[H])c(F)c3[H])c([H])c([H])c2C1([H])[H]

$$$$
90:0:0
     RDKit          3D

 99108  0  0  1  0  0  0  0  0999 V2000
  -29.3760  -20.7700   19.2740 C   0  0  0  0  0  2  0  0  0  0  0  0
  -27.0920  -21.6670   19.2800 C   0  0  0  0  0  0  0  0  0  0  0  0
  -26.1400  -22.8720   19.2290 C   0  0  0  0  0  2  0  0  0  0  0  0
  -26.6190  -24.1040   20.0070 C   0  0  0  0  0  2  0  0  0  0  0  0
  -28.9340  -23.1670   20.0610 C   0  0  0  0  0  2  0  0  0  0  0  0
  -28.0840  -24.4350   19.6990 C   0  0  0  0  0  3  0  0  0  0  0  0
  -28.4030  -21.8580   19.5720 N   0  0  0  0  0  0  0  0  0  0  0  0
  -26.6350  -20.5630   18.9710 O   0  0  0  0  0  0  0  0  0  0  0  0
  -28.5250  -25.7550   20.4320 C   0  0  0  0  0  2  0  0  0  0  0  0
  -28.3790  -27.0090   19.7260 O   0  0  0  0  0  0  0  0  0  0  0  0
  -24.6420  -31.8780   23.4410 C   0  0  0  0  0  0  0  0  0  0  0  0
  -27.2150  -27.7340   19.8950 C   0  0  0  0  0  0  0  0  0  0  0  0
  -23.4090  -30.6610   21.6760 C   0  0  0  0  0  3  0  0  0  0  0  0
  -24.8350  -29.2620   20.0870 C   0  0  0  0  0  0  0  0  0  0  0  0
  -25.9350  -31.0180   21.4860 C   0  0  0  0  0  2  0  0  0  0  0  0
  -26.0050  -29.7130   20.7130 C   0  0  0  0  0  0  0  0  0  0  0  0
  -27.2000  -28.9570   20.6130 C   0  0  0  0  0  3  0  0  0  0  0  0
  -26.0310  -27.3050   19.2630 C   0  0  0  0  0  3  0  0  0  0  0  0
  -24.8440  -28.0580   19.3600 C   0  0  0  0  0  3  0  0  0  0  0  0
  -23.5990  -30.1230   20.2330 C   0  0  0  0  0  2  0  0  0  0  0  0
  -24.6820  -31.1950   22.2610 N   0  0  0  0  0  0  0  0  0  0  0  0
  -23.5690  -32.1000   24.0190 O   0  0  0  0  0  0  0  0  0  0  0  0
  -22.7590  -29.5510   22.5340 C   0  0  0  0  0  0  0  0  0  0  0  0
  -21.4360  -29.3700   22.3800 N   0  0  0  0  0  0  0  0  0  0  0  0
  -23.4410  -28.8610   23.2950 O   0  0  0  0  0  0  0  0  0  0  0  0
  -20.9450  -29.9830   21.7430 H   0  0  0  0  0  0  0  0  0  0  0  0
  -18.0760  -28.0860   22.7170 C   0  0  0  0  0  0  0  0  0  0  0  0
  -20.6240  -28.3560   23.0520 C   0  0  0  0  0  3  0  0  0  0  0  0
  -20.7590  -26.9820   22.3540 C   0  0  0  0  0  2  0  0  0  0  0  0
  -19.6760  -26.7330   21.2990 C   0  0  0  0  0  2  0  0  0  0  0  0
  -18.2830  -26.8030   21.9300 C   0  0  0  0  0  2  0  0  0  0  0  0
  -19.1740  -28.8230   23.2310 C   0  0  0  0  0  0  0  0  0  0  0  0
  -18.9270  -30.0280   23.9250 C   0  0  0  0  0  3  0  0  0  0  0  0
  -17.6120  -30.4930   24.1120 C   0  0  0  0  0  3  0  0  0  0  0  0
  -16.5280  -29.7510   23.6150 C   0  0  0  0  0  3  0  0  0  0  0  0
  -16.7600  -28.5490   22.9240 C   0  0  0  0  0  3  0  0  0  0  0  0
  -25.9390  -32.4340   24.1080 C   0  0  0  0  0  3  0  0  0  0  0  0
  -26.4270  -31.5710   25.3370 C   0  0  1  0  0  0  0  0  0  0  0  0
  -25.3200  -31.3000   26.3830 C   0  0  0  0  0  1  0  0  0  0  0  0
  -26.9700  -30.2030   24.8600 C   0  0  0  0  0  1  0  0  0  0  0  0
  -27.5970  -32.2880   26.0500 C   0  0  0  0  0  1  0  0  0  0  0  0
  -25.6700  -33.8180   24.5210 N   0  0  0  0  0  0  0  0  0  0  0  0
  -26.0360  -34.9040   23.8270 C   0  0  0  0  0  0  0  0  0  0  0  0
  -26.7100  -34.8420   22.7950 O   0  0  0  0  0  0  0  0  0  0  0  0
  -25.0790  -33.9430   25.3300 H   0  0  0  0  0  0  0  0  0  0  0  0
  -24.3560  -36.7580   23.5750 C   0  0  0  0  0  1  0  0  0  0  0  0
  -25.5840  -36.2750   24.3640 C   0  0  0  0  0  3  0  0  0  0  0  0
  -27.7360  -37.0530   25.2520 C   0  0  0  0  0  1  0  0  0  0  0  0
  -26.6440  -37.3050   24.3160 N   0  0  0  0  0  0  0  0  0  0  0  0
  -26.2610  -38.2250   24.5160 H   0  0  0  0  0  0  0  0  0  0  0  0
  -30.2240  -20.0430   21.5650 C   0  0  0  0  0  3  0  0  0  0  0  0
  -30.3850  -17.6930   22.2260 C   0  0  0  0  0  3  0  0  0  0  0  0
  -29.3890  -18.2980   20.0830 C   0  0  0  0  0  3  0  0  0  0  0  0
  -30.5950  -19.0630   22.5130 C   0  0  0  0  0  0  0  0  0  0  0  0
  -29.6290  -19.6800   20.3400 C   0  0  0  0  0  0  0  0  0  0  0  0
  -29.7820  -17.2930   21.0140 C   0  0  0  0  0  0  0  0  0  0  0  0
  -30.3460  -14.8920   20.4970 C   0  0  0  0  0  0  0  0  0  0  0  0
  -30.1920  -12.6740   19.4100 C   0  0  0  0  0  2  0  0  0  0  0  0
  -29.2140  -12.7790   18.2210 C   0  0  0  0  0  2  0  0  0  0  0  0
  -27.7590  -12.5610   18.6830 C   0  0  0  0  0  2  0  0  0  0  0  0
  -27.3920  -13.4080   19.9310 C   0  0  0  0  0  3  0  0  0  0  0  0
  -28.4790  -13.2840   21.0220 C   0  0  0  0  0  2  0  0  0  0  0  0
  -29.7650  -13.6630   20.4110 N   0  0  0  0  0  0  0  0  0  0  0  0
  -31.4980  -15.1090   20.1100 O   0  0  0  0  0  0  0  0  0  0  0  0
  -29.4920  -15.9040   20.7870 N   0  0  0  0  0  0  0  0  0  0  0  0
  -28.5230  -15.6370   20.8560 H   0  0  0  0  0  0  0  0  0  0  0  0
  -25.0070  -13.9130   20.7500 C   0  0  0  0  0  0  0  0  0  0  0  0
  -23.9740  -13.0940   21.1160 C   0  0  0  0  0  0  0  0  0  0  0  0
  -24.4700  -11.7580   21.0040 C   0  0  0  0  0  0  0  0  0  0  0  0
  -26.0670  -13.0730   20.4420 N   0  0  0  0  0  0  0  0  0  0  0  0
  -25.7490  -11.7690   20.6540 N   0  0  0  0  0  0  0  0  0  0  0  0
  -23.7850  -10.4680   21.1540 C   0  0  0  0  0  0  0  0  0  0  0  0
  -24.2750   -9.4690   22.0230 C   0  0  0  0  0  3  0  0  0  0  0  0
  -23.5880   -8.2440   22.1640 C   0  0  0  0  0  3  0  0  0  0  0  0
  -22.3980   -8.0090   21.4360 C   0  0  0  0  0  0  0  0  0  0  0  0
  -21.9270   -8.9990   20.5550 C   0  0  0  0  0  3  0  0  0  0  0  0
  -22.6130  -10.2170   20.4120 C   0  0  0  0  0  3  0  0  0  0  0  0
  -21.6790   -6.8400   21.4890 O   0  0  0  0  0  0  0  0  0  0  0  0
  -21.6890   -6.0400   22.6030 C   0  0  0  0  0  0  0  0  0  0  0  0
  -21.2850   -6.5180   23.8680 C   0  0  0  0  0  3  0  0  0  0  0  0
  -21.2450   -5.6420   24.9720 C   0  0  0  0  0  3  0  0  0  0  0  0
  -21.6000   -4.2890   24.8120 C   0  0  0  0  0  0  0  0  0  0  0  0
  -21.9970   -3.8100   23.5510 C   0  0  0  0  0  3  0  0  0  0  0  0
  -22.0380   -4.6830   22.4490 C   0  0  0  0  0  0  0  0  0  0  0  0
  -22.4020   -4.2110   21.2320 F   0  0  0  0  0  0  0  0  0  0  0  0
  -21.5530   -3.4460   25.8690 F   0  0  0  0  0  0  0  0  0  0  0  0
  -22.5730  -13.5180   21.4550 C   0  0  0  0  0  0  0  0  0  0  0  0
  -21.8980  -12.7680   22.3180 N   0  0  0  0  0  0  0  0  0  0  0  0
  -22.0870  -14.5480   20.9900 O   0  0  0  0  0  0  0  0  0  0  0  0
  -22.3050  -11.9330   22.7140 H   0  0  0  0  0  0  0  0  0  0  0  0
  -20.9620  -13.0330   22.5870 H   0  0  0  0  0  0  0  0  0  0  0  0
  -25.1270  -15.2940   20.6310 N   0  0  0  0  0  0  0  0  0  0  0  0
  -24.3410  -15.9150   20.7900 H   0  0  0  0  0  0  0  0  0  0  0  0
  -25.9380  -15.7750   20.2630 H   0  0  0  0  0  0  0  0  0  0  0  0
  -31.2550  -19.4830   23.7920 C   0  0  0  0  0  0  0  0  0  0  0  0
  -30.8470  -18.8670   24.8940 N   0  0  0  0  0  0  0  0  0  0  0  0
  -32.0880  -20.3880   23.8230 O   0  0  0  0  0  0  0  0  0  0  0  0
  -30.1220  -18.1670   24.8420 H   0  0  0  0  0  0  0  0  0  0  0  0
  -31.2360  -19.1190   25.7900 H   0  0  0  0  0  0  0  0  0  0  0  0
  1  7  1  0
  1 55  1  0
  2  7  1  0
  3  2  1  0
  3  4  1  0
  6  4  1  0
  6  5  1  0
  6  9  1  0
  7  5  1  0
  8  2  2  0
 10 12  1  0
 10  9  1  0
 11 22  2  0
 12 17  1  0
 13 21  1  0
 13 23  1  0
 14 20  1  0
 14 16  1  0
 15 21  1  0
 16 15  1  0
 17 16  2  0
 18 19  1  0
 18 12  2  0
 19 14  2  0
 20 13  1  0
 21 11  1  0
 23 25  2  0
 24 23  1  0
 26 24  1  0
 27 36  2  0
 27 32  1  0
 28 24  1  0
 28 32  1  0
 29 28  1  0
 30 31  1  0
 30 29  1  0
 31 27  1  0
 32 33  2  0
 33 34  1  0
 35 34  2  0
 36 35  1  0
 37 11  1  0
 37 42  1  0
 37 38  1  0
 38 41  1  1
 38 39  1  0
 40 38  1  0
 42 45  1  0
 43 47  1  0
 43 42  1  0
 44 43  2  0
 47 46  1  0
 49 47  1  0
 49 50  1  0
 49 48  1  0
 51 54  1  0
 52 54  2  0
 53 55  1  0
 53 56  2  0
 54 95  1  0
 55 51  2  0
 56 52  1  0
 57 65  1  0
 58 63  1  0
 59 60  1  0
 59 58  1  0
 61 60  1  0
 61 70  1  0
 61 62  1  0
 63 57  1  0
 63 62  1  0
 64 57  2  0
 65 66  1  0
 65 56  1  0
 67 68  2  0
 68 87  1  0
 69 68  1  0
 69 72  1  0
 70 71  1  0
 70 67  1  0
 71 69  2  0
 72 73  1  0
 73 74  2  0
 75 78  1  0
 75 74  1  0
 76 75  2  0
 77 76  1  0
 77 72  2  0
 78 79  1  0
 79 80  1  0
 80 81  2  0
 82 81  1  0
 82 86  1  0
 83 82  2  0
 84 79  2  0
 84 83  1  0
 85 84  1  0
 87 88  1  0
 88 91  1  0
 88 90  1  0
 89 87  2  0
 92 67  1  0
 92 93  1  0
 94 92  1  0
 95 97  2  0
 95 96  1  0
 96 99  1  0
 98 96  1  0
M  ISO  4   9 101  10 101  57 100  65 100
M  END
>  <TORSDO>  (90) 
F 20

>  <SCORE>  (90) 
-12.587

>  <name>  (90) 
90

>  <ligand_id>  (90) 
90

>  <original_smiles>  (90) 
[H]c1c([H])c([H])c2c(c1[H])C([H])([H])C([H])([H])C([H])([H])C2([H])N([H])C(=O)C1([H])N(C(=O)C([H])(N([H])C(=O)C([H])(N([H])C([H])([H])[H])C([H])([H])[H])C(C([H])([H])[H])(C([H])([H])[H])C([H])([H])[H])C([H])([H])c2c([H])c(OC([H])([H])C3([H])C([H])([H])N(C([H])([H])c4c([H])c(C(=O)N([H])[H])c([H])c(N([H])C(=O)N5C([H])([H])C([H])([H])C([H])([H])C([H])(n6nc(-c7c([H])c([H])c(Oc8c([H])c([H])c(F)c([H])c8F)c([H])c7[H])c(C(=O)N([H])[H])c6N([H])[H])C5([H])[H])c4[H])C(=O)C([H])([H])C3([H])[H])c([H])c([H])c2C1([H])[H]

>  <smiles>  (90) 
[H]c1c([H])c([H])c2c(c1[H])C([H])([H])C([H])([H])C([H])([H])C2([H])N([H])C(=O)C1([H])N(C(=O)C([H])(N([H])C(=O)C([H])(N([H])C([H])([H])[H])C([H])([H])[H])C(C([H])([H])[H])(C([H])([H])[H])C([H])([H])[H])C([H])([H])c2c([H])c(OC([H])([H])C3([H])C([H])([H])N(C([H])([H])c4c([H])c(C(=O)N([H])[H])c([H])c(N([H])C(=O)N5C([H])([H])C([H])([H])C([H])([H])C([H])(n6nc(-c7c([H])c([H])c(Oc8c([H])c([H])c(F)c([H])c8F)c([H])c7[H])c(C(=O)N([H])[H])c6N([H])[H])C5([H])[H])c4[H])C(=O)C([H])([H])C3([H])[H])c([H])c([H])c2C1([H])[H]

$$$$
91:0:0
     RDKit          3D

 95103  0  0  1  0  0  0  0  0999 V2000
  -29.6430  -21.5450   19.3390 C   0  0  0  0  0  0  0  0  0  0  0  0
  -28.9890  -22.5310   20.0270 N   0  0  0  0  0  0  0  0  0  0  0  0
  -30.2330  -21.8340   18.2950 O   0  0  0  0  0  0  0  0  0  0  0  0
  -28.5340  -22.2820   20.8940 H   0  0  0  0  0  0  0  0  0  0  0  0
  -30.9150  -19.3140   19.5610 C   0  0  0  0  0  3  0  0  0  0  0  0
  -31.0060  -17.9080   19.7880 C   0  0  0  0  0  3  0  0  0  0  0  0
  -28.6290  -19.3280   20.3020 C   0  0  0  0  0  3  0  0  0  0  0  0
  -29.7280  -20.0690   19.7980 C   0  0  0  0  0  0  0  0  0  0  0  0
  -29.8930  -17.1630   20.2560 C   0  0  0  0  0  0  0  0  0  0  0  0
  -28.7120  -17.9160   20.5220 C   0  0  0  0  0  0  0  0  0  0  0  0
  -30.6230  -14.6660   20.0210 C   0  0  0  0  0  0  0  0  0  0  0  0
  -30.3460  -12.4540   18.9180 C   0  0  0  0  0  2  0  0  0  0  0  0
  -29.3260  -12.6180   17.7690 C   0  0  0  0  0  2  0  0  0  0  0  0
  -27.8820  -12.4510   18.2880 C   0  0  0  0  0  2  0  0  0  0  0  0
  -27.6070  -13.2820   19.5700 C   0  0  0  0  0  3  0  0  0  0  0  0
  -28.7340  -13.0880   20.6100 C   0  0  0  0  0  2  0  0  0  0  0  0
  -30.0050  -13.4430   19.9590 N   0  0  0  0  0  0  0  0  0  0  0  0
  -31.7680  -14.8240   19.5860 O   0  0  0  0  0  0  0  0  0  0  0  0
  -29.8330  -15.7090   20.4270 N   0  0  0  0  0  0  0  0  0  0  0  0
  -28.9300  -15.4110   20.7590 H   0  0  0  0  0  0  0  0  0  0  0  0
  -25.2670  -13.8690   20.4530 C   0  0  0  0  0  0  0  0  0  0  0  0
  -24.2190  -13.0880   20.8600 C   0  0  0  0  0  0  0  0  0  0  0  0
  -24.6730  -11.7360   20.7650 C   0  0  0  0  0  0  0  0  0  0  0  0
  -26.2910  -12.9930   20.1320 N   0  0  0  0  0  0  0  0  0  0  0  0
  -25.9430  -11.7040   20.3790 N   0  0  0  0  0  0  0  0  0  0  0  0
  -23.9530  -10.4730   20.9630 C   0  0  0  0  0  0  0  0  0  0  0  0
  -24.4030   -9.5040   21.8880 C   0  0  0  0  0  3  0  0  0  0  0  0
  -23.6830   -8.3040   22.0750 C   0  0  0  0  0  3  0  0  0  0  0  0
  -22.5000   -8.0650   21.3360 C   0  0  0  0  0  0  0  0  0  0  0  0
  -22.0690   -9.0230   20.4020 C   0  0  0  0  0  3  0  0  0  0  0  0
  -22.7900  -10.2140   20.2140 C   0  0  0  0  0  3  0  0  0  0  0  0
  -21.7490   -6.9180   21.4330 O   0  0  0  0  0  0  0  0  0  0  0  0
  -21.6770   -6.2010   22.6000 C   0  0  0  0  0  0  0  0  0  0  0  0
  -21.2010   -6.7760   23.8000 C   0  0  0  0  0  3  0  0  0  0  0  0
  -21.0780   -5.9840   24.9580 C   0  0  0  0  0  3  0  0  0  0  0  0
  -21.4200   -4.6200   24.9200 C   0  0  0  0  0  0  0  0  0  0  0  0
  -21.8890   -4.0450   23.7250 C   0  0  0  0  0  3  0  0  0  0  0  0
  -22.0140   -4.8330   22.5680 C   0  0  0  0  0  0  0  0  0  0  0  0
  -22.4470   -4.2690   21.4150 F   0  0  0  0  0  0  0  0  0  0  0  0
  -21.2940   -3.8570   26.0300 F   0  0  0  0  0  0  0  0  0  0  0  0
  -22.8440  -13.5620   21.2330 C   0  0  0  0  0  0  0  0  0  0  0  0
  -22.1670  -12.8420   22.1210 N   0  0  0  0  0  0  0  0  0  0  0  0
  -22.3820  -14.6070   20.7760 O   0  0  0  0  0  0  0  0  0  0  0  0
  -22.5550  -11.9970   22.5140 H   0  0  0  0  0  0  0  0  0  0  0  0
  -21.2470  -13.1400   22.4140 H   0  0  0  0  0  0  0  0  0  0  0  0
  -25.4210  -15.2440   20.3170 N   0  0  0  0  0  0  0  0  0  0  0  0
  -24.6680  -15.8810   20.5520 H   0  0  0  0  0  0  0  0  0  0  0  0
  -26.3020  -15.7310   20.1750 H   0  0  0  0  0  0  0  0  0  0  0  0
  -27.5870  -17.2370   20.9890 N   0  0  0  0  0  0  0  0  0  0  0  0
  -26.8090  -17.8290   21.2590 H   0  0  0  0  0  0  0  0  0  0  0  0
  -27.7660  -16.5550   21.7170 H   0  0  0  0  0  0  0  0  0  0  0  0
  -28.8590  -23.9670   19.5440 C   0  0  0  0  0  2  0  0  0  0  0  0
  -27.2230  -24.7030   21.4050 C   0  0  0  0  0  1  0  0  0  0  0  0
  -28.4640  -25.1050   20.5860 C   0  0  0  0  0  3  0  0  0  0  0  0
  -28.4830  -26.5250   20.1240 O   0  0  0  0  0  0  0  0  0  0  0  0
  -24.7090  -31.8630   23.2040 C   0  0  0  0  0  0  0  0  0  0  0  0
  -27.3390  -27.3380   20.1220 C   0  0  0  0  0  0  0  0  0  0  0  0
  -23.5050  -30.4650   21.5620 C   0  0  0  0  0  3  0  0  0  0  0  0
  -24.9590  -28.9210   20.1290 C   0  0  0  0  0  0  0  0  0  0  0  0
  -26.0400  -30.8000   21.3690 C   0  0  0  0  0  2  0  0  0  0  0  0
  -26.1260  -29.4240   20.7170 C   0  0  0  0  0  0  0  0  0  0  0  0
  -27.3190  -28.6440   20.7020 C   0  0  0  0  0  3  0  0  0  0  0  0
  -26.1560  -26.8890   19.5000 C   0  0  0  0  0  3  0  0  0  0  0  0
  -24.9750  -27.6580   19.5150 C   0  0  0  0  0  3  0  0  0  0  0  0
  -23.7200  -29.7920   20.1810 C   0  0  0  0  0  2  0  0  0  0  0  0
  -24.7700  -31.0590   22.1010 N   0  0  0  0  0  0  0  0  0  0  0  0
  -23.6280  -32.1330   23.7450 O   0  0  0  0  0  0  0  0  0  0  0  0
  -22.8510  -29.4430   22.5220 C   0  0  0  0  0  0  0  0  0  0  0  0
  -21.5220  -29.2720   22.4100 N   0  0  0  0  0  0  0  0  0  0  0  0
  -23.5380  -28.8070   23.3260 O   0  0  0  0  0  0  0  0  0  0  0  0
  -21.0270  -29.8360   21.7340 H   0  0  0  0  0  0  0  0  0  0  0  0
  -18.1440  -28.1020   22.9560 C   0  0  0  0  0  0  0  0  0  0  0  0
  -20.7100  -28.3310   23.1830 C   0  0  0  0  0  3  0  0  0  0  0  0
  -20.7880  -26.9070   22.5870 C   0  0  0  0  0  2  0  0  0  0  0  0
  -19.6640  -26.6090   21.5880 C   0  0  0  0  0  2  0  0  0  0  0  0
  -18.2960  -26.7590   22.2590 C   0  0  0  0  0  2  0  0  0  0  0  0
  -19.2800  -28.8460   23.3760 C   0  0  0  0  0  0  0  0  0  0  0  0
  -19.0860  -30.1010   23.9910 C   0  0  0  0  0  3  0  0  0  0  0  0
  -17.7900  -30.6150   24.1890 C   0  0  0  0  0  3  0  0  0  0  0  0
  -16.6700  -29.8680   23.7860 C   0  0  0  0  0  3  0  0  0  0  0  0
  -16.8480  -28.6140   23.1750 C   0  0  0  0  0  3  0  0  0  0  0  0
  -25.9930  -32.4980   23.8210 C   0  0  0  0  0  3  0  0  0  0  0  0
  -26.5220  -31.7220   25.0890 C   0  0  1  0  0  0  0  0  0  0  0  0
  -25.4350  -31.4710   26.1600 C   0  0  0  0  0  1  0  0  0  0  0  0
  -27.1130  -30.3520   24.6840 C   0  0  0  0  0  1  0  0  0  0  0  0
  -27.6680  -32.5220   25.7520 C   0  0  0  0  0  1  0  0  0  0  0  0
  -25.6790  -33.8930   24.1620 N   0  0  0  0  0  0  0  0  0  0  0  0
  -25.9970  -34.9530   23.4060 C   0  0  0  0  0  0  0  0  0  0  0  0
  -26.6550  -34.8590   22.3670 O   0  0  0  0  0  0  0  0  0  0  0  0
  -25.0940  -34.0380   24.9730 H   0  0  0  0  0  0  0  0  0  0  0  0
  -24.2540  -36.7370   23.0820 C   0  0  0  0  0  1  0  0  0  0  0  0
  -25.5070  -36.3360   23.8780 C   0  0  0  0  0  3  0  0  0  0  0  0
  -27.6410  -37.2340   24.6920 C   0  0  0  0  0  1  0  0  0  0  0  0
  -26.5300  -37.3960   23.7580 N   0  0  0  0  0  0  0  0  0  0  0  0
  -26.1190  -38.3130   23.9110 H   0  0  0  0  0  0  0  0  0  0  0  0
  1  8  1  0
  1  2  1  0
  2  4  1  0
  3  1  2  0
  5  6  2  0
  5  8  1  0
  6  9  1  0
  7 10  1  0
  8  7  2  0
  9 19  1  0
  9 10  2  0
 10 49  1  0
 11 19  1  0
 12 17  1  0
 13 14  1  0
 13 12  1  0
 15 14  1  0
 15 24  1  0
 15 16  1  0
 17 11  1  0
 17 16  1  0
 18 11  2  0
 19 20  1  0
 21 22  2  0
 22 41  1  0
 23 22  1  0
 23 26  1  0
 24 25  1  0
 24 21  1  0
 25 23  2  0
 26 27  1  0
 27 28  2  0
 29 32  1  0
 29 28  1  0
 30 29  2  0
 31 30  1  0
 31 26  2  0
 32 33  1  0
 33 34  1  0
 34 35  2  0
 36 35  1  0
 36 40  1  0
 37 36  2  0
 38 33  2  0
 38 37  1  0
 39 38  1  0
 41 42  1  0
 42 45  1  0
 42 44  1  0
 43 41  2  0
 46 21  1  0
 46 47  1  0
 48 46  1  0
 49 50  1  0
 49 51  1  0
 52  2  1  0
 52 54  1  0
 54 53  1  0
 55 54  1  0
 56 67  2  0
 57 55  1  0
 57 62  1  0
 58 66  1  0
 58 68  1  0
 59 65  1  0
 59 61  1  0
 60 66  1  0
 61 60  1  0
 62 61  2  0
 63 64  1  0
 63 57  2  0
 64 59  2  0
 65 58  1  0
 66 56  1  0
 68 70  2  0
 69 68  1  0
 71 69  1  0
 72 81  2  0
 72 77  1  0
 73 69  1  0
 73 77  1  0
 74 73  1  0
 75 76  1  0
 75 74  1  0
 76 72  1  0
 77 78  2  0
 78 79  1  0
 80 79  2  0
 81 80  1  0
 82 56  1  0
 82 87  1  0
 82 83  1  0
 83 86  1  1
 83 84  1  0
 85 83  1  0
 87 90  1  0
 88 92  1  0
 88 87  1  0
 89 88  2  0
 92 91  1  0
 94 92  1  0
 94 95  1  0
 94 93  1  0
M  ISO  4  11 100  19 100  54 101  55 101
M  END
>  <TORSDO>  (91) 
F 20

>  <SCORE>  (91) 
-13.564

>  <name>  (91) 
91

>  <ligand_id>  (91) 
91

>  <original_smiles>  (91) 
[H]c1c([H])c([H])c2c(c1[H])C([H])([H])C([H])([H])C([H])([H])C2([H])N([H])C(=O)C1([H])N(C(=O)C([H])(N([H])C(=O)C([H])(N([H])C([H])([H])[H])C([H])([H])[H])C(C([H])([H])[H])(C([H])([H])[H])C([H])([H])[H])C([H])([H])c2c([H])c(OC([H])(C([H])([H])[H])C([H])([H])N([H])C(=O)c3c([H])c([H])c(N([H])C(=O)N4C([H])([H])C([H])([H])C([H])([H])C([H])(n5nc(-c6c([H])c([H])c(Oc7c([H])c([H])c(F)c([H])c7F)c([H])c6[H])c(C(=O)N([H])[H])c5N([H])[H])C4([H])[H])c(N([H])[H])c3[H])c([H])c([H])c2C1([H])[H]

>  <smiles>  (91) 
[H]c1c([H])c([H])c2c(c1[H])C([H])([H])C([H])([H])C([H])([H])C2([H])N([H])C(=O)C1([H])N(C(=O)C([H])(N([H])C(=O)C([H])(N([H])C([H])([H])[H])C([H])([H])[H])C(C([H])([H])[H])(C([H])([H])[H])C([H])([H])[H])C([H])([H])c2c([H])c(OC([H])(C([H])([H])[H])C([H])([H])N([H])C(=O)c3c([H])c([H])c(N([H])C(=O)N4C([H])([H])C([H])([H])C([H])([H])C([H])(n5nc(-c6c([H])c([H])c(Oc7c([H])c([H])c(F)c([H])c7F)c([H])c6[H])c(C(=O)N([H])[H])c5N([H])[H])C4([H])[H])c(N([H])[H])c3[H])c([H])c([H])c2C1([H])[H]

$$$$
92:0:0
     RDKit          3D

 95103  0  0  1  0  0  0  0  0999 V2000
  -29.8830  -19.5150   21.0730 C   0  0  0  0  0  3  0  0  0  0  0  0
  -29.3160  -17.6530   19.0680 C   0  0  0  0  0  3  0  0  0  0  0  0
  -30.1230  -18.1150   21.2980 C   0  0  0  0  0  0  0  0  0  0  0  0
  -29.8180  -17.1340   20.2890 C   0  0  0  0  0  0  0  0  0  0  0  0
  -29.3540  -20.0270   19.8600 C   0  0  0  0  0  0  0  0  0  0  0  0
  -29.1020  -19.0490   18.8560 C   0  0  0  0  0  0  0  0  0  0  0  0
  -28.6240  -19.4450   17.6540 F   0  0  0  0  0  0  0  0  0  0  0  0
  -30.5560  -14.6510   19.9970 C   0  0  0  0  0  0  0  0  0  0  0  0
  -30.2970  -12.4200   18.9270 C   0  0  0  0  0  2  0  0  0  0  0  0
  -29.2800  -12.5750   17.7750 C   0  0  0  0  0  2  0  0  0  0  0  0
  -27.8330  -12.4150   18.2810 C   0  0  0  0  0  2  0  0  0  0  0  0
  -27.5580  -13.2220   19.5780 C   0  0  0  0  0  3  0  0  0  0  0  0
  -28.6870  -13.0480   20.6180 C   0  0  0  0  0  2  0  0  0  0  0  0
  -29.9540  -13.4160   19.9660 N   0  0  0  0  0  0  0  0  0  0  0  0
  -31.6550  -14.8370   19.4690 O   0  0  0  0  0  0  0  0  0  0  0  0
  -29.8360  -15.6800   20.5530 N   0  0  0  0  0  0  0  0  0  0  0  0
  -29.0980  -15.3600   21.1660 H   0  0  0  0  0  0  0  0  0  0  0  0
  -25.2160  -13.7930   20.4620 C   0  0  0  0  0  0  0  0  0  0  0  0
  -24.1770  -13.0100   20.8810 C   0  0  0  0  0  0  0  0  0  0  0  0
  -24.6360  -11.6590   20.7820 C   0  0  0  0  0  0  0  0  0  0  0  0
  -26.2450  -12.9200   20.1380 N   0  0  0  0  0  0  0  0  0  0  0  0
  -25.9020  -11.6300   20.3850 N   0  0  0  0  0  0  0  0  0  0  0  0
  -23.9190  -10.3930   20.9870 C   0  0  0  0  0  0  0  0  0  0  0  0
  -24.3490   -9.4500   21.9490 C   0  0  0  0  0  3  0  0  0  0  0  0
  -23.6360   -8.2470   22.1410 C   0  0  0  0  0  3  0  0  0  0  0  0
  -22.4780   -7.9790   21.3700 C   0  0  0  0  0  0  0  0  0  0  0  0
  -22.0670   -8.9090   20.3980 C   0  0  0  0  0  3  0  0  0  0  0  0
  -22.7810  -10.1040   20.2040 C   0  0  0  0  0  3  0  0  0  0  0  0
  -21.7390   -6.8250   21.4670 O   0  0  0  0  0  0  0  0  0  0  0  0
  -21.5790   -6.1710   22.6610 C   0  0  0  0  0  0  0  0  0  0  0  0
  -21.0010   -6.8010   23.7860 C   0  0  0  0  0  3  0  0  0  0  0  0
  -20.7920   -6.0710   24.9740 C   0  0  0  0  0  3  0  0  0  0  0  0
  -21.1510   -4.7110   25.0370 C   0  0  0  0  0  0  0  0  0  0  0  0
  -21.7170   -4.0810   23.9180 C   0  0  0  0  0  3  0  0  0  0  0  0
  -21.9300   -4.8070   22.7340 C   0  0  0  0  0  0  0  0  0  0  0  0
  -22.4580   -4.1900   21.6510 F   0  0  0  0  0  0  0  0  0  0  0  0
  -20.9440   -4.0070   26.1750 F   0  0  0  0  0  0  0  0  0  0  0  0
  -22.8020  -13.4780   21.2620 C   0  0  0  0  0  0  0  0  0  0  0  0
  -22.1400  -12.7640   22.1660 N   0  0  0  0  0  0  0  0  0  0  0  0
  -22.3210  -14.5100   20.7910 O   0  0  0  0  0  0  0  0  0  0  0  0
  -22.5350  -11.9300   22.5700 H   0  0  0  0  0  0  0  0  0  0  0  0
  -21.2200  -13.0590   22.4630 H   0  0  0  0  0  0  0  0  0  0  0  0
  -25.3640  -15.1680   20.3140 N   0  0  0  0  0  0  0  0  0  0  0  0
  -24.6000  -15.8120   20.4990 H   0  0  0  0  0  0  0  0  0  0  0  0
  -26.1870  -15.6260   19.9420 H   0  0  0  0  0  0  0  0  0  0  0  0
  -30.7800  -17.7210   22.6020 C   0  0  0  0  0  0  0  0  0  0  0  0
  -30.3860  -18.3710   23.6910 N   0  0  0  0  0  0  0  0  0  0  0  0
  -31.6330  -16.8370   22.6530 O   0  0  0  0  0  0  0  0  0  0  0  0
  -29.6410  -19.0500   23.6360 H   0  0  0  0  0  0  0  0  0  0  0  0
  -30.8110  -18.1740   24.5880 H   0  0  0  0  0  0  0  0  0  0  0  0
  -29.0690  -21.3870   19.5770 O   0  0  0  0  0  0  0  0  0  0  0  0
  -29.0810  -22.4620   20.5800 C   0  0  0  0  0  3  0  0  0  0  0  0
  -28.7760  -23.9390   20.0320 C   0  0  0  0  0  3  0  0  0  0  0  0
  -28.6040  -25.1340   21.0800 C   0  0  0  0  0  2  0  0  0  0  0  0
  -28.6690  -26.5430   20.6310 O   0  0  0  0  0  0  0  0  0  0  0  0
  -24.6060  -31.8330   23.4220 C   0  0  0  0  0  0  0  0  0  0  0  0
  -27.5040  -27.3140   20.5890 C   0  0  0  0  0  0  0  0  0  0  0  0
  -23.5280  -30.3800   21.7400 C   0  0  0  0  0  3  0  0  0  0  0  0
  -25.0940  -28.8400   20.4250 C   0  0  0  0  0  0  0  0  0  0  0  0
  -26.0620  -30.7680   21.6810 C   0  0  0  0  0  2  0  0  0  0  0  0
  -26.2140  -29.3800   21.0710 C   0  0  0  0  0  0  0  0  0  0  0  0
  -27.4270  -28.6330   21.1350 C   0  0  0  0  0  3  0  0  0  0  0  0
  -26.3620  -26.8080   19.9370 C   0  0  0  0  0  3  0  0  0  0  0  0
  -25.1710  -27.5600   19.8450 C   0  0  0  0  0  3  0  0  0  0  0  0
  -23.8370  -29.6890   20.3840 C   0  0  0  0  0  2  0  0  0  0  0  0
  -24.7490  -31.0100   22.3420 N   0  0  0  0  0  0  0  0  0  0  0  0
  -23.4880  -32.0930   23.8890 O   0  0  0  0  0  0  0  0  0  0  0  0
  -22.8400  -29.3630   22.6810 C   0  0  0  0  0  0  0  0  0  0  0  0
  -21.5330  -29.1350   22.4690 N   0  0  0  0  0  0  0  0  0  0  0  0
  -23.4820  -28.7850   23.5600 O   0  0  0  0  0  0  0  0  0  0  0  0
  -21.0750  -29.6500   21.7320 H   0  0  0  0  0  0  0  0  0  0  0  0
  -18.1830  -27.8010   22.7420 C   0  0  0  0  0  0  0  0  0  0  0  0
  -20.6980  -28.1840   23.2030 C   0  0  0  0  0  3  0  0  0  0  0  0
  -20.9080  -26.7420   22.6830 C   0  0  0  0  0  2  0  0  0  0  0  0
  -19.9040  -26.3390   21.6000 C   0  0  0  0  0  2  0  0  0  0  0  0
  -18.4700  -26.4400   22.1290 C   0  0  0  0  0  2  0  0  0  0  0  0
  -19.2300  -28.6240   23.2330 C   0  0  0  0  0  0  0  0  0  0  0  0
  -18.9090  -29.8940   23.7650 C   0  0  0  0  0  3  0  0  0  0  0  0
  -17.5740  -30.3410   23.8050 C   0  0  0  0  0  3  0  0  0  0  0  0
  -16.5400  -29.5150   23.3310 C   0  0  0  0  0  3  0  0  0  0  0  0
  -16.8450  -28.2450   22.8090 C   0  0  0  0  0  3  0  0  0  0  0  0
  -25.8370  -32.5080   24.1020 C   0  0  0  0  0  3  0  0  0  0  0  0
  -25.5060  -33.9230   24.3260 N   0  0  0  0  0  0  0  0  0  0  0  0
  -25.8750  -34.9280   23.5190 C   0  0  0  0  0  0  0  0  0  0  0  0
  -26.5970  -34.7600   22.5330 O   0  0  0  0  0  0  0  0  0  0  0  0
  -24.8730  -34.1250   25.0870 H   0  0  0  0  0  0  0  0  0  0  0  0
  -24.1570  -36.6730   22.9640 C   0  0  0  0  0  1  0  0  0  0  0  0
  -25.3620  -36.3410   23.8560 C   0  0  0  0  0  3  0  0  0  0  0  0
  -27.4560  -37.2990   24.7080 C   0  0  0  0  0  1  0  0  0  0  0  0
  -26.3950  -37.3890   23.7100 N   0  0  0  0  0  0  0  0  0  0  0  0
  -25.9810  -38.3150   23.7680 H   0  0  0  0  0  0  0  0  0  0  0  0
  -26.2470  -31.8140   25.4580 C   0  0  1  0  0  0  0  0  0  0  0  0
  -25.0670  -31.6190   26.4420 C   0  0  0  0  0  1  0  0  0  0  0  0
  -26.8700  -30.4260   25.1870 C   0  0  0  0  0  1  0  0  0  0  0  0
  -27.3370  -32.6500   26.1670 C   0  0  0  0  0  1  0  0  0  0  0  0
  1  3  1  0
  2  4  1  0
  3 46  1  0
  4 16  1  0
  4  3  2  0
  5  1  2  0
  6  2  2  0
  6  5  1  0
  7  6  1  0
  8 16  1  0
  9 14  1  0
 10 11  1  0
 10  9  1  0
 12 11  1  0
 12 21  1  0
 12 13  1  0
 14  8  1  0
 14 13  1  0
 15  8  2  0
 16 17  1  0
 18 19  2  0
 19 38  1  0
 20 19  1  0
 20 23  1  0
 21 22  1  0
 21 18  1  0
 22 20  2  0
 23 24  1  0
 24 25  2  0
 26 29  1  0
 26 25  1  0
 27 26  2  0
 28 27  1  0
 28 23  2  0
 29 30  1  0
 30 35  2  0
 30 31  1  0
 31 32  2  0
 32 33  1  0
 33 37  1  0
 34 33  2  0
 35 34  1  0
 36 35  1  0
 38 39  1  0
 39 42  1  0
 39 41  1  0
 40 38  2  0
 43 18  1  0
 43 44  1  0
 45 43  1  0
 46 48  2  0
 46 47  1  0
 47 50  1  0
 49 47  1  0
 51  5  1  0
 51 52  1  0
 53 52  2  0
 53 54  1  0
 55 54  1  0
 56 67  2  0
 57 55  1  0
 57 62  1  0
 58 66  1  0
 58 68  1  0
 59 61  1  0
 60 66  1  0
 61 62  2  0
 61 60  1  0
 63 57  2  0
 64 63  1  0
 64 59  2  0
 65 59  1  0
 65 58  1  0
 66 56  1  0
 68 70  2  0
 69 68  1  0
 71 69  1  0
 72 81  2  0
 72 77  1  0
 73 69  1  0
 73 77  1  0
 74 73  1  0
 75 76  1  0
 75 74  1  0
 76 72  1  0
 77 78  2  0
 78 79  1  0
 80 79  2  0
 81 80  1  0
 82 56  1  0
 82 83  1  0
 82 92  1  0
 83 86  1  0
 84 88  1  0
 84 83  1  0
 85 84  2  0
 88 87  1  0
 90 91  1  0
 90 88  1  0
 90 89  1  0
 92 95  1  1
 92 93  1  0
 94 92  1  0
M  ISO  4   8 100  16 100  54 101  55 101
M  END
>  <TORSDO>  (92) 
F 21

>  <SCORE>  (92) 
-12.015

>  <name>  (92) 
92

>  <ligand_id>  (92) 
92

>  <original_smiles>  (92) 
[H]c1c([H])c([H])c2c(c1[H])C([H])([H])C([H])([H])C([H])([H])C2([H])N([H])C(=O)C1([H])N(C(=O)C([H])(N([H])C(=O)C([H])(N([H])C([H])([H])[H])C([H])([H])[H])C(C([H])([H])[H])(C([H])([H])[H])C([H])([H])[H])C([H])([H])c2c([H])c(OC([H])([H])C([H])([H])C([H])([H])Oc3c([H])c(C(=O)N([H])[H])c(N([H])C(=O)N4C([H])([H])C([H])([H])C([H])([H])C([H])(n5nc(-c6c([H])c([H])c(Oc7c([H])c([H])c(F)c([H])c7F)c([H])c6[H])c(C(=O)N([H])[H])c5N([H])[H])C4([H])[H])c([H])c3F)c([H])c([H])c2C1([H])[H]

>  <smiles>  (92) 
[H]c1c([H])c([H])c2c(c1[H])C([H])([H])C([H])([H])C([H])([H])C2([H])N([H])C(=O)C1([H])N(C(=O)C([H])(N([H])C(=O)C([H])(N([H])C([H])([H])[H])C([H])([H])[H])C(C([H])([H])[H])(C([H])([H])[H])C([H])([H])[H])C([H])([H])c2c([H])c(OC([H])([H])C([H])([H])C([H])([H])Oc3c([H])c(C(=O)N([H])[H])c(N([H])C(=O)N4C([H])([H])C([H])([H])C([H])([H])C([H])(n5nc(-c6c([H])c([H])c(Oc7c([H])c([H])c(F)c([H])c7F)c([H])c6[H])c(C(=O)N([H])[H])c5N([H])[H])C4([H])[H])c([H])c3F)c([H])c([H])c2C1([H])[H]

$$$$
93:0:0
     RDKit          3D

 93101  0  0  1  0  0  0  0  0999 V2000
  -28.8840  -22.5300   20.1810 C   0  0  0  0  0  0  0  0  0  0  0  0
  -29.6240  -21.5590   20.8080 N   0  0  0  0  0  0  0  0  0  0  0  0
  -27.9760  -22.2540   19.3960 O   0  0  0  0  0  0  0  0  0  0  0  0
  -30.3300  -21.9310   21.4300 H   0  0  0  0  0  0  0  0  0  0  0  0
  -28.7160  -19.3520   19.9000 C   0  0  0  0  0  3  0  0  0  0  0  0
  -30.5810  -19.3210   21.4000 C   0  0  0  0  0  3  0  0  0  0  0  0
  -28.8110  -17.9410   19.7450 C   0  0  0  0  0  0  0  0  0  0  0  0
  -29.6220  -20.0960   20.6930 C   0  0  0  0  0  0  0  0  0  0  0  0
  -29.8480  -17.1710   20.3780 C   0  0  0  0  0  0  0  0  0  0  0  0
  -30.6960  -17.9050   21.2580 C   0  0  0  0  0  0  0  0  0  0  0  0
  -27.7660  -17.3170   18.8310 C   0  0  0  0  0  1  0  0  0  0  0  0
  -31.6810  -17.2740   21.9400 F   0  0  0  0  0  0  0  0  0  0  0  0
  -30.7430  -14.7600   20.6710 C   0  0  0  0  0  0  0  0  0  0  0  0
  -30.5650  -12.4370   19.8240 C   0  0  0  0  0  2  0  0  0  0  0  0
  -29.7000  -12.3870   18.5440 C   0  0  0  0  0  2  0  0  0  0  0  0
  -28.1990  -12.3220   18.8840 C   0  0  0  0  0  2  0  0  0  0  0  0
  -27.7600  -13.2870   20.0190 C   0  0  0  0  0  3  0  0  0  0  0  0
  -28.7510  -13.2810   21.2000 C   0  0  0  0  0  2  0  0  0  0  0  0
  -30.0810  -13.5590   20.6490 N   0  0  0  0  0  0  0  0  0  0  0  0
  -31.9760  -14.7800   20.6890 O   0  0  0  0  0  0  0  0  0  0  0  0
  -30.4020  -15.7000   18.5180 C   0  0  0  0  0  1  0  0  0  0  0  0
  -30.1120  -15.7760   19.9680 N   0  0  0  0  0  0  0  0  0  0  0  0
  -25.3330  -13.9190   20.5850 C   0  0  0  0  0  0  0  0  0  0  0  0
  -24.2390  -13.1590   20.8980 C   0  0  0  0  0  0  0  0  0  0  0  0
  -24.6990  -11.8070   20.9390 C   0  0  0  0  0  0  0  0  0  0  0  0
  -26.3860  -13.0290   20.4430 N   0  0  0  0  0  0  0  0  0  0  0  0
  -26.0060  -11.7570   20.7260 N   0  0  0  0  0  0  0  0  0  0  0  0
  -23.9570  -10.5500   21.1110 C   0  0  0  0  0  0  0  0  0  0  0  0
  -24.3480   -9.5880   22.0690 C   0  0  0  0  0  3  0  0  0  0  0  0
  -23.6080   -8.3970   22.2280 C   0  0  0  0  0  3  0  0  0  0  0  0
  -22.4630   -8.1600   21.4300 C   0  0  0  0  0  0  0  0  0  0  0  0
  -22.0930   -9.1110   20.4630 C   0  0  0  0  0  3  0  0  0  0  0  0
  -22.8340  -10.2930   20.3010 C   0  0  0  0  0  3  0  0  0  0  0  0
  -21.6980   -7.0210   21.4990 O   0  0  0  0  0  0  0  0  0  0  0  0
  -21.6230   -6.2740   22.6480 C   0  0  0  0  0  0  0  0  0  0  0  0
  -21.1870   -6.8300   23.8710 C   0  0  0  0  0  3  0  0  0  0  0  0
  -21.0570   -6.0100   25.0100 C   0  0  0  0  0  3  0  0  0  0  0  0
  -21.3540   -4.6370   24.9270 C   0  0  0  0  0  0  0  0  0  0  0  0
  -21.7820   -4.0800   23.7090 C   0  0  0  0  0  3  0  0  0  0  0  0
  -21.9140   -4.8970   22.5720 C   0  0  0  0  0  0  0  0  0  0  0  0
  -22.3080   -4.3520   21.3960 F   0  0  0  0  0  0  0  0  0  0  0  0
  -21.2210   -3.8470   26.0190 F   0  0  0  0  0  0  0  0  0  0  0  0
  -22.8290  -13.6460   21.0570 C   0  0  0  0  0  0  0  0  0  0  0  0
  -22.0400  -12.9770   21.8890 N   0  0  0  0  0  0  0  0  0  0  0  0
  -22.4330  -14.6570   20.4790 O   0  0  0  0  0  0  0  0  0  0  0  0
  -22.3710  -12.1600   22.3820 H   0  0  0  0  0  0  0  0  0  0  0  0
  -21.0900  -13.2870   22.0400 H   0  0  0  0  0  0  0  0  0  0  0  0
  -25.5140  -15.2840   20.3870 N   0  0  0  0  0  0  0  0  0  0  0  0
  -24.7470  -15.9450   20.4420 H   0  0  0  0  0  0  0  0  0  0  0  0
  -26.4010  -15.7210   20.1810 H   0  0  0  0  0  0  0  0  0  0  0  0
  -29.1900  -24.0540   20.4520 C   0  0  0  0  0  3  0  0  0  0  0  0
  -28.1030  -25.0910   19.9450 C   0  0  0  0  0  3  0  0  0  0  0  0
  -28.3150  -26.5440   20.1100 O   0  0  0  0  0  0  0  0  0  0  0  0
  -24.5240  -31.8770   23.1120 C   0  0  0  0  0  0  0  0  0  0  0  0
  -27.1840  -27.3710   20.0440 C   0  0  0  0  0  0  0  0  0  0  0  0
  -23.3340  -30.4680   21.4720 C   0  0  0  0  0  3  0  0  0  0  0  0
  -24.7980  -28.9420   20.0410 C   0  0  0  0  0  0  0  0  0  0  0  0
  -25.8670  -30.8200   21.2850 C   0  0  0  0  0  2  0  0  0  0  0  0
  -25.9620  -29.4460   20.6370 C   0  0  0  0  0  0  0  0  0  0  0  0
  -27.1560  -28.6710   20.6320 C   0  0  0  0  0  3  0  0  0  0  0  0
  -25.9970  -26.9230   19.4150 C   0  0  0  0  0  3  0  0  0  0  0  0
  -24.8160  -27.6860   19.4230 C   0  0  0  0  0  3  0  0  0  0  0  0
  -23.5520  -29.7980   20.0910 C   0  0  0  0  0  2  0  0  0  0  0  0
  -24.5940  -31.0720   22.0130 N   0  0  0  0  0  0  0  0  0  0  0  0
  -23.4390  -32.1430   23.6470 O   0  0  0  0  0  0  0  0  0  0  0  0
  -22.6840  -29.4410   22.4310 C   0  0  0  0  0  0  0  0  0  0  0  0
  -21.3530  -29.2820   22.3320 N   0  0  0  0  0  0  0  0  0  0  0  0
  -23.3740  -28.7940   23.2230 O   0  0  0  0  0  0  0  0  0  0  0  0
  -20.8550  -29.8550   21.6650 H   0  0  0  0  0  0  0  0  0  0  0  0
  -17.9710  -28.1440   22.9110 C   0  0  0  0  0  0  0  0  0  0  0  0
  -20.5410  -28.3450   23.1080 C   0  0  0  0  0  3  0  0  0  0  0  0
  -20.5950  -26.9250   22.4980 C   0  0  0  0  0  2  0  0  0  0  0  0
  -19.4570  -26.6470   21.5120 C   0  0  0  0  0  2  0  0  0  0  0  0
  -18.0990  -26.8060   22.2020 C   0  0  0  0  0  2  0  0  0  0  0  0
  -19.1180  -28.8740   23.3230 C   0  0  0  0  0  0  0  0  0  0  0  0
  -18.9420  -30.1270   23.9480 C   0  0  0  0  0  3  0  0  0  0  0  0
  -17.6540  -30.6510   24.1650 C   0  0  0  0  0  3  0  0  0  0  0  0
  -16.5220  -29.9160   23.7710 C   0  0  0  0  0  3  0  0  0  0  0  0
  -16.6810  -28.6650   23.1500 C   0  0  0  0  0  3  0  0  0  0  0  0
  -25.8020  -32.5230   23.7320 C   0  0  0  0  0  3  0  0  0  0  0  0
  -26.3470  -31.7360   24.9880 C   0  0  1  0  0  0  0  0  0  0  0  0
  -25.2700  -31.4590   26.0630 C   0  0  0  0  0  1  0  0  0  0  0  0
  -26.9500  -30.3780   24.5630 C   0  0  0  0  0  1  0  0  0  0  0  0
  -27.4910  -32.5380   25.6520 C   0  0  0  0  0  1  0  0  0  0  0  0
  -25.4690  -33.9070   24.0930 N   0  0  0  0  0  0  0  0  0  0  0  0
  -25.7940  -34.9840   23.3650 C   0  0  0  0  0  0  0  0  0  0  0  0
  -26.4780  -34.9160   22.3390 O   0  0  0  0  0  0  0  0  0  0  0  0
  -24.8670  -34.0340   24.8930 H   0  0  0  0  0  0  0  0  0  0  0  0
  -24.0640  -36.7750   23.0180 C   0  0  0  0  0  1  0  0  0  0  0  0
  -25.2830  -36.3530   23.8520 C   0  0  0  0  0  3  0  0  0  0  0  0
  -27.3860  -37.2240   24.7730 C   0  0  0  0  0  1  0  0  0  0  0  0
  -26.3100  -37.4160   23.8050 N   0  0  0  0  0  0  0  0  0  0  0  0
  -25.8920  -38.3280   23.9700 H   0  0  0  0  0  0  0  0  0  0  0  0
  1 51  1  0
  1  2  1  0
  2  4  1  0
  3  1  2  0
  5  8  1  0
  7  5  2  0
  7  9  1  0
  8  2  1  0
  8  6  2  0
  9 10  2  0
 10  6  1  0
 10 12  1  0
 11  7  1  0
 13 20  2  0
 14 19  1  0
 15 16  1  0
 15 14  1  0
 17 16  1  0
 17 26  1  0
 17 18  1  0
 19 13  1  0
 19 18  1  0
 21 22  1  0
 22  9  1  0
 22 13  1  0
 23 24  2  0
 24 25  1  0
 24 43  1  0
 25 28  1  0
 26 23  1  0
 26 27  1  0
 27 25  2  0
 28 29  1  0
 29 30  2  0
 31 34  1  0
 31 30  1  0
 32 31  2  0
 33 32  1  0
 33 28  2  0
 34 35  1  0
 35 36  1  0
 36 37  2  0
 38 37  1  0
 38 42  1  0
 39 38  2  0
 40 35  2  0
 40 39  1  0
 41 40  1  0
 43 44  1  0
 44 47  1  0
 44 46  1  0
 45 43  2  0
 48 49  1  0
 48 23  1  0
 50 48  1  0
 52 53  1  0
 52 51  2  0
 54 65  2  0
 55 53  1  0
 55 60  1  0
 56 64  1  0
 56 66  1  0
 57 63  1  0
 57 59  1  0
 58 64  1  0
 59 58  1  0
 60 59  2  0
 61 62  1  0
 61 55  2  0
 62 57  2  0
 63 56  1  0
 64 54  1  0
 66 68  2  0
 67 66  1  0
 69 67  1  0
 70 79  2  0
 70 75  1  0
 71 67  1  0
 71 75  1  0
 72 71  1  0
 73 74  1  0
 73 72  1  0
 74 70  1  0
 75 76  2  0
 76 77  1  0
 78 77  2  0
 79 78  1  0
 80 54  1  0
 80 85  1  0
 80 81  1  0
 81 84  1  1
 81 82  1  0
 83 81  1  0
 85 88  1  0
 86 90  1  0
 86 85  1  0
 87 86  2  0
 90 89  1  0
 92 90  1  0
 92 93  1  0
 92 91  1  0
M  ISO  4  13 100  22 100  52 101  53 101
M  END
>  <TORSDO>  (93) 
F 19

>  <SCORE>  (93) 
-14.233

>  <name>  (93) 
93

>  <ligand_id>  (93) 
93

>  <original_smiles>  (93) 
[H]c1c([H])c([H])c2c(c1[H])C([H])([H])C([H])([H])C([H])([H])C2([H])N([H])C(=O)C1([H])N(C(=O)C([H])(N([H])C(=O)C([H])(N([H])C([H])([H])[H])C([H])([H])[H])C(C([H])([H])[H])(C([H])([H])[H])C([H])([H])[H])C([H])([H])c2c([H])c(OC([H])([H])C([H])([H])C(=O)N([H])c3c([H])c(F)c(N(C(=O)N4C([H])([H])C([H])([H])C([H])([H])C([H])(n5nc(-c6c([H])c([H])c(Oc7c([H])c([H])c(F)c([H])c7F)c([H])c6[H])c(C(=O)N([H])[H])c5N([H])[H])C4([H])[H])C([H])([H])[H])c(C([H])([H])[H])c3[H])c([H])c([H])c2C1([H])[H]

>  <smiles>  (93) 
[H]c1c([H])c([H])c2c(c1[H])C([H])([H])C([H])([H])C([H])([H])C2([H])N([H])C(=O)C1([H])N(C(=O)C([H])(N([H])C(=O)C([H])(N([H])C([H])([H])[H])C([H])([H])[H])C(C([H])([H])[H])(C([H])([H])[H])C([H])([H])[H])C([H])([H])c2c([H])c(OC([H])([H])C([H])([H])C(=O)N([H])c3c([H])c(F)c(N(C(=O)N4C([H])([H])C([H])([H])C([H])([H])C([H])(n5nc(-c6c([H])c([H])c(Oc7c([H])c([H])c(F)c([H])c7F)c([H])c6[H])c(C(=O)N([H])[H])c5N([H])[H])C4([H])[H])C([H])([H])[H])c(C([H])([H])[H])c3[H])c([H])c([H])c2C1([H])[H]

$$$$
94:0:0
     RDKit          3D

 97105  0  0  1  0  0  0  0  0999 V2000
  -28.3300  -22.8180   22.2050 C   0  0  0  0  0  0  0  0  0  0  0  0
  -28.7730  -22.8340   23.4750 N   0  0  0  0  0  4  0  0  0  0  0  0
  -27.9680  -23.9390   21.5650 N   0  0  0  0  0  0  0  0  0  0  0  0
  -29.0310  -21.9710   23.9420 H   0  0  0  0  0  0  0  0  0  0  0  0
  -28.7980  -23.6700   24.0350 H   0  0  0  0  0  0  0  0  0  0  0  0
  -27.6050  -23.8330   20.6290 H   0  0  0  0  0  0  0  0  0  0  0  0
  -28.2700  -21.5300   21.4490 C   0  0  0  0  0  2  0  0  0  0  0  0
  -29.5550  -21.3500   20.6120 C   0  0  0  0  0  2  0  0  0  0  0  0
  -29.2310  -19.0490   19.5680 C   0  0  0  0  0  3  0  0  0  0  0  0
  -29.3820  -17.6440   19.6230 C   0  0  0  0  0  3  0  0  0  0  0  0
  -30.9670  -17.8850   21.4510 C   0  0  0  0  0  3  0  0  0  0  0  0
  -29.9060  -19.8740   20.4950 C   0  0  0  0  0  0  0  0  0  0  0  0
  -30.2400  -17.0470   20.5770 C   0  0  0  0  0  0  0  0  0  0  0  0
  -30.8110  -19.2880   21.4070 C   0  0  0  0  0  0  0  0  0  0  0  0
  -31.4920  -20.0660   22.2860 F   0  0  0  0  0  0  0  0  0  0  0  0
  -30.9500  -14.7000   20.0850 C   0  0  0  0  0  0  0  0  0  0  0  0
  -30.7310  -12.5200   18.9500 C   0  0  0  0  0  2  0  0  0  0  0  0
  -29.7200  -12.6660   17.7910 C   0  0  0  0  0  2  0  0  0  0  0  0
  -28.2640  -12.5170   18.2780 C   0  0  0  0  0  2  0  0  0  0  0  0
  -27.9630  -13.3560   19.5460 C   0  0  0  0  0  3  0  0  0  0  0  0
  -29.0530  -13.1110   20.6070 C   0  0  0  0  0  2  0  0  0  0  0  0
  -30.3520  -13.4770   20.0060 N   0  0  0  0  0  0  0  0  0  0  0  0
  -32.0160  -14.9680   19.5210 O   0  0  0  0  0  0  0  0  0  0  0  0
  -30.2380  -15.6300   20.7640 N   0  0  0  0  0  0  0  0  0  0  0  0
  -29.4330  -15.2620   21.2470 H   0  0  0  0  0  0  0  0  0  0  0  0
  -25.6030  -13.9670   20.3660 C   0  0  0  0  0  0  0  0  0  0  0  0
  -24.5470  -13.2000   20.7700 C   0  0  0  0  0  0  0  0  0  0  0  0
  -24.9900  -11.8410   20.6850 C   0  0  0  0  0  0  0  0  0  0  0  0
  -26.6290  -13.0810   20.0670 N   0  0  0  0  0  0  0  0  0  0  0  0
  -26.2620  -11.7960   20.3080 N   0  0  0  0  0  0  0  0  0  0  0  0
  -24.2590  -10.5860   20.8760 C   0  0  0  0  0  0  0  0  0  0  0  0
  -24.6580   -9.6370   21.8470 C   0  0  0  0  0  3  0  0  0  0  0  0
  -23.9240   -8.4440   22.0230 C   0  0  0  0  0  3  0  0  0  0  0  0
  -22.7820   -8.1890   21.2250 C   0  0  0  0  0  0  0  0  0  0  0  0
  -22.4040   -9.1270   20.2470 C   0  0  0  0  0  3  0  0  0  0  0  0
  -23.1370  -10.3100   20.0700 C   0  0  0  0  0  3  0  0  0  0  0  0
  -22.0300   -7.0410   21.3060 O   0  0  0  0  0  0  0  0  0  0  0  0
  -21.8420   -6.3850   22.4960 C   0  0  0  0  0  0  0  0  0  0  0  0
  -21.2400   -7.0170   23.6060 C   0  0  0  0  0  3  0  0  0  0  0  0
  -20.9950   -6.2860   24.7870 C   0  0  0  0  0  3  0  0  0  0  0  0
  -21.3460   -4.9250   24.8580 C   0  0  0  0  0  0  0  0  0  0  0  0
  -21.9410   -4.2910   23.7530 C   0  0  0  0  0  3  0  0  0  0  0  0
  -22.1830   -5.0190   22.5730 C   0  0  0  0  0  0  0  0  0  0  0  0
  -22.7350   -4.3980   21.5030 F   0  0  0  0  0  0  0  0  0  0  0  0
  -21.1080   -4.2210   25.9890 F   0  0  0  0  0  0  0  0  0  0  0  0
  -23.1750  -13.6890   21.1250 C   0  0  0  0  0  0  0  0  0  0  0  0
  -22.4770  -12.9840   22.0060 N   0  0  0  0  0  0  0  0  0  0  0  0
  -22.7260  -14.7360   20.6560 O   0  0  0  0  0  0  0  0  0  0  0  0
  -22.8540  -12.1390   22.4090 H   0  0  0  0  0  0  0  0  0  0  0  0
  -21.5590  -13.3000   22.2840 H   0  0  0  0  0  0  0  0  0  0  0  0
  -25.7760  -15.3430   20.2160 N   0  0  0  0  0  0  0  0  0  0  0  0
  -25.0300  -16.0040   20.3960 H   0  0  0  0  0  0  0  0  0  0  0  0
  -26.6010  -15.7760   19.8230 H   0  0  0  0  0  0  0  0  0  0  0  0
  -28.1180  -25.3290   21.9910 C   0  0  0  0  0  2  0  0  0  0  0  0
  -29.5190  -25.8390   21.5970 C   0  0  0  0  0  2  0  0  0  0  0  0
  -29.5160  -27.1010   20.7240 C   0  0  0  0  0  2  0  0  0  0  0  0
  -28.5970  -26.9600   19.6260 O   0  0  0  0  0  0  0  0  0  0  0  0
  -24.6610  -31.7550   23.0700 C   0  0  0  0  0  0  0  0  0  0  0  0
  -27.3980  -27.6370   19.7080 C   0  0  0  0  0  0  0  0  0  0  0  0
  -23.4400  -30.3760   21.4110 C   0  0  0  0  0  3  0  0  0  0  0  0
  -24.9020  -28.9600   19.8660 C   0  0  0  0  0  0  0  0  0  0  0  0
  -25.9250  -30.8710   21.1220 C   0  0  0  0  0  2  0  0  0  0  0  0
  -26.0450  -29.5360   20.4310 C   0  0  0  0  0  0  0  0  0  0  0  0
  -27.2840  -28.8910   20.3480 C   0  0  0  0  0  3  0  0  0  0  0  0
  -26.2420  -27.0650   19.1310 C   0  0  0  0  0  3  0  0  0  0  0  0
  -24.9920  -27.7170   19.2070 C   0  0  0  0  0  3  0  0  0  0  0  0
  -23.6210  -29.7560   19.9940 C   0  0  0  0  0  2  0  0  0  0  0  0
  -24.6960  -31.0100   21.9310 N   0  0  0  0  0  0  0  0  0  0  0  0
  -23.5940  -31.9590   23.6640 O   0  0  0  0  0  0  0  0  0  0  0  0
  -22.8720  -29.2900   22.3500 C   0  0  0  0  0  0  0  0  0  0  0  0
  -21.5520  -29.0630   22.2630 N   0  0  0  0  0  0  0  0  0  0  0  0
  -23.6130  -28.6540   23.1040 O   0  0  0  0  0  0  0  0  0  0  0  0
  -21.0160  -29.6260   21.6180 H   0  0  0  0  0  0  0  0  0  0  0  0
  -18.2470  -27.7000   22.8890 C   0  0  0  0  0  0  0  0  0  0  0  0
  -20.8010  -28.0610   23.0180 C   0  0  0  0  0  3  0  0  0  0  0  0
  -20.9390  -26.6670   22.3570 C   0  0  0  0  0  2  0  0  0  0  0  0
  -19.7640  -26.2950   21.4420 C   0  0  0  0  0  2  0  0  0  0  0  0
  -18.4550  -26.3520   22.2300 C   0  0  0  0  0  2  0  0  0  0  0  0
  -19.3540  -28.5030   23.2650 C   0  0  0  0  0  0  0  0  0  0  0  0
  -19.1160  -29.7480   23.8910 C   0  0  0  0  0  3  0  0  0  0  0  0
  -17.7990  -30.1860   24.1380 C   0  0  0  0  0  3  0  0  0  0  0  0
  -16.7070  -29.3830   23.7630 C   0  0  0  0  0  3  0  0  0  0  0  0
  -16.9330  -28.1410   23.1470 C   0  0  0  0  0  3  0  0  0  0  0  0
  -25.9480  -32.4040   23.6670 C   0  0  0  0  0  3  0  0  0  0  0  0
  -25.6090  -33.7780   24.0630 N   0  0  0  0  0  0  0  0  0  0  0  0
  -25.8900  -34.8670   23.3360 C   0  0  0  0  0  0  0  0  0  0  0  0
  -26.5400  -34.8240   22.2890 O   0  0  0  0  0  0  0  0  0  0  0  0
  -25.0290  -33.8850   24.8830 H   0  0  0  0  0  0  0  0  0  0  0  0
  -24.1090  -36.6190   23.0700 C   0  0  0  0  0  1  0  0  0  0  0  0
  -25.3710  -36.2220   23.8510 C   0  0  0  0  0  3  0  0  0  0  0  0
  -27.4900  -37.1360   24.6880 C   0  0  0  0  0  1  0  0  0  0  0  0
  -26.3720  -37.3060   23.7630 N   0  0  0  0  0  0  0  0  0  0  0  0
  -25.9440  -38.2080   23.9470 H   0  0  0  0  0  0  0  0  0  0  0  0
  -26.5420  -31.6020   24.8880 C   0  0  1  0  0  0  0  0  0  0  0  0
  -25.4930  -31.2590   25.9730 C   0  0  0  0  0  1  0  0  0  0  0  0
  -27.1850  -30.2800   24.4090 C   0  0  0  0  0  1  0  0  0  0  0  0
  -27.6800  -32.4150   25.5480 C   0  0  0  0  0  1  0  0  0  0  0  0
  1  2  2  0
  2  4  1  0
  2  5  1  0
  3 54  1  0
  3  1  1  0
  6  3  1  0
  7  1  1  0
  8  7  1  0
  9 10  2  0
  9 12  1  0
 10 13  1  0
 12  8  1  0
 12 14  2  0
 13 24  1  0
 13 11  2  0
 14 11  1  0
 14 15  1  0
 16 24  1  0
 17 22  1  0
 18 19  1  0
 18 17  1  0
 20 19  1  0
 20 29  1  0
 20 21  1  0
 22 16  1  0
 22 21  1  0
 23 16  2  0
 24 25  1  0
 26 27  2  0
 27 46  1  0
 28 27  1  0
 28 31  1  0
 29 30  1  0
 29 26  1  0
 30 28  2  0
 31 32  1  0
 32 33  2  0
 34 37  1  0
 34 33  1  0
 35 34  2  0
 36 35  1  0
 36 31  2  0
 37 38  1  0
 38 43  2  0
 38 39  1  0
 39 40  2  0
 40 41  1  0
 41 45  1  0
 42 41  2  0
 43 42  1  0
 44 43  1  0
 46 47  1  0
 47 50  1  0
 47 49  1  0
 48 46  2  0
 51 26  1  0
 51 52  1  0
 53 51  1  0
 55 54  1  0
 56 55  1  0
 57 59  1  0
 57 56  1  0
 58 69  2  0
 59 64  1  0
 60 68  1  0
 60 70  1  0
 61 67  1  0
 61 63  1  0
 62 68  1  0
 63 62  1  0
 64 63  2  0
 65 66  1  0
 65 59  2  0
 66 61  2  0
 67 60  1  0
 68 58  1  0
 70 72  2  0
 71 70  1  0
 73 71  1  0
 74 83  2  0
 74 79  1  0
 75 71  1  0
 75 79  1  0
 76 75  1  0
 77 78  1  0
 77 76  1  0
 78 74  1  0
 79 80  2  0
 80 81  1  0
 82 81  2  0
 83 82  1  0
 84 58  1  0
 84 85  1  0
 84 94  1  0
 85 88  1  0
 86 90  1  0
 86 85  1  0
 87 86  2  0
 90 89  1  0
 92 90  1  0
 92 93  1  0
 92 91  1  0
 94 97  1  1
 94 95  1  0
 96 94  1  0
M  ISO  4  16 100  24 100  56 101  57 101
M  END
>  <TORSDO>  (94) 
F 22

>  <SCORE>  (94) 
-12.194

>  <name>  (94) 
94

>  <ligand_id>  (94) 
94

>  <original_smiles>  (94) 
[H]c1c([H])c([H])c2c(c1[H])C([H])([H])C([H])([H])C([H])([H])C2([H])N([H])C(=O)C1([H])N(C(=O)C([H])(N([H])C(=O)C([H])(N([H])C([H])([H])[H])C([H])([H])[H])C(C([H])([H])[H])(C([H])([H])[H])C([H])([H])[H])C([H])([H])c2c([H])c(OC([H])([H])C([H])([H])C([H])([H])[N+]([H])=C(N([H])[H])C([H])([H])C([H])([H])c3c([H])c([H])c(N([H])C(=O)N4C([H])([H])C([H])([H])C([H])([H])C([H])(n5nc(-c6c([H])c([H])c(Oc7c([H])c([H])c(F)c([H])c7F)c([H])c6[H])c(C(=O)N([H])[H])c5N([H])[H])C4([H])[H])c([H])c3F)c([H])c([H])c2C1([H])[H]

>  <smiles>  (94) 
[H]c1c([H])c([H])c2c(c1[H])C([H])([H])C([H])([H])C([H])([H])C2([H])N([H])C(=O)C1([H])N(C(=O)C([H])(N([H])C(=O)C([H])(N([H])C([H])([H])[H])C([H])([H])[H])C(C([H])([H])[H])(C([H])([H])[H])C([H])([H])[H])C([H])([H])c2c([H])c(OC([H])([H])C([H])([H])C([H])([H])[N+]([H])=C(N([H])[H])C([H])([H])C([H])([H])c3c([H])c([H])c(N([H])C(=O)N4C([H])([H])C([H])([H])C([H])([H])C([H])(n5nc(-c6c([H])c([H])c(Oc7c([H])c([H])c(F)c([H])c7F)c([H])c6[H])c(C(=O)N([H])[H])c5N([H])[H])C4([H])[H])c([H])c3F)c([H])c([H])c2C1([H])[H]

$$$$
95:0:0
     RDKit          3D

 94102  0  0  1  0  0  0  0  0999 V2000
  -28.5340  -17.5720   19.8770 C   0  0  0  0  0  3  0  0  0  0  0  0
  -27.6430  -18.6230   19.5850 C   0  0  0  0  0  3  0  0  0  0  0  0
  -29.1530  -20.1820   20.6770 C   0  0  0  0  0  3  0  0  0  0  0  0
  -29.7400  -17.8140   20.5800 C   0  0  0  0  0  0  0  0  0  0  0  0
  -27.9620  -19.9460   19.9540 C   0  0  0  0  0  0  0  0  0  0  0  0
  -30.0270  -19.1320   21.0050 C   0  0  0  0  0  0  0  0  0  0  0  0
  -31.1500  -19.4220   21.7050 F   0  0  0  0  0  0  0  0  0  0  0  0
  -30.9420  -14.4310   20.0920 C   0  0  0  0  0  0  0  0  0  0  0  0
  -30.4830  -12.3160   18.9290 C   0  0  0  0  0  2  0  0  0  0  0  0
  -29.4960  -12.5740   17.7730 C   0  0  0  0  0  2  0  0  0  0  0  0
  -28.0400  -12.4770   18.2700 C   0  0  0  0  0  2  0  0  0  0  0  0
  -27.7900  -13.3110   19.5560 C   0  0  0  0  0  3  0  0  0  0  0  0
  -28.8910  -13.0510   20.6100 C   0  0  0  0  0  2  0  0  0  0  0  0
  -30.1970  -13.3020   19.9790 N   0  0  0  0  0  0  0  0  0  0  0  0
  -32.0530  -14.5380   19.5640 O   0  0  0  0  0  0  0  0  0  0  0  0
  -30.7670  -16.7260   20.7270 C   0  0  0  0  0  0  0  0  0  0  0  0
  -30.2940  -15.4710   20.6380 N   0  0  0  0  0  0  0  0  0  0  0  0
  -31.9590  -17.0130   20.8830 O   0  0  0  0  0  0  0  0  0  0  0  0
  -29.3170  -15.3350   20.8240 H   0  0  0  0  0  0  0  0  0  0  0  0
  -25.4470  -13.9780   20.3860 C   0  0  0  0  0  0  0  0  0  0  0  0
  -24.3770  -13.2300   20.7990 C   0  0  0  0  0  0  0  0  0  0  0  0
  -24.7990  -11.8670   20.7340 C   0  0  0  0  0  0  0  0  0  0  0  0
  -26.4550  -13.0710   20.0970 N   0  0  0  0  0  0  0  0  0  0  0  0
  -26.0710  -11.7960   20.3610 N   0  0  0  0  0  0  0  0  0  0  0  0
  -24.0490  -10.6210   20.9450 C   0  0  0  0  0  0  0  0  0  0  0  0
  -24.4880   -9.6430   21.8650 C   0  0  0  0  0  3  0  0  0  0  0  0
  -23.7400   -8.4630   22.0640 C   0  0  0  0  0  3  0  0  0  0  0  0
  -22.5400   -8.2520   21.3450 C   0  0  0  0  0  0  0  0  0  0  0  0
  -22.1200   -9.2190   20.4150 C   0  0  0  0  0  3  0  0  0  0  0  0
  -22.8670  -10.3910   20.2130 C   0  0  0  0  0  3  0  0  0  0  0  0
  -21.7650   -7.1230   21.4540 O   0  0  0  0  0  0  0  0  0  0  0  0
  -21.7200   -6.3910   22.6130 C   0  0  0  0  0  0  0  0  0  0  0  0
  -21.3070   -6.9590   23.8380 C   0  0  0  0  0  3  0  0  0  0  0  0
  -21.2090   -6.1530   24.9900 C   0  0  0  0  0  3  0  0  0  0  0  0
  -21.5140   -4.7800   24.9170 C   0  0  0  0  0  0  0  0  0  0  0  0
  -21.9180   -4.2120   23.6970 C   0  0  0  0  0  3  0  0  0  0  0  0
  -22.0180   -5.0150   22.5470 C   0  0  0  0  0  0  0  0  0  0  0  0
  -22.3890   -4.4580   21.3690 F   0  0  0  0  0  0  0  0  0  0  0  0
  -21.4120   -4.0030   26.0220 F   0  0  0  0  0  0  0  0  0  0  0  0
  -23.0080  -13.7420   21.1440 C   0  0  0  0  0  0  0  0  0  0  0  0
  -22.3050  -13.0570   22.0380 N   0  0  0  0  0  0  0  0  0  0  0  0
  -22.5730  -14.7830   20.6550 O   0  0  0  0  0  0  0  0  0  0  0  0
  -22.6680  -12.2120   22.4540 H   0  0  0  0  0  0  0  0  0  0  0  0
  -21.3900  -13.3870   22.3130 H   0  0  0  0  0  0  0  0  0  0  0  0
  -25.6390  -15.3450   20.2100 N   0  0  0  0  0  0  0  0  0  0  0  0
  -24.8970  -16.0180   20.3620 H   0  0  0  0  0  0  0  0  0  0  0  0
  -26.4730  -15.7610   19.8200 H   0  0  0  0  0  0  0  0  0  0  0  0
  -27.1120  -20.9930   19.5630 N   0  0  0  0  0  0  0  0  0  0  0  0
  -26.3890  -20.7440   18.8900 H   0  0  0  0  0  0  0  0  0  0  0  0
  -27.7510  -22.2830   19.3210 C   0  0  0  0  0  2  0  0  0  0  0  0
  -27.6180  -23.2500   20.5140 C   0  0  0  0  0  2  0  0  0  0  0  0
  -28.6770  -24.3950   20.4120 C   0  0  0  0  0  2  0  0  0  0  0  0
  -28.5480  -25.8340   20.9860 C   0  0  0  0  0  2  0  0  0  0  0  0
  -28.5210  -26.8440   19.9710 O   0  0  0  0  0  0  0  0  0  0  0  0
  -24.5360  -31.7730   23.1560 C   0  0  0  0  0  0  0  0  0  0  0  0
  -27.3460  -27.5450   19.9630 C   0  0  0  0  0  0  0  0  0  0  0  0
  -23.3900  -30.3910   21.4550 C   0  0  0  0  0  3  0  0  0  0  0  0
  -24.9040  -28.9440   20.0000 C   0  0  0  0  0  0  0  0  0  0  0  0
  -25.9020  -30.8390   21.2940 C   0  0  0  0  0  2  0  0  0  0  0  0
  -26.0370  -29.4940   20.6160 C   0  0  0  0  0  0  0  0  0  0  0  0
  -27.2620  -28.7990   20.6000 C   0  0  0  0  0  3  0  0  0  0  0  0
  -26.2050  -26.9970   19.3430 C   0  0  0  0  0  3  0  0  0  0  0  0
  -24.9800  -27.6900   19.3670 C   0  0  0  0  0  3  0  0  0  0  0  0
  -23.6320  -29.7580   20.0590 C   0  0  0  0  0  2  0  0  0  0  0  0
  -24.6270  -31.0130   22.0280 N   0  0  0  0  0  0  0  0  0  0  0  0
  -23.4410  -31.9980   23.6900 O   0  0  0  0  0  0  0  0  0  0  0  0
  -22.7590  -29.3210   22.3740 C   0  0  0  0  0  0  0  0  0  0  0  0
  -21.4390  -29.1150   22.2320 N   0  0  0  0  0  0  0  0  0  0  0  0
  -23.4520  -28.6790   23.1660 O   0  0  0  0  0  0  0  0  0  0  0  0
  -20.9400  -29.6890   21.5670 H   0  0  0  0  0  0  0  0  0  0  0  0
  -18.0860  -27.8520   22.6770 C   0  0  0  0  0  0  0  0  0  0  0  0
  -20.6390  -28.1340   22.9630 C   0  0  0  0  0  3  0  0  0  0  0  0
  -20.7630  -26.7290   22.3290 C   0  0  0  0  0  2  0  0  0  0  0  0
  -19.6660  -26.4320   21.3010 C   0  0  0  0  0  2  0  0  0  0  0  0
  -18.2820  -26.5320   21.9480 C   0  0  0  0  0  2  0  0  0  0  0  0
  -19.1930  -28.6120   23.1400 C   0  0  0  0  0  0  0  0  0  0  0  0
  -18.9550  -29.8480   23.7790 C   0  0  0  0  0  3  0  0  0  0  0  0
  -17.6410  -30.3220   23.9620 C   0  0  0  0  0  3  0  0  0  0  0  0
  -16.5500  -29.5590   23.5150 C   0  0  0  0  0  3  0  0  0  0  0  0
  -16.7730  -28.3250   22.8780 C   0  0  0  0  0  3  0  0  0  0  0  0
  -25.7980  -32.4170   23.8140 C   0  0  0  0  0  3  0  0  0  0  0  0
  -25.4640  -33.8070   24.1450 N   0  0  0  0  0  0  0  0  0  0  0  0
  -25.8000  -34.8670   23.3980 C   0  0  0  0  0  0  0  0  0  0  0  0
  -26.4970  -34.7780   22.3830 O   0  0  0  0  0  0  0  0  0  0  0  0
  -24.8510  -33.9510   24.9340 H   0  0  0  0  0  0  0  0  0  0  0  0
  -24.0530  -36.6350   23.0070 C   0  0  0  0  0  1  0  0  0  0  0  0
  -25.2790  -36.2460   23.8490 C   0  0  0  0  0  3  0  0  0  0  0  0
  -27.3740  -37.1600   24.7420 C   0  0  0  0  0  1  0  0  0  0  0  0
  -26.2980  -37.3150   23.7680 N   0  0  0  0  0  0  0  0  0  0  0  0
  -25.8720  -38.2260   23.9090 H   0  0  0  0  0  0  0  0  0  0  0  0
  -26.2990  -31.6410   25.0940 C   0  0  1  0  0  0  0  0  0  0  0  0
  -25.1880  -31.3790   26.1370 C   0  0  0  0  0  1  0  0  0  0  0  0
  -26.9110  -30.2770   24.6990 C   0  0  0  0  0  1  0  0  0  0  0  0
  -27.4240  -32.4460   25.7880 C   0  0  0  0  0  1  0  0  0  0  0  0
  1  4  1  0
  2  1  2  0
  2  5  1  0
  3  6  1  0
  4 16  1  0
  4  6  2  0
  5  3  2  0
  6  7  1  0
  8 17  1  0
  9 14  1  0
 10 11  1  0
 10  9  1  0
 12 11  1  0
 12 23  1  0
 12 13  1  0
 14  8  1  0
 14 13  1  0
 15  8  2  0
 16 18  2  0
 17 16  1  0
 17 19  1  0
 20 21  2  0
 21 40  1  0
 22 21  1  0
 22 25  1  0
 23 24  1  0
 23 20  1  0
 24 22  2  0
 25 26  1  0
 26 27  2  0
 28 31  1  0
 28 27  1  0
 29 28  2  0
 30 29  1  0
 30 25  2  0
 31 32  1  0
 32 33  1  0
 33 34  2  0
 35 34  1  0
 35 39  1  0
 36 35  2  0
 37 32  2  0
 37 36  1  0
 38 37  1  0
 40 41  1  0
 41 44  1  0
 41 43  1  0
 42 40  2  0
 45 46  1  0
 45 20  1  0
 47 45  1  0
 48  5  1  0
 49 48  1  0
 50 48  1  0
 50 51  1  0
 52 51  1  0
 52 53  1  0
 54 53  1  0
 55 66  2  0
 56 54  1  0
 56 61  1  0
 57 65  1  0
 57 67  1  0
 58 64  1  0
 58 60  1  0
 59 65  1  0
 60 59  1  0
 61 60  2  0
 62 63  1  0
 62 56  2  0
 63 58  2  0
 64 57  1  0
 65 55  1  0
 67 69  2  0
 68 67  1  0
 70 68  1  0
 71 80  2  0
 71 76  1  0
 72 68  1  0
 72 76  1  0
 73 72  1  0
 74 75  1  0
 74 73  1  0
 75 71  1  0
 76 77  2  0
 77 78  1  0
 79 78  2  0
 80 79  1  0
 81 55  1  0
 81 82  1  0
 81 91  1  0
 82 85  1  0
 83 87  1  0
 83 82  1  0
 84 83  2  0
 87 86  1  0
 89 87  1  0
 89 90  1  0
 89 88  1  0
 91 94  1  1
 91 92  1  0
 93 91  1  0
M  ISO  4   8 100  17 100  53 101  54 101
M  END
>  <TORSDO>  (95) 
F 21

>  <SCORE>  (95) 
-13.798

>  <name>  (95) 
95

>  <ligand_id>  (95) 
95

>  <original_smiles>  (95) 
[H]c1c([H])c([H])c2c(c1[H])C([H])([H])C([H])([H])C([H])([H])C2([H])N([H])C(=O)C1([H])N(C(=O)C([H])(N([H])C(=O)C([H])(N([H])C([H])([H])[H])C([H])([H])[H])C(C([H])([H])[H])(C([H])([H])[H])C([H])([H])[H])C([H])([H])c2c([H])c(OC([H])([H])C([H])([H])C([H])([H])C([H])([H])N([H])c3c([H])c([H])c(C(=O)N([H])C(=O)N4C([H])([H])C([H])([H])C([H])([H])C([H])(n5nc(-c6c([H])c([H])c(Oc7c([H])c([H])c(F)c([H])c7F)c([H])c6[H])c(C(=O)N([H])[H])c5N([H])[H])C4([H])[H])c(F)c3[H])c([H])c([H])c2C1([H])[H]

>  <smiles>  (95) 
[H]c1c([H])c([H])c2c(c1[H])C([H])([H])C([H])([H])C([H])([H])C2([H])N([H])C(=O)C1([H])N(C(=O)C([H])(N([H])C(=O)C([H])(N([H])C([H])([H])[H])C([H])([H])[H])C(C([H])([H])[H])(C([H])([H])[H])C([H])([H])[H])C([H])([H])c2c([H])c(OC([H])([H])C([H])([H])C([H])([H])C([H])([H])N([H])c3c([H])c([H])c(C(=O)N([H])C(=O)N4C([H])([H])C([H])([H])C([H])([H])C([H])(n5nc(-c6c([H])c([H])c(Oc7c([H])c([H])c(F)c([H])c7F)c([H])c6[H])c(C(=O)N([H])[H])c5N([H])[H])C4([H])[H])c(F)c3[H])c([H])c([H])c2C1([H])[H]

$$$$
96:0:0
     RDKit          3D

 96104  0  0  1  0  0  0  0  0999 V2000
  -30.5630  -21.8720   22.7530 C   0  0  0  0  0  2  0  0  0  0  0  0
  -29.6210  -24.0990   22.0950 C   0  0  0  0  0  0  0  0  0  0  0  0
  -29.5000  -22.7820   22.3190 N   0  0  0  0  0  0  0  0  0  0  0  0
  -30.6660  -24.7120   22.3180 O   0  0  0  0  0  0  0  0  0  0  0  0
  -28.6220  -22.3390   22.0760 H   0  0  0  0  0  0  0  0  0  0  0  0
  -28.0720  -26.0470   22.4970 C   0  0  0  0  0  1  0  0  0  0  0  0
  -28.3670  -24.8430   21.5780 C   0  0  0  0  0  3  0  0  0  0  0  0
  -28.4800  -25.2070   20.0580 C   0  0  0  0  0  2  0  0  0  0  0  0
  -28.3980  -26.6010   19.7380 O   0  0  0  0  0  0  0  0  0  0  0  0
  -24.5160  -31.5330   23.0060 C   0  0  0  0  0  0  0  0  0  0  0  0
  -27.1740  -27.2360   19.7820 C   0  0  0  0  0  0  0  0  0  0  0  0
  -23.2960  -30.1640   21.3420 C   0  0  0  0  0  3  0  0  0  0  0  0
  -24.7410  -28.6700   19.8710 C   0  0  0  0  0  0  0  0  0  0  0  0
  -25.8040  -30.5760   21.1000 C   0  0  0  0  0  2  0  0  0  0  0  0
  -25.8980  -29.2180   20.4370 C   0  0  0  0  0  0  0  0  0  0  0  0
  -27.1160  -28.5130   20.3790 C   0  0  0  0  0  3  0  0  0  0  0  0
  -25.9980  -26.6860   19.2220 C   0  0  0  0  0  3  0  0  0  0  0  0
  -24.7820  -27.4000   19.2670 C   0  0  0  0  0  3  0  0  0  0  0  0
  -23.4880  -29.5070   19.9480 C   0  0  0  0  0  2  0  0  0  0  0  0
  -24.5570  -30.7740   21.8740 N   0  0  0  0  0  0  0  0  0  0  0  0
  -23.4420  -31.7740   23.5740 O   0  0  0  0  0  0  0  0  0  0  0  0
  -22.6730  -29.1160   22.2950 C   0  0  0  0  0  0  0  0  0  0  0  0
  -21.3500  -28.9220   22.1810 N   0  0  0  0  0  0  0  0  0  0  0  0
  -23.3770  -28.4770   23.0830 O   0  0  0  0  0  0  0  0  0  0  0  0
  -20.8500  -29.4910   21.5110 H   0  0  0  0  0  0  0  0  0  0  0  0
  -17.9950  -27.6860   22.6990 C   0  0  0  0  0  0  0  0  0  0  0  0
  -20.5540  -27.9580   22.9400 C   0  0  0  0  0  3  0  0  0  0  0  0
  -20.6600  -26.5450   22.3210 C   0  0  0  0  0  2  0  0  0  0  0  0
  -19.5440  -26.2430   21.3170 C   0  0  0  0  0  2  0  0  0  0  0  0
  -18.1720  -26.3570   21.9870 C   0  0  0  0  0  2  0  0  0  0  0  0
  -19.1140  -28.4450   23.1340 C   0  0  0  0  0  0  0  0  0  0  0  0
  -18.8940  -29.6900   23.7620 C   0  0  0  0  0  3  0  0  0  0  0  0
  -17.5870  -30.1720   23.9670 C   0  0  0  0  0  3  0  0  0  0  0  0
  -16.4840  -29.4100   23.5480 C   0  0  0  0  0  3  0  0  0  0  0  0
  -16.6890  -28.1700   22.9180 C   0  0  0  0  0  3  0  0  0  0  0  0
  -25.8080  -32.1560   23.6250 C   0  0  0  0  0  3  0  0  0  0  0  0
  -25.4870  -33.5330   24.0230 N   0  0  0  0  0  0  0  0  0  0  0  0
  -25.8170  -34.6240   23.3170 C   0  0  0  0  0  0  0  0  0  0  0  0
  -26.4940  -34.5740   22.2850 O   0  0  0  0  0  0  0  0  0  0  0  0
  -24.8840  -33.6420   24.8250 H   0  0  0  0  0  0  0  0  0  0  0  0
  -24.0980  -36.4360   23.0160 C   0  0  0  0  0  1  0  0  0  0  0  0
  -25.3150  -35.9850   23.8390 C   0  0  0  0  0  3  0  0  0  0  0  0
  -27.4250  -36.8220   24.7760 C   0  0  0  0  0  1  0  0  0  0  0  0
  -26.3510  -37.0420   23.8120 N   0  0  0  0  0  0  0  0  0  0  0  0
  -25.9400  -37.9530   23.9960 H   0  0  0  0  0  0  0  0  0  0  0  0
  -26.3680  -31.3380   24.8530 C   0  0  1  0  0  0  0  0  0  0  0  0
  -25.3080  -31.0370   25.9390 C   0  0  0  0  0  1  0  0  0  0  0  0
  -26.9660  -29.9910   24.3820 C   0  0  0  0  0  1  0  0  0  0  0  0
  -27.5240  -32.1230   25.5210 C   0  0  0  0  0  1  0  0  0  0  0  0
  -31.1610  -21.1400   21.5370 C   0  0  0  0  0  0  0  0  0  0  0  0
  -31.7560  -21.8090   20.6840 O   0  0  0  0  0  0  0  0  0  0  0  0
  -31.8850  -18.9620   20.5450 C   0  0  0  0  0  3  0  0  0  0  0  0
  -31.7740  -17.5680   20.3650 C   0  0  0  0  0  3  0  0  0  0  0  0
  -30.0470  -18.9130   22.1290 C   0  0  0  0  0  3  0  0  0  0  0  0
  -31.0330  -19.6540   21.4340 C   0  0  0  0  0  0  0  0  0  0  0  0
  -30.7880  -16.8300   21.0630 C   0  0  0  0  0  0  0  0  0  0  0  0
  -29.9320  -17.5190   21.9480 C   0  0  0  0  0  0  0  0  0  0  0  0
  -28.9730  -16.8330   22.6140 F   0  0  0  0  0  0  0  0  0  0  0  0
  -31.0310  -14.5830   19.9880 C   0  0  0  0  0  0  0  0  0  0  0  0
  -30.5700  -12.5460   18.6840 C   0  0  0  0  0  2  0  0  0  0  0  0
  -29.5220  -12.8500   17.5950 C   0  0  0  0  0  2  0  0  0  0  0  0
  -28.0950  -12.6730   18.1490 C   0  0  0  0  0  2  0  0  0  0  0  0
  -27.8830  -13.4120   19.4970 C   0  0  0  0  0  3  0  0  0  0  0  0
  -29.0350  -13.1080   20.4820 C   0  0  0  0  0  2  0  0  0  0  0  0
  -30.3130  -13.4380   19.8250 N   0  0  0  0  0  0  0  0  0  0  0  0
  -32.0340  -14.8280   19.3180 O   0  0  0  0  0  0  0  0  0  0  0  0
  -30.5630  -15.4290   20.9210 N   0  0  0  0  0  0  0  0  0  0  0  0
  -29.8140  -15.0710   21.4940 H   0  0  0  0  0  0  0  0  0  0  0  0
  -25.5450  -13.9530   20.4290 C   0  0  0  0  0  0  0  0  0  0  0  0
  -24.5220  -13.1490   20.8610 C   0  0  0  0  0  0  0  0  0  0  0  0
  -24.9970  -11.8070   20.7350 C   0  0  0  0  0  0  0  0  0  0  0  0
  -26.5780  -13.0990   20.0770 N   0  0  0  0  0  0  0  0  0  0  0  0
  -26.2550  -11.8010   20.3140 N   0  0  0  0  0  0  0  0  0  0  0  0
  -24.3080  -10.5260   20.9400 C   0  0  0  0  0  0  0  0  0  0  0  0
  -24.7560   -9.5910   21.8990 C   0  0  0  0  0  3  0  0  0  0  0  0
  -24.0660   -8.3750   22.0890 C   0  0  0  0  0  3  0  0  0  0  0  0
  -22.9140   -8.0830   21.3190 C   0  0  0  0  0  0  0  0  0  0  0  0
  -22.4860   -9.0080   20.3490 C   0  0  0  0  0  3  0  0  0  0  0  0
  -23.1780  -10.2160   20.1580 C   0  0  0  0  0  3  0  0  0  0  0  0
  -22.1950   -6.9180   21.4180 O   0  0  0  0  0  0  0  0  0  0  0  0
  -22.0250   -6.2750   22.6180 C   0  0  0  0  0  0  0  0  0  0  0  0
  -21.4380   -6.9170   23.7310 C   0  0  0  0  0  3  0  0  0  0  0  0
  -21.2200   -6.1980   24.9240 C   0  0  0  0  0  3  0  0  0  0  0  0
  -21.5770   -4.8400   25.0020 C   0  0  0  0  0  0  0  0  0  0  0  0
  -22.1560   -4.1970   23.8940 C   0  0  0  0  0  3  0  0  0  0  0  0
  -22.3770   -4.9130   22.7050 C   0  0  0  0  0  0  0  0  0  0  0  0
  -22.9160   -4.2840   21.6330 F   0  0  0  0  0  0  0  0  0  0  0  0
  -21.3600   -4.1470   26.1460 F   0  0  0  0  0  0  0  0  0  0  0  0
  -23.1490  -13.5910   21.2760 C   0  0  0  0  0  0  0  0  0  0  0  0
  -22.5270  -12.8730   22.2050 N   0  0  0  0  0  0  0  0  0  0  0  0
  -22.6370  -14.6090   20.8100 O   0  0  0  0  0  0  0  0  0  0  0  0
  -22.9560  -12.0510   22.6030 H   0  0  0  0  0  0  0  0  0  0  0  0
  -21.6090  -13.1490   22.5230 H   0  0  0  0  0  0  0  0  0  0  0  0
  -25.6740  -15.3310   20.2910 N   0  0  0  0  0  0  0  0  0  0  0  0
  -24.9150  -15.9730   20.4950 H   0  0  0  0  0  0  0  0  0  0  0  0
  -26.4990  -15.7950   19.9320 H   0  0  0  0  0  0  0  0  0  0  0  0
  2  4  2  0
  2  3  1  0
  3  1  1  0
  5  3  1  0
  7  2  1  0
  7  6  1  0
  8  7  1  0
  9 11  1  0
  9  8  1  0
 10 21  2  0
 11 16  1  0
 12 20  1  0
 12 22  1  0
 13 19  1  0
 13 15  1  0
 14 20  1  0
 15 14  1  0
 16 15  2  0
 17 18  1  0
 17 11  2  0
 18 13  2  0
 19 12  1  0
 20 10  1  0
 22 24  2  0
 23 22  1  0
 25 23  1  0
 26 35  2  0
 26 31  1  0
 27 23  1  0
 27 31  1  0
 28 27  1  0
 29 30  1  0
 29 28  1  0
 30 26  1  0
 31 32  2  0
 32 33  1  0
 34 33  2  0
 35 34  1  0
 36 10  1  0
 36 37  1  0
 36 46  1  0
 37 40  1  0
 38 42  1  0
 38 37  1  0
 39 38  2  0
 42 41  1  0
 44 42  1  0
 44 45  1  0
 44 43  1  0
 46 49  1  1
 46 47  1  0
 48 46  1  0
 50  1  1  0
 51 50  2  0
 52 55  1  0
 53 52  2  0
 53 56  1  0
 55 50  1  0
 55 54  2  0
 56 57  2  0
 57 54  1  0
 57 58  1  0
 59 67  1  0
 60 65  1  0
 61 62  1  0
 61 60  1  0
 63 62  1  0
 63 72  1  0
 63 64  1  0
 65 59  1  0
 65 64  1  0
 66 59  2  0
 67 56  1  0
 67 68  1  0
 69 70  2  0
 70 89  1  0
 71 70  1  0
 71 74  1  0
 72 73  1  0
 72 69  1  0
 73 71  2  0
 74 75  1  0
 75 76  2  0
 77 80  1  0
 77 76  1  0
 78 77  2  0
 79 78  1  0
 79 74  2  0
 80 81  1  0
 81 86  2  0
 81 82  1  0
 82 83  2  0
 83 84  1  0
 84 88  1  0
 85 84  2  0
 86 85  1  0
 87 86  1  0
 89 90  1  0
 90 93  1  0
 90 92  1  0
 91 89  2  0
 94 69  1  0
 94 95  1  0
 96 94  1  0
M  ISO  4   8 101   9 101  59 100  67 100
M  END
>  <TORSDO>  (96) 
F 21

>  <SCORE>  (96) 
-10.718

>  <name>  (96) 
96

>  <ligand_id>  (96) 
96

>  <original_smiles>  (96) 
[H]c1c([H])c([H])c2c(c1[H])C([H])([H])C([H])([H])C([H])([H])C2([H])N([H])C(=O)C1([H])N(C(=O)C([H])(N([H])C(=O)C([H])(N([H])C([H])([H])[H])C([H])([H])[H])C(C([H])([H])[H])(C([H])([H])[H])C([H])([H])[H])C([H])([H])c2c([H])c(OC([H])([H])C([H])(C(=O)N([H])C([H])([H])C(=O)c3c([H])c([H])c(N([H])C(=O)N4C([H])([H])C([H])([H])C([H])([H])C([H])(n5nc(-c6c([H])c([H])c(Oc7c([H])c([H])c(F)c([H])c7F)c([H])c6[H])c(C(=O)N([H])[H])c5N([H])[H])C4([H])[H])c(F)c3[H])C([H])([H])[H])c([H])c([H])c2C1([H])[H]

>  <smiles>  (96) 
[H]c1c([H])c([H])c2c(c1[H])C([H])([H])C([H])([H])C([H])([H])C2([H])N([H])C(=O)C1([H])N(C(=O)C([H])(N([H])C(=O)C([H])(N([H])C([H])([H])[H])C([H])([H])[H])C(C([H])([H])[H])(C([H])([H])[H])C([H])([H])[H])C([H])([H])c2c([H])c(OC([H])([H])C([H])(C(=O)N([H])C([H])([H])C(=O)c3c([H])c([H])c(N([H])C(=O)N4C([H])([H])C([H])([H])C([H])([H])C([H])(n5nc(-c6c([H])c([H])c(Oc7c([H])c([H])c(F)c([H])c7F)c([H])c6[H])c(C(=O)N([H])[H])c5N([H])[H])C4([H])[H])c(F)c3[H])C([H])([H])[H])c([H])c([H])c2C1([H])[H]

$$$$
97:0:0
     RDKit          3D

 94103  0  0  1  0  0  0  0  0999 V2000
  -29.4320  -22.9110   23.3560 C   0  0  0  0  0  0  0  0  0  0  0  0
  -29.1910  -24.4130   23.5810 C   0  0  0  0  0  2  0  0  0  0  0  0
  -28.5510  -25.1430   22.3930 C   0  0  0  0  0  2  0  0  0  0  0  0
  -29.1650  -23.2400   20.9130 C   0  0  0  0  0  2  0  0  0  0  0  0
  -29.2610  -24.7710   21.0910 C   0  0  0  0  0  3  0  0  0  0  0  0
  -29.5450  -22.4260   22.0870 N   0  0  0  0  0  0  0  0  0  0  0  0
  -29.5320  -22.2020   24.3630 O   0  0  0  0  0  0  0  0  0  0  0  0
  -31.3970  -19.1330   22.0810 C   0  0  0  0  0  3  0  0  0  0  0  0
  -31.0150  -20.4450   22.4250 C   0  0  0  0  0  3  0  0  0  0  0  0
  -29.1270  -20.2920   20.9000 C   0  0  0  0  0  3  0  0  0  0  0  0
  -30.6610  -18.4010   21.1220 C   0  0  0  0  0  0  0  0  0  0  0  0
  -29.8830  -21.0520   21.8260 C   0  0  0  0  0  0  0  0  0  0  0  0
  -29.5110  -18.9820   20.5490 C   0  0  0  0  0  0  0  0  0  0  0  0
  -28.7960  -18.3000   19.6230 F   0  0  0  0  0  0  0  0  0  0  0  0
  -31.1950  -17.0740   20.6020 C   0  0  0  0  0  2  0  0  0  0  0  0
  -30.4110  -15.7870   20.9770 C   0  0  0  0  0  2  0  0  0  0  0  0
  -30.9520  -14.5700   20.1910 C   0  0  0  0  0  0  0  0  0  0  0  0
  -30.5130  -12.4670   18.9820 C   0  0  0  0  0  2  0  0  0  0  0  0
  -29.5460  -12.7430   17.8150 C   0  0  0  0  0  2  0  0  0  0  0  0
  -28.0860  -12.6230   18.2930 C   0  0  0  0  0  2  0  0  0  0  0  0
  -27.8120  -13.4340   19.5870 C   0  0  0  0  0  3  0  0  0  0  0  0
  -28.9020  -13.1840   20.6560 C   0  0  0  0  0  2  0  0  0  0  0  0
  -30.2140  -13.4380   20.0460 N   0  0  0  0  0  0  0  0  0  0  0  0
  -32.0380  -14.7030   19.6200 O   0  0  0  0  0  0  0  0  0  0  0  0
  -25.4430  -14.0570   20.3760 C   0  0  0  0  0  0  0  0  0  0  0  0
  -24.3780  -13.2930   20.7700 C   0  0  0  0  0  0  0  0  0  0  0  0
  -24.8230  -11.9360   20.7100 C   0  0  0  0  0  0  0  0  0  0  0  0
  -26.4720  -13.1680   20.1060 N   0  0  0  0  0  0  0  0  0  0  0  0
  -26.1030  -11.8870   20.3620 N   0  0  0  0  0  0  0  0  0  0  0  0
  -24.0880  -10.6800   20.9100 C   0  0  0  0  0  0  0  0  0  0  0  0
  -24.4970   -9.7300   21.8710 C   0  0  0  0  0  3  0  0  0  0  0  0
  -23.7640   -8.5380   22.0580 C   0  0  0  0  0  3  0  0  0  0  0  0
  -22.6070   -8.2880   21.2830 C   0  0  0  0  0  0  0  0  0  0  0  0
  -22.2170   -9.2260   20.3110 C   0  0  0  0  0  3  0  0  0  0  0  0
  -22.9500  -10.4100   20.1230 C   0  0  0  0  0  3  0  0  0  0  0  0
  -21.8470   -7.1470   21.3770 O   0  0  0  0  0  0  0  0  0  0  0  0
  -21.7120   -6.4680   22.5620 C   0  0  0  0  0  0  0  0  0  0  0  0
  -21.1880   -7.0840   23.7190 C   0  0  0  0  0  3  0  0  0  0  0  0
  -21.0010   -6.3300   24.8950 C   0  0  0  0  0  3  0  0  0  0  0  0
  -21.3300   -4.9620   24.9150 C   0  0  0  0  0  0  0  0  0  0  0  0
  -21.8480   -4.3460   23.7620 C   0  0  0  0  0  3  0  0  0  0  0  0
  -22.0350   -5.0960   22.5880 C   0  0  0  0  0  0  0  0  0  0  0  0
  -22.5150   -4.4920   21.4740 F   0  0  0  0  0  0  0  0  0  0  0  0
  -21.1440   -4.2350   26.0410 F   0  0  0  0  0  0  0  0  0  0  0  0
  -22.9950  -13.7820   21.0930 C   0  0  0  0  0  0  0  0  0  0  0  0
  -22.2890  -13.0850   21.9760 N   0  0  0  0  0  0  0  0  0  0  0  0
  -22.5530  -14.8180   20.5980 O   0  0  0  0  0  0  0  0  0  0  0  0
  -22.6620  -12.2450   22.3960 H   0  0  0  0  0  0  0  0  0  0  0  0
  -21.3630  -13.3940   22.2360 H   0  0  0  0  0  0  0  0  0  0  0  0
  -25.6180  -15.4280   20.2070 N   0  0  0  0  0  0  0  0  0  0  0  0
  -24.8640  -16.0910   20.3480 H   0  0  0  0  0  0  0  0  0  0  0  0
  -26.4710  -15.8630   19.8760 H   0  0  0  0  0  0  0  0  0  0  0  0
  -28.6610  -25.4880   19.8620 C   0  0  0  0  0  2  0  0  0  0  0  0
  -28.6270  -26.9120   20.0360 O   0  0  0  0  0  0  0  0  0  0  0  0
  -24.6220  -31.8270   23.2420 C   0  0  0  0  0  0  0  0  0  0  0  0
  -27.4090  -27.5650   20.0370 C   0  0  0  0  0  0  0  0  0  0  0  0
  -23.4590  -30.4260   21.5680 C   0  0  0  0  0  3  0  0  0  0  0  0
  -24.9590  -28.9860   20.0970 C   0  0  0  0  0  0  0  0  0  0  0  0
  -25.9700  -30.8800   21.3740 C   0  0  0  0  0  2  0  0  0  0  0  0
  -26.0990  -29.5310   20.6990 C   0  0  0  0  0  0  0  0  0  0  0  0
  -27.3250  -28.8270   20.6710 C   0  0  0  0  0  3  0  0  0  0  0  0
  -26.2500  -27.0480   19.4080 C   0  0  0  0  0  3  0  0  0  0  0  0
  -25.0300  -27.7440   19.4490 C   0  0  0  0  0  3  0  0  0  0  0  0
  -23.6860  -29.7950   20.1700 C   0  0  0  0  0  2  0  0  0  0  0  0
  -24.7010  -31.0580   22.1200 N   0  0  0  0  0  0  0  0  0  0  0  0
  -23.5340  -32.0470   23.7930 O   0  0  0  0  0  0  0  0  0  0  0  0
  -22.8520  -29.3550   22.5020 C   0  0  0  0  0  0  0  0  0  0  0  0
  -21.5450  -29.0960   22.3420 N   0  0  0  0  0  0  0  0  0  0  0  0
  -23.5550  -28.7590   23.3230 O   0  0  0  0  0  0  0  0  0  0  0  0
  -21.0360  -29.6340   21.6540 H   0  0  0  0  0  0  0  0  0  0  0  0
  -18.2460  -27.6690   22.7110 C   0  0  0  0  0  0  0  0  0  0  0  0
  -20.7670  -28.1010   23.0810 C   0  0  0  0  0  3  0  0  0  0  0  0
  -20.9910  -26.6810   22.5110 C   0  0  0  0  0  2  0  0  0  0  0  0
  -19.9540  -26.2840   21.4560 C   0  0  0  0  0  2  0  0  0  0  0  0
  -18.5410  -26.3340   22.0470 C   0  0  0  0  0  2  0  0  0  0  0  0
  -19.2920  -28.5050   23.1830 C   0  0  0  0  0  0  0  0  0  0  0  0
  -18.9660  -29.7520   23.7600 C   0  0  0  0  0  3  0  0  0  0  0  0
  -17.6240  -30.1630   23.8740 C   0  0  0  0  0  3  0  0  0  0  0  0
  -16.5920  -29.3230   23.4220 C   0  0  0  0  0  3  0  0  0  0  0  0
  -16.9040  -28.0780   22.8460 C   0  0  0  0  0  3  0  0  0  0  0  0
  -25.8880  -32.4860   23.8730 C   0  0  0  0  0  3  0  0  0  0  0  0
  -26.4130  -31.7260   25.1520 C   0  0  1  0  0  0  0  0  0  0  0  0
  -25.3170  -31.4540   26.2080 C   0  0  0  0  0  1  0  0  0  0  0  0
  -27.0400  -30.3670   24.7590 C   0  0  0  0  0  1  0  0  0  0  0  0
  -27.5340  -32.5490   25.8290 C   0  0  0  0  0  1  0  0  0  0  0  0
  -25.5460  -33.8770   24.1990 N   0  0  0  0  0  0  0  0  0  0  0  0
  -25.8580  -34.9350   23.4390 C   0  0  0  0  0  0  0  0  0  0  0  0
  -26.5370  -34.8450   22.4120 O   0  0  0  0  0  0  0  0  0  0  0  0
  -24.9460  -34.0200   24.9980 H   0  0  0  0  0  0  0  0  0  0  0  0
  -24.0860  -36.6800   23.0700 C   0  0  0  0  0  1  0  0  0  0  0  0
  -25.3330  -36.3120   23.8890 C   0  0  0  0  0  3  0  0  0  0  0  0
  -27.4370  -37.2570   24.7270 C   0  0  0  0  0  1  0  0  0  0  0  0
  -26.3380  -37.3900   23.7750 N   0  0  0  0  0  0  0  0  0  0  0  0
  -25.9090  -38.2990   23.9140 H   0  0  0  0  0  0  0  0  0  0  0  0
  1  2  1  0
  1  7  2  0
  3  2  1  0
  4  5  1  0
  4  6  1  0
  5 53  1  0
  5  3  1  0
  6  1  1  0
  8  9  1  0
 10 12  1  0
 11  8  2  0
 12  6  1  0
 12  9  2  0
 13 10  2  0
 13 11  1  0
 14 13  1  0
 15 16  1  0
 15 11  1  0
 17 16  1  0
 18 23  1  0
 19 20  1  0
 19 18  1  0
 21 20  1  0
 21 28  1  0
 21 22  1  0
 23 17  1  0
 23 22  1  0
 24 17  2  0
 25 26  2  0
 26 45  1  0
 27 26  1  0
 27 30  1  0
 28 29  1  0
 28 25  1  0
 29 27  2  0
 30 31  1  0
 31 32  2  0
 33 36  1  0
 33 32  1  0
 34 33  2  0
 35 34  1  0
 35 30  2  0
 36 37  1  0
 37 42  2  0
 37 38  1  0
 38 39  2  0
 39 40  1  0
 40 44  1  0
 41 40  2  0
 42 41  1  0
 43 42  1  0
 45 46  1  0
 46 49  1  0
 46 48  1  0
 47 45  2  0
 50 51  1  0
 50 25  1  0
 52 50  1  0
 53 54  1  0
 54 56  1  0
 55 66  2  0
 56 61  1  0
 57 65  1  0
 57 67  1  0
 58 64  1  0
 58 60  1  0
 59 65  1  0
 60 59  1  0
 61 60  2  0
 62 63  1  0
 62 56  2  0
 63 58  2  0
 64 57  1  0
 65 55  1  0
 67 69  2  0
 68 67  1  0
 70 68  1  0
 71 80  2  0
 71 76  1  0
 72 68  1  0
 72 76  1  0
 73 72  1  0
 74 75  1  0
 74 73  1  0
 75 71  1  0
 76 77  2  0
 77 78  1  0
 79 78  2  0
 80 79  1  0
 81 55  1  0
 81 86  1  0
 81 82  1  0
 82 85  1  1
 82 83  1  0
 84 82  1  0
 86 89  1  0
 87 91  1  0
 87 86  1  0
 88 87  2  0
 91 90  1  0
 93 91  1  0
 93 94  1  0
 93 92  1  0
M  ISO  4  16 100  17 100  53 101  54 101
M  END
>  <TORSDO>  (97) 
F 20

>  <SCORE>  (97) 
-13.640

>  <name>  (97) 
97

>  <ligand_id>  (97) 
97

>  <original_smiles>  (97) 
[H]c1c([H])c([H])c2c(c1[H])C([H])([H])C([H])([H])C([H])([H])C2([H])N([H])C(=O)C1([H])N(C(=O)C([H])(N([H])C(=O)C([H])(N([H])C([H])([H])[H])C([H])([H])[H])C(C([H])([H])[H])(C([H])([H])[H])C([H])([H])[H])C([H])([H])c2c([H])c(OC([H])([H])C3([H])C([H])([H])N(c4c([H])c([H])c(C([H])([H])C([H])([H])C(=O)N5C([H])([H])C([H])([H])C([H])([H])C([H])(n6nc(-c7c([H])c([H])c(Oc8c([H])c([H])c(F)c([H])c8F)c([H])c7[H])c(C(=O)N([H])[H])c6N([H])[H])C5([H])[H])c(F)c4[H])C(=O)C([H])([H])C3([H])[H])c([H])c([H])c2C1([H])[H]

>  <smiles>  (97) 
[H]c1c([H])c([H])c2c(c1[H])C([H])([H])C([H])([H])C([H])([H])C2([H])N([H])C(=O)C1([H])N(C(=O)C([H])(N([H])C(=O)C([H])(N([H])C([H])([H])[H])C([H])([H])[H])C(C([H])([H])[H])(C([H])([H])[H])C([H])([H])[H])C([H])([H])c2c([H])c(OC([H])([H])C3([H])C([H])([H])N(c4c([H])c([H])c(C([H])([H])C([H])([H])C(=O)N5C([H])([H])C([H])([H])C([H])([H])C([H])(n6nc(-c7c([H])c([H])c(Oc8c([H])c([H])c(F)c([H])c8F)c([H])c7[H])c(C(=O)N([H])[H])c6N([H])[H])C5([H])[H])c(F)c4[H])C(=O)C([H])([H])C3([H])[H])c([H])c([H])c2C1([H])[H]

$$$$
98:0:0
     RDKit          3D

 95104  0  0  1  0  0  0  0  0999 V2000
  -30.6130  -22.1400   22.1290 C   0  0  0  0  0  0  0  0  0  0  0  0
  -29.1720  -22.6720   20.2900 C   0  0  0  0  0  0  0  0  0  0  0  0
  -30.7580  -23.6220   22.5040 C   0  0  0  0  0  2  0  0  0  0  0  0
  -29.6110  -24.4990   21.9960 C   0  0  0  0  0  2  0  0  0  0  0  0
  -29.3510  -24.2390   20.5120 C   0  0  0  0  0  3  0  0  0  0  0  0
  -29.8570  -21.7420   21.0630 N   0  0  0  0  0  0  0  0  0  0  0  0
  -31.2310  -21.3370   22.8410 O   0  0  0  0  0  0  0  0  0  0  0  0
  -28.4020  -22.3060   19.3930 O   0  0  0  0  0  0  0  0  0  0  0  0
  -28.9600  -19.3800   21.3990 C   0  0  0  0  0  3  0  0  0  0  0  0
  -30.8880  -19.7090   19.9930 C   0  0  0  0  0  3  0  0  0  0  0  0
  -29.0510  -17.9680   21.1950 C   0  0  0  0  0  3  0  0  0  0  0  0
  -30.9840  -18.3030   19.7980 C   0  0  0  0  0  3  0  0  0  0  0  0
  -29.8640  -20.2940   20.7840 C   0  0  0  0  0  0  0  0  0  0  0  0
  -30.0560  -17.3900   20.3710 C   0  0  0  0  0  0  0  0  0  0  0  0
  -30.7130  -14.9280   20.1610 C   0  0  0  0  0  0  0  0  0  0  0  0
  -30.5280  -12.6090   19.2650 C   0  0  0  0  0  2  0  0  0  0  0  0
  -29.5610  -12.5280   18.0620 C   0  0  0  0  0  2  0  0  0  0  0  0
  -28.0810  -12.4860   18.5110 C   0  0  0  0  0  2  0  0  0  0  0  0
  -27.7270  -13.3950   19.7230 C   0  0  0  0  0  3  0  0  0  0  0  0
  -28.8210  -13.3680   20.8080 C   0  0  0  0  0  2  0  0  0  0  0  0
  -30.0890  -13.7040   20.1530 N   0  0  0  0  0  0  0  0  0  0  0  0
  -31.9340  -15.0010   19.9830 O   0  0  0  0  0  0  0  0  0  0  0  0
  -29.9260  -16.0310   19.8380 N   0  0  0  0  0  0  0  0  0  0  0  0
  -25.3620  -13.9620   20.5540 C   0  0  0  0  0  0  0  0  0  0  0  0
  -24.3130  -13.1720   20.9370 C   0  0  0  0  0  0  0  0  0  0  0  0
  -24.7830  -11.8250   20.8600 C   0  0  0  0  0  0  0  0  0  0  0  0
  -26.4030  -13.0950   20.2620 N   0  0  0  0  0  0  0  0  0  0  0  0
  -26.0640  -11.8050   20.5150 N   0  0  0  0  0  0  0  0  0  0  0  0
  -24.0730  -10.5520   21.0360 C   0  0  0  0  0  0  0  0  0  0  0  0
  -24.5110   -9.5860   21.9690 C   0  0  0  0  0  3  0  0  0  0  0  0
  -23.8010   -8.3780   22.1350 C   0  0  0  0  0  3  0  0  0  0  0  0
  -22.6390   -8.1250   21.3680 C   0  0  0  0  0  0  0  0  0  0  0  0
  -22.2200   -9.0800   20.4260 C   0  0  0  0  0  3  0  0  0  0  0  0
  -22.9310  -10.2800   20.2560 C   0  0  0  0  0  3  0  0  0  0  0  0
  -21.9010   -6.9690   21.4430 O   0  0  0  0  0  0  0  0  0  0  0  0
  -21.8000   -6.2570   22.6120 C   0  0  0  0  0  0  0  0  0  0  0  0
  -21.2320   -6.8150   23.7780 C   0  0  0  0  0  3  0  0  0  0  0  0
  -21.0810   -6.0240   24.9350 C   0  0  0  0  0  3  0  0  0  0  0  0
  -21.4870   -4.6760   24.9270 C   0  0  0  0  0  0  0  0  0  0  0  0
  -22.0480   -4.1190   23.7640 C   0  0  0  0  0  3  0  0  0  0  0  0
  -22.2010   -4.9050   22.6100 C   0  0  0  0  0  0  0  0  0  0  0  0
  -22.7220   -4.3570   21.4870 F   0  0  0  0  0  0  0  0  0  0  0  0
  -21.3360   -3.9150   26.0360 F   0  0  0  0  0  0  0  0  0  0  0  0
  -22.9190  -13.6300   21.2600 C   0  0  0  0  0  0  0  0  0  0  0  0
  -22.2240  -12.9110   22.1340 N   0  0  0  0  0  0  0  0  0  0  0  0
  -22.4550  -14.6600   20.7700 O   0  0  0  0  0  0  0  0  0  0  0  0
  -22.6090  -12.0770   22.5520 H   0  0  0  0  0  0  0  0  0  0  0  0
  -21.2930  -13.2040   22.3920 H   0  0  0  0  0  0  0  0  0  0  0  0
  -25.5110  -15.3370   20.4040 N   0  0  0  0  0  0  0  0  0  0  0  0
  -24.7440  -15.9870   20.5480 H   0  0  0  0  0  0  0  0  0  0  0  0
  -26.3590  -15.7860   20.0770 H   0  0  0  0  0  0  0  0  0  0  0  0
  -28.4060  -17.0490   18.0550 C   0  0  0  0  0  1  0  0  0  0  0  0
  -29.5650  -16.0920   18.4010 C   0  0  0  0  0  2  0  0  0  0  0  0
  -28.2260  -25.2250   19.9690 C   0  0  0  0  0  2  0  0  0  0  0  0
  -28.4140  -26.6840   20.1630 O   0  0  0  0  0  0  0  0  0  0  0  0
  -24.6300  -31.9710   23.2700 C   0  0  0  0  0  0  0  0  0  0  0  0
  -27.2830  -27.5140   20.1160 C   0  0  0  0  0  0  0  0  0  0  0  0
  -23.4390  -30.6010   21.5980 C   0  0  0  0  0  3  0  0  0  0  0  0
  -24.9030  -29.0990   20.1360 C   0  0  0  0  0  0  0  0  0  0  0  0
  -25.9750  -30.9480   21.4240 C   0  0  0  0  0  2  0  0  0  0  0  0
  -26.0670  -29.5890   20.7440 C   0  0  0  0  0  0  0  0  0  0  0  0
  -27.2610  -28.8080   20.7220 C   0  0  0  0  0  3  0  0  0  0  0  0
  -26.0950  -27.0780   19.4860 C   0  0  0  0  0  3  0  0  0  0  0  0
  -24.9180  -27.8500   19.5000 C   0  0  0  0  0  3  0  0  0  0  0  0
  -23.6580  -29.9600   20.2040 C   0  0  0  0  0  2  0  0  0  0  0  0
  -24.7000  -31.1880   22.1550 N   0  0  0  0  0  0  0  0  0  0  0  0
  -23.5440  -32.2270   23.8100 O   0  0  0  0  0  0  0  0  0  0  0  0
  -22.7860  -29.5550   22.5340 C   0  0  0  0  0  0  0  0  0  0  0  0
  -21.4680  -29.3460   22.3810 N   0  0  0  0  0  0  0  0  0  0  0  0
  -23.4660  -28.9360   23.3580 O   0  0  0  0  0  0  0  0  0  0  0  0
  -20.9780  -29.8970   21.6890 H   0  0  0  0  0  0  0  0  0  0  0  0
  -18.1110  -28.0650   22.8020 C   0  0  0  0  0  0  0  0  0  0  0  0
  -20.6580  -28.3820   23.1270 C   0  0  0  0  0  3  0  0  0  0  0  0
  -20.8060  -26.9600   22.5400 C   0  0  0  0  0  2  0  0  0  0  0  0
  -19.7320  -26.6210   21.5000 C   0  0  0  0  0  2  0  0  0  0  0  0
  -18.3350  -26.7270   22.1180 C   0  0  0  0  0  2  0  0  0  0  0  0
  -19.2030  -28.8490   23.2610 C   0  0  0  0  0  0  0  0  0  0  0  0
  -18.9420  -30.1010   23.8600 C   0  0  0  0  0  3  0  0  0  0  0  0
  -17.6230  -30.5680   24.0060 C   0  0  0  0  0  3  0  0  0  0  0  0
  -16.5450  -29.7810   23.5630 C   0  0  0  0  0  3  0  0  0  0  0  0
  -16.7900  -28.5310   22.9660 C   0  0  0  0  0  3  0  0  0  0  0  0
  -25.9080  -32.6000   23.9070 C   0  0  0  0  0  3  0  0  0  0  0  0
  -26.4000  -31.8340   25.1980 C   0  0  1  0  0  0  0  0  0  0  0  0
  -25.2880  -31.6060   26.2460 C   0  0  0  0  0  1  0  0  0  0  0  0
  -26.9880  -30.4540   24.8250 C   0  0  0  0  0  1  0  0  0  0  0  0
  -27.5390  -32.6330   25.8760 C   0  0  0  0  0  1  0  0  0  0  0  0
  -25.6000  -34.0010   24.2230 N   0  0  0  0  0  0  0  0  0  0  0  0
  -25.9370  -35.0480   23.4580 C   0  0  0  0  0  0  0  0  0  0  0  0
  -26.6090  -34.9340   22.4290 O   0  0  0  0  0  0  0  0  0  0  0  0
  -25.0030  -34.1630   25.0210 H   0  0  0  0  0  0  0  0  0  0  0  0
  -24.2220  -36.8490   23.0800 C   0  0  0  0  0  1  0  0  0  0  0  0
  -25.4530  -36.4420   23.9040 C   0  0  0  0  0  3  0  0  0  0  0  0
  -27.5760  -37.3290   24.7610 C   0  0  0  0  0  1  0  0  0  0  0  0
  -26.4920  -37.4880   23.7960 N   0  0  0  0  0  0  0  0  0  0  0  0
  -26.0870  -38.4130   23.9250 H   0  0  0  0  0  0  0  0  0  0  0  0
  1  3  1  0
  1  7  2  0
  2  5  1  0
  2  6  1  0
  4  3  1  0
  5 54  1  0
  5  4  1  0
  6  1  1  0
  8  2  2  0
 10 13  1  0
 11  9  1  0
 12 10  2  0
 12 14  1  0
 13  6  1  0
 13  9  2  0
 14 11  2  0
 16 21  1  0
 17 18  1  0
 17 16  1  0
 19 18  1  0
 19 27  1  0
 19 20  1  0
 21 15  1  0
 21 20  1  0
 22 15  2  0
 23 15  1  0
 23 14  1  0
 24 25  2  0
 25 44  1  0
 26 25  1  0
 26 29  1  0
 27 28  1  0
 27 24  1  0
 28 26  2  0
 29 30  1  0
 30 31  2  0
 32 35  1  0
 32 31  1  0
 33 32  2  0
 34 33  1  0
 34 29  2  0
 35 36  1  0
 36 37  1  0
 37 38  2  0
 39 38  1  0
 39 43  1  0
 40 39  2  0
 41 36  2  0
 41 40  1  0
 42 41  1  0
 44 45  1  0
 45 48  1  0
 45 47  1  0
 46 44  2  0
 49 50  1  0
 49 24  1  0
 51 49  1  0
 52 53  1  0
 53 23  1  0
 54 55  1  0
 56 67  2  0
 57 55  1  0
 57 62  1  0
 58 66  1  0
 58 68  1  0
 59 65  1  0
 59 61  1  0
 60 66  1  0
 61 60  1  0
 62 61  2  0
 63 64  1  0
 63 57  2  0
 64 59  2  0
 65 58  1  0
 66 56  1  0
 68 70  2  0
 69 68  1  0
 71 69  1  0
 72 81  2  0
 72 77  1  0
 73 69  1  0
 73 77  1  0
 74 73  1  0
 75 76  1  0
 75 74  1  0
 76 72  1  0
 77 78  2  0
 78 79  1  0
 80 79  2  0
 81 80  1  0
 82 56  1  0
 82 87  1  0
 82 83  1  0
 83 86  1  1
 83 84  1  0
 85 83  1  0
 87 90  1  0
 88 92  1  0
 88 87  1  0
 89 88  2  0
 92 91  1  0
 94 92  1  0
 94 95  1  0
 94 93  1  0
M  ISO  4  15 100  23 100  54 101  55 101
M  END
>  <TORSDO>  (98) 
F 19

>  <SCORE>  (98) 
-12.228

>  <name>  (98) 
98

>  <ligand_id>  (98) 
98

>  <original_smiles>  (98) 
[H]c1c([H])c([H])c2c(c1[H])C([H])([H])C([H])([H])C([H])([H])C2([H])N([H])C(=O)C1([H])N(C(=O)C([H])(N([H])C(=O)C([H])(N([H])C([H])([H])[H])C([H])([H])[H])C(C([H])([H])[H])(C([H])([H])[H])C([H])([H])[H])C([H])([H])c2c([H])c(OC([H])([H])C3([H])C(=O)N(c4c([H])c([H])c(N(C(=O)N5C([H])([H])C([H])([H])C([H])([H])C([H])(n6nc(-c7c([H])c([H])c(Oc8c([H])c([H])c(F)c([H])c8F)c([H])c7[H])c(C(=O)N([H])[H])c6N([H])[H])C5([H])[H])C([H])([H])C([H])([H])[H])c([H])c4[H])C(=O)C([H])([H])C3([H])[H])c([H])c([H])c2C1([H])[H]

>  <smiles>  (98) 
[H]c1c([H])c([H])c2c(c1[H])C([H])([H])C([H])([H])C([H])([H])C2([H])N([H])C(=O)C1([H])N(C(=O)C([H])(N([H])C(=O)C([H])(N([H])C([H])([H])[H])C([H])([H])[H])C(C([H])([H])[H])(C([H])([H])[H])C([H])([H])[H])C([H])([H])c2c([H])c(OC([H])([H])C3([H])C(=O)N(c4c([H])c([H])c(N(C(=O)N5C([H])([H])C([H])([H])C([H])([H])C([H])(n6nc(-c7c([H])c([H])c(Oc8c([H])c([H])c(F)c([H])c8F)c([H])c7[H])c(C(=O)N([H])[H])c6N([H])[H])C5([H])[H])C([H])([H])C([H])([H])[H])c([H])c4[H])C(=O)C([H])([H])C3([H])[H])c([H])c([H])c2C1([H])[H]

$$$$
99:0:0
     RDKit          3D

 93101  0  0  1  0  0  0  0  0999 V2000
  -28.3210  -20.0620   18.2520 C   0  0  0  0  0  3  0  0  0  0  0  0
  -28.9350  -18.8000   18.2660 C   0  0  0  0  0  3  0  0  0  0  0  0
  -28.3330  -20.8500   19.4050 C   0  0  0  0  0  3  0  0  0  0  0  0
  -29.5720  -18.2890   19.4300 C   0  0  0  0  0  0  0  0  0  0  0  0
  -28.8820  -20.3650   20.6130 C   0  0  0  0  0  0  0  0  0  0  0  0
  -29.4810  -19.0700   20.6250 C   0  0  0  0  0  0  0  0  0  0  0  0
  -30.0160  -18.6040   21.7820 F   0  0  0  0  0  0  0  0  0  0  0  0
  -30.5890  -16.5240   17.8330 C   0  0  0  0  0  1  0  0  0  0  0  0
  -30.4400  -16.9950   19.3120 C   0  0  0  0  0  3  0  0  0  0  0  0
  -30.9040  -14.7520   20.3500 C   0  0  0  0  0  0  0  0  0  0  0  0
  -30.6820  -12.5200   19.3840 C   0  0  0  0  0  2  0  0  0  0  0  0
  -29.7720  -12.6780   18.1470 C   0  0  0  0  0  2  0  0  0  0  0  0
  -28.2920  -12.5150   18.5500 C   0  0  0  0  0  2  0  0  0  0  0  0
  -27.9100  -13.4110   19.7580 C   0  0  0  0  0  3  0  0  0  0  0  0
  -28.9320  -13.2810   20.9050 C   0  0  0  0  0  2  0  0  0  0  0  0
  -30.2690  -13.5510   20.3530 N   0  0  0  0  0  0  0  0  0  0  0  0
  -32.1150  -14.8660   20.1280 O   0  0  0  0  0  0  0  0  0  0  0  0
  -30.0850  -15.8240   20.1570 N   0  0  0  0  0  0  0  0  0  0  0  0
  -29.0950  -15.6560   20.2560 H   0  0  0  0  0  0  0  0  0  0  0  0
  -25.5160  -14.0330   20.4460 C   0  0  0  0  0  0  0  0  0  0  0  0
  -24.4400  -13.2630   20.8090 C   0  0  0  0  0  0  0  0  0  0  0  0
  -24.8940  -11.9110   20.7770 C   0  0  0  0  0  0  0  0  0  0  0  0
  -26.5560  -13.1400   20.2240 N   0  0  0  0  0  0  0  0  0  0  0  0
  -26.1850  -11.8620   20.4820 N   0  0  0  0  0  0  0  0  0  0  0  0
  -24.1620  -10.6520   20.9480 C   0  0  0  0  0  0  0  0  0  0  0  0
  -24.5720   -9.6940   21.8980 C   0  0  0  0  0  3  0  0  0  0  0  0
  -23.8460   -8.4950   22.0570 C   0  0  0  0  0  3  0  0  0  0  0  0
  -22.6970   -8.2550   21.2650 C   0  0  0  0  0  0  0  0  0  0  0  0
  -22.3060   -9.2090   20.3090 C   0  0  0  0  0  3  0  0  0  0  0  0
  -23.0340  -10.3970   20.1490 C   0  0  0  0  0  3  0  0  0  0  0  0
  -21.9360   -7.1120   21.3370 O   0  0  0  0  0  0  0  0  0  0  0  0
  -21.8330   -6.3910   22.4980 C   0  0  0  0  0  0  0  0  0  0  0  0
  -21.3450   -6.9680   23.6910 C   0  0  0  0  0  3  0  0  0  0  0  0
  -21.1860   -6.1740   24.8450 C   0  0  0  0  0  3  0  0  0  0  0  0
  -21.5030   -4.8030   24.8050 C   0  0  0  0  0  0  0  0  0  0  0  0
  -21.9910   -4.2260   23.6200 C   0  0  0  0  0  3  0  0  0  0  0  0
  -22.1480   -5.0190   22.4670 C   0  0  0  0  0  0  0  0  0  0  0  0
  -22.5930   -4.4540   21.3200 F   0  0  0  0  0  0  0  0  0  0  0  0
  -21.3450   -4.0350   25.9100 F   0  0  0  0  0  0  0  0  0  0  0  0
  -23.0430  -13.7540   21.0450 C   0  0  0  0  0  0  0  0  0  0  0  0
  -22.2940  -13.0690   21.9080 N   0  0  0  0  0  0  0  0  0  0  0  0
  -22.6160  -14.7730   20.5040 O   0  0  0  0  0  0  0  0  0  0  0  0
  -22.6450  -12.2490   22.3750 H   0  0  0  0  0  0  0  0  0  0  0  0
  -21.3560  -13.3780   22.1110 H   0  0  0  0  0  0  0  0  0  0  0  0
  -25.6720  -15.4010   20.2700 N   0  0  0  0  0  0  0  0  0  0  0  0
  -24.8550  -16.0030   20.3210 H   0  0  0  0  0  0  0  0  0  0  0  0
  -26.4720  -15.8560   19.8500 H   0  0  0  0  0  0  0  0  0  0  0  0
  -28.8670  -21.1210   21.7810 O   0  0  0  0  0  0  0  0  0  0  0  0
  -28.4700  -22.5110   21.7270 C   0  0  0  0  0  2  0  0  0  0  0  0
  -29.6410  -23.4550   21.3390 C   0  0  0  0  0  2  0  0  0  0  0  0
  -29.3300  -24.9950   21.2680 C   0  0  0  0  0  2  0  0  0  0  0  0
  -28.7220  -25.5420   19.9360 C   0  0  0  0  0  2  0  0  0  0  0  0
  -28.6310  -26.9980   19.8690 O   0  0  0  0  0  0  0  0  0  0  0  0
  -24.5470  -31.8720   23.0950 C   0  0  0  0  0  0  0  0  0  0  0  0
  -27.4000  -27.6520   19.8510 C   0  0  0  0  0  0  0  0  0  0  0  0
  -23.4020  -30.4790   21.3990 C   0  0  0  0  0  3  0  0  0  0  0  0
  -24.9200  -29.0610   19.9140 C   0  0  0  0  0  0  0  0  0  0  0  0
  -25.9080  -30.9570   21.2050 C   0  0  0  0  0  2  0  0  0  0  0  0
  -26.0570  -29.6170   20.5070 C   0  0  0  0  0  0  0  0  0  0  0  0
  -27.2930  -28.9310   20.4530 C   0  0  0  0  0  3  0  0  0  0  0  0
  -26.2350  -27.1110   19.2490 C   0  0  0  0  0  3  0  0  0  0  0  0
  -25.0080  -27.8080   19.2820 C   0  0  0  0  0  3  0  0  0  0  0  0
  -23.6350  -29.8560   19.9980 C   0  0  0  0  0  2  0  0  0  0  0  0
  -24.6410  -31.1140   21.9600 N   0  0  0  0  0  0  0  0  0  0  0  0
  -23.4560  -32.0670   23.6500 O   0  0  0  0  0  0  0  0  0  0  0  0
  -22.7970  -29.3960   22.3240 C   0  0  0  0  0  0  0  0  0  0  0  0
  -21.4800  -29.1500   22.1850 N   0  0  0  0  0  0  0  0  0  0  0  0
  -23.5090  -28.7770   23.1140 O   0  0  0  0  0  0  0  0  0  0  0  0
  -20.9530  -29.6950   21.5110 H   0  0  0  0  0  0  0  0  0  0  0  0
  -18.1900  -27.7200   22.6680 C   0  0  0  0  0  0  0  0  0  0  0  0
  -20.7310  -28.1320   22.9330 C   0  0  0  0  0  3  0  0  0  0  0  0
  -20.9110  -26.7270   22.3200 C   0  0  0  0  0  2  0  0  0  0  0  0
  -19.8320  -26.3920   21.2870 C   0  0  0  0  0  2  0  0  0  0  0  0
  -18.4490  -26.4070   21.9440 C   0  0  0  0  0  2  0  0  0  0  0  0
  -19.2680  -28.5280   23.1230 C   0  0  0  0  0  0  0  0  0  0  0  0
  -18.9860  -29.7500   23.7750 C   0  0  0  0  0  3  0  0  0  0  0  0
  -17.6530  -30.1680   23.9670 C   0  0  0  0  0  3  0  0  0  0  0  0
  -16.5910  -29.3700   23.5040 C   0  0  0  0  0  3  0  0  0  0  0  0
  -16.8600  -28.1450   22.8600 C   0  0  0  0  0  3  0  0  0  0  0  0
  -25.8040  -32.5360   23.7380 C   0  0  0  0  0  3  0  0  0  0  0  0
  -25.4390  -33.9110   24.1110 N   0  0  0  0  0  0  0  0  0  0  0  0
  -25.7310  -34.9950   23.3860 C   0  0  0  0  0  0  0  0  0  0  0  0
  -26.4130  -34.9500   22.3580 O   0  0  0  0  0  0  0  0  0  0  0  0
  -24.8310  -34.0190   24.9110 H   0  0  0  0  0  0  0  0  0  0  0  0
  -23.9450  -36.7320   23.0630 C   0  0  0  0  0  1  0  0  0  0  0  0
  -25.1890  -36.3500   23.8790 C   0  0  0  0  0  3  0  0  0  0  0  0
  -27.2810  -37.2840   24.7600 C   0  0  0  0  0  1  0  0  0  0  0  0
  -26.1830  -37.4410   23.8090 N   0  0  0  0  0  0  0  0  0  0  0  0
  -25.7440  -38.3420   23.9780 H   0  0  0  0  0  0  0  0  0  0  0  0
  -26.3580  -31.7520   24.9920 C   0  0  1  0  0  0  0  0  0  0  0  0
  -25.2800  -31.4460   26.0570 C   0  0  0  0  0  1  0  0  0  0  0  0
  -26.9900  -30.4060   24.5660 C   0  0  0  0  0  1  0  0  0  0  0  0
  -27.4820  -32.5740   25.6670 C   0  0  0  0  0  1  0  0  0  0  0  0
  1  2  2  0
  1  3  1  0
  2  4  1  0
  3  5  2  0
  4  6  2  0
  5  6  1  0
  5 48  1  0
  6  7  1  0
  9  8  1  0
  9  4  1  0
  9 18  1  0
 10 16  1  0
 11 16  1  0
 12 13  1  0
 12 11  1  0
 14 13  1  0
 14 23  1  0
 14 15  1  0
 16 15  1  0
 17 10  2  0
 18 19  1  0
 18 10  1  0
 20 21  2  0
 21 40  1  0
 22 21  1  0
 22 25  1  0
 23 20  1  0
 23 24  1  0
 24 22  2  0
 25 26  1  0
 26 27  2  0
 28 31  1  0
 28 27  1  0
 29 28  2  0
 30 29  1  0
 30 25  2  0
 31 32  1  0
 32 33  1  0
 33 34  2  0
 35 34  1  0
 35 39  1  0
 36 35  2  0
 37 32  2  0
 37 36  1  0
 38 37  1  0
 40 41  1  0
 41 44  1  0
 41 43  1  0
 42 40  2  0
 45 46  1  0
 45 20  1  0
 47 45  1  0
 49 48  1  0
 50 49  1  0
 51 50  1  0
 52 51  1  0
 53 52  1  0
 54 65  2  0
 55 53  1  0
 55 60  1  0
 56 64  1  0
 56 66  1  0
 57 63  1  0
 57 59  1  0
 58 64  1  0
 59 58  1  0
 60 59  2  0
 61 62  1  0
 61 55  2  0
 62 57  2  0
 63 56  1  0
 64 54  1  0
 66 68  2  0
 67 66  1  0
 69 67  1  0
 70 79  2  0
 70 75  1  0
 71 67  1  0
 71 75  1  0
 72 71  1  0
 73 74  1  0
 73 72  1  0
 74 70  1  0
 75 76  2  0
 76 77  1  0
 78 77  2  0
 79 78  1  0
 80 54  1  0
 80 81  1  0
 80 90  1  0
 81 84  1  0
 82 86  1  0
 82 81  1  0
 83 82  2  0
 86 85  1  0
 88 86  1  0
 88 89  1  0
 88 87  1  0
 90 93  1  1
 90 91  1  0
 92 90  1  0
M  ISO  4  10 100  18 100  52 101  53 101
M  END
>  <TORSDO>  (99) 
F 22

>  <SCORE>  (99) 
-12.520

>  <name>  (99) 
99

>  <ligand_id>  (99) 
99

>  <original_smiles>  (99) 
[H]c1c([H])c([H])c2c(c1[H])C([H])([H])C([H])([H])C([H])([H])C2([H])N([H])C(=O)C1([H])N(C(=O)C([H])(N([H])C(=O)C([H])(N([H])C([H])([H])[H])C([H])([H])[H])C(C([H])([H])[H])(C([H])([H])[H])C([H])([H])[H])C([H])([H])c2c([H])c(OC([H])([H])C([H])([H])C([H])([H])C([H])([H])Oc3c([H])c([H])c([H])c(C([H])(N([H])C(=O)N4C([H])([H])C([H])([H])C([H])([H])C([H])(n5nc(-c6c([H])c([H])c(Oc7c([H])c([H])c(F)c([H])c7F)c([H])c6[H])c(C(=O)N([H])[H])c5N([H])[H])C4([H])[H])C([H])([H])[H])c3F)c([H])c([H])c2C1([H])[H]

>  <smiles>  (99) 
[H]c1c([H])c([H])c2c(c1[H])C([H])([H])C([H])([H])C([H])([H])C2([H])N([H])C(=O)C1([H])N(C(=O)C([H])(N([H])C(=O)C([H])(N([H])C([H])([H])[H])C([H])([H])[H])C(C([H])([H])[H])(C([H])([H])[H])C([H])([H])[H])C([H])([H])c2c([H])c(OC([H])([H])C([H])([H])C([H])([H])C([H])([H])Oc3c([H])c([H])c([H])c(C([H])(N([H])C(=O)N4C([H])([H])C([H])([H])C([H])([H])C([H])(n5nc(-c6c([H])c([H])c(Oc7c([H])c([H])c(F)c([H])c7F)c([H])c6[H])c(C(=O)N([H])[H])c5N([H])[H])C4([H])[H])C([H])([H])[H])c3F)c([H])c([H])c2C1([H])[H]

$$$$
