0:0:0
     RDKit          3D

 94103  0  0  1  0  0  0  0  0999 V2000
  -29.1360  -22.3000   22.1180 C   0  0  0  0  0  0  0  0  0  0  0  0
  -29.8420  -23.5710   22.5670 C   0  0  0  0  0  2  0  0  0  0  0  0
  -30.4950  -24.0580   21.2790 C   0  0  0  0  0  2  0  0  0  0  0  0
  -29.5430  -23.5230   20.2100 C   0  0  0  0  0  3  0  0  0  0  0  0
  -29.2350  -22.0890   20.7860 N   0  0  0  0  0  0  0  0  0  0  0  0
  -28.5610  -21.5700   22.9340 O   0  0  0  0  0  0  0  0  0  0  0  0
  -30.9820  -20.1180   20.2720 C   0  0  0  0  0  3  0  0  0  0  0  0
  -28.7120  -19.5680   20.4960 C   0  0  0  0  0  3  0  0  0  0  0  0
  -31.3270  -18.6890   20.2560 C   0  0  0  0  0  0  0  0  0  0  0  0
  -29.0300  -18.1540   20.4780 C   0  0  0  0  0  0  0  0  0  0  0  0
  -29.6540  -20.6460   20.4360 C   0  0  0  0  0  0  0  0  0  0  0  0
  -30.3620  -17.6120   20.3690 C   0  0  0  0  0  0  0  0  0  0  0  0
  -32.8020  -18.3410   20.2460 C   0  0  0  0  0  1  0  0  0  0  0  0
  -27.8630  -17.2090   20.6880 C   0  0  0  0  0  1  0  0  0  0  0  0
  -31.0800  -14.9890   19.9100 C   0  0  0  0  0  0  0  0  0  0  0  0
  -30.7120  -12.6990   18.8620 C   0  0  0  0  0  2  0  0  0  0  0  0
  -29.7130  -12.7600   17.6830 C   0  0  0  0  0  2  0  0  0  0  0  0
  -28.2680  -12.6130   18.1880 C   0  0  0  0  0  2  0  0  0  0  0  0
  -27.9850  -13.5140   19.4180 C   0  0  0  0  0  3  0  0  0  0  0  0
  -29.0990  -13.4260   20.4830 C   0  0  0  0  0  2  0  0  0  0  0  0
  -30.3730  -13.7830   19.8370 N   0  0  0  0  0  0  0  0  0  0  0  0
  -32.1780  -15.0170   19.3410 O   0  0  0  0  0  0  0  0  0  0  0  0
  -30.9190  -15.9130   22.0910 C   0  0  0  0  0  1  0  0  0  0  0  0
  -30.6250  -16.1140   20.6620 N   0  0  0  0  0  0  0  0  0  0  0  0
  -25.6900  -14.1790   20.3390 C   0  0  0  0  0  0  0  0  0  0  0  0
  -24.6100  -13.4490   20.7470 C   0  0  0  0  0  0  0  0  0  0  0  0
  -24.9860  -12.0790   20.6080 C   0  0  0  0  0  0  0  0  0  0  0  0
  -26.6630  -13.2620   19.9840 N   0  0  0  0  0  0  0  0  0  0  0  0
  -26.2490  -11.9870   20.2050 N   0  0  0  0  0  0  0  0  0  0  0  0
  -24.1930  -10.8540   20.7780 C   0  0  0  0  0  0  0  0  0  0  0  0
  -24.5910   -9.8320   21.6680 C   0  0  0  0  0  3  0  0  0  0  0  0
  -23.8010   -8.6730   21.8260 C   0  0  0  0  0  3  0  0  0  0  0  0
  -22.5960   -8.5310   21.0970 C   0  0  0  0  0  0  0  0  0  0  0  0
  -22.2160   -9.5400   20.1960 C   0  0  0  0  0  3  0  0  0  0  0  0
  -23.0050  -10.6900   20.0360 C   0  0  0  0  0  3  0  0  0  0  0  0
  -21.7760   -7.4290   21.1700 O   0  0  0  0  0  0  0  0  0  0  0  0
  -21.6710   -6.6850   22.3180 C   0  0  0  0  0  0  0  0  0  0  0  0
  -21.2920   -7.2630   23.5490 C   0  0  0  0  0  3  0  0  0  0  0  0
  -21.1270   -6.4500   24.6880 C   0  0  0  0  0  3  0  0  0  0  0  0
  -21.3330   -5.0600   24.5970 C   0  0  0  0  0  0  0  0  0  0  0  0
  -21.7050   -4.4820   23.3710 C   0  0  0  0  0  3  0  0  0  0  0  0
  -21.8720   -5.2920   22.2340 C   0  0  0  0  0  0  0  0  0  0  0  0
  -22.2090   -4.7270   21.0490 F   0  0  0  0  0  0  0  0  0  0  0  0
  -21.1690   -4.2770   25.6890 F   0  0  0  0  0  0  0  0  0  0  0  0
  -23.2670  -13.9930   21.1430 C   0  0  0  0  0  0  0  0  0  0  0  0
  -22.5650  -13.3070   22.0380 N   0  0  0  0  0  0  0  0  0  0  0  0
  -22.8540  -15.0610   20.6940 O   0  0  0  0  0  0  0  0  0  0  0  0
  -22.9120  -12.4420   22.4240 H   0  0  0  0  0  0  0  0  0  0  0  0
  -21.6670  -13.6560   22.3410 H   0  0  0  0  0  0  0  0  0  0  0  0
  -25.9130  -15.5450   20.2170 N   0  0  0  0  0  0  0  0  0  0  0  0
  -25.2090  -16.2290   20.4700 H   0  0  0  0  0  0  0  0  0  0  0  0
  -26.7720  -15.9580   19.8830 H   0  0  0  0  0  0  0  0  0  0  0  0
  -28.3340  -24.6940   20.0770 C   0  0  0  0  0  2  0  0  0  0  0  0
  -28.5120  -26.2380   19.9890 O   0  0  0  0  0  0  0  0  0  0  0  0
  -24.5180  -31.6220   23.0260 C   0  0  0  0  0  0  0  0  0  0  0  0
  -27.3850  -27.1350   19.9450 C   0  0  0  0  0  0  0  0  0  0  0  0
  -23.4090  -30.1910   21.3540 C   0  0  0  0  0  3  0  0  0  0  0  0
  -24.9540  -28.7270   19.9150 C   0  0  0  0  0  0  0  0  0  0  0  0
  -25.9420  -30.6110   21.2070 C   0  0  0  0  0  2  0  0  0  0  0  0
  -26.1010  -29.2370   20.5380 C   0  0  0  0  0  0  0  0  0  0  0  0
  -27.3160  -28.4590   20.5320 C   0  0  0  0  0  3  0  0  0  0  0  0
  -26.2060  -26.7200   19.2860 C   0  0  0  0  0  3  0  0  0  0  0  0
  -25.0190  -27.4820   19.2730 C   0  0  0  0  0  3  0  0  0  0  0  0
  -23.6760  -29.5500   19.9660 C   0  0  0  0  0  2  0  0  0  0  0  0
  -24.6410  -30.8290   21.9190 N   0  0  0  0  0  0  0  0  0  0  0  0
  -23.4140  -31.8360   23.5520 O   0  0  0  0  0  0  0  0  0  0  0  0
  -22.7820  -29.1300   22.2920 C   0  0  0  0  0  0  0  0  0  0  0  0
  -21.4690  -28.8820   22.1460 N   0  0  0  0  0  0  0  0  0  0  0  0
  -23.4810  -28.5320   23.1160 O   0  0  0  0  0  0  0  0  0  0  0  0
  -20.9600  -29.4190   21.4580 H   0  0  0  0  0  0  0  0  0  0  0  0
  -18.1600  -27.4730   22.5810 C   0  0  0  0  0  0  0  0  0  0  0  0
  -20.6950  -27.8870   22.8920 C   0  0  0  0  0  3  0  0  0  0  0  0
  -20.8910  -26.4710   22.3020 C   0  0  0  0  0  2  0  0  0  0  0  0
  -19.8260  -26.0950   21.2670 C   0  0  0  0  0  2  0  0  0  0  0  0
  -18.4280  -26.1470   21.8900 C   0  0  0  0  0  2  0  0  0  0  0  0
  -19.2240  -28.2970   23.0370 C   0  0  0  0  0  0  0  0  0  0  0  0
  -18.9180  -29.5340   23.6450 C   0  0  0  0  0  3  0  0  0  0  0  0
  -17.5820  -29.9510   23.7970 C   0  0  0  0  0  3  0  0  0  0  0  0
  -16.5330  -29.1250   23.3560 C   0  0  0  0  0  3  0  0  0  0  0  0
  -16.8230  -27.8880   22.7550 C   0  0  0  0  0  3  0  0  0  0  0  0
  -25.7560  -32.3150   23.6750 C   0  0  0  0  0  3  0  0  0  0  0  0
  -25.3640  -33.6870   24.0360 N   0  0  0  0  0  0  0  0  0  0  0  0
  -25.6460  -34.7760   23.3090 C   0  0  0  0  0  0  0  0  0  0  0  0
  -26.3310  -34.7350   22.2830 O   0  0  0  0  0  0  0  0  0  0  0  0
  -24.7500  -33.7870   24.8310 H   0  0  0  0  0  0  0  0  0  0  0  0
  -23.8230  -36.4810   22.9870 C   0  0  0  0  0  1  0  0  0  0  0  0
  -25.0820  -36.1260   23.7950 C   0  0  0  0  0  3  0  0  0  0  0  0
  -27.1630  -37.1060   24.6560 C   0  0  0  0  0  1  0  0  0  0  0  0
  -26.0560  -37.2360   23.7120 N   0  0  0  0  0  0  0  0  0  0  0  0
  -25.6010  -38.1290   23.8810 H   0  0  0  0  0  0  0  0  0  0  0  0
  -26.2990  -31.5460   24.9430 C   0  0  1  0  0  0  0  0  0  0  0  0
  -25.2070  -31.2150   25.9860 C   0  0  0  0  0  1  0  0  0  0  0  0
  -26.9760  -30.2180   24.5310 C   0  0  0  0  0  1  0  0  0  0  0  0
  -27.3870  -32.3950   25.6430 C   0  0  0  0  0  1  0  0  0  0  0  0
  1  2  1  0
  1  6  2  0
  3  2  1  0
  4 53  1  0
  4  5  1  0
  4  3  1  0
  5  1  1  0
  7 11  1  0
  9  7  2  0
  9 12  1  0
 10  8  1  0
 10 14  1  0
 11  8  2  0
 11  5  1  0
 12 10  2  0
 12 24  1  0
 13  9  1  0
 15 24  1  0
 16 21  1  0
 17 18  1  0
 17 16  1  0
 19 18  1  0
 19 28  1  0
 19 20  1  0
 21 15  1  0
 21 20  1  0
 22 15  2  0
 24 23  1  0
 25 26  2  0
 26 45  1  0
 27 26  1  0
 27 30  1  0
 28 29  1  0
 28 25  1  0
 29 27  2  0
 30 31  1  0
 31 32  2  0
 33 36  1  0
 33 32  1  0
 34 33  2  0
 35 34  1  0
 35 30  2  0
 36 37  1  0
 37 38  1  0
 38 39  2  0
 40 39  1  0
 40 44  1  0
 41 40  2  0
 42 37  2  0
 42 41  1  0
 43 42  1  0
 45 46  1  0
 46 49  1  0
 46 48  1  0
 47 45  2  0
 50 25  1  0
 50 51  1  0
 52 50  1  0
 54 53  1  0
 55 66  2  0
 56 54  1  0
 56 61  1  0
 57 65  1  0
 57 67  1  0
 58 64  1  0
 58 60  1  0
 59 65  1  0
 60 59  1  0
 61 60  2  0
 62 56  2  0
 63 62  1  0
 63 58  2  0
 64 57  1  0
 65 55  1  0
 67 69  2  0
 68 67  1  0
 70 68  1  0
 71 80  2  0
 71 76  1  0
 72 68  1  0
 72 76  1  0
 73 72  1  0
 74 75  1  0
 74 73  1  0
 75 71  1  0
 76 77  2  0
 77 78  1  0
 79 78  2  0
 80 79  1  0
 81 55  1  0
 81 82  1  0
 81 91  1  0
 82 85  1  0
 83 87  1  0
 83 82  1  0
 84 83  2  0
 87 86  1  0
 89 87  1  0
 89 90  1  0
 89 88  1  0
 91 94  1  1
 91 92  1  0
 93 91  1  0
M  ISO  4  15 100  24 100  53 101  54 101
M  END
>  <TORSDO>  (1) 
F 18

>  <SCORE>  (1) 
-13.432

>  <name>  (1) 
0

>  <ligand_id>  (1) 
0

>  <original_smiles>  (1) 
[H]c1c([H])c([H])c2c(c1[H])C([H])([H])C([H])([H])C([H])([H])C2([H])N([H])C(=O)C1([H])N(C(=O)C([H])(N([H])C(=O)C([H])(N([H])C([H])([H])[H])C([H])([H])[H])C(C([H])([H])[H])(C([H])([H])[H])C([H])([H])[H])C([H])([H])c2c([H])c(OC([H])([H])C3([H])N(c4c([H])c(C([H])([H])[H])c(N(C(=O)N5C([H])([H])C([H])([H])C([H])([H])C([H])(n6nc(-c7c([H])c([H])c(Oc8c([H])c([H])c(F)c([H])c8F)c([H])c7[H])c(C(=O)N([H])[H])c6N([H])[H])C5([H])[H])C([H])([H])[H])c(C([H])([H])[H])c4[H])C(=O)C([H])([H])C3([H])[H])c([H])c([H])c2C1([H])[H]

>  <smiles>  (1) 
[H]c1c([H])c([H])c2c(c1[H])C([H])([H])C([H])([H])C([H])([H])C2([H])N([H])C(=O)C1([H])N(C(=O)C([H])(N([H])C(=O)C([H])(N([H])C([H])([H])[H])C([H])([H])[H])C(C([H])([H])[H])(C([H])([H])[H])C([H])([H])[H])C([H])([H])c2c([H])c(OC([H])([H])C3([H])N(c4c([H])c(C([H])([H])[H])c(N(C(=O)N5C([H])([H])C([H])([H])C([H])([H])C([H])(n6nc(-c7c([H])c([H])c(Oc8c([H])c([H])c(F)c([H])c8F)c([H])c7[H])c(C(=O)N([H])[H])c6N([H])[H])C5([H])[H])C([H])([H])[H])c(C([H])([H])[H])c4[H])C(=O)C([H])([H])C3([H])[H])c([H])c([H])c2C1([H])[H]

$$$$
1:0:0
     RDKit          3D

101110  0  0  1  0  0  0  0  0999 V2000
  -28.1690  -19.6070   19.1880 C   0  0  0  0  0  3  0  0  0  0  0  0
  -30.0690  -20.2640   20.3930 C   0  0  0  0  0  3  0  0  0  0  0  0
  -28.5920  -18.2260   19.2070 C   0  0  0  0  0  0  0  0  0  0  0  0
  -28.8470  -20.7210   19.7850 C   0  0  0  0  0  0  0  0  0  0  0  0
  -29.8030  -17.7640   19.8370 C   0  0  0  0  0  0  0  0  0  0  0  0
  -30.5250  -18.8660   20.4360 C   0  0  0  0  0  0  0  0  0  0  0  0
  -27.6850  -17.2660   18.4520 C   0  0  0  0  0  1  0  0  0  0  0  0
  -30.8580  -15.2650   20.3440 C   0  0  0  0  0  0  0  0  0  0  0  0
  -30.7390  -12.8820   19.5130 C   0  0  0  0  0  2  0  0  0  0  0  0
  -29.8390  -12.7230   18.2690 C   0  0  0  0  0  2  0  0  0  0  0  0
  -28.3610  -12.5610   18.6680 C   0  0  0  0  0  2  0  0  0  0  0  0
  -27.9150  -13.5500   19.7750 C   0  0  0  0  0  3  0  0  0  0  0  0
  -28.9410  -13.6670   20.9160 C   0  0  0  0  0  2  0  0  0  0  0  0
  -30.2100  -14.0360   20.2820 N   0  0  0  0  0  0  0  0  0  0  0  0
  -32.0860  -15.2030   20.4800 O   0  0  0  0  0  0  0  0  0  0  0  0
  -30.3470  -16.3440   19.5640 N   0  0  0  0  0  0  0  0  0  0  0  0
  -25.5230  -14.1600   20.4510 C   0  0  0  0  0  0  0  0  0  0  0  0
  -24.4420  -13.3950   20.7940 C   0  0  0  0  0  0  0  0  0  0  0  0
  -24.9010  -12.0400   20.8000 C   0  0  0  0  0  0  0  0  0  0  0  0
  -26.5670  -13.2710   20.2530 N   0  0  0  0  0  0  0  0  0  0  0  0
  -26.2010  -11.9950   20.5360 N   0  0  0  0  0  0  0  0  0  0  0  0
  -24.1610  -10.7840   20.9790 C   0  0  0  0  0  0  0  0  0  0  0  0
  -24.5660   -9.8210   21.9290 C   0  0  0  0  0  3  0  0  0  0  0  0
  -23.8290   -8.6310   22.0980 C   0  0  0  0  0  3  0  0  0  0  0  0
  -22.6740   -8.3940   21.3170 C   0  0  0  0  0  0  0  0  0  0  0  0
  -22.2880   -9.3440   20.3540 C   0  0  0  0  0  3  0  0  0  0  0  0
  -23.0270  -10.5270   20.1840 C   0  0  0  0  0  3  0  0  0  0  0  0
  -21.9100   -7.2550   21.3950 O   0  0  0  0  0  0  0  0  0  0  0  0
  -21.8280   -6.5190   22.5490 C   0  0  0  0  0  0  0  0  0  0  0  0
  -21.3920   -7.0890   23.7650 C   0  0  0  0  0  3  0  0  0  0  0  0
  -21.2530   -6.2830   24.9120 C   0  0  0  0  0  3  0  0  0  0  0  0
  -21.5430   -4.9060   24.8430 C   0  0  0  0  0  0  0  0  0  0  0  0
  -21.9720   -4.3350   23.6320 C   0  0  0  0  0  3  0  0  0  0  0  0
  -22.1100   -5.1390   22.4880 C   0  0  0  0  0  0  0  0  0  0  0  0
  -22.5030   -4.5810   21.3180 F   0  0  0  0  0  0  0  0  0  0  0  0
  -21.4020   -4.1260   25.9420 F   0  0  0  0  0  0  0  0  0  0  0  0
  -23.0390  -13.8780   21.0060 C   0  0  0  0  0  0  0  0  0  0  0  0
  -22.2810  -13.2150   21.8700 N   0  0  0  0  0  0  0  0  0  0  0  0
  -22.6200  -14.8870   20.4380 O   0  0  0  0  0  0  0  0  0  0  0  0
  -22.6350  -12.4030   22.3570 H   0  0  0  0  0  0  0  0  0  0  0  0
  -21.3340  -13.5180   22.0460 H   0  0  0  0  0  0  0  0  0  0  0  0
  -25.6980  -15.5280   20.2620 N   0  0  0  0  0  0  0  0  0  0  0  0
  -24.9250  -16.1800   20.3430 H   0  0  0  0  0  0  0  0  0  0  0  0
  -26.5720  -15.9680   20.0020 H   0  0  0  0  0  0  0  0  0  0  0  0
  -31.0350  -16.3480   18.2420 C   0  0  0  0  0  2  0  0  0  0  0  0
  -32.3590  -17.1530   18.2610 C   0  0  0  0  0  2  0  0  0  0  0  0
  -34.0820  -18.4880   17.0100 C   0  0  0  0  0  1  0  0  0  0  0  0
  -31.6430  -19.1820   16.8910 C   0  0  0  0  0  1  0  0  0  0  0  0
  -32.6250  -17.9970   17.0020 C   0  0  0  0  0  3  0  0  0  0  0  0
  -26.8780  -22.1310   20.1710 C   0  0  0  0  0  0  0  0  0  0  0  0
  -26.5360  -23.1870   21.2120 C   0  0  0  0  0  2  0  0  0  0  0  0
  -27.9100  -23.7340   21.5780 C   0  0  0  0  0  2  0  0  0  0  0  0
  -28.6740  -23.5700   20.2630 C   0  0  0  0  0  3  0  0  0  0  0  0
  -28.1960  -22.1250   19.8430 N   0  0  0  0  0  0  0  0  0  0  0  0
  -26.0000  -21.3840   19.7250 O   0  0  0  0  0  0  0  0  0  0  0  0
  -28.2280  -24.9250   19.3610 C   0  0  0  0  0  2  0  0  0  0  0  0
  -28.3190  -26.4330   19.7540 O   0  0  0  0  0  0  0  0  0  0  0  0
  -24.6760  -31.9020   23.0740 C   0  0  0  0  0  0  0  0  0  0  0  0
  -27.2310  -27.3800   19.7380 C   0  0  0  0  0  0  0  0  0  0  0  0
  -23.4470  -30.5460   21.4230 C   0  0  0  0  0  3  0  0  0  0  0  0
  -24.8700  -29.0690   19.8820 C   0  0  0  0  0  0  0  0  0  0  0  0
  -25.9870  -30.8670   21.1920 C   0  0  0  0  0  2  0  0  0  0  0  0
  -26.0610  -29.5100   20.4730 C   0  0  0  0  0  0  0  0  0  0  0  0
  -27.2360  -28.6730   20.3970 C   0  0  0  0  0  3  0  0  0  0  0  0
  -26.0140  -27.0560   19.0920 C   0  0  0  0  0  3  0  0  0  0  0  0
  -24.8560  -27.8550   19.1830 C   0  0  0  0  0  3  0  0  0  0  0  0
  -23.6320  -29.9360   20.0110 C   0  0  0  0  0  2  0  0  0  0  0  0
  -24.7220  -31.1260   21.9510 N   0  0  0  0  0  0  0  0  0  0  0  0
  -23.6050  -32.1410   23.6530 O   0  0  0  0  0  0  0  0  0  0  0  0
  -22.8280  -29.4810   22.3650 C   0  0  0  0  0  0  0  0  0  0  0  0
  -21.5000  -29.2810   22.2800 N   0  0  0  0  0  0  0  0  0  0  0  0
  -23.5410  -28.8440   23.1430 O   0  0  0  0  0  0  0  0  0  0  0  0
  -20.9780  -29.8480   21.6270 H   0  0  0  0  0  0  0  0  0  0  0  0
  -18.1780  -27.9510   22.8340 C   0  0  0  0  0  0  0  0  0  0  0  0
  -20.7320  -28.2940   23.0430 C   0  0  0  0  0  3  0  0  0  0  0  0
  -20.8690  -26.8860   22.4200 C   0  0  0  0  0  2  0  0  0  0  0  0
  -19.7530  -26.5550   21.4250 C   0  0  0  0  0  2  0  0  0  0  0  0
  -18.3840  -26.6300   22.1090 C   0  0  0  0  0  2  0  0  0  0  0  0
  -19.2800  -28.7390   23.2570 C   0  0  0  0  0  0  0  0  0  0  0  0
  -19.0340  -29.9750   23.8980 C   0  0  0  0  0  3  0  0  0  0  0  0
  -17.7180  -30.4220   24.1140 C   0  0  0  0  0  3  0  0  0  0  0  0
  -16.6310  -29.6330   23.7060 C   0  0  0  0  0  3  0  0  0  0  0  0
  -16.8610  -28.3960   23.0750 C   0  0  0  0  0  3  0  0  0  0  0  0
  -25.9630  -32.5440   23.6780 C   0  0  0  0  0  3  0  0  0  0  0  0
  -25.6370  -33.9220   24.0760 N   0  0  0  0  0  0  0  0  0  0  0  0
  -25.9460  -35.0180   23.3670 C   0  0  0  0  0  0  0  0  0  0  0  0
  -26.6020  -34.9710   22.3230 O   0  0  0  0  0  0  0  0  0  0  0  0
  -25.0640  -34.0310   24.9010 H   0  0  0  0  0  0  0  0  0  0  0  0
  -24.1910  -36.8030   23.1110 C   0  0  0  0  0  1  0  0  0  0  0  0
  -25.4440  -36.3760   23.8950 C   0  0  0  0  0  3  0  0  0  0  0  0
  -27.5750  -37.2460   24.7490 C   0  0  0  0  0  1  0  0  0  0  0  0
  -26.4630  -37.4480   23.8240 N   0  0  0  0  0  0  0  0  0  0  0  0
  -26.0500  -38.3550   24.0220 H   0  0  0  0  0  0  0  0  0  0  0  0
  -26.5390  -31.7420   24.9110 C   0  0  1  0  0  0  0  0  0  0  0  0
  -25.4910  -31.4500   26.0110 C   0  0  0  0  0  1  0  0  0  0  0  0
  -27.1300  -30.3860   24.4630 C   0  0  0  0  0  1  0  0  0  0  0  0
  -27.7030  -32.5310   25.5530 C   0  0  0  0  0  1  0  0  0  0  0  0
  -31.7030  -18.5140   21.0510 O   0  0  0  0  0  0  0  0  0  0  0  0
  -32.8560  -19.3230   20.8490 C   0  0  0  0  0  2  0  0  0  0  0  0
  -34.4980  -20.6860   22.2430 C   0  0  0  0  0  1  0  0  0  0  0  0
  -33.0230  -20.3640   21.9740 C   0  0  0  0  0  2  0  0  0  0  0  0
  1  3  2  0
  1  4  1  0
  2  6  1  0
  3  5  1  0
  4 54  1  0
  4  2  2  0
  5  6  2  0
  6 98  1  0
  7  3  1  0
  8 15  2  0
  9 14  1  0
 10 11  1  0
 10  9  1  0
 12 11  1  0
 12 20  1  0
 12 13  1  0
 14  8  1  0
 14 13  1  0
 16  5  1  0
 16  8  1  0
 17 18  2  0
 18 19  1  0
 18 37  1  0
 19 22  1  0
 20 17  1  0
 20 21  1  0
 21 19  2  0
 22 23  1  0
 23 24  2  0
 25 28  1  0
 25 24  1  0
 26 25  2  0
 27 26  1  0
 27 22  2  0
 28 29  1  0
 29 30  1  0
 30 31  2  0
 32 31  1  0
 32 36  1  0
 33 32  2  0
 34 29  2  0
 34 33  1  0
 35 34  1  0
 37 38  1  0
 38 41  1  0
 38 40  1  0
 39 37  2  0
 42 43  1  0
 42 17  1  0
 44 42  1  0
 45 46  1  0
 45 16  1  0
 48 49  1  0
 49 47  1  0
 49 46  1  0
 50 51  1  0
 51 52  1  0
 53 56  1  0
 53 52  1  0
 54 50  1  0
 54 53  1  0
 55 50  2  0
 56 57  1  0
 58 69  2  0
 59 57  1  0
 59 64  1  0
 60 68  1  0
 60 70  1  0
 61 67  1  0
 61 63  1  0
 62 68  1  0
 63 62  1  0
 64 63  2  0
 65 66  1  0
 65 59  2  0
 66 61  2  0
 67 60  1  0
 68 58  1  0
 70 72  2  0
 71 70  1  0
 73 71  1  0
 74 83  2  0
 74 79  1  0
 75 71  1  0
 75 79  1  0
 76 75  1  0
 77 78  1  0
 77 76  1  0
 78 74  1  0
 79 80  2  0
 80 81  1  0
 82 81  2  0
 83 82  1  0
 84 58  1  0
 84 85  1  0
 84 94  1  0
 85 88  1  0
 86 90  1  0
 86 85  1  0
 87 86  2  0
 90 89  1  0
 92 90  1  0
 92 93  1  0
 92 91  1  0
 94 97  1  1
 94 95  1  0
 96 94  1  0
 99 98  1  0
 99101  1  0
101100  1  0
M  ISO  4   8 100  16 100  56 101  57 101
M  END
>  <TORSDO>  (2) 
F 24

>  <SCORE>  (2) 
-12.121

>  <name>  (2) 
1

>  <ligand_id>  (2) 
1

>  <original_smiles>  (2) 
[H]c1c([H])c([H])c2c(c1[H])C([H])([H])C([H])([H])C([H])([H])C2([H])N([H])C(=O)C1([H])N(C(=O)C([H])(N([H])C(=O)C([H])(N([H])C([H])([H])[H])C([H])([H])[H])C(C([H])([H])[H])(C([H])([H])[H])C([H])([H])[H])C([H])([H])c2c([H])c(OC([H])([H])C3([H])N(c4c([H])c(OC([H])([H])C([H])([H])C([H])([H])[H])c(N(C(=O)N5C([H])([H])C([H])([H])C([H])([H])C([H])(n6nc(-c7c([H])c([H])c(Oc8c([H])c([H])c(F)c([H])c8F)c([H])c7[H])c(C(=O)N([H])[H])c6N([H])[H])C5([H])[H])C([H])([H])C([H])([H])C([H])(C([H])([H])[H])C([H])([H])[H])c(C([H])([H])[H])c4[H])C(=O)C([H])([H])C3([H])[H])c([H])c([H])c2C1([H])[H]

>  <smiles>  (2) 
[H]c1c([H])c([H])c2c(c1[H])C([H])([H])C([H])([H])C([H])([H])C2([H])N([H])C(=O)C1([H])N(C(=O)C([H])(N([H])C(=O)C([H])(N([H])C([H])([H])[H])C([H])([H])[H])C(C([H])([H])[H])(C([H])([H])[H])C([H])([H])[H])C([H])([H])c2c([H])c(OC([H])([H])C3([H])N(c4c([H])c(OC([H])([H])C([H])([H])C([H])([H])[H])c(N(C(=O)N5C([H])([H])C([H])([H])C([H])([H])C([H])(n6nc(-c7c([H])c([H])c(Oc8c([H])c([H])c(F)c([H])c8F)c([H])c7[H])c(C(=O)N([H])[H])c6N([H])[H])C5([H])[H])C([H])([H])C([H])([H])C([H])(C([H])([H])[H])C([H])([H])[H])c(C([H])([H])[H])c4[H])C(=O)C([H])([H])C3([H])[H])c([H])c([H])c2C1([H])[H]

$$$$
2:0:0
     RDKit          3D

 95104  0  0  1  0  0  0  0  0999 V2000
  -29.1000  -24.1940   20.0650 C   0  0  0  0  0  0  0  0  0  0  0  0
  -28.9810  -22.8470   20.3720 C   0  0  0  0  0  0  0  0  0  0  0  0
  -30.2240  -24.6000   19.1820 C   0  0  0  0  0  0  0  0  0  0  0  0
  -30.9160  -23.4900   18.3950 C   0  0  0  0  0  2  0  0  0  0  0  0
  -31.1310  -22.2460   19.2650 C   0  0  0  0  0  2  0  0  0  0  0  0
  -27.8550  -22.3650   21.2790 C   0  0  0  0  0  1  0  0  0  0  0  0
  -29.9050  -21.8310   19.9580 N   0  0  0  0  0  0  0  0  0  0  0  0
  -30.6300  -25.7560   19.0410 O   0  0  0  0  0  0  0  0  0  0  0  0
  -28.7270  -18.1990   20.1070 C   0  0  0  0  0  3  0  0  0  0  0  0
  -28.7140  -19.6160   19.9580 C   0  0  0  0  0  3  0  0  0  0  0  0
  -31.0610  -19.6660   20.4670 C   0  0  0  0  0  3  0  0  0  0  0  0
  -29.9000  -17.4800   20.4640 C   0  0  0  0  0  0  0  0  0  0  0  0
  -29.8790  -20.3990   20.1500 C   0  0  0  0  0  0  0  0  0  0  0  0
  -31.0850  -18.2410   20.6390 C   0  0  0  0  0  0  0  0  0  0  0  0
  -33.4490  -18.2350   21.1040 C   0  0  0  0  0  1  0  0  0  0  0  0
  -32.2120  -17.5390   21.0160 O   0  0  0  0  0  0  0  0  0  0  0  0
  -29.8150  -15.9680   20.8840 C   0  0  0  0  0  2  0  0  0  0  0  0
  -30.5530  -14.8160   20.0920 C   0  0  0  0  0  0  0  0  0  0  0  0
  -30.3450  -12.6120   18.9310 C   0  0  0  0  0  2  0  0  0  0  0  0
  -29.3260  -12.7500   17.7780 C   0  0  0  0  0  2  0  0  0  0  0  0
  -27.8800  -12.5540   18.2820 C   0  0  0  0  0  2  0  0  0  0  0  0
  -27.5810  -13.3790   19.5620 C   0  0  0  0  0  3  0  0  0  0  0  0
  -28.7000  -13.1790   20.6080 C   0  0  0  0  0  2  0  0  0  0  0  0
  -29.9690  -13.5790   19.9800 N   0  0  0  0  0  0  0  0  0  0  0  0
  -31.6360  -15.0480   19.5410 O   0  0  0  0  0  0  0  0  0  0  0  0
  -25.2200  -13.9410   20.4160 C   0  0  0  0  0  0  0  0  0  0  0  0
  -24.1810  -13.1480   20.8220 C   0  0  0  0  0  0  0  0  0  0  0  0
  -24.6520  -11.8030   20.7300 C   0  0  0  0  0  0  0  0  0  0  0  0
  -26.2590  -13.0760   20.1050 N   0  0  0  0  0  0  0  0  0  0  0  0
  -25.9240  -11.7840   20.3510 N   0  0  0  0  0  0  0  0  0  0  0  0
  -23.9490  -10.5290   20.9260 C   0  0  0  0  0  0  0  0  0  0  0  0
  -24.3650   -9.6000   21.9060 C   0  0  0  0  0  3  0  0  0  0  0  0
  -23.6620   -8.3890   22.0880 C   0  0  0  0  0  3  0  0  0  0  0  0
  -22.5300   -8.0990   21.2900 C   0  0  0  0  0  0  0  0  0  0  0  0
  -22.1350   -9.0160   20.3000 C   0  0  0  0  0  3  0  0  0  0  0  0
  -22.8390  -10.2180   20.1170 C   0  0  0  0  0  3  0  0  0  0  0  0
  -21.8010   -6.9370   21.3790 O   0  0  0  0  0  0  0  0  0  0  0  0
  -21.6360   -6.2810   22.5730 C   0  0  0  0  0  0  0  0  0  0  0  0
  -21.0250   -6.9010   23.6840 C   0  0  0  0  0  3  0  0  0  0  0  0
  -20.8110   -6.1690   24.8700 C   0  0  0  0  0  3  0  0  0  0  0  0
  -21.1970   -4.8160   24.9420 C   0  0  0  0  0  0  0  0  0  0  0  0
  -21.8000   -4.1960   23.8330 C   0  0  0  0  0  3  0  0  0  0  0  0
  -22.0160   -4.9260   22.6510 C   0  0  0  0  0  0  0  0  0  0  0  0
  -22.5780   -4.3180   21.5790 F   0  0  0  0  0  0  0  0  0  0  0  0
  -20.9850   -4.1090   26.0760 F   0  0  0  0  0  0  0  0  0  0  0  0
  -22.7970  -13.6030   21.1830 C   0  0  0  0  0  0  0  0  0  0  0  0
  -22.1220  -12.8740   22.0660 N   0  0  0  0  0  0  0  0  0  0  0  0
  -22.3210  -14.6380   20.7180 O   0  0  0  0  0  0  0  0  0  0  0  0
  -22.5210  -12.0370   22.4640 H   0  0  0  0  0  0  0  0  0  0  0  0
  -21.1940  -13.1580   22.3490 H   0  0  0  0  0  0  0  0  0  0  0  0
  -25.3620  -15.3160   20.2640 N   0  0  0  0  0  0  0  0  0  0  0  0
  -24.5970  -15.9610   20.4270 H   0  0  0  0  0  0  0  0  0  0  0  0
  -26.1880  -15.7700   19.8950 H   0  0  0  0  0  0  0  0  0  0  0  0
  -28.1330  -25.3240   20.5830 C   0  0  0  0  0  2  0  0  0  0  0  0
  -28.3260  -26.7340   20.1790 O   0  0  0  0  0  0  0  0  0  0  0  0
  -24.5240  -32.0140   23.2890 C   0  0  0  0  0  0  0  0  0  0  0  0
  -27.1910  -27.5500   20.1700 C   0  0  0  0  0  0  0  0  0  0  0  0
  -23.3340  -30.6250   21.6280 C   0  0  0  0  0  3  0  0  0  0  0  0
  -24.8020  -29.1130   20.1830 C   0  0  0  0  0  0  0  0  0  0  0  0
  -25.8670  -30.9810   21.4480 C   0  0  0  0  0  2  0  0  0  0  0  0
  -25.9630  -29.6140   20.7860 C   0  0  0  0  0  0  0  0  0  0  0  0
  -27.1620  -28.8440   20.7710 C   0  0  0  0  0  3  0  0  0  0  0  0
  -26.0110  -27.1020   19.5350 C   0  0  0  0  0  3  0  0  0  0  0  0
  -24.8260  -27.8610   19.5490 C   0  0  0  0  0  3  0  0  0  0  0  0
  -23.5530  -29.9680   20.2400 C   0  0  0  0  0  2  0  0  0  0  0  0
  -24.5930  -31.2230   22.1780 N   0  0  0  0  0  0  0  0  0  0  0  0
  -23.4380  -32.2730   23.8270 O   0  0  0  0  0  0  0  0  0  0  0  0
  -22.6830  -29.5880   22.5740 C   0  0  0  0  0  0  0  0  0  0  0  0
  -21.3680  -29.3690   22.4150 N   0  0  0  0  0  0  0  0  0  0  0  0
  -23.3630  -28.9830   23.4080 O   0  0  0  0  0  0  0  0  0  0  0  0
  -20.8790  -29.9130   21.7180 H   0  0  0  0  0  0  0  0  0  0  0  0
  -18.0260  -28.0390   22.8000 C   0  0  0  0  0  0  0  0  0  0  0  0
  -20.5590  -28.4070   23.1660 C   0  0  0  0  0  3  0  0  0  0  0  0
  -20.7420  -26.9740   22.6140 C   0  0  0  0  0  2  0  0  0  0  0  0
  -19.6950  -26.5930   21.5630 C   0  0  0  0  0  2  0  0  0  0  0  0
  -18.2830  -26.6900   22.1500 C   0  0  0  0  0  2  0  0  0  0  0  0
  -19.0950  -28.8530   23.2610 C   0  0  0  0  0  0  0  0  0  0  0  0
  -18.8020  -30.1140   23.8260 C   0  0  0  0  0  3  0  0  0  0  0  0
  -17.4720  -30.5620   23.9340 C   0  0  0  0  0  3  0  0  0  0  0  0
  -16.4170  -29.7470   23.4890 C   0  0  0  0  0  3  0  0  0  0  0  0
  -16.6950  -28.4870   22.9270 C   0  0  0  0  0  3  0  0  0  0  0  0
  -25.8010  -32.6490   23.9200 C   0  0  0  0  0  3  0  0  0  0  0  0
  -26.2940  -31.8970   25.2170 C   0  0  1  0  0  0  0  0  0  0  0  0
  -25.1800  -31.6720   26.2660 C   0  0  0  0  0  1  0  0  0  0  0  0
  -26.8860  -30.5140   24.8550 C   0  0  0  0  0  1  0  0  0  0  0  0
  -27.4290  -32.7020   25.8910 C   0  0  0  0  0  1  0  0  0  0  0  0
  -25.4960  -34.0540   24.2220 N   0  0  0  0  0  0  0  0  0  0  0  0
  -25.8640  -35.0940   23.4610 C   0  0  0  0  0  0  0  0  0  0  0  0
  -26.5670  -34.9700   22.4540 O   0  0  0  0  0  0  0  0  0  0  0  0
  -24.8780  -34.2260   25.0010 H   0  0  0  0  0  0  0  0  0  0  0  0
  -24.1790  -36.9070   23.0140 C   0  0  0  0  0  1  0  0  0  0  0  0
  -25.3770  -36.4920   23.8840 C   0  0  0  0  0  3  0  0  0  0  0  0
  -27.4810  -37.3590   24.8060 C   0  0  0  0  0  1  0  0  0  0  0  0
  -26.4280  -37.5310   23.8090 N   0  0  0  0  0  0  0  0  0  0  0  0
  -26.0280  -38.4580   23.9260 H   0  0  0  0  0  0  0  0  0  0  0  0
  1  2  2  0
  1 54  1  0
  2  6  1  0
  3  1  1  0
  4  3  1  0
  4  5  1  0
  5  7  1  0
  7 13  1  0
  7  2  1  0
  8  3  2  0
  9 12  1  0
 10  9  2  0
 10 13  1  0
 11 14  1  0
 12 14  2  0
 12 17  1  0
 13 11  2  0
 14 16  1  0
 16 15  1  0
 18 17  1  0
 19 24  1  0
 20 21  1  0
 20 19  1  0
 22 21  1  0
 22 29  1  0
 22 23  1  0
 24 18  1  0
 24 23  1  0
 25 18  2  0
 26 27  2  0
 27 46  1  0
 28 27  1  0
 28 31  1  0
 29 30  1  0
 29 26  1  0
 30 28  2  0
 31 32  1  0
 32 33  2  0
 34 37  1  0
 34 33  1  0
 35 34  2  0
 36 35  1  0
 36 31  2  0
 37 38  1  0
 38 43  2  0
 38 39  1  0
 39 40  2  0
 40 41  1  0
 41 45  1  0
 42 41  2  0
 43 42  1  0
 44 43  1  0
 46 47  1  0
 47 50  1  0
 47 49  1  0
 48 46  2  0
 51 26  1  0
 51 52  1  0
 53 51  1  0
 55 54  1  0
 56 67  2  0
 57 55  1  0
 57 62  1  0
 58 66  1  0
 58 68  1  0
 59 65  1  0
 59 61  1  0
 60 66  1  0
 61 60  1  0
 62 61  2  0
 63 64  1  0
 63 57  2  0
 64 59  2  0
 65 58  1  0
 66 56  1  0
 68 70  2  0
 69 68  1  0
 71 69  1  0
 72 81  2  0
 72 77  1  0
 73 69  1  0
 73 77  1  0
 74 73  1  0
 75 76  1  0
 75 74  1  0
 76 72  1  0
 77 78  2  0
 78 79  1  0
 80 79  2  0
 81 80  1  0
 82 56  1  0
 82 87  1  0
 82 83  1  0
 83 86  1  1
 83 84  1  0
 85 83  1  0
 87 90  1  0
 88 92  1  0
 88 87  1  0
 89 88  2  0
 92 91  1  0
 94 92  1  0
 94 95  1  0
 94 93  1  0
M  ISO  4  17 100  18 100  54 101  55 101
M  END
>  <TORSDO>  (3) 
F 20

>  <SCORE>  (3) 
-13.498

>  <name>  (3) 
2

>  <ligand_id>  (3) 
2

>  <original_smiles>  (3) 
[H]c1c([H])c([H])c2c(c1[H])C([H])([H])C([H])([H])C([H])([H])C2([H])N([H])C(=O)C1([H])N(C(=O)C([H])(N([H])C(=O)C([H])(N([H])C([H])([H])[H])C([H])([H])[H])C(C([H])([H])[H])(C([H])([H])[H])C([H])([H])[H])C([H])([H])c2c([H])c(OC([H])([H])C3=C(C([H])([H])[H])N(c4c([H])c([H])c(C([H])([H])C(=O)N5C([H])([H])C([H])([H])C([H])([H])C([H])(n6nc(-c7c([H])c([H])c(Oc8c([H])c([H])c(F)c([H])c8F)c([H])c7[H])c(C(=O)N([H])[H])c6N([H])[H])C5([H])[H])c(OC([H])([H])[H])c4[H])C([H])([H])C([H])([H])C3=O)c([H])c([H])c2C1([H])[H]

>  <smiles>  (3) 
[H]c1c([H])c([H])c2c(c1[H])C([H])([H])C([H])([H])C([H])([H])C2([H])N([H])C(=O)C1([H])N(C(=O)C([H])(N([H])C(=O)C([H])(N([H])C([H])([H])[H])C([H])([H])[H])C(C([H])([H])[H])(C([H])([H])[H])C([H])([H])[H])C([H])([H])c2c([H])c(OC([H])([H])C3=C(C([H])([H])[H])N(c4c([H])c([H])c(C([H])([H])C(=O)N5C([H])([H])C([H])([H])C([H])([H])C([H])(n6nc(-c7c([H])c([H])c(Oc8c([H])c([H])c(F)c([H])c8F)c([H])c7[H])c(C(=O)N([H])[H])c6N([H])[H])C5([H])[H])c(OC([H])([H])[H])c4[H])C([H])([H])C([H])([H])C3=O)c([H])c([H])c2C1([H])[H]

$$$$
3:0:0
     RDKit          3D

 95103  0  0  1  0  0  0  0  0999 V2000
  -30.2750  -20.3280   19.0470 C   0  0  0  0  0  3  0  0  0  0  0  0
  -28.5250  -18.9720   20.7620 C   0  0  0  0  0  3  0  0  0  0  0  0
  -30.3990  -18.9180   19.2020 C   0  0  0  0  0  0  0  0  0  0  0  0
  -29.4890  -18.2210   20.0480 C   0  0  0  0  0  0  0  0  0  0  0  0
  -28.4110  -20.3700   20.5930 C   0  0  0  0  0  0  0  0  0  0  0  0
  -29.2720  -21.0640   19.7180 C   0  0  0  0  0  0  0  0  0  0  0  0
  -27.4190  -21.0770   21.2670 N   0  0  0  0  0  0  0  0  0  0  0  0
  -26.5860  -20.5750   21.5550 H   0  0  0  0  0  0  0  0  0  0  0  0
  -27.2160  -22.0010   20.8990 H   0  0  0  0  0  0  0  0  0  0  0  0
  -31.9430  -18.5870   17.2490 C   0  0  0  0  0  2  0  0  0  0  0  0
  -31.3980  -18.1800   18.4080 C   0  0  0  0  0  3  0  0  0  0  0  0
  -29.4000  -16.6750   20.1000 C   0  0  0  0  0  2  0  0  0  0  0  0
  -31.0490  -14.8380   20.0740 C   0  0  0  0  0  0  0  0  0  0  0  0
  -30.6910  -12.6400   18.9960 C   0  0  0  0  0  2  0  0  0  0  0  0
  -29.7270  -12.7840   17.8020 C   0  0  0  0  0  2  0  0  0  0  0  0
  -28.2650  -12.6440   18.2690 C   0  0  0  0  0  2  0  0  0  0  0  0
  -27.9450  -13.5370   19.4970 C   0  0  0  0  0  3  0  0  0  0  0  0
  -29.0270  -13.3980   20.5930 C   0  0  0  0  0  2  0  0  0  0  0  0
  -30.3360  -13.6760   19.9810 N   0  0  0  0  0  0  0  0  0  0  0  0
  -32.1750  -14.9520   19.5790 O   0  0  0  0  0  0  0  0  0  0  0  0
  -31.2920  -16.6100   21.7170 C   0  0  0  0  0  1  0  0  0  0  0  0
  -30.4850  -15.8850   20.7340 N   0  0  0  0  0  0  0  0  0  0  0  0
  -25.5900  -14.1850   20.2970 C   0  0  0  0  0  0  0  0  0  0  0  0
  -24.5180  -13.4300   20.6890 C   0  0  0  0  0  0  0  0  0  0  0  0
  -24.9490  -12.0700   20.6220 C   0  0  0  0  0  0  0  0  0  0  0  0
  -26.6060  -13.2830   20.0180 N   0  0  0  0  0  0  0  0  0  0  0  0
  -26.2270  -12.0070   20.2720 N   0  0  0  0  0  0  0  0  0  0  0  0
  -24.2010  -10.8210   20.8110 C   0  0  0  0  0  0  0  0  0  0  0  0
  -24.6130   -9.8500   21.7490 C   0  0  0  0  0  3  0  0  0  0  0  0
  -23.8690   -8.6640   21.9260 C   0  0  0  0  0  3  0  0  0  0  0  0
  -22.6970   -8.4420   21.1640 C   0  0  0  0  0  0  0  0  0  0  0  0
  -22.3040   -9.4020   20.2150 C   0  0  0  0  0  3  0  0  0  0  0  0
  -23.0500  -10.5790   20.0350 C   0  0  0  0  0  3  0  0  0  0  0  0
  -21.9240   -7.3100   21.2500 O   0  0  0  0  0  0  0  0  0  0  0  0
  -21.8290   -6.5900   22.4140 C   0  0  0  0  0  0  0  0  0  0  0  0
  -21.3480   -7.1650   23.6100 C   0  0  0  0  0  3  0  0  0  0  0  0
  -21.2040   -6.3700   24.7650 C   0  0  0  0  0  3  0  0  0  0  0  0
  -21.5310   -5.0010   24.7240 C   0  0  0  0  0  0  0  0  0  0  0  0
  -22.0060   -4.4250   23.5330 C   0  0  0  0  0  3  0  0  0  0  0  0
  -22.1520   -5.2170   22.3800 C   0  0  0  0  0  0  0  0  0  0  0  0
  -22.5900   -4.6530   21.2290 F   0  0  0  0  0  0  0  0  0  0  0  0
  -21.3850   -4.2360   25.8310 F   0  0  0  0  0  0  0  0  0  0  0  0
  -23.1400  -13.9340   21.0100 C   0  0  0  0  0  0  0  0  0  0  0  0
  -22.4230  -13.2390   21.8860 N   0  0  0  0  0  0  0  0  0  0  0  0
  -22.7100  -14.9760   20.5170 O   0  0  0  0  0  0  0  0  0  0  0  0
  -22.7840  -12.3950   22.3040 H   0  0  0  0  0  0  0  0  0  0  0  0
  -21.4990  -13.5580   22.1430 H   0  0  0  0  0  0  0  0  0  0  0  0
  -25.7720  -15.5550   20.1330 N   0  0  0  0  0  0  0  0  0  0  0  0
  -25.0100  -16.2090   20.2690 H   0  0  0  0  0  0  0  0  0  0  0  0
  -26.5960  -15.9850   19.7360 H   0  0  0  0  0  0  0  0  0  0  0  0
  -29.0470  -22.4090   19.4610 O   0  0  0  0  0  0  0  0  0  0  0  0
  -30.0610  -23.3280   19.8790 C   0  0  0  0  0  2  0  0  0  0  0  0
  -29.8360  -24.7850   19.3750 C   0  0  0  0  0  2  0  0  0  0  0  0
  -28.6200  -25.5450   19.9590 C   0  0  0  0  0  2  0  0  0  0  0  0
  -28.6250  -26.9440   19.5810 O   0  0  0  0  0  0  0  0  0  0  0  0
  -24.5610  -31.6780   23.0640 C   0  0  0  0  0  0  0  0  0  0  0  0
  -27.4170  -27.6130   19.6530 C   0  0  0  0  0  0  0  0  0  0  0  0
  -23.4160  -30.3170   21.3470 C   0  0  0  0  0  3  0  0  0  0  0  0
  -24.9370  -28.9790   19.7940 C   0  0  0  0  0  0  0  0  0  0  0  0
  -25.9120  -30.8450   21.1390 C   0  0  0  0  0  2  0  0  0  0  0  0
  -26.0720  -29.5310   20.3990 C   0  0  0  0  0  0  0  0  0  0  0  0
  -27.3170  -28.8590   20.3210 C   0  0  0  0  0  3  0  0  0  0  0  0
  -26.2630  -27.0880   19.0320 C   0  0  0  0  0  3  0  0  0  0  0  0
  -25.0270  -27.7590   19.1030 C   0  0  0  0  0  3  0  0  0  0  0  0
  -23.6420  -29.7510   19.9200 C   0  0  0  0  0  2  0  0  0  0  0  0
  -24.6480  -30.9590   21.9090 N   0  0  0  0  0  0  0  0  0  0  0  0
  -23.4760  -31.8400   23.6400 O   0  0  0  0  0  0  0  0  0  0  0  0
  -22.8490  -29.1920   22.2430 C   0  0  0  0  0  0  0  0  0  0  0  0
  -21.5370  -28.9280   22.1220 N   0  0  0  0  0  0  0  0  0  0  0  0
  -23.5870  -28.5590   23.0030 O   0  0  0  0  0  0  0  0  0  0  0  0
  -20.9990  -29.4960   21.4810 H   0  0  0  0  0  0  0  0  0  0  0  0
  -18.2560  -27.4940   22.5980 C   0  0  0  0  0  0  0  0  0  0  0  0
  -20.7990  -27.8890   22.8370 C   0  0  0  0  0  3  0  0  0  0  0  0
  -20.9750  -26.5120   22.1550 C   0  0  0  0  0  2  0  0  0  0  0  0
  -19.8710  -26.1980   21.1420 C   0  0  0  0  0  2  0  0  0  0  0  0
  -18.4980  -26.2120   21.8210 C   0  0  0  0  0  2  0  0  0  0  0  0
  -19.3360  -28.2900   23.0610 C   0  0  0  0  0  0  0  0  0  0  0  0
  -19.0560  -29.4920   23.7460 C   0  0  0  0  0  3  0  0  0  0  0  0
  -17.7270  -29.9000   23.9710 C   0  0  0  0  0  3  0  0  0  0  0  0
  -16.6620  -29.1010   23.5240 C   0  0  0  0  0  3  0  0  0  0  0  0
  -16.9270  -27.8990   22.8420 C   0  0  0  0  0  3  0  0  0  0  0  0
  -25.8160  -32.3480   23.7040 C   0  0  0  0  0  3  0  0  0  0  0  0
  -25.4440  -33.7190   24.0770 N   0  0  0  0  0  0  0  0  0  0  0  0
  -25.7280  -34.8080   23.3510 C   0  0  0  0  0  0  0  0  0  0  0  0
  -26.4020  -34.7690   22.3180 O   0  0  0  0  0  0  0  0  0  0  0  0
  -24.8460  -33.8210   24.8850 H   0  0  0  0  0  0  0  0  0  0  0  0
  -23.9130  -36.5220   23.0550 C   0  0  0  0  0  1  0  0  0  0  0  0
  -25.1770  -36.1570   23.8520 C   0  0  0  0  0  3  0  0  0  0  0  0
  -27.2650  -37.1240   24.7060 C   0  0  0  0  0  1  0  0  0  0  0  0
  -26.1570  -37.2620   23.7660 N   0  0  0  0  0  0  0  0  0  0  0  0
  -25.7050  -38.1570   23.9400 H   0  0  0  0  0  0  0  0  0  0  0  0
  -26.3720  -31.5630   24.9540 C   0  0  1  0  0  0  0  0  0  0  0  0
  -25.2930  -31.2360   26.0130 C   0  0  0  0  0  1  0  0  0  0  0  0
  -27.0240  -30.2310   24.5150 C   0  0  0  0  0  1  0  0  0  0  0  0
  -27.4810  -32.3930   25.6430 C   0  0  0  0  0  1  0  0  0  0  0  0
  1  3  2  0
  1  6  1  0
  3  4  1  0
  4 12  1  0
  4  2  2  0
  5  2  1  0
  5  7  1  0
  6  5  2  0
  7  8  1  0
  9  7  1  0
 10 11  2  0
 11  3  1  0
 12 22  1  0
 13 22  1  0
 14 19  1  0
 15 16  1  0
 15 14  1  0
 17 16  1  0
 17 26  1  0
 17 18  1  0
 19 13  1  0
 19 18  1  0
 20 13  2  0
 22 21  1  0
 23 24  2  0
 24 43  1  0
 25 24  1  0
 25 28  1  0
 26 27  1  0
 26 23  1  0
 27 25  2  0
 28 29  1  0
 29 30  2  0
 31 34  1  0
 31 30  1  0
 32 31  2  0
 33 32  1  0
 33 28  2  0
 34 35  1  0
 35 36  1  0
 36 37  2  0
 38 37  1  0
 38 42  1  0
 39 38  2  0
 40 35  2  0
 40 39  1  0
 41 40  1  0
 43 44  1  0
 44 47  1  0
 44 46  1  0
 45 43  2  0
 48 49  1  0
 48 23  1  0
 50 48  1  0
 51  6  1  0
 51 52  1  0
 53 52  1  0
 53 54  1  0
 55 57  1  0
 55 54  1  0
 56 67  2  0
 57 62  1  0
 58 66  1  0
 58 68  1  0
 59 65  1  0
 59 61  1  0
 60 66  1  0
 61 60  1  0
 62 61  2  0
 63 64  1  0
 63 57  2  0
 64 59  2  0
 65 58  1  0
 66 56  1  0
 68 70  2  0
 69 68  1  0
 71 69  1  0
 72 81  2  0
 72 77  1  0
 73 69  1  0
 73 77  1  0
 74 73  1  0
 75 76  1  0
 75 74  1  0
 76 72  1  0
 77 78  2  0
 78 79  1  0
 80 79  2  0
 81 80  1  0
 82 56  1  0
 82 83  1  0
 82 92  1  0
 83 86  1  0
 84 88  1  0
 84 83  1  0
 85 84  2  0
 88 87  1  0
 90 88  1  0
 90 91  1  0
 90 89  1  0
 92 95  1  1
 92 93  1  0
 94 92  1  0
M  ISO  4  13 100  22 100  54 101  55 101
M  END
>  <TORSDO>  (4) 
F 23

>  <SCORE>  (4) 
-11.715

>  <name>  (4) 
3

>  <ligand_id>  (4) 
3

>  <original_smiles>  (4) 
[H]C([H])=C([H])c1c([H])c(OC([H])([H])C([H])([H])C([H])([H])Oc2c([H])c([H])c3c(c2[H])C([H])([H])N(C(=O)C([H])(N([H])C(=O)C([H])(N([H])C([H])([H])[H])C([H])([H])[H])C(C([H])([H])[H])(C([H])([H])[H])C([H])([H])[H])C([H])(C(=O)N([H])C2([H])c4c([H])c([H])c([H])c([H])c4C([H])([H])C([H])([H])C2([H])[H])C3([H])[H])c(N([H])[H])c([H])c1C([H])([H])N(C(=O)N1C([H])([H])C([H])([H])C([H])([H])C([H])(n2nc(-c3c([H])c([H])c(Oc4c([H])c([H])c(F)c([H])c4F)c([H])c3[H])c(C(=O)N([H])[H])c2N([H])[H])C1([H])[H])C([H])([H])[H]

>  <smiles>  (4) 
[H]C([H])=C([H])c1c([H])c(OC([H])([H])C([H])([H])C([H])([H])Oc2c([H])c([H])c3c(c2[H])C([H])([H])N(C(=O)C([H])(N([H])C(=O)C([H])(N([H])C([H])([H])[H])C([H])([H])[H])C(C([H])([H])[H])(C([H])([H])[H])C([H])([H])[H])C([H])(C(=O)N([H])C2([H])c4c([H])c([H])c([H])c([H])c4C([H])([H])C([H])([H])C2([H])[H])C3([H])[H])c(N([H])[H])c([H])c1C([H])([H])N(C(=O)N1C([H])([H])C([H])([H])C([H])([H])C([H])(n2nc(-c3c([H])c([H])c(Oc4c([H])c([H])c(F)c([H])c4F)c([H])c3[H])c(C(=O)N([H])[H])c2N([H])[H])C1([H])[H])C([H])([H])[H]

$$$$
4:0:0
     RDKit          3D

 94102  0  0  1  0  0  0  0  0999 V2000
  -28.3830  -21.7780   20.7320 C   0  0  0  0  0  0  0  0  0  0  0  0
  -28.7200  -20.8090   19.8580 N   0  0  0  0  0  0  0  0  0  0  0  0
  -28.3690  -21.6310   21.9540 O   0  0  0  0  0  0  0  0  0  0  0  0
  -28.7320  -21.1210   18.8960 H   0  0  0  0  0  0  0  0  0  0  0  0
  -30.1370  -19.0170   19.1170 C   0  0  0  0  0  3  0  0  0  0  0  0
  -28.8190  -18.6070   21.0870 C   0  0  0  0  0  3  0  0  0  0  0  0
  -30.6730  -17.7130   19.1590 C   0  0  0  0  0  0  0  0  0  0  0  0
  -29.2270  -19.4920   20.0700 C   0  0  0  0  0  0  0  0  0  0  0  0
  -30.2900  -16.7920   20.2000 C   0  0  0  0  0  0  0  0  0  0  0  0
  -29.3270  -17.2830   21.1390 C   0  0  0  0  0  0  0  0  0  0  0  0
  -31.6810  -17.4330   18.0530 C   0  0  0  0  0  1  0  0  0  0  0  0
  -28.8300  -16.4760   22.1060 F   0  0  0  0  0  0  0  0  0  0  0  0
  -31.1150  -14.5390   19.3940 C   0  0  0  0  0  0  0  0  0  0  0  0
  -30.4970  -12.4560   18.2070 C   0  0  0  0  0  2  0  0  0  0  0  0
  -29.3440  -12.6640   17.2100 C   0  0  0  0  0  2  0  0  0  0  0  0
  -27.9840  -12.5230   17.9180 C   0  0  0  0  0  2  0  0  0  0  0  0
  -27.9050  -13.3430   19.2340 C   0  0  0  0  0  3  0  0  0  0  0  0
  -29.1490  -13.1140   20.1170 C   0  0  0  0  0  2  0  0  0  0  0  0
  -30.3360  -13.4220   19.3080 N   0  0  0  0  0  0  0  0  0  0  0  0
  -32.1010  -14.6860   18.6710 O   0  0  0  0  0  0  0  0  0  0  0  0
  -31.5290  -15.1120   21.6410 C   0  0  0  0  0  1  0  0  0  0  0  0
  -30.8310  -15.4360   20.3800 N   0  0  0  0  0  0  0  0  0  0  0  0
  -25.7890  -13.9380   20.5620 C   0  0  0  0  0  0  0  0  0  0  0  0
  -24.7640  -13.1690   21.0400 C   0  0  0  0  0  0  0  0  0  0  0  0
  -25.0840  -11.8210   20.6890 C   0  0  0  0  0  0  0  0  0  0  0  0
  -26.6760  -13.0560   19.9630 N   0  0  0  0  0  0  0  0  0  0  0  0
  -26.2670  -11.7670   20.0930 N   0  0  0  0  0  0  0  0  0  0  0  0
  -24.3050  -10.5850   20.8370 C   0  0  0  0  0  0  0  0  0  0  0  0
  -24.7610   -9.5140   21.6380 C   0  0  0  0  0  3  0  0  0  0  0  0
  -23.9830   -8.3450   21.7810 C   0  0  0  0  0  3  0  0  0  0  0  0
  -22.7340   -8.2390   21.1230 C   0  0  0  0  0  0  0  0  0  0  0  0
  -22.2960   -9.2990   20.3090 C   0  0  0  0  0  3  0  0  0  0  0  0
  -23.0730  -10.4600   20.1640 C   0  0  0  0  0  3  0  0  0  0  0  0
  -21.9250   -7.1310   21.1810 O   0  0  0  0  0  0  0  0  0  0  0  0
  -21.8450   -6.3570   22.3120 C   0  0  0  0  0  0  0  0  0  0  0  0
  -21.4580   -6.8950   23.5580 C   0  0  0  0  0  3  0  0  0  0  0  0
  -21.3220   -6.0520   24.6780 C   0  0  0  0  0  3  0  0  0  0  0  0
  -21.5620   -4.6700   24.5530 C   0  0  0  0  0  0  0  0  0  0  0  0
  -21.9410   -4.1310   23.3110 C   0  0  0  0  0  3  0  0  0  0  0  0
  -22.0790   -4.9720   22.1930 C   0  0  0  0  0  0  0  0  0  0  0  0
  -22.4210   -4.4430   20.9940 F   0  0  0  0  0  0  0  0  0  0  0  0
  -21.4240   -3.8580   25.6270 F   0  0  0  0  0  0  0  0  0  0  0  0
  -23.5080  -13.6620   21.6980 C   0  0  0  0  0  0  0  0  0  0  0  0
  -22.9520  -12.8890   22.6240 N   0  0  0  0  0  0  0  0  0  0  0  0
  -23.0400  -14.7670   21.4250 O   0  0  0  0  0  0  0  0  0  0  0  0
  -23.3450  -11.9900   22.8580 H   0  0  0  0  0  0  0  0  0  0  0  0
  -22.1240  -13.2040   23.1090 H   0  0  0  0  0  0  0  0  0  0  0  0
  -26.0310  -15.3090   20.5640 N   0  0  0  0  0  0  0  0  0  0  0  0
  -25.3690  -15.9720   20.9520 H   0  0  0  0  0  0  0  0  0  0  0  0
  -26.8330  -15.7530   20.1360 H   0  0  0  0  0  0  0  0  0  0  0  0
  -27.9790  -23.1280   20.1060 C   0  0  0  0  0  2  0  0  0  0  0  0
  -29.0170  -24.2730   20.2900 C   0  0  0  0  0  2  0  0  0  0  0  0
  -28.4620  -25.5620   20.9350 C   0  0  0  0  0  2  0  0  0  0  0  0
  -28.6050  -26.7110   20.0830 O   0  0  0  0  0  0  0  0  0  0  0  0
  -24.5050  -31.6720   23.0660 C   0  0  0  0  0  0  0  0  0  0  0  0
  -27.4500  -27.4450   19.9930 C   0  0  0  0  0  0  0  0  0  0  0  0
  -23.4250  -30.2610   21.3440 C   0  0  0  0  0  3  0  0  0  0  0  0
  -24.9990  -28.8320   19.9330 C   0  0  0  0  0  0  0  0  0  0  0  0
  -25.9330  -30.7460   21.2430 C   0  0  0  0  0  2  0  0  0  0  0  0
  -26.1070  -29.3980   20.5780 C   0  0  0  0  0  0  0  0  0  0  0  0
  -27.3400  -28.7100   20.6050 C   0  0  0  0  0  3  0  0  0  0  0  0
  -26.3380  -26.9000   19.3220 C   0  0  0  0  0  3  0  0  0  0  0  0
  -25.1100  -27.5850   19.2960 C   0  0  0  0  0  3  0  0  0  0  0  0
  -23.7120  -29.6270   19.9560 C   0  0  0  0  0  2  0  0  0  0  0  0
  -24.6370  -30.9070   21.9450 N   0  0  0  0  0  0  0  0  0  0  0  0
  -23.3940  -31.8790   23.5730 O   0  0  0  0  0  0  0  0  0  0  0  0
  -22.7910  -29.1860   22.2560 C   0  0  0  0  0  0  0  0  0  0  0  0
  -21.4740  -28.9670   22.1000 N   0  0  0  0  0  0  0  0  0  0  0  0
  -23.4790  -28.5540   23.0590 O   0  0  0  0  0  0  0  0  0  0  0  0
  -20.9750  -29.5410   21.4350 H   0  0  0  0  0  0  0  0  0  0  0  0
  -18.1280  -27.6750   22.5010 C   0  0  0  0  0  0  0  0  0  0  0  0
  -20.6760  -27.9730   22.8170 C   0  0  0  0  0  3  0  0  0  0  0  0
  -20.8140  -26.5780   22.1650 C   0  0  0  0  0  2  0  0  0  0  0  0
  -19.7320  -26.2960   21.1200 C   0  0  0  0  0  2  0  0  0  0  0  0
  -18.3410  -26.3680   21.7560 C   0  0  0  0  0  2  0  0  0  0  0  0
  -19.2260  -28.4390   22.9810 C   0  0  0  0  0  0  0  0  0  0  0  0
  -18.9700  -29.6690   23.6270 C   0  0  0  0  0  3  0  0  0  0  0  0
  -17.6530  -30.1340   23.7980 C   0  0  0  0  0  3  0  0  0  0  0  0
  -16.5710  -29.3650   23.3370 C   0  0  0  0  0  3  0  0  0  0  0  0
  -16.8100  -28.1380   22.6930 C   0  0  0  0  0  3  0  0  0  0  0  0
  -25.7380  -32.3450   23.7480 C   0  0  0  0  0  3  0  0  0  0  0  0
  -26.2590  -31.5500   25.0070 C   0  0  1  0  0  0  0  0  0  0  0  0
  -25.1490  -31.1890   26.0200 C   0  0  0  0  0  1  0  0  0  0  0  0
  -26.9450  -30.2330   24.5710 C   0  0  0  0  0  1  0  0  0  0  0  0
  -27.3370  -32.3800   25.7430 C   0  0  0  0  0  1  0  0  0  0  0  0
  -25.3510  -33.7120   24.1150 N   0  0  0  0  0  0  0  0  0  0  0  0
  -25.6640  -34.8050   23.4060 C   0  0  0  0  0  0  0  0  0  0  0  0
  -26.3800  -34.7710   22.4020 O   0  0  0  0  0  0  0  0  0  0  0  0
  -24.7120  -33.8090   24.8900 H   0  0  0  0  0  0  0  0  0  0  0  0
  -23.8840  -36.5400   23.0230 C   0  0  0  0  0  1  0  0  0  0  0  0
  -25.0930  -36.1520   23.8890 C   0  0  0  0  0  3  0  0  0  0  0  0
  -27.1360  -37.0880   24.8790 C   0  0  0  0  0  1  0  0  0  0  0  0
  -26.0840  -37.2490   23.8790 N   0  0  0  0  0  0  0  0  0  0  0  0
  -25.6320  -38.1460   24.0310 H   0  0  0  0  0  0  0  0  0  0  0  0
  1  3  2  0
  2  8  1  0
  2  1  1  0
  4  2  1  0
  5  7  2  0
  5  8  1  0
  6 10  1  0
  7  9  1  0
  8  6  2  0
  9 22  1  0
  9 10  2  0
 10 12  1  0
 11  7  1  0
 13 22  1  0
 14 19  1  0
 15 16  1  0
 15 14  1  0
 17 16  1  0
 17 26  1  0
 17 18  1  0
 19 13  1  0
 19 18  1  0
 20 13  2  0
 22 21  1  0
 23 48  1  0
 23 24  2  0
 24 43  1  0
 25 28  1  0
 25 24  1  0
 26 27  1  0
 26 23  1  0
 27 25  2  0
 28 29  1  0
 29 30  2  0
 31 34  1  0
 31 30  1  0
 32 31  2  0
 33 32  1  0
 33 28  2  0
 34 35  1  0
 35 36  1  0
 36 37  2  0
 38 37  1  0
 38 42  1  0
 39 38  2  0
 40 35  2  0
 40 39  1  0
 41 40  1  0
 43 44  1  0
 44 46  1  0
 44 47  1  0
 45 43  2  0
 48 49  1  0
 50 48  1  0
 51 52  1  0
 51  1  1  0
 52 53  1  0
 54 53  1  0
 55 66  2  0
 56 54  1  0
 56 61  1  0
 57 65  1  0
 57 67  1  0
 58 64  1  0
 58 60  1  0
 59 65  1  0
 60 61  2  0
 60 59  1  0
 62 56  2  0
 63 62  1  0
 63 58  2  0
 64 57  1  0
 65 55  1  0
 67 69  2  0
 68 67  1  0
 70 68  1  0
 71 80  2  0
 71 76  1  0
 72 68  1  0
 72 76  1  0
 73 72  1  0
 74 75  1  0
 74 73  1  0
 75 71  1  0
 76 77  2  0
 77 78  1  0
 79 78  2  0
 80 79  1  0
 81 55  1  0
 81 86  1  0
 81 82  1  0
 82 85  1  1
 82 83  1  0
 84 82  1  0
 86 89  1  0
 87 91  1  0
 87 86  1  0
 88 87  2  0
 91 90  1  0
 93 91  1  0
 93 94  1  0
 93 92  1  0
M  ISO  4  13 100  22 100  53 101  54 101
M  END
>  <TORSDO>  (5) 
F 20

>  <SCORE>  (5) 
-10.483

>  <name>  (5) 
4

>  <ligand_id>  (5) 
4

>  <original_smiles>  (5) 
[H]c1c([H])c([H])c2c(c1[H])C([H])([H])C([H])([H])C([H])([H])C2([H])N([H])C(=O)C1([H])N(C(=O)C([H])(N([H])C(=O)C([H])(N([H])C([H])([H])[H])C([H])([H])[H])C(C([H])([H])[H])(C([H])([H])[H])C([H])([H])[H])C([H])([H])c2c([H])c(OC([H])([H])C([H])([H])C([H])([H])C(=O)N([H])c3c([H])c(F)c(N(C(=O)N4C([H])([H])C([H])([H])C([H])([H])C([H])(n5nc(-c6c([H])c([H])c(Oc7c([H])c([H])c(F)c([H])c7F)c([H])c6[H])c(C(=O)N([H])[H])c5N([H])[H])C4([H])[H])C([H])([H])[H])c(C([H])([H])[H])c3[H])c([H])c([H])c2C1([H])[H]

>  <smiles>  (5) 
[H]c1c([H])c([H])c2c(c1[H])C([H])([H])C([H])([H])C([H])([H])C2([H])N([H])C(=O)C1([H])N(C(=O)C([H])(N([H])C(=O)C([H])(N([H])C([H])([H])[H])C([H])([H])[H])C(C([H])([H])[H])(C([H])([H])[H])C([H])([H])[H])C([H])([H])c2c([H])c(OC([H])([H])C([H])([H])C([H])([H])C(=O)N([H])c3c([H])c(F)c(N(C(=O)N4C([H])([H])C([H])([H])C([H])([H])C([H])(n5nc(-c6c([H])c([H])c(Oc7c([H])c([H])c(F)c([H])c7F)c([H])c6[H])c(C(=O)N([H])[H])c5N([H])[H])C4([H])[H])C([H])([H])[H])c(C([H])([H])[H])c3[H])c([H])c([H])c2C1([H])[H]

$$$$
5:0:0
     RDKit          3D

 92101  0  0  1  0  0  0  0  0999 V2000
  -30.3920  -21.7640   20.6640 N   0  0  0  0  0  0  0  0  0  0  0  0
  -31.1020  -22.2150   21.2380 H   0  0  0  0  0  0  0  0  0  0  0  0
  -30.6310  -14.8100   20.3060 C   0  0  0  0  0  0  0  0  0  0  0  0
  -30.3760  -12.5100   19.3610 C   0  0  0  0  0  2  0  0  0  0  0  0
  -29.4130  -12.4880   18.1550 C   0  0  0  0  0  2  0  0  0  0  0  0
  -27.9630  -12.2390   18.6240 C   0  0  0  0  0  2  0  0  0  0  0  0
  -27.5570  -13.1720   19.7850 C   0  0  0  0  0  3  0  0  0  0  0  0
  -28.6530  -13.2710   20.8870 C   0  0  0  0  0  2  0  0  0  0  0  0
  -29.9410  -13.6090   20.2490 N   0  0  0  0  0  0  0  0  0  0  0  0
  -31.8550  -14.8170   20.1730 O   0  0  0  0  0  0  0  0  0  0  0  0
  -31.2880  -18.0620   21.1350 C   0  0  0  0  0  3  0  0  0  0  0  0
  -31.3200  -19.4980   21.2110 C   0  0  0  0  0  3  0  0  0  0  0  0
  -29.4100  -19.6770   19.7470 C   0  0  0  0  0  3  0  0  0  0  0  0
  -29.4020  -18.2670   19.6760 C   0  0  0  0  0  0  0  0  0  0  0  0
  -30.2890  -17.4190   20.3620 C   0  0  0  0  0  0  0  0  0  0  0  0
  -30.3730  -20.3380   20.5410 C   0  0  0  0  0  0  0  0  0  0  0  0
  -28.4310  -17.4870   18.8730 C   0  0  0  0  0  2  0  0  0  0  0  0
  -28.6960  -16.0640   19.3650 C   0  0  0  0  0  2  0  0  0  0  0  0
  -29.9270  -16.0120   20.1570 N   0  0  0  0  0  0  0  0  0  0  0  0
  -25.2000  -13.8320   20.5600 C   0  0  0  0  0  0  0  0  0  0  0  0
  -24.1300  -13.0730   20.9390 C   0  0  0  0  0  0  0  0  0  0  0  0
  -24.5830  -11.7210   20.9050 C   0  0  0  0  0  0  0  0  0  0  0  0
  -26.2310  -12.9290   20.3190 N   0  0  0  0  0  0  0  0  0  0  0  0
  -25.8680  -11.6590   20.5950 N   0  0  0  0  0  0  0  0  0  0  0  0
  -23.8570  -10.4660   21.0900 C   0  0  0  0  0  0  0  0  0  0  0  0
  -24.3060   -9.4900   22.0040 C   0  0  0  0  0  3  0  0  0  0  0  0
  -23.5870   -8.2900   22.1750 C   0  0  0  0  0  3  0  0  0  0  0  0
  -22.4040   -8.0620   21.4330 C   0  0  0  0  0  0  0  0  0  0  0  0
  -21.9760   -9.0280   20.5040 C   0  0  0  0  0  3  0  0  0  0  0  0
  -22.6970  -10.2200   20.3300 C   0  0  0  0  0  3  0  0  0  0  0  0
  -21.6490   -6.9190   21.5190 O   0  0  0  0  0  0  0  0  0  0  0  0
  -21.6260   -6.1630   22.6610 C   0  0  0  0  0  0  0  0  0  0  0  0
  -21.2220   -6.6990   23.9030 C   0  0  0  0  0  3  0  0  0  0  0  0
  -21.1480   -5.8660   25.0370 C   0  0  0  0  0  3  0  0  0  0  0  0
  -21.4670   -4.4990   24.9300 C   0  0  0  0  0  0  0  0  0  0  0  0
  -21.8700   -3.9640   23.6930 C   0  0  0  0  0  3  0  0  0  0  0  0
  -21.9450   -4.7940   22.5620 C   0  0  0  0  0  0  0  0  0  0  0  0
  -22.3110   -4.2700   21.3680 F   0  0  0  0  0  0  0  0  0  0  0  0
  -21.3860   -3.6970   26.0180 F   0  0  0  0  0  0  0  0  0  0  0  0
  -22.7370  -13.5610   21.2090 C   0  0  0  0  0  0  0  0  0  0  0  0
  -22.0050  -12.8690   22.0750 N   0  0  0  0  0  0  0  0  0  0  0  0
  -22.3060  -14.5890   20.6900 O   0  0  0  0  0  0  0  0  0  0  0  0
  -22.3610  -12.0340   22.5190 H   0  0  0  0  0  0  0  0  0  0  0  0
  -21.0720  -13.1810   22.3040 H   0  0  0  0  0  0  0  0  0  0  0  0
  -25.3630  -15.2020   20.3710 N   0  0  0  0  0  0  0  0  0  0  0  0
  -24.5950  -15.8550   20.4850 H   0  0  0  0  0  0  0  0  0  0  0  0
  -26.2010  -15.6350   20.0100 H   0  0  0  0  0  0  0  0  0  0  0  0
  -29.3690  -22.6780   20.0600 C   0  0  0  0  0  2  0  0  0  0  0  0
  -29.4230  -24.2100   20.4350 C   0  0  0  0  0  0  0  0  0  0  0  0
  -30.3460  -24.6410   21.1370 O   0  0  0  0  0  0  0  0  0  0  0  0
  -28.2840  -25.1640   19.9070 C   0  0  0  0  0  2  0  0  0  0  0  0
  -28.3800  -26.5830   20.2950 O   0  0  0  0  0  0  0  0  0  0  0  0
  -24.5910  -31.9120   23.2950 C   0  0  0  0  0  0  0  0  0  0  0  0
  -27.2250  -27.3780   20.2410 C   0  0  0  0  0  0  0  0  0  0  0  0
  -23.3850  -30.5170   21.6490 C   0  0  0  0  0  3  0  0  0  0  0  0
  -24.8390  -28.9600   20.2290 C   0  0  0  0  0  0  0  0  0  0  0  0
  -25.9210  -30.8360   21.4710 C   0  0  0  0  0  2  0  0  0  0  0  0
  -26.0020  -29.4580   20.8290 C   0  0  0  0  0  0  0  0  0  0  0  0
  -27.1920  -28.6760   20.8290 C   0  0  0  0  0  3  0  0  0  0  0  0
  -26.0350  -26.9240   19.6210 C   0  0  0  0  0  3  0  0  0  0  0  0
  -24.8550  -27.6950   19.6210 C   0  0  0  0  0  3  0  0  0  0  0  0
  -23.6000  -29.8320   20.2720 C   0  0  0  0  0  2  0  0  0  0  0  0
  -24.6510  -31.1050   22.1950 N   0  0  0  0  0  0  0  0  0  0  0  0
  -23.5080  -32.1950   23.8260 O   0  0  0  0  0  0  0  0  0  0  0  0
  -22.7170  -29.5060   22.6100 C   0  0  0  0  0  0  0  0  0  0  0  0
  -21.3930  -29.3280   22.4700 N   0  0  0  0  0  0  0  0  0  0  0  0
  -23.3890  -28.8850   23.4380 O   0  0  0  0  0  0  0  0  0  0  0  0
  -20.9130  -29.8780   21.7720 H   0  0  0  0  0  0  0  0  0  0  0  0
  -18.0120  -28.1320   22.9350 C   0  0  0  0  0  0  0  0  0  0  0  0
  -20.5650  -28.3930   23.2360 C   0  0  0  0  0  3  0  0  0  0  0  0
  -20.6760  -26.9590   22.6690 C   0  0  0  0  0  2  0  0  0  0  0  0
  -19.5870  -26.6310   21.6440 C   0  0  0  0  0  2  0  0  0  0  0  0
  -18.1980  -26.7790   22.2710 C   0  0  0  0  0  2  0  0  0  0  0  0
  -19.1250  -28.8970   23.3740 C   0  0  0  0  0  0  0  0  0  0  0  0
  -18.8980  -30.1640   23.9550 C   0  0  0  0  0  3  0  0  0  0  0  0
  -17.5910  -30.6640   24.1050 C   0  0  0  0  0  3  0  0  0  0  0  0
  -16.4910  -29.8950   23.6840 C   0  0  0  0  0  3  0  0  0  0  0  0
  -16.7040  -28.6320   23.1020 C   0  0  0  0  0  3  0  0  0  0  0  0
  -25.8780  -32.5360   23.9210 C   0  0  0  0  0  3  0  0  0  0  0  0
  -26.3750  -31.7730   25.2110 C   0  0  1  0  0  0  0  0  0  0  0  0
  -25.2700  -31.5610   26.2720 C   0  0  0  0  0  1  0  0  0  0  0  0
  -26.9480  -30.3850   24.8430 C   0  0  0  0  0  1  0  0  0  0  0  0
  -27.5290  -32.5630   25.8740 C   0  0  0  0  0  1  0  0  0  0  0  0
  -25.5810  -33.9410   24.2340 N   0  0  0  0  0  0  0  0  0  0  0  0
  -25.9170  -34.9810   23.4590 C   0  0  0  0  0  0  0  0  0  0  0  0
  -26.5810  -34.8590   22.4260 O   0  0  0  0  0  0  0  0  0  0  0  0
  -24.9920  -34.1110   25.0350 H   0  0  0  0  0  0  0  0  0  0  0  0
  -24.1960  -36.7800   23.0970 C   0  0  0  0  0  1  0  0  0  0  0  0
  -25.4410  -36.3790   23.9010 C   0  0  0  0  0  3  0  0  0  0  0  0
  -27.5890  -37.2630   24.6980 C   0  0  0  0  0  1  0  0  0  0  0  0
  -26.4780  -37.4250   23.7640 N   0  0  0  0  0  0  0  0  0  0  0  0
  -26.0770  -38.3480   23.9060 H   0  0  0  0  0  0  0  0  0  0  0  0
  1  2  1  0
  4  9  1  0
  5  6  1  0
  5  4  1  0
  7  6  1  0
  7 23  1  0
  7  8  1  0
  9  3  1  0
  9  8  1  0
 10  3  2  0
 11 12  1  0
 13 16  1  0
 14 13  2  0
 14 15  1  0
 15 11  2  0
 16  1  1  0
 16 12  2  0
 17 18  1  0
 17 14  1  0
 18 19  1  0
 19  3  1  0
 19 15  1  0
 20 21  2  0
 21 40  1  0
 22 21  1  0
 22 25  1  0
 23 20  1  0
 23 24  1  0
 24 22  2  0
 25 26  1  0
 26 27  2  0
 28 31  1  0
 28 27  1  0
 29 28  2  0
 30 29  1  0
 30 25  2  0
 31 32  1  0
 32 33  1  0
 33 34  2  0
 35 34  1  0
 35 39  1  0
 36 35  2  0
 37 32  2  0
 37 36  1  0
 38 37  1  0
 40 41  1  0
 41 44  1  0
 41 43  1  0
 42 40  2  0
 45 46  1  0
 45 20  1  0
 47 45  1  0
 48 49  1  0
 48  1  1  0
 49 50  2  0
 51 52  1  0
 51 49  1  0
 53 64  2  0
 54 52  1  0
 54 59  1  0
 55 63  1  0
 55 65  1  0
 56 62  1  0
 56 58  1  0
 57 63  1  0
 58 59  2  0
 58 57  1  0
 60 54  2  0
 61 60  1  0
 61 56  2  0
 62 55  1  0
 63 53  1  0
 65 67  2  0
 66 65  1  0
 68 66  1  0
 69 78  2  0
 69 74  1  0
 70 66  1  0
 70 74  1  0
 71 70  1  0
 72 73  1  0
 72 71  1  0
 73 69  1  0
 74 75  2  0
 75 76  1  0
 77 76  2  0
 78 77  1  0
 79 53  1  0
 79 84  1  0
 79 80  1  0
 80 83  1  1
 80 81  1  0
 82 80  1  0
 84 87  1  0
 85 89  1  0
 85 84  1  0
 86 85  2  0
 89 88  1  0
 91 89  1  0
 91 92  1  0
 91 90  1  0
M  ISO  4   3 100  19 100  51 101  52 101
M  END
>  <TORSDO>  (6) 
F 19

>  <SCORE>  (6) 
-14.561

>  <name>  (6) 
5

>  <ligand_id>  (6) 
5

>  <original_smiles>  (6) 
[H]c1c([H])c([H])c2c(c1[H])C([H])([H])C([H])([H])C([H])([H])C2([H])N([H])C(=O)C1([H])N(C(=O)C([H])(N([H])C(=O)C([H])(N([H])C([H])([H])[H])C([H])([H])[H])C(C([H])([H])[H])(C([H])([H])[H])C([H])([H])[H])C([H])([H])c2c([H])c(OC([H])([H])C(=O)C([H])([H])N([H])c3c([H])c([H])c4c(c3[H])C([H])([H])C([H])([H])N4C(=O)N3C([H])([H])C([H])([H])C([H])([H])C([H])(n4nc(-c5c([H])c([H])c(Oc6c([H])c([H])c(F)c([H])c6F)c([H])c5[H])c(C(=O)N([H])[H])c4N([H])[H])C3([H])[H])c([H])c([H])c2C1([H])[H]

>  <smiles>  (6) 
[H]c1c([H])c([H])c2c(c1[H])C([H])([H])C([H])([H])C([H])([H])C2([H])N([H])C(=O)C1([H])N(C(=O)C([H])(N([H])C(=O)C([H])(N([H])C([H])([H])[H])C([H])([H])[H])C(C([H])([H])[H])(C([H])([H])[H])C([H])([H])[H])C([H])([H])c2c([H])c(OC([H])([H])C(=O)C([H])([H])N([H])c3c([H])c([H])c4c(c3[H])C([H])([H])C([H])([H])N4C(=O)N3C([H])([H])C([H])([H])C([H])([H])C([H])(n4nc(-c5c([H])c([H])c(Oc6c([H])c([H])c(F)c([H])c6F)c([H])c5[H])c(C(=O)N([H])[H])c4N([H])[H])C3([H])[H])c([H])c([H])c2C1([H])[H]

$$$$
6:0:0
     RDKit          3D

 95104  0  0  1  0  0  0  0  0999 V2000
  -28.9770  -19.3890   19.7630 C   0  0  0  0  0  3  0  0  0  0  0  0
  -30.7530  -17.9360   21.3650 C   0  0  0  0  0  3  0  0  0  0  0  0
  -28.9930  -17.9590   19.7200 C   0  0  0  0  0  0  0  0  0  0  0  0
  -29.8340  -20.1440   20.6060 C   0  0  0  0  0  0  0  0  0  0  0  0
  -29.8790  -17.1900   20.5340 C   0  0  0  0  0  0  0  0  0  0  0  0
  -30.7280  -19.3660   21.4080 C   0  0  0  0  0  0  0  0  0  0  0  0
  -28.0240  -17.2740   18.7750 C   0  0  0  0  0  1  0  0  0  0  0  0
  -30.5820  -14.6850   20.4080 C   0  0  0  0  0  0  0  0  0  0  0  0
  -30.3810  -12.4490   19.3380 C   0  0  0  0  0  2  0  0  0  0  0  0
  -29.4290  -12.5830   18.1290 C   0  0  0  0  0  2  0  0  0  0  0  0
  -27.9570  -12.4200   18.5640 C   0  0  0  0  0  2  0  0  0  0  0  0
  -27.6010  -13.2770   19.8070 C   0  0  0  0  0  3  0  0  0  0  0  0
  -28.6670  -13.1140   20.9150 C   0  0  0  0  0  2  0  0  0  0  0  0
  -29.9730  -13.4600   20.3320 N   0  0  0  0  0  0  0  0  0  0  0  0
  -31.7600  -14.8430   20.0770 O   0  0  0  0  0  0  0  0  0  0  0  0
  -29.7330  -15.7350   20.6410 N   0  0  0  0  0  0  0  0  0  0  0  0
  -28.7830  -15.4240   20.7690 H   0  0  0  0  0  0  0  0  0  0  0  0
  -25.2110  -13.8820   20.5390 C   0  0  0  0  0  0  0  0  0  0  0  0
  -24.1420  -13.1130   20.9030 C   0  0  0  0  0  0  0  0  0  0  0  0
  -24.5990  -11.7610   20.8620 C   0  0  0  0  0  0  0  0  0  0  0  0
  -26.2530  -13.0000   20.2950 N   0  0  0  0  0  0  0  0  0  0  0  0
  -25.8890  -11.7180   20.5510 N   0  0  0  0  0  0  0  0  0  0  0  0
  -23.8680  -10.5010   21.0450 C   0  0  0  0  0  0  0  0  0  0  0  0
  -24.2920   -9.5310   21.9810 C   0  0  0  0  0  3  0  0  0  0  0  0
  -23.5600   -8.3360   22.1520 C   0  0  0  0  0  3  0  0  0  0  0  0
  -22.3910   -8.1040   21.3900 C   0  0  0  0  0  0  0  0  0  0  0  0
  -21.9880   -9.0630   20.4440 C   0  0  0  0  0  3  0  0  0  0  0  0
  -22.7190  -10.2490   20.2700 C   0  0  0  0  0  3  0  0  0  0  0  0
  -21.6340   -6.9610   21.4700 O   0  0  0  0  0  0  0  0  0  0  0  0
  -21.5680   -6.2210   22.6230 C   0  0  0  0  0  0  0  0  0  0  0  0
  -21.1070   -6.7740   23.8380 C   0  0  0  0  0  3  0  0  0  0  0  0
  -20.9900   -5.9600   24.9820 C   0  0  0  0  0  3  0  0  0  0  0  0
  -21.3220   -4.5940   24.9130 C   0  0  0  0  0  0  0  0  0  0  0  0
  -21.7770   -4.0410   23.7030 C   0  0  0  0  0  3  0  0  0  0  0  0
  -21.8960   -4.8520   22.5600 C   0  0  0  0  0  0  0  0  0  0  0  0
  -22.3140   -4.3090   21.3910 F   0  0  0  0  0  0  0  0  0  0  0  0
  -21.2020   -3.8100   26.0090 F   0  0  0  0  0  0  0  0  0  0  0  0
  -22.7470  -13.5970   21.1780 C   0  0  0  0  0  0  0  0  0  0  0  0
  -22.0130  -12.8950   22.0340 N   0  0  0  0  0  0  0  0  0  0  0  0
  -22.3170  -14.6310   20.6710 O   0  0  0  0  0  0  0  0  0  0  0  0
  -22.3720  -12.0590   22.4700 H   0  0  0  0  0  0  0  0  0  0  0  0
  -21.0770  -13.2010   22.2610 H   0  0  0  0  0  0  0  0  0  0  0  0
  -25.3750  -15.2530   20.3750 N   0  0  0  0  0  0  0  0  0  0  0  0
  -24.6050  -15.9020   20.4960 H   0  0  0  0  0  0  0  0  0  0  0  0
  -26.2180  -15.6990   20.0480 H   0  0  0  0  0  0  0  0  0  0  0  0
  -30.5290  -23.8690   20.6740 C   0  0  0  0  0  2  0  0  0  0  0  0
  -30.9700  -22.4110   20.4240 C   0  0  0  0  0  2  0  0  0  0  0  0
  -28.6050  -22.4550   20.4180 C   0  0  0  0  0  2  0  0  0  0  0  0
  -29.0900  -23.9390   20.1520 C   0  0  0  0  0  3  0  0  0  0  0  0
  -29.7870  -21.5900   20.6730 N   0  0  0  0  0  0  0  0  0  0  0  0
  -28.1930  -25.1220   20.7300 C   0  0  0  0  0  2  0  0  0  0  0  0
  -28.4150  -26.5260   20.3090 O   0  0  0  0  0  0  0  0  0  0  0  0
  -24.6240  -31.9260   23.2530 C   0  0  0  0  0  0  0  0  0  0  0  0
  -27.2910  -27.3620   20.2690 C   0  0  0  0  0  0  0  0  0  0  0  0
  -23.4420  -30.5030   21.6180 C   0  0  0  0  0  3  0  0  0  0  0  0
  -24.9140  -28.9470   20.2230 C   0  0  0  0  0  0  0  0  0  0  0  0
  -25.9800  -30.8360   21.4540 C   0  0  0  0  0  2  0  0  0  0  0  0
  -26.0730  -29.4520   20.8250 C   0  0  0  0  0  0  0  0  0  0  0  0
  -27.2670  -28.6710   20.8400 C   0  0  0  0  0  3  0  0  0  0  0  0
  -26.1150  -26.9140   19.6290 C   0  0  0  0  0  3  0  0  0  0  0  0
  -24.9360  -27.6820   19.6160 C   0  0  0  0  0  3  0  0  0  0  0  0
  -23.6720  -29.8130   20.2480 C   0  0  0  0  0  2  0  0  0  0  0  0
  -24.7000  -31.1060   22.1650 N   0  0  0  0  0  0  0  0  0  0  0  0
  -23.5340  -32.2040   23.7740 O   0  0  0  0  0  0  0  0  0  0  0  0
  -22.7760  -29.4930   22.5820 C   0  0  0  0  0  0  0  0  0  0  0  0
  -21.4500  -29.3130   22.4480 N   0  0  0  0  0  0  0  0  0  0  0  0
  -23.4490  -28.8730   23.4090 O   0  0  0  0  0  0  0  0  0  0  0  0
  -20.9670  -29.8660   21.7530 H   0  0  0  0  0  0  0  0  0  0  0  0
  -18.0650  -28.1480   22.9580 C   0  0  0  0  0  0  0  0  0  0  0  0
  -20.6250  -28.3840   23.2210 C   0  0  0  0  0  3  0  0  0  0  0  0
  -20.7130  -26.9510   22.6460 C   0  0  0  0  0  2  0  0  0  0  0  0
  -19.6050  -26.6380   21.6350 C   0  0  0  0  0  2  0  0  0  0  0  0
  -18.2270  -26.7960   22.2820 C   0  0  0  0  0  2  0  0  0  0  0  0
  -19.1910  -28.9000   23.3850 C   0  0  0  0  0  0  0  0  0  0  0  0
  -18.9850  -30.1660   23.9770 C   0  0  0  0  0  3  0  0  0  0  0  0
  -17.6850  -30.6780   24.1460 C   0  0  0  0  0  3  0  0  0  0  0  0
  -16.5730  -29.9230   23.7360 C   0  0  0  0  0  3  0  0  0  0  0  0
  -16.7630  -28.6600   23.1490 C   0  0  0  0  0  3  0  0  0  0  0  0
  -25.8970  -32.5690   23.8810 C   0  0  0  0  0  3  0  0  0  0  0  0
  -26.4030  -31.8160   25.1730 C   0  0  1  0  0  0  0  0  0  0  0  0
  -25.2990  -31.5840   26.2310 C   0  0  0  0  0  1  0  0  0  0  0  0
  -26.9960  -30.4360   24.8040 C   0  0  0  0  0  1  0  0  0  0  0  0
  -27.5430  -32.6220   25.8380 C   0  0  0  0  0  1  0  0  0  0  0  0
  -25.5800  -33.9700   24.1910 N   0  0  0  0  0  0  0  0  0  0  0  0
  -25.9210  -35.0150   23.4260 C   0  0  0  0  0  0  0  0  0  0  0  0
  -26.6060  -34.9020   22.4050 O   0  0  0  0  0  0  0  0  0  0  0  0
  -24.9750  -34.1330   24.9830 H   0  0  0  0  0  0  0  0  0  0  0  0
  -24.2060  -36.8080   23.0140 C   0  0  0  0  0  1  0  0  0  0  0  0
  -25.4240  -36.4080   23.8600 C   0  0  0  0  0  3  0  0  0  0  0  0
  -27.5380  -37.2960   24.7400 C   0  0  0  0  0  1  0  0  0  0  0  0
  -26.4610  -37.4600   23.7670 N   0  0  0  0  0  0  0  0  0  0  0  0
  -26.0520  -38.3810   23.8980 H   0  0  0  0  0  0  0  0  0  0  0  0
  -31.5560  -20.0100   22.3270 N   0  0  0  0  0  0  0  0  0  0  0  0
  -31.7590  -19.5140   23.1870 H   0  0  0  0  0  0  0  0  0  0  0  0
  -31.2690  -20.9680   22.5010 H   0  0  0  0  0  0  0  0  0  0  0  0
  1  4  1  0
  2  6  1  0
  3  1  2  0
  3  5  1  0
  4 50  1  0
  4  6  2  0
  5 16  1  0
  5  2  2  0
  6 93  1  0
  7  3  1  0
  8 16  1  0
  9 14  1  0
 10 11  1  0
 10  9  1  0
 12 11  1  0
 12 21  1  0
 12 13  1  0
 14  8  1  0
 14 13  1  0
 15  8  2  0
 16 17  1  0
 18 19  2  0
 19 38  1  0
 20 19  1  0
 20 23  1  0
 21 18  1  0
 21 22  1  0
 22 20  2  0
 23 24  1  0
 24 25  2  0
 26 29  1  0
 26 25  1  0
 27 26  2  0
 28 27  1  0
 28 23  2  0
 29 30  1  0
 30 31  1  0
 31 32  2  0
 33 32  1  0
 33 37  1  0
 34 33  2  0
 35 30  2  0
 35 34  1  0
 36 35  1  0
 38 39  1  0
 39 42  1  0
 39 41  1  0
 40 38  2  0
 43 44  1  0
 43 18  1  0
 45 43  1  0
 47 50  1  0
 47 46  1  0
 48 50  1  0
 49 48  1  0
 49 46  1  0
 49 51  1  0
 52 51  1  0
 53 64  2  0
 54 52  1  0
 54 59  1  0
 55 63  1  0
 55 65  1  0
 56 62  1  0
 56 58  1  0
 57 63  1  0
 58 59  2  0
 58 57  1  0
 60 54  2  0
 61 60  1  0
 61 56  2  0
 62 55  1  0
 63 53  1  0
 65 67  2  0
 66 65  1  0
 68 66  1  0
 69 78  2  0
 69 74  1  0
 70 66  1  0
 70 74  1  0
 71 70  1  0
 72 73  1  0
 72 71  1  0
 73 69  1  0
 74 75  2  0
 75 76  1  0
 77 76  2  0
 78 77  1  0
 79 53  1  0
 79 84  1  0
 79 80  1  0
 80 83  1  1
 80 81  1  0
 82 80  1  0
 84 87  1  0
 85 89  1  0
 85 84  1  0
 86 85  2  0
 89 88  1  0
 91 89  1  0
 91 92  1  0
 91 90  1  0
 93 95  1  0
 93 94  1  0
M  ISO  4   8 100  16 100  51 101  52 101
M  END
>  <TORSDO>  (7) 
F 19

>  <SCORE>  (7) 
-14.999

>  <name>  (7) 
6

>  <ligand_id>  (7) 
6

>  <original_smiles>  (7) 
[H]c1c([H])c([H])c2c(c1[H])C([H])([H])C([H])([H])C([H])([H])C2([H])N([H])C(=O)C1([H])N(C(=O)C([H])(N([H])C(=O)C([H])(N([H])C([H])([H])[H])C([H])([H])[H])C(C([H])([H])[H])(C([H])([H])[H])C([H])([H])[H])C([H])([H])c2c([H])c(OC([H])([H])C3([H])C([H])([H])N(c4c([H])c(C([H])([H])[H])c(N([H])C(=O)N5C([H])([H])C([H])([H])C([H])([H])C([H])(n6nc(-c7c([H])c([H])c(Oc8c([H])c([H])c(F)c([H])c8F)c([H])c7[H])c(C(=O)N([H])[H])c6N([H])[H])C5([H])[H])c([H])c4N([H])[H])C([H])([H])C3([H])[H])c([H])c([H])c2C1([H])[H]

>  <smiles>  (7) 
[H]c1c([H])c([H])c2c(c1[H])C([H])([H])C([H])([H])C([H])([H])C2([H])N([H])C(=O)C1([H])N(C(=O)C([H])(N([H])C(=O)C([H])(N([H])C([H])([H])[H])C([H])([H])[H])C(C([H])([H])[H])(C([H])([H])[H])C([H])([H])[H])C([H])([H])c2c([H])c(OC([H])([H])C3([H])C([H])([H])N(c4c([H])c(C([H])([H])[H])c(N([H])C(=O)N5C([H])([H])C([H])([H])C([H])([H])C([H])(n6nc(-c7c([H])c([H])c(Oc8c([H])c([H])c(F)c([H])c8F)c([H])c7[H])c(C(=O)N([H])[H])c6N([H])[H])C5([H])[H])c([H])c4N([H])[H])C([H])([H])C3([H])[H])c([H])c([H])c2C1([H])[H]

$$$$
7:0:0
     RDKit          3D

 89 96  0  0  1  0  0  0  0  0999 V2000
  -28.9700  -21.8870   20.0830 N   0  0  0  0  0  0  0  0  0  0  0  0
  -29.3960  -20.6830   20.7470 C   0  0  0  0  0  0  0  0  0  0  0  0
  -30.0950  -20.8090   22.2580 S   0  0  0  0  0  0  0  0  0  0  0  0
  -29.2340  -19.1240   20.1600 C   0  0  0  0  0  3  0  0  0  0  0  0
  -30.1040  -17.7590   20.7140 C   0  0  0  0  0  3  0  0  0  0  0  0
  -30.5230  -15.0300   20.4230 C   0  0  0  0  0  0  0  0  0  0  0  0
  -30.4030  -12.7200   19.3960 C   0  0  0  0  0  2  0  0  0  0  0  0
  -29.4590  -12.7380   18.1730 C   0  0  0  0  0  2  0  0  0  0  0  0
  -28.0090  -12.4720   18.6170 C   0  0  0  0  0  2  0  0  0  0  0  0
  -27.6000  -13.3550   19.8250 C   0  0  0  0  0  3  0  0  0  0  0  0
  -28.6650  -13.3330   20.9400 C   0  0  0  0  0  2  0  0  0  0  0  0
  -29.9270  -13.7740   20.3330 N   0  0  0  0  0  0  0  0  0  0  0  0
  -31.7380  -15.0910   20.2120 O   0  0  0  0  0  0  0  0  0  0  0  0
  -29.7380  -16.2180   20.5370 N   0  0  0  0  0  0  0  0  0  0  0  0
  -28.7490  -16.0190   20.5790 H   0  0  0  0  0  0  0  0  0  0  0  0
  -25.2150  -13.8990   20.5780 C   0  0  0  0  0  0  0  0  0  0  0  0
  -24.1610  -13.1070   20.9410 C   0  0  0  0  0  0  0  0  0  0  0  0
  -24.6430  -11.7650   20.8970 C   0  0  0  0  0  0  0  0  0  0  0  0
  -26.2690  -13.0380   20.3250 N   0  0  0  0  0  0  0  0  0  0  0  0
  -25.9350  -11.7480   20.5870 N   0  0  0  0  0  0  0  0  0  0  0  0
  -23.9300  -10.4920   21.0680 C   0  0  0  0  0  0  0  0  0  0  0  0
  -24.3540   -9.5310   22.0120 C   0  0  0  0  0  3  0  0  0  0  0  0
  -23.6420   -8.3240   22.1740 C   0  0  0  0  0  3  0  0  0  0  0  0
  -22.4900   -8.0680   21.3930 C   0  0  0  0  0  0  0  0  0  0  0  0
  -22.0880   -9.0160   20.4370 C   0  0  0  0  0  3  0  0  0  0  0  0
  -22.8010  -10.2150   20.2700 C   0  0  0  0  0  3  0  0  0  0  0  0
  -21.7460   -6.9150   21.4680 O   0  0  0  0  0  0  0  0  0  0  0  0
  -21.6600   -6.1880   22.6280 C   0  0  0  0  0  0  0  0  0  0  0  0
  -21.1300   -6.7370   23.8150 C   0  0  0  0  0  3  0  0  0  0  0  0
  -20.9940   -5.9310   24.9630 C   0  0  0  0  0  3  0  0  0  0  0  0
  -21.3750   -4.5760   24.9240 C   0  0  0  0  0  0  0  0  0  0  0  0
  -21.8950   -4.0260   23.7390 C   0  0  0  0  0  3  0  0  0  0  0  0
  -22.0340   -4.8290   22.5950 C   0  0  0  0  0  0  0  0  0  0  0  0
  -22.5190   -4.2890   21.4500 F   0  0  0  0  0  0  0  0  0  0  0  0
  -21.2350   -3.8000   26.0240 F   0  0  0  0  0  0  0  0  0  0  0  0
  -22.7580  -13.5660   21.2110 C   0  0  0  0  0  0  0  0  0  0  0  0
  -22.0300  -12.8500   22.0590 N   0  0  0  0  0  0  0  0  0  0  0  0
  -22.3190  -14.5960   20.7020 O   0  0  0  0  0  0  0  0  0  0  0  0
  -22.4060  -12.0230   22.5030 H   0  0  0  0  0  0  0  0  0  0  0  0
  -21.0830  -13.1340   22.2650 H   0  0  0  0  0  0  0  0  0  0  0  0
  -25.3520  -15.2750   20.4110 N   0  0  0  0  0  0  0  0  0  0  0  0
  -24.5510  -15.8920   20.4810 H   0  0  0  0  0  0  0  0  0  0  0  0
  -26.1740  -15.7450   20.0560 H   0  0  0  0  0  0  0  0  0  0  0  0
  -28.6650  -21.8410   18.6450 C   0  0  0  0  0  2  0  0  0  0  0  0
  -29.6900  -22.1410   16.2960 C   0  0  0  0  0  1  0  0  0  0  0  0
  -29.9470  -22.0520   17.8070 C   0  0  0  0  0  2  0  0  0  0  0  0
  -28.9440  -23.3760   20.6700 C   0  0  0  0  0  3  0  0  0  0  0  0
  -28.1250  -24.7180   20.0450 C   0  0  0  0  0  3  0  0  0  0  0  0
  -28.3080  -26.2200   20.4280 O   0  0  0  0  0  0  0  0  0  0  0  0
  -24.5790  -31.9040   23.2900 C   0  0  0  0  0  0  0  0  0  0  0  0
  -27.2480  -27.1950   20.3240 C   0  0  0  0  0  0  0  0  0  0  0  0
  -23.4180  -30.4810   21.6480 C   0  0  0  0  0  3  0  0  0  0  0  0
  -24.9050  -28.9150   20.2510 C   0  0  0  0  0  0  0  0  0  0  0  0
  -25.9750  -30.7660   21.5280 C   0  0  0  0  0  2  0  0  0  0  0  0
  -26.0690  -29.3740   20.8800 C   0  0  0  0  0  0  0  0  0  0  0  0
  -27.2400  -28.5270   20.9070 C   0  0  0  0  0  3  0  0  0  0  0  0
  -26.0630  -26.8440   19.6440 C   0  0  0  0  0  3  0  0  0  0  0  0
  -24.9140  -27.6630   19.6200 C   0  0  0  0  0  3  0  0  0  0  0  0
  -23.6730  -29.8040   20.2730 C   0  0  0  0  0  2  0  0  0  0  0  0
  -24.6760  -31.0720   22.2080 N   0  0  0  0  0  0  0  0  0  0  0  0
  -23.4800  -32.1850   23.7970 O   0  0  0  0  0  0  0  0  0  0  0  0
  -22.7380  -29.4720   22.6060 C   0  0  0  0  0  0  0  0  0  0  0  0
  -21.4130  -29.2790   22.4600 N   0  0  0  0  0  0  0  0  0  0  0  0
  -23.4050  -28.8660   23.4500 O   0  0  0  0  0  0  0  0  0  0  0  0
  -20.9320  -29.8250   21.7570 H   0  0  0  0  0  0  0  0  0  0  0  0
  -18.0410  -28.0480   22.9280 C   0  0  0  0  0  0  0  0  0  0  0  0
  -20.5930  -28.3400   23.2260 C   0  0  0  0  0  3  0  0  0  0  0  0
  -20.7170  -26.9040   22.6640 C   0  0  0  0  0  2  0  0  0  0  0  0
  -19.6340  -26.5620   21.6380 C   0  0  0  0  0  2  0  0  0  0  0  0
  -18.2420  -26.6960   22.2610 C   0  0  0  0  0  2  0  0  0  0  0  0
  -19.1440  -28.8260   23.3670 C   0  0  0  0  0  0  0  0  0  0  0  0
  -18.9030  -30.0890   23.9490 C   0  0  0  0  0  3  0  0  0  0  0  0
  -17.5900  -30.5750   24.0970 C   0  0  0  0  0  3  0  0  0  0  0  0
  -16.5010  -29.7940   23.6740 C   0  0  0  0  0  3  0  0  0  0  0  0
  -16.7260  -28.5320   23.0970 C   0  0  0  0  0  3  0  0  0  0  0  0
  -25.8410  -32.5590   23.9290 C   0  0  0  0  0  3  0  0  0  0  0  0
  -25.5260  -33.9670   24.2150 N   0  0  0  0  0  0  0  0  0  0  0  0
  -25.8660  -35.0020   23.4350 C   0  0  0  0  0  0  0  0  0  0  0  0
  -26.5510  -34.8710   22.4160 O   0  0  0  0  0  0  0  0  0  0  0  0
  -24.9320  -34.1420   25.0140 H   0  0  0  0  0  0  0  0  0  0  0  0
  -24.1540  -36.7910   22.9890 C   0  0  0  0  0  1  0  0  0  0  0  0
  -25.3730  -36.4060   23.8420 C   0  0  0  0  0  3  0  0  0  0  0  0
  -27.4850  -37.3180   24.7050 C   0  0  0  0  0  1  0  0  0  0  0  0
  -26.4120  -37.4520   23.7240 N   0  0  0  0  0  0  0  0  0  0  0  0
  -26.0070  -38.3790   23.8170 H   0  0  0  0  0  0  0  0  0  0  0  0
  -26.3190  -31.8270   25.2440 C   0  0  1  0  0  0  0  0  0  0  0  0
  -25.1910  -31.6110   26.2820 C   0  0  0  0  0  1  0  0  0  0  0  0
  -26.9290  -30.4430   24.9220 C   0  0  0  0  0  1  0  0  0  0  0  0
  -27.4480  -32.6450   25.9140 C   0  0  0  0  0  1  0  0  0  0  0  0
  1 47  1  0
  1  2  1  0
  2  3  2  0
  4  5  2  0
  4  2  1  0
  6 14  1  0
  7 12  1  0
  8  9  1  0
  8  7  1  0
 10  9  1  0
 10 19  1  0
 10 11  1  0
 12  6  1  0
 12 11  1  0
 13  6  2  0
 14 15  1  0
 14  5  1  0
 16 17  2  0
 17 36  1  0
 18 17  1  0
 18 21  1  0
 19 16  1  0
 19 20  1  0
 20 18  2  0
 21 22  1  0
 22 23  2  0
 24 27  1  0
 24 23  1  0
 25 24  2  0
 26 25  1  0
 26 21  2  0
 27 28  1  0
 28 29  1  0
 29 30  2  0
 31 30  1  0
 31 35  1  0
 32 31  2  0
 33 28  2  0
 33 32  1  0
 34 33  1  0
 36 37  1  0
 37 40  1  0
 37 39  1  0
 38 36  2  0
 41 42  1  0
 41 16  1  0
 43 41  1  0
 44  1  1  0
 45 46  1  0
 46 44  1  0
 48 49  1  0
 48 47  2  0
 50 61  2  0
 51 49  1  0
 51 56  1  0
 52 60  1  0
 52 62  1  0
 53 59  1  0
 53 55  1  0
 54 60  1  0
 55 56  2  0
 55 54  1  0
 57 51  2  0
 58 57  1  0
 58 53  2  0
 59 52  1  0
 60 50  1  0
 62 64  2  0
 63 62  1  0
 65 63  1  0
 66 75  2  0
 66 71  1  0
 67 63  1  0
 67 71  1  0
 68 67  1  0
 69 70  1  0
 69 68  1  0
 70 66  1  0
 71 72  2  0
 72 73  1  0
 74 73  2  0
 75 74  1  0
 76 50  1  0
 76 77  1  0
 76 86  1  0
 77 80  1  0
 78 82  1  0
 78 77  1  0
 79 78  2  0
 82 81  1  0
 84 85  1  0
 84 82  1  0
 84 83  1  0
 86 89  1  1
 86 87  1  0
 88 86  1  0
M  ISO  4   6 100  14 100  48 101  49 101
M  END
>  <TORSDO>  (8) 
F 23

>  <SCORE>  (8) 
-13.227

>  <name>  (8) 
7

>  <ligand_id>  (8) 
7

>  <original_smiles>  (8) 
[H]c1c([H])c([H])c2c(c1[H])C([H])([H])C([H])([H])C([H])([H])C2([H])N([H])C(=O)C1([H])N(C(=O)C([H])(N([H])C(=O)C([H])(N([H])C([H])([H])[H])C([H])([H])[H])C(C([H])([H])[H])(C([H])([H])[H])C([H])([H])[H])C([H])([H])c2c([H])c(OC([H])([H])C([H])([H])N(C(=S)C([H])([H])C([H])([H])N([H])C(=O)N3C([H])([H])C([H])([H])C([H])([H])C([H])(n4nc(-c5c([H])c([H])c(Oc6c([H])c([H])c(F)c([H])c6F)c([H])c5[H])c(C(=O)N([H])[H])c4N([H])[H])C3([H])[H])C([H])([H])C([H])([H])C([H])([H])[H])c([H])c([H])c2C1([H])[H]

>  <smiles>  (8) 
[H]c1c([H])c([H])c2c(c1[H])C([H])([H])C([H])([H])C([H])([H])C2([H])N([H])C(=O)C1([H])N(C(=O)C([H])(N([H])C(=O)C([H])(N([H])C([H])([H])[H])C([H])([H])[H])C(C([H])([H])[H])(C([H])([H])[H])C([H])([H])[H])C([H])([H])c2c([H])c(OC([H])([H])C([H])([H])N(C(=S)C([H])([H])C([H])([H])N([H])C(=O)N3C([H])([H])C([H])([H])C([H])([H])C([H])(n4nc(-c5c([H])c([H])c(Oc6c([H])c([H])c(F)c([H])c6F)c([H])c5[H])c(C(=O)N([H])[H])c4N([H])[H])C3([H])[H])C([H])([H])C([H])([H])C([H])([H])[H])c([H])c([H])c2C1([H])[H]

$$$$
8:0:0
     RDKit          3D

 94102  0  0  1  0  0  0  0  0999 V2000
  -29.0280  -18.4170   19.8890 C   0  0  0  0  0  3  0  0  0  0  0  0
  -30.2320  -20.1210   21.7240 C   0  0  0  0  0  2  0  0  0  0  0  0
  -28.9730  -19.8160   19.6770 C   0  0  0  0  0  0  0  0  0  0  0  0
  -29.5710  -20.6990   20.6140 C   0  0  0  0  0  0  0  0  0  0  0  0
  -29.7040  -17.8980   21.0200 C   0  0  0  0  0  0  0  0  0  0  0  0
  -30.2700  -18.7740   21.8850 N   0  0  0  0  0  0  0  0  0  0  0  0
  -30.7660  -18.4070   22.7000 H   0  0  0  0  0  0  0  0  0  0  0  0
  -28.3720  -20.3220   18.5240 N   0  0  0  0  0  0  0  0  0  0  0  0
  -28.2240  -21.3230   18.5180 H   0  0  0  0  0  0  0  0  0  0  0  0
  -27.5900  -19.8050   18.1420 H   0  0  0  0  0  0  0  0  0  0  0  0
  -29.8250  -16.3890   21.2920 C   0  0  0  0  0  2  0  0  0  0  0  0
  -30.9780  -14.5110   20.1030 C   0  0  0  0  0  0  0  0  0  0  0  0
  -30.6150  -12.3570   18.9700 C   0  0  0  0  0  2  0  0  0  0  0  0
  -29.6420  -12.5840   17.7940 C   0  0  0  0  0  2  0  0  0  0  0  0
  -28.1800  -12.4630   18.2690 C   0  0  0  0  0  2  0  0  0  0  0  0
  -27.8910  -13.2950   19.5490 C   0  0  0  0  0  3  0  0  0  0  0  0
  -28.9790  -13.0690   20.6220 C   0  0  0  0  0  2  0  0  0  0  0  0
  -30.2810  -13.3490   20.0030 N   0  0  0  0  0  0  0  0  0  0  0  0
  -32.1400  -14.6270   19.7190 O   0  0  0  0  0  0  0  0  0  0  0  0
  -30.2270  -15.6260   20.1090 N   0  0  0  0  0  0  0  0  0  0  0  0
  -30.6130  -16.2660   19.4320 H   0  0  0  0  0  0  0  0  0  0  0  0
  -25.5250  -13.9200   20.3420 C   0  0  0  0  0  0  0  0  0  0  0  0
  -24.4590  -13.1550   20.7320 C   0  0  0  0  0  0  0  0  0  0  0  0
  -24.9050  -11.7980   20.6760 C   0  0  0  0  0  0  0  0  0  0  0  0
  -26.5520  -13.0290   20.0700 N   0  0  0  0  0  0  0  0  0  0  0  0
  -26.1850  -11.7480   20.3300 N   0  0  0  0  0  0  0  0  0  0  0  0
  -24.1710  -10.5420   20.8730 C   0  0  0  0  0  0  0  0  0  0  0  0
  -24.5950   -9.5780   21.8130 C   0  0  0  0  0  3  0  0  0  0  0  0
  -23.8620   -8.3870   21.9990 C   0  0  0  0  0  3  0  0  0  0  0  0
  -22.6890   -8.1500   21.2420 C   0  0  0  0  0  0  0  0  0  0  0  0
  -22.2840   -9.1030   20.2900 C   0  0  0  0  0  3  0  0  0  0  0  0
  -23.0190  -10.2850   20.1030 C   0  0  0  0  0  3  0  0  0  0  0  0
  -21.9280   -7.0110   21.3370 O   0  0  0  0  0  0  0  0  0  0  0  0
  -21.8420   -6.2970   22.5060 C   0  0  0  0  0  0  0  0  0  0  0  0
  -21.3740   -6.8810   23.7020 C   0  0  0  0  0  3  0  0  0  0  0  0
  -21.2330   -6.0940   24.8620 C   0  0  0  0  0  3  0  0  0  0  0  0
  -21.5510   -4.7230   24.8270 C   0  0  0  0  0  0  0  0  0  0  0  0
  -22.0140   -4.1380   23.6340 C   0  0  0  0  0  3  0  0  0  0  0  0
  -22.1550   -4.9230   22.4770 C   0  0  0  0  0  0  0  0  0  0  0  0
  -22.5790   -4.3500   21.3250 F   0  0  0  0  0  0  0  0  0  0  0  0
  -21.4100   -3.9640   25.9390 F   0  0  0  0  0  0  0  0  0  0  0  0
  -23.0750  -13.6450   21.0470 C   0  0  0  0  0  0  0  0  0  0  0  0
  -22.3650  -12.9520   21.9300 N   0  0  0  0  0  0  0  0  0  0  0  0
  -22.6320  -14.6760   20.5420 O   0  0  0  0  0  0  0  0  0  0  0  0
  -22.7350  -12.1180   22.3590 H   0  0  0  0  0  0  0  0  0  0  0  0
  -21.4370  -13.2630   22.1820 H   0  0  0  0  0  0  0  0  0  0  0  0
  -25.7030  -15.2910   20.1780 N   0  0  0  0  0  0  0  0  0  0  0  0
  -24.9450  -15.9510   20.3160 H   0  0  0  0  0  0  0  0  0  0  0  0
  -26.5440  -15.7200   19.8170 H   0  0  0  0  0  0  0  0  0  0  0  0
  -29.6040  -22.0730   20.4190 O   0  0  0  0  0  0  0  0  0  0  0  0
  -28.3720  -22.7860   20.5890 C   0  0  0  0  0  2  0  0  0  0  0  0
  -28.4010  -24.1720   19.8790 C   0  0  0  0  0  2  0  0  0  0  0  0
  -28.4120  -25.4000   20.8260 C   0  0  0  0  0  2  0  0  0  0  0  0
  -28.4950  -26.6710   20.1490 O   0  0  0  0  0  0  0  0  0  0  0  0
  -24.6230  -31.8170   23.1960 C   0  0  0  0  0  0  0  0  0  0  0  0
  -27.3320  -27.4100   20.1280 C   0  0  0  0  0  0  0  0  0  0  0  0
  -23.4470  -30.4210   21.5270 C   0  0  0  0  0  3  0  0  0  0  0  0
  -24.9290  -28.9030   20.1110 C   0  0  0  0  0  0  0  0  0  0  0  0
  -25.9720  -30.7980   21.3640 C   0  0  0  0  0  2  0  0  0  0  0  0
  -26.0760  -29.4320   20.7150 C   0  0  0  0  0  0  0  0  0  0  0  0
  -27.2840  -28.6980   20.7130 C   0  0  0  0  0  3  0  0  0  0  0  0
  -26.1690  -26.8950   19.5180 C   0  0  0  0  0  3  0  0  0  0  0  0
  -24.9710  -27.6350   19.5050 C   0  0  0  0  0  3  0  0  0  0  0  0
  -23.6780  -29.7530   20.1460 C   0  0  0  0  0  2  0  0  0  0  0  0
  -24.6980  -31.0270   22.0870 N   0  0  0  0  0  0  0  0  0  0  0  0
  -23.5320  -32.0780   23.7240 O   0  0  0  0  0  0  0  0  0  0  0  0
  -22.7910  -29.3880   22.4720 C   0  0  0  0  0  0  0  0  0  0  0  0
  -21.4680  -29.2080   22.3340 N   0  0  0  0  0  0  0  0  0  0  0  0
  -23.4700  -28.7540   23.2840 O   0  0  0  0  0  0  0  0  0  0  0  0
  -20.9800  -29.7750   21.6550 H   0  0  0  0  0  0  0  0  0  0  0  0
  -18.0900  -28.0130   22.8000 C   0  0  0  0  0  0  0  0  0  0  0  0
  -20.6460  -28.2620   23.0870 C   0  0  0  0  0  3  0  0  0  0  0  0
  -20.7490  -26.8390   22.4890 C   0  0  0  0  0  2  0  0  0  0  0  0
  -19.6500  -26.5330   21.4660 C   0  0  0  0  0  2  0  0  0  0  0  0
  -18.2670  -26.6740   22.1060 C   0  0  0  0  0  2  0  0  0  0  0  0
  -19.2080  -28.7670   23.2470 C   0  0  0  0  0  0  0  0  0  0  0  0
  -18.9890  -30.0220   23.8540 C   0  0  0  0  0  3  0  0  0  0  0  0
  -17.6850  -30.5240   24.0220 C   0  0  0  0  0  3  0  0  0  0  0  0
  -16.5810  -29.7670   23.5910 C   0  0  0  0  0  3  0  0  0  0  0  0
  -16.7840  -28.5150   22.9860 C   0  0  0  0  0  3  0  0  0  0  0  0
  -25.8960  -32.4510   23.8380 C   0  0  0  0  0  3  0  0  0  0  0  0
  -25.5800  -33.8480   24.1640 N   0  0  0  0  0  0  0  0  0  0  0  0
  -25.9230  -34.9020   23.4110 C   0  0  0  0  0  0  0  0  0  0  0  0
  -26.6100  -34.8010   22.3910 O   0  0  0  0  0  0  0  0  0  0  0  0
  -24.9740  -34.0020   24.9570 H   0  0  0  0  0  0  0  0  0  0  0  0
  -24.1950  -36.6880   23.0240 C   0  0  0  0  0  1  0  0  0  0  0  0
  -25.4230  -36.2890   23.8590 C   0  0  0  0  0  3  0  0  0  0  0  0
  -27.5390  -37.1790   24.7330 C   0  0  0  0  0  1  0  0  0  0  0  0
  -26.4550  -37.3450   23.7660 N   0  0  0  0  0  0  0  0  0  0  0  0
  -26.0440  -38.2640   23.9040 H   0  0  0  0  0  0  0  0  0  0  0  0
  -26.3990  -31.6780   25.1180 C   0  0  1  0  0  0  0  0  0  0  0  0
  -25.2900  -31.4370   26.1700 C   0  0  0  0  0  1  0  0  0  0  0  0
  -26.9920  -30.3040   24.7290 C   0  0  0  0  0  1  0  0  0  0  0  0
  -27.5370  -32.4760   25.7990 C   0  0  0  0  0  1  0  0  0  0  0  0
  1  5  2  0
  2  6  1  0
  3  1  1  0
  3  4  2  0
  4  2  1  0
  5 11  1  0
  5  6  1  0
  6  7  1  0
  8  3  1  0
  9  8  1  0
 10  8  1  0
 12 20  1  0
 13 18  1  0
 14 15  1  0
 14 13  1  0
 16 15  1  0
 16 25  1  0
 16 17  1  0
 18 12  1  0
 18 17  1  0
 19 12  2  0
 20 11  1  0
 21 20  1  0
 22 23  2  0
 23 42  1  0
 24 23  1  0
 24 27  1  0
 25 26  1  0
 25 22  1  0
 26 24  2  0
 27 28  1  0
 28 29  2  0
 30 33  1  0
 30 29  1  0
 31 30  2  0
 32 31  1  0
 32 27  2  0
 33 34  1  0
 34 35  1  0
 35 36  2  0
 37 36  1  0
 37 41  1  0
 38 37  2  0
 39 34  2  0
 39 38  1  0
 40 39  1  0
 42 43  1  0
 43 46  1  0
 43 45  1  0
 44 42  2  0
 47 48  1  0
 47 22  1  0
 49 47  1  0
 50 51  1  0
 50  4  1  0
 52 51  1  0
 52 53  1  0
 54 53  1  0
 55 66  2  0
 56 54  1  0
 56 61  1  0
 57 65  1  0
 57 67  1  0
 58 64  1  0
 58 60  1  0
 59 65  1  0
 60 59  1  0
 61 60  2  0
 62 56  2  0
 63 62  1  0
 63 58  2  0
 64 57  1  0
 65 55  1  0
 67 69  2  0
 68 67  1  0
 70 68  1  0
 71 80  2  0
 71 76  1  0
 72 68  1  0
 72 76  1  0
 73 72  1  0
 74 75  1  0
 74 73  1  0
 75 71  1  0
 76 77  2  0
 77 78  1  0
 79 78  2  0
 80 79  1  0
 81 55  1  0
 81 82  1  0
 81 91  1  0
 82 85  1  0
 83 87  1  0
 83 82  1  0
 84 83  2  0
 87 86  1  0
 89 87  1  0
 89 90  1  0
 89 88  1  0
 91 94  1  1
 91 92  1  0
 93 91  1  0
M  ISO  4  12 100  20 100  53 101  54 101
M  END
>  <TORSDO>  (9) 
F 22

>  <SCORE>  (9) 
-13.225

>  <name>  (9) 
8

>  <ligand_id>  (9) 
8

>  <original_smiles>  (9) 
[H]c1c([H])c([H])c2c(c1[H])C([H])([H])C([H])([H])C([H])([H])C2([H])N([H])C(=O)C1([H])N(C(=O)C([H])(N([H])C(=O)C([H])(N([H])C([H])([H])[H])C([H])([H])[H])C(C([H])([H])[H])(C([H])([H])[H])C([H])([H])[H])C([H])([H])c2c([H])c(OC([H])([H])C([H])([H])C([H])([H])Oc3c(N([H])[H])c([H])c(C([H])([H])N([H])C(=O)N4C([H])([H])C([H])([H])C([H])([H])C([H])(n5nc(-c6c([H])c([H])c(Oc7c([H])c([H])c(F)c([H])c7F)c([H])c6[H])c(C(=O)N([H])[H])c5N([H])[H])C4([H])[H])[n+]([H])c3[H])c([H])c([H])c2C1([H])[H]

>  <smiles>  (9) 
[H]c1c([H])c([H])c2c(c1[H])C([H])([H])C([H])([H])C([H])([H])C2([H])N([H])C(=O)C1([H])N(C(=O)C([H])(N([H])C(=O)C([H])(N([H])C([H])([H])[H])C([H])([H])[H])C(C([H])([H])[H])(C([H])([H])[H])C([H])([H])[H])C([H])([H])c2c([H])c(OC([H])([H])C([H])([H])C([H])([H])Oc3c(N([H])[H])c([H])c(C([H])([H])N([H])C(=O)N4C([H])([H])C([H])([H])C([H])([H])C([H])(n5nc(-c6c([H])c([H])c(Oc7c([H])c([H])c(F)c([H])c7F)c([H])c6[H])c(C(=O)N([H])[H])c5N([H])[H])C4([H])[H])[n+]([H])c3[H])c([H])c([H])c2C1([H])[H]

$$$$
9:0:0
     RDKit          3D

 96105  0  0  1  0  0  0  0  0999 V2000
  -28.5370  -23.8330   20.0880 C   0  0  0  0  0  0  0  0  0  0  0  0
  -28.3440  -25.1540   19.6530 C   0  0  0  0  0  3  0  0  0  0  0  0
  -28.5410  -23.2970   21.5100 C   0  0  0  0  0  3  0  0  0  0  0  0
  -28.7750  -21.7400   21.4670 C   0  0  0  0  0  3  0  0  0  0  0  0
  -28.8270  -22.5510   19.2150 C   0  0  0  0  0  3  0  0  0  0  0  0
  -29.0120  -21.3260   20.0850 N   0  0  0  0  0  0  0  0  0  0  0  0
  -29.1400  -19.6700   18.2640 C   0  0  0  0  0  3  0  0  0  0  0  0
  -29.4560  -18.7240   20.4730 C   0  0  0  0  0  3  0  0  0  0  0  0
  -29.6600  -17.2800   18.5180 C   0  0  0  0  0  3  0  0  0  0  0  0
  -29.2030  -19.9240   19.6540 C   0  0  0  0  0  0  0  0  0  0  0  0
  -29.3620  -18.3930   17.7080 C   0  0  0  0  0  0  0  0  0  0  0  0
  -29.7090  -17.3770   19.9260 C   0  0  0  0  0  0  0  0  0  0  0  0
  -30.6400  -14.9470   20.3630 C   0  0  0  0  0  0  0  0  0  0  0  0
  -30.5050  -12.6310   19.4130 C   0  0  0  0  0  2  0  0  0  0  0  0
  -29.5910  -12.6810   18.1650 C   0  0  0  0  0  2  0  0  0  0  0  0
  -28.1170  -12.4980   18.5690 C   0  0  0  0  0  2  0  0  0  0  0  0
  -27.7200  -13.3870   19.7760 C   0  0  0  0  0  3  0  0  0  0  0  0
  -28.7570  -13.3210   20.9190 C   0  0  0  0  0  2  0  0  0  0  0  0
  -30.0550  -13.6940   20.3480 N   0  0  0  0  0  0  0  0  0  0  0  0
  -31.8140  -15.0560   19.9950 O   0  0  0  0  0  0  0  0  0  0  0  0
  -29.8700  -16.0780   20.6690 N   0  0  0  0  0  0  0  0  0  0  0  0
  -29.0870  -15.8690   21.2700 H   0  0  0  0  0  0  0  0  0  0  0  0
  -25.3230  -13.9730   20.4610 C   0  0  0  0  0  0  0  0  0  0  0  0
  -24.2530  -13.1960   20.8140 C   0  0  0  0  0  0  0  0  0  0  0  0
  -24.7220  -11.8480   20.8030 C   0  0  0  0  0  0  0  0  0  0  0  0
  -26.3710  -13.0940   20.2470 N   0  0  0  0  0  0  0  0  0  0  0  0
  -26.0170  -11.8120   20.5210 N   0  0  0  0  0  0  0  0  0  0  0  0
  -24.0000  -10.5830   20.9920 C   0  0  0  0  0  0  0  0  0  0  0  0
  -24.4240   -9.6250   21.9400 C   0  0  0  0  0  3  0  0  0  0  0  0
  -23.7000   -8.4260   22.1180 C   0  0  0  0  0  3  0  0  0  0  0  0
  -22.5370   -8.1770   21.3510 C   0  0  0  0  0  0  0  0  0  0  0  0
  -22.1330   -9.1250   20.3930 C   0  0  0  0  0  3  0  0  0  0  0  0
  -22.8580  -10.3150   20.2120 C   0  0  0  0  0  3  0  0  0  0  0  0
  -21.7900   -7.0280   21.4370 O   0  0  0  0  0  0  0  0  0  0  0  0
  -21.7320   -6.2900   22.5930 C   0  0  0  0  0  0  0  0  0  0  0  0
  -21.2920   -6.8490   23.8130 C   0  0  0  0  0  3  0  0  0  0  0  0
  -21.1800   -6.0380   24.9580 C   0  0  0  0  0  3  0  0  0  0  0  0
  -21.5000   -4.6690   24.8880 C   0  0  0  0  0  0  0  0  0  0  0  0
  -21.9370   -4.1110   23.6740 C   0  0  0  0  0  3  0  0  0  0  0  0
  -22.0490   -4.9180   22.5270 C   0  0  0  0  0  0  0  0  0  0  0  0
  -22.4460   -4.3710   21.3530 F   0  0  0  0  0  0  0  0  0  0  0  0
  -21.3880   -3.8860   25.9860 F   0  0  0  0  0  0  0  0  0  0  0  0
  -22.8520  -13.6710   21.0560 C   0  0  0  0  0  0  0  0  0  0  0  0
  -22.1140  -12.9790   21.9190 N   0  0  0  0  0  0  0  0  0  0  0  0
  -22.4170  -14.6850   20.5140 O   0  0  0  0  0  0  0  0  0  0  0  0
  -22.4780  -12.1520   22.3690 H   0  0  0  0  0  0  0  0  0  0  0  0
  -21.1740  -13.2820   22.1280 H   0  0  0  0  0  0  0  0  0  0  0  0
  -25.4940  -15.3420   20.2860 N   0  0  0  0  0  0  0  0  0  0  0  0
  -24.7470  -16.0130   20.4290 H   0  0  0  0  0  0  0  0  0  0  0  0
  -26.3670  -15.7750   20.0160 H   0  0  0  0  0  0  0  0  0  0  0  0
  -29.2690  -18.2290   16.3250 N   0  0  0  0  0  0  0  0  0  0  0  0
  -28.7060  -18.9060   15.8200 H   0  0  0  0  0  0  0  0  0  0  0  0
  -29.1280  -17.2900   15.9700 H   0  0  0  0  0  0  0  0  0  0  0  0
  -29.7160  -23.3270   16.9040 C   0  0  0  0  0  1  0  0  0  0  0  0
  -30.0590  -22.7980   18.3060 C   0  0  0  0  0  2  0  0  0  0  0  0
  -28.2630  -26.4070   20.3510 O   0  0  0  0  0  0  0  0  0  0  0  0
  -24.5630  -31.9600   23.2450 C   0  0  0  0  0  0  0  0  0  0  0  0
  -27.1940  -27.3320   20.2160 C   0  0  0  0  0  0  0  0  0  0  0  0
  -23.3780  -30.5500   21.6010 C   0  0  0  0  0  3  0  0  0  0  0  0
  -24.8430  -28.9940   20.1870 C   0  0  0  0  0  0  0  0  0  0  0  0
  -25.9250  -30.8600   21.4430 C   0  0  0  0  0  2  0  0  0  0  0  0
  -26.0110  -29.4760   20.7890 C   0  0  0  0  0  0  0  0  0  0  0  0
  -27.1870  -28.6530   20.7990 C   0  0  0  0  0  3  0  0  0  0  0  0
  -26.0030  -26.9280   19.5810 C   0  0  0  0  0  3  0  0  0  0  0  0
  -24.8430  -27.7290   19.5790 C   0  0  0  0  0  3  0  0  0  0  0  0
  -23.6100  -29.8760   20.2240 C   0  0  0  0  0  2  0  0  0  0  0  0
  -24.6390  -31.1430   22.1510 N   0  0  0  0  0  0  0  0  0  0  0  0
  -23.4750  -32.2370   23.7720 O   0  0  0  0  0  0  0  0  0  0  0  0
  -22.7100  -29.5370   22.5670 C   0  0  0  0  0  0  0  0  0  0  0  0
  -21.3830  -29.3530   22.4440 N   0  0  0  0  0  0  0  0  0  0  0  0
  -23.3890  -28.9170   23.3890 O   0  0  0  0  0  0  0  0  0  0  0  0
  -20.8900  -29.9110   21.7610 H   0  0  0  0  0  0  0  0  0  0  0  0
  -18.0110  -28.1380   22.9640 C   0  0  0  0  0  0  0  0  0  0  0  0
  -20.5700  -28.4130   23.2210 C   0  0  0  0  0  3  0  0  0  0  0  0
  -20.6760  -26.9790   22.6560 C   0  0  0  0  0  2  0  0  0  0  0  0
  -19.5730  -26.6460   21.6460 C   0  0  0  0  0  2  0  0  0  0  0  0
  -18.1920  -26.7880   22.2910 C   0  0  0  0  0  2  0  0  0  0  0  0
  -19.1270  -28.9080   23.3880 C   0  0  0  0  0  0  0  0  0  0  0  0
  -18.9030  -30.1690   23.9810 C   0  0  0  0  0  3  0  0  0  0  0  0
  -17.5960  -30.6640   24.1470 C   0  0  0  0  0  3  0  0  0  0  0  0
  -16.4950  -29.8950   23.7340 C   0  0  0  0  0  3  0  0  0  0  0  0
  -16.7040  -28.6330   23.1500 C   0  0  0  0  0  3  0  0  0  0  0  0
  -25.8390  -32.6050   23.8680 C   0  0  0  0  0  3  0  0  0  0  0  0
  -26.3540  -31.8470   25.1540 C   0  0  1  0  0  0  0  0  0  0  0  0
  -25.2570  -31.6160   26.2210 C   0  0  0  0  0  1  0  0  0  0  0  0
  -26.9460  -30.4670   24.7840 C   0  0  0  0  0  1  0  0  0  0  0  0
  -27.5000  -32.6540   25.8090 C   0  0  0  0  0  1  0  0  0  0  0  0
  -25.5210  -34.0050   24.1870 N   0  0  0  0  0  0  0  0  0  0  0  0
  -25.8650  -35.0550   23.4310 C   0  0  0  0  0  0  0  0  0  0  0  0
  -26.5480  -34.9480   22.4080 O   0  0  0  0  0  0  0  0  0  0  0  0
  -24.9170  -34.1650   24.9810 H   0  0  0  0  0  0  0  0  0  0  0  0
  -24.1540  -36.8560   23.0310 C   0  0  0  0  0  1  0  0  0  0  0  0
  -25.3720  -36.4470   23.8750 C   0  0  0  0  0  3  0  0  0  0  0  0
  -27.4860  -37.3240   24.7610 C   0  0  0  0  0  1  0  0  0  0  0  0
  -26.4110  -37.4950   23.7890 N   0  0  0  0  0  0  0  0  0  0  0  0
  -26.0040  -38.4160   23.9270 H   0  0  0  0  0  0  0  0  0  0  0  0
  1  3  1  0
  2  1  2  0
  2 56  1  0
  4  3  2  0
  5 55  1  0
  5  6  1  0
  5  1  1  0
  6  4  1  0
  7 10  1  0
  9 12  2  0
 10  6  1  0
 10  8  2  0
 11  7  2  0
 11  9  1  0
 12  8  1  0
 12 21  1  0
 13 21  1  0
 14 19  1  0
 15 16  1  0
 15 14  1  0
 17 16  1  0
 17 26  1  0
 17 18  1  0
 19 13  1  0
 19 18  1  0
 20 13  2  0
 21 22  1  0
 23 24  2  0
 24 43  1  0
 25 24  1  0
 25 28  1  0
 26 23  1  0
 26 27  1  0
 27 25  2  0
 28 29  1  0
 29 30  2  0
 31 34  1  0
 31 30  1  0
 32 31  2  0
 33 32  1  0
 33 28  2  0
 34 35  1  0
 35 36  1  0
 36 37  2  0
 38 37  1  0
 38 42  1  0
 39 38  2  0
 40 35  2  0
 40 39  1  0
 41 40  1  0
 43 44  1  0
 44 47  1  0
 44 46  1  0
 45 43  2  0
 48 49  1  0
 48 23  1  0
 50 48  1  0
 51 11  1  0
 52 51  1  0
 53 51  1  0
 54 55  1  0
 57 68  2  0
 58 56  1  0
 58 63  1  0
 59 67  1  0
 59 69  1  0
 60 66  1  0
 60 62  1  0
 61 67  1  0
 62 63  2  0
 62 61  1  0
 64 58  2  0
 65 64  1  0
 65 60  2  0
 66 59  1  0
 67 57  1  0
 69 71  2  0
 70 69  1  0
 72 70  1  0
 73 82  2  0
 73 78  1  0
 74 70  1  0
 74 78  1  0
 75 74  1  0
 76 77  1  0
 76 75  1  0
 77 73  1  0
 78 79  2  0
 79 80  1  0
 81 80  2  0
 82 81  1  0
 83 57  1  0
 83 88  1  0
 83 84  1  0
 84 87  1  1
 84 85  1  0
 86 84  1  0
 88 91  1  0
 89 93  1  0
 89 88  1  0
 90 89  2  0
 93 92  1  0
 95 93  1  0
 95 96  1  0
 95 94  1  0
M  ISO  4   2 101  13 100  21 100  56 101
M  END
>  <TORSDO>  (10) 
F 19

>  <SCORE>  (10) 
-14.670

>  <name>  (10) 
9

>  <ligand_id>  (10) 
9

>  <original_smiles>  (10) 
[H]C(Oc1c([H])c([H])c2c(c1[H])C([H])([H])N(C(=O)C([H])(N([H])C(=O)C([H])(N([H])C([H])([H])[H])C([H])([H])[H])C(C([H])([H])[H])(C([H])([H])[H])C([H])([H])[H])C([H])(C(=O)N([H])C1([H])c3c([H])c([H])c([H])c([H])c3C([H])([H])C([H])([H])C1([H])[H])C2([H])[H])=C1C([H])([H])C([H])([H])N(c2c([H])c(N([H])[H])c([H])c(N([H])C(=O)N3C([H])([H])C([H])([H])C([H])([H])C([H])(n4nc(-c5c([H])c([H])c(Oc6c([H])c([H])c(F)c([H])c6F)c([H])c5[H])c(C(=O)N([H])[H])c4N([H])[H])C3([H])[H])c2[H])C1([H])C([H])([H])C([H])([H])[H]

>  <smiles>  (10) 
[H]C(Oc1c([H])c([H])c2c(c1[H])C([H])([H])N(C(=O)C([H])(N([H])C(=O)C([H])(N([H])C([H])([H])[H])C([H])([H])[H])C(C([H])([H])[H])(C([H])([H])[H])C([H])([H])[H])C([H])(C(=O)N([H])C1([H])c3c([H])c([H])c([H])c([H])c3C([H])([H])C([H])([H])C1([H])[H])C2([H])[H])=C1C([H])([H])C([H])([H])N(c2c([H])c(N([H])[H])c([H])c(N([H])C(=O)N3C([H])([H])C([H])([H])C([H])([H])C([H])(n4nc(-c5c([H])c([H])c(Oc6c([H])c([H])c(F)c([H])c6F)c([H])c5[H])c(C(=O)N([H])[H])c4N([H])[H])C3([H])[H])c2[H])C1([H])C([H])([H])C([H])([H])[H]

$$$$
10:0:0
     RDKit          3D

 99108  0  0  1  0  0  0  0  0999 V2000
  -30.1220  -19.3810   22.1170 C   0  0  0  0  0  3  0  0  0  0  0  0
  -30.1550  -18.4000   19.8920 C   0  0  0  0  0  3  0  0  0  0  0  0
  -30.8960  -17.0750   21.8030 C   0  0  0  0  0  3  0  0  0  0  0  0
  -29.8850  -19.5720   20.7370 C   0  0  0  0  0  0  0  0  0  0  0  0
  -30.6280  -18.1730   22.6470 C   0  0  0  0  0  0  0  0  0  0  0  0
  -30.6720  -17.1260   20.4120 C   0  0  0  0  0  0  0  0  0  0  0  0
  -31.5460  -14.6620   19.8840 C   0  0  0  0  0  0  0  0  0  0  0  0
  -31.2720  -12.3640   18.9030 C   0  0  0  0  0  2  0  0  0  0  0  0
  -30.2830  -12.4190   17.7180 C   0  0  0  0  0  2  0  0  0  0  0  0
  -28.8240  -12.3040   18.2070 C   0  0  0  0  0  2  0  0  0  0  0  0
  -28.5200  -13.2340   19.4120 C   0  0  0  0  0  3  0  0  0  0  0  0
  -29.6190  -13.1380   20.4900 C   0  0  0  0  0  2  0  0  0  0  0  0
  -30.8920  -13.4510   19.8310 N   0  0  0  0  0  0  0  0  0  0  0  0
  -32.7620  -14.7120   19.6720 O   0  0  0  0  0  0  0  0  0  0  0  0
  -30.7540  -15.8010   19.7320 N   0  0  0  0  0  0  0  0  0  0  0  0
  -29.8370  -15.5000   19.4410 H   0  0  0  0  0  0  0  0  0  0  0  0
  -26.1970  -13.9440   20.2340 C   0  0  0  0  0  0  0  0  0  0  0  0
  -25.1080  -13.2230   20.6390 C   0  0  0  0  0  0  0  0  0  0  0  0
  -25.5030  -11.8500   20.5940 C   0  0  0  0  0  0  0  0  0  0  0  0
  -27.1860  -13.0120   19.9580 N   0  0  0  0  0  0  0  0  0  0  0  0
  -26.7790  -11.7500   20.2390 N   0  0  0  0  0  0  0  0  0  0  0  0
  -24.7230  -10.6250   20.8070 C   0  0  0  0  0  0  0  0  0  0  0  0
  -25.0290   -9.7270   21.8530 C   0  0  0  0  0  3  0  0  0  0  0  0
  -24.2510   -8.5670   22.0510 C   0  0  0  0  0  3  0  0  0  0  0  0
  -23.1510   -8.2960   21.2010 C   0  0  0  0  0  0  0  0  0  0  0  0
  -22.8650   -9.1810   20.1470 C   0  0  0  0  0  3  0  0  0  0  0  0
  -23.6440  -10.3340   19.9490 C   0  0  0  0  0  3  0  0  0  0  0  0
  -22.3560   -7.1810   21.3020 O   0  0  0  0  0  0  0  0  0  0  0  0
  -22.0360   -6.6310   22.5180 C   0  0  0  0  0  0  0  0  0  0  0  0
  -21.3430   -7.3630   23.5060 C   0  0  0  0  0  3  0  0  0  0  0  0
  -20.9730   -6.7390   24.7150 C   0  0  0  0  0  3  0  0  0  0  0  0
  -21.2870   -5.3850   24.9330 C   0  0  0  0  0  0  0  0  0  0  0  0
  -21.9740   -4.6530   23.9470 C   0  0  0  0  0  3  0  0  0  0  0  0
  -22.3440   -5.2740   22.7420 C   0  0  0  0  0  0  0  0  0  0  0  0
  -22.9860   -4.5590   21.7870 F   0  0  0  0  0  0  0  0  0  0  0  0
  -20.9260   -4.7820   26.0900 F   0  0  0  0  0  0  0  0  0  0  0  0
  -23.7450  -13.7680   20.9540 C   0  0  0  0  0  0  0  0  0  0  0  0
  -23.0290  -13.1340   21.8760 N   0  0  0  0  0  0  0  0  0  0  0  0
  -23.3280  -14.7940   20.4170 O   0  0  0  0  0  0  0  0  0  0  0  0
  -23.3810  -12.3040   22.3310 H   0  0  0  0  0  0  0  0  0  0  0  0
  -22.1160  -13.4820   22.1300 H   0  0  0  0  0  0  0  0  0  0  0  0
  -26.4200  -15.3060   20.0530 N   0  0  0  0  0  0  0  0  0  0  0  0
  -25.6730  -15.9830   20.1600 H   0  0  0  0  0  0  0  0  0  0  0  0
  -27.2610  -15.7090   19.6600 H   0  0  0  0  0  0  0  0  0  0  0  0
  -32.0540  -18.9290   24.6250 C   0  0  0  0  0  1  0  0  0  0  0  0
  -30.8900  -18.0390   24.1450 C   0  0  0  0  0  3  0  0  0  0  0  0
  -29.6530  -18.2860   24.9010 N   0  0  0  0  0  4  0  0  0  0  0  0
  -29.3390  -19.2320   24.7830 H   0  0  0  0  0  0  0  0  0  0  0  0
  -29.7980  -18.1130   25.8800 H   0  0  0  0  0  0  0  0  0  0  0  0
  -28.9310  -17.6690   24.5780 H   0  0  0  0  0  0  0  0  0  0  0  0
  -29.5810  -21.1110   20.3320 C   0  0  0  0  0  2  0  0  0  0  0  0
  -27.5720  -21.0310   18.9310 C   0  0  0  0  0  0  0  0  0  0  0  0
  -26.2300  -21.6460   18.6080 C   0  0  0  0  0  3  0  0  0  0  0  0
  -26.1680  -22.9050   19.4620 C   0  0  0  0  0  3  0  0  0  0  0  0
  -27.4840  -23.0080   20.2640 C   0  0  0  0  0  3  0  0  0  0  0  0
  -28.2540  -21.7140   19.8650 N   0  0  0  0  0  0  0  0  0  0  0  0
  -27.9480  -19.9980   18.3700 O   0  0  0  0  0  0  0  0  0  0  0  0
  -28.0660  -24.5370   20.1520 C   0  0  0  0  0  2  0  0  0  0  0  0
  -27.6070  -25.6860   19.2620 O   0  0  0  0  0  0  0  0  0  0  0  0
  -24.8660  -31.3050   23.0840 C   0  0  0  0  0  0  0  0  0  0  0  0
  -26.5790  -26.6240   19.5360 C   0  0  0  0  0  0  0  0  0  0  0  0
  -23.3380  -30.1420   21.5340 C   0  0  0  0  0  3  0  0  0  0  0  0
  -24.4340  -28.5190   19.8850 C   0  0  0  0  0  0  0  0  0  0  0  0
  -25.8640  -30.1850   21.0660 C   0  0  0  0  0  2  0  0  0  0  0  0
  -25.7150  -28.8380   20.3540 C   0  0  0  0  0  0  0  0  0  0  0  0
  -26.7910  -27.9080   20.1550 C   0  0  0  0  0  3  0  0  0  0  0  0
  -25.2730  -26.3710   19.0740 C   0  0  0  0  0  3  0  0  0  0  0  0
  -24.2180  -27.2940   19.2340 C   0  0  0  0  0  3  0  0  0  0  0  0
  -23.3220  -29.5270   20.1100 C   0  0  0  0  0  2  0  0  0  0  0  0
  -24.7180  -30.5590   21.9500 N   0  0  0  0  0  0  0  0  0  0  0  0
  -23.8870  -31.6630   23.7570 O   0  0  0  0  0  0  0  0  0  0  0  0
  -22.6770  -29.1480   22.5200 C   0  0  0  0  0  0  0  0  0  0  0  0
  -21.3500  -28.9640   22.4000 N   0  0  0  0  0  0  0  0  0  0  0  0
  -23.3570  -28.5430   23.3520 O   0  0  0  0  0  0  0  0  0  0  0  0
  -20.8580  -29.5040   21.7030 H   0  0  0  0  0  0  0  0  0  0  0  0
  -18.0150  -27.6190   22.8070 C   0  0  0  0  0  0  0  0  0  0  0  0
  -20.5360  -28.0400   23.1930 C   0  0  0  0  0  3  0  0  0  0  0  0
  -20.7440  -26.5780   22.7300 C   0  0  0  0  0  2  0  0  0  0  0  0
  -19.7210  -26.1250   21.6840 C   0  0  0  0  0  2  0  0  0  0  0  0
  -18.2980  -26.2380   22.2420 C   0  0  0  0  0  2  0  0  0  0  0  0
  -19.0660  -28.4710   23.2380 C   0  0  0  0  0  0  0  0  0  0  0  0
  -18.7480  -29.7570   23.7240 C   0  0  0  0  0  3  0  0  0  0  0  0
  -17.4120  -30.1950   23.7850 C   0  0  0  0  0  3  0  0  0  0  0  0
  -16.3740  -29.3430   23.3690 C   0  0  0  0  0  3  0  0  0  0  0  0
  -16.6750  -28.0580   22.8860 C   0  0  0  0  0  3  0  0  0  0  0  0
  -26.2720  -31.7630   23.5810 C   0  0  0  0  0  3  0  0  0  0  0  0
  -26.1250  -33.1060   24.1630 N   0  0  0  0  0  0  0  0  0  0  0  0
  -26.5430  -34.2390   23.5820 C   0  0  0  0  0  0  0  0  0  0  0  0
  -27.1630  -34.2530   22.5160 O   0  0  0  0  0  0  0  0  0  0  0  0
  -25.5770  -33.1730   25.0080 H   0  0  0  0  0  0  0  0  0  0  0  0
  -25.0450  -36.2600   23.6000 C   0  0  0  0  0  1  0  0  0  0  0  0
  -26.2250  -35.5650   24.2990 C   0  0  0  0  0  3  0  0  0  0  0  0
  -28.4470  -36.0210   25.2420 C   0  0  0  0  0  1  0  0  0  0  0  0
  -27.3770  -36.4910   24.3640 N   0  0  0  0  0  0  0  0  0  0  0  0
  -27.0840  -37.4090   24.6870 H   0  0  0  0  0  0  0  0  0  0  0  0
  -26.9130  -30.7740   24.6330 C   0  0  1  0  0  0  0  0  0  0  0  0
  -25.9620  -30.3970   25.7920 C   0  0  0  0  0  1  0  0  0  0  0  0
  -27.3620  -29.4620   23.9480 C   0  0  0  0  0  1  0  0  0  0  0  0
  -28.1850  -31.4100   25.2420 C   0  0  0  0  0  1  0  0  0  0  0  0
  1  5  1  0
  2  6  2  0
  2  4  1  0
  3  5  2  0
  4  1  2  0
  5 46  1  0
  6  3  1  0
  8 13  1  0
  9 10  1  0
  9  8  1  0
 11 10  1  0
 11 20  1  0
 11 12  1  0
 13  7  1  0
 13 12  1  0
 14  7  2  0
 15  7  1  0
 15  6  1  0
 16 15  1  0
 17 18  2  0
 18 37  1  0
 19 18  1  0
 19 22  1  0
 20 17  1  0
 20 21  1  0
 21 19  2  0
 22 23  1  0
 23 24  2  0
 25 28  1  0
 25 24  1  0
 26 25  2  0
 27 26  1  0
 27 22  2  0
 28 29  1  0
 29 34  2  0
 29 30  1  0
 30 31  2  0
 31 32  1  0
 32 36  1  0
 33 32  2  0
 34 33  1  0
 35 34  1  0
 37 38  1  0
 38 41  1  0
 38 40  1  0
 39 37  2  0
 42 43  1  0
 42 17  1  0
 44 42  1  0
 46 45  1  0
 46 47  1  0
 47 49  1  0
 48 47  1  0
 50 47  1  0
 51  4  1  0
 52 56  1  0
 53 52  1  0
 53 54  2  0
 54 55  1  0
 55 58  1  0
 56 55  1  0
 56 51  1  0
 57 52  2  0
 59 61  1  0
 59 58  1  0
 60 71  2  0
 61 66  1  0
 62 70  1  0
 62 72  1  0
 63 69  1  0
 63 65  1  0
 64 70  1  0
 65 64  1  0
 66 65  2  0
 67 68  1  0
 67 61  2  0
 68 63  2  0
 69 62  1  0
 70 60  1  0
 72 74  2  0
 73 72  1  0
 75 73  1  0
 76 85  2  0
 76 81  1  0
 77 73  1  0
 77 81  1  0
 78 77  1  0
 79 80  1  0
 79 78  1  0
 80 76  1  0
 81 82  2  0
 82 83  1  0
 84 83  2  0
 85 84  1  0
 86 60  1  0
 86 87  1  0
 86 96  1  0
 87 90  1  0
 88 87  1  0
 88 92  1  0
 89 88  2  0
 92 91  1  0
 92 94  1  0
 94 95  1  0
 94 93  1  0
 96 99  1  1
 96 97  1  0
 98 96  1  0
M  ISO  4   7 100  15 100  58 101  59 101
M  END
>  <TORSDO>  (11) 
F 21

>  <SCORE>  (11) 
-6.041

>  <name>  (11) 
10

>  <ligand_id>  (11) 
10

>  <original_smiles>  (11) 
[H]c1c([H])c([H])c2c(c1[H])C([H])([H])C([H])([H])C([H])([H])C2([H])N([H])C(=O)C1([H])N(C(=O)C([H])(N([H])C(=O)C([H])(N([H])C([H])([H])[H])C([H])([H])[H])C(C([H])([H])[H])(C([H])([H])[H])C([H])([H])[H])C([H])([H])c2c([H])c(OC([H])([H])C3([H])N(C([H])([H])c4c([H])c(N([H])C(=O)N5C([H])([H])C([H])([H])C([H])([H])C([H])(n6nc(-c7c([H])c([H])c(Oc8c([H])c([H])c(F)c([H])c8F)c([H])c7[H])c(C(=O)N([H])[H])c6N([H])[H])C5([H])[H])c([H])c(C([H])(C([H])([H])[H])[N+]([H])([H])[H])c4[H])C(=O)C([H])([H])C3([H])[H])c([H])c([H])c2C1([H])[H]

>  <smiles>  (11) 
[H]c1c([H])c([H])c2c(c1[H])C([H])([H])C([H])([H])C([H])([H])C2([H])N([H])C(=O)C1([H])N(C(=O)C([H])(N([H])C(=O)C([H])(N([H])C([H])([H])[H])C([H])([H])[H])C(C([H])([H])[H])(C([H])([H])[H])C([H])([H])[H])C([H])([H])c2c([H])c(OC([H])([H])C3([H])N(C([H])([H])c4c([H])c(N([H])C(=O)N5C([H])([H])C([H])([H])C([H])([H])C([H])(n6nc(-c7c([H])c([H])c(Oc8c([H])c([H])c(F)c([H])c8F)c([H])c7[H])c(C(=O)N([H])[H])c6N([H])[H])C5([H])[H])c([H])c(C([H])(C([H])([H])[H])[N+]([H])([H])[H])c4[H])C(=O)C([H])([H])C3([H])[H])c([H])c([H])c2C1([H])[H]

$$$$
11:0:0
     RDKit          3D

 93102  0  0  1  0  0  0  0  0999 V2000
  -26.9830  -22.4910   18.2730 C   0  0  0  0  0  0  0  0  0  0  0  0
  -25.8240  -23.2710   18.8650 C   0  0  0  0  0  2  0  0  0  0  0  0
  -26.3930  -23.7150   20.2260 C   0  0  0  0  0  2  0  0  0  0  0  0
  -27.9110  -23.7700   19.9860 C   0  0  0  0  0  3  0  0  0  0  0  0
  -28.0940  -22.5930   19.0370 N   0  0  0  0  0  0  0  0  0  0  0  0
  -26.8620  -21.8330   17.2330 O   0  0  0  0  0  0  0  0  0  0  0  0
  -28.9500  -19.2640   20.7600 C   0  0  0  0  0  3  0  0  0  0  0  0
  -30.1350  -19.3380   18.6730 C   0  0  0  0  0  3  0  0  0  0  0  0
  -28.4310  -20.5720   20.5170 C   0  0  0  0  0  3  0  0  0  0  0  0
  -29.5910  -20.6370   18.4160 C   0  0  0  0  0  3  0  0  0  0  0  0
  -29.8310  -18.6140   19.8620 C   0  0  0  0  0  0  0  0  0  0  0  0
  -28.7380  -21.3050   19.3420 C   0  0  0  0  0  0  0  0  0  0  0  0
  -30.6340  -17.3220   20.2830 C   0  0  0  0  0  2  0  0  0  0  0  0
  -30.7830  -14.7710   20.2740 C   0  0  0  0  0  0  0  0  0  0  0  0
  -30.5330  -12.5010   19.3240 C   0  0  0  0  0  2  0  0  0  0  0  0
  -29.5880  -12.5940   18.1090 C   0  0  0  0  0  2  0  0  0  0  0  0
  -28.1260  -12.4150   18.5650 C   0  0  0  0  0  2  0  0  0  0  0  0
  -27.7540  -13.3120   19.7780 C   0  0  0  0  0  3  0  0  0  0  0  0
  -28.8290  -13.2620   20.8860 C   0  0  0  0  0  2  0  0  0  0  0  0
  -30.1210  -13.5700   20.2560 N   0  0  0  0  0  0  0  0  0  0  0  0
  -31.9810  -14.8230   20.0000 O   0  0  0  0  0  0  0  0  0  0  0  0
  -30.0510  -15.9310   20.3560 N   0  0  0  0  0  0  0  0  0  0  0  0
  -29.0630  -15.8430   20.5230 H   0  0  0  0  0  0  0  0  0  0  0  0
  -25.3830  -13.8930   20.5680 C   0  0  0  0  0  0  0  0  0  0  0  0
  -24.3210  -13.1080   20.9330 C   0  0  0  0  0  0  0  0  0  0  0  0
  -24.7790  -11.7580   20.8570 C   0  0  0  0  0  0  0  0  0  0  0  0
  -26.4190  -13.0140   20.2880 N   0  0  0  0  0  0  0  0  0  0  0  0
  -26.0640  -11.7240   20.5200 N   0  0  0  0  0  0  0  0  0  0  0  0
  -24.0440  -10.4950   21.0270 C   0  0  0  0  0  0  0  0  0  0  0  0
  -24.4610   -9.5240   21.9620 C   0  0  0  0  0  3  0  0  0  0  0  0
  -23.7310   -8.3260   22.1210 C   0  0  0  0  0  3  0  0  0  0  0  0
  -22.5750   -8.0880   21.3440 C   0  0  0  0  0  0  0  0  0  0  0  0
  -22.1730   -9.0510   20.4030 C   0  0  0  0  0  3  0  0  0  0  0  0
  -22.9020  -10.2410   20.2400 C   0  0  0  0  0  3  0  0  0  0  0  0
  -21.8250   -6.9380   21.4080 O   0  0  0  0  0  0  0  0  0  0  0  0
  -21.7170   -6.2130   22.5660 C   0  0  0  0  0  0  0  0  0  0  0  0
  -21.1670   -6.7660   23.7440 C   0  0  0  0  0  3  0  0  0  0  0  0
  -21.0140   -5.9640   24.8940 C   0  0  0  0  0  3  0  0  0  0  0  0
  -21.4010   -4.6100   24.8660 C   0  0  0  0  0  0  0  0  0  0  0  0
  -21.9440   -4.0580   23.6930 C   0  0  0  0  0  3  0  0  0  0  0  0
  -22.1010   -4.8580   22.5470 C   0  0  0  0  0  0  0  0  0  0  0  0
  -22.6060   -4.3140   21.4110 F   0  0  0  0  0  0  0  0  0  0  0  0
  -21.2480   -3.8380   25.9680 F   0  0  0  0  0  0  0  0  0  0  0  0
  -22.9340  -13.5870   21.2410 C   0  0  0  0  0  0  0  0  0  0  0  0
  -22.2140  -12.8670   22.0970 N   0  0  0  0  0  0  0  0  0  0  0  0
  -22.4950  -14.6280   20.7620 O   0  0  0  0  0  0  0  0  0  0  0  0
  -22.5880  -12.0260   22.5100 H   0  0  0  0  0  0  0  0  0  0  0  0
  -21.2790  -13.1620   22.3400 H   0  0  0  0  0  0  0  0  0  0  0  0
  -25.5420  -15.2690   20.4340 N   0  0  0  0  0  0  0  0  0  0  0  0
  -24.7600  -15.8990   20.5850 H   0  0  0  0  0  0  0  0  0  0  0  0
  -26.3740  -15.7320   20.0810 H   0  0  0  0  0  0  0  0  0  0  0  0
  -28.3490  -25.2080   19.3860 C   0  0  0  0  0  2  0  0  0  0  0  0
  -28.3150  -26.5020   20.1340 O   0  0  0  0  0  0  0  0  0  0  0  0
  -24.5880  -31.9000   23.2320 C   0  0  0  0  0  0  0  0  0  0  0  0
  -27.2130  -27.3720   20.0930 C   0  0  0  0  0  0  0  0  0  0  0  0
  -23.3970  -30.5150   21.5770 C   0  0  0  0  0  3  0  0  0  0  0  0
  -24.8540  -28.9880   20.1400 C   0  0  0  0  0  0  0  0  0  0  0  0
  -25.9400  -30.8280   21.4190 C   0  0  0  0  0  2  0  0  0  0  0  0
  -26.0190  -29.4590   20.7540 C   0  0  0  0  0  0  0  0  0  0  0  0
  -27.1970  -28.6480   20.7460 C   0  0  0  0  0  3  0  0  0  0  0  0
  -26.0290  -26.9890   19.4300 C   0  0  0  0  0  3  0  0  0  0  0  0
  -24.8570  -27.7570   19.4810 C   0  0  0  0  0  3  0  0  0  0  0  0
  -23.6140  -29.8490   20.1930 C   0  0  0  0  0  2  0  0  0  0  0  0
  -24.6580  -31.1020   22.1300 N   0  0  0  0  0  0  0  0  0  0  0  0
  -23.5040  -32.1720   23.7670 O   0  0  0  0  0  0  0  0  0  0  0  0
  -22.7380  -29.4830   22.5240 C   0  0  0  0  0  0  0  0  0  0  0  0
  -21.4180  -29.2940   22.3790 N   0  0  0  0  0  0  0  0  0  0  0  0
  -23.4170  -28.8610   23.3450 O   0  0  0  0  0  0  0  0  0  0  0  0
  -20.9370  -29.8400   21.6780 H   0  0  0  0  0  0  0  0  0  0  0  0
  -18.0410  -28.1000   22.8860 C   0  0  0  0  0  0  0  0  0  0  0  0
  -20.6020  -28.3450   23.1380 C   0  0  0  0  0  3  0  0  0  0  0  0
  -20.6940  -26.9260   22.5320 C   0  0  0  0  0  2  0  0  0  0  0  0
  -19.5810  -26.6270   21.5210 C   0  0  0  0  0  2  0  0  0  0  0  0
  -18.2060  -26.7630   22.1820 C   0  0  0  0  0  2  0  0  0  0  0  0
  -19.1660  -28.8470   23.3220 C   0  0  0  0  0  0  0  0  0  0  0  0
  -18.9610  -30.0990   23.9440 C   0  0  0  0  0  3  0  0  0  0  0  0
  -17.6610  -30.6020   24.1350 C   0  0  0  0  0  3  0  0  0  0  0  0
  -16.5480  -29.8500   23.7190 C   0  0  0  0  0  3  0  0  0  0  0  0
  -16.7380  -28.6020   23.0980 C   0  0  0  0  0  3  0  0  0  0  0  0
  -25.8670  -32.5330   23.8580 C   0  0  0  0  0  3  0  0  0  0  0  0
  -26.3770  -31.7670   25.1390 C   0  0  1  0  0  0  0  0  0  0  0  0
  -25.2770  -31.5280   26.1960 C   0  0  0  0  0  1  0  0  0  0  0  0
  -26.9690  -30.3830   24.7710 C   0  0  0  0  0  1  0  0  0  0  0  0
  -27.5180  -32.5660   25.8090 C   0  0  0  0  0  1  0  0  0  0  0  0
  -25.5590  -33.9350   24.1810 N   0  0  0  0  0  0  0  0  0  0  0  0
  -25.8900  -34.9840   23.4150 C   0  0  0  0  0  0  0  0  0  0  0  0
  -26.5640  -34.8770   22.3870 O   0  0  0  0  0  0  0  0  0  0  0  0
  -24.9550  -34.0900   24.9740 H   0  0  0  0  0  0  0  0  0  0  0  0
  -24.1730  -36.7840   23.0390 C   0  0  0  0  0  1  0  0  0  0  0  0
  -25.3980  -36.3730   23.8680 C   0  0  0  0  0  3  0  0  0  0  0  0
  -27.5100  -37.2640   24.7500 C   0  0  0  0  0  1  0  0  0  0  0  0
  -26.4350  -37.4220   23.7730 N   0  0  0  0  0  0  0  0  0  0  0  0
  -26.0250  -38.3430   23.9000 H   0  0  0  0  0  0  0  0  0  0  0  0
  1  2  1  0
  1  5  1  0
  2  3  1  0
  4 52  1  0
  4  3  1  0
  5 12  1  0
  5  4  1  0
  6  1  2  0
  8 11  1  0
  9  7  1  0
 10  8  2  0
 10 12  1  0
 11 13  1  0
 11  7  2  0
 12  9  2  0
 13 22  1  0
 14 22  1  0
 15 20  1  0
 16 17  1  0
 16 15  1  0
 18 17  1  0
 18 27  1  0
 18 19  1  0
 20 14  1  0
 20 19  1  0
 21 14  2  0
 22 23  1  0
 24 25  2  0
 25 44  1  0
 26 25  1  0
 26 29  1  0
 27 28  1  0
 27 24  1  0
 28 26  2  0
 29 30  1  0
 30 31  2  0
 32 35  1  0
 32 31  1  0
 33 32  2  0
 34 33  1  0
 34 29  2  0
 35 36  1  0
 36 37  1  0
 37 38  2  0
 39 38  1  0
 39 43  1  0
 40 39  2  0
 41 36  2  0
 41 40  1  0
 42 41  1  0
 44 45  1  0
 45 48  1  0
 45 47  1  0
 46 44  2  0
 49 24  1  0
 49 50  1  0
 51 49  1  0
 52 53  1  0
 54 65  2  0
 55 53  1  0
 55 60  1  0
 56 64  1  0
 56 66  1  0
 57 63  1  0
 57 59  1  0
 58 64  1  0
 59 58  1  0
 60 59  2  0
 61 62  1  0
 61 55  2  0
 62 57  2  0
 63 56  1  0
 64 54  1  0
 66 68  2  0
 67 66  1  0
 69 67  1  0
 70 79  2  0
 70 75  1  0
 71 67  1  0
 71 75  1  0
 72 71  1  0
 73 74  1  0
 73 72  1  0
 74 70  1  0
 75 76  2  0
 76 77  1  0
 78 77  2  0
 79 78  1  0
 80 54  1  0
 80 85  1  0
 80 81  1  0
 81 84  1  1
 81 82  1  0
 83 81  1  0
 85 88  1  0
 86 90  1  0
 86 85  1  0
 87 86  2  0
 90 89  1  0
 92 90  1  0
 92 93  1  0
 92 91  1  0
M  ISO  4  14 100  22 100  52 101  53 101
M  END
>  <TORSDO>  (12) 
F 19

>  <SCORE>  (12) 
-14.262

>  <name>  (12) 
11

>  <ligand_id>  (12) 
11

>  <original_smiles>  (12) 
[H]c1c([H])c([H])c2c(c1[H])C([H])([H])C([H])([H])C([H])([H])C2([H])N([H])C(=O)C1([H])N(C(=O)C([H])(N([H])C(=O)C([H])(N([H])C([H])([H])[H])C([H])([H])[H])C(C([H])([H])[H])(C([H])([H])[H])C([H])([H])[H])C([H])([H])c2c([H])c(OC([H])([H])C3([H])N(c4c([H])c([H])c(C([H])([H])N([H])C(=O)N5C([H])([H])C([H])([H])C([H])([H])C([H])(n6nc(-c7c([H])c([H])c(Oc8c([H])c([H])c(F)c([H])c8F)c([H])c7[H])c(C(=O)N([H])[H])c6N([H])[H])C5([H])[H])c([H])c4[H])C(=O)C([H])([H])C3([H])[H])c([H])c([H])c2C1([H])[H]

>  <smiles>  (12) 
[H]c1c([H])c([H])c2c(c1[H])C([H])([H])C([H])([H])C([H])([H])C2([H])N([H])C(=O)C1([H])N(C(=O)C([H])(N([H])C(=O)C([H])(N([H])C([H])([H])[H])C([H])([H])[H])C(C([H])([H])[H])(C([H])([H])[H])C([H])([H])[H])C([H])([H])c2c([H])c(OC([H])([H])C3([H])N(c4c([H])c([H])c(C([H])([H])N([H])C(=O)N5C([H])([H])C([H])([H])C([H])([H])C([H])(n6nc(-c7c([H])c([H])c(Oc8c([H])c([H])c(F)c([H])c8F)c([H])c7[H])c(C(=O)N([H])[H])c6N([H])[H])C5([H])[H])c([H])c4[H])C(=O)C([H])([H])C3([H])[H])c([H])c([H])c2C1([H])[H]

$$$$
12:0:0
     RDKit          3D

 94103  0  0  1  0  0  0  0  0999 V2000
  -27.0850  -21.9610   19.7840 C   0  0  0  0  0  0  0  0  0  0  0  0
  -26.3700  -23.0330   18.9680 C   0  0  0  0  0  2  0  0  0  0  0  0
  -27.5410  -23.6360   18.1850 C   0  0  0  0  0  2  0  0  0  0  0  0
  -28.6770  -23.5520   19.2030 C   0  0  0  0  0  3  0  0  0  0  0  0
  -28.4260  -22.0890   19.7410 N   0  0  0  0  0  0  0  0  0  0  0  0
  -26.4620  -21.0800   20.3860 O   0  0  0  0  0  0  0  0  0  0  0  0
  -29.1750  -19.7860   18.5800 C   0  0  0  0  0  3  0  0  0  0  0  0
  -29.5660  -18.3720   18.6930 C   0  0  0  0  0  3  0  0  0  0  0  0
  -30.0700  -18.7430   20.9510 C   0  0  0  0  0  3  0  0  0  0  0  0
  -29.1630  -20.7390   19.6740 C   0  0  0  0  0  0  0  0  0  0  0  0
  -30.0170  -17.7370   19.9120 C   0  0  0  0  0  0  0  0  0  0  0  0
  -29.6450  -20.1200   20.8600 C   0  0  0  0  0  0  0  0  0  0  0  0
  -29.6390  -20.8630   21.9930 F   0  0  0  0  0  0  0  0  0  0  0  0
  -30.8270  -15.1460   19.4330 C   0  0  0  0  0  0  0  0  0  0  0  0
  -30.5870  -12.7950   18.4690 C   0  0  0  0  0  2  0  0  0  0  0  0
  -29.4590  -12.7530   17.4070 C   0  0  0  0  0  2  0  0  0  0  0  0
  -28.0880  -12.5080   18.0690 C   0  0  0  0  0  2  0  0  0  0  0  0
  -27.8730  -13.4110   19.3070 C   0  0  0  0  0  3  0  0  0  0  0  0
  -29.0980  -13.4020   20.2410 C   0  0  0  0  0  2  0  0  0  0  0  0
  -30.2560  -13.8660   19.4580 N   0  0  0  0  0  0  0  0  0  0  0  0
  -31.8500  -15.2870   18.7500 O   0  0  0  0  0  0  0  0  0  0  0  0
  -30.3170  -16.2310   20.2150 N   0  0  0  0  0  0  0  0  0  0  0  0
  -25.7180  -13.9520   20.5830 C   0  0  0  0  0  0  0  0  0  0  0  0
  -24.7100  -13.1630   21.0580 C   0  0  0  0  0  0  0  0  0  0  0  0
  -25.0840  -11.8150   20.7560 C   0  0  0  0  0  0  0  0  0  0  0  0
  -26.6420  -13.0870   20.0190 N   0  0  0  0  0  0  0  0  0  0  0  0
  -26.2820  -11.7890   20.1880 N   0  0  0  0  0  0  0  0  0  0  0  0
  -24.3450  -10.5580   20.9200 C   0  0  0  0  0  0  0  0  0  0  0  0
  -24.8440   -9.5000   21.7110 C   0  0  0  0  0  3  0  0  0  0  0  0
  -24.1010   -8.3110   21.8700 C   0  0  0  0  0  3  0  0  0  0  0  0
  -22.8440   -8.1680   21.2370 C   0  0  0  0  0  0  0  0  0  0  0  0
  -22.3620   -9.2140   20.4290 C   0  0  0  0  0  3  0  0  0  0  0  0
  -23.1060  -10.3950   20.2690 C   0  0  0  0  0  3  0  0  0  0  0  0
  -22.0650   -7.0380   21.3140 O   0  0  0  0  0  0  0  0  0  0  0  0
  -22.0460   -6.2500   22.4370 C   0  0  0  0  0  0  0  0  0  0  0  0
  -21.7100   -6.7710   23.7070 C   0  0  0  0  0  3  0  0  0  0  0  0
  -21.6380   -5.9120   24.8210 C   0  0  0  0  0  3  0  0  0  0  0  0
  -21.8920   -4.5350   24.6690 C   0  0  0  0  0  0  0  0  0  0  0  0
  -22.2210   -4.0150   23.4060 C   0  0  0  0  0  3  0  0  0  0  0  0
  -22.2960   -4.8700   22.2930 C   0  0  0  0  0  0  0  0  0  0  0  0
  -22.5920   -4.3610   21.0720 F   0  0  0  0  0  0  0  0  0  0  0  0
  -21.8160   -3.7080   25.7390 F   0  0  0  0  0  0  0  0  0  0  0  0
  -23.4230  -13.6270   21.6730 C   0  0  0  0  0  0  0  0  0  0  0  0
  -22.8650  -12.8540   22.5980 N   0  0  0  0  0  0  0  0  0  0  0  0
  -22.9280  -14.7120   21.3650 O   0  0  0  0  0  0  0  0  0  0  0  0
  -23.2780  -11.9730   22.8660 H   0  0  0  0  0  0  0  0  0  0  0  0
  -22.0090  -13.1480   23.0520 H   0  0  0  0  0  0  0  0  0  0  0  0
  -25.9290  -15.3280   20.5560 N   0  0  0  0  0  0  0  0  0  0  0  0
  -25.2720  -15.9970   20.9390 H   0  0  0  0  0  0  0  0  0  0  0  0
  -26.7460  -15.7670   20.1540 H   0  0  0  0  0  0  0  0  0  0  0  0
  -29.4380  -16.1570   22.6410 C   0  0  0  0  0  1  0  0  0  0  0  0
  -30.6070  -15.9420   21.6500 C   0  0  0  0  0  2  0  0  0  0  0  0
  -28.4030  -24.9270   20.1440 C   0  0  0  0  0  2  0  0  0  0  0  0
  -28.4790  -26.4070   19.6970 O   0  0  0  0  0  0  0  0  0  0  0  0
  -24.5540  -31.7360   22.9260 C   0  0  0  0  0  0  0  0  0  0  0  0
  -27.3490  -27.2920   19.7270 C   0  0  0  0  0  0  0  0  0  0  0  0
  -23.4120  -30.3380   21.2390 C   0  0  0  0  0  3  0  0  0  0  0  0
  -24.9310  -28.8860   19.7670 C   0  0  0  0  0  0  0  0  0  0  0  0
  -25.9450  -30.7510   21.0710 C   0  0  0  0  0  2  0  0  0  0  0  0
  -26.0900  -29.3920   20.3690 C   0  0  0  0  0  0  0  0  0  0  0  0
  -27.3040  -28.6120   20.3240 C   0  0  0  0  0  3  0  0  0  0  0  0
  -26.1560  -26.8730   19.1030 C   0  0  0  0  0  3  0  0  0  0  0  0
  -24.9700  -27.6370   19.1280 C   0  0  0  0  0  3  0  0  0  0  0  0
  -23.6610  -29.7140   19.8420 C   0  0  0  0  0  2  0  0  0  0  0  0
  -24.6560  -30.9640   21.8010 N   0  0  0  0  0  0  0  0  0  0  0  0
  -23.4590  -31.9500   23.4680 O   0  0  0  0  0  0  0  0  0  0  0  0
  -22.7880  -29.2710   22.1710 C   0  0  0  0  0  0  0  0  0  0  0  0
  -21.4650  -29.0590   22.0610 N   0  0  0  0  0  0  0  0  0  0  0  0
  -23.4970  -28.6300   22.9500 O   0  0  0  0  0  0  0  0  0  0  0  0
  -20.9430  -29.6230   21.4050 H   0  0  0  0  0  0  0  0  0  0  0  0
  -18.1380  -27.7390   22.5840 C   0  0  0  0  0  0  0  0  0  0  0  0
  -20.6930  -28.0620   22.8070 C   0  0  0  0  0  3  0  0  0  0  0  0
  -20.8240  -26.6620   22.1620 C   0  0  0  0  0  2  0  0  0  0  0  0
  -19.7070  -26.3560   21.1590 C   0  0  0  0  0  2  0  0  0  0  0  0
  -18.3370  -26.4310   21.8380 C   0  0  0  0  0  2  0  0  0  0  0  0
  -19.2440  -28.5140   23.0240 C   0  0  0  0  0  0  0  0  0  0  0  0
  -19.0020  -29.7410   23.6790 C   0  0  0  0  0  3  0  0  0  0  0  0
  -17.6880  -30.1890   23.9030 C   0  0  0  0  0  3  0  0  0  0  0  0
  -16.5970  -29.4110   23.4800 C   0  0  0  0  0  3  0  0  0  0  0  0
  -16.8220  -28.1880   22.8240 C   0  0  0  0  0  3  0  0  0  0  0  0
  -25.8050  -32.4080   23.5740 C   0  0  0  0  0  3  0  0  0  0  0  0
  -26.3770  -31.6020   24.8050 C   0  0  1  0  0  0  0  0  0  0  0  0
  -25.3160  -31.2600   25.8750 C   0  0  0  0  0  1  0  0  0  0  0  0
  -27.0170  -30.2710   24.3490 C   0  0  0  0  0  1  0  0  0  0  0  0
  -27.5040  -32.4180   25.4860 C   0  0  0  0  0  1  0  0  0  0  0  0
  -25.4290  -33.7720   23.9850 N   0  0  0  0  0  0  0  0  0  0  0  0
  -25.6970  -34.8800   23.2810 C   0  0  0  0  0  0  0  0  0  0  0  0
  -26.3530  -34.8660   22.2370 O   0  0  0  0  0  0  0  0  0  0  0  0
  -24.8470  -33.8570   24.8040 H   0  0  0  0  0  0  0  0  0  0  0  0
  -23.8840  -36.6020   23.0330 C   0  0  0  0  0  1  0  0  0  0  0  0
  -25.1480  -36.2170   23.8170 C   0  0  0  0  0  3  0  0  0  0  0  0
  -27.2390  -37.1580   24.6910 C   0  0  0  0  0  1  0  0  0  0  0  0
  -26.1280  -37.3240   23.7590 N   0  0  0  0  0  0  0  0  0  0  0  0
  -25.6780  -38.2130   23.9630 H   0  0  0  0  0  0  0  0  0  0  0  0
  1  6  2  0
  2  1  1  0
  3  2  1  0
  3  4  1  0
  4  5  1  0
  4 53  1  0
  5  1  1  0
  7  8  2  0
  7 10  1  0
  8 11  1  0
 10  5  1  0
 10 12  2  0
 11 22  1  0
 11  9  2  0
 12  9  1  0
 12 13  1  0
 14 20  1  0
 14 22  1  0
 15 20  1  0
 16 17  1  0
 16 15  1  0
 18 17  1  0
 18 26  1  0
 18 19  1  0
 20 19  1  0
 21 14  2  0
 22 52  1  0
 23 24  2  0
 24 43  1  0
 25 28  1  0
 25 24  1  0
 26 27  1  0
 26 23  1  0
 27 25  2  0
 28 29  1  0
 29 30  2  0
 31 34  1  0
 31 30  1  0
 32 31  2  0
 33 32  1  0
 33 28  2  0
 34 35  1  0
 35 36  1  0
 36 37  2  0
 38 37  1  0
 38 42  1  0
 39 38  2  0
 40 35  2  0
 40 39  1  0
 41 40  1  0
 43 44  1  0
 44 46  1  0
 44 47  1  0
 45 43  2  0
 48 23  1  0
 48 49  1  0
 50 48  1  0
 52 51  1  0
 54 56  1  0
 54 53  1  0
 55 66  2  0
 56 61  1  0
 57 65  1  0
 57 67  1  0
 58 64  1  0
 58 60  1  0
 59 65  1  0
 60 59  1  0
 61 60  2  0
 62 63  1  0
 62 56  2  0
 63 58  2  0
 64 57  1  0
 65 55  1  0
 67 69  2  0
 68 67  1  0
 70 68  1  0
 71 80  2  0
 71 76  1  0
 72 68  1  0
 72 76  1  0
 73 72  1  0
 74 75  1  0
 74 73  1  0
 75 71  1  0
 76 77  2  0
 77 78  1  0
 79 78  2  0
 80 79  1  0
 81 55  1  0
 81 86  1  0
 81 82  1  0
 82 85  1  1
 82 83  1  0
 84 82  1  0
 86 89  1  0
 87 91  1  0
 87 86  1  0
 88 87  2  0
 91 90  1  0
 93 91  1  0
 93 94  1  0
 93 92  1  0
M  ISO  4  14 100  22 100  53 101  54 101
M  END
>  <TORSDO>  (13) 
F 19

>  <SCORE>  (13) 
-9.207

>  <name>  (13) 
12

>  <ligand_id>  (13) 
12

>  <original_smiles>  (13) 
[H]c1c([H])c([H])c2c(c1[H])C([H])([H])C([H])([H])C([H])([H])C2([H])N([H])C(=O)C1([H])N(C(=O)C([H])(N([H])C(=O)C([H])(N([H])C([H])([H])[H])C([H])([H])[H])C(C([H])([H])[H])(C([H])([H])[H])C([H])([H])[H])C([H])([H])c2c([H])c(OC([H])([H])C3([H])N(c4c([H])c([H])c(N(C(=O)N5C([H])([H])C([H])([H])C([H])([H])C([H])(n6nc(-c7c([H])c([H])c(Oc8c([H])c([H])c(F)c([H])c8F)c([H])c7[H])c(C(=O)N([H])[H])c6N([H])[H])C5([H])[H])C([H])([H])C([H])([H])[H])c([H])c4F)C(=O)C([H])([H])C3([H])[H])c([H])c([H])c2C1([H])[H]

>  <smiles>  (13) 
[H]c1c([H])c([H])c2c(c1[H])C([H])([H])C([H])([H])C([H])([H])C2([H])N([H])C(=O)C1([H])N(C(=O)C([H])(N([H])C(=O)C([H])(N([H])C([H])([H])[H])C([H])([H])[H])C(C([H])([H])[H])(C([H])([H])[H])C([H])([H])[H])C([H])([H])c2c([H])c(OC([H])([H])C3([H])N(c4c([H])c([H])c(N(C(=O)N5C([H])([H])C([H])([H])C([H])([H])C([H])(n6nc(-c7c([H])c([H])c(Oc8c([H])c([H])c(F)c([H])c8F)c([H])c7[H])c(C(=O)N([H])[H])c6N([H])[H])C5([H])[H])C([H])([H])C([H])([H])[H])c([H])c4F)C(=O)C([H])([H])C3([H])[H])c([H])c([H])c2C1([H])[H]

$$$$
13:0:0
     RDKit          3D

 96105  0  0  1  0  0  0  0  0999 V2000
  -28.3440  -24.1550   20.0320 C   0  0  0  0  0  0  0  0  0  0  0  0
  -28.0980  -22.8990   20.5090 C   0  0  0  0  0  0  0  0  0  0  0  0
  -28.6520  -24.2900   18.5930 C   0  0  0  0  0  0  0  0  0  0  0  0
  -27.9930  -23.2630   17.6850 C   0  0  0  0  0  2  0  0  0  0  0  0
  -28.1140  -21.8330   18.2430 C   0  0  0  0  0  2  0  0  0  0  0  0
  -27.6880  -22.6700   21.9620 C   0  0  0  0  0  1  0  0  0  0  0  0
  -28.1630  -21.7340   19.7120 N   0  0  0  0  0  0  0  0  0  0  0  0
  -29.3900  -25.1490   18.1010 O   0  0  0  0  0  0  0  0  0  0  0  0
  -30.3430  -19.1490   21.3850 C   0  0  0  0  0  3  0  0  0  0  0  0
  -28.9070  -18.0240   19.7930 C   0  0  0  0  0  3  0  0  0  0  0  0
  -29.7230  -20.3810   21.0790 C   0  0  0  0  0  3  0  0  0  0  0  0
  -28.2820  -19.2570   19.4950 C   0  0  0  0  0  3  0  0  0  0  0  0
  -29.9590  -17.9560   20.7320 C   0  0  0  0  0  0  0  0  0  0  0  0
  -28.6930  -20.4690   20.1110 C   0  0  0  0  0  0  0  0  0  0  0  0
  -30.8020  -14.4550   20.0970 C   0  0  0  0  0  0  0  0  0  0  0  0
  -30.3470  -12.3360   18.9240 C   0  0  0  0  0  2  0  0  0  0  0  0
  -29.3550  -12.5840   17.7750 C   0  0  0  0  0  2  0  0  0  0  0  0
  -27.9060  -12.4470   18.2830 C   0  0  0  0  0  2  0  0  0  0  0  0
  -27.6470  -13.2720   19.5730 C   0  0  0  0  0  3  0  0  0  0  0  0
  -28.7620  -13.0500   20.6210 C   0  0  0  0  0  2  0  0  0  0  0  0
  -30.0530  -13.3270   19.9700 N   0  0  0  0  0  0  0  0  0  0  0  0
  -31.9130  -14.5510   19.5660 O   0  0  0  0  0  0  0  0  0  0  0  0
  -30.7800  -16.7010   20.9110 C   0  0  0  0  0  0  0  0  0  0  0  0
  -30.1870  -15.5190   20.6490 N   0  0  0  0  0  0  0  0  0  0  0  0
  -31.9560  -16.8080   21.2870 O   0  0  0  0  0  0  0  0  0  0  0  0
  -29.1870  -15.4730   20.7380 H   0  0  0  0  0  0  0  0  0  0  0  0
  -25.3050  -13.8820   20.4440 C   0  0  0  0  0  0  0  0  0  0  0  0
  -24.2530  -13.1110   20.8570 C   0  0  0  0  0  0  0  0  0  0  0  0
  -24.6940  -11.7560   20.7620 C   0  0  0  0  0  0  0  0  0  0  0  0
  -26.3240  -12.9970   20.1260 N   0  0  0  0  0  0  0  0  0  0  0  0
  -25.9630  -11.7110   20.3740 N   0  0  0  0  0  0  0  0  0  0  0  0
  -23.9650  -10.4960   20.9610 C   0  0  0  0  0  0  0  0  0  0  0  0
  -24.4160   -9.5210   21.8770 C   0  0  0  0  0  3  0  0  0  0  0  0
  -23.6890   -8.3260   22.0660 C   0  0  0  0  0  3  0  0  0  0  0  0
  -22.4970   -8.0970   21.3380 C   0  0  0  0  0  0  0  0  0  0  0  0
  -22.0650   -9.0620   20.4100 C   0  0  0  0  0  3  0  0  0  0  0  0
  -22.7920  -10.2490   20.2200 C   0  0  0  0  0  3  0  0  0  0  0  0
  -21.7400   -6.9560   21.4370 O   0  0  0  0  0  0  0  0  0  0  0  0
  -21.6880   -6.2230   22.5970 C   0  0  0  0  0  0  0  0  0  0  0  0
  -21.2570   -6.7900   23.8170 C   0  0  0  0  0  3  0  0  0  0  0  0
  -21.1520   -5.9840   24.9680 C   0  0  0  0  0  3  0  0  0  0  0  0
  -21.4690   -4.6140   24.9000 C   0  0  0  0  0  0  0  0  0  0  0  0
  -21.8930   -4.0480   23.6860 C   0  0  0  0  0  3  0  0  0  0  0  0
  -22.0000   -4.8510   22.5360 C   0  0  0  0  0  0  0  0  0  0  0  0
  -22.3880   -4.2960   21.3630 F   0  0  0  0  0  0  0  0  0  0  0  0
  -21.3610   -3.8380   26.0050 F   0  0  0  0  0  0  0  0  0  0  0  0
  -22.8800  -13.5950   21.2270 C   0  0  0  0  0  0  0  0  0  0  0  0
  -22.1960  -12.8810   22.1140 N   0  0  0  0  0  0  0  0  0  0  0  0
  -22.4250  -14.6390   20.7620 O   0  0  0  0  0  0  0  0  0  0  0  0
  -22.5800  -12.0350   22.5110 H   0  0  0  0  0  0  0  0  0  0  0  0
  -21.2770  -13.1840   22.4030 H   0  0  0  0  0  0  0  0  0  0  0  0
  -25.4730  -15.2560   20.2940 N   0  0  0  0  0  0  0  0  0  0  0  0
  -24.7130  -15.9070   20.4570 H   0  0  0  0  0  0  0  0  0  0  0  0
  -26.2990  -15.6970   19.9140 H   0  0  0  0  0  0  0  0  0  0  0  0
  -28.2910  -25.4380   20.8880 C   0  0  0  0  0  2  0  0  0  0  0  0
  -28.3940  -26.6980   20.1870 O   0  0  0  0  0  0  0  0  0  0  0  0
  -24.5930  -31.8860   23.2240 C   0  0  0  0  0  0  0  0  0  0  0  0
  -27.2400  -27.4470   20.1600 C   0  0  0  0  0  0  0  0  0  0  0  0
  -23.3900  -30.4780   21.5850 C   0  0  0  0  0  3  0  0  0  0  0  0
  -24.8450  -28.9440   20.1580 C   0  0  0  0  0  0  0  0  0  0  0  0
  -25.9140  -30.8480   21.3810 C   0  0  0  0  0  2  0  0  0  0  0  0
  -26.0020  -29.4770   20.7410 C   0  0  0  0  0  0  0  0  0  0  0  0
  -27.2060  -28.7380   20.7350 C   0  0  0  0  0  3  0  0  0  0  0  0
  -26.0700  -26.9260   19.5700 C   0  0  0  0  0  3  0  0  0  0  0  0
  -24.8740  -27.6670   19.5680 C   0  0  0  0  0  3  0  0  0  0  0  0
  -23.6010  -29.8010   20.2040 C   0  0  0  0  0  2  0  0  0  0  0  0
  -24.6510  -31.0880   22.1200 N   0  0  0  0  0  0  0  0  0  0  0  0
  -23.5140  -32.1530   23.7690 O   0  0  0  0  0  0  0  0  0  0  0  0
  -22.7480  -29.4530   22.5470 C   0  0  0  0  0  0  0  0  0  0  0  0
  -21.4230  -29.2710   22.4290 N   0  0  0  0  0  0  0  0  0  0  0  0
  -23.4380  -28.8250   23.3550 O   0  0  0  0  0  0  0  0  0  0  0  0
  -20.9310  -29.8290   21.7450 H   0  0  0  0  0  0  0  0  0  0  0  0
  -18.0480  -28.0850   22.9510 C   0  0  0  0  0  0  0  0  0  0  0  0
  -20.6100  -28.3330   23.2010 C   0  0  0  0  0  3  0  0  0  0  0  0
  -20.7030  -26.9050   22.6150 C   0  0  0  0  0  2  0  0  0  0  0  0
  -19.5910  -26.5930   21.6090 C   0  0  0  0  0  2  0  0  0  0  0  0
  -18.2160  -26.7370   22.2650 C   0  0  0  0  0  2  0  0  0  0  0  0
  -19.1740  -28.8400   23.3740 C   0  0  0  0  0  0  0  0  0  0  0  0
  -18.9640  -30.1020   23.9730 C   0  0  0  0  0  3  0  0  0  0  0  0
  -17.6630  -30.6070   24.1510 C   0  0  0  0  0  3  0  0  0  0  0  0
  -16.5530  -29.8490   23.7440 C   0  0  0  0  0  3  0  0  0  0  0  0
  -16.7460  -28.5890   23.1490 C   0  0  0  0  0  3  0  0  0  0  0  0
  -25.8800  -32.5210   23.8400 C   0  0  0  0  0  3  0  0  0  0  0  0
  -25.5650  -33.9150   24.1760 N   0  0  0  0  0  0  0  0  0  0  0  0
  -25.8820  -34.9720   23.4150 C   0  0  0  0  0  0  0  0  0  0  0  0
  -26.5440  -34.8760   22.3780 O   0  0  0  0  0  0  0  0  0  0  0  0
  -24.9790  -34.0650   24.9840 H   0  0  0  0  0  0  0  0  0  0  0  0
  -24.1340  -36.7460   23.0740 C   0  0  0  0  0  1  0  0  0  0  0  0
  -25.3840  -36.3540   23.8770 C   0  0  0  0  0  3  0  0  0  0  0  0
  -27.5170  -37.2560   24.6880 C   0  0  0  0  0  1  0  0  0  0  0  0
  -26.4040  -37.4170   23.7560 N   0  0  0  0  0  0  0  0  0  0  0  0
  -25.9910  -38.3330   23.9070 H   0  0  0  0  0  0  0  0  0  0  0  0
  -26.4090  -31.7470   25.1110 C   0  0  1  0  0  0  0  0  0  0  0  0
  -25.3240  -31.4950   26.1820 C   0  0  0  0  0  1  0  0  0  0  0  0
  -26.9970  -30.3750   24.7060 C   0  0  0  0  0  1  0  0  0  0  0  0
  -27.5570  -32.5460   25.7730 C   0  0  0  0  0  1  0  0  0  0  0  0
  1  2  2  0
  1 55  1  0
  2  6  1  0
  3  1  1  0
  4  5  1  0
  4  3  1  0
  5  7  1  0
  7 14  1  0
  7  2  1  0
  8  3  2  0
 10 13  1  0
 11  9  1  0
 12 10  2  0
 12 14  1  0
 13 23  1  0
 13  9  2  0
 14 11  2  0
 15 24  1  0
 16 21  1  0
 17 18  1  0
 17 16  1  0
 19 18  1  0
 19 30  1  0
 19 20  1  0
 21 15  1  0
 21 20  1  0
 22 15  2  0
 23 25  2  0
 24 26  1  0
 24 23  1  0
 27 28  2  0
 28 47  1  0
 29 28  1  0
 29 32  1  0
 30 31  1  0
 30 27  1  0
 31 29  2  0
 32 33  1  0
 33 34  2  0
 35 38  1  0
 35 34  1  0
 36 35  2  0
 37 36  1  0
 37 32  2  0
 38 39  1  0
 39 40  1  0
 40 41  2  0
 42 41  1  0
 42 46  1  0
 43 42  2  0
 44 39  2  0
 44 43  1  0
 45 44  1  0
 47 48  1  0
 48 51  1  0
 48 50  1  0
 49 47  2  0
 52 27  1  0
 52 53  1  0
 54 52  1  0
 56 55  1  0
 57 68  2  0
 58 56  1  0
 58 63  1  0
 59 67  1  0
 59 69  1  0
 60 66  1  0
 60 62  1  0
 61 67  1  0
 62 61  1  0
 63 62  2  0
 64 58  2  0
 65 64  1  0
 65 60  2  0
 66 59  1  0
 67 57  1  0
 69 71  2  0
 70 69  1  0
 72 70  1  0
 73 82  2  0
 73 78  1  0
 74 70  1  0
 74 78  1  0
 75 74  1  0
 76 77  1  0
 76 75  1  0
 77 73  1  0
 78 79  2  0
 79 80  1  0
 81 80  2  0
 82 81  1  0
 83 57  1  0
 83 84  1  0
 83 93  1  0
 84 87  1  0
 85 89  1  0
 85 84  1  0
 86 85  2  0
 89 88  1  0
 91 89  1  0
 91 92  1  0
 91 90  1  0
 93 96  1  1
 93 94  1  0
 95 93  1  0
M  ISO  4  15 100  24 100  55 101  56 101
M  END
>  <TORSDO>  (14) 
F 18

>  <SCORE>  (14) 
-14.800

>  <name>  (14) 
13

>  <ligand_id>  (14) 
13

>  <original_smiles>  (14) 
[H]c1c([H])c([H])c2c(c1[H])C([H])([H])C([H])([H])C([H])([H])C2([H])N([H])C(=O)C1([H])N(C(=O)C([H])(N([H])C(=O)C([H])(N([H])C([H])([H])[H])C([H])([H])[H])C(C([H])([H])[H])(C([H])([H])[H])C([H])([H])[H])C([H])([H])c2c([H])c(OC([H])([H])C3=C(C([H])([H])[H])N(c4c([H])c([H])c(C(=O)N([H])C(=O)N5C([H])([H])C([H])([H])C([H])([H])C([H])(n6nc(-c7c([H])c([H])c(Oc8c([H])c([H])c(F)c([H])c8F)c([H])c7[H])c(C(=O)N([H])[H])c6N([H])[H])C5([H])[H])c([H])c4[H])C([H])([H])C([H])([H])C3=O)c([H])c([H])c2C1([H])[H]

>  <smiles>  (14) 
[H]c1c([H])c([H])c2c(c1[H])C([H])([H])C([H])([H])C([H])([H])C2([H])N([H])C(=O)C1([H])N(C(=O)C([H])(N([H])C(=O)C([H])(N([H])C([H])([H])[H])C([H])([H])[H])C(C([H])([H])[H])(C([H])([H])[H])C([H])([H])[H])C([H])([H])c2c([H])c(OC([H])([H])C3=C(C([H])([H])[H])N(c4c([H])c([H])c(C(=O)N([H])C(=O)N5C([H])([H])C([H])([H])C([H])([H])C([H])(n6nc(-c7c([H])c([H])c(Oc8c([H])c([H])c(F)c([H])c8F)c([H])c7[H])c(C(=O)N([H])[H])c6N([H])[H])C5([H])[H])c([H])c4[H])C([H])([H])C([H])([H])C3=O)c([H])c([H])c2C1([H])[H]

$$$$
14:0:0
     RDKit          3D

 96104  0  0  1  0  0  0  0  0999 V2000
  -30.7810  -18.9710   19.2170 C   0  0  0  0  0  3  0  0  0  0  0  0
  -28.7360  -19.8110   20.9270 C   0  0  0  0  0  3  0  0  0  0  0  0
  -29.8840  -18.0050   19.7280 C   0  0  0  0  0  0  0  0  0  0  0  0
  -28.8470  -18.4420   20.5950 C   0  0  0  0  0  0  0  0  0  0  0  0
  -30.6600  -20.3380   19.5360 C   0  0  0  0  0  0  0  0  0  0  0  0
  -29.6100  -20.7740   20.3790 C   0  0  0  0  0  0  0  0  0  0  0  0
  -27.8840  -17.5630   21.0920 N   0  0  0  0  0  0  0  0  0  0  0  0
  -27.0240  -17.9700   21.4490 H   0  0  0  0  0  0  0  0  0  0  0  0
  -27.7010  -16.7190   20.5680 H   0  0  0  0  0  0  0  0  0  0  0  0
  -30.0100  -16.5720   19.1910 C   0  0  0  0  0  2  0  0  0  0  0  0
  -30.9970  -14.4130   19.8060 C   0  0  0  0  0  0  0  0  0  0  0  0
  -30.5980  -12.2420   18.7380 C   0  0  0  0  0  2  0  0  0  0  0  0
  -29.5750  -12.4870   17.6060 C   0  0  0  0  0  2  0  0  0  0  0  0
  -28.1320  -12.3830   18.1400 C   0  0  0  0  0  2  0  0  0  0  0  0
  -27.9080  -13.2130   19.4320 C   0  0  0  0  0  3  0  0  0  0  0  0
  -29.0420  -12.9650   20.4590 C   0  0  0  0  0  2  0  0  0  0  0  0
  -30.3320  -13.2270   19.7950 N   0  0  0  0  0  0  0  0  0  0  0  0
  -32.1000  -14.5790   19.2790 O   0  0  0  0  0  0  0  0  0  0  0  0
  -30.2240  -15.4590   20.1320 N   0  0  0  0  0  0  0  0  0  0  0  0
  -29.4170  -15.2060   20.6800 H   0  0  0  0  0  0  0  0  0  0  0  0
  -25.5910  -13.8710   20.3440 C   0  0  0  0  0  0  0  0  0  0  0  0
  -24.5340  -13.1190   20.7820 C   0  0  0  0  0  0  0  0  0  0  0  0
  -24.9510  -11.7570   20.6790 C   0  0  0  0  0  0  0  0  0  0  0  0
  -26.5880  -12.9680   20.0080 N   0  0  0  0  0  0  0  0  0  0  0  0
  -26.2090  -11.6900   20.2640 N   0  0  0  0  0  0  0  0  0  0  0  0
  -24.2070  -10.5100   20.8930 C   0  0  0  0  0  0  0  0  0  0  0  0
  -24.6420   -9.5380   21.8210 C   0  0  0  0  0  3  0  0  0  0  0  0
  -23.8980   -8.3560   22.0230 C   0  0  0  0  0  3  0  0  0  0  0  0
  -22.7040   -8.1380   21.2950 C   0  0  0  0  0  0  0  0  0  0  0  0
  -22.2870   -9.0960   20.3550 C   0  0  0  0  0  3  0  0  0  0  0  0
  -23.0320  -10.2690   20.1520 C   0  0  0  0  0  3  0  0  0  0  0  0
  -21.9310   -7.0070   21.4070 O   0  0  0  0  0  0  0  0  0  0  0  0
  -21.8400   -6.3090   22.5860 C   0  0  0  0  0  0  0  0  0  0  0  0
  -21.3660   -6.9110   23.7710 C   0  0  0  0  0  3  0  0  0  0  0  0
  -21.2220   -6.1400   24.9420 C   0  0  0  0  0  3  0  0  0  0  0  0
  -21.5420   -4.7690   24.9280 C   0  0  0  0  0  0  0  0  0  0  0  0
  -22.0110   -4.1680   23.7460 C   0  0  0  0  0  3  0  0  0  0  0  0
  -22.1560   -4.9360   22.5770 C   0  0  0  0  0  0  0  0  0  0  0  0
  -22.5870   -4.3460   21.4360 F   0  0  0  0  0  0  0  0  0  0  0  0
  -21.3960   -4.0270   26.0500 F   0  0  0  0  0  0  0  0  0  0  0  0
  -23.1780  -13.6270   21.1800 C   0  0  0  0  0  0  0  0  0  0  0  0
  -22.5090  -12.9390   22.0990 N   0  0  0  0  0  0  0  0  0  0  0  0
  -22.7220  -14.6700   20.7120 O   0  0  0  0  0  0  0  0  0  0  0  0
  -22.8920  -12.0960   22.5030 H   0  0  0  0  0  0  0  0  0  0  0  0
  -21.6050  -13.2640   22.4090 H   0  0  0  0  0  0  0  0  0  0  0  0
  -25.7770  -15.2430   20.1850 N   0  0  0  0  0  0  0  0  0  0  0  0
  -25.0210  -15.9000   20.3480 H   0  0  0  0  0  0  0  0  0  0  0  0
  -26.5680  -15.6640   19.7150 H   0  0  0  0  0  0  0  0  0  0  0  0
  -31.5550  -21.2200   18.9860 O   0  0  0  0  0  0  0  0  0  0  0  0
  -33.8300  -20.6710   19.5950 C   0  0  0  0  0  1  0  0  0  0  0  0
  -32.6290  -21.5920   19.8430 C   0  0  0  0  0  2  0  0  0  0  0  0
  -29.3990  -22.1010   20.6970 O   0  0  0  0  0  0  0  0  0  0  0  0
  -29.0730  -22.9680   19.6080 C   0  0  0  0  0  2  0  0  0  0  0  0
  -28.6690  -24.3520   20.1500 C   0  0  0  0  0  2  0  0  0  0  0  0
  -28.4280  -25.3900   19.0350 C   0  0  0  0  0  2  0  0  0  0  0  0
  -28.2750  -26.6950   19.6000 O   0  0  0  0  0  0  0  0  0  0  0  0
  -24.5420  -31.6800   23.0050 C   0  0  0  0  0  0  0  0  0  0  0  0
  -27.0550  -27.3400   19.6710 C   0  0  0  0  0  0  0  0  0  0  0  0
  -23.2690  -30.3450   21.3580 C   0  0  0  0  0  3  0  0  0  0  0  0
  -24.6570  -28.8430   19.8380 C   0  0  0  0  0  0  0  0  0  0  0  0
  -25.7850  -30.7000   21.0770 C   0  0  0  0  0  2  0  0  0  0  0  0
  -25.8380  -29.3470   20.3950 C   0  0  0  0  0  0  0  0  0  0  0  0
  -27.0330  -28.6020   20.3080 C   0  0  0  0  0  3  0  0  0  0  0  0
  -25.8440  -26.8360   19.1370 C   0  0  0  0  0  3  0  0  0  0  0  0
  -24.6540  -27.5850   19.2120 C   0  0  0  0  0  3  0  0  0  0  0  0
  -23.4240  -29.7100   19.9500 C   0  0  0  0  0  2  0  0  0  0  0  0
  -24.5530  -30.9210   21.8720 N   0  0  0  0  0  0  0  0  0  0  0  0
  -23.4830  -31.9380   23.5940 O   0  0  0  0  0  0  0  0  0  0  0  0
  -22.6460  -29.2950   22.3040 C   0  0  0  0  0  0  0  0  0  0  0  0
  -21.3140  -29.1370   22.2270 N   0  0  0  0  0  0  0  0  0  0  0  0
  -23.3530  -28.6270   23.0630 O   0  0  0  0  0  0  0  0  0  0  0  0
  -20.8050  -29.7330   21.5900 H   0  0  0  0  0  0  0  0  0  0  0  0
  -17.9410  -27.9850   22.8320 C   0  0  0  0  0  0  0  0  0  0  0  0
  -20.5150  -28.1780   22.9920 C   0  0  0  0  0  3  0  0  0  0  0  0
  -20.5560  -26.7750   22.3460 C   0  0  0  0  0  2  0  0  0  0  0  0
  -19.4000  -26.5230   21.3730 C   0  0  0  0  0  2  0  0  0  0  0  0
  -18.0550  -26.6650   22.0900 C   0  0  0  0  0  2  0  0  0  0  0  0
  -19.0970  -28.7030   23.2430 C   0  0  0  0  0  0  0  0  0  0  0  0
  -18.9360  -29.9420   23.9000 C   0  0  0  0  0  3  0  0  0  0  0  0
  -17.6520  -30.4640   24.1500 C   0  0  0  0  0  3  0  0  0  0  0  0
  -16.5120  -29.7420   23.7550 C   0  0  0  0  0  3  0  0  0  0  0  0
  -16.6590  -28.5040   23.1030 C   0  0  0  0  0  3  0  0  0  0  0  0
  -25.8540  -32.2800   23.6030 C   0  0  0  0  0  3  0  0  0  0  0  0
  -25.5590  -33.6550   24.0230 N   0  0  0  0  0  0  0  0  0  0  0  0
  -25.8620  -34.7500   23.3110 C   0  0  0  0  0  0  0  0  0  0  0  0
  -26.4940  -34.7050   22.2510 O   0  0  0  0  0  0  0  0  0  0  0  0
  -24.9960  -33.7610   24.8550 H   0  0  0  0  0  0  0  0  0  0  0  0
  -24.1280  -36.5590   23.1090 C   0  0  0  0  0  1  0  0  0  0  0  0
  -25.3920  -36.1110   23.8600 C   0  0  0  0  0  3  0  0  0  0  0  0
  -27.5500  -36.9490   24.6810 C   0  0  0  0  0  1  0  0  0  0  0  0
  -26.4240  -37.1670   23.7770 N   0  0  0  0  0  0  0  0  0  0  0  0
  -26.0260  -38.0810   23.9790 H   0  0  0  0  0  0  0  0  0  0  0  0
  -26.4290  -31.4400   24.8090 C   0  0  1  0  0  0  0  0  0  0  0  0
  -25.3860  -31.1390   25.9120 C   0  0  0  0  0  1  0  0  0  0  0  0
  -26.9920  -30.0900   24.3090 C   0  0  0  0  0  1  0  0  0  0  0  0
  -27.6110  -32.1970   25.4600 C   0  0  0  0  0  1  0  0  0  0  0  0
  1  5  2  0
  1  3  1  0
  3  4  2  0
  4  2  1  0
  4  7  1  0
  5  6  1  0
  6 52  1  0
  6  2  2  0
  7  8  1  0
  9  7  1  0
 10  3  1  0
 10 19  1  0
 11 19  1  0
 12 17  1  0
 13 14  1  0
 13 12  1  0
 15 14  1  0
 15 24  1  0
 15 16  1  0
 17 11  1  0
 17 16  1  0
 18 11  2  0
 19 20  1  0
 21 22  2  0
 22 41  1  0
 23 22  1  0
 23 26  1  0
 24 25  1  0
 24 21  1  0
 25 23  2  0
 26 27  1  0
 27 28  2  0
 29 32  1  0
 29 28  1  0
 30 29  2  0
 31 30  1  0
 31 26  2  0
 32 33  1  0
 33 34  1  0
 34 35  2  0
 36 35  1  0
 36 40  1  0
 37 36  2  0
 38 33  2  0
 38 37  1  0
 39 38  1  0
 41 42  1  0
 42 45  1  0
 42 44  1  0
 43 41  2  0
 46 21  1  0
 46 47  1  0
 48 46  1  0
 49  5  1  0
 49 51  1  0
 50 51  1  0
 53 54  1  0
 53 52  1  0
 55 56  1  0
 55 54  1  0
 56 58  1  0
 57 68  2  0
 58 63  1  0
 59 67  1  0
 59 69  1  0
 60 66  1  0
 60 62  1  0
 61 67  1  0
 62 61  1  0
 63 62  2  0
 64 65  1  0
 64 58  2  0
 65 60  2  0
 66 59  1  0
 67 57  1  0
 69 71  2  0
 70 69  1  0
 72 70  1  0
 73 82  2  0
 73 78  1  0
 74 70  1  0
 74 78  1  0
 75 74  1  0
 76 77  1  0
 76 75  1  0
 77 73  1  0
 78 79  2  0
 79 80  1  0
 81 80  2  0
 82 81  1  0
 83 57  1  0
 83 84  1  0
 83 93  1  0
 84 87  1  0
 85 89  1  0
 85 84  1  0
 86 85  2  0
 89 88  1  0
 91 89  1  0
 91 92  1  0
 91 90  1  0
 93 96  1  1
 93 94  1  0
 95 93  1  0
M  ISO  4  11 100  19 100  55 101  56 101
M  END
>  <TORSDO>  (15) 
F 24

>  <SCORE>  (15) 
-11.571

>  <name>  (15) 
14

>  <ligand_id>  (15) 
14

>  <original_smiles>  (15) 
[H]c1c([H])c([H])c2c(c1[H])C([H])([H])C([H])([H])C([H])([H])C2([H])N([H])C(=O)C1([H])N(C(=O)C([H])(N([H])C(=O)C([H])(N([H])C([H])([H])[H])C([H])([H])[H])C(C([H])([H])[H])(C([H])([H])[H])C([H])([H])[H])C([H])([H])c2c([H])c(OC([H])([H])C([H])([H])C([H])([H])Oc3c([H])c(N([H])[H])c(C([H])([H])N([H])C(=O)N4C([H])([H])C([H])([H])C([H])([H])C([H])(n5nc(-c6c([H])c([H])c(Oc7c([H])c([H])c(F)c([H])c7F)c([H])c6[H])c(C(=O)N([H])[H])c5N([H])[H])C4([H])[H])c([H])c3OC([H])([H])C([H])([H])[H])c([H])c([H])c2C1([H])[H]

>  <smiles>  (15) 
[H]c1c([H])c([H])c2c(c1[H])C([H])([H])C([H])([H])C([H])([H])C2([H])N([H])C(=O)C1([H])N(C(=O)C([H])(N([H])C(=O)C([H])(N([H])C([H])([H])[H])C([H])([H])[H])C(C([H])([H])[H])(C([H])([H])[H])C([H])([H])[H])C([H])([H])c2c([H])c(OC([H])([H])C([H])([H])C([H])([H])Oc3c([H])c(N([H])[H])c(C([H])([H])N([H])C(=O)N4C([H])([H])C([H])([H])C([H])([H])C([H])(n5nc(-c6c([H])c([H])c(Oc7c([H])c([H])c(F)c([H])c7F)c([H])c6[H])c(C(=O)N([H])[H])c5N([H])[H])C4([H])[H])c([H])c3OC([H])([H])C([H])([H])[H])c([H])c([H])c2C1([H])[H]

$$$$
15:0:0
     RDKit          3D

 97106  0  0  1  0  0  0  0  0999 V2000
  -26.6040  -24.4040   21.5470 C   0  0  0  0  0  3  0  0  0  0  0  0
  -27.7760  -24.5470   20.9020 C   0  0  0  0  0  0  0  0  0  0  0  0
  -25.6000  -23.2940   21.3510 C   0  0  0  0  0  2  0  0  0  0  0  0
  -28.3660  -23.5330   19.9160 C   0  0  0  0  0  2  0  0  0  0  0  0
  -26.1010  -21.8830   21.6970 C   0  0  0  0  0  2  0  0  0  0  0  0
  -27.7450  -22.1080   19.8520 C   0  0  0  0  0  2  0  0  0  0  0  0
  -27.4260  -21.5260   21.1660 N   0  0  0  0  0  0  0  0  0  0  0  0
  -29.6050  -18.4280   21.3310 C   0  0  0  0  0  3  0  0  0  0  0  0
  -27.0100  -19.2140   21.9630 C   0  0  0  0  0  3  0  0  0  0  0  0
  -29.2350  -19.7850   21.1880 C   0  0  0  0  0  0  0  0  0  0  0  0
  -28.6850  -17.4530   21.7700 C   0  0  0  0  0  0  0  0  0  0  0  0
  -27.8880  -20.1980   21.4260 C   0  0  0  0  0  0  0  0  0  0  0  0
  -27.3900  -17.8640   22.1560 C   0  0  0  0  0  0  0  0  0  0  0  0
  -30.3500  -20.7550   20.8230 C   0  0  0  0  0  1  0  0  0  0  0  0
  -25.2590  -17.2830   23.1370 C   0  0  0  0  0  1  0  0  0  0  0  0
  -26.5550  -16.9040   22.6930 O   0  0  0  0  0  0  0  0  0  0  0  0
  -29.0680  -15.9720   21.8290 C   0  0  0  0  0  2  0  0  0  0  0  0
  -30.7100  -14.4530   20.5860 C   0  0  0  0  0  0  0  0  0  0  0  0
  -30.4270  -12.3050   19.4220 C   0  0  0  0  0  2  0  0  0  0  0  0
  -29.4930  -12.5040   18.2100 C   0  0  0  0  0  2  0  0  0  0  0  0
  -28.0110  -12.3720   18.6210 C   0  0  0  0  0  2  0  0  0  0  0  0
  -27.6630  -13.1990   19.8900 C   0  0  0  0  0  3  0  0  0  0  0  0
  -28.7100  -12.9270   20.9950 C   0  0  0  0  0  2  0  0  0  0  0  0
  -30.0250  -13.2830   20.4450 N   0  0  0  0  0  0  0  0  0  0  0  0
  -31.8560  -14.5970   20.1590 O   0  0  0  0  0  0  0  0  0  0  0  0
  -30.0080  -15.5800   20.7800 N   0  0  0  0  0  0  0  0  0  0  0  0
  -30.5200  -16.3760   20.4330 H   0  0  0  0  0  0  0  0  0  0  0  0
  -25.2540  -13.8110   20.5570 C   0  0  0  0  0  0  0  0  0  0  0  0
  -24.1820  -13.0410   20.9170 C   0  0  0  0  0  0  0  0  0  0  0  0
  -24.6390  -11.6880   20.8770 C   0  0  0  0  0  0  0  0  0  0  0  0
  -26.3030  -12.9280   20.3460 N   0  0  0  0  0  0  0  0  0  0  0  0
  -25.9320  -11.6450   20.5870 N   0  0  0  0  0  0  0  0  0  0  0  0
  -23.9060  -10.4270   21.0440 C   0  0  0  0  0  0  0  0  0  0  0  0
  -24.3610   -9.4180   21.9210 C   0  0  0  0  0  3  0  0  0  0  0  0
  -23.6290   -8.2210   22.0750 C   0  0  0  0  0  3  0  0  0  0  0  0
  -22.4270   -8.0260   21.3540 C   0  0  0  0  0  0  0  0  0  0  0  0
  -21.9910   -9.0250   20.4650 C   0  0  0  0  0  3  0  0  0  0  0  0
  -22.7240  -10.2120   20.3080 C   0  0  0  0  0  3  0  0  0  0  0  0
  -21.6610   -6.8870   21.4240 O   0  0  0  0  0  0  0  0  0  0  0  0
  -21.6830   -6.0740   22.5290 C   0  0  0  0  0  0  0  0  0  0  0  0
  -21.4000   -6.5650   23.8230 C   0  0  0  0  0  3  0  0  0  0  0  0
  -21.3650   -5.6800   24.9180 C   0  0  0  0  0  3  0  0  0  0  0  0
  -21.6050   -4.3060   24.7230 C   0  0  0  0  0  0  0  0  0  0  0  0
  -21.8820   -3.8160   23.4340 C   0  0  0  0  0  3  0  0  0  0  0  0
  -21.9190   -4.6980   22.3410 C   0  0  0  0  0  0  0  0  0  0  0  0
  -22.1650   -4.2170   21.0980 F   0  0  0  0  0  0  0  0  0  0  0  0
  -21.5640   -3.4550   25.7740 F   0  0  0  0  0  0  0  0  0  0  0  0
  -22.7840  -13.5210   21.1850 C   0  0  0  0  0  0  0  0  0  0  0  0
  -22.0510  -12.8210   22.0430 N   0  0  0  0  0  0  0  0  0  0  0  0
  -22.3520  -14.5530   20.6720 O   0  0  0  0  0  0  0  0  0  0  0  0
  -22.4120  -11.9860   22.4800 H   0  0  0  0  0  0  0  0  0  0  0  0
  -21.1130  -13.1230   22.2670 H   0  0  0  0  0  0  0  0  0  0  0  0
  -25.4180  -15.1770   20.3670 N   0  0  0  0  0  0  0  0  0  0  0  0
  -24.6430  -15.8250   20.4370 H   0  0  0  0  0  0  0  0  0  0  0  0
  -26.2780  -15.6170   20.0660 H   0  0  0  0  0  0  0  0  0  0  0  0
  -28.5900  -25.8230   21.1000 C   0  0  0  0  0  2  0  0  0  0  0  0
  -28.4090  -26.7480   20.0290 O   0  0  0  0  0  0  0  0  0  0  0  0
  -24.6100  -31.8710   23.2140 C   0  0  0  0  0  0  0  0  0  0  0  0
  -27.2420  -27.4700   20.0820 C   0  0  0  0  0  0  0  0  0  0  0  0
  -23.3980  -30.4940   21.5530 C   0  0  0  0  0  3  0  0  0  0  0  0
  -24.8470  -28.9600   20.1180 C   0  0  0  0  0  0  0  0  0  0  0  0
  -25.9240  -30.8410   21.3670 C   0  0  0  0  0  2  0  0  0  0  0  0
  -26.0030  -29.4770   20.7170 C   0  0  0  0  0  0  0  0  0  0  0  0
  -27.2030  -28.7350   20.7050 C   0  0  0  0  0  3  0  0  0  0  0  0
  -26.0760  -26.9650   19.4710 C   0  0  0  0  0  3  0  0  0  0  0  0
  -24.8740  -27.6980   19.4990 C   0  0  0  0  0  3  0  0  0  0  0  0
  -23.6060  -29.8220   20.1690 C   0  0  0  0  0  2  0  0  0  0  0  0
  -24.6620  -31.0830   22.1030 N   0  0  0  0  0  0  0  0  0  0  0  0
  -23.5300  -32.1450   23.7560 O   0  0  0  0  0  0  0  0  0  0  0  0
  -22.7380  -29.4680   22.5000 C   0  0  0  0  0  0  0  0  0  0  0  0
  -21.4110  -29.3050   22.3740 N   0  0  0  0  0  0  0  0  0  0  0  0
  -23.4160  -28.8220   23.3050 O   0  0  0  0  0  0  0  0  0  0  0  0
  -20.9270  -29.8750   21.6940 H   0  0  0  0  0  0  0  0  0  0  0  0
  -18.0260  -28.1360   22.8520 C   0  0  0  0  0  0  0  0  0  0  0  0
  -20.5850  -28.3660   23.1310 C   0  0  0  0  0  3  0  0  0  0  0  0
  -20.6770  -26.9420   22.5360 C   0  0  0  0  0  2  0  0  0  0  0  0
  -19.5700  -26.6370   21.5220 C   0  0  0  0  0  2  0  0  0  0  0  0
  -18.1910  -26.7880   22.1720 C   0  0  0  0  0  2  0  0  0  0  0  0
  -19.1510  -28.8840   23.2900 C   0  0  0  0  0  0  0  0  0  0  0  0
  -18.9440  -30.1450   23.8880 C   0  0  0  0  0  3  0  0  0  0  0  0
  -17.6450  -30.6600   24.0540 C   0  0  0  0  0  3  0  0  0  0  0  0
  -16.5340  -29.9090   23.6320 C   0  0  0  0  0  3  0  0  0  0  0  0
  -16.7250  -28.6500   23.0350 C   0  0  0  0  0  3  0  0  0  0  0  0
  -25.9010  -32.4830   23.8420 C   0  0  0  0  0  3  0  0  0  0  0  0
  -26.4460  -31.6600   25.0730 C   0  0  1  0  0  0  0  0  0  0  0  0
  -25.3750  -31.3690   26.1500 C   0  0  0  0  0  1  0  0  0  0  0  0
  -27.0290  -30.3050   24.6090 C   0  0  0  0  0  1  0  0  0  0  0  0
  -27.6030  -32.4320   25.7480 C   0  0  0  0  0  1  0  0  0  0  0  0
  -25.5890  -33.8630   24.2350 N   0  0  0  0  0  0  0  0  0  0  0  0
  -25.9030  -34.9480   23.5140 C   0  0  0  0  0  0  0  0  0  0  0  0
  -26.5590  -34.8920   22.4700 O   0  0  0  0  0  0  0  0  0  0  0  0
  -25.0020  -33.9800   25.0470 H   0  0  0  0  0  0  0  0  0  0  0  0
  -24.1500  -36.7330   23.2640 C   0  0  0  0  0  1  0  0  0  0  0  0
  -25.4110  -36.3120   24.0340 C   0  0  0  0  0  3  0  0  0  0  0  0
  -27.5580  -37.1820   24.8460 C   0  0  0  0  0  1  0  0  0  0  0  0
  -26.4300  -37.3790   23.9400 N   0  0  0  0  0  0  0  0  0  0  0  0
  -26.0200  -38.2880   24.1370 H   0  0  0  0  0  0  0  0  0  0  0  0
  2 56  1  0
  2  1  2  0
  3  1  1  0
  3  5  1  0
  4  2  1  0
  6  4  1  0
  6  7  1  0
  7 12  1  0
  7  5  1  0
  8 11  1  0
  9 13  1  0
 10  8  2  0
 10 12  1  0
 11 17  1  0
 11 13  2  0
 12  9  2  0
 13 16  1  0
 14 10  1  0
 16 15  1  0
 18 26  1  0
 19 24  1  0
 20 21  1  0
 20 19  1  0
 22 21  1  0
 22 31  1  0
 22 23  1  0
 24 18  1  0
 24 23  1  0
 25 18  2  0
 26 17  1  0
 27 26  1  0
 28 29  2  0
 29 48  1  0
 30 29  1  0
 30 33  1  0
 31 28  1  0
 31 32  1  0
 32 30  2  0
 33 34  1  0
 34 35  2  0
 36 39  1  0
 36 35  1  0
 37 36  2  0
 38 37  1  0
 38 33  2  0
 39 40  1  0
 40 41  1  0
 41 42  2  0
 43 42  1  0
 43 47  1  0
 44 43  2  0
 45 40  2  0
 45 44  1  0
 46 45  1  0
 48 49  1  0
 49 52  1  0
 49 51  1  0
 50 48  2  0
 53 54  1  0
 53 28  1  0
 55 53  1  0
 57 59  1  0
 57 56  1  0
 58 69  2  0
 59 64  1  0
 60 68  1  0
 60 70  1  0
 61 67  1  0
 61 63  1  0
 62 68  1  0
 63 62  1  0
 64 63  2  0
 65 66  1  0
 65 59  2  0
 66 61  2  0
 67 60  1  0
 68 58  1  0
 70 72  2  0
 71 70  1  0
 73 71  1  0
 74 83  2  0
 74 79  1  0
 75 71  1  0
 75 79  1  0
 76 75  1  0
 77 78  1  0
 77 76  1  0
 78 74  1  0
 79 80  2  0
 80 81  1  0
 82 81  2  0
 83 82  1  0
 84 58  1  0
 84 89  1  0
 84 85  1  0
 85 88  1  1
 85 86  1  0
 87 85  1  0
 89 92  1  0
 90 94  1  0
 90 89  1  0
 91 90  2  0
 94 93  1  0
 96 94  1  0
 96 97  1  0
 96 95  1  0
M  ISO  4  18 100  26 100  56 101  57 101
M  END
>  <TORSDO>  (16) 
F 20

>  <SCORE>  (16) 
15.410

>  <name>  (16) 
15

>  <ligand_id>  (16) 
15

>  <original_smiles>  (16) 
[H]C1=C(C([H])([H])Oc2c([H])c([H])c3c(c2[H])C([H])([H])N(C(=O)C([H])(N([H])C(=O)C([H])(N([H])C([H])([H])[H])C([H])([H])[H])C(C([H])([H])[H])(C([H])([H])[H])C([H])([H])[H])C([H])(C(=O)N([H])C2([H])c4c([H])c([H])c([H])c([H])c4C([H])([H])C([H])([H])C2([H])[H])C3([H])[H])C([H])([H])C([H])([H])N(c2c([H])c(OC([H])([H])[H])c(C([H])([H])N([H])C(=O)N3C([H])([H])C([H])([H])C([H])([H])C([H])(n4nc(-c5c([H])c([H])c(Oc6c([H])c([H])c(F)c([H])c6F)c([H])c5[H])c(C(=O)N([H])[H])c4N([H])[H])C3([H])[H])c([H])c2C([H])([H])[H])C([H])([H])C1([H])[H]

>  <smiles>  (16) 
[H]C1=C(C([H])([H])Oc2c([H])c([H])c3c(c2[H])C([H])([H])N(C(=O)C([H])(N([H])C(=O)C([H])(N([H])C([H])([H])[H])C([H])([H])[H])C(C([H])([H])[H])(C([H])([H])[H])C([H])([H])[H])C([H])(C(=O)N([H])C2([H])c4c([H])c([H])c([H])c([H])c4C([H])([H])C([H])([H])C2([H])[H])C3([H])[H])C([H])([H])C([H])([H])N(c2c([H])c(OC([H])([H])[H])c(C([H])([H])N([H])C(=O)N3C([H])([H])C([H])([H])C([H])([H])C([H])(n4nc(-c5c([H])c([H])c(Oc6c([H])c([H])c(F)c([H])c6F)c([H])c5[H])c(C(=O)N([H])[H])c4N([H])[H])C3([H])[H])c([H])c2C([H])([H])[H])C([H])([H])C1([H])[H]

$$$$
16:0:0
     RDKit          3D

 95103  0  0  1  0  0  0  0  0999 V2000
  -29.5810  -20.0050   20.7790 C   0  0  0  0  0  3  0  0  0  0  0  0
  -31.0770  -20.1640   18.8800 C   0  0  0  0  0  3  0  0  0  0  0  0
  -31.0580  -18.1090   20.2370 C   0  0  0  0  0  0  0  0  0  0  0  0
  -30.1050  -20.7690   19.7060 C   0  0  0  0  0  0  0  0  0  0  0  0
  -30.0420  -18.6900   21.0450 C   0  0  0  0  0  0  0  0  0  0  0  0
  -31.5540  -18.8600   19.1440 C   0  0  0  0  0  0  0  0  0  0  0  0
  -32.5270  -18.3500   18.3520 F   0  0  0  0  0  0  0  0  0  0  0  0
  -29.4950  -18.0020   22.1340 N   0  0  0  0  0  0  0  0  0  0  0  0
  -28.6270  -18.3370   22.5420 H   0  0  0  0  0  0  0  0  0  0  0  0
  -29.5930  -16.9940   22.1940 H   0  0  0  0  0  0  0  0  0  0  0  0
  -29.7010  -22.0960   19.4350 N   0  0  0  0  0  0  0  0  0  0  0  0
  -30.1780  -22.5440   18.6550 H   0  0  0  0  0  0  0  0  0  0  0  0
  -29.3850  -22.9840   20.5580 C   0  0  0  0  0  2  0  0  0  0  0  0
  -29.4800  -24.4760   20.2330 C   0  0  0  0  0  3  0  0  0  0  0  0
  -28.5210  -25.3820   20.5140 C   0  0  0  0  0  3  0  0  0  0  0  0
  -28.6300  -26.7340   20.2540 O   0  0  0  0  0  0  0  0  0  0  0  0
  -24.6700  -31.8680   23.2490 C   0  0  0  0  0  0  0  0  0  0  0  0
  -27.4590  -27.4650   20.2340 C   0  0  0  0  0  0  0  0  0  0  0  0
  -23.5200  -30.4280   21.6000 C   0  0  0  0  0  3  0  0  0  0  0  0
  -25.0300  -28.9170   20.2050 C   0  0  0  0  0  0  0  0  0  0  0  0
  -26.0400  -30.8440   21.4360 C   0  0  0  0  0  2  0  0  0  0  0  0
  -26.1690  -29.4700   20.8060 C   0  0  0  0  0  0  0  0  0  0  0  0
  -27.3880  -28.7520   20.8190 C   0  0  0  0  0  3  0  0  0  0  0  0
  -26.3050  -26.9310   19.6200 C   0  0  0  0  0  3  0  0  0  0  0  0
  -25.0950  -27.6460   19.6090 C   0  0  0  0  0  3  0  0  0  0  0  0
  -23.7650  -29.7440   20.2290 C   0  0  0  0  0  2  0  0  0  0  0  0
  -24.7600  -31.0620   22.1540 N   0  0  0  0  0  0  0  0  0  0  0  0
  -23.5750  -32.1180   23.7730 O   0  0  0  0  0  0  0  0  0  0  0  0
  -22.8800  -29.3980   22.5580 C   0  0  0  0  0  0  0  0  0  0  0  0
  -21.5710  -29.1520   22.3860 N   0  0  0  0  0  0  0  0  0  0  0  0
  -23.5590  -28.8220   23.4130 O   0  0  0  0  0  0  0  0  0  0  0  0
  -21.0830  -29.6710   21.6690 H   0  0  0  0  0  0  0  0  0  0  0  0
  -18.2480  -27.7830   22.7530 C   0  0  0  0  0  0  0  0  0  0  0  0
  -20.7690  -28.1930   23.1450 C   0  0  0  0  0  3  0  0  0  0  0  0
  -20.9800  -26.7530   22.6240 C   0  0  0  0  0  2  0  0  0  0  0  0
  -19.9520  -26.3380   21.5660 C   0  0  0  0  0  2  0  0  0  0  0  0
  -18.5330  -26.4250   22.1350 C   0  0  0  0  0  2  0  0  0  0  0  0
  -19.2980  -28.6190   23.2140 C   0  0  0  0  0  0  0  0  0  0  0  0
  -18.9800  -29.8870   23.7490 C   0  0  0  0  0  3  0  0  0  0  0  0
  -17.6430  -30.3180   23.8300 C   0  0  0  0  0  3  0  0  0  0  0  0
  -16.6060  -29.4800   23.3880 C   0  0  0  0  0  3  0  0  0  0  0  0
  -16.9090  -28.2140   22.8550 C   0  0  0  0  0  3  0  0  0  0  0  0
  -25.9320  -32.5330   23.8830 C   0  0  0  0  0  3  0  0  0  0  0  0
  -25.5900  -33.9290   24.1880 N   0  0  0  0  0  0  0  0  0  0  0  0
  -25.9060  -34.9750   23.4150 C   0  0  0  0  0  0  0  0  0  0  0  0
  -26.5870  -34.8690   22.3910 O   0  0  0  0  0  0  0  0  0  0  0  0
  -24.9860  -34.0820   24.9830 H   0  0  0  0  0  0  0  0  0  0  0  0
  -24.1390  -36.7200   23.0160 C   0  0  0  0  0  1  0  0  0  0  0  0
  -25.3830  -36.3590   23.8430 C   0  0  0  0  0  3  0  0  0  0  0  0
  -27.4830  -37.3150   24.6840 C   0  0  0  0  0  1  0  0  0  0  0  0
  -26.3930  -37.4340   23.7200 N   0  0  0  0  0  0  0  0  0  0  0  0
  -25.9630  -38.3470   23.8380 H   0  0  0  0  0  0  0  0  0  0  0  0
  -26.4450  -31.7880   25.1760 C   0  0  1  0  0  0  0  0  0  0  0  0
  -25.3340  -31.5100   26.2170 C   0  0  0  0  0  1  0  0  0  0  0  0
  -27.0920  -30.4330   24.8040 C   0  0  0  0  0  1  0  0  0  0  0  0
  -27.5460  -32.6290   25.8630 C   0  0  0  0  0  1  0  0  0  0  0  0
  -31.7280  -16.7650   20.5930 C   0  0  0  0  0  2  0  0  0  0  0  0
  -31.4870  -14.5080   19.5180 C   0  0  0  0  0  0  0  0  0  0  0  0
  -30.9810  -12.2960   18.5350 C   0  0  0  0  0  2  0  0  0  0  0  0
  -29.9170  -12.4330   17.4290 C   0  0  0  0  0  2  0  0  0  0  0  0
  -28.4980  -12.3750   18.0280 C   0  0  0  0  0  2  0  0  0  0  0  0
  -28.3220  -13.3180   19.2480 C   0  0  0  0  0  3  0  0  0  0  0  0
  -29.4860  -13.1470   20.2490 C   0  0  0  0  0  2  0  0  0  0  0  0
  -30.7460  -13.3650   19.5190 N   0  0  0  0  0  0  0  0  0  0  0  0
  -32.5210  -14.6270   18.8570 O   0  0  0  0  0  0  0  0  0  0  0  0
  -31.0060  -15.5230   20.2580 N   0  0  0  0  0  0  0  0  0  0  0  0
  -30.1370  -15.3520   20.7400 H   0  0  0  0  0  0  0  0  0  0  0  0
  -26.1110  -14.0740   20.3230 C   0  0  0  0  0  0  0  0  0  0  0  0
  -25.0280  -13.3730   20.7810 C   0  0  0  0  0  0  0  0  0  0  0  0
  -25.3440  -11.9920   20.5910 C   0  0  0  0  0  0  0  0  0  0  0  0
  -27.0230  -13.1260   19.8890 N   0  0  0  0  0  0  0  0  0  0  0  0
  -26.5710  -11.8630   20.1040 N   0  0  0  0  0  0  0  0  0  0  0  0
  -24.5270  -10.7890   20.7910 C   0  0  0  0  0  0  0  0  0  0  0  0
  -24.9110   -9.7780   21.7000 C   0  0  0  0  0  3  0  0  0  0  0  0
  -24.0980   -8.6390   21.8880 C   0  0  0  0  0  3  0  0  0  0  0  0
  -22.8870   -8.5030   21.1670 C   0  0  0  0  0  0  0  0  0  0  0  0
  -22.5220   -9.5020   20.2480 C   0  0  0  0  0  3  0  0  0  0  0  0
  -23.3340  -10.6320   20.0570 C   0  0  0  0  0  3  0  0  0  0  0  0
  -22.0490   -7.4200   21.2660 O   0  0  0  0  0  0  0  0  0  0  0  0
  -21.8750   -6.7490   22.4510 C   0  0  0  0  0  0  0  0  0  0  0  0
  -21.3590   -7.3880   23.5990 C   0  0  0  0  0  3  0  0  0  0  0  0
  -21.1310   -6.6460   24.7750 C   0  0  0  0  0  3  0  0  0  0  0  0
  -21.4080   -5.2660   24.8020 C   0  0  0  0  0  0  0  0  0  0  0  0
  -21.9180   -4.6270   23.6580 C   0  0  0  0  0  3  0  0  0  0  0  0
  -22.1470   -5.3670   22.4850 C   0  0  0  0  0  0  0  0  0  0  0  0
  -22.6180   -4.7430   21.3780 F   0  0  0  0  0  0  0  0  0  0  0  0
  -21.1830   -4.5510   25.9290 F   0  0  0  0  0  0  0  0  0  0  0  0
  -23.7330  -13.9480   21.2790 C   0  0  0  0  0  0  0  0  0  0  0  0
  -23.0760  -13.2630   22.2080 N   0  0  0  0  0  0  0  0  0  0  0  0
  -23.3230  -15.0370   20.8790 O   0  0  0  0  0  0  0  0  0  0  0  0
  -23.4230  -12.3800   22.5490 H   0  0  0  0  0  0  0  0  0  0  0  0
  -22.2120  -13.6300   22.5830 H   0  0  0  0  0  0  0  0  0  0  0  0
  -26.3890  -15.4340   20.2220 N   0  0  0  0  0  0  0  0  0  0  0  0
  -25.7200  -16.1480   20.4930 H   0  0  0  0  0  0  0  0  0  0  0  0
  -27.2390  -15.8200   19.8300 H   0  0  0  0  0  0  0  0  0  0  0  0
  1  5  1  0
  2  6  2  0
  2  4  1  0
  3 57  1  0
  3  5  2  0
  4  1  2  0
  5  8  1  0
  6  3  1  0
  7  6  1  0
  8 10  1  0
  8  9  1  0
 11  4  1  0
 11 13  1  0
 12 11  1  0
 14 15  2  0
 14 13  1  0
 16 15  1  0
 17 28  2  0
 18 16  1  0
 18 23  1  0
 19 27  1  0
 19 29  1  0
 20 26  1  0
 20 22  1  0
 21 27  1  0
 22 23  2  0
 22 21  1  0
 24 18  2  0
 25 24  1  0
 25 20  2  0
 26 19  1  0
 27 17  1  0
 29 31  2  0
 30 29  1  0
 32 30  1  0
 33 42  2  0
 33 38  1  0
 34 30  1  0
 34 38  1  0
 35 34  1  0
 36 37  1  0
 36 35  1  0
 37 33  1  0
 38 39  2  0
 39 40  1  0
 41 40  2  0
 42 41  1  0
 43 17  1  0
 43 44  1  0
 43 53  1  0
 44 47  1  0
 45 49  1  0
 45 44  1  0
 46 45  2  0
 49 48  1  0
 51 52  1  0
 51 49  1  0
 51 50  1  0
 53 56  1  1
 53 54  1  0
 55 53  1  0
 58 64  1  0
 58 66  1  0
 59 64  1  0
 60 61  1  0
 60 59  1  0
 62 61  1  0
 62 71  1  0
 62 63  1  0
 64 63  1  0
 65 58  2  0
 66 57  1  0
 66 67  1  0
 68 69  2  0
 69 88  1  0
 70 69  1  0
 70 73  1  0
 71 72  1  0
 71 68  1  0
 72 70  2  0
 73 74  1  0
 74 75  2  0
 76 79  1  0
 76 75  1  0
 77 76  2  0
 78 77  1  0
 78 73  2  0
 79 80  1  0
 80 85  2  0
 80 81  1  0
 81 82  2  0
 82 83  1  0
 83 87  1  0
 84 83  2  0
 85 84  1  0
 86 85  1  0
 88 89  1  0
 89 91  1  0
 89 92  1  0
 90 88  2  0
 93 68  1  0
 93 94  1  0
 95 93  1  0
M  ISO  4  15 101  16 101  58 100  66 100
M  END
>  <TORSDO>  (17) 
F 21

>  <SCORE>  (17) 
-11.972

>  <name>  (17) 
16

>  <ligand_id>  (17) 
16

>  <original_smiles>  (17) 
[H]C(Oc1c([H])c([H])c2c(c1[H])C([H])([H])N(C(=O)C([H])(N([H])C(=O)C([H])(N([H])C([H])([H])[H])C([H])([H])[H])C(C([H])([H])[H])(C([H])([H])[H])C([H])([H])[H])C([H])(C(=O)N([H])C1([H])c3c([H])c([H])c([H])c([H])c3C([H])([H])C([H])([H])C1([H])[H])C2([H])[H])=C([H])C([H])([H])N([H])c1c([H])c(F)c(C([H])([H])N([H])C(=O)N2C([H])([H])C([H])([H])C([H])([H])C([H])(n3nc(-c4c([H])c([H])c(Oc5c([H])c([H])c(F)c([H])c5F)c([H])c4[H])c(C(=O)N([H])[H])c3N([H])[H])C2([H])[H])c(N([H])[H])c1[H]

>  <smiles>  (17) 
[H]C(Oc1c([H])c([H])c2c(c1[H])C([H])([H])N(C(=O)C([H])(N([H])C(=O)C([H])(N([H])C([H])([H])[H])C([H])([H])[H])C(C([H])([H])[H])(C([H])([H])[H])C([H])([H])[H])C([H])(C(=O)N([H])C1([H])c3c([H])c([H])c([H])c([H])c3C([H])([H])C([H])([H])C1([H])[H])C2([H])[H])=C([H])C([H])([H])N([H])c1c([H])c(F)c(C([H])([H])N([H])C(=O)N2C([H])([H])C([H])([H])C([H])([H])C([H])(n3nc(-c4c([H])c([H])c(Oc5c([H])c([H])c(F)c([H])c5F)c([H])c4[H])c(C(=O)N([H])[H])c3N([H])[H])C2([H])[H])c(N([H])[H])c1[H]

$$$$
17:0:0
     RDKit          3D

 93102  0  0  1  0  0  0  0  0999 V2000
  -28.4700  -22.1980   20.5780 C   0  0  0  0  0  0  0  0  0  0  0  0
  -30.4880  -23.3740   20.2520 C   0  0  0  0  0  2  0  0  0  0  0  0
  -30.7210  -21.8630   20.6110 C   0  0  0  0  0  2  0  0  0  0  0  0
  -29.0440  -23.6780   20.7310 C   0  0  0  0  0  3  0  0  0  0  0  0
  -29.4150  -21.1910   20.4580 N   0  0  0  0  0  0  0  0  0  0  0  0
  -27.2540  -21.9950   20.6100 O   0  0  0  0  0  0  0  0  0  0  0  0
  -30.0080  -18.5920   20.8440 C   0  0  0  0  0  3  0  0  0  0  0  0
  -29.2440  -19.7040   20.2100 C   0  0  0  0  0  0  0  0  0  0  0  0
  -28.3110  -19.1670   19.3270 C   0  0  0  0  0  0  0  0  0  0  0  0
  -29.6800  -17.2700   20.4300 C   0  0  0  0  0  0  0  0  0  0  0  0
  -28.4390  -17.4110   19.2010 S   0  0  0  0  0  0  0  0  0  0  0  0
  -30.6260  -14.8760   20.3790 C   0  0  0  0  0  0  0  0  0  0  0  0
  -30.4160  -12.5790   19.3960 C   0  0  0  0  0  2  0  0  0  0  0  0
  -29.4900  -12.6110   18.1590 C   0  0  0  0  0  2  0  0  0  0  0  0
  -28.0240  -12.4430   18.5820 C   0  0  0  0  0  2  0  0  0  0  0  0
  -27.6370  -13.3600   19.7720 C   0  0  0  0  0  3  0  0  0  0  0  0
  -28.6820  -13.2950   20.9120 C   0  0  0  0  0  2  0  0  0  0  0  0
  -29.9900  -13.6460   20.3390 N   0  0  0  0  0  0  0  0  0  0  0  0
  -31.7550  -14.9830   19.9010 O   0  0  0  0  0  0  0  0  0  0  0  0
  -29.9730  -15.9780   20.9330 N   0  0  0  0  0  0  0  0  0  0  0  0
  -29.2500  -15.6570   21.5550 H   0  0  0  0  0  0  0  0  0  0  0  0
  -25.2550  -13.9660   20.4920 C   0  0  0  0  0  0  0  0  0  0  0  0
  -24.1800  -13.2020   20.8450 C   0  0  0  0  0  0  0  0  0  0  0  0
  -24.6330  -11.8450   20.8210 C   0  0  0  0  0  0  0  0  0  0  0  0
  -26.2920  -13.0770   20.2540 N   0  0  0  0  0  0  0  0  0  0  0  0
  -25.9260  -11.7970   20.5280 N   0  0  0  0  0  0  0  0  0  0  0  0
  -23.8910  -10.5890   21.0040 C   0  0  0  0  0  0  0  0  0  0  0  0
  -24.3120   -9.6140   21.9340 C   0  0  0  0  0  3  0  0  0  0  0  0
  -23.5770   -8.4210   22.1090 C   0  0  0  0  0  3  0  0  0  0  0  0
  -22.4040   -8.1930   21.3500 C   0  0  0  0  0  0  0  0  0  0  0  0
  -22.0030   -9.1560   20.4070 C   0  0  0  0  0  3  0  0  0  0  0  0
  -22.7390  -10.3410   20.2300 C   0  0  0  0  0  3  0  0  0  0  0  0
  -21.6430   -7.0500   21.4310 O   0  0  0  0  0  0  0  0  0  0  0  0
  -21.5830   -6.3040   22.5820 C   0  0  0  0  0  0  0  0  0  0  0  0
  -21.1470   -6.8610   23.8060 C   0  0  0  0  0  3  0  0  0  0  0  0
  -21.0320   -6.0400   24.9450 C   0  0  0  0  0  3  0  0  0  0  0  0
  -21.3430   -4.6670   24.8660 C   0  0  0  0  0  0  0  0  0  0  0  0
  -21.7740   -4.1130   23.6480 C   0  0  0  0  0  3  0  0  0  0  0  0
  -21.8880   -4.9310   22.5100 C   0  0  0  0  0  0  0  0  0  0  0  0
  -22.2800   -4.3880   21.3330 F   0  0  0  0  0  0  0  0  0  0  0  0
  -21.2250   -3.8800   25.9600 F   0  0  0  0  0  0  0  0  0  0  0  0
  -22.7860  -13.6900   21.1150 C   0  0  0  0  0  0  0  0  0  0  0  0
  -22.0510  -13.0010   21.9830 N   0  0  0  0  0  0  0  0  0  0  0  0
  -22.3580  -14.7140   20.5860 O   0  0  0  0  0  0  0  0  0  0  0  0
  -22.4100  -12.1660   22.4230 H   0  0  0  0  0  0  0  0  0  0  0  0
  -21.1100  -13.3000   22.2030 H   0  0  0  0  0  0  0  0  0  0  0  0
  -25.4440  -15.3350   20.3310 N   0  0  0  0  0  0  0  0  0  0  0  0
  -24.7100  -16.0150   20.5010 H   0  0  0  0  0  0  0  0  0  0  0  0
  -26.3080  -15.7650   20.0310 H   0  0  0  0  0  0  0  0  0  0  0  0
  -27.2610  -19.7420   18.4690 C   0  0  0  0  0  3  0  0  0  0  0  0
  -26.2660  -19.1050   18.1120 O   0  0  0  0  0  0  0  0  0  0  0  0
  -28.1790  -24.9340   20.1110 C   0  0  0  0  0  2  0  0  0  0  0  0
  -28.3610  -26.4180   20.3860 O   0  0  0  0  0  0  0  0  0  0  0  0
  -24.6180  -31.9380   23.2970 C   0  0  0  0  0  0  0  0  0  0  0  0
  -27.2560  -27.3180   20.2870 C   0  0  0  0  0  0  0  0  0  0  0  0
  -23.4220  -30.5400   21.6520 C   0  0  0  0  0  3  0  0  0  0  0  0
  -24.8880  -28.9750   20.2390 C   0  0  0  0  0  0  0  0  0  0  0  0
  -25.9710  -30.8370   21.4930 C   0  0  0  0  0  2  0  0  0  0  0  0
  -26.0570  -29.4560   20.8430 C   0  0  0  0  0  0  0  0  0  0  0  0
  -27.2390  -28.6400   20.8560 C   0  0  0  0  0  3  0  0  0  0  0  0
  -26.0590  -26.9130   19.6460 C   0  0  0  0  0  3  0  0  0  0  0  0
  -24.8930  -27.7080   19.6350 C   0  0  0  0  0  3  0  0  0  0  0  0
  -23.6470  -29.8540   20.2780 C   0  0  0  0  0  2  0  0  0  0  0  0
  -24.6890  -31.1200   22.2030 N   0  0  0  0  0  0  0  0  0  0  0  0
  -23.5310  -32.2190   23.8250 O   0  0  0  0  0  0  0  0  0  0  0  0
  -22.7460  -29.5310   22.6120 C   0  0  0  0  0  0  0  0  0  0  0  0
  -21.4200  -29.3520   22.4750 N   0  0  0  0  0  0  0  0  0  0  0  0
  -23.4160  -28.9070   23.4390 O   0  0  0  0  0  0  0  0  0  0  0  0
  -20.9330  -29.8970   21.7760 H   0  0  0  0  0  0  0  0  0  0  0  0
  -18.0420  -28.1550   22.9600 C   0  0  0  0  0  0  0  0  0  0  0  0
  -20.5980  -28.4180   23.2470 C   0  0  0  0  0  3  0  0  0  0  0  0
  -20.7060  -26.9840   22.6800 C   0  0  0  0  0  2  0  0  0  0  0  0
  -19.6130  -26.6570   21.6590 C   0  0  0  0  0  2  0  0  0  0  0  0
  -18.2260  -26.8020   22.2930 C   0  0  0  0  0  2  0  0  0  0  0  0
  -19.1570  -28.9200   23.3940 C   0  0  0  0  0  0  0  0  0  0  0  0
  -18.9320  -30.1850   23.9800 C   0  0  0  0  0  3  0  0  0  0  0  0
  -17.6260  -30.6830   24.1400 C   0  0  0  0  0  3  0  0  0  0  0  0
  -16.5250  -29.9150   23.7260 C   0  0  0  0  0  3  0  0  0  0  0  0
  -16.7340  -28.6560   23.1360 C   0  0  0  0  0  3  0  0  0  0  0  0
  -25.8960  -32.5750   23.9200 C   0  0  0  0  0  3  0  0  0  0  0  0
  -26.3940  -31.8250   25.2170 C   0  0  1  0  0  0  0  0  0  0  0  0
  -25.2880  -31.6120   26.2760 C   0  0  0  0  0  1  0  0  0  0  0  0
  -26.9790  -30.4380   24.8610 C   0  0  0  0  0  1  0  0  0  0  0  0
  -27.5350  -32.6290   25.8810 C   0  0  0  0  0  1  0  0  0  0  0  0
  -25.5890  -33.9800   24.2280 N   0  0  0  0  0  0  0  0  0  0  0  0
  -25.9260  -35.0230   23.4570 C   0  0  0  0  0  0  0  0  0  0  0  0
  -26.5950  -34.9060   22.4270 O   0  0  0  0  0  0  0  0  0  0  0  0
  -24.9940  -34.1490   25.0270 H   0  0  0  0  0  0  0  0  0  0  0  0
  -24.1980  -36.8150   23.0870 C   0  0  0  0  0  1  0  0  0  0  0  0
  -25.4400  -36.4170   23.9000 C   0  0  0  0  0  3  0  0  0  0  0  0
  -27.5900  -37.2980   24.6970 C   0  0  0  0  0  1  0  0  0  0  0  0
  -26.4660  -37.4790   23.7830 N   0  0  0  0  0  0  0  0  0  0  0  0
  -26.0510  -38.3860   23.9760 H   0  0  0  0  0  0  0  0  0  0  0  0
  1  6  2  0
  1  4  1  0
  2  3  1  0
  2  4  1  0
  4 52  1  0
  5  1  1  0
  5  3  1  0
  8  5  1  0
  8  7  1  0
  9  8  2  0
 10  7  2  0
 10 20  1  0
 11  9  1  0
 11 10  1  0
 12 20  1  0
 13 18  1  0
 14 15  1  0
 14 13  1  0
 16 15  1  0
 16 25  1  0
 16 17  1  0
 18 12  1  0
 18 17  1  0
 19 12  2  0
 20 21  1  0
 22 23  2  0
 23 42  1  0
 24 23  1  0
 24 27  1  0
 25 22  1  0
 25 26  1  0
 26 24  2  0
 27 28  1  0
 28 29  2  0
 30 33  1  0
 30 29  1  0
 31 30  2  0
 32 31  1  0
 32 27  2  0
 33 34  1  0
 34 35  1  0
 35 36  2  0
 37 36  1  0
 37 41  1  0
 38 37  2  0
 39 34  2  0
 39 38  1  0
 40 39  1  0
 42 43  1  0
 43 46  1  0
 43 45  1  0
 44 42  2  0
 47 22  1  0
 47 48  1  0
 49 47  1  0
 50  9  1  0
 51 50  2  0
 52 53  1  0
 54 65  2  0
 55 53  1  0
 55 60  1  0
 56 64  1  0
 56 66  1  0
 57 63  1  0
 57 59  1  0
 58 64  1  0
 59 60  2  0
 59 58  1  0
 61 55  2  0
 62 61  1  0
 62 57  2  0
 63 56  1  0
 64 54  1  0
 66 68  2  0
 67 66  1  0
 69 67  1  0
 70 79  2  0
 70 75  1  0
 71 67  1  0
 71 75  1  0
 72 71  1  0
 73 74  1  0
 73 72  1  0
 74 70  1  0
 75 76  2  0
 76 77  1  0
 78 77  2  0
 79 78  1  0
 80 54  1  0
 80 85  1  0
 80 81  1  0
 81 84  1  1
 81 82  1  0
 83 81  1  0
 85 88  1  0
 86 90  1  0
 86 85  1  0
 87 86  2  0
 90 89  1  0
 92 90  1  0
 92 93  1  0
 92 91  1  0
M  ISO  4  12 100  20 100  52 101  53 101
M  END
>  <TORSDO>  (18) 
F 19

>  <SCORE>  (18) 
-14.115

>  <name>  (18) 
17

>  <ligand_id>  (18) 
17

>  <original_smiles>  (18) 
[H]C(=O)c1sc(N([H])C(=O)N2C([H])([H])C([H])([H])C([H])([H])C([H])(n3nc(-c4c([H])c([H])c(Oc5c([H])c([H])c(F)c([H])c5F)c([H])c4[H])c(C(=O)N([H])[H])c3N([H])[H])C2([H])[H])c([H])c1N1C(=O)C([H])(C([H])([H])Oc2c([H])c([H])c3c(c2[H])C([H])([H])N(C(=O)C([H])(N([H])C(=O)C([H])(N([H])C([H])([H])[H])C([H])([H])[H])C(C([H])([H])[H])(C([H])([H])[H])C([H])([H])[H])C([H])(C(=O)N([H])C2([H])c4c([H])c([H])c([H])c([H])c4C([H])([H])C([H])([H])C2([H])[H])C3([H])[H])C([H])([H])C1([H])[H]

>  <smiles>  (18) 
[H]C(=O)c1sc(N([H])C(=O)N2C([H])([H])C([H])([H])C([H])([H])C([H])(n3nc(-c4c([H])c([H])c(Oc5c([H])c([H])c(F)c([H])c5F)c([H])c4[H])c(C(=O)N([H])[H])c3N([H])[H])C2([H])[H])c([H])c1N1C(=O)C([H])(C([H])([H])Oc2c([H])c([H])c3c(c2[H])C([H])([H])N(C(=O)C([H])(N([H])C(=O)C([H])(N([H])C([H])([H])[H])C([H])([H])[H])C(C([H])([H])[H])(C([H])([H])[H])C([H])([H])[H])C([H])(C(=O)N([H])C2([H])c4c([H])c([H])c([H])c([H])c4C([H])([H])C([H])([H])C2([H])[H])C3([H])[H])C([H])([H])C1([H])[H]

$$$$
18:0:0
     RDKit          3D

 96105  0  0  1  0  0  0  0  0999 V2000
  -28.2590  -24.0900   20.6640 C   0  0  0  0  0  0  0  0  0  0  0  0
  -29.3400  -23.2590   20.5060 C   0  0  0  0  0  0  0  0  0  0  0  0
  -26.9070  -23.4540   20.6460 C   0  0  0  0  0  0  0  0  0  0  0  0
  -26.7860  -21.9840   20.2220 C   0  0  0  0  0  2  0  0  0  0  0  0
  -28.0210  -21.4910   19.4560 C   0  0  0  0  0  2  0  0  0  0  0  0
  -30.7710  -23.7520   20.6370 C   0  0  0  0  0  1  0  0  0  0  0  0
  -29.2400  -21.8940   20.1530 N   0  0  0  0  0  0  0  0  0  0  0  0
  -25.8810  -24.0160   21.0370 O   0  0  0  0  0  0  0  0  0  0  0  0
  -30.6560  -19.7610   22.8970 C   0  0  0  0  0  3  0  0  0  0  0  0
  -30.9340  -18.5520   22.2230 C   0  0  0  0  0  3  0  0  0  0  0  0
  -30.1360  -20.8740   22.2000 C   0  0  0  0  0  3  0  0  0  0  0  0
  -30.1250  -19.5610   20.1580 C   0  0  0  0  0  3  0  0  0  0  0  0
  -30.6870  -18.4380   20.8370 C   0  0  0  0  0  0  0  0  0  0  0  0
  -29.8490  -20.7930   20.8210 C   0  0  0  0  0  0  0  0  0  0  0  0
  -31.4630  -14.8270   20.0550 C   0  0  0  0  0  0  0  0  0  0  0  0
  -31.0010  -12.6570   18.9910 C   0  0  0  0  0  2  0  0  0  0  0  0
  -30.0470  -12.9120   17.8050 C   0  0  0  0  0  2  0  0  0  0  0  0
  -28.5830  -12.8450   18.2780 C   0  0  0  0  0  2  0  0  0  0  0  0
  -28.3250  -13.6930   19.5520 C   0  0  0  0  0  3  0  0  0  0  0  0
  -29.4060  -13.4570   20.6330 C   0  0  0  0  0  2  0  0  0  0  0  0
  -30.7210  -13.6810   20.0160 N   0  0  0  0  0  0  0  0  0  0  0  0
  -32.6110  -14.8410   19.6000 O   0  0  0  0  0  0  0  0  0  0  0  0
  -31.1800  -17.2300   20.0570 C   0  0  0  0  0  0  0  0  0  0  0  0
  -30.8400  -15.9700   20.4570 N   0  0  0  0  0  0  0  0  0  0  0  0
  -31.8560  -17.4630   19.0480 O   0  0  0  0  0  0  0  0  0  0  0  0
  -30.0430  -15.8830   21.0630 H   0  0  0  0  0  0  0  0  0  0  0  0
  -26.0010  -14.3980   20.3940 C   0  0  0  0  0  0  0  0  0  0  0  0
  -24.9020  -13.6730   20.7680 C   0  0  0  0  0  0  0  0  0  0  0  0
  -25.2750  -12.2990   20.6480 C   0  0  0  0  0  0  0  0  0  0  0  0
  -26.9780  -13.4700   20.0740 N   0  0  0  0  0  0  0  0  0  0  0  0
  -26.5470  -12.1990   20.2850 N   0  0  0  0  0  0  0  0  0  0  0  0
  -24.4770  -11.0750   20.8010 C   0  0  0  0  0  0  0  0  0  0  0  0
  -24.8510  -10.0590   21.7060 C   0  0  0  0  0  3  0  0  0  0  0  0
  -24.0570   -8.9000   21.8500 C   0  0  0  0  0  3  0  0  0  0  0  0
  -22.8740   -8.7510   21.0870 C   0  0  0  0  0  0  0  0  0  0  0  0
  -22.5190   -9.7560   20.1690 C   0  0  0  0  0  3  0  0  0  0  0  0
  -23.3130  -10.9050   20.0250 C   0  0  0  0  0  3  0  0  0  0  0  0
  -22.0550   -7.6480   21.1410 O   0  0  0  0  0  0  0  0  0  0  0  0
  -21.9100   -6.9150   22.2920 C   0  0  0  0  0  0  0  0  0  0  0  0
  -21.4760   -7.5040   23.5010 C   0  0  0  0  0  3  0  0  0  0  0  0
  -21.2740   -6.7010   24.6410 C   0  0  0  0  0  3  0  0  0  0  0  0
  -21.4960   -5.3120   24.5740 C   0  0  0  0  0  0  0  0  0  0  0  0
  -21.9230   -4.7240   23.3700 C   0  0  0  0  0  3  0  0  0  0  0  0
  -22.1260   -5.5240   22.2320 C   0  0  0  0  0  0  0  0  0  0  0  0
  -22.5180   -4.9490   21.0690 F   0  0  0  0  0  0  0  0  0  0  0  0
  -21.2940   -4.5400   25.6670 F   0  0  0  0  0  0  0  0  0  0  0  0
  -23.5500  -14.2200   21.1230 C   0  0  0  0  0  0  0  0  0  0  0  0
  -22.8240  -13.5370   22.0010 N   0  0  0  0  0  0  0  0  0  0  0  0
  -23.1500  -15.2860   20.6570 O   0  0  0  0  0  0  0  0  0  0  0  0
  -23.1620  -12.6730   22.3970 H   0  0  0  0  0  0  0  0  0  0  0  0
  -21.9180  -13.8830   22.2820 H   0  0  0  0  0  0  0  0  0  0  0  0
  -26.2470  -15.7630   20.2790 N   0  0  0  0  0  0  0  0  0  0  0  0
  -25.5290  -16.4580   20.4470 H   0  0  0  0  0  0  0  0  0  0  0  0
  -27.1050  -16.1600   19.9190 H   0  0  0  0  0  0  0  0  0  0  0  0
  -28.3150  -25.5980   21.0730 C   0  0  0  0  0  2  0  0  0  0  0  0
  -28.2840  -26.6000   20.0140 O   0  0  0  0  0  0  0  0  0  0  0  0
  -24.6220  -31.8990   23.1670 C   0  0  0  0  0  0  0  0  0  0  0  0
  -27.1770  -27.4320   20.0180 C   0  0  0  0  0  0  0  0  0  0  0  0
  -23.3830  -30.5120   21.5370 C   0  0  0  0  0  3  0  0  0  0  0  0
  -24.8080  -28.9860   20.0650 C   0  0  0  0  0  0  0  0  0  0  0  0
  -25.9110  -30.8530   21.3030 C   0  0  0  0  0  2  0  0  0  0  0  0
  -25.9810  -29.4850   20.6500 C   0  0  0  0  0  0  0  0  0  0  0  0
  -27.1720  -28.7130   20.6290 C   0  0  0  0  0  3  0  0  0  0  0  0
  -26.0040  -26.9820   19.3870 C   0  0  0  0  0  3  0  0  0  0  0  0
  -24.8170  -27.7350   19.4270 C   0  0  0  0  0  3  0  0  0  0  0  0
  -23.5670  -29.8490   20.1460 C   0  0  0  0  0  2  0  0  0  0  0  0
  -24.6580  -31.1040   22.0590 N   0  0  0  0  0  0  0  0  0  0  0  0
  -23.5500  -32.1710   23.7260 O   0  0  0  0  0  0  0  0  0  0  0  0
  -22.7450  -29.4850   22.5000 C   0  0  0  0  0  0  0  0  0  0  0  0
  -21.4200  -29.3000   22.3890 N   0  0  0  0  0  0  0  0  0  0  0  0
  -23.4410  -28.8590   23.3040 O   0  0  0  0  0  0  0  0  0  0  0  0
  -20.9200  -29.8590   21.7110 H   0  0  0  0  0  0  0  0  0  0  0  0
  -18.0600  -28.0660   22.9010 C   0  0  0  0  0  0  0  0  0  0  0  0
  -20.6150  -28.3570   23.1660 C   0  0  0  0  0  3  0  0  0  0  0  0
  -20.7340  -26.9240   22.5970 C   0  0  0  0  0  2  0  0  0  0  0  0
  -19.6330  -26.5820   21.5870 C   0  0  0  0  0  2  0  0  0  0  0  0
  -18.2510  -26.7150   22.2330 C   0  0  0  0  0  2  0  0  0  0  0  0
  -19.1710  -28.8440   23.3240 C   0  0  0  0  0  0  0  0  0  0  0  0
  -18.9380  -30.1070   23.9090 C   0  0  0  0  0  3  0  0  0  0  0  0
  -17.6290  -30.5960   24.0730 C   0  0  0  0  0  3  0  0  0  0  0  0
  -16.5320  -29.8160   23.6660 C   0  0  0  0  0  3  0  0  0  0  0  0
  -16.7490  -28.5530   23.0870 C   0  0  0  0  0  3  0  0  0  0  0  0
  -25.9200  -32.5210   23.7670 C   0  0  0  0  0  3  0  0  0  0  0  0
  -25.6110  -33.9090   24.1430 N   0  0  0  0  0  0  0  0  0  0  0  0
  -25.9300  -34.9830   23.4080 C   0  0  0  0  0  0  0  0  0  0  0  0
  -26.5840  -34.9130   22.3650 O   0  0  0  0  0  0  0  0  0  0  0  0
  -25.0250  -34.0380   24.9530 H   0  0  0  0  0  0  0  0  0  0  0  0
  -24.1910  -36.7800   23.1300 C   0  0  0  0  0  1  0  0  0  0  0  0
  -25.4440  -36.3560   23.9130 C   0  0  0  0  0  3  0  0  0  0  0  0
  -27.5890  -37.2200   24.7360 C   0  0  0  0  0  1  0  0  0  0  0  0
  -26.4720  -37.4150   23.8160 N   0  0  0  0  0  0  0  0  0  0  0  0
  -26.0670  -38.3270   23.9990 H   0  0  0  0  0  0  0  0  0  0  0  0
  -26.4800  -31.7200   25.0050 C   0  0  1  0  0  0  0  0  0  0  0  0
  -25.4200  -31.4420   26.0970 C   0  0  0  0  0  1  0  0  0  0  0  0
  -27.0610  -30.3590   24.5560 C   0  0  0  0  0  1  0  0  0  0  0  0
  -27.6430  -32.5050   25.6530 C   0  0  0  0  0  1  0  0  0  0  0  0
  1 55  1  0
  2  6  1  0
  2  1  2  0
  3  1  1  0
  3  8  2  0
  4  3  1  0
  5  7  1  0
  5  4  1  0
  7  2  1  0
  7 14  1  0
 10  9  1  0
 11  9  2  0
 12 14  2  0
 12 13  1  0
 13 10  2  0
 14 11  1  0
 15 24  1  0
 16 21  1  0
 17 18  1  0
 17 16  1  0
 19 18  1  0
 19 30  1  0
 19 20  1  0
 21 15  1  0
 21 20  1  0
 22 15  2  0
 23 24  1  0
 23 13  1  0
 24 26  1  0
 25 23  2  0
 27 28  2  0
 28 47  1  0
 29 28  1  0
 29 32  1  0
 30 31  1  0
 30 27  1  0
 31 29  2  0
 32 33  1  0
 33 34  2  0
 35 38  1  0
 35 34  1  0
 36 35  2  0
 37 36  1  0
 37 32  2  0
 38 39  1  0
 39 40  1  0
 40 41  2  0
 42 41  1  0
 42 46  1  0
 43 42  2  0
 44 39  2  0
 44 43  1  0
 45 44  1  0
 47 48  1  0
 48 51  1  0
 48 50  1  0
 49 47  2  0
 52 27  1  0
 52 53  1  0
 54 52  1  0
 56 58  1  0
 56 55  1  0
 57 68  2  0
 58 63  1  0
 59 67  1  0
 59 69  1  0
 60 66  1  0
 60 62  1  0
 61 67  1  0
 62 61  1  0
 63 62  2  0
 64 65  1  0
 64 58  2  0
 65 60  2  0
 66 59  1  0
 67 57  1  0
 69 71  2  0
 70 69  1  0
 72 70  1  0
 73 82  2  0
 73 78  1  0
 74 70  1  0
 74 78  1  0
 75 74  1  0
 76 77  1  0
 76 75  1  0
 77 73  1  0
 78 79  2  0
 79 80  1  0
 81 80  2  0
 82 81  1  0
 83 57  1  0
 83 84  1  0
 83 93  1  0
 84 87  1  0
 85 89  1  0
 85 84  1  0
 86 85  2  0
 89 88  1  0
 91 89  1  0
 91 92  1  0
 91 90  1  0
 93 96  1  1
 93 94  1  0
 95 93  1  0
M  ISO  4  15 100  24 100  55 101  56 101
M  END
>  <TORSDO>  (19) 
F 18

>  <SCORE>  (19) 
-13.317

>  <name>  (19) 
18

>  <ligand_id>  (19) 
18

>  <original_smiles>  (19) 
[H]c1c([H])c(C(=O)N([H])C(=O)N2C([H])([H])C([H])([H])C([H])([H])C([H])(n3nc(-c4c([H])c([H])c(Oc5c([H])c([H])c(F)c([H])c5F)c([H])c4[H])c(C(=O)N([H])[H])c3N([H])[H])C2([H])[H])c([H])c(N2C(C([H])([H])[H])=C(C([H])([H])Oc3c([H])c([H])c4c(c3[H])C([H])([H])N(C(=O)C([H])(N([H])C(=O)C([H])(N([H])C([H])([H])[H])C([H])([H])[H])C(C([H])([H])[H])(C([H])([H])[H])C([H])([H])[H])C([H])(C(=O)N([H])C3([H])c5c([H])c([H])c([H])c([H])c5C([H])([H])C([H])([H])C3([H])[H])C4([H])[H])C(=O)C([H])([H])C2([H])[H])c1[H]

>  <smiles>  (19) 
[H]c1c([H])c(C(=O)N([H])C(=O)N2C([H])([H])C([H])([H])C([H])([H])C([H])(n3nc(-c4c([H])c([H])c(Oc5c([H])c([H])c(F)c([H])c5F)c([H])c4[H])c(C(=O)N([H])[H])c3N([H])[H])C2([H])[H])c([H])c(N2C(C([H])([H])[H])=C(C([H])([H])Oc3c([H])c([H])c4c(c3[H])C([H])([H])N(C(=O)C([H])(N([H])C(=O)C([H])(N([H])C([H])([H])[H])C([H])([H])[H])C(C([H])([H])[H])(C([H])([H])[H])C([H])([H])[H])C([H])(C(=O)N([H])C3([H])c5c([H])c([H])c([H])c([H])c5C([H])([H])C([H])([H])C3([H])[H])C4([H])[H])C(=O)C([H])([H])C2([H])[H])c1[H]

$$$$
19:0:0
     RDKit          3D

 94102  0  0  1  0  0  0  0  0999 V2000
  -28.7820  -21.8080   20.6770 C   0  0  0  0  0  0  0  0  0  0  0  0
  -29.5030  -20.9590   21.4270 N   0  0  0  0  0  0  0  0  0  0  0  0
  -28.2700  -21.5160   19.5940 O   0  0  0  0  0  0  0  0  0  0  0  0
  -29.8130  -21.3250   22.3220 H   0  0  0  0  0  0  0  0  0  0  0  0
  -29.7560  -18.8100   20.1310 C   0  0  0  0  0  3  0  0  0  0  0  0
  -29.7620  -17.4610   22.5710 C   0  0  0  0  0  3  0  0  0  0  0  0
  -29.9370  -17.3980   20.1430 C   0  0  0  0  0  0  0  0  0  0  0  0
  -29.6050  -19.5440   21.3290 C   0  0  0  0  0  0  0  0  0  0  0  0
  -30.0250  -16.6950   21.4000 C   0  0  0  0  0  0  0  0  0  0  0  0
  -29.5740  -18.8490   22.5450 C   0  0  0  0  0  0  0  0  0  0  0  0
  -30.0320  -16.7350   18.7660 C   0  0  0  0  0  1  0  0  0  0  0  0
  -29.3510  -19.5230   23.7030 F   0  0  0  0  0  0  0  0  0  0  0  0
  -30.7910  -14.4270   20.6440 C   0  0  0  0  0  0  0  0  0  0  0  0
  -30.4220  -12.3150   19.4130 C   0  0  0  0  0  2  0  0  0  0  0  0
  -29.4830  -12.4790   18.2050 C   0  0  0  0  0  2  0  0  0  0  0  0
  -28.0090  -12.3590   18.6310 C   0  0  0  0  0  2  0  0  0  0  0  0
  -27.6650  -13.2190   19.8720 C   0  0  0  0  0  3  0  0  0  0  0  0
  -28.7100  -13.0230   20.9920 C   0  0  0  0  0  2  0  0  0  0  0  0
  -30.0490  -13.3020   20.4390 N   0  0  0  0  0  0  0  0  0  0  0  0
  -31.8470  -14.6420   20.0420 O   0  0  0  0  0  0  0  0  0  0  0  0
  -30.7640  -14.8460   22.9590 C   0  0  0  0  0  1  0  0  0  0  0  0
  -30.3660  -15.2850   21.6030 N   0  0  0  0  0  0  0  0  0  0  0  0
  -25.2570  -13.8180   20.5630 C   0  0  0  0  0  0  0  0  0  0  0  0
  -24.1890  -13.0470   20.9220 C   0  0  0  0  0  0  0  0  0  0  0  0
  -24.6450  -11.6910   20.8800 C   0  0  0  0  0  0  0  0  0  0  0  0
  -26.3070  -12.9410   20.3370 N   0  0  0  0  0  0  0  0  0  0  0  0
  -25.9390  -11.6560   20.5840 N   0  0  0  0  0  0  0  0  0  0  0  0
  -23.9110  -10.4300   21.0470 C   0  0  0  0  0  0  0  0  0  0  0  0
  -24.3640   -9.4180   21.9230 C   0  0  0  0  0  3  0  0  0  0  0  0
  -23.6290   -8.2230   22.0750 C   0  0  0  0  0  3  0  0  0  0  0  0
  -22.4270   -8.0300   21.3530 C   0  0  0  0  0  0  0  0  0  0  0  0
  -21.9920   -9.0310   20.4650 C   0  0  0  0  0  3  0  0  0  0  0  0
  -22.7290  -10.2170   20.3100 C   0  0  0  0  0  3  0  0  0  0  0  0
  -21.6620   -6.8900   21.4250 O   0  0  0  0  0  0  0  0  0  0  0  0
  -21.6830   -6.0760   22.5290 C   0  0  0  0  0  0  0  0  0  0  0  0
  -21.4020   -6.5660   23.8230 C   0  0  0  0  0  3  0  0  0  0  0  0
  -21.3680   -5.6800   24.9190 C   0  0  0  0  0  3  0  0  0  0  0  0
  -21.6040   -4.3060   24.7230 C   0  0  0  0  0  0  0  0  0  0  0  0
  -21.8820   -3.8160   23.4350 C   0  0  0  0  0  3  0  0  0  0  0  0
  -21.9170   -4.6980   22.3400 C   0  0  0  0  0  0  0  0  0  0  0  0
  -22.1660   -4.2160   21.0980 F   0  0  0  0  0  0  0  0  0  0  0  0
  -21.5590   -3.4560   25.7750 F   0  0  0  0  0  0  0  0  0  0  0  0
  -22.7900  -13.5230   21.1960 C   0  0  0  0  0  0  0  0  0  0  0  0
  -22.0470  -12.8220   22.0440 N   0  0  0  0  0  0  0  0  0  0  0  0
  -22.3600  -14.5570   20.6820 O   0  0  0  0  0  0  0  0  0  0  0  0
  -22.3990  -11.9890   22.4940 H   0  0  0  0  0  0  0  0  0  0  0  0
  -21.1090  -13.1310   22.2610 H   0  0  0  0  0  0  0  0  0  0  0  0
  -25.4190  -15.1920   20.4010 N   0  0  0  0  0  0  0  0  0  0  0  0
  -24.6370  -15.8280   20.5000 H   0  0  0  0  0  0  0  0  0  0  0  0
  -26.2650  -15.6470   20.0810 H   0  0  0  0  0  0  0  0  0  0  0  0
  -28.5910  -23.2040   21.2840 C   0  0  0  0  0  2  0  0  0  0  0  0
  -28.2160  -24.3550   20.3210 C   0  0  0  0  0  2  0  0  0  0  0  0
  -28.6420  -25.7200   20.9060 C   0  0  0  0  0  2  0  0  0  0  0  0
  -28.4400  -26.7980   20.0010 O   0  0  0  0  0  0  0  0  0  0  0  0
  -24.6110  -31.8700   23.2130 C   0  0  0  0  0  0  0  0  0  0  0  0
  -27.2510  -27.4720   20.1000 C   0  0  0  0  0  0  0  0  0  0  0  0
  -23.4000  -30.4900   21.5490 C   0  0  0  0  0  3  0  0  0  0  0  0
  -24.8560  -28.9490   20.1280 C   0  0  0  0  0  0  0  0  0  0  0  0
  -25.9240  -30.8460   21.3610 C   0  0  0  0  0  2  0  0  0  0  0  0
  -26.0080  -29.4740   20.7300 C   0  0  0  0  0  0  0  0  0  0  0  0
  -27.2100  -28.7360   20.7240 C   0  0  0  0  0  3  0  0  0  0  0  0
  -26.0890  -26.9500   19.5000 C   0  0  0  0  0  3  0  0  0  0  0  0
  -24.8870  -27.6800   19.5220 C   0  0  0  0  0  3  0  0  0  0  0  0
  -23.6190  -29.8150   20.1650 C   0  0  0  0  0  2  0  0  0  0  0  0
  -24.6610  -31.0850   22.0990 N   0  0  0  0  0  0  0  0  0  0  0  0
  -23.5310  -32.1390   23.7560 O   0  0  0  0  0  0  0  0  0  0  0  0
  -22.7360  -29.4680   22.5010 C   0  0  0  0  0  0  0  0  0  0  0  0
  -21.4090  -29.3120   22.3790 N   0  0  0  0  0  0  0  0  0  0  0  0
  -23.4150  -28.8140   23.2980 O   0  0  0  0  0  0  0  0  0  0  0  0
  -20.9200  -29.8970   21.7160 H   0  0  0  0  0  0  0  0  0  0  0  0
  -18.0310  -28.1290   22.8490 C   0  0  0  0  0  0  0  0  0  0  0  0
  -20.5870  -28.3630   23.1330 C   0  0  0  0  0  3  0  0  0  0  0  0
  -20.6870  -26.9470   22.5150 C   0  0  0  0  0  2  0  0  0  0  0  0
  -19.5820  -26.6820   21.4880 C   0  0  0  0  0  2  0  0  0  0  0  0
  -18.2060  -26.7930   22.1470 C   0  0  0  0  0  2  0  0  0  0  0  0
  -19.1530  -28.8770   23.2940 C   0  0  0  0  0  0  0  0  0  0  0  0
  -18.9400  -30.1340   23.9020 C   0  0  0  0  0  3  0  0  0  0  0  0
  -17.6370  -30.6470   24.0600 C   0  0  0  0  0  3  0  0  0  0  0  0
  -16.5310  -29.8950   23.6230 C   0  0  0  0  0  3  0  0  0  0  0  0
  -16.7270  -28.6360   23.0250 C   0  0  0  0  0  3  0  0  0  0  0  0
  -25.9030  -32.4800   23.8410 C   0  0  0  0  0  3  0  0  0  0  0  0
  -26.4530  -31.6500   25.0630 C   0  0  1  0  0  0  0  0  0  0  0  0
  -25.3870  -31.3510   26.1410 C   0  0  0  0  0  1  0  0  0  0  0  0
  -27.0340  -30.2960   24.5910 C   0  0  0  0  0  1  0  0  0  0  0  0
  -27.6190  -32.4110   25.7350 C   0  0  0  0  0  1  0  0  0  0  0  0
  -25.5870  -33.8590   24.2360 N   0  0  0  0  0  0  0  0  0  0  0  0
  -25.8990  -34.9440   23.5150 C   0  0  0  0  0  0  0  0  0  0  0  0
  -26.5590  -34.8920   22.4730 O   0  0  0  0  0  0  0  0  0  0  0  0
  -25.0110  -33.9720   25.0610 H   0  0  0  0  0  0  0  0  0  0  0  0
  -24.1490  -36.7290   23.2620 C   0  0  0  0  0  1  0  0  0  0  0  0
  -25.4090  -36.3100   24.0360 C   0  0  0  0  0  3  0  0  0  0  0  0
  -27.5610  -37.1780   24.8480 C   0  0  0  0  0  1  0  0  0  0  0  0
  -26.4310  -37.3770   23.9410 N   0  0  0  0  0  0  0  0  0  0  0  0
  -26.0200  -38.2840   24.1450 H   0  0  0  0  0  0  0  0  0  0  0  0
  1 51  1  0
  1  2  1  0
  2  4  1  0
  3  1  2  0
  5  7  2  0
  5  8  1  0
  7  9  1  0
  8  2  1  0
  8 10  2  0
  9 22  1  0
  9  6  2  0
 10  6  1  0
 10 12  1  0
 11  7  1  0
 13 22  1  0
 14 19  1  0
 15 16  1  0
 15 14  1  0
 17 16  1  0
 17 26  1  0
 17 18  1  0
 19 13  1  0
 19 18  1  0
 20 13  2  0
 22 21  1  0
 23 24  2  0
 24 43  1  0
 25 24  1  0
 25 28  1  0
 26 23  1  0
 26 27  1  0
 27 25  2  0
 28 29  1  0
 29 30  2  0
 31 34  1  0
 31 30  1  0
 32 31  2  0
 33 32  1  0
 33 28  2  0
 34 35  1  0
 35 36  1  0
 36 37  2  0
 38 37  1  0
 38 42  1  0
 39 38  2  0
 40 35  2  0
 40 39  1  0
 41 40  1  0
 43 44  1  0
 44 47  1  0
 44 46  1  0
 45 43  2  0
 48 49  1  0
 48 23  1  0
 50 48  1  0
 52 53  1  0
 52 51  1  0
 54 56  1  0
 54 53  1  0
 55 66  2  0
 56 61  1  0
 57 65  1  0
 57 67  1  0
 58 64  1  0
 58 60  1  0
 59 65  1  0
 60 59  1  0
 61 60  2  0
 62 63  1  0
 62 56  2  0
 63 58  2  0
 64 57  1  0
 65 55  1  0
 67 69  2  0
 68 67  1  0
 70 68  1  0
 71 80  2  0
 71 76  1  0
 72 68  1  0
 72 76  1  0
 73 72  1  0
 74 75  1  0
 74 73  1  0
 75 71  1  0
 76 77  2  0
 77 78  1  0
 79 78  2  0
 80 79  1  0
 81 55  1  0
 81 86  1  0
 81 82  1  0
 82 85  1  1
 82 83  1  0
 84 82  1  0
 86 89  1  0
 87 91  1  0
 87 86  1  0
 88 87  2  0
 91 90  1  0
 93 91  1  0
 93 94  1  0
 93 92  1  0
M  ISO  4  13 100  22 100  53 101  54 101
M  END
>  <TORSDO>  (20) 
F 20

>  <SCORE>  (20) 
-7.289

>  <name>  (20) 
19

>  <ligand_id>  (20) 
19

>  <original_smiles>  (20) 
[H]c1c([H])c([H])c2c(c1[H])C([H])([H])C([H])([H])C([H])([H])C2([H])N([H])C(=O)C1([H])N(C(=O)C([H])(N([H])C(=O)C([H])(N([H])C([H])([H])[H])C([H])([H])[H])C(C([H])([H])[H])(C([H])([H])[H])C([H])([H])[H])C([H])([H])c2c([H])c(OC([H])([H])C([H])([H])C([H])([H])C(=O)N([H])c3c([H])c(C([H])([H])[H])c(N(C(=O)N4C([H])([H])C([H])([H])C([H])([H])C([H])(n5nc(-c6c([H])c([H])c(Oc7c([H])c([H])c(F)c([H])c7F)c([H])c6[H])c(C(=O)N([H])[H])c5N([H])[H])C4([H])[H])C([H])([H])[H])c([H])c3F)c([H])c([H])c2C1([H])[H]

>  <smiles>  (20) 
[H]c1c([H])c([H])c2c(c1[H])C([H])([H])C([H])([H])C([H])([H])C2([H])N([H])C(=O)C1([H])N(C(=O)C([H])(N([H])C(=O)C([H])(N([H])C([H])([H])[H])C([H])([H])[H])C(C([H])([H])[H])(C([H])([H])[H])C([H])([H])[H])C([H])([H])c2c([H])c(OC([H])([H])C([H])([H])C([H])([H])C(=O)N([H])c3c([H])c(C([H])([H])[H])c(N(C(=O)N4C([H])([H])C([H])([H])C([H])([H])C([H])(n5nc(-c6c([H])c([H])c(Oc7c([H])c([H])c(F)c([H])c7F)c([H])c6[H])c(C(=O)N([H])[H])c5N([H])[H])C4([H])[H])C([H])([H])[H])c([H])c3F)c([H])c([H])c2C1([H])[H]

$$$$
20:0:0
     RDKit          3D

 95103  0  0  1  0  0  0  0  0999 V2000
  -29.4070  -19.0890   21.3800 C   0  0  0  0  0  3  0  0  0  0  0  0
  -31.2160  -19.1020   19.7780 C   0  0  0  0  0  3  0  0  0  0  0  0
  -30.4110  -18.3810   20.6880 C   0  0  0  0  0  0  0  0  0  0  0  0
  -29.1830  -20.4660   21.1340 C   0  0  0  0  0  0  0  0  0  0  0  0
  -30.9860  -20.4690   19.5000 C   0  0  0  0  0  0  0  0  0  0  0  0
  -29.9600  -21.1890   20.1930 C   0  0  0  0  0  0  0  0  0  0  0  0
  -28.0850  -21.1770   21.9050 C   0  0  0  0  0  1  0  0  0  0  0  0
  -31.2860  -14.8680   19.9450 C   0  0  0  0  0  0  0  0  0  0  0  0
  -30.9610  -12.6090   19.0130 C   0  0  0  0  0  2  0  0  0  0  0  0
  -29.9990  -12.6820   17.8090 C   0  0  0  0  0  2  0  0  0  0  0  0
  -28.5310  -12.5990   18.2770 C   0  0  0  0  0  2  0  0  0  0  0  0
  -28.2070  -13.5330   19.4760 C   0  0  0  0  0  3  0  0  0  0  0  0
  -29.2930  -13.4490   20.5730 C   0  0  0  0  0  2  0  0  0  0  0  0
  -30.5940  -13.6930   19.9360 N   0  0  0  0  0  0  0  0  0  0  0  0
  -32.4630  -14.9380   19.5820 O   0  0  0  0  0  0  0  0  0  0  0  0
  -30.6580  -16.9070   20.9680 C   0  0  0  0  0  0  0  0  0  0  0  0
  -30.0710  -16.4450   18.6200 C   0  0  0  0  0  1  0  0  0  0  0  0
  -30.5390  -16.0040   19.9500 N   0  0  0  0  0  0  0  0  0  0  0  0
  -30.9380  -16.5820   22.1280 O   0  0  0  0  0  0  0  0  0  0  0  0
  -25.8650  -14.1980   20.2970 C   0  0  0  0  0  0  0  0  0  0  0  0
  -24.7850  -13.4510   20.6800 C   0  0  0  0  0  0  0  0  0  0  0  0
  -25.2000  -12.0860   20.5970 C   0  0  0  0  0  0  0  0  0  0  0  0
  -26.8700  -13.2890   20.0050 N   0  0  0  0  0  0  0  0  0  0  0  0
  -26.4770  -12.0120   20.2460 N   0  0  0  0  0  0  0  0  0  0  0  0
  -24.4400  -10.8430   20.7750 C   0  0  0  0  0  0  0  0  0  0  0  0
  -24.8480   -9.8550   21.6970 C   0  0  0  0  0  3  0  0  0  0  0  0
  -24.0910   -8.6750   21.8640 C   0  0  0  0  0  3  0  0  0  0  0  0
  -22.9120   -8.4770   21.1090 C   0  0  0  0  0  0  0  0  0  0  0  0
  -22.5210   -9.4530   20.1750 C   0  0  0  0  0  3  0  0  0  0  0  0
  -23.2790  -10.6240   20.0060 C   0  0  0  0  0  3  0  0  0  0  0  0
  -22.1270   -7.3510   21.1870 O   0  0  0  0  0  0  0  0  0  0  0  0
  -22.0200   -6.6280   22.3470 C   0  0  0  0  0  0  0  0  0  0  0  0
  -21.5360   -7.2040   23.5420 C   0  0  0  0  0  3  0  0  0  0  0  0
  -21.3760   -6.4080   24.6940 C   0  0  0  0  0  3  0  0  0  0  0  0
  -21.6880   -5.0360   24.6500 C   0  0  0  0  0  0  0  0  0  0  0  0
  -22.1620   -4.4590   23.4600 C   0  0  0  0  0  3  0  0  0  0  0  0
  -22.3240   -5.2530   22.3110 C   0  0  0  0  0  0  0  0  0  0  0  0
  -22.7620   -4.6870   21.1600 F   0  0  0  0  0  0  0  0  0  0  0  0
  -21.5260   -4.2690   25.7540 F   0  0  0  0  0  0  0  0  0  0  0  0
  -23.4130  -13.9640   21.0120 C   0  0  0  0  0  0  0  0  0  0  0  0
  -22.6950  -13.2720   21.8890 N   0  0  0  0  0  0  0  0  0  0  0  0
  -22.9890  -15.0140   20.5290 O   0  0  0  0  0  0  0  0  0  0  0  0
  -23.0520  -12.4220   22.2990 H   0  0  0  0  0  0  0  0  0  0  0  0
  -21.7770  -13.5960   22.1550 H   0  0  0  0  0  0  0  0  0  0  0  0
  -26.0720  -15.5660   20.1510 N   0  0  0  0  0  0  0  0  0  0  0  0
  -25.3330  -16.2440   20.3030 H   0  0  0  0  0  0  0  0  0  0  0  0
  -26.9260  -15.9830   19.8060 H   0  0  0  0  0  0  0  0  0  0  0  0
  -31.7840  -21.0320   18.5060 N   0  0  0  0  0  0  0  0  0  0  0  0
  -32.2880  -20.4000   17.8950 H   0  0  0  0  0  0  0  0  0  0  0  0
  -31.4010  -21.8240   18.0060 H   0  0  0  0  0  0  0  0  0  0  0  0
  -29.6240  -22.5370   20.0380 O   0  0  0  0  0  0  0  0  0  0  0  0
  -30.5340  -23.4890   19.4680 C   0  0  0  0  0  2  0  0  0  0  0  0
  -30.2040  -24.9680   19.8060 C   0  0  0  0  0  2  0  0  0  0  0  0
  -28.8830  -25.5410   19.2390 C   0  0  0  0  0  2  0  0  0  0  0  0
  -28.7940  -26.9500   19.5320 O   0  0  0  0  0  0  0  0  0  0  0  0
  -24.5070  -31.4210   23.0230 C   0  0  0  0  0  0  0  0  0  0  0  0
  -27.5470  -27.5490   19.5560 C   0  0  0  0  0  0  0  0  0  0  0  0
  -23.4270  -30.0590   21.2620 C   0  0  0  0  0  3  0  0  0  0  0  0
  -25.0120  -28.8100   19.6980 C   0  0  0  0  0  0  0  0  0  0  0  0
  -25.9030  -30.6850   21.0920 C   0  0  0  0  0  2  0  0  0  0  0  0
  -26.1180  -29.3910   20.3300 C   0  0  0  0  0  0  0  0  0  0  0  0
  -27.3860  -28.7710   20.2510 C   0  0  0  0  0  3  0  0  0  0  0  0
  -26.4200  -26.9860   18.9120 C   0  0  0  0  0  3  0  0  0  0  0  0
  -25.1590  -27.6080   18.9850 C   0  0  0  0  0  3  0  0  0  0  0  0
  -23.6880  -29.5320   19.8250 C   0  0  0  0  0  2  0  0  0  0  0  0
  -24.6290  -30.7340   21.8510 N   0  0  0  0  0  0  0  0  0  0  0  0
  -23.4090  -31.5330   23.5870 O   0  0  0  0  0  0  0  0  0  0  0  0
  -22.8910  -28.8970   22.1270 C   0  0  0  0  0  0  0  0  0  0  0  0
  -21.5990  -28.5700   21.9570 N   0  0  0  0  0  0  0  0  0  0  0  0
  -23.6350  -28.2940   22.9060 O   0  0  0  0  0  0  0  0  0  0  0  0
  -21.0540  -29.1180   21.3060 H   0  0  0  0  0  0  0  0  0  0  0  0
  -18.3990  -26.9190   22.2480 C   0  0  0  0  0  0  0  0  0  0  0  0
  -20.8910  -27.4850   22.6350 C   0  0  0  0  0  3  0  0  0  0  0  0
  -21.1970  -26.1220   21.9730 C   0  0  0  0  0  2  0  0  0  0  0  0
  -20.1770  -25.7300   20.8990 C   0  0  0  0  0  2  0  0  0  0  0  0
  -18.7710  -25.6530   21.4970 C   0  0  0  0  0  2  0  0  0  0  0  0
  -19.3940  -27.7880   22.7690 C   0  0  0  0  0  0  0  0  0  0  0  0
  -18.9930  -28.9700   23.4280 C   0  0  0  0  0  3  0  0  0  0  0  0
  -17.6300  -29.2860   23.5740 C   0  0  0  0  0  3  0  0  0  0  0  0
  -16.6480  -28.4160   23.0700 C   0  0  0  0  0  3  0  0  0  0  0  0
  -17.0340  -27.2340   22.4130 C   0  0  0  0  0  3  0  0  0  0  0  0
  -25.7300  -32.1180   23.6960 C   0  0  0  0  0  3  0  0  0  0  0  0
  -25.3180  -33.4800   24.0600 N   0  0  0  0  0  0  0  0  0  0  0  0
  -25.5960  -34.5760   23.3400 C   0  0  0  0  0  0  0  0  0  0  0  0
  -26.2960  -34.5500   22.3240 O   0  0  0  0  0  0  0  0  0  0  0  0
  -24.6950  -33.5680   24.8480 H   0  0  0  0  0  0  0  0  0  0  0  0
  -23.7500  -36.2490   23.0010 C   0  0  0  0  0  1  0  0  0  0  0  0
  -25.0030  -35.9130   23.8250 C   0  0  0  0  0  3  0  0  0  0  0  0
  -27.0480  -36.9290   24.7290 C   0  0  0  0  0  1  0  0  0  0  0  0
  -25.9600  -37.0390   23.7600 N   0  0  0  0  0  0  0  0  0  0  0  0
  -25.4850  -37.9240   23.9150 H   0  0  0  0  0  0  0  0  0  0  0  0
  -26.2710  -31.3420   24.9590 C   0  0  1  0  0  0  0  0  0  0  0  0
  -25.1760  -31.0070   25.9980 C   0  0  0  0  0  1  0  0  0  0  0  0
  -26.9440  -30.0150   24.5360 C   0  0  0  0  0  1  0  0  0  0  0  0
  -27.3590  -32.1850   25.6650 C   0  0  0  0  0  1  0  0  0  0  0  0
  2  3  1  0
  3 16  1  0
  3  1  2  0
  4  1  1  0
  4  7  1  0
  5  2  2  0
  5  6  1  0
  6  4  2  0
  8 18  1  0
  9 14  1  0
 10 11  1  0
 10  9  1  0
 12 11  1  0
 12 23  1  0
 12 13  1  0
 14  8  1  0
 14 13  1  0
 15  8  2  0
 16 19  2  0
 17 18  1  0
 18 16  1  0
 20 21  2  0
 21 40  1  0
 22 21  1  0
 22 25  1  0
 23 24  1  0
 23 20  1  0
 24 22  2  0
 25 26  1  0
 26 27  2  0
 28 31  1  0
 28 27  1  0
 29 28  2  0
 30 29  1  0
 30 25  2  0
 31 32  1  0
 32 33  1  0
 33 34  2  0
 35 34  1  0
 35 39  1  0
 36 35  2  0
 37 32  2  0
 37 36  1  0
 38 37  1  0
 40 41  1  0
 41 44  1  0
 41 43  1  0
 42 40  2  0
 45 20  1  0
 45 46  1  0
 47 45  1  0
 48  5  1  0
 49 48  1  0
 50 48  1  0
 51  6  1  0
 52 53  1  0
 52 51  1  0
 54 55  1  0
 54 53  1  0
 55 57  1  0
 56 67  2  0
 57 62  1  0
 58 66  1  0
 58 68  1  0
 59 65  1  0
 59 61  1  0
 60 66  1  0
 61 60  1  0
 62 61  2  0
 63 64  1  0
 63 57  2  0
 64 59  2  0
 65 58  1  0
 66 56  1  0
 68 70  2  0
 69 68  1  0
 71 69  1  0
 72 81  2  0
 72 77  1  0
 73 69  1  0
 73 77  1  0
 74 73  1  0
 75 76  1  0
 75 74  1  0
 76 72  1  0
 77 78  2  0
 78 79  1  0
 80 79  2  0
 81 80  1  0
 82 56  1  0
 82 83  1  0
 82 92  1  0
 83 86  1  0
 84 88  1  0
 84 83  1  0
 85 84  2  0
 88 87  1  0
 90 88  1  0
 90 91  1  0
 90 89  1  0
 92 95  1  1
 92 93  1  0
 94 92  1  0
M  ISO  4   8 100  18 100  54 101  55 101
M  END
>  <TORSDO>  (21) 
F 21

>  <SCORE>  (21) 
-10.772

>  <name>  (21) 
20

>  <ligand_id>  (21) 
20

>  <original_smiles>  (21) 
[H]c1c([H])c([H])c2c(c1[H])C([H])([H])C([H])([H])C([H])([H])C2([H])N([H])C(=O)C1([H])N(C(=O)C([H])(N([H])C(=O)C([H])(N([H])C([H])([H])[H])C([H])([H])[H])C(C([H])([H])[H])(C([H])([H])[H])C([H])([H])[H])C([H])([H])c2c([H])c(OC([H])([H])C([H])([H])C([H])([H])Oc3c(N([H])[H])c([H])c(C(=O)N(C(=O)N4C([H])([H])C([H])([H])C([H])([H])C([H])(n5nc(-c6c([H])c([H])c(Oc7c([H])c([H])c(F)c([H])c7F)c([H])c6[H])c(C(=O)N([H])[H])c5N([H])[H])C4([H])[H])C([H])([H])[H])c([H])c3C([H])([H])[H])c([H])c([H])c2C1([H])[H]

>  <smiles>  (21) 
[H]c1c([H])c([H])c2c(c1[H])C([H])([H])C([H])([H])C([H])([H])C2([H])N([H])C(=O)C1([H])N(C(=O)C([H])(N([H])C(=O)C([H])(N([H])C([H])([H])[H])C([H])([H])[H])C(C([H])([H])[H])(C([H])([H])[H])C([H])([H])[H])C([H])([H])c2c([H])c(OC([H])([H])C([H])([H])C([H])([H])Oc3c(N([H])[H])c([H])c(C(=O)N(C(=O)N4C([H])([H])C([H])([H])C([H])([H])C([H])(n5nc(-c6c([H])c([H])c(Oc7c([H])c([H])c(F)c([H])c7F)c([H])c6[H])c(C(=O)N([H])[H])c5N([H])[H])C4([H])[H])C([H])([H])[H])c([H])c3C([H])([H])[H])c([H])c([H])c2C1([H])[H]

$$$$
21:0:0
     RDKit          3D

 97106  0  0  1  0  0  0  0  0999 V2000
  -30.4740  -21.8470   21.8720 C   0  0  0  0  0  0  0  0  0  0  0  0
  -29.2180  -22.5090   19.9490 C   0  0  0  0  0  0  0  0  0  0  0  0
  -30.5210  -23.2880   22.4030 C   0  0  0  0  0  2  0  0  0  0  0  0
  -29.3890  -24.1640   21.8740 C   0  0  0  0  0  2  0  0  0  0  0  0
  -29.2870  -24.0510   20.3520 C   0  0  0  0  0  3  0  0  0  0  0  0
  -29.9000  -21.5320   20.6650 N   0  0  0  0  0  0  0  0  0  0  0  0
  -30.9780  -20.9990   22.6220 O   0  0  0  0  0  0  0  0  0  0  0  0
  -28.5300  -22.2110   18.9630 O   0  0  0  0  0  0  0  0  0  0  0  0
  -28.9840  -19.1850   20.1640 C   0  0  0  0  0  3  0  0  0  0  0  0
  -29.2080  -17.7740   20.1040 C   0  0  0  0  0  3  0  0  0  0  0  0
  -31.3530  -19.5330   20.1200 C   0  0  0  0  0  3  0  0  0  0  0  0
  -31.5930  -18.1240   20.1240 C   0  0  0  0  0  0  0  0  0  0  0  0
  -30.0540  -20.1120   20.2450 C   0  0  0  0  0  0  0  0  0  0  0  0
  -30.5090  -17.1810   20.1560 C   0  0  0  0  0  0  0  0  0  0  0  0
  -33.0540  -17.6980   20.2140 C   0  0  0  0  0  1  0  0  0  0  0  0
  -30.8970  -14.7550   19.4970 C   0  0  0  0  0  0  0  0  0  0  0  0
  -30.3590  -12.6070   18.3450 C   0  0  0  0  0  2  0  0  0  0  0  0
  -29.2610  -12.8520   17.2900 C   0  0  0  0  0  2  0  0  0  0  0  0
  -27.8660  -12.6770   17.9090 C   0  0  0  0  0  2  0  0  0  0  0  0
  -27.7180  -13.4550   19.2440 C   0  0  0  0  0  3  0  0  0  0  0  0
  -28.9290  -13.2350   20.1790 C   0  0  0  0  0  2  0  0  0  0  0  0
  -30.1700  -13.5780   19.4520 N   0  0  0  0  0  0  0  0  0  0  0  0
  -31.8260  -14.9090   18.7030 O   0  0  0  0  0  0  0  0  0  0  0  0
  -30.7770  -15.4170   21.7830 C   0  0  0  0  0  0  0  0  0  0  0  0
  -31.5070  -14.1490   22.2610 C   0  0  0  0  0  1  0  0  0  0  0  0
  -30.6620  -15.7290   20.4560 N   0  0  0  0  0  0  0  0  0  0  0  0
  -30.2740  -16.1150   22.6720 O   0  0  0  0  0  0  0  0  0  0  0  0
  -25.4790  -14.0340   20.3640 C   0  0  0  0  0  0  0  0  0  0  0  0
  -24.4650  -13.2540   20.8510 C   0  0  0  0  0  0  0  0  0  0  0  0
  -24.8810  -11.8980   20.6620 C   0  0  0  0  0  0  0  0  0  0  0  0
  -26.4520  -13.1550   19.9150 N   0  0  0  0  0  0  0  0  0  0  0  0
  -26.1080  -11.8590   20.1520 N   0  0  0  0  0  0  0  0  0  0  0  0
  -24.1590  -10.6380   20.8860 C   0  0  0  0  0  0  0  0  0  0  0  0
  -24.6500   -9.6540   21.7740 C   0  0  0  0  0  3  0  0  0  0  0  0
  -23.9270   -8.4620   21.9910 C   0  0  0  0  0  3  0  0  0  0  0  0
  -22.7020   -8.2410   21.3200 C   0  0  0  0  0  0  0  0  0  0  0  0
  -22.2280   -9.2130   20.4200 C   0  0  0  0  0  3  0  0  0  0  0  0
  -22.9500  -10.3990   20.2030 C   0  0  0  0  0  3  0  0  0  0  0  0
  -21.9500   -7.0960   21.4450 O   0  0  0  0  0  0  0  0  0  0  0  0
  -21.9050   -6.3860   22.6190 C   0  0  0  0  0  0  0  0  0  0  0  0
  -21.5200   -6.9890   23.8360 C   0  0  0  0  0  3  0  0  0  0  0  0
  -21.4170   -6.2110   25.0070 C   0  0  0  0  0  3  0  0  0  0  0  0
  -21.6880   -4.8310   24.9620 C   0  0  0  0  0  0  0  0  0  0  0  0
  -22.0680   -4.2250   23.7510 C   0  0  0  0  0  3  0  0  0  0  0  0
  -22.1710   -5.0010   22.5820 C   0  0  0  0  0  0  0  0  0  0  0  0
  -22.5140   -4.4080   21.4130 F   0  0  0  0  0  0  0  0  0  0  0  0
  -21.5840   -4.0830   26.0850 F   0  0  0  0  0  0  0  0  0  0  0  0
  -23.1400  -13.7330   21.3680 C   0  0  0  0  0  0  0  0  0  0  0  0
  -22.5730  -13.0240   22.3370 N   0  0  0  0  0  0  0  0  0  0  0  0
  -22.6230  -14.7690   20.9510 O   0  0  0  0  0  0  0  0  0  0  0  0
  -23.0130  -12.1890   22.6980 H   0  0  0  0  0  0  0  0  0  0  0  0
  -21.6860  -13.3180   22.7260 H   0  0  0  0  0  0  0  0  0  0  0  0
  -25.6470  -15.4110   20.2470 N   0  0  0  0  0  0  0  0  0  0  0  0
  -24.9200  -16.0730   20.4960 H   0  0  0  0  0  0  0  0  0  0  0  0
  -26.4290  -15.8430   19.7720 H   0  0  0  0  0  0  0  0  0  0  0  0
  -28.1710  -25.0460   19.8030 C   0  0  0  0  0  2  0  0  0  0  0  0
  -28.3370  -26.5040   20.0330 O   0  0  0  0  0  0  0  0  0  0  0  0
  -24.5300  -31.7820   23.1370 C   0  0  0  0  0  0  0  0  0  0  0  0
  -27.1910  -27.3200   20.0010 C   0  0  0  0  0  0  0  0  0  0  0  0
  -23.3260  -30.3640   21.5100 C   0  0  0  0  0  3  0  0  0  0  0  0
  -24.7840  -28.8670   20.0410 C   0  0  0  0  0  0  0  0  0  0  0  0
  -25.8490  -30.7580   21.2700 C   0  0  0  0  0  2  0  0  0  0  0  0
  -25.9510  -29.3830   20.6180 C   0  0  0  0  0  0  0  0  0  0  0  0
  -27.1570  -28.6220   20.5870 C   0  0  0  0  0  3  0  0  0  0  0  0
  -26.0030  -26.8540   19.3960 C   0  0  0  0  0  3  0  0  0  0  0  0
  -24.8090  -27.6060   19.4230 C   0  0  0  0  0  3  0  0  0  0  0  0
  -23.5250  -29.7060   20.1210 C   0  0  0  0  0  2  0  0  0  0  0  0
  -24.5880  -30.9850   22.0300 N   0  0  0  0  0  0  0  0  0  0  0  0
  -23.4500  -32.0280   23.6940 O   0  0  0  0  0  0  0  0  0  0  0  0
  -22.7120  -29.3240   22.4770 C   0  0  0  0  0  0  0  0  0  0  0  0
  -21.3990  -29.0750   22.3430 N   0  0  0  0  0  0  0  0  0  0  0  0
  -23.4160  -28.7440   23.3080 O   0  0  0  0  0  0  0  0  0  0  0  0
  -20.8870  -29.6000   21.6490 H   0  0  0  0  0  0  0  0  0  0  0  0
  -18.0940  -27.6740   22.7890 C   0  0  0  0  0  0  0  0  0  0  0  0
  -20.6220  -28.1040   23.1160 C   0  0  0  0  0  3  0  0  0  0  0  0
  -20.8310  -26.6690   22.5790 C   0  0  0  0  0  2  0  0  0  0  0  0
  -19.7780  -26.2530   21.5480 C   0  0  0  0  0  2  0  0  0  0  0  0
  -18.3740  -26.3210   22.1540 C   0  0  0  0  0  2  0  0  0  0  0  0
  -19.1480  -28.5170   23.2260 C   0  0  0  0  0  0  0  0  0  0  0  0
  -18.8320  -29.7780   23.7800 C   0  0  0  0  0  3  0  0  0  0  0  0
  -17.4940  -30.1950   23.9020 C   0  0  0  0  0  3  0  0  0  0  0  0
  -16.4530  -29.3510   23.4810 C   0  0  0  0  0  3  0  0  0  0  0  0
  -16.7530  -28.0920   22.9290 C   0  0  0  0  0  3  0  0  0  0  0  0
  -25.8070  -32.4440   23.7350 C   0  0  0  0  0  3  0  0  0  0  0  0
  -25.4730  -33.8360   24.0670 N   0  0  0  0  0  0  0  0  0  0  0  0
  -25.7590  -34.8940   23.2930 C   0  0  0  0  0  0  0  0  0  0  0  0
  -26.4000  -34.7990   22.2430 O   0  0  0  0  0  0  0  0  0  0  0  0
  -24.8950  -33.9830   24.8830 H   0  0  0  0  0  0  0  0  0  0  0  0
  -23.9760  -36.6450   22.9820 C   0  0  0  0  0  1  0  0  0  0  0  0
  -25.2520  -36.2740   23.7550 C   0  0  0  0  0  3  0  0  0  0  0  0
  -27.3910  -37.2210   24.5070 C   0  0  0  0  0  1  0  0  0  0  0  0
  -26.2540  -37.3510   23.5980 N   0  0  0  0  0  0  0  0  0  0  0  0
  -25.8310  -38.2630   23.7460 H   0  0  0  0  0  0  0  0  0  0  0  0
  -26.3580  -31.6870   25.0040 C   0  0  1  0  0  0  0  0  0  0  0  0
  -25.2830  -31.4070   26.0820 C   0  0  0  0  0  1  0  0  0  0  0  0
  -26.9840  -30.3310   24.6040 C   0  0  0  0  0  1  0  0  0  0  0  0
  -27.4840  -32.5170   25.6640 C   0  0  0  0  0  1  0  0  0  0  0  0
  1  3  1  0
  1  7  2  0
  2  5  1  0
  2  6  1  0
  4  3  1  0
  5 56  1  0
  5  4  1  0
  6  1  1  0
  8  2  2  0
  9 13  1  0
 10 14  1  0
 10  9  2  0
 11 12  1  0
 11 13  2  0
 12 14  2  0
 12 15  1  0
 13  6  1  0
 14 26  1  0
 16 26  1  0
 17 22  1  0
 18 19  1  0
 18 17  1  0
 20 19  1  0
 20 31  1  0
 20 21  1  0
 22 16  1  0
 22 21  1  0
 23 16  2  0
 24 25  1  0
 24 27  2  0
 26 24  1  0
 28 29  2  0
 29 48  1  0
 30 29  1  0
 30 33  1  0
 31 32  1  0
 31 28  1  0
 32 30  2  0
 33 34  1  0
 34 35  2  0
 36 39  1  0
 36 35  1  0
 37 36  2  0
 38 37  1  0
 38 33  2  0
 39 40  1  0
 40 41  1  0
 41 42  2  0
 43 42  1  0
 43 47  1  0
 44 43  2  0
 45 40  2  0
 45 44  1  0
 46 45  1  0
 48 49  1  0
 49 51  1  0
 49 52  1  0
 50 48  2  0
 53 28  1  0
 53 54  1  0
 55 53  1  0
 56 57  1  0
 58 69  2  0
 59 57  1  0
 59 64  1  0
 60 68  1  0
 60 70  1  0
 61 67  1  0
 61 63  1  0
 62 68  1  0
 63 62  1  0
 64 63  2  0
 65 66  1  0
 65 59  2  0
 66 61  2  0
 67 60  1  0
 68 58  1  0
 70 72  2  0
 71 70  1  0
 73 71  1  0
 74 83  2  0
 74 79  1  0
 75 71  1  0
 75 79  1  0
 76 75  1  0
 77 78  1  0
 77 76  1  0
 78 74  1  0
 79 80  2  0
 80 81  1  0
 82 81  2  0
 83 82  1  0
 84 58  1  0
 84 85  1  0
 84 94  1  0
 85 88  1  0
 86 90  1  0
 86 85  1  0
 87 86  2  0
 90 89  1  0
 92 93  1  0
 92 90  1  0
 92 91  1  0
 94 97  1  1
 94 95  1  0
 96 94  1  0
M  ISO  4  16 100  26 100  56 101  57 101
M  END
>  <TORSDO>  (22) 
F 18

>  <SCORE>  (22) 
-12.484

>  <name>  (22) 
21

>  <ligand_id>  (22) 
21

>  <original_smiles>  (22) 
[H]c1c([H])c([H])c2c(c1[H])C([H])([H])C([H])([H])C([H])([H])C2([H])N([H])C(=O)C1([H])N(C(=O)C([H])(N([H])C(=O)C([H])(N([H])C([H])([H])[H])C([H])([H])[H])C(C([H])([H])[H])(C([H])([H])[H])C([H])([H])[H])C([H])([H])c2c([H])c(OC([H])([H])C3([H])C(=O)N(c4c([H])c([H])c(N(C(=O)N5C([H])([H])C([H])([H])C([H])([H])C([H])(n6nc(-c7c([H])c([H])c(Oc8c([H])c([H])c(F)c([H])c8F)c([H])c7[H])c(C(=O)N([H])[H])c6N([H])[H])C5([H])[H])C(=O)C([H])([H])[H])c(C([H])([H])[H])c4[H])C(=O)C([H])([H])C3([H])[H])c([H])c([H])c2C1([H])[H]

>  <smiles>  (22) 
[H]c1c([H])c([H])c2c(c1[H])C([H])([H])C([H])([H])C([H])([H])C2([H])N([H])C(=O)C1([H])N(C(=O)C([H])(N([H])C(=O)C([H])(N([H])C([H])([H])[H])C([H])([H])[H])C(C([H])([H])[H])(C([H])([H])[H])C([H])([H])[H])C([H])([H])c2c([H])c(OC([H])([H])C3([H])C(=O)N(c4c([H])c([H])c(N(C(=O)N5C([H])([H])C([H])([H])C([H])([H])C([H])(n6nc(-c7c([H])c([H])c(Oc8c([H])c([H])c(F)c([H])c8F)c([H])c7[H])c(C(=O)N([H])[H])c6N([H])[H])C5([H])[H])C(=O)C([H])([H])[H])c(C([H])([H])[H])c4[H])C(=O)C([H])([H])C3([H])[H])c([H])c([H])c2C1([H])[H]

$$$$
22:0:0
     RDKit          3D

 94102  0  0  1  0  0  0  0  0999 V2000
  -31.2680  -18.0440   20.2690 C   0  0  0  0  0  3  0  0  0  0  0  0
  -29.0380  -19.4200   19.3050 C   0  0  0  0  0  3  0  0  0  0  0  0
  -30.1130  -17.2570   20.0160 C   0  0  0  0  0  0  0  0  0  0  0  0
  -28.9890  -18.0020   19.5060 C   0  0  0  0  0  0  0  0  0  0  0  0
  -30.1850  -20.1950   19.6080 C   0  0  0  0  0  0  0  0  0  0  0  0
  -31.3030  -19.4570   20.0790 C   0  0  0  0  0  0  0  0  0  0  0  0
  -32.4440  -20.1220   20.3820 F   0  0  0  0  0  0  0  0  0  0  0  0
  -30.0340  -15.7670   20.4370 C   0  0  0  0  0  0  0  0  0  0  0  0
  -29.5820  -15.5060   21.5930 N   0  0  0  0  0  0  0  0  0  0  0  0
  -29.3070  -16.3550   22.0700 H   0  0  0  0  0  0  0  0  0  0  0  0
  -30.5580  -14.6010   19.5140 C   0  0  0  0  0  0  0  0  0  0  0  0
  -30.3030  -12.2970   18.5860 C   0  0  0  0  0  2  0  0  0  0  0  0
  -29.2050  -12.2820   17.4990 C   0  0  0  0  0  2  0  0  0  0  0  0
  -27.8140  -12.0600   18.1230 C   0  0  0  0  0  2  0  0  0  0  0  0
  -27.5650  -12.9840   19.3440 C   0  0  0  0  0  3  0  0  0  0  0  0
  -28.7620  -12.9470   20.3170 C   0  0  0  0  0  2  0  0  0  0  0  0
  -29.9720  -13.3510   19.5740 N   0  0  0  0  0  0  0  0  0  0  0  0
  -31.5230  -14.8070   18.7680 O   0  0  0  0  0  0  0  0  0  0  0  0
  -25.3190  -13.5170   20.4750 C   0  0  0  0  0  0  0  0  0  0  0  0
  -24.3280  -12.7170   20.9730 C   0  0  0  0  0  0  0  0  0  0  0  0
  -24.7710  -11.3730   20.7730 C   0  0  0  0  0  0  0  0  0  0  0  0
  -26.3080  -12.6620   20.0180 N   0  0  0  0  0  0  0  0  0  0  0  0
  -25.9910  -11.3630   20.2500 N   0  0  0  0  0  0  0  0  0  0  0  0
  -24.0770  -10.0980   20.9930 C   0  0  0  0  0  0  0  0  0  0  0  0
  -24.5630   -9.1430   21.9130 C   0  0  0  0  0  3  0  0  0  0  0  0
  -23.8670   -7.9320   22.1220 C   0  0  0  0  0  3  0  0  0  0  0  0
  -22.6720   -7.6680   21.4100 C   0  0  0  0  0  0  0  0  0  0  0  0
  -22.2060   -8.6140   20.4800 C   0  0  0  0  0  3  0  0  0  0  0  0
  -22.9020   -9.8160   20.2690 C   0  0  0  0  0  3  0  0  0  0  0  0
  -21.9430   -6.5090   21.5300 O   0  0  0  0  0  0  0  0  0  0  0  0
  -21.8360   -5.8480   22.7260 C   0  0  0  0  0  0  0  0  0  0  0  0
  -21.2720   -6.4580   23.8680 C   0  0  0  0  0  3  0  0  0  0  0  0
  -21.1170   -5.7190   25.0570 C   0  0  0  0  0  3  0  0  0  0  0  0
  -21.5150   -4.3700   25.1060 C   0  0  0  0  0  0  0  0  0  0  0  0
  -22.0710   -3.7580   23.9690 C   0  0  0  0  0  3  0  0  0  0  0  0
  -22.2280   -4.4950   22.7810 C   0  0  0  0  0  0  0  0  0  0  0  0
  -22.7450   -3.8950   21.6820 F   0  0  0  0  0  0  0  0  0  0  0  0
  -21.3580   -3.6560   26.2460 F   0  0  0  0  0  0  0  0  0  0  0  0
  -23.0000  -13.1680   21.5080 C   0  0  0  0  0  0  0  0  0  0  0  0
  -22.4300  -12.4180   22.4440 N   0  0  0  0  0  0  0  0  0  0  0  0
  -22.4830  -14.2200   21.1320 O   0  0  0  0  0  0  0  0  0  0  0  0
  -22.8650  -11.5670   22.7670 H   0  0  0  0  0  0  0  0  0  0  0  0
  -21.5460  -12.6990   22.8430 H   0  0  0  0  0  0  0  0  0  0  0  0
  -25.4440  -14.8950   20.3460 N   0  0  0  0  0  0  0  0  0  0  0  0
  -24.6880  -15.5230   20.5930 H   0  0  0  0  0  0  0  0  0  0  0  0
  -26.1870  -15.3500   19.8330 H   0  0  0  0  0  0  0  0  0  0  0  0
  -26.5480  -17.6730   20.1540 C   0  0  0  0  0  1  0  0  0  0  0  0
  -27.6640  -17.3300   19.1600 C   0  0  0  0  0  2  0  0  0  0  0  0
  -30.2820  -21.6010   19.4950 O   0  0  0  0  0  0  0  0  0  0  0  0
  -29.1120  -22.4750   19.3650 C   0  0  0  0  0  2  0  0  0  0  0  0
  -29.4170  -24.0120   19.6090 C   0  0  0  0  0  0  0  0  0  0  0  0
  -30.5230  -24.3740   20.0250 O   0  0  0  0  0  0  0  0  0  0  0  0
  -28.2900  -25.0730   19.3100 C   0  0  0  0  0  2  0  0  0  0  0  0
  -28.5250  -26.4790   19.7280 O   0  0  0  0  0  0  0  0  0  0  0  0
  -24.6900  -31.6320   23.0310 C   0  0  0  0  0  0  0  0  0  0  0  0
  -27.4030  -27.3270   19.7100 C   0  0  0  0  0  0  0  0  0  0  0  0
  -23.5290  -30.3400   21.2780 C   0  0  0  0  0  3  0  0  0  0  0  0
  -25.0190  -28.9120   19.7730 C   0  0  0  0  0  0  0  0  0  0  0  0
  -26.0670  -30.6970   21.1610 C   0  0  0  0  0  2  0  0  0  0  0  0
  -26.1740  -29.3680   20.4210 C   0  0  0  0  0  0  0  0  0  0  0  0
  -27.3680  -28.5890   20.3810 C   0  0  0  0  0  3  0  0  0  0  0  0
  -26.2220  -26.9300   19.0380 C   0  0  0  0  0  3  0  0  0  0  0  0
  -25.0460  -27.6980   19.0730 C   0  0  0  0  0  3  0  0  0  0  0  0
  -23.7720  -29.7660   19.8590 C   0  0  0  0  0  2  0  0  0  0  0  0
  -24.7800  -30.9020   21.8820 N   0  0  0  0  0  0  0  0  0  0  0  0
  -23.5940  -31.8620   23.5640 O   0  0  0  0  0  0  0  0  0  0  0  0
  -22.8610  -29.2520   22.1520 C   0  0  0  0  0  0  0  0  0  0  0  0
  -21.5260  -29.1340   22.0560 N   0  0  0  0  0  0  0  0  0  0  0  0
  -23.5420  -28.5220   22.8780 O   0  0  0  0  0  0  0  0  0  0  0  0
  -21.0360  -29.7740   21.4460 H   0  0  0  0  0  0  0  0  0  0  0  0
  -18.1180  -28.0410   22.5880 C   0  0  0  0  0  0  0  0  0  0  0  0
  -20.6960  -28.1520   22.7560 C   0  0  0  0  0  3  0  0  0  0  0  0
  -20.7000  -26.7920   22.0190 C   0  0  0  0  0  2  0  0  0  0  0  0
  -19.5390  -26.6380   21.0330 C   0  0  0  0  0  2  0  0  0  0  0  0
  -18.1960  -26.7700   21.7580 C   0  0  0  0  0  2  0  0  0  0  0  0
  -19.2920  -28.6980   23.0430 C   0  0  0  0  0  0  0  0  0  0  0  0
  -19.1630  -29.8940   23.7820 C   0  0  0  0  0  3  0  0  0  0  0  0
  -17.8940  -30.4300   24.0700 C   0  0  0  0  0  3  0  0  0  0  0  0
  -16.7360  -29.7680   23.6300 C   0  0  0  0  0  3  0  0  0  0  0  0
  -16.8490  -28.5750   22.8940 C   0  0  0  0  0  3  0  0  0  0  0  0
  -25.9550  -32.2310   23.7180 C   0  0  0  0  0  3  0  0  0  0  0  0
  -25.6340  -33.6100   24.1120 N   0  0  0  0  0  0  0  0  0  0  0  0
  -25.9800  -34.7010   23.4170 C   0  0  0  0  0  0  0  0  0  0  0  0
  -26.6740  -34.6520   22.3970 O   0  0  0  0  0  0  0  0  0  0  0  0
  -25.0190  -33.7220   24.9040 H   0  0  0  0  0  0  0  0  0  0  0  0
  -24.2550  -36.5080   23.1190 C   0  0  0  0  0  1  0  0  0  0  0  0
  -25.4810  -36.0630   23.9340 C   0  0  0  0  0  3  0  0  0  0  0  0
  -27.5900  -36.9130   24.8610 C   0  0  0  0  0  1  0  0  0  0  0  0
  -26.5130  -37.1230   23.8980 N   0  0  0  0  0  0  0  0  0  0  0  0
  -26.1000  -38.0340   24.0760 H   0  0  0  0  0  0  0  0  0  0  0  0
  -26.4390  -31.3950   24.9660 C   0  0  1  0  0  0  0  0  0  0  0  0
  -25.3240  -31.1220   26.0020 C   0  0  0  0  0  1  0  0  0  0  0  0
  -27.0120  -30.0290   24.5220 C   0  0  0  0  0  1  0  0  0  0  0  0
  -27.5880  -32.1410   25.6830 C   0  0  0  0  0  1  0  0  0  0  0  0
  2  4  2  0
  2  5  1  0
  3  1  2  0
  3  8  1  0
  4  3  1  0
  5  6  2  0
  6  1  1  0
  6  7  1  0
  8  9  2  0
  9 10  1  0
 11 17  1  0
 11  8  1  0
 12 17  1  0
 13 14  1  0
 13 12  1  0
 15 14  1  0
 15 22  1  0
 15 16  1  0
 17 16  1  0
 18 11  2  0
 19 20  2  0
 20 39  1  0
 21 20  1  0
 21 24  1  0
 22 23  1  0
 22 19  1  0
 23 21  2  0
 24 25  1  0
 25 26  2  0
 27 30  1  0
 27 26  1  0
 28 27  2  0
 29 28  1  0
 29 24  2  0
 30 31  1  0
 31 36  2  0
 31 32  1  0
 32 33  2  0
 33 34  1  0
 34 38  1  0
 35 34  2  0
 36 35  1  0
 37 36  1  0
 39 40  1  0
 40 42  1  0
 40 43  1  0
 41 39  2  0
 44 19  1  0
 44 45  1  0
 46 44  1  0
 48  4  1  0
 48 47  1  0
 49  5  1  0
 50 49  1  0
 50 51  1  0
 51 52  2  0
 53 51  1  0
 53 54  1  0
 55 66  2  0
 56 54  1  0
 56 61  1  0
 57 65  1  0
 57 67  1  0
 58 64  1  0
 58 60  1  0
 59 65  1  0
 60 59  1  0
 61 60  2  0
 62 63  1  0
 62 56  2  0
 63 58  2  0
 64 57  1  0
 65 55  1  0
 67 69  2  0
 68 67  1  0
 70 68  1  0
 71 80  2  0
 71 76  1  0
 72 68  1  0
 72 76  1  0
 73 72  1  0
 74 75  1  0
 74 73  1  0
 75 71  1  0
 76 77  2  0
 77 78  1  0
 79 78  2  0
 80 79  1  0
 81 55  1  0
 81 82  1  0
 81 91  1  0
 82 85  1  0
 83 87  1  0
 83 82  1  0
 84 83  2  0
 87 86  1  0
 89 87  1  0
 89 90  1  0
 89 88  1  0
 91 94  1  1
 91 92  1  0
 93 91  1  0
M  ISO  4   8 100  11 100  53 101  54 101
M  END
>  <TORSDO>  (23) 
F 22

>  <SCORE>  (23) 
-12.159

>  <name>  (23) 
22

>  <ligand_id>  (23) 
22

>  <original_smiles>  (23) 
[H]N=C(C(=O)N1C([H])([H])C([H])([H])C([H])([H])C([H])(n2nc(-c3c([H])c([H])c(Oc4c([H])c([H])c(F)c([H])c4F)c([H])c3[H])c(C(=O)N([H])[H])c2N([H])[H])C1([H])[H])c1c([H])c(F)c(OC([H])([H])C(=O)C([H])([H])Oc2c([H])c([H])c3c(c2[H])C([H])([H])N(C(=O)C([H])(N([H])C(=O)C([H])(N([H])C([H])([H])[H])C([H])([H])[H])C(C([H])([H])[H])(C([H])([H])[H])C([H])([H])[H])C([H])(C(=O)N([H])C2([H])c4c([H])c([H])c([H])c([H])c4C([H])([H])C([H])([H])C2([H])[H])C3([H])[H])c([H])c1C([H])([H])C([H])([H])[H]

>  <smiles>  (23) 
[H]N=C(C(=O)N1C([H])([H])C([H])([H])C([H])([H])C([H])(n2nc(-c3c([H])c([H])c(Oc4c([H])c([H])c(F)c([H])c4F)c([H])c3[H])c(C(=O)N([H])[H])c2N([H])[H])C1([H])[H])c1c([H])c(F)c(OC([H])([H])C(=O)C([H])([H])Oc2c([H])c([H])c3c(c2[H])C([H])([H])N(C(=O)C([H])(N([H])C(=O)C([H])(N([H])C([H])([H])[H])C([H])([H])[H])C(C([H])([H])[H])(C([H])([H])[H])C([H])([H])[H])C([H])(C(=O)N([H])C2([H])c4c([H])c([H])c([H])c([H])c4C([H])([H])C([H])([H])C2([H])[H])C3([H])[H])c([H])c1C([H])([H])C([H])([H])[H]

$$$$
23:0:0
     RDKit          3D

 95103  0  0  1  0  0  0  0  0999 V2000
  -28.1760  -22.7310   19.6420 C   0  0  0  0  0  0  0  0  0  0  0  0
  -28.5890  -21.6700   20.2750 N   0  0  0  0  0  0  0  0  0  0  0  0
  -28.6680  -20.3870   19.7010 C   0  0  0  0  0  0  0  0  0  0  0  0
  -27.9760  -19.9550   18.7790 O   0  0  0  0  0  0  0  0  0  0  0  0
  -31.8600  -18.7880   21.2100 C   0  0  0  0  0  3  0  0  0  0  0  0
  -31.4890  -17.4330   21.2650 C   0  0  0  0  0  3  0  0  0  0  0  0
  -29.3040  -18.0180   20.3850 C   0  0  0  0  0  3  0  0  0  0  0  0
  -29.6640  -19.4010   20.3090 C   0  0  0  0  0  0  0  0  0  0  0  0
  -30.9830  -19.7720   20.7040 C   0  0  0  0  0  0  0  0  0  0  0  0
  -30.2190  -17.0150   20.8160 C   0  0  0  0  0  0  0  0  0  0  0  0
  -31.5300  -21.1900   20.5780 C   0  0  0  0  0  1  0  0  0  0  0  0
  -30.6210  -14.5530   20.4680 C   0  0  0  0  0  0  0  0  0  0  0  0
  -30.3740  -12.3700   19.3470 C   0  0  0  0  0  2  0  0  0  0  0  0
  -29.4390  -12.5450   18.1330 C   0  0  0  0  0  2  0  0  0  0  0  0
  -27.9610  -12.3940   18.5580 C   0  0  0  0  0  2  0  0  0  0  0  0
  -27.6050  -13.2350   19.8160 C   0  0  0  0  0  3  0  0  0  0  0  0
  -28.6570  -13.0420   20.9290 C   0  0  0  0  0  2  0  0  0  0  0  0
  -29.9710  -13.3610   20.3560 N   0  0  0  0  0  0  0  0  0  0  0  0
  -31.7840  -14.6940   20.0770 O   0  0  0  0  0  0  0  0  0  0  0  0
  -29.8510  -15.6200   20.8190 N   0  0  0  0  0  0  0  0  0  0  0  0
  -28.8720  -15.4160   20.9580 H   0  0  0  0  0  0  0  0  0  0  0  0
  -25.2080  -13.8220   20.5450 C   0  0  0  0  0  0  0  0  0  0  0  0
  -24.1470  -13.0410   20.9180 C   0  0  0  0  0  0  0  0  0  0  0  0
  -24.6150  -11.6930   20.8760 C   0  0  0  0  0  0  0  0  0  0  0  0
  -26.2570  -12.9480   20.3030 N   0  0  0  0  0  0  0  0  0  0  0  0
  -25.9040  -11.6630   20.5610 N   0  0  0  0  0  0  0  0  0  0  0  0
  -23.8980  -10.4260   21.0650 C   0  0  0  0  0  0  0  0  0  0  0  0
  -24.3330   -9.4620   22.0020 C   0  0  0  0  0  3  0  0  0  0  0  0
  -23.6170   -8.2580   22.1760 C   0  0  0  0  0  3  0  0  0  0  0  0
  -22.4480   -8.0120   21.4140 C   0  0  0  0  0  0  0  0  0  0  0  0
  -22.0340   -8.9640   20.4660 C   0  0  0  0  0  3  0  0  0  0  0  0
  -22.7520  -10.1590   20.2900 C   0  0  0  0  0  3  0  0  0  0  0  0
  -21.7000   -6.8620   21.4980 O   0  0  0  0  0  0  0  0  0  0  0  0
  -21.6480   -6.1210   22.6510 C   0  0  0  0  0  0  0  0  0  0  0  0
  -21.1830   -6.6680   23.8680 C   0  0  0  0  0  3  0  0  0  0  0  0
  -21.0780   -5.8490   25.0110 C   0  0  0  0  0  3  0  0  0  0  0  0
  -21.4270   -4.4880   24.9380 C   0  0  0  0  0  0  0  0  0  0  0  0
  -21.8890   -3.9440   23.7260 C   0  0  0  0  0  3  0  0  0  0  0  0
  -21.9950   -4.7580   22.5860 C   0  0  0  0  0  0  0  0  0  0  0  0
  -22.4180   -4.2220   21.4160 F   0  0  0  0  0  0  0  0  0  0  0  0
  -21.3230   -3.7020   26.0350 F   0  0  0  0  0  0  0  0  0  0  0  0
  -22.7480  -13.5110   21.1950 C   0  0  0  0  0  0  0  0  0  0  0  0
  -22.0180  -12.8080   22.0530 N   0  0  0  0  0  0  0  0  0  0  0  0
  -22.3060  -14.5380   20.6830 O   0  0  0  0  0  0  0  0  0  0  0  0
  -22.3830  -11.9800   22.5000 H   0  0  0  0  0  0  0  0  0  0  0  0
  -21.0780  -13.1070   22.2730 H   0  0  0  0  0  0  0  0  0  0  0  0
  -25.3600  -15.1940   20.3740 N   0  0  0  0  0  0  0  0  0  0  0  0
  -24.5800  -15.8330   20.4810 H   0  0  0  0  0  0  0  0  0  0  0  0
  -26.1920  -15.6410   20.0140 H   0  0  0  0  0  0  0  0  0  0  0  0
  -28.1150  -24.1160   20.3370 C   0  0  0  0  0  0  0  0  0  0  0  0
  -27.8290  -24.2180   21.5370 O   0  0  0  0  0  0  0  0  0  0  0  0
  -28.5040  -25.3870   19.5230 C   0  0  0  0  0  2  0  0  0  0  0  0
  -28.3970  -26.6420   20.2590 O   0  0  0  0  0  0  0  0  0  0  0  0
  -24.5420  -31.8740   23.2540 C   0  0  0  0  0  0  0  0  0  0  0  0
  -27.2260  -27.3880   20.2180 C   0  0  0  0  0  0  0  0  0  0  0  0
  -23.3690  -30.4810   21.5820 C   0  0  0  0  0  3  0  0  0  0  0  0
  -24.8460  -28.9450   20.1800 C   0  0  0  0  0  0  0  0  0  0  0  0
  -25.9040  -30.8210   21.4450 C   0  0  0  0  0  2  0  0  0  0  0  0
  -25.9960  -29.4480   20.7990 C   0  0  0  0  0  0  0  0  0  0  0  0
  -27.1850  -28.6760   20.8170 C   0  0  0  0  0  3  0  0  0  0  0  0
  -26.0460  -26.9040   19.6060 C   0  0  0  0  0  3  0  0  0  0  0  0
  -24.8680  -27.6740   19.5840 C   0  0  0  0  0  3  0  0  0  0  0  0
  -23.6080  -29.8140   20.2010 C   0  0  0  0  0  2  0  0  0  0  0  0
  -24.6220  -31.0760   22.1510 N   0  0  0  0  0  0  0  0  0  0  0  0
  -23.4490  -32.1480   23.7690 O   0  0  0  0  0  0  0  0  0  0  0  0
  -22.6960  -29.4550   22.5240 C   0  0  0  0  0  0  0  0  0  0  0  0
  -21.3720  -29.2790   22.3750 N   0  0  0  0  0  0  0  0  0  0  0  0
  -23.3620  -28.8220   23.3470 O   0  0  0  0  0  0  0  0  0  0  0  0
  -20.8950  -29.8490   21.6900 H   0  0  0  0  0  0  0  0  0  0  0  0
  -17.9800  -28.1150   22.8230 C   0  0  0  0  0  0  0  0  0  0  0  0
  -20.5380  -28.3400   23.1250 C   0  0  0  0  0  3  0  0  0  0  0  0
  -20.6300  -26.9140   22.5330 C   0  0  0  0  0  2  0  0  0  0  0  0
  -19.5350  -26.6170   21.5020 C   0  0  0  0  0  2  0  0  0  0  0  0
  -18.1470  -26.7710   22.1330 C   0  0  0  0  0  2  0  0  0  0  0  0
  -19.1030  -28.8570   23.2730 C   0  0  0  0  0  0  0  0  0  0  0  0
  -18.8920  -30.1170   23.8770 C   0  0  0  0  0  3  0  0  0  0  0  0
  -17.5930  -30.6300   24.0360 C   0  0  0  0  0  3  0  0  0  0  0  0
  -16.4840  -29.8840   23.6030 C   0  0  0  0  0  3  0  0  0  0  0  0
  -16.6790  -28.6280   23.0000 C   0  0  0  0  0  3  0  0  0  0  0  0
  -25.8140  -32.5020   23.9030 C   0  0  0  0  0  3  0  0  0  0  0  0
  -25.5030  -33.9020   24.2190 N   0  0  0  0  0  0  0  0  0  0  0  0
  -25.8600  -34.9500   23.4650 C   0  0  0  0  0  0  0  0  0  0  0  0
  -26.5570  -34.8410   22.4530 O   0  0  0  0  0  0  0  0  0  0  0  0
  -24.8910  -34.0620   25.0060 H   0  0  0  0  0  0  0  0  0  0  0  0
  -24.1580  -36.7560   23.0460 C   0  0  0  0  0  1  0  0  0  0  0  0
  -25.3650  -36.3420   23.9030 C   0  0  0  0  0  3  0  0  0  0  0  0
  -27.4720  -37.2160   24.8160 C   0  0  0  0  0  1  0  0  0  0  0  0
  -26.4090  -37.3880   23.8300 N   0  0  0  0  0  0  0  0  0  0  0  0
  -26.0010  -38.3120   23.9570 H   0  0  0  0  0  0  0  0  0  0  0  0
  -26.2990  -31.7330   25.1940 C   0  0  1  0  0  0  0  0  0  0  0  0
  -25.1840  -31.5030   26.2400 C   0  0  0  0  0  1  0  0  0  0  0  0
  -26.8890  -30.3520   24.8210 C   0  0  0  0  0  1  0  0  0  0  0  0
  -27.4320  -32.5290   25.8830 C   0  0  0  0  0  1  0  0  0  0  0  0
  -28.8020  -22.6620   17.1240 C   0  0  0  0  0  1  0  0  0  0  0  0
  -27.6770  -22.7550   18.1770 C   0  0  0  0  0  2  0  0  0  0  0  0
  1  2  2  0
  1 50  1  0
  3  2  1  0
  3  8  1  0
  4  3  2  0
  5  6  1  0
  7 10  1  0
  8  7  2  0
  8  9  1  0
  9  5  2  0
 10 20  1  0
 10  6  2  0
 11  9  1  0
 12 20  1  0
 13 18  1  0
 14 15  1  0
 14 13  1  0
 16 15  1  0
 16 25  1  0
 16 17  1  0
 18 12  1  0
 18 17  1  0
 19 12  2  0
 20 21  1  0
 22 23  2  0
 23 42  1  0
 24 23  1  0
 24 27  1  0
 25 22  1  0
 25 26  1  0
 26 24  2  0
 27 28  1  0
 28 29  2  0
 30 33  1  0
 30 29  1  0
 31 30  2  0
 32 31  1  0
 32 27  2  0
 33 34  1  0
 34 35  1  0
 35 36  2  0
 37 36  1  0
 37 41  1  0
 38 37  2  0
 39 34  2  0
 39 38  1  0
 40 39  1  0
 42 43  1  0
 43 46  1  0
 43 45  1  0
 44 42  2  0
 47 48  1  0
 47 22  1  0
 49 47  1  0
 50 51  2  0
 52 53  1  0
 52 50  1  0
 54 65  2  0
 55 53  1  0
 55 60  1  0
 56 64  1  0
 56 66  1  0
 57 63  1  0
 57 59  1  0
 58 64  1  0
 59 60  2  0
 59 58  1  0
 61 55  2  0
 62 61  1  0
 62 57  2  0
 63 56  1  0
 64 54  1  0
 66 68  2  0
 67 66  1  0
 69 67  1  0
 70 79  2  0
 70 75  1  0
 71 67  1  0
 71 75  1  0
 72 71  1  0
 73 74  1  0
 73 72  1  0
 74 70  1  0
 75 76  2  0
 76 77  1  0
 78 77  2  0
 79 78  1  0
 80 54  1  0
 80 81  1  0
 80 90  1  0
 81 84  1  0
 82 86  1  0
 82 81  1  0
 83 82  2  0
 86 85  1  0
 88 86  1  0
 88 89  1  0
 88 87  1  0
 90 93  1  1
 90 91  1  0
 92 90  1  0
 94 95  1  0
 95  1  1  0
M  ISO  4  12 100  20 100  52 101  53 101
M  END
>  <TORSDO>  (24) 
F 21

>  <SCORE>  (24) 
-13.920

>  <name>  (24) 
23

>  <ligand_id>  (24) 
23

>  <original_smiles>  (24) 
[H]c1c([H])c([H])c2c(c1[H])C([H])([H])C([H])([H])C([H])([H])C2([H])N([H])C(=O)C1([H])N(C(=O)C([H])(N([H])C(=O)C([H])(N([H])C([H])([H])[H])C([H])([H])[H])C(C([H])([H])[H])(C([H])([H])[H])C([H])([H])[H])C([H])([H])c2c([H])c(OC([H])([H])C(=O)C(=NC(=O)c3c([H])c(N([H])C(=O)N4C([H])([H])C([H])([H])C([H])([H])C([H])(n5nc(-c6c([H])c([H])c(Oc7c([H])c([H])c(F)c([H])c7F)c([H])c6[H])c(C(=O)N([H])[H])c5N([H])[H])C4([H])[H])c([H])c([H])c3C([H])([H])[H])C([H])([H])C([H])([H])[H])c([H])c([H])c2C1([H])[H]

>  <smiles>  (24) 
[H]c1c([H])c([H])c2c(c1[H])C([H])([H])C([H])([H])C([H])([H])C2([H])N([H])C(=O)C1([H])N(C(=O)C([H])(N([H])C(=O)C([H])(N([H])C([H])([H])[H])C([H])([H])[H])C(C([H])([H])[H])(C([H])([H])[H])C([H])([H])[H])C([H])([H])c2c([H])c(OC([H])([H])C(=O)C(=NC(=O)c3c([H])c(N([H])C(=O)N4C([H])([H])C([H])([H])C([H])([H])C([H])(n5nc(-c6c([H])c([H])c(Oc7c([H])c([H])c(F)c([H])c7F)c([H])c6[H])c(C(=O)N([H])[H])c5N([H])[H])C4([H])[H])c([H])c([H])c3C([H])([H])[H])C([H])([H])C([H])([H])[H])c([H])c([H])c2C1([H])[H]

$$$$
24:0:0
     RDKit          3D

 99108  0  0  1  0  0  0  0  0999 V2000
  -29.8280  -18.9080   19.4680 C   0  0  0  0  0  3  0  0  0  0  0  0
  -31.5480  -20.5480   19.9100 C   0  0  0  0  0  3  0  0  0  0  0  0
  -32.0870  -18.1410   19.9400 C   0  0  0  0  0  3  0  0  0  0  0  0
  -30.1980  -20.3140   19.5880 C   0  0  0  0  0  0  0  0  0  0  0  0
  -30.7380  -17.7800   19.6950 C   0  0  0  0  0  0  0  0  0  0  0  0
  -32.4880  -19.5030   20.0500 C   0  0  0  0  0  0  0  0  0  0  0  0
  -31.0530  -15.1570   19.7470 C   0  0  0  0  0  0  0  0  0  0  0  0
  -30.9310  -12.8080   18.8170 C   0  0  0  0  0  2  0  0  0  0  0  0
  -29.8800  -12.7390   17.6820 C   0  0  0  0  0  2  0  0  0  0  0  0
  -28.4700  -12.4680   18.2520 C   0  0  0  0  0  2  0  0  0  0  0  0
  -28.1570  -13.3830   19.4620 C   0  0  0  0  0  3  0  0  0  0  0  0
  -29.3250  -13.3320   20.4780 C   0  0  0  0  0  2  0  0  0  0  0  0
  -30.4970  -13.8730   19.7670 N   0  0  0  0  0  0  0  0  0  0  0  0
  -32.2020  -15.2380   19.2990 O   0  0  0  0  0  0  0  0  0  0  0  0
  -30.2960  -16.3590   19.9550 N   0  0  0  0  0  0  0  0  0  0  0  0
  -25.8560  -13.9660   20.4410 C   0  0  0  0  0  0  0  0  0  0  0  0
  -24.8230  -13.1840   20.8770 C   0  0  0  0  0  0  0  0  0  0  0  0
  -25.2570  -11.8330   20.7160 C   0  0  0  0  0  0  0  0  0  0  0  0
  -26.8630  -13.0880   20.0640 N   0  0  0  0  0  0  0  0  0  0  0  0
  -26.5100  -11.7970   20.2790 N   0  0  0  0  0  0  0  0  0  0  0  0
  -24.5290  -10.5710   20.8950 C   0  0  0  0  0  0  0  0  0  0  0  0
  -24.9340   -9.6270   21.8600 C   0  0  0  0  0  3  0  0  0  0  0  0
  -24.2130   -8.4240   22.0280 C   0  0  0  0  0  3  0  0  0  0  0  0
  -23.0710   -8.1660   21.2360 C   0  0  0  0  0  0  0  0  0  0  0  0
  -22.6880   -9.1010   20.2600 C   0  0  0  0  0  3  0  0  0  0  0  0
  -23.4100  -10.2940   20.0860 C   0  0  0  0  0  3  0  0  0  0  0  0
  -22.3210   -7.0160   21.3120 O   0  0  0  0  0  0  0  0  0  0  0  0
  -22.0460   -6.4180   22.5130 C   0  0  0  0  0  0  0  0  0  0  0  0
  -21.3720   -7.1010   23.5540 C   0  0  0  0  0  3  0  0  0  0  0  0
  -21.0500   -6.4250   24.7450 C   0  0  0  0  0  3  0  0  0  0  0  0
  -21.3880   -5.0660   24.9010 C   0  0  0  0  0  0  0  0  0  0  0  0
  -22.0540   -4.3850   23.8680 C   0  0  0  0  0  3  0  0  0  0  0  0
  -22.3790   -5.0590   22.6770 C   0  0  0  0  0  0  0  0  0  0  0  0
  -22.9980   -4.3900   21.6740 F   0  0  0  0  0  0  0  0  0  0  0  0
  -21.0710   -4.4150   26.0460 F   0  0  0  0  0  0  0  0  0  0  0  0
  -23.4750  -13.6610   21.3280 C   0  0  0  0  0  0  0  0  0  0  0  0
  -22.8490  -12.9230   22.2400 N   0  0  0  0  0  0  0  0  0  0  0  0
  -22.9920  -14.7120   20.9100 O   0  0  0  0  0  0  0  0  0  0  0  0
  -23.2520  -12.0610   22.5790 H   0  0  0  0  0  0  0  0  0  0  0  0
  -21.9400  -13.2050   22.5790 H   0  0  0  0  0  0  0  0  0  0  0  0
  -26.0090  -15.3410   20.3010 N   0  0  0  0  0  0  0  0  0  0  0  0
  -25.2550  -15.9950   20.4720 H   0  0  0  0  0  0  0  0  0  0  0  0
  -26.7740  -15.7530   19.7850 H   0  0  0  0  0  0  0  0  0  0  0  0
  -29.0610  -16.4390   20.7750 C   0  0  0  0  0  2  0  0  0  0  0  0
  -30.5550  -17.2690   22.7280 C   0  0  0  0  0  1  0  0  0  0  0  0
  -29.1990  -17.3380   22.0180 C   0  0  0  0  0  2  0  0  0  0  0  0
  -29.2920  -22.7170   20.0900 C   0  0  0  0  0  3  0  0  0  0  0  0
  -28.8140  -23.9610   19.6910 C   0  0  0  0  0  0  0  0  0  0  0  0
  -28.3380  -24.0350   18.2910 C   0  0  0  0  0  0  0  0  0  0  0  0
  -27.9460  -22.7090   17.6150 C   0  0  0  0  0  2  0  0  0  0  0  0
  -28.8790  -21.5130   17.9490 C   0  0  0  0  0  2  0  0  0  0  0  0
  -29.3460  -21.4780   19.3470 N   0  0  0  0  0  0  0  0  0  0  0  0
  -28.2190  -25.0870   17.6550 O   0  0  0  0  0  0  0  0  0  0  0  0
  -28.5850  -25.2380   20.6310 C   0  0  0  0  0  2  0  0  0  0  0  0
  -28.7410  -26.6640   20.1660 O   0  0  0  0  0  0  0  0  0  0  0  0
  -24.7750  -31.9000   23.3220 C   0  0  0  0  0  0  0  0  0  0  0  0
  -27.6060  -27.5040   20.1780 C   0  0  0  0  0  0  0  0  0  0  0  0
  -23.6510  -30.5020   21.6300 C   0  0  0  0  0  3  0  0  0  0  0  0
  -25.1820  -29.0430   20.1870 C   0  0  0  0  0  0  0  0  0  0  0  0
  -26.1800  -30.9170   21.4900 C   0  0  0  0  0  2  0  0  0  0  0  0
  -26.3280  -29.5560   20.8080 C   0  0  0  0  0  0  0  0  0  0  0  0
  -27.5440  -28.8020   20.7880 C   0  0  0  0  0  3  0  0  0  0  0  0
  -26.4380  -27.0560   19.5290 C   0  0  0  0  0  3  0  0  0  0  0  0
  -25.2420  -27.8000   19.5370 C   0  0  0  0  0  3  0  0  0  0  0  0
  -23.9130  -29.8700   20.2370 C   0  0  0  0  0  2  0  0  0  0  0  0
  -24.8860  -31.1240   22.2040 N   0  0  0  0  0  0  0  0  0  0  0  0
  -23.6740  -32.1230   23.8470 O   0  0  0  0  0  0  0  0  0  0  0  0
  -23.0120  -29.4380   22.5550 C   0  0  0  0  0  0  0  0  0  0  0  0
  -21.7020  -29.1870   22.3770 N   0  0  0  0  0  0  0  0  0  0  0  0
  -23.6960  -28.8390   23.3890 O   0  0  0  0  0  0  0  0  0  0  0  0
  -21.2090  -29.7240   21.6750 H   0  0  0  0  0  0  0  0  0  0  0  0
  -18.3920  -27.7560   22.7050 C   0  0  0  0  0  0  0  0  0  0  0  0
  -20.9110  -28.1910   23.1030 C   0  0  0  0  0  3  0  0  0  0  0  0
  -21.1400  -26.7720   22.5340 C   0  0  0  0  0  2  0  0  0  0  0  0
  -20.1160  -26.3780   21.4660 C   0  0  0  0  0  2  0  0  0  0  0  0
  -18.6960  -26.4260   22.0360 C   0  0  0  0  0  2  0  0  0  0  0  0
  -19.4330  -28.5920   23.1920 C   0  0  0  0  0  0  0  0  0  0  0  0
  -19.0970  -29.8340   23.7710 C   0  0  0  0  0  3  0  0  0  0  0  0
  -17.7540  -30.2450   23.8700 C   0  0  0  0  0  3  0  0  0  0  0  0
  -16.7290  -29.4060   23.4030 C   0  0  0  0  0  3  0  0  0  0  0  0
  -17.0470  -28.1650   22.8240 C   0  0  0  0  0  3  0  0  0  0  0  0
  -26.0220  -32.5650   23.9830 C   0  0  0  0  0  3  0  0  0  0  0  0
  -25.6720  -33.9560   24.3030 N   0  0  0  0  0  0  0  0  0  0  0  0
  -25.9850  -35.0150   23.5430 C   0  0  0  0  0  0  0  0  0  0  0  0
  -26.6710  -34.9240   22.5230 O   0  0  0  0  0  0  0  0  0  0  0  0
  -25.0640  -34.0990   25.0960 H   0  0  0  0  0  0  0  0  0  0  0  0
  -24.2050  -36.7520   23.1620 C   0  0  0  0  0  1  0  0  0  0  0  0
  -25.4530  -36.3930   23.9850 C   0  0  0  0  0  3  0  0  0  0  0  0
  -27.5570  -37.3470   24.8200 C   0  0  0  0  0  1  0  0  0  0  0  0
  -26.4550  -37.4750   23.8680 N   0  0  0  0  0  0  0  0  0  0  0  0
  -26.0230  -38.3840   24.0090 H   0  0  0  0  0  0  0  0  0  0  0  0
  -26.5160  -31.8060   25.2770 C   0  0  1  0  0  0  0  0  0  0  0  0
  -25.3940  -31.5410   26.3080 C   0  0  0  0  0  1  0  0  0  0  0  0
  -27.1460  -30.4430   24.9080 C   0  0  0  0  0  1  0  0  0  0  0  0
  -27.6260  -32.6290   25.9740 C   0  0  0  0  0  1  0  0  0  0  0  0
  -33.7750  -19.9160   20.3220 O   0  0  0  0  0  0  0  0  0  0  0  0
  -34.8530  -18.9960   20.2340 C   0  0  0  0  0  2  0  0  0  0  0  0
  -37.4140  -18.9640   20.0930 C   0  0  0  0  0  1  0  0  0  0  0  0
  -36.1560  -19.8070   20.3200 C   0  0  0  0  0  2  0  0  0  0  0  0
  1  4  2  0
  1  5  1  0
  2  6  2  0
  3  6  1  0
  4  2  1  0
  5  3  2  0
  5 15  1  0
  6 96  1  0
  7 13  1  0
  7 15  1  0
  8 13  1  0
  9 10  1  0
  9  8  1  0
 11 10  1  0
 11 19  1  0
 11 12  1  0
 13 12  1  0
 14  7  2  0
 15 44  1  0
 16 17  2  0
 17 36  1  0
 18 17  1  0
 18 21  1  0
 19 20  1  0
 19 16  1  0
 20 18  2  0
 21 22  1  0
 22 23  2  0
 24 27  1  0
 24 23  1  0
 25 24  2  0
 26 25  1  0
 26 21  2  0
 27 28  1  0
 28 33  2  0
 28 29  1  0
 29 30  2  0
 30 31  1  0
 31 35  1  0
 32 31  2  0
 33 32  1  0
 34 33  1  0
 36 37  1  0
 37 39  1  0
 37 40  1  0
 38 36  2  0
 41 16  1  0
 41 42  1  0
 43 41  1  0
 44 46  1  0
 46 45  1  0
 48 47  2  0
 48 54  1  0
 49 48  1  0
 50 51  1  0
 50 49  1  0
 51 52  1  0
 52  4  1  0
 52 47  1  0
 53 49  2  0
 55 57  1  0
 55 54  1  0
 56 67  2  0
 57 62  1  0
 58 66  1  0
 58 68  1  0
 59 65  1  0
 59 61  1  0
 60 66  1  0
 61 60  1  0
 62 61  2  0
 63 64  1  0
 63 57  2  0
 64 59  2  0
 65 58  1  0
 66 56  1  0
 68 70  2  0
 69 68  1  0
 71 69  1  0
 72 81  2  0
 72 77  1  0
 73 69  1  0
 73 77  1  0
 74 73  1  0
 75 76  1  0
 75 74  1  0
 76 72  1  0
 77 78  2  0
 78 79  1  0
 80 79  2  0
 81 80  1  0
 82 56  1  0
 82 83  1  0
 82 92  1  0
 83 86  1  0
 84 88  1  0
 84 83  1  0
 85 84  2  0
 88 87  1  0
 90 88  1  0
 90 91  1  0
 90 89  1  0
 92 95  1  1
 92 93  1  0
 94 92  1  0
 97 99  1  0
 97 96  1  0
 98 99  1  0
M  ISO  4   7 100  15 100  54 101  55 101
M  END
>  <TORSDO>  (25) 
F 23

>  <SCORE>  (25) 
-10.917

>  <name>  (25) 
24

>  <ligand_id>  (25) 
24

>  <original_smiles>  (25) 
[H]C1=C(C([H])([H])Oc2c([H])c([H])c3c(c2[H])C([H])([H])N(C(=O)C([H])(N([H])C(=O)C([H])(N([H])C([H])([H])[H])C([H])([H])[H])C(C([H])([H])[H])(C([H])([H])[H])C([H])([H])[H])C([H])(C(=O)N([H])C2([H])c4c([H])c([H])c([H])c([H])c4C([H])([H])C([H])([H])C2([H])[H])C3([H])[H])C(=O)C([H])([H])C([H])([H])N1c1c([H])c(OC([H])([H])C([H])([H])C([H])([H])[H])c([H])c(N(C(=O)N2C([H])([H])C([H])([H])C([H])([H])C([H])(n3nc(-c4c([H])c([H])c(Oc5c([H])c([H])c(F)c([H])c5F)c([H])c4[H])c(C(=O)N([H])[H])c3N([H])[H])C2([H])[H])C([H])([H])C([H])([H])C([H])([H])[H])c1[H]

>  <smiles>  (25) 
[H]C1=C(C([H])([H])Oc2c([H])c([H])c3c(c2[H])C([H])([H])N(C(=O)C([H])(N([H])C(=O)C([H])(N([H])C([H])([H])[H])C([H])([H])[H])C(C([H])([H])[H])(C([H])([H])[H])C([H])([H])[H])C([H])(C(=O)N([H])C2([H])c4c([H])c([H])c([H])c([H])c4C([H])([H])C([H])([H])C2([H])[H])C3([H])[H])C(=O)C([H])([H])C([H])([H])N1c1c([H])c(OC([H])([H])C([H])([H])C([H])([H])[H])c([H])c(N(C(=O)N2C([H])([H])C([H])([H])C([H])([H])C([H])(n3nc(-c4c([H])c([H])c(Oc5c([H])c([H])c(F)c([H])c5F)c([H])c4[H])c(C(=O)N([H])[H])c3N([H])[H])C2([H])[H])C([H])([H])C([H])([H])C([H])([H])[H])c1[H]

$$$$
25:0:0
     RDKit          3D

 97106  0  0  1  0  0  0  0  0999 V2000
  -27.9360  -25.1230   21.5440 C   0  0  0  0  0  3  0  0  0  0  0  0
  -26.9820  -24.9580   22.5390 C   0  0  0  0  0  0  0  0  0  0  0  0
  -28.1550  -24.1120   20.5100 C   0  0  0  0  0  0  0  0  0  0  0  0
  -26.0850  -23.7310   22.4880 C   0  0  0  0  0  2  0  0  0  0  0  0
  -25.8730  -23.3090   21.0300 C   0  0  0  0  0  2  0  0  0  0  0  0
  -27.1620  -23.2040   20.3420 N   0  0  0  0  0  0  0  0  0  0  0  0
  -26.6530  -25.6860   23.5040 O   0  0  0  0  0  0  0  0  0  0  0  0
  -29.1810  -24.0980   19.8200 O   0  0  0  0  0  0  0  0  0  0  0  0
  -26.9850  -21.5610   18.5050 C   0  0  0  0  0  3  0  0  0  0  0  0
  -27.5520  -20.2950   18.1430 C   0  0  0  0  0  0  0  0  0  0  0  0
  -28.4130  -19.8050   19.1030 C   0  0  0  0  0  0  0  0  0  0  0  0
  -27.4430  -22.0410   19.7050 C   0  0  0  0  0  0  0  0  0  0  0  0
  -27.2280  -19.6210   16.8430 C   0  0  0  0  0  1  0  0  0  0  0  0
  -28.5640  -20.9300   20.4210 S   0  0  0  0  0  0  0  0  0  0  0  0
  -29.2410  -18.5440   19.1230 C   0  0  0  0  0  2  0  0  0  0  0  0
  -29.5510  -18.0020   20.5500 C   0  0  0  0  0  2  0  0  0  0  0  0
  -30.7150  -17.0030   20.6520 C   0  0  0  0  0  2  0  0  0  0  0  0
  -31.0220  -14.5630   20.6760 C   0  0  0  0  0  0  0  0  0  0  0  0
  -30.7360  -12.3610   19.6640 C   0  0  0  0  0  2  0  0  0  0  0  0
  -29.8810  -12.5740   18.3990 C   0  0  0  0  0  2  0  0  0  0  0  0
  -28.3830  -12.4780   18.7500 C   0  0  0  0  0  2  0  0  0  0  0  0
  -27.9860  -13.3790   19.9520 C   0  0  0  0  0  3  0  0  0  0  0  0
  -28.9730  -13.1820   21.1280 C   0  0  0  0  0  2  0  0  0  0  0  0
  -30.3380  -13.3970   20.6180 N   0  0  0  0  0  0  0  0  0  0  0  0
  -32.2090  -14.6900   20.3750 O   0  0  0  0  0  0  0  0  0  0  0  0
  -30.2470  -15.6370   20.8350 N   0  0  0  0  0  0  0  0  0  0  0  0
  -29.2670  -15.4830   21.0120 H   0  0  0  0  0  0  0  0  0  0  0  0
  -25.5650  -14.0640   20.5060 C   0  0  0  0  0  0  0  0  0  0  0  0
  -24.4590  -13.3260   20.8300 C   0  0  0  0  0  0  0  0  0  0  0  0
  -24.8890  -11.9660   20.8650 C   0  0  0  0  0  0  0  0  0  0  0  0
  -26.6010  -13.1550   20.3590 N   0  0  0  0  0  0  0  0  0  0  0  0
  -26.1910  -11.8880   20.6290 N   0  0  0  0  0  0  0  0  0  0  0  0
  -24.1240  -10.7250   21.0480 C   0  0  0  0  0  0  0  0  0  0  0  0
  -24.4870   -9.7700   22.0220 C   0  0  0  0  0  3  0  0  0  0  0  0
  -23.7280   -8.5910   22.1850 C   0  0  0  0  0  3  0  0  0  0  0  0
  -22.5920   -8.3600   21.3740 C   0  0  0  0  0  0  0  0  0  0  0  0
  -22.2490   -9.3020   20.3860 C   0  0  0  0  0  3  0  0  0  0  0  0
  -23.0090  -10.4730   20.2240 C   0  0  0  0  0  3  0  0  0  0  0  0
  -21.8080   -7.2360   21.4490 O   0  0  0  0  0  0  0  0  0  0  0  0
  -21.6860   -6.5190   22.6100 C   0  0  0  0  0  0  0  0  0  0  0  0
  -21.2250   -7.1110   23.8080 C   0  0  0  0  0  3  0  0  0  0  0  0
  -21.0510   -6.3210   24.9600 C   0  0  0  0  0  3  0  0  0  0  0  0
  -21.3240   -4.9410   24.9170 C   0  0  0  0  0  0  0  0  0  0  0  0
  -21.7770   -4.3480   23.7250 C   0  0  0  0  0  3  0  0  0  0  0  0
  -21.9540   -5.1350   22.5740 C   0  0  0  0  0  0  0  0  0  0  0  0
  -22.3720   -4.5550   21.4230 F   0  0  0  0  0  0  0  0  0  0  0  0
  -21.1460   -4.1810   26.0220 F   0  0  0  0  0  0  0  0  0  0  0  0
  -23.0590  -13.8430   21.0050 C   0  0  0  0  0  0  0  0  0  0  0  0
  -22.2660  -13.1900   21.8490 N   0  0  0  0  0  0  0  0  0  0  0  0
  -22.6730  -14.8580   20.4280 O   0  0  0  0  0  0  0  0  0  0  0  0
  -22.5820  -12.3640   22.3350 H   0  0  0  0  0  0  0  0  0  0  0  0
  -21.3300  -13.5300   22.0170 H   0  0  0  0  0  0  0  0  0  0  0  0
  -25.7690  -15.4260   20.3000 N   0  0  0  0  0  0  0  0  0  0  0  0
  -25.0120  -16.1010   20.3500 H   0  0  0  0  0  0  0  0  0  0  0  0
  -26.6370  -15.8410   19.9860 H   0  0  0  0  0  0  0  0  0  0  0  0
  -28.7850  -26.3810   21.4290 C   0  0  0  0  0  2  0  0  0  0  0  0
  -28.5240  -27.0340   20.1890 O   0  0  0  0  0  0  0  0  0  0  0  0
  -24.5240  -31.9810   23.2720 C   0  0  0  0  0  0  0  0  0  0  0  0
  -27.3380  -27.7140   20.1790 C   0  0  0  0  0  0  0  0  0  0  0  0
  -23.3740  -30.5810   21.5820 C   0  0  0  0  0  3  0  0  0  0  0  0
  -24.8940  -29.1060   20.1630 C   0  0  0  0  0  0  0  0  0  0  0  0
  -25.8840  -31.0220   21.4300 C   0  0  0  0  0  2  0  0  0  0  0  0
  -26.0190  -29.6660   20.7790 C   0  0  0  0  0  0  0  0  0  0  0  0
  -27.2430  -28.9770   20.7900 C   0  0  0  0  0  3  0  0  0  0  0  0
  -26.2090  -27.1520   19.5460 C   0  0  0  0  0  3  0  0  0  0  0  0
  -24.9810  -27.8430   19.5470 C   0  0  0  0  0  3  0  0  0  0  0  0
  -23.6250  -29.9240   20.1960 C   0  0  0  0  0  2  0  0  0  0  0  0
  -24.6080  -31.2100   22.1530 N   0  0  0  0  0  0  0  0  0  0  0  0
  -23.4310  -32.2180   23.8010 O   0  0  0  0  0  0  0  0  0  0  0  0
  -22.7300  -29.5330   22.5170 C   0  0  0  0  0  0  0  0  0  0  0  0
  -21.4080  -29.3440   22.3780 N   0  0  0  0  0  0  0  0  0  0  0  0
  -23.4130  -28.8920   23.3170 O   0  0  0  0  0  0  0  0  0  0  0  0
  -20.9210  -29.9080   21.6970 H   0  0  0  0  0  0  0  0  0  0  0  0
  -18.0340  -28.1460   22.8580 C   0  0  0  0  0  0  0  0  0  0  0  0
  -20.5950  -28.3790   23.1180 C   0  0  0  0  0  3  0  0  0  0  0  0
  -20.6840  -26.9730   22.4810 C   0  0  0  0  0  2  0  0  0  0  0  0
  -19.5710  -26.6960   21.4670 C   0  0  0  0  0  2  0  0  0  0  0  0
  -18.1980  -26.8210   22.1310 C   0  0  0  0  0  2  0  0  0  0  0  0
  -19.1620  -28.8840   23.3090 C   0  0  0  0  0  0  0  0  0  0  0  0
  -18.9550  -30.1240   23.9480 C   0  0  0  0  0  3  0  0  0  0  0  0
  -17.6570  -30.6290   24.1430 C   0  0  0  0  0  3  0  0  0  0  0  0
  -16.5440  -29.8880   23.7090 C   0  0  0  0  0  3  0  0  0  0  0  0
  -16.7350  -28.6490   23.0690 C   0  0  0  0  0  3  0  0  0  0  0  0
  -25.7890  -32.6270   23.9230 C   0  0  0  0  0  3  0  0  0  0  0  0
  -25.4660  -34.0270   24.2240 N   0  0  0  0  0  0  0  0  0  0  0  0
  -25.8170  -35.0700   23.4590 C   0  0  0  0  0  0  0  0  0  0  0  0
  -26.5210  -34.9550   22.4520 O   0  0  0  0  0  0  0  0  0  0  0  0
  -24.8460  -34.1880   25.0040 H   0  0  0  0  0  0  0  0  0  0  0  0
  -24.0850  -36.8400   23.0280 C   0  0  0  0  0  1  0  0  0  0  0  0
  -25.3060  -36.4600   23.8780 C   0  0  0  0  0  3  0  0  0  0  0  0
  -27.4130  -37.3740   24.7490 C   0  0  0  0  0  1  0  0  0  0  0  0
  -26.3340  -37.5200   23.7760 N   0  0  0  0  0  0  0  0  0  0  0  0
  -25.9160  -38.4370   23.9020 H   0  0  0  0  0  0  0  0  0  0  0  0
  -26.2780  -31.8720   25.2210 C   0  0  1  0  0  0  0  0  0  0  0  0
  -25.1560  -31.6330   26.2570 C   0  0  0  0  0  1  0  0  0  0  0  0
  -26.8860  -30.4970   24.8560 C   0  0  0  0  0  1  0  0  0  0  0  0
  -27.4000  -32.6860   25.9110 C   0  0  0  0  0  1  0  0  0  0  0  0
  1 56  1  0
  1  2  1  0
  2  7  2  0
  3  1  1  0
  4  2  1  0
  5  4  1  0
  6  3  1  0
  6  5  1  0
  8  3  2  0
  9 12  2  0
 10  9  1  0
 10 11  2  0
 11 15  1  0
 11 14  1  0
 12  6  1  0
 12 14  1  0
 13 10  1  0
 15 16  1  0
 16 17  1  0
 17 26  1  0
 18 26  1  0
 19 24  1  0
 20 21  1  0
 20 19  1  0
 22 21  1  0
 22 31  1  0
 22 23  1  0
 24 18  1  0
 24 23  1  0
 25 18  2  0
 26 27  1  0
 28 29  2  0
 29 30  1  0
 29 48  1  0
 30 33  1  0
 31 28  1  0
 31 32  1  0
 32 30  2  0
 33 34  1  0
 34 35  2  0
 36 39  1  0
 36 35  1  0
 37 36  2  0
 38 37  1  0
 38 33  2  0
 39 40  1  0
 40 41  1  0
 41 42  2  0
 43 42  1  0
 43 47  1  0
 44 43  2  0
 45 40  2  0
 45 44  1  0
 46 45  1  0
 48 49  1  0
 49 52  1  0
 49 51  1  0
 50 48  2  0
 53 54  1  0
 53 28  1  0
 55 53  1  0
 57 56  1  0
 58 69  2  0
 59 57  1  0
 59 64  1  0
 60 68  1  0
 60 70  1  0
 61 67  1  0
 61 63  1  0
 62 68  1  0
 63 64  2  0
 63 62  1  0
 65 66  1  0
 65 59  2  0
 66 61  2  0
 67 60  1  0
 68 58  1  0
 70 72  2  0
 71 70  1  0
 73 71  1  0
 74 83  2  0
 74 79  1  0
 75 71  1  0
 75 79  1  0
 76 75  1  0
 77 78  1  0
 77 76  1  0
 78 74  1  0
 79 80  2  0
 80 81  1  0
 82 81  2  0
 83 82  1  0
 84 58  1  0
 84 85  1  0
 84 94  1  0
 85 88  1  0
 86 90  1  0
 86 85  1  0
 87 86  2  0
 90 89  1  0
 92 90  1  0
 92 93  1  0
 92 91  1  0
 94 97  1  1
 94 95  1  0
 96 94  1  0
M  ISO  4  18 100  26 100  56 101  57 101
M  END
>  <TORSDO>  (26) 
F 21

>  <SCORE>  (26) 
-13.121

>  <name>  (26) 
25

>  <ligand_id>  (26) 
25

>  <original_smiles>  (26) 
[H]c1c([H])c([H])c2c(c1[H])C([H])([H])C([H])([H])C([H])([H])C2([H])N([H])C(=O)C1([H])N(C(=O)C([H])(N([H])C(=O)C([H])(N([H])C([H])([H])[H])C([H])([H])[H])C(C([H])([H])[H])(C([H])([H])[H])C([H])([H])[H])C([H])([H])c2c([H])c(OC([H])([H])C3=C([O-])C([H])([H])C([H])([H])N(c4sc(C([H])([H])C([H])([H])C([H])([H])N([H])C(=O)N5C([H])([H])C([H])([H])C([H])([H])C([H])(n6nc(-c7c([H])c([H])c(Oc8c([H])c([H])c(F)c([H])c8F)c([H])c7[H])c(C(=O)N([H])[H])c6N([H])[H])C5([H])[H])c(C([H])([H])[H])c4[H])C3=O)c([H])c([H])c2C1([H])[H]

>  <smiles>  (26) 
[H]c1c([H])c([H])c2c(c1[H])C([H])([H])C([H])([H])C([H])([H])C2([H])N([H])C(=O)C1([H])N(C(=O)C([H])(N([H])C(=O)C([H])(N([H])C([H])([H])[H])C([H])([H])[H])C(C([H])([H])[H])(C([H])([H])[H])C([H])([H])[H])C([H])([H])c2c([H])c(OC([H])([H])C3=C([O-])C([H])([H])C([H])([H])N(c4sc(C([H])([H])C([H])([H])C([H])([H])N([H])C(=O)N5C([H])([H])C([H])([H])C([H])([H])C([H])(n6nc(-c7c([H])c([H])c(Oc8c([H])c([H])c(F)c([H])c8F)c([H])c7[H])c(C(=O)N([H])[H])c6N([H])[H])C5([H])[H])c(C([H])([H])[H])c4[H])C3=O)c([H])c([H])c2C1([H])[H]

$$$$
26:0:0
     RDKit          3D

 95103  0  0  1  0  0  0  0  0999 V2000
  -30.2720  -18.5630   20.0740 C   0  0  0  0  0  3  0  0  0  0  0  0
  -30.6810  -18.4610   22.8120 C   0  0  0  0  0  3  0  0  0  0  0  0
  -30.0990  -19.8010   20.8180 C   0  0  0  0  0  0  0  0  0  0  0  0
  -30.6300  -17.2900   20.6690 C   0  0  0  0  0  0  0  0  0  0  0  0
  -30.2840  -19.6870   22.2310 C   0  0  0  0  0  0  0  0  0  0  0  0
  -30.8700  -17.2730   22.0610 C   0  0  0  0  0  0  0  0  0  0  0  0
  -31.3010  -14.8560   19.9770 C   0  0  0  0  0  0  0  0  0  0  0  0
  -30.9870  -12.5640   19.0160 C   0  0  0  0  0  2  0  0  0  0  0  0
  -30.0230  -12.6310   17.8090 C   0  0  0  0  0  2  0  0  0  0  0  0
  -28.5530  -12.5510   18.2690 C   0  0  0  0  0  2  0  0  0  0  0  0
  -28.2460  -13.5260   19.4370 C   0  0  0  0  0  3  0  0  0  0  0  0
  -29.3110  -13.4100   20.5510 C   0  0  0  0  0  2  0  0  0  0  0  0
  -30.6230  -13.6630   19.9350 N   0  0  0  0  0  0  0  0  0  0  0  0
  -32.4920  -14.9260   19.6610 O   0  0  0  0  0  0  0  0  0  0  0  0
  -30.4990  -15.9770   20.0240 N   0  0  0  0  0  0  0  0  0  0  0  0
  -29.5410  -15.6620   20.0320 H   0  0  0  0  0  0  0  0  0  0  0  0
  -25.9270  -14.3130   20.2140 C   0  0  0  0  0  0  0  0  0  0  0  0
  -24.8110  -13.6240   20.6100 C   0  0  0  0  0  0  0  0  0  0  0  0
  -25.1670  -12.2410   20.5740 C   0  0  0  0  0  0  0  0  0  0  0  0
  -26.8930  -13.3520   19.9560 N   0  0  0  0  0  0  0  0  0  0  0  0
  -26.4440  -12.1020   20.2380 N   0  0  0  0  0  0  0  0  0  0  0  0
  -24.3510  -11.0390   20.7850 C   0  0  0  0  0  0  0  0  0  0  0  0
  -24.7350  -10.0380   21.7040 C   0  0  0  0  0  3  0  0  0  0  0  0
  -23.9250   -8.9000   21.9020 C   0  0  0  0  0  3  0  0  0  0  0  0
  -22.7150   -8.7560   21.1820 C   0  0  0  0  0  0  0  0  0  0  0  0
  -22.3480   -9.7450   20.2520 C   0  0  0  0  0  3  0  0  0  0  0  0
  -23.1580  -10.8750   20.0510 C   0  0  0  0  0  3  0  0  0  0  0  0
  -21.8780   -7.6730   21.2890 O   0  0  0  0  0  0  0  0  0  0  0  0
  -21.8130   -6.9240   22.4360 C   0  0  0  0  0  0  0  0  0  0  0  0
  -21.4950   -7.5010   23.6850 C   0  0  0  0  0  3  0  0  0  0  0  0
  -21.3720   -6.6840   24.8260 C   0  0  0  0  0  3  0  0  0  0  0  0
  -21.5570   -5.2920   24.7190 C   0  0  0  0  0  0  0  0  0  0  0  0
  -21.8670   -4.7160   23.4750 C   0  0  0  0  0  3  0  0  0  0  0  0
  -21.9910   -5.5300   22.3360 C   0  0  0  0  0  0  0  0  0  0  0  0
  -22.2700   -4.9670   21.1350 F   0  0  0  0  0  0  0  0  0  0  0  0
  -21.4300   -4.5050   25.8140 F   0  0  0  0  0  0  0  0  0  0  0  0
  -23.4600  -14.2090   20.9050 C   0  0  0  0  0  0  0  0  0  0  0  0
  -22.7050  -13.5870   21.8040 N   0  0  0  0  0  0  0  0  0  0  0  0
  -23.0820  -15.2510   20.3700 O   0  0  0  0  0  0  0  0  0  0  0  0
  -23.0200  -12.7450   22.2620 H   0  0  0  0  0  0  0  0  0  0  0  0
  -21.7990  -13.9660   22.0420 H   0  0  0  0  0  0  0  0  0  0  0  0
  -26.1900  -15.6670   20.0270 N   0  0  0  0  0  0  0  0  0  0  0  0
  -25.4750  -16.3740   20.1610 H   0  0  0  0  0  0  0  0  0  0  0  0
  -27.0470  -16.0440   19.6450 H   0  0  0  0  0  0  0  0  0  0  0  0
  -30.1170  -20.7350   23.1400 N   0  0  0  0  0  0  0  0  0  0  0  0
  -30.0200  -20.4850   24.1190 H   0  0  0  0  0  0  0  0  0  0  0  0
  -29.5110  -21.5110   22.9040 H   0  0  0  0  0  0  0  0  0  0  0  0
  -29.8360  -21.1590   20.0840 C   0  0  0  0  0  0  0  0  0  0  0  0
  -30.2200  -21.2970   18.9190 O   0  0  0  0  0  0  0  0  0  0  0  0
  -29.0370  -22.3920   20.7140 C   0  0  0  0  0  2  0  0  0  0  0  0
  -29.4470  -23.9210   20.3660 C   0  0  0  0  0  3  0  0  0  0  0  0
  -28.3100  -25.0590   20.4370 C   0  0  0  0  0  3  0  0  0  0  0  0
  -28.5930  -26.5230   20.2540 O   0  0  0  0  0  0  0  0  0  0  0  0
  -24.7270  -31.8740   23.2280 C   0  0  0  0  0  0  0  0  0  0  0  0
  -27.4800  -27.3900   20.1730 C   0  0  0  0  0  0  0  0  0  0  0  0
  -23.5780  -30.4670   21.5570 C   0  0  0  0  0  3  0  0  0  0  0  0
  -25.0840  -28.9740   20.1260 C   0  0  0  0  0  0  0  0  0  0  0  0
  -26.1130  -30.8470   21.4070 C   0  0  0  0  0  2  0  0  0  0  0  0
  -26.2360  -29.4770   20.7470 C   0  0  0  0  0  0  0  0  0  0  0  0
  -27.4360  -28.6990   20.7580 C   0  0  0  0  0  3  0  0  0  0  0  0
  -26.3080  -26.9620   19.5070 C   0  0  0  0  0  3  0  0  0  0  0  0
  -25.1280  -27.7260   19.4870 C   0  0  0  0  0  3  0  0  0  0  0  0
  -23.8280  -29.8210   20.1680 C   0  0  0  0  0  2  0  0  0  0  0  0
  -24.8250  -31.0810   22.1200 N   0  0  0  0  0  0  0  0  0  0  0  0
  -23.6330  -32.1140   23.7560 O   0  0  0  0  0  0  0  0  0  0  0  0
  -22.9330  -29.4180   22.4950 C   0  0  0  0  0  0  0  0  0  0  0  0
  -21.6170  -29.1950   22.3440 N   0  0  0  0  0  0  0  0  0  0  0  0
  -23.6160  -28.8120   23.3250 O   0  0  0  0  0  0  0  0  0  0  0  0
  -21.1230  -29.7430   21.6540 H   0  0  0  0  0  0  0  0  0  0  0  0
  -18.2790  -27.8530   22.7490 C   0  0  0  0  0  0  0  0  0  0  0  0
  -20.8150  -28.2250   23.0920 C   0  0  0  0  0  3  0  0  0  0  0  0
  -20.9940  -26.7970   22.5280 C   0  0  0  0  0  2  0  0  0  0  0  0
  -19.9380  -26.4240   21.4830 C   0  0  0  0  0  2  0  0  0  0  0  0
  -18.5320  -26.5090   22.0840 C   0  0  0  0  0  2  0  0  0  0  0  0
  -19.3520  -28.6640   23.2070 C   0  0  0  0  0  0  0  0  0  0  0  0
  -19.0610  -29.9170   23.7900 C   0  0  0  0  0  3  0  0  0  0  0  0
  -17.7330  -30.3620   23.9150 C   0  0  0  0  0  3  0  0  0  0  0  0
  -16.6740  -29.5500   23.4720 C   0  0  0  0  0  3  0  0  0  0  0  0
  -16.9480  -28.2970   22.8950 C   0  0  0  0  0  3  0  0  0  0  0  0
  -25.9870  -32.5360   23.8680 C   0  0  0  0  0  3  0  0  0  0  0  0
  -25.6340  -33.9180   24.2210 N   0  0  0  0  0  0  0  0  0  0  0  0
  -25.9510  -34.9960   23.4940 C   0  0  0  0  0  0  0  0  0  0  0  0
  -26.6470  -34.9370   22.4760 O   0  0  0  0  0  0  0  0  0  0  0  0
  -25.0260  -34.0380   25.0190 H   0  0  0  0  0  0  0  0  0  0  0  0
  -24.1780  -36.7460   23.1420 C   0  0  0  0  0  1  0  0  0  0  0  0
  -25.4140  -36.3610   23.9730 C   0  0  0  0  0  3  0  0  0  0  0  0
  -27.5080  -37.2790   24.8650 C   0  0  0  0  0  1  0  0  0  0  0  0
  -26.4160  -37.4460   23.9060 N   0  0  0  0  0  0  0  0  0  0  0  0
  -25.9800  -38.3480   24.0770 H   0  0  0  0  0  0  0  0  0  0  0  0
  -26.5170  -31.7610   25.1360 C   0  0  1  0  0  0  0  0  0  0  0  0
  -25.4230  -31.4620   26.1870 C   0  0  0  0  0  1  0  0  0  0  0  0
  -27.1560  -30.4150   24.7260 C   0  0  0  0  0  1  0  0  0  0  0  0
  -27.6270  -32.5850   25.8290 C   0  0  0  0  0  1  0  0  0  0  0  0
  -31.6800  -16.0600   23.9790 C   0  0  0  0  0  1  0  0  0  0  0  0
  -31.2300  -16.0650   22.6270 O   0  0  0  0  0  0  0  0  0  0  0  0
  1  4  2  0
  1  3  1  0
  3  5  2  0
  4  6  1  0
  5  2  1  0
  5 45  1  0
  6 95  1  0
  6  2  2  0
  7 15  1  0
  8 13  1  0
  9 10  1  0
  9  8  1  0
 11 10  1  0
 11 20  1  0
 11 12  1  0
 13  7  1  0
 13 12  1  0
 14  7  2  0
 15 16  1  0
 15  4  1  0
 17 18  2  0
 18 37  1  0
 19 18  1  0
 19 22  1  0
 20 17  1  0
 20 21  1  0
 21 19  2  0
 22 23  1  0
 23 24  2  0
 25 28  1  0
 25 24  1  0
 26 25  2  0
 27 26  1  0
 27 22  2  0
 28 29  1  0
 29 30  1  0
 30 31  2  0
 32 31  1  0
 32 36  1  0
 33 32  2  0
 34 29  2  0
 34 33  1  0
 35 34  1  0
 37 38  1  0
 38 41  1  0
 38 40  1  0
 39 37  2  0
 42 43  1  0
 42 17  1  0
 44 42  1  0
 45 46  1  0
 47 45  1  0
 48 50  1  0
 48  3  1  0
 49 48  2  0
 51 52  2  0
 51 50  1  0
 53 52  1  0
 54 65  2  0
 55 53  1  0
 55 60  1  0
 56 64  1  0
 56 66  1  0
 57 63  1  0
 57 59  1  0
 58 64  1  0
 59 60  2  0
 59 58  1  0
 61 55  2  0
 62 61  1  0
 62 57  2  0
 63 56  1  0
 64 54  1  0
 66 68  2  0
 67 66  1  0
 69 67  1  0
 70 79  2  0
 70 75  1  0
 71 67  1  0
 71 75  1  0
 72 71  1  0
 73 74  1  0
 73 72  1  0
 74 70  1  0
 75 76  2  0
 76 77  1  0
 78 77  2  0
 79 78  1  0
 80 54  1  0
 80 81  1  0
 80 90  1  0
 81 84  1  0
 82 86  1  0
 82 81  1  0
 83 82  2  0
 86 85  1  0
 88 86  1  0
 88 89  1  0
 88 87  1  0
 90 93  1  1
 90 91  1  0
 92 90  1  0
 95 94  1  0
M  ISO  4   7 100  15 100  52 101  53 101
M  END
>  <TORSDO>  (27) 
F 22

>  <SCORE>  (27) 
-8.746

>  <name>  (27) 
26

>  <ligand_id>  (27) 
26

>  <original_smiles>  (27) 
[H]c1c([H])c([H])c2c(c1[H])C([H])([H])C([H])([H])C([H])([H])C2([H])N([H])C(=O)C1([H])N(C(=O)C([H])(N([H])C(=O)C([H])(N([H])C([H])([H])[H])C([H])([H])[H])C(C([H])([H])[H])(C([H])([H])[H])C([H])([H])[H])C([H])([H])c2c([H])c(OC([H])([H])C([H])([H])C([H])([H])C(=O)c3c([H])c(N([H])C(=O)N4C([H])([H])C([H])([H])C([H])([H])C([H])(n5nc(-c6c([H])c([H])c(Oc7c([H])c([H])c(F)c([H])c7F)c([H])c6[H])c(C(=O)N([H])[H])c5N([H])[H])C4([H])[H])c(OC([H])([H])[H])c([H])c3N([H])[H])c([H])c([H])c2C1([H])[H]

>  <smiles>  (27) 
[H]c1c([H])c([H])c2c(c1[H])C([H])([H])C([H])([H])C([H])([H])C2([H])N([H])C(=O)C1([H])N(C(=O)C([H])(N([H])C(=O)C([H])(N([H])C([H])([H])[H])C([H])([H])[H])C(C([H])([H])[H])(C([H])([H])[H])C([H])([H])[H])C([H])([H])c2c([H])c(OC([H])([H])C([H])([H])C([H])([H])C(=O)c3c([H])c(N([H])C(=O)N4C([H])([H])C([H])([H])C([H])([H])C([H])(n5nc(-c6c([H])c([H])c(Oc7c([H])c([H])c(F)c([H])c7F)c([H])c6[H])c(C(=O)N([H])[H])c5N([H])[H])C4([H])[H])c(OC([H])([H])[H])c([H])c3N([H])[H])c([H])c([H])c2C1([H])[H]

$$$$
27:0:0
     RDKit          3D

 93102  0  0  1  0  0  0  0  0999 V2000
  -30.2570  -22.8960   21.5600 C   0  0  0  0  0  0  0  0  0  0  0  0
  -30.8180  -24.2130   22.0660 C   0  0  0  0  0  2  0  0  0  0  0  0
  -30.8910  -25.0470   20.7890 C   0  0  0  0  0  2  0  0  0  0  0  0
  -29.7850  -24.4610   19.8980 C   0  0  0  0  0  3  0  0  0  0  0  0
  -29.7360  -23.0300   20.3240 N   0  0  0  0  0  0  0  0  0  0  0  0
  -30.3710  -21.8580   22.2140 O   0  0  0  0  0  0  0  0  0  0  0  0
  -29.6000  -21.9360   19.3190 C   0  0  0  0  0  2  0  0  0  0  0  0
  -28.3080  -19.8760   20.4220 C   0  0  0  0  0  3  0  0  0  0  0  0
  -28.6360  -18.4890   20.5340 C   0  0  0  0  0  3  0  0  0  0  0  0
  -29.3510  -20.4950   19.7870 C   0  0  0  0  0  0  0  0  0  0  0  0
  -29.8670  -18.3140   19.9630 C   0  0  0  0  0  0  0  0  0  0  0  0
  -30.3080  -19.5420   19.5010 O   0  0  0  0  0  0  0  0  0  0  0  0
  -30.8090  -17.1270   19.7940 C   0  0  0  0  0  2  0  0  0  0  0  0
  -30.9940  -14.6400   19.8600 C   0  0  0  0  0  0  0  0  0  0  0  0
  -30.6810  -12.3550   18.9770 C   0  0  0  0  0  2  0  0  0  0  0  0
  -29.7190  -12.4160   17.7730 C   0  0  0  0  0  2  0  0  0  0  0  0
  -28.2530  -12.3190   18.2410 C   0  0  0  0  0  2  0  0  0  0  0  0
  -27.9330  -13.2680   19.4280 C   0  0  0  0  0  3  0  0  0  0  0  0
  -29.0180  -13.2030   20.5260 C   0  0  0  0  0  2  0  0  0  0  0  0
  -30.3170  -13.4550   19.8880 N   0  0  0  0  0  0  0  0  0  0  0  0
  -32.1420  -14.7190   19.4180 O   0  0  0  0  0  0  0  0  0  0  0  0
  -30.2940  -15.7700   20.1240 N   0  0  0  0  0  0  0  0  0  0  0  0
  -29.3410  -15.6860   20.4410 H   0  0  0  0  0  0  0  0  0  0  0  0
  -25.5850  -13.9240   20.2410 C   0  0  0  0  0  0  0  0  0  0  0  0
  -24.5140  -13.1780   20.6520 C   0  0  0  0  0  0  0  0  0  0  0  0
  -24.9390  -11.8160   20.6020 C   0  0  0  0  0  0  0  0  0  0  0  0
  -26.5970  -13.0200   19.9660 N   0  0  0  0  0  0  0  0  0  0  0  0
  -26.2160  -11.7450   20.2430 N   0  0  0  0  0  0  0  0  0  0  0  0
  -24.1890  -10.5730   20.8220 C   0  0  0  0  0  0  0  0  0  0  0  0
  -24.5910   -9.6280   21.7940 C   0  0  0  0  0  3  0  0  0  0  0  0
  -23.8420   -8.4490   21.9990 C   0  0  0  0  0  3  0  0  0  0  0  0
  -22.6780   -8.2060   21.2310 C   0  0  0  0  0  0  0  0  0  0  0  0
  -22.2950   -9.1370   20.2500 C   0  0  0  0  0  3  0  0  0  0  0  0
  -23.0450  -10.3080   20.0440 C   0  0  0  0  0  3  0  0  0  0  0  0
  -21.9020   -7.0770   21.3430 O   0  0  0  0  0  0  0  0  0  0  0  0
  -21.7680   -6.4100   22.5350 C   0  0  0  0  0  0  0  0  0  0  0  0
  -21.2650   -7.0460   23.6910 C   0  0  0  0  0  3  0  0  0  0  0  0
  -21.0780   -6.3060   24.8760 C   0  0  0  0  0  3  0  0  0  0  0  0
  -21.3850   -4.9330   24.9040 C   0  0  0  0  0  0  0  0  0  0  0  0
  -21.8790   -4.2960   23.7520 C   0  0  0  0  0  3  0  0  0  0  0  0
  -22.0680   -5.0330   22.5700 C   0  0  0  0  0  0  0  0  0  0  0  0
  -22.5260   -4.4120   21.4570 F   0  0  0  0  0  0  0  0  0  0  0  0
  -21.1980   -4.2190   26.0400 F   0  0  0  0  0  0  0  0  0  0  0  0
  -23.1410  -13.6900   20.9810 C   0  0  0  0  0  0  0  0  0  0  0  0
  -22.4370  -13.0170   21.8840 N   0  0  0  0  0  0  0  0  0  0  0  0
  -22.7040  -14.7220   20.4750 O   0  0  0  0  0  0  0  0  0  0  0  0
  -22.8070  -12.1830   22.3150 H   0  0  0  0  0  0  0  0  0  0  0  0
  -21.5170  -13.3380   22.1470 H   0  0  0  0  0  0  0  0  0  0  0  0
  -25.7740  -15.2900   20.0570 N   0  0  0  0  0  0  0  0  0  0  0  0
  -25.0270  -15.9610   20.1970 H   0  0  0  0  0  0  0  0  0  0  0  0
  -26.6150  -15.7090   19.6810 H   0  0  0  0  0  0  0  0  0  0  0  0
  -28.4450  -25.2520   20.1050 C   0  0  0  0  0  2  0  0  0  0  0  0
  -28.5460  -26.6830   19.8350 O   0  0  0  0  0  0  0  0  0  0  0  0
  -24.5850  -31.6770   23.1200 C   0  0  0  0  0  0  0  0  0  0  0  0
  -27.3700  -27.4200   19.8650 C   0  0  0  0  0  0  0  0  0  0  0  0
  -23.4310  -30.3100   21.4170 C   0  0  0  0  0  3  0  0  0  0  0  0
  -24.9360  -28.8850   19.9270 C   0  0  0  0  0  0  0  0  0  0  0  0
  -25.9480  -30.7540   21.2390 C   0  0  0  0  0  2  0  0  0  0  0  0
  -26.0810  -29.4100   20.5420 C   0  0  0  0  0  0  0  0  0  0  0  0
  -27.3020  -28.6870   20.5040 C   0  0  0  0  0  3  0  0  0  0  0  0
  -26.2080  -26.9330   19.2270 C   0  0  0  0  0  3  0  0  0  0  0  0
  -24.9990  -27.6510   19.2620 C   0  0  0  0  0  3  0  0  0  0  0  0
  -23.6650  -29.7010   20.0100 C   0  0  0  0  0  2  0  0  0  0  0  0
  -24.6730  -30.9270   21.9850 N   0  0  0  0  0  0  0  0  0  0  0  0
  -23.4950  -31.8880   23.6690 O   0  0  0  0  0  0  0  0  0  0  0  0
  -22.8130  -29.2250   22.3310 C   0  0  0  0  0  0  0  0  0  0  0  0
  -21.4950  -29.0030   22.1930 N   0  0  0  0  0  0  0  0  0  0  0  0
  -23.5160  -28.5880   23.1190 O   0  0  0  0  0  0  0  0  0  0  0  0
  -20.9860  -29.5730   21.5320 H   0  0  0  0  0  0  0  0  0  0  0  0
  -18.1590  -27.6920   22.6540 C   0  0  0  0  0  0  0  0  0  0  0  0
  -20.7110  -28.0050   22.9190 C   0  0  0  0  0  3  0  0  0  0  0  0
  -20.8470  -26.6090   22.2680 C   0  0  0  0  0  2  0  0  0  0  0  0
  -19.7440  -26.3100   21.2470 C   0  0  0  0  0  2  0  0  0  0  0  0
  -18.3640  -26.3850   21.9070 C   0  0  0  0  0  2  0  0  0  0  0  0
  -19.2610  -28.4590   23.1160 C   0  0  0  0  0  0  0  0  0  0  0  0
  -19.0130  -29.6840   23.7730 C   0  0  0  0  0  3  0  0  0  0  0  0
  -17.6980  -30.1410   23.9750 C   0  0  0  0  0  3  0  0  0  0  0  0
  -16.6100  -29.3690   23.5300 C   0  0  0  0  0  3  0  0  0  0  0  0
  -16.8420  -28.1470   22.8750 C   0  0  0  0  0  3  0  0  0  0  0  0
  -25.8480  -32.3260   23.7700 C   0  0  0  0  0  3  0  0  0  0  0  0
  -26.3620  -31.5430   25.0400 C   0  0  1  0  0  0  0  0  0  0  0  0
  -25.2570  -31.2590   26.0840 C   0  0  0  0  0  1  0  0  0  0  0  0
  -26.9840  -30.1890   24.6290 C   0  0  0  0  0  1  0  0  0  0  0  0
  -27.4820  -32.3510   25.7370 C   0  0  0  0  0  1  0  0  0  0  0  0
  -25.5060  -33.7120   24.1180 N   0  0  0  0  0  0  0  0  0  0  0  0
  -25.8410  -34.7840   23.3870 C   0  0  0  0  0  0  0  0  0  0  0  0
  -26.5430  -34.7100   22.3740 O   0  0  0  0  0  0  0  0  0  0  0  0
  -24.8860  -33.8430   24.9050 H   0  0  0  0  0  0  0  0  0  0  0  0
  -24.0950  -36.5530   23.0110 C   0  0  0  0  0  1  0  0  0  0  0  0
  -25.3170  -36.1550   23.8540 C   0  0  0  0  0  3  0  0  0  0  0  0
  -27.4050  -37.0630   24.7710 C   0  0  0  0  0  1  0  0  0  0  0  0
  -26.3340  -37.2260   23.7910 N   0  0  0  0  0  0  0  0  0  0  0  0
  -25.9070  -38.1370   23.9370 H   0  0  0  0  0  0  0  0  0  0  0  0
  1  2  1  0
  1  6  2  0
  3  2  1  0
  4 52  1  0
  4  5  1  0
  4  3  1  0
  5  1  1  0
  7 10  1  0
  7  5  1  0
  8  9  1  0
 10  8  2  0
 11  9  2  0
 12 10  1  0
 12 11  1  0
 13 11  1  0
 13 22  1  0
 14 20  1  0
 14 22  1  0
 15 20  1  0
 16 17  1  0
 16 15  1  0
 18 17  1  0
 18 27  1  0
 18 19  1  0
 20 19  1  0
 21 14  2  0
 22 23  1  0
 24 25  2  0
 25 44  1  0
 26 25  1  0
 26 29  1  0
 27 24  1  0
 27 28  1  0
 28 26  2  0
 29 30  1  0
 30 31  2  0
 32 35  1  0
 32 31  1  0
 33 32  2  0
 34 33  1  0
 34 29  2  0
 35 36  1  0
 36 41  2  0
 36 37  1  0
 37 38  2  0
 38 39  1  0
 39 43  1  0
 40 39  2  0
 41 40  1  0
 42 41  1  0
 44 45  1  0
 45 48  1  0
 45 47  1  0
 46 44  2  0
 49 50  1  0
 49 24  1  0
 51 49  1  0
 53 55  1  0
 53 52  1  0
 54 65  2  0
 55 60  1  0
 56 64  1  0
 56 66  1  0
 57 63  1  0
 57 59  1  0
 58 64  1  0
 59 58  1  0
 60 59  2  0
 61 62  1  0
 61 55  2  0
 62 57  2  0
 63 56  1  0
 64 54  1  0
 66 68  2  0
 67 66  1  0
 69 67  1  0
 70 79  2  0
 70 75  1  0
 71 67  1  0
 71 75  1  0
 72 71  1  0
 73 74  1  0
 73 72  1  0
 74 70  1  0
 75 76  2  0
 76 77  1  0
 78 77  2  0
 79 78  1  0
 80 54  1  0
 80 85  1  0
 80 81  1  0
 81 84  1  1
 81 82  1  0
 83 81  1  0
 85 88  1  0
 86 90  1  0
 86 85  1  0
 87 86  2  0
 90 89  1  0
 92 90  1  0
 92 93  1  0
 92 91  1  0
M  ISO  4  14 100  22 100  52 101  53 101
M  END
>  <TORSDO>  (28) 
F 20

>  <SCORE>  (28) 
-13.033

>  <name>  (28) 
27

>  <ligand_id>  (28) 
27

>  <original_smiles>  (28) 
[H]c1c(C([H])([H])N([H])C(=O)N2C([H])([H])C([H])([H])C([H])([H])C([H])(n3nc(-c4c([H])c([H])c(Oc5c([H])c([H])c(F)c([H])c5F)c([H])c4[H])c(C(=O)N([H])[H])c3N([H])[H])C2([H])[H])oc(C([H])([H])N2C(=O)C([H])([H])C([H])([H])C2([H])C([H])([H])Oc2c([H])c([H])c3c(c2[H])C([H])([H])N(C(=O)C([H])(N([H])C(=O)C([H])(N([H])C([H])([H])[H])C([H])([H])[H])C(C([H])([H])[H])(C([H])([H])[H])C([H])([H])[H])C([H])(C(=O)N([H])C2([H])c4c([H])c([H])c([H])c([H])c4C([H])([H])C([H])([H])C2([H])[H])C3([H])[H])c1[H]

>  <smiles>  (28) 
[H]c1c(C([H])([H])N([H])C(=O)N2C([H])([H])C([H])([H])C([H])([H])C([H])(n3nc(-c4c([H])c([H])c(Oc5c([H])c([H])c(F)c([H])c5F)c([H])c4[H])c(C(=O)N([H])[H])c3N([H])[H])C2([H])[H])oc(C([H])([H])N2C(=O)C([H])([H])C([H])([H])C2([H])C([H])([H])Oc2c([H])c([H])c3c(c2[H])C([H])([H])N(C(=O)C([H])(N([H])C(=O)C([H])(N([H])C([H])([H])[H])C([H])([H])[H])C(C([H])([H])[H])(C([H])([H])[H])C([H])([H])[H])C([H])(C(=O)N([H])C2([H])c4c([H])c([H])c([H])c([H])c4C([H])([H])C([H])([H])C2([H])[H])C3([H])[H])c1[H]

$$$$
28:0:0
     RDKit          3D

 90 98  0  0  1  0  0  0  0  0999 V2000
  -28.6500  -19.7470   20.7740 C   0  0  0  0  0  3  0  0  0  0  0  0
  -28.2650  -21.1710   20.8250 C   0  0  0  0  0  3  0  0  0  0  0  0
  -28.9350  -22.0800   19.9980 C   0  0  0  0  0  0  0  0  0  0  0  0
  -29.6950  -19.3750   19.9420 C   0  0  0  0  0  0  0  0  0  0  0  0
  -30.1580  -20.9900   19.1840 S   0  0  0  0  0  0  0  0  0  0  0  0
  -27.2380  -21.5400   21.7050 N   0  0  0  0  0  0  0  0  0  0  0  0
  -27.0180  -20.8960   22.4580 H   0  0  0  0  0  0  0  0  0  0  0  0
  -27.2120  -22.5080   22.0070 H   0  0  0  0  0  0  0  0  0  0  0  0
  -28.7200  -23.6280   19.8170 C   0  0  0  0  0  0  0  0  0  0  0  0
  -28.0110  -24.8790   19.9380 C   0  0  0  0  0  3  0  0  0  0  0  0
  -28.3230  -26.3000   19.6990 O   0  0  0  0  0  0  0  0  0  0  0  0
  -24.7270  -31.8470   23.0520 C   0  0  0  0  0  0  0  0  0  0  0  0
  -27.2820  -27.3090   19.7280 C   0  0  0  0  0  0  0  0  0  0  0  0
  -23.5030  -30.5130   21.3810 C   0  0  0  0  0  3  0  0  0  0  0  0
  -24.9340  -29.0330   19.8400 C   0  0  0  0  0  0  0  0  0  0  0  0
  -26.0490  -30.8180   21.1640 C   0  0  0  0  0  2  0  0  0  0  0  0
  -26.1240  -29.4590   20.4460 C   0  0  0  0  0  0  0  0  0  0  0  0
  -27.2970  -28.6110   20.3800 C   0  0  0  0  0  3  0  0  0  0  0  0
  -26.0700  -27.0080   19.0670 C   0  0  0  0  0  3  0  0  0  0  0  0
  -24.9210  -27.8220   19.1340 C   0  0  0  0  0  3  0  0  0  0  0  0
  -23.6960  -29.9090   19.9650 C   0  0  0  0  0  2  0  0  0  0  0  0
  -24.7810  -31.0800   21.9200 N   0  0  0  0  0  0  0  0  0  0  0  0
  -23.6530  -32.0890   23.6220 O   0  0  0  0  0  0  0  0  0  0  0  0
  -22.8650  -29.4500   22.3100 C   0  0  0  0  0  0  0  0  0  0  0  0
  -21.5350  -29.2700   22.2160 N   0  0  0  0  0  0  0  0  0  0  0  0
  -23.5680  -28.7920   23.0810 O   0  0  0  0  0  0  0  0  0  0  0  0
  -21.0230  -29.8540   21.5700 H   0  0  0  0  0  0  0  0  0  0  0  0
  -18.1790  -28.0300   22.7920 C   0  0  0  0  0  0  0  0  0  0  0  0
  -20.7470  -28.2860   22.9640 C   0  0  0  0  0  3  0  0  0  0  0  0
  -20.8260  -26.8910   22.3020 C   0  0  0  0  0  2  0  0  0  0  0  0
  -19.6810  -26.6240   21.3180 C   0  0  0  0  0  2  0  0  0  0  0  0
  -18.3290  -26.7250   22.0290 C   0  0  0  0  0  2  0  0  0  0  0  0
  -19.3150  -28.7700   23.2170 C   0  0  0  0  0  0  0  0  0  0  0  0
  -19.1170  -29.9930   23.8950 C   0  0  0  0  0  3  0  0  0  0  0  0
  -17.8200  -30.4750   24.1500 C   0  0  0  0  0  3  0  0  0  0  0  0
  -16.7010  -29.7320   23.7380 C   0  0  0  0  0  3  0  0  0  0  0  0
  -16.8810  -28.5090   23.0650 C   0  0  0  0  0  3  0  0  0  0  0  0
  -26.0130  -32.4720   23.6730 C   0  0  0  0  0  3  0  0  0  0  0  0
  -26.5670  -31.6520   24.9040 C   0  0  1  0  0  0  0  0  0  0  0  0
  -25.5030  -31.3560   25.9860 C   0  0  0  0  0  1  0  0  0  0  0  0
  -27.1570  -30.3000   24.4450 C   0  0  0  0  0  1  0  0  0  0  0  0
  -27.7240  -32.4320   25.5730 C   0  0  0  0  0  1  0  0  0  0  0  0
  -25.6900  -33.8480   24.0790 N   0  0  0  0  0  0  0  0  0  0  0  0
  -25.9680  -34.9430   23.3590 C   0  0  0  0  0  0  0  0  0  0  0  0
  -26.5890  -34.9010   22.2940 O   0  0  0  0  0  0  0  0  0  0  0  0
  -25.1310  -33.9540   24.9130 H   0  0  0  0  0  0  0  0  0  0  0  0
  -24.1850  -36.7130   23.1870 C   0  0  0  0  0  1  0  0  0  0  0  0
  -25.4810  -36.3010   23.9050 C   0  0  0  0  0  3  0  0  0  0  0  0
  -27.6380  -37.2060   24.6550 C   0  0  0  0  0  1  0  0  0  0  0  0
  -26.4830  -37.3810   23.7770 N   0  0  0  0  0  0  0  0  0  0  0  0
  -26.0660  -38.2860   23.9800 H   0  0  0  0  0  0  0  0  0  0  0  0
  -30.4210  -17.9140   19.6180 C   0  0  0  0  0  2  0  0  0  0  0  0
  -30.8460  -15.2320   19.9000 C   0  0  0  0  0  0  0  0  0  0  0  0
  -30.6820  -12.8720   18.9470 C   0  0  0  0  0  2  0  0  0  0  0  0
  -29.6760  -12.8000   17.7730 C   0  0  0  0  0  2  0  0  0  0  0  0
  -28.2440  -12.5670   18.2900 C   0  0  0  0  0  2  0  0  0  0  0  0
  -27.9010  -13.4810   19.4930 C   0  0  0  0  0  3  0  0  0  0  0  0
  -29.0220  -13.4810   20.5500 C   0  0  0  0  0  2  0  0  0  0  0  0
  -30.2440  -13.9610   19.8790 N   0  0  0  0  0  0  0  0  0  0  0  0
  -31.9850  -15.2870   19.4190 O   0  0  0  0  0  0  0  0  0  0  0  0
  -29.4570  -16.5460   21.4900 C   0  0  0  0  0  1  0  0  0  0  0  0
  -30.1400  -16.4570   20.1980 N   0  0  0  0  0  0  0  0  0  0  0  0
  -25.5860  -14.0400   20.4280 C   0  0  0  0  0  0  0  0  0  0  0  0
  -24.5450  -13.2550   20.8400 C   0  0  0  0  0  0  0  0  0  0  0  0
  -24.9940  -11.9040   20.7160 C   0  0  0  0  0  0  0  0  0  0  0  0
  -26.6010  -13.1680   20.0720 N   0  0  0  0  0  0  0  0  0  0  0  0
  -26.2580  -11.8750   20.3090 N   0  0  0  0  0  0  0  0  0  0  0  0
  -24.2720  -10.6390   20.9030 C   0  0  0  0  0  0  0  0  0  0  0  0
  -24.6890   -9.6840   21.8560 C   0  0  0  0  0  3  0  0  0  0  0  0
  -23.9650   -8.4850   22.0300 C   0  0  0  0  0  3  0  0  0  0  0  0
  -22.8110   -8.2320   21.2520 C   0  0  0  0  0  0  0  0  0  0  0  0
  -22.4130   -9.1760   20.2900 C   0  0  0  0  0  3  0  0  0  0  0  0
  -23.1380  -10.3670   20.1130 C   0  0  0  0  0  3  0  0  0  0  0  0
  -22.0600   -7.0840   21.3350 O   0  0  0  0  0  0  0  0  0  0  0  0
  -21.8830   -6.4240   22.5250 C   0  0  0  0  0  0  0  0  0  0  0  0
  -21.2920   -7.0510   23.6440 C   0  0  0  0  0  3  0  0  0  0  0  0
  -21.0660   -6.3150   24.8250 C   0  0  0  0  0  3  0  0  0  0  0  0
  -21.4190   -4.9550   24.8860 C   0  0  0  0  0  0  0  0  0  0  0  0
  -22.0020   -4.3270   23.7710 C   0  0  0  0  0  3  0  0  0  0  0  0
  -22.2300   -5.0600   22.5930 C   0  0  0  0  0  0  0  0  0  0  0  0
  -22.7730   -4.4450   21.5140 F   0  0  0  0  0  0  0  0  0  0  0  0
  -21.1950   -4.2450   26.0170 F   0  0  0  0  0  0  0  0  0  0  0  0
  -23.1760  -13.7280   21.2340 C   0  0  0  0  0  0  0  0  0  0  0  0
  -22.5120  -13.0070   22.1300 N   0  0  0  0  0  0  0  0  0  0  0  0
  -22.7070  -14.7720   20.7820 O   0  0  0  0  0  0  0  0  0  0  0  0
  -22.9070  -12.1610   22.5160 H   0  0  0  0  0  0  0  0  0  0  0  0
  -21.5960  -13.3040   22.4360 H   0  0  0  0  0  0  0  0  0  0  0  0
  -25.7490  -15.4160   20.3010 N   0  0  0  0  0  0  0  0  0  0  0  0
  -25.0000  -16.0710   20.5000 H   0  0  0  0  0  0  0  0  0  0  0  0
  -26.5780  -15.8640   19.9320 H   0  0  0  0  0  0  0  0  0  0  0  0
  1  2  1  0
  2  6  1  0
  3  2  1  0
  4  1  2  0
  5  4  1  0
  5  3  1  0
  6  8  1  0
  6  7  1  0
  9 10  2  0
  9  3  2  0
 11 13  1  0
 11 10  1  0
 12 23  2  0
 13 18  1  0
 14 22  1  0
 14 24  1  0
 15 21  1  0
 15 17  1  0
 16 22  1  0
 17 16  1  0
 18 17  2  0
 19 20  1  0
 19 13  2  0
 20 15  2  0
 21 14  1  0
 22 12  1  0
 24 26  2  0
 25 24  1  0
 27 25  1  0
 28 37  2  0
 28 33  1  0
 29 25  1  0
 29 33  1  0
 30 29  1  0
 31 32  1  0
 31 30  1  0
 32 28  1  0
 33 34  2  0
 34 35  1  0
 36 35  2  0
 37 36  1  0
 38 12  1  0
 38 43  1  0
 38 39  1  0
 39 42  1  1
 39 40  1  0
 41 39  1  0
 43 46  1  0
 44 48  1  0
 44 43  1  0
 45 44  2  0
 48 47  1  0
 50 48  1  0
 50 51  1  0
 50 49  1  0
 52  4  1  0
 52 62  1  0
 53 62  1  0
 54 59  1  0
 55 56  1  0
 55 54  1  0
 57 56  1  0
 57 66  1  0
 57 58  1  0
 59 53  1  0
 59 58  1  0
 60 53  2  0
 62 61  1  0
 63 64  2  0
 64 83  1  0
 65 64  1  0
 65 68  1  0
 66 67  1  0
 66 63  1  0
 67 65  2  0
 68 69  1  0
 69 70  2  0
 71 74  1  0
 71 70  1  0
 72 71  2  0
 73 72  1  0
 73 68  2  0
 74 75  1  0
 75 80  2  0
 75 76  1  0
 76 77  2  0
 77 78  1  0
 78 82  1  0
 79 78  2  0
 80 79  1  0
 81 80  1  0
 83 84  1  0
 84 87  1  0
 84 86  1  0
 85 83  2  0
 88 63  1  0
 88 89  1  0
 90 88  1  0
M  ISO  4  10 101  11 101  53 100  62 100
M  END
>  <TORSDO>  (29) 
F 19

>  <SCORE>  (29) 
-13.004

>  <name>  (29) 
28

>  <ligand_id>  (29) 
28

>  <original_smiles>  (29) 
[H]C(Oc1c([H])c([H])c2c(c1[H])C([H])([H])N(C(=O)C([H])(N([H])C(=O)C([H])(N([H])C([H])([H])[H])C([H])([H])[H])C(C([H])([H])[H])(C([H])([H])[H])C([H])([H])[H])C([H])(C(=O)N([H])C1([H])c3c([H])c([H])c([H])c([H])c3C([H])([H])C([H])([H])C1([H])[H])C2([H])[H])=C([H])c1sc(C([H])([H])N(C(=O)N2C([H])([H])C([H])([H])C([H])([H])C([H])(n3nc(-c4c([H])c([H])c(Oc5c([H])c([H])c(F)c([H])c5F)c([H])c4[H])c(C(=O)N([H])[H])c3N([H])[H])C2([H])[H])C([H])([H])[H])c([H])c1N([H])[H]

>  <smiles>  (29) 
[H]C(Oc1c([H])c([H])c2c(c1[H])C([H])([H])N(C(=O)C([H])(N([H])C(=O)C([H])(N([H])C([H])([H])[H])C([H])([H])[H])C(C([H])([H])[H])(C([H])([H])[H])C([H])([H])[H])C([H])(C(=O)N([H])C1([H])c3c([H])c([H])c([H])c([H])c3C([H])([H])C([H])([H])C1([H])[H])C2([H])[H])=C([H])c1sc(C([H])([H])N(C(=O)N2C([H])([H])C([H])([H])C([H])([H])C([H])(n3nc(-c4c([H])c([H])c(Oc5c([H])c([H])c(F)c([H])c5F)c([H])c4[H])c(C(=O)N([H])[H])c3N([H])[H])C2([H])[H])C([H])([H])[H])c([H])c1N([H])[H]

$$$$
29:0:0
     RDKit          3D

 91 99  0  0  1  0  0  0  0  0999 V2000
  -27.1730  -18.9150   20.5090 C   0  0  0  0  0  3  0  0  0  0  0  0
  -27.9870  -17.8020   20.7650 C   0  0  0  0  0  3  0  0  0  0  0  0
  -27.7400  -20.1950   20.3840 C   0  0  0  0  0  3  0  0  0  0  0  0
  -29.9440  -19.2550   20.7990 C   0  0  0  0  0  3  0  0  0  0  0  0
  -29.3810  -17.9450   20.8910 C   0  0  0  0  0  0  0  0  0  0  0  0
  -29.1380  -20.4020   20.5250 C   0  0  0  0  0  0  0  0  0  0  0  0
  -30.9090  -14.5620   20.2930 C   0  0  0  0  0  0  0  0  0  0  0  0
  -30.6070  -12.3100   19.3220 C   0  0  0  0  0  2  0  0  0  0  0  0
  -29.6930  -12.3930   18.0840 C   0  0  0  0  0  2  0  0  0  0  0  0
  -28.2120  -12.2870   18.4950 C   0  0  0  0  0  2  0  0  0  0  0  0
  -27.8410  -13.2180   19.6810 C   0  0  0  0  0  3  0  0  0  0  0  0
  -28.8830  -13.1390   20.8210 C   0  0  0  0  0  2  0  0  0  0  0  0
  -30.2070  -13.3920   20.2360 N   0  0  0  0  0  0  0  0  0  0  0  0
  -32.1090  -14.6070   20.0040 O   0  0  0  0  0  0  0  0  0  0  0  0
  -30.2180  -16.6960   21.1390 C   0  0  0  0  0  0  0  0  0  0  0  0
  -29.9390  -16.1510   18.7990 C   0  0  0  0  0  1  0  0  0  0  0  0
  -30.1730  -15.7060   20.1930 N   0  0  0  0  0  0  0  0  0  0  0  0
  -30.8460  -16.6150   22.2010 O   0  0  0  0  0  0  0  0  0  0  0  0
  -25.4480  -13.8590   20.3640 C   0  0  0  0  0  0  0  0  0  0  0  0
  -24.3660  -13.1070   20.7340 C   0  0  0  0  0  0  0  0  0  0  0  0
  -24.8070  -11.7500   20.7210 C   0  0  0  0  0  0  0  0  0  0  0  0
  -26.4830  -12.9630   20.1570 N   0  0  0  0  0  0  0  0  0  0  0  0
  -26.1020  -11.6880   20.4320 N   0  0  0  0  0  0  0  0  0  0  0  0
  -24.0550  -10.5020   20.9090 C   0  0  0  0  0  0  0  0  0  0  0  0
  -24.4130   -9.5710   21.9090 C   0  0  0  0  0  3  0  0  0  0  0  0
  -23.6640   -8.3880   22.0840 C   0  0  0  0  0  3  0  0  0  0  0  0
  -22.5460   -8.1260   21.2560 C   0  0  0  0  0  0  0  0  0  0  0  0
  -22.2090   -9.0450   20.2470 C   0  0  0  0  0  3  0  0  0  0  0  0
  -22.9580  -10.2220   20.0710 C   0  0  0  0  0  3  0  0  0  0  0  0
  -21.7760   -6.9920   21.3390 O   0  0  0  0  0  0  0  0  0  0  0  0
  -21.5850   -6.3380   22.5300 C   0  0  0  0  0  0  0  0  0  0  0  0
  -20.9950   -6.9750   23.6430 C   0  0  0  0  0  3  0  0  0  0  0  0
  -20.7500   -6.2440   24.8230 C   0  0  0  0  0  3  0  0  0  0  0  0
  -21.0860   -4.8780   24.8900 C   0  0  0  0  0  0  0  0  0  0  0  0
  -21.6680   -4.2410   23.7790 C   0  0  0  0  0  3  0  0  0  0  0  0
  -21.9130   -4.9690   22.6010 C   0  0  0  0  0  0  0  0  0  0  0  0
  -22.4530   -4.3440   21.5270 F   0  0  0  0  0  0  0  0  0  0  0  0
  -20.8440   -4.1740   26.0210 F   0  0  0  0  0  0  0  0  0  0  0  0
  -22.9730  -13.6120   20.9780 C   0  0  0  0  0  0  0  0  0  0  0  0
  -22.2220  -12.9400   21.8430 N   0  0  0  0  0  0  0  0  0  0  0  0
  -22.5610  -14.6370   20.4370 O   0  0  0  0  0  0  0  0  0  0  0  0
  -22.5720  -12.1130   22.3040 H   0  0  0  0  0  0  0  0  0  0  0  0
  -21.2870  -13.2620   22.0490 H   0  0  0  0  0  0  0  0  0  0  0  0
  -25.6250  -15.2220   20.1600 N   0  0  0  0  0  0  0  0  0  0  0  0
  -24.8480  -15.8690   20.2220 H   0  0  0  0  0  0  0  0  0  0  0  0
  -26.4420  -15.6240   19.7220 H   0  0  0  0  0  0  0  0  0  0  0  0
  -29.7340  -21.6670   20.4350 O   0  0  0  0  0  0  0  0  0  0  0  0
  -29.0150  -22.7410   19.7770 C   0  0  0  0  0  2  0  0  0  0  0  0
  -29.3910  -24.2120   20.1460 C   0  0  0  0  0  2  0  0  0  0  0  0
  -28.2500  -25.1790   19.7090 C   0  0  0  0  0  2  0  0  0  0  0  0
  -28.4040  -26.6070   19.9130 O   0  0  0  0  0  0  0  0  0  0  0  0
  -24.4310  -31.6290   23.0600 C   0  0  0  0  0  0  0  0  0  0  0  0
  -27.2280  -27.3520   19.8610 C   0  0  0  0  0  0  0  0  0  0  0  0
  -23.2760  -30.2420   21.3710 C   0  0  0  0  0  3  0  0  0  0  0  0
  -24.7870  -28.8120   19.8950 C   0  0  0  0  0  0  0  0  0  0  0  0
  -25.7940  -30.6900   21.1940 C   0  0  0  0  0  2  0  0  0  0  0  0
  -25.9290  -29.3450   20.5050 C   0  0  0  0  0  0  0  0  0  0  0  0
  -27.1520  -28.6260   20.4810 C   0  0  0  0  0  3  0  0  0  0  0  0
  -26.0610  -26.8560   19.2260 C   0  0  0  0  0  3  0  0  0  0  0  0
  -24.8500  -27.5680   19.2510 C   0  0  0  0  0  3  0  0  0  0  0  0
  -23.5130  -29.6240   19.9700 C   0  0  0  0  0  2  0  0  0  0  0  0
  -24.5190  -30.8660   21.9340 N   0  0  0  0  0  0  0  0  0  0  0  0
  -23.3400  -31.8460   23.6060 O   0  0  0  0  0  0  0  0  0  0  0  0
  -22.6620  -29.1640   22.2950 C   0  0  0  0  0  0  0  0  0  0  0  0
  -21.3390  -28.9570   22.1790 N   0  0  0  0  0  0  0  0  0  0  0  0
  -23.3700  -28.5210   23.0740 O   0  0  0  0  0  0  0  0  0  0  0  0
  -20.8280  -29.5320   21.5250 H   0  0  0  0  0  0  0  0  0  0  0  0
  -17.9950  -27.6870   22.6880 C   0  0  0  0  0  0  0  0  0  0  0  0
  -20.5550  -27.9690   22.9200 C   0  0  0  0  0  3  0  0  0  0  0  0
  -20.6650  -26.5690   22.2730 C   0  0  0  0  0  2  0  0  0  0  0  0
  -19.5470  -26.2790   21.2670 C   0  0  0  0  0  2  0  0  0  0  0  0
  -18.1770  -26.3740   21.9450 C   0  0  0  0  0  2  0  0  0  0  0  0
  -19.1120  -28.4430   23.1330 C   0  0  0  0  0  0  0  0  0  0  0  0
  -18.8880  -29.6750   23.7860 C   0  0  0  0  0  3  0  0  0  0  0  0
  -17.5810  -30.1480   24.0020 C   0  0  0  0  0  3  0  0  0  0  0  0
  -16.4790  -29.3870   23.5760 C   0  0  0  0  0  3  0  0  0  0  0  0
  -16.6870  -28.1580   22.9250 C   0  0  0  0  0  3  0  0  0  0  0  0
  -25.6920  -32.2860   23.7010 C   0  0  0  0  0  3  0  0  0  0  0  0
  -26.2270  -31.5030   24.9630 C   0  0  1  0  0  0  0  0  0  0  0  0
  -25.1400  -31.2220   26.0260 C   0  0  0  0  0  1  0  0  0  0  0  0
  -26.8430  -30.1480   24.5460 C   0  0  0  0  0  1  0  0  0  0  0  0
  -27.3560  -32.3150   25.6420 C   0  0  0  0  0  1  0  0  0  0  0  0
  -25.3400  -33.6660   24.0550 N   0  0  0  0  0  0  0  0  0  0  0  0
  -25.6400  -34.7420   23.3140 C   0  0  0  0  0  0  0  0  0  0  0  0
  -26.3120  -34.6760   22.2810 O   0  0  0  0  0  0  0  0  0  0  0  0
  -24.7420  -33.7890   24.8580 H   0  0  0  0  0  0  0  0  0  0  0  0
  -23.8490  -36.4790   22.9950 C   0  0  0  0  0  1  0  0  0  0  0  0
  -25.1080  -36.1050   23.7950 C   0  0  0  0  0  3  0  0  0  0  0  0
  -27.2120  -37.0510   24.6350 C   0  0  0  0  0  1  0  0  0  0  0  0
  -26.1030  -37.1940   23.6930 N   0  0  0  0  0  0  0  0  0  0  0  0
  -25.6680  -38.0970   23.8530 H   0  0  0  0  0  0  0  0  0  0  0  0
  1  2  1  0
  2  5  2  0
  3  1  2  0
  3  6  1  0
  4  5  1  0
  5 15  1  0
  6  4  2  0
  8 13  1  0
  9 10  1  0
  9  8  1  0
 11 10  1  0
 11 22  1  0
 11 12  1  0
 13  7  1  0
 13 12  1  0
 14  7  2  0
 15 18  2  0
 16 17  1  0
 17  7  1  0
 17 15  1  0
 19 20  2  0
 20 39  1  0
 21 20  1  0
 21 24  1  0
 22 19  1  0
 22 23  1  0
 23 21  2  0
 24 25  1  0
 25 26  2  0
 27 30  1  0
 27 26  1  0
 28 27  2  0
 29 28  1  0
 29 24  2  0
 30 31  1  0
 31 36  2  0
 31 32  1  0
 32 33  2  0
 33 34  1  0
 34 38  1  0
 35 34  2  0
 36 35  1  0
 37 36  1  0
 39 40  1  0
 40 43  1  0
 40 42  1  0
 41 39  2  0
 44 45  1  0
 44 19  1  0
 46 44  1  0
 47  6  1  0
 48 49  1  0
 48 47  1  0
 50 51  1  0
 50 49  1  0
 52 63  2  0
 53 51  1  0
 53 58  1  0
 54 62  1  0
 54 64  1  0
 55 61  1  0
 55 57  1  0
 56 62  1  0
 57 56  1  0
 58 57  2  0
 59 60  1  0
 59 53  2  0
 60 55  2  0
 61 54  1  0
 62 52  1  0
 64 66  2  0
 65 64  1  0
 67 65  1  0
 68 77  2  0
 68 73  1  0
 69 65  1  0
 69 73  1  0
 70 69  1  0
 71 72  1  0
 71 70  1  0
 72 68  1  0
 73 74  2  0
 74 75  1  0
 76 75  2  0
 77 76  1  0
 78 52  1  0
 78 83  1  0
 78 79  1  0
 79 82  1  1
 79 80  1  0
 81 79  1  0
 83 86  1  0
 84 88  1  0
 84 83  1  0
 85 84  2  0
 88 87  1  0
 90 88  1  0
 90 91  1  0
 90 89  1  0
M  ISO  4   7 100  17 100  50 101  51 101
M  END
>  <TORSDO>  (30) 
F 20

>  <SCORE>  (30) 
-12.349

>  <name>  (30) 
29

>  <ligand_id>  (30) 
29

>  <original_smiles>  (30) 
[H]c1c([H])c(OC([H])([H])C([H])([H])C([H])([H])Oc2c([H])c([H])c3c(c2[H])C([H])([H])N(C(=O)C([H])(N([H])C(=O)C([H])(N([H])C([H])([H])[H])C([H])([H])[H])C(C([H])([H])[H])(C([H])([H])[H])C([H])([H])[H])C([H])(C(=O)N([H])C2([H])c4c([H])c([H])c([H])c([H])c4C([H])([H])C([H])([H])C2([H])[H])C3([H])[H])c([H])c(C(=O)N(C(=O)N2C([H])([H])C([H])([H])C([H])([H])C([H])(n3nc(-c4c([H])c([H])c(Oc5c([H])c([H])c(F)c([H])c5F)c([H])c4[H])c(C(=O)N([H])[H])c3N([H])[H])C2([H])[H])C([H])([H])[H])c1[H]

>  <smiles>  (30) 
[H]c1c([H])c(OC([H])([H])C([H])([H])C([H])([H])Oc2c([H])c([H])c3c(c2[H])C([H])([H])N(C(=O)C([H])(N([H])C(=O)C([H])(N([H])C([H])([H])[H])C([H])([H])[H])C(C([H])([H])[H])(C([H])([H])[H])C([H])([H])[H])C([H])(C(=O)N([H])C2([H])c4c([H])c([H])c([H])c([H])c4C([H])([H])C([H])([H])C2([H])[H])C3([H])[H])c([H])c(C(=O)N(C(=O)N2C([H])([H])C([H])([H])C([H])([H])C([H])(n3nc(-c4c([H])c([H])c(Oc5c([H])c([H])c(F)c([H])c5F)c([H])c4[H])c(C(=O)N([H])[H])c3N([H])[H])C2([H])[H])C([H])([H])[H])c1[H]

$$$$
30:0:0
     RDKit          3D

 95 98  0  0  1  0  0  0  0  0999 V2000
  -23.8610  -15.0780   19.8200 C   0  0  0  0  0  0  0  0  0  0  0  0
  -26.1830  -15.4720   19.7120 C   0  0  0  0  0  2  0  0  0  0  0  0
  -23.9660  -16.7060   20.0820 C   0  0  0  0  0  2  0  0  0  0  0  0
  -25.1500  -17.7920   19.6380 C   0  0  0  0  0  2  0  0  0  0  0  0
  -26.7150  -17.6590   19.9970 C   0  0  0  0  0  1  0  0  0  0  0  0
  -24.9110  -14.1620   19.8980 N   0  0  0  0  0  2  0  0  0  0  0  0
  -22.7280  -14.6430   19.5850 O   0  0  0  0  0  0  0  0  0  0  0  0
  -27.0630  -15.0370   18.9640 O   0  0  0  0  0  1  0  0  0  0  0  0
  -25.7690   -9.5160   19.2660 C   0  0  0  0  0  3  0  0  0  0  0  0
  -24.6390  -10.9330   19.2360 C   0  0  0  0  0  3  0  0  0  0  0  0
  -26.7470   -9.0520   20.7460 C   0  0  0  0  0  2  0  0  0  0  0  0
  -25.1810  -11.1190   22.4470 C   0  0  0  0  0  1  0  0  0  0  0  0
  -24.3450  -12.0750   20.5880 C   0  0  0  0  0  1  0  0  0  0  0  0
  -26.7550   -9.9810   22.3400 C   0  0  0  0  0  3  0  0  0  0  0  0
  -30.0060  -10.9230   22.4330 C   0  0  0  0  0  0  0  0  0  0  0  0
  -31.6040  -10.1510   20.3910 C   0  0  0  0  0  3  0  0  0  0  0  0
  -31.0640  -10.3740   18.8680 C   0  0  0  0  0  3  0  0  0  0  0  0
  -29.5740  -10.8650   18.7100 C   0  0  0  0  0  2  0  0  0  0  0  0
  -29.2710  -11.3850   20.0750 C   0  0  0  0  0  3  0  0  0  0  0  0
  -29.4630   -9.9620   20.7600 C   0  0  0  0  0  2  0  0  0  0  0  0
  -30.5430  -10.1180   21.4750 N   0  0  0  0  0  0  0  0  0  0  0  0
  -30.9660  -11.8030   22.5350 O   0  0  0  0  0  0  0  0  0  0  0  0
  -28.4110  -10.6420   22.9150 N   0  0  0  0  0  0  0  0  0  0  0  0
  -27.5990  -13.0850   21.1910 C   0  0  0  0  0  0  0  0  0  0  0  0
  -26.4210  -12.8220   21.6130 C   0  0  0  0  0  0  0  0  0  0  0  0
  -26.3730  -11.4670   20.7690 C   0  0  0  0  0  2  0  0  0  0  0  0
  -28.0880  -12.0250   20.4530 N   0  0  0  0  0  0  0  0  0  0  0  0
  -27.2430  -11.4480   19.8760 N   0  0  0  0  0  2  0  0  0  0  0  0
  -24.5140   -9.4720   21.3470 C   0  0  0  0  0  3  0  0  0  0  0  0
  -24.6870   -8.3980   22.4230 C   0  0  0  0  0  3  0  0  0  0  0  0
  -23.9320   -7.2370   22.7370 C   0  0  0  0  0  3  0  0  0  0  0  0
  -22.7750   -6.9830   22.0060 C   0  0  0  0  0  0  0  0  0  0  0  0
  -22.4500   -7.9460   21.0400 C   0  0  0  0  0  3  0  0  0  0  0  0
  -23.2260   -9.1090   20.7790 C   0  0  0  0  0  3  0  0  0  0  0  0
  -21.9710   -5.8680   22.1320 O   0  0  0  0  0  0  0  0  0  0  0  0
  -21.8390   -5.1380   23.2930 C   0  0  0  0  0  0  0  0  0  0  0  0
  -21.2780   -5.6840   24.4700 C   0  0  0  0  0  3  0  0  0  0  0  0
  -21.0750   -4.8690   25.6050 C   0  0  0  0  0  3  0  0  0  0  0  0
  -21.4160   -3.5020   25.5670 C   0  0  0  0  0  0  0  0  0  0  0  0
  -21.9610   -2.9510   24.3940 C   0  0  0  0  0  3  0  0  0  0  0  0
  -22.1670   -3.7630   23.2640 C   0  0  0  0  0  0  0  0  0  0  0  0
  -22.6670   -3.2120   22.1320 F   0  0  0  0  0  0  0  0  0  0  0  0
  -21.2150   -2.7180   26.6530 F   0  0  0  0  0  0  0  0  0  0  0  0
  -25.2420  -13.6340   22.6720 C   0  0  0  0  0  0  0  0  0  0  0  0
  -23.8710  -13.3500   22.9160 N   0  0  0  0  0  0  0  0  0  0  0  0
  -25.2020  -14.8080   22.8140 O   0  0  0  0  0  0  0  0  0  0  0  0
  -23.4740  -12.4820   22.5860 H   0  0  0  0  0  0  0  0  0  0  0  0
  -23.2910  -14.0250   23.3930 H   0  0  0  0  0  0  0  0  0  0  0  0
  -28.2460  -14.1940   21.4530 N   0  0  0  0  0  0  0  0  0  0  0  0
  -27.8710  -14.9540   22.0030 H   0  0  0  0  0  0  0  0  0  0  0  0
  -29.1940  -14.3690   21.1400 H   0  0  0  0  0  0  0  0  0  0  0  0
  -28.9800  -10.9500   25.4200 C   0  0  0  0  0  1  0  0  0  0  0  0
  -28.1440  -11.3530   24.1830 C   0  0  0  0  0  2  0  0  0  0  0  0
  -27.9790  -19.8760   19.7010 C   0  0  0  0  0 15  0  0  0  0  0  0
  -29.2190  -21.7580   20.0440 O   0  0  0  0  0  1  0  0  0  0  0  0
  -28.2530  -29.4950   23.3810 C   0  0  0  0  0  0  0  0  0  0  0  0
  -29.3390  -23.5460   20.1340 C   0  0  0  0  0  0  0  0  0  0  0  0
  -27.0960  -28.3980   21.5460 C   0  0  0  0  0  3  0  0  0  0  0  0
  -28.3200  -26.5830   20.0680 C   0  0  0  0  0  0  0  0  0  0  0  0
  -29.5790  -27.7700   21.8120 C   0  0  0  0  0  2  0  0  0  0  0  0
  -29.3380  -26.3580   20.9780 C   0  0  0  0  0  0  0  0  0  0  0  0
  -29.8480  -24.8640   20.9860 C   0  0  0  0  0  3  0  0  0  0  0  0
  -28.6940  -24.2640   19.1060 C   0  0  0  0  0  3  0  0  0  0  0  0
  -28.1450  -25.5880   19.1010 C   0  0  0  0  0  3  0  0  0  0  0  0
  -27.4110  -27.8300   20.1280 C   0  0  0  0  0  2  0  0  0  0  0  0
  -28.3650  -28.6180   22.2980 N   0  0  0  0  0  0  0  0  0  0  0  0
  -27.1490  -29.9430   23.7550 O   0  0  0  0  0  0  0  0  0  0  0  0
  -26.1450  -27.4620   22.3450 C   0  0  0  0  0  0  0  0  0  0  0  0
  -24.8440  -27.4160   22.0050 N   0  0  0  0  0  0  0  0  0  0  0  0
  -26.5960  -26.7900   23.2760 O   0  0  0  0  0  0  0  0  0  0  0  0
  -24.5210  -28.0110   21.2550 H   0  0  0  0  0  0  0  0  0  0  0  0
  -21.3530  -26.4100   21.9470 C   0  0  0  0  0  0  0  0  0  0  0  0
  -23.8490  -26.5230   22.6140 C   0  0  0  0  0  3  0  0  0  0  0  0
  -23.9590  -25.0950   22.0310 C   0  0  0  0  0  2  0  0  0  0  0  0
  -23.0240  -24.8600   20.8420 C   0  0  0  0  0  2  0  0  0  0  0  0
  -21.5660  -25.0710   21.2590 C   0  0  0  0  0  2  0  0  0  0  0  0
  -22.4280  -27.0990   22.5680 C   0  0  0  0  0  0  0  0  0  0  0  0
  -22.1800  -28.3520   23.1720 C   0  0  0  0  0  3  0  0  0  0  0  0
  -20.8900  -28.9160   23.1560 C   0  0  0  0  0  3  0  0  0  0  0  0
  -19.8290  -28.2240   22.5460 C   0  0  0  0  0  3  0  0  0  0  0  0
  -20.0590  -26.9720   21.9510 C   0  0  0  0  0  3  0  0  0  0  0  0
  -29.4710  -30.0050   24.2160 C   0  0  0  0  0  3  0  0  0  0  0  0
  -29.8800  -29.0160   25.3790 C   0  0  1  0  0  0  0  0  0  0  0  0
  -28.7090  -28.6160   26.3090 C   0  0  0  0  0  1  0  0  0  0  0  0
  -30.4840  -27.7140   24.8250 C   0  0  0  0  0  1  0  0  0  0  0  0
  -30.9850  -29.6580   26.2530 C   0  0  0  0  0  1  0  0  0  0  0  0
  -29.1260  -31.3200   24.8230 N   0  0  0  0  0  0  0  0  0  0  0  0
  -29.4960  -32.5290   24.3750 C   0  0  0  0  0  0  0  0  0  0  0  0
  -30.2070  -32.6670   23.3780 O   0  0  0  0  0  0  0  0  0  0  0  0
  -28.4990  -31.2880   25.6140 H   0  0  0  0  0  0  0  0  0  0  0  0
  -27.7530  -34.3600   24.4690 C   0  0  0  0  0  1  0  0  0  0  0  0
  -29.0100  -33.7830   25.1440 C   0  0  0  0  0  3  0  0  0  0  0  0
  -31.1390  -34.5080   26.1410 C   0  0  0  0  0  1  0  0  0  0  0  0
  -30.0320  -34.8520   25.2550 N   0  0  0  0  0  0  0  0  0  0  0  0
  -29.6140  -35.7150   25.5900 H   0  0  0  0  0  0  0  0  0  0  0  0
  1  6  1  0
  1  3  1  0
  2  6  1  0
  4  5  1  0
  4  3  1  0
  7  1  2  0
  8  2  1  0
  9 11  1  0
 10  9  2  0
 10 13  1  0
 11 14  1  0
 14 12  1  0
 14 23  1  0
 15 22  2  0
 15 23  1  0
 16 21  1  0
 17 16  2  0
 18 17  1  0
 19 18  1  0
 19 27  1  0
 19 20  1  0
 20 21  1  0
 21 15  1  0
 23 53  1  0
 24 49  1  0
 24 25  2  0
 25 44  1  0
 26 25  1  0
 27 24  1  0
 28 27  1  0
 28 26  1  0
 29 30  1  0
 30 31  2  0
 32 35  1  0
 32 31  1  0
 33 32  2  0
 34 33  1  0
 34 29  2  0
 35 36  1  0
 36 37  1  0
 37 38  2  0
 39 38  1  0
 39 43  1  0
 40 39  2  0
 41 36  2  0
 41 40  1  0
 42 41  1  0
 44 46  2  0
 44 45  1  0
 45 48  1  0
 47 45  1  0
 49 50  1  0
 51 49  1  0
 53 52  1  0
 55 57  1  0
 56 67  2  0
 57 62  1  0
 58 66  1  0
 58 68  1  0
 59 65  1  0
 59 61  1  0
 60 66  1  0
 61 62  2  0
 61 60  1  0
 63 57  2  0
 64 63  1  0
 64 59  2  0
 65 58  1  0
 66 56  1  0
 68 70  2  0
 69 68  1  0
 71 69  1  0
 72 81  2  0
 72 77  1  0
 73 69  1  0
 74 73  1  0
 75 76  1  0
 75 74  1  0
 76 72  1  0
 77 73  1  0
 77 78  2  0
 79 78  1  0
 80 79  2  0
 81 80  1  0
 82 56  1  0
 82 87  1  0
 82 83  1  0
 83 86  1  1
 83 84  1  0
 85 83  1  0
 87 90  1  0
 88 87  1  0
 88 92  1  0
 89 88  2  0
 92 91  1  0
 92 94  1  0
 94 95  1  0
 94 93  1  0
M  ISO  4  15 100  23 100  54 101  55 101
M  END
>  <TORSDO>  (31) 
F 19

>  <SCORE>  (31) 
6.010

>  <name>  (31) 
30

>  <ligand_id>  (31) 
30

>  <original_smiles>  (31) 
[H]c1c([H])c(N2C(=O)C([H])([H])C([H])([H])C([H])(C([H])([H])Oc3c([H])c([H])c4c(c3[H])C([H])([H])N(C(=O)C([H])(N([H])C(=O)C([H])(N([H])C([H])([H])[H])C([H])([H])[H])C(C([H])([H])[H])(C([H])([H])[H])C([H])([H])[H])C([H])(C(=O)N([H])C3([H])c5c([H])c([H])c([H])c([H])c5C([H])([H])C([H])([H])C3([H])[H])C4([H])[H])C2=O)c([H])c(N(C(=O)N2C([H])([H])C([H])([H])C([H])([H])C([H])(n3nc(-c4c([H])c([H])c(Oc5c([H])c([H])c(F)c([H])c5F)c([H])c4[H])c(C(=O)N([H])[H])c3N([H])[H])C2([H])[H])C([H])([H])C([H])([H])[H])c1[H]

>  <smiles>  (31) 
[H]c1c([H])c(N2C(=O)C([H])([H])C([H])([H])C([H])(C([H])([H])Oc3c([H])c([H])c4c(c3[H])C([H])([H])N(C(=O)C([H])(N([H])C(=O)C([H])(N([H])C([H])([H])[H])C([H])([H])[H])C(C([H])([H])[H])(C([H])([H])[H])C([H])([H])[H])C([H])(C(=O)N([H])C3([H])c5c([H])c([H])c([H])c([H])c5C([H])([H])C([H])([H])C3([H])[H])C4([H])[H])C2=O)c([H])c(N(C(=O)N2C([H])([H])C([H])([H])C([H])([H])C([H])(n3nc(-c4c([H])c([H])c(Oc5c([H])c([H])c(F)c([H])c5F)c([H])c4[H])c(C(=O)N([H])[H])c3N([H])[H])C2([H])[H])C([H])([H])C([H])([H])[H])c1[H]

$$$$
31:0:0
     RDKit          3D

 91 99  0  0  1  0  0  0  0  0999 V2000
  -28.5660  -20.3230   20.1970 C   0  0  0  0  0  2  0  0  0  0  0  0
  -29.7320  -19.3780   20.3480 C   0  0  0  0  0  0  0  0  0  0  0  0
  -28.8190  -21.7370   20.3990 C   0  0  0  0  0  0  0  0  0  0  0  0
  -30.6260  -20.4020   20.6880 C   0  0  0  0  0  0  0  0  0  0  0  0
  -30.1450  -21.7240   20.7040 O   0  0  0  0  0  0  0  0  0  0  0  0
  -30.4790  -15.1510   20.2430 C   0  0  0  0  0  0  0  0  0  0  0  0
  -30.3370  -12.7430   19.3690 C   0  0  0  0  0  2  0  0  0  0  0  0
  -29.3980  -12.6150   18.1470 C   0  0  0  0  0  2  0  0  0  0  0  0
  -27.9530  -12.3730   18.6080 C   0  0  0  0  0  2  0  0  0  0  0  0
  -27.5400  -13.3230   19.7620 C   0  0  0  0  0  3  0  0  0  0  0  0
  -28.6110  -13.4370   20.8690 C   0  0  0  0  0  2  0  0  0  0  0  0
  -29.8520  -13.8850   20.2220 N   0  0  0  0  0  0  0  0  0  0  0  0
  -31.6840  -15.0840   19.9660 O   0  0  0  0  0  0  0  0  0  0  0  0
  -30.2700  -17.7950   20.1050 C   0  0  0  0  0  0  0  0  0  0  0  0
  -29.7990  -16.4430   20.3870 N   0  0  0  0  0  0  0  0  0  0  0  0
  -31.3680  -17.8100   19.5400 O   0  0  0  0  0  0  0  0  0  0  0  0
  -28.8500  -16.3950   20.7190 H   0  0  0  0  0  0  0  0  0  0  0  0
  -25.1820  -13.8750   20.5660 C   0  0  0  0  0  0  0  0  0  0  0  0
  -24.1290  -13.0930   20.9470 C   0  0  0  0  0  0  0  0  0  0  0  0
  -24.5960  -11.7430   20.8930 C   0  0  0  0  0  0  0  0  0  0  0  0
  -26.2210  -13.0040   20.2920 N   0  0  0  0  0  0  0  0  0  0  0  0
  -25.8810  -11.7150   20.5580 N   0  0  0  0  0  0  0  0  0  0  0  0
  -23.8730  -10.4780   21.0820 C   0  0  0  0  0  0  0  0  0  0  0  0
  -24.3230   -9.4980   21.9940 C   0  0  0  0  0  3  0  0  0  0  0  0
  -23.5990   -8.3010   22.1740 C   0  0  0  0  0  3  0  0  0  0  0  0
  -22.4080   -8.0740   21.4440 C   0  0  0  0  0  0  0  0  0  0  0  0
  -21.9760   -9.0430   20.5210 C   0  0  0  0  0  3  0  0  0  0  0  0
  -22.7010  -10.2330   20.3390 C   0  0  0  0  0  3  0  0  0  0  0  0
  -21.6520   -6.9300   21.5350 O   0  0  0  0  0  0  0  0  0  0  0  0
  -21.6280   -6.1720   22.6790 C   0  0  0  0  0  0  0  0  0  0  0  0
  -21.2250   -6.7100   23.9200 C   0  0  0  0  0  3  0  0  0  0  0  0
  -21.1490   -5.8780   25.0570 C   0  0  0  0  0  3  0  0  0  0  0  0
  -21.4650   -4.5110   24.9510 C   0  0  0  0  0  0  0  0  0  0  0  0
  -21.8610   -3.9730   23.7140 C   0  0  0  0  0  3  0  0  0  0  0  0
  -21.9390   -4.8000   22.5800 C   0  0  0  0  0  0  0  0  0  0  0  0
  -22.3000   -4.2730   21.3860 F   0  0  0  0  0  0  0  0  0  0  0  0
  -21.3850   -3.7100   26.0390 F   0  0  0  0  0  0  0  0  0  0  0  0
  -22.7360  -13.5660   21.2460 C   0  0  0  0  0  0  0  0  0  0  0  0
  -22.0260  -12.8660   22.1230 N   0  0  0  0  0  0  0  0  0  0  0  0
  -22.2880  -14.5930   20.7370 O   0  0  0  0  0  0  0  0  0  0  0  0
  -22.4030  -12.0360   22.5570 H   0  0  0  0  0  0  0  0  0  0  0  0
  -21.0920  -13.1640   22.3660 H   0  0  0  0  0  0  0  0  0  0  0  0
  -25.3390  -15.2480   20.3980 N   0  0  0  0  0  0  0  0  0  0  0  0
  -24.5700  -15.8970   20.5220 H   0  0  0  0  0  0  0  0  0  0  0  0
  -26.1700  -15.6880   20.0230 H   0  0  0  0  0  0  0  0  0  0  0  0
  -32.8160  -21.4060   21.2390 C   0  0  0  0  0  1  0  0  0  0  0  0
  -31.9760  -20.2400   21.0030 N   0  0  0  0  0  0  0  0  0  0  0  0
  -32.4420  -19.3590   20.7830 H   0  0  0  0  0  0  0  0  0  0  0  0
  -27.9750  -23.0820   20.4120 C   0  0  0  0  0  0  0  0  0  0  0  0
  -27.6540  -24.5110   20.4070 C   0  0  0  0  0  3  0  0  0  0  0  0
  -28.1400  -25.9310   20.3130 O   0  0  0  0  0  0  0  0  0  0  0  0
  -24.6640  -31.8970   23.2350 C   0  0  0  0  0  0  0  0  0  0  0  0
  -27.1800  -27.0510   20.2340 C   0  0  0  0  0  0  0  0  0  0  0  0
  -23.4560  -30.5030   21.6060 C   0  0  0  0  0  3  0  0  0  0  0  0
  -24.8930  -28.9060   20.1810 C   0  0  0  0  0  0  0  0  0  0  0  0
  -26.0210  -30.7120   21.4550 C   0  0  0  0  0  2  0  0  0  0  0  0
  -26.0800  -29.3080   20.8090 C   0  0  0  0  0  0  0  0  0  0  0  0
  -27.2180  -28.3940   20.8280 C   0  0  0  0  0  3  0  0  0  0  0  0
  -25.9830  -26.8140   19.5150 C   0  0  0  0  0  3  0  0  0  0  0  0
  -24.8660  -27.6760   19.5140 C   0  0  0  0  0  3  0  0  0  0  0  0
  -23.6770  -29.8230   20.2300 C   0  0  0  0  0  2  0  0  0  0  0  0
  -24.7350  -31.0630   22.1520 N   0  0  0  0  0  0  0  0  0  0  0  0
  -23.5790  -32.1960   23.7590 O   0  0  0  0  0  0  0  0  0  0  0  0
  -22.7650  -29.5070   22.5740 C   0  0  0  0  0  0  0  0  0  0  0  0
  -21.4340  -29.3470   22.4500 N   0  0  0  0  0  0  0  0  0  0  0  0
  -23.4290  -28.8820   23.4040 O   0  0  0  0  0  0  0  0  0  0  0  0
  -20.9520  -29.9020   21.7570 H   0  0  0  0  0  0  0  0  0  0  0  0
  -18.0470  -28.1580   22.9630 C   0  0  0  0  0  0  0  0  0  0  0  0
  -20.6070  -28.4190   23.2290 C   0  0  0  0  0  3  0  0  0  0  0  0
  -20.7060  -26.9810   22.6690 C   0  0  0  0  0  2  0  0  0  0  0  0
  -19.6040  -26.6520   21.6560 C   0  0  0  0  0  2  0  0  0  0  0  0
  -18.2210  -26.8040   22.2970 C   0  0  0  0  0  2  0  0  0  0  0  0
  -19.1660  -28.9230   23.3860 C   0  0  0  0  0  0  0  0  0  0  0  0
  -18.9470  -30.1880   23.9730 C   0  0  0  0  0  3  0  0  0  0  0  0
  -17.6420  -30.6910   24.1380 C   0  0  0  0  0  3  0  0  0  0  0  0
  -16.5370  -29.9230   23.7280 C   0  0  0  0  0  3  0  0  0  0  0  0
  -16.7410  -28.6580   23.1470 C   0  0  0  0  0  3  0  0  0  0  0  0
  -25.9440  -32.5320   23.8580 C   0  0  0  0  0  3  0  0  0  0  0  0
  -25.6340  -33.9310   24.1950 N   0  0  0  0  0  0  0  0  0  0  0  0
  -25.9470  -34.9910   23.4380 C   0  0  0  0  0  0  0  0  0  0  0  0
  -26.5930  -34.8920   22.3900 O   0  0  0  0  0  0  0  0  0  0  0  0
  -25.0570  -34.0800   25.0100 H   0  0  0  0  0  0  0  0  0  0  0  0
  -24.2020  -36.7830   23.1480 C   0  0  0  0  0  1  0  0  0  0  0  0
  -25.4720  -36.3780   23.9140 C   0  0  0  0  0  3  0  0  0  0  0  0
  -27.6300  -37.2730   24.6740 C   0  0  0  0  0  1  0  0  0  0  0  0
  -26.4960  -37.4350   23.7670 N   0  0  0  0  0  0  0  0  0  0  0  0
  -26.0920  -38.3550   23.9260 H   0  0  0  0  0  0  0  0  0  0  0  0
  -26.4560  -31.7620   25.1380 C   0  0  1  0  0  0  0  0  0  0  0  0
  -25.3620  -31.5340   26.2070 C   0  0  0  0  0  1  0  0  0  0  0  0
  -27.0330  -30.3790   24.7590 C   0  0  0  0  0  1  0  0  0  0  0  0
  -27.6100  -32.5540   25.7980 C   0  0  0  0  0  1  0  0  0  0  0  0
  1  2  1  0
  1  3  1  0
  2  4  2  0
  3 49  2  0
  3  5  1  0
  4  5  1  0
  4 47  1  0
  6 15  1  0
  7 12  1  0
  8  9  1  0
  8  7  1  0
 10  9  1  0
 10 21  1  0
 10 11  1  0
 12  6  1  0
 12 11  1  0
 13  6  2  0
 14  2  1  0
 14 15  1  0
 15 17  1  0
 16 14  2  0
 18 19  2  0
 19 38  1  0
 20 19  1  0
 20 23  1  0
 21 22  1  0
 21 18  1  0
 22 20  2  0
 23 24  1  0
 24 25  2  0
 26 29  1  0
 26 25  1  0
 27 26  2  0
 28 27  1  0
 28 23  2  0
 29 30  1  0
 30 31  1  0
 31 32  2  0
 33 32  1  0
 33 37  1  0
 34 33  2  0
 35 30  2  0
 35 34  1  0
 36 35  1  0
 38 39  1  0
 39 42  1  0
 39 41  1  0
 40 38  2  0
 43 44  1  0
 43 18  1  0
 45 43  1  0
 47 46  1  0
 48 47  1  0
 50 49  2  0
 51 50  1  0
 52 63  2  0
 53 51  1  0
 53 58  1  0
 54 62  1  0
 54 64  1  0
 55 61  1  0
 55 57  1  0
 56 62  1  0
 57 58  2  0
 57 56  1  0
 59 53  2  0
 60 59  1  0
 60 55  2  0
 61 54  1  0
 62 52  1  0
 64 66  2  0
 65 64  1  0
 67 65  1  0
 68 77  2  0
 68 73  1  0
 69 65  1  0
 69 73  1  0
 70 69  1  0
 71 72  1  0
 71 70  1  0
 72 68  1  0
 73 74  2  0
 74 75  1  0
 76 75  2  0
 77 76  1  0
 78 52  1  0
 78 79  1  0
 78 88  1  0
 79 82  1  0
 80 84  1  0
 80 79  1  0
 81 80  2  0
 84 83  1  0
 86 84  1  0
 86 87  1  0
 86 85  1  0
 88 91  1  1
 88 89  1  0
 90 88  1  0
M  ISO  4   6 100  15 100  50 101  51 101
M  END
>  <TORSDO>  (32) 
F 18

>  <SCORE>  (32) 
-14.635

>  <name>  (32) 
31

>  <ligand_id>  (32) 
31

>  <original_smiles>  (32) 
[H]C(Oc1c([H])c([H])c2c(c1[H])C([H])([H])N(C(=O)C([H])(N([H])C(=O)C([H])(N([H])C([H])([H])[H])C([H])([H])[H])C(C([H])([H])[H])(C([H])([H])[H])C([H])([H])[H])C([H])(C(=O)N([H])C1([H])c3c([H])c([H])c([H])c([H])c3C([H])([H])C([H])([H])C1([H])[H])C2([H])[H])=C([H])c1oc(N([H])C([H])([H])[H])c(C(=O)N([H])C(=O)N2C([H])([H])C([H])([H])C([H])([H])C([H])(n3nc(-c4c([H])c([H])c(Oc5c([H])c([H])c(F)c([H])c5F)c([H])c4[H])c(C(=O)N([H])[H])c3N([H])[H])C2([H])[H])c1[H]

>  <smiles>  (32) 
[H]C(Oc1c([H])c([H])c2c(c1[H])C([H])([H])N(C(=O)C([H])(N([H])C(=O)C([H])(N([H])C([H])([H])[H])C([H])([H])[H])C(C([H])([H])[H])(C([H])([H])[H])C([H])([H])[H])C([H])(C(=O)N([H])C1([H])c3c([H])c([H])c([H])c([H])c3C([H])([H])C([H])([H])C1([H])[H])C2([H])[H])=C([H])c1oc(N([H])C([H])([H])[H])c(C(=O)N([H])C(=O)N2C([H])([H])C([H])([H])C([H])([H])C([H])(n3nc(-c4c([H])c([H])c(Oc5c([H])c([H])c(F)c([H])c5F)c([H])c4[H])c(C(=O)N([H])[H])c3N([H])[H])C2([H])[H])c1[H]

$$$$
32:0:0
     RDKit          3D

 94102  0  0  1  0  0  0  0  0999 V2000
  -30.5230  -16.6240   21.3790 C   0  0  0  0  0  3  0  0  0  0  0  0
  -30.1490  -19.0480   21.4750 C   0  0  0  0  0  3  0  0  0  0  0  0
  -30.3020  -17.8010   22.1260 C   0  0  0  0  0  0  0  0  0  0  0  0
  -30.5520  -16.6760   19.9710 C   0  0  0  0  0  0  0  0  0  0  0  0
  -30.1480  -19.1350   20.0610 C   0  0  0  0  0  0  0  0  0  0  0  0
  -30.3300  -17.9270   19.3270 C   0  0  0  0  0  0  0  0  0  0  0  0
  -30.2840  -17.9610   17.9740 F   0  0  0  0  0  0  0  0  0  0  0  0
  -31.4430  -14.4010   19.4020 C   0  0  0  0  0  0  0  0  0  0  0  0
  -30.9010  -12.2130   18.4210 C   0  0  0  0  0  2  0  0  0  0  0  0
  -29.8070  -12.4290   17.3510 C   0  0  0  0  0  2  0  0  0  0  0  0
  -28.3980  -12.4280   17.9830 C   0  0  0  0  0  2  0  0  0  0  0  0
  -28.2920  -13.3200   19.2500 C   0  0  0  0  0  3  0  0  0  0  0  0
  -29.4800  -13.0550   20.2040 C   0  0  0  0  0  2  0  0  0  0  0  0
  -30.7160  -13.2520   19.4390 N   0  0  0  0  0  0  0  0  0  0  0  0
  -32.6140  -14.4320   19.0230 O   0  0  0  0  0  0  0  0  0  0  0  0
  -30.6820  -15.4960   19.1740 N   0  0  0  0  0  0  0  0  0  0  0  0
  -30.6980  -15.7320   18.1920 H   0  0  0  0  0  0  0  0  0  0  0  0
  -26.1400  -14.1390   20.3970 C   0  0  0  0  0  0  0  0  0  0  0  0
  -25.0370  -13.4700   20.8560 C   0  0  0  0  0  0  0  0  0  0  0  0
  -25.2950  -12.0830   20.6280 C   0  0  0  0  0  0  0  0  0  0  0  0
  -27.0050  -13.1650   19.9230 N   0  0  0  0  0  0  0  0  0  0  0  0
  -26.5090  -11.9170   20.1190 N   0  0  0  0  0  0  0  0  0  0  0  0
  -24.4300  -10.9100   20.8110 C   0  0  0  0  0  0  0  0  0  0  0  0
  -24.8270   -9.8220   21.6200 C   0  0  0  0  0  3  0  0  0  0  0  0
  -23.9720   -8.7120   21.7950 C   0  0  0  0  0  3  0  0  0  0  0  0
  -22.7040   -8.6870   21.1640 C   0  0  0  0  0  0  0  0  0  0  0  0
  -22.3250   -9.7630   20.3410 C   0  0  0  0  0  3  0  0  0  0  0  0
  -23.1800  -10.8640   20.1630 C   0  0  0  0  0  3  0  0  0  0  0  0
  -21.8180   -7.6420   21.2580 O   0  0  0  0  0  0  0  0  0  0  0  0
  -21.7840   -6.8220   22.3590 C   0  0  0  0  0  0  0  0  0  0  0  0
  -21.5000   -7.3210   23.6490 C   0  0  0  0  0  3  0  0  0  0  0  0
  -21.4070   -6.4350   24.7400 C   0  0  0  0  0  3  0  0  0  0  0  0
  -21.5840   -5.0520   24.5430 C   0  0  0  0  0  0  0  0  0  0  0  0
  -21.8640   -4.5540   23.2570 C   0  0  0  0  0  3  0  0  0  0  0  0
  -21.9610   -5.4370   22.1680 C   0  0  0  0  0  0  0  0  0  0  0  0
  -22.2070   -4.9500   20.9280 F   0  0  0  0  0  0  0  0  0  0  0  0
  -21.4880   -4.2000   25.5890 F   0  0  0  0  0  0  0  0  0  0  0  0
  -23.7740  -14.0870   21.3810 C   0  0  0  0  0  0  0  0  0  0  0  0
  -23.1010  -13.4130   22.3060 N   0  0  0  0  0  0  0  0  0  0  0  0
  -23.4040  -15.1990   21.0110 O   0  0  0  0  0  0  0  0  0  0  0  0
  -23.4150  -12.5130   22.6350 H   0  0  0  0  0  0  0  0  0  0  0  0
  -22.2510  -13.8060   22.6880 H   0  0  0  0  0  0  0  0  0  0  0  0
  -26.4690  -15.4910   20.3270 N   0  0  0  0  0  0  0  0  0  0  0  0
  -25.8300  -16.2200   20.6250 H   0  0  0  0  0  0  0  0  0  0  0  0
  -27.3250  -15.8570   19.9300 H   0  0  0  0  0  0  0  0  0  0  0  0
  -30.2050  -17.7230   23.5150 N   0  0  0  0  0  0  0  0  0  0  0  0
  -29.7590  -18.5000   23.9930 H   0  0  0  0  0  0  0  0  0  0  0  0
  -29.9250  -16.8280   23.9110 H   0  0  0  0  0  0  0  0  0  0  0  0
  -29.9100  -20.3150   19.3500 O   0  0  0  0  0  0  0  0  0  0  0  0
  -30.0750  -21.6330   19.9330 C   0  0  0  0  0  2  0  0  0  0  0  0
  -28.9040  -22.5820   19.5170 C   0  0  0  0  0  2  0  0  0  0  0  0
  -29.2070  -24.0900   19.2060 C   0  0  0  0  0  2  0  0  0  0  0  0
  -28.7150  -25.1330   20.2460 C   0  0  0  0  0  2  0  0  0  0  0  0
  -28.7970  -26.5030   19.7780 O   0  0  0  0  0  0  0  0  0  0  0  0
  -24.6560  -31.3150   23.0240 C   0  0  0  0  0  0  0  0  0  0  0  0
  -27.6010  -27.1960   19.7680 C   0  0  0  0  0  0  0  0  0  0  0  0
  -23.5540  -29.9360   21.2880 C   0  0  0  0  0  3  0  0  0  0  0  0
  -25.1160  -28.5620   19.8100 C   0  0  0  0  0  0  0  0  0  0  0  0
  -26.0540  -30.4530   21.1470 C   0  0  0  0  0  2  0  0  0  0  0  0
  -26.2340  -29.1250   20.4360 C   0  0  0  0  0  0  0  0  0  0  0  0
  -27.4800  -28.4530   20.4090 C   0  0  0  0  0  3  0  0  0  0  0  0
  -26.4620  -26.6520   19.1320 C   0  0  0  0  0  3  0  0  0  0  0  0
  -25.2240  -27.3210   19.1590 C   0  0  0  0  0  3  0  0  0  0  0  0
  -23.8250  -29.3460   19.8780 C   0  0  0  0  0  2  0  0  0  0  0  0
  -24.7700  -30.5830   21.8770 N   0  0  0  0  0  0  0  0  0  0  0  0
  -23.5560  -31.4840   23.5680 O   0  0  0  0  0  0  0  0  0  0  0  0
  -22.9560  -28.8210   22.1810 C   0  0  0  0  0  0  0  0  0  0  0  0
  -21.6510  -28.5560   22.0170 N   0  0  0  0  0  0  0  0  0  0  0  0
  -23.6650  -28.2020   22.9790 O   0  0  0  0  0  0  0  0  0  0  0  0
  -21.1360  -29.1110   21.3470 H   0  0  0  0  0  0  0  0  0  0  0  0
  -18.3620  -27.1050   22.3740 C   0  0  0  0  0  0  0  0  0  0  0  0
  -20.8870  -27.5250   22.7220 C   0  0  0  0  0  3  0  0  0  0  0  0
  -21.1020  -26.1330   22.0850 C   0  0  0  0  0  2  0  0  0  0  0  0
  -20.0500  -25.7840   21.0280 C   0  0  0  0  0  2  0  0  0  0  0  0
  -18.6490  -25.8030   21.6480 C   0  0  0  0  0  2  0  0  0  0  0  0
  -19.4160  -27.9190   22.8680 C   0  0  0  0  0  0  0  0  0  0  0  0
  -19.0920  -29.1320   23.5120 C   0  0  0  0  0  3  0  0  0  0  0  0
  -17.7520  -29.5330   23.6650 C   0  0  0  0  0  3  0  0  0  0  0  0
  -16.7130  -28.7140   23.1890 C   0  0  0  0  0  3  0  0  0  0  0  0
  -17.0220  -27.5030   22.5460 C   0  0  0  0  0  3  0  0  0  0  0  0
  -25.8930  -31.9890   23.6900 C   0  0  0  0  0  3  0  0  0  0  0  0
  -25.5140  -33.3640   24.0410 N   0  0  0  0  0  0  0  0  0  0  0  0
  -25.8240  -34.4460   23.3140 C   0  0  0  0  0  0  0  0  0  0  0  0
  -26.5300  -34.3940   22.3040 O   0  0  0  0  0  0  0  0  0  0  0  0
  -24.8870  -33.4760   24.8240 H   0  0  0  0  0  0  0  0  0  0  0  0
  -24.0210  -36.1600   22.9480 C   0  0  0  0  0  1  0  0  0  0  0  0
  -25.2600  -35.8000   23.7840 C   0  0  0  0  0  3  0  0  0  0  0  0
  -27.3220  -36.7760   24.6920 C   0  0  0  0  0  1  0  0  0  0  0  0
  -26.2440  -36.9030   23.7130 N   0  0  0  0  0  0  0  0  0  0  0  0
  -25.7900  -37.8010   23.8550 H   0  0  0  0  0  0  0  0  0  0  0  0
  -26.4090  -31.2140   24.9630 C   0  0  1  0  0  0  0  0  0  0  0  0
  -25.3030  -30.9120   25.9990 C   0  0  0  0  0  1  0  0  0  0  0  0
  -27.0540  -29.8680   24.5580 C   0  0  0  0  0  1  0  0  0  0  0  0
  -27.5110  -32.0380   25.6670 C   0  0  0  0  0  1  0  0  0  0  0  0
  1  3  1  0
  2  3  2  0
  3 46  1  0
  4  1  2  0
  5  2  1  0
  6  4  1  0
  6  5  2  0
  7  6  1  0
  8 14  1  0
  9 14  1  0
 10 11  1  0
 10  9  1  0
 12 11  1  0
 12 21  1  0
 12 13  1  0
 14 13  1  0
 15  8  2  0
 16  8  1  0
 16  4  1  0
 17 16  1  0
 18 19  2  0
 19 38  1  0
 20 23  1  0
 20 19  1  0
 21 22  1  0
 21 18  1  0
 22 20  2  0
 23 24  1  0
 24 25  2  0
 26 29  1  0
 26 25  1  0
 27 26  2  0
 28 27  1  0
 28 23  2  0
 29 30  1  0
 30 31  1  0
 31 32  2  0
 33 32  1  0
 33 37  1  0
 34 33  2  0
 35 30  2  0
 35 34  1  0
 36 35  1  0
 38 39  1  0
 39 41  1  0
 39 42  1  0
 40 38  2  0
 43 18  1  0
 43 44  1  0
 45 43  1  0
 46 48  1  0
 46 47  1  0
 49 50  1  0
 49  5  1  0
 51 50  1  0
 52 51  1  0
 52 53  1  0
 54 53  1  0
 55 66  2  0
 56 54  1  0
 56 61  1  0
 57 65  1  0
 57 67  1  0
 58 64  1  0
 58 60  1  0
 59 65  1  0
 60 59  1  0
 61 60  2  0
 62 63  1  0
 62 56  2  0
 63 58  2  0
 64 57  1  0
 65 55  1  0
 67 69  2  0
 68 67  1  0
 70 68  1  0
 71 80  2  0
 71 76  1  0
 72 68  1  0
 72 76  1  0
 73 72  1  0
 74 75  1  0
 74 73  1  0
 75 71  1  0
 76 77  2  0
 77 78  1  0
 79 78  2  0
 80 79  1  0
 81 55  1  0
 81 82  1  0
 81 91  1  0
 82 85  1  0
 83 87  1  0
 83 82  1  0
 84 83  2  0
 87 86  1  0
 89 87  1  0
 89 90  1  0
 89 88  1  0
 91 94  1  1
 91 92  1  0
 93 91  1  0
M  ISO  4   8 100  16 100  53 101  54 101
M  END
>  <TORSDO>  (33) 
F 22

>  <SCORE>  (33) 
-10.345

>  <name>  (33) 
32

>  <ligand_id>  (33) 
32

>  <original_smiles>  (33) 
[H]c1c([H])c([H])c2c(c1[H])C([H])([H])C([H])([H])C([H])([H])C2([H])N([H])C(=O)C1([H])N(C(=O)C([H])(N([H])C(=O)C([H])(N([H])C([H])([H])[H])C([H])([H])[H])C(C([H])([H])[H])(C([H])([H])[H])C([H])([H])[H])C([H])([H])c2c([H])c(OC([H])([H])C([H])([H])C([H])([H])C([H])([H])Oc3c([H])c(N([H])[H])c([H])c(N([H])C(=O)N4C([H])([H])C([H])([H])C([H])([H])C([H])(n5nc(-c6c([H])c([H])c(Oc7c([H])c([H])c(F)c([H])c7F)c([H])c6[H])c(C(=O)N([H])[H])c5N([H])[H])C4([H])[H])c3F)c([H])c([H])c2C1([H])[H]

>  <smiles>  (33) 
[H]c1c([H])c([H])c2c(c1[H])C([H])([H])C([H])([H])C([H])([H])C2([H])N([H])C(=O)C1([H])N(C(=O)C([H])(N([H])C(=O)C([H])(N([H])C([H])([H])[H])C([H])([H])[H])C(C([H])([H])[H])(C([H])([H])[H])C([H])([H])[H])C([H])([H])c2c([H])c(OC([H])([H])C([H])([H])C([H])([H])C([H])([H])Oc3c([H])c(N([H])[H])c([H])c(N([H])C(=O)N4C([H])([H])C([H])([H])C([H])([H])C([H])(n5nc(-c6c([H])c([H])c(Oc7c([H])c([H])c(F)c([H])c7F)c([H])c6[H])c(C(=O)N([H])[H])c5N([H])[H])C4([H])[H])c3F)c([H])c([H])c2C1([H])[H]

$$$$
33:0:0
     RDKit          3D

 94102  0  0  1  0  0  0  0  0999 V2000
  -30.9680  -18.0010   20.8160 C   0  0  0  0  0  3  0  0  0  0  0  0
  -28.7880  -19.6320   20.1740 C   0  0  0  0  0  3  0  0  0  0  0  0
  -29.8420  -17.3540   20.2390 C   0  0  0  0  0  0  0  0  0  0  0  0
  -28.7280  -18.2280   19.9550 C   0  0  0  0  0  0  0  0  0  0  0  0
  -31.0170  -19.4120   21.0270 C   0  0  0  0  0  0  0  0  0  0  0  0
  -29.9360  -20.2720   20.6840 C   0  0  0  0  0  0  0  0  0  0  0  0
  -27.4160  -17.7370   19.3620 C   0  0  0  0  0  1  0  0  0  0  0  0
  -29.8740  -15.8850   19.7530 C   0  0  0  0  0  0  0  0  0  0  0  0
  -29.3760  -15.6630   18.6090 N   0  0  0  0  0  0  0  0  0  0  0  0
  -28.9950  -16.5150   18.2200 H   0  0  0  0  0  0  0  0  0  0  0  0
  -30.6170  -14.6960   20.4810 C   0  0  0  0  0  0  0  0  0  0  0  0
  -30.4070  -12.4050   19.5600 C   0  0  0  0  0  2  0  0  0  0  0  0
  -29.4920  -12.4250   18.3160 C   0  0  0  0  0  2  0  0  0  0  0  0
  -28.0030  -12.3140   18.7110 C   0  0  0  0  0  2  0  0  0  0  0  0
  -27.5980  -13.2330   19.8970 C   0  0  0  0  0  3  0  0  0  0  0  0
  -28.6430  -13.1960   21.0340 C   0  0  0  0  0  2  0  0  0  0  0  0
  -29.9660  -13.4860   20.4580 N   0  0  0  0  0  0  0  0  0  0  0  0
  -31.8480  -14.7590   20.4790 O   0  0  0  0  0  0  0  0  0  0  0  0
  -25.1920  -13.8280   20.5770 C   0  0  0  0  0  0  0  0  0  0  0  0
  -24.1190  -13.0540   20.9170 C   0  0  0  0  0  0  0  0  0  0  0  0
  -24.5900  -11.7080   20.9120 C   0  0  0  0  0  0  0  0  0  0  0  0
  -26.2470  -12.9510   20.3730 N   0  0  0  0  0  0  0  0  0  0  0  0
  -25.8890  -11.6710   20.6450 N   0  0  0  0  0  0  0  0  0  0  0  0
  -23.8660  -10.4440   21.0880 C   0  0  0  0  0  0  0  0  0  0  0  0
  -24.2840   -9.4810   22.0310 C   0  0  0  0  0  3  0  0  0  0  0  0
  -23.5590   -8.2830   22.1970 C   0  0  0  0  0  3  0  0  0  0  0  0
  -22.4030   -8.0380   21.4180 C   0  0  0  0  0  0  0  0  0  0  0  0
  -22.0060   -8.9900   20.4630 C   0  0  0  0  0  3  0  0  0  0  0  0
  -22.7310  -10.1820   20.2960 C   0  0  0  0  0  3  0  0  0  0  0  0
  -21.6520   -6.8920   21.4940 O   0  0  0  0  0  0  0  0  0  0  0  0
  -21.5910   -6.1470   22.6430 C   0  0  0  0  0  0  0  0  0  0  0  0
  -21.1460   -6.6970   23.8660 C   0  0  0  0  0  3  0  0  0  0  0  0
  -21.0340   -5.8770   25.0070 C   0  0  0  0  0  3  0  0  0  0  0  0
  -21.3570   -4.5080   24.9250 C   0  0  0  0  0  0  0  0  0  0  0  0
  -21.7950   -3.9590   23.7070 C   0  0  0  0  0  3  0  0  0  0  0  0
  -21.9100   -4.7760   22.5690 C   0  0  0  0  0  0  0  0  0  0  0  0
  -22.3130   -4.2380   21.3940 F   0  0  0  0  0  0  0  0  0  0  0  0
  -21.2400   -3.7190   26.0170 F   0  0  0  0  0  0  0  0  0  0  0  0
  -22.7130  -13.5290   21.1380 C   0  0  0  0  0  0  0  0  0  0  0  0
  -21.9620  -12.8410   21.9890 N   0  0  0  0  0  0  0  0  0  0  0  0
  -22.2880  -14.5470   20.5910 O   0  0  0  0  0  0  0  0  0  0  0  0
  -22.3170  -12.0170   22.4530 H   0  0  0  0  0  0  0  0  0  0  0  0
  -21.0160  -13.1390   22.1780 H   0  0  0  0  0  0  0  0  0  0  0  0
  -25.3470  -15.1960   20.3990 N   0  0  0  0  0  0  0  0  0  0  0  0
  -24.5760  -15.8490   20.4900 H   0  0  0  0  0  0  0  0  0  0  0  0
  -26.2090  -15.6350   20.1110 H   0  0  0  0  0  0  0  0  0  0  0  0
  -32.1700  -19.9850   21.5600 N   0  0  0  0  0  0  0  0  0  0  0  0
  -32.0790  -20.9340   21.9110 H   0  0  0  0  0  0  0  0  0  0  0  0
  -32.7850  -19.4090   22.1260 H   0  0  0  0  0  0  0  0  0  0  0  0
  -30.0560  -21.6660   20.8550 O   0  0  0  0  0  0  0  0  0  0  0  0
  -29.0210  -22.5770   20.3760 C   0  0  0  0  0  3  0  0  0  0  0  0
  -29.3130  -24.1220   20.5760 C   0  0  0  0  0  3  0  0  0  0  0  0
  -28.1560  -25.1060   20.1420 C   0  0  0  0  0  2  0  0  0  0  0  0
  -28.3380  -26.5520   20.3390 O   0  0  0  0  0  0  0  0  0  0  0  0
  -24.5620  -31.9150   23.2900 C   0  0  0  0  0  0  0  0  0  0  0  0
  -27.2000  -27.3680   20.2720 C   0  0  0  0  0  0  0  0  0  0  0  0
  -23.3670  -30.5130   21.6440 C   0  0  0  0  0  3  0  0  0  0  0  0
  -24.8270  -28.9580   20.2400 C   0  0  0  0  0  0  0  0  0  0  0  0
  -25.9060  -30.8330   21.4800 C   0  0  0  0  0  2  0  0  0  0  0  0
  -25.9880  -29.4550   20.8420 C   0  0  0  0  0  0  0  0  0  0  0  0
  -27.1770  -28.6710   20.8500 C   0  0  0  0  0  3  0  0  0  0  0  0
  -26.0110  -26.9160   19.6480 C   0  0  0  0  0  3  0  0  0  0  0  0
  -24.8380  -27.6920   19.6380 C   0  0  0  0  0  3  0  0  0  0  0  0
  -23.5900  -29.8300   20.2690 C   0  0  0  0  0  2  0  0  0  0  0  0
  -24.6290  -31.1030   22.1960 N   0  0  0  0  0  0  0  0  0  0  0  0
  -23.4750  -32.1990   23.8150 O   0  0  0  0  0  0  0  0  0  0  0  0
  -22.6940  -29.5030   22.6020 C   0  0  0  0  0  0  0  0  0  0  0  0
  -21.3710  -29.3170   22.4520 N   0  0  0  0  0  0  0  0  0  0  0  0
  -23.3590  -28.8880   23.4400 O   0  0  0  0  0  0  0  0  0  0  0  0
  -20.8940  -29.8640   21.7500 H   0  0  0  0  0  0  0  0  0  0  0  0
  -17.9930  -28.1040   22.8830 C   0  0  0  0  0  0  0  0  0  0  0  0
  -20.5420  -28.3840   23.2160 C   0  0  0  0  0  3  0  0  0  0  0  0
  -20.6690  -26.9470   22.6620 C   0  0  0  0  0  2  0  0  0  0  0  0
  -19.5950  -26.6020   21.6250 C   0  0  0  0  0  2  0  0  0  0  0  0
  -18.1970  -26.7460   22.2320 C   0  0  0  0  0  2  0  0  0  0  0  0
  -19.0950  -28.8800   23.3310 C   0  0  0  0  0  0  0  0  0  0  0  0
  -18.8530  -30.1510   23.8960 C   0  0  0  0  0  3  0  0  0  0  0  0
  -17.5420  -30.6450   24.0200 C   0  0  0  0  0  3  0  0  0  0  0  0
  -16.4530  -29.8660   23.5900 C   0  0  0  0  0  3  0  0  0  0  0  0
  -16.6790  -28.5980   23.0260 C   0  0  0  0  0  3  0  0  0  0  0  0
  -25.8420  -32.5430   23.9210 C   0  0  0  0  0  3  0  0  0  0  0  0
  -25.5430  -33.9500   24.2260 N   0  0  0  0  0  0  0  0  0  0  0  0
  -25.8940  -34.9870   23.4530 C   0  0  0  0  0  0  0  0  0  0  0  0
  -26.5750  -34.8600   22.4310 O   0  0  0  0  0  0  0  0  0  0  0  0
  -24.9400  -34.1240   25.0170 H   0  0  0  0  0  0  0  0  0  0  0  0
  -24.1870  -36.7890   23.0510 C   0  0  0  0  0  1  0  0  0  0  0  0
  -25.4160  -36.3880   23.8830 C   0  0  0  0  0  3  0  0  0  0  0  0
  -27.5480  -37.2650   24.7230 C   0  0  0  0  0  1  0  0  0  0  0  0
  -26.4600  -37.4280   23.7630 N   0  0  0  0  0  0  0  0  0  0  0  0
  -26.0610  -38.3540   23.8900 H   0  0  0  0  0  0  0  0  0  0  0  0
  -26.3310  -31.7860   25.2160 C   0  0  1  0  0  0  0  0  0  0  0  0
  -25.2190  -31.5770   26.2710 C   0  0  0  0  0  1  0  0  0  0  0  0
  -26.9050  -30.3960   24.8540 C   0  0  0  0  0  1  0  0  0  0  0  0
  -27.4800  -32.5790   25.8830 C   0  0  0  0  0  1  0  0  0  0  0  0
  1  5  1  0
  2  6  1  0
  3  1  2  0
  4  2  2  0
  4  3  1  0
  5 47  1  0
  6 50  1  0
  6  5  2  0
  7  4  1  0
  8  3  1  0
  8 11  1  0
  9  8  2  0
 10  9  1  0
 12 17  1  0
 13 14  1  0
 13 12  1  0
 15 14  1  0
 15 22  1  0
 15 16  1  0
 17 11  1  0
 17 16  1  0
 18 11  2  0
 19 20  2  0
 20 39  1  0
 21 20  1  0
 21 24  1  0
 22 19  1  0
 22 23  1  0
 23 21  2  0
 24 25  1  0
 25 26  2  0
 27 30  1  0
 27 26  1  0
 28 27  2  0
 29 28  1  0
 29 24  2  0
 30 31  1  0
 31 32  1  0
 32 33  2  0
 34 33  1  0
 34 38  1  0
 35 34  2  0
 36 31  2  0
 36 35  1  0
 37 36  1  0
 39 40  1  0
 40 43  1  0
 40 42  1  0
 41 39  2  0
 44 45  1  0
 44 19  1  0
 46 44  1  0
 47 48  1  0
 47 49  1  0
 51 52  2  0
 51 50  1  0
 53 54  1  0
 53 52  1  0
 55 66  2  0
 56 54  1  0
 56 61  1  0
 57 65  1  0
 57 67  1  0
 58 64  1  0
 58 60  1  0
 59 65  1  0
 60 61  2  0
 60 59  1  0
 62 56  2  0
 63 62  1  0
 63 58  2  0
 64 57  1  0
 65 55  1  0
 67 69  2  0
 68 67  1  0
 70 68  1  0
 71 80  2  0
 71 76  1  0
 72 68  1  0
 72 76  1  0
 73 72  1  0
 74 75  1  0
 74 73  1  0
 75 71  1  0
 76 77  2  0
 77 78  1  0
 79 78  2  0
 80 79  1  0
 81 55  1  0
 81 82  1  0
 81 91  1  0
 82 85  1  0
 83 87  1  0
 83 82  1  0
 84 83  2  0
 87 86  1  0
 89 87  1  0
 89 90  1  0
 89 88  1  0
 91 94  1  1
 91 92  1  0
 93 91  1  0
M  ISO  4   8 100  11 100  53 101  54 101
M  END
>  <TORSDO>  (34) 
F 22

>  <SCORE>  (34) 
-13.602

>  <name>  (34) 
33

>  <ligand_id>  (34) 
33

>  <original_smiles>  (34) 
[H]N=C(C(=O)N1C([H])([H])C([H])([H])C([H])([H])C([H])(n2nc(-c3c([H])c([H])c(Oc4c([H])c([H])c(F)c([H])c4F)c([H])c3[H])c(C(=O)N([H])[H])c2N([H])[H])C1([H])[H])c1c([H])c(N([H])[H])c(OC([H])([H])C([H])([H])C([H])([H])Oc2c([H])c([H])c3c(c2[H])C([H])([H])N(C(=O)C([H])(N([H])C(=O)C([H])(N([H])C([H])([H])[H])C([H])([H])[H])C(C([H])([H])[H])(C([H])([H])[H])C([H])([H])[H])C([H])(C(=O)N([H])C2([H])c4c([H])c([H])c([H])c([H])c4C([H])([H])C([H])([H])C2([H])[H])C3([H])[H])c([H])c1C([H])([H])[H]

>  <smiles>  (34) 
[H]N=C(C(=O)N1C([H])([H])C([H])([H])C([H])([H])C([H])(n2nc(-c3c([H])c([H])c(Oc4c([H])c([H])c(F)c([H])c4F)c([H])c3[H])c(C(=O)N([H])[H])c2N([H])[H])C1([H])[H])c1c([H])c(N([H])[H])c(OC([H])([H])C([H])([H])C([H])([H])Oc2c([H])c([H])c3c(c2[H])C([H])([H])N(C(=O)C([H])(N([H])C(=O)C([H])(N([H])C([H])([H])[H])C([H])([H])[H])C(C([H])([H])[H])(C([H])([H])[H])C([H])([H])[H])C([H])(C(=O)N([H])C2([H])c4c([H])c([H])c([H])c([H])c4C([H])([H])C([H])([H])C2([H])[H])C3([H])[H])c([H])c1C([H])([H])[H]

$$$$
34:0:0
     RDKit          3D

 93102  0  0  1  0  0  0  0  0999 V2000
  -29.1600  -22.0050   19.4900 C   0  0  0  0  0  2  0  0  0  0  0  0
  -29.7820  -21.9570   21.8940 C   0  0  0  0  0  2  0  0  0  0  0  0
  -28.5070  -23.4080   19.6560 C   0  0  0  0  0  2  0  0  0  0  0  0
  -29.1460  -23.3540   22.1030 C   0  0  0  0  0  2  0  0  0  0  0  0
  -29.0490  -21.1720   20.7880 C   0  0  0  0  0  3  0  0  0  0  0  0
  -29.1000  -24.2390   20.8250 C   0  0  0  0  0  3  0  0  0  0  0  0
  -30.6600  -19.1630   21.1670 C   0  0  0  0  0  3  0  0  0  0  0  0
  -30.9400  -17.7720   21.1980 C   0  0  0  0  0  3  0  0  0  0  0  0
  -28.7870  -17.3380   20.1820 C   0  0  0  0  0  3  0  0  0  0  0  0
  -29.4270  -19.6670   20.6690 C   0  0  0  0  0  0  0  0  0  0  0  0
  -28.5010  -18.7230   20.1410 C   0  0  0  0  0  0  0  0  0  0  0  0
  -29.9900  -16.8400   20.7250 C   0  0  0  0  0  0  0  0  0  0  0  0
  -27.1540  -19.1520   19.5750 C   0  0  0  0  0  1  0  0  0  0  0  0
  -30.7890  -14.5200   20.1910 C   0  0  0  0  0  0  0  0  0  0  0  0
  -30.4710  -12.3950   18.9590 C   0  0  0  0  0  2  0  0  0  0  0  0
  -29.4550  -12.6290   17.8180 C   0  0  0  0  0  2  0  0  0  0  0  0
  -28.0050  -12.4790   18.3210 C   0  0  0  0  0  2  0  0  0  0  0  0
  -27.7400  -13.2650   19.6320 C   0  0  0  0  0  3  0  0  0  0  0  0
  -28.8500  -12.9740   20.6670 C   0  0  0  0  0  2  0  0  0  0  0  0
  -30.1470  -13.3210   20.0550 N   0  0  0  0  0  0  0  0  0  0  0  0
  -31.8670  -14.7720   19.6430 O   0  0  0  0  0  0  0  0  0  0  0  0
  -30.1030  -15.4250   20.9180 N   0  0  0  0  0  0  0  0  0  0  0  0
  -29.2850  -15.0040   21.3290 H   0  0  0  0  0  0  0  0  0  0  0  0
  -25.3810  -13.8700   20.4710 C   0  0  0  0  0  0  0  0  0  0  0  0
  -24.3280  -13.0970   20.8790 C   0  0  0  0  0  0  0  0  0  0  0  0
  -24.7750  -11.7450   20.7890 C   0  0  0  0  0  0  0  0  0  0  0  0
  -26.4080  -12.9880   20.1650 N   0  0  0  0  0  0  0  0  0  0  0  0
  -26.0470  -11.7030   20.4120 N   0  0  0  0  0  0  0  0  0  0  0  0
  -24.0480  -10.4830   20.9810 C   0  0  0  0  0  0  0  0  0  0  0  0
  -24.4900   -9.5110   21.9040 C   0  0  0  0  0  3  0  0  0  0  0  0
  -23.7670   -8.3130   22.0830 C   0  0  0  0  0  3  0  0  0  0  0  0
  -22.5860   -8.0800   21.3400 C   0  0  0  0  0  0  0  0  0  0  0  0
  -22.1630   -9.0410   20.4030 C   0  0  0  0  0  3  0  0  0  0  0  0
  -22.8870  -10.2300   20.2230 C   0  0  0  0  0  3  0  0  0  0  0  0
  -21.8290   -6.9360   21.4330 O   0  0  0  0  0  0  0  0  0  0  0  0
  -21.7520   -6.2170   22.5980 C   0  0  0  0  0  0  0  0  0  0  0  0
  -21.2460   -6.7810   23.7900 C   0  0  0  0  0  3  0  0  0  0  0  0
  -21.1170   -5.9850   24.9460 C   0  0  0  0  0  3  0  0  0  0  0  0
  -21.4860   -4.6270   24.9100 C   0  0  0  0  0  0  0  0  0  0  0  0
  -21.9860   -4.0620   23.7230 C   0  0  0  0  0  3  0  0  0  0  0  0
  -22.1140   -4.8550   22.5700 C   0  0  0  0  0  0  0  0  0  0  0  0
  -22.5740   -4.3010   21.4230 F   0  0  0  0  0  0  0  0  0  0  0  0
  -21.3560   -3.8590   26.0180 F   0  0  0  0  0  0  0  0  0  0  0  0
  -22.9510  -13.5790   21.2380 C   0  0  0  0  0  0  0  0  0  0  0  0
  -22.2580  -12.8620   22.1150 N   0  0  0  0  0  0  0  0  0  0  0  0
  -22.5010  -14.6280   20.7790 O   0  0  0  0  0  0  0  0  0  0  0  0
  -22.6360  -12.0130   22.5090 H   0  0  0  0  0  0  0  0  0  0  0  0
  -21.3370  -13.1660   22.3970 H   0  0  0  0  0  0  0  0  0  0  0  0
  -25.5430  -15.2420   20.3150 N   0  0  0  0  0  0  0  0  0  0  0  0
  -24.7770  -15.8880   20.4640 H   0  0  0  0  0  0  0  0  0  0  0  0
  -26.3510  -15.6730   19.8880 H   0  0  0  0  0  0  0  0  0  0  0  0
  -28.3090  -25.5520   21.1300 C   0  0  0  0  0  2  0  0  0  0  0  0
  -28.4100  -26.6260   20.1710 O   0  0  0  0  0  0  0  0  0  0  0  0
  -24.6380  -31.8610   23.2350 C   0  0  0  0  0  0  0  0  0  0  0  0
  -27.2830  -27.4210   20.1460 C   0  0  0  0  0  0  0  0  0  0  0  0
  -23.4330  -30.4660   21.5840 C   0  0  0  0  0  3  0  0  0  0  0  0
  -24.8910  -28.9330   20.1530 C   0  0  0  0  0  0  0  0  0  0  0  0
  -25.9610  -30.8210   21.3950 C   0  0  0  0  0  2  0  0  0  0  0  0
  -26.0500  -29.4540   20.7470 C   0  0  0  0  0  0  0  0  0  0  0  0
  -27.2530  -28.7060   20.7380 C   0  0  0  0  0  3  0  0  0  0  0  0
  -26.1120  -26.9190   19.5440 C   0  0  0  0  0  3  0  0  0  0  0  0
  -24.9180  -27.6640   19.5470 C   0  0  0  0  0  3  0  0  0  0  0  0
  -23.6470  -29.7920   20.2020 C   0  0  0  0  0  2  0  0  0  0  0  0
  -24.6950  -31.0660   22.1290 N   0  0  0  0  0  0  0  0  0  0  0  0
  -23.5550  -32.1300   23.7760 O   0  0  0  0  0  0  0  0  0  0  0  0
  -22.7790  -29.4410   22.5410 C   0  0  0  0  0  0  0  0  0  0  0  0
  -21.4520  -29.2660   22.4180 N   0  0  0  0  0  0  0  0  0  0  0  0
  -23.4630  -28.8080   23.3500 O   0  0  0  0  0  0  0  0  0  0  0  0
  -20.9640  -29.8290   21.7370 H   0  0  0  0  0  0  0  0  0  0  0  0
  -18.0730  -28.0900   22.9330 C   0  0  0  0  0  0  0  0  0  0  0  0
  -20.6340  -28.3270   23.1850 C   0  0  0  0  0  3  0  0  0  0  0  0
  -20.7220  -26.9020   22.5930 C   0  0  0  0  0  2  0  0  0  0  0  0
  -19.6100  -26.5970   21.5840 C   0  0  0  0  0  2  0  0  0  0  0  0
  -18.2340  -26.7480   22.2410 C   0  0  0  0  0  2  0  0  0  0  0  0
  -19.2010  -28.8390   23.3610 C   0  0  0  0  0  0  0  0  0  0  0  0
  -18.9990  -30.0990   23.9660 C   0  0  0  0  0  3  0  0  0  0  0  0
  -17.7010  -30.6100   24.1480 C   0  0  0  0  0  3  0  0  0  0  0  0
  -16.5860  -29.8570   23.7380 C   0  0  0  0  0  3  0  0  0  0  0  0
  -16.7730  -28.5990   23.1370 C   0  0  0  0  0  3  0  0  0  0  0  0
  -25.9230  -32.4900   23.8570 C   0  0  0  0  0  3  0  0  0  0  0  0
  -25.6220  -33.8910   24.1810 N   0  0  0  0  0  0  0  0  0  0  0  0
  -25.9610  -34.9390   23.4170 C   0  0  0  0  0  0  0  0  0  0  0  0
  -26.6350  -34.8290   22.3890 O   0  0  0  0  0  0  0  0  0  0  0  0
  -25.0330  -34.0510   24.9850 H   0  0  0  0  0  0  0  0  0  0  0  0
  -24.2550  -36.7420   23.0240 C   0  0  0  0  0  1  0  0  0  0  0  0
  -25.4740  -36.3300   23.8640 C   0  0  0  0  0  3  0  0  0  0  0  0
  -27.5930  -37.2000   24.7480 C   0  0  0  0  0  1  0  0  0  0  0  0
  -26.5140  -37.3780   23.7780 N   0  0  0  0  0  0  0  0  0  0  0  0
  -26.1100  -38.2990   23.9210 H   0  0  0  0  0  0  0  0  0  0  0  0
  -26.4370  -31.7200   25.1360 C   0  0  1  0  0  0  0  0  0  0  0  0
  -25.3420  -31.4820   26.2020 C   0  0  0  0  0  1  0  0  0  0  0  0
  -27.0250  -30.3430   24.7490 C   0  0  0  0  0  1  0  0  0  0  0  0
  -27.5850  -32.5170   25.8000 C   0  0  0  0  0  1  0  0  0  0  0  0
  1  3  1  0
  1  5  1  0
  2  4  1  0
  3  6  1  0
  5 10  1  0
  5  2  1  0
  6 52  1  0
  6  4  1  0
  7  8  1  0
  9 12  1  0
 10  7  2  0
 11  9  2  0
 11 10  1  0
 12 22  1  0
 12  8  2  0
 13 11  1  0
 14 22  1  0
 15 20  1  0
 16 17  1  0
 16 15  1  0
 18 17  1  0
 18 27  1  0
 18 19  1  0
 20 14  1  0
 20 19  1  0
 21 14  2  0
 22 23  1  0
 24 25  2  0
 25 44  1  0
 26 25  1  0
 26 29  1  0
 27 28  1  0
 27 24  1  0
 28 26  2  0
 29 30  1  0
 30 31  2  0
 32 35  1  0
 32 31  1  0
 33 32  2  0
 34 33  1  0
 34 29  2  0
 35 36  1  0
 36 37  1  0
 37 38  2  0
 39 38  1  0
 39 43  1  0
 40 39  2  0
 41 36  2  0
 41 40  1  0
 42 41  1  0
 44 45  1  0
 45 48  1  0
 45 47  1  0
 46 44  2  0
 49 50  1  0
 49 24  1  0
 51 49  1  0
 53 52  1  0
 54 65  2  0
 55 53  1  0
 55 60  1  0
 56 64  1  0
 56 66  1  0
 57 63  1  0
 57 59  1  0
 58 64  1  0
 59 58  1  0
 60 59  2  0
 61 62  1  0
 61 55  2  0
 62 57  2  0
 63 56  1  0
 64 54  1  0
 66 68  2  0
 67 66  1  0
 69 67  1  0
 70 79  2  0
 70 75  1  0
 71 67  1  0
 71 75  1  0
 72 71  1  0
 73 74  1  0
 73 72  1  0
 74 70  1  0
 75 76  2  0
 76 77  1  0
 78 77  2  0
 79 78  1  0
 80 54  1  0
 80 81  1  0
 80 90  1  0
 81 84  1  0
 82 86  1  0
 82 81  1  0
 83 82  2  0
 86 85  1  0
 88 86  1  0
 88 89  1  0
 88 87  1  0
 90 93  1  1
 90 91  1  0
 92 90  1  0
M  ISO  4  14 100  22 100  52 101  53 101
M  END
>  <TORSDO>  (35) 
F 18

>  <SCORE>  (35) 
-14.930

>  <name>  (35) 
34

>  <ligand_id>  (35) 
34

>  <original_smiles>  (35) 
[H]c1c([H])c([H])c2c(c1[H])C([H])([H])C([H])([H])C([H])([H])C2([H])N([H])C(=O)C1([H])N(C(=O)C([H])(N([H])C(=O)C([H])(N([H])C([H])([H])[H])C([H])([H])[H])C(C([H])([H])[H])(C([H])([H])[H])C([H])([H])[H])C([H])([H])c2c([H])c(OC([H])([H])C3([H])C([H])([H])C([H])([H])C([H])(c4c([H])c([H])c(N([H])C(=O)N5C([H])([H])C([H])([H])C([H])([H])C([H])(n6nc(-c7c([H])c([H])c(Oc8c([H])c([H])c(F)c([H])c8F)c([H])c7[H])c(C(=O)N([H])[H])c6N([H])[H])C5([H])[H])c([H])c4C([H])([H])[H])C([H])([H])C3([H])[H])c([H])c([H])c2C1([H])[H]

>  <smiles>  (35) 
[H]c1c([H])c([H])c2c(c1[H])C([H])([H])C([H])([H])C([H])([H])C2([H])N([H])C(=O)C1([H])N(C(=O)C([H])(N([H])C(=O)C([H])(N([H])C([H])([H])[H])C([H])([H])[H])C(C([H])([H])[H])(C([H])([H])[H])C([H])([H])[H])C([H])([H])c2c([H])c(OC([H])([H])C3([H])C([H])([H])C([H])([H])C([H])(c4c([H])c([H])c(N([H])C(=O)N5C([H])([H])C([H])([H])C([H])([H])C([H])(n6nc(-c7c([H])c([H])c(Oc8c([H])c([H])c(F)c([H])c8F)c([H])c7[H])c(C(=O)N([H])[H])c6N([H])[H])C5([H])[H])c([H])c4C([H])([H])[H])C([H])([H])C3([H])[H])c([H])c([H])c2C1([H])[H]

$$$$
35:0:0
     RDKit          3D

 90 98  0  0  1  0  0  0  0  0999 V2000
  -28.4870  -19.9790   20.3560 C   0  0  0  0  0  3  0  0  0  0  0  0
  -28.5780  -18.5280   20.4450 C   0  0  0  0  0  3  0  0  0  0  0  0
  -30.8700  -18.6100   19.9540 C   0  0  0  0  0  3  0  0  0  0  0  0
  -29.5740  -20.8690   20.0620 C   0  0  0  0  0  0  0  0  0  0  0  0
  -30.7910  -20.0760   19.8560 C   0  0  0  0  0  0  0  0  0  0  0  0
  -29.7670  -17.7350   20.2620 C   0  0  0  0  0  0  0  0  0  0  0  0
  -32.1030  -20.7900   19.5190 C   0  0  0  0  0  1  0  0  0  0  0  0
  -30.5240  -15.0360   20.2420 C   0  0  0  0  0  0  0  0  0  0  0  0
  -30.3960  -12.6730   19.3230 C   0  0  0  0  0  2  0  0  0  0  0  0
  -29.4520  -12.6300   18.1000 C   0  0  0  0  0  2  0  0  0  0  0  0
  -27.9930  -12.4080   18.5410 C   0  0  0  0  0  2  0  0  0  0  0  0
  -27.5910  -13.3260   19.7240 C   0  0  0  0  0  3  0  0  0  0  0  0
  -28.6620  -13.3550   20.8400 C   0  0  0  0  0  2  0  0  0  0  0  0
  -29.9310  -13.7680   20.2210 N   0  0  0  0  0  0  0  0  0  0  0  0
  -31.7200  -15.1070   19.9510 O   0  0  0  0  0  0  0  0  0  0  0  0
  -29.7080  -16.1950   20.4040 N   0  0  0  0  0  0  0  0  0  0  0  0
  -28.7780  -15.8890   20.6480 H   0  0  0  0  0  0  0  0  0  0  0  0
  -25.2110  -13.8950   20.4820 C   0  0  0  0  0  0  0  0  0  0  0  0
  -24.1500  -13.1160   20.8540 C   0  0  0  0  0  0  0  0  0  0  0  0
  -24.6200  -11.7660   20.8170 C   0  0  0  0  0  0  0  0  0  0  0  0
  -26.2560  -13.0210   20.2340 N   0  0  0  0  0  0  0  0  0  0  0  0
  -25.9100  -11.7350   20.5020 N   0  0  0  0  0  0  0  0  0  0  0  0
  -23.8960  -10.5010   21.0050 C   0  0  0  0  0  0  0  0  0  0  0  0
  -24.3210   -9.5390   21.9470 C   0  0  0  0  0  3  0  0  0  0  0  0
  -23.5960   -8.3400   22.1270 C   0  0  0  0  0  3  0  0  0  0  0  0
  -22.4320   -8.0940   21.3600 C   0  0  0  0  0  0  0  0  0  0  0  0
  -22.0230   -9.0440   20.4060 C   0  0  0  0  0  3  0  0  0  0  0  0
  -22.7510  -10.2340   20.2280 C   0  0  0  0  0  3  0  0  0  0  0  0
  -21.6810   -6.9450   21.4460 O   0  0  0  0  0  0  0  0  0  0  0  0
  -21.6090   -6.2150   22.6060 C   0  0  0  0  0  0  0  0  0  0  0  0
  -21.1350   -6.7800   23.8110 C   0  0  0  0  0  3  0  0  0  0  0  0
  -21.0100   -5.9760   24.9620 C   0  0  0  0  0  3  0  0  0  0  0  0
  -21.3490   -4.6120   24.9100 C   0  0  0  0  0  0  0  0  0  0  0  0
  -21.8170   -4.0470   23.7100 C   0  0  0  0  0  3  0  0  0  0  0  0
  -21.9450   -4.8470   22.5600 C   0  0  0  0  0  0  0  0  0  0  0  0
  -22.3740   -4.2940   21.3990 F   0  0  0  0  0  0  0  0  0  0  0  0
  -21.2210   -3.8390   26.0130 F   0  0  0  0  0  0  0  0  0  0  0  0
  -22.7520  -13.5860   21.1260 C   0  0  0  0  0  0  0  0  0  0  0  0
  -22.0260  -12.8870   21.9890 N   0  0  0  0  0  0  0  0  0  0  0  0
  -22.3100  -14.6140   20.6090 O   0  0  0  0  0  0  0  0  0  0  0  0
  -22.3930  -12.0580   22.4330 H   0  0  0  0  0  0  0  0  0  0  0  0
  -21.0870  -13.1870   22.2130 H   0  0  0  0  0  0  0  0  0  0  0  0
  -25.3680  -15.2680   20.3030 N   0  0  0  0  0  0  0  0  0  0  0  0
  -24.5980  -15.9200   20.4060 H   0  0  0  0  0  0  0  0  0  0  0  0
  -26.1950  -15.6980   19.9100 H   0  0  0  0  0  0  0  0  0  0  0  0
  -29.4580  -22.5090   19.9460 C   0  0  0  0  0  0  0  0  0  0  0  0
  -30.3380  -23.1070   19.3240 O   0  0  0  0  0  0  0  0  0  0  0  0
  -28.3210  -23.4240   20.5480 C   0  0  0  0  0  3  0  0  0  0  0  0
  -27.9060  -24.7920   20.6400 C   0  0  0  0  0  3  0  0  0  0  0  0
  -28.2680  -26.1580   20.2470 O   0  0  0  0  0  0  0  0  0  0  0  0
  -24.6220  -31.8910   23.2360 C   0  0  0  0  0  0  0  0  0  0  0  0
  -27.2360  -27.1770   20.2180 C   0  0  0  0  0  0  0  0  0  0  0  0
  -23.4330  -30.4900   21.5950 C   0  0  0  0  0  3  0  0  0  0  0  0
  -24.8940  -28.9100   20.1840 C   0  0  0  0  0  0  0  0  0  0  0  0
  -25.9880  -30.7570   21.4420 C   0  0  0  0  0  2  0  0  0  0  0  0
  -26.0720  -29.3600   20.7980 C   0  0  0  0  0  0  0  0  0  0  0  0
  -27.2440  -28.5090   20.8020 C   0  0  0  0  0  3  0  0  0  0  0  0
  -26.0330  -26.8350   19.5600 C   0  0  0  0  0  3  0  0  0  0  0  0
  -24.8870  -27.6570   19.5560 C   0  0  0  0  0  3  0  0  0  0  0  0
  -23.6630  -29.8040   20.2220 C   0  0  0  0  0  2  0  0  0  0  0  0
  -24.7000  -31.0670   22.1460 N   0  0  0  0  0  0  0  0  0  0  0  0
  -23.5320  -32.1760   23.7570 O   0  0  0  0  0  0  0  0  0  0  0  0
  -22.7510  -29.4860   22.5570 C   0  0  0  0  0  0  0  0  0  0  0  0
  -21.4220  -29.3150   22.4280 N   0  0  0  0  0  0  0  0  0  0  0  0
  -23.4220  -28.8610   23.3820 O   0  0  0  0  0  0  0  0  0  0  0  0
  -20.9390  -29.8710   21.7360 H   0  0  0  0  0  0  0  0  0  0  0  0
  -18.0380  -28.1310   22.9420 C   0  0  0  0  0  0  0  0  0  0  0  0
  -20.5990  -28.3810   23.1990 C   0  0  0  0  0  3  0  0  0  0  0  0
  -20.6900  -26.9480   22.6220 C   0  0  0  0  0  2  0  0  0  0  0  0
  -19.5840  -26.6340   21.6100 C   0  0  0  0  0  2  0  0  0  0  0  0
  -18.2070  -26.7830   22.2620 C   0  0  0  0  0  2  0  0  0  0  0  0
  -19.1610  -28.8870   23.3700 C   0  0  0  0  0  0  0  0  0  0  0  0
  -18.9490  -30.1470   23.9700 C   0  0  0  0  0  3  0  0  0  0  0  0
  -17.6440  -30.6510   24.1460 C   0  0  0  0  0  3  0  0  0  0  0  0
  -16.5370  -29.8910   23.7330 C   0  0  0  0  0  3  0  0  0  0  0  0
  -16.7340  -28.6330   23.1360 C   0  0  0  0  0  3  0  0  0  0  0  0
  -25.8950  -32.5320   23.8700 C   0  0  0  0  0  3  0  0  0  0  0  0
  -25.5800  -33.9340   24.1930 N   0  0  0  0  0  0  0  0  0  0  0  0
  -25.9150  -34.9860   23.4340 C   0  0  0  0  0  0  0  0  0  0  0  0
  -26.5890  -34.8780   22.4050 O   0  0  0  0  0  0  0  0  0  0  0  0
  -24.9820  -34.0890   24.9920 H   0  0  0  0  0  0  0  0  0  0  0  0
  -24.2030  -36.7910   23.0550 C   0  0  0  0  0  1  0  0  0  0  0  0
  -25.4300  -36.3790   23.8820 C   0  0  0  0  0  3  0  0  0  0  0  0
  -27.5560  -37.2640   24.7410 C   0  0  0  0  0  1  0  0  0  0  0  0
  -26.4700  -37.4250   23.7780 N   0  0  0  0  0  0  0  0  0  0  0  0
  -26.0660  -38.3470   23.9070 H   0  0  0  0  0  0  0  0  0  0  0  0
  -26.3960  -31.7710   25.1600 C   0  0  1  0  0  0  0  0  0  0  0  0
  -25.2960  -31.5470   26.2230 C   0  0  0  0  0  1  0  0  0  0  0  0
  -26.9750  -30.3850   24.7940 C   0  0  0  0  0  1  0  0  0  0  0  0
  -27.5460  -32.5660   25.8220 C   0  0  0  0  0  1  0  0  0  0  0  0
  1  2  1  0
  3  6  1  0
  4  1  2  0
  5  3  2  0
  5  4  1  0
  6 16  1  0
  6  2  2  0
  7  5  1  0
  8 16  1  0
  9 14  1  0
 10 11  1  0
 10  9  1  0
 12 11  1  0
 12 21  1  0
 12 13  1  0
 14  8  1  0
 14 13  1  0
 15  8  2  0
 16 17  1  0
 18 19  2  0
 19 38  1  0
 20 19  1  0
 20 23  1  0
 21 18  1  0
 21 22  1  0
 22 20  2  0
 23 24  1  0
 24 25  2  0
 26 29  1  0
 26 25  1  0
 27 26  2  0
 28 27  1  0
 28 23  2  0
 29 30  1  0
 30 31  1  0
 31 32  2  0
 33 32  1  0
 33 37  1  0
 34 33  2  0
 35 30  2  0
 35 34  1  0
 36 35  1  0
 38 39  1  0
 39 42  1  0
 39 41  1  0
 40 38  2  0
 43 44  1  0
 43 18  1  0
 45 43  1  0
 46  4  1  0
 46 48  1  0
 47 46  2  0
 48 49  2  0
 50 49  1  0
 51 62  2  0
 52 50  1  0
 52 57  1  0
 53 61  1  0
 53 63  1  0
 54 60  1  0
 54 56  1  0
 55 61  1  0
 56 57  2  0
 56 55  1  0
 58 52  2  0
 59 58  1  0
 59 54  2  0
 60 53  1  0
 61 51  1  0
 63 65  2  0
 64 63  1  0
 66 64  1  0
 67 76  2  0
 67 72  1  0
 68 64  1  0
 68 72  1  0
 69 68  1  0
 70 71  1  0
 70 69  1  0
 71 67  1  0
 72 73  2  0
 73 74  1  0
 75 74  2  0
 76 75  1  0
 77 51  1  0
 77 78  1  0
 77 87  1  0
 78 81  1  0
 79 83  1  0
 79 78  1  0
 80 79  2  0
 83 82  1  0
 85 83  1  0
 85 86  1  0
 85 84  1  0
 87 90  1  1
 87 88  1  0
 89 87  1  0
M  ISO  4   8 100  16 100  49 101  50 101
M  END
>  <TORSDO>  (36) 
F 18

>  <SCORE>  (36) 
-14.706

>  <name>  (36) 
35

>  <ligand_id>  (36) 
35

>  <original_smiles>  (36) 
[H]C(Oc1c([H])c([H])c2c(c1[H])C([H])([H])N(C(=O)C([H])(N([H])C(=O)C([H])(N([H])C([H])([H])[H])C([H])([H])[H])C(C([H])([H])[H])(C([H])([H])[H])C([H])([H])[H])C([H])(C(=O)N([H])C1([H])c3c([H])c([H])c([H])c([H])c3C([H])([H])C([H])([H])C1([H])[H])C2([H])[H])=C([H])C(=O)c1c([H])c([H])c(N([H])C(=O)N2C([H])([H])C([H])([H])C([H])([H])C([H])(n3nc(-c4c([H])c([H])c(Oc5c([H])c([H])c(F)c([H])c5F)c([H])c4[H])c(C(=O)N([H])[H])c3N([H])[H])C2([H])[H])c([H])c1C([H])([H])[H]

>  <smiles>  (36) 
[H]C(Oc1c([H])c([H])c2c(c1[H])C([H])([H])N(C(=O)C([H])(N([H])C(=O)C([H])(N([H])C([H])([H])[H])C([H])([H])[H])C(C([H])([H])[H])(C([H])([H])[H])C([H])([H])[H])C([H])(C(=O)N([H])C1([H])c3c([H])c([H])c([H])c([H])c3C([H])([H])C([H])([H])C1([H])[H])C2([H])[H])=C([H])C(=O)c1c([H])c([H])c(N([H])C(=O)N2C([H])([H])C([H])([H])C([H])([H])C([H])(n3nc(-c4c([H])c([H])c(Oc5c([H])c([H])c(F)c([H])c5F)c([H])c4[H])c(C(=O)N([H])[H])c3N([H])[H])C2([H])[H])c([H])c1C([H])([H])[H]

$$$$
36:0:0
     RDKit          3D

 95103  0  0  1  0  0  0  0  0999 V2000
  -29.3080  -21.6160   19.6920 C   0  0  0  0  0  0  0  0  0  0  0  0
  -28.6770  -20.4720   20.0060 N   0  0  0  0  0  0  0  0  0  0  0  0
  -30.4480  -21.8760   20.0890 O   0  0  0  0  0  0  0  0  0  0  0  0
  -27.8020  -20.2660   19.5420 H   0  0  0  0  0  0  0  0  0  0  0  0
  -29.4430  -18.1110   20.3440 C   0  0  0  0  0  3  0  0  0  0  0  0
  -29.8740  -19.6160   21.9980 C   0  0  0  0  0  3  0  0  0  0  0  0
  -29.2820  -19.4520   20.7750 C   0  0  0  0  0  0  0  0  0  0  0  0
  -30.2850  -17.5230   21.2500 C   0  0  0  0  0  0  0  0  0  0  0  0
  -31.3430  -18.2120   23.4690 C   0  0  0  0  0  1  0  0  0  0  0  0
  -30.5250  -18.4280   22.2890 N   0  0  0  0  0  0  0  0  0  0  0  0
  -30.7430  -14.3010   19.7680 C   0  0  0  0  0  0  0  0  0  0  0  0
  -30.1340  -12.2910   18.4780 C   0  0  0  0  0  2  0  0  0  0  0  0
  -29.0750  -12.6110   17.4100 C   0  0  0  0  0  2  0  0  0  0  0  0
  -27.6660  -12.4780   18.0130 C   0  0  0  0  0  2  0  0  0  0  0  0
  -27.5060  -13.2580   19.3460 C   0  0  0  0  0  3  0  0  0  0  0  0
  -28.6740  -12.9550   20.3100 C   0  0  0  0  0  2  0  0  0  0  0  0
  -29.9340  -13.2250   19.5930 N   0  0  0  0  0  0  0  0  0  0  0  0
  -31.7840  -14.4590   19.1200 O   0  0  0  0  0  0  0  0  0  0  0  0
  -30.9900  -16.2330   21.1290 C   0  0  0  0  0  0  0  0  0  0  0  0
  -30.2710  -15.2450   20.5880 N   0  0  0  0  0  0  0  0  0  0  0  0
  -32.1590  -16.1110   21.5180 O   0  0  0  0  0  0  0  0  0  0  0  0
  -29.2720  -15.3000   20.6880 H   0  0  0  0  0  0  0  0  0  0  0  0
  -25.2120  -13.8800   20.3300 C   0  0  0  0  0  0  0  0  0  0  0  0
  -24.1780  -13.1130   20.7940 C   0  0  0  0  0  0  0  0  0  0  0  0
  -24.6100  -11.7550   20.6820 C   0  0  0  0  0  0  0  0  0  0  0  0
  -26.2110  -12.9920   19.9660 N   0  0  0  0  0  0  0  0  0  0  0  0
  -25.8590  -11.7070   20.2360 N   0  0  0  0  0  0  0  0  0  0  0  0
  -23.8880  -10.5000   20.9240 C   0  0  0  0  0  0  0  0  0  0  0  0
  -24.3770   -9.5260   21.8250 C   0  0  0  0  0  3  0  0  0  0  0  0
  -23.6530   -8.3360   22.0530 C   0  0  0  0  0  3  0  0  0  0  0  0
  -22.4270   -8.1090   21.3830 C   0  0  0  0  0  0  0  0  0  0  0  0
  -21.9550   -9.0720   20.4740 C   0  0  0  0  0  3  0  0  0  0  0  0
  -22.6790  -10.2540   20.2420 C   0  0  0  0  0  3  0  0  0  0  0  0
  -21.6710   -6.9710   21.5210 O   0  0  0  0  0  0  0  0  0  0  0  0
  -21.6690   -6.2460   22.6870 C   0  0  0  0  0  0  0  0  0  0  0  0
  -21.3070   -6.8250   23.9230 C   0  0  0  0  0  3  0  0  0  0  0  0
  -21.2490   -6.0290   25.0840 C   0  0  0  0  0  3  0  0  0  0  0  0
  -21.5450   -4.6550   25.0100 C   0  0  0  0  0  0  0  0  0  0  0  0
  -21.9000   -4.0740   23.7800 C   0  0  0  0  0  3  0  0  0  0  0  0
  -21.9590   -4.8680   22.6200 C   0  0  0  0  0  0  0  0  0  0  0  0
  -22.2810   -4.3020   21.4320 F   0  0  0  0  0  0  0  0  0  0  0  0
  -21.4820   -3.8850   26.1230 F   0  0  0  0  0  0  0  0  0  0  0  0
  -22.8260  -13.6030   21.2250 C   0  0  0  0  0  0  0  0  0  0  0  0
  -22.1920  -12.9100   22.1640 N   0  0  0  0  0  0  0  0  0  0  0  0
  -22.3440  -14.6390   20.7650 O   0  0  0  0  0  0  0  0  0  0  0  0
  -22.5920  -12.0700   22.5540 H   0  0  0  0  0  0  0  0  0  0  0  0
  -21.2920  -13.2240   22.4950 H   0  0  0  0  0  0  0  0  0  0  0  0
  -25.3780  -15.2520   20.1660 N   0  0  0  0  0  0  0  0  0  0  0  0
  -24.6370  -15.9110   20.3810 H   0  0  0  0  0  0  0  0  0  0  0  0
  -26.1920  -15.6940   19.7560 H   0  0  0  0  0  0  0  0  0  0  0  0
  -28.5720  -22.6380   18.8140 C   0  0  0  0  0  2  0  0  0  0  0  0
  -28.8230  -24.0920   19.2710 C   0  0  0  0  0  2  0  0  0  0  0  0
  -28.1700  -24.4480   20.6240 C   0  0  0  0  0  2  0  0  0  0  0  0
  -28.6410  -25.8030   21.1690 C   0  0  0  0  0  2  0  0  0  0  0  0
  -28.5000  -26.8070   20.1780 O   0  0  0  0  0  0  0  0  0  0  0  0
  -24.6140  -31.8910   23.2420 C   0  0  0  0  0  0  0  0  0  0  0  0
  -27.3120  -27.4800   20.2190 C   0  0  0  0  0  0  0  0  0  0  0  0
  -23.4210  -30.4720   21.5960 C   0  0  0  0  0  3  0  0  0  0  0  0
  -24.8950  -28.9180   20.2150 C   0  0  0  0  0  0  0  0  0  0  0  0
  -25.9420  -30.8490   21.4200 C   0  0  0  0  0  2  0  0  0  0  0  0
  -26.0400  -29.4710   20.8040 C   0  0  0  0  0  0  0  0  0  0  0  0
  -27.2500  -28.7530   20.8170 C   0  0  0  0  0  3  0  0  0  0  0  0
  -26.1600  -26.9300   19.6240 C   0  0  0  0  0  3  0  0  0  0  0  0
  -24.9440  -27.6390   19.6330 C   0  0  0  0  0  3  0  0  0  0  0  0
  -23.6480  -29.7700   20.2300 C   0  0  0  0  0  2  0  0  0  0  0  0
  -24.6750  -31.0860   22.1450 N   0  0  0  0  0  0  0  0  0  0  0  0
  -23.5290  -32.1650   23.7740 O   0  0  0  0  0  0  0  0  0  0  0  0
  -22.7640  -29.4630   22.5610 C   0  0  0  0  0  0  0  0  0  0  0  0
  -21.4410  -29.2810   22.4250 N   0  0  0  0  0  0  0  0  0  0  0  0
  -23.4420  -28.8410   23.3840 O   0  0  0  0  0  0  0  0  0  0  0  0
  -20.9590  -29.8300   21.7270 H   0  0  0  0  0  0  0  0  0  0  0  0
  -18.0620  -28.1010   22.9030 C   0  0  0  0  0  0  0  0  0  0  0  0
  -20.6170  -28.3520   23.1970 C   0  0  0  0  0  3  0  0  0  0  0  0
  -20.7230  -26.9160   22.6330 C   0  0  0  0  0  2  0  0  0  0  0  0
  -19.6290  -26.5890   21.6110 C   0  0  0  0  0  2  0  0  0  0  0  0
  -18.2410  -26.7450   22.2410 C   0  0  0  0  0  2  0  0  0  0  0  0
  -19.1790  -28.8640   23.3370 C   0  0  0  0  0  0  0  0  0  0  0  0
  -18.9610  -30.1330   23.9130 C   0  0  0  0  0  3  0  0  0  0  0  0
  -17.6570  -30.6430   24.0610 C   0  0  0  0  0  3  0  0  0  0  0  0
  -16.5550  -29.8770   23.6430 C   0  0  0  0  0  3  0  0  0  0  0  0
  -16.7580  -28.6090   23.0710 C   0  0  0  0  0  3  0  0  0  0  0  0
  -25.8980  -32.5250   23.8650 C   0  0  0  0  0  3  0  0  0  0  0  0
  -25.5850  -33.9210   24.1960 N   0  0  0  0  0  0  0  0  0  0  0  0
  -25.9180  -34.9740   23.4370 C   0  0  0  0  0  0  0  0  0  0  0  0
  -26.5920  -34.8730   22.4080 O   0  0  0  0  0  0  0  0  0  0  0  0
  -24.9890  -34.0740   24.9960 H   0  0  0  0  0  0  0  0  0  0  0  0
  -24.1820  -36.7560   23.0730 C   0  0  0  0  0  1  0  0  0  0  0  0
  -25.4220  -36.3610   23.8900 C   0  0  0  0  0  3  0  0  0  0  0  0
  -27.5490  -37.2550   24.7270 C   0  0  0  0  0  1  0  0  0  0  0  0
  -26.4500  -37.4180   23.7800 N   0  0  0  0  0  0  0  0  0  0  0  0
  -26.0390  -38.3370   23.9250 H   0  0  0  0  0  0  0  0  0  0  0  0
  -26.4190  -31.7510   25.1380 C   0  0  1  0  0  0  0  0  0  0  0  0
  -25.3260  -31.5050   26.2040 C   0  0  0  0  0  1  0  0  0  0  0  0
  -27.0110  -30.3780   24.7400 C   0  0  0  0  0  1  0  0  0  0  0  0
  -27.5640  -32.5480   25.8040 C   0  0  0  0  0  1  0  0  0  0  0  0
  1  2  1  0
  1  3  2  0
  2  7  1  0
  4  2  1  0
  5  7  1  0
  5  8  2  0
  6 10  1  0
  7  6  2  0
  8 10  1  0
 10  9  1  0
 11 20  1  0
 12 17  1  0
 13 14  1  0
 13 12  1  0
 15 14  1  0
 15 26  1  0
 15 16  1  0
 17 11  1  0
 17 16  1  0
 18 11  2  0
 19  8  1  0
 19 21  2  0
 20 22  1  0
 20 19  1  0
 23 24  2  0
 24 43  1  0
 25 24  1  0
 25 28  1  0
 26 27  1  0
 26 23  1  0
 27 25  2  0
 28 29  1  0
 29 30  2  0
 31 34  1  0
 31 30  1  0
 32 31  2  0
 33 32  1  0
 33 28  2  0
 34 35  1  0
 35 36  1  0
 36 37  2  0
 38 37  1  0
 38 42  1  0
 39 38  2  0
 40 35  2  0
 40 39  1  0
 41 40  1  0
 43 44  1  0
 44 47  1  0
 44 46  1  0
 45 43  2  0
 48 23  1  0
 48 49  1  0
 50 48  1  0
 51 52  1  0
 51  1  1  0
 52 53  1  0
 53 54  1  0
 55 57  1  0
 55 54  1  0
 56 67  2  0
 57 62  1  0
 58 66  1  0
 58 68  1  0
 59 65  1  0
 59 61  1  0
 60 66  1  0
 61 62  2  0
 61 60  1  0
 63 64  1  0
 63 57  2  0
 64 59  2  0
 65 58  1  0
 66 56  1  0
 68 70  2  0
 69 68  1  0
 71 69  1  0
 72 81  2  0
 72 77  1  0
 73 69  1  0
 73 77  1  0
 74 73  1  0
 75 76  1  0
 75 74  1  0
 76 72  1  0
 77 78  2  0
 78 79  1  0
 80 79  2  0
 81 80  1  0
 82 56  1  0
 82 83  1  0
 82 92  1  0
 83 86  1  0
 84 88  1  0
 84 83  1  0
 85 84  2  0
 88 87  1  0
 90 88  1  0
 90 91  1  0
 90 89  1  0
 92 95  1  1
 92 93  1  0
 94 92  1  0
M  ISO  4  11 100  20 100  54 101  55 101
M  END
>  <TORSDO>  (37) 
F 21

>  <SCORE>  (37) 
-11.556

>  <name>  (37) 
36

>  <ligand_id>  (37) 
36

>  <original_smiles>  (37) 
[H]c1c([H])c([H])c2c(c1[H])C([H])([H])C([H])([H])C([H])([H])C2([H])N([H])C(=O)C1([H])N(C(=O)C([H])(N([H])C(=O)C([H])(N([H])C([H])([H])[H])C([H])([H])[H])C(C([H])([H])[H])(C([H])([H])[H])C([H])([H])[H])C([H])([H])c2c([H])c(OC([H])([H])C([H])([H])C([H])([H])C([H])([H])C(=O)N([H])c3c([H])c(C(=O)N([H])C(=O)N4C([H])([H])C([H])([H])C([H])([H])C([H])(n5nc(-c6c([H])c([H])c(Oc7c([H])c([H])c(F)c([H])c7F)c([H])c6[H])c(C(=O)N([H])[H])c5N([H])[H])C4([H])[H])n(C([H])([H])[H])c3[H])c([H])c([H])c2C1([H])[H]

>  <smiles>  (37) 
[H]c1c([H])c([H])c2c(c1[H])C([H])([H])C([H])([H])C([H])([H])C2([H])N([H])C(=O)C1([H])N(C(=O)C([H])(N([H])C(=O)C([H])(N([H])C([H])([H])[H])C([H])([H])[H])C(C([H])([H])[H])(C([H])([H])[H])C([H])([H])[H])C([H])([H])c2c([H])c(OC([H])([H])C([H])([H])C([H])([H])C([H])([H])C(=O)N([H])c3c([H])c(C(=O)N([H])C(=O)N4C([H])([H])C([H])([H])C([H])([H])C([H])(n5nc(-c6c([H])c([H])c(Oc7c([H])c([H])c(F)c([H])c7F)c([H])c6[H])c(C(=O)N([H])[H])c5N([H])[H])C4([H])[H])n(C([H])([H])[H])c3[H])c([H])c([H])c2C1([H])[H]

$$$$
37:0:0
     RDKit          3D

 94102  0  0  1  0  0  0  0  0999 V2000
  -30.7500  -19.6640   21.2640 C   0  0  0  0  0  3  0  0  0  0  0  0
  -30.2500  -20.9900   21.1160 C   0  0  0  0  0  3  0  0  0  0  0  0
  -29.0410  -18.8050   19.8170 C   0  0  0  0  0  3  0  0  0  0  0  0
  -30.1720  -18.5260   20.6260 C   0  0  0  0  0  0  0  0  0  0  0  0
  -29.1180  -21.2660   20.3150 C   0  0  0  0  0  0  0  0  0  0  0  0
  -28.5190  -20.1400   19.6630 C   0  0  0  0  0  0  0  0  0  0  0  0
  -30.8420  -14.7330   20.2650 C   0  0  0  0  0  0  0  0  0  0  0  0
  -30.4940  -12.4880   19.2550 C   0  0  0  0  0  2  0  0  0  0  0  0
  -29.5670  -12.5920   18.0310 C   0  0  0  0  0  2  0  0  0  0  0  0
  -28.0970  -12.4420   18.4700 C   0  0  0  0  0  2  0  0  0  0  0  0
  -27.7430  -13.3480   19.6800 C   0  0  0  0  0  3  0  0  0  0  0  0
  -28.8110  -13.2810   20.7960 C   0  0  0  0  0  2  0  0  0  0  0  0
  -30.1090  -13.5750   20.1800 N   0  0  0  0  0  0  0  0  0  0  0  0
  -32.0200  -14.7090   19.9010 O   0  0  0  0  0  0  0  0  0  0  0  0
  -30.8470  -17.1360   20.7570 C   0  0  0  0  0  0  0  0  0  0  0  0
  -30.2090  -15.9330   20.5280 N   0  0  0  0  0  0  0  0  0  0  0  0
  -32.0300  -17.1670   21.1200 O   0  0  0  0  0  0  0  0  0  0  0  0
  -29.2050  -15.9450   20.4970 H   0  0  0  0  0  0  0  0  0  0  0  0
  -25.3710  -13.9640   20.4400 C   0  0  0  0  0  0  0  0  0  0  0  0
  -24.3010  -13.2000   20.8230 C   0  0  0  0  0  0  0  0  0  0  0  0
  -24.7500  -11.8440   20.7820 C   0  0  0  0  0  0  0  0  0  0  0  0
  -26.4020  -13.0740   20.1880 N   0  0  0  0  0  0  0  0  0  0  0  0
  -26.0360  -11.7940   20.4580 N   0  0  0  0  0  0  0  0  0  0  0  0
  -24.0120  -10.5910   20.9760 C   0  0  0  0  0  0  0  0  0  0  0  0
  -24.4270   -9.6250   21.9190 C   0  0  0  0  0  3  0  0  0  0  0  0
  -23.6900   -8.4350   22.0980 C   0  0  0  0  0  3  0  0  0  0  0  0
  -22.5210   -8.2020   21.3350 C   0  0  0  0  0  0  0  0  0  0  0  0
  -22.1250   -9.1540   20.3800 C   0  0  0  0  0  3  0  0  0  0  0  0
  -22.8630  -10.3360   20.1980 C   0  0  0  0  0  3  0  0  0  0  0  0
  -21.7560   -7.0640   21.4250 O   0  0  0  0  0  0  0  0  0  0  0  0
  -21.6680   -6.3450   22.5900 C   0  0  0  0  0  0  0  0  0  0  0  0
  -21.1640   -6.9130   23.7800 C   0  0  0  0  0  3  0  0  0  0  0  0
  -21.0280   -6.1190   24.9360 C   0  0  0  0  0  3  0  0  0  0  0  0
  -21.3840   -4.7570   24.9020 C   0  0  0  0  0  0  0  0  0  0  0  0
  -21.8790   -4.1890   23.7150 C   0  0  0  0  0  3  0  0  0  0  0  0
  -22.0190   -4.9800   22.5620 C   0  0  0  0  0  0  0  0  0  0  0  0
  -22.4770   -4.4220   21.4160 F   0  0  0  0  0  0  0  0  0  0  0  0
  -21.2440   -3.9920   26.0100 F   0  0  0  0  0  0  0  0  0  0  0  0
  -22.9140  -13.6930   21.1130 C   0  0  0  0  0  0  0  0  0  0  0  0
  -22.1820  -12.9930   21.9730 N   0  0  0  0  0  0  0  0  0  0  0  0
  -22.4860  -14.7340   20.6150 O   0  0  0  0  0  0  0  0  0  0  0  0
  -22.5380  -12.1510   22.3990 H   0  0  0  0  0  0  0  0  0  0  0  0
  -21.2510  -13.3070   22.2110 H   0  0  0  0  0  0  0  0  0  0  0  0
  -25.5480  -15.3330   20.2620 N   0  0  0  0  0  0  0  0  0  0  0  0
  -24.7820  -15.9900   20.3680 H   0  0  0  0  0  0  0  0  0  0  0  0
  -26.3900  -15.7590   19.9020 H   0  0  0  0  0  0  0  0  0  0  0  0
  -26.7900  -19.3300   18.1980 C   0  0  0  0  0  1  0  0  0  0  0  0
  -27.4230  -20.4160   18.8650 O   0  0  0  0  0  0  0  0  0  0  0  0
  -28.5290  -22.5700   20.1750 N   0  0  0  0  0  0  0  0  0  0  0  0
  -27.6590  -22.5480   19.6470 H   0  0  0  0  0  0  0  0  0  0  0  0
  -29.1670  -23.9310   20.2600 C   0  0  0  0  0  2  0  0  0  0  0  0
  -28.0890  -25.1550   22.2340 C   0  0  0  0  0  1  0  0  0  0  0  0
  -28.1850  -25.1210   20.7010 C   0  0  0  0  0  3  0  0  0  0  0  0
  -28.4480  -26.5260   20.2710 O   0  0  0  0  0  0  0  0  0  0  0  0
  -24.5470  -31.8590   23.1840 C   0  0  0  0  0  0  0  0  0  0  0  0
  -27.3390  -27.3840   20.1860 C   0  0  0  0  0  0  0  0  0  0  0  0
  -23.4210  -30.4530   21.4940 C   0  0  0  0  0  3  0  0  0  0  0  0
  -24.9470  -28.9510   20.0960 C   0  0  0  0  0  0  0  0  0  0  0  0
  -25.9560  -30.8290   21.3910 C   0  0  0  0  0  2  0  0  0  0  0  0
  -26.0860  -29.4570   20.7390 C   0  0  0  0  0  0  0  0  0  0  0  0
  -27.2860  -28.6850   20.7770 C   0  0  0  0  0  3  0  0  0  0  0  0
  -26.1880  -26.9470   19.4920 C   0  0  0  0  0  3  0  0  0  0  0  0
  -25.0020  -27.7020   19.4600 C   0  0  0  0  0  3  0  0  0  0  0  0
  -23.6910  -29.7980   20.1140 C   0  0  0  0  0  2  0  0  0  0  0  0
  -24.6580  -31.0640   22.0810 N   0  0  0  0  0  0  0  0  0  0  0  0
  -23.4430  -32.1070   23.6890 O   0  0  0  0  0  0  0  0  0  0  0  0
  -22.7550  -29.4100   22.4250 C   0  0  0  0  0  0  0  0  0  0  0  0
  -21.4310  -29.2280   22.2810 N   0  0  0  0  0  0  0  0  0  0  0  0
  -23.4280  -28.7730   23.2390 O   0  0  0  0  0  0  0  0  0  0  0  0
  -20.9470  -29.7970   21.6020 H   0  0  0  0  0  0  0  0  0  0  0  0
  -18.0450  -28.0560   22.7750 C   0  0  0  0  0  0  0  0  0  0  0  0
  -20.6100  -28.2720   23.0260 C   0  0  0  0  0  3  0  0  0  0  0  0
  -20.6870  -26.8630   22.3940 C   0  0  0  0  0  2  0  0  0  0  0  0
  -19.5700  -26.5960   21.3800 C   0  0  0  0  0  2  0  0  0  0  0  0
  -18.1970  -26.7320   22.0440 C   0  0  0  0  0  2  0  0  0  0  0  0
  -19.1780  -28.7870   23.2210 C   0  0  0  0  0  0  0  0  0  0  0  0
  -18.9820  -30.0280   23.8640 C   0  0  0  0  0  3  0  0  0  0  0  0
  -17.6850  -30.5370   24.0670 C   0  0  0  0  0  3  0  0  0  0  0  0
  -16.5670  -29.8030   23.6340 C   0  0  0  0  0  3  0  0  0  0  0  0
  -16.7470  -28.5650   22.9930 C   0  0  0  0  0  3  0  0  0  0  0  0
  -25.7980  -32.5120   23.8500 C   0  0  0  0  0  3  0  0  0  0  0  0
  -26.2800  -31.7490   25.1460 C   0  0  1  0  0  0  0  0  0  0  0  0
  -25.1520  -31.4880   26.1700 C   0  0  0  0  0  1  0  0  0  0  0  0
  -26.9060  -30.3830   24.7770 C   0  0  0  0  0  1  0  0  0  0  0  0
  -27.3830  -32.5680   25.8530 C   0  0  0  0  0  1  0  0  0  0  0  0
  -25.4560  -33.9060   24.1650 N   0  0  0  0  0  0  0  0  0  0  0  0
  -25.8020  -34.9640   23.4190 C   0  0  0  0  0  0  0  0  0  0  0  0
  -26.5160  -34.8700   22.4170 O   0  0  0  0  0  0  0  0  0  0  0  0
  -24.8300  -34.0520   24.9430 H   0  0  0  0  0  0  0  0  0  0  0  0
  -24.0880  -36.7500   22.9660 C   0  0  0  0  0  1  0  0  0  0  0  0
  -25.2760  -36.3440   23.8540 C   0  0  0  0  0  3  0  0  0  0  0  0
  -27.3350  -37.2470   24.8400 C   0  0  0  0  0  1  0  0  0  0  0  0
  -26.3040  -37.4070   23.8180 N   0  0  0  0  0  0  0  0  0  0  0  0
  -25.8800  -38.3230   23.9370 H   0  0  0  0  0  0  0  0  0  0  0  0
  2  1  1  0
  3  4  1  0
  4 15  1  0
  4  1  2  0
  5  2  2  0
  6  3  2  0
  6  5  1  0
  7 16  1  0
  8 13  1  0
  9 10  1  0
  9  8  1  0
 11 10  1  0
 11 22  1  0
 11 12  1  0
 13  7  1  0
 13 12  1  0
 14  7  2  0
 15 17  2  0
 16 15  1  0
 18 16  1  0
 19 20  2  0
 20 39  1  0
 21 20  1  0
 21 24  1  0
 22 19  1  0
 22 23  1  0
 23 21  2  0
 24 25  1  0
 25 26  2  0
 27 30  1  0
 27 26  1  0
 28 27  2  0
 29 28  1  0
 29 24  2  0
 30 31  1  0
 31 32  1  0
 32 33  2  0
 34 33  1  0
 34 38  1  0
 35 34  2  0
 36 31  2  0
 36 35  1  0
 37 36  1  0
 39 40  1  0
 40 43  1  0
 40 42  1  0
 41 39  2  0
 44 45  1  0
 44 19  1  0
 46 44  1  0
 47 48  1  0
 48  6  1  0
 49 51  1  0
 49  5  1  0
 50 49  1  0
 51 53  1  0
 53 52  1  0
 54 53  1  0
 55 66  2  0
 56 54  1  0
 56 61  1  0
 57 65  1  0
 57 67  1  0
 58 64  1  0
 58 60  1  0
 59 65  1  0
 60 61  2  0
 60 59  1  0
 62 56  2  0
 63 62  1  0
 63 58  2  0
 64 57  1  0
 65 55  1  0
 67 69  2  0
 68 67  1  0
 70 68  1  0
 71 80  2  0
 71 76  1  0
 72 68  1  0
 72 76  1  0
 73 72  1  0
 74 75  1  0
 74 73  1  0
 75 71  1  0
 76 77  2  0
 77 78  1  0
 79 78  2  0
 80 79  1  0
 81 55  1  0
 81 86  1  0
 81 82  1  0
 82 85  1  1
 82 83  1  0
 84 82  1  0
 86 89  1  0
 87 91  1  0
 87 86  1  0
 88 87  2  0
 91 90  1  0
 93 91  1  0
 93 94  1  0
 93 92  1  0
M  ISO  4   7 100  16 100  53 101  54 101
M  END
>  <TORSDO>  (38) 
F 20

>  <SCORE>  (38) 
-14.095

>  <name>  (38) 
37

>  <ligand_id>  (38) 
37

>  <original_smiles>  (38) 
[H]c1c([H])c([H])c2c(c1[H])C([H])([H])C([H])([H])C([H])([H])C2([H])N([H])C(=O)C1([H])N(C(=O)C([H])(N([H])C(=O)C([H])(N([H])C([H])([H])[H])C([H])([H])[H])C(C([H])([H])[H])(C([H])([H])[H])C([H])([H])[H])C([H])([H])c2c([H])c(OC([H])(C([H])([H])[H])C([H])([H])N([H])c3c([H])c([H])c(C(=O)N([H])C(=O)N4C([H])([H])C([H])([H])C([H])([H])C([H])(n5nc(-c6c([H])c([H])c(Oc7c([H])c([H])c(F)c([H])c7F)c([H])c6[H])c(C(=O)N([H])[H])c5N([H])[H])C4([H])[H])c([H])c3OC([H])([H])[H])c([H])c([H])c2C1([H])[H]

>  <smiles>  (38) 
[H]c1c([H])c([H])c2c(c1[H])C([H])([H])C([H])([H])C([H])([H])C2([H])N([H])C(=O)C1([H])N(C(=O)C([H])(N([H])C(=O)C([H])(N([H])C([H])([H])[H])C([H])([H])[H])C(C([H])([H])[H])(C([H])([H])[H])C([H])([H])[H])C([H])([H])c2c([H])c(OC([H])(C([H])([H])[H])C([H])([H])N([H])c3c([H])c([H])c(C(=O)N([H])C(=O)N4C([H])([H])C([H])([H])C([H])([H])C([H])(n5nc(-c6c([H])c([H])c(Oc7c([H])c([H])c(F)c([H])c7F)c([H])c6[H])c(C(=O)N([H])[H])c5N([H])[H])C4([H])[H])c([H])c3OC([H])([H])[H])c([H])c([H])c2C1([H])[H]

$$$$
38:0:0
     RDKit          3D

 94103  0  0  1  0  0  0  0  0999 V2000
  -30.3220  -23.9180   19.1270 C   0  0  0  0  0  2  0  0  0  0  0  0
  -30.7210  -22.4450   19.3890 C   0  0  0  0  0  2  0  0  0  0  0  0
  -28.6220  -22.8590   20.4030 C   0  0  0  0  0  2  0  0  0  0  0  0
  -29.2320  -24.2530   20.1580 C   0  0  0  0  0  3  0  0  0  0  0  0
  -29.7070  -21.8500   20.2990 N   0  0  1  0  0  4  0  0  0  0  0  0
  -30.1360  -21.8170   21.2120 H   0  0  0  0  0  0  0  0  0  0  0  0
  -27.9740  -20.0600   20.7640 C   0  0  0  0  0  1  0  0  0  0  0  0
  -29.2520  -20.4460   19.9790 C   0  0  0  0  0  3  0  0  0  0  0  0
  -32.5610  -18.5490   20.7210 C   0  0  0  0  0  3  0  0  0  0  0  0
  -31.6500  -19.6020   20.5060 C   0  0  0  0  0  3  0  0  0  0  0  0
  -32.1420  -17.2080   20.6280 C   0  0  0  0  0  3  0  0  0  0  0  0
  -29.8970  -17.9660   20.0780 C   0  0  0  0  0  3  0  0  0  0  0  0
  -30.3030  -19.3280   20.1710 C   0  0  0  0  0  0  0  0  0  0  0  0
  -30.8010  -16.8970   20.3060 C   0  0  0  0  0  0  0  0  0  0  0  0
  -30.9750  -14.4570   19.7980 C   0  0  0  0  0  0  0  0  0  0  0  0
  -30.5890  -12.1920   18.8940 C   0  0  0  0  0  2  0  0  0  0  0  0
  -29.5660  -12.2590   17.7430 C   0  0  0  0  0  2  0  0  0  0  0  0
  -28.1270  -12.1660   18.2860 C   0  0  0  0  0  2  0  0  0  0  0  0
  -27.8670  -13.1390   19.4670 C   0  0  0  0  0  3  0  0  0  0  0  0
  -28.9980  -13.0560   20.5180 C   0  0  0  0  0  2  0  0  0  0  0  0
  -30.2780  -13.2880   19.8280 N   0  0  0  0  0  0  0  0  0  0  0  0
  -32.0690  -14.5570   19.2330 O   0  0  0  0  0  0  0  0  0  0  0  0
  -30.3290  -15.5430   20.2720 N   0  0  0  0  0  0  0  0  0  0  0  0
  -29.3770  -15.3860   20.5640 H   0  0  0  0  0  0  0  0  0  0  0  0
  -25.5910  -13.8410   20.4410 C   0  0  0  0  0  0  0  0  0  0  0  0
  -24.5130  -13.1140   20.8700 C   0  0  0  0  0  0  0  0  0  0  0  0
  -24.8800  -11.7410   20.7220 C   0  0  0  0  0  0  0  0  0  0  0  0
  -26.5500  -12.9150   20.0630 N   0  0  0  0  0  0  0  0  0  0  0  0
  -26.1310  -11.6430   20.2890 N   0  0  0  0  0  0  0  0  0  0  0  0
  -24.0930  -10.5150   20.9150 C   0  0  0  0  0  0  0  0  0  0  0  0
  -24.4840   -9.5260   21.8440 C   0  0  0  0  0  3  0  0  0  0  0  0
  -23.7040   -8.3650   22.0260 C   0  0  0  0  0  3  0  0  0  0  0  0
  -22.5160   -8.1840   21.2780 C   0  0  0  0  0  0  0  0  0  0  0  0
  -22.1420   -9.1620   20.3400 C   0  0  0  0  0  3  0  0  0  0  0  0
  -22.9230  -10.3140   20.1560 C   0  0  0  0  0  3  0  0  0  0  0  0
  -21.7090   -7.0760   21.3690 O   0  0  0  0  0  0  0  0  0  0  0  0
  -21.5660   -6.3840   22.5450 C   0  0  0  0  0  0  0  0  0  0  0  0
  -21.0490   -6.9920   23.7100 C   0  0  0  0  0  3  0  0  0  0  0  0
  -20.8520   -6.2260   24.8770 C   0  0  0  0  0  3  0  0  0  0  0  0
  -21.1630   -4.8530   24.8780 C   0  0  0  0  0  0  0  0  0  0  0  0
  -21.6720   -4.2450   23.7190 C   0  0  0  0  0  3  0  0  0  0  0  0
  -21.8710   -5.0080   22.5550 C   0  0  0  0  0  0  0  0  0  0  0  0
  -22.3420   -4.4120   21.4320 F   0  0  0  0  0  0  0  0  0  0  0  0
  -20.9680   -4.1150   25.9970 F   0  0  0  0  0  0  0  0  0  0  0  0
  -23.1810  -13.6590   21.3000 C   0  0  0  0  0  0  0  0  0  0  0  0
  -22.4870  -12.9530   22.1860 N   0  0  0  0  0  0  0  0  0  0  0  0
  -22.7700  -14.7410   20.8870 O   0  0  0  0  0  0  0  0  0  0  0  0
  -22.8340  -12.0750   22.5430 H   0  0  0  0  0  0  0  0  0  0  0  0
  -21.5960  -13.2980   22.5140 H   0  0  0  0  0  0  0  0  0  0  0  0
  -25.8250  -15.2080   20.3190 N   0  0  0  0  0  0  0  0  0  0  0  0
  -25.1100  -15.8950   20.5290 H   0  0  0  0  0  0  0  0  0  0  0  0
  -26.6590  -15.6130   19.9140 H   0  0  0  0  0  0  0  0  0  0  0  0
  -28.1500  -25.2730   19.7030 C   0  0  0  0  0  2  0  0  0  0  0  0
  -28.3260  -26.6730   20.0340 O   0  0  0  0  0  0  0  0  0  0  0  0
  -24.4060  -31.7570   23.1900 C   0  0  0  0  0  0  0  0  0  0  0  0
  -27.1630  -27.4350   19.9990 C   0  0  0  0  0  0  0  0  0  0  0  0
  -23.2460  -30.3810   21.4990 C   0  0  0  0  0  3  0  0  0  0  0  0
  -24.7420  -28.9240   20.0400 C   0  0  0  0  0  0  0  0  0  0  0  0
  -25.7730  -30.7880   21.3400 C   0  0  0  0  0  2  0  0  0  0  0  0
  -25.8900  -29.4400   20.6520 C   0  0  0  0  0  0  0  0  0  0  0  0
  -27.1030  -28.7040   20.6290 C   0  0  0  0  0  3  0  0  0  0  0  0
  -25.9890  -26.9580   19.3610 C   0  0  0  0  0  3  0  0  0  0  0  0
  -24.7880  -27.6840   19.3900 C   0  0  0  0  0  3  0  0  0  0  0  0
  -23.4820  -29.7560   20.1010 C   0  0  0  0  0  2  0  0  0  0  0  0
  -24.4930  -30.9890   22.0680 N   0  0  0  0  0  0  0  0  0  0  0  0
  -23.3140  -31.9900   23.7260 O   0  0  0  0  0  0  0  0  0  0  0  0
  -22.6080  -29.3140   22.4210 C   0  0  0  0  0  0  0  0  0  0  0  0
  -21.2890  -29.1060   22.2780 N   0  0  0  0  0  0  0  0  0  0  0  0
  -23.3000  -28.6790   23.2220 O   0  0  0  0  0  0  0  0  0  0  0  0
  -20.7920  -29.6760   21.6070 H   0  0  0  0  0  0  0  0  0  0  0  0
  -17.9330  -27.8440   22.7290 C   0  0  0  0  0  0  0  0  0  0  0  0
  -20.4860  -28.1300   23.0150 C   0  0  0  0  0  3  0  0  0  0  0  0
  -20.6090  -26.7210   22.3910 C   0  0  0  0  0  2  0  0  0  0  0  0
  -19.5150  -26.4170   21.3620 C   0  0  0  0  0  2  0  0  0  0  0  0
  -18.1290  -26.5220   22.0060 C   0  0  0  0  0  2  0  0  0  0  0  0
  -19.0390  -28.6070   23.1880 C   0  0  0  0  0  0  0  0  0  0  0  0
  -18.8010  -29.8460   23.8200 C   0  0  0  0  0  3  0  0  0  0  0  0
  -17.4890  -30.3230   24.0000 C   0  0  0  0  0  3  0  0  0  0  0  0
  -16.3970  -29.5570   23.5590 C   0  0  0  0  0  3  0  0  0  0  0  0
  -16.6200  -28.3180   22.9290 C   0  0  0  0  0  3  0  0  0  0  0  0
  -25.6720  -32.4000   23.8380 C   0  0  0  0  0  3  0  0  0  0  0  0
  -26.1560  -31.6440   25.1360 C   0  0  1  0  0  0  0  0  0  0  0  0
  -25.0360  -31.4090   26.1750 C   0  0  0  0  0  1  0  0  0  0  0  0
  -26.7620  -30.2680   24.7720 C   0  0  0  0  0  1  0  0  0  0  0  0
  -27.2790  -32.4550   25.8250 C   0  0  0  0  0  1  0  0  0  0  0  0
  -25.3510  -33.7990   24.1420 N   0  0  0  0  0  0  0  0  0  0  0  0
  -25.6690  -34.8410   23.3620 C   0  0  0  0  0  0  0  0  0  0  0  0
  -26.3380  -34.7270   22.3310 O   0  0  0  0  0  0  0  0  0  0  0  0
  -24.7570  -33.9610   24.9420 H   0  0  0  0  0  0  0  0  0  0  0  0
  -23.9030  -36.5960   22.9940 C   0  0  0  0  0  1  0  0  0  0  0  0
  -25.1640  -36.2310   23.7950 C   0  0  0  0  0  3  0  0  0  0  0  0
  -27.2950  -37.1740   24.5720 C   0  0  0  0  0  1  0  0  0  0  0  0
  -26.1740  -37.3020   23.6450 N   0  0  0  0  0  0  0  0  0  0  0  0
  -25.7490  -38.2150   23.7880 H   0  0  0  0  0  0  0  0  0  0  0  0
  1  2  1  0
  1  4  1  0
  2  5  1  0
  4 53  1  0
  4  3  1  0
  5  3  1  0
  5  6  1  1
  8 13  1  0
  8  5  1  0
  8  7  1  0
 10  9  2  0
 11  9  1  0
 12 13  2  0
 12 14  1  0
 13 10  1  0
 14 11  2  0
 15 21  1  0
 15 23  1  0
 16 21  1  0
 17 18  1  0
 17 16  1  0
 19 18  1  0
 19 28  1  0
 19 20  1  0
 21 20  1  0
 22 15  2  0
 23 14  1  0
 23 24  1  0
 25 26  2  0
 26 45  1  0
 27 26  1  0
 27 30  1  0
 28 29  1  0
 28 25  1  0
 29 27  2  0
 30 31  1  0
 31 32  2  0
 33 36  1  0
 33 32  1  0
 34 33  2  0
 35 34  1  0
 35 30  2  0
 36 37  1  0
 37 42  2  0
 37 38  1  0
 38 39  2  0
 39 40  1  0
 40 44  1  0
 41 40  2  0
 42 41  1  0
 43 42  1  0
 45 46  1  0
 46 49  1  0
 46 48  1  0
 47 45  2  0
 50 25  1  0
 50 51  1  0
 52 50  1  0
 53 54  1  0
 55 66  2  0
 56 54  1  0
 56 61  1  0
 57 65  1  0
 57 67  1  0
 58 64  1  0
 58 60  1  0
 59 65  1  0
 60 59  1  0
 61 60  2  0
 62 63  1  0
 62 56  2  0
 63 58  2  0
 64 57  1  0
 65 55  1  0
 67 69  2  0
 68 67  1  0
 70 68  1  0
 71 80  2  0
 71 76  1  0
 72 68  1  0
 72 76  1  0
 73 72  1  0
 74 75  1  0
 74 73  1  0
 75 71  1  0
 76 77  2  0
 77 78  1  0
 79 78  2  0
 80 79  1  0
 81 55  1  0
 81 86  1  0
 81 82  1  0
 82 85  1  1
 82 83  1  0
 84 82  1  0
 86 89  1  0
 87 91  1  0
 87 86  1  0
 88 87  2  0
 91 90  1  0
 93 94  1  0
 93 91  1  0
 93 92  1  0
M  ISO  4  15 100  23 100  53 101  54 101
M  END
>  <TORSDO>  (39) 
F 19

>  <SCORE>  (39) 
-13.504

>  <name>  (39) 
38

>  <ligand_id>  (39) 
38

>  <original_smiles>  (39) 
[H]c1c([H])c([H])c2c(c1[H])C([H])([H])C([H])([H])C([H])([H])C2([H])N([H])C(=O)C1([H])N(C(=O)C([H])(N([H])C(=O)C([H])(N([H])C([H])([H])[H])C([H])([H])[H])C(C([H])([H])[H])(C([H])([H])[H])C([H])([H])[H])C([H])([H])c2c([H])c(OC([H])([H])C3([H])C([H])([H])C([H])([H])[N+]([H])(C([H])(c4c([H])c([H])c([H])c(N([H])C(=O)N5C([H])([H])C([H])([H])C([H])([H])C([H])(n6nc(-c7c([H])c([H])c(Oc8c([H])c([H])c(F)c([H])c8F)c([H])c7[H])c(C(=O)N([H])[H])c6N([H])[H])C5([H])[H])c4[H])C([H])([H])[H])C3([H])[H])c([H])c([H])c2C1([H])[H]

>  <smiles>  (39) 
[H]c1c([H])c([H])c2c(c1[H])C([H])([H])C([H])([H])C([H])([H])C2([H])N([H])C(=O)C1([H])N(C(=O)C([H])(N([H])C(=O)C([H])(N([H])C([H])([H])[H])C([H])([H])[H])C(C([H])([H])[H])(C([H])([H])[H])C([H])([H])[H])C([H])([H])c2c([H])c(OC([H])([H])C3([H])C([H])([H])C([H])([H])[N+]([H])(C([H])(c4c([H])c([H])c([H])c(N([H])C(=O)N5C([H])([H])C([H])([H])C([H])([H])C([H])(n6nc(-c7c([H])c([H])c(Oc8c([H])c([H])c(F)c([H])c8F)c([H])c7[H])c(C(=O)N([H])[H])c6N([H])[H])C5([H])[H])c4[H])C([H])([H])[H])C3([H])[H])c([H])c([H])c2C1([H])[H]

$$$$
39:0:0
     RDKit          3D

 92100  0  0  1  0  0  0  0  0999 V2000
  -29.1270  -21.2280   20.2510 N   0  0  0  0  0  0  0  0  0  0  0  0
  -28.5170  -21.1660   19.4410 H   0  0  0  0  0  0  0  0  0  0  0  0
  -29.3880  -18.6240   20.2320 C   0  0  0  0  0  3  0  0  0  0  0  0
  -30.5730  -20.0240   21.7510 C   0  0  0  0  0  3  0  0  0  0  0  0
  -29.9310  -17.4620   20.7590 C   0  0  0  0  0  0  0  0  0  0  0  0
  -29.6950  -20.0040   20.7310 C   0  0  0  0  0  0  0  0  0  0  0  0
  -30.8910  -17.6000   21.8640 C   0  0  0  0  0  0  0  0  0  0  0  0
  -31.1450  -18.8610   22.2760 N   0  0  0  0  0  0  0  0  0  0  0  0
  -31.4320  -16.6530   22.4380 O   0  0  0  0  0  0  0  0  0  0  0  0
  -31.7950  -18.9760   23.0420 H   0  0  0  0  0  0  0  0  0  0  0  0
  -29.4550  -15.9950   20.4040 C   0  0  0  0  0  2  0  0  0  0  0  0
  -30.3670  -14.7420   20.0080 C   0  0  0  0  0  0  0  0  0  0  0  0
  -30.1950  -12.4980   18.9270 C   0  0  0  0  0  2  0  0  0  0  0  0
  -29.1680  -12.6100   17.7750 C   0  0  0  0  0  2  0  0  0  0  0  0
  -27.7280  -12.3970   18.2880 C   0  0  0  0  0  2  0  0  0  0  0  0
  -27.4240  -13.2280   19.5620 C   0  0  0  0  0  3  0  0  0  0  0  0
  -28.5560  -13.0820   20.6010 C   0  0  0  0  0  2  0  0  0  0  0  0
  -29.8160  -13.4840   19.9610 N   0  0  0  0  0  0  0  0  0  0  0  0
  -31.5030  -14.9350   19.5640 O   0  0  0  0  0  0  0  0  0  0  0  0
  -25.0760  -13.7630   20.4570 C   0  0  0  0  0  0  0  0  0  0  0  0
  -24.0490  -12.9590   20.8730 C   0  0  0  0  0  0  0  0  0  0  0  0
  -24.5310  -11.6180   20.7730 C   0  0  0  0  0  0  0  0  0  0  0  0
  -26.1160  -12.9080   20.1280 N   0  0  0  0  0  0  0  0  0  0  0  0
  -25.7990  -11.6130   20.3780 N   0  0  0  0  0  0  0  0  0  0  0  0
  -23.8420  -10.3380   20.9730 C   0  0  0  0  0  0  0  0  0  0  0  0
  -24.3100   -9.3850   21.9040 C   0  0  0  0  0  3  0  0  0  0  0  0
  -23.6200   -8.1690   22.0920 C   0  0  0  0  0  3  0  0  0  0  0  0
  -22.4460   -7.8960   21.3500 C   0  0  0  0  0  0  0  0  0  0  0  0
  -21.9980   -8.8390   20.4080 C   0  0  0  0  0  3  0  0  0  0  0  0
  -22.6890  -10.0460   20.2170 C   0  0  0  0  0  3  0  0  0  0  0  0
  -21.7240   -6.7310   21.4460 O   0  0  0  0  0  0  0  0  0  0  0  0
  -21.6720   -6.0120   22.6130 C   0  0  0  0  0  0  0  0  0  0  0  0
  -21.1710   -6.5690   23.8110 C   0  0  0  0  0  3  0  0  0  0  0  0
  -21.0710   -5.7730   24.9690 C   0  0  0  0  0  3  0  0  0  0  0  0
  -21.4640   -4.4210   24.9320 C   0  0  0  0  0  0  0  0  0  0  0  0
  -21.9590   -3.8640   23.7400 C   0  0  0  0  0  3  0  0  0  0  0  0
  -22.0600   -4.6570   22.5830 C   0  0  0  0  0  0  0  0  0  0  0  0
  -22.5180   -4.1100   21.4310 F   0  0  0  0  0  0  0  0  0  0  0  0
  -21.3610   -3.6540   26.0420 F   0  0  0  0  0  0  0  0  0  0  0  0
  -22.6640  -13.4010   21.2500 C   0  0  0  0  0  0  0  0  0  0  0  0
  -22.0080  -12.6700   22.1440 N   0  0  0  0  0  0  0  0  0  0  0  0
  -22.1730  -14.4310   20.7880 O   0  0  0  0  0  0  0  0  0  0  0  0
  -22.4200  -11.8370   22.5390 H   0  0  0  0  0  0  0  0  0  0  0  0
  -21.0830  -12.9460   22.4380 H   0  0  0  0  0  0  0  0  0  0  0  0
  -25.2050  -15.1410   20.3120 N   0  0  0  0  0  0  0  0  0  0  0  0
  -24.4390  -15.7780   20.5000 H   0  0  0  0  0  0  0  0  0  0  0  0
  -26.0300  -15.6070   19.9550 H   0  0  0  0  0  0  0  0  0  0  0  0
  -29.0160  -22.5710   20.9430 C   0  0  0  0  0  2  0  0  0  0  0  0
  -28.7580  -23.9090   20.1200 C   0  0  0  0  0  0  0  0  0  0  0  0
  -28.9780  -23.9350   18.9040 O   0  0  0  0  0  0  0  0  0  0  0  0
  -28.1940  -25.1940   20.8680 C   0  0  0  0  0  2  0  0  0  0  0  0
  -28.3680  -26.5250   20.2280 O   0  0  0  0  0  0  0  0  0  0  0  0
  -24.5890  -31.9240   23.2290 C   0  0  0  0  0  0  0  0  0  0  0  0
  -27.2490  -27.3690   20.2150 C   0  0  0  0  0  0  0  0  0  0  0  0
  -23.4010  -30.5060   21.5930 C   0  0  0  0  0  3  0  0  0  0  0  0
  -24.8700  -28.9540   20.1840 C   0  0  0  0  0  0  0  0  0  0  0  0
  -25.9370  -30.8460   21.4130 C   0  0  0  0  0  2  0  0  0  0  0  0
  -26.0330  -29.4630   20.7770 C   0  0  0  0  0  0  0  0  0  0  0  0
  -27.2280  -28.6840   20.7780 C   0  0  0  0  0  3  0  0  0  0  0  0
  -26.0650  -26.9090   19.6020 C   0  0  0  0  0  3  0  0  0  0  0  0
  -24.8880  -27.6830   19.5860 C   0  0  0  0  0  3  0  0  0  0  0  0
  -23.6250  -29.8200   20.2190 C   0  0  0  0  0  2  0  0  0  0  0  0
  -24.6600  -31.1100   22.1350 N   0  0  0  0  0  0  0  0  0  0  0  0
  -23.5020  -32.1960   23.7590 O   0  0  0  0  0  0  0  0  0  0  0  0
  -22.7420  -29.4920   22.5580 C   0  0  0  0  0  0  0  0  0  0  0  0
  -21.4160  -29.3080   22.4290 N   0  0  0  0  0  0  0  0  0  0  0  0
  -23.4210  -28.8730   23.3810 O   0  0  0  0  0  0  0  0  0  0  0  0
  -20.9280  -29.8570   21.7360 H   0  0  0  0  0  0  0  0  0  0  0  0
  -18.0390  -28.1270   22.9570 C   0  0  0  0  0  0  0  0  0  0  0  0
  -20.6010  -28.3710   23.2020 C   0  0  0  0  0  3  0  0  0  0  0  0
  -20.6890  -26.9420   22.6170 C   0  0  0  0  0  2  0  0  0  0  0  0
  -19.5740  -26.6320   21.6120 C   0  0  0  0  0  2  0  0  0  0  0  0
  -18.2000  -26.7810   22.2720 C   0  0  0  0  0  2  0  0  0  0  0  0
  -19.1660  -28.8810   23.3800 C   0  0  0  0  0  0  0  0  0  0  0  0
  -18.9600  -30.1410   23.9810 C   0  0  0  0  0  3  0  0  0  0  0  0
  -17.6590  -30.6480   24.1640 C   0  0  0  0  0  3  0  0  0  0  0  0
  -16.5470  -29.8920   23.7570 C   0  0  0  0  0  3  0  0  0  0  0  0
  -16.7370  -28.6340   23.1590 C   0  0  0  0  0  3  0  0  0  0  0  0
  -25.8650  -32.5680   23.8530 C   0  0  0  0  0  3  0  0  0  0  0  0
  -25.5470  -33.9680   24.1700 N   0  0  0  0  0  0  0  0  0  0  0  0
  -25.8890  -35.0170   23.4110 C   0  0  0  0  0  0  0  0  0  0  0  0
  -26.5740  -34.9100   22.3910 O   0  0  0  0  0  0  0  0  0  0  0  0
  -24.9400  -34.1250   24.9620 H   0  0  0  0  0  0  0  0  0  0  0  0
  -24.1730  -36.8130   23.0100 C   0  0  0  0  0  1  0  0  0  0  0  0
  -25.3920  -36.4070   23.8540 C   0  0  0  0  0  3  0  0  0  0  0  0
  -27.5030  -37.2920   24.7430 C   0  0  0  0  0  1  0  0  0  0  0  0
  -26.4280  -37.4590   23.7680 N   0  0  0  0  0  0  0  0  0  0  0  0
  -26.0180  -38.3800   23.9040 H   0  0  0  0  0  0  0  0  0  0  0  0
  -26.3780  -31.8110   25.1400 C   0  0  1  0  0  0  0  0  0  0  0  0
  -25.2800  -31.5720   26.2020 C   0  0  0  0  0  1  0  0  0  0  0  0
  -26.9740  -30.4340   24.7620 C   0  0  0  0  0  1  0  0  0  0  0  0
  -27.5190  -32.6190   25.8030 C   0  0  0  0  0  1  0  0  0  0  0  0
  1  6  1  0
  1 48  1  0
  2  1  1  0
  3  6  1  0
  3  5  2  0
  4  8  1  0
  5  7  1  0
  6  4  2  0
  7  8  1  0
  7  9  2  0
  8 10  1  0
 11  5  1  0
 12 11  1  0
 13 18  1  0
 14 15  1  0
 14 13  1  0
 16 15  1  0
 16 23  1  0
 16 17  1  0
 18 12  1  0
 18 17  1  0
 19 12  2  0
 20 21  2  0
 21 40  1  0
 22 21  1  0
 22 25  1  0
 23 24  1  0
 23 20  1  0
 24 22  2  0
 25 26  1  0
 26 27  2  0
 28 31  1  0
 28 27  1  0
 29 28  2  0
 30 29  1  0
 30 25  2  0
 31 32  1  0
 32 33  1  0
 33 34  2  0
 35 34  1  0
 35 39  1  0
 36 35  2  0
 37 32  2  0
 37 36  1  0
 38 37  1  0
 40 41  1  0
 41 44  1  0
 41 43  1  0
 42 40  2  0
 45 20  1  0
 45 46  1  0
 47 45  1  0
 49 51  1  0
 49 48  1  0
 50 49  2  0
 52 51  1  0
 53 64  2  0
 54 52  1  0
 54 59  1  0
 55 63  1  0
 55 65  1  0
 56 62  1  0
 56 58  1  0
 57 63  1  0
 58 59  2  0
 58 57  1  0
 60 54  2  0
 61 60  1  0
 61 56  2  0
 62 55  1  0
 63 53  1  0
 65 67  2  0
 66 65  1  0
 68 66  1  0
 69 78  2  0
 69 74  1  0
 70 66  1  0
 70 74  1  0
 71 70  1  0
 72 73  1  0
 72 71  1  0
 73 69  1  0
 74 75  2  0
 75 76  1  0
 77 76  2  0
 78 77  1  0
 79 53  1  0
 79 80  1  0
 79 89  1  0
 80 83  1  0
 81 85  1  0
 81 80  1  0
 82 81  2  0
 85 84  1  0
 87 85  1  0
 87 88  1  0
 87 86  1  0
 89 92  1  1
 89 90  1  0
 91 89  1  0
M  ISO  4  11 100  12 100  51 101  52 101
M  END
>  <TORSDO>  (40) 
F 21

>  <SCORE>  (40) 
-13.280

>  <name>  (40) 
39

>  <ligand_id>  (40) 
39

>  <original_smiles>  (40) 
[H]c1c([H])c([H])c2c(c1[H])C([H])([H])C([H])([H])C([H])([H])C2([H])N([H])C(=O)C1([H])N(C(=O)C([H])(N([H])C(=O)C([H])(N([H])C([H])([H])[H])C([H])([H])[H])C(C([H])([H])[H])(C([H])([H])[H])C([H])([H])[H])C([H])([H])c2c([H])c(OC([H])([H])C(=O)C([H])([H])N([H])c3c([H])c(C([H])([H])C(=O)N4C([H])([H])C([H])([H])C([H])([H])C([H])(n5nc(-c6c([H])c([H])c(Oc7c([H])c([H])c(F)c([H])c7F)c([H])c6[H])c(C(=O)N([H])[H])c5N([H])[H])C4([H])[H])c(=O)n([H])c3[H])c([H])c([H])c2C1([H])[H]

>  <smiles>  (40) 
[H]c1c([H])c([H])c2c(c1[H])C([H])([H])C([H])([H])C([H])([H])C2([H])N([H])C(=O)C1([H])N(C(=O)C([H])(N([H])C(=O)C([H])(N([H])C([H])([H])[H])C([H])([H])[H])C(C([H])([H])[H])(C([H])([H])[H])C([H])([H])[H])C([H])([H])c2c([H])c(OC([H])([H])C(=O)C([H])([H])N([H])c3c([H])c(C([H])([H])C(=O)N4C([H])([H])C([H])([H])C([H])([H])C([H])(n5nc(-c6c([H])c([H])c(Oc7c([H])c([H])c(F)c([H])c7F)c([H])c6[H])c(C(=O)N([H])[H])c5N([H])[H])C4([H])[H])c(=O)n([H])c3[H])c([H])c([H])c2C1([H])[H]

$$$$
40:0:0
     RDKit          3D

 94102  0  0  1  0  0  0  0  0999 V2000
  -30.0360  -18.5480   20.6120 C   0  0  0  0  0  3  0  0  0  0  0  0
  -28.2910  -16.9540   20.0590 C   0  0  0  0  0  3  0  0  0  0  0  0
  -27.8840  -19.3480   19.8120 C   0  0  0  0  0  3  0  0  0  0  0  0
  -29.6160  -17.1520   20.5010 C   0  0  0  0  0  0  0  0  0  0  0  0
  -29.1740  -19.6810   20.2820 C   0  0  0  0  0  0  0  0  0  0  0  0
  -27.4210  -18.0170   19.7390 C   0  0  0  0  0  0  0  0  0  0  0  0
  -28.7220  -22.2430   20.5590 C   0  0  0  0  0  0  0  0  0  0  0  0
  -29.5360  -21.1240   20.3740 N   0  0  0  0  0  0  0  0  0  0  0  0
  -27.5470  -22.1080   20.9120 O   0  0  0  0  0  0  0  0  0  0  0  0
  -30.5200  -21.3290   20.2600 H   0  0  0  0  0  0  0  0  0  0  0  0
  -29.2230  -23.7560   20.3990 C   0  0  0  0  0  3  0  0  0  0  0  0
  -28.1070  -24.9300   20.4790 C   0  0  0  0  0  3  0  0  0  0  0  0
  -28.3870  -26.3980   20.2850 O   0  0  0  0  0  0  0  0  0  0  0  0
  -24.5900  -31.8450   23.2170 C   0  0  0  0  0  0  0  0  0  0  0  0
  -27.2830  -27.2790   20.2160 C   0  0  0  0  0  0  0  0  0  0  0  0
  -23.4260  -30.4390   21.5550 C   0  0  0  0  0  3  0  0  0  0  0  0
  -24.9140  -28.9060   20.1500 C   0  0  0  0  0  0  0  0  0  0  0  0
  -25.9680  -30.7710   21.4190 C   0  0  0  0  0  2  0  0  0  0  0  0
  -26.0700  -29.3930   20.7730 C   0  0  0  0  0  0  0  0  0  0  0  0
  -27.2580  -28.5920   20.7930 C   0  0  0  0  0  3  0  0  0  0  0  0
  -26.1080  -26.8660   19.5480 C   0  0  0  0  0  3  0  0  0  0  0  0
  -24.9390  -27.6510   19.5250 C   0  0  0  0  0  3  0  0  0  0  0  0
  -23.6690  -29.7700   20.1780 C   0  0  0  0  0  2  0  0  0  0  0  0
  -24.6790  -31.0370   22.1200 N   0  0  0  0  0  0  0  0  0  0  0  0
  -23.4950  -32.1140   23.7330 O   0  0  0  0  0  0  0  0  0  0  0  0
  -22.7520  -29.4170   22.5030 C   0  0  0  0  0  0  0  0  0  0  0  0
  -21.4230  -29.2620   22.3810 N   0  0  0  0  0  0  0  0  0  0  0  0
  -23.4260  -28.7680   23.3080 O   0  0  0  0  0  0  0  0  0  0  0  0
  -20.9400  -29.8310   21.7000 H   0  0  0  0  0  0  0  0  0  0  0  0
  -18.0280  -28.1340   22.9140 C   0  0  0  0  0  0  0  0  0  0  0  0
  -20.5950  -28.3240   23.1430 C   0  0  0  0  0  3  0  0  0  0  0  0
  -20.6530  -26.9070   22.5280 C   0  0  0  0  0  2  0  0  0  0  0  0
  -19.5260  -26.6380   21.5260 C   0  0  0  0  0  2  0  0  0  0  0  0
  -18.1600  -26.7980   22.1990 C   0  0  0  0  0  2  0  0  0  0  0  0
  -19.1720  -28.8570   23.3430 C   0  0  0  0  0  0  0  0  0  0  0  0
  -18.9940  -30.1070   23.9720 C   0  0  0  0  0  3  0  0  0  0  0  0
  -17.7040  -30.6330   24.1780 C   0  0  0  0  0  3  0  0  0  0  0  0
  -16.5750  -29.9060   23.7650 C   0  0  0  0  0  3  0  0  0  0  0  0
  -16.7380  -28.6580   23.1380 C   0  0  0  0  0  3  0  0  0  0  0  0
  -25.8560  -32.4870   23.8620 C   0  0  0  0  0  3  0  0  0  0  0  0
  -25.5350  -33.8870   24.1720 N   0  0  0  0  0  0  0  0  0  0  0  0
  -25.8750  -34.9340   23.4090 C   0  0  0  0  0  0  0  0  0  0  0  0
  -26.5610  -34.8240   22.3890 O   0  0  0  0  0  0  0  0  0  0  0  0
  -24.9230  -34.0470   24.9590 H   0  0  0  0  0  0  0  0  0  0  0  0
  -24.1360  -36.7130   23.0250 C   0  0  0  0  0  1  0  0  0  0  0  0
  -25.3760  -36.3250   23.8470 C   0  0  0  0  0  3  0  0  0  0  0  0
  -27.4990  -37.2370   24.6800 C   0  0  0  0  0  1  0  0  0  0  0  0
  -26.4020  -37.3840   23.7260 N   0  0  0  0  0  0  0  0  0  0  0  0
  -25.9890  -38.3030   23.8590 H   0  0  0  0  0  0  0  0  0  0  0  0
  -26.3480  -31.7290   25.1560 C   0  0  1  0  0  0  0  0  0  0  0  0
  -25.2340  -31.5000   26.2040 C   0  0  0  0  0  1  0  0  0  0  0  0
  -26.9360  -30.3440   24.7930 C   0  0  0  0  0  1  0  0  0  0  0  0
  -27.4870  -32.5280   25.8320 C   0  0  0  0  0  1  0  0  0  0  0  0
  -30.3100  -15.8890   21.0950 C   0  0  0  0  0  0  0  0  0  0  0  0
  -30.5400  -15.9090   22.3410 N   0  0  0  0  0  0  0  0  0  0  0  0
  -30.2150  -16.7790   22.7450 H   0  0  0  0  0  0  0  0  0  0  0  0
  -30.7860  -14.6060   20.2770 C   0  0  0  0  0  0  0  0  0  0  0  0
  -30.5340  -12.2450   19.4690 C   0  0  0  0  0  2  0  0  0  0  0  0
  -29.6130  -12.1930   18.2320 C   0  0  0  0  0  2  0  0  0  0  0  0
  -28.1410  -12.0570   18.6640 C   0  0  0  0  0  2  0  0  0  0  0  0
  -27.7610  -13.0590   19.7880 C   0  0  0  0  0  3  0  0  0  0  0  0
  -28.8130  -13.0970   20.9250 C   0  0  0  0  0  2  0  0  0  0  0  0
  -30.1190  -13.3930   20.3210 N   0  0  0  0  0  0  0  0  0  0  0  0
  -31.8660  -14.6850   19.6800 O   0  0  0  0  0  0  0  0  0  0  0  0
  -25.4010  -13.7180   20.5450 C   0  0  0  0  0  0  0  0  0  0  0  0
  -24.3220  -12.9880   20.9560 C   0  0  0  0  0  0  0  0  0  0  0  0
  -24.7330  -11.6230   20.8970 C   0  0  0  0  0  0  0  0  0  0  0  0
  -26.4140  -12.8090   20.2960 N   0  0  0  0  0  0  0  0  0  0  0  0
  -26.0160  -11.5390   20.5600 N   0  0  0  0  0  0  0  0  0  0  0  0
  -23.9580  -10.3920   21.0820 C   0  0  0  0  0  0  0  0  0  0  0  0
  -24.3920   -9.3740   21.9560 C   0  0  0  0  0  3  0  0  0  0  0  0
  -23.6170   -8.2060   22.1310 C   0  0  0  0  0  3  0  0  0  0  0  0
  -22.3950   -8.0540   21.4300 C   0  0  0  0  0  0  0  0  0  0  0  0
  -21.9830   -9.0620   20.5420 C   0  0  0  0  0  3  0  0  0  0  0  0
  -22.7570  -10.2190   20.3640 C   0  0  0  0  0  3  0  0  0  0  0  0
  -21.5900   -6.9450   21.5190 O   0  0  0  0  0  0  0  0  0  0  0  0
  -21.5870   -6.1480   22.6360 C   0  0  0  0  0  0  0  0  0  0  0  0
  -21.2590   -6.6540   23.9130 C   0  0  0  0  0  3  0  0  0  0  0  0
  -21.2010   -5.7850   25.0200 C   0  0  0  0  0  3  0  0  0  0  0  0
  -21.4600   -4.4110   24.8530 C   0  0  0  0  0  0  0  0  0  0  0  0
  -21.7830   -3.9050   23.5800 C   0  0  0  0  0  3  0  0  0  0  0  0
  -21.8430   -4.7730   22.4750 C   0  0  0  0  0  0  0  0  0  0  0  0
  -22.1340   -4.2750   21.2480 F   0  0  0  0  0  0  0  0  0  0  0  0
  -21.3960   -3.5750   25.9150 F   0  0  0  0  0  0  0  0  0  0  0  0
  -22.9550  -13.5250   21.2680 C   0  0  0  0  0  0  0  0  0  0  0  0
  -22.2260  -12.8600   22.1560 N   0  0  0  0  0  0  0  0  0  0  0  0
  -22.5460  -14.5700   20.7650 O   0  0  0  0  0  0  0  0  0  0  0  0
  -22.5700  -12.0160   22.5890 H   0  0  0  0  0  0  0  0  0  0  0  0
  -21.3090  -13.2050   22.4080 H   0  0  0  0  0  0  0  0  0  0  0  0
  -25.5880  -15.0700   20.3340 N   0  0  0  0  0  0  0  0  0  0  0  0
  -24.8680  -15.7560   20.5300 H   0  0  0  0  0  0  0  0  0  0  0  0
  -26.4210  -15.4940   19.9510 H   0  0  0  0  0  0  0  0  0  0  0  0
  -25.1680  -18.7410   19.2590 C   0  0  0  0  0  1  0  0  0  0  0  0
  -26.1240  -17.6960   19.4020 O   0  0  0  0  0  0  0  0  0  0  0  0
  2  4  2  0
  3  5  1  0
  4  1  1  0
  4 54  1  0
  5  8  1  0
  5  1  2  0
  6  3  2  0
  6  2  1  0
  7  9  2  0
  8  7  1  0
 10  8  1  0
 11 12  2  0
 11  7  1  0
 13 12  1  0
 14 25  2  0
 15 13  1  0
 15 20  1  0
 16 24  1  0
 16 26  1  0
 17 23  1  0
 17 19  1  0
 18 24  1  0
 19 20  2  0
 19 18  1  0
 21 15  2  0
 22 21  1  0
 22 17  2  0
 23 16  1  0
 24 14  1  0
 26 28  2  0
 27 26  1  0
 29 27  1  0
 30 39  2  0
 30 35  1  0
 31 27  1  0
 31 35  1  0
 32 31  1  0
 33 34  1  0
 33 32  1  0
 34 30  1  0
 35 36  2  0
 36 37  1  0
 38 37  2  0
 39 38  1  0
 40 14  1  0
 40 41  1  0
 40 50  1  0
 41 44  1  0
 42 46  1  0
 42 41  1  0
 43 42  2  0
 46 45  1  0
 48 46  1  0
 48 49  1  0
 48 47  1  0
 50 53  1  1
 50 51  1  0
 52 50  1  0
 54 55  2  0
 55 56  1  0
 57 63  1  0
 57 54  1  0
 58 63  1  0
 59 60  1  0
 59 58  1  0
 61 60  1  0
 61 68  1  0
 61 62  1  0
 63 62  1  0
 64 57  2  0
 65 66  2  0
 66 85  1  0
 67 66  1  0
 67 70  1  0
 68 65  1  0
 68 69  1  0
 69 67  2  0
 70 71  1  0
 71 72  2  0
 73 76  1  0
 73 72  1  0
 74 73  2  0
 75 74  1  0
 75 70  2  0
 76 77  1  0
 77 78  1  0
 78 79  2  0
 80 79  1  0
 80 84  1  0
 81 80  2  0
 82 77  2  0
 82 81  1  0
 83 82  1  0
 85 86  1  0
 86 89  1  0
 86 88  1  0
 87 85  2  0
 90 91  1  0
 90 65  1  0
 92 90  1  0
 93 94  1  0
 94  6  1  0
M  ISO  4  12 101  13 101  54 100  57 100
M  END
>  <TORSDO>  (41) 
F 21

>  <SCORE>  (41) 
-12.917

>  <name>  (41) 
40

>  <ligand_id>  (41) 
40

>  <original_smiles>  (41) 
[H]N=C(C(=O)N1C([H])([H])C([H])([H])C([H])([H])C([H])(n2nc(-c3c([H])c([H])c(Oc4c([H])c([H])c(F)c([H])c4F)c([H])c3[H])c(C(=O)N([H])[H])c2N([H])[H])C1([H])[H])c1c([H])c(OC([H])([H])[H])c([H])c(N([H])C(=O)C([H])([H])C([H])([H])Oc2c([H])c([H])c3c(c2[H])C([H])([H])N(C(=O)C([H])(N([H])C(=O)C([H])(N([H])C([H])([H])[H])C([H])([H])[H])C(C([H])([H])[H])(C([H])([H])[H])C([H])([H])[H])C([H])(C(=O)N([H])C2([H])c4c([H])c([H])c([H])c([H])c4C([H])([H])C([H])([H])C2([H])[H])C3([H])[H])c1[H]

>  <smiles>  (41) 
[H]N=C(C(=O)N1C([H])([H])C([H])([H])C([H])([H])C([H])(n2nc(-c3c([H])c([H])c(Oc4c([H])c([H])c(F)c([H])c4F)c([H])c3[H])c(C(=O)N([H])[H])c2N([H])[H])C1([H])[H])c1c([H])c(OC([H])([H])[H])c([H])c(N([H])C(=O)C([H])([H])C([H])([H])Oc2c([H])c([H])c3c(c2[H])C([H])([H])N(C(=O)C([H])(N([H])C(=O)C([H])(N([H])C([H])([H])[H])C([H])([H])[H])C(C([H])([H])[H])(C([H])([H])[H])C([H])([H])[H])C([H])(C(=O)N([H])C2([H])c4c([H])c([H])c([H])c([H])c4C([H])([H])C([H])([H])C2([H])[H])C3([H])[H])c1[H]

$$$$
41:0:0
     RDKit          3D

 91 99  0  0  1  0  0  0  0  0999 V2000
  -30.0440  -19.0930   20.2010 C   0  0  0  0  0  3  0  0  0  0  0  0
  -29.2760  -20.2350   19.7530 C   0  0  0  0  0  0  0  0  0  0  0  0
  -29.2650  -17.9570   20.0740 C   0  0  0  0  0  0  0  0  0  0  0  0
  -28.0730  -19.6980   19.3670 C   0  0  0  0  0  0  0  0  0  0  0  0
  -26.8270  -20.2330   18.7390 C   0  0  0  0  0  1  0  0  0  0  0  0
  -28.0550  -18.3540   19.5850 O   0  0  0  0  0  0  0  0  0  0  0  0
  -31.0460  -14.5790   19.9200 C   0  0  0  0  0  0  0  0  0  0  0  0
  -30.6400  -12.3370   18.9600 C   0  0  0  0  0  2  0  0  0  0  0  0
  -29.6590  -12.4250   17.7750 C   0  0  0  0  0  2  0  0  0  0  0  0
  -28.2040  -12.3090   18.2690 C   0  0  0  0  0  2  0  0  0  0  0  0
  -27.9140  -13.2260   19.4880 C   0  0  0  0  0  3  0  0  0  0  0  0
  -29.0240  -13.0930   20.5600 C   0  0  0  0  0  2  0  0  0  0  0  0
  -30.2890  -13.4280   19.8990 N   0  0  0  0  0  0  0  0  0  0  0  0
  -32.2180  -14.5360   19.5500 O   0  0  0  0  0  0  0  0  0  0  0  0
  -29.4130  -16.4790   20.3670 C   0  0  0  0  0  0  0  0  0  0  0  0
  -30.5700  -15.8570   20.0480 N   0  0  0  0  0  0  0  0  0  0  0  0
  -28.4430  -15.9200   20.8730 O   0  0  0  0  0  0  0  0  0  0  0  0
  -31.2770  -16.5240   19.7890 H   0  0  0  0  0  0  0  0  0  0  0  0
  -25.5760  -13.9060   20.3070 C   0  0  0  0  0  0  0  0  0  0  0  0
  -24.4980  -13.1680   20.7170 C   0  0  0  0  0  0  0  0  0  0  0  0
  -24.9160  -11.8040   20.6690 C   0  0  0  0  0  0  0  0  0  0  0  0
  -26.5820  -12.9920   20.0380 N   0  0  0  0  0  0  0  0  0  0  0  0
  -26.1920  -11.7210   20.3120 N   0  0  0  0  0  0  0  0  0  0  0  0
  -24.1590  -10.5660   20.8880 C   0  0  0  0  0  0  0  0  0  0  0  0
  -24.5800   -9.6000   21.8270 C   0  0  0  0  0  3  0  0  0  0  0  0
  -23.8220   -8.4260   22.0310 C   0  0  0  0  0  3  0  0  0  0  0  0
  -22.6320   -8.2130   21.2970 C   0  0  0  0  0  0  0  0  0  0  0  0
  -22.2310   -9.1690   20.3470 C   0  0  0  0  0  3  0  0  0  0  0  0
  -22.9880  -10.3330   20.1400 C   0  0  0  0  0  3  0  0  0  0  0  0
  -21.8460   -7.0920   21.4100 O   0  0  0  0  0  0  0  0  0  0  0  0
  -21.7800   -6.3760   22.5800 C   0  0  0  0  0  0  0  0  0  0  0  0
  -21.3370   -6.9580   23.7870 C   0  0  0  0  0  3  0  0  0  0  0  0
  -21.2170   -6.1690   24.9470 C   0  0  0  0  0  3  0  0  0  0  0  0
  -21.5320   -4.7970   24.9020 C   0  0  0  0  0  0  0  0  0  0  0  0
  -21.9700   -4.2140   23.6990 C   0  0  0  0  0  3  0  0  0  0  0  0
  -22.0890   -5.0010   22.5400 C   0  0  0  0  0  0  0  0  0  0  0  0
  -22.4920   -4.4310   21.3790 F   0  0  0  0  0  0  0  0  0  0  0  0
  -21.4120   -4.0370   26.0140 F   0  0  0  0  0  0  0  0  0  0  0  0
  -23.1330  -13.6930   21.0490 C   0  0  0  0  0  0  0  0  0  0  0  0
  -22.4280  -13.0360   21.9640 N   0  0  0  0  0  0  0  0  0  0  0  0
  -22.7020  -14.7260   20.5350 O   0  0  0  0  0  0  0  0  0  0  0  0
  -22.7900  -12.2040   22.4050 H   0  0  0  0  0  0  0  0  0  0  0  0
  -21.5130  -13.3750   22.2290 H   0  0  0  0  0  0  0  0  0  0  0  0
  -25.7760  -15.2680   20.1300 N   0  0  0  0  0  0  0  0  0  0  0  0
  -25.0710  -15.9310   20.4320 H   0  0  0  0  0  0  0  0  0  0  0  0
  -26.7250  -15.6260   20.2420 H   0  0  0  0  0  0  0  0  0  0  0  0
  -29.7070  -21.5610   19.6520 O   0  0  0  0  0  0  0  0  0  0  0  0
  -28.9120  -22.6210   20.2500 C   0  0  0  0  0  2  0  0  0  0  0  0
  -29.1750  -24.0610   19.6740 C   0  0  0  0  0  2  0  0  0  0  0  0
  -28.3940  -25.2110   20.4040 C   0  0  0  0  0  2  0  0  0  0  0  0
  -28.5480  -26.5700   19.8880 O   0  0  0  0  0  0  0  0  0  0  0  0
  -24.6890  -31.6830   23.1260 C   0  0  0  0  0  0  0  0  0  0  0  0
  -27.4030  -27.3570   19.8990 C   0  0  0  0  0  0  0  0  0  0  0  0
  -23.5200  -30.3450   21.4090 C   0  0  0  0  0  3  0  0  0  0  0  0
  -25.0070  -28.8820   19.9360 C   0  0  0  0  0  0  0  0  0  0  0  0
  -26.0500  -30.7220   21.2640 C   0  0  0  0  0  2  0  0  0  0  0  0
  -26.1580  -29.3780   20.5620 C   0  0  0  0  0  0  0  0  0  0  0  0
  -27.3620  -28.6270   20.5350 C   0  0  0  0  0  3  0  0  0  0  0  0
  -26.2370  -26.8960   19.2530 C   0  0  0  0  0  3  0  0  0  0  0  0
  -25.0450  -27.6430   19.2740 C   0  0  0  0  0  3  0  0  0  0  0  0
  -23.7560  -29.7310   20.0040 C   0  0  0  0  0  2  0  0  0  0  0  0
  -24.7720  -30.9300   21.9930 N   0  0  0  0  0  0  0  0  0  0  0  0
  -23.5970  -31.9220   23.6620 O   0  0  0  0  0  0  0  0  0  0  0  0
  -22.8620  -29.2770   22.3150 C   0  0  0  0  0  0  0  0  0  0  0  0
  -21.5330  -29.1230   22.1960 N   0  0  0  0  0  0  0  0  0  0  0  0
  -23.5460  -28.5930   23.0820 O   0  0  0  0  0  0  0  0  0  0  0  0
  -21.0420  -29.7280   21.5520 H   0  0  0  0  0  0  0  0  0  0  0  0
  -18.1370  -28.0070   22.7350 C   0  0  0  0  0  0  0  0  0  0  0  0
  -20.7120  -28.1520   22.9190 C   0  0  0  0  0  3  0  0  0  0  0  0
  -20.7380  -26.7730   22.2200 C   0  0  0  0  0  2  0  0  0  0  0  0
  -19.5850  -26.5760   21.2300 C   0  0  0  0  0  2  0  0  0  0  0  0
  -18.2360  -26.7140   21.9420 C   0  0  0  0  0  2  0  0  0  0  0  0
  -19.2990  -28.6900   23.1790 C   0  0  0  0  0  0  0  0  0  0  0  0
  -19.1520  -29.9050   23.8820 C   0  0  0  0  0  3  0  0  0  0  0  0
  -17.8750  -30.4360   24.1440 C   0  0  0  0  0  3  0  0  0  0  0  0
  -16.7280  -29.7470   23.7140 C   0  0  0  0  0  3  0  0  0  0  0  0
  -16.8590  -28.5340   23.0160 C   0  0  0  0  0  3  0  0  0  0  0  0
  -25.9600  -32.2990   23.7920 C   0  0  0  0  0  3  0  0  0  0  0  0
  -26.4380  -31.5070   25.0700 C   0  0  1  0  0  0  0  0  0  0  0  0
  -25.3140  -31.2610   26.1050 C   0  0  0  0  0  1  0  0  0  0  0  0
  -27.0250  -30.1330   24.6740 C   0  0  0  0  0  1  0  0  0  0  0  0
  -27.5730  -32.2860   25.7760 C   0  0  0  0  0  1  0  0  0  0  0  0
  -25.6500  -33.6940   24.1310 N   0  0  0  0  0  0  0  0  0  0  0  0
  -26.0200  -34.7550   23.4000 C   0  0  0  0  0  0  0  0  0  0  0  0
  -26.7270  -34.6590   22.3930 O   0  0  0  0  0  0  0  0  0  0  0  0
  -25.0270  -33.8430   24.9110 H   0  0  0  0  0  0  0  0  0  0  0  0
  -24.3280  -36.5710   23.0000 C   0  0  0  0  0  1  0  0  0  0  0  0
  -25.5280  -36.1410   23.8590 C   0  0  0  0  0  3  0  0  0  0  0  0
  -27.6260  -36.9960   24.8040 C   0  0  0  0  0  1  0  0  0  0  0  0
  -26.5750  -37.1840   23.8080 N   0  0  0  0  0  0  0  0  0  0  0  0
  -26.1710  -38.1070   23.9420 H   0  0  0  0  0  0  0  0  0  0  0  0
  2  1  1  0
  3  1  2  0
  3 15  1  0
  4  6  1  0
  4  2  2  0
  5  4  1  0
  6  3  1  0
  7 16  1  0
  8 13  1  0
  9 10  1  0
  9  8  1  0
 11 10  1  0
 11 22  1  0
 11 12  1  0
 13  7  1  0
 13 12  1  0
 14  7  2  0
 15 17  2  0
 16 15  1  0
 18 16  1  0
 19 20  2  0
 20 39  1  0
 21 20  1  0
 21 24  1  0
 22 19  1  0
 22 23  1  0
 23 21  2  0
 24 25  1  0
 25 26  2  0
 27 30  1  0
 27 26  1  0
 28 27  2  0
 29 28  1  0
 29 24  2  0
 30 31  1  0
 31 32  1  0
 32 33  2  0
 34 33  1  0
 34 38  1  0
 35 34  2  0
 36 31  2  0
 36 35  1  0
 37 36  1  0
 39 40  1  0
 40 43  1  0
 40 42  1  0
 41 39  2  0
 44 46  1  0
 44 19  1  0
 44 45  1  0
 47  2  1  0
 47 48  1  0
 49 48  1  0
 49 50  1  0
 51 53  1  0
 51 50  1  0
 52 63  2  0
 53 58  1  0
 54 62  1  0
 54 64  1  0
 55 61  1  0
 55 57  1  0
 56 62  1  0
 57 56  1  0
 58 57  2  0
 59 60  1  0
 59 53  2  0
 60 55  2  0
 61 54  1  0
 62 52  1  0
 64 66  2  0
 65 64  1  0
 67 65  1  0
 68 77  2  0
 68 73  1  0
 69 65  1  0
 69 73  1  0
 70 69  1  0
 71 72  1  0
 71 70  1  0
 72 68  1  0
 73 74  2  0
 74 75  1  0
 76 75  2  0
 77 76  1  0
 78 52  1  0
 78 83  1  0
 78 79  1  0
 79 82  1  1
 79 80  1  0
 81 79  1  0
 83 86  1  0
 84 88  1  0
 84 83  1  0
 85 84  2  0
 88 87  1  0
 90 88  1  0
 90 91  1  0
 90 89  1  0
M  ISO  4   7 100  16 100  50 101  51 101
M  END
>  <TORSDO>  (42) 
F 20

>  <SCORE>  (42) 
-13.424

>  <name>  (42) 
41

>  <ligand_id>  (42) 
41

>  <original_smiles>  (42) 
[H]c1c([H])c([H])c2c(c1[H])C([H])([H])C([H])([H])C([H])([H])C2([H])N([H])C(=O)C1([H])N(C(=O)C([H])(N([H])C(=O)C([H])(N([H])C([H])([H])[H])C([H])([H])[H])C(C([H])([H])[H])(C([H])([H])[H])C([H])([H])[H])C([H])([H])c2c([H])c(OC([H])([H])C([H])([H])C([H])([H])Oc3c(C([H])([H])[H])oc(C(=O)N([H])C(=O)N4C([H])([H])C([H])([H])C([H])([H])C([H])(n5nc(-c6c([H])c([H])c(Oc7c([H])c([H])c(F)c([H])c7F)c([H])c6[H])c(C(=O)N([H])[H])c5N([H])[H])C4([H])[H])c3[H])c([H])c([H])c2C1([H])[H]

>  <smiles>  (42) 
[H]c1c([H])c([H])c2c(c1[H])C([H])([H])C([H])([H])C([H])([H])C2([H])N([H])C(=O)C1([H])N(C(=O)C([H])(N([H])C(=O)C([H])(N([H])C([H])([H])[H])C([H])([H])[H])C(C([H])([H])[H])(C([H])([H])[H])C([H])([H])[H])C([H])([H])c2c([H])c(OC([H])([H])C([H])([H])C([H])([H])Oc3c(C([H])([H])[H])oc(C(=O)N([H])C(=O)N4C([H])([H])C([H])([H])C([H])([H])C([H])(n5nc(-c6c([H])c([H])c(Oc7c([H])c([H])c(F)c([H])c7F)c([H])c6[H])c(C(=O)N([H])[H])c5N([H])[H])C4([H])[H])c3[H])c([H])c([H])c2C1([H])[H]

$$$$
42:0:0
     RDKit          3D

 97106  0  0  1  0  0  0  0  0999 V2000
  -28.8980  -22.9260   19.6040 C   0  0  0  0  0  3  0  0  0  0  0  0
  -28.3730  -24.1800   19.8710 C   0  0  0  0  0  0  0  0  0  0  0  0
  -27.4320  -24.2610   21.0100 C   0  0  0  0  0  0  0  0  0  0  0  0
  -26.8270  -22.9480   21.5010 C   0  0  0  0  0  2  0  0  0  0  0  0
  -27.8560  -21.8010   21.5510 C   0  0  0  0  0  2  0  0  0  0  0  0
  -28.6820  -21.7100   20.3390 N   0  0  0  0  0  0  0  0  0  0  0  0
  -27.0940  -25.3070   21.5690 O   0  0  0  0  0  0  0  0  0  0  0  0
  -29.4020  -19.9150   18.7380 C   0  0  0  0  0  3  0  0  0  0  0  0
  -29.7270  -18.5590   18.4470 C   0  0  0  0  0  3  0  0  0  0  0  0
  -29.2120  -19.3150   21.0340 C   0  0  0  0  0  3  0  0  0  0  0  0
  -29.1110  -20.3520   20.0480 C   0  0  0  0  0  0  0  0  0  0  0  0
  -29.8560  -17.5180   19.4290 C   0  0  0  0  0  0  0  0  0  0  0  0
  -29.5900  -17.9540   20.7600 C   0  0  0  0  0  0  0  0  0  0  0  0
  -30.8850  -15.1350   19.7360 C   0  0  0  0  0  0  0  0  0  0  0  0
  -30.6510  -12.8050   18.8990 C   0  0  0  0  0  2  0  0  0  0  0  0
  -29.6200  -12.7310   17.7480 C   0  0  0  0  0  2  0  0  0  0  0  0
  -28.1910  -12.5910   18.2980 C   0  0  0  0  0  2  0  0  0  0  0  0
  -27.8770  -13.5530   19.4760 C   0  0  0  0  0  3  0  0  0  0  0  0
  -29.0200  -13.5950   20.5100 C   0  0  0  0  0  2  0  0  0  0  0  0
  -30.2480  -13.9190   19.7780 N   0  0  0  0  0  0  0  0  0  0  0  0
  -32.1160  -15.1730   19.6770 O   0  0  0  0  0  0  0  0  0  0  0  0
  -30.5610  -16.0260   17.5760 C   0  0  0  0  0  1  0  0  0  0  0  0
  -30.2280  -16.1300   19.0190 N   0  0  0  0  0  0  0  0  0  0  0  0
  -25.5610  -14.1040   20.4350 C   0  0  0  0  0  0  0  0  0  0  0  0
  -24.5320  -13.3080   20.8590 C   0  0  0  0  0  0  0  0  0  0  0  0
  -24.9960  -11.9610   20.7440 C   0  0  0  0  0  0  0  0  0  0  0  0
  -26.5870  -13.2410   20.0840 N   0  0  0  0  0  0  0  0  0  0  0  0
  -26.2600  -11.9470   20.3380 N   0  0  0  0  0  0  0  0  0  0  0  0
  -24.2940  -10.6870   20.9410 C   0  0  0  0  0  0  0  0  0  0  0  0
  -24.7270   -9.7440   21.9010 C   0  0  0  0  0  3  0  0  0  0  0  0
  -24.0210   -8.5360   22.0860 C   0  0  0  0  0  3  0  0  0  0  0  0
  -22.8710   -8.2600   21.3100 C   0  0  0  0  0  0  0  0  0  0  0  0
  -22.4580   -9.1890   20.3390 C   0  0  0  0  0  3  0  0  0  0  0  0
  -23.1640  -10.3890   20.1520 C   0  0  0  0  0  3  0  0  0  0  0  0
  -22.1360   -7.1010   21.4030 O   0  0  0  0  0  0  0  0  0  0  0  0
  -21.9790   -6.4430   22.5960 C   0  0  0  0  0  0  0  0  0  0  0  0
  -21.4000   -7.0690   23.7220 C   0  0  0  0  0  3  0  0  0  0  0  0
  -21.1940   -6.3360   24.9060 C   0  0  0  0  0  3  0  0  0  0  0  0
  -21.5580   -4.9770   24.9670 C   0  0  0  0  0  0  0  0  0  0  0  0
  -22.1320   -4.3500   23.8460 C   0  0  0  0  0  3  0  0  0  0  0  0
  -22.3390   -5.0820   22.6640 C   0  0  0  0  0  0  0  0  0  0  0  0
  -22.8720   -4.4690   21.5790 F   0  0  0  0  0  0  0  0  0  0  0  0
  -21.3530   -4.2690   26.1020 F   0  0  0  0  0  0  0  0  0  0  0  0
  -23.1560  -13.7640   21.2520 C   0  0  0  0  0  0  0  0  0  0  0  0
  -22.5030  -13.0340   22.1500 N   0  0  0  0  0  0  0  0  0  0  0  0
  -22.6730  -14.8010   20.7990 O   0  0  0  0  0  0  0  0  0  0  0  0
  -22.9080  -12.1950   22.5360 H   0  0  0  0  0  0  0  0  0  0  0  0
  -21.5850  -13.3240   22.4560 H   0  0  0  0  0  0  0  0  0  0  0  0
  -25.7060  -15.4800   20.2950 N   0  0  0  0  0  0  0  0  0  0  0  0
  -24.9530  -16.1290   20.4950 H   0  0  0  0  0  0  0  0  0  0  0  0
  -26.5350  -15.9350   19.9340 H   0  0  0  0  0  0  0  0  0  0  0  0
  -29.6490  -17.0520   21.7930 O   0  0  0  0  0  0  0  0  0  0  0  0
  -30.5440  -17.3890   22.8550 C   0  0  0  0  0  2  0  0  0  0  0  0
  -30.8680  -18.7480   25.0000 C   0  0  0  0  0  1  0  0  0  0  0  0
  -30.0420  -18.5550   23.7240 C   0  0  0  0  0  2  0  0  0  0  0  0
  -28.6170  -25.4980   19.0240 C   0  0  0  0  0  2  0  0  0  0  0  0
  -28.5030  -26.8600   19.6200 O   0  0  0  0  0  0  0  0  0  0  0  0
  -24.5300  -31.7970   23.0610 C   0  0  0  0  0  0  0  0  0  0  0  0
  -27.3160  -27.6160   19.6270 C   0  0  0  0  0  0  0  0  0  0  0  0
  -23.3640  -30.4450   21.3560 C   0  0  0  0  0  3  0  0  0  0  0  0
  -24.8610  -29.0850   19.7860 C   0  0  0  0  0  0  0  0  0  0  0  0
  -25.8750  -30.9250   21.1350 C   0  0  0  0  0  2  0  0  0  0  0  0
  -26.0140  -29.6010   20.3910 C   0  0  0  0  0  0  0  0  0  0  0  0
  -27.2400  -28.8770   20.3020 C   0  0  0  0  0  3  0  0  0  0  0  0
  -26.1310  -27.1490   19.0160 C   0  0  0  0  0  3  0  0  0  0  0  0
  -24.9220  -27.8670   19.0920 C   0  0  0  0  0  3  0  0  0  0  0  0
  -23.5790  -29.8800   19.9260 C   0  0  0  0  0  2  0  0  0  0  0  0
  -24.6100  -31.0710   21.9080 N   0  0  0  0  0  0  0  0  0  0  0  0
  -23.4480  -31.9720   23.6400 O   0  0  0  0  0  0  0  0  0  0  0  0
  -22.7880  -29.3270   22.2600 C   0  0  0  0  0  0  0  0  0  0  0  0
  -21.4740  -29.0730   22.1450 N   0  0  0  0  0  0  0  0  0  0  0  0
  -23.5230  -28.6940   23.0230 O   0  0  0  0  0  0  0  0  0  0  0  0
  -20.9370  -29.6410   21.5050 H   0  0  0  0  0  0  0  0  0  0  0  0
  -18.1900  -27.6390   22.6360 C   0  0  0  0  0  0  0  0  0  0  0  0
  -20.7340  -28.0360   22.8660 C   0  0  0  0  0  3  0  0  0  0  0  0
  -20.9070  -26.6560   22.1910 C   0  0  0  0  0  2  0  0  0  0  0  0
  -19.8000  -26.3360   21.1810 C   0  0  0  0  0  2  0  0  0  0  0  0
  -18.4300  -26.3510   21.8650 C   0  0  0  0  0  2  0  0  0  0  0  0
  -19.2720  -28.4370   23.0940 C   0  0  0  0  0  0  0  0  0  0  0  0
  -18.9940  -29.6390   23.7780 C   0  0  0  0  0  3  0  0  0  0  0  0
  -17.6670  -30.0480   24.0060 C   0  0  0  0  0  3  0  0  0  0  0  0
  -16.5990  -29.2480   23.5620 C   0  0  0  0  0  3  0  0  0  0  0  0
  -16.8620  -28.0440   22.8850 C   0  0  0  0  0  3  0  0  0  0  0  0
  -25.7910  -32.4600   23.6960 C   0  0  0  0  0  3  0  0  0  0  0  0
  -25.4100  -33.8120   24.1290 N   0  0  0  0  0  0  0  0  0  0  0  0
  -25.6670  -34.9320   23.4420 C   0  0  0  0  0  0  0  0  0  0  0  0
  -26.3210  -34.9380   22.3930 O   0  0  0  0  0  0  0  0  0  0  0  0
  -24.8230  -33.8750   24.9480 H   0  0  0  0  0  0  0  0  0  0  0  0
  -23.8330  -36.6430   23.2450 C   0  0  0  0  0  1  0  0  0  0  0  0
  -25.1140  -36.2570   24.0020 C   0  0  0  0  0  3  0  0  0  0  0  0
  -27.2120  -37.2100   24.8500 C   0  0  0  0  0  1  0  0  0  0  0  0
  -26.0820  -37.3730   23.9390 N   0  0  0  0  0  0  0  0  0  0  0  0
  -25.6290  -38.2570   24.1510 H   0  0  0  0  0  0  0  0  0  0  0  0
  -26.3830  -31.6350   24.9060 C   0  0  1  0  0  0  0  0  0  0  0  0
  -25.3310  -31.2570   25.9750 C   0  0  0  0  0  1  0  0  0  0  0  0
  -27.0400  -30.3260   24.4090 C   0  0  0  0  0  1  0  0  0  0  0  0
  -27.4990  -32.4530   25.5990 C   0  0  0  0  0  1  0  0  0  0  0  0
  1  2  2  0
  1  6  1  0
  2  3  1  0
  3  4  1  0
  3  7  2  0
  4  5  1  0
  6  5  1  0
  8 11  1  0
  9  8  2  0
  9 12  1  0
 11  6  1  0
 11 10  2  0
 12 13  2  0
 13 10  1  0
 13 52  1  0
 14 20  1  0
 15 20  1  0
 16 17  1  0
 16 15  1  0
 18 17  1  0
 18 27  1  0
 18 19  1  0
 20 19  1  0
 21 14  2  0
 22 23  1  0
 23 12  1  0
 23 14  1  0
 24 25  2  0
 25 44  1  0
 26 25  1  0
 26 29  1  0
 27 28  1  0
 27 24  1  0
 28 26  2  0
 29 30  1  0
 30 31  2  0
 32 35  1  0
 32 31  1  0
 33 32  2  0
 34 33  1  0
 34 29  2  0
 35 36  1  0
 36 41  2  0
 36 37  1  0
 37 38  2  0
 38 39  1  0
 39 43  1  0
 40 39  2  0
 41 40  1  0
 42 41  1  0
 44 45  1  0
 45 48  1  0
 45 47  1  0
 46 44  2  0
 49 24  1  0
 49 50  1  0
 51 49  1  0
 52 53  1  0
 53 55  1  0
 55 54  1  0
 56 57  1  0
 56  2  1  0
 57 59  1  0
 58 69  2  0
 59 64  1  0
 60 68  1  0
 60 70  1  0
 61 67  1  0
 61 63  1  0
 62 68  1  0
 63 62  1  0
 64 63  2  0
 65 66  1  0
 65 59  2  0
 66 61  2  0
 67 60  1  0
 68 58  1  0
 70 72  2  0
 71 70  1  0
 73 71  1  0
 74 83  2  0
 74 79  1  0
 75 71  1  0
 75 79  1  0
 76 75  1  0
 77 78  1  0
 77 76  1  0
 78 74  1  0
 79 80  2  0
 80 81  1  0
 82 81  2  0
 83 82  1  0
 84 58  1  0
 84 85  1  0
 84 94  1  0
 85 88  1  0
 86 90  1  0
 86 85  1  0
 87 86  2  0
 90 89  1  0
 92 90  1  0
 92 93  1  0
 92 91  1  0
 94 97  1  1
 94 95  1  0
 96 94  1  0
M  ISO  4  14 100  23 100  56 101  57 101
M  END
>  <TORSDO>  (43) 
F 21

>  <SCORE>  (43) 
-8.750

>  <name>  (43) 
42

>  <ligand_id>  (43) 
42

>  <original_smiles>  (43) 
[H]C1=C(C([H])([H])Oc2c([H])c([H])c3c(c2[H])C([H])([H])N(C(=O)C([H])(N([H])C(=O)C([H])(N([H])C([H])([H])[H])C([H])([H])[H])C(C([H])([H])[H])(C([H])([H])[H])C([H])([H])[H])C([H])(C(=O)N([H])C2([H])c4c([H])c([H])c([H])c([H])c4C([H])([H])C([H])([H])C2([H])[H])C3([H])[H])C(=O)C([H])([H])C([H])([H])N1c1c([H])c([H])c(N(C(=O)N2C([H])([H])C([H])([H])C([H])([H])C([H])(n3nc(-c4c([H])c([H])c(Oc5c([H])c([H])c(F)c([H])c5F)c([H])c4[H])c(C(=O)N([H])[H])c3N([H])[H])C2([H])[H])C([H])([H])[H])c(OC([H])([H])C([H])([H])C([H])([H])[H])c1[H]

>  <smiles>  (43) 
[H]C1=C(C([H])([H])Oc2c([H])c([H])c3c(c2[H])C([H])([H])N(C(=O)C([H])(N([H])C(=O)C([H])(N([H])C([H])([H])[H])C([H])([H])[H])C(C([H])([H])[H])(C([H])([H])[H])C([H])([H])[H])C([H])(C(=O)N([H])C2([H])c4c([H])c([H])c([H])c([H])c4C([H])([H])C([H])([H])C2([H])[H])C3([H])[H])C(=O)C([H])([H])C([H])([H])N1c1c([H])c([H])c(N(C(=O)N2C([H])([H])C([H])([H])C([H])([H])C([H])(n3nc(-c4c([H])c([H])c(Oc5c([H])c([H])c(F)c([H])c5F)c([H])c4[H])c(C(=O)N([H])[H])c3N([H])[H])C2([H])[H])C([H])([H])[H])c(OC([H])([H])C([H])([H])C([H])([H])[H])c1[H]

$$$$
43:0:0
     RDKit          3D

 93102  0  0  1  0  0  0  0  0999 V2000
  -29.4140  -22.3870   21.9690 C   0  0  0  0  0  0  0  0  0  0  0  0
  -30.1180  -23.7170   22.1930 C   0  0  0  0  0  2  0  0  0  0  0  0
  -30.5640  -24.0870   20.7850 C   0  0  0  0  0  2  0  0  0  0  0  0
  -29.4580  -23.4700   19.9280 C   0  0  0  0  0  3  0  0  0  0  0  0
  -29.2490  -22.0910   20.6580 N   0  0  0  0  0  0  0  0  0  0  0  0
  -29.0690  -21.6880   22.9260 O   0  0  0  0  0  0  0  0  0  0  0  0
  -30.7840  -19.9450   20.1380 C   0  0  0  0  0  3  0  0  0  0  0  0
  -30.9600  -18.4910   20.0910 C   0  0  0  0  0  3  0  0  0  0  0  0
  -28.4670  -19.6430   20.4150 C   0  0  0  0  0  3  0  0  0  0  0  0
  -28.6270  -18.2060   20.3790 C   0  0  0  0  0  0  0  0  0  0  0  0
  -29.5180  -20.6110   20.3260 C   0  0  0  0  0  0  0  0  0  0  0  0
  -29.8910  -17.5320   20.2250 C   0  0  0  0  0  0  0  0  0  0  0  0
  -27.3450  -17.4080   20.5660 C   0  0  0  0  0  1  0  0  0  0  0  0
  -30.7320  -14.9200   19.7560 C   0  0  0  0  0  0  0  0  0  0  0  0
  -30.5080  -12.6350   18.6840 C   0  0  0  0  0  2  0  0  0  0  0  0
  -29.4650  -12.7030   17.5430 C   0  0  0  0  0  2  0  0  0  0  0  0
  -28.0360  -12.5060   18.0870 C   0  0  0  0  0  2  0  0  0  0  0  0
  -27.7620  -13.3580   19.3540 C   0  0  0  0  0  3  0  0  0  0  0  0
  -28.9110  -13.2380   20.3800 C   0  0  0  0  0  2  0  0  0  0  0  0
  -30.1470  -13.6590   19.7020 N   0  0  0  0  0  0  0  0  0  0  0  0
  -31.8790  -15.0540   19.3130 O   0  0  0  0  0  0  0  0  0  0  0  0
  -29.9240  -16.0010   20.1750 N   0  0  0  0  0  0  0  0  0  0  0  0
  -29.0700  -15.6140   20.5450 H   0  0  0  0  0  0  0  0  0  0  0  0
  -25.4520  -13.9480   20.2930 C   0  0  0  0  0  0  0  0  0  0  0  0
  -24.4110  -13.1770   20.7300 C   0  0  0  0  0  0  0  0  0  0  0  0
  -24.8480  -11.8230   20.6160 C   0  0  0  0  0  0  0  0  0  0  0  0
  -26.4600  -13.0650   19.9440 N   0  0  0  0  0  0  0  0  0  0  0  0
  -26.1090  -11.7790   20.2000 N   0  0  0  0  0  0  0  0  0  0  0  0
  -24.1170  -10.5650   20.8220 C   0  0  0  0  0  0  0  0  0  0  0  0
  -24.5490   -9.6060   21.7650 C   0  0  0  0  0  3  0  0  0  0  0  0
  -23.8180   -8.4140   21.9590 C   0  0  0  0  0  3  0  0  0  0  0  0
  -22.6410   -8.1730   21.2100 C   0  0  0  0  0  0  0  0  0  0  0  0
  -22.2290   -9.1210   20.2560 C   0  0  0  0  0  3  0  0  0  0  0  0
  -22.9610  -10.3040   20.0610 C   0  0  0  0  0  3  0  0  0  0  0  0
  -21.8820   -7.0330   21.3130 O   0  0  0  0  0  0  0  0  0  0  0  0
  -21.7410   -6.3670   22.5040 C   0  0  0  0  0  0  0  0  0  0  0  0
  -21.2350   -7.0040   23.6580 C   0  0  0  0  0  3  0  0  0  0  0  0
  -21.0420   -6.2640   24.8420 C   0  0  0  0  0  3  0  0  0  0  0  0
  -21.3430   -4.8890   24.8720 C   0  0  0  0  0  0  0  0  0  0  0  0
  -21.8420   -4.2530   23.7210 C   0  0  0  0  0  3  0  0  0  0  0  0
  -22.0370   -4.9890   22.5400 C   0  0  0  0  0  0  0  0  0  0  0  0
  -22.4970   -4.3660   21.4290 F   0  0  0  0  0  0  0  0  0  0  0  0
  -21.1500   -4.1770   26.0070 F   0  0  0  0  0  0  0  0  0  0  0  0
  -23.0480  -13.6660   21.1300 C   0  0  0  0  0  0  0  0  0  0  0  0
  -22.3890  -12.9630   22.0440 N   0  0  0  0  0  0  0  0  0  0  0  0
  -22.5800  -14.7050   20.6660 O   0  0  0  0  0  0  0  0  0  0  0  0
  -22.7820  -12.1230   22.4410 H   0  0  0  0  0  0  0  0  0  0  0  0
  -21.4780  -13.2720   22.3540 H   0  0  0  0  0  0  0  0  0  0  0  0
  -25.6140  -15.3200   20.1350 N   0  0  0  0  0  0  0  0  0  0  0  0
  -24.8460  -15.9620   20.2990 H   0  0  0  0  0  0  0  0  0  0  0  0
  -26.3920  -15.7530   19.6550 H   0  0  0  0  0  0  0  0  0  0  0  0
  -28.2530  -24.6480   19.8970 C   0  0  0  0  0  2  0  0  0  0  0  0
  -28.4500  -26.1880   19.8100 O   0  0  0  0  0  0  0  0  0  0  0  0
  -24.5400  -31.5500   23.0060 C   0  0  0  0  0  0  0  0  0  0  0  0
  -27.3380  -27.1020   19.8010 C   0  0  0  0  0  0  0  0  0  0  0  0
  -23.4130  -30.1900   21.2860 C   0  0  0  0  0  3  0  0  0  0  0  0
  -24.9380  -28.7400   19.8150 C   0  0  0  0  0  0  0  0  0  0  0  0
  -25.9560  -30.5630   21.1690 C   0  0  0  0  0  2  0  0  0  0  0  0
  -26.0910  -29.2080   20.4570 C   0  0  0  0  0  0  0  0  0  0  0  0
  -27.2930  -28.4070   20.4310 C   0  0  0  0  0  3  0  0  0  0  0  0
  -26.1520  -26.7290   19.1270 C   0  0  0  0  0  3  0  0  0  0  0  0
  -24.9800  -27.5130   19.1360 C   0  0  0  0  0  3  0  0  0  0  0  0
  -23.6770  -29.5860   19.8830 C   0  0  0  0  0  2  0  0  0  0  0  0
  -24.6550  -30.7870   21.8780 N   0  0  0  0  0  0  0  0  0  0  0  0
  -23.4370  -31.7690   23.5310 O   0  0  0  0  0  0  0  0  0  0  0  0
  -22.7610  -29.1140   22.1910 C   0  0  0  0  0  0  0  0  0  0  0  0
  -21.4350  -28.9260   22.0600 N   0  0  0  0  0  0  0  0  0  0  0  0
  -23.4490  -28.4530   22.9720 O   0  0  0  0  0  0  0  0  0  0  0  0
  -20.9360  -29.5130   21.4060 H   0  0  0  0  0  0  0  0  0  0  0  0
  -18.0700  -27.6830   22.5560 C   0  0  0  0  0  0  0  0  0  0  0  0
  -20.6350  -27.9310   22.7770 C   0  0  0  0  0  3  0  0  0  0  0  0
  -20.7230  -26.5460   22.0940 C   0  0  0  0  0  2  0  0  0  0  0  0
  -19.5960  -26.2980   21.0860 C   0  0  0  0  0  2  0  0  0  0  0  0
  -18.2310  -26.3890   21.7750 C   0  0  0  0  0  2  0  0  0  0  0  0
  -19.1990  -28.4150   23.0130 C   0  0  0  0  0  0  0  0  0  0  0  0
  -18.9930  -29.6260   23.7080 C   0  0  0  0  0  3  0  0  0  0  0  0
  -17.6910  -30.1070   23.9470 C   0  0  0  0  0  3  0  0  0  0  0  0
  -16.5770  -29.3720   23.5040 C   0  0  0  0  0  3  0  0  0  0  0  0
  -16.7690  -28.1610   22.8150 C   0  0  0  0  0  3  0  0  0  0  0  0
  -25.7860  -32.2000   23.6820 C   0  0  0  0  0  3  0  0  0  0  0  0
  -25.4240  -33.5760   24.0570 N   0  0  0  0  0  0  0  0  0  0  0  0
  -25.7260  -34.6680   23.3420 C   0  0  0  0  0  0  0  0  0  0  0  0
  -26.4060  -34.6250   22.3140 O   0  0  0  0  0  0  0  0  0  0  0  0
  -24.8170  -33.6800   24.8570 H   0  0  0  0  0  0  0  0  0  0  0  0
  -23.9300  -36.4090   23.0590 C   0  0  0  0  0  1  0  0  0  0  0  0
  -25.1920  -36.0230   23.8480 C   0  0  0  0  0  3  0  0  0  0  0  0
  -27.2930  -36.9660   24.6990 C   0  0  0  0  0  1  0  0  0  0  0  0
  -26.1840  -37.1170   23.7620 N   0  0  0  0  0  0  0  0  0  0  0  0
  -25.7440  -38.0170   23.9340 H   0  0  0  0  0  0  0  0  0  0  0  0
  -26.2940  -31.4020   24.9450 C   0  0  1  0  0  0  0  0  0  0  0  0
  -25.1820  -31.0950   25.9770 C   0  0  0  0  0  1  0  0  0  0  0  0
  -26.9280  -30.0560   24.5260 C   0  0  0  0  0  1  0  0  0  0  0  0
  -27.4030  -32.2060   25.6620 C   0  0  0  0  0  1  0  0  0  0  0  0
  1  2  1  0
  1  6  2  0
  3  2  1  0
  4 52  1  0
  4  5  1  0
  4  3  1  0
  5  1  1  0
  7 11  1  0
  8  7  2  0
  8 12  1  0
 10  9  1  0
 10 13  1  0
 11  9  2  0
 11  5  1  0
 12 10  2  0
 14 22  1  0
 15 20  1  0
 16 17  1  0
 16 15  1  0
 18 17  1  0
 18 27  1  0
 18 19  1  0
 20 14  1  0
 20 19  1  0
 21 14  2  0
 22 12  1  0
 22 23  1  0
 24 25  2  0
 25 44  1  0
 26 25  1  0
 26 29  1  0
 27 28  1  0
 27 24  1  0
 28 26  2  0
 29 30  1  0
 30 31  2  0
 32 35  1  0
 32 31  1  0
 33 32  2  0
 34 33  1  0
 34 29  2  0
 35 36  1  0
 36 41  2  0
 36 37  1  0
 37 38  2  0
 38 39  1  0
 39 43  1  0
 40 39  2  0
 41 40  1  0
 42 41  1  0
 44 45  1  0
 45 48  1  0
 45 47  1  0
 46 44  2  0
 49 24  1  0
 49 50  1  0
 51 49  1  0
 53 52  1  0
 54 65  2  0
 55 53  1  0
 55 60  1  0
 56 64  1  0
 56 66  1  0
 57 63  1  0
 57 59  1  0
 58 64  1  0
 59 58  1  0
 60 59  2  0
 61 62  1  0
 61 55  2  0
 62 57  2  0
 63 56  1  0
 64 54  1  0
 66 68  2  0
 67 66  1  0
 69 67  1  0
 70 79  2  0
 70 75  1  0
 71 67  1  0
 71 75  1  0
 72 71  1  0
 73 74  1  0
 73 72  1  0
 74 70  1  0
 75 76  2  0
 76 77  1  0
 78 77  2  0
 79 78  1  0
 80 54  1  0
 80 81  1  0
 80 90  1  0
 81 84  1  0
 82 86  1  0
 82 81  1  0
 83 82  2  0
 86 85  1  0
 88 86  1  0
 88 89  1  0
 88 87  1  0
 90 93  1  1
 90 91  1  0
 92 90  1  0
M  ISO  4  14 100  22 100  52 101  53 101
M  END
>  <TORSDO>  (44) 
F 18

>  <SCORE>  (44) 
-13.796

>  <name>  (44) 
43

>  <ligand_id>  (44) 
43

>  <original_smiles>  (44) 
[H]c1c([H])c([H])c2c(c1[H])C([H])([H])C([H])([H])C([H])([H])C2([H])N([H])C(=O)C1([H])N(C(=O)C([H])(N([H])C(=O)C([H])(N([H])C([H])([H])[H])C([H])([H])[H])C(C([H])([H])[H])(C([H])([H])[H])C([H])([H])[H])C([H])([H])c2c([H])c(OC([H])([H])C3([H])N(c4c([H])c([H])c(N([H])C(=O)N5C([H])([H])C([H])([H])C([H])([H])C([H])(n6nc(-c7c([H])c([H])c(Oc8c([H])c([H])c(F)c([H])c8F)c([H])c7[H])c(C(=O)N([H])[H])c6N([H])[H])C5([H])[H])c(C([H])([H])[H])c4[H])C(=O)C([H])([H])C3([H])[H])c([H])c([H])c2C1([H])[H]

>  <smiles>  (44) 
[H]c1c([H])c([H])c2c(c1[H])C([H])([H])C([H])([H])C([H])([H])C2([H])N([H])C(=O)C1([H])N(C(=O)C([H])(N([H])C(=O)C([H])(N([H])C([H])([H])[H])C([H])([H])[H])C(C([H])([H])[H])(C([H])([H])[H])C([H])([H])[H])C([H])([H])c2c([H])c(OC([H])([H])C3([H])N(c4c([H])c([H])c(N([H])C(=O)N5C([H])([H])C([H])([H])C([H])([H])C([H])(n6nc(-c7c([H])c([H])c(Oc8c([H])c([H])c(F)c([H])c8F)c([H])c7[H])c(C(=O)N([H])[H])c6N([H])[H])C5([H])[H])c(C([H])([H])[H])c4[H])C(=O)C([H])([H])C3([H])[H])c([H])c([H])c2C1([H])[H]

$$$$
44:0:0
     RDKit          3D

 94103  0  0  1  0  0  0  0  0999 V2000
  -27.7470  -22.3820   21.3930 C   0  0  0  0  0  0  0  0  0  0  0  0
  -27.3160  -23.6180   22.1680 C   0  0  0  0  0  2  0  0  0  0  0  0
  -28.5940  -24.4560   22.1350 C   0  0  0  0  0  2  0  0  0  0  0  0
  -29.1920  -24.1010   20.7670 C   0  0  0  0  0  3  0  0  0  0  0  0
  -28.8740  -22.5940   20.6830 N   0  0  0  0  0  0  0  0  0  0  0  0
  -27.1690  -21.3020   21.5470 O   0  0  0  0  0  0  0  0  0  0  0  0
  -29.9320  -21.4790   20.7170 C   0  0  0  0  0  2  0  0  0  0  0  0
  -30.1860  -18.7500   20.8280 C   0  0  0  0  0  3  0  0  0  0  0  0
  -28.9520  -19.8150   19.0140 C   0  0  0  0  0  3  0  0  0  0  0  0
  -29.3060  -17.3790   19.0200 C   0  0  0  0  0  3  0  0  0  0  0  0
  -29.6740  -19.9770   20.2150 C   0  0  0  0  0  0  0  0  0  0  0  0
  -30.0060  -17.4190   20.2470 C   0  0  0  0  0  0  0  0  0  0  0  0
  -28.7820  -18.5450   18.4230 C   0  0  0  0  0  0  0  0  0  0  0  0
  -28.0850  -18.4480   17.2640 F   0  0  0  0  0  0  0  0  0  0  0  0
  -30.9990  -15.0000   20.4010 C   0  0  0  0  0  0  0  0  0  0  0  0
  -30.8100  -12.6950   19.4350 C   0  0  0  0  0  2  0  0  0  0  0  0
  -29.8980  -12.7380   18.1890 C   0  0  0  0  0  2  0  0  0  0  0  0
  -28.4190  -12.5850   18.5850 C   0  0  0  0  0  2  0  0  0  0  0  0
  -28.0250  -13.5000   19.7730 C   0  0  0  0  0  3  0  0  0  0  0  0
  -29.0560  -13.4340   20.9230 C   0  0  0  0  0  2  0  0  0  0  0  0
  -30.3770  -13.7670   20.3700 N   0  0  0  0  0  0  0  0  0  0  0  0
  -32.1490  -15.1130   19.9570 O   0  0  0  0  0  0  0  0  0  0  0  0
  -30.3080  -16.1040   20.8840 N   0  0  0  0  0  0  0  0  0  0  0  0
  -29.5590  -15.7950   21.4880 H   0  0  0  0  0  0  0  0  0  0  0  0
  -25.6470  -14.1360   20.4830 C   0  0  0  0  0  0  0  0  0  0  0  0
  -24.5560  -13.3830   20.8230 C   0  0  0  0  0  0  0  0  0  0  0  0
  -24.9850  -12.0200   20.7700 C   0  0  0  0  0  0  0  0  0  0  0  0
  -26.6700  -13.2350   20.2440 N   0  0  0  0  0  0  0  0  0  0  0  0
  -26.2790  -11.9570   20.4790 N   0  0  0  0  0  0  0  0  0  0  0  0
  -24.2240  -10.7730   20.9290 C   0  0  0  0  0  0  0  0  0  0  0  0
  -24.6030   -9.7870   21.8670 C   0  0  0  0  0  3  0  0  0  0  0  0
  -23.8440   -8.6070   22.0160 C   0  0  0  0  0  3  0  0  0  0  0  0
  -22.6900   -8.4010   21.2220 C   0  0  0  0  0  0  0  0  0  0  0  0
  -22.3310   -9.3720   20.2710 C   0  0  0  0  0  3  0  0  0  0  0  0
  -23.0920  -10.5440   20.1220 C   0  0  0  0  0  3  0  0  0  0  0  0
  -21.9100   -7.2720   21.2780 O   0  0  0  0  0  0  0  0  0  0  0  0
  -21.7770   -6.5430   22.4320 C   0  0  0  0  0  0  0  0  0  0  0  0
  -21.2650   -7.1150   23.6190 C   0  0  0  0  0  3  0  0  0  0  0  0
  -21.0810   -6.3120   24.7630 C   0  0  0  0  0  3  0  0  0  0  0  0
  -21.3970   -4.9430   24.7220 C   0  0  0  0  0  0  0  0  0  0  0  0
  -21.9010   -4.3710   23.5390 C   0  0  0  0  0  3  0  0  0  0  0  0
  -22.0880   -5.1700   22.3980 C   0  0  0  0  0  0  0  0  0  0  0  0
  -22.5520   -4.6110   21.2540 F   0  0  0  0  0  0  0  0  0  0  0  0
  -21.2140   -4.1690   25.8160 F   0  0  0  0  0  0  0  0  0  0  0  0
  -23.1690  -13.8900   21.0860 C   0  0  0  0  0  0  0  0  0  0  0  0
  -22.4180  -13.2000   21.9410 N   0  0  0  0  0  0  0  0  0  0  0  0
  -22.7570  -14.9270   20.5660 O   0  0  0  0  0  0  0  0  0  0  0  0
  -22.7580  -12.3610   22.3850 H   0  0  0  0  0  0  0  0  0  0  0  0
  -21.4830  -13.5160   22.1500 H   0  0  0  0  0  0  0  0  0  0  0  0
  -25.8500  -15.5050   20.3310 N   0  0  0  0  0  0  0  0  0  0  0  0
  -25.1050  -16.1840   20.4360 H   0  0  0  0  0  0  0  0  0  0  0  0
  -26.7260  -15.9260   20.0470 H   0  0  0  0  0  0  0  0  0  0  0  0
  -28.5120  -25.1260   19.7110 C   0  0  0  0  0  2  0  0  0  0  0  0
  -28.6090  -26.6170   19.9240 O   0  0  0  0  0  0  0  0  0  0  0  0
  -24.6930  -31.7810   23.1360 C   0  0  0  0  0  0  0  0  0  0  0  0
  -27.4680  -27.4520   19.8690 C   0  0  0  0  0  0  0  0  0  0  0  0
  -23.5360  -30.4120   21.4360 C   0  0  0  0  0  3  0  0  0  0  0  0
  -25.0430  -28.9970   19.9240 C   0  0  0  0  0  0  0  0  0  0  0  0
  -26.0570  -30.8420   21.2570 C   0  0  0  0  0  2  0  0  0  0  0  0
  -26.1930  -29.4940   20.5500 C   0  0  0  0  0  0  0  0  0  0  0  0
  -27.4020  -28.7320   20.5180 C   0  0  0  0  0  3  0  0  0  0  0  0
  -26.3020  -27.0430   19.1800 C   0  0  0  0  0  3  0  0  0  0  0  0
  -25.1010  -27.7790   19.2290 C   0  0  0  0  0  3  0  0  0  0  0  0
  -23.7720  -29.8190   20.0210 C   0  0  0  0  0  2  0  0  0  0  0  0
  -24.7800  -31.0290   21.9990 N   0  0  0  0  0  0  0  0  0  0  0  0
  -23.6040  -31.9870   23.6900 O   0  0  0  0  0  0  0  0  0  0  0  0
  -22.9260  -29.3230   22.3500 C   0  0  0  0  0  0  0  0  0  0  0  0
  -21.6130  -29.0810   22.2130 N   0  0  0  0  0  0  0  0  0  0  0  0
  -23.6340  -28.7000   23.1460 O   0  0  0  0  0  0  0  0  0  0  0  0
  -21.0920  -29.6420   21.5520 H   0  0  0  0  0  0  0  0  0  0  0  0
  -18.3040  -27.6860   22.6520 C   0  0  0  0  0  0  0  0  0  0  0  0
  -20.8440  -28.0710   22.9430 C   0  0  0  0  0  3  0  0  0  0  0  0
  -21.0240  -26.6720   22.3100 C   0  0  0  0  0  2  0  0  0  0  0  0
  -19.9430  -26.3320   21.2790 C   0  0  0  0  0  2  0  0  0  0  0  0
  -18.5540  -26.3780   21.9220 C   0  0  0  0  0  2  0  0  0  0  0  0
  -19.3790  -28.4880   23.1180 C   0  0  0  0  0  0  0  0  0  0  0  0
  -19.0910  -29.7120   23.7600 C   0  0  0  0  0  3  0  0  0  0  0  0
  -17.7600  -30.1360   23.9420 C   0  0  0  0  0  3  0  0  0  0  0  0
  -16.7000  -29.3310   23.4910 C   0  0  0  0  0  3  0  0  0  0  0  0
  -16.9720  -28.1090   22.8520 C   0  0  0  0  0  3  0  0  0  0  0  0
  -25.9540  -32.4380   23.7770 C   0  0  0  0  0  3  0  0  0  0  0  0
  -26.4810  -31.6610   25.0480 C   0  0  1  0  0  0  0  0  0  0  0  0
  -25.3850  -31.3780   26.1020 C   0  0  0  0  0  1  0  0  0  0  0  0
  -27.1030  -30.3030   24.6420 C   0  0  0  0  0  1  0  0  0  0  0  0
  -27.5990  -32.4770   25.7360 C   0  0  0  0  0  1  0  0  0  0  0  0
  -25.6080  -33.8240   24.1240 N   0  0  0  0  0  0  0  0  0  0  0  0
  -25.9280  -34.8970   23.3890 C   0  0  0  0  0  0  0  0  0  0  0  0
  -26.6190  -34.8260   22.3680 O   0  0  0  0  0  0  0  0  0  0  0  0
  -25.0020  -33.9530   24.9220 H   0  0  0  0  0  0  0  0  0  0  0  0
  -24.1740  -36.6640   23.0240 C   0  0  0  0  0  1  0  0  0  0  0  0
  -25.4010  -36.2660   23.8600 C   0  0  0  0  0  3  0  0  0  0  0  0
  -27.4900  -37.1840   24.7680 C   0  0  0  0  0  1  0  0  0  0  0  0
  -26.4130  -37.3430   23.7950 N   0  0  0  0  0  0  0  0  0  0  0  0
  -25.9820  -38.2500   23.9450 H   0  0  0  0  0  0  0  0  0  0  0  0
  1  6  2  0
  1  2  1  0
  3  2  1  0
  4 53  1  0
  4  3  1  0
  5  7  1  0
  5  4  1  0
  5  1  1  0
  9 11  1  0
 10 12  2  0
 11  7  1  0
 11  8  2  0
 12  8  1  0
 12 23  1  0
 13  9  2  0
 13 10  1  0
 14 13  1  0
 15 23  1  0
 16 21  1  0
 17 18  1  0
 17 16  1  0
 19 18  1  0
 19 28  1  0
 19 20  1  0
 21 15  1  0
 21 20  1  0
 22 15  2  0
 23 24  1  0
 25 26  2  0
 26 45  1  0
 27 26  1  0
 27 30  1  0
 28 29  1  0
 28 25  1  0
 29 27  2  0
 30 31  1  0
 31 32  2  0
 33 36  1  0
 33 32  1  0
 34 33  2  0
 35 34  1  0
 35 30  2  0
 36 37  1  0
 37 38  1  0
 38 39  2  0
 40 39  1  0
 40 44  1  0
 41 40  2  0
 42 37  2  0
 42 41  1  0
 43 42  1  0
 45 46  1  0
 46 49  1  0
 46 48  1  0
 47 45  2  0
 50 51  1  0
 50 25  1  0
 52 50  1  0
 53 54  1  0
 55 66  2  0
 56 54  1  0
 56 61  1  0
 57 65  1  0
 57 67  1  0
 58 64  1  0
 58 60  1  0
 59 65  1  0
 60 59  1  0
 61 60  2  0
 62 63  1  0
 62 56  2  0
 63 58  2  0
 64 57  1  0
 65 55  1  0
 67 69  2  0
 68 67  1  0
 70 68  1  0
 71 80  2  0
 71 76  1  0
 72 68  1  0
 72 76  1  0
 73 72  1  0
 74 75  1  0
 74 73  1  0
 75 71  1  0
 76 77  2  0
 77 78  1  0
 79 78  2  0
 80 79  1  0
 81 55  1  0
 81 86  1  0
 81 82  1  0
 82 85  1  1
 82 83  1  0
 84 82  1  0
 86 89  1  0
 87 91  1  0
 87 86  1  0
 88 87  2  0
 91 90  1  0
 93 91  1  0
 93 94  1  0
 93 92  1  0
M  ISO  4  15 100  23 100  53 101  54 101
M  END
>  <TORSDO>  (45) 
F 19

>  <SCORE>  (45) 
-13.127

>  <name>  (45) 
44

>  <ligand_id>  (45) 
44

>  <original_smiles>  (45) 
[H]c1c([H])c([H])c2c(c1[H])C([H])([H])C([H])([H])C([H])([H])C2([H])N([H])C(=O)C1([H])N(C(=O)C([H])(N([H])C(=O)C([H])(N([H])C([H])([H])[H])C([H])([H])[H])C(C([H])([H])[H])(C([H])([H])[H])C([H])([H])[H])C([H])([H])c2c([H])c(OC([H])([H])C3([H])N(C([H])([H])c4c([H])c(F)c([H])c(N([H])C(=O)N5C([H])([H])C([H])([H])C([H])([H])C([H])(n6nc(-c7c([H])c([H])c(Oc8c([H])c([H])c(F)c([H])c8F)c([H])c7[H])c(C(=O)N([H])[H])c6N([H])[H])C5([H])[H])c4[H])C(=O)C([H])([H])C3([H])[H])c([H])c([H])c2C1([H])[H]

>  <smiles>  (45) 
[H]c1c([H])c([H])c2c(c1[H])C([H])([H])C([H])([H])C([H])([H])C2([H])N([H])C(=O)C1([H])N(C(=O)C([H])(N([H])C(=O)C([H])(N([H])C([H])([H])[H])C([H])([H])[H])C(C([H])([H])[H])(C([H])([H])[H])C([H])([H])[H])C([H])([H])c2c([H])c(OC([H])([H])C3([H])N(C([H])([H])c4c([H])c(F)c([H])c(N([H])C(=O)N5C([H])([H])C([H])([H])C([H])([H])C([H])(n6nc(-c7c([H])c([H])c(Oc8c([H])c([H])c(F)c([H])c8F)c([H])c7[H])c(C(=O)N([H])[H])c6N([H])[H])C5([H])[H])c4[H])C(=O)C([H])([H])C3([H])[H])c([H])c([H])c2C1([H])[H]

$$$$
45:0:0
     RDKit          3D

 98107  0  0  1  0  0  0  0  0999 V2000
  -28.1010  -24.3780   20.8100 C   0  0  0  0  0  0  0  0  0  0  0  0
  -28.8290  -23.3640   20.2600 C   0  0  0  0  0  0  0  0  0  0  0  0
  -26.6870  -24.1030   21.1310 C   0  0  0  0  0  0  0  0  0  0  0  0
  -25.9840  -23.1260   20.2000 C   0  0  0  0  0  2  0  0  0  0  0  0
  -26.8350  -21.8810   19.8980 C   0  0  0  0  0  2  0  0  0  0  0  0
  -30.2750  -23.5750   19.8290 C   0  0  0  0  0  1  0  0  0  0  0  0
  -28.2900  -22.0860   19.9770 N   0  0  0  0  0  0  0  0  0  0  0  0
  -26.0650  -24.6200   22.0630 O   0  0  0  0  0  0  0  0  0  0  0  0
  -30.5560  -19.3910   21.3100 C   0  0  0  0  0  3  0  0  0  0  0  0
  -29.9530  -20.6520   21.1110 C   0  0  0  0  0  3  0  0  0  0  0  0
  -28.5890  -19.6990   19.3570 C   0  0  0  0  0  3  0  0  0  0  0  0
  -30.2030  -18.2630   20.5320 C   0  0  0  0  0  0  0  0  0  0  0  0
  -28.9510  -20.8360   20.1310 C   0  0  0  0  0  0  0  0  0  0  0  0
  -29.2090  -18.4370   19.5340 C   0  0  0  0  0  0  0  0  0  0  0  0
  -28.8470  -17.3830   18.6940 N   0  0  0  0  0  0  0  0  0  0  0  0
  -27.9760  -17.3870   18.1770 H   0  0  0  0  0  0  0  0  0  0  0  0
  -29.3060  -16.4840   18.7680 H   0  0  0  0  0  0  0  0  0  0  0  0
  -30.9990  -16.9600   20.7580 C   0  0  0  0  0  2  0  0  0  0  0  0
  -30.8770  -14.5580   20.1560 C   0  0  0  0  0  0  0  0  0  0  0  0
  -30.4400  -12.3980   19.0600 C   0  0  0  0  0  2  0  0  0  0  0  0
  -29.4730  -12.6060   17.8800 C   0  0  0  0  0  2  0  0  0  0  0  0
  -28.0150  -12.4830   18.3600 C   0  0  0  0  0  2  0  0  0  0  0  0
  -27.7250  -13.3440   19.6220 C   0  0  0  0  0  3  0  0  0  0  0  0
  -28.8250  -13.1720   20.6980 C   0  0  0  0  0  2  0  0  0  0  0  0
  -30.1300  -13.4240   20.0680 N   0  0  0  0  0  0  0  0  0  0  0  0
  -31.9920  -14.6440   19.6400 O   0  0  0  0  0  0  0  0  0  0  0  0
  -30.3080  -15.6510   20.6990 N   0  0  0  0  0  0  0  0  0  0  0  0
  -29.3800  -15.5820   21.0880 H   0  0  0  0  0  0  0  0  0  0  0  0
  -25.3710  -13.9580   20.4500 C   0  0  0  0  0  0  0  0  0  0  0  0
  -24.3090  -13.1930   20.8510 C   0  0  0  0  0  0  0  0  0  0  0  0
  -24.7470  -11.8360   20.7710 C   0  0  0  0  0  0  0  0  0  0  0  0
  -26.3940  -13.0690   20.1580 N   0  0  0  0  0  0  0  0  0  0  0  0
  -26.0240  -11.7850   20.4070 N   0  0  0  0  0  0  0  0  0  0  0  0
  -24.0070  -10.5800   20.9610 C   0  0  0  0  0  0  0  0  0  0  0  0
  -24.4280   -9.6060   21.8920 C   0  0  0  0  0  3  0  0  0  0  0  0
  -23.6900   -8.4170   22.0720 C   0  0  0  0  0  3  0  0  0  0  0  0
  -22.5140   -8.1930   21.3180 C   0  0  0  0  0  0  0  0  0  0  0  0
  -22.1080   -9.1550   20.3770 C   0  0  0  0  0  3  0  0  0  0  0  0
  -22.8470  -10.3360   20.1960 C   0  0  0  0  0  3  0  0  0  0  0  0
  -21.7450   -7.0580   21.4030 O   0  0  0  0  0  0  0  0  0  0  0  0
  -21.6590   -6.3350   22.5670 C   0  0  0  0  0  0  0  0  0  0  0  0
  -21.1740   -6.9070   23.7630 C   0  0  0  0  0  3  0  0  0  0  0  0
  -21.0390   -6.1130   24.9190 C   0  0  0  0  0  3  0  0  0  0  0  0
  -21.3790   -4.7490   24.8790 C   0  0  0  0  0  0  0  0  0  0  0  0
  -21.8580   -4.1760   23.6880 C   0  0  0  0  0  3  0  0  0  0  0  0
  -21.9970   -4.9680   22.5350 C   0  0  0  0  0  0  0  0  0  0  0  0
  -22.4410   -4.4070   21.3840 F   0  0  0  0  0  0  0  0  0  0  0  0
  -21.2380   -3.9830   25.9870 F   0  0  0  0  0  0  0  0  0  0  0  0
  -22.9320  -13.6860   21.1870 C   0  0  0  0  0  0  0  0  0  0  0  0
  -22.2270  -12.9850   22.0690 N   0  0  0  0  0  0  0  0  0  0  0  0
  -22.4900  -14.7270   20.7030 O   0  0  0  0  0  0  0  0  0  0  0  0
  -22.5980  -12.1390   22.4750 H   0  0  0  0  0  0  0  0  0  0  0  0
  -21.3060  -13.2970   22.3400 H   0  0  0  0  0  0  0  0  0  0  0  0
  -25.5380  -15.3290   20.2830 N   0  0  0  0  0  0  0  0  0  0  0  0
  -24.7400  -15.9520   20.3420 H   0  0  0  0  0  0  0  0  0  0  0  0
  -26.3270  -15.7370   19.7950 H   0  0  0  0  0  0  0  0  0  0  0  0
  -28.6180  -25.7830   21.1800 C   0  0  0  0  0  2  0  0  0  0  0  0
  -28.4800  -26.7790   20.1480 O   0  0  0  0  0  0  0  0  0  0  0  0
  -24.5930  -31.9110   23.2690 C   0  0  0  0  0  0  0  0  0  0  0  0
  -27.3220  -27.5240   20.1830 C   0  0  0  0  0  0  0  0  0  0  0  0
  -23.4270  -30.5220   21.5870 C   0  0  0  0  0  3  0  0  0  0  0  0
  -24.9180  -29.0160   20.1690 C   0  0  0  0  0  0  0  0  0  0  0  0
  -25.9520  -30.9050   21.4350 C   0  0  0  0  0  2  0  0  0  0  0  0
  -26.0610  -29.5390   20.7860 C   0  0  0  0  0  0  0  0  0  0  0  0
  -27.2690  -28.7990   20.7980 C   0  0  0  0  0  3  0  0  0  0  0  0
  -26.1700  -27.0230   19.5480 C   0  0  0  0  0  3  0  0  0  0  0  0
  -24.9660  -27.7520   19.5540 C   0  0  0  0  0  3  0  0  0  0  0  0
  -23.6640  -29.8610   20.2020 C   0  0  0  0  0  2  0  0  0  0  0  0
  -24.6740  -31.1260   22.1570 N   0  0  0  0  0  0  0  0  0  0  0  0
  -23.5020  -32.1680   23.7980 O   0  0  0  0  0  0  0  0  0  0  0  0
  -22.7730  -29.4820   22.5230 C   0  0  0  0  0  0  0  0  0  0  0  0
  -21.4490  -29.3020   22.3810 N   0  0  0  0  0  0  0  0  0  0  0  0
  -23.4520  -28.8440   23.3320 O   0  0  0  0  0  0  0  0  0  0  0  0
  -20.9630  -29.8720   21.7040 H   0  0  0  0  0  0  0  0  0  0  0  0
  -18.0690  -28.1310   22.8660 C   0  0  0  0  0  0  0  0  0  0  0  0
  -20.6290  -28.3540   23.1330 C   0  0  0  0  0  3  0  0  0  0  0  0
  -20.7160  -26.9360   22.5200 C   0  0  0  0  0  2  0  0  0  0  0  0
  -19.6050  -26.6490   21.5040 C   0  0  0  0  0  2  0  0  0  0  0  0
  -18.2250  -26.7970   22.1520 C   0  0  0  0  0  2  0  0  0  0  0  0
  -19.1980  -28.8670   23.3110 C   0  0  0  0  0  0  0  0  0  0  0  0
  -18.9990  -30.1140   23.9430 C   0  0  0  0  0  3  0  0  0  0  0  0
  -17.7030  -30.6230   24.1350 C   0  0  0  0  0  3  0  0  0  0  0  0
  -16.5870  -29.8860   23.7060 C   0  0  0  0  0  3  0  0  0  0  0  0
  -16.7710  -28.6410   23.0760 C   0  0  0  0  0  3  0  0  0  0  0  0
  -25.8650  -32.5440   23.9170 C   0  0  0  0  0  3  0  0  0  0  0  0
  -26.3480  -31.7850   25.2130 C   0  0  1  0  0  0  0  0  0  0  0  0
  -25.2280  -31.5550   26.2520 C   0  0  0  0  0  1  0  0  0  0  0  0
  -26.9430  -30.4050   24.8480 C   0  0  0  0  0  1  0  0  0  0  0  0
  -27.4790  -32.5880   25.8990 C   0  0  0  0  0  1  0  0  0  0  0  0
  -25.5520  -33.9460   24.2190 N   0  0  0  0  0  0  0  0  0  0  0  0
  -25.9160  -34.9880   23.4580 C   0  0  0  0  0  0  0  0  0  0  0  0
  -26.6190  -34.8690   22.4500 O   0  0  0  0  0  0  0  0  0  0  0  0
  -24.9280  -34.1140   24.9940 H   0  0  0  0  0  0  0  0  0  0  0  0
  -24.2140  -36.7890   23.0200 C   0  0  0  0  0  1  0  0  0  0  0  0
  -25.4220  -36.3850   23.8800 C   0  0  0  0  0  3  0  0  0  0  0  0
  -27.5230  -37.2670   24.7910 C   0  0  0  0  0  1  0  0  0  0  0  0
  -26.4650  -37.4290   23.7980 N   0  0  0  0  0  0  0  0  0  0  0  0
  -26.0590  -38.3530   23.9180 H   0  0  0  0  0  0  0  0  0  0  0  0
  1  3  1  0
  1 57  1  0
  2  1  2  0
  3  8  2  0
  4  3  1  0
  5  7  1  0
  5  4  1  0
  6  2  1  0
  7 13  1  0
  7  2  1  0
 10  9  1  0
 11 14  2  0
 11 13  1  0
 12 18  1  0
 12  9  2  0
 13 10  2  0
 14 12  1  0
 15 17  1  0
 15 14  1  0
 16 15  1  0
 19 27  1  0
 20 25  1  0
 21 22  1  0
 21 20  1  0
 23 22  1  0
 23 32  1  0
 23 24  1  0
 25 19  1  0
 25 24  1  0
 26 19  2  0
 27 18  1  0
 27 28  1  0
 29 30  2  0
 30 49  1  0
 31 30  1  0
 31 34  1  0
 32 33  1  0
 32 29  1  0
 33 31  2  0
 34 35  1  0
 35 36  2  0
 37 40  1  0
 37 36  1  0
 38 37  2  0
 39 38  1  0
 39 34  2  0
 40 41  1  0
 41 42  1  0
 42 43  2  0
 44 43  1  0
 44 48  1  0
 45 44  2  0
 46 41  2  0
 46 45  1  0
 47 46  1  0
 49 50  1  0
 50 53  1  0
 50 52  1  0
 51 49  2  0
 54 55  1  0
 54 29  1  0
 56 54  1  0
 58 60  1  0
 58 57  1  0
 59 70  2  0
 60 65  1  0
 61 69  1  0
 61 71  1  0
 62 68  1  0
 62 64  1  0
 63 69  1  0
 64 65  2  0
 64 63  1  0
 66 67  1  0
 66 60  2  0
 67 62  2  0
 68 61  1  0
 69 59  1  0
 71 73  2  0
 72 71  1  0
 74 72  1  0
 75 84  2  0
 75 80  1  0
 76 72  1  0
 76 80  1  0
 77 76  1  0
 78 79  1  0
 78 77  1  0
 79 75  1  0
 80 81  2  0
 81 82  1  0
 83 82  2  0
 84 83  1  0
 85 59  1  0
 85 90  1  0
 85 86  1  0
 86 89  1  1
 86 87  1  0
 88 86  1  0
 90 93  1  0
 91 95  1  0
 91 90  1  0
 92 91  2  0
 95 94  1  0
 97 95  1  0
 97 98  1  0
 97 96  1  0
M  ISO  4  19 100  27 100  57 101  58 101
M  END
>  <TORSDO>  (46) 
F 20

>  <SCORE>  (46) 
-14.380

>  <name>  (46) 
45

>  <ligand_id>  (46) 
45

>  <original_smiles>  (46) 
[H]c1c([H])c([H])c2c(c1[H])C([H])([H])C([H])([H])C([H])([H])C2([H])N([H])C(=O)C1([H])N(C(=O)C([H])(N([H])C(=O)C([H])(N([H])C([H])([H])[H])C([H])([H])[H])C(C([H])([H])[H])(C([H])([H])[H])C([H])([H])[H])C([H])([H])c2c([H])c(OC([H])([H])C3=C(C([H])([H])[H])N(c4c([H])c([H])c(C([H])([H])N([H])C(=O)N5C([H])([H])C([H])([H])C([H])([H])C([H])(n6nc(-c7c([H])c([H])c(Oc8c([H])c([H])c(F)c([H])c8F)c([H])c7[H])c(C(=O)N([H])[H])c6N([H])[H])C5([H])[H])c(N([H])[H])c4[H])C([H])([H])C([H])([H])C3=O)c([H])c([H])c2C1([H])[H]

>  <smiles>  (46) 
[H]c1c([H])c([H])c2c(c1[H])C([H])([H])C([H])([H])C([H])([H])C2([H])N([H])C(=O)C1([H])N(C(=O)C([H])(N([H])C(=O)C([H])(N([H])C([H])([H])[H])C([H])([H])[H])C(C([H])([H])[H])(C([H])([H])[H])C([H])([H])[H])C([H])([H])c2c([H])c(OC([H])([H])C3=C(C([H])([H])[H])N(c4c([H])c([H])c(C([H])([H])N([H])C(=O)N5C([H])([H])C([H])([H])C([H])([H])C([H])(n6nc(-c7c([H])c([H])c(Oc8c([H])c([H])c(F)c([H])c8F)c([H])c7[H])c(C(=O)N([H])[H])c6N([H])[H])C5([H])[H])c(N([H])[H])c4[H])C([H])([H])C([H])([H])C3=O)c([H])c([H])c2C1([H])[H]

$$$$
46:0:0
     RDKit          3D

 98106  0  0  1  0  0  0  0  0999 V2000
  -29.2740  -18.9290   20.5590 C   0  0  0  0  0  3  0  0  0  0  0  0
  -30.9440  -21.1620   20.2450 C   0  0  0  0  0  3  0  0  0  0  0  0
  -30.6730  -18.6850   20.5840 C   0  0  0  0  0  0  0  0  0  0  0  0
  -31.5000  -19.8510   20.3880 C   0  0  0  0  0  0  0  0  0  0  0  0
  -29.5530  -21.4020   20.2770 C   0  0  0  0  0  0  0  0  0  0  0  0
  -28.7300  -20.2460   20.4070 C   0  0  0  0  0  0  0  0  0  0  0  0
  -31.2760  -14.8690   20.7850 C   0  0  0  0  0  0  0  0  0  0  0  0
  -30.9900  -12.5460   19.9410 C   0  0  0  0  0  2  0  0  0  0  0  0
  -30.1960  -12.5420   18.6220 C   0  0  0  0  0  2  0  0  0  0  0  0
  -28.6850  -12.4680   18.9120 C   0  0  0  0  0  2  0  0  0  0  0  0
  -28.2290  -13.4890   19.9910 C   0  0  0  0  0  3  0  0  0  0  0  0
  -29.1680  -13.5040   21.2170 C   0  0  0  0  0  2  0  0  0  0  0  0
  -30.5320  -13.7170   20.7190 N   0  0  0  0  0  0  0  0  0  0  0  0
  -32.4910  -14.7950   20.5800 O   0  0  0  0  0  0  0  0  0  0  0  0
  -31.2680  -17.3120   21.0040 C   0  0  0  0  0  0  0  0  0  0  0  0
  -30.6390  -16.0940   20.8300 N   0  0  0  0  0  0  0  0  0  0  0  0
  -32.3910  -17.3730   21.5240 O   0  0  0  0  0  0  0  0  0  0  0  0
  -29.6530  -16.1070   20.6400 H   0  0  0  0  0  0  0  0  0  0  0  0
  -25.8580  -14.2340   20.6280 C   0  0  0  0  0  0  0  0  0  0  0  0
  -24.7060  -13.5340   20.8570 C   0  0  0  0  0  0  0  0  0  0  0  0
  -25.0490  -12.1530   20.7250 C   0  0  0  0  0  0  0  0  0  0  0  0
  -26.8350  -13.2850   20.3710 N   0  0  0  0  0  0  0  0  0  0  0  0
  -26.3500  -12.0220   20.4930 N   0  0  0  0  0  0  0  0  0  0  0  0
  -24.2020  -10.9530   20.7460 C   0  0  0  0  0  0  0  0  0  0  0  0
  -24.5380   -9.8240   21.5240 C   0  0  0  0  0  3  0  0  0  0  0  0
  -23.6970   -8.6900   21.5430 C   0  0  0  0  0  3  0  0  0  0  0  0
  -22.5050   -8.6790   20.7800 C   0  0  0  0  0  0  0  0  0  0  0  0
  -22.1870   -9.7950   19.9870 C   0  0  0  0  0  3  0  0  0  0  0  0
  -23.0290  -10.9200   19.9660 C   0  0  0  0  0  3  0  0  0  0  0  0
  -21.6400   -7.6120   20.7180 O   0  0  0  0  0  0  0  0  0  0  0  0
  -21.5840   -6.6700   21.7150 C   0  0  0  0  0  0  0  0  0  0  0  0
  -21.2980   -7.0180   23.0520 C   0  0  0  0  0  3  0  0  0  0  0  0
  -21.1810   -6.0130   24.0320 C   0  0  0  0  0  3  0  0  0  0  0  0
  -21.3400   -4.6600   23.6750 C   0  0  0  0  0  0  0  0  0  0  0  0
  -21.6200   -4.3110   22.3420 C   0  0  0  0  0  3  0  0  0  0  0  0
  -21.7380   -5.3140   21.3640 C   0  0  0  0  0  0  0  0  0  0  0  0
  -21.9860   -4.9710   20.0770 F   0  0  0  0  0  0  0  0  0  0  0  0
  -21.2190   -3.6940   24.6140 F   0  0  0  0  0  0  0  0  0  0  0  0
  -23.3400  -14.1150   21.0820 C   0  0  0  0  0  0  0  0  0  0  0  0
  -22.5040  -13.4340   21.8570 N   0  0  0  0  0  0  0  0  0  0  0  0
  -23.0250  -15.2060   20.6090 O   0  0  0  0  0  0  0  0  0  0  0  0
  -22.7720  -12.5500   22.2610 H   0  0  0  0  0  0  0  0  0  0  0  0
  -21.5830  -13.8030   22.0470 H   0  0  0  0  0  0  0  0  0  0  0  0
  -26.1500  -15.5940   20.5860 N   0  0  0  0  0  0  0  0  0  0  0  0
  -25.4190  -16.2910   20.6800 H   0  0  0  0  0  0  0  0  0  0  0  0
  -27.0250  -15.9800   20.2590 H   0  0  0  0  0  0  0  0  0  0  0  0
  -32.8960  -19.7750   20.3320 N   0  0  0  0  0  0  0  0  0  0  0  0
  -33.4350  -20.6320   20.4090 H   0  0  0  0  0  0  0  0  0  0  0  0
  -33.3530  -18.9890   20.7860 H   0  0  0  0  0  0  0  0  0  0  0  0
  -26.7030  -19.9960   19.2570 C   0  0  0  0  0  1  0  0  0  0  0  0
  -27.3700  -20.4360   20.4330 O   0  0  0  0  0  0  0  0  0  0  0  0
  -28.9370  -22.6940   20.1390 N   0  0  0  0  0  0  0  0  0  0  0  0
  -27.9230  -22.6520   20.2310 H   0  0  0  0  0  0  0  0  0  0  0  0
  -29.5200  -24.0660   20.3280 C   0  0  0  0  0  2  0  0  0  0  0  0
  -28.7140  -25.2530   19.6210 C   0  0  0  0  0  3  0  0  0  0  0  0
  -29.3670  -25.3200   17.0010 C   0  0  0  0  0  3  0  0  0  0  0  0
  -29.0720  -25.2800   18.1840 C   0  0  0  0  0  0  0  0  0  0  0  0
  -28.7810  -26.6500   20.1450 O   0  0  0  0  0  0  0  0  0  0  0  0
  -24.7410  -31.7680   23.2810 C   0  0  0  0  0  0  0  0  0  0  0  0
  -27.6410  -27.4790   20.0810 C   0  0  0  0  0  0  0  0  0  0  0  0
  -23.6600  -30.4330   21.5140 C   0  0  0  0  0  3  0  0  0  0  0  0
  -25.2250  -29.0250   20.0650 C   0  0  0  0  0  0  0  0  0  0  0  0
  -26.1940  -30.8380   21.4660 C   0  0  0  0  0  2  0  0  0  0  0  0
  -26.3490  -29.5020   20.7480 C   0  0  0  0  0  0  0  0  0  0  0  0
  -27.5560  -28.7390   20.7520 C   0  0  0  0  0  3  0  0  0  0  0  0
  -26.4900  -27.0750   19.3580 C   0  0  0  0  0  3  0  0  0  0  0  0
  -25.2990  -27.8170   19.3600 C   0  0  0  0  0  3  0  0  0  0  0  0
  -23.9570  -29.8520   20.1080 C   0  0  0  0  0  2  0  0  0  0  0  0
  -24.8820  -31.0290   22.1440 N   0  0  0  0  0  0  0  0  0  0  0  0
  -23.6260  -31.9740   23.7840 O   0  0  0  0  0  0  0  0  0  0  0  0
  -22.9920  -29.3370   22.3790 C   0  0  0  0  0  0  0  0  0  0  0  0
  -21.6690  -29.1570   22.2190 N   0  0  0  0  0  0  0  0  0  0  0  0
  -23.6650  -28.6550   23.1560 O   0  0  0  0  0  0  0  0  0  0  0  0
  -21.1820  -29.7600   21.5720 H   0  0  0  0  0  0  0  0  0  0  0  0
  -18.2960  -27.9180   22.6020 C   0  0  0  0  0  0  0  0  0  0  0  0
  -20.8520  -28.1580   22.9090 C   0  0  0  0  0  3  0  0  0  0  0  0
  -20.9610  -26.7800   22.2190 C   0  0  0  0  0  2  0  0  0  0  0  0
  -19.8660  -26.5390   21.1740 C   0  0  0  0  0  2  0  0  0  0  0  0
  -18.4810  -26.6280   21.8210 C   0  0  0  0  0  2  0  0  0  0  0  0
  -19.4100  -28.6440   23.1010 C   0  0  0  0  0  0  0  0  0  0  0  0
  -19.1840  -29.8540   23.7930 C   0  0  0  0  0  3  0  0  0  0  0  0
  -17.8760  -30.3370   23.9920 C   0  0  0  0  0  3  0  0  0  0  0  0
  -16.7770  -29.6070   23.5080 C   0  0  0  0  0  3  0  0  0  0  0  0
  -16.9880  -28.3990   22.8190 C   0  0  0  0  0  3  0  0  0  0  0  0
  -25.9710  -32.4080   23.9940 C   0  0  0  0  0  3  0  0  0  0  0  0
  -25.6180  -33.7970   24.3220 N   0  0  0  0  0  0  0  0  0  0  0  0
  -26.0160  -34.8690   23.6230 C   0  0  0  0  0  0  0  0  0  0  0  0
  -26.7820  -34.7920   22.6570 O   0  0  0  0  0  0  0  0  0  0  0  0
  -24.9430  -33.9300   25.0590 H   0  0  0  0  0  0  0  0  0  0  0  0
  -24.3090  -36.6600   23.1550 C   0  0  0  0  0  1  0  0  0  0  0  0
  -25.4770  -36.2440   24.0630 C   0  0  0  0  0  3  0  0  0  0  0  0
  -27.5180  -37.1290   25.1080 C   0  0  0  0  0  1  0  0  0  0  0  0
  -26.5080  -37.3060   24.0680 N   0  0  0  0  0  0  0  0  0  0  0  0
  -26.0820  -38.2190   24.1940 H   0  0  0  0  0  0  0  0  0  0  0  0
  -26.4130  -31.6210   25.2890 C   0  0  1  0  0  0  0  0  0  0  0  0
  -25.2600  -31.3660   26.2860 C   0  0  0  0  0  1  0  0  0  0  0  0
  -27.0250  -30.2510   24.9190 C   0  0  0  0  0  1  0  0  0  0  0  0
  -27.5220  -32.4070   26.0250 C   0  0  0  0  0  1  0  0  0  0  0  0
  1  3  1  0
  2  5  2  0
  2  4  1  0
  3 15  1  0
  4  3  2  0
  5  6  1  0
  6 51  1  0
  6  1  2  0
  7 16  1  0
  8 13  1  0
  9 10  1  0
  9  8  1  0
 11 10  1  0
 11 22  1  0
 11 12  1  0
 13  7  1  0
 13 12  1  0
 14  7  2  0
 15 17  2  0
 16 15  1  0
 18 16  1  0
 19 20  2  0
 20 39  1  0
 21 24  1  0
 21 20  1  0
 22 23  1  0
 22 19  1  0
 23 21  2  0
 24 25  1  0
 25 26  2  0
 27 26  1  0
 28 27  2  0
 29 28  1  0
 29 24  2  0
 30 27  1  0
 30 31  1  0
 31 32  1  0
 32 33  2  0
 34 33  1  0
 34 38  1  0
 35 34  2  0
 36 31  2  0
 36 35  1  0
 37 36  1  0
 39 40  1  0
 40 43  1  0
 40 42  1  0
 41 39  2  0
 44 19  1  0
 44 45  1  0
 46 44  1  0
 47  4  1  0
 47 48  1  0
 47 49  1  0
 50 51  1  0
 52 53  1  0
 52  5  1  0
 52 54  1  0
 55 57  1  0
 55 58  1  0
 55 54  1  0
 56 57  3  0
 59 70  2  0
 60 58  1  0
 60 65  1  0
 61 69  1  0
 61 71  1  0
 62 68  1  0
 62 64  1  0
 63 69  1  0
 64 65  2  0
 64 63  1  0
 66 67  1  0
 66 60  2  0
 67 62  2  0
 68 61  1  0
 69 59  1  0
 71 73  2  0
 72 71  1  0
 74 72  1  0
 75 84  2  0
 75 80  1  0
 76 72  1  0
 76 80  1  0
 77 76  1  0
 78 79  1  0
 78 77  1  0
 79 75  1  0
 80 81  2  0
 81 82  1  0
 83 82  2  0
 84 83  1  0
 85 59  1  0
 85 86  1  0
 85 95  1  0
 86 89  1  0
 87 91  1  0
 87 86  1  0
 88 87  2  0
 91 90  1  0
 91 93  1  0
 93 94  1  0
 93 92  1  0
 95 98  1  1
 95 96  1  0
 97 95  1  0
M  ISO  4   7 100  16 100  55 101  58 101
M  END
>  <TORSDO>  (47) 
F 22

>  <SCORE>  (47) 
-11.404

>  <name>  (47) 
46

>  <ligand_id>  (47) 
46

>  <original_smiles>  (47) 
[H]C#CC([H])(Oc1c([H])c([H])c2c(c1[H])C([H])([H])N(C(=O)C([H])(N([H])C(=O)C([H])(N([H])C([H])([H])[H])C([H])([H])[H])C(C([H])([H])[H])(C([H])([H])[H])C([H])([H])[H])C([H])(C(=O)N([H])C1([H])c3c([H])c([H])c([H])c([H])c3C([H])([H])C([H])([H])C1([H])[H])C2([H])[H])C([H])([H])N([H])c1c([H])c(N([H])[H])c(C(=O)N([H])C(=O)N2C([H])([H])C([H])([H])C([H])([H])C([H])(n3nc(-c4c([H])c([H])c(Oc5c([H])c([H])c(F)c([H])c5F)c([H])c4[H])c(C(=O)N([H])[H])c3N([H])[H])C2([H])[H])c([H])c1OC([H])([H])[H]

>  <smiles>  (47) 
[H]C#CC([H])(Oc1c([H])c([H])c2c(c1[H])C([H])([H])N(C(=O)C([H])(N([H])C(=O)C([H])(N([H])C([H])([H])[H])C([H])([H])[H])C(C([H])([H])[H])(C([H])([H])[H])C([H])([H])[H])C([H])(C(=O)N([H])C1([H])c3c([H])c([H])c([H])c([H])c3C([H])([H])C([H])([H])C1([H])[H])C2([H])[H])C([H])([H])N([H])c1c([H])c(N([H])[H])c(C(=O)N([H])C(=O)N2C([H])([H])C([H])([H])C([H])([H])C([H])(n3nc(-c4c([H])c([H])c(Oc5c([H])c([H])c(F)c([H])c5F)c([H])c4[H])c(C(=O)N([H])[H])c3N([H])[H])C2([H])[H])c([H])c1OC([H])([H])[H]

$$$$
47:0:0
     RDKit          3D

 97106  0  0  1  0  0  0  0  0999 V2000
  -31.0510  -22.0100   20.2680 C   0  0  0  0  0  2  0  0  0  0  0  0
  -29.3760  -25.0550   21.5600 C   0  0  0  0  0  0  0  0  0  0  0  0
  -28.5620  -26.1170   21.4270 C   0  0  0  0  0  3  0  0  0  0  0  0
  -29.7540  -24.4080   22.8700 C   0  0  0  0  0  2  0  0  0  0  0  0
  -29.9650  -24.2370   20.4360 C   0  0  0  0  0  2  0  0  0  0  0  0
  -30.4600  -23.1020   22.4590 C   0  0  0  0  0  2  0  0  0  0  0  0
  -30.1280  -22.8910   21.0290 N   0  0  2  0  0  4  0  0  0  0  0  0
  -29.2160  -22.4610   21.0090 H   0  0  0  0  0  0  0  0  0  0  0  0
  -28.1840  -26.6280   20.2090 O   0  0  0  0  0  0  0  0  0  0  0  0
  -24.4810  -31.9030   23.2240 C   0  0  0  0  0  0  0  0  0  0  0  0
  -27.0490  -27.4000   20.2030 C   0  0  0  0  0  0  0  0  0  0  0  0
  -23.2460  -30.5010   21.6000 C   0  0  0  0  0  3  0  0  0  0  0  0
  -24.6720  -28.9190   20.1930 C   0  0  0  0  0  0  0  0  0  0  0  0
  -25.7720  -30.8210   21.3910 C   0  0  0  0  0  2  0  0  0  0  0  0
  -25.8350  -29.4420   20.7730 C   0  0  0  0  0  0  0  0  0  0  0  0
  -27.0280  -28.6890   20.7750 C   0  0  0  0  0  3  0  0  0  0  0  0
  -25.8790  -26.8850   19.6110 C   0  0  0  0  0  3  0  0  0  0  0  0
  -24.6880  -27.6380   19.6070 C   0  0  0  0  0  3  0  0  0  0  0  0
  -23.4380  -29.7920   20.2320 C   0  0  0  0  0  2  0  0  0  0  0  0
  -24.5190  -31.0910   22.1300 N   0  0  0  0  0  0  0  0  0  0  0  0
  -23.4060  -32.2020   23.7610 O   0  0  0  0  0  0  0  0  0  0  0  0
  -22.5770  -29.5090   22.5750 C   0  0  0  0  0  0  0  0  0  0  0  0
  -21.2480  -29.3530   22.4520 N   0  0  0  0  0  0  0  0  0  0  0  0
  -23.2490  -28.8780   23.3970 O   0  0  0  0  0  0  0  0  0  0  0  0
  -20.7720  -29.9130   21.7590 H   0  0  0  0  0  0  0  0  0  0  0  0
  -17.8460  -28.2590   22.9740 C   0  0  0  0  0  0  0  0  0  0  0  0
  -20.4110  -28.4430   23.2320 C   0  0  0  0  0  3  0  0  0  0  0  0
  -20.4700  -27.0080   22.6600 C   0  0  0  0  0  2  0  0  0  0  0  0
  -19.3510  -26.7120   21.6560 C   0  0  0  0  0  2  0  0  0  0  0  0
  -17.9790  -26.9020   22.3080 C   0  0  0  0  0  2  0  0  0  0  0  0
  -18.9880  -28.9900   23.3940 C   0  0  0  0  0  0  0  0  0  0  0  0
  -18.8120  -30.2640   23.9770 C   0  0  0  0  0  3  0  0  0  0  0  0
  -17.5230  -30.8050   24.1460 C   0  0  0  0  0  3  0  0  0  0  0  0
  -16.3950  -30.0690   23.7460 C   0  0  0  0  0  3  0  0  0  0  0  0
  -16.5570  -28.7990   23.1650 C   0  0  0  0  0  3  0  0  0  0  0  0
  -25.7820  -32.5140   23.8340 C   0  0  0  0  0  3  0  0  0  0  0  0
  -26.2920  -31.7400   25.1120 C   0  0  1  0  0  0  0  0  0  0  0  0
  -25.1990  -31.5190   26.1840 C   0  0  0  0  0  1  0  0  0  0  0  0
  -26.8550  -30.3540   24.7180 C   0  0  0  0  0  1  0  0  0  0  0  0
  -27.4540  -32.5200   25.7690 C   0  0  0  0  0  1  0  0  0  0  0  0
  -25.5020  -33.9180   24.1580 N   0  0  0  0  0  0  0  0  0  0  0  0
  -25.8580  -34.9590   23.3920 C   0  0  0  0  0  0  0  0  0  0  0  0
  -26.5290  -34.8370   22.3630 O   0  0  0  0  0  0  0  0  0  0  0  0
  -24.9110  -34.0910   24.9570 H   0  0  0  0  0  0  0  0  0  0  0  0
  -24.1720  -36.7860   23.0100 C   0  0  0  0  0  1  0  0  0  0  0  0
  -25.3950  -36.3590   23.8390 C   0  0  0  0  0  3  0  0  0  0  0  0
  -27.5390  -37.1980   24.6940 C   0  0  0  0  0  1  0  0  0  0  0  0
  -26.4500  -37.3900   23.7380 N   0  0  0  0  0  0  0  0  0  0  0  0
  -26.0610  -38.3160   23.8870 H   0  0  0  0  0  0  0  0  0  0  0  0
  -29.1100  -18.7380   19.7870 C   0  0  0  0  0  3  0  0  0  0  0  0
  -29.4640  -20.1000   19.8070 C   0  0  0  0  0  3  0  0  0  0  0  0
  -31.2230  -18.1720   20.8400 C   0  0  0  0  0  3  0  0  0  0  0  0
  -29.9850  -17.7600   20.3010 C   0  0  0  0  0  0  0  0  0  0  0  0
  -30.6990  -20.5210   20.3480 C   0  0  0  0  0  0  0  0  0  0  0  0
  -31.5810  -19.5400   20.8760 C   0  0  0  0  0  0  0  0  0  0  0  0
  -32.8180  -19.8720   21.4290 N   0  0  0  0  0  0  0  0  0  0  0  0
  -33.4770  -19.1220   21.6140 H   0  0  0  0  0  0  0  0  0  0  0  0
  -33.2840  -20.7320   21.1600 H   0  0  0  0  0  0  0  0  0  0  0  0
  -29.5390  -16.2970   20.2220 C   0  0  0  0  0  2  0  0  0  0  0  0
  -30.9560  -14.3000   20.0600 C   0  0  0  0  0  0  0  0  0  0  0  0
  -30.5480  -12.1480   18.9110 C   0  0  0  0  0  2  0  0  0  0  0  0
  -29.5290  -12.3340   17.7700 C   0  0  0  0  0  2  0  0  0  0  0  0
  -28.0810  -12.2450   18.2880 C   0  0  0  0  0  2  0  0  0  0  0  0
  -27.8380  -13.1010   19.5560 C   0  0  0  0  0  3  0  0  0  0  0  0
  -28.9510  -12.8650   20.5980 C   0  0  0  0  0  2  0  0  0  0  0  0
  -30.2500  -13.1410   19.9550 N   0  0  0  0  0  0  0  0  0  0  0  0
  -31.9960  -14.5190   19.4280 O   0  0  0  0  0  0  0  0  0  0  0  0
  -30.7930  -15.4320   22.2210 C   0  0  0  0  0  1  0  0  0  0  0  0
  -30.3890  -15.2570   20.8250 N   0  0  0  0  0  0  0  0  0  0  0  0
  -25.5190  -13.7790   20.4490 C   0  0  0  0  0  0  0  0  0  0  0  0
  -24.4530  -13.0320   20.8720 C   0  0  0  0  0  0  0  0  0  0  0  0
  -24.8630  -11.6670   20.7720 C   0  0  0  0  0  0  0  0  0  0  0  0
  -26.5120  -12.8680   20.1190 N   0  0  0  0  0  0  0  0  0  0  0  0
  -26.1230  -11.5910   20.3660 N   0  0  0  0  0  0  0  0  0  0  0  0
  -24.1080  -10.4280   20.9740 C   0  0  0  0  0  0  0  0  0  0  0  0
  -24.5360   -9.4470   21.8940 C   0  0  0  0  0  3  0  0  0  0  0  0
  -23.7810   -8.2680   22.0820 C   0  0  0  0  0  3  0  0  0  0  0  0
  -22.5870   -8.0640   21.3500 C   0  0  0  0  0  0  0  0  0  0  0  0
  -22.1820   -9.0330   20.4150 C   0  0  0  0  0  3  0  0  0  0  0  0
  -22.9370  -10.2040   20.2260 C   0  0  0  0  0  3  0  0  0  0  0  0
  -21.8000   -6.9420   21.4510 O   0  0  0  0  0  0  0  0  0  0  0  0
  -21.7100   -6.2310   22.6200 C   0  0  0  0  0  0  0  0  0  0  0  0
  -21.2660   -6.8250   23.8220 C   0  0  0  0  0  3  0  0  0  0  0  0
  -21.1190   -6.0400   24.9830 C   0  0  0  0  0  3  0  0  0  0  0  0
  -21.4090   -4.6620   24.9440 C   0  0  0  0  0  0  0  0  0  0  0  0
  -21.8470   -4.0680   23.7470 C   0  0  0  0  0  3  0  0  0  0  0  0
  -21.9940   -4.8510   22.5880 C   0  0  0  0  0  0  0  0  0  0  0  0
  -22.3930   -4.2690   21.4310 F   0  0  0  0  0  0  0  0  0  0  0  0
  -21.2630   -3.9070   26.0580 F   0  0  0  0  0  0  0  0  0  0  0  0
  -23.0970  -13.5480   21.2540 C   0  0  0  0  0  0  0  0  0  0  0  0
  -22.4090  -12.8520   22.1540 N   0  0  0  0  0  0  0  0  0  0  0  0
  -22.6600  -14.6010   20.7940 O   0  0  0  0  0  0  0  0  0  0  0  0
  -22.7780  -12.0010   22.5500 H   0  0  0  0  0  0  0  0  0  0  0  0
  -21.5010  -13.1770   22.4540 H   0  0  0  0  0  0  0  0  0  0  0  0
  -25.7140  -15.1490   20.2990 N   0  0  0  0  0  0  0  0  0  0  0  0
  -24.9700  -15.8180   20.4750 H   0  0  0  0  0  0  0  0  0  0  0  0
  -26.5250  -15.5790   19.8750 H   0  0  0  0  0  0  0  0  0  0  0  0
  1 54  1  0
  1  7  1  0
  2  4  1  0
  3  2  2  0
  5  7  1  0
  5  2  1  0
  6  4  1  0
  7  6  1  0
  7  8  1  1
  9  3  1  0
 10 21  2  0
 11  9  1  0
 11 16  1  0
 12 20  1  0
 12 22  1  0
 13 19  1  0
 13 15  1  0
 14 20  1  0
 15 16  2  0
 15 14  1  0
 17 11  2  0
 18 17  1  0
 18 13  2  0
 19 12  1  0
 20 10  1  0
 22 24  2  0
 23 22  1  0
 25 23  1  0
 26 35  2  0
 26 31  1  0
 27 23  1  0
 27 31  1  0
 28 27  1  0
 29 30  1  0
 29 28  1  0
 30 26  1  0
 31 32  2  0
 32 33  1  0
 34 33  2  0
 35 34  1  0
 36 10  1  0
 36 41  1  0
 36 37  1  0
 37 40  1  1
 37 38  1  0
 39 37  1  0
 41 44  1  0
 42 46  1  0
 42 41  1  0
 43 42  2  0
 46 45  1  0
 48 46  1  0
 48 49  1  0
 48 47  1  0
 50 51  2  0
 50 53  1  0
 51 54  1  0
 52 55  1  0
 53 52  2  0
 54 55  2  0
 55 56  1  0
 56 57  1  0
 58 56  1  0
 59 53  1  0
 59 69  1  0
 60 69  1  0
 61 66  1  0
 62 63  1  0
 62 61  1  0
 64 63  1  0
 64 73  1  0
 64 65  1  0
 66 60  1  0
 66 65  1  0
 67 60  2  0
 69 68  1  0
 70 71  2  0
 71 90  1  0
 72 71  1  0
 72 75  1  0
 73 74  1  0
 73 70  1  0
 74 72  2  0
 75 76  1  0
 76 77  2  0
 78 81  1  0
 78 77  1  0
 79 78  2  0
 80 79  1  0
 80 75  2  0
 81 82  1  0
 82 83  1  0
 83 84  2  0
 85 84  1  0
 85 89  1  0
 86 85  2  0
 87 82  2  0
 87 86  1  0
 88 87  1  0
 90 91  1  0
 91 94  1  0
 91 93  1  0
 92 90  2  0
 95 70  1  0
 95 96  1  0
 97 95  1  0
M  ISO  4   3 101   9 101  60 100  69 100
M  END
>  <TORSDO>  (48) 
F 20

>  <SCORE>  (48) 
-13.633

>  <name>  (48) 
47

>  <ligand_id>  (48) 
47

>  <original_smiles>  (48) 
[H]C(Oc1c([H])c([H])c2c(c1[H])C([H])([H])N(C(=O)C([H])(N([H])C(=O)C([H])(N([H])C([H])([H])[H])C([H])([H])[H])C(C([H])([H])[H])(C([H])([H])[H])C([H])([H])[H])C([H])(C(=O)N([H])C1([H])c3c([H])c([H])c([H])c([H])c3C([H])([H])C([H])([H])C1([H])[H])C2([H])[H])=C1C([H])([H])C([H])([H])[N+]([H])(C([H])([H])c2c([H])c([H])c(C([H])([H])N(C(=O)N3C([H])([H])C([H])([H])C([H])([H])C([H])(n4nc(-c5c([H])c([H])c(Oc6c([H])c([H])c(F)c([H])c6F)c([H])c5[H])c(C(=O)N([H])[H])c4N([H])[H])C3([H])[H])C([H])([H])[H])c([H])c2N([H])[H])C1([H])[H]

>  <smiles>  (48) 
[H]C(Oc1c([H])c([H])c2c(c1[H])C([H])([H])N(C(=O)C([H])(N([H])C(=O)C([H])(N([H])C([H])([H])[H])C([H])([H])[H])C(C([H])([H])[H])(C([H])([H])[H])C([H])([H])[H])C([H])(C(=O)N([H])C1([H])c3c([H])c([H])c([H])c([H])c3C([H])([H])C([H])([H])C1([H])[H])C2([H])[H])=C1C([H])([H])C([H])([H])[N+]([H])(C([H])([H])c2c([H])c([H])c(C([H])([H])N(C(=O)N3C([H])([H])C([H])([H])C([H])([H])C([H])(n4nc(-c5c([H])c([H])c(Oc6c([H])c([H])c(F)c([H])c6F)c([H])c5[H])c(C(=O)N([H])[H])c4N([H])[H])C3([H])[H])C([H])([H])[H])c([H])c2N([H])[H])C1([H])[H]

$$$$
48:0:0
     RDKit          3D

 95104  0  0  1  0  0  0  0  0999 V2000
  -28.3590  -24.4080   18.8560 C   0  0  0  0  0  0  0  0  0  0  0  0
  -28.8420  -23.2800   19.4760 C   0  0  0  0  0  0  0  0  0  0  0  0
  -27.3970  -24.2290   17.7350 C   0  0  0  0  0  0  0  0  0  0  0  0
  -26.6660  -22.8980   17.6470 C   0  0  0  0  0  2  0  0  0  0  0  0
  -27.6380  -21.7440   17.8970 C   0  0  0  0  0  2  0  0  0  0  0  0
  -29.8690  -23.3730   20.5960 C   0  0  0  0  0  1  0  0  0  0  0  0
  -28.4620  -21.9650   19.0900 N   0  0  0  0  0  0  0  0  0  0  0  0
  -27.1400  -25.0920   16.8900 O   0  0  0  0  0  0  0  0  0  0  0  0
  -30.0520  -18.5640   19.0330 C   0  0  0  0  0  3  0  0  0  0  0  0
  -28.4220  -18.6460   20.8210 C   0  0  0  0  0  3  0  0  0  0  0  0
  -29.8620  -19.9500   18.8020 C   0  0  0  0  0  3  0  0  0  0  0  0
  -28.2350  -20.0340   20.5910 C   0  0  0  0  0  3  0  0  0  0  0  0
  -29.2920  -17.8800   20.0090 C   0  0  0  0  0  0  0  0  0  0  0  0
  -28.9170  -20.6980   19.5480 C   0  0  0  0  0  0  0  0  0  0  0  0
  -29.2530  -16.3310   20.0670 C   0  0  0  0  0  2  0  0  0  0  0  0
  -30.9090  -14.4800   20.0020 C   0  0  0  0  0  0  0  0  0  0  0  0
  -30.4880  -12.2790   18.9490 C   0  0  0  0  0  2  0  0  0  0  0  0
  -29.5000  -12.4240   17.7750 C   0  0  0  0  0  2  0  0  0  0  0  0
  -28.0480  -12.3050   18.2750 C   0  0  0  0  0  2  0  0  0  0  0  0
  -27.7660  -13.2030   19.5080 C   0  0  0  0  0  3  0  0  0  0  0  0
  -28.8740  -13.0660   20.5790 C   0  0  0  0  0  2  0  0  0  0  0  0
  -30.1700  -13.3300   19.9330 N   0  0  0  0  0  0  0  0  0  0  0  0
  -32.0340  -14.5530   19.5010 O   0  0  0  0  0  0  0  0  0  0  0  0
  -31.2560  -16.3420   21.5300 C   0  0  0  0  0  1  0  0  0  0  0  0
  -30.3850  -15.5630   20.6440 N   0  0  0  0  0  0  0  0  0  0  0  0
  -25.4390  -13.8790   20.3590 C   0  0  0  0  0  0  0  0  0  0  0  0
  -24.3660  -13.1370   20.7740 C   0  0  0  0  0  0  0  0  0  0  0  0
  -24.7790  -11.7720   20.7000 C   0  0  0  0  0  0  0  0  0  0  0  0
  -26.4380  -12.9650   20.0600 N   0  0  0  0  0  0  0  0  0  0  0  0
  -26.0500  -11.6930   20.3260 N   0  0  0  0  0  0  0  0  0  0  0  0
  -24.0200  -10.5330   20.9070 C   0  0  0  0  0  0  0  0  0  0  0  0
  -24.4500   -9.5500   21.8240 C   0  0  0  0  0  3  0  0  0  0  0  0
  -23.6950   -8.3740   22.0200 C   0  0  0  0  0  3  0  0  0  0  0  0
  -22.4950   -8.1730   21.2970 C   0  0  0  0  0  0  0  0  0  0  0  0
  -22.0840   -9.1440   20.3670 C   0  0  0  0  0  3  0  0  0  0  0  0
  -22.8400  -10.3110   20.1700 C   0  0  0  0  0  3  0  0  0  0  0  0
  -21.7100   -7.0500   21.4040 O   0  0  0  0  0  0  0  0  0  0  0  0
  -21.6580   -6.3160   22.5610 C   0  0  0  0  0  0  0  0  0  0  0  0
  -21.2610   -6.8880   23.7890 C   0  0  0  0  0  3  0  0  0  0  0  0
  -21.1550   -6.0800   24.9390 C   0  0  0  0  0  3  0  0  0  0  0  0
  -21.4360   -4.7020   24.8610 C   0  0  0  0  0  0  0  0  0  0  0  0
  -21.8270   -4.1310   23.6370 C   0  0  0  0  0  3  0  0  0  0  0  0
  -21.9340   -4.9360   22.4900 C   0  0  0  0  0  0  0  0  0  0  0  0
  -22.2910   -4.3760   21.3090 F   0  0  0  0  0  0  0  0  0  0  0  0
  -21.3260   -3.9250   25.9640 F   0  0  0  0  0  0  0  0  0  0  0  0
  -23.0020  -13.6590   21.1200 C   0  0  0  0  0  0  0  0  0  0  0  0
  -22.2920  -12.9740   22.0110 N   0  0  0  0  0  0  0  0  0  0  0  0
  -22.5750  -14.7060   20.6350 O   0  0  0  0  0  0  0  0  0  0  0  0
  -22.6510  -12.1270   22.4250 H   0  0  0  0  0  0  0  0  0  0  0  0
  -21.3770  -13.3030   22.2830 H   0  0  0  0  0  0  0  0  0  0  0  0
  -25.6360  -15.2460   20.1880 N   0  0  0  0  0  0  0  0  0  0  0  0
  -24.8880  -15.9140   20.3400 H   0  0  0  0  0  0  0  0  0  0  0  0
  -26.4590  -15.6620   19.7750 H   0  0  0  0  0  0  0  0  0  0  0  0
  -28.8510  -25.8720   19.0610 C   0  0  0  0  0  2  0  0  0  0  0  0
  -28.3750  -26.6260   20.2000 O   0  0  0  0  0  0  0  0  0  0  0  0
  -24.6500  -31.9030   23.2290 C   0  0  0  0  0  0  0  0  0  0  0  0
  -27.2280  -27.4020   20.1270 C   0  0  0  0  0  0  0  0  0  0  0  0
  -23.4200  -30.5090   21.5990 C   0  0  0  0  0  3  0  0  0  0  0  0
  -24.8480  -28.9560   20.1600 C   0  0  0  0  0  0  0  0  0  0  0  0
  -25.9500  -30.8350   21.3840 C   0  0  0  0  0  2  0  0  0  0  0  0
  -26.0170  -29.4600   20.7420 C   0  0  0  0  0  0  0  0  0  0  0  0
  -27.2050  -28.6860   20.7310 C   0  0  0  0  0  3  0  0  0  0  0  0
  -26.0340  -26.9200   19.5510 C   0  0  0  0  0  3  0  0  0  0  0  0
  -24.8520  -27.6850   19.5640 C   0  0  0  0  0  3  0  0  0  0  0  0
  -23.6130  -29.8280   20.2170 C   0  0  0  0  0  2  0  0  0  0  0  0
  -24.6930  -31.0980   22.1280 N   0  0  0  0  0  0  0  0  0  0  0  0
  -23.5760  -32.1860   23.7760 O   0  0  0  0  0  0  0  0  0  0  0  0
  -22.7660  -29.4950   22.5660 C   0  0  0  0  0  0  0  0  0  0  0  0
  -21.4380  -29.3280   22.4530 N   0  0  0  0  0  0  0  0  0  0  0  0
  -23.4490  -28.8630   23.3750 O   0  0  0  0  0  0  0  0  0  0  0  0
  -20.9460  -29.8940   21.7760 H   0  0  0  0  0  0  0  0  0  0  0  0
  -18.0550  -28.1690   22.9840 C   0  0  0  0  0  0  0  0  0  0  0  0
  -20.6170  -28.4010   23.2330 C   0  0  0  0  0  3  0  0  0  0  0  0
  -20.7000  -26.9690   22.6610 C   0  0  0  0  0  2  0  0  0  0  0  0
  -19.5870  -26.6540   21.6560 C   0  0  0  0  0  2  0  0  0  0  0  0
  -18.2130  -26.8170   22.3100 C   0  0  0  0  0  2  0  0  0  0  0  0
  -19.1850  -28.9210   23.4030 C   0  0  0  0  0  0  0  0  0  0  0  0
  -18.9840  -30.1880   23.9910 C   0  0  0  0  0  3  0  0  0  0  0  0
  -17.6860  -30.7040   24.1650 C   0  0  0  0  0  3  0  0  0  0  0  0
  -16.5710  -29.9500   23.7630 C   0  0  0  0  0  3  0  0  0  0  0  0
  -16.7560  -28.6840   23.1780 C   0  0  0  0  0  3  0  0  0  0  0  0
  -25.9460  -32.5250   23.8360 C   0  0  0  0  0  3  0  0  0  0  0  0
  -26.4780  -31.7430   25.1000 C   0  0  1  0  0  0  0  0  0  0  0  0
  -25.3990  -31.5030   26.1820 C   0  0  0  0  0  1  0  0  0  0  0  0
  -27.0490  -30.3660   24.6890 C   0  0  0  0  0  1  0  0  0  0  0  0
  -27.6420  -32.5270   25.7510 C   0  0  0  0  0  1  0  0  0  0  0  0
  -25.6510  -33.9230   24.1780 N   0  0  0  0  0  0  0  0  0  0  0  0
  -25.9750  -34.9760   23.4170 C   0  0  0  0  0  0  0  0  0  0  0  0
  -26.6250  -34.8740   22.3730 O   0  0  0  0  0  0  0  0  0  0  0  0
  -25.0770  -34.0780   24.9930 H   0  0  0  0  0  0  0  0  0  0  0  0
  -24.2460  -36.7750   23.0980 C   0  0  0  0  0  1  0  0  0  0  0  0
  -25.5000  -36.3650   23.8870 C   0  0  0  0  0  3  0  0  0  0  0  0
  -27.6510  -37.2400   24.6850 C   0  0  0  0  0  1  0  0  0  0  0  0
  -26.5350  -37.4140   23.7590 N   0  0  0  0  0  0  0  0  0  0  0  0
  -26.1350  -38.3360   23.9150 H   0  0  0  0  0  0  0  0  0  0  0  0
  1 54  1  0
  1  2  2  0
  2  6  1  0
  3  1  1  0
  4  3  1  0
  4  5  1  0
  5  7  1  0
  7  2  1  0
  7 14  1  0
  8  3  2  0
  9 13  1  0
 11  9  2  0
 11 14  1  0
 12 10  1  0
 13 15  1  0
 13 10  2  0
 14 12  2  0
 15 25  1  0
 16 25  1  0
 17 22  1  0
 18 19  1  0
 18 17  1  0
 20 19  1  0
 20 29  1  0
 20 21  1  0
 22 16  1  0
 22 21  1  0
 23 16  2  0
 25 24  1  0
 26 27  2  0
 27 46  1  0
 28 27  1  0
 28 31  1  0
 29 30  1  0
 29 26  1  0
 30 28  2  0
 31 32  1  0
 32 33  2  0
 34 37  1  0
 34 33  1  0
 35 34  2  0
 36 35  1  0
 36 31  2  0
 37 38  1  0
 38 39  1  0
 39 40  2  0
 41 40  1  0
 41 45  1  0
 42 41  2  0
 43 38  2  0
 43 42  1  0
 44 43  1  0
 46 47  1  0
 47 50  1  0
 47 49  1  0
 48 46  2  0
 51 52  1  0
 51 26  1  0
 53 51  1  0
 54 55  1  0
 56 67  2  0
 57 55  1  0
 57 62  1  0
 58 66  1  0
 58 68  1  0
 59 65  1  0
 59 61  1  0
 60 66  1  0
 61 60  1  0
 62 61  2  0
 63 64  1  0
 63 57  2  0
 64 59  2  0
 65 58  1  0
 66 56  1  0
 68 70  2  0
 69 68  1  0
 71 69  1  0
 72 81  2  0
 72 77  1  0
 73 69  1  0
 73 77  1  0
 74 73  1  0
 75 76  1  0
 75 74  1  0
 76 72  1  0
 77 78  2  0
 78 79  1  0
 80 79  2  0
 81 80  1  0
 82 56  1  0
 82 87  1  0
 82 83  1  0
 83 86  1  1
 83 84  1  0
 85 83  1  0
 87 90  1  0
 88 92  1  0
 88 87  1  0
 89 88  2  0
 92 91  1  0
 94 92  1  0
 94 95  1  0
 94 93  1  0
M  ISO  4  16 100  25 100  54 101  55 101
M  END
>  <TORSDO>  (49) 
F 19

>  <SCORE>  (49) 
-13.902

>  <name>  (49) 
48

>  <ligand_id>  (49) 
48

>  <original_smiles>  (49) 
[H]c1c([H])c([H])c2c(c1[H])C([H])([H])C([H])([H])C([H])([H])C2([H])N([H])C(=O)C1([H])N(C(=O)C([H])(N([H])C(=O)C([H])(N([H])C([H])([H])[H])C([H])([H])[H])C(C([H])([H])[H])(C([H])([H])[H])C([H])([H])[H])C([H])([H])c2c([H])c(OC([H])([H])C3=C(C([H])([H])[H])N(c4c([H])c([H])c(C([H])([H])N(C(=O)N5C([H])([H])C([H])([H])C([H])([H])C([H])(n6nc(-c7c([H])c([H])c(Oc8c([H])c([H])c(F)c([H])c8F)c([H])c7[H])c(C(=O)N([H])[H])c6N([H])[H])C5([H])[H])C([H])([H])[H])c([H])c4[H])C([H])([H])C([H])([H])C3=O)c([H])c([H])c2C1([H])[H]

>  <smiles>  (49) 
[H]c1c([H])c([H])c2c(c1[H])C([H])([H])C([H])([H])C([H])([H])C2([H])N([H])C(=O)C1([H])N(C(=O)C([H])(N([H])C(=O)C([H])(N([H])C([H])([H])[H])C([H])([H])[H])C(C([H])([H])[H])(C([H])([H])[H])C([H])([H])[H])C([H])([H])c2c([H])c(OC([H])([H])C3=C(C([H])([H])[H])N(c4c([H])c([H])c(C([H])([H])N(C(=O)N5C([H])([H])C([H])([H])C([H])([H])C([H])(n6nc(-c7c([H])c([H])c(Oc8c([H])c([H])c(F)c([H])c8F)c([H])c7[H])c(C(=O)N([H])[H])c6N([H])[H])C5([H])[H])C([H])([H])[H])c([H])c4[H])C([H])([H])C([H])([H])C3=O)c([H])c([H])c2C1([H])[H]

$$$$
49:0:0
     RDKit          3D

 98107  0  0  1  0  0  0  0  0999 V2000
  -28.5990  -19.4900   20.0120 C   0  0  0  0  0  3  0  0  0  0  0  0
  -30.8610  -18.1040   20.9380 C   0  0  0  0  0  3  0  0  0  0  0  0
  -29.6230  -20.2860   20.5950 C   0  0  0  0  0  0  0  0  0  0  0  0
  -28.6860  -18.0550   19.9280 C   0  0  0  0  0  0  0  0  0  0  0  0
  -30.7660  -19.5340   21.0330 C   0  0  0  0  0  0  0  0  0  0  0  0
  -29.8040  -17.3120   20.4130 C   0  0  0  0  0  0  0  0  0  0  0  0
  -30.5740  -14.7720   20.3320 C   0  0  0  0  0  0  0  0  0  0  0  0
  -30.4110  -12.4890   19.3310 C   0  0  0  0  0  2  0  0  0  0  0  0
  -29.4600  -12.5620   18.1140 C   0  0  0  0  0  2  0  0  0  0  0  0
  -27.9880  -12.4010   18.5480 C   0  0  0  0  0  2  0  0  0  0  0  0
  -27.6220  -13.2890   19.7670 C   0  0  0  0  0  3  0  0  0  0  0  0
  -28.6860  -13.1790   20.8810 C   0  0  0  0  0  2  0  0  0  0  0  0
  -29.9830  -13.5320   20.2850 N   0  0  0  0  0  0  0  0  0  0  0  0
  -31.7660  -14.9150   20.0370 O   0  0  0  0  0  0  0  0  0  0  0  0
  -29.7060  -15.8370   20.4690 N   0  0  0  0  0  0  0  0  0  0  0  0
  -28.7460  -15.5350   20.5190 H   0  0  0  0  0  0  0  0  0  0  0  0
  -25.2390  -13.9040   20.5030 C   0  0  0  0  0  0  0  0  0  0  0  0
  -24.1690  -13.1360   20.8740 C   0  0  0  0  0  0  0  0  0  0  0  0
  -24.6220  -11.7810   20.8390 C   0  0  0  0  0  0  0  0  0  0  0  0
  -26.2760  -13.0150   20.2620 N   0  0  0  0  0  0  0  0  0  0  0  0
  -25.9110  -11.7340   20.5260 N   0  0  0  0  0  0  0  0  0  0  0  0
  -23.8860  -10.5240   21.0280 C   0  0  0  0  0  0  0  0  0  0  0  0
  -24.3050   -9.5560   21.9670 C   0  0  0  0  0  3  0  0  0  0  0  0
  -23.5690   -8.3650   22.1440 C   0  0  0  0  0  3  0  0  0  0  0  0
  -22.4000   -8.1320   21.3790 C   0  0  0  0  0  0  0  0  0  0  0  0
  -22.0000   -9.0890   20.4310 C   0  0  0  0  0  3  0  0  0  0  0  0
  -22.7360  -10.2720   20.2530 C   0  0  0  0  0  3  0  0  0  0  0  0
  -21.6380   -6.9920   21.4650 O   0  0  0  0  0  0  0  0  0  0  0  0
  -21.5660   -6.2590   22.6220 C   0  0  0  0  0  0  0  0  0  0  0  0
  -21.1070   -6.8200   23.8330 C   0  0  0  0  0  3  0  0  0  0  0  0
  -20.9830   -6.0120   24.9810 C   0  0  0  0  0  3  0  0  0  0  0  0
  -21.3080   -4.6440   24.9190 C   0  0  0  0  0  0  0  0  0  0  0  0
  -21.7620   -4.0820   23.7130 C   0  0  0  0  0  3  0  0  0  0  0  0
  -21.8870   -4.8870   22.5670 C   0  0  0  0  0  0  0  0  0  0  0  0
  -22.3040   -4.3350   21.4010 F   0  0  0  0  0  0  0  0  0  0  0  0
  -21.1820   -3.8670   26.0200 F   0  0  0  0  0  0  0  0  0  0  0  0
  -22.7760  -13.6230   21.1520 C   0  0  0  0  0  0  0  0  0  0  0  0
  -22.0430  -12.9280   22.0130 N   0  0  0  0  0  0  0  0  0  0  0  0
  -22.3460  -14.6560   20.6400 O   0  0  0  0  0  0  0  0  0  0  0  0
  -22.4030  -12.0920   22.4510 H   0  0  0  0  0  0  0  0  0  0  0  0
  -21.1080  -13.2360   22.2410 H   0  0  0  0  0  0  0  0  0  0  0  0
  -25.4030  -15.2760   20.3330 N   0  0  0  0  0  0  0  0  0  0  0  0
  -24.6230  -15.9120   20.4510 H   0  0  0  0  0  0  0  0  0  0  0  0
  -26.2440  -15.7610   20.0260 H   0  0  0  0  0  0  0  0  0  0  0  0
  -28.6570  -24.0490   21.1260 C   0  0  0  0  0  0  0  0  0  0  0  0
  -28.4390  -25.4260   21.0880 C   0  0  0  0  0  3  0  0  0  0  0  0
  -28.6920  -23.3750   22.4810 C   0  0  0  0  0  2  0  0  0  0  0  0
  -29.0770  -21.8990   22.2800 C   0  0  0  0  0  2  0  0  0  0  0  0
  -28.9390  -22.8690   20.1250 C   0  0  0  0  0  3  0  0  0  0  0  0
  -29.8040  -23.2700   18.9270 C   0  0  0  0  0  1  0  0  0  0  0  0
  -29.5140  -21.7100   20.9010 N   0  0  0  0  0  0  0  0  0  0  0  0
  -28.4080  -26.4270   20.0970 O   0  0  0  0  0  0  0  0  0  0  0  0
  -24.6650  -31.8660   23.1910 C   0  0  0  0  0  0  0  0  0  0  0  0
  -27.3260  -27.3260   20.1190 C   0  0  0  0  0  0  0  0  0  0  0  0
  -23.4790  -30.4590   21.5440 C   0  0  0  0  0  3  0  0  0  0  0  0
  -24.9490  -28.9250   20.1160 C   0  0  0  0  0  0  0  0  0  0  0  0
  -26.0180  -30.7990   21.3670 C   0  0  0  0  0  2  0  0  0  0  0  0
  -26.1160  -29.4210   20.7180 C   0  0  0  0  0  0  0  0  0  0  0  0
  -27.3100  -28.6310   20.7130 C   0  0  0  0  0  3  0  0  0  0  0  0
  -26.1400  -26.8880   19.5000 C   0  0  0  0  0  3  0  0  0  0  0  0
  -24.9640  -27.6640   19.5000 C   0  0  0  0  0  3  0  0  0  0  0  0
  -23.7040  -29.7900   20.1640 C   0  0  0  0  0  2  0  0  0  0  0  0
  -24.7400  -31.0600   22.0910 N   0  0  0  0  0  0  0  0  0  0  0  0
  -23.5780  -32.1310   23.7250 O   0  0  0  0  0  0  0  0  0  0  0  0
  -22.8230  -29.4340   22.5010 C   0  0  0  0  0  0  0  0  0  0  0  0
  -21.4950  -29.2640   22.3900 N   0  0  0  0  0  0  0  0  0  0  0  0
  -23.5100  -28.7960   23.3030 O   0  0  0  0  0  0  0  0  0  0  0  0
  -21.0000  -29.8300   21.7160 H   0  0  0  0  0  0  0  0  0  0  0  0
  -18.1180  -28.0790   22.9290 C   0  0  0  0  0  0  0  0  0  0  0  0
  -20.6820  -28.3200   23.1600 C   0  0  0  0  0  3  0  0  0  0  0  0
  -20.7650  -26.8960   22.5610 C   0  0  0  0  0  2  0  0  0  0  0  0
  -19.6440  -26.5960   21.5600 C   0  0  0  0  0  2  0  0  0  0  0  0
  -18.2760  -26.7400   22.2290 C   0  0  0  0  0  2  0  0  0  0  0  0
  -19.2480  -28.8280   23.3520 C   0  0  0  0  0  0  0  0  0  0  0  0
  -19.0480  -30.0820   23.9680 C   0  0  0  0  0  3  0  0  0  0  0  0
  -17.7480  -30.5870   24.1660 C   0  0  0  0  0  3  0  0  0  0  0  0
  -16.6330  -29.8350   23.7570 C   0  0  0  0  0  3  0  0  0  0  0  0
  -16.8190  -28.5830   23.1460 C   0  0  0  0  0  3  0  0  0  0  0  0
  -25.9390  -32.5100   23.8170 C   0  0  0  0  0  3  0  0  0  0  0  0
  -26.4660  -31.7350   25.0880 C   0  0  1  0  0  0  0  0  0  0  0  0
  -25.3770  -31.4780   26.1550 C   0  0  0  0  0  1  0  0  0  0  0  0
  -27.0640  -30.3670   24.6860 C   0  0  0  0  0  1  0  0  0  0  0  0
  -27.6090  -32.5380   25.7540 C   0  0  0  0  0  1  0  0  0  0  0  0
  -25.6120  -33.9010   24.1600 N   0  0  0  0  0  0  0  0  0  0  0  0
  -25.9250  -34.9650   23.4080 C   0  0  0  0  0  0  0  0  0  0  0  0
  -26.5890  -34.8790   22.3710 O   0  0  0  0  0  0  0  0  0  0  0  0
  -25.0200  -34.0410   24.9660 H   0  0  0  0  0  0  0  0  0  0  0  0
  -24.1730  -36.7410   23.0780 C   0  0  0  0  0  1  0  0  0  0  0  0
  -25.4230  -36.3440   23.8810 C   0  0  0  0  0  3  0  0  0  0  0  0
  -27.5480  -37.2490   24.7150 C   0  0  0  0  0  1  0  0  0  0  0  0
  -26.4420  -37.4100   23.7750 N   0  0  0  0  0  0  0  0  0  0  0  0
  -26.0250  -38.3240   23.9300 H   0  0  0  0  0  0  0  0  0  0  0  0
  -27.6320  -17.3370   19.3570 N   0  0  0  0  0  0  0  0  0  0  0  0
  -26.9420  -17.9030   18.8750 H   0  0  0  0  0  0  0  0  0  0  0  0
  -27.9380  -16.5860   18.7480 H   0  0  0  0  0  0  0  0  0  0  0  0
  -31.8250  -20.2380   21.6080 N   0  0  0  0  0  0  0  0  0  0  0  0
  -32.7600  -19.8800   21.4530 H   0  0  0  0  0  0  0  0  0  0  0  0
  -31.7550  -21.2390   21.4480 H   0  0  0  0  0  0  0  0  0  0  0  0
  1  3  1  0
  2  5  1  0
  3 51  1  0
  3  5  2  0
  4  1  2  0
  4  6  1  0
  5 96  1  0
  6 15  1  0
  6  2  2  0
  7 15  1  0
  8 13  1  0
  9 10  1  0
  9  8  1  0
 11 10  1  0
 11 20  1  0
 11 12  1  0
 13  7  1  0
 13 12  1  0
 14  7  2  0
 15 16  1  0
 17 18  2  0
 18 37  1  0
 19 18  1  0
 19 22  1  0
 20 17  1  0
 20 21  1  0
 21 19  2  0
 22 23  1  0
 23 24  2  0
 25 28  1  0
 25 24  1  0
 26 25  2  0
 27 26  1  0
 27 22  2  0
 28 29  1  0
 29 30  1  0
 30 31  2  0
 32 31  1  0
 32 36  1  0
 33 32  2  0
 34 29  2  0
 34 33  1  0
 35 34  1  0
 37 38  1  0
 38 41  1  0
 38 40  1  0
 39 37  2  0
 42 43  1  0
 42 17  1  0
 44 42  1  0
 45 47  1  0
 46 45  2  0
 48 47  1  0
 49 50  1  0
 49 51  1  0
 49 45  1  0
 51 48  1  0
 52 54  1  0
 52 46  1  0
 53 64  2  0
 54 59  1  0
 55 63  1  0
 55 65  1  0
 56 62  1  0
 56 58  1  0
 57 63  1  0
 58 57  1  0
 59 58  2  0
 60 54  2  0
 61 60  1  0
 61 56  2  0
 62 55  1  0
 63 53  1  0
 65 67  2  0
 66 65  1  0
 68 66  1  0
 69 78  2  0
 69 74  1  0
 70 66  1  0
 70 74  1  0
 71 70  1  0
 72 73  1  0
 72 71  1  0
 73 69  1  0
 74 75  2  0
 75 76  1  0
 77 76  2  0
 78 77  1  0
 79 53  1  0
 79 84  1  0
 79 80  1  0
 80 83  1  1
 80 81  1  0
 82 80  1  0
 84 87  1  0
 85 89  1  0
 85 84  1  0
 86 85  2  0
 89 88  1  0
 91 89  1  0
 91 92  1  0
 91 90  1  0
 93  4  1  0
 94 93  1  0
 95 93  1  0
 97 96  1  0
 98 96  1  0
M  ISO  4   7 100  15 100  46 101  52 101
M  END
>  <TORSDO>  (50) 
F 19

>  <SCORE>  (50) 
-15.053

>  <name>  (50) 
49

>  <ligand_id>  (50) 
49

>  <original_smiles>  (50) 
[H]C(Oc1c([H])c([H])c2c(c1[H])C([H])([H])N(C(=O)C([H])(N([H])C(=O)C([H])(N([H])C([H])([H])[H])C([H])([H])[H])C(C([H])([H])[H])(C([H])([H])[H])C([H])([H])[H])C([H])(C(=O)N([H])C1([H])c3c([H])c([H])c([H])c([H])c3C([H])([H])C([H])([H])C1([H])[H])C2([H])[H])=C1C([H])([H])C([H])([H])N(c2c([H])c(N([H])[H])c(N([H])C(=O)N3C([H])([H])C([H])([H])C([H])([H])C([H])(n4nc(-c5c([H])c([H])c(Oc6c([H])c([H])c(F)c([H])c6F)c([H])c5[H])c(C(=O)N([H])[H])c4N([H])[H])C3([H])[H])c([H])c2N([H])[H])C1([H])C([H])([H])[H]

>  <smiles>  (50) 
[H]C(Oc1c([H])c([H])c2c(c1[H])C([H])([H])N(C(=O)C([H])(N([H])C(=O)C([H])(N([H])C([H])([H])[H])C([H])([H])[H])C(C([H])([H])[H])(C([H])([H])[H])C([H])([H])[H])C([H])(C(=O)N([H])C1([H])c3c([H])c([H])c([H])c([H])c3C([H])([H])C([H])([H])C1([H])[H])C2([H])[H])=C1C([H])([H])C([H])([H])N(c2c([H])c(N([H])[H])c(N([H])C(=O)N3C([H])([H])C([H])([H])C([H])([H])C([H])(n4nc(-c5c([H])c([H])c(Oc6c([H])c([H])c(F)c([H])c6F)c([H])c5[H])c(C(=O)N([H])[H])c4N([H])[H])C3([H])[H])c([H])c2N([H])[H])C1([H])C([H])([H])[H]

$$$$
50:0:0
     RDKit          3D

 95104  0  0  1  0  0  0  0  0999 V2000
  -28.1590  -23.7980   20.3710 C   0  0  0  0  0  0  0  0  0  0  0  0
  -29.1090  -22.7890   20.2340 C   0  0  0  0  0  0  0  0  0  0  0  0
  -26.7390  -23.3880   20.1850 C   0  0  0  0  0  0  0  0  0  0  0  0
  -26.4280  -22.0210   19.5760 C   0  0  0  0  0  2  0  0  0  0  0  0
  -27.6320  -21.3910   18.8720 C   0  0  0  0  0  2  0  0  0  0  0  0
  -30.5710  -23.0370   20.5660 C   0  0  0  0  0  1  0  0  0  0  0  0
  -28.8370  -21.4810   19.7020 N   0  0  0  0  0  0  0  0  0  0  0  0
  -25.7790  -24.0450   20.5930 O   0  0  0  0  0  0  0  0  0  0  0  0
  -29.8050  -17.7710   19.2860 C   0  0  0  0  0  3  0  0  0  0  0  0
  -30.4530  -18.4860   21.4690 C   0  0  0  0  0  3  0  0  0  0  0  0
  -29.3890  -19.1110   18.9980 C   0  0  0  0  0  3  0  0  0  0  0  0
  -30.0410  -19.8250   21.1810 C   0  0  0  0  0  3  0  0  0  0  0  0
  -30.3180  -17.3930   20.5550 C   0  0  0  0  0  0  0  0  0  0  0  0
  -29.4450  -20.1810   19.9470 C   0  0  0  0  0  0  0  0  0  0  0  0
  -30.5750  -15.9340   21.0210 C   0  0  0  0  0  0  0  0  0  0  0  0
  -30.4130  -15.6820   22.2550 N   0  0  0  0  0  0  0  0  0  0  0  0
  -30.0920  -16.5050   22.7510 H   0  0  0  0  0  0  0  0  0  0  0  0
  -31.1050  -14.7970   20.0560 C   0  0  0  0  0  0  0  0  0  0  0  0
  -30.7420  -12.6180   18.8890 C   0  0  0  0  0  2  0  0  0  0  0  0
  -29.7290  -12.8070   17.7360 C   0  0  0  0  0  2  0  0  0  0  0  0
  -28.2790  -12.6620   18.2420 C   0  0  0  0  0  2  0  0  0  0  0  0
  -28.0240  -13.4820   19.5330 C   0  0  0  0  0  3  0  0  0  0  0  0
  -29.1360  -13.2300   20.5710 C   0  0  0  0  0  2  0  0  0  0  0  0
  -30.4250  -13.5980   19.9560 N   0  0  0  0  0  0  0  0  0  0  0  0
  -32.1510  -14.9800   19.4220 O   0  0  0  0  0  0  0  0  0  0  0  0
  -25.7170  -14.1270   20.4660 C   0  0  0  0  0  0  0  0  0  0  0  0
  -24.6420  -13.3740   20.8530 C   0  0  0  0  0  0  0  0  0  0  0  0
  -25.0320  -12.0110   20.6830 C   0  0  0  0  0  0  0  0  0  0  0  0
  -26.6970  -13.2230   20.0870 N   0  0  0  0  0  0  0  0  0  0  0  0
  -26.2940  -11.9400   20.2740 N   0  0  0  0  0  0  0  0  0  0  0  0
  -24.2590  -10.7700   20.8290 C   0  0  0  0  0  0  0  0  0  0  0  0
  -24.6780   -9.7360   21.6940 C   0  0  0  0  0  3  0  0  0  0  0  0
  -23.9080   -8.5610   21.8300 C   0  0  0  0  0  3  0  0  0  0  0  0
  -22.7040   -8.4130   21.1020 C   0  0  0  0  0  0  0  0  0  0  0  0
  -22.3020   -9.4360   20.2260 C   0  0  0  0  0  3  0  0  0  0  0  0
  -23.0730  -10.6020   20.0860 C   0  0  0  0  0  3  0  0  0  0  0  0
  -21.9050   -7.2960   21.1510 O   0  0  0  0  0  0  0  0  0  0  0  0
  -21.8190   -6.5220   22.2810 C   0  0  0  0  0  0  0  0  0  0  0  0
  -21.4130   -7.0590   23.5220 C   0  0  0  0  0  3  0  0  0  0  0  0
  -21.2710   -6.2140   24.6420 C   0  0  0  0  0  3  0  0  0  0  0  0
  -21.5240   -4.8340   24.5210 C   0  0  0  0  0  0  0  0  0  0  0  0
  -21.9220   -4.2970   23.2840 C   0  0  0  0  0  3  0  0  0  0  0  0
  -22.0660   -5.1390   22.1660 C   0  0  0  0  0  0  0  0  0  0  0  0
  -22.4300   -4.6140   20.9720 F   0  0  0  0  0  0  0  0  0  0  0  0
  -21.3800   -4.0220   25.5930 F   0  0  0  0  0  0  0  0  0  0  0  0
  -23.2930  -13.8890   21.2660 C   0  0  0  0  0  0  0  0  0  0  0  0
  -22.6100  -13.1740   22.1530 N   0  0  0  0  0  0  0  0  0  0  0  0
  -22.8600  -14.9580   20.8390 O   0  0  0  0  0  0  0  0  0  0  0  0
  -22.9760  -12.3080   22.5190 H   0  0  0  0  0  0  0  0  0  0  0  0
  -21.7080  -13.5000   22.4720 H   0  0  0  0  0  0  0  0  0  0  0  0
  -25.9380  -15.4980   20.3850 N   0  0  0  0  0  0  0  0  0  0  0  0
  -25.2180  -16.1760   20.6130 H   0  0  0  0  0  0  0  0  0  0  0  0
  -26.7920  -15.9260   20.0520 H   0  0  0  0  0  0  0  0  0  0  0  0
  -28.3520  -25.2650   20.9600 C   0  0  0  0  0  2  0  0  0  0  0  0
  -28.3510  -26.4750   20.0950 O   0  0  0  0  0  0  0  0  0  0  0  0
  -24.5530  -31.8390   23.1640 C   0  0  0  0  0  0  0  0  0  0  0  0
  -27.2400  -27.3280   20.1110 C   0  0  0  0  0  0  0  0  0  0  0  0
  -23.3850  -30.4490   21.4920 C   0  0  0  0  0  3  0  0  0  0  0  0
  -24.8690  -28.9230   20.0730 C   0  0  0  0  0  0  0  0  0  0  0  0
  -25.9240  -30.7840   21.3560 C   0  0  0  0  0  2  0  0  0  0  0  0
  -26.0230  -29.4110   20.7040 C   0  0  0  0  0  0  0  0  0  0  0  0
  -27.2130  -28.6220   20.7200 C   0  0  0  0  0  3  0  0  0  0  0  0
  -26.0810  -26.9140   19.4290 C   0  0  0  0  0  3  0  0  0  0  0  0
  -24.9000  -27.6780   19.4280 C   0  0  0  0  0  3  0  0  0  0  0  0
  -23.6260  -29.7880   20.1090 C   0  0  0  0  0  2  0  0  0  0  0  0
  -24.6380  -31.0420   22.0610 N   0  0  0  0  0  0  0  0  0  0  0  0
  -23.4590  -32.1050   23.6850 O   0  0  0  0  0  0  0  0  0  0  0  0
  -22.7150  -29.4180   22.4320 C   0  0  0  0  0  0  0  0  0  0  0  0
  -21.3900  -29.2400   22.2910 N   0  0  0  0  0  0  0  0  0  0  0  0
  -23.3870  -28.7810   23.2480 O   0  0  0  0  0  0  0  0  0  0  0  0
  -20.9080  -29.8060   21.6060 H   0  0  0  0  0  0  0  0  0  0  0  0
  -18.0070  -28.0490   22.7600 C   0  0  0  0  0  0  0  0  0  0  0  0
  -20.5650  -28.2930   23.0420 C   0  0  0  0  0  3  0  0  0  0  0  0
  -20.6630  -26.8720   22.4400 C   0  0  0  0  0  2  0  0  0  0  0  0
  -19.5630  -26.5720   21.4170 C   0  0  0  0  0  2  0  0  0  0  0  0
  -18.1800  -26.7110   22.0600 C   0  0  0  0  0  2  0  0  0  0  0  0
  -19.1280  -28.7980   23.2070 C   0  0  0  0  0  0  0  0  0  0  0  0
  -18.9120  -30.0500   23.8220 C   0  0  0  0  0  3  0  0  0  0  0  0
  -17.6090  -30.5540   23.9930 C   0  0  0  0  0  3  0  0  0  0  0  0
  -16.5030  -29.8010   23.5620 C   0  0  0  0  0  3  0  0  0  0  0  0
  -16.7030  -28.5510   22.9520 C   0  0  0  0  0  3  0  0  0  0  0  0
  -25.8220  -32.4750   23.8110 C   0  0  0  0  0  3  0  0  0  0  0  0
  -26.3250  -31.6950   25.0880 C   0  0  1  0  0  0  0  0  0  0  0  0
  -25.2160  -31.4380   26.1360 C   0  0  0  0  0  1  0  0  0  0  0  0
  -26.9270  -30.3270   24.6960 C   0  0  0  0  0  1  0  0  0  0  0  0
  -27.4580  -32.4930   25.7740 C   0  0  0  0  0  1  0  0  0  0  0  0
  -25.4990  -33.8680   24.1490 N   0  0  0  0  0  0  0  0  0  0  0  0
  -25.8410  -34.9310   23.4090 C   0  0  0  0  0  0  0  0  0  0  0  0
  -26.5320  -34.8410   22.3900 O   0  0  0  0  0  0  0  0  0  0  0  0
  -24.8850  -34.0100   24.9380 H   0  0  0  0  0  0  0  0  0  0  0  0
  -24.1190  -36.7250   23.0320 C   0  0  0  0  0  1  0  0  0  0  0  0
  -25.3380  -36.3110   23.8720 C   0  0  0  0  0  3  0  0  0  0  0  0
  -27.4450  -37.1890   24.7760 C   0  0  0  0  0  1  0  0  0  0  0  0
  -26.3710  -37.3670   23.8030 N   0  0  0  0  0  0  0  0  0  0  0  0
  -25.9580  -38.2850   23.9520 H   0  0  0  0  0  0  0  0  0  0  0  0
  1 54  1  0
  2  1  2  0
  2  6  1  0
  3  1  1  0
  3  8  2  0
  4  3  1  0
  5  4  1  0
  5  7  1  0
  7 14  1  0
  7  2  1  0
  9 13  1  0
 11  9  2  0
 11 14  1  0
 12 10  1  0
 13 15  1  0
 13 10  2  0
 14 12  2  0
 15 16  2  0
 16 17  1  0
 18 15  1  0
 19 24  1  0
 20 21  1  0
 20 19  1  0
 22 21  1  0
 22 29  1  0
 22 23  1  0
 24 18  1  0
 24 23  1  0
 25 18  2  0
 26 27  2  0
 27 46  1  0
 28 31  1  0
 28 27  1  0
 29 30  1  0
 29 26  1  0
 30 28  2  0
 31 32  1  0
 32 33  2  0
 34 37  1  0
 34 33  1  0
 35 34  2  0
 36 35  1  0
 36 31  2  0
 37 38  1  0
 38 39  1  0
 39 40  2  0
 41 40  1  0
 41 45  1  0
 42 41  2  0
 43 38  2  0
 43 42  1  0
 44 43  1  0
 46 47  1  0
 47 50  1  0
 47 49  1  0
 48 46  2  0
 51 26  1  0
 51 52  1  0
 53 51  1  0
 55 57  1  0
 55 54  1  0
 56 67  2  0
 57 62  1  0
 58 66  1  0
 58 68  1  0
 59 65  1  0
 59 61  1  0
 60 66  1  0
 61 62  2  0
 61 60  1  0
 63 57  2  0
 64 63  1  0
 64 59  2  0
 65 58  1  0
 66 56  1  0
 68 70  2  0
 69 68  1  0
 71 69  1  0
 72 81  2  0
 72 77  1  0
 73 69  1  0
 73 77  1  0
 74 73  1  0
 75 76  1  0
 75 74  1  0
 76 72  1  0
 77 78  2  0
 78 79  1  0
 80 79  2  0
 81 80  1  0
 82 56  1  0
 82 87  1  0
 82 83  1  0
 83 86  1  1
 83 84  1  0
 85 83  1  0
 87 90  1  0
 88 92  1  0
 88 87  1  0
 89 88  2  0
 92 91  1  0
 94 92  1  0
 94 95  1  0
 94 93  1  0
M  ISO  4  15 100  18 100  54 101  55 101
M  END
>  <TORSDO>  (51) 
F 19

>  <SCORE>  (51) 
-13.707

>  <name>  (51) 
50

>  <ligand_id>  (51) 
50

>  <original_smiles>  (51) 
[H]N=C(C(=O)N1C([H])([H])C([H])([H])C([H])([H])C([H])(n2nc(-c3c([H])c([H])c(Oc4c([H])c([H])c(F)c([H])c4F)c([H])c3[H])c(C(=O)N([H])[H])c2N([H])[H])C1([H])[H])c1c([H])c([H])c(N2C(C([H])([H])[H])=C(C([H])([H])Oc3c([H])c([H])c4c(c3[H])C([H])([H])N(C(=O)C([H])(N([H])C(=O)C([H])(N([H])C([H])([H])[H])C([H])([H])[H])C(C([H])([H])[H])(C([H])([H])[H])C([H])([H])[H])C([H])(C(=O)N([H])C3([H])c5c([H])c([H])c([H])c([H])c5C([H])([H])C([H])([H])C3([H])[H])C4([H])[H])C(=O)C([H])([H])C2([H])[H])c([H])c1[H]

>  <smiles>  (51) 
[H]N=C(C(=O)N1C([H])([H])C([H])([H])C([H])([H])C([H])(n2nc(-c3c([H])c([H])c(Oc4c([H])c([H])c(F)c([H])c4F)c([H])c3[H])c(C(=O)N([H])[H])c2N([H])[H])C1([H])[H])c1c([H])c([H])c(N2C(C([H])([H])[H])=C(C([H])([H])Oc3c([H])c([H])c4c(c3[H])C([H])([H])N(C(=O)C([H])(N([H])C(=O)C([H])(N([H])C([H])([H])[H])C([H])([H])[H])C(C([H])([H])[H])(C([H])([H])[H])C([H])([H])[H])C([H])(C(=O)N([H])C3([H])c5c([H])c([H])c([H])c([H])c5C([H])([H])C([H])([H])C3([H])[H])C4([H])[H])C(=O)C([H])([H])C2([H])[H])c([H])c1[H]

$$$$
51:0:0
     RDKit          3D

 99108  0  0  1  0  0  0  0  0999 V2000
  -30.3060  -23.2110   18.0210 C   0  0  0  0  0  0  0  0  0  0  0  0
  -29.8080  -22.9040   20.8760 C   0  0  0  0  0  0  0  0  0  0  0  0
  -30.3570  -24.4820   18.8710 C   0  0  0  0  0  2  0  0  0  0  0  0
  -29.5480  -22.0190   18.6040 C   0  0  0  0  0  2  0  0  0  0  0  0
  -29.7540  -24.3710   20.2970 C   0  0  0  0  0  3  0  0  0  0  0  0
  -29.8880  -21.8260   20.0210 N   0  0  0  0  0  0  0  0  0  0  0  0
  -30.8560  -23.1610   16.9200 O   0  0  0  0  0  0  0  0  0  0  0  0
  -29.8480  -22.7690   22.1040 O   0  0  0  0  0  0  0  0  0  0  0  0
  -31.8100  -20.4710   20.7410 C   0  0  0  0  0  3  0  0  0  0  0  0
  -32.4210  -19.2400   21.0360 C   0  0  0  0  0  3  0  0  0  0  0  0
  -29.7440  -19.2990   20.2850 C   0  0  0  0  0  3  0  0  0  0  0  0
  -30.3330  -18.0210   20.6050 C   0  0  0  0  0  0  0  0  0  0  0  0
  -30.4500  -20.5360   20.3810 C   0  0  0  0  0  0  0  0  0  0  0  0
  -31.6940  -18.0250   21.0250 C   0  0  0  0  0  0  0  0  0  0  0  0
  -30.5470  -14.5940   20.0510 C   0  0  0  0  0  0  0  0  0  0  0  0
  -30.3410  -12.3970   18.8830 C   0  0  0  0  0  2  0  0  0  0  0  0
  -29.3020  -12.5540   17.7510 C   0  0  0  0  0  2  0  0  0  0  0  0
  -27.8420  -12.4290   18.2520 C   0  0  0  0  0  2  0  0  0  0  0  0
  -27.5810  -13.2380   19.5500 C   0  0  0  0  0  3  0  0  0  0  0  0
  -28.7090  -12.9660   20.5770 C   0  0  0  0  0  2  0  0  0  0  0  0
  -29.9900  -13.3490   19.9530 N   0  0  0  0  0  0  0  0  0  0  0  0
  -31.6710  -14.8520   19.6050 O   0  0  0  0  0  0  0  0  0  0  0  0
  -29.3880  -16.8130   20.6930 C   0  0  0  0  0  0  0  0  0  0  0  0
  -29.6300  -15.4830   20.5120 N   0  0  0  0  0  0  0  0  0  0  0  0
  -28.2090  -17.0760   20.9450 O   0  0  0  0  0  0  0  0  0  0  0  0
  -28.7800  -14.9860   20.7090 H   0  0  0  0  0  0  0  0  0  0  0  0
  -25.2490  -13.8820   20.4430 C   0  0  0  0  0  0  0  0  0  0  0  0
  -24.1880  -13.1220   20.8600 C   0  0  0  0  0  0  0  0  0  0  0  0
  -24.6140  -11.7620   20.7520 C   0  0  0  0  0  0  0  0  0  0  0  0
  -26.2560  -12.9850   20.1120 N   0  0  0  0  0  0  0  0  0  0  0  0
  -25.8820  -11.7050   20.3630 N   0  0  0  0  0  0  0  0  0  0  0  0
  -23.8730  -10.5090   20.9460 C   0  0  0  0  0  0  0  0  0  0  0  0
  -24.3090   -9.5300   21.8650 C   0  0  0  0  0  3  0  0  0  0  0  0
  -23.5680   -8.3420   22.0500 C   0  0  0  0  0  3  0  0  0  0  0  0
  -22.3750   -8.1270   21.3210 C   0  0  0  0  0  0  0  0  0  0  0  0
  -21.9590   -9.0950   20.3920 C   0  0  0  0  0  3  0  0  0  0  0  0
  -22.7000  -10.2750   20.2030 C   0  0  0  0  0  3  0  0  0  0  0  0
  -21.6090   -6.9940   21.4160 O   0  0  0  0  0  0  0  0  0  0  0  0
  -21.5590   -6.2490   22.5680 C   0  0  0  0  0  0  0  0  0  0  0  0
  -21.1080   -6.7980   23.7890 C   0  0  0  0  0  3  0  0  0  0  0  0
  -21.0040   -5.9810   24.9320 C   0  0  0  0  0  3  0  0  0  0  0  0
  -21.3430   -4.6170   24.8560 C   0  0  0  0  0  0  0  0  0  0  0  0
  -21.7880   -4.0690   23.6420 C   0  0  0  0  0  3  0  0  0  0  0  0
  -21.8900   -4.8820   22.4990 C   0  0  0  0  0  0  0  0  0  0  0  0
  -22.2960   -4.3440   21.3250 F   0  0  0  0  0  0  0  0  0  0  0  0
  -21.2380   -3.8300   25.9530 F   0  0  0  0  0  0  0  0  0  0  0  0
  -22.8210  -13.6130   21.2380 C   0  0  0  0  0  0  0  0  0  0  0  0
  -22.1280  -12.9050   22.1220 N   0  0  0  0  0  0  0  0  0  0  0  0
  -22.3770  -14.6630   20.7780 O   0  0  0  0  0  0  0  0  0  0  0  0
  -22.4930  -12.0540   22.5230 H   0  0  0  0  0  0  0  0  0  0  0  0
  -21.2100  -13.2200   22.4020 H   0  0  0  0  0  0  0  0  0  0  0  0
  -25.4380  -15.2580   20.3020 N   0  0  0  0  0  0  0  0  0  0  0  0
  -24.7290  -15.9390   20.5500 H   0  0  0  0  0  0  0  0  0  0  0  0
  -26.2990  -15.7000   20.0020 H   0  0  0  0  0  0  0  0  0  0  0  0
  -32.3890  -16.9010   21.4890 N   0  0  0  0  0  0  0  0  0  0  0  0
  -33.4020  -16.9530   21.4800 H   0  0  0  0  0  0  0  0  0  0  0  0
  -32.0870  -15.9870   21.1610 H   0  0  0  0  0  0  0  0  0  0  0  0
  -28.3870  -25.1430   20.4390 C   0  0  0  0  0  2  0  0  0  0  0  0
  -28.4890  -26.6000   20.3100 O   0  0  0  0  0  0  0  0  0  0  0  0
  -24.5720  -31.8660   23.1670 C   0  0  0  0  0  0  0  0  0  0  0  0
  -27.3160  -27.3560   20.2450 C   0  0  0  0  0  0  0  0  0  0  0  0
  -23.4130  -30.4460   21.5030 C   0  0  0  0  0  3  0  0  0  0  0  0
  -24.9170  -28.8970   20.1420 C   0  0  0  0  0  0  0  0  0  0  0  0
  -25.9460  -30.8140   21.3690 C   0  0  0  0  0  2  0  0  0  0  0  0
  -26.0630  -29.4320   20.7460 C   0  0  0  0  0  0  0  0  0  0  0  0
  -27.2650  -28.6730   20.7830 C   0  0  0  0  0  3  0  0  0  0  0  0
  -26.1390  -26.8530   19.6410 C   0  0  0  0  0  3  0  0  0  0  0  0
  -24.9560  -27.6130   19.5820 C   0  0  0  0  0  3  0  0  0  0  0  0
  -23.6650  -29.7480   20.1410 C   0  0  0  0  0  2  0  0  0  0  0  0
  -24.6590  -31.0590   22.0700 N   0  0  0  0  0  0  0  0  0  0  0  0
  -23.4770  -32.1330   23.6820 O   0  0  0  0  0  0  0  0  0  0  0  0
  -22.7360  -29.4350   22.4580 C   0  0  0  0  0  0  0  0  0  0  0  0
  -21.4070  -29.2810   22.3340 N   0  0  0  0  0  0  0  0  0  0  0  0
  -23.4070  -28.7870   23.2680 O   0  0  0  0  0  0  0  0  0  0  0  0
  -20.9220  -29.8560   21.6590 H   0  0  0  0  0  0  0  0  0  0  0  0
  -18.0080  -28.1750   22.8740 C   0  0  0  0  0  0  0  0  0  0  0  0
  -20.5770  -28.3510   23.1020 C   0  0  0  0  0  3  0  0  0  0  0  0
  -20.6250  -26.9280   22.4970 C   0  0  0  0  0  2  0  0  0  0  0  0
  -19.4950  -26.6610   21.4960 C   0  0  0  0  0  2  0  0  0  0  0  0
  -18.1290  -26.8360   22.1650 C   0  0  0  0  0  2  0  0  0  0  0  0
  -19.1580  -28.8930   23.3000 C   0  0  0  0  0  0  0  0  0  0  0  0
  -18.9880  -30.1480   23.9230 C   0  0  0  0  0  3  0  0  0  0  0  0
  -17.7030  -30.6880   24.1220 C   0  0  0  0  0  3  0  0  0  0  0  0
  -16.5680  -29.9660   23.7110 C   0  0  0  0  0  3  0  0  0  0  0  0
  -16.7220  -28.7120   23.0950 C   0  0  0  0  0  3  0  0  0  0  0  0
  -25.8420  -32.5090   23.8090 C   0  0  0  0  0  3  0  0  0  0  0  0
  -26.3520  -31.7360   25.0880 C   0  0  1  0  0  0  0  0  0  0  0  0
  -25.2440  -31.4780   26.1320 C   0  0  0  0  0  1  0  0  0  0  0  0
  -26.9640  -30.3680   24.6980 C   0  0  0  0  0  1  0  0  0  0  0  0
  -27.4770  -32.5410   25.7770 C   0  0  0  0  0  1  0  0  0  0  0  0
  -25.5120  -33.9020   24.1450 N   0  0  0  0  0  0  0  0  0  0  0  0
  -25.8450  -34.9640   23.3990 C   0  0  0  0  0  0  0  0  0  0  0  0
  -26.5380  -34.8750   22.3800 O   0  0  0  0  0  0  0  0  0  0  0  0
  -24.9150  -34.0420   24.9470 H   0  0  0  0  0  0  0  0  0  0  0  0
  -24.1300  -36.7540   22.9920 C   0  0  0  0  0  1  0  0  0  0  0  0
  -25.3330  -36.3430   23.8550 C   0  0  0  0  0  3  0  0  0  0  0  0
  -27.4150  -37.2330   24.8050 C   0  0  0  0  0  1  0  0  0  0  0  0
  -26.3650  -37.4020   23.8050 N   0  0  0  0  0  0  0  0  0  0  0  0
  -25.9440  -38.3170   23.9390 H   0  0  0  0  0  0  0  0  0  0  0  0
  1  4  1  0
  1  3  1  0
  2  8  2  0
  3  5  1  0
  4  6  1  0
  5 58  1  0
  5  2  1  0
  6 13  1  0
  6  2  1  0
  7  1  2  0
  9 10  1  0
 11 13  1  0
 11 12  2  0
 12 23  1  0
 12 14  1  0
 13  9  2  0
 14 10  2  0
 14 55  1  0
 15 24  1  0
 16 21  1  0
 17 18  1  0
 17 16  1  0
 19 18  1  0
 19 30  1  0
 19 20  1  0
 21 15  1  0
 21 20  1  0
 22 15  2  0
 23 25  2  0
 24 23  1  0
 24 26  1  0
 27 28  2  0
 28 47  1  0
 29 28  1  0
 29 32  1  0
 30 31  1  0
 30 27  1  0
 31 29  2  0
 32 33  1  0
 33 34  2  0
 35 38  1  0
 35 34  1  0
 36 35  2  0
 37 36  1  0
 37 32  2  0
 38 39  1  0
 39 40  1  0
 40 41  2  0
 42 41  1  0
 42 46  1  0
 43 42  2  0
 44 39  2  0
 44 43  1  0
 45 44  1  0
 47 48  1  0
 48 51  1  0
 48 50  1  0
 49 47  2  0
 52 27  1  0
 52 53  1  0
 54 52  1  0
 56 55  1  0
 57 55  1  0
 59 58  1  0
 60 71  2  0
 61 59  1  0
 61 66  1  0
 62 70  1  0
 62 72  1  0
 63 65  1  0
 64 70  1  0
 65 66  2  0
 65 64  1  0
 67 61  2  0
 68 67  1  0
 68 63  2  0
 69 63  1  0
 69 62  1  0
 70 60  1  0
 72 74  2  0
 73 72  1  0
 75 73  1  0
 76 85  2  0
 76 81  1  0
 77 73  1  0
 77 81  1  0
 78 77  1  0
 79 80  1  0
 79 78  1  0
 80 76  1  0
 81 82  2  0
 82 83  1  0
 84 83  2  0
 85 84  1  0
 86 60  1  0
 86 91  1  0
 86 87  1  0
 87 90  1  1
 87 88  1  0
 89 87  1  0
 91 94  1  0
 92 96  1  0
 92 91  1  0
 93 92  2  0
 96 95  1  0
 98 96  1  0
 98 99  1  0
 98 97  1  0
M  ISO  4  15 100  24 100  58 101  59 101
M  END
>  <TORSDO>  (52) 
F 19

>  <SCORE>  (52) 
-13.942

>  <name>  (52) 
51

>  <ligand_id>  (52) 
51

>  <original_smiles>  (52) 
[H]c1c([H])c([H])c2c(c1[H])C([H])([H])C([H])([H])C([H])([H])C2([H])N([H])C(=O)C1([H])N(C(=O)C([H])(N([H])C(=O)C([H])(N([H])C([H])([H])[H])C([H])([H])[H])C(C([H])([H])[H])(C([H])([H])[H])C([H])([H])[H])C([H])([H])c2c([H])c(OC([H])([H])C3([H])C(=O)N(c4c([H])c([H])c(N([H])[H])c(C(=O)N([H])C(=O)N5C([H])([H])C([H])([H])C([H])([H])C([H])(n6nc(-c7c([H])c([H])c(Oc8c([H])c([H])c(F)c([H])c8F)c([H])c7[H])c(C(=O)N([H])[H])c6N([H])[H])C5([H])[H])c4[H])C([H])([H])C(=O)C3([H])[H])c([H])c([H])c2C1([H])[H]

>  <smiles>  (52) 
[H]c1c([H])c([H])c2c(c1[H])C([H])([H])C([H])([H])C([H])([H])C2([H])N([H])C(=O)C1([H])N(C(=O)C([H])(N([H])C(=O)C([H])(N([H])C([H])([H])[H])C([H])([H])[H])C(C([H])([H])[H])(C([H])([H])[H])C([H])([H])[H])C([H])([H])c2c([H])c(OC([H])([H])C3([H])C(=O)N(c4c([H])c([H])c(N([H])[H])c(C(=O)N([H])C(=O)N5C([H])([H])C([H])([H])C([H])([H])C([H])(n6nc(-c7c([H])c([H])c(Oc8c([H])c([H])c(F)c([H])c8F)c([H])c7[H])c(C(=O)N([H])[H])c6N([H])[H])C5([H])[H])c4[H])C([H])([H])C(=O)C3([H])[H])c([H])c([H])c2C1([H])[H]

$$$$
52:0:0
     RDKit          3D

 95103  0  0  1  0  0  0  0  0999 V2000
  -30.5950  -17.4990   21.4190 C   0  0  0  0  0  3  0  0  0  0  0  0
  -28.8180  -19.2980   20.2180 C   0  0  0  0  0  3  0  0  0  0  0  0
  -29.8660  -17.0600   20.2830 C   0  0  0  0  0  0  0  0  0  0  0  0
  -28.9170  -17.9800   19.7230 C   0  0  0  0  0  0  0  0  0  0  0  0
  -30.4730  -18.8170   21.9140 C   0  0  0  0  0  0  0  0  0  0  0  0
  -29.6250  -19.7520   21.2820 C   0  0  0  0  0  0  0  0  0  0  0  0
  -28.0010  -17.6410   18.5490 C   0  0  0  0  0  1  0  0  0  0  0  0
  -31.2350  -19.2280   23.0060 N   0  0  0  0  0  0  0  0  0  0  0  0
  -31.4500  -18.5330   23.7140 H   0  0  0  0  0  0  0  0  0  0  0  0
  -30.9650  -20.1190   23.4120 H   0  0  0  0  0  0  0  0  0  0  0  0
  -30.2050  -15.7510   19.6120 C   0  0  0  0  0  0  0  0  0  0  0  0
  -29.9950  -15.5990   18.3710 N   0  0  0  0  0  0  0  0  0  0  0  0
  -30.3370  -14.6960   18.0690 H   0  0  0  0  0  0  0  0  0  0  0  0
  -30.9470  -14.6330   20.3680 C   0  0  0  0  0  0  0  0  0  0  0  0
  -30.6860  -12.3510   19.5020 C   0  0  0  0  0  2  0  0  0  0  0  0
  -29.7840  -12.3890   18.2480 C   0  0  0  0  0  2  0  0  0  0  0  0
  -28.2890  -12.3560   18.6290 C   0  0  0  0  0  2  0  0  0  0  0  0
  -27.9060  -13.2990   19.8040 C   0  0  0  0  0  3  0  0  0  0  0  0
  -28.9370  -13.2250   20.9490 C   0  0  0  0  0  2  0  0  0  0  0  0
  -30.2750  -13.4480   20.3870 N   0  0  0  0  0  0  0  0  0  0  0  0
  -32.1750  -14.7090   20.3080 O   0  0  0  0  0  0  0  0  0  0  0  0
  -25.5100  -13.9540   20.4760 C   0  0  0  0  0  0  0  0  0  0  0  0
  -24.4220  -13.2020   20.8180 C   0  0  0  0  0  0  0  0  0  0  0  0
  -24.8660  -11.8450   20.8180 C   0  0  0  0  0  0  0  0  0  0  0  0
  -26.5470  -13.0550   20.2730 N   0  0  0  0  0  0  0  0  0  0  0  0
  -26.1630  -11.7840   20.5490 N   0  0  0  0  0  0  0  0  0  0  0  0
  -24.1200  -10.5960   21.0000 C   0  0  0  0  0  0  0  0  0  0  0  0
  -24.5070   -9.6410   21.9660 C   0  0  0  0  0  3  0  0  0  0  0  0
  -23.7620   -8.4550   22.1380 C   0  0  0  0  0  3  0  0  0  0  0  0
  -22.6170   -8.2150   21.3410 C   0  0  0  0  0  0  0  0  0  0  0  0
  -22.2510   -9.1570   20.3640 C   0  0  0  0  0  3  0  0  0  0  0  0
  -22.9960  -10.3360   20.1900 C   0  0  0  0  0  3  0  0  0  0  0  0
  -21.8490   -7.0780   21.4180 O   0  0  0  0  0  0  0  0  0  0  0  0
  -21.7390   -6.3630   22.5830 C   0  0  0  0  0  0  0  0  0  0  0  0
  -21.2410   -6.9420   23.7700 C   0  0  0  0  0  3  0  0  0  0  0  0
  -21.0800   -6.1530   24.9250 C   0  0  0  0  0  3  0  0  0  0  0  0
  -21.4080   -4.7850   24.8950 C   0  0  0  0  0  0  0  0  0  0  0  0
  -21.9000   -4.2040   23.7130 C   0  0  0  0  0  3  0  0  0  0  0  0
  -22.0620   -4.9920   22.5600 C   0  0  0  0  0  0  0  0  0  0  0  0
  -22.5170   -4.4230   21.4160 F   0  0  0  0  0  0  0  0  0  0  0  0
  -21.2460   -4.0240   26.0020 F   0  0  0  0  0  0  0  0  0  0  0  0
  -23.0240  -13.7020   21.0420 C   0  0  0  0  0  0  0  0  0  0  0  0
  -22.2650  -13.0320   21.9030 N   0  0  0  0  0  0  0  0  0  0  0  0
  -22.6120  -14.7220   20.4870 O   0  0  0  0  0  0  0  0  0  0  0  0
  -22.6100  -12.2070   22.3700 H   0  0  0  0  0  0  0  0  0  0  0  0
  -21.3260  -13.3480   22.0950 H   0  0  0  0  0  0  0  0  0  0  0  0
  -25.6950  -15.3220   20.3030 N   0  0  0  0  0  0  0  0  0  0  0  0
  -24.9330  -15.9830   20.4020 H   0  0  0  0  0  0  0  0  0  0  0  0
  -26.5770  -15.7600   20.0830 H   0  0  0  0  0  0  0  0  0  0  0  0
  -29.6330  -21.0670   21.7220 O   0  0  0  0  0  0  0  0  0  0  0  0
  -29.1040  -22.0570   20.8340 C   0  0  0  0  0  2  0  0  0  0  0  0
  -29.3410  -23.4860   21.3630 C   0  0  0  0  0  2  0  0  0  0  0  0
  -28.8490  -24.5790   20.3850 C   0  0  0  0  0  2  0  0  0  0  0  0
  -28.9580  -26.0180   20.9330 C   0  0  0  0  0  2  0  0  0  0  0  0
  -28.7550  -26.9860   19.8980 O   0  0  0  0  0  0  0  0  0  0  0  0
  -24.6230  -31.7360   23.2250 C   0  0  0  0  0  0  0  0  0  0  0  0
  -27.5540  -27.6500   19.9440 C   0  0  0  0  0  0  0  0  0  0  0  0
  -23.5260  -30.3960   21.4560 C   0  0  0  0  0  3  0  0  0  0  0  0
  -25.0890  -29.0230   19.9770 C   0  0  0  0  0  0  0  0  0  0  0  0
  -26.0330  -30.8890   21.3530 C   0  0  0  0  0  2  0  0  0  0  0  0
  -26.2010  -29.5660   20.6340 C   0  0  0  0  0  0  0  0  0  0  0  0
  -27.4380  -28.8850   20.6170 C   0  0  0  0  0  3  0  0  0  0  0  0
  -26.4310  -27.1140   19.2810 C   0  0  0  0  0  3  0  0  0  0  0  0
  -25.1970  -27.7940   19.3000 C   0  0  0  0  0  3  0  0  0  0  0  0
  -23.8040  -29.8160   20.0410 C   0  0  0  0  0  2  0  0  0  0  0  0
  -24.7440  -31.0190   22.0720 N   0  0  0  0  0  0  0  0  0  0  0  0
  -23.5180  -31.9210   23.7520 O   0  0  0  0  0  0  0  0  0  0  0  0
  -22.8990  -29.2840   22.3280 C   0  0  0  0  0  0  0  0  0  0  0  0
  -21.5820  -29.0790   22.1790 N   0  0  0  0  0  0  0  0  0  0  0  0
  -23.5970  -28.6120   23.0930 O   0  0  0  0  0  0  0  0  0  0  0  0
  -21.0800  -29.6750   21.5350 H   0  0  0  0  0  0  0  0  0  0  0  0
  -18.2340  -27.7810   22.5740 C   0  0  0  0  0  0  0  0  0  0  0  0
  -20.7860  -28.0600   22.8630 C   0  0  0  0  0  3  0  0  0  0  0  0
  -20.9130  -26.6890   22.1610 C   0  0  0  0  0  2  0  0  0  0  0  0
  -19.8140  -26.4380   21.1230 C   0  0  0  0  0  2  0  0  0  0  0  0
  -18.4320  -26.5000   21.7790 C   0  0  0  0  0  2  0  0  0  0  0  0
  -19.3400  -28.5220   23.0680 C   0  0  0  0  0  0  0  0  0  0  0  0
  -19.1010  -29.7240   23.7690 C   0  0  0  0  0  3  0  0  0  0  0  0
  -17.7880  -30.1850   23.9800 C   0  0  0  0  0  3  0  0  0  0  0  0
  -16.6960  -29.4390   23.5040 C   0  0  0  0  0  3  0  0  0  0  0  0
  -16.9200  -28.2390   22.8070 C   0  0  0  0  0  3  0  0  0  0  0  0
  -25.8630  -32.3800   23.9220 C   0  0  0  0  0  3  0  0  0  0  0  0
  -25.4920  -33.7450   24.3140 N   0  0  0  0  0  0  0  0  0  0  0  0
  -25.8220  -34.8480   23.6280 C   0  0  0  0  0  0  0  0  0  0  0  0
  -26.5400  -34.8230   22.6250 O   0  0  0  0  0  0  0  0  0  0  0  0
  -24.8590  -33.8360   25.0950 H   0  0  0  0  0  0  0  0  0  0  0  0
  -24.0620  -36.6080   23.2720 C   0  0  0  0  0  1  0  0  0  0  0  0
  -25.2640  -36.1910   24.1350 C   0  0  0  0  0  3  0  0  0  0  0  0
  -27.3110  -37.0850   25.1540 C   0  0  0  0  0  1  0  0  0  0  0  0
  -26.2670  -37.2780   24.1500 N   0  0  0  0  0  0  0  0  0  0  0  0
  -25.8220  -38.1750   24.3260 H   0  0  0  0  0  0  0  0  0  0  0  0
  -26.3710  -31.5590   25.1710 C   0  0  1  0  0  0  0  0  0  0  0  0
  -25.2570  -31.2220   26.1900 C   0  0  0  0  0  1  0  0  0  0  0  0
  -27.0150  -30.2260   24.7200 C   0  0  0  0  0  1  0  0  0  0  0  0
  -27.4710  -32.3540   25.9110 C   0  0  0  0  0  1  0  0  0  0  0  0
  1  5  1  0
  2  6  1  0
  3  1  2  0
  4  2  2  0
  4  3  1  0
  5  8  1  0
  6 50  1  0
  6  5  2  0
  7  4  1  0
  8 10  1  0
  8  9  1  0
 11  3  1  0
 11 14  1  0
 12 11  2  0
 13 12  1  0
 14 20  1  0
 15 20  1  0
 16 17  1  0
 16 15  1  0
 18 17  1  0
 18 25  1  0
 18 19  1  0
 20 19  1  0
 21 14  2  0
 22 23  2  0
 23 24  1  0
 23 42  1  0
 24 27  1  0
 25 22  1  0
 25 26  1  0
 26 24  2  0
 27 28  1  0
 28 29  2  0
 30 33  1  0
 30 29  1  0
 31 30  2  0
 32 31  1  0
 32 27  2  0
 33 34  1  0
 34 35  1  0
 35 36  2  0
 37 36  1  0
 37 41  1  0
 38 37  2  0
 39 34  2  0
 39 38  1  0
 40 39  1  0
 42 43  1  0
 43 46  1  0
 43 45  1  0
 44 42  2  0
 47 48  1  0
 47 22  1  0
 49 47  1  0
 51 52  1  0
 51 50  1  0
 53 54  1  0
 53 52  1  0
 55 57  1  0
 55 54  1  0
 56 67  2  0
 57 62  1  0
 58 66  1  0
 58 68  1  0
 59 65  1  0
 59 61  1  0
 60 66  1  0
 61 60  1  0
 62 61  2  0
 63 64  1  0
 63 57  2  0
 64 59  2  0
 65 58  1  0
 66 56  1  0
 68 70  2  0
 69 68  1  0
 71 69  1  0
 72 81  2  0
 72 77  1  0
 73 69  1  0
 73 77  1  0
 74 73  1  0
 75 76  1  0
 75 74  1  0
 76 72  1  0
 77 78  2  0
 78 79  1  0
 80 79  2  0
 81 80  1  0
 82 56  1  0
 82 83  1  0
 82 92  1  0
 83 86  1  0
 84 88  1  0
 84 83  1  0
 85 84  2  0
 88 87  1  0
 88 90  1  0
 90 91  1  0
 90 89  1  0
 92 95  1  1
 92 93  1  0
 94 92  1  0
M  ISO  4  11 100  14 100  54 101  55 101
M  END
>  <TORSDO>  (53) 
F 23

>  <SCORE>  (53) 
-12.539

>  <name>  (53) 
52

>  <ligand_id>  (53) 
52

>  <original_smiles>  (53) 
[H]N=C(C(=O)N1C([H])([H])C([H])([H])C([H])([H])C([H])(n2nc(-c3c([H])c([H])c(Oc4c([H])c([H])c(F)c([H])c4F)c([H])c3[H])c(C(=O)N([H])[H])c2N([H])[H])C1([H])[H])c1c([H])c(N([H])[H])c(OC([H])([H])C([H])([H])C([H])([H])C([H])([H])Oc2c([H])c([H])c3c(c2[H])C([H])([H])N(C(=O)C([H])(N([H])C(=O)C([H])(N([H])C([H])([H])[H])C([H])([H])[H])C(C([H])([H])[H])(C([H])([H])[H])C([H])([H])[H])C([H])(C(=O)N([H])C2([H])c4c([H])c([H])c([H])c([H])c4C([H])([H])C([H])([H])C2([H])[H])C3([H])[H])c([H])c1C([H])([H])[H]

>  <smiles>  (53) 
[H]N=C(C(=O)N1C([H])([H])C([H])([H])C([H])([H])C([H])(n2nc(-c3c([H])c([H])c(Oc4c([H])c([H])c(F)c([H])c4F)c([H])c3[H])c(C(=O)N([H])[H])c2N([H])[H])C1([H])[H])c1c([H])c(N([H])[H])c(OC([H])([H])C([H])([H])C([H])([H])C([H])([H])Oc2c([H])c([H])c3c(c2[H])C([H])([H])N(C(=O)C([H])(N([H])C(=O)C([H])(N([H])C([H])([H])[H])C([H])([H])[H])C(C([H])([H])[H])(C([H])([H])[H])C([H])([H])[H])C([H])(C(=O)N([H])C2([H])c4c([H])c([H])c([H])c([H])c4C([H])([H])C([H])([H])C2([H])[H])C3([H])[H])c([H])c1C([H])([H])[H]

$$$$
53:0:0
     RDKit          3D

 97105  0  0  1  0  0  0  0  0999 V2000
  -29.2320  -19.9580   19.5940 C   0  0  0  0  0  3  0  0  0  0  0  0
  -29.3960  -20.0690   22.0100 C   0  0  0  0  0  3  0  0  0  0  0  0
  -30.2190  -18.0760   20.8410 C   0  0  0  0  0  0  0  0  0  0  0  0
  -29.8090  -18.6670   19.6100 C   0  0  0  0  0  0  0  0  0  0  0  0
  -29.0440  -20.6810   20.7900 C   0  0  0  0  0  0  0  0  0  0  0  0
  -29.9870  -18.7750   22.0560 C   0  0  0  0  0  0  0  0  0  0  0  0
  -30.0190  -17.9530   18.2810 C   0  0  0  0  0  1  0  0  0  0  0  0
  -31.0120  -14.6110   19.8440 C   0  0  0  0  0  0  0  0  0  0  0  0
  -30.4780  -12.5820   18.5460 C   0  0  0  0  0  2  0  0  0  0  0  0
  -29.4390  -12.9150   17.4590 C   0  0  0  0  0  2  0  0  0  0  0  0
  -28.0120  -12.7780   18.0230 C   0  0  0  0  0  2  0  0  0  0  0  0
  -27.8270  -13.5230   19.3730 C   0  0  0  0  0  3  0  0  0  0  0  0
  -28.9770  -13.2030   20.3540 C   0  0  0  0  0  2  0  0  0  0  0  0
  -30.2420  -13.5040   19.6680 N   0  0  0  0  0  0  0  0  0  0  0  0
  -32.1180  -14.7150   19.3060 O   0  0  0  0  0  0  0  0  0  0  0  0
  -31.0320  -16.8000   20.8320 C   0  0  0  0  0  0  0  0  0  0  0  0
  -30.4150  -15.6610   20.4520 N   0  0  0  0  0  0  0  0  0  0  0  0
  -32.2300  -16.8770   21.1300 O   0  0  0  0  0  0  0  0  0  0  0  0
  -29.4140  -15.6320   20.5410 H   0  0  0  0  0  0  0  0  0  0  0  0
  -25.5080  -14.1290   20.3020 C   0  0  0  0  0  0  0  0  0  0  0  0
  -24.4690  -13.3560   20.7440 C   0  0  0  0  0  0  0  0  0  0  0  0
  -24.9140  -12.0010   20.6440 C   0  0  0  0  0  0  0  0  0  0  0  0
  -26.5210  -13.2460   19.9620 N   0  0  0  0  0  0  0  0  0  0  0  0
  -26.1720  -11.9600   20.2240 N   0  0  0  0  0  0  0  0  0  0  0  0
  -24.1950  -10.7410   20.8650 C   0  0  0  0  0  0  0  0  0  0  0  0
  -24.6600   -9.7770   21.7870 C   0  0  0  0  0  3  0  0  0  0  0  0
  -23.9390   -8.5810   21.9950 C   0  0  0  0  0  3  0  0  0  0  0  0
  -22.7420   -8.3400   21.2820 C   0  0  0  0  0  0  0  0  0  0  0  0
  -22.2970   -9.2930   20.3480 C   0  0  0  0  0  3  0  0  0  0  0  0
  -23.0170  -10.4800   20.1380 C   0  0  0  0  0  3  0  0  0  0  0  0
  -21.9890   -7.1970   21.4010 O   0  0  0  0  0  0  0  0  0  0  0  0
  -21.9210   -6.4990   22.5800 C   0  0  0  0  0  0  0  0  0  0  0  0
  -21.5020   -7.1080   23.7840 C   0  0  0  0  0  3  0  0  0  0  0  0
  -21.3810   -6.3380   24.9570 C   0  0  0  0  0  3  0  0  0  0  0  0
  -21.6690   -4.9610   24.9280 C   0  0  0  0  0  0  0  0  0  0  0  0
  -22.0830   -4.3510   23.7310 C   0  0  0  0  0  3  0  0  0  0  0  0
  -22.2050   -5.1190   22.5590 C   0  0  0  0  0  0  0  0  0  0  0  0
  -22.5840   -4.5230   21.4030 F   0  0  0  0  0  0  0  0  0  0  0  0
  -21.5450   -4.2180   26.0540 F   0  0  0  0  0  0  0  0  0  0  0  0
  -23.1060  -13.8370   21.1460 C   0  0  0  0  0  0  0  0  0  0  0  0
  -22.4630  -13.1490   22.0820 N   0  0  0  0  0  0  0  0  0  0  0  0
  -22.6210  -14.8600   20.6620 O   0  0  0  0  0  0  0  0  0  0  0  0
  -22.8700  -12.3190   22.4920 H   0  0  0  0  0  0  0  0  0  0  0  0
  -21.5530  -13.4550   22.3950 H   0  0  0  0  0  0  0  0  0  0  0  0
  -25.6710  -15.5020   20.1410 N   0  0  0  0  0  0  0  0  0  0  0  0
  -24.9140  -16.1530   20.3200 H   0  0  0  0  0  0  0  0  0  0  0  0
  -26.4800  -15.9430   19.7230 H   0  0  0  0  0  0  0  0  0  0  0  0
  -28.5110  -21.9850   20.8100 N   0  0  0  0  0  0  0  0  0  0  0  0
  -28.3690  -22.4220   21.7190 H   0  0  0  0  0  0  0  0  0  0  0  0
  -28.8810  -22.9660   19.7800 C   0  0  0  0  0  2  0  0  0  0  0  0
  -28.6240  -24.4240   20.2290 C   0  0  0  0  0  0  0  0  0  0  0  0
  -28.2750  -24.6650   21.3910 O   0  0  0  0  0  0  0  0  0  0  0  0
  -28.8310  -25.5470   19.1880 C   0  0  0  0  0  2  0  0  0  0  0  0
  -28.6910  -26.8700   19.7490 O   0  0  0  0  0  0  0  0  0  0  0  0
  -24.6190  -31.7160   23.0100 C   0  0  0  0  0  0  0  0  0  0  0  0
  -27.4620  -27.5070   19.7620 C   0  0  0  0  0  0  0  0  0  0  0  0
  -23.4740  -30.3130   21.3230 C   0  0  0  0  0  3  0  0  0  0  0  0
  -24.9930  -28.8960   19.8450 C   0  0  0  0  0  0  0  0  0  0  0  0
  -25.9780  -30.7990   21.1310 C   0  0  0  0  0  2  0  0  0  0  0  0
  -26.1260  -29.4550   20.4440 C   0  0  0  0  0  0  0  0  0  0  0  0
  -27.3610  -28.7660   20.4010 C   0  0  0  0  0  3  0  0  0  0  0  0
  -26.3020  -26.9580   19.1660 C   0  0  0  0  0  3  0  0  0  0  0  0
  -25.0750  -27.6450   19.2070 C   0  0  0  0  0  3  0  0  0  0  0  0
  -23.7090  -29.6890   19.9220 C   0  0  0  0  0  2  0  0  0  0  0  0
  -24.7090  -30.9570   21.8810 N   0  0  0  0  0  0  0  0  0  0  0  0
  -23.5290  -31.9190   23.5620 O   0  0  0  0  0  0  0  0  0  0  0  0
  -22.8770  -29.2310   22.2510 C   0  0  0  0  0  0  0  0  0  0  0  0
  -21.5560  -29.0150   22.1460 N   0  0  0  0  0  0  0  0  0  0  0  0
  -23.5980  -28.5910   23.0200 O   0  0  0  0  0  0  0  0  0  0  0  0
  -21.0320  -29.5890   21.5000 H   0  0  0  0  0  0  0  0  0  0  0  0
  -18.2270  -27.7130   22.6800 C   0  0  0  0  0  0  0  0  0  0  0  0
  -20.7850  -28.0190   22.8900 C   0  0  0  0  0  3  0  0  0  0  0  0
  -20.9020  -26.6220   22.2370 C   0  0  0  0  0  2  0  0  0  0  0  0
  -19.7770  -26.3260   21.2400 C   0  0  0  0  0  2  0  0  0  0  0  0
  -18.4130  -26.4040   21.9310 C   0  0  0  0  0  2  0  0  0  0  0  0
  -19.3410  -28.4790   23.1160 C   0  0  0  0  0  0  0  0  0  0  0  0
  -19.1120  -29.7060   23.7770 C   0  0  0  0  0  3  0  0  0  0  0  0
  -17.8020  -30.1660   24.0060 C   0  0  0  0  0  3  0  0  0  0  0  0
  -16.7040  -29.3970   23.5870 C   0  0  0  0  0  3  0  0  0  0  0  0
  -16.9170  -28.1710   22.9300 C   0  0  0  0  0  3  0  0  0  0  0  0
  -25.8770  -32.3870   23.6470 C   0  0  0  0  0  3  0  0  0  0  0  0
  -25.4990  -33.7500   24.0410 N   0  0  0  0  0  0  0  0  0  0  0  0
  -25.7730  -34.8510   23.3290 C   0  0  0  0  0  0  0  0  0  0  0  0
  -26.4420  -34.8290   22.2920 O   0  0  0  0  0  0  0  0  0  0  0  0
  -24.9050  -33.8380   24.8530 H   0  0  0  0  0  0  0  0  0  0  0  0
  -23.9540  -36.5670   23.0560 C   0  0  0  0  0  1  0  0  0  0  0  0
  -25.2150  -36.1910   23.8490 C   0  0  0  0  0  3  0  0  0  0  0  0
  -27.3040  -37.1440   24.7190 C   0  0  0  0  0  1  0  0  0  0  0  0
  -26.1920  -37.2990   23.7850 N   0  0  0  0  0  0  0  0  0  0  0  0
  -25.7400  -38.1890   23.9770 H   0  0  0  0  0  0  0  0  0  0  0  0
  -26.4520  -31.5880   24.8810 C   0  0  1  0  0  0  0  0  0  0  0  0
  -25.3900  -31.2450   25.9510 C   0  0  0  0  0  1  0  0  0  0  0  0
  -27.1000  -30.2620   24.4190 C   0  0  0  0  0  1  0  0  0  0  0  0
  -27.5720  -32.4080   25.5630 C   0  0  0  0  0  1  0  0  0  0  0  0
  -30.3740  -18.1650   23.2340 O   0  0  0  0  0  0  0  0  0  0  0  0
  -30.6480  -17.9640   25.6080 C   0  0  0  0  0  1  0  0  0  0  0  0
  -30.2140  -18.8740   24.4580 C   0  0  0  0  0  2  0  0  0  0  0  0
  1  4  2  0
  1  5  1  0
  2  6  1  0
  3  6  2  0
  4  3  1  0
  5 48  1  0
  5  2  2  0
  6 95  1  0
  7  4  1  0
  8 17  1  0
  9 14  1  0
 10 11  1  0
 10  9  1  0
 12 11  1  0
 12 23  1  0
 12 13  1  0
 14  8  1  0
 14 13  1  0
 15  8  2  0
 16  3  1  0
 16 18  2  0
 17 19  1  0
 17 16  1  0
 20 21  2  0
 21 40  1  0
 22 21  1  0
 22 25  1  0
 23 24  1  0
 23 20  1  0
 24 22  2  0
 25 26  1  0
 26 27  2  0
 28 31  1  0
 28 27  1  0
 29 28  2  0
 30 29  1  0
 30 25  2  0
 31 32  1  0
 32 33  1  0
 33 34  2  0
 35 34  1  0
 35 39  1  0
 36 35  2  0
 37 32  2  0
 37 36  1  0
 38 37  1  0
 40 41  1  0
 41 44  1  0
 41 43  1  0
 42 40  2  0
 45 20  1  0
 45 46  1  0
 47 45  1  0
 48 49  1  0
 50 51  1  0
 50 48  1  0
 51 52  2  0
 53 54  1  0
 53 51  1  0
 54 56  1  0
 55 66  2  0
 56 61  1  0
 57 65  1  0
 57 67  1  0
 58 64  1  0
 58 60  1  0
 59 65  1  0
 60 59  1  0
 61 60  2  0
 62 63  1  0
 62 56  2  0
 63 58  2  0
 64 57  1  0
 65 55  1  0
 67 69  2  0
 68 67  1  0
 70 68  1  0
 71 80  2  0
 71 76  1  0
 72 68  1  0
 72 76  1  0
 73 72  1  0
 74 75  1  0
 74 73  1  0
 75 71  1  0
 76 77  2  0
 77 78  1  0
 79 78  2  0
 80 79  1  0
 81 55  1  0
 81 82  1  0
 81 91  1  0
 82 85  1  0
 83 87  1  0
 83 82  1  0
 84 83  2  0
 87 86  1  0
 89 87  1  0
 89 90  1  0
 89 88  1  0
 91 94  1  1
 91 92  1  0
 93 91  1  0
 95 97  1  0
 97 96  1  0
M  ISO  4   8 100  17 100  53 101  54 101
M  END
>  <TORSDO>  (54) 
F 22

>  <SCORE>  (54) 
-6.865

>  <name>  (54) 
53

>  <ligand_id>  (54) 
53

>  <original_smiles>  (54) 
[H]c1c([H])c([H])c2c(c1[H])C([H])([H])C([H])([H])C([H])([H])C2([H])N([H])C(=O)C1([H])N(C(=O)C([H])(N([H])C(=O)C([H])(N([H])C([H])([H])[H])C([H])([H])[H])C(C([H])([H])[H])(C([H])([H])[H])C([H])([H])[H])C([H])([H])c2c([H])c(OC([H])([H])C(=O)C([H])([H])N([H])c3c([H])c(OC([H])([H])C([H])([H])[H])c(C(=O)N([H])C(=O)N4C([H])([H])C([H])([H])C([H])([H])C([H])(n5nc(-c6c([H])c([H])c(Oc7c([H])c([H])c(F)c([H])c7F)c([H])c6[H])c(C(=O)N([H])[H])c5N([H])[H])C4([H])[H])c(C([H])([H])[H])c3[H])c([H])c([H])c2C1([H])[H]

>  <smiles>  (54) 
[H]c1c([H])c([H])c2c(c1[H])C([H])([H])C([H])([H])C([H])([H])C2([H])N([H])C(=O)C1([H])N(C(=O)C([H])(N([H])C(=O)C([H])(N([H])C([H])([H])[H])C([H])([H])[H])C(C([H])([H])[H])(C([H])([H])[H])C([H])([H])[H])C([H])([H])c2c([H])c(OC([H])([H])C(=O)C([H])([H])N([H])c3c([H])c(OC([H])([H])C([H])([H])[H])c(C(=O)N([H])C(=O)N4C([H])([H])C([H])([H])C([H])([H])C([H])(n5nc(-c6c([H])c([H])c(Oc7c([H])c([H])c(F)c([H])c7F)c([H])c6[H])c(C(=O)N([H])[H])c5N([H])[H])C4([H])[H])c(C([H])([H])[H])c3[H])c([H])c([H])c2C1([H])[H]

$$$$
54:0:0
     RDKit          3D

 93102  0  0  1  0  0  0  0  0999 V2000
  -29.5440  -20.7390   19.5220 C   0  0  0  0  0  0  0  0  0  0  0  0
  -27.8290  -23.0740   21.8530 C   0  0  0  0  0  2  0  0  0  0  0  0
  -28.3530  -21.6810   21.4860 C   0  0  0  0  0  2  0  0  0  0  0  0
  -28.9310  -23.2070   19.7080 C   0  0  0  0  0  2  0  0  0  0  0  0
  -27.9400  -23.9900   20.6160 C   0  0  0  0  0  3  0  0  0  0  0  0
  -29.0260  -21.8050   20.2000 N   0  0  0  0  0  0  0  0  0  0  0  0
  -29.7290  -20.7640   18.3030 O   0  0  0  0  0  0  0  0  0  0  0  0
  -31.6860  -18.6690   21.9250 C   0  0  0  0  0  3  0  0  0  0  0  0
  -31.0800  -19.7520   21.2610 C   0  0  0  0  0  3  0  0  0  0  0  0
  -31.2880  -17.3480   21.6490 C   0  0  0  0  0  3  0  0  0  0  0  0
  -29.6520  -18.1920   20.0430 C   0  0  0  0  0  3  0  0  0  0  0  0
  -30.0580  -19.5390   20.3100 C   0  0  0  0  0  0  0  0  0  0  0  0
  -30.2650  -17.0830   20.7080 C   0  0  0  0  0  0  0  0  0  0  0  0
  -30.6070  -14.6140   20.3210 C   0  0  0  0  0  0  0  0  0  0  0  0
  -30.3360  -12.4130   19.2380 C   0  0  0  0  0  2  0  0  0  0  0  0
  -29.3830  -12.5590   18.0350 C   0  0  0  0  0  2  0  0  0  0  0  0
  -27.9120  -12.4080   18.4800 C   0  0  0  0  0  2  0  0  0  0  0  0
  -27.5640  -13.2640   19.7280 C   0  0  0  0  0  3  0  0  0  0  0  0
  -28.6370  -13.1180   20.8310 C   0  0  0  0  0  2  0  0  0  0  0  0
  -29.9420  -13.4280   20.2280 N   0  0  0  0  0  0  0  0  0  0  0  0
  -31.7940  -14.7240   20.0040 O   0  0  0  0  0  0  0  0  0  0  0  0
  -29.8330  -15.7210   20.4930 N   0  0  0  0  0  0  0  0  0  0  0  0
  -28.8370  -15.5650   20.4480 H   0  0  0  0  0  0  0  0  0  0  0  0
  -25.1730  -13.8390   20.4750 C   0  0  0  0  0  0  0  0  0  0  0  0
  -24.1200  -13.0540   20.8570 C   0  0  0  0  0  0  0  0  0  0  0  0
  -24.5960  -11.7090   20.8240 C   0  0  0  0  0  0  0  0  0  0  0  0
  -26.2260  -12.9710   20.2300 N   0  0  0  0  0  0  0  0  0  0  0  0
  -25.8840  -11.6850   20.5030 N   0  0  0  0  0  0  0  0  0  0  0  0
  -23.8860  -10.4380   21.0170 C   0  0  0  0  0  0  0  0  0  0  0  0
  -24.3350   -9.4760   21.9500 C   0  0  0  0  0  3  0  0  0  0  0  0
  -23.6240   -8.2700   22.1310 C   0  0  0  0  0  3  0  0  0  0  0  0
  -22.4500   -8.0190   21.3810 C   0  0  0  0  0  0  0  0  0  0  0  0
  -22.0210   -8.9690   20.4390 C   0  0  0  0  0  3  0  0  0  0  0  0
  -22.7330  -10.1670   20.2540 C   0  0  0  0  0  3  0  0  0  0  0  0
  -21.7080   -6.8660   21.4740 O   0  0  0  0  0  0  0  0  0  0  0  0
  -21.6770   -6.1200   22.6240 C   0  0  0  0  0  0  0  0  0  0  0  0
  -21.2540   -6.6660   23.8560 C   0  0  0  0  0  3  0  0  0  0  0  0
  -21.1710   -5.8460   24.9990 C   0  0  0  0  0  3  0  0  0  0  0  0
  -21.5030   -4.4790   24.9110 C   0  0  0  0  0  0  0  0  0  0  0  0
  -21.9200   -3.9330   23.6830 C   0  0  0  0  0  3  0  0  0  0  0  0
  -22.0050   -4.7510   22.5430 C   0  0  0  0  0  0  0  0  0  0  0  0
  -22.3860   -4.2150   21.3580 F   0  0  0  0  0  0  0  0  0  0  0  0
  -21.4170   -3.6880   26.0060 F   0  0  0  0  0  0  0  0  0  0  0  0
  -22.7190  -13.5160   21.1380 C   0  0  0  0  0  0  0  0  0  0  0  0
  -22.0000  -12.8110   22.0050 N   0  0  0  0  0  0  0  0  0  0  0  0
  -22.2680  -14.5380   20.6230 O   0  0  0  0  0  0  0  0  0  0  0  0
  -22.3750  -11.9830   22.4440 H   0  0  0  0  0  0  0  0  0  0  0  0
  -21.0570  -13.1020   22.2270 H   0  0  0  0  0  0  0  0  0  0  0  0
  -25.3120  -15.2110   20.2960 N   0  0  0  0  0  0  0  0  0  0  0  0
  -24.5210  -15.8380   20.4050 H   0  0  0  0  0  0  0  0  0  0  0  0
  -26.1350  -15.6760   19.9340 H   0  0  0  0  0  0  0  0  0  0  0  0
  -28.2900  -25.4650   21.0650 C   0  0  0  0  0  2  0  0  0  0  0  0
  -28.3200  -26.5910   20.1410 O   0  0  0  0  0  0  0  0  0  0  0  0
  -24.6030  -31.8930   23.2430 C   0  0  0  0  0  0  0  0  0  0  0  0
  -27.2020  -27.4040   20.1560 C   0  0  0  0  0  0  0  0  0  0  0  0
  -23.3920  -30.4990   21.6020 C   0  0  0  0  0  3  0  0  0  0  0  0
  -24.8330  -28.9580   20.1670 C   0  0  0  0  0  0  0  0  0  0  0  0
  -25.9220  -30.8400   21.3970 C   0  0  0  0  0  2  0  0  0  0  0  0
  -25.9990  -29.4650   20.7580 C   0  0  0  0  0  0  0  0  0  0  0  0
  -27.1920  -28.6950   20.7510 C   0  0  0  0  0  3  0  0  0  0  0  0
  -26.0230  -26.9270   19.5510 C   0  0  0  0  0  3  0  0  0  0  0  0
  -24.8430  -27.6900   19.5580 C   0  0  0  0  0  3  0  0  0  0  0  0
  -23.5960  -29.8270   20.2190 C   0  0  0  0  0  2  0  0  0  0  0  0
  -24.6590  -31.0950   22.1380 N   0  0  0  0  0  0  0  0  0  0  0  0
  -23.5230  -32.1600   23.7900 O   0  0  0  0  0  0  0  0  0  0  0  0
  -22.7400  -29.4760   22.5640 C   0  0  0  0  0  0  0  0  0  0  0  0
  -21.4150  -29.2900   22.4410 N   0  0  0  0  0  0  0  0  0  0  0  0
  -23.4260  -28.8530   23.3780 O   0  0  0  0  0  0  0  0  0  0  0  0
  -20.9160  -29.8520   21.7670 H   0  0  0  0  0  0  0  0  0  0  0  0
  -18.0490  -28.0740   22.9520 C   0  0  0  0  0  0  0  0  0  0  0  0
  -20.6060  -28.3450   23.2120 C   0  0  0  0  0  3  0  0  0  0  0  0
  -20.7160  -26.9150   22.6340 C   0  0  0  0  0  2  0  0  0  0  0  0
  -19.6110  -26.5850   21.6260 C   0  0  0  0  0  2  0  0  0  0  0  0
  -18.2300  -26.7270   22.2740 C   0  0  0  0  0  2  0  0  0  0  0  0
  -19.1650  -28.8410   23.3780 C   0  0  0  0  0  0  0  0  0  0  0  0
  -18.9390  -30.1040   23.9680 C   0  0  0  0  0  3  0  0  0  0  0  0
  -17.6330  -30.5960   24.1400 C   0  0  0  0  0  3  0  0  0  0  0  0
  -16.5320  -29.8250   23.7290 C   0  0  0  0  0  3  0  0  0  0  0  0
  -16.7410  -28.5670   23.1370 C   0  0  0  0  0  3  0  0  0  0  0  0
  -25.8890  -32.5280   23.8600 C   0  0  0  0  0  3  0  0  0  0  0  0
  -25.5810  -33.9270   24.1890 N   0  0  0  0  0  0  0  0  0  0  0  0
  -25.9100  -34.9800   23.4260 C   0  0  0  0  0  0  0  0  0  0  0  0
  -26.5740  -34.8760   22.3930 O   0  0  0  0  0  0  0  0  0  0  0  0
  -25.0050  -34.0870   25.0030 H   0  0  0  0  0  0  0  0  0  0  0  0
  -24.1840  -36.7750   23.0710 C   0  0  0  0  0  1  0  0  0  0  0  0
  -25.4230  -36.3690   23.8850 C   0  0  0  0  0  3  0  0  0  0  0  0
  -27.5570  -37.2530   24.7170 C   0  0  0  0  0  1  0  0  0  0  0  0
  -26.4560  -37.4220   23.7710 N   0  0  0  0  0  0  0  0  0  0  0  0
  -26.0480  -38.3400   23.9210 H   0  0  0  0  0  0  0  0  0  0  0  0
  -26.4120  -31.7590   25.1340 C   0  0  1  0  0  0  0  0  0  0  0  0
  -25.3270  -31.5170   26.2060 C   0  0  0  0  0  1  0  0  0  0  0  0
  -26.9960  -30.3850   24.7350 C   0  0  0  0  0  1  0  0  0  0  0  0
  -27.5650  -32.5560   25.7910 C   0  0  0  0  0  1  0  0  0  0  0  0
  1  6  1  0
  1 12  1  0
  3  2  1  0
  4  6  1  0
  4  5  1  0
  5 52  1  0
  5  2  1  0
  6  3  1  0
  7  1  2  0
  9  8  2  0
 10  8  1  0
 11 12  2  0
 11 13  1  0
 12  9  1  0
 13 10  2  0
 14 22  1  0
 15 20  1  0
 16 17  1  0
 16 15  1  0
 18 17  1  0
 18 27  1  0
 18 19  1  0
 20 14  1  0
 20 19  1  0
 21 14  2  0
 22 13  1  0
 23 22  1  0
 24 25  2  0
 25 44  1  0
 26 25  1  0
 26 29  1  0
 27 24  1  0
 27 28  1  0
 28 26  2  0
 29 30  1  0
 30 31  2  0
 32 35  1  0
 32 31  1  0
 33 32  2  0
 34 33  1  0
 34 29  2  0
 35 36  1  0
 36 37  1  0
 37 38  2  0
 39 38  1  0
 39 43  1  0
 40 39  2  0
 41 36  2  0
 41 40  1  0
 42 41  1  0
 44 45  1  0
 45 48  1  0
 45 47  1  0
 46 44  2  0
 49 50  1  0
 49 24  1  0
 51 49  1  0
 53 55  1  0
 53 52  1  0
 54 65  2  0
 55 60  1  0
 56 64  1  0
 56 66  1  0
 57 63  1  0
 57 59  1  0
 58 64  1  0
 59 58  1  0
 60 59  2  0
 61 62  1  0
 61 55  2  0
 62 57  2  0
 63 56  1  0
 64 54  1  0
 66 68  2  0
 67 66  1  0
 69 67  1  0
 70 79  2  0
 70 75  1  0
 71 67  1  0
 71 75  1  0
 72 71  1  0
 73 74  1  0
 73 72  1  0
 74 70  1  0
 75 76  2  0
 76 77  1  0
 78 77  2  0
 79 78  1  0
 80 54  1  0
 80 81  1  0
 80 90  1  0
 81 84  1  0
 82 86  1  0
 82 81  1  0
 83 82  2  0
 86 85  1  0
 88 86  1  0
 88 89  1  0
 88 87  1  0
 90 93  1  1
 90 91  1  0
 92 90  1  0
M  ISO  4  14 100  22 100  52 101  53 101
M  END
>  <TORSDO>  (55) 
F 18

>  <SCORE>  (55) 
-14.841

>  <name>  (55) 
54

>  <ligand_id>  (55) 
54

>  <original_smiles>  (55) 
[H]c1c([H])c(C(=O)N2C([H])([H])C([H])([H])C([H])(C([H])([H])Oc3c([H])c([H])c4c(c3[H])C([H])([H])N(C(=O)C([H])(N([H])C(=O)C([H])(N([H])C([H])([H])[H])C([H])([H])[H])C(C([H])([H])[H])(C([H])([H])[H])C([H])([H])[H])C([H])(C(=O)N([H])C3([H])c5c([H])c([H])c([H])c([H])c5C([H])([H])C([H])([H])C3([H])[H])C4([H])[H])C2([H])[H])c([H])c(N([H])C(=O)N2C([H])([H])C([H])([H])C([H])([H])C([H])(n3nc(-c4c([H])c([H])c(Oc5c([H])c([H])c(F)c([H])c5F)c([H])c4[H])c(C(=O)N([H])[H])c3N([H])[H])C2([H])[H])c1[H]

>  <smiles>  (55) 
[H]c1c([H])c(C(=O)N2C([H])([H])C([H])([H])C([H])(C([H])([H])Oc3c([H])c([H])c4c(c3[H])C([H])([H])N(C(=O)C([H])(N([H])C(=O)C([H])(N([H])C([H])([H])[H])C([H])([H])[H])C(C([H])([H])[H])(C([H])([H])[H])C([H])([H])[H])C([H])(C(=O)N([H])C3([H])c5c([H])c([H])c([H])c([H])c5C([H])([H])C([H])([H])C3([H])[H])C4([H])[H])C2([H])[H])c([H])c(N([H])C(=O)N2C([H])([H])C([H])([H])C([H])([H])C([H])(n3nc(-c4c([H])c([H])c(Oc5c([H])c([H])c(F)c([H])c5F)c([H])c4[H])c(C(=O)N([H])[H])c3N([H])[H])C2([H])[H])c1[H]

$$$$
55:0:0
     RDKit          3D

 89 97  0  0  1  0  0  0  0  0999 V2000
  -28.9280  -21.0870   20.6580 C   0  0  0  0  0  3  0  0  0  0  0  0
  -28.8800  -22.3380   20.0500 C   0  0  0  0  0  3  0  0  0  0  0  0
  -29.7020  -18.4000   18.0010 C   0  0  0  0  0  3  0  0  0  0  0  0
  -29.3940  -19.6130   18.6460 C   0  0  0  0  0  3  0  0  0  0  0  0
  -29.8760  -17.2060   18.7220 C   0  0  0  0  0  3  0  0  0  0  0  0
  -29.3990  -18.4370   20.7720 C   0  0  0  0  0  3  0  0  0  0  0  0
  -29.2410  -19.6970   20.0490 C   0  0  0  0  0  0  0  0  0  0  0  0
  -29.7330  -17.1690   20.1270 C   0  0  0  0  0  0  0  0  0  0  0  0
  -30.5860  -14.7420   20.4080 C   0  0  0  0  0  0  0  0  0  0  0  0
  -30.4120  -12.4820   19.3760 C   0  0  0  0  0  2  0  0  0  0  0  0
  -29.4820  -12.5860   18.1480 C   0  0  0  0  0  2  0  0  0  0  0  0
  -28.0090  -12.4070   18.5580 C   0  0  0  0  0  2  0  0  0  0  0  0
  -27.6320  -13.2730   19.7890 C   0  0  0  0  0  3  0  0  0  0  0  0
  -28.6780  -13.1480   20.9200 C   0  0  0  0  0  2  0  0  0  0  0  0
  -29.9820  -13.5090   20.3550 N   0  0  0  0  0  0  0  0  0  0  0  0
  -31.7490  -14.8740   20.0070 O   0  0  0  0  0  0  0  0  0  0  0  0
  -29.8240  -15.8410   20.7790 N   0  0  0  0  0  0  0  0  0  0  0  0
  -29.0270  -15.6060   21.3540 H   0  0  0  0  0  0  0  0  0  0  0  0
  -25.2330  -13.8690   20.4790 C   0  0  0  0  0  0  0  0  0  0  0  0
  -24.1660  -13.0960   20.8470 C   0  0  0  0  0  0  0  0  0  0  0  0
  -24.6330  -11.7460   20.8330 C   0  0  0  0  0  0  0  0  0  0  0  0
  -26.2800  -12.9910   20.2590 N   0  0  0  0  0  0  0  0  0  0  0  0
  -25.9270  -11.7100   20.5320 N   0  0  0  0  0  0  0  0  0  0  0  0
  -23.9070  -10.4840   21.0300 C   0  0  0  0  0  0  0  0  0  0  0  0
  -24.3480   -9.5190   21.9630 C   0  0  0  0  0  3  0  0  0  0  0  0
  -23.6260   -8.3210   22.1480 C   0  0  0  0  0  3  0  0  0  0  0  0
  -22.4480   -8.0800   21.4000 C   0  0  0  0  0  0  0  0  0  0  0  0
  -22.0260   -9.0340   20.4580 C   0  0  0  0  0  3  0  0  0  0  0  0
  -22.7480  -10.2250   20.2720 C   0  0  0  0  0  3  0  0  0  0  0  0
  -21.6950   -6.9330   21.4950 O   0  0  0  0  0  0  0  0  0  0  0  0
  -21.6680   -6.1840   22.6420 C   0  0  0  0  0  0  0  0  0  0  0  0
  -21.2710   -6.7340   23.8820 C   0  0  0  0  0  3  0  0  0  0  0  0
  -21.1860   -5.9090   25.0220 C   0  0  0  0  0  3  0  0  0  0  0  0
  -21.4930   -4.5390   24.9250 C   0  0  0  0  0  0  0  0  0  0  0  0
  -21.8840   -3.9900   23.6920 C   0  0  0  0  0  3  0  0  0  0  0  0
  -21.9670   -4.8100   22.5540 C   0  0  0  0  0  0  0  0  0  0  0  0
  -22.3220   -4.2720   21.3610 F   0  0  0  0  0  0  0  0  0  0  0  0
  -21.4060   -3.7460   26.0190 F   0  0  0  0  0  0  0  0  0  0  0  0
  -22.7650  -13.5710   21.1060 C   0  0  0  0  0  0  0  0  0  0  0  0
  -22.0370  -12.8830   21.9750 N   0  0  0  0  0  0  0  0  0  0  0  0
  -22.3300  -14.5900   20.5710 O   0  0  0  0  0  0  0  0  0  0  0  0
  -22.4080  -12.0580   22.4250 H   0  0  0  0  0  0  0  0  0  0  0  0
  -21.0980  -13.1840   22.1930 H   0  0  0  0  0  0  0  0  0  0  0  0
  -25.3890  -15.2410   20.2960 N   0  0  0  0  0  0  0  0  0  0  0  0
  -24.6080  -15.8780   20.3970 H   0  0  0  0  0  0  0  0  0  0  0  0
  -26.2310  -15.6960   19.9670 H   0  0  0  0  0  0  0  0  0  0  0  0
  -28.5860  -23.7660   20.6870 C   0  0  0  0  0  3  0  0  0  0  0  0
  -28.3820  -25.0440   19.7210 C   0  0  0  0  0  3  0  0  0  0  0  0
  -28.3300  -26.4470   20.2590 O   0  0  0  0  0  0  0  0  0  0  0  0
  -24.6110  -31.8980   23.2510 C   0  0  0  0  0  0  0  0  0  0  0  0
  -27.2000  -27.2950   20.1920 C   0  0  0  0  0  0  0  0  0  0  0  0
  -23.4040  -30.4990   21.6170 C   0  0  0  0  0  3  0  0  0  0  0  0
  -24.8470  -28.9440   20.1880 C   0  0  0  0  0  0  0  0  0  0  0  0
  -25.9470  -30.8020   21.4320 C   0  0  0  0  0  2  0  0  0  0  0  0
  -26.0200  -29.4200   20.7850 C   0  0  0  0  0  0  0  0  0  0  0  0
  -27.1980  -28.6070   20.7750 C   0  0  0  0  0  3  0  0  0  0  0  0
  -25.9970  -26.8800   19.5770 C   0  0  0  0  0  3  0  0  0  0  0  0
  -24.8430  -27.6840   19.5730 C   0  0  0  0  0  3  0  0  0  0  0  0
  -23.6160  -29.8270   20.2370 C   0  0  0  0  0  2  0  0  0  0  0  0
  -24.6740  -31.0840   22.1560 N   0  0  0  0  0  0  0  0  0  0  0  0
  -23.5280  -32.1770   23.7860 O   0  0  0  0  0  0  0  0  0  0  0  0
  -22.7450  -29.4810   22.5800 C   0  0  0  0  0  0  0  0  0  0  0  0
  -21.4200  -29.3010   22.4580 N   0  0  0  0  0  0  0  0  0  0  0  0
  -23.4270  -28.8590   23.3990 O   0  0  0  0  0  0  0  0  0  0  0  0
  -20.9280  -29.8650   21.7790 H   0  0  0  0  0  0  0  0  0  0  0  0
  -18.0470  -28.1010   22.9540 C   0  0  0  0  0  0  0  0  0  0  0  0
  -20.6040  -28.3650   23.2310 C   0  0  0  0  0  3  0  0  0  0  0  0
  -20.7110  -26.9310   22.6650 C   0  0  0  0  0  2  0  0  0  0  0  0
  -19.6140  -26.6010   21.6530 C   0  0  0  0  0  2  0  0  0  0  0  0
  -18.2280  -26.7490   22.2850 C   0  0  0  0  0  2  0  0  0  0  0  0
  -19.1620  -28.8670   23.3840 C   0  0  0  0  0  0  0  0  0  0  0  0
  -18.9390  -30.1320   23.9680 C   0  0  0  0  0  3  0  0  0  0  0  0
  -17.6340  -30.6330   24.1290 C   0  0  0  0  0  3  0  0  0  0  0  0
  -16.5310  -29.8640   23.7150 C   0  0  0  0  0  3  0  0  0  0  0  0
  -16.7400  -28.5990   23.1360 C   0  0  0  0  0  3  0  0  0  0  0  0
  -25.8960  -32.5330   23.8710 C   0  0  0  0  0  3  0  0  0  0  0  0
  -26.4140  -31.7650   25.1480 C   0  0  1  0  0  0  0  0  0  0  0  0
  -25.3230  -31.5300   26.2210 C   0  0  0  0  0  1  0  0  0  0  0  0
  -26.9930  -30.3840   24.7610 C   0  0  0  0  0  1  0  0  0  0  0  0
  -27.5670  -32.5600   25.8060 C   0  0  0  0  0  1  0  0  0  0  0  0
  -25.5840  -33.9310   24.1990 N   0  0  0  0  0  0  0  0  0  0  0  0
  -25.9140  -34.9840   23.4380 C   0  0  0  0  0  0  0  0  0  0  0  0
  -26.5810  -34.8770   22.4040 O   0  0  0  0  0  0  0  0  0  0  0  0
  -24.9920  -34.0890   25.0000 H   0  0  0  0  0  0  0  0  0  0  0  0
  -24.1850  -36.7790   23.0880 C   0  0  0  0  0  1  0  0  0  0  0  0
  -25.4310  -36.3740   23.8930 C   0  0  0  0  0  3  0  0  0  0  0  0
  -27.5700  -37.2620   24.7100 C   0  0  0  0  0  1  0  0  0  0  0  0
  -26.4640  -37.4260   23.7710 N   0  0  0  0  0  0  0  0  0  0  0  0
  -26.0590  -38.3460   23.9180 H   0  0  0  0  0  0  0  0  0  0  0  0
  2  1  2  0
  2 47  1  0
  3  4  2  0
  3  5  1  0
  4  7  1  0
  5  8  2  0
  7  1  1  0
  7  6  2  0
  8  6  1  0
  8 17  1  0
  9 17  1  0
 10 15  1  0
 11 12  1  0
 11 10  1  0
 13 12  1  0
 13 22  1  0
 13 14  1  0
 15  9  1  0
 15 14  1  0
 16  9  2  0
 17 18  1  0
 19 20  2  0
 20 39  1  0
 21 20  1  0
 21 24  1  0
 22 19  1  0
 22 23  1  0
 23 21  2  0
 24 25  1  0
 25 26  2  0
 27 30  1  0
 27 26  1  0
 28 27  2  0
 29 28  1  0
 29 24  2  0
 30 31  1  0
 31 32  1  0
 32 33  2  0
 34 33  1  0
 34 38  1  0
 35 34  2  0
 36 31  2  0
 36 35  1  0
 37 36  1  0
 39 40  1  0
 40 43  1  0
 40 42  1  0
 41 39  2  0
 44 45  1  0
 44 19  1  0
 46 44  1  0
 48 49  1  0
 48 47  2  0
 50 61  2  0
 51 49  1  0
 51 56  1  0
 52 60  1  0
 52 62  1  0
 53 59  1  0
 53 55  1  0
 54 60  1  0
 55 54  1  0
 56 55  2  0
 57 51  2  0
 58 57  1  0
 58 53  2  0
 59 52  1  0
 60 50  1  0
 62 64  2  0
 63 62  1  0
 65 63  1  0
 66 75  2  0
 66 71  1  0
 67 63  1  0
 67 71  1  0
 68 67  1  0
 69 70  1  0
 69 68  1  0
 70 66  1  0
 71 72  2  0
 72 73  1  0
 74 73  2  0
 75 74  1  0
 76 50  1  0
 76 81  1  0
 76 77  1  0
 77 80  1  1
 77 78  1  0
 79 77  1  0
 81 84  1  0
 82 86  1  0
 82 81  1  0
 83 82  2  0
 86 85  1  0
 88 86  1  0
 88 89  1  0
 88 87  1  0
M  ISO  4   9 100  17 100  48 101  49 101
M  END
>  <TORSDO>  (56) 
F 19

>  <SCORE>  (56) 
-14.165

>  <name>  (56) 
55

>  <ligand_id>  (56) 
55

>  <original_smiles>  (56) 
[H]C(=C([H])C([H])([H])C([H])([H])Oc1c([H])c([H])c2c(c1[H])C([H])([H])N(C(=O)C([H])(N([H])C(=O)C([H])(N([H])C([H])([H])[H])C([H])([H])[H])C(C([H])([H])[H])(C([H])([H])[H])C([H])([H])[H])C([H])(C(=O)N([H])C1([H])c3c([H])c([H])c([H])c([H])c3C([H])([H])C([H])([H])C1([H])[H])C2([H])[H])c1c([H])c([H])c([H])c(N([H])C(=O)N2C([H])([H])C([H])([H])C([H])([H])C([H])(n3nc(-c4c([H])c([H])c(Oc5c([H])c([H])c(F)c([H])c5F)c([H])c4[H])c(C(=O)N([H])[H])c3N([H])[H])C2([H])[H])c1[H]

>  <smiles>  (56) 
[H]C(=C([H])C([H])([H])C([H])([H])Oc1c([H])c([H])c2c(c1[H])C([H])([H])N(C(=O)C([H])(N([H])C(=O)C([H])(N([H])C([H])([H])[H])C([H])([H])[H])C(C([H])([H])[H])(C([H])([H])[H])C([H])([H])[H])C([H])(C(=O)N([H])C1([H])c3c([H])c([H])c([H])c([H])c3C([H])([H])C([H])([H])C1([H])[H])C2([H])[H])c1c([H])c([H])c([H])c(N([H])C(=O)N2C([H])([H])C([H])([H])C([H])([H])C([H])(n3nc(-c4c([H])c([H])c(Oc5c([H])c([H])c(F)c([H])c5F)c([H])c4[H])c(C(=O)N([H])[H])c3N([H])[H])C2([H])[H])c1[H]

$$$$
56:0:0
     RDKit          3D

 88 96  0  0  1  0  0  0  0  0999 V2000
  -28.6770  -22.9640   20.2840 C   0  0  0  0  0  0  0  0  0  0  0  0
  -27.9150  -24.2580   20.3450 C   0  0  0  0  0  2  0  0  0  0  0  0
  -30.0240  -18.7310   20.2190 C   0  0  0  0  0  0  0  0  0  0  0  0
  -30.1740  -22.7950   20.0700 C   0  0  0  0  0  3  0  0  0  0  0  0
  -28.3300  -21.2870   20.4040 C   0  0  0  0  0  3  0  0  0  0  0  0
  -30.6280  -21.2570   19.9930 C   0  0  0  0  0  3  0  0  0  0  0  0
  -29.5600  -20.2110   20.2350 N   0  0  0  0  0  0  0  0  0  0  0  0
  -31.3450  -18.6370   19.9530 N   0  0  0  0  0  0  0  0  0  0  0  0
  -31.7990  -17.7300   19.9040 H   0  0  0  0  0  0  0  0  0  0  0  0
  -31.9210  -19.4480   19.7840 H   0  0  0  0  0  0  0  0  0  0  0  0
  -28.1630  -25.7980   20.2800 O   0  0  0  0  0  0  0  0  0  0  0  0
  -24.5980  -31.8870   23.2210 C   0  0  0  0  0  0  0  0  0  0  0  0
  -27.1620  -26.9320   20.2500 C   0  0  0  0  0  0  0  0  0  0  0  0
  -23.4170  -30.4880   21.5770 C   0  0  0  0  0  3  0  0  0  0  0  0
  -24.8750  -28.8640   20.1740 C   0  0  0  0  0  0  0  0  0  0  0  0
  -25.9880  -30.6730   21.4580 C   0  0  0  0  0  2  0  0  0  0  0  0
  -26.0600  -29.2520   20.8110 C   0  0  0  0  0  0  0  0  0  0  0  0
  -27.1940  -28.3090   20.8240 C   0  0  0  0  0  3  0  0  0  0  0  0
  -25.9480  -26.7180   19.5570 C   0  0  0  0  0  3  0  0  0  0  0  0
  -24.8480  -27.6190   19.5260 C   0  0  0  0  0  3  0  0  0  0  0  0
  -23.6610  -29.7960   20.2060 C   0  0  0  0  0  2  0  0  0  0  0  0
  -24.6900  -31.0450   22.1390 N   0  0  0  0  0  0  0  0  0  0  0  0
  -23.5040  -32.1820   23.7290 O   0  0  0  0  0  0  0  0  0  0  0  0
  -22.7070  -29.5010   22.5420 C   0  0  0  0  0  0  0  0  0  0  0  0
  -21.3760  -29.3470   22.4130 N   0  0  0  0  0  0  0  0  0  0  0  0
  -23.3630  -28.8730   23.3770 O   0  0  0  0  0  0  0  0  0  0  0  0
  -20.8980  -29.9040   21.7170 H   0  0  0  0  0  0  0  0  0  0  0  0
  -17.9810  -28.1630   22.9180 C   0  0  0  0  0  0  0  0  0  0  0  0
  -20.5430  -28.4150   23.1820 C   0  0  0  0  0  3  0  0  0  0  0  0
  -20.6360  -26.9820   22.6050 C   0  0  0  0  0  2  0  0  0  0  0  0
  -19.5320  -26.6690   21.5890 C   0  0  0  0  0  2  0  0  0  0  0  0
  -18.1510  -26.8170   22.2340 C   0  0  0  0  0  2  0  0  0  0  0  0
  -19.1040  -28.9200   23.3490 C   0  0  0  0  0  0  0  0  0  0  0  0
  -18.8880  -30.1780   23.9530 C   0  0  0  0  0  3  0  0  0  0  0  0
  -17.5840  -30.6800   24.1260 C   0  0  0  0  0  3  0  0  0  0  0  0
  -16.4780  -29.9210   23.7080 C   0  0  0  0  0  3  0  0  0  0  0  0
  -16.6760  -28.6640   23.1110 C   0  0  0  0  0  3  0  0  0  0  0  0
  -25.8630  -32.5320   23.8650 C   0  0  0  0  0  3  0  0  0  0  0  0
  -25.5430  -33.9310   24.1970 N   0  0  0  0  0  0  0  0  0  0  0  0
  -25.8640  -34.9940   23.4460 C   0  0  0  0  0  0  0  0  0  0  0  0
  -26.5250  -34.8980   22.4090 O   0  0  0  0  0  0  0  0  0  0  0  0
  -24.9550  -34.0780   25.0050 H   0  0  0  0  0  0  0  0  0  0  0  0
  -24.1260  -36.7900   23.1340 C   0  0  0  0  0  1  0  0  0  0  0  0
  -25.3820  -36.3820   23.9210 C   0  0  0  0  0  3  0  0  0  0  0  0
  -27.5230  -37.2780   24.7240 C   0  0  0  0  0  1  0  0  0  0  0  0
  -26.4100  -37.4390   23.7930 N   0  0  0  0  0  0  0  0  0  0  0  0
  -26.0010  -38.3570   23.9440 H   0  0  0  0  0  0  0  0  0  0  0  0
  -26.3550  -31.7690   25.1560 C   0  0  1  0  0  0  0  0  0  0  0  0
  -25.2440  -31.5390   26.2070 C   0  0  0  0  0  1  0  0  0  0  0  0
  -26.9440  -30.3870   24.7920 C   0  0  0  0  0  1  0  0  0  0  0  0
  -27.4960  -32.5660   25.8320 C   0  0  0  0  0  1  0  0  0  0  0  0
  -29.4870  -17.0500   20.4240 C   0  0  0  0  0  3  0  0  0  0  0  0
  -30.3300  -15.4680   20.1970 C   0  0  0  0  0  0  0  0  0  0  0  0
  -30.3650  -12.9980   19.2990 C   0  0  0  0  0  2  0  0  0  0  0  0
  -29.4220  -12.7720   18.0850 C   0  0  0  0  0  2  0  0  0  0  0  0
  -27.9890  -12.4600   18.5510 C   0  0  0  0  0  2  0  0  0  0  0  0
  -27.5430  -13.4050   19.6930 C   0  0  0  0  0  3  0  0  0  0  0  0
  -28.6100  -13.5710   20.7940 C   0  0  0  0  0  2  0  0  0  0  0  0
  -29.8210  -14.1230   20.1600 N   0  0  0  0  0  0  0  0  0  0  0  0
  -31.5430  -15.4670   19.9140 O   0  0  0  0  0  0  0  0  0  0  0  0
  -25.1890  -13.9220   20.5170 C   0  0  0  0  0  0  0  0  0  0  0  0
  -24.1440  -13.1290   20.8990 C   0  0  0  0  0  0  0  0  0  0  0  0
  -24.6240  -11.7840   20.8360 C   0  0  0  0  0  0  0  0  0  0  0  0
  -26.2330  -13.0610   20.2310 N   0  0  0  0  0  0  0  0  0  0  0  0
  -25.9090  -11.7670   20.4930 N   0  0  0  0  0  0  0  0  0  0  0  0
  -23.9110  -10.5130   21.0240 C   0  0  0  0  0  0  0  0  0  0  0  0
  -24.3560   -9.5450   21.9530 C   0  0  0  0  0  3  0  0  0  0  0  0
  -23.6390   -8.3410   22.1300 C   0  0  0  0  0  3  0  0  0  0  0  0
  -22.4670   -8.0950   21.3780 C   0  0  0  0  0  0  0  0  0  0  0  0
  -22.0410   -9.0500   20.4380 C   0  0  0  0  0  3  0  0  0  0  0  0
  -22.7580  -10.2460   20.2600 C   0  0  0  0  0  3  0  0  0  0  0  0
  -21.7220   -6.9430   21.4650 O   0  0  0  0  0  0  0  0  0  0  0  0
  -21.6620   -6.2110   22.6240 C   0  0  0  0  0  0  0  0  0  0  0  0
  -21.1780   -6.7620   23.8300 C   0  0  0  0  0  3  0  0  0  0  0  0
  -21.0670   -5.9540   24.9790 C   0  0  0  0  0  3  0  0  0  0  0  0
  -21.4310   -4.5950   24.9230 C   0  0  0  0  0  0  0  0  0  0  0  0
  -21.9080   -4.0420   23.7210 C   0  0  0  0  0  3  0  0  0  0  0  0
  -22.0190   -4.8470   22.5740 C   0  0  0  0  0  0  0  0  0  0  0  0
  -22.4590   -4.3050   21.4130 F   0  0  0  0  0  0  0  0  0  0  0  0
  -21.3170   -3.8170   26.0250 F   0  0  0  0  0  0  0  0  0  0  0  0
  -22.7490  -13.5880   21.2060 C   0  0  0  0  0  0  0  0  0  0  0  0
  -22.0460  -12.8760   22.0790 N   0  0  0  0  0  0  0  0  0  0  0  0
  -22.2930  -14.6160   20.7060 O   0  0  0  0  0  0  0  0  0  0  0  0
  -22.4290  -12.0450   22.5040 H   0  0  0  0  0  0  0  0  0  0  0  0
  -21.1110  -13.1660   22.3270 H   0  0  0  0  0  0  0  0  0  0  0  0
  -25.3350  -15.2970   20.3580 N   0  0  0  0  0  0  0  0  0  0  0  0
  -24.5640  -15.9400   20.4960 H   0  0  0  0  0  0  0  0  0  0  0  0
  -26.1660  -15.7480   19.9980 H   0  0  0  0  0  0  0  0  0  0  0  0
  1  2  1  0
  1  5  2  0
  3  7  1  0
  3 52  2  0
  4  1  1  0
  6  4  2  0
  6  7  1  0
  7  5  1  0
  8  3  1  0
  9  8  1  0
 10  8  1  0
 11  2  1  0
 12 23  2  0
 13 11  1  0
 13 18  1  0
 14 22  1  0
 14 24  1  0
 15 21  1  0
 15 17  1  0
 16 22  1  0
 17 18  2  0
 17 16  1  0
 19 13  2  0
 20 19  1  0
 20 15  2  0
 21 14  1  0
 22 12  1  0
 24 26  2  0
 25 24  1  0
 27 25  1  0
 28 37  2  0
 28 33  1  0
 29 25  1  0
 29 33  1  0
 30 29  1  0
 31 32  1  0
 31 30  1  0
 32 28  1  0
 33 34  2  0
 34 35  1  0
 36 35  2  0
 37 36  1  0
 38 12  1  0
 38 39  1  0
 38 48  1  0
 39 42  1  0
 40 44  1  0
 40 39  1  0
 41 40  2  0
 44 43  1  0
 46 44  1  0
 46 47  1  0
 46 45  1  0
 48 51  1  1
 48 49  1  0
 50 48  1  0
 53 52  1  0
 54 59  1  0
 55 56  1  0
 55 54  1  0
 57 56  1  0
 57 64  1  0
 57 58  1  0
 59 53  1  0
 59 58  1  0
 60 53  2  0
 61 62  2  0
 62 81  1  0
 63 62  1  0
 63 66  1  0
 64 65  1  0
 64 61  1  0
 65 63  2  0
 66 67  1  0
 67 68  2  0
 69 72  1  0
 69 68  1  0
 70 69  2  0
 71 70  1  0
 71 66  2  0
 72 73  1  0
 73 74  1  0
 74 75  2  0
 76 75  1  0
 76 80  1  0
 77 76  2  0
 78 73  2  0
 78 77  1  0
 79 78  1  0
 81 82  1  0
 82 85  1  0
 82 84  1  0
 83 81  2  0
 86 87  1  0
 86 61  1  0
 88 86  1  0
M  ISO  4   2 101  11 101  52 100  53 100
M  END
>  <TORSDO>  (57) 
F 17

>  <SCORE>  (57) 
-15.895

>  <name>  (57) 
56

>  <ligand_id>  (57) 
56

>  <original_smiles>  (57) 
[H]C(Oc1c([H])c([H])c2c(c1[H])C([H])([H])N(C(=O)C([H])(N([H])C(=O)C([H])(N([H])C([H])([H])[H])C([H])([H])[H])C(C([H])([H])[H])(C([H])([H])[H])C([H])([H])[H])C([H])(C(=O)N([H])C1([H])c3c([H])c([H])c([H])c([H])c3C([H])([H])C([H])([H])C1([H])[H])C2([H])[H])=C1C([H])([H])N(C(=[N+]([H])[H])C([H])([H])C(=O)N2C([H])([H])C([H])([H])C([H])([H])C([H])(n3nc(-c4c([H])c([H])c(Oc5c([H])c([H])c(F)c([H])c5F)c([H])c4[H])c(C(=O)N([H])[H])c3N([H])[H])C2([H])[H])C([H])([H])C1([H])[H]

>  <smiles>  (57) 
[H]C(Oc1c([H])c([H])c2c(c1[H])C([H])([H])N(C(=O)C([H])(N([H])C(=O)C([H])(N([H])C([H])([H])[H])C([H])([H])[H])C(C([H])([H])[H])(C([H])([H])[H])C([H])([H])[H])C([H])(C(=O)N([H])C1([H])c3c([H])c([H])c([H])c([H])c3C([H])([H])C([H])([H])C1([H])[H])C2([H])[H])=C1C([H])([H])N(C(=[N+]([H])[H])C([H])([H])C(=O)N2C([H])([H])C([H])([H])C([H])([H])C([H])(n3nc(-c4c([H])c([H])c(Oc5c([H])c([H])c(F)c([H])c5F)c([H])c4[H])c(C(=O)N([H])[H])c3N([H])[H])C2([H])[H])C([H])([H])C1([H])[H]

$$$$
57:0:0
     RDKit          3D

 96105  0  0  1  0  0  0  0  0999 V2000
  -29.5730  -21.6440   22.1140 C   0  0  0  0  0  2  0  0  0  0  0  0
  -29.0020  -25.0370   22.1750 C   0  0  0  0  0  2  0  0  0  0  0  0
  -28.5330  -23.7650   22.8870 C   0  0  0  0  0  2  0  0  0  0  0  0
  -28.6470  -23.3490   20.5330 C   0  0  0  0  0  2  0  0  0  0  0  0
  -28.4400  -24.8550   20.7660 C   0  0  0  0  0  3  0  0  0  0  0  0
  -28.5490  -22.6910   21.8660 N   0  0  1  0  0  4  0  0  0  0  0  0
  -27.6680  -22.1960   21.9100 H   0  0  0  0  0  0  0  0  0  0  0  0
  -29.0880  -25.7510   19.6870 C   0  0  0  0  0  2  0  0  0  0  0  0
  -28.9170  -27.1430   19.9600 O   0  0  0  0  0  0  0  0  0  0  0  0
  -24.6620  -31.8030   23.1790 C   0  0  0  0  0  0  0  0  0  0  0  0
  -27.6620  -27.7150   19.9530 C   0  0  0  0  0  0  0  0  0  0  0  0
  -23.5800  -30.4020   21.4510 C   0  0  0  0  0  3  0  0  0  0  0  0
  -25.1570  -29.0340   19.9880 C   0  0  0  0  0  0  0  0  0  0  0  0
  -26.0720  -30.9490   21.3110 C   0  0  0  0  0  2  0  0  0  0  0  0
  -26.2620  -29.6160   20.6180 C   0  0  0  0  0  0  0  0  0  0  0  0
  -27.5120  -28.9640   20.5960 C   0  0  0  0  0  3  0  0  0  0  0  0
  -26.5350  -27.1360   19.3240 C   0  0  0  0  0  3  0  0  0  0  0  0
  -25.2880  -27.7930   19.3380 C   0  0  0  0  0  3  0  0  0  0  0  0
  -23.8560  -29.8010   20.0460 C   0  0  0  0  0  2  0  0  0  0  0  0
  -24.7880  -31.0630   22.0410 N   0  0  0  0  0  0  0  0  0  0  0  0
  -23.5570  -31.9750   23.7120 O   0  0  0  0  0  0  0  0  0  0  0  0
  -22.9840  -29.2960   22.3520 C   0  0  0  0  0  0  0  0  0  0  0  0
  -21.6720  -29.0480   22.2070 N   0  0  0  0  0  0  0  0  0  0  0  0
  -23.7010  -28.6640   23.1330 O   0  0  0  0  0  0  0  0  0  0  0  0
  -21.1530  -29.6150   21.5510 H   0  0  0  0  0  0  0  0  0  0  0  0
  -18.3600  -27.6790   22.6440 C   0  0  0  0  0  0  0  0  0  0  0  0
  -20.9070  -28.0260   22.9200 C   0  0  0  0  0  3  0  0  0  0  0  0
  -21.0650  -26.6430   22.2450 C   0  0  0  0  0  2  0  0  0  0  0  0
  -19.9690  -26.3430   21.2170 C   0  0  0  0  0  2  0  0  0  0  0  0
  -18.5890  -26.3860   21.8790 C   0  0  0  0  0  2  0  0  0  0  0  0
  -19.4490  -28.4570   23.1190 C   0  0  0  0  0  0  0  0  0  0  0  0
  -19.1810  -29.6680   23.7920 C   0  0  0  0  0  3  0  0  0  0  0  0
  -17.8580  -30.1020   23.9970 C   0  0  0  0  0  3  0  0  0  0  0  0
  -16.7830  -29.3190   23.5400 C   0  0  0  0  0  3  0  0  0  0  0  0
  -17.0360  -28.1100   22.8680 C   0  0  0  0  0  3  0  0  0  0  0  0
  -25.8930  -32.4870   23.8530 C   0  0  0  0  0  3  0  0  0  0  0  0
  -26.3920  -31.7330   25.1450 C   0  0  1  0  0  0  0  0  0  0  0  0
  -25.2670  -31.4360   26.1640 C   0  0  0  0  0  1  0  0  0  0  0  0
  -27.0530  -30.3890   24.7640 C   0  0  0  0  0  1  0  0  0  0  0  0
  -27.4790  -32.5740   25.8570 C   0  0  0  0  0  1  0  0  0  0  0  0
  -25.5120  -33.8690   24.1710 N   0  0  0  0  0  0  0  0  0  0  0  0
  -25.8240  -34.9360   23.4240 C   0  0  0  0  0  0  0  0  0  0  0  0
  -26.5330  -34.8610   22.4170 O   0  0  0  0  0  0  0  0  0  0  0  0
  -24.8830  -33.9970   24.9510 H   0  0  0  0  0  0  0  0  0  0  0  0
  -24.0250  -36.6420   23.0130 C   0  0  0  0  0  1  0  0  0  0  0  0
  -25.2590  -36.3000   23.8610 C   0  0  0  0  0  3  0  0  0  0  0  0
  -27.3220  -37.2880   24.7540 C   0  0  0  0  0  1  0  0  0  0  0  0
  -26.2460  -37.4000   23.7740 N   0  0  0  0  0  0  0  0  0  0  0  0
  -25.7930  -38.3010   23.9010 H   0  0  0  0  0  0  0  0  0  0  0  0
  -29.2570  -20.4120   21.2490 C   0  0  0  0  0  0  0  0  0  0  0  0
  -28.1180  -20.2820   20.7860 O   0  0  0  0  0  0  0  0  0  0  0  0
  -31.6500  -19.7770   20.7220 C   0  0  0  0  0  3  0  0  0  0  0  0
  -30.0090  -18.0100   21.1070 C   0  0  0  0  0  3  0  0  0  0  0  0
  -32.3230  -17.4430   20.6290 C   0  0  0  0  0  3  0  0  0  0  0  0
  -30.3290  -19.3920   21.0470 C   0  0  0  0  0  0  0  0  0  0  0  0
  -32.6430  -18.8060   20.5170 C   0  0  0  0  0  0  0  0  0  0  0  0
  -30.9940  -17.0170   20.8910 C   0  0  0  0  0  0  0  0  0  0  0  0
  -34.0500  -19.2280   20.1420 C   0  0  0  0  0  1  0  0  0  0  0  0
  -31.1570  -14.5930   20.2850 C   0  0  0  0  0  0  0  0  0  0  0  0
  -30.7300  -12.4350   19.1880 C   0  0  0  0  0  2  0  0  0  0  0  0
  -29.8060  -12.6690   17.9790 C   0  0  0  0  0  2  0  0  0  0  0  0
  -28.3300  -12.5890   18.4140 C   0  0  0  0  0  2  0  0  0  0  0  0
  -28.0230  -13.4530   19.6670 C   0  0  0  0  0  3  0  0  0  0  0  0
  -29.0790  -13.2330   20.7770 C   0  0  0  0  0  2  0  0  0  0  0  0
  -30.4130  -13.4590   20.1970 N   0  0  0  0  0  0  0  0  0  0  0  0
  -32.2510  -14.6800   19.7270 O   0  0  0  0  0  0  0  0  0  0  0  0
  -30.5990  -15.6360   20.9320 N   0  0  0  0  0  0  0  0  0  0  0  0
  -29.7020  -15.4390   21.3500 H   0  0  0  0  0  0  0  0  0  0  0  0
  -25.6450  -14.1210   20.3850 C   0  0  0  0  0  0  0  0  0  0  0  0
  -24.5590  -13.3770   20.7640 C   0  0  0  0  0  0  0  0  0  0  0  0
  -24.9840  -12.0140   20.7330 C   0  0  0  0  0  0  0  0  0  0  0  0
  -26.6660  -13.2130   20.1520 N   0  0  0  0  0  0  0  0  0  0  0  0
  -26.2710  -11.9420   20.4170 N   0  0  0  0  0  0  0  0  0  0  0  0
  -24.2260  -10.7720   20.9310 C   0  0  0  0  0  0  0  0  0  0  0  0
  -24.6170   -9.8140   21.8920 C   0  0  0  0  0  3  0  0  0  0  0  0
  -23.8620   -8.6360   22.0780 C   0  0  0  0  0  3  0  0  0  0  0  0
  -22.7020   -8.4060   21.3000 C   0  0  0  0  0  0  0  0  0  0  0  0
  -22.3300   -9.3520   20.3280 C   0  0  0  0  0  3  0  0  0  0  0  0
  -23.0860  -10.5220   20.1420 C   0  0  0  0  0  3  0  0  0  0  0  0
  -21.9210   -7.2800   21.3930 O   0  0  0  0  0  0  0  0  0  0  0  0
  -21.7910   -6.5890   22.5710 C   0  0  0  0  0  0  0  0  0  0  0  0
  -21.2960   -7.2010   23.7440 C   0  0  0  0  0  3  0  0  0  0  0  0
  -21.1150   -6.4370   24.9130 C   0  0  0  0  0  3  0  0  0  0  0  0
  -21.4170   -5.0620   24.9110 C   0  0  0  0  0  0  0  0  0  0  0  0
  -21.9040   -4.4490   23.7420 C   0  0  0  0  0  3  0  0  0  0  0  0
  -22.0880   -5.2110   22.5760 C   0  0  0  0  0  0  0  0  0  0  0  0
  -22.5380   -4.6130   21.4470 F   0  0  0  0  0  0  0  0  0  0  0  0
  -21.2340   -4.3260   26.0310 F   0  0  0  0  0  0  0  0  0  0  0  0
  -23.1770  -13.8920   21.0490 C   0  0  0  0  0  0  0  0  0  0  0  0
  -22.4430  -13.2210   21.9290 N   0  0  0  0  0  0  0  0  0  0  0  0
  -22.7580  -14.9230   20.5250 O   0  0  0  0  0  0  0  0  0  0  0  0
  -22.7960  -12.3870   22.3760 H   0  0  0  0  0  0  0  0  0  0  0  0
  -21.5170  -13.5470   22.1650 H   0  0  0  0  0  0  0  0  0  0  0  0
  -25.8450  -15.4860   20.2020 N   0  0  0  0  0  0  0  0  0  0  0  0
  -25.0960  -16.1630   20.3120 H   0  0  0  0  0  0  0  0  0  0  0  0
  -26.7050  -15.8980   19.8660 H   0  0  0  0  0  0  0  0  0  0  0  0
  2  3  1  0
  4  5  1  0
  4  6  1  0
  5  8  1  0
  5  2  1  0
  6  7  1  6
  6  1  1  0
  6  3  1  0
  8  9  1  0
 10 21  2  0
 11  9  1  0
 11 16  1  0
 12 20  1  0
 12 22  1  0
 13 19  1  0
 13 15  1  0
 14 20  1  0
 15 14  1  0
 16 15  2  0
 17 18  1  0
 17 11  2  0
 18 13  2  0
 19 12  1  0
 20 10  1  0
 22 24  2  0
 23 22  1  0
 25 23  1  0
 26 35  2  0
 26 31  1  0
 27 23  1  0
 27 31  1  0
 28 27  1  0
 29 30  1  0
 29 28  1  0
 30 26  1  0
 31 32  2  0
 32 33  1  0
 34 33  2  0
 35 34  1  0
 36 10  1  0
 36 41  1  0
 36 37  1  0
 37 40  1  1
 37 38  1  0
 39 37  1  0
 41 44  1  0
 42 46  1  0
 42 41  1  0
 43 42  2  0
 46 45  1  0
 48 46  1  0
 48 49  1  0
 48 47  1  0
 50  1  1  0
 51 50  2  0
 52 55  1  0
 54 57  2  0
 55 53  2  0
 55 50  1  0
 56 54  1  0
 56 52  2  0
 57 67  1  0
 57 53  1  0
 58 56  1  0
 59 67  1  0
 60 65  1  0
 61 62  1  0
 61 60  1  0
 63 62  1  0
 63 72  1  0
 63 64  1  0
 65 59  1  0
 65 64  1  0
 66 59  2  0
 67 68  1  0
 69 70  2  0
 70 89  1  0
 71 70  1  0
 71 74  1  0
 72 69  1  0
 72 73  1  0
 73 71  2  0
 74 75  1  0
 75 76  2  0
 77 80  1  0
 77 76  1  0
 78 77  2  0
 79 78  1  0
 79 74  2  0
 80 81  1  0
 81 86  2  0
 81 82  1  0
 82 83  2  0
 84 83  1  0
 84 88  1  0
 85 84  2  0
 86 85  1  0
 87 86  1  0
 89 90  1  0
 90 93  1  0
 90 92  1  0
 91 89  2  0
 94 95  1  0
 94 69  1  0
 96 94  1  0
M  ISO  4   8 101   9 101  59 100  67 100
M  END
>  <TORSDO>  (58) 
F 20

>  <SCORE>  (58) 
-13.217

>  <name>  (58) 
57

>  <ligand_id>  (58) 
57

>  <original_smiles>  (58) 
[H]c1c([H])c([H])c2c(c1[H])C([H])([H])C([H])([H])C([H])([H])C2([H])N([H])C(=O)C1([H])N(C(=O)C([H])(N([H])C(=O)C([H])(N([H])C([H])([H])[H])C([H])([H])[H])C(C([H])([H])[H])(C([H])([H])[H])C([H])([H])[H])C([H])([H])c2c([H])c(OC([H])([H])C3([H])C([H])([H])C([H])([H])[N+]([H])(C([H])([H])C(=O)c4c([H])c(N([H])C(=O)N5C([H])([H])C([H])([H])C([H])([H])C([H])(n6nc(-c7c([H])c([H])c(Oc8c([H])c([H])c(F)c([H])c8F)c([H])c7[H])c(C(=O)N([H])[H])c6N([H])[H])C5([H])[H])c([H])c(C([H])([H])[H])c4[H])C3([H])[H])c([H])c([H])c2C1([H])[H]

>  <smiles>  (58) 
[H]c1c([H])c([H])c2c(c1[H])C([H])([H])C([H])([H])C([H])([H])C2([H])N([H])C(=O)C1([H])N(C(=O)C([H])(N([H])C(=O)C([H])(N([H])C([H])([H])[H])C([H])([H])[H])C(C([H])([H])[H])(C([H])([H])[H])C([H])([H])[H])C([H])([H])c2c([H])c(OC([H])([H])C3([H])C([H])([H])C([H])([H])[N+]([H])(C([H])([H])C(=O)c4c([H])c(N([H])C(=O)N5C([H])([H])C([H])([H])C([H])([H])C([H])(n6nc(-c7c([H])c([H])c(Oc8c([H])c([H])c(F)c([H])c8F)c([H])c7[H])c(C(=O)N([H])[H])c6N([H])[H])C5([H])[H])c([H])c(C([H])([H])[H])c4[H])C3([H])[H])c([H])c([H])c2C1([H])[H]

$$$$
58:0:0
     RDKit          3D

 93102  0  0  1  0  0  0  0  0999 V2000
  -29.5840  -22.9170   21.0550 C   0  0  0  0  0  0  0  0  0  0  0  0
  -29.8450  -23.8810   18.8970 C   0  0  0  0  0  2  0  0  0  0  0  0
  -30.5250  -22.4980   18.9900 C   0  0  0  0  0  2  0  0  0  0  0  0
  -29.5510  -24.2990   20.3440 C   0  0  0  0  0  3  0  0  0  0  0  0
  -30.1630  -21.9540   20.2950 N   0  0  0  0  0  0  0  0  0  0  0  0
  -29.1910  -22.7590   22.2130 O   0  0  0  0  0  0  0  0  0  0  0  0
  -30.7600  -20.6540   20.7460 C   0  0  0  0  0  2  0  0  0  0  0  0
  -27.8680  -18.1940   20.0850 C   0  0  0  0  0  3  0  0  0  0  0  0
  -28.6300  -19.3720   20.1540 C   0  0  0  0  0  3  0  0  0  0  0  0
  -28.4510  -16.9510   20.3900 C   0  0  0  0  0  3  0  0  0  0  0  0
  -30.5800  -18.0400   20.8020 C   0  0  0  0  0  3  0  0  0  0  0  0
  -29.9850  -19.3240   20.5390 C   0  0  0  0  0  0  0  0  0  0  0  0
  -29.8120  -16.8320   20.7210 C   0  0  0  0  0  0  0  0  0  0  0  0
  -30.8170  -14.5410   20.3550 C   0  0  0  0  0  0  0  0  0  0  0  0
  -30.5210  -12.3130   19.2890 C   0  0  0  0  0  2  0  0  0  0  0  0
  -29.5820  -12.4440   18.0700 C   0  0  0  0  0  2  0  0  0  0  0  0
  -28.1060  -12.3230   18.4970 C   0  0  0  0  0  2  0  0  0  0  0  0
  -27.7650  -13.2270   19.7090 C   0  0  0  0  0  3  0  0  0  0  0  0
  -28.8130  -13.0610   20.8370 C   0  0  0  0  0  2  0  0  0  0  0  0
  -30.1500  -13.3450   20.2770 N   0  0  0  0  0  0  0  0  0  0  0  0
  -31.8950  -14.7310   19.7830 O   0  0  0  0  0  0  0  0  0  0  0  0
  -30.2330  -15.5030   21.1120 N   0  0  0  0  0  0  0  0  0  0  0  0
  -29.5430  -15.0580   21.6980 H   0  0  0  0  0  0  0  0  0  0  0  0
  -25.3760  -13.9000   20.4030 C   0  0  0  0  0  0  0  0  0  0  0  0
  -24.2920  -13.1630   20.7940 C   0  0  0  0  0  0  0  0  0  0  0  0
  -24.7160  -11.8000   20.7710 C   0  0  0  0  0  0  0  0  0  0  0  0
  -26.4020  -12.9920   20.1880 N   0  0  0  0  0  0  0  0  0  0  0  0
  -26.0060  -11.7220   20.4620 N   0  0  0  0  0  0  0  0  0  0  0  0
  -23.9510  -10.5620   20.9660 C   0  0  0  0  0  0  0  0  0  0  0  0
  -24.3550   -9.5850   21.9020 C   0  0  0  0  0  3  0  0  0  0  0  0
  -23.5930   -8.4110   22.0840 C   0  0  0  0  0  3  0  0  0  0  0  0
  -22.4120   -8.2080   21.3320 C   0  0  0  0  0  0  0  0  0  0  0  0
  -22.0250   -9.1730   20.3860 C   0  0  0  0  0  3  0  0  0  0  0  0
  -22.7890  -10.3390   20.2020 C   0  0  0  0  0  3  0  0  0  0  0  0
  -21.6210   -7.0880   21.4250 O   0  0  0  0  0  0  0  0  0  0  0  0
  -21.5520   -6.3520   22.5810 C   0  0  0  0  0  0  0  0  0  0  0  0
  -21.1430   -6.9210   23.8060 C   0  0  0  0  0  3  0  0  0  0  0  0
  -21.0200   -6.1120   24.9520 C   0  0  0  0  0  3  0  0  0  0  0  0
  -21.2960   -4.7340   24.8750 C   0  0  0  0  0  0  0  0  0  0  0  0
  -21.6980   -4.1630   23.6550 C   0  0  0  0  0  3  0  0  0  0  0  0
  -21.8230   -4.9700   22.5110 C   0  0  0  0  0  0  0  0  0  0  0  0
  -22.1920   -4.4110   21.3310 F   0  0  0  0  0  0  0  0  0  0  0  0
  -21.1700   -3.9540   25.9740 F   0  0  0  0  0  0  0  0  0  0  0  0
  -22.9110  -13.6850   21.0670 C   0  0  0  0  0  0  0  0  0  0  0  0
  -22.1640  -13.0170   21.9410 N   0  0  0  0  0  0  0  0  0  0  0  0
  -22.5030  -14.7200   20.5410 O   0  0  0  0  0  0  0  0  0  0  0  0
  -22.5070  -12.1800   22.3890 H   0  0  0  0  0  0  0  0  0  0  0  0
  -21.2370  -13.3490   22.1650 H   0  0  0  0  0  0  0  0  0  0  0  0
  -25.5530  -15.2590   20.1840 N   0  0  0  0  0  0  0  0  0  0  0  0
  -24.7640  -15.8960   20.2200 H   0  0  0  0  0  0  0  0  0  0  0  0
  -26.3480  -15.6440   19.6930 H   0  0  0  0  0  0  0  0  0  0  0  0
  -28.2760  -25.2000   20.5410 C   0  0  0  0  0  2  0  0  0  0  0  0
  -28.4200  -26.6080   20.1690 O   0  0  0  0  0  0  0  0  0  0  0  0
  -24.5870  -31.8620   23.2110 C   0  0  0  0  0  0  0  0  0  0  0  0
  -27.2620  -27.3820   20.1550 C   0  0  0  0  0  0  0  0  0  0  0  0
  -23.3960  -30.4550   21.5650 C   0  0  0  0  0  3  0  0  0  0  0  0
  -24.8640  -28.9220   20.1440 C   0  0  0  0  0  0  0  0  0  0  0  0
  -25.9270  -30.8140   21.3810 C   0  0  0  0  0  2  0  0  0  0  0  0
  -26.0230  -29.4400   20.7370 C   0  0  0  0  0  0  0  0  0  0  0  0
  -27.2240  -28.6820   20.7320 C   0  0  0  0  0  3  0  0  0  0  0  0
  -26.0830  -26.9010   19.5400 C   0  0  0  0  0  3  0  0  0  0  0  0
  -24.8930  -27.6560   19.5370 C   0  0  0  0  0  3  0  0  0  0  0  0
  -23.6160  -29.7780   20.1870 C   0  0  0  0  0  2  0  0  0  0  0  0
  -24.6540  -31.0600   22.1100 N   0  0  0  0  0  0  0  0  0  0  0  0
  -23.5010  -32.1290   23.7460 O   0  0  0  0  0  0  0  0  0  0  0  0
  -22.7430  -29.4330   22.5230 C   0  0  0  0  0  0  0  0  0  0  0  0
  -21.4160  -29.2580   22.4040 N   0  0  0  0  0  0  0  0  0  0  0  0
  -23.4270  -28.7980   23.3300 O   0  0  0  0  0  0  0  0  0  0  0  0
  -20.9240  -29.8220   21.7250 H   0  0  0  0  0  0  0  0  0  0  0  0
  -18.0350  -28.0860   22.9270 C   0  0  0  0  0  0  0  0  0  0  0  0
  -20.5990  -28.3190   23.1730 C   0  0  0  0  0  3  0  0  0  0  0  0
  -20.6820  -26.8940   22.5780 C   0  0  0  0  0  2  0  0  0  0  0  0
  -19.5670  -26.5940   21.5720 C   0  0  0  0  0  2  0  0  0  0  0  0
  -18.1930  -26.7430   22.2340 C   0  0  0  0  0  2  0  0  0  0  0  0
  -19.1650  -28.8330   23.3530 C   0  0  0  0  0  0  0  0  0  0  0  0
  -18.9640  -30.0910   23.9610 C   0  0  0  0  0  3  0  0  0  0  0  0
  -17.6660  -30.6020   24.1470 C   0  0  0  0  0  3  0  0  0  0  0  0
  -16.5500  -29.8520   23.7380 C   0  0  0  0  0  3  0  0  0  0  0  0
  -16.7360  -28.5960   23.1340 C   0  0  0  0  0  3  0  0  0  0  0  0
  -25.8660  -32.5010   23.8360 C   0  0  0  0  0  3  0  0  0  0  0  0
  -26.3800  -31.7350   25.1170 C   0  0  1  0  0  0  0  0  0  0  0  0
  -25.2830  -31.4940   26.1790 C   0  0  0  0  0  1  0  0  0  0  0  0
  -26.9720  -30.3610   24.7300 C   0  0  0  0  0  1  0  0  0  0  0  0
  -27.5230  -32.5370   25.7830 C   0  0  0  0  0  1  0  0  0  0  0  0
  -25.5500  -33.8990   24.1610 N   0  0  0  0  0  0  0  0  0  0  0  0
  -25.8930  -34.9510   23.4060 C   0  0  0  0  0  0  0  0  0  0  0  0
  -26.5780  -34.8480   22.3830 O   0  0  0  0  0  0  0  0  0  0  0  0
  -24.9420  -34.0540   24.9510 H   0  0  0  0  0  0  0  0  0  0  0  0
  -24.1780  -36.7480   23.0150 C   0  0  0  0  0  1  0  0  0  0  0  0
  -25.3980  -36.3390   23.8540 C   0  0  0  0  0  3  0  0  0  0  0  0
  -27.5140  -37.2170   24.7390 C   0  0  0  0  0  1  0  0  0  0  0  0
  -26.4350  -37.3900   23.7700 N   0  0  0  0  0  0  0  0  0  0  0  0
  -26.0280  -38.3110   23.9110 H   0  0  0  0  0  0  0  0  0  0  0  0
  1  6  2  0
  2  3  1  0
  2  4  1  0
  3  5  1  0
  4 52  1  0
  4  1  1  0
  5  7  1  0
  5  1  1  0
  8  9  2  0
  8 10  1  0
  9 12  1  0
 10 13  2  0
 12  7  1  0
 12 11  2  0
 13 11  1  0
 13 22  1  0
 14 22  1  0
 15 20  1  0
 16 17  1  0
 16 15  1  0
 18 17  1  0
 18 27  1  0
 18 19  1  0
 20 14  1  0
 20 19  1  0
 21 14  2  0
 22 23  1  0
 24 25  2  0
 25 44  1  0
 26 25  1  0
 26 29  1  0
 27 24  1  0
 27 28  1  0
 28 26  2  0
 29 30  1  0
 30 31  2  0
 32 35  1  0
 32 31  1  0
 33 32  2  0
 34 33  1  0
 34 29  2  0
 35 36  1  0
 36 37  1  0
 37 38  2  0
 39 38  1  0
 39 43  1  0
 40 39  2  0
 41 36  2  0
 41 40  1  0
 42 41  1  0
 44 45  1  0
 45 48  1  0
 45 47  1  0
 46 44  2  0
 49 50  1  0
 49 24  1  0
 51 49  1  0
 53 52  1  0
 54 65  2  0
 55 53  1  0
 55 60  1  0
 56 64  1  0
 56 66  1  0
 57 63  1  0
 57 59  1  0
 58 64  1  0
 59 58  1  0
 60 59  2  0
 61 55  2  0
 62 61  1  0
 62 57  2  0
 63 56  1  0
 64 54  1  0
 66 68  2  0
 67 66  1  0
 69 67  1  0
 70 79  2  0
 70 75  1  0
 71 67  1  0
 71 75  1  0
 72 71  1  0
 73 74  1  0
 73 72  1  0
 74 70  1  0
 75 76  2  0
 76 77  1  0
 78 77  2  0
 79 78  1  0
 80 54  1  0
 80 85  1  0
 80 81  1  0
 81 84  1  1
 81 82  1  0
 83 81  1  0
 85 88  1  0
 86 90  1  0
 86 85  1  0
 87 86  2  0
 90 89  1  0
 92 90  1  0
 92 93  1  0
 92 91  1  0
M  ISO  4  14 100  22 100  52 101  53 101
M  END
>  <TORSDO>  (59) 
F 19

>  <SCORE>  (59) 
-14.651

>  <name>  (59) 
58

>  <ligand_id>  (59) 
58

>  <original_smiles>  (59) 
[H]c1c([H])c(N([H])C(=O)N2C([H])([H])C([H])([H])C([H])([H])C([H])(n3nc(-c4c([H])c([H])c(Oc5c([H])c([H])c(F)c([H])c5F)c([H])c4[H])c(C(=O)N([H])[H])c3N([H])[H])C2([H])[H])c([H])c(C([H])([H])N2C(=O)C([H])(C([H])([H])Oc3c([H])c([H])c4c(c3[H])C([H])([H])N(C(=O)C([H])(N([H])C(=O)C([H])(N([H])C([H])([H])[H])C([H])([H])[H])C(C([H])([H])[H])(C([H])([H])[H])C([H])([H])[H])C([H])(C(=O)N([H])C3([H])c5c([H])c([H])c([H])c([H])c5C([H])([H])C([H])([H])C3([H])[H])C4([H])[H])C([H])([H])C2([H])[H])c1[H]

>  <smiles>  (59) 
[H]c1c([H])c(N([H])C(=O)N2C([H])([H])C([H])([H])C([H])([H])C([H])(n3nc(-c4c([H])c([H])c(Oc5c([H])c([H])c(F)c([H])c5F)c([H])c4[H])c(C(=O)N([H])[H])c3N([H])[H])C2([H])[H])c([H])c(C([H])([H])N2C(=O)C([H])(C([H])([H])Oc3c([H])c([H])c4c(c3[H])C([H])([H])N(C(=O)C([H])(N([H])C(=O)C([H])(N([H])C([H])([H])[H])C([H])([H])[H])C(C([H])([H])[H])(C([H])([H])[H])C([H])([H])[H])C([H])(C(=O)N([H])C3([H])c5c([H])c([H])c([H])c([H])c5C([H])([H])C([H])([H])C3([H])[H])C4([H])[H])C([H])([H])C2([H])[H])c1[H]

$$$$
59:0:0
     RDKit          3D

 92101  0  0  1  0  0  0  0  0999 V2000
  -30.5870  -24.3840   20.7110 C   0  0  0  0  0  2  0  0  0  0  0  0
  -30.9130  -22.9030   21.0130 C   0  0  0  0  0  2  0  0  0  0  0  0
  -28.7270  -23.0360   20.0300 C   0  0  0  0  0  2  0  0  0  0  0  0
  -29.5250  -24.2970   19.6120 C   0  0  0  0  0  3  0  0  0  0  0  0
  -29.7110  -22.1470   20.6690 N   0  0  0  0  0  0  0  0  0  0  0  0
  -28.6270  -19.9130   20.2360 C   0  0  0  0  0  3  0  0  0  0  0  0
  -28.8730  -18.4980   20.3700 C   0  0  0  0  0  0  0  0  0  0  0  0
  -30.1220  -18.2020   20.8780 C   0  0  0  0  0  0  0  0  0  0  0  0
  -29.6530  -20.7250   20.6490 C   0  0  0  0  0  0  0  0  0  0  0  0
  -27.8470  -17.4760   19.9940 C   0  0  0  0  0  1  0  0  0  0  0  0
  -30.9750  -19.7120   21.2170 S   0  0  0  0  0  0  0  0  0  0  0  0
  -30.8110  -16.8710   21.2200 C   0  0  0  0  0  2  0  0  0  0  0  0
  -30.7650  -14.5200   20.2680 C   0  0  0  0  0  0  0  0  0  0  0  0
  -30.4100  -12.3210   19.1760 C   0  0  0  0  0  2  0  0  0  0  0  0
  -29.4420  -12.4660   17.9850 C   0  0  0  0  0  2  0  0  0  0  0  0
  -27.9810  -12.3360   18.4560 C   0  0  0  0  0  2  0  0  0  0  0  0
  -27.6710  -13.2200   19.6950 C   0  0  0  0  0  3  0  0  0  0  0  0
  -28.7550  -13.0650   20.7860 C   0  0  0  0  0  2  0  0  0  0  0  0
  -30.0600  -13.3540   20.1690 N   0  0  0  0  0  0  0  0  0  0  0  0
  -31.8760  -14.6480   19.7490 O   0  0  0  0  0  0  0  0  0  0  0  0
  -30.1620  -15.5730   20.8780 N   0  0  0  0  0  0  0  0  0  0  0  0
  -29.2460  -15.4020   21.2610 H   0  0  0  0  0  0  0  0  0  0  0  0
  -25.3100  -13.8510   20.4980 C   0  0  0  0  0  0  0  0  0  0  0  0
  -24.2430  -13.0950   20.8960 C   0  0  0  0  0  0  0  0  0  0  0  0
  -24.6750  -11.7360   20.8220 C   0  0  0  0  0  0  0  0  0  0  0  0
  -26.3320  -12.9570   20.2170 N   0  0  0  0  0  0  0  0  0  0  0  0
  -25.9550  -11.6770   20.4710 N   0  0  0  0  0  0  0  0  0  0  0  0
  -23.9280  -10.4870   21.0130 C   0  0  0  0  0  0  0  0  0  0  0  0
  -24.3520   -9.5070   21.9380 C   0  0  0  0  0  3  0  0  0  0  0  0
  -23.6060   -8.3220   22.1160 C   0  0  0  0  0  3  0  0  0  0  0  0
  -22.4220   -8.1100   21.3710 C   0  0  0  0  0  0  0  0  0  0  0  0
  -22.0170   -9.0780   20.4360 C   0  0  0  0  0  3  0  0  0  0  0  0
  -22.7630  -10.2550   20.2550 C   0  0  0  0  0  3  0  0  0  0  0  0
  -21.6480   -6.9780   21.4610 O   0  0  0  0  0  0  0  0  0  0  0  0
  -21.5770   -6.2450   22.6180 C   0  0  0  0  0  0  0  0  0  0  0  0
  -21.1400   -6.8130   23.8350 C   0  0  0  0  0  3  0  0  0  0  0  0
  -21.0140   -6.0070   24.9840 C   0  0  0  0  0  3  0  0  0  0  0  0
  -21.3150   -4.6340   24.9170 C   0  0  0  0  0  0  0  0  0  0  0  0
  -21.7430   -4.0650   23.7050 C   0  0  0  0  0  3  0  0  0  0  0  0
  -21.8700   -4.8680   22.5580 C   0  0  0  0  0  0  0  0  0  0  0  0
  -22.2630   -4.3100   21.3870 F   0  0  0  0  0  0  0  0  0  0  0  0
  -21.1860   -3.8560   26.0180 F   0  0  0  0  0  0  0  0  0  0  0  0
  -22.8670  -13.5980   21.2260 C   0  0  0  0  0  0  0  0  0  0  0  0
  -22.1530  -12.9000   22.1010 N   0  0  0  0  0  0  0  0  0  0  0  0
  -22.4360  -14.6440   20.7420 O   0  0  0  0  0  0  0  0  0  0  0  0
  -22.5160  -12.0530   22.5130 H   0  0  0  0  0  0  0  0  0  0  0  0
  -21.2300  -13.2170   22.3630 H   0  0  0  0  0  0  0  0  0  0  0  0
  -25.4870  -15.2190   20.3280 N   0  0  0  0  0  0  0  0  0  0  0  0
  -24.7230  -15.8750   20.4460 H   0  0  0  0  0  0  0  0  0  0  0  0
  -26.3090  -15.6350   19.9150 H   0  0  0  0  0  0  0  0  0  0  0  0
  -28.7730  -25.6040   19.1590 C   0  0  0  0  0  2  0  0  0  0  0  0
  -28.4720  -26.6390   20.1340 O   0  0  0  0  0  0  0  0  0  0  0  0
  -24.6080  -31.8360   23.1720 C   0  0  0  0  0  0  0  0  0  0  0  0
  -27.3010  -27.3950   20.0580 C   0  0  0  0  0  0  0  0  0  0  0  0
  -23.4230  -30.4410   21.5110 C   0  0  0  0  0  3  0  0  0  0  0  0
  -24.8940  -28.9280   20.0720 C   0  0  0  0  0  0  0  0  0  0  0  0
  -25.9520  -30.8070   21.3300 C   0  0  0  0  0  2  0  0  0  0  0  0
  -26.0490  -29.4380   20.6750 C   0  0  0  0  0  0  0  0  0  0  0  0
  -27.2490  -28.6790   20.6680 C   0  0  0  0  0  3  0  0  0  0  0  0
  -26.1120  -26.9110   19.4570 C   0  0  0  0  0  3  0  0  0  0  0  0
  -24.9240  -27.6650   19.4600 C   0  0  0  0  0  3  0  0  0  0  0  0
  -23.6440  -29.7810   20.1250 C   0  0  0  0  0  2  0  0  0  0  0  0
  -24.6800  -31.0430   22.0630 N   0  0  0  0  0  0  0  0  0  0  0  0
  -23.5220  -32.0940   23.7090 O   0  0  0  0  0  0  0  0  0  0  0  0
  -22.7720  -29.4070   22.4580 C   0  0  0  0  0  0  0  0  0  0  0  0
  -21.4460  -29.2240   22.3330 N   0  0  0  0  0  0  0  0  0  0  0  0
  -23.4570  -28.7700   23.2640 O   0  0  0  0  0  0  0  0  0  0  0  0
  -20.9530  -29.7880   21.6550 H   0  0  0  0  0  0  0  0  0  0  0  0
  -18.0720  -28.0250   22.8290 C   0  0  0  0  0  0  0  0  0  0  0  0
  -20.6330  -28.2750   23.0920 C   0  0  0  0  0  3  0  0  0  0  0  0
  -20.7290  -26.8540   22.4900 C   0  0  0  0  0  2  0  0  0  0  0  0
  -19.6230  -26.5510   21.4770 C   0  0  0  0  0  2  0  0  0  0  0  0
  -18.2440  -26.6880   22.1280 C   0  0  0  0  0  2  0  0  0  0  0  0
  -19.1940  -28.7770   23.2670 C   0  0  0  0  0  0  0  0  0  0  0  0
  -18.9790  -30.0310   23.8820 C   0  0  0  0  0  3  0  0  0  0  0  0
  -17.6760  -30.5320   24.0570 C   0  0  0  0  0  3  0  0  0  0  0  0
  -16.5690  -29.7770   23.6350 C   0  0  0  0  0  3  0  0  0  0  0  0
  -16.7680  -28.5250   23.0290 C   0  0  0  0  0  3  0  0  0  0  0  0
  -25.8850  -32.4720   23.8030 C   0  0  0  0  0  3  0  0  0  0  0  0
  -26.3990  -31.6960   25.0760 C   0  0  1  0  0  0  0  0  0  0  0  0
  -25.3020  -31.4470   26.1360 C   0  0  0  0  0  1  0  0  0  0  0  0
  -26.9890  -30.3250   24.6730 C   0  0  0  0  0  1  0  0  0  0  0  0
  -27.5410  -32.4920   25.7500 C   0  0  0  0  0  1  0  0  0  0  0  0
  -25.5670  -33.8660   24.1400 N   0  0  0  0  0  0  0  0  0  0  0  0
  -25.9080  -34.9250   23.3940 C   0  0  0  0  0  0  0  0  0  0  0  0
  -26.5920  -34.8320   22.3710 O   0  0  0  0  0  0  0  0  0  0  0  0
  -24.9660  -34.0130   24.9370 H   0  0  0  0  0  0  0  0  0  0  0  0
  -24.1820  -36.7150   23.0210 C   0  0  0  0  0  1  0  0  0  0  0  0
  -25.4080  -36.3090   23.8560 C   0  0  0  0  0  3  0  0  0  0  0  0
  -27.5220  -37.1880   24.7400 C   0  0  0  0  0  1  0  0  0  0  0  0
  -26.4430  -37.3630   23.7710 N   0  0  0  0  0  0  0  0  0  0  0  0
  -26.0350  -38.2840   23.9120 H   0  0  0  0  0  0  0  0  0  0  0  0
  1  2  1  0
  3  5  1  0
  4 51  1  0
  4  3  1  0
  4  1  1  0
  5  2  1  0
  6  7  1  0
  6  9  2  0
  7  8  2  0
  8 11  1  0
  8 12  1  0
  9  5  1  0
  9 11  1  0
 10  7  1  0
 13 21  1  0
 14 19  1  0
 15 16  1  0
 15 14  1  0
 17 16  1  0
 17 26  1  0
 17 18  1  0
 19 13  1  0
 19 18  1  0
 20 13  2  0
 21 12  1  0
 21 22  1  0
 23 24  2  0
 24 43  1  0
 25 24  1  0
 25 28  1  0
 26 27  1  0
 26 23  1  0
 27 25  2  0
 28 29  1  0
 29 30  2  0
 31 34  1  0
 31 30  1  0
 32 31  2  0
 33 32  1  0
 33 28  2  0
 34 35  1  0
 35 36  1  0
 36 37  2  0
 38 37  1  0
 38 42  1  0
 39 38  2  0
 40 35  2  0
 40 39  1  0
 41 40  1  0
 43 44  1  0
 44 47  1  0
 44 46  1  0
 45 43  2  0
 48 49  1  0
 48 23  1  0
 50 48  1  0
 51 52  1  0
 53 64  2  0
 54 52  1  0
 54 59  1  0
 55 63  1  0
 55 65  1  0
 56 62  1  0
 56 58  1  0
 57 63  1  0
 58 57  1  0
 59 58  2  0
 60 61  1  0
 60 54  2  0
 61 56  2  0
 62 55  1  0
 63 53  1  0
 65 67  2  0
 66 65  1  0
 68 66  1  0
 69 78  2  0
 69 74  1  0
 70 66  1  0
 70 74  1  0
 71 70  1  0
 72 73  1  0
 72 71  1  0
 73 69  1  0
 74 75  2  0
 75 76  1  0
 77 76  2  0
 78 77  1  0
 79 53  1  0
 79 84  1  0
 79 80  1  0
 80 83  1  1
 80 81  1  0
 82 80  1  0
 84 87  1  0
 85 89  1  0
 85 84  1  0
 86 85  2  0
 89 88  1  0
 91 89  1  0
 91 92  1  0
 91 90  1  0
M  ISO  4  13 100  21 100  51 101  52 101
M  END
>  <TORSDO>  (60) 
F 19

>  <SCORE>  (60) 
-14.592

>  <name>  (60) 
59

>  <ligand_id>  (60) 
59

>  <original_smiles>  (60) 
[H]c1c([H])c([H])c2c(c1[H])C([H])([H])C([H])([H])C([H])([H])C2([H])N([H])C(=O)C1([H])N(C(=O)C([H])(N([H])C(=O)C([H])(N([H])C([H])([H])[H])C([H])([H])[H])C(C([H])([H])[H])(C([H])([H])[H])C([H])([H])[H])C([H])([H])c2c([H])c(OC([H])([H])C3([H])C([H])([H])N(c4sc(C([H])([H])N([H])C(=O)N5C([H])([H])C([H])([H])C([H])([H])C([H])(n6nc(-c7c([H])c([H])c(Oc8c([H])c([H])c(F)c([H])c8F)c([H])c7[H])c(C(=O)N([H])[H])c6N([H])[H])C5([H])[H])c(C([H])([H])[H])c4[H])C([H])([H])C3([H])[H])c([H])c([H])c2C1([H])[H]

>  <smiles>  (60) 
[H]c1c([H])c([H])c2c(c1[H])C([H])([H])C([H])([H])C([H])([H])C2([H])N([H])C(=O)C1([H])N(C(=O)C([H])(N([H])C(=O)C([H])(N([H])C([H])([H])[H])C([H])([H])[H])C(C([H])([H])[H])(C([H])([H])[H])C([H])([H])[H])C([H])([H])c2c([H])c(OC([H])([H])C3([H])C([H])([H])N(c4sc(C([H])([H])N([H])C(=O)N5C([H])([H])C([H])([H])C([H])([H])C([H])(n6nc(-c7c([H])c([H])c(Oc8c([H])c([H])c(F)c([H])c8F)c([H])c7[H])c(C(=O)N([H])[H])c6N([H])[H])C5([H])[H])c(C([H])([H])[H])c4[H])C([H])([H])C3([H])[H])c([H])c([H])c2C1([H])[H]

$$$$
60:0:0
     RDKit          3D

 96104  0  0  1  0  0  0  0  0999 V2000
  -28.6880  -18.0510   20.4410 C   0  0  0  0  0  3  0  0  0  0  0  0
  -30.7720  -19.1200   21.0750 C   0  0  0  0  0  3  0  0  0  0  0  0
  -30.0350  -17.9290   20.8540 C   0  0  0  0  0  0  0  0  0  0  0  0
  -28.1280  -19.3270   20.2090 C   0  0  0  0  0  0  0  0  0  0  0  0
  -30.2190  -20.4090   20.8600 C   0  0  0  0  0  0  0  0  0  0  0  0
  -28.8780  -20.5140   20.4080 C   0  0  0  0  0  0  0  0  0  0  0  0
  -30.7250  -14.3680   20.1100 C   0  0  0  0  0  0  0  0  0  0  0  0
  -30.2710  -12.2470   18.9310 C   0  0  0  0  0  2  0  0  0  0  0  0
  -29.2620  -12.4630   17.7870 C   0  0  0  0  0  2  0  0  0  0  0  0
  -27.8160  -12.3490   18.3070 C   0  0  0  0  0  2  0  0  0  0  0  0
  -27.5680  -13.1880   19.5920 C   0  0  0  0  0  3  0  0  0  0  0  0
  -28.6890  -12.9620   20.6330 C   0  0  0  0  0  2  0  0  0  0  0  0
  -29.9700  -13.2430   19.9720 N   0  0  0  0  0  0  0  0  0  0  0  0
  -31.8510  -14.4450   19.6100 O   0  0  0  0  0  0  0  0  0  0  0  0
  -30.7330  -16.5910   21.0210 C   0  0  0  0  0  0  0  0  0  0  0  0
  -30.1070  -15.4570   20.6250 N   0  0  0  0  0  0  0  0  0  0  0  0
  -31.8850  -16.5870   21.4750 O   0  0  0  0  0  0  0  0  0  0  0  0
  -29.1030  -15.4520   20.6290 H   0  0  0  0  0  0  0  0  0  0  0  0
  -25.2340  -13.8230   20.4670 C   0  0  0  0  0  0  0  0  0  0  0  0
  -24.1740  -13.0620   20.8820 C   0  0  0  0  0  0  0  0  0  0  0  0
  -24.6050  -11.7030   20.7930 C   0  0  0  0  0  0  0  0  0  0  0  0
  -26.2450  -12.9270   20.1520 N   0  0  0  0  0  0  0  0  0  0  0  0
  -25.8720  -11.6470   20.4070 N   0  0  0  0  0  0  0  0  0  0  0  0
  -23.8640  -10.4520   20.9960 C   0  0  0  0  0  0  0  0  0  0  0  0
  -24.3020   -9.4730   21.9160 C   0  0  0  0  0  3  0  0  0  0  0  0
  -23.5610   -8.2880   22.1080 C   0  0  0  0  0  3  0  0  0  0  0  0
  -22.3680   -8.0700   21.3780 C   0  0  0  0  0  0  0  0  0  0  0  0
  -21.9500   -9.0370   20.4460 C   0  0  0  0  0  3  0  0  0  0  0  0
  -22.6920  -10.2130   20.2520 C   0  0  0  0  0  3  0  0  0  0  0  0
  -21.5960   -6.9380   21.4810 O   0  0  0  0  0  0  0  0  0  0  0  0
  -21.5360   -6.2100   22.6410 C   0  0  0  0  0  0  0  0  0  0  0  0
  -21.0600   -6.7680   23.8480 C   0  0  0  0  0  3  0  0  0  0  0  0
  -20.9500   -5.9660   25.0010 C   0  0  0  0  0  3  0  0  0  0  0  0
  -21.3080   -4.6060   24.9490 C   0  0  0  0  0  0  0  0  0  0  0  0
  -21.7770   -4.0460   23.7480 C   0  0  0  0  0  3  0  0  0  0  0  0
  -21.8890   -4.8460   22.5960 C   0  0  0  0  0  0  0  0  0  0  0  0
  -22.3220   -4.2960   21.4360 F   0  0  0  0  0  0  0  0  0  0  0  0
  -21.1950   -3.8320   26.0540 F   0  0  0  0  0  0  0  0  0  0  0  0
  -22.8060  -13.5610   21.2470 C   0  0  0  0  0  0  0  0  0  0  0  0
  -22.1140  -12.8610   22.1380 N   0  0  0  0  0  0  0  0  0  0  0  0
  -22.3620  -14.6080   20.7760 O   0  0  0  0  0  0  0  0  0  0  0  0
  -22.4870  -12.0140   22.5410 H   0  0  0  0  0  0  0  0  0  0  0  0
  -21.1960  -13.1780   22.4210 H   0  0  0  0  0  0  0  0  0  0  0  0
  -25.4100  -15.1940   20.3050 N   0  0  0  0  0  0  0  0  0  0  0  0
  -24.6460  -15.8430   20.4600 H   0  0  0  0  0  0  0  0  0  0  0  0
  -26.2070  -15.6240   19.8550 H   0  0  0  0  0  0  0  0  0  0  0  0
  -26.8110  -19.4240   19.7610 N   0  0  0  0  0  0  0  0  0  0  0  0
  -26.1680  -18.6730   19.9860 H   0  0  0  0  0  0  0  0  0  0  0  0
  -26.3820  -20.3420   19.8260 H   0  0  0  0  0  0  0  0  0  0  0  0
  -32.2400  -21.4890   21.6170 C   0  0  0  0  0  1  0  0  0  0  0  0
  -30.9550  -21.5700   21.0150 O   0  0  0  0  0  0  0  0  0  0  0  0
  -28.2800  -21.7160   20.0500 O   0  0  0  0  0  0  0  0  0  0  0  0
  -28.2350  -22.8100   20.9780 C   0  0  0  0  0  2  0  0  0  0  0  0
  -28.5730  -24.1440   20.2660 C   0  0  0  0  0  2  0  0  0  0  0  0
  -28.3040  -25.3900   21.1430 C   0  0  0  0  0  2  0  0  0  0  0  0
  -28.4660  -26.6350   20.4420 O   0  0  0  0  0  0  0  0  0  0  0  0
  -24.5420  -31.8400   23.2970 C   0  0  0  0  0  0  0  0  0  0  0  0
  -27.3170  -27.3890   20.3680 C   0  0  0  0  0  0  0  0  0  0  0  0
  -23.4080  -30.4370   21.6050 C   0  0  0  0  0  3  0  0  0  0  0  0
  -24.9250  -28.8890   20.2560 C   0  0  0  0  0  0  0  0  0  0  0  0
  -25.9420  -30.7950   21.5200 C   0  0  0  0  0  2  0  0  0  0  0  0
  -26.0570  -29.4230   20.8890 C   0  0  0  0  0  0  0  0  0  0  0  0
  -27.2600  -28.6820   20.9370 C   0  0  0  0  0  3  0  0  0  0  0  0
  -26.1730  -26.8680   19.7290 C   0  0  0  0  0  3  0  0  0  0  0  0
  -24.9780  -27.6120   19.6740 C   0  0  0  0  0  3  0  0  0  0  0  0
  -23.6800  -29.7480   20.2410 C   0  0  0  0  0  2  0  0  0  0  0  0
  -24.6470  -31.0380   22.2000 N   0  0  0  0  0  0  0  0  0  0  0  0
  -23.4380  -32.1140   23.7890 O   0  0  0  0  0  0  0  0  0  0  0  0
  -22.7100  -29.4220   22.5370 C   0  0  0  0  0  0  0  0  0  0  0  0
  -21.3840  -29.2800   22.3840 N   0  0  0  0  0  0  0  0  0  0  0  0
  -23.3610  -28.7630   23.3530 O   0  0  0  0  0  0  0  0  0  0  0  0
  -20.9200  -29.8620   21.7000 H   0  0  0  0  0  0  0  0  0  0  0  0
  -17.9570  -28.2380   22.8600 C   0  0  0  0  0  0  0  0  0  0  0  0
  -20.5270  -28.3560   23.1240 C   0  0  0  0  0  3  0  0  0  0  0  0
  -20.5560  -26.9450   22.4940 C   0  0  0  0  0  2  0  0  0  0  0  0
  -19.4330  -26.7160   21.4760 C   0  0  0  0  0  2  0  0  0  0  0  0
  -18.0640  -26.9080   22.1340 C   0  0  0  0  0  2  0  0  0  0  0  0
  -19.1150  -28.9260   23.3110 C   0  0  0  0  0  0  0  0  0  0  0  0
  -18.9650  -30.1770   23.9490 C   0  0  0  0  0  3  0  0  0  0  0  0
  -17.6880  -30.7370   24.1410 C   0  0  0  0  0  3  0  0  0  0  0  0
  -16.5440  -30.0450   23.7070 C   0  0  0  0  0  3  0  0  0  0  0  0
  -16.6810  -28.7970   23.0720 C   0  0  0  0  0  3  0  0  0  0  0  0
  -25.8020  -32.4700   23.9730 C   0  0  0  0  0  3  0  0  0  0  0  0
  -25.5020  -33.8820   24.2390 N   0  0  0  0  0  0  0  0  0  0  0  0
  -25.8890  -34.9010   23.4580 C   0  0  0  0  0  0  0  0  0  0  0  0
  -26.6050  -34.7490   22.4650 O   0  0  0  0  0  0  0  0  0  0  0  0
  -24.8770  -34.0760   25.0070 H   0  0  0  0  0  0  0  0  0  0  0  0
  -24.2170  -36.7080   22.9460 C   0  0  0  0  0  1  0  0  0  0  0  0
  -25.4030  -36.3120   23.8410 C   0  0  0  0  0  3  0  0  0  0  0  0
  -27.4900  -37.2030   24.7770 C   0  0  0  0  0  1  0  0  0  0  0  0
  -26.4600  -37.3420   23.7520 N   0  0  0  0  0  0  0  0  0  0  0  0
  -26.0610  -38.2750   23.8270 H   0  0  0  0  0  0  0  0  0  0  0  0
  -26.2300  -31.7320   25.3010 C   0  0  1  0  0  0  0  0  0  0  0  0
  -25.0710  -31.5420   26.3080 C   0  0  0  0  0  1  0  0  0  0  0  0
  -26.8170  -30.3360   24.9870 C   0  0  0  0  0  1  0  0  0  0  0  0
  -27.3490  -32.5330   26.0090 C   0  0  0  0  0  1  0  0  0  0  0  0
  1  3  1  0
  3 15  1  0
  3  2  2  0
  4  6  1  0
  4  1  2  0
  5 51  1  0
  5  2  1  0
  6  5  2  0
  7 16  1  0
  8 13  1  0
  9 10  1  0
  9  8  1  0
 11 10  1  0
 11 22  1  0
 11 12  1  0
 13  7  1  0
 13 12  1  0
 14  7  2  0
 15 17  2  0
 16 18  1  0
 16 15  1  0
 19 20  2  0
 20 39  1  0
 21 20  1  0
 21 24  1  0
 22 23  1  0
 22 19  1  0
 23 21  2  0
 24 25  1  0
 25 26  2  0
 27 30  1  0
 27 26  1  0
 28 27  2  0
 29 28  1  0
 29 24  2  0
 30 31  1  0
 31 32  1  0
 32 33  2  0
 34 33  1  0
 34 38  1  0
 35 34  2  0
 36 31  2  0
 36 35  1  0
 37 36  1  0
 39 40  1  0
 40 43  1  0
 40 42  1  0
 41 39  2  0
 44 45  1  0
 44 19  1  0
 46 44  1  0
 47 49  1  0
 47 48  1  0
 47  4  1  0
 51 50  1  0
 52  6  1  0
 52 53  1  0
 54 53  1  0
 54 55  1  0
 56 55  1  0
 57 68  2  0
 58 56  1  0
 58 63  1  0
 59 67  1  0
 59 69  1  0
 60 62  1  0
 61 67  1  0
 62 63  2  0
 62 61  1  0
 64 58  2  0
 65 64  1  0
 65 60  2  0
 66 60  1  0
 66 59  1  0
 67 57  1  0
 69 71  2  0
 70 69  1  0
 72 70  1  0
 73 82  2  0
 73 78  1  0
 74 70  1  0
 74 78  1  0
 75 74  1  0
 76 77  1  0
 76 75  1  0
 77 73  1  0
 78 79  2  0
 79 80  1  0
 81 80  2  0
 82 81  1  0
 83 57  1  0
 83 84  1  0
 83 93  1  0
 84 87  1  0
 85 89  1  0
 85 84  1  0
 86 85  2  0
 89 88  1  0
 91 92  1  0
 91 89  1  0
 91 90  1  0
 93 96  1  1
 93 94  1  0
 95 93  1  0
M  ISO  4   7 100  16 100  55 101  56 101
M  END
>  <TORSDO>  (61) 
F 22

>  <SCORE>  (61) 
-13.409

>  <name>  (61) 
60

>  <ligand_id>  (61) 
60

>  <original_smiles>  (61) 
[H]c1c([H])c([H])c2c(c1[H])C([H])([H])C([H])([H])C([H])([H])C2([H])N([H])C(=O)C1([H])N(C(=O)C([H])(N([H])C(=O)C([H])(N([H])C([H])([H])[H])C([H])([H])[H])C(C([H])([H])[H])(C([H])([H])[H])C([H])([H])[H])C([H])([H])c2c([H])c(OC([H])([H])C([H])([H])C([H])([H])Oc3c(OC([H])([H])[H])c([H])c(C(=O)N([H])C(=O)N4C([H])([H])C([H])([H])C([H])([H])C([H])(n5nc(-c6c([H])c([H])c(Oc7c([H])c([H])c(F)c([H])c7F)c([H])c6[H])c(C(=O)N([H])[H])c5N([H])[H])C4([H])[H])c([H])c3N([H])[H])c([H])c([H])c2C1([H])[H]

>  <smiles>  (61) 
[H]c1c([H])c([H])c2c(c1[H])C([H])([H])C([H])([H])C([H])([H])C2([H])N([H])C(=O)C1([H])N(C(=O)C([H])(N([H])C(=O)C([H])(N([H])C([H])([H])[H])C([H])([H])[H])C(C([H])([H])[H])(C([H])([H])[H])C([H])([H])[H])C([H])([H])c2c([H])c(OC([H])([H])C([H])([H])C([H])([H])Oc3c(OC([H])([H])[H])c([H])c(C(=O)N([H])C(=O)N4C([H])([H])C([H])([H])C([H])([H])C([H])(n5nc(-c6c([H])c([H])c(Oc7c([H])c([H])c(F)c([H])c7F)c([H])c6[H])c(C(=O)N([H])[H])c5N([H])[H])C4([H])[H])c([H])c3N([H])[H])c([H])c([H])c2C1([H])[H]

$$$$
61:0:0
     RDKit          3D

 95103  0  0  1  0  0  0  0  0999 V2000
  -31.8840  -18.6080   20.2340 C   0  0  0  0  0  3  0  0  0  0  0  0
  -31.6590  -19.8900   19.6910 C   0  0  0  0  0  3  0  0  0  0  0  0
  -29.2670  -19.5640   19.9110 C   0  0  0  0  0  3  0  0  0  0  0  0
  -30.8040  -17.7970   20.6460 C   0  0  0  0  0  0  0  0  0  0  0  0
  -30.3520  -20.3970   19.5430 C   0  0  0  0  0  0  0  0  0  0  0  0
  -29.4790  -18.2710   20.4750 C   0  0  0  0  0  0  0  0  0  0  0  0
  -30.1940  -21.7120   19.0490 N   0  0  0  0  0  0  0  0  0  0  0  0
  -31.0160  -22.1780   18.6710 H   0  0  0  0  0  0  0  0  0  0  0  0
  -29.0480  -22.5520   19.4190 C   0  0  0  0  0  2  0  0  0  0  0  0
  -29.2920  -24.0680   19.1670 C   0  0  0  0  0  2  0  0  0  0  0  0
  -28.1930  -24.9770   19.7780 C   0  0  0  0  0  2  0  0  0  0  0  0
  -28.3790  -26.3750   19.4770 O   0  0  0  0  0  0  0  0  0  0  0  0
  -24.7380  -31.3220   23.1060 C   0  0  0  0  0  0  0  0  0  0  0  0
  -27.2440  -27.1600   19.5560 C   0  0  0  0  0  0  0  0  0  0  0  0
  -23.4950  -30.1640   21.3100 C   0  0  0  0  0  3  0  0  0  0  0  0
  -24.9050  -28.7480   19.7230 C   0  0  0  0  0  0  0  0  0  0  0  0
  -26.0340  -30.4540   21.1600 C   0  0  0  0  0  2  0  0  0  0  0  0
  -26.0780  -29.1600   20.3690 C   0  0  0  0  0  0  0  0  0  0  0  0
  -27.2530  -28.3780   20.2740 C   0  0  0  0  0  3  0  0  0  0  0  0
  -26.0580  -26.7730   18.8950 C   0  0  0  0  0  3  0  0  0  0  0  0
  -24.8920  -27.5560   18.9790 C   0  0  0  0  0  3  0  0  0  0  0  0
  -23.6910  -29.6400   19.8630 C   0  0  0  0  0  2  0  0  0  0  0  0
  -24.7740  -30.6530   21.9180 N   0  0  0  0  0  0  0  0  0  0  0  0
  -23.6620  -31.5680   23.6690 O   0  0  0  0  0  0  0  0  0  0  0  0
  -22.8000  -29.0630   22.1450 C   0  0  0  0  0  0  0  0  0  0  0  0
  -21.4630  -28.9870   22.0400 N   0  0  0  0  0  0  0  0  0  0  0  0
  -23.4600  -28.2870   22.8390 O   0  0  0  0  0  0  0  0  0  0  0  0
  -20.9950  -29.6620   21.4530 H   0  0  0  0  0  0  0  0  0  0  0  0
  -18.0240  -27.9860   22.5230 C   0  0  0  0  0  0  0  0  0  0  0  0
  -20.6040  -28.0090   22.7050 C   0  0  0  0  0  3  0  0  0  0  0  0
  -20.5690  -26.6760   21.9210 C   0  0  0  0  0  2  0  0  0  0  0  0
  -19.4060  -26.5920   20.9260 C   0  0  0  0  0  2  0  0  0  0  0  0
  -18.0650  -26.7440   21.6500 C   0  0  0  0  0  2  0  0  0  0  0  0
  -19.2160  -28.5890   23.0060 C   0  0  0  0  0  0  0  0  0  0  0  0
  -19.1210  -29.7620   23.7850 C   0  0  0  0  0  3  0  0  0  0  0  0
  -17.8690  -30.3300   24.0850 C   0  0  0  0  0  3  0  0  0  0  0  0
  -16.6920  -29.7210   23.6160 C   0  0  0  0  0  3  0  0  0  0  0  0
  -16.7720  -28.5500   22.8410 C   0  0  0  0  0  3  0  0  0  0  0  0
  -26.0410  -31.8290   23.7980 C   0  0  0  0  0  3  0  0  0  0  0  0
  -25.7750  -33.1860   24.2960 N   0  0  0  0  0  0  0  0  0  0  0  0
  -26.1480  -34.3100   23.6720 C   0  0  0  0  0  0  0  0  0  0  0  0
  -26.8220  -34.3100   22.6360 O   0  0  0  0  0  0  0  0  0  0  0  0
  -25.1760  -33.2620   25.1040 H   0  0  0  0  0  0  0  0  0  0  0  0
  -24.4840  -36.1910   23.5310 C   0  0  0  0  0  1  0  0  0  0  0  0
  -25.7050  -35.6490   24.2910 C   0  0  0  0  0  3  0  0  0  0  0  0
  -27.8560  -36.3580   25.2400 C   0  0  0  0  0  1  0  0  0  0  0  0
  -26.7730  -36.6710   24.3110 N   0  0  0  0  0  0  0  0  0  0  0  0
  -26.3960  -37.5820   24.5590 H   0  0  0  0  0  0  0  0  0  0  0  0
  -26.5300  -30.8910   24.9680 C   0  0  1  0  0  0  0  0  0  0  0  0
  -25.4330  -30.5770   26.0120 C   0  0  0  0  0  1  0  0  0  0  0  0
  -27.0500  -29.5460   24.4080 C   0  0  0  0  0  1  0  0  0  0  0  0
  -27.7210  -31.5500   25.7050 C   0  0  0  0  0  1  0  0  0  0  0  0
  -31.0920  -16.4840   21.3930 C   0  0  0  0  0  2  0  0  0  0  0  0
  -30.9030  -14.3490   20.1030 C   0  0  0  0  0  0  0  0  0  0  0  0
  -30.5140  -12.2020   18.9470 C   0  0  0  0  0  2  0  0  0  0  0  0
  -29.5010  -12.3900   17.8040 C   0  0  0  0  0  2  0  0  0  0  0  0
  -28.0630  -12.2160   18.3280 C   0  0  0  0  0  2  0  0  0  0  0  0
  -27.7880  -13.0650   19.5980 C   0  0  0  0  0  3  0  0  0  0  0  0
  -28.9120  -12.8840   20.6410 C   0  0  0  0  0  2  0  0  0  0  0  0
  -30.1990  -13.1920   19.9900 N   0  0  0  0  0  0  0  0  0  0  0  0
  -31.9470  -14.5580   19.4810 O   0  0  0  0  0  0  0  0  0  0  0  0
  -30.3910  -15.2810   20.9220 N   0  0  0  0  0  0  0  0  0  0  0  0
  -29.5110  -15.0650   21.3660 H   0  0  0  0  0  0  0  0  0  0  0  0
  -25.4630  -13.6550   20.5360 C   0  0  0  0  0  0  0  0  0  0  0  0
  -24.4130  -12.8740   20.9360 C   0  0  0  0  0  0  0  0  0  0  0  0
  -24.8430  -11.5220   20.7750 C   0  0  0  0  0  0  0  0  0  0  0  0
  -26.4700  -12.7780   20.1630 N   0  0  0  0  0  0  0  0  0  0  0  0
  -26.1030  -11.4850   20.3600 N   0  0  0  0  0  0  0  0  0  0  0  0
  -24.1090  -10.2610   20.9350 C   0  0  0  0  0  0  0  0  0  0  0  0
  -24.4280   -9.3440   21.9630 C   0  0  0  0  0  3  0  0  0  0  0  0
  -23.6930   -8.1480   22.1080 C   0  0  0  0  0  3  0  0  0  0  0  0
  -22.6290   -7.8570   21.2230 C   0  0  0  0  0  0  0  0  0  0  0  0
  -22.3310   -8.7600   20.1880 C   0  0  0  0  0  3  0  0  0  0  0  0
  -23.0660   -9.9500   20.0410 C   0  0  0  0  0  3  0  0  0  0  0  0
  -21.8780   -6.7060   21.2720 O   0  0  0  0  0  0  0  0  0  0  0  0
  -21.5090   -6.1360   22.4640 C   0  0  0  0  0  0  0  0  0  0  0  0
  -20.6870   -6.8150   23.3900 C   0  0  0  0  0  3  0  0  0  0  0  0
  -20.2730   -6.1660   24.5710 C   0  0  0  0  0  3  0  0  0  0  0  0
  -20.6720   -4.8400   24.8240 C   0  0  0  0  0  0  0  0  0  0  0  0
  -21.4860   -4.1620   23.9010 C   0  0  0  0  0  3  0  0  0  0  0  0
  -21.9010   -4.8080   22.7230 C   0  0  0  0  0  0  0  0  0  0  0  0
  -22.6680   -4.1420   21.8270 F   0  0  0  0  0  0  0  0  0  0  0  0
  -20.2690   -4.2150   25.9550 F   0  0  0  0  0  0  0  0  0  0  0  0
  -23.0510  -13.3530   21.3520 C   0  0  0  0  0  0  0  0  0  0  0  0
  -22.3890  -12.6240   22.2440 N   0  0  0  0  0  0  0  0  0  0  0  0
  -22.5870  -14.4080   20.9230 O   0  0  0  0  0  0  0  0  0  0  0  0
  -22.7790  -11.7720   22.6160 H   0  0  0  0  0  0  0  0  0  0  0  0
  -21.4810  -12.9290   22.5610 H   0  0  0  0  0  0  0  0  0  0  0  0
  -25.6410  -15.0330   20.4450 N   0  0  0  0  0  0  0  0  0  0  0  0
  -24.8930  -15.6850   20.6530 H   0  0  0  0  0  0  0  0  0  0  0  0
  -26.4790  -15.4910   20.1110 H   0  0  0  0  0  0  0  0  0  0  0  0
  -28.4660  -17.4340   20.9000 O   0  0  0  0  0  0  0  0  0  0  0  0
  -27.1050  -17.7240   20.5820 C   0  0  0  0  0  2  0  0  0  0  0  0
  -27.5310  -17.7480   18.0320 C   0  0  0  0  0  1  0  0  0  0  0  0
  -26.7340  -17.1570   19.2010 C   0  0  0  0  0  2  0  0  0  0  0  0
  1  4  1  0
  2  1  2  0
  3  6  1  0
  4 53  1  0
  5  2  1  0
  5  3  2  0
  6  4  2  0
  6 92  1  0
  7  9  1  0
  7  5  1  0
  8  7  1  0
 10  9  1  0
 10 11  1  0
 12 14  1  0
 12 11  1  0
 13 24  2  0
 14 19  1  0
 15 23  1  0
 15 25  1  0
 16 22  1  0
 16 18  1  0
 17 23  1  0
 18 17  1  0
 19 18  2  0
 20 21  1  0
 20 14  2  0
 21 16  2  0
 22 15  1  0
 23 13  1  0
 25 27  2  0
 26 25  1  0
 28 26  1  0
 29 38  2  0
 29 34  1  0
 30 26  1  0
 30 34  1  0
 31 30  1  0
 32 33  1  0
 32 31  1  0
 33 29  1  0
 34 35  2  0
 35 36  1  0
 37 36  2  0
 38 37  1  0
 39 13  1  0
 39 40  1  0
 39 49  1  0
 40 43  1  0
 41 45  1  0
 41 40  1  0
 42 41  2  0
 45 44  1  0
 45 47  1  0
 47 48  1  0
 47 46  1  0
 49 52  1  1
 49 50  1  0
 51 49  1  0
 54 62  1  0
 55 60  1  0
 56 57  1  0
 56 55  1  0
 58 57  1  0
 58 67  1  0
 58 59  1  0
 60 54  1  0
 60 59  1  0
 61 54  2  0
 62 63  1  0
 62 53  1  0
 64 65  2  0
 65 84  1  0
 66 69  1  0
 66 65  1  0
 67 68  1  0
 67 64  1  0
 68 66  2  0
 69 70  1  0
 70 71  2  0
 72 75  1  0
 72 71  1  0
 73 72  2  0
 74 73  1  0
 74 69  2  0
 75 76  1  0
 76 81  2  0
 76 77  1  0
 77 78  2  0
 78 79  1  0
 79 83  1  0
 80 79  2  0
 81 80  1  0
 82 81  1  0
 84 85  1  0
 85 88  1  0
 85 87  1  0
 86 84  2  0
 89 64  1  0
 89 90  1  0
 91 89  1  0
 93 92  1  0
 94 95  1  0
 95 93  1  0
M  ISO  4  11 101  12 101  54 100  62 100
M  END
>  <TORSDO>  (62) 
F 24

>  <SCORE>  (62) 
-10.348

>  <name>  (62) 
61

>  <ligand_id>  (62) 
61

>  <original_smiles>  (62) 
[H]c1c([H])c([H])c2c(c1[H])C([H])([H])C([H])([H])C([H])([H])C2([H])N([H])C(=O)C1([H])N(C(=O)C([H])(N([H])C(=O)C([H])(N([H])C([H])([H])[H])C([H])([H])[H])C(C([H])([H])[H])(C([H])([H])[H])C([H])([H])[H])C([H])([H])c2c([H])c(OC([H])([H])C([H])([H])C([H])([H])N([H])c3c([H])c([H])c(C([H])([H])N([H])C(=O)N4C([H])([H])C([H])([H])C([H])([H])C([H])(n5nc(-c6c([H])c([H])c(Oc7c([H])c([H])c(F)c([H])c7F)c([H])c6[H])c(C(=O)N([H])[H])c5N([H])[H])C4([H])[H])c(OC([H])([H])C([H])([H])C([H])([H])[H])c3[H])c([H])c([H])c2C1([H])[H]

>  <smiles>  (62) 
[H]c1c([H])c([H])c2c(c1[H])C([H])([H])C([H])([H])C([H])([H])C2([H])N([H])C(=O)C1([H])N(C(=O)C([H])(N([H])C(=O)C([H])(N([H])C([H])([H])[H])C([H])([H])[H])C(C([H])([H])[H])(C([H])([H])[H])C([H])([H])[H])C([H])([H])c2c([H])c(OC([H])([H])C([H])([H])C([H])([H])N([H])c3c([H])c([H])c(C([H])([H])N([H])C(=O)N4C([H])([H])C([H])([H])C([H])([H])C([H])(n5nc(-c6c([H])c([H])c(Oc7c([H])c([H])c(F)c([H])c7F)c([H])c6[H])c(C(=O)N([H])[H])c5N([H])[H])C4([H])[H])c(OC([H])([H])C([H])([H])C([H])([H])[H])c3[H])c([H])c([H])c2C1([H])[H]

$$$$
62:0:0
     RDKit          3D

 93102  0  0  1  0  0  0  0  0999 V2000
  -26.9830  -22.4910   18.2730 C   0  0  0  0  0  0  0  0  0  0  0  0
  -25.8240  -23.2710   18.8650 C   0  0  0  0  0  2  0  0  0  0  0  0
  -26.3930  -23.7150   20.2260 C   0  0  0  0  0  2  0  0  0  0  0  0
  -27.9110  -23.7700   19.9860 C   0  0  0  0  0  3  0  0  0  0  0  0
  -28.0940  -22.5930   19.0370 N   0  0  0  0  0  0  0  0  0  0  0  0
  -26.8620  -21.8330   17.2330 O   0  0  0  0  0  0  0  0  0  0  0  0
  -28.9500  -19.2640   20.7600 C   0  0  0  0  0  3  0  0  0  0  0  0
  -30.1350  -19.3380   18.6730 C   0  0  0  0  0  3  0  0  0  0  0  0
  -28.4310  -20.5720   20.5170 C   0  0  0  0  0  3  0  0  0  0  0  0
  -29.5910  -20.6370   18.4160 C   0  0  0  0  0  3  0  0  0  0  0  0
  -29.8310  -18.6140   19.8620 C   0  0  0  0  0  0  0  0  0  0  0  0
  -28.7380  -21.3050   19.3420 C   0  0  0  0  0  0  0  0  0  0  0  0
  -30.6340  -17.3220   20.2830 C   0  0  0  0  0  2  0  0  0  0  0  0
  -30.7830  -14.7710   20.2740 C   0  0  0  0  0  0  0  0  0  0  0  0
  -30.5330  -12.5010   19.3240 C   0  0  0  0  0  2  0  0  0  0  0  0
  -29.5880  -12.5940   18.1090 C   0  0  0  0  0  2  0  0  0  0  0  0
  -28.1260  -12.4150   18.5650 C   0  0  0  0  0  2  0  0  0  0  0  0
  -27.7540  -13.3120   19.7780 C   0  0  0  0  0  3  0  0  0  0  0  0
  -28.8290  -13.2620   20.8860 C   0  0  0  0  0  2  0  0  0  0  0  0
  -30.1210  -13.5700   20.2560 N   0  0  0  0  0  0  0  0  0  0  0  0
  -31.9810  -14.8230   20.0000 O   0  0  0  0  0  0  0  0  0  0  0  0
  -30.0510  -15.9310   20.3560 N   0  0  0  0  0  0  0  0  0  0  0  0
  -29.0630  -15.8430   20.5230 H   0  0  0  0  0  0  0  0  0  0  0  0
  -25.3830  -13.8930   20.5680 C   0  0  0  0  0  0  0  0  0  0  0  0
  -24.3210  -13.1080   20.9330 C   0  0  0  0  0  0  0  0  0  0  0  0
  -24.7790  -11.7580   20.8570 C   0  0  0  0  0  0  0  0  0  0  0  0
  -26.4190  -13.0140   20.2880 N   0  0  0  0  0  0  0  0  0  0  0  0
  -26.0640  -11.7240   20.5200 N   0  0  0  0  0  0  0  0  0  0  0  0
  -24.0440  -10.4950   21.0270 C   0  0  0  0  0  0  0  0  0  0  0  0
  -24.4610   -9.5240   21.9620 C   0  0  0  0  0  3  0  0  0  0  0  0
  -23.7310   -8.3260   22.1210 C   0  0  0  0  0  3  0  0  0  0  0  0
  -22.5750   -8.0880   21.3440 C   0  0  0  0  0  0  0  0  0  0  0  0
  -22.1730   -9.0510   20.4030 C   0  0  0  0  0  3  0  0  0  0  0  0
  -22.9020  -10.2410   20.2400 C   0  0  0  0  0  3  0  0  0  0  0  0
  -21.8250   -6.9380   21.4080 O   0  0  0  0  0  0  0  0  0  0  0  0
  -21.7170   -6.2130   22.5660 C   0  0  0  0  0  0  0  0  0  0  0  0
  -21.1670   -6.7660   23.7440 C   0  0  0  0  0  3  0  0  0  0  0  0
  -21.0140   -5.9640   24.8940 C   0  0  0  0  0  3  0  0  0  0  0  0
  -21.4010   -4.6100   24.8660 C   0  0  0  0  0  0  0  0  0  0  0  0
  -21.9440   -4.0580   23.6930 C   0  0  0  0  0  3  0  0  0  0  0  0
  -22.1010   -4.8580   22.5470 C   0  0  0  0  0  0  0  0  0  0  0  0
  -22.6060   -4.3140   21.4110 F   0  0  0  0  0  0  0  0  0  0  0  0
  -21.2480   -3.8380   25.9680 F   0  0  0  0  0  0  0  0  0  0  0  0
  -22.9340  -13.5870   21.2410 C   0  0  0  0  0  0  0  0  0  0  0  0
  -22.2140  -12.8670   22.0970 N   0  0  0  0  0  0  0  0  0  0  0  0
  -22.4950  -14.6280   20.7620 O   0  0  0  0  0  0  0  0  0  0  0  0
  -22.5880  -12.0260   22.5100 H   0  0  0  0  0  0  0  0  0  0  0  0
  -21.2790  -13.1620   22.3400 H   0  0  0  0  0  0  0  0  0  0  0  0
  -25.5420  -15.2690   20.4340 N   0  0  0  0  0  0  0  0  0  0  0  0
  -24.7600  -15.8990   20.5850 H   0  0  0  0  0  0  0  0  0  0  0  0
  -26.3740  -15.7320   20.0810 H   0  0  0  0  0  0  0  0  0  0  0  0
  -28.3490  -25.2080   19.3860 C   0  0  0  0  0  2  0  0  0  0  0  0
  -28.3150  -26.5020   20.1340 O   0  0  0  0  0  0  0  0  0  0  0  0
  -24.5880  -31.9000   23.2320 C   0  0  0  0  0  0  0  0  0  0  0  0
  -27.2130  -27.3720   20.0930 C   0  0  0  0  0  0  0  0  0  0  0  0
  -23.3970  -30.5150   21.5770 C   0  0  0  0  0  3  0  0  0  0  0  0
  -24.8540  -28.9880   20.1400 C   0  0  0  0  0  0  0  0  0  0  0  0
  -25.9400  -30.8280   21.4190 C   0  0  0  0  0  2  0  0  0  0  0  0
  -26.0190  -29.4590   20.7540 C   0  0  0  0  0  0  0  0  0  0  0  0
  -27.1970  -28.6480   20.7460 C   0  0  0  0  0  3  0  0  0  0  0  0
  -26.0290  -26.9890   19.4300 C   0  0  0  0  0  3  0  0  0  0  0  0
  -24.8570  -27.7570   19.4810 C   0  0  0  0  0  3  0  0  0  0  0  0
  -23.6140  -29.8490   20.1930 C   0  0  0  0  0  2  0  0  0  0  0  0
  -24.6580  -31.1020   22.1300 N   0  0  0  0  0  0  0  0  0  0  0  0
  -23.5040  -32.1720   23.7670 O   0  0  0  0  0  0  0  0  0  0  0  0
  -22.7380  -29.4830   22.5240 C   0  0  0  0  0  0  0  0  0  0  0  0
  -21.4180  -29.2940   22.3790 N   0  0  0  0  0  0  0  0  0  0  0  0
  -23.4170  -28.8610   23.3450 O   0  0  0  0  0  0  0  0  0  0  0  0
  -20.9370  -29.8400   21.6780 H   0  0  0  0  0  0  0  0  0  0  0  0
  -18.0410  -28.1000   22.8860 C   0  0  0  0  0  0  0  0  0  0  0  0
  -20.6020  -28.3450   23.1380 C   0  0  0  0  0  3  0  0  0  0  0  0
  -20.6940  -26.9260   22.5320 C   0  0  0  0  0  2  0  0  0  0  0  0
  -19.5810  -26.6270   21.5210 C   0  0  0  0  0  2  0  0  0  0  0  0
  -18.2060  -26.7630   22.1820 C   0  0  0  0  0  2  0  0  0  0  0  0
  -19.1660  -28.8470   23.3220 C   0  0  0  0  0  0  0  0  0  0  0  0
  -18.9610  -30.0990   23.9440 C   0  0  0  0  0  3  0  0  0  0  0  0
  -17.6610  -30.6020   24.1350 C   0  0  0  0  0  3  0  0  0  0  0  0
  -16.5480  -29.8500   23.7190 C   0  0  0  0  0  3  0  0  0  0  0  0
  -16.7380  -28.6020   23.0980 C   0  0  0  0  0  3  0  0  0  0  0  0
  -25.8670  -32.5330   23.8580 C   0  0  0  0  0  3  0  0  0  0  0  0
  -26.3770  -31.7670   25.1390 C   0  0  1  0  0  0  0  0  0  0  0  0
  -25.2770  -31.5280   26.1960 C   0  0  0  0  0  1  0  0  0  0  0  0
  -26.9690  -30.3830   24.7710 C   0  0  0  0  0  1  0  0  0  0  0  0
  -27.5180  -32.5660   25.8090 C   0  0  0  0  0  1  0  0  0  0  0  0
  -25.5590  -33.9350   24.1810 N   0  0  0  0  0  0  0  0  0  0  0  0
  -25.8900  -34.9840   23.4150 C   0  0  0  0  0  0  0  0  0  0  0  0
  -26.5640  -34.8770   22.3870 O   0  0  0  0  0  0  0  0  0  0  0  0
  -24.9550  -34.0900   24.9740 H   0  0  0  0  0  0  0  0  0  0  0  0
  -24.1730  -36.7840   23.0390 C   0  0  0  0  0  1  0  0  0  0  0  0
  -25.3980  -36.3730   23.8680 C   0  0  0  0  0  3  0  0  0  0  0  0
  -27.5100  -37.2640   24.7500 C   0  0  0  0  0  1  0  0  0  0  0  0
  -26.4350  -37.4220   23.7730 N   0  0  0  0  0  0  0  0  0  0  0  0
  -26.0250  -38.3430   23.9000 H   0  0  0  0  0  0  0  0  0  0  0  0
  1  2  1  0
  1  5  1  0
  2  3  1  0
  4 52  1  0
  4  3  1  0
  5 12  1  0
  5  4  1  0
  6  1  2  0
  8 11  1  0
  9  7  1  0
 10  8  2  0
 10 12  1  0
 11 13  1  0
 11  7  2  0
 12  9  2  0
 13 22  1  0
 14 22  1  0
 15 20  1  0
 16 17  1  0
 16 15  1  0
 18 17  1  0
 18 27  1  0
 18 19  1  0
 20 14  1  0
 20 19  1  0
 21 14  2  0
 22 23  1  0
 24 25  2  0
 25 44  1  0
 26 25  1  0
 26 29  1  0
 27 28  1  0
 27 24  1  0
 28 26  2  0
 29 30  1  0
 30 31  2  0
 32 35  1  0
 32 31  1  0
 33 32  2  0
 34 33  1  0
 34 29  2  0
 35 36  1  0
 36 37  1  0
 37 38  2  0
 39 38  1  0
 39 43  1  0
 40 39  2  0
 41 36  2  0
 41 40  1  0
 42 41  1  0
 44 45  1  0
 45 48  1  0
 45 47  1  0
 46 44  2  0
 49 24  1  0
 49 50  1  0
 51 49  1  0
 52 53  1  0
 54 65  2  0
 55 53  1  0
 55 60  1  0
 56 64  1  0
 56 66  1  0
 57 63  1  0
 57 59  1  0
 58 64  1  0
 59 58  1  0
 60 59  2  0
 61 62  1  0
 61 55  2  0
 62 57  2  0
 63 56  1  0
 64 54  1  0
 66 68  2  0
 67 66  1  0
 69 67  1  0
 70 79  2  0
 70 75  1  0
 71 67  1  0
 71 75  1  0
 72 71  1  0
 73 74  1  0
 73 72  1  0
 74 70  1  0
 75 76  2  0
 76 77  1  0
 78 77  2  0
 79 78  1  0
 80 54  1  0
 80 85  1  0
 80 81  1  0
 81 84  1  1
 81 82  1  0
 83 81  1  0
 85 88  1  0
 86 90  1  0
 86 85  1  0
 87 86  2  0
 90 89  1  0
 92 90  1  0
 92 93  1  0
 92 91  1  0
M  ISO  4  14 100  22 100  52 101  53 101
M  END
>  <TORSDO>  (63) 
F 19

>  <SCORE>  (63) 
-14.262

>  <name>  (63) 
62

>  <ligand_id>  (63) 
62

>  <original_smiles>  (63) 
[H]c1c([H])c([H])c2c(c1[H])C([H])([H])C([H])([H])C([H])([H])C2([H])N([H])C(=O)C1([H])N(C(=O)C([H])(N([H])C(=O)C([H])(N([H])C([H])([H])[H])C([H])([H])[H])C(C([H])([H])[H])(C([H])([H])[H])C([H])([H])[H])C([H])([H])c2c([H])c(OC([H])([H])C3([H])N(c4c([H])c([H])c(C([H])([H])N([H])C(=O)N5C([H])([H])C([H])([H])C([H])([H])C([H])(n6nc(-c7c([H])c([H])c(Oc8c([H])c([H])c(F)c([H])c8F)c([H])c7[H])c(C(=O)N([H])[H])c6N([H])[H])C5([H])[H])c([H])c4[H])C(=O)C([H])([H])C3([H])[H])c([H])c([H])c2C1([H])[H]

>  <smiles>  (63) 
[H]c1c([H])c([H])c2c(c1[H])C([H])([H])C([H])([H])C([H])([H])C2([H])N([H])C(=O)C1([H])N(C(=O)C([H])(N([H])C(=O)C([H])(N([H])C([H])([H])[H])C([H])([H])[H])C(C([H])([H])[H])(C([H])([H])[H])C([H])([H])[H])C([H])([H])c2c([H])c(OC([H])([H])C3([H])N(c4c([H])c([H])c(C([H])([H])N([H])C(=O)N5C([H])([H])C([H])([H])C([H])([H])C([H])(n6nc(-c7c([H])c([H])c(Oc8c([H])c([H])c(F)c([H])c8F)c([H])c7[H])c(C(=O)N([H])[H])c6N([H])[H])C5([H])[H])c([H])c4[H])C(=O)C([H])([H])C3([H])[H])c([H])c([H])c2C1([H])[H]

$$$$
63:0:0
     RDKit          3D

 94103  0  0  1  0  0  0  0  0999 V2000
  -28.7310  -23.6310   20.5300 C   0  0  0  0  0  0  0  0  0  0  0  0
  -28.6720  -22.3310   20.0200 C   0  0  0  0  0  0  0  0  0  0  0  0
  -29.4610  -23.8130   21.8060 C   0  0  0  0  0  0  0  0  0  0  0  0
  -30.2670  -22.6230   22.3460 C   0  0  0  0  0  2  0  0  0  0  0  0
  -29.6330  -21.2510   22.0340 C   0  0  0  0  0  2  0  0  0  0  0  0
  -27.8220  -22.0660   18.7830 C   0  0  0  0  0  1  0  0  0  0  0  0
  -29.2220  -21.1330   20.6330 N   0  0  0  0  0  0  0  0  0  0  0  0
  -29.4610  -24.8620   22.4560 O   0  0  0  0  0  0  0  0  0  0  0  0
  -30.4890  -18.6500   18.0860 C   0  0  0  0  0  3  0  0  0  0  0  0
  -30.0770  -19.8370   18.7260 C   0  0  0  0  0  3  0  0  0  0  0  0
  -30.4350  -17.4030   18.7360 C   0  0  0  0  0  3  0  0  0  0  0  0
  -29.5200  -18.5250   20.6920 C   0  0  0  0  0  3  0  0  0  0  0  0
  -29.5720  -19.8390   20.0460 C   0  0  0  0  0  0  0  0  0  0  0  0
  -29.9550  -17.2810   20.0590 C   0  0  0  0  0  0  0  0  0  0  0  0
  -30.5920  -14.7720   20.3600 C   0  0  0  0  0  0  0  0  0  0  0  0
  -30.3770  -12.4970   19.3650 C   0  0  0  0  0  2  0  0  0  0  0  0
  -29.4470  -12.6040   18.1360 C   0  0  0  0  0  2  0  0  0  0  0  0
  -27.9740  -12.4410   18.5540 C   0  0  0  0  0  2  0  0  0  0  0  0
  -27.6060  -13.3140   19.7810 C   0  0  0  0  0  3  0  0  0  0  0  0
  -28.6590  -13.2020   20.9080 C   0  0  0  0  0  2  0  0  0  0  0  0
  -29.9640  -13.5460   20.3290 N   0  0  0  0  0  0  0  0  0  0  0  0
  -31.7730  -14.8590   20.0040 O   0  0  0  0  0  0  0  0  0  0  0  0
  -29.8440  -15.9110   20.6370 N   0  0  0  0  0  0  0  0  0  0  0  0
  -28.9840  -15.7300   21.1300 H   0  0  0  0  0  0  0  0  0  0  0  0
  -25.2140  -13.9140   20.4800 C   0  0  0  0  0  0  0  0  0  0  0  0
  -24.1450  -13.1450   20.8470 C   0  0  0  0  0  0  0  0  0  0  0  0
  -24.6060  -11.7940   20.8340 C   0  0  0  0  0  0  0  0  0  0  0  0
  -26.2580  -13.0310   20.2630 N   0  0  0  0  0  0  0  0  0  0  0  0
  -25.8990  -11.7500   20.5380 N   0  0  0  0  0  0  0  0  0  0  0  0
  -23.8740  -10.5340   21.0280 C   0  0  0  0  0  0  0  0  0  0  0  0
  -24.3030   -9.5670   21.9640 C   0  0  0  0  0  3  0  0  0  0  0  0
  -23.5700   -8.3740   22.1470 C   0  0  0  0  0  3  0  0  0  0  0  0
  -22.3950   -8.1400   21.3920 C   0  0  0  0  0  0  0  0  0  0  0  0
  -21.9860   -9.0960   20.4460 C   0  0  0  0  0  3  0  0  0  0  0  0
  -22.7180  -10.2810   20.2610 C   0  0  0  0  0  3  0  0  0  0  0  0
  -21.6340   -7.0010   21.4850 O   0  0  0  0  0  0  0  0  0  0  0  0
  -21.5890   -6.2550   22.6370 C   0  0  0  0  0  0  0  0  0  0  0  0
  -21.1800   -6.8120   23.8670 C   0  0  0  0  0  3  0  0  0  0  0  0
  -21.0820   -5.9970   25.0110 C   0  0  0  0  0  3  0  0  0  0  0  0
  -21.3820   -4.6240   24.9240 C   0  0  0  0  0  0  0  0  0  0  0  0
  -21.7840   -4.0650   23.6980 C   0  0  0  0  0  3  0  0  0  0  0  0
  -21.8830   -4.8790   22.5560 C   0  0  0  0  0  0  0  0  0  0  0  0
  -22.2510   -4.3330   21.3720 F   0  0  0  0  0  0  0  0  0  0  0  0
  -21.2790   -3.8360   26.0200 F   0  0  0  0  0  0  0  0  0  0  0  0
  -22.7480  -13.6290   21.1020 C   0  0  0  0  0  0  0  0  0  0  0  0
  -22.0120  -12.9420   21.9690 N   0  0  0  0  0  0  0  0  0  0  0  0
  -22.3180  -14.6500   20.5690 O   0  0  0  0  0  0  0  0  0  0  0  0
  -22.3760  -12.1170   22.4230 H   0  0  0  0  0  0  0  0  0  0  0  0
  -21.0730  -13.2480   22.1860 H   0  0  0  0  0  0  0  0  0  0  0  0
  -25.3770  -15.2820   20.2880 N   0  0  0  0  0  0  0  0  0  0  0  0
  -24.5940  -15.9230   20.3450 H   0  0  0  0  0  0  0  0  0  0  0  0
  -26.2150  -15.7170   19.9230 H   0  0  0  0  0  0  0  0  0  0  0  0
  -27.9460  -24.8990   19.9410 C   0  0  0  0  0  2  0  0  0  0  0  0
  -28.2450  -26.3500   20.2490 O   0  0  0  0  0  0  0  0  0  0  0  0
  -24.6020  -31.8850   23.2330 C   0  0  0  0  0  0  0  0  0  0  0  0
  -27.1740  -27.2780   20.1580 C   0  0  0  0  0  0  0  0  0  0  0  0
  -23.3890  -30.4920   21.5990 C   0  0  0  0  0  3  0  0  0  0  0  0
  -24.8280  -28.9470   20.1550 C   0  0  0  0  0  0  0  0  0  0  0  0
  -25.9330  -30.7910   21.4070 C   0  0  0  0  0  2  0  0  0  0  0  0
  -26.0060  -29.4110   20.7560 C   0  0  0  0  0  0  0  0  0  0  0  0
  -27.1800  -28.5860   20.7550 C   0  0  0  0  0  3  0  0  0  0  0  0
  -25.9770  -26.9070   19.4970 C   0  0  0  0  0  3  0  0  0  0  0  0
  -24.8200  -27.7020   19.5150 C   0  0  0  0  0  3  0  0  0  0  0  0
  -23.5950  -29.8280   20.2150 C   0  0  0  0  0  2  0  0  0  0  0  0
  -24.6620  -31.0760   22.1350 N   0  0  0  0  0  0  0  0  0  0  0  0
  -23.5220  -32.1630   23.7730 O   0  0  0  0  0  0  0  0  0  0  0  0
  -22.7300  -29.4720   22.5600 C   0  0  0  0  0  0  0  0  0  0  0  0
  -21.4030  -29.2960   22.4420 N   0  0  0  0  0  0  0  0  0  0  0  0
  -23.4130  -28.8420   23.3740 O   0  0  0  0  0  0  0  0  0  0  0  0
  -20.9100  -29.8570   21.7610 H   0  0  0  0  0  0  0  0  0  0  0  0
  -18.0290  -28.0920   22.9590 C   0  0  0  0  0  0  0  0  0  0  0  0
  -20.5870  -28.3590   23.2190 C   0  0  0  0  0  3  0  0  0  0  0  0
  -20.6890  -26.9260   22.6460 C   0  0  0  0  0  2  0  0  0  0  0  0
  -19.5850  -26.5990   21.6360 C   0  0  0  0  0  2  0  0  0  0  0  0
  -18.2040  -26.7420   22.2830 C   0  0  0  0  0  2  0  0  0  0  0  0
  -19.1470  -28.8580   23.3820 C   0  0  0  0  0  0  0  0  0  0  0  0
  -18.9270  -30.1200   23.9750 C   0  0  0  0  0  3  0  0  0  0  0  0
  -17.6220  -30.6180   24.1470 C   0  0  0  0  0  3  0  0  0  0  0  0
  -16.5180  -29.8520   23.7360 C   0  0  0  0  0  3  0  0  0  0  0  0
  -16.7220  -28.5900   23.1490 C   0  0  0  0  0  3  0  0  0  0  0  0
  -25.8880  -32.5180   23.8490 C   0  0  0  0  0  3  0  0  0  0  0  0
  -25.5780  -33.9150   24.1840 N   0  0  0  0  0  0  0  0  0  0  0  0
  -25.9040  -34.9710   23.4270 C   0  0  0  0  0  0  0  0  0  0  0  0
  -26.5650  -34.8710   22.3900 O   0  0  0  0  0  0  0  0  0  0  0  0
  -24.9910  -34.0650   24.9920 H   0  0  0  0  0  0  0  0  0  0  0  0
  -24.1700  -36.7630   23.0960 C   0  0  0  0  0  1  0  0  0  0  0  0
  -25.4200  -36.3580   23.8950 C   0  0  0  0  0  3  0  0  0  0  0  0
  -27.5630  -37.2370   24.7070 C   0  0  0  0  0  1  0  0  0  0  0  0
  -26.4500  -37.4130   23.7770 N   0  0  0  0  0  0  0  0  0  0  0  0
  -26.0460  -38.3320   23.9410 H   0  0  0  0  0  0  0  0  0  0  0  0
  -26.4100  -31.7450   25.1220 C   0  0  1  0  0  0  0  0  0  0  0  0
  -25.3220  -31.5050   26.1950 C   0  0  0  0  0  1  0  0  0  0  0  0
  -26.9900  -30.3680   24.7240 C   0  0  0  0  0  1  0  0  0  0  0  0
  -27.5640  -32.5370   25.7780 C   0  0  0  0  0  1  0  0  0  0  0  0
  1  3  1  0
  2  1  2  0
  2  7  1  0
  3  4  1  0
  3  8  2  0
  5  4  1  0
  6  2  1  0
  7  5  1  0
  9 10  2  0
  9 11  1  0
 10 13  1  0
 11 14  2  0
 13  7  1  0
 13 12  2  0
 14 23  1  0
 14 12  1  0
 15 23  1  0
 16 21  1  0
 17 18  1  0
 17 16  1  0
 19 18  1  0
 19 28  1  0
 19 20  1  0
 21 15  1  0
 21 20  1  0
 22 15  2  0
 23 24  1  0
 25 26  2  0
 26 45  1  0
 27 26  1  0
 27 30  1  0
 28 25  1  0
 28 29  1  0
 29 27  2  0
 30 31  1  0
 31 32  2  0
 33 36  1  0
 33 32  1  0
 34 33  2  0
 35 34  1  0
 35 30  2  0
 36 37  1  0
 37 38  1  0
 38 39  2  0
 40 39  1  0
 40 44  1  0
 41 40  2  0
 42 37  2  0
 42 41  1  0
 43 42  1  0
 45 46  1  0
 46 49  1  0
 46 48  1  0
 47 45  2  0
 50 51  1  0
 50 25  1  0
 52 50  1  0
 53 54  1  0
 53  1  1  0
 55 66  2  0
 56 54  1  0
 56 61  1  0
 57 65  1  0
 57 67  1  0
 58 64  1  0
 58 60  1  0
 59 65  1  0
 60 59  1  0
 61 60  2  0
 62 63  1  0
 62 56  2  0
 63 58  2  0
 64 57  1  0
 65 55  1  0
 67 69  2  0
 68 67  1  0
 70 68  1  0
 71 80  2  0
 71 76  1  0
 72 68  1  0
 72 76  1  0
 73 72  1  0
 74 75  1  0
 74 73  1  0
 75 71  1  0
 76 77  2  0
 77 78  1  0
 79 78  2  0
 80 79  1  0
 81 55  1  0
 81 82  1  0
 81 91  1  0
 82 85  1  0
 83 87  1  0
 83 82  1  0
 84 83  2  0
 87 86  1  0
 89 87  1  0
 89 90  1  0
 89 88  1  0
 91 94  1  1
 91 92  1  0
 93 91  1  0
M  ISO  4  15 100  23 100  53 101  54 101
M  END
>  <TORSDO>  (64) 
F 18

>  <SCORE>  (64) 
-15.061

>  <name>  (64) 
63

>  <ligand_id>  (64) 
63

>  <original_smiles>  (64) 
[H]c1c([H])c(N([H])C(=O)N2C([H])([H])C([H])([H])C([H])([H])C([H])(n3nc(-c4c([H])c([H])c(Oc5c([H])c([H])c(F)c([H])c5F)c([H])c4[H])c(C(=O)N([H])[H])c3N([H])[H])C2([H])[H])c([H])c(N2C(C([H])([H])[H])=C(C([H])([H])Oc3c([H])c([H])c4c(c3[H])C([H])([H])N(C(=O)C([H])(N([H])C(=O)C([H])(N([H])C([H])([H])[H])C([H])([H])[H])C(C([H])([H])[H])(C([H])([H])[H])C([H])([H])[H])C([H])(C(=O)N([H])C3([H])c5c([H])c([H])c([H])c([H])c5C([H])([H])C([H])([H])C3([H])[H])C4([H])[H])C(=O)C([H])([H])C2([H])[H])c1[H]

>  <smiles>  (64) 
[H]c1c([H])c(N([H])C(=O)N2C([H])([H])C([H])([H])C([H])([H])C([H])(n3nc(-c4c([H])c([H])c(Oc5c([H])c([H])c(F)c([H])c5F)c([H])c4[H])c(C(=O)N([H])[H])c3N([H])[H])C2([H])[H])c([H])c(N2C(C([H])([H])[H])=C(C([H])([H])Oc3c([H])c([H])c4c(c3[H])C([H])([H])N(C(=O)C([H])(N([H])C(=O)C([H])(N([H])C([H])([H])[H])C([H])([H])[H])C(C([H])([H])[H])(C([H])([H])[H])C([H])([H])[H])C([H])(C(=O)N([H])C3([H])c5c([H])c([H])c([H])c([H])c5C([H])([H])C([H])([H])C3([H])[H])C4([H])[H])C(=O)C([H])([H])C2([H])[H])c1[H]

$$$$
64:0:0
     RDKit          3D

 93101  0  0  1  0  0  0  0  0999 V2000
  -29.9620  -19.3250   23.5270 C   0  0  0  0  0  3  0  0  0  0  0  0
  -29.5710  -20.3260   22.6170 C   0  0  0  0  0  3  0  0  0  0  0  0
  -30.5660  -19.0500   20.8070 C   0  0  0  0  0  3  0  0  0  0  0  0
  -30.6640  -18.1810   23.0930 C   0  0  0  0  0  0  0  0  0  0  0  0
  -30.9740  -18.0440   21.7160 C   0  0  0  0  0  0  0  0  0  0  0  0
  -29.8820  -20.2080   21.2400 C   0  0  0  0  0  0  0  0  0  0  0  0
  -32.4570  -17.4500   24.7420 C   0  0  0  0  0  1  0  0  0  0  0  0
  -31.0850  -17.1450   24.1270 C   0  0  0  0  0  2  0  0  0  0  0  0
  -31.7830  -16.8630   21.1910 C   0  0  0  0  0  2  0  0  0  0  0  0
  -31.3220  -14.7820   19.9460 C   0  0  0  0  0  0  0  0  0  0  0  0
  -30.8500  -12.6050   18.8940 C   0  0  0  0  0  2  0  0  0  0  0  0
  -29.8620  -12.7460   17.7210 C   0  0  0  0  0  2  0  0  0  0  0  0
  -28.4100  -12.6740   18.2260 C   0  0  0  0  0  2  0  0  0  0  0  0
  -28.1460  -13.6130   19.4320 C   0  0  0  0  0  3  0  0  0  0  0  0
  -29.2430  -13.4560   20.5110 C   0  0  0  0  0  2  0  0  0  0  0  0
  -30.5570  -13.6620   19.8760 N   0  0  0  0  0  0  0  0  0  0  0  0
  -32.3180  -14.9570   19.2390 O   0  0  0  0  0  0  0  0  0  0  0  0
  -30.9730  -15.6880   20.8670 N   0  0  0  0  0  0  0  0  0  0  0  0
  -30.1500  -15.5070   21.4190 H   0  0  0  0  0  0  0  0  0  0  0  0
  -25.8290  -14.3310   20.2960 C   0  0  0  0  0  0  0  0  0  0  0  0
  -24.7420  -13.6080   20.7070 C   0  0  0  0  0  0  0  0  0  0  0  0
  -25.1240  -12.2340   20.6130 C   0  0  0  0  0  0  0  0  0  0  0  0
  -26.8090  -13.4020   19.9830 N   0  0  0  0  0  0  0  0  0  0  0  0
  -26.3890  -12.1330   20.2280 N   0  0  0  0  0  0  0  0  0  0  0  0
  -24.3390  -11.0080   20.8140 C   0  0  0  0  0  0  0  0  0  0  0  0
  -24.7220  -10.0300   21.7580 C   0  0  0  0  0  3  0  0  0  0  0  0
  -23.9400   -8.8700   21.9440 C   0  0  0  0  0  3  0  0  0  0  0  0
  -22.7590   -8.6800   21.1860 C   0  0  0  0  0  0  0  0  0  0  0  0
  -22.3950   -9.6460   20.2320 C   0  0  0  0  0  3  0  0  0  0  0  0
  -23.1780  -10.7980   20.0430 C   0  0  0  0  0  3  0  0  0  0  0  0
  -21.9510   -7.5730   21.2820 O   0  0  0  0  0  0  0  0  0  0  0  0
  -21.7850   -6.9020   22.4680 C   0  0  0  0  0  0  0  0  0  0  0  0
  -21.2900   -7.5430   23.6240 C   0  0  0  0  0  3  0  0  0  0  0  0
  -21.0700   -6.8010   24.8020 C   0  0  0  0  0  3  0  0  0  0  0  0
  -21.3360   -5.4180   24.8230 C   0  0  0  0  0  0  0  0  0  0  0  0
  -21.8260   -4.7780   23.6720 C   0  0  0  0  0  3  0  0  0  0  0  0
  -22.0470   -5.5170   22.4970 C   0  0  0  0  0  0  0  0  0  0  0  0
  -22.4980   -4.8890   21.3830 F   0  0  0  0  0  0  0  0  0  0  0  0
  -21.1180   -4.7040   25.9510 F   0  0  0  0  0  0  0  0  0  0  0  0
  -23.3920  -14.1530   21.0760 C   0  0  0  0  0  0  0  0  0  0  0  0
  -22.6830  -13.4810   21.9750 N   0  0  0  0  0  0  0  0  0  0  0  0
  -22.9790  -15.2100   20.6000 O   0  0  0  0  0  0  0  0  0  0  0  0
  -23.0320  -12.6250   22.3820 H   0  0  0  0  0  0  0  0  0  0  0  0
  -21.7780  -13.8290   22.2610 H   0  0  0  0  0  0  0  0  0  0  0  0
  -26.0600  -15.6950   20.1430 N   0  0  0  0  0  0  0  0  0  0  0  0
  -25.3430  -16.3900   20.3200 H   0  0  0  0  0  0  0  0  0  0  0  0
  -26.9240  -16.0950   19.7950 H   0  0  0  0  0  0  0  0  0  0  0  0
  -29.5680  -21.1680   20.2930 O   0  0  0  0  0  0  0  0  0  0  0  0
  -29.0400  -22.4170   20.7440 C   0  0  0  0  0  2  0  0  0  0  0  0
  -29.0840  -23.4740   19.6230 C   0  0  0  0  0  2  0  0  0  0  0  0
  -28.4780  -24.8280   20.0540 C   0  0  0  0  0  2  0  0  0  0  0  0
  -28.6840  -25.9530   19.0210 C   0  0  0  0  0  2  0  0  0  0  0  0
  -28.5190  -27.2430   19.6180 O   0  0  0  0  0  0  0  0  0  0  0  0
  -24.6070  -31.9510   23.2080 C   0  0  0  0  0  0  0  0  0  0  0  0
  -27.2790  -27.8420   19.7120 C   0  0  0  0  0  0  0  0  0  0  0  0
  -23.3780  -30.6130   21.5290 C   0  0  0  0  0  3  0  0  0  0  0  0
  -24.8210  -29.2280   19.9450 C   0  0  0  0  0  0  0  0  0  0  0  0
  -25.8760  -31.0880   21.2460 C   0  0  0  0  0  2  0  0  0  0  0  0
  -25.9820  -29.7650   20.5140 C   0  0  0  0  0  0  0  0  0  0  0  0
  -27.2090  -29.0770   20.3980 C   0  0  0  0  0  3  0  0  0  0  0  0
  -26.0950  -27.3050   19.1570 C   0  0  0  0  0  3  0  0  0  0  0  0
  -24.8710  -27.9950   19.2700 C   0  0  0  0  0  3  0  0  0  0  0  0
  -23.5470  -30.0280   20.1030 C   0  0  0  0  0  2  0  0  0  0  0  0
  -24.6410  -31.2310   22.0510 N   0  0  0  0  0  0  0  0  0  0  0  0
  -23.5440  -32.1420   23.8130 O   0  0  0  0  0  0  0  0  0  0  0  0
  -22.8090  -29.5090   22.4470 C   0  0  0  0  0  0  0  0  0  0  0  0
  -21.5040  -29.2260   22.3040 N   0  0  0  0  0  0  0  0  0  0  0  0
  -23.5390  -28.9090   23.2410 O   0  0  0  0  0  0  0  0  0  0  0  0
  -20.9710  -29.7630   21.6350 H   0  0  0  0  0  0  0  0  0  0  0  0
  -18.2520  -27.6910   22.6660 C   0  0  0  0  0  0  0  0  0  0  0  0
  -20.7610  -28.1970   23.0320 C   0  0  0  0  0  3  0  0  0  0  0  0
  -21.0240  -26.7950   22.4360 C   0  0  0  0  0  2  0  0  0  0  0  0
  -19.9950  -26.3840   21.3770 C   0  0  0  0  0  2  0  0  0  0  0  0
  -18.5830  -26.3780   21.9740 C   0  0  0  0  0  2  0  0  0  0  0  0
  -19.2750  -28.5520   23.1460 C   0  0  0  0  0  0  0  0  0  0  0  0
  -18.9100  -29.7750   23.7490 C   0  0  0  0  0  3  0  0  0  0  0  0
  -17.5580  -30.1460   23.8720 C   0  0  0  0  0  3  0  0  0  0  0  0
  -16.5490  -29.2830   23.4100 C   0  0  0  0  0  3  0  0  0  0  0  0
  -16.8970  -28.0560   22.8150 C   0  0  0  0  0  3  0  0  0  0  0  0
  -25.8970  -32.5880   23.8130 C   0  0  0  0  0  3  0  0  0  0  0  0
  -25.5780  -33.9750   24.1740 N   0  0  0  0  0  0  0  0  0  0  0  0
  -25.8940  -35.0450   23.4320 C   0  0  0  0  0  0  0  0  0  0  0  0
  -26.5560  -34.9660   22.3930 O   0  0  0  0  0  0  0  0  0  0  0  0
  -24.9830  -34.1070   24.9790 H   0  0  0  0  0  0  0  0  0  0  0  0
  -24.1450  -36.8240   23.1230 C   0  0  0  0  0  1  0  0  0  0  0  0
  -25.3970  -36.4200   23.9180 C   0  0  0  0  0  3  0  0  0  0  0  0
  -27.5300  -37.3090   24.7440 C   0  0  0  0  0  1  0  0  0  0  0  0
  -26.4180  -37.4850   23.8140 N   0  0  0  0  0  0  0  0  0  0  0  0
  -26.0060  -38.3990   23.9820 H   0  0  0  0  0  0  0  0  0  0  0  0
  -26.4520  -31.8010   25.0630 C   0  0  1  0  0  0  0  0  0  0  0  0
  -25.3780  -31.5110   26.1390 C   0  0  0  0  0  1  0  0  0  0  0  0
  -27.0620  -30.4480   24.6280 C   0  0  0  0  0  1  0  0  0  0  0  0
  -27.5940  -32.6060   25.7250 C   0  0  0  0  0  1  0  0  0  0  0  0
  2  1  2  0
  3  6  2  0
  3  5  1  0
  4  1  1  0
  4  8  1  0
  5  4  2  0
  6  2  1  0
  8  7  1  0
  9  5  1  0
 10 18  1  0
 11 16  1  0
 12 13  1  0
 12 11  1  0
 14 13  1  0
 14 23  1  0
 14 15  1  0
 16 10  1  0
 16 15  1  0
 17 10  2  0
 18  9  1  0
 18 19  1  0
 20 21  2  0
 21 40  1  0
 22 21  1  0
 22 25  1  0
 23 24  1  0
 23 20  1  0
 24 22  2  0
 25 26  1  0
 26 27  2  0
 28 31  1  0
 28 27  1  0
 29 28  2  0
 30 29  1  0
 30 25  2  0
 31 32  1  0
 32 37  2  0
 32 33  1  0
 33 34  2  0
 34 35  1  0
 35 39  1  0
 36 35  2  0
 37 36  1  0
 38 37  1  0
 40 41  1  0
 41 44  1  0
 41 43  1  0
 42 40  2  0
 45 20  1  0
 45 46  1  0
 47 45  1  0
 48 49  1  0
 48  6  1  0
 50 51  1  0
 50 49  1  0
 52 53  1  0
 52 51  1  0
 53 55  1  0
 54 65  2  0
 55 60  1  0
 56 64  1  0
 56 66  1  0
 57 63  1  0
 57 59  1  0
 58 64  1  0
 59 58  1  0
 60 59  2  0
 61 62  1  0
 61 55  2  0
 62 57  2  0
 63 56  1  0
 64 54  1  0
 66 68  2  0
 67 66  1  0
 69 67  1  0
 70 79  2  0
 70 75  1  0
 71 67  1  0
 71 75  1  0
 72 71  1  0
 73 74  1  0
 73 72  1  0
 74 70  1  0
 75 76  2  0
 76 77  1  0
 78 77  2  0
 79 78  1  0
 80 54  1  0
 80 81  1  0
 80 90  1  0
 81 84  1  0
 82 86  1  0
 82 81  1  0
 83 82  2  0
 86 85  1  0
 88 86  1  0
 88 89  1  0
 88 87  1  0
 90 93  1  1
 90 91  1  0
 92 90  1  0
M  ISO  4  10 100  18 100  52 101  53 101
M  END
>  <TORSDO>  (65) 
F 23

>  <SCORE>  (65) 
-1.619

>  <name>  (65) 
64

>  <ligand_id>  (65) 
64

>  <original_smiles>  (65) 
[H]c1c([H])c([H])c2c(c1[H])C([H])([H])C([H])([H])C([H])([H])C2([H])N([H])C(=O)C1([H])N(C(=O)C([H])(N([H])C(=O)C([H])(N([H])C([H])([H])[H])C([H])([H])[H])C(C([H])([H])[H])(C([H])([H])[H])C([H])([H])[H])C([H])([H])c2c([H])c(OC([H])([H])C([H])([H])C([H])([H])C([H])([H])Oc3c([H])c([H])c(C([H])([H])C([H])([H])[H])c(C([H])([H])N([H])C(=O)N4C([H])([H])C([H])([H])C([H])([H])C([H])(n5nc(-c6c([H])c([H])c(Oc7c([H])c([H])c(F)c([H])c7F)c([H])c6[H])c(C(=O)N([H])[H])c5N([H])[H])C4([H])[H])c3[H])c([H])c([H])c2C1([H])[H]

>  <smiles>  (65) 
[H]c1c([H])c([H])c2c(c1[H])C([H])([H])C([H])([H])C([H])([H])C2([H])N([H])C(=O)C1([H])N(C(=O)C([H])(N([H])C(=O)C([H])(N([H])C([H])([H])[H])C([H])([H])[H])C(C([H])([H])[H])(C([H])([H])[H])C([H])([H])[H])C([H])([H])c2c([H])c(OC([H])([H])C([H])([H])C([H])([H])C([H])([H])Oc3c([H])c([H])c(C([H])([H])C([H])([H])[H])c(C([H])([H])N([H])C(=O)N4C([H])([H])C([H])([H])C([H])([H])C([H])(n5nc(-c6c([H])c([H])c(Oc7c([H])c([H])c(F)c([H])c7F)c([H])c6[H])c(C(=O)N([H])[H])c5N([H])[H])C4([H])[H])c3[H])c([H])c([H])c2C1([H])[H]

$$$$
65:0:0
     RDKit          3D

 95104  0  0  1  0  0  0  0  0999 V2000
  -30.9110  -22.7770   19.9090 C   0  0  0  0  0  0  0  0  0  0  0  0
  -31.2170  -24.0160   20.7330 C   0  0  0  0  0  2  0  0  0  0  0  0
  -29.9860  -24.1240   21.6220 C   0  0  0  0  0  2  0  0  0  0  0  0
  -28.8800  -23.5570   20.7300 C   0  0  0  0  0  3  0  0  0  0  0  0
  -29.6210  -22.3730   20.0260 N   0  0  0  0  0  0  0  0  0  0  0  0
  -31.8130  -22.1860   19.3040 O   0  0  0  0  0  0  0  0  0  0  0  0
  -29.4220  -19.9830   20.9460 C   0  0  0  0  0  3  0  0  0  0  0  0
  -29.5710  -18.5940   21.0400 C   0  0  0  0  0  3  0  0  0  0  0  0
  -29.4340  -20.3970   18.6510 C   0  0  0  0  0  3  0  0  0  0  0  0
  -29.6270  -19.1770   18.0670 C   0  0  0  0  0  0  0  0  0  0  0  0
  -29.3790  -20.8970   19.9120 C   0  0  0  0  0  0  0  0  0  0  0  0
  -29.8740  -17.5230   20.2050 C   0  0  0  0  0  0  0  0  0  0  0  0
  -29.9330  -17.8460   18.7400 C   0  0  0  0  0  0  0  0  0  0  0  0
  -29.5150  -19.0700   16.5460 C   0  0  0  0  0  1  0  0  0  0  0  0
  -30.2150  -16.9090   17.9840 O   0  0  0  0  0  0  0  0  0  0  0  0
  -30.5950  -14.9610   20.2630 C   0  0  0  0  0  0  0  0  0  0  0  0
  -30.4660  -12.6380   19.3030 C   0  0  0  0  0  2  0  0  0  0  0  0
  -29.5210  -12.6670   18.0790 C   0  0  0  0  0  2  0  0  0  0  0  0
  -28.0580  -12.4580   18.5150 C   0  0  0  0  0  2  0  0  0  0  0  0
  -27.6740  -13.3450   19.7300 C   0  0  0  0  0  3  0  0  0  0  0  0
  -28.7400  -13.2960   20.8480 C   0  0  0  0  0  2  0  0  0  0  0  0
  -30.0220  -13.6970   20.2520 N   0  0  0  0  0  0  0  0  0  0  0  0
  -31.7550  -15.0750   19.8530 O   0  0  0  0  0  0  0  0  0  0  0  0
  -29.8160  -16.0850   20.6070 N   0  0  0  0  0  0  0  0  0  0  0  0
  -29.0330  -15.8610   21.2010 H   0  0  0  0  0  0  0  0  0  0  0  0
  -25.2880  -13.9040   20.4810 C   0  0  0  0  0  0  0  0  0  0  0  0
  -24.2330  -13.1190   20.8580 C   0  0  0  0  0  0  0  0  0  0  0  0
  -24.7070  -11.7730   20.8170 C   0  0  0  0  0  0  0  0  0  0  0  0
  -26.3370  -13.0360   20.2300 N   0  0  0  0  0  0  0  0  0  0  0  0
  -25.9960  -11.7470   20.4950 N   0  0  0  0  0  0  0  0  0  0  0  0
  -23.9920  -10.5040   21.0100 C   0  0  0  0  0  0  0  0  0  0  0  0
  -24.4310   -9.5410   21.9460 C   0  0  0  0  0  3  0  0  0  0  0  0
  -23.7160   -8.3390   22.1270 C   0  0  0  0  0  3  0  0  0  0  0  0
  -22.5450   -8.0880   21.3720 C   0  0  0  0  0  0  0  0  0  0  0  0
  -22.1240   -9.0390   20.4240 C   0  0  0  0  0  3  0  0  0  0  0  0
  -22.8420  -10.2340   20.2420 C   0  0  0  0  0  3  0  0  0  0  0  0
  -21.8000   -6.9390   21.4620 O   0  0  0  0  0  0  0  0  0  0  0  0
  -21.7420   -6.2070   22.6220 C   0  0  0  0  0  0  0  0  0  0  0  0
  -21.2650   -6.7620   23.8300 C   0  0  0  0  0  3  0  0  0  0  0  0
  -21.1570   -5.9560   24.9810 C   0  0  0  0  0  3  0  0  0  0  0  0
  -21.5160   -4.5950   24.9240 C   0  0  0  0  0  0  0  0  0  0  0  0
  -21.9850   -4.0400   23.7210 C   0  0  0  0  0  3  0  0  0  0  0  0
  -22.0950   -4.8440   22.5730 C   0  0  0  0  0  0  0  0  0  0  0  0
  -22.5280   -4.2970   21.4110 F   0  0  0  0  0  0  0  0  0  0  0  0
  -21.4040   -3.8190   26.0270 F   0  0  0  0  0  0  0  0  0  0  0  0
  -22.8350  -13.5860   21.1430 C   0  0  0  0  0  0  0  0  0  0  0  0
  -22.1190  -12.8790   22.0120 N   0  0  0  0  0  0  0  0  0  0  0  0
  -22.3860  -14.6110   20.6320 O   0  0  0  0  0  0  0  0  0  0  0  0
  -22.4940  -12.0510   22.4490 H   0  0  0  0  0  0  0  0  0  0  0  0
  -21.1800  -13.1730   22.2430 H   0  0  0  0  0  0  0  0  0  0  0  0
  -25.4390  -15.2770   20.3080 N   0  0  0  0  0  0  0  0  0  0  0  0
  -24.6640  -15.9200   20.4300 H   0  0  0  0  0  0  0  0  0  0  0  0
  -26.2750  -15.7250   19.9560 H   0  0  0  0  0  0  0  0  0  0  0  0
  -28.2890  -24.8510   19.8540 C   0  0  0  0  0  2  0  0  0  0  0  0
  -28.3210  -26.3360   20.2850 O   0  0  0  0  0  0  0  0  0  0  0  0
  -24.6020  -31.9010   23.2440 C   0  0  0  0  0  0  0  0  0  0  0  0
  -27.2270  -27.2580   20.1840 C   0  0  0  0  0  0  0  0  0  0  0  0
  -23.4110  -30.5030   21.5960 C   0  0  0  0  0  3  0  0  0  0  0  0
  -24.8730  -28.9530   20.1610 C   0  0  0  0  0  0  0  0  0  0  0  0
  -25.9590  -30.7980   21.4350 C   0  0  0  0  0  2  0  0  0  0  0  0
  -26.0430  -29.4140   20.7770 C   0  0  0  0  0  0  0  0  0  0  0  0
  -27.2160  -28.5780   20.7810 C   0  0  0  0  0  3  0  0  0  0  0  0
  -26.0350  -26.8970   19.5150 C   0  0  0  0  0  3  0  0  0  0  0  0
  -24.8800  -27.7070   19.5180 C   0  0  0  0  0  3  0  0  0  0  0  0
  -23.6360  -29.8330   20.2140 C   0  0  0  0  0  2  0  0  0  0  0  0
  -24.6760  -31.0900   22.1460 N   0  0  0  0  0  0  0  0  0  0  0  0
  -23.5140  -32.1730   23.7750 O   0  0  0  0  0  0  0  0  0  0  0  0
  -22.7440  -29.4840   22.5520 C   0  0  0  0  0  0  0  0  0  0  0  0
  -21.4180  -29.3020   22.4240 N   0  0  0  0  0  0  0  0  0  0  0  0
  -23.4220  -28.8610   23.3720 O   0  0  0  0  0  0  0  0  0  0  0  0
  -20.9280  -29.8540   21.7340 H   0  0  0  0  0  0  0  0  0  0  0  0
  -18.0460  -28.0830   22.9270 C   0  0  0  0  0  0  0  0  0  0  0  0
  -20.6040  -28.3560   23.1910 C   0  0  0  0  0  3  0  0  0  0  0  0
  -20.7120  -26.9280   22.6080 C   0  0  0  0  0  2  0  0  0  0  0  0
  -19.6090  -26.6050   21.5940 C   0  0  0  0  0  2  0  0  0  0  0  0
  -18.2290  -26.7390   22.2400 C   0  0  0  0  0  2  0  0  0  0  0  0
  -19.1620  -28.8480   23.3580 C   0  0  0  0  0  0  0  0  0  0  0  0
  -18.9350  -30.1050   23.9600 C   0  0  0  0  0  3  0  0  0  0  0  0
  -17.6280  -30.5980   24.1320 C   0  0  0  0  0  3  0  0  0  0  0  0
  -16.5280  -29.8290   23.7150 C   0  0  0  0  0  3  0  0  0  0  0  0
  -16.7370  -28.5740   23.1190 C   0  0  0  0  0  3  0  0  0  0  0  0
  -25.8760  -32.5420   23.8730 C   0  0  0  0  0  3  0  0  0  0  0  0
  -25.5600  -33.9430   24.1940 N   0  0  0  0  0  0  0  0  0  0  0  0
  -25.8900  -34.9930   23.4310 C   0  0  0  0  0  0  0  0  0  0  0  0
  -26.5610  -34.8870   22.4010 O   0  0  0  0  0  0  0  0  0  0  0  0
  -24.9630  -34.0990   24.9930 H   0  0  0  0  0  0  0  0  0  0  0  0
  -24.1650  -36.7880   23.0640 C   0  0  0  0  0  1  0  0  0  0  0  0
  -25.4020  -36.3840   23.8830 C   0  0  0  0  0  3  0  0  0  0  0  0
  -27.5300  -37.2770   24.7260 C   0  0  0  0  0  1  0  0  0  0  0  0
  -26.4360  -37.4370   23.7710 N   0  0  0  0  0  0  0  0  0  0  0  0
  -26.0280  -38.3580   23.9050 H   0  0  0  0  0  0  0  0  0  0  0  0
  -26.3800  -31.7830   25.1610 C   0  0  1  0  0  0  0  0  0  0  0  0
  -25.2760  -31.5540   26.2200 C   0  0  0  0  0  1  0  0  0  0  0  0
  -26.9720  -30.4030   24.7920 C   0  0  0  0  0  1  0  0  0  0  0  0
  -27.5230  -32.5850   25.8270 C   0  0  0  0  0  1  0  0  0  0  0  0
  1  5  1  0
  1  2  1  0
  2  3  1  0
  4 54  1  0
  4  3  1  0
  5  4  1  0
  6  1  2  0
  7  8  1  0
  9 11  1  0
 10  9  2  0
 10 13  1  0
 11  5  1  0
 11  7  2  0
 12 24  1  0
 12  8  2  0
 13 12  1  0
 14 10  1  0
 15 13  2  0
 16 24  1  0
 17 22  1  0
 18 19  1  0
 18 17  1  0
 20 19  1  0
 20 29  1  0
 20 21  1  0
 22 16  1  0
 22 21  1  0
 23 16  2  0
 24 25  1  0
 26 27  2  0
 27 46  1  0
 28 27  1  0
 28 31  1  0
 29 26  1  0
 29 30  1  0
 30 28  2  0
 31 32  1  0
 32 33  2  0
 34 37  1  0
 34 33  1  0
 35 34  2  0
 36 35  1  0
 36 31  2  0
 37 38  1  0
 38 39  1  0
 39 40  2  0
 41 40  1  0
 41 45  1  0
 42 41  2  0
 43 38  2  0
 43 42  1  0
 44 43  1  0
 46 47  1  0
 47 50  1  0
 47 49  1  0
 48 46  2  0
 51 52  1  0
 51 26  1  0
 53 51  1  0
 54 55  1  0
 56 67  2  0
 57 55  1  0
 57 62  1  0
 58 66  1  0
 58 68  1  0
 59 65  1  0
 59 61  1  0
 60 66  1  0
 61 62  2  0
 61 60  1  0
 63 64  1  0
 63 57  2  0
 64 59  2  0
 65 58  1  0
 66 56  1  0
 68 70  2  0
 69 68  1  0
 71 69  1  0
 72 81  2  0
 72 77  1  0
 73 69  1  0
 73 77  1  0
 74 73  1  0
 75 76  1  0
 75 74  1  0
 76 72  1  0
 77 78  2  0
 78 79  1  0
 80 79  2  0
 81 80  1  0
 82 56  1  0
 82 83  1  0
 82 92  1  0
 83 86  1  0
 84 88  1  0
 84 83  1  0
 85 84  2  0
 88 87  1  0
 90 88  1  0
 90 91  1  0
 90 89  1  0
 92 95  1  1
 92 93  1  0
 94 92  1  0
M  ISO  4  16 100  24 100  54 101  55 101
M  END
>  <TORSDO>  (66) 
F 18

>  <SCORE>  (66) 
-14.623

>  <name>  (66) 
65

>  <ligand_id>  (66) 
65

>  <original_smiles>  (66) 
[H]c1c([H])c([H])c2c(c1[H])C([H])([H])C([H])([H])C([H])([H])C2([H])N([H])C(=O)C1([H])N(C(=O)C([H])(N([H])C(=O)C([H])(N([H])C([H])([H])[H])C([H])([H])[H])C(C([H])([H])[H])(C([H])([H])[H])C([H])([H])[H])C([H])([H])c2c([H])c(OC([H])([H])C3([H])N(c4c([H])c([H])c(N([H])C(=O)N5C([H])([H])C([H])([H])C([H])([H])C([H])(n6nc(-c7c([H])c([H])c(Oc8c([H])c([H])c(F)c([H])c8F)c([H])c7[H])c(C(=O)N([H])[H])c6N([H])[H])C5([H])[H])c(=O)c(C([H])([H])[H])c4[H])C(=O)C([H])([H])C3([H])[H])c([H])c([H])c2C1([H])[H]

>  <smiles>  (66) 
[H]c1c([H])c([H])c2c(c1[H])C([H])([H])C([H])([H])C([H])([H])C2([H])N([H])C(=O)C1([H])N(C(=O)C([H])(N([H])C(=O)C([H])(N([H])C([H])([H])[H])C([H])([H])[H])C(C([H])([H])[H])(C([H])([H])[H])C([H])([H])[H])C([H])([H])c2c([H])c(OC([H])([H])C3([H])N(c4c([H])c([H])c(N([H])C(=O)N5C([H])([H])C([H])([H])C([H])([H])C([H])(n6nc(-c7c([H])c([H])c(Oc8c([H])c([H])c(F)c([H])c8F)c([H])c7[H])c(C(=O)N([H])[H])c6N([H])[H])C5([H])[H])c(=O)c(C([H])([H])[H])c4[H])C(=O)C([H])([H])C3([H])[H])c([H])c([H])c2C1([H])[H]

$$$$
66:0:0
     RDKit          3D

 93101  0  0  1  0  0  0  0  0999 V2000
  -29.0760  -22.0360   19.0730 C   0  0  0  0  0  0  0  0  0  0  0  0
  -28.9990  -20.6940   18.8770 N   0  0  0  0  0  0  0  0  0  0  0  0
  -28.8960  -22.7580   18.0910 O   0  0  0  0  0  0  0  0  0  0  0  0
  -28.6660  -20.4940   17.9440 H   0  0  0  0  0  0  0  0  0  0  0  0
  -28.3970  -18.4010   19.3680 C   0  0  0  0  0  3  0  0  0  0  0  0
  -28.6750  -17.1090   19.8660 C   0  0  0  0  0  3  0  0  0  0  0  0
  -30.3840  -19.2650   20.4490 C   0  0  0  0  0  3  0  0  0  0  0  0
  -29.2500  -19.4970   19.6320 C   0  0  0  0  0  0  0  0  0  0  0  0
  -29.8310  -16.8540   20.6380 C   0  0  0  0  0  0  0  0  0  0  0  0
  -30.6650  -17.9610   20.9480 C   0  0  0  0  0  0  0  0  0  0  0  0
  -31.7690  -17.7610   21.7110 F   0  0  0  0  0  0  0  0  0  0  0  0
  -30.6800  -14.5450   20.4330 C   0  0  0  0  0  0  0  0  0  0  0  0
  -30.3570  -12.3730   19.2840 C   0  0  0  0  0  2  0  0  0  0  0  0
  -29.4060  -12.5640   18.0870 C   0  0  0  0  0  2  0  0  0  0  0  0
  -27.9390  -12.4050   18.5290 C   0  0  0  0  0  2  0  0  0  0  0  0
  -27.6090  -13.2390   19.7960 C   0  0  0  0  0  3  0  0  0  0  0  0
  -28.6790  -13.0610   20.8960 C   0  0  0  0  0  2  0  0  0  0  0  0
  -29.9920  -13.3710   20.3090 N   0  0  0  0  0  0  0  0  0  0  0  0
  -31.7830  -14.7040   19.9060 O   0  0  0  0  0  0  0  0  0  0  0  0
  -30.1230  -15.5420   21.1580 N   0  0  0  0  0  0  0  0  0  0  0  0
  -30.6440  -15.6250   22.0220 H   0  0  0  0  0  0  0  0  0  0  0  0
  -25.2250  -13.8520   20.5400 C   0  0  0  0  0  0  0  0  0  0  0  0
  -24.1570  -13.0800   20.9070 C   0  0  0  0  0  0  0  0  0  0  0  0
  -24.6150  -11.7270   20.8690 C   0  0  0  0  0  0  0  0  0  0  0  0
  -26.2640  -12.9670   20.2910 N   0  0  0  0  0  0  0  0  0  0  0  0
  -25.9010  -11.6850   20.5490 N   0  0  0  0  0  0  0  0  0  0  0  0
  -23.8860  -10.4680   21.0620 C   0  0  0  0  0  0  0  0  0  0  0  0
  -24.3270   -9.4930   21.9840 C   0  0  0  0  0  3  0  0  0  0  0  0
  -23.5970   -8.2980   22.1640 C   0  0  0  0  0  3  0  0  0  0  0  0
  -22.4140   -8.0710   21.4220 C   0  0  0  0  0  0  0  0  0  0  0  0
  -21.9930   -9.0330   20.4860 C   0  0  0  0  0  3  0  0  0  0  0  0
  -22.7250  -10.2190   20.3030 C   0  0  0  0  0  3  0  0  0  0  0  0
  -21.6550   -6.9300   21.5140 O   0  0  0  0  0  0  0  0  0  0  0  0
  -21.6200   -6.1790   22.6610 C   0  0  0  0  0  0  0  0  0  0  0  0
  -21.2120   -6.7270   23.8960 C   0  0  0  0  0  3  0  0  0  0  0  0
  -21.1240   -5.9040   25.0350 C   0  0  0  0  0  3  0  0  0  0  0  0
  -21.4310   -4.5330   24.9410 C   0  0  0  0  0  0  0  0  0  0  0  0
  -21.8370   -3.9850   23.7100 C   0  0  0  0  0  3  0  0  0  0  0  0
  -21.9270   -4.8060   22.5730 C   0  0  0  0  0  0  0  0  0  0  0  0
  -22.2970   -4.2690   21.3860 F   0  0  0  0  0  0  0  0  0  0  0  0
  -21.3360   -3.7390   26.0350 F   0  0  0  0  0  0  0  0  0  0  0  0
  -22.7660  -13.5650   21.1960 C   0  0  0  0  0  0  0  0  0  0  0  0
  -22.0410  -12.8640   22.0620 N   0  0  0  0  0  0  0  0  0  0  0  0
  -22.3290  -14.5980   20.6880 O   0  0  0  0  0  0  0  0  0  0  0  0
  -22.4070  -12.0280   22.4930 H   0  0  0  0  0  0  0  0  0  0  0  0
  -21.1060  -13.1680   22.2990 H   0  0  0  0  0  0  0  0  0  0  0  0
  -25.3910  -15.2250   20.3870 N   0  0  0  0  0  0  0  0  0  0  0  0
  -24.6300  -15.8790   20.5330 H   0  0  0  0  0  0  0  0  0  0  0  0
  -26.2690  -15.6760   20.1720 H   0  0  0  0  0  0  0  0  0  0  0  0
  -29.3610  -22.7290   20.4270 C   0  0  0  0  0  2  0  0  0  0  0  0
  -29.4880  -24.3080   20.3730 C   0  0  0  0  0  3  0  0  0  0  0  0
  -28.1810  -25.1460   20.1840 C   0  0  0  0  0  3  0  0  0  0  0  0
  -28.3570  -26.5930   20.2200 O   0  0  0  0  0  0  0  0  0  0  0  0
  -24.5840  -31.8800   23.2610 C   0  0  0  0  0  0  0  0  0  0  0  0
  -27.2040  -27.3770   20.1920 C   0  0  0  0  0  0  0  0  0  0  0  0
  -23.3740  -30.4800   21.6230 C   0  0  0  0  0  3  0  0  0  0  0  0
  -24.8250  -28.9380   20.1990 C   0  0  0  0  0  0  0  0  0  0  0  0
  -25.9070  -30.8200   21.4260 C   0  0  0  0  0  2  0  0  0  0  0  0
  -25.9890  -29.4440   20.7840 C   0  0  0  0  0  0  0  0  0  0  0  0
  -27.1850  -28.6730   20.7730 C   0  0  0  0  0  3  0  0  0  0  0  0
  -26.0120  -26.9070   19.5970 C   0  0  0  0  0  3  0  0  0  0  0  0
  -24.8320  -27.6720   19.6000 C   0  0  0  0  0  3  0  0  0  0  0  0
  -23.5840  -29.8000   20.2450 C   0  0  0  0  0  2  0  0  0  0  0  0
  -24.6390  -31.0770   22.1600 N   0  0  0  0  0  0  0  0  0  0  0  0
  -23.5010  -32.1570   23.7960 O   0  0  0  0  0  0  0  0  0  0  0  0
  -22.7150  -29.4630   22.5860 C   0  0  0  0  0  0  0  0  0  0  0  0
  -21.3900  -29.2840   22.4560 N   0  0  0  0  0  0  0  0  0  0  0  0
  -23.3950  -28.8380   23.4020 O   0  0  0  0  0  0  0  0  0  0  0  0
  -20.9040  -29.8360   21.7650 H   0  0  0  0  0  0  0  0  0  0  0  0
  -18.0100  -28.0980   22.9570 C   0  0  0  0  0  0  0  0  0  0  0  0
  -20.5690  -28.3490   23.2280 C   0  0  0  0  0  3  0  0  0  0  0  0
  -20.6670  -26.9190   22.6510 C   0  0  0  0  0  2  0  0  0  0  0  0
  -19.5640  -26.5990   21.6380 C   0  0  0  0  0  2  0  0  0  0  0  0
  -18.1820  -26.7480   22.2820 C   0  0  0  0  0  2  0  0  0  0  0  0
  -19.1320  -28.8560   23.3860 C   0  0  0  0  0  0  0  0  0  0  0  0
  -18.9170  -30.1180   23.9820 C   0  0  0  0  0  3  0  0  0  0  0  0
  -17.6140  -30.6280   24.1420 C   0  0  0  0  0  3  0  0  0  0  0  0
  -16.5070  -29.8660   23.7290 C   0  0  0  0  0  3  0  0  0  0  0  0
  -16.7050  -28.6010   23.1460 C   0  0  0  0  0  3  0  0  0  0  0  0
  -25.8710  -32.5070   23.8830 C   0  0  0  0  0  3  0  0  0  0  0  0
  -26.3860  -31.7360   25.1590 C   0  0  1  0  0  0  0  0  0  0  0  0
  -25.2920  -31.5070   26.2250 C   0  0  0  0  0  1  0  0  0  0  0  0
  -26.9610  -30.3540   24.7680 C   0  0  0  0  0  1  0  0  0  0  0  0
  -27.5410  -32.5260   25.8160 C   0  0  0  0  0  1  0  0  0  0  0  0
  -25.5690  -33.9090   24.2050 N   0  0  0  0  0  0  0  0  0  0  0  0
  -25.9060  -34.9540   23.4390 C   0  0  0  0  0  0  0  0  0  0  0  0
  -26.5760  -34.8390   22.4080 O   0  0  0  0  0  0  0  0  0  0  0  0
  -24.9780  -34.0730   25.0070 H   0  0  0  0  0  0  0  0  0  0  0  0
  -24.1910  -36.7530   23.0680 C   0  0  0  0  0  1  0  0  0  0  0  0
  -25.4250  -36.3470   23.8890 C   0  0  0  0  0  3  0  0  0  0  0  0
  -27.5600  -37.2210   24.7260 C   0  0  0  0  0  1  0  0  0  0  0  0
  -26.4640  -37.3920   23.7760 N   0  0  0  0  0  0  0  0  0  0  0  0
  -26.0640  -38.3160   23.9150 H   0  0  0  0  0  0  0  0  0  0  0  0
  1 50  1  0
  2  1  1  0
  2  8  1  0
  3  1  2  0
  4  2  1  0
  5  8  2  0
  5  6  1  0
  6  9  2  0
  7 10  2  0
  8  7  1  0
  9 10  1  0
  9 20  1  0
 10 11  1  0
 12 20  1  0
 13 18  1  0
 14 15  1  0
 14 13  1  0
 16 15  1  0
 16 25  1  0
 16 17  1  0
 18 12  1  0
 18 17  1  0
 19 12  2  0
 20 21  1  0
 22 23  2  0
 23 42  1  0
 24 23  1  0
 24 27  1  0
 25 22  1  0
 25 26  1  0
 26 24  2  0
 27 28  1  0
 28 29  2  0
 30 33  1  0
 30 29  1  0
 31 30  2  0
 32 31  1  0
 32 27  2  0
 33 34  1  0
 34 35  1  0
 35 36  2  0
 37 36  1  0
 37 41  1  0
 38 37  2  0
 39 34  2  0
 39 38  1  0
 40 39  1  0
 42 43  1  0
 43 46  1  0
 43 45  1  0
 44 42  2  0
 47 48  1  0
 47 22  1  0
 49 47  1  0
 51 50  1  0
 52 53  1  0
 52 51  2  0
 54 65  2  0
 55 53  1  0
 55 60  1  0
 56 64  1  0
 56 66  1  0
 57 63  1  0
 57 59  1  0
 58 64  1  0
 59 58  1  0
 60 59  2  0
 61 62  1  0
 61 55  2  0
 62 57  2  0
 63 56  1  0
 64 54  1  0
 66 68  2  0
 67 66  1  0
 69 67  1  0
 70 79  2  0
 70 75  1  0
 71 67  1  0
 71 75  1  0
 72 71  1  0
 73 74  1  0
 73 72  1  0
 74 70  1  0
 75 76  2  0
 76 77  1  0
 78 77  2  0
 79 78  1  0
 80 54  1  0
 80 85  1  0
 80 81  1  0
 81 84  1  1
 81 82  1  0
 83 81  1  0
 85 88  1  0
 86 90  1  0
 86 85  1  0
 87 86  2  0
 90 89  1  0
 92 90  1  0
 92 93  1  0
 92 91  1  0
M  ISO  4  12 100  20 100  52 101  53 101
M  END
>  <TORSDO>  (67) 
F 20

>  <SCORE>  (67) 
-14.136

>  <name>  (67) 
66

>  <ligand_id>  (67) 
66

>  <original_smiles>  (67) 
[H]c1c([H])c([H])c2c(c1[H])C([H])([H])C([H])([H])C([H])([H])C2([H])N([H])C(=O)C1([H])N(C(=O)C([H])(N([H])C(=O)C([H])(N([H])C([H])([H])[H])C([H])([H])[H])C(C([H])([H])[H])(C([H])([H])[H])C([H])([H])[H])C([H])([H])c2c([H])c(OC([H])([H])C([H])([H])C([H])([H])C(=O)N([H])c3c([H])c([H])c(N([H])C(=O)N4C([H])([H])C([H])([H])C([H])([H])C([H])(n5nc(-c6c([H])c([H])c(Oc7c([H])c([H])c(F)c([H])c7F)c([H])c6[H])c(C(=O)N([H])[H])c5N([H])[H])C4([H])[H])c(F)c3[H])c([H])c([H])c2C1([H])[H]

>  <smiles>  (67) 
[H]c1c([H])c([H])c2c(c1[H])C([H])([H])C([H])([H])C([H])([H])C2([H])N([H])C(=O)C1([H])N(C(=O)C([H])(N([H])C(=O)C([H])(N([H])C([H])([H])[H])C([H])([H])[H])C(C([H])([H])[H])(C([H])([H])[H])C([H])([H])[H])C([H])([H])c2c([H])c(OC([H])([H])C([H])([H])C([H])([H])C(=O)N([H])c3c([H])c([H])c(N([H])C(=O)N4C([H])([H])C([H])([H])C([H])([H])C([H])(n5nc(-c6c([H])c([H])c(Oc7c([H])c([H])c(F)c([H])c7F)c([H])c6[H])c(C(=O)N([H])[H])c5N([H])[H])C4([H])[H])c(F)c3[H])c([H])c([H])c2C1([H])[H]

$$$$
67:0:0
     RDKit          3D

 95104  0  0  1  0  0  0  0  0999 V2000
  -29.2720  -22.7520   20.3570 C   0  0  0  0  0  3  0  0  0  0  0  0
  -29.3820  -24.1260   20.2860 C   0  0  0  0  0  0  0  0  0  0  0  0
  -31.6210  -24.4530   19.2070 C   0  0  0  0  0  0  0  0  0  0  0  0
  -30.7270  -24.8310   20.3860 C   0  0  0  0  0  2  0  0  0  0  0  0
  -31.9750  -22.9780   19.0160 C   0  0  0  0  0  2  0  0  0  0  0  0
  -31.7230  -22.1090   20.2610 C   0  0  0  0  0  2  0  0  0  0  0  0
  -30.3060  -21.7750   20.4540 N   0  0  0  0  0  0  0  0  0  0  0  0
  -32.0490  -25.3130   18.4350 O   0  0  0  0  0  0  0  0  0  0  0  0
  -30.7030  -18.3100   21.9540 C   0  0  0  0  0  3  0  0  0  0  0  0
  -29.7990  -19.4840   19.6010 C   0  0  0  0  0  3  0  0  0  0  0  0
  -30.3110  -17.4300   20.9090 C   0  0  0  0  0  0  0  0  0  0  0  0
  -30.6460  -19.7290   21.8420 C   0  0  0  0  0  0  0  0  0  0  0  0
  -29.8410  -18.0580   19.7180 C   0  0  0  0  0  0  0  0  0  0  0  0
  -30.1860  -20.3570   20.6520 C   0  0  0  0  0  0  0  0  0  0  0  0
  -31.0870  -20.5700   23.0300 C   0  0  0  0  0  1  0  0  0  0  0  0
  -29.3470  -17.2150   18.5550 C   0  0  0  0  0  1  0  0  0  0  0  0
  -30.1970  -15.8880   21.2240 C   0  0  0  0  0  2  0  0  0  0  0  0
  -30.9870  -14.7380   20.4670 C   0  0  0  0  0  0  0  0  0  0  0  0
  -30.7660  -12.5810   19.2150 C   0  0  0  0  0  2  0  0  0  0  0  0
  -29.8020  -12.7930   18.0250 C   0  0  0  0  0  2  0  0  0  0  0  0
  -28.3280  -12.6270   18.4580 C   0  0  0  0  0  2  0  0  0  0  0  0
  -28.0000  -13.4270   19.7460 C   0  0  0  0  0  3  0  0  0  0  0  0
  -29.0620  -13.1540   20.8350 C   0  0  0  0  0  2  0  0  0  0  0  0
  -30.3750  -13.5250   20.2810 N   0  0  0  0  0  0  0  0  0  0  0  0
  -32.1130  -14.9490   20.0020 O   0  0  0  0  0  0  0  0  0  0  0  0
  -25.6110  -14.0560   20.4630 C   0  0  0  0  0  0  0  0  0  0  0  0
  -24.5340  -13.2920   20.8260 C   0  0  0  0  0  0  0  0  0  0  0  0
  -24.9810  -11.9360   20.7850 C   0  0  0  0  0  0  0  0  0  0  0  0
  -26.6460  -13.1630   20.2250 N   0  0  0  0  0  0  0  0  0  0  0  0
  -26.2710  -11.8830   20.4760 N   0  0  0  0  0  0  0  0  0  0  0  0
  -24.2420  -10.6810   20.9630 C   0  0  0  0  0  0  0  0  0  0  0  0
  -24.6280   -9.7280   21.9330 C   0  0  0  0  0  3  0  0  0  0  0  0
  -23.8880   -8.5370   22.0990 C   0  0  0  0  0  3  0  0  0  0  0  0
  -22.7490   -8.2910   21.2960 C   0  0  0  0  0  0  0  0  0  0  0  0
  -22.3830   -9.2320   20.3170 C   0  0  0  0  0  3  0  0  0  0  0  0
  -23.1240  -10.4140   20.1490 C   0  0  0  0  0  3  0  0  0  0  0  0
  -21.9860   -7.1510   21.3680 O   0  0  0  0  0  0  0  0  0  0  0  0
  -21.8240   -6.4690   22.5480 C   0  0  0  0  0  0  0  0  0  0  0  0
  -21.2640   -7.0800   23.6920 C   0  0  0  0  0  3  0  0  0  0  0  0
  -21.0520   -6.3240   24.8620 C   0  0  0  0  0  3  0  0  0  0  0  0
  -21.3900   -4.9570   24.8870 C   0  0  0  0  0  0  0  0  0  0  0  0
  -21.9410   -4.3460   23.7480 C   0  0  0  0  0  3  0  0  0  0  0  0
  -22.1550   -5.1000   22.5800 C   0  0  0  0  0  0  0  0  0  0  0  0
  -22.6680   -4.5020   21.4780 F   0  0  0  0  0  0  0  0  0  0  0  0
  -21.1790   -4.2270   26.0080 F   0  0  0  0  0  0  0  0  0  0  0  0
  -23.1420  -13.7830   21.1030 C   0  0  0  0  0  0  0  0  0  0  0  0
  -22.4160  -13.0990   21.9800 N   0  0  0  0  0  0  0  0  0  0  0  0
  -22.7060  -14.8060   20.5760 O   0  0  0  0  0  0  0  0  0  0  0  0
  -22.7780  -12.2720   22.4270 H   0  0  0  0  0  0  0  0  0  0  0  0
  -21.4810  -13.4080   22.2090 H   0  0  0  0  0  0  0  0  0  0  0  0
  -25.7900  -15.4250   20.2940 N   0  0  0  0  0  0  0  0  0  0  0  0
  -25.0300  -16.0870   20.4090 H   0  0  0  0  0  0  0  0  0  0  0  0
  -26.6460  -15.8610   19.9730 H   0  0  0  0  0  0  0  0  0  0  0  0
  -28.1670  -25.0830   20.0780 C   0  0  0  0  0  2  0  0  0  0  0  0
  -28.3780  -26.5400   20.2100 O   0  0  0  0  0  0  0  0  0  0  0  0
  -24.6390  -31.9130   23.2050 C   0  0  0  0  0  0  0  0  0  0  0  0
  -27.2460  -27.3650   20.1560 C   0  0  0  0  0  0  0  0  0  0  0  0
  -23.4230  -30.4920   21.5930 C   0  0  0  0  0  3  0  0  0  0  0  0
  -24.8670  -28.9450   20.1630 C   0  0  0  0  0  0  0  0  0  0  0  0
  -25.9560  -30.8330   21.3740 C   0  0  0  0  0  2  0  0  0  0  0  0
  -26.0370  -29.4520   20.7400 C   0  0  0  0  0  0  0  0  0  0  0  0
  -27.2310  -28.6730   20.7280 C   0  0  0  0  0  3  0  0  0  0  0  0
  -26.0490  -26.9100   19.5530 C   0  0  0  0  0  3  0  0  0  0  0  0
  -24.8730  -27.6800   19.5620 C   0  0  0  0  0  3  0  0  0  0  0  0
  -23.6230  -29.8070   20.2160 C   0  0  0  0  0  2  0  0  0  0  0  0
  -24.6920  -31.0970   22.1130 N   0  0  0  0  0  0  0  0  0  0  0  0
  -23.5610  -32.1890   23.7520 O   0  0  0  0  0  0  0  0  0  0  0  0
  -22.7820  -29.4780   22.5700 C   0  0  0  0  0  0  0  0  0  0  0  0
  -21.4590  -29.2810   22.4530 N   0  0  0  0  0  0  0  0  0  0  0  0
  -23.4740  -28.8710   23.3910 O   0  0  0  0  0  0  0  0  0  0  0  0
  -20.9600  -29.8230   21.7620 H   0  0  0  0  0  0  0  0  0  0  0  0
  -18.1020  -28.0420   22.9780 C   0  0  0  0  0  0  0  0  0  0  0  0
  -20.6550  -28.3450   23.2410 C   0  0  0  0  0  3  0  0  0  0  0  0
  -20.7800  -26.9040   22.6930 C   0  0  0  0  0  2  0  0  0  0  0  0
  -19.6840  -26.5460   21.6840 C   0  0  0  0  0  2  0  0  0  0  0  0
  -18.2980  -26.6840   22.3240 C   0  0  0  0  0  2  0  0  0  0  0  0
  -19.2090  -28.8280   23.3950 C   0  0  0  0  0  0  0  0  0  0  0  0
  -18.9710  -30.0970   23.9650 C   0  0  0  0  0  3  0  0  0  0  0  0
  -17.6590  -30.5820   24.1210 C   0  0  0  0  0  3  0  0  0  0  0  0
  -16.5670  -29.7930   23.7210 C   0  0  0  0  0  3  0  0  0  0  0  0
  -16.7890  -28.5240   23.1580 C   0  0  0  0  0  3  0  0  0  0  0  0
  -25.9270  -32.5590   23.8050 C   0  0  0  0  0  3  0  0  0  0  0  0
  -26.4750  -31.7920   25.0710 C   0  0  1  0  0  0  0  0  0  0  0  0
  -25.4000  -31.5370   26.1560 C   0  0  0  0  0  1  0  0  0  0  0  0
  -27.0700  -30.4230   24.6690 C   0  0  0  0  0  1  0  0  0  0  0  0
  -27.6250  -32.6010   25.7150 C   0  0  0  0  0  1  0  0  0  0  0  0
  -25.6060  -33.9530   24.1420 N   0  0  0  0  0  0  0  0  0  0  0  0
  -25.9290  -35.0120   23.3860 C   0  0  0  0  0  0  0  0  0  0  0  0
  -26.5950  -34.9170   22.3520 O   0  0  0  0  0  0  0  0  0  0  0  0
  -25.0120  -34.1000   24.9440 H   0  0  0  0  0  0  0  0  0  0  0  0
  -24.2000  -36.8050   23.0240 C   0  0  0  0  0  1  0  0  0  0  0  0
  -25.4290  -36.3940   23.8500 C   0  0  0  0  0  3  0  0  0  0  0  0
  -27.5490  -37.2720   24.7260 C   0  0  0  0  0  1  0  0  0  0  0  0
  -26.4590  -37.4530   23.7710 N   0  0  0  0  0  0  0  0  0  0  0  0
  -26.0440  -38.3670   23.9360 H   0  0  0  0  0  0  0  0  0  0  0  0
  1  7  1  0
  2  1  2  0
  2  4  1  0
  3  4  1  0
  5  3  1  0
  5  6  1  0
  6  7  1  0
  7 14  1  0
  8  3  2  0
 10 13  2  0
 10 14  1  0
 11 17  1  0
 11  9  2  0
 12  9  1  0
 12 15  1  0
 13 11  1  0
 14 12  2  0
 16 13  1  0
 18 17  1  0
 19 24  1  0
 20 21  1  0
 20 19  1  0
 22 21  1  0
 22 29  1  0
 22 23  1  0
 24 18  1  0
 24 23  1  0
 25 18  2  0
 26 27  2  0
 27 46  1  0
 28 27  1  0
 28 31  1  0
 29 26  1  0
 29 30  1  0
 30 28  2  0
 31 32  1  0
 32 33  2  0
 34 37  1  0
 34 33  1  0
 35 34  2  0
 36 35  1  0
 36 31  2  0
 37 38  1  0
 38 43  2  0
 38 39  1  0
 39 40  2  0
 40 41  1  0
 41 45  1  0
 42 41  2  0
 43 42  1  0
 44 43  1  0
 46 47  1  0
 47 50  1  0
 47 49  1  0
 48 46  2  0
 51 52  1  0
 51 26  1  0
 53 51  1  0
 54 55  1  0
 54  2  1  0
 56 67  2  0
 57 55  1  0
 57 62  1  0
 58 66  1  0
 58 68  1  0
 59 65  1  0
 59 61  1  0
 60 66  1  0
 61 60  1  0
 62 61  2  0
 63 64  1  0
 63 57  2  0
 64 59  2  0
 65 58  1  0
 66 56  1  0
 68 70  2  0
 69 68  1  0
 71 69  1  0
 72 81  2  0
 72 77  1  0
 73 69  1  0
 73 77  1  0
 74 73  1  0
 75 76  1  0
 75 74  1  0
 76 72  1  0
 77 78  2  0
 78 79  1  0
 80 79  2  0
 81 80  1  0
 82 56  1  0
 82 87  1  0
 82 83  1  0
 83 86  1  1
 83 84  1  0
 85 83  1  0
 87 90  1  0
 88 92  1  0
 88 87  1  0
 89 88  2  0
 92 91  1  0
 94 92  1  0
 94 95  1  0
 94 93  1  0
M  ISO  4  17 100  18 100  54 101  55 101
M  END
>  <TORSDO>  (68) 
F 19

>  <SCORE>  (68) 
-14.227

>  <name>  (68) 
67

>  <ligand_id>  (68) 
67

>  <original_smiles>  (68) 
[H]C1=C(C([H])([H])Oc2c([H])c([H])c3c(c2[H])C([H])([H])N(C(=O)C([H])(N([H])C(=O)C([H])(N([H])C([H])([H])[H])C([H])([H])[H])C(C([H])([H])[H])(C([H])([H])[H])C([H])([H])[H])C([H])(C(=O)N([H])C2([H])c4c([H])c([H])c([H])c([H])c4C([H])([H])C([H])([H])C2([H])[H])C3([H])[H])C([H])([H])C(=O)C([H])([H])C([H])([H])N1c1c([H])c(C([H])([H])[H])c(C([H])([H])C(=O)N2C([H])([H])C([H])([H])C([H])([H])C([H])(n3nc(-c4c([H])c([H])c(Oc5c([H])c([H])c(F)c([H])c5F)c([H])c4[H])c(C(=O)N([H])[H])c3N([H])[H])C2([H])[H])c([H])c1C([H])([H])[H]

>  <smiles>  (68) 
[H]C1=C(C([H])([H])Oc2c([H])c([H])c3c(c2[H])C([H])([H])N(C(=O)C([H])(N([H])C(=O)C([H])(N([H])C([H])([H])[H])C([H])([H])[H])C(C([H])([H])[H])(C([H])([H])[H])C([H])([H])[H])C([H])(C(=O)N([H])C2([H])c4c([H])c([H])c([H])c([H])c4C([H])([H])C([H])([H])C2([H])[H])C3([H])[H])C([H])([H])C(=O)C([H])([H])C([H])([H])N1c1c([H])c(C([H])([H])[H])c(C([H])([H])C(=O)N2C([H])([H])C([H])([H])C([H])([H])C([H])(n3nc(-c4c([H])c([H])c(Oc5c([H])c([H])c(F)c([H])c5F)c([H])c4[H])c(C(=O)N([H])[H])c3N([H])[H])C2([H])[H])c([H])c1C([H])([H])[H]

$$$$
68:0:0
     RDKit          3D

 93101  0  0  1  0  0  0  0  0999 V2000
  -29.7920  -20.7170   21.3370 O   0  0  0  0  0  0  0  0  0  0  0  0
  -29.0920  -18.3910   18.5150 C   0  0  0  0  0  3  0  0  0  0  0  0
  -29.2410  -19.5910   19.2310 C   0  0  0  0  0  3  0  0  0  0  0  0
  -29.9260  -18.3050   21.1770 C   0  0  0  0  0  3  0  0  0  0  0  0
  -29.7630  -17.0750   20.4790 C   0  0  0  0  0  0  0  0  0  0  0  0
  -29.3360  -17.1420   19.1240 C   0  0  0  0  0  0  0  0  0  0  0  0
  -29.6480  -19.5650   20.5800 C   0  0  0  0  0  0  0  0  0  0  0  0
  -29.1080  -16.0120   18.3490 N   0  0  0  0  0  0  0  0  0  0  0  0
  -29.0390  -16.1430   17.3440 H   0  0  0  0  0  0  0  0  0  0  0  0
  -29.6080  -15.1640   18.5810 H   0  0  0  0  0  0  0  0  0  0  0  0
  -29.9020  -15.7490   21.2810 C   0  0  0  0  0  2  0  0  0  0  0  0
  -30.6300  -14.5370   20.6170 C   0  0  0  0  0  0  0  0  0  0  0  0
  -30.4030  -12.3560   19.4540 C   0  0  0  0  0  2  0  0  0  0  0  0
  -29.4830  -12.5280   18.2270 C   0  0  0  0  0  2  0  0  0  0  0  0
  -27.9910  -12.4350   18.6180 C   0  0  0  0  0  2  0  0  0  0  0  0
  -27.6340  -13.2610   19.8850 C   0  0  0  0  0  3  0  0  0  0  0  0
  -28.6640  -12.9990   21.0040 C   0  0  0  0  0  2  0  0  0  0  0  0
  -29.9930  -13.3370   20.4710 N   0  0  0  0  0  0  0  0  0  0  0  0
  -31.7620  -14.7200   20.1550 O   0  0  0  0  0  0  0  0  0  0  0  0
  -25.2200  -13.8990   20.5070 C   0  0  0  0  0  0  0  0  0  0  0  0
  -24.1370  -13.1370   20.8600 C   0  0  0  0  0  0  0  0  0  0  0  0
  -24.5920  -11.7830   20.8640 C   0  0  0  0  0  0  0  0  0  0  0  0
  -26.2670  -13.0060   20.3260 N   0  0  0  0  0  0  0  0  0  0  0  0
  -25.8900  -11.7310   20.5960 N   0  0  0  0  0  0  0  0  0  0  0  0
  -23.8560  -10.5270   21.0530 C   0  0  0  0  0  0  0  0  0  0  0  0
  -24.2720   -9.5610   21.9950 C   0  0  0  0  0  3  0  0  0  0  0  0
  -23.5360   -8.3700   22.1720 C   0  0  0  0  0  3  0  0  0  0  0  0
  -22.3710   -8.1360   21.4050 C   0  0  0  0  0  0  0  0  0  0  0  0
  -21.9740   -9.0900   20.4520 C   0  0  0  0  0  3  0  0  0  0  0  0
  -22.7100  -10.2730   20.2740 C   0  0  0  0  0  3  0  0  0  0  0  0
  -21.6080   -6.9960   21.4890 O   0  0  0  0  0  0  0  0  0  0  0  0
  -21.5560   -6.2490   22.6390 C   0  0  0  0  0  0  0  0  0  0  0  0
  -21.1470   -6.8060   23.8710 C   0  0  0  0  0  3  0  0  0  0  0  0
  -21.0410   -5.9870   25.0130 C   0  0  0  0  0  3  0  0  0  0  0  0
  -21.3330   -4.6120   24.9240 C   0  0  0  0  0  0  0  0  0  0  0  0
  -21.7360   -4.0560   23.6970 C   0  0  0  0  0  3  0  0  0  0  0  0
  -21.8430   -4.8720   22.5580 C   0  0  0  0  0  0  0  0  0  0  0  0
  -22.2110   -4.3260   21.3740 F   0  0  0  0  0  0  0  0  0  0  0  0
  -21.2240   -3.8240   26.0190 F   0  0  0  0  0  0  0  0  0  0  0  0
  -22.7350  -13.6240   21.0840 C   0  0  0  0  0  0  0  0  0  0  0  0
  -21.9820  -12.9440   21.9420 N   0  0  0  0  0  0  0  0  0  0  0  0
  -22.3140  -14.6410   20.5350 O   0  0  0  0  0  0  0  0  0  0  0  0
  -22.3350  -12.1210   22.4060 H   0  0  0  0  0  0  0  0  0  0  0  0
  -21.0400  -13.2530   22.1400 H   0  0  0  0  0  0  0  0  0  0  0  0
  -25.4000  -15.2630   20.3100 N   0  0  0  0  0  0  0  0  0  0  0  0
  -24.6370  -15.9290   20.3650 H   0  0  0  0  0  0  0  0  0  0  0  0
  -26.2610  -15.6750   19.9650 H   0  0  0  0  0  0  0  0  0  0  0  0
  -28.9480  -21.8590   21.0730 C   0  0  0  0  0  2  0  0  0  0  0  0
  -29.6250  -22.9840   20.2400 C   0  0  0  0  0  2  0  0  0  0  0  0
  -29.3030  -24.4250   20.7040 C   0  0  0  0  0  0  0  0  0  0  0  0
  -29.8400  -24.8880   21.7160 O   0  0  0  0  0  0  0  0  0  0  0  0
  -28.2980  -25.2650   19.8840 C   0  0  0  0  0  2  0  0  0  0  0  0
  -28.3810  -26.6800   20.1950 O   0  0  0  0  0  0  0  0  0  0  0  0
  -24.5840  -31.8950   23.2460 C   0  0  0  0  0  0  0  0  0  0  0  0
  -27.2140  -27.4280   20.1550 C   0  0  0  0  0  0  0  0  0  0  0  0
  -23.3740  -30.4980   21.6050 C   0  0  0  0  0  3  0  0  0  0  0  0
  -24.8240  -28.9640   20.1710 C   0  0  0  0  0  0  0  0  0  0  0  0
  -25.9040  -30.8470   21.4070 C   0  0  0  0  0  2  0  0  0  0  0  0
  -25.9860  -29.4760   20.7600 C   0  0  0  0  0  0  0  0  0  0  0  0
  -27.1820  -28.7160   20.7500 C   0  0  0  0  0  3  0  0  0  0  0  0
  -26.0300  -26.9480   19.5430 C   0  0  0  0  0  3  0  0  0  0  0  0
  -24.8420  -27.7000   19.5600 C   0  0  0  0  0  3  0  0  0  0  0  0
  -23.5800  -29.8230   20.2240 C   0  0  0  0  0  2  0  0  0  0  0  0
  -24.6390  -31.0940   22.1440 N   0  0  0  0  0  0  0  0  0  0  0  0
  -23.5020  -32.1680   23.7860 O   0  0  0  0  0  0  0  0  0  0  0  0
  -22.7230  -29.4740   22.5630 C   0  0  0  0  0  0  0  0  0  0  0  0
  -21.3990  -29.2870   22.4290 N   0  0  0  0  0  0  0  0  0  0  0  0
  -23.4050  -28.8530   23.3830 O   0  0  0  0  0  0  0  0  0  0  0  0
  -20.9100  -29.8400   21.7400 H   0  0  0  0  0  0  0  0  0  0  0  0
  -18.0300  -28.0680   22.9010 C   0  0  0  0  0  0  0  0  0  0  0  0
  -20.5820  -28.3470   23.1970 C   0  0  0  0  0  3  0  0  0  0  0  0
  -20.7020  -26.9130   22.6310 C   0  0  0  0  0  2  0  0  0  0  0  0
  -19.6130  -26.5760   21.6070 C   0  0  0  0  0  2  0  0  0  0  0  0
  -18.2240  -26.7160   22.2350 C   0  0  0  0  0  2  0  0  0  0  0  0
  -19.1380  -28.8400   23.3370 C   0  0  0  0  0  0  0  0  0  0  0  0
  -18.9040  -30.1070   23.9170 C   0  0  0  0  0  3  0  0  0  0  0  0
  -17.5950  -30.6000   24.0650 C   0  0  0  0  0  3  0  0  0  0  0  0
  -16.5010  -29.8250   23.6460 C   0  0  0  0  0  3  0  0  0  0  0  0
  -16.7200  -28.5600   23.0700 C   0  0  0  0  0  3  0  0  0  0  0  0
  -25.8700  -32.5250   23.8650 C   0  0  0  0  0  3  0  0  0  0  0  0
  -25.5620  -33.9220   24.1940 N   0  0  0  0  0  0  0  0  0  0  0  0
  -25.8980  -34.9740   23.4360 C   0  0  0  0  0  0  0  0  0  0  0  0
  -26.5690  -34.8700   22.4060 O   0  0  0  0  0  0  0  0  0  0  0  0
  -24.9630  -34.0770   24.9920 H   0  0  0  0  0  0  0  0  0  0  0  0
  -24.1710  -36.7680   23.0780 C   0  0  0  0  0  1  0  0  0  0  0  0
  -25.4110  -36.3630   23.8910 C   0  0  0  0  0  3  0  0  0  0  0  0
  -27.5470  -37.2420   24.7250 C   0  0  0  0  0  1  0  0  0  0  0  0
  -26.4440  -37.4160   23.7820 N   0  0  0  0  0  0  0  0  0  0  0  0
  -26.0380  -38.3360   23.9350 H   0  0  0  0  0  0  0  0  0  0  0  0
  -26.3880  -31.7510   25.1390 C   0  0  1  0  0  0  0  0  0  0  0  0
  -25.2960  -31.5130   26.2080 C   0  0  0  0  0  1  0  0  0  0  0  0
  -26.9710  -30.3740   24.7450 C   0  0  0  0  0  1  0  0  0  0  0  0
  -27.5410  -32.5450   25.8000 C   0  0  0  0  0  1  0  0  0  0  0  0
  2  6  2  0
  2  3  1  0
  3  7  2  0
  5  4  2  0
  5 11  1  0
  6  5  1  0
  7  4  1  0
  7  1  1  0
  8 10  1  0
  8  6  1  0
  9  8  1  0
 12 11  1  0
 13 18  1  0
 14 15  1  0
 14 13  1  0
 16 15  1  0
 16 23  1  0
 16 17  1  0
 18 12  1  0
 18 17  1  0
 19 12  2  0
 20 21  2  0
 21 22  1  0
 21 40  1  0
 22 25  1  0
 23 20  1  0
 23 24  1  0
 24 22  2  0
 25 26  1  0
 26 27  2  0
 28 31  1  0
 28 27  1  0
 29 28  2  0
 30 29  1  0
 30 25  2  0
 31 32  1  0
 32 33  1  0
 33 34  2  0
 35 34  1  0
 35 39  1  0
 36 35  2  0
 37 32  2  0
 37 36  1  0
 38 37  1  0
 40 41  1  0
 41 44  1  0
 41 43  1  0
 42 40  2  0
 45 46  1  0
 45 20  1  0
 47 45  1  0
 48  1  1  0
 49 50  1  0
 49 48  1  0
 50 51  2  0
 52 53  1  0
 52 50  1  0
 54 65  2  0
 55 53  1  0
 55 60  1  0
 56 64  1  0
 56 66  1  0
 57 63  1  0
 57 59  1  0
 58 64  1  0
 59 58  1  0
 60 59  2  0
 61 62  1  0
 61 55  2  0
 62 57  2  0
 63 56  1  0
 64 54  1  0
 66 68  2  0
 67 66  1  0
 69 67  1  0
 70 79  2  0
 70 75  1  0
 71 67  1  0
 71 75  1  0
 72 71  1  0
 73 74  1  0
 73 72  1  0
 74 70  1  0
 75 76  2  0
 76 77  1  0
 78 77  2  0
 79 78  1  0
 80 54  1  0
 80 81  1  0
 80 90  1  0
 81 84  1  0
 82 86  1  0
 82 81  1  0
 83 82  2  0
 86 85  1  0
 88 86  1  0
 88 89  1  0
 88 87  1  0
 90 93  1  1
 90 91  1  0
 92 90  1  0
M  ISO  4  11 100  12 100  52 101  53 101
M  END
>  <TORSDO>  (69) 
F 23

>  <SCORE>  (69) 
-12.842

>  <name>  (69) 
68

>  <ligand_id>  (69) 
68

>  <original_smiles>  (69) 
[H]c1c([H])c([H])c2c(c1[H])C([H])([H])C([H])([H])C([H])([H])C2([H])N([H])C(=O)C1([H])N(C(=O)C([H])(N([H])C(=O)C([H])(N([H])C([H])([H])[H])C([H])([H])[H])C(C([H])([H])[H])(C([H])([H])[H])C([H])([H])[H])C([H])([H])c2c([H])c(OC([H])([H])C(=O)C([H])([H])C([H])([H])Oc3c([H])c([H])c(N([H])[H])c(C([H])([H])C(=O)N4C([H])([H])C([H])([H])C([H])([H])C([H])(n5nc(-c6c([H])c([H])c(Oc7c([H])c([H])c(F)c([H])c7F)c([H])c6[H])c(C(=O)N([H])[H])c5N([H])[H])C4([H])[H])c3[H])c([H])c([H])c2C1([H])[H]

>  <smiles>  (69) 
[H]c1c([H])c([H])c2c(c1[H])C([H])([H])C([H])([H])C([H])([H])C2([H])N([H])C(=O)C1([H])N(C(=O)C([H])(N([H])C(=O)C([H])(N([H])C([H])([H])[H])C([H])([H])[H])C(C([H])([H])[H])(C([H])([H])[H])C([H])([H])[H])C([H])([H])c2c([H])c(OC([H])([H])C(=O)C([H])([H])C([H])([H])Oc3c([H])c([H])c(N([H])[H])c(C([H])([H])C(=O)N4C([H])([H])C([H])([H])C([H])([H])C([H])(n5nc(-c6c([H])c([H])c(Oc7c([H])c([H])c(F)c([H])c7F)c([H])c6[H])c(C(=O)N([H])[H])c5N([H])[H])C4([H])[H])c3[H])c([H])c([H])c2C1([H])[H]

$$$$
69:0:0
     RDKit          3D

 96105  0  0  1  0  0  0  0  0999 V2000
  -29.0230  -23.9440   20.5920 C   0  0  0  0  0  0  0  0  0  0  0  0
  -28.9340  -22.5720   20.4150 C   0  0  0  0  0  0  0  0  0  0  0  0
  -30.5950  -22.0400   22.1110 C   0  0  0  0  0  0  0  0  0  0  0  0
  -30.0870  -24.5060   21.5050 C   0  0  0  0  0  2  0  0  0  0  0  0
  -30.5090  -23.4990   22.5810 C   0  0  0  0  0  2  0  0  0  0  0  0
  -27.9090  -21.9810   19.4500 C   0  0  0  0  0  1  0  0  0  0  0  0
  -29.7920  -21.6010   21.0930 N   0  0  0  0  0  0  0  0  0  0  0  0
  -31.3790  -21.3100   22.7310 O   0  0  0  0  0  0  0  0  0  0  0  0
  -28.6660  -19.2960   21.0130 C   0  0  0  0  0  3  0  0  0  0  0  0
  -28.7250  -17.8800   20.8200 C   0  0  0  0  0  3  0  0  0  0  0  0
  -31.0000  -19.4470   20.4750 C   0  0  0  0  0  3  0  0  0  0  0  0
  -29.8000  -20.1360   20.8290 C   0  0  0  0  0  0  0  0  0  0  0  0
  -29.9220  -17.2030   20.4570 C   0  0  0  0  0  0  0  0  0  0  0  0
  -31.0710  -18.0320   20.3010 C   0  0  0  0  0  0  0  0  0  0  0  0
  -30.6100  -14.7330   20.3370 C   0  0  0  0  0  0  0  0  0  0  0  0
  -30.4110  -12.4320   19.4170 C   0  0  0  0  0  2  0  0  0  0  0  0
  -29.4820  -12.4410   18.1830 C   0  0  0  0  0  2  0  0  0  0  0  0
  -27.9990  -12.3330   18.5990 C   0  0  0  0  0  2  0  0  0  0  0  0
  -27.6120  -13.2340   19.8050 C   0  0  0  0  0  3  0  0  0  0  0  0
  -28.6730  -13.1980   20.9250 C   0  0  0  0  0  2  0  0  0  0  0  0
  -29.9670  -13.5180   20.3100 N   0  0  0  0  0  0  0  0  0  0  0  0
  -31.8350  -14.8000   20.1950 O   0  0  0  0  0  0  0  0  0  0  0  0
  -29.6500  -15.8900   18.4730 C   0  0  0  0  0  1  0  0  0  0  0  0
  -29.8640  -15.8310   19.9340 N   0  0  0  0  0  0  0  0  0  0  0  0
  -25.2130  -13.8270   20.4880 C   0  0  0  0  0  0  0  0  0  0  0  0
  -24.1470  -13.0510   20.8520 C   0  0  0  0  0  0  0  0  0  0  0  0
  -24.6200  -11.7030   20.8510 C   0  0  0  0  0  0  0  0  0  0  0  0
  -26.2660  -12.9480   20.2890 N   0  0  0  0  0  0  0  0  0  0  0  0
  -25.9160  -11.6680   20.5680 N   0  0  0  0  0  0  0  0  0  0  0  0
  -23.8990  -10.4380   21.0450 C   0  0  0  0  0  0  0  0  0  0  0  0
  -24.3400   -9.4770   21.9810 C   0  0  0  0  0  3  0  0  0  0  0  0
  -23.6220   -8.2770   22.1640 C   0  0  0  0  0  3  0  0  0  0  0  0
  -22.4490   -8.0290   21.4110 C   0  0  0  0  0  0  0  0  0  0  0  0
  -22.0290   -8.9790   20.4630 C   0  0  0  0  0  3  0  0  0  0  0  0
  -22.7480  -10.1720   20.2770 C   0  0  0  0  0  3  0  0  0  0  0  0
  -21.7030   -6.8800   21.5030 O   0  0  0  0  0  0  0  0  0  0  0  0
  -21.6690   -6.1340   22.6540 C   0  0  0  0  0  0  0  0  0  0  0  0
  -21.2610   -6.6870   23.8880 C   0  0  0  0  0  3  0  0  0  0  0  0
  -21.1740   -5.8690   25.0310 C   0  0  0  0  0  3  0  0  0  0  0  0
  -21.4860   -4.4990   24.9410 C   0  0  0  0  0  0  0  0  0  0  0  0
  -21.8860   -3.9460   23.7130 C   0  0  0  0  0  3  0  0  0  0  0  0
  -21.9740   -4.7610   22.5720 C   0  0  0  0  0  0  0  0  0  0  0  0
  -22.3390   -4.2190   21.3850 F   0  0  0  0  0  0  0  0  0  0  0  0
  -21.3950   -3.7090   26.0380 F   0  0  0  0  0  0  0  0  0  0  0  0
  -22.7420  -13.5220   21.0920 C   0  0  0  0  0  0  0  0  0  0  0  0
  -22.0070  -12.8350   21.9600 N   0  0  0  0  0  0  0  0  0  0  0  0
  -22.3040  -14.5330   20.5460 O   0  0  0  0  0  0  0  0  0  0  0  0
  -22.3760  -12.0180   22.4240 H   0  0  0  0  0  0  0  0  0  0  0  0
  -21.0640  -13.1330   22.1670 H   0  0  0  0  0  0  0  0  0  0  0  0
  -25.3700  -15.1960   20.2890 N   0  0  0  0  0  0  0  0  0  0  0  0
  -24.5950  -15.8440   20.3660 H   0  0  0  0  0  0  0  0  0  0  0  0
  -26.2220  -15.6330   19.9610 H   0  0  0  0  0  0  0  0  0  0  0  0
  -32.2650  -17.4870   19.9230 O   0  0  0  0  0  0  0  0  0  0  0  0
  -32.2410  -16.5270   19.9270 H   0  0  0  0  0  0  0  0  0  0  0  0
  -28.0990  -25.0230   19.9140 C   0  0  0  0  0  2  0  0  0  0  0  0
  -28.3150  -26.4690   20.1840 O   0  0  0  0  0  0  0  0  0  0  0  0
  -24.6230  -31.8690   23.2230 C   0  0  0  0  0  0  0  0  0  0  0  0
  -27.2030  -27.3300   20.1130 C   0  0  0  0  0  0  0  0  0  0  0  0
  -23.4010  -30.4780   21.5890 C   0  0  0  0  0  3  0  0  0  0  0  0
  -24.8380  -28.9440   20.1330 C   0  0  0  0  0  0  0  0  0  0  0  0
  -25.9380  -30.8010   21.3790 C   0  0  0  0  0  2  0  0  0  0  0  0
  -26.0110  -29.4280   20.7240 C   0  0  0  0  0  0  0  0  0  0  0  0
  -27.1960  -28.6310   20.7080 C   0  0  0  0  0  3  0  0  0  0  0  0
  -26.0090  -26.9160   19.4740 C   0  0  0  0  0  3  0  0  0  0  0  0
  -24.8390  -27.6940   19.4980 C   0  0  0  0  0  3  0  0  0  0  0  0
  -23.5990  -29.8120   20.2020 C   0  0  0  0  0  2  0  0  0  0  0  0
  -24.6740  -31.0660   22.1190 N   0  0  0  0  0  0  0  0  0  0  0  0
  -23.5450  -32.1440   23.7720 O   0  0  0  0  0  0  0  0  0  0  0  0
  -22.7510  -29.4560   22.5510 C   0  0  0  0  0  0  0  0  0  0  0  0
  -21.4240  -29.2750   22.4360 N   0  0  0  0  0  0  0  0  0  0  0  0
  -23.4390  -28.8270   23.3600 O   0  0  0  0  0  0  0  0  0  0  0  0
  -20.9280  -29.8340   21.7550 H   0  0  0  0  0  0  0  0  0  0  0  0
  -18.0560  -28.0660   22.9590 C   0  0  0  0  0  0  0  0  0  0  0  0
  -20.6150  -28.3340   23.2110 C   0  0  0  0  0  3  0  0  0  0  0  0
  -20.7170  -26.9030   22.6330 C   0  0  0  0  0  2  0  0  0  0  0  0
  -19.6090  -26.5790   21.6270 C   0  0  0  0  0  2  0  0  0  0  0  0
  -18.2310  -26.7180   22.2800 C   0  0  0  0  0  2  0  0  0  0  0  0
  -19.1740  -28.8310   23.3820 C   0  0  0  0  0  0  0  0  0  0  0  0
  -18.9550  -30.0940   23.9770 C   0  0  0  0  0  3  0  0  0  0  0  0
  -17.6500  -30.5900   24.1530 C   0  0  0  0  0  3  0  0  0  0  0  0
  -16.5450  -29.8210   23.7460 C   0  0  0  0  0  3  0  0  0  0  0  0
  -16.7490  -28.5610   23.1560 C   0  0  0  0  0  3  0  0  0  0  0  0
  -25.9130  -32.4980   23.8320 C   0  0  0  0  0  3  0  0  0  0  0  0
  -26.4430  -31.7230   25.1010 C   0  0  1  0  0  0  0  0  0  0  0  0
  -25.3610  -31.4850   26.1800 C   0  0  0  0  0  1  0  0  0  0  0  0
  -27.0180  -30.3450   24.7010 C   0  0  0  0  0  1  0  0  0  0  0  0
  -27.6040  -32.5130   25.7500 C   0  0  0  0  0  1  0  0  0  0  0  0
  -25.6090  -33.8960   24.1700 N   0  0  0  0  0  0  0  0  0  0  0  0
  -25.9260  -34.9510   23.4060 C   0  0  0  0  0  0  0  0  0  0  0  0
  -26.5760  -34.8480   22.3620 O   0  0  0  0  0  0  0  0  0  0  0  0
  -25.0290  -34.0500   24.9820 H   0  0  0  0  0  0  0  0  0  0  0  0
  -24.1860  -36.7380   23.0920 C   0  0  0  0  0  1  0  0  0  0  0  0
  -25.4470  -36.3380   23.8740 C   0  0  0  0  0  3  0  0  0  0  0  0
  -27.6010  -37.2270   24.6480 C   0  0  0  0  0  1  0  0  0  0  0  0
  -26.4760  -37.3930   23.7340 N   0  0  0  0  0  0  0  0  0  0  0  0
  -26.0720  -38.3130   23.8910 H   0  0  0  0  0  0  0  0  0  0  0  0
  1  4  1  0
  2  1  2  0
  2  7  1  0
  3  5  1  0
  3  8  2  0
  4  5  1  0
  6  2  1  0
  7  3  1  0
 10  9  2  0
 11 12  2  0
 12  9  1  0
 12  7  1  0
 13 10  1  0
 14 13  2  0
 14 11  1  0
 16 21  1  0
 17 18  1  0
 17 16  1  0
 19 18  1  0
 19 28  1  0
 19 20  1  0
 21 15  1  0
 21 20  1  0
 22 15  2  0
 23 24  1  0
 24 15  1  0
 24 13  1  0
 25 26  2  0
 26 45  1  0
 27 26  1  0
 27 30  1  0
 28 25  1  0
 28 29  1  0
 29 27  2  0
 30 31  1  0
 31 32  2  0
 33 36  1  0
 33 32  1  0
 34 33  2  0
 35 34  1  0
 35 30  2  0
 36 37  1  0
 37 38  1  0
 38 39  2  0
 40 39  1  0
 40 44  1  0
 41 40  2  0
 42 37  2  0
 42 41  1  0
 43 42  1  0
 45 46  1  0
 46 49  1  0
 46 48  1  0
 47 45  2  0
 50 51  1  0
 50 25  1  0
 52 50  1  0
 53 54  1  0
 53 14  1  0
 55 56  1  0
 55  1  1  0
 57 68  2  0
 58 56  1  0
 58 63  1  0
 59 67  1  0
 59 69  1  0
 60 66  1  0
 60 62  1  0
 61 67  1  0
 62 61  1  0
 63 62  2  0
 64 65  1  0
 64 58  2  0
 65 60  2  0
 66 59  1  0
 67 57  1  0
 69 71  2  0
 70 69  1  0
 72 70  1  0
 73 82  2  0
 73 78  1  0
 74 70  1  0
 74 78  1  0
 75 74  1  0
 76 77  1  0
 76 75  1  0
 77 73  1  0
 78 79  2  0
 79 80  1  0
 81 80  2  0
 82 81  1  0
 83 57  1  0
 83 88  1  0
 83 84  1  0
 84 87  1  1
 84 85  1  0
 86 84  1  0
 88 91  1  0
 89 93  1  0
 89 88  1  0
 90 89  2  0
 93 92  1  0
 95 93  1  0
 95 96  1  0
 95 94  1  0
M  ISO  4  15 100  24 100  55 101  56 101
M  END
>  <TORSDO>  (70) 
F 19

>  <SCORE>  (70) 
-13.717

>  <name>  (70) 
69

>  <ligand_id>  (70) 
69

>  <original_smiles>  (70) 
[H]Oc1c([H])c(N2C(=O)C([H])([H])C([H])([H])C(C([H])([H])Oc3c([H])c([H])c4c(c3[H])C([H])([H])N(C(=O)C([H])(N([H])C(=O)C([H])(N([H])C([H])([H])[H])C([H])([H])[H])C(C([H])([H])[H])(C([H])([H])[H])C([H])([H])[H])C([H])(C(=O)N([H])C3([H])c5c([H])c([H])c([H])c([H])c5C([H])([H])C([H])([H])C3([H])[H])C4([H])[H])=C2C([H])([H])[H])c([H])c([H])c1N(C(=O)N1C([H])([H])C([H])([H])C([H])([H])C([H])(n2nc(-c3c([H])c([H])c(Oc4c([H])c([H])c(F)c([H])c4F)c([H])c3[H])c(C(=O)N([H])[H])c2N([H])[H])C1([H])[H])C([H])([H])[H]

>  <smiles>  (70) 
[H]Oc1c([H])c(N2C(=O)C([H])([H])C([H])([H])C(C([H])([H])Oc3c([H])c([H])c4c(c3[H])C([H])([H])N(C(=O)C([H])(N([H])C(=O)C([H])(N([H])C([H])([H])[H])C([H])([H])[H])C(C([H])([H])[H])(C([H])([H])[H])C([H])([H])[H])C([H])(C(=O)N([H])C3([H])c5c([H])c([H])c([H])c([H])c5C([H])([H])C([H])([H])C3([H])[H])C4([H])[H])=C2C([H])([H])[H])c([H])c([H])c1N(C(=O)N1C([H])([H])C([H])([H])C([H])([H])C([H])(n2nc(-c3c([H])c([H])c(Oc4c([H])c([H])c(F)c([H])c4F)c([H])c3[H])c(C(=O)N([H])[H])c2N([H])[H])C1([H])[H])C([H])([H])[H]

$$$$
70:0:0
     RDKit          3D

 96105  0  0  1  0  0  0  0  0999 V2000
  -27.3470  -24.5430   20.4430 C   0  0  0  0  0  3  0  0  0  0  0  0
  -27.4590  -23.3500   19.7570 C   0  0  0  0  0  3  0  0  0  0  0  0
  -26.5080  -24.4640   21.6970 C   0  0  0  0  0  0  0  0  0  0  0  0
  -25.4910  -23.3090   21.7070 C   0  0  0  0  0  2  0  0  0  0  0  0
  -26.2250  -21.9770   21.4500 C   0  0  0  0  0  2  0  0  0  0  0  0
  -26.9570  -23.3280   18.3120 C   0  0  0  0  0  1  0  0  0  0  0  0
  -27.1780  -22.0810   20.3170 N   0  0  0  0  0  0  0  0  0  0  0  0
  -26.5520  -25.2570   22.6540 O   0  0  0  0  0  0  0  0  0  0  0  0
  -28.5670  -18.6920   19.1810 C   0  0  0  0  0  3  0  0  0  0  0  0
  -27.7110  -19.8190   19.3430 C   0  0  0  0  0  3  0  0  0  0  0  0
  -29.2620  -20.8420   20.8500 C   0  0  0  0  0  3  0  0  0  0  0  0
  -29.8250  -18.6560   19.8280 C   0  0  0  0  0  0  0  0  0  0  0  0
  -28.0310  -20.9290   20.1580 C   0  0  0  0  0  0  0  0  0  0  0  0
  -30.1510  -19.7550   20.6570 C   0  0  0  0  0  0  0  0  0  0  0  0
  -31.3550  -19.7720   21.2920 F   0  0  0  0  0  0  0  0  0  0  0  0
  -30.9160  -17.5880   19.5220 C   0  0  0  0  0  2  0  0  0  0  0  0
  -31.4320  -15.1070   19.4670 C   0  0  0  0  0  0  0  0  0  0  0  0
  -31.3180  -12.6860   18.9760 C   0  0  0  0  0  2  0  0  0  0  0  0
  -30.3380  -12.4950   17.7870 C   0  0  0  0  0  2  0  0  0  0  0  0
  -28.8740  -12.4040   18.2790 C   0  0  0  0  0  2  0  0  0  0  0  0
  -28.5160  -13.5380   19.2830 C   0  0  0  0  0  3  0  0  0  0  0  0
  -29.5970  -13.6660   20.3850 C   0  0  0  0  0  2  0  0  0  0  0  0
  -30.8830  -13.8840   19.7100 N   0  0  0  0  0  0  0  0  0  0  0  0
  -32.5680  -15.2320   18.9930 O   0  0  0  0  0  0  0  0  0  0  0  0
  -30.5860  -16.1570   19.6270 N   0  0  0  0  0  0  0  0  0  0  0  0
  -29.6460  -15.9390   19.9130 H   0  0  0  0  0  0  0  0  0  0  0  0
  -26.2570  -14.3260   20.2230 C   0  0  0  0  0  0  0  0  0  0  0  0
  -25.1630  -13.6220   20.6530 C   0  0  0  0  0  0  0  0  0  0  0  0
  -25.4750  -12.2430   20.5040 C   0  0  0  0  0  0  0  0  0  0  0  0
  -27.1820  -13.3520   19.8490 N   0  0  0  0  0  0  0  0  0  0  0  0
  -26.7270  -12.0960   20.0960 N   0  0  0  0  0  0  0  0  0  0  0  0
  -24.6570  -11.0400   20.7020 C   0  0  0  0  0  0  0  0  0  0  0  0
  -25.0190  -10.0490   21.6370 C   0  0  0  0  0  3  0  0  0  0  0  0
  -24.2040   -8.9130   21.8190 C   0  0  0  0  0  3  0  0  0  0  0  0
  -23.0160   -8.7660   21.0680 C   0  0  0  0  0  0  0  0  0  0  0  0
  -22.6740   -9.7480   20.1250 C   0  0  0  0  0  3  0  0  0  0  0  0
  -23.4840  -10.8780   19.9400 C   0  0  0  0  0  3  0  0  0  0  0  0
  -22.1790   -7.6790   21.1510 O   0  0  0  0  0  0  0  0  0  0  0  0
  -21.9770   -7.0140   22.3340 C   0  0  0  0  0  0  0  0  0  0  0  0
  -21.4990   -7.6760   23.4860 C   0  0  0  0  0  3  0  0  0  0  0  0
  -21.2400   -6.9440   24.6640 C   0  0  0  0  0  3  0  0  0  0  0  0
  -21.4500   -5.5510   24.6860 C   0  0  0  0  0  0  0  0  0  0  0  0
  -21.9270   -4.8900   23.5400 C   0  0  0  0  0  3  0  0  0  0  0  0
  -22.1850   -5.6220   22.3660 C   0  0  0  0  0  0  0  0  0  0  0  0
  -22.6200   -4.9800   21.2560 F   0  0  0  0  0  0  0  0  0  0  0  0
  -21.2000   -4.8430   25.8140 F   0  0  0  0  0  0  0  0  0  0  0  0
  -23.8440  -14.2140   21.0750 C   0  0  0  0  0  0  0  0  0  0  0  0
  -23.1470  -13.5460   21.9890 N   0  0  0  0  0  0  0  0  0  0  0  0
  -23.4420  -15.2840   20.6260 O   0  0  0  0  0  0  0  0  0  0  0  0
  -23.4800  -12.6750   22.3680 H   0  0  0  0  0  0  0  0  0  0  0  0
  -22.2560  -13.9210   22.3070 H   0  0  0  0  0  0  0  0  0  0  0  0
  -26.5320  -15.6780   20.0860 N   0  0  0  0  0  0  0  0  0  0  0  0
  -25.8050  -16.3760   20.2270 H   0  0  0  0  0  0  0  0  0  0  0  0
  -27.3660  -16.0590   19.6640 H   0  0  0  0  0  0  0  0  0  0  0  0
  -28.4830  -25.6420   20.4900 C   0  0  0  0  0  2  0  0  0  0  0  0
  -28.4830  -26.9490   19.7700 O   0  0  0  0  0  0  0  0  0  0  0  0
  -24.6110  -31.9820   23.1750 C   0  0  0  0  0  0  0  0  0  0  0  0
  -27.3780  -27.7770   19.8550 C   0  0  0  0  0  0  0  0  0  0  0  0
  -23.4760  -30.6370   21.4600 C   0  0  0  0  0  3  0  0  0  0  0  0
  -24.9750  -29.2630   19.9380 C   0  0  0  0  0  0  0  0  0  0  0  0
  -25.9860  -31.1290   21.2620 C   0  0  0  0  0  2  0  0  0  0  0  0
  -26.1270  -29.7890   20.5420 C   0  0  0  0  0  0  0  0  0  0  0  0
  -27.3490  -29.0550   20.4890 C   0  0  0  0  0  3  0  0  0  0  0  0
  -26.2240  -27.3170   19.2130 C   0  0  0  0  0  3  0  0  0  0  0  0
  -25.0210  -28.0270   19.2720 C   0  0  0  0  0  3  0  0  0  0  0  0
  -23.7100  -30.0810   20.0310 C   0  0  0  0  0  2  0  0  0  0  0  0
  -24.7110  -31.2590   22.0210 N   0  0  0  0  0  0  0  0  0  0  0  0
  -23.5280  -32.1450   23.7510 O   0  0  0  0  0  0  0  0  0  0  0  0
  -22.8940  -29.5090   22.3500 C   0  0  0  0  0  0  0  0  0  0  0  0
  -21.5720  -29.2610   22.2250 N   0  0  0  0  0  0  0  0  0  0  0  0
  -23.6280  -28.8730   23.1160 O   0  0  0  0  0  0  0  0  0  0  0  0
  -21.0120  -29.9100   21.6800 H   0  0  0  0  0  0  0  0  0  0  0  0
  -18.3190  -27.6780   22.6390 C   0  0  0  0  0  0  0  0  0  0  0  0
  -20.8460  -28.1940   22.9250 C   0  0  0  0  0  3  0  0  0  0  0  0
  -21.1010  -26.8220   22.2420 C   0  0  0  0  0  2  0  0  0  0  0  0
  -20.0000  -26.4260   21.2430 C   0  0  0  0  0  2  0  0  0  0  0  0
  -18.6460  -26.3550   21.9550 C   0  0  0  0  0  2  0  0  0  0  0  0
  -19.3540  -28.5440   23.1010 C   0  0  0  0  0  0  0  0  0  0  0  0
  -19.0020  -29.7590   23.7420 C   0  0  0  0  0  3  0  0  0  0  0  0
  -17.6520  -30.1180   23.9130 C   0  0  0  0  0  3  0  0  0  0  0  0
  -16.6340  -29.2620   23.4530 C   0  0  0  0  0  3  0  0  0  0  0  0
  -16.9730  -28.0530   22.8180 C   0  0  0  0  0  3  0  0  0  0  0  0
  -25.8660  -32.6550   23.8180 C   0  0  0  0  0  3  0  0  0  0  0  0
  -26.3950  -31.8980   25.0990 C   0  0  1  0  0  0  0  0  0  0  0  0
  -25.2990  -31.6140   26.1550 C   0  0  0  0  0  1  0  0  0  0  0  0
  -27.0380  -30.5450   24.7100 C   0  0  0  0  0  1  0  0  0  0  0  0
  -27.5090  -32.7280   25.7810 C   0  0  0  0  0  1  0  0  0  0  0  0
  -25.5050  -34.0390   24.1530 N   0  0  0  0  0  0  0  0  0  0  0  0
  -25.8020  -35.1090   23.4000 C   0  0  0  0  0  0  0  0  0  0  0  0
  -26.4840  -35.0380   22.3730 O   0  0  0  0  0  0  0  0  0  0  0  0
  -24.9130  -34.1680   24.9630 H   0  0  0  0  0  0  0  0  0  0  0  0
  -24.0100  -36.8360   23.0250 C   0  0  0  0  0  1  0  0  0  0  0  0
  -25.2520  -36.4760   23.8560 C   0  0  0  0  0  3  0  0  0  0  0  0
  -27.3410  -37.4390   24.7210 C   0  0  0  0  0  1  0  0  0  0  0  0
  -26.2460  -37.5670   23.7630 N   0  0  0  0  0  0  0  0  0  0  0  0
  -25.8040  -38.4700   23.9060 H   0  0  0  0  0  0  0  0  0  0  0  0
  1 55  1  0
  1  3  1  0
  2  6  1  0
  2  7  1  0
  2  1  1  0
  3  4  1  0
  3  8  2  0
  5  4  1  0
  7  5  1  0
  9 10  2  0
  9 12  1  0
 10 13  1  0
 12 14  2  0
 13  7  1  0
 13 11  2  0
 14 11  1  0
 14 15  1  0
 16 25  1  0
 16 12  1  0
 17 25  1  0
 17 23  1  0
 18 23  1  0
 19 20  1  0
 19 18  1  0
 21 20  1  0
 21 30  1  0
 21 22  1  0
 23 22  1  0
 24 17  2  0
 25 26  1  0
 27 28  2  0
 28 47  1  0
 29 28  1  0
 29 32  1  0
 30 31  1  0
 30 27  1  0
 31 29  2  0
 32 33  1  0
 33 34  2  0
 35 38  1  0
 35 34  1  0
 36 35  2  0
 37 36  1  0
 37 32  2  0
 38 39  1  0
 39 44  2  0
 39 40  1  0
 40 41  2  0
 41 42  1  0
 42 46  1  0
 43 42  2  0
 44 43  1  0
 45 44  1  0
 47 48  1  0
 48 51  1  0
 48 50  1  0
 49 47  2  0
 52 27  1  0
 52 53  1  0
 54 52  1  0
 56 58  1  0
 56 55  1  0
 57 68  2  0
 58 63  1  0
 59 67  1  0
 59 69  1  0
 60 66  1  0
 60 62  1  0
 61 67  1  0
 62 61  1  0
 63 62  2  0
 64 65  1  0
 64 58  2  0
 65 60  2  0
 66 59  1  0
 67 57  1  0
 69 71  2  0
 70 69  1  0
 72 70  1  0
 73 82  2  0
 73 78  1  0
 74 70  1  0
 74 78  1  0
 75 74  1  0
 76 77  1  0
 76 75  1  0
 77 73  1  0
 78 79  2  0
 79 80  1  0
 81 80  2  0
 82 81  1  0
 83 57  1  0
 83 88  1  0
 83 84  1  0
 84 87  1  1
 84 85  1  0
 86 84  1  0
 88 91  1  0
 89 93  1  0
 89 88  1  0
 90 89  2  0
 93 92  1  0
 95 93  1  0
 95 96  1  0
 95 94  1  0
M  ISO  4  17 100  25 100  55 101  56 101
M  END
>  <TORSDO>  (71) 
F 19

>  <SCORE>  (71) 
-11.203

>  <name>  (71) 
70

>  <ligand_id>  (71) 
70

>  <original_smiles>  (71) 
[H]c1c([H])c([H])c2c(c1[H])C([H])([H])C([H])([H])C([H])([H])C2([H])N([H])C(=O)C1([H])N(C(=O)C([H])(N([H])C(=O)C([H])(N([H])C([H])([H])[H])C([H])([H])[H])C(C([H])([H])[H])(C([H])([H])[H])C([H])([H])[H])C([H])([H])c2c([H])c(OC([H])([H])C3=C(C([H])([H])[H])N(c4c([H])c([H])c(C([H])([H])N([H])C(=O)N5C([H])([H])C([H])([H])C([H])([H])C([H])(n6nc(-c7c([H])c([H])c(Oc8c([H])c([H])c(F)c([H])c8F)c([H])c7[H])c(C(=O)N([H])[H])c6N([H])[H])C5([H])[H])c(F)c4[H])C([H])([H])C([H])([H])C3=O)c([H])c([H])c2C1([H])[H]

>  <smiles>  (71) 
[H]c1c([H])c([H])c2c(c1[H])C([H])([H])C([H])([H])C([H])([H])C2([H])N([H])C(=O)C1([H])N(C(=O)C([H])(N([H])C(=O)C([H])(N([H])C([H])([H])[H])C([H])([H])[H])C(C([H])([H])[H])(C([H])([H])[H])C([H])([H])[H])C([H])([H])c2c([H])c(OC([H])([H])C3=C(C([H])([H])[H])N(c4c([H])c([H])c(C([H])([H])N([H])C(=O)N5C([H])([H])C([H])([H])C([H])([H])C([H])(n6nc(-c7c([H])c([H])c(Oc8c([H])c([H])c(F)c([H])c8F)c([H])c7[H])c(C(=O)N([H])[H])c6N([H])[H])C5([H])[H])c(F)c4[H])C([H])([H])C([H])([H])C3=O)c([H])c([H])c2C1([H])[H]

$$$$
71:0:0
     RDKit          3D

 94103  0  0  1  0  0  0  0  0999 V2000
  -29.8870  -21.1270   19.7540 C   0  0  0  0  0  0  0  0  0  0  0  0
  -28.0730  -23.3750   22.0880 C   0  0  0  0  0  2  0  0  0  0  0  0
  -28.3230  -21.9410   21.5810 C   0  0  0  0  0  2  0  0  0  0  0  0
  -29.2000  -23.5070   19.9870 C   0  0  0  0  0  2  0  0  0  0  0  0
  -28.1900  -24.2810   20.8560 C   0  0  0  0  0  3  0  0  0  0  0  0
  -29.1440  -22.0830   20.3780 N   0  0  0  0  0  0  0  0  0  0  0  0
  -30.6250  -21.4150   18.8070 O   0  0  0  0  0  0  0  0  0  0  0  0
  -28.7010  -18.8980   20.2720 C   0  0  0  0  0  3  0  0  0  0  0  0
  -28.7700  -17.5080   20.5410 C   0  0  0  0  0  3  0  0  0  0  0  0
  -31.1140  -19.0380   20.4780 C   0  0  0  0  0  3  0  0  0  0  0  0
  -29.8810  -19.6810   20.2170 C   0  0  0  0  0  0  0  0  0  0  0  0
  -30.0130  -16.8610   20.7520 C   0  0  0  0  0  0  0  0  0  0  0  0
  -31.1840  -17.6580   20.7720 C   0  0  0  0  0  0  0  0  0  0  0  0
  -32.3850  -17.1220   21.0870 F   0  0  0  0  0  0  0  0  0  0  0  0
  -30.6900  -14.5170   20.2320 C   0  0  0  0  0  0  0  0  0  0  0  0
  -30.3750  -12.3930   19.0100 C   0  0  0  0  0  2  0  0  0  0  0  0
  -29.3800  -12.6150   17.8510 C   0  0  0  0  0  2  0  0  0  0  0  0
  -27.9210  -12.4770   18.3320 C   0  0  0  0  0  2  0  0  0  0  0  0
  -27.6380  -13.2740   19.6340 C   0  0  0  0  0  3  0  0  0  0  0  0
  -28.7310  -12.9940   20.6880 C   0  0  0  0  0  2  0  0  0  0  0  0
  -30.0370  -13.3300   20.0930 N   0  0  0  0  0  0  0  0  0  0  0  0
  -31.7630  -14.7430   19.6660 O   0  0  0  0  0  0  0  0  0  0  0  0
  -30.0260  -15.4430   20.9610 N   0  0  0  0  0  0  0  0  0  0  0  0
  -29.2040  -15.0650   21.4040 H   0  0  0  0  0  0  0  0  0  0  0  0
  -25.2630  -13.8720   20.4380 C   0  0  0  0  0  0  0  0  0  0  0  0
  -24.2100  -13.0940   20.8370 C   0  0  0  0  0  0  0  0  0  0  0  0
  -24.6700  -11.7440   20.7680 C   0  0  0  0  0  0  0  0  0  0  0  0
  -26.2990  -12.9950   20.1550 N   0  0  0  0  0  0  0  0  0  0  0  0
  -25.9470  -11.7090   20.4090 N   0  0  0  0  0  0  0  0  0  0  0  0
  -23.9530  -10.4790   20.9630 C   0  0  0  0  0  0  0  0  0  0  0  0
  -24.3890   -9.5180   21.9000 C   0  0  0  0  0  3  0  0  0  0  0  0
  -23.6730   -8.3160   22.0810 C   0  0  0  0  0  3  0  0  0  0  0  0
  -22.5040   -8.0660   21.3250 C   0  0  0  0  0  0  0  0  0  0  0  0
  -22.0870   -9.0150   20.3740 C   0  0  0  0  0  3  0  0  0  0  0  0
  -22.8050  -10.2080   20.1910 C   0  0  0  0  0  3  0  0  0  0  0  0
  -21.7550   -6.9190   21.4190 O   0  0  0  0  0  0  0  0  0  0  0  0
  -21.6740   -6.2030   22.5850 C   0  0  0  0  0  0  0  0  0  0  0  0
  -21.1620   -6.7710   23.7730 C   0  0  0  0  0  3  0  0  0  0  0  0
  -21.0320   -5.9800   24.9320 C   0  0  0  0  0  3  0  0  0  0  0  0
  -21.4030   -4.6220   24.9050 C   0  0  0  0  0  0  0  0  0  0  0  0
  -21.9100   -4.0550   23.7230 C   0  0  0  0  0  3  0  0  0  0  0  0
  -22.0420   -4.8420   22.5660 C   0  0  0  0  0  0  0  0  0  0  0  0
  -22.5090   -4.2840   21.4240 F   0  0  0  0  0  0  0  0  0  0  0  0
  -21.2710   -3.8610   26.0160 F   0  0  0  0  0  0  0  0  0  0  0  0
  -22.8250  -13.5670   21.1690 C   0  0  0  0  0  0  0  0  0  0  0  0
  -22.1240  -12.8500   22.0400 N   0  0  0  0  0  0  0  0  0  0  0  0
  -22.3730  -14.6080   20.6920 O   0  0  0  0  0  0  0  0  0  0  0  0
  -22.5020  -12.0090   22.4500 H   0  0  0  0  0  0  0  0  0  0  0  0
  -21.1940  -13.1460   22.3020 H   0  0  0  0  0  0  0  0  0  0  0  0
  -25.4190  -15.2450   20.2750 N   0  0  0  0  0  0  0  0  0  0  0  0
  -24.6470  -15.8870   20.4150 H   0  0  0  0  0  0  0  0  0  0  0  0
  -26.2300  -15.6830   19.8590 H   0  0  0  0  0  0  0  0  0  0  0  0
  -28.5580  -25.7610   21.1900 C   0  0  0  0  0  2  0  0  0  0  0  0
  -28.4310  -26.6990   20.1050 O   0  0  0  0  0  0  0  0  0  0  0  0
  -24.6010  -31.8920   23.1700 C   0  0  0  0  0  0  0  0  0  0  0  0
  -27.2790  -27.4540   20.1150 C   0  0  0  0  0  0  0  0  0  0  0  0
  -23.4100  -30.4870   21.5150 C   0  0  0  0  0  3  0  0  0  0  0  0
  -24.8810  -28.9530   20.1000 C   0  0  0  0  0  0  0  0  0  0  0  0
  -25.9350  -30.8550   21.3350 C   0  0  0  0  0  2  0  0  0  0  0  0
  -26.0320  -29.4820   20.7000 C   0  0  0  0  0  0  0  0  0  0  0  0
  -27.2360  -28.7390   20.7070 C   0  0  0  0  0  3  0  0  0  0  0  0
  -26.1180  -26.9420   19.5040 C   0  0  0  0  0  3  0  0  0  0  0  0
  -24.9190  -27.6820   19.4990 C   0  0  0  0  0  3  0  0  0  0  0  0
  -23.6330  -29.8070   20.1370 C   0  0  0  0  0  2  0  0  0  0  0  0
  -24.6650  -31.0940   22.0640 N   0  0  0  0  0  0  0  0  0  0  0  0
  -23.5150  -32.1570   23.7050 O   0  0  0  0  0  0  0  0  0  0  0  0
  -22.7580  -29.4630   22.4740 C   0  0  0  0  0  0  0  0  0  0  0  0
  -21.4320  -29.2880   22.3560 N   0  0  0  0  0  0  0  0  0  0  0  0
  -23.4440  -28.8260   23.2790 O   0  0  0  0  0  0  0  0  0  0  0  0
  -20.9400  -29.8540   21.6790 H   0  0  0  0  0  0  0  0  0  0  0  0
  -18.0510  -28.1380   22.8980 C   0  0  0  0  0  0  0  0  0  0  0  0
  -20.6170  -28.3470   23.1230 C   0  0  0  0  0  3  0  0  0  0  0  0
  -20.6830  -26.9280   22.5130 C   0  0  0  0  0  2  0  0  0  0  0  0
  -19.5550  -26.6470   21.5140 C   0  0  0  0  0  2  0  0  0  0  0  0
  -18.1900  -26.8010   22.1900 C   0  0  0  0  0  2  0  0  0  0  0  0
  -19.1910  -28.8710   23.3220 C   0  0  0  0  0  0  0  0  0  0  0  0
  -19.0070  -30.1250   23.9460 C   0  0  0  0  0  3  0  0  0  0  0  0
  -17.7160  -30.6450   24.1490 C   0  0  0  0  0  3  0  0  0  0  0  0
  -16.5900  -29.9090   23.7420 C   0  0  0  0  0  3  0  0  0  0  0  0
  -16.7580  -28.6570   23.1220 C   0  0  0  0  0  3  0  0  0  0  0  0
  -25.8800  -32.5300   23.7960 C   0  0  0  0  0  3  0  0  0  0  0  0
  -25.5590  -33.9210   24.1390 N   0  0  0  0  0  0  0  0  0  0  0  0
  -25.8900  -34.9830   23.3900 C   0  0  0  0  0  0  0  0  0  0  0  0
  -26.5680  -34.8950   22.3630 O   0  0  0  0  0  0  0  0  0  0  0  0
  -24.9620  -34.0650   24.9390 H   0  0  0  0  0  0  0  0  0  0  0  0
  -24.1630  -36.7730   23.0270 C   0  0  0  0  0  1  0  0  0  0  0  0
  -25.3890  -36.3630   23.8580 C   0  0  0  0  0  3  0  0  0  0  0  0
  -27.4980  -37.2480   24.7500 C   0  0  0  0  0  1  0  0  0  0  0  0
  -26.4190  -37.4210   23.7800 N   0  0  0  0  0  0  0  0  0  0  0  0
  -26.0050  -38.3380   23.9240 H   0  0  0  0  0  0  0  0  0  0  0  0
  -26.4050  -31.7510   25.0650 C   0  0  1  0  0  0  0  0  0  0  0  0
  -25.3170  -31.4880   26.1300 C   0  0  0  0  0  1  0  0  0  0  0  0
  -27.0070  -30.3860   24.6560 C   0  0  0  0  0  1  0  0  0  0  0  0
  -27.5440  -32.5530   25.7400 C   0  0  0  0  0  1  0  0  0  0  0  0
  1 11  1  0
  1  6  1  0
  3  2  1  0
  4  6  1  0
  4  5  1  0
  5 53  1  0
  5  2  1  0
  6  3  1  0
  7  1  2  0
  8  9  1  0
  9 12  2  0
 10 13  2  0
 11  8  2  0
 11 10  1  0
 12 13  1  0
 12 23  1  0
 13 14  1  0
 15 23  1  0
 16 21  1  0
 17 18  1  0
 17 16  1  0
 19 18  1  0
 19 28  1  0
 19 20  1  0
 21 15  1  0
 21 20  1  0
 22 15  2  0
 23 24  1  0
 25 26  2  0
 26 45  1  0
 27 26  1  0
 27 30  1  0
 28 29  1  0
 28 25  1  0
 29 27  2  0
 30 31  1  0
 31 32  2  0
 33 36  1  0
 33 32  1  0
 34 33  2  0
 35 34  1  0
 35 30  2  0
 36 37  1  0
 37 38  1  0
 38 39  2  0
 40 39  1  0
 40 44  1  0
 41 40  2  0
 42 37  2  0
 42 41  1  0
 43 42  1  0
 45 46  1  0
 46 49  1  0
 46 48  1  0
 47 45  2  0
 50 51  1  0
 50 25  1  0
 52 50  1  0
 54 56  1  0
 54 53  1  0
 55 66  2  0
 56 61  1  0
 57 65  1  0
 57 67  1  0
 58 64  1  0
 58 60  1  0
 59 65  1  0
 60 61  2  0
 60 59  1  0
 62 56  2  0
 63 62  1  0
 63 58  2  0
 64 57  1  0
 65 55  1  0
 67 69  2  0
 68 67  1  0
 70 68  1  0
 71 80  2  0
 71 76  1  0
 72 68  1  0
 72 76  1  0
 73 72  1  0
 74 75  1  0
 74 73  1  0
 75 71  1  0
 76 77  2  0
 77 78  1  0
 79 78  2  0
 80 79  1  0
 81 55  1  0
 81 82  1  0
 81 91  1  0
 82 85  1  0
 83 87  1  0
 83 82  1  0
 84 83  2  0
 87 86  1  0
 89 87  1  0
 89 90  1  0
 89 88  1  0
 91 94  1  1
 91 92  1  0
 93 91  1  0
M  ISO  4  15 100  23 100  53 101  54 101
M  END
>  <TORSDO>  (72) 
F 18

>  <SCORE>  (72) 
-14.940

>  <name>  (72) 
71

>  <ligand_id>  (72) 
71

>  <original_smiles>  (72) 
[H]c1c([H])c([H])c2c(c1[H])C([H])([H])C([H])([H])C([H])([H])C2([H])N([H])C(=O)C1([H])N(C(=O)C([H])(N([H])C(=O)C([H])(N([H])C([H])([H])[H])C([H])([H])[H])C(C([H])([H])[H])(C([H])([H])[H])C([H])([H])[H])C([H])([H])c2c([H])c(OC([H])([H])C3([H])C([H])([H])N(C(=O)c4c([H])c([H])c(N([H])C(=O)N5C([H])([H])C([H])([H])C([H])([H])C([H])(n6nc(-c7c([H])c([H])c(Oc8c([H])c([H])c(F)c([H])c8F)c([H])c7[H])c(C(=O)N([H])[H])c6N([H])[H])C5([H])[H])c(F)c4[H])C([H])([H])C3([H])[H])c([H])c([H])c2C1([H])[H]

>  <smiles>  (72) 
[H]c1c([H])c([H])c2c(c1[H])C([H])([H])C([H])([H])C([H])([H])C2([H])N([H])C(=O)C1([H])N(C(=O)C([H])(N([H])C(=O)C([H])(N([H])C([H])([H])[H])C([H])([H])[H])C(C([H])([H])[H])(C([H])([H])[H])C([H])([H])[H])C([H])([H])c2c([H])c(OC([H])([H])C3([H])C([H])([H])N(C(=O)c4c([H])c([H])c(N([H])C(=O)N5C([H])([H])C([H])([H])C([H])([H])C([H])(n6nc(-c7c([H])c([H])c(Oc8c([H])c([H])c(F)c([H])c8F)c([H])c7[H])c(C(=O)N([H])[H])c6N([H])[H])C5([H])[H])c(F)c4[H])C([H])([H])C3([H])[H])c([H])c([H])c2C1([H])[H]

$$$$
72:0:0
     RDKit          3D

 93102  0  0  1  0  0  0  0  0999 V2000
  -26.8010  -23.2950   19.4440 C   0  0  0  0  0  3  0  0  0  0  0  0
  -28.0980  -23.4830   19.7730 C   0  0  0  0  0  0  0  0  0  0  0  0
  -26.3460  -22.1870   18.5030 C   0  0  0  0  0  2  0  0  0  0  0  0
  -27.4560  -21.8090   17.4830 C   0  0  0  0  0  2  0  0  0  0  0  0
  -28.8350  -22.4410   17.8220 C   0  0  0  0  0  2  0  0  0  0  0  0
  -29.0370  -22.4510   19.2830 N   0  0  0  0  0  0  0  0  0  0  0  0
  -30.3740  -18.7070   19.1450 C   0  0  0  0  0  3  0  0  0  0  0  0
  -28.8240  -18.8550   20.8900 C   0  0  0  0  0  3  0  0  0  0  0  0
  -30.2120  -20.1440   18.9420 C   0  0  0  0  0  3  0  0  0  0  0  0
  -28.6360  -20.2760   20.6700 C   0  0  0  0  0  3  0  0  0  0  0  0
  -29.6630  -17.9430   20.1310 C   0  0  0  0  0  0  0  0  0  0  0  0
  -29.2950  -21.0190   19.6480 C   0  0  0  0  0  0  0  0  0  0  0  0
  -29.5500  -16.3320   20.3760 C   0  0  0  0  0  3  0  0  0  0  0  0
  -28.4840  -16.0810   21.0060 N   0  0  0  0  0  2  0  0  0  0  0  0
  -27.9920  -16.9460   21.1960 H   0  0  0  0  0  0  0  0  0  0  0  0
  -30.5140  -15.0170   19.9480 C   0  0  0  0  0  0  0  0  0  0  0  0
  -30.4230  -12.6810   18.9530 C   0  0  0  0  0  2  0  0  0  0  0  0
  -29.4060  -12.6950   17.7820 C   0  0  0  0  0  2  0  0  0  0  0  0
  -27.9650  -12.4540   18.2820 C   0  0  0  0  0  2  0  0  0  0  0  0
  -27.6380  -13.3070   19.5360 C   0  0  0  0  0  3  0  0  0  0  0  0
  -28.7680  -13.1930   20.5820 C   0  0  0  0  0  2  0  0  0  0  0  0
  -29.9940  -13.7090   19.9440 N   0  0  0  0  0  0  0  0  0  0  0  0
  -31.6710  -15.1560   19.5200 O   0  0  0  0  0  0  0  0  0  0  0  0
  -25.3090  -13.8960   20.4310 C   0  0  0  0  0  0  0  0  0  0  0  0
  -24.2540  -13.1200   20.8320 C   0  0  0  0  0  0  0  0  0  0  0  0
  -24.7060  -11.7680   20.7430 C   0  0  0  0  0  0  0  0  0  0  0  0
  -26.3250  -13.0130   20.1010 N   0  0  0  0  0  0  0  0  0  0  0  0
  -25.9750  -11.7270   20.3520 N   0  0  0  0  0  0  0  0  0  0  0  0
  -23.9850  -10.5040   20.9490 C   0  0  0  0  0  0  0  0  0  0  0  0
  -24.4420   -9.5360   21.8700 C   0  0  0  0  0  3  0  0  0  0  0  0
  -23.7210   -8.3380   22.0640 C   0  0  0  0  0  3  0  0  0  0  0  0
  -22.5300   -8.1000   21.3410 C   0  0  0  0  0  0  0  0  0  0  0  0
  -22.0900   -9.0590   20.4120 C   0  0  0  0  0  3  0  0  0  0  0  0
  -22.8100  -10.2490   20.2150 C   0  0  0  0  0  3  0  0  0  0  0  0
  -21.7770   -6.9560   21.4450 O   0  0  0  0  0  0  0  0  0  0  0  0
  -21.7250   -6.2340   22.6100 C   0  0  0  0  0  0  0  0  0  0  0  0
  -21.2920   -6.8090   23.8250 C   0  0  0  0  0  3  0  0  0  0  0  0
  -21.1930   -6.0140   24.9830 C   0  0  0  0  0  3  0  0  0  0  0  0
  -21.5070   -4.6430   24.9260 C   0  0  0  0  0  0  0  0  0  0  0  0
  -21.9310   -4.0670   23.7150 C   0  0  0  0  0  3  0  0  0  0  0  0
  -22.0360   -4.8620   22.5590 C   0  0  0  0  0  0  0  0  0  0  0  0
  -22.4260   -4.2980   21.3910 F   0  0  0  0  0  0  0  0  0  0  0  0
  -21.4010   -3.8750   26.0360 F   0  0  0  0  0  0  0  0  0  0  0  0
  -22.8820  -13.5980   21.2000 C   0  0  0  0  0  0  0  0  0  0  0  0
  -22.2040  -12.8890   22.0960 N   0  0  0  0  0  0  0  0  0  0  0  0
  -22.4170  -14.6360   20.7270 O   0  0  0  0  0  0  0  0  0  0  0  0
  -22.5900  -12.0460   22.4950 H   0  0  0  0  0  0  0  0  0  0  0  0
  -21.2840  -13.1900   22.3860 H   0  0  0  0  0  0  0  0  0  0  0  0
  -25.4910  -15.2680   20.2970 N   0  0  0  0  0  0  0  0  0  0  0  0
  -24.8260  -15.9420   20.6600 H   0  0  0  0  0  0  0  0  0  0  0  0
  -26.4410  -15.6290   20.2520 H   0  0  0  0  0  0  0  0  0  0  0  0
  -28.4890  -24.8660   20.5460 C   0  0  0  0  0  2  0  0  0  0  0  0
  -28.3860  -26.3010   19.9790 O   0  0  0  0  0  0  0  0  0  0  0  0
  -24.5820  -31.8010   23.1350 C   0  0  0  0  0  0  0  0  0  0  0  0
  -27.2610  -27.1810   20.0750 C   0  0  0  0  0  0  0  0  0  0  0  0
  -23.4180  -30.4040   21.4670 C   0  0  0  0  0  3  0  0  0  0  0  0
  -24.8980  -28.8580   20.0520 C   0  0  0  0  0  0  0  0  0  0  0  0
  -25.9670  -30.7100   21.3330 C   0  0  0  0  0  2  0  0  0  0  0  0
  -26.0620  -29.3250   20.6750 C   0  0  0  0  0  0  0  0  0  0  0  0
  -27.2460  -28.5050   20.6650 C   0  0  0  0  0  3  0  0  0  0  0  0
  -26.0730  -26.8040   19.4200 C   0  0  0  0  0  3  0  0  0  0  0  0
  -24.9130  -27.6090   19.4100 C   0  0  0  0  0  3  0  0  0  0  0  0
  -23.6630  -29.7430   20.0840 C   0  0  0  0  0  2  0  0  0  0  0  0
  -24.6750  -30.9940   22.0340 N   0  0  0  0  0  0  0  0  0  0  0  0
  -23.4850  -32.0660   23.6500 O   0  0  0  0  0  0  0  0  0  0  0  0
  -22.7420  -29.3790   22.4100 C   0  0  0  0  0  0  0  0  0  0  0  0
  -21.4150  -29.2040   22.2760 N   0  0  0  0  0  0  0  0  0  0  0  0
  -23.4160  -28.7430   23.2230 O   0  0  0  0  0  0  0  0  0  0  0  0
  -20.9280  -29.7760   21.6010 H   0  0  0  0  0  0  0  0  0  0  0  0
  -18.0390  -27.9910   22.7660 C   0  0  0  0  0  0  0  0  0  0  0  0
  -20.5970  -28.2530   23.0350 C   0  0  0  0  0  3  0  0  0  0  0  0
  -20.6970  -26.8270   22.4420 C   0  0  0  0  0  2  0  0  0  0  0  0
  -19.5950  -26.5150   21.4230 C   0  0  0  0  0  2  0  0  0  0  0  0
  -18.2150  -26.6510   22.0700 C   0  0  0  0  0  2  0  0  0  0  0  0
  -19.1570  -28.7480   23.2060 C   0  0  0  0  0  0  0  0  0  0  0  0
  -18.9330  -30.0000   23.8200 C   0  0  0  0  0  3  0  0  0  0  0  0
  -17.6270  -30.4910   24.0000 C   0  0  0  0  0  3  0  0  0  0  0  0
  -16.5250  -29.7320   23.5750 C   0  0  0  0  0  3  0  0  0  0  0  0
  -16.7320  -28.4850   22.9620 C   0  0  0  0  0  3  0  0  0  0  0  0
  -25.8440  -32.4480   23.7800 C   0  0  0  0  0  3  0  0  0  0  0  0
  -26.3630  -31.6650   25.0510 C   0  0  1  0  0  0  0  0  0  0  0  0
  -25.2680  -31.3950   26.1070 C   0  0  0  0  0  1  0  0  0  0  0  0
  -26.9710  -30.3020   24.6510 C   0  0  0  0  0  1  0  0  0  0  0  0
  -27.4930  -32.4710   25.7320 C   0  0  0  0  0  1  0  0  0  0  0  0
  -25.5080  -33.8370   24.1330 N   0  0  0  0  0  0  0  0  0  0  0  0
  -25.8170  -34.9100   23.3950 C   0  0  0  0  0  0  0  0  0  0  0  0
  -26.4830  -34.8390   22.3600 O   0  0  0  0  0  0  0  0  0  0  0  0
  -24.9150  -33.9680   24.9400 H   0  0  0  0  0  0  0  0  0  0  0  0
  -24.0500  -36.6800   23.0830 C   0  0  0  0  0  1  0  0  0  0  0  0
  -25.3040  -36.2810   23.8780 C   0  0  0  0  0  3  0  0  0  0  0  0
  -27.4250  -37.1980   24.7110 C   0  0  0  0  0  1  0  0  0  0  0  0
  -26.3150  -37.3570   23.7780 N   0  0  0  0  0  0  0  0  0  0  0  0
  -25.8900  -38.2660   23.9420 H   0  0  0  0  0  0  0  0  0  0  0  0
  1  2  2  0
  2 52  1  0
  3  1  1  0
  4  5  1  0
  4  3  1  0
  5  6  1  0
  6 12  1  0
  6  2  1  0
  7 11  1  0
  9  7  2  0
  9 12  1  0
 10  8  1  0
 11 13  1  0
 11  8  2  0
 12 10  2  0
 13 16  1  0
 13 14  1  0
 14 15  1  0
 17 22  1  0
 18 19  1  0
 18 17  1  0
 20 19  1  0
 20 27  1  0
 20 21  1  0
 22 16  1  0
 22 21  1  0
 23 16  2  0
 24 25  2  0
 25 44  1  0
 26 25  1  0
 26 29  1  0
 27 28  1  0
 27 24  1  0
 28 26  2  0
 29 30  1  0
 30 31  2  0
 32 35  1  0
 32 31  1  0
 33 32  2  0
 34 33  1  0
 34 29  2  0
 35 36  1  0
 36 37  1  0
 37 38  2  0
 39 38  1  0
 39 43  1  0
 40 39  2  0
 41 36  2  0
 41 40  1  0
 42 41  1  0
 44 45  1  0
 45 48  1  0
 45 47  1  0
 46 44  2  0
 49 24  1  0
 49 50  1  0
 51 49  1  0
 53 55  1  0
 53 52  1  0
 54 65  2  0
 55 60  1  0
 56 64  1  0
 56 66  1  0
 57 63  1  0
 57 59  1  0
 58 64  1  0
 59 58  1  0
 60 59  2  0
 61 55  2  0
 62 61  1  0
 62 57  2  0
 63 56  1  0
 64 54  1  0
 66 68  2  0
 67 66  1  0
 69 67  1  0
 70 79  2  0
 70 75  1  0
 71 67  1  0
 71 75  1  0
 72 71  1  0
 73 74  1  0
 73 72  1  0
 74 70  1  0
 75 76  2  0
 76 77  1  0
 78 77  2  0
 79 78  1  0
 80 54  1  0
 80 85  1  0
 80 81  1  0
 81 84  1  1
 81 82  1  0
 83 81  1  0
 85 88  1  0
 86 90  1  0
 86 85  1  0
 87 86  2  0
 90 89  1  0
 92 90  1  0
 92 93  1  0
 92 91  1  0
M  ISO  4  13 100  16 100  52 101  53 101
M  END
>  <TORSDO>  (73) 
F 19

>  <SCORE>  (73) 
-13.885

>  <name>  (73) 
72

>  <ligand_id>  (73) 
72

>  <original_smiles>  (73) 
[H]N=C(C(=O)N1C([H])([H])C([H])([H])C([H])([H])C([H])(n2nc(-c3c([H])c([H])c(Oc4c([H])c([H])c(F)c([H])c4F)c([H])c3[H])c(C(=O)N([H])[H])c2N([H])[H])C1([H])[H])c1c([H])c([H])c(N2C(C([H])([H])Oc3c([H])c([H])c4c(c3[H])C([H])([H])N(C(=O)C([H])(N([H])C(=O)C([H])(N([H])C([H])([H])[H])C([H])([H])[H])C(C([H])([H])[H])(C([H])([H])[H])C([H])([H])[H])C([H])(C(=O)N([H])C3([H])c5c([H])c([H])c([H])c([H])c5C([H])([H])C([H])([H])C3([H])[H])C4([H])[H])=C([H])C([H])([H])C([H])([H])C2([H])[H])c([H])c1[H]

>  <smiles>  (73) 
[H]N=C(C(=O)N1C([H])([H])C([H])([H])C([H])([H])C([H])(n2nc(-c3c([H])c([H])c(Oc4c([H])c([H])c(F)c([H])c4F)c([H])c3[H])c(C(=O)N([H])[H])c2N([H])[H])C1([H])[H])c1c([H])c([H])c(N2C(C([H])([H])Oc3c([H])c([H])c4c(c3[H])C([H])([H])N(C(=O)C([H])(N([H])C(=O)C([H])(N([H])C([H])([H])[H])C([H])([H])[H])C(C([H])([H])[H])(C([H])([H])[H])C([H])([H])[H])C([H])(C(=O)N([H])C3([H])c5c([H])c([H])c([H])c([H])c5C([H])([H])C([H])([H])C3([H])[H])C4([H])[H])=C([H])C([H])([H])C([H])([H])C2([H])[H])c([H])c1[H]

$$$$
73:0:0
     RDKit          3D

 96105  0  0  1  0  0  0  0  0999 V2000
  -29.8070  -20.5770   21.4470 C   0  0  0  0  0  3  0  0  0  0  0  0
  -29.2230  -20.8270   19.1400 C   0  0  0  0  0  3  0  0  0  0  0  0
  -30.2020  -19.2250   21.2270 C   0  0  0  0  0  0  0  0  0  0  0  0
  -30.1090  -18.6320   19.9370 C   0  0  0  0  0  0  0  0  0  0  0  0
  -29.3230  -21.4280   20.4160 C   0  0  0  0  0  0  0  0  0  0  0  0
  -29.5840  -19.4580   18.8910 C   0  0  0  0  0  0  0  0  0  0  0  0
  -30.7670  -18.4390   22.4010 C   0  0  0  0  0  1  0  0  0  0  0  0
  -30.4810  -24.0300   22.3940 C   0  0  0  0  0  2  0  0  0  0  0  0
  -29.1330  -23.5940   23.0060 C   0  0  0  0  0  2  0  0  0  0  0  0
  -30.2790  -24.7490   21.0490 C   0  0  0  0  0  2  0  0  0  0  0  0
  -28.2010  -22.8670   22.0110 C   0  0  0  0  0  2  0  0  0  0  0  0
  -29.2820  -24.0480   20.0820 C   0  0  0  0  0  3  0  0  0  0  0  0
  -28.7930  -22.7460   20.6730 N   0  0  0  0  0  0  0  0  0  0  0  0
  -28.1200  -25.0760   19.7020 C   0  0  0  0  0  2  0  0  0  0  0  0
  -28.3630  -26.5360   19.6110 O   0  0  0  0  0  0  0  0  0  0  0  0
  -24.5140  -31.5980   23.0160 C   0  0  0  0  0  0  0  0  0  0  0  0
  -27.2210  -27.3490   19.6230 C   0  0  0  0  0  0  0  0  0  0  0  0
  -23.3200  -30.2300   21.3440 C   0  0  0  0  0  3  0  0  0  0  0  0
  -24.7880  -28.8380   19.7870 C   0  0  0  0  0  0  0  0  0  0  0  0
  -25.8330  -30.6860   21.0920 C   0  0  0  0  0  2  0  0  0  0  0  0
  -25.9560  -29.3530   20.3660 C   0  0  0  0  0  0  0  0  0  0  0  0
  -27.1770  -28.6220   20.2730 C   0  0  0  0  0  3  0  0  0  0  0  0
  -26.0270  -26.8990   19.0100 C   0  0  0  0  0  3  0  0  0  0  0  0
  -24.8230  -27.6170   19.1030 C   0  0  0  0  0  3  0  0  0  0  0  0
  -23.5140  -29.6430   19.9230 C   0  0  0  0  0  2  0  0  0  0  0  0
  -24.5760  -30.8530   21.8740 N   0  0  0  0  0  0  0  0  0  0  0  0
  -23.4390  -31.7890   23.6020 O   0  0  0  0  0  0  0  0  0  0  0  0
  -22.7440  -29.1280   22.2690 C   0  0  0  0  0  0  0  0  0  0  0  0
  -21.4270  -28.8790   22.1640 N   0  0  0  0  0  0  0  0  0  0  0  0
  -23.4790  -28.5040   23.0390 O   0  0  0  0  0  0  0  0  0  0  0  0
  -20.8900  -29.4460   21.5230 H   0  0  0  0  0  0  0  0  0  0  0  0
  -18.1440  -27.4350   22.6470 C   0  0  0  0  0  0  0  0  0  0  0  0
  -20.6800  -27.8610   22.9070 C   0  0  0  0  0  3  0  0  0  0  0  0
  -20.8740  -26.4590   22.2850 C   0  0  0  0  0  2  0  0  0  0  0  0
  -19.7880  -26.0940   21.2660 C   0  0  0  0  0  2  0  0  0  0  0  0
  -18.4060  -26.1230   21.9250 C   0  0  0  0  0  2  0  0  0  0  0  0
  -19.2120  -28.2580   23.0930 C   0  0  0  0  0  0  0  0  0  0  0  0
  -18.9130  -29.4840   23.7270 C   0  0  0  0  0  3  0  0  0  0  0  0
  -17.5780  -29.8900   23.9180 C   0  0  0  0  0  3  0  0  0  0  0  0
  -16.5260  -29.0630   23.4870 C   0  0  0  0  0  3  0  0  0  0  0  0
  -16.8090  -27.8370   22.8590 C   0  0  0  0  0  3  0  0  0  0  0  0
  -25.7870  -32.2600   23.6260 C   0  0  0  0  0  3  0  0  0  0  0  0
  -26.3780  -31.4580   24.8510 C   0  0  1  0  0  0  0  0  0  0  0  0
  -25.3350  -31.1320   25.9450 C   0  0  0  0  0  1  0  0  0  0  0  0
  -26.9980  -30.1210   24.3790 C   0  0  0  0  0  1  0  0  0  0  0  0
  -27.5210  -32.2710   25.5040 C   0  0  0  0  0  1  0  0  0  0  0  0
  -25.4250  -33.6260   24.0300 N   0  0  0  0  0  0  0  0  0  0  0  0
  -25.7010  -34.7280   23.3200 C   0  0  0  0  0  0  0  0  0  0  0  0
  -26.3590  -34.7030   22.2760 O   0  0  0  0  0  0  0  0  0  0  0  0
  -24.8370  -33.7140   24.8450 H   0  0  0  0  0  0  0  0  0  0  0  0
  -23.8940  -36.4620   23.0830 C   0  0  0  0  0  1  0  0  0  0  0  0
  -25.1650  -36.0710   23.8520 C   0  0  0  0  0  3  0  0  0  0  0  0
  -27.2710  -37.0120   24.6970 C   0  0  0  0  0  1  0  0  0  0  0  0
  -26.1500  -37.1700   23.7740 N   0  0  0  0  0  0  0  0  0  0  0  0
  -25.7080  -38.0670   23.9630 H   0  0  0  0  0  0  0  0  0  0  0  0
  -28.6830  -19.5780   16.6570 C   0  0  0  0  0  1  0  0  0  0  0  0
  -29.4520  -18.8860   17.6410 O   0  0  0  0  0  0  0  0  0  0  0  0
  -30.7480  -17.2250   19.6270 C   0  0  0  0  0  2  0  0  0  0  0  0
  -30.8950  -14.7400   19.9970 C   0  0  0  0  0  0  0  0  0  0  0  0
  -30.5470  -12.4860   19.0410 C   0  0  0  0  0  2  0  0  0  0  0  0
  -29.5900  -12.6220   17.8370 C   0  0  0  0  0  2  0  0  0  0  0  0
  -28.1270  -12.5030   18.3070 C   0  0  0  0  0  2  0  0  0  0  0  0
  -27.8160  -13.4030   19.5340 C   0  0  0  0  0  3  0  0  0  0  0  0
  -28.9050  -13.2870   20.6250 C   0  0  0  0  0  2  0  0  0  0  0  0
  -30.1990  -13.5610   19.9910 N   0  0  0  0  0  0  0  0  0  0  0  0
  -32.0730  -14.7750   19.6370 O   0  0  0  0  0  0  0  0  0  0  0  0
  -30.2020  -15.9150   20.1300 N   0  0  0  0  0  0  0  0  0  0  0  0
  -29.2210  -15.8690   20.3550 H   0  0  0  0  0  0  0  0  0  0  0  0
  -25.4620  -14.0450   20.3330 C   0  0  0  0  0  0  0  0  0  0  0  0
  -24.3920  -13.2930   20.7370 C   0  0  0  0  0  0  0  0  0  0  0  0
  -24.8260  -11.9330   20.6900 C   0  0  0  0  0  0  0  0  0  0  0  0
  -26.4800  -13.1440   20.0650 N   0  0  0  0  0  0  0  0  0  0  0  0
  -26.1060  -11.8690   20.3430 N   0  0  0  0  0  0  0  0  0  0  0  0
  -24.0800  -10.6850   20.9020 C   0  0  0  0  0  0  0  0  0  0  0  0
  -24.5160   -9.7140   21.8290 C   0  0  0  0  0  3  0  0  0  0  0  0
  -23.7710   -8.5320   22.0300 C   0  0  0  0  0  3  0  0  0  0  0  0
  -22.5770   -8.3120   21.3030 C   0  0  0  0  0  0  0  0  0  0  0  0
  -22.1600   -9.2730   20.3650 C   0  0  0  0  0  3  0  0  0  0  0  0
  -22.9040  -10.4470   20.1630 C   0  0  0  0  0  3  0  0  0  0  0  0
  -21.8030   -7.1830   21.4130 O   0  0  0  0  0  0  0  0  0  0  0  0
  -21.7740   -6.4400   22.5660 C   0  0  0  0  0  0  0  0  0  0  0  0
  -21.3650   -6.9930   23.7990 C   0  0  0  0  0  3  0  0  0  0  0  0
  -21.2840   -6.1750   24.9450 C   0  0  0  0  0  3  0  0  0  0  0  0
  -21.6000   -4.8070   24.8580 C   0  0  0  0  0  0  0  0  0  0  0  0
  -22.0010   -4.2540   23.6300 C   0  0  0  0  0  3  0  0  0  0  0  0
  -22.0860   -5.0680   22.4870 C   0  0  0  0  0  0  0  0  0  0  0  0
  -22.4540   -4.5240   21.3010 F   0  0  0  0  0  0  0  0  0  0  0  0
  -21.5140   -4.0200   25.9570 F   0  0  0  0  0  0  0  0  0  0  0  0
  -23.0160  -13.7990   21.0510 C   0  0  0  0  0  0  0  0  0  0  0  0
  -22.3030  -13.1200   21.9430 N   0  0  0  0  0  0  0  0  0  0  0  0
  -22.5840  -14.8320   20.5410 O   0  0  0  0  0  0  0  0  0  0  0  0
  -22.6680  -12.2830   22.3740 H   0  0  0  0  0  0  0  0  0  0  0  0
  -21.3810  -13.4420   22.1980 H   0  0  0  0  0  0  0  0  0  0  0  0
  -25.6490  -15.4120   20.1530 N   0  0  0  0  0  0  0  0  0  0  0  0
  -24.8970  -16.0780   20.2870 H   0  0  0  0  0  0  0  0  0  0  0  0
  -26.4890  -15.8380   19.7850 H   0  0  0  0  0  0  0  0  0  0  0  0
  2  5  1  0
  3  1  1  0
  3  7  1  0
  4  3  2  0
  5 13  1  0
  5  1  2  0
  6  2  2  0
  6  4  1  0
  8  9  1  0
 10  8  1  0
 11  9  1  0
 12 14  1  0
 12 13  1  0
 12 10  1  0
 13 11  1  0
 15 17  1  0
 15 14  1  0
 16 27  2  0
 17 22  1  0
 18 26  1  0
 18 28  1  0
 19 25  1  0
 19 21  1  0
 20 26  1  0
 21 20  1  0
 22 21  2  0
 23 24  1  0
 23 17  2  0
 24 19  2  0
 25 18  1  0
 26 16  1  0
 28 30  2  0
 29 28  1  0
 31 29  1  0
 32 41  2  0
 32 37  1  0
 33 29  1  0
 33 37  1  0
 34 33  1  0
 35 36  1  0
 35 34  1  0
 36 32  1  0
 37 38  2  0
 38 39  1  0
 40 39  2  0
 41 40  1  0
 42 16  1  0
 42 47  1  0
 42 43  1  0
 43 46  1  1
 43 44  1  0
 45 43  1  0
 47 50  1  0
 48 52  1  0
 48 47  1  0
 49 48  2  0
 52 51  1  0
 54 52  1  0
 54 55  1  0
 54 53  1  0
 56 57  1  0
 57  6  1  0
 58  4  1  0
 58 67  1  0
 59 67  1  0
 60 65  1  0
 61 62  1  0
 61 60  1  0
 63 62  1  0
 63 72  1  0
 63 64  1  0
 65 59  1  0
 65 64  1  0
 66 59  2  0
 67 68  1  0
 69 70  2  0
 70 89  1  0
 71 70  1  0
 71 74  1  0
 72 69  1  0
 72 73  1  0
 73 71  2  0
 74 75  1  0
 75 76  2  0
 77 80  1  0
 77 76  1  0
 78 77  2  0
 79 78  1  0
 79 74  2  0
 80 81  1  0
 81 82  1  0
 82 83  2  0
 84 83  1  0
 84 88  1  0
 85 84  2  0
 86 81  2  0
 86 85  1  0
 87 86  1  0
 89 90  1  0
 90 93  1  0
 90 92  1  0
 91 89  2  0
 94 95  1  0
 94 69  1  0
 96 94  1  0
M  ISO  4  14 101  15 101  59 100  67 100
M  END
>  <TORSDO>  (74) 
F 20

>  <SCORE>  (74) 
-12.672

>  <name>  (74) 
73

>  <ligand_id>  (74) 
73

>  <original_smiles>  (74) 
[H]c1c([H])c([H])c2c(c1[H])C([H])([H])C([H])([H])C([H])([H])C2([H])N([H])C(=O)C1([H])N(C(=O)C([H])(N([H])C(=O)C([H])(N([H])C([H])([H])[H])C([H])([H])[H])C(C([H])([H])[H])(C([H])([H])[H])C([H])([H])[H])C([H])([H])c2c([H])c(OC([H])([H])C3([H])N(c4c([H])c(OC([H])([H])[H])c(C([H])([H])N([H])C(=O)N5C([H])([H])C([H])([H])C([H])([H])C([H])(n6nc(-c7c([H])c([H])c(Oc8c([H])c([H])c(F)c([H])c8F)c([H])c7[H])c(C(=O)N([H])[H])c6N([H])[H])C5([H])[H])c(C([H])([H])[H])c4[H])C([H])([H])C([H])([H])C([H])([H])C3([H])[H])c([H])c([H])c2C1([H])[H]

>  <smiles>  (74) 
[H]c1c([H])c([H])c2c(c1[H])C([H])([H])C([H])([H])C([H])([H])C2([H])N([H])C(=O)C1([H])N(C(=O)C([H])(N([H])C(=O)C([H])(N([H])C([H])([H])[H])C([H])([H])[H])C(C([H])([H])[H])(C([H])([H])[H])C([H])([H])[H])C([H])([H])c2c([H])c(OC([H])([H])C3([H])N(c4c([H])c(OC([H])([H])[H])c(C([H])([H])N([H])C(=O)N5C([H])([H])C([H])([H])C([H])([H])C([H])(n6nc(-c7c([H])c([H])c(Oc8c([H])c([H])c(F)c([H])c8F)c([H])c7[H])c(C(=O)N([H])[H])c6N([H])[H])C5([H])[H])c(C([H])([H])[H])c4[H])C([H])([H])C([H])([H])C([H])([H])C3([H])[H])c([H])c([H])c2C1([H])[H]

$$$$
74:0:0
     RDKit          3D

 95104  0  0  1  0  0  0  0  0999 V2000
  -27.9140  -23.6970   19.0260 C   0  0  0  0  0  2  0  0  0  0  0  0
  -28.3080  -22.2130   18.8680 C   0  0  0  0  0  2  0  0  0  0  0  0
  -29.0380  -22.9950   20.9930 C   0  0  0  0  0  2  0  0  0  0  0  0
  -28.8410  -24.2530   20.1110 C   0  0  0  0  0  3  0  0  0  0  0  0
  -29.0920  -21.8280   20.0700 N   0  0  1  0  0  4  0  0  0  0  0  0
  -30.0480  -21.7590   19.7550 H   0  0  0  0  0  0  0  0  0  0  0  0
  -28.7730  -20.4900   20.6750 C   0  0  0  0  0  2  0  0  0  0  0  0
  -29.5610  -18.0340   20.5290 C   0  0  0  0  0  3  0  0  0  0  0  0
  -31.2320  -19.8050   20.4520 C   0  0  0  0  0  3  0  0  0  0  0  0
  -31.9240  -17.4700   20.3700 C   0  0  0  0  0  3  0  0  0  0  0  0
  -29.8750  -19.4230   20.5240 C   0  0  0  0  0  0  0  0  0  0  0  0
  -30.5770  -17.0420   20.4480 C   0  0  0  0  0  0  0  0  0  0  0  0
  -32.2600  -18.8470   20.3670 C   0  0  0  0  0  0  0  0  0  0  0  0
  -30.9320  -14.5660   20.0910 C   0  0  0  0  0  0  0  0  0  0  0  0
  -30.6030  -12.3230   19.1190 C   0  0  0  0  0  2  0  0  0  0  0  0
  -29.6330  -12.4580   17.9270 C   0  0  0  0  0  2  0  0  0  0  0  0
  -28.1710  -12.3350   18.4060 C   0  0  0  0  0  2  0  0  0  0  0  0
  -27.8670  -13.2440   19.6270 C   0  0  0  0  0  3  0  0  0  0  0  0
  -28.9590  -13.1160   20.7150 C   0  0  0  0  0  2  0  0  0  0  0  0
  -30.2600  -13.3810   20.0820 N   0  0  0  0  0  0  0  0  0  0  0  0
  -32.0580  -14.6810   19.5980 O   0  0  0  0  0  0  0  0  0  0  0  0
  -30.2170  -15.6460   20.4980 N   0  0  0  0  0  0  0  0  0  0  0  0
  -29.2690  -15.4370   20.7690 H   0  0  0  0  0  0  0  0  0  0  0  0
  -25.5280  -13.8900   20.4700 C   0  0  0  0  0  0  0  0  0  0  0  0
  -24.4560  -13.1360   20.8700 C   0  0  0  0  0  0  0  0  0  0  0  0
  -24.8750  -11.7740   20.7760 C   0  0  0  0  0  0  0  0  0  0  0  0
  -26.5320  -12.9880   20.1640 N   0  0  0  0  0  0  0  0  0  0  0  0
  -26.1490  -11.7080   20.4060 N   0  0  0  0  0  0  0  0  0  0  0  0
  -24.1230  -10.5270   20.9610 C   0  0  0  0  0  0  0  0  0  0  0  0
  -24.5250   -9.5560   21.9050 C   0  0  0  0  0  3  0  0  0  0  0  0
  -23.7750   -8.3740   22.0790 C   0  0  0  0  0  3  0  0  0  0  0  0
  -22.6060   -8.1550   21.3110 C   0  0  0  0  0  0  0  0  0  0  0  0
  -22.2230   -9.1140   20.3580 C   0  0  0  0  0  3  0  0  0  0  0  0
  -22.9740  -10.2880   20.1810 C   0  0  0  0  0  3  0  0  0  0  0  0
  -21.8290   -7.0250   21.3910 O   0  0  0  0  0  0  0  0  0  0  0  0
  -21.6890   -6.3320   22.5660 C   0  0  0  0  0  0  0  0  0  0  0  0
  -21.1610   -6.9330   23.7300 C   0  0  0  0  0  3  0  0  0  0  0  0
  -20.9720   -6.1650   24.8960 C   0  0  0  0  0  3  0  0  0  0  0  0
  -21.2980   -4.7950   24.8980 C   0  0  0  0  0  0  0  0  0  0  0  0
  -21.8180   -4.1940   23.7380 C   0  0  0  0  0  3  0  0  0  0  0  0
  -22.0090   -4.9600   22.5750 C   0  0  0  0  0  0  0  0  0  0  0  0
  -22.4900   -4.3700   21.4540 F   0  0  0  0  0  0  0  0  0  0  0  0
  -21.1110   -4.0540   26.0150 F   0  0  0  0  0  0  0  0  0  0  0  0
  -23.0890  -13.6440   21.2260 C   0  0  0  0  0  0  0  0  0  0  0  0
  -22.3830  -12.9420   22.1040 N   0  0  0  0  0  0  0  0  0  0  0  0
  -22.6590  -14.6990   20.7590 O   0  0  0  0  0  0  0  0  0  0  0  0
  -22.7450  -12.0880   22.5000 H   0  0  0  0  0  0  0  0  0  0  0  0
  -21.4680  -13.2650   22.3880 H   0  0  0  0  0  0  0  0  0  0  0  0
  -25.7200  -15.2600   20.3180 N   0  0  0  0  0  0  0  0  0  0  0  0
  -24.9610  -15.9190   20.4550 H   0  0  0  0  0  0  0  0  0  0  0  0
  -26.5510  -15.6850   19.9270 H   0  0  0  0  0  0  0  0  0  0  0  0
  -34.5890  -18.4460   19.9270 C   0  0  0  0  0  1  0  0  0  0  0  0
  -33.5460  -19.3360   20.3070 O   0  0  0  0  0  0  0  0  0  0  0  0
  -28.3020  -25.5050   20.8620 C   0  0  0  0  0  2  0  0  0  0  0  0
  -28.4080  -26.7470   20.1300 O   0  0  0  0  0  0  0  0  0  0  0  0
  -24.5870  -31.9180   23.2410 C   0  0  0  0  0  0  0  0  0  0  0  0
  -27.2600  -27.5120   20.1260 C   0  0  0  0  0  0  0  0  0  0  0  0
  -23.3940  -30.5230   21.5850 C   0  0  0  0  0  3  0  0  0  0  0  0
  -24.8600  -29.0090   20.1450 C   0  0  0  0  0  0  0  0  0  0  0  0
  -25.9190  -30.9000   21.3900 C   0  0  0  0  0  2  0  0  0  0  0  0
  -26.0170  -29.5360   20.7340 C   0  0  0  0  0  0  0  0  0  0  0  0
  -27.2260  -28.8000   20.7130 C   0  0  0  0  0  3  0  0  0  0  0  0
  -26.0880  -27.0010   19.5310 C   0  0  0  0  0  3  0  0  0  0  0  0
  -24.8920  -27.7410   19.5380 C   0  0  0  0  0  3  0  0  0  0  0  0
  -23.6090  -29.8560   20.2000 C   0  0  0  0  0  2  0  0  0  0  0  0
  -24.6530  -31.1280   22.1300 N   0  0  0  0  0  0  0  0  0  0  0  0
  -23.5030  -32.1760   23.7830 O   0  0  0  0  0  0  0  0  0  0  0  0
  -22.7490  -29.4880   22.5370 C   0  0  0  0  0  0  0  0  0  0  0  0
  -21.4260  -29.2990   22.4060 N   0  0  0  0  0  0  0  0  0  0  0  0
  -23.4360  -28.8580   23.3450 O   0  0  0  0  0  0  0  0  0  0  0  0
  -20.9350  -29.8570   21.7210 H   0  0  0  0  0  0  0  0  0  0  0  0
  -18.0590  -28.0730   22.8820 C   0  0  0  0  0  0  0  0  0  0  0  0
  -20.6130  -28.3470   23.1640 C   0  0  0  0  0  3  0  0  0  0  0  0
  -20.7280  -26.9230   22.5740 C   0  0  0  0  0  2  0  0  0  0  0  0
  -19.6310  -26.6020   21.5530 C   0  0  0  0  0  2  0  0  0  0  0  0
  -18.2470  -26.7310   22.1950 C   0  0  0  0  0  2  0  0  0  0  0  0
  -19.1700  -28.8390   23.3220 C   0  0  0  0  0  0  0  0  0  0  0  0
  -18.9390  -30.0970   23.9220 C   0  0  0  0  0  3  0  0  0  0  0  0
  -17.6310  -30.5860   24.0890 C   0  0  0  0  0  3  0  0  0  0  0  0
  -16.5340  -29.8150   23.6670 C   0  0  0  0  0  3  0  0  0  0  0  0
  -16.7490  -28.5610   23.0690 C   0  0  0  0  0  3  0  0  0  0  0  0
  -25.8670  -32.5520   23.8690 C   0  0  0  0  0  3  0  0  0  0  0  0
  -26.3770  -31.7860   25.1510 C   0  0  1  0  0  0  0  0  0  0  0  0
  -25.2770  -31.5460   26.2110 C   0  0  0  0  0  1  0  0  0  0  0  0
  -26.9660  -30.4110   24.7640 C   0  0  0  0  0  1  0  0  0  0  0  0
  -27.5220  -32.5850   25.8160 C   0  0  0  0  0  1  0  0  0  0  0  0
  -25.5550  -33.9520   24.1900 N   0  0  0  0  0  0  0  0  0  0  0  0
  -25.8980  -35.0020   23.4310 C   0  0  0  0  0  0  0  0  0  0  0  0
  -26.5800  -34.8940   22.4090 O   0  0  0  0  0  0  0  0  0  0  0  0
  -24.9490  -34.1080   24.9820 H   0  0  0  0  0  0  0  0  0  0  0  0
  -24.1800  -36.7970   23.0390 C   0  0  0  0  0  1  0  0  0  0  0  0
  -25.4040  -36.3920   23.8760 C   0  0  0  0  0  3  0  0  0  0  0  0
  -27.5220  -37.2740   24.7520 C   0  0  0  0  0  1  0  0  0  0  0  0
  -26.4420  -37.4420   23.7830 N   0  0  0  0  0  0  0  0  0  0  0  0
  -26.0360  -38.3640   23.9170 H   0  0  0  0  0  0  0  0  0  0  0  0
  1  4  1  0
  2  1  1  0
  2  5  1  0
  4 54  1  0
  4  3  1  0
  5  7  1  0
  5  3  1  0
  5  6  1  6
  9 11  2  0
 10 12  1  0
 11  8  1  0
 11  7  1  0
 12 22  1  0
 12  8  2  0
 13 10  2  0
 13  9  1  0
 14 22  1  0
 15 20  1  0
 16 17  1  0
 16 15  1  0
 18 17  1  0
 18 27  1  0
 18 19  1  0
 20 14  1  0
 20 19  1  0
 21 14  2  0
 22 23  1  0
 24 25  2  0
 25 44  1  0
 26 25  1  0
 26 29  1  0
 27 28  1  0
 27 24  1  0
 28 26  2  0
 29 30  1  0
 30 31  2  0
 32 35  1  0
 32 31  1  0
 33 32  2  0
 34 33  1  0
 34 29  2  0
 35 36  1  0
 36 41  2  0
 36 37  1  0
 37 38  2  0
 38 39  1  0
 39 43  1  0
 40 39  2  0
 41 40  1  0
 42 41  1  0
 44 45  1  0
 45 48  1  0
 45 47  1  0
 46 44  2  0
 49 50  1  0
 49 24  1  0
 51 49  1  0
 52 53  1  0
 53 13  1  0
 55 54  1  0
 56 67  2  0
 57 55  1  0
 57 62  1  0
 58 66  1  0
 58 68  1  0
 59 65  1  0
 59 61  1  0
 60 66  1  0
 61 60  1  0
 62 61  2  0
 63 64  1  0
 63 57  2  0
 64 59  2  0
 65 58  1  0
 66 56  1  0
 68 70  2  0
 69 68  1  0
 71 69  1  0
 72 81  2  0
 72 77  1  0
 73 69  1  0
 73 77  1  0
 74 73  1  0
 75 76  1  0
 75 74  1  0
 76 72  1  0
 77 78  2  0
 78 79  1  0
 80 79  2  0
 81 80  1  0
 82 56  1  0
 82 87  1  0
 82 83  1  0
 83 86  1  1
 83 84  1  0
 85 83  1  0
 87 90  1  0
 88 92  1  0
 88 87  1  0
 89 88  2  0
 92 91  1  0
 94 92  1  0
 94 95  1  0
 94 93  1  0
M  ISO  4  14 100  22 100  54 101  55 101
M  END
>  <TORSDO>  (75) 
F 20

>  <SCORE>  (75) 
-13.919

>  <name>  (75) 
74

>  <ligand_id>  (75) 
74

>  <original_smiles>  (75) 
[H]c1c([H])c([H])c2c(c1[H])C([H])([H])C([H])([H])C([H])([H])C2([H])N([H])C(=O)C1([H])N(C(=O)C([H])(N([H])C(=O)C([H])(N([H])C([H])([H])[H])C([H])([H])[H])C(C([H])([H])[H])(C([H])([H])[H])C([H])([H])[H])C([H])([H])c2c([H])c(OC([H])([H])C3([H])C([H])([H])C([H])([H])[N+]([H])(C([H])([H])c4c([H])c(OC([H])([H])[H])c([H])c(N([H])C(=O)N5C([H])([H])C([H])([H])C([H])([H])C([H])(n6nc(-c7c([H])c([H])c(Oc8c([H])c([H])c(F)c([H])c8F)c([H])c7[H])c(C(=O)N([H])[H])c6N([H])[H])C5([H])[H])c4[H])C3([H])[H])c([H])c([H])c2C1([H])[H]

>  <smiles>  (75) 
[H]c1c([H])c([H])c2c(c1[H])C([H])([H])C([H])([H])C([H])([H])C2([H])N([H])C(=O)C1([H])N(C(=O)C([H])(N([H])C(=O)C([H])(N([H])C([H])([H])[H])C([H])([H])[H])C(C([H])([H])[H])(C([H])([H])[H])C([H])([H])[H])C([H])([H])c2c([H])c(OC([H])([H])C3([H])C([H])([H])C([H])([H])[N+]([H])(C([H])([H])c4c([H])c(OC([H])([H])[H])c([H])c(N([H])C(=O)N5C([H])([H])C([H])([H])C([H])([H])C([H])(n6nc(-c7c([H])c([H])c(Oc8c([H])c([H])c(F)c([H])c8F)c([H])c7[H])c(C(=O)N([H])[H])c6N([H])[H])C5([H])[H])c4[H])C3([H])[H])c([H])c([H])c2C1([H])[H]

$$$$
75:0:0
     RDKit          3D

 95103  0  0  1  0  0  0  0  0999 V2000
  -29.0200  -19.6190   20.5010 C   0  0  0  0  0  3  0  0  0  0  0  0
  -31.1770  -18.0640   21.3550 C   0  0  0  0  0  3  0  0  0  0  0  0
  -28.9980  -18.2040   20.3410 C   0  0  0  0  0  0  0  0  0  0  0  0
  -30.1190  -20.3070   21.0440 C   0  0  0  0  0  0  0  0  0  0  0  0
  -30.0950  -17.3610   20.7490 C   0  0  0  0  0  0  0  0  0  0  0  0
  -31.1900  -19.4870   21.4980 C   0  0  0  0  0  0  0  0  0  0  0  0
  -32.2730  -20.0800   22.0590 F   0  0  0  0  0  0  0  0  0  0  0  0
  -30.8450  -14.8830   21.0140 C   0  0  0  0  0  0  0  0  0  0  0  0
  -30.7400  -12.5430   20.1720 C   0  0  0  0  0  2  0  0  0  0  0  0
  -29.9320  -12.4600   18.8580 C   0  0  0  0  0  2  0  0  0  0  0  0
  -28.4150  -12.3850   19.1290 C   0  0  0  0  0  2  0  0  0  0  0  0
  -27.9090  -13.3420   20.2460 C   0  0  0  0  0  3  0  0  0  0  0  0
  -28.8580  -13.3620   21.4630 C   0  0  0  0  0  2  0  0  0  0  0  0
  -30.2020  -13.6680   20.9620 N   0  0  0  0  0  0  0  0  0  0  0  0
  -32.0750  -14.9240   21.0660 O   0  0  0  0  0  0  0  0  0  0  0  0
  -30.3610  -15.8210   18.8980 C   0  0  0  0  0  1  0  0  0  0  0  0
  -30.2010  -15.9330   20.3610 N   0  0  0  0  0  0  0  0  0  0  0  0
  -25.4470  -13.9100   20.7150 C   0  0  0  0  0  0  0  0  0  0  0  0
  -24.3570  -13.1390   20.9870 C   0  0  0  0  0  0  0  0  0  0  0  0
  -24.8370  -11.7980   21.0480 C   0  0  0  0  0  0  0  0  0  0  0  0
  -26.5260  -13.0490   20.6200 N   0  0  0  0  0  0  0  0  0  0  0  0
  -26.1560  -11.7700   20.8870 N   0  0  0  0  0  0  0  0  0  0  0  0
  -24.1050  -10.5370   21.1930 C   0  0  0  0  0  0  0  0  0  0  0  0
  -24.4610   -9.5880   22.1770 C   0  0  0  0  0  3  0  0  0  0  0  0
  -23.7290   -8.3900   22.3120 C   0  0  0  0  0  3  0  0  0  0  0  0
  -22.6270   -8.1340   21.4610 C   0  0  0  0  0  0  0  0  0  0  0  0
  -22.2910   -9.0710   20.4690 C   0  0  0  0  0  3  0  0  0  0  0  0
  -23.0240  -10.2610   20.3330 C   0  0  0  0  0  3  0  0  0  0  0  0
  -21.8730   -6.9870   21.5010 O   0  0  0  0  0  0  0  0  0  0  0  0
  -21.7460   -6.2510   22.6510 C   0  0  0  0  0  0  0  0  0  0  0  0
  -21.1990   -6.8020   23.8300 C   0  0  0  0  0  3  0  0  0  0  0  0
  -21.0240   -5.9930   24.9710 C   0  0  0  0  0  3  0  0  0  0  0  0
  -21.3830   -4.6330   24.9310 C   0  0  0  0  0  0  0  0  0  0  0  0
  -21.9220   -4.0800   23.7550 C   0  0  0  0  0  3  0  0  0  0  0  0
  -22.1010   -4.8880   22.6180 C   0  0  0  0  0  0  0  0  0  0  0  0
  -22.6020   -4.3460   21.4820 F   0  0  0  0  0  0  0  0  0  0  0  0
  -21.2060   -3.8520   26.0220 F   0  0  0  0  0  0  0  0  0  0  0  0
  -22.9360  -13.6130   21.0920 C   0  0  0  0  0  0  0  0  0  0  0  0
  -22.1240  -12.9410   21.8990 N   0  0  0  0  0  0  0  0  0  0  0  0
  -22.5500  -14.6190   20.4960 O   0  0  0  0  0  0  0  0  0  0  0  0
  -22.4430  -12.1280   22.4050 H   0  0  0  0  0  0  0  0  0  0  0  0
  -21.1660  -13.2440   22.0120 H   0  0  0  0  0  0  0  0  0  0  0  0
  -25.5900  -15.2710   20.5230 N   0  0  0  0  0  0  0  0  0  0  0  0
  -24.7980  -15.9000   20.5680 H   0  0  0  0  0  0  0  0  0  0  0  0
  -26.4630  -15.7740   20.4450 H   0  0  0  0  0  0  0  0  0  0  0  0
  -27.7020  -17.7450   19.8010 C   0  0  0  0  0  0  0  0  0  0  0  0
  -27.5930  -17.4480   18.3140 C   0  0  0  0  0  1  0  0  0  0  0  0
  -26.6780  -17.7710   20.4830 O   0  0  0  0  0  0  0  0  0  0  0  0
  -30.1550  -21.7370   21.1370 N   0  0  0  0  0  0  0  0  0  0  0  0
  -31.0150  -22.1730   21.4620 H   0  0  0  0  0  0  0  0  0  0  0  0
  -29.1210  -22.6570   20.5620 C   0  0  0  0  0  2  0  0  0  0  0  0
  -29.3410  -24.2140   20.7030 C   0  0  0  0  0  0  0  0  0  0  0  0
  -30.3770  -24.6510   21.2160 O   0  0  0  0  0  0  0  0  0  0  0  0
  -28.2150  -25.1790   20.1760 C   0  0  0  0  0  2  0  0  0  0  0  0
  -28.4200  -26.6310   20.3530 O   0  0  0  0  0  0  0  0  0  0  0  0
  -24.5350  -31.9500   23.2590 C   0  0  0  0  0  0  0  0  0  0  0  0
  -27.2810  -27.4450   20.2630 C   0  0  0  0  0  0  0  0  0  0  0  0
  -23.3860  -30.5400   21.5910 C   0  0  0  0  0  3  0  0  0  0  0  0
  -24.8880  -29.0110   20.1980 C   0  0  0  0  0  0  0  0  0  0  0  0
  -25.9230  -30.8920   21.4670 C   0  0  0  0  0  2  0  0  0  0  0  0
  -26.0340  -29.5180   20.8220 C   0  0  0  0  0  0  0  0  0  0  0  0
  -27.2330  -28.7470   20.8450 C   0  0  0  0  0  3  0  0  0  0  0  0
  -26.1080  -26.9880   19.6120 C   0  0  0  0  0  3  0  0  0  0  0  0
  -24.9270  -27.7510   19.5840 C   0  0  0  0  0  3  0  0  0  0  0  0
  -23.6380  -29.8670   20.2150 C   0  0  0  0  0  2  0  0  0  0  0  0
  -24.6320  -31.1440   22.1630 N   0  0  0  0  0  0  0  0  0  0  0  0
  -23.4370  -32.2160   23.7680 O   0  0  0  0  0  0  0  0  0  0  0  0
  -22.7110  -29.5150   22.5330 C   0  0  0  0  0  0  0  0  0  0  0  0
  -21.3850  -29.3470   22.3940 N   0  0  0  0  0  0  0  0  0  0  0  0
  -23.3800  -28.8730   23.3470 O   0  0  0  0  0  0  0  0  0  0  0  0
  -20.9060  -29.9170   21.7100 H   0  0  0  0  0  0  0  0  0  0  0  0
  -17.9880  -28.2100   22.8910 C   0  0  0  0  0  0  0  0  0  0  0  0
  -20.5530  -28.4080   23.1470 C   0  0  0  0  0  3  0  0  0  0  0  0
  -20.6210  -26.9900   22.5350 C   0  0  0  0  0  2  0  0  0  0  0  0
  -19.5050  -26.7170   21.5220 C   0  0  0  0  0  2  0  0  0  0  0  0
  -18.1320  -26.8740   22.1810 C   0  0  0  0  0  2  0  0  0  0  0  0
  -19.1260  -28.9370   23.3310 C   0  0  0  0  0  0  0  0  0  0  0  0
  -18.9390  -30.1890   23.9560 C   0  0  0  0  0  3  0  0  0  0  0  0
  -17.6460  -30.7130   24.1450 C   0  0  0  0  0  3  0  0  0  0  0  0
  -16.5230  -29.9820   23.7210 C   0  0  0  0  0  3  0  0  0  0  0  0
  -16.6950  -28.7330   23.1000 C   0  0  0  0  0  3  0  0  0  0  0  0
  -25.7980  -32.5940   23.9130 C   0  0  0  0  0  3  0  0  0  0  0  0
  -25.4740  -33.9950   24.2140 N   0  0  0  0  0  0  0  0  0  0  0  0
  -25.8580  -35.0410   23.4700 C   0  0  0  0  0  0  0  0  0  0  0  0
  -26.5890  -34.9270   22.4830 O   0  0  0  0  0  0  0  0  0  0  0  0
  -24.8320  -34.1580   24.9770 H   0  0  0  0  0  0  0  0  0  0  0  0
  -24.1820  -36.8510   22.9810 C   0  0  0  0  0  1  0  0  0  0  0  0
  -25.3510  -36.4350   23.8880 C   0  0  0  0  0  3  0  0  0  0  0  0
  -27.4150  -37.3030   24.8930 C   0  0  0  0  0  1  0  0  0  0  0  0
  -26.4010  -37.4770   23.8580 N   0  0  0  0  0  0  0  0  0  0  0  0
  -25.9930  -38.4030   23.9660 H   0  0  0  0  0  0  0  0  0  0  0  0
  -26.2740  -31.8410   25.2150 C   0  0  1  0  0  0  0  0  0  0  0  0
  -25.1470  -31.6090   26.2490 C   0  0  0  0  0  1  0  0  0  0  0  0
  -26.8770  -30.4620   24.8600 C   0  0  0  0  0  1  0  0  0  0  0  0
  -27.3980  -32.6490   25.9060 C   0  0  0  0  0  1  0  0  0  0  0  0
  1  4  1  0
  2  6  1  0
  3  1  2  0
  3  5  1  0
  4 49  1  0
  4  6  2  0
  5  2  2  0
  6  7  1  0
  8 15  2  0
  9 14  1  0
 10 11  1  0
 10  9  1  0
 12 11  1  0
 12 21  1  0
 12 13  1  0
 14  8  1  0
 14 13  1  0
 16 17  1  0
 17  5  1  0
 17  8  1  0
 18 19  2  0
 19 20  1  0
 19 38  1  0
 20 23  1  0
 21 18  1  0
 21 22  1  0
 22 20  2  0
 23 24  1  0
 24 25  2  0
 26 29  1  0
 26 25  1  0
 27 26  2  0
 28 27  1  0
 28 23  2  0
 29 30  1  0
 30 31  1  0
 31 32  2  0
 33 32  1  0
 33 37  1  0
 34 33  2  0
 35 30  2  0
 35 34  1  0
 36 35  1  0
 38 39  1  0
 39 42  1  0
 39 41  1  0
 40 38  2  0
 43 44  1  0
 43 18  1  0
 45 43  1  0
 46  3  1  0
 46 48  2  0
 47 46  1  0
 49 50  1  0
 51 52  1  0
 51 49  1  0
 52 53  2  0
 54 55  1  0
 54 52  1  0
 56 67  2  0
 57 55  1  0
 57 62  1  0
 58 66  1  0
 58 68  1  0
 59 65  1  0
 59 61  1  0
 60 66  1  0
 61 62  2  0
 61 60  1  0
 63 57  2  0
 64 63  1  0
 64 59  2  0
 65 58  1  0
 66 56  1  0
 68 70  2  0
 69 68  1  0
 71 69  1  0
 72 81  2  0
 72 77  1  0
 73 69  1  0
 73 77  1  0
 74 73  1  0
 75 76  1  0
 75 74  1  0
 76 72  1  0
 77 78  2  0
 78 79  1  0
 80 79  2  0
 81 80  1  0
 82 56  1  0
 82 83  1  0
 82 92  1  0
 83 86  1  0
 84 88  1  0
 84 83  1  0
 85 84  2  0
 88 87  1  0
 90 88  1  0
 90 91  1  0
 90 89  1  0
 92 95  1  1
 92 93  1  0
 94 92  1  0
M  ISO  4   8 100  17 100  54 101  55 101
M  END
>  <TORSDO>  (76) 
F 21

>  <SCORE>  (76) 
-13.735

>  <name>  (76) 
75

>  <ligand_id>  (76) 
75

>  <original_smiles>  (76) 
[H]c1c([H])c([H])c2c(c1[H])C([H])([H])C([H])([H])C([H])([H])C2([H])N([H])C(=O)C1([H])N(C(=O)C([H])(N([H])C(=O)C([H])(N([H])C([H])([H])[H])C([H])([H])[H])C(C([H])([H])[H])(C([H])([H])[H])C([H])([H])[H])C([H])([H])c2c([H])c(OC([H])([H])C(=O)C([H])([H])N([H])c3c([H])c(C(=O)C([H])([H])[H])c(N(C(=O)N4C([H])([H])C([H])([H])C([H])([H])C([H])(n5nc(-c6c([H])c([H])c(Oc7c([H])c([H])c(F)c([H])c7F)c([H])c6[H])c(C(=O)N([H])[H])c5N([H])[H])C4([H])[H])C([H])([H])[H])c([H])c3F)c([H])c([H])c2C1([H])[H]

>  <smiles>  (76) 
[H]c1c([H])c([H])c2c(c1[H])C([H])([H])C([H])([H])C([H])([H])C2([H])N([H])C(=O)C1([H])N(C(=O)C([H])(N([H])C(=O)C([H])(N([H])C([H])([H])[H])C([H])([H])[H])C(C([H])([H])[H])(C([H])([H])[H])C([H])([H])[H])C([H])([H])c2c([H])c(OC([H])([H])C(=O)C([H])([H])N([H])c3c([H])c(C(=O)C([H])([H])[H])c(N(C(=O)N4C([H])([H])C([H])([H])C([H])([H])C([H])(n5nc(-c6c([H])c([H])c(Oc7c([H])c([H])c(F)c([H])c7F)c([H])c6[H])c(C(=O)N([H])[H])c5N([H])[H])C4([H])[H])C([H])([H])[H])c([H])c3F)c([H])c([H])c2C1([H])[H]

$$$$
76:0:0
     RDKit          3D

 97105  0  0  1  0  0  0  0  0999 V2000
  -29.0730  -20.0190   19.3870 C   0  0  0  0  0  3  0  0  0  0  0  0
  -29.7430  -20.5640   21.6340 C   0  0  0  0  0  3  0  0  0  0  0  0
  -30.2080  -18.2820   20.7560 C   0  0  0  0  0  0  0  0  0  0  0  0
  -29.5910  -18.7010   19.5360 C   0  0  0  0  0  0  0  0  0  0  0  0
  -29.1530  -20.9800   20.4210 C   0  0  0  0  0  0  0  0  0  0  0  0
  -30.2530  -19.2490   21.8170 C   0  0  0  0  0  0  0  0  0  0  0  0
  -29.5180  -17.7740   18.3260 C   0  0  0  0  0  1  0  0  0  0  0  0
  -30.9990  -14.6430   20.0830 C   0  0  0  0  0  0  0  0  0  0  0  0
  -30.5730  -12.4930   18.9280 C   0  0  0  0  0  2  0  0  0  0  0  0
  -29.5660  -12.7000   17.7810 C   0  0  0  0  0  2  0  0  0  0  0  0
  -28.1240  -12.5500   18.3000 C   0  0  0  0  0  2  0  0  0  0  0  0
  -27.8620  -13.3780   19.5870 C   0  0  0  0  0  3  0  0  0  0  0  0
  -28.9880  -13.1960   20.6290 C   0  0  0  0  0  2  0  0  0  0  0  0
  -30.2610  -13.4990   19.9620 N   0  0  0  0  0  0  0  0  0  0  0  0
  -32.1420  -14.6920   19.6220 O   0  0  0  0  0  0  0  0  0  0  0  0
  -30.9720  -16.9500   20.8340 C   0  0  0  0  0  0  0  0  0  0  0  0
  -30.3630  -15.7710   20.5120 N   0  0  0  0  0  0  0  0  0  0  0  0
  -32.1580  -17.0110   21.1850 O   0  0  0  0  0  0  0  0  0  0  0  0
  -29.3580  -15.7550   20.5370 H   0  0  0  0  0  0  0  0  0  0  0  0
  -25.5270  -13.9710   20.4730 C   0  0  0  0  0  0  0  0  0  0  0  0
  -24.4780  -13.1930   20.8860 C   0  0  0  0  0  0  0  0  0  0  0  0
  -24.9260  -11.8410   20.7870 C   0  0  0  0  0  0  0  0  0  0  0  0
  -26.5460  -13.0900   20.1500 N   0  0  0  0  0  0  0  0  0  0  0  0
  -26.1950  -11.8020   20.3990 N   0  0  0  0  0  0  0  0  0  0  0  0
  -24.2010  -10.5790   20.9830 C   0  0  0  0  0  0  0  0  0  0  0  0
  -24.6370   -9.6140   21.9190 C   0  0  0  0  0  3  0  0  0  0  0  0
  -23.9120   -8.4170   22.1040 C   0  0  0  0  0  3  0  0  0  0  0  0
  -22.7380   -8.1740   21.3520 C   0  0  0  0  0  0  0  0  0  0  0  0
  -22.3220   -9.1260   20.4050 C   0  0  0  0  0  3  0  0  0  0  0  0
  -23.0460  -10.3160   20.2190 C   0  0  0  0  0  3  0  0  0  0  0  0
  -21.9860   -7.0280   21.4460 O   0  0  0  0  0  0  0  0  0  0  0  0
  -21.8690   -6.3390   22.6260 C   0  0  0  0  0  0  0  0  0  0  0  0
  -21.3580   -6.9420   23.7950 C   0  0  0  0  0  3  0  0  0  0  0  0
  -21.1910   -6.1760   24.9670 C   0  0  0  0  0  3  0  0  0  0  0  0
  -21.5240   -4.8090   24.9690 C   0  0  0  0  0  0  0  0  0  0  0  0
  -22.0260   -4.2040   23.8020 C   0  0  0  0  0  3  0  0  0  0  0  0
  -22.1950   -4.9670   22.6340 C   0  0  0  0  0  0  0  0  0  0  0  0
  -22.6610   -4.3760   21.5070 F   0  0  0  0  0  0  0  0  0  0  0  0
  -21.3560   -4.0710   26.0900 F   0  0  0  0  0  0  0  0  0  0  0  0
  -23.1060  -13.6720   21.2580 C   0  0  0  0  0  0  0  0  0  0  0  0
  -22.4340  -12.9640   22.1600 N   0  0  0  0  0  0  0  0  0  0  0  0
  -22.6390  -14.7080   20.7850 O   0  0  0  0  0  0  0  0  0  0  0  0
  -22.8280  -12.1270   22.5630 H   0  0  0  0  0  0  0  0  0  0  0  0
  -21.5160  -13.2660   22.4530 H   0  0  0  0  0  0  0  0  0  0  0  0
  -25.6900  -15.3430   20.3210 N   0  0  0  0  0  0  0  0  0  0  0  0
  -24.9270  -15.9930   20.4790 H   0  0  0  0  0  0  0  0  0  0  0  0
  -26.5070  -15.7850   19.9220 H   0  0  0  0  0  0  0  0  0  0  0  0
  -30.7880  -18.9690   23.0820 N   0  0  0  0  0  0  0  0  0  0  0  0
  -30.7110  -19.6280   23.8510 H   0  0  0  0  0  0  0  0  0  0  0  0
  -31.1270  -18.0500   23.3500 H   0  0  0  0  0  0  0  0  0  0  0  0
  -28.5710  -22.2660   20.2630 N   0  0  0  0  0  0  0  0  0  0  0  0
  -27.8190  -22.2920   19.5800 H   0  0  0  0  0  0  0  0  0  0  0  0
  -29.3910  -23.5000   20.2130 C   0  0  0  0  0  2  0  0  0  0  0  0
  -28.7660  -25.8840   21.1010 C   0  0  0  0  0  3  0  0  0  0  0  0
  -29.0650  -24.5650   21.2800 C   0  0  0  0  0  0  0  0  0  0  0  0
  -29.1170  -24.0270   22.6980 C   0  0  0  0  0  1  0  0  0  0  0  0
  -28.6570  -26.6200   19.9340 O   0  0  0  0  0  0  0  0  0  0  0  0
  -24.6840  -31.6660   23.0940 C   0  0  0  0  0  0  0  0  0  0  0  0
  -27.5290  -27.4190   19.8920 C   0  0  0  0  0  0  0  0  0  0  0  0
  -23.5490  -30.2620   21.4050 C   0  0  0  0  0  3  0  0  0  0  0  0
  -25.0770  -28.8430   19.9290 C   0  0  0  0  0  0  0  0  0  0  0  0
  -26.0600  -30.7390   21.2280 C   0  0  0  0  0  2  0  0  0  0  0  0
  -26.2110  -29.3940   20.5420 C   0  0  0  0  0  0  0  0  0  0  0  0
  -27.4430  -28.6890   20.5230 C   0  0  0  0  0  3  0  0  0  0  0  0
  -26.3810  -26.8970   19.2650 C   0  0  0  0  0  3  0  0  0  0  0  0
  -25.1590  -27.5970   19.2840 C   0  0  0  0  0  3  0  0  0  0  0  0
  -23.7920  -29.6390   20.0050 C   0  0  0  0  0  2  0  0  0  0  0  0
  -24.7820  -30.9040   21.9670 N   0  0  0  0  0  0  0  0  0  0  0  0
  -23.5900  -31.8690   23.6380 O   0  0  0  0  0  0  0  0  0  0  0  0
  -22.9440  -29.1810   22.3300 C   0  0  0  0  0  0  0  0  0  0  0  0
  -21.6260  -28.9530   22.2050 N   0  0  0  0  0  0  0  0  0  0  0  0
  -23.6560  -28.5530   23.1180 O   0  0  0  0  0  0  0  0  0  0  0  0
  -21.1090  -29.5090   21.5400 H   0  0  0  0  0  0  0  0  0  0  0  0
  -18.3040  -27.6100   22.6780 C   0  0  0  0  0  0  0  0  0  0  0  0
  -20.8520  -27.9580   22.9470 C   0  0  0  0  0  3  0  0  0  0  0  0
  -21.0070  -26.5530   22.3190 C   0  0  0  0  0  2  0  0  0  0  0  0
  -19.9120  -26.2250   21.2990 C   0  0  0  0  0  2  0  0  0  0  0  0
  -18.5290  -26.2930   21.9530 C   0  0  0  0  0  2  0  0  0  0  0  0
  -19.3940  -28.3990   23.1300 C   0  0  0  0  0  0  0  0  0  0  0  0
  -19.1300  -29.6310   23.7670 C   0  0  0  0  0  3  0  0  0  0  0  0
  -17.8070  -30.0730   23.9580 C   0  0  0  0  0  3  0  0  0  0  0  0
  -16.7310  -29.2800   23.5230 C   0  0  0  0  0  3  0  0  0  0  0  0
  -16.9810  -28.0500   22.8870 C   0  0  0  0  0  3  0  0  0  0  0  0
  -25.9370  -32.3390   23.7360 C   0  0  0  0  0  3  0  0  0  0  0  0
  -26.5040  -31.5410   24.9750 C   0  0  1  0  0  0  0  0  0  0  0  0
  -25.4320  -31.2050   26.0360 C   0  0  0  0  0  1  0  0  0  0  0  0
  -27.1500  -30.2110   24.5210 C   0  0  0  0  0  1  0  0  0  0  0  0
  -27.6200  -32.3620   25.6610 C   0  0  0  0  0  1  0  0  0  0  0  0
  -25.5580  -33.7040   24.1260 N   0  0  0  0  0  0  0  0  0  0  0  0
  -25.8300  -34.8030   23.4090 C   0  0  0  0  0  0  0  0  0  0  0  0
  -26.4990  -34.7770   22.3730 O   0  0  0  0  0  0  0  0  0  0  0  0
  -24.9610  -33.7950   24.9360 H   0  0  0  0  0  0  0  0  0  0  0  0
  -24.0050  -36.5100   23.1380 C   0  0  0  0  0  1  0  0  0  0  0  0
  -25.2730  -36.1430   23.9250 C   0  0  0  0  0  3  0  0  0  0  0  0
  -27.3630  -37.1090   24.7790 C   0  0  0  0  0  1  0  0  0  0  0  0
  -26.2470  -37.2550   23.8480 N   0  0  0  0  0  0  0  0  0  0  0  0
  -25.7930  -38.1450   24.0340 H   0  0  0  0  0  0  0  0  0  0  0  0
  1  4  2  0
  1  5  1  0
  2  6  1  0
  3 16  1  0
  3  6  2  0
  4  3  1  0
  5  2  2  0
  6 48  1  0
  7  4  1  0
  8 17  1  0
  9 14  1  0
 10 11  1  0
 10  9  1  0
 12 11  1  0
 12 23  1  0
 12 13  1  0
 14  8  1  0
 14 13  1  0
 15  8  2  0
 16 18  2  0
 17 19  1  0
 17 16  1  0
 20 21  2  0
 21 40  1  0
 22 21  1  0
 22 25  1  0
 23 24  1  0
 23 20  1  0
 24 22  2  0
 25 26  1  0
 26 27  2  0
 28 31  1  0
 28 27  1  0
 29 28  2  0
 30 29  1  0
 30 25  2  0
 31 32  1  0
 32 37  2  0
 32 33  1  0
 33 34  2  0
 34 35  1  0
 35 39  1  0
 36 35  2  0
 37 36  1  0
 38 37  1  0
 40 41  1  0
 41 44  1  0
 41 43  1  0
 42 40  2  0
 45 20  1  0
 45 46  1  0
 47 45  1  0
 48 50  1  0
 48 49  1  0
 51  5  1  0
 52 51  1  0
 53 51  1  0
 53 55  1  0
 54 55  2  0
 55 56  1  0
 57 54  1  0
 58 69  2  0
 59 57  1  0
 59 64  1  0
 60 68  1  0
 60 70  1  0
 61 67  1  0
 61 63  1  0
 62 68  1  0
 63 62  1  0
 64 63  2  0
 65 66  1  0
 65 59  2  0
 66 61  2  0
 67 60  1  0
 68 58  1  0
 70 72  2  0
 71 70  1  0
 73 71  1  0
 74 83  2  0
 74 79  1  0
 75 71  1  0
 75 79  1  0
 76 75  1  0
 77 78  1  0
 77 76  1  0
 78 74  1  0
 79 80  2  0
 80 81  1  0
 82 81  2  0
 83 82  1  0
 84 58  1  0
 84 89  1  0
 84 85  1  0
 85 88  1  1
 85 86  1  0
 87 85  1  0
 89 92  1  0
 90 94  1  0
 90 89  1  0
 91 90  2  0
 94 93  1  0
 96 94  1  0
 96 97  1  0
 96 95  1  0
M  ISO  4   8 100  17 100  54 101  57 101
M  END
>  <TORSDO>  (77) 
F 20

>  <SCORE>  (77) 
-13.184

>  <name>  (77) 
76

>  <ligand_id>  (77) 
76

>  <original_smiles>  (77) 
[H]C(Oc1c([H])c([H])c2c(c1[H])C([H])([H])N(C(=O)C([H])(N([H])C(=O)C([H])(N([H])C([H])([H])[H])C([H])([H])[H])C(C([H])([H])[H])(C([H])([H])[H])C([H])([H])[H])C([H])(C(=O)N([H])C1([H])c3c([H])c([H])c([H])c([H])c3C([H])([H])C([H])([H])C1([H])[H])C2([H])[H])=C(C([H])([H])[H])C([H])([H])N([H])c1c([H])c(N([H])[H])c(C(=O)N([H])C(=O)N2C([H])([H])C([H])([H])C([H])([H])C([H])(n3nc(-c4c([H])c([H])c(Oc5c([H])c([H])c(F)c([H])c5F)c([H])c4[H])c(C(=O)N([H])[H])c3N([H])[H])C2([H])[H])c(C([H])([H])[H])c1[H]

>  <smiles>  (77) 
[H]C(Oc1c([H])c([H])c2c(c1[H])C([H])([H])N(C(=O)C([H])(N([H])C(=O)C([H])(N([H])C([H])([H])[H])C([H])([H])[H])C(C([H])([H])[H])(C([H])([H])[H])C([H])([H])[H])C([H])(C(=O)N([H])C1([H])c3c([H])c([H])c([H])c([H])c3C([H])([H])C([H])([H])C1([H])[H])C2([H])[H])=C(C([H])([H])[H])C([H])([H])N([H])c1c([H])c(N([H])[H])c(C(=O)N([H])C(=O)N2C([H])([H])C([H])([H])C([H])([H])C([H])(n3nc(-c4c([H])c([H])c(Oc5c([H])c([H])c(F)c([H])c5F)c([H])c4[H])c(C(=O)N([H])[H])c3N([H])[H])C2([H])[H])c(C([H])([H])[H])c1[H]

$$$$
77:0:0
     RDKit          3D

 93101  0  0  1  0  0  0  0  0999 V2000
  -31.1620  -17.9970   19.8450 C   0  0  0  0  0  3  0  0  0  0  0  0
  -31.0440  -19.3960   19.5880 C   0  0  0  0  0  3  0  0  0  0  0  0
  -28.9090  -17.9940   20.6510 C   0  0  0  0  0  3  0  0  0  0  0  0
  -30.0980  -17.2440   20.4070 C   0  0  0  0  0  0  0  0  0  0  0  0
  -28.7800  -19.3910   20.3910 C   0  0  0  0  0  0  0  0  0  0  0  0
  -29.8720  -20.1500   19.8670 C   0  0  0  0  0  0  0  0  0  0  0  0
  -30.1790  -15.7740   20.8680 C   0  0  0  0  0  0  0  0  0  0  0  0
  -29.8420  -15.5190   22.0650 N   0  0  0  0  0  0  0  0  0  0  0  0
  -29.5590  -16.3640   22.5470 H   0  0  0  0  0  0  0  0  0  0  0  0
  -30.7070  -14.6270   19.9270 C   0  0  0  0  0  0  0  0  0  0  0  0
  -30.3470  -12.4200   18.8240 C   0  0  0  0  0  2  0  0  0  0  0  0
  -29.3210  -12.5720   17.6800 C   0  0  0  0  0  2  0  0  0  0  0  0
  -27.8800  -12.4170   18.2060 C   0  0  0  0  0  2  0  0  0  0  0  0
  -27.6250  -13.2690   19.4760 C   0  0  0  0  0  3  0  0  0  0  0  0
  -28.7530  -13.0610   20.5070 C   0  0  0  0  0  2  0  0  0  0  0  0
  -30.0330  -13.4240   19.8680 N   0  0  0  0  0  0  0  0  0  0  0  0
  -31.7370  -14.8060   19.2680 O   0  0  0  0  0  0  0  0  0  0  0  0
  -25.3080  -13.8990   20.3970 C   0  0  0  0  0  0  0  0  0  0  0  0
  -24.2580  -13.1380   20.8340 C   0  0  0  0  0  0  0  0  0  0  0  0
  -24.6850  -11.7790   20.7320 C   0  0  0  0  0  0  0  0  0  0  0  0
  -26.3110  -13.0040   20.0560 N   0  0  0  0  0  0  0  0  0  0  0  0
  -25.9450  -11.7220   20.3150 N   0  0  0  0  0  0  0  0  0  0  0  0
  -23.9500  -10.5270   20.9500 C   0  0  0  0  0  0  0  0  0  0  0  0
  -24.4220   -9.5390   21.8430 C   0  0  0  0  0  3  0  0  0  0  0  0
  -23.6870   -8.3520   22.0490 C   0  0  0  0  0  3  0  0  0  0  0  0
  -22.4660   -8.1440   21.3640 C   0  0  0  0  0  0  0  0  0  0  0  0
  -22.0120   -9.1220   20.4600 C   0  0  0  0  0  3  0  0  0  0  0  0
  -22.7470  -10.3000   20.2520 C   0  0  0  0  0  3  0  0  0  0  0  0
  -21.6970   -7.0110   21.4820 O   0  0  0  0  0  0  0  0  0  0  0  0
  -21.6880   -6.2660   22.6340 C   0  0  0  0  0  0  0  0  0  0  0  0
  -21.3160   -6.8200   23.8790 C   0  0  0  0  0  3  0  0  0  0  0  0
  -21.2520   -6.0010   25.0230 C   0  0  0  0  0  3  0  0  0  0  0  0
  -21.5490   -4.6290   24.9260 C   0  0  0  0  0  0  0  0  0  0  0  0
  -21.9150   -4.0740   23.6870 C   0  0  0  0  0  3  0  0  0  0  0  0
  -21.9800   -4.8900   22.5430 C   0  0  0  0  0  0  0  0  0  0  0  0
  -22.3120   -4.3450   21.3480 F   0  0  0  0  0  0  0  0  0  0  0  0
  -21.4810   -3.8400   26.0240 F   0  0  0  0  0  0  0  0  0  0  0  0
  -22.8980  -13.6360   21.2330 C   0  0  0  0  0  0  0  0  0  0  0  0
  -22.2310  -12.9360   22.1440 N   0  0  0  0  0  0  0  0  0  0  0  0
  -22.4380  -14.6790   20.7710 O   0  0  0  0  0  0  0  0  0  0  0  0
  -22.6170  -12.0920   22.5400 H   0  0  0  0  0  0  0  0  0  0  0  0
  -21.3230  -13.2510   22.4520 H   0  0  0  0  0  0  0  0  0  0  0  0
  -25.4880  -15.2710   20.2420 N   0  0  0  0  0  0  0  0  0  0  0  0
  -24.7480  -15.9380   20.4330 H   0  0  0  0  0  0  0  0  0  0  0  0
  -26.3230  -15.7020   19.8650 H   0  0  0  0  0  0  0  0  0  0  0  0
  -27.5450  -19.9750   20.6670 N   0  0  0  0  0  0  0  0  0  0  0  0
  -26.7380  -19.3640   20.7380 H   0  0  0  0  0  0  0  0  0  0  0  0
  -27.3290  -20.8400   20.1870 H   0  0  0  0  0  0  0  0  0  0  0  0
  -29.9220  -21.5380   19.5910 O   0  0  0  0  0  0  0  0  0  0  0  0
  -28.9280  -22.5250   20.0100 C   0  0  0  0  0  3  0  0  0  0  0  0
  -29.2320  -24.0340   19.6100 C   0  0  0  0  0  3  0  0  0  0  0  0
  -28.1880  -25.1240   20.0980 C   0  0  0  0  0  2  0  0  0  0  0  0
  -28.3490  -26.5270   19.6640 O   0  0  0  0  0  0  0  0  0  0  0  0
  -24.6670  -31.7090   23.0720 C   0  0  0  0  0  0  0  0  0  0  0  0
  -27.2150  -27.3450   19.7190 C   0  0  0  0  0  0  0  0  0  0  0  0
  -23.4170  -30.3780   21.4070 C   0  0  0  0  0  3  0  0  0  0  0  0
  -24.8310  -28.9100   19.8650 C   0  0  0  0  0  0  0  0  0  0  0  0
  -25.9440  -30.7350   21.1530 C   0  0  0  0  0  2  0  0  0  0  0  0
  -26.0130  -29.3900   20.4420 C   0  0  0  0  0  0  0  0  0  0  0  0
  -27.2100  -28.6210   20.3580 C   0  0  0  0  0  3  0  0  0  0  0  0
  -26.0120  -26.9190   19.1120 C   0  0  0  0  0  3  0  0  0  0  0  0
  -24.8310  -27.6800   19.1900 C   0  0  0  0  0  3  0  0  0  0  0  0
  -23.5880  -29.7660   19.9920 C   0  0  0  0  0  2  0  0  0  0  0  0
  -24.6960  -30.9540   21.9350 N   0  0  0  0  0  0  0  0  0  0  0  0
  -23.6010  -31.9520   23.6560 O   0  0  0  0  0  0  0  0  0  0  0  0
  -22.7950  -29.3120   22.3410 C   0  0  0  0  0  0  0  0  0  0  0  0
  -21.4670  -29.1330   22.2510 N   0  0  0  0  0  0  0  0  0  0  0  0
  -23.5050  -28.6530   23.1050 O   0  0  0  0  0  0  0  0  0  0  0  0
  -20.9530  -29.7180   21.6070 H   0  0  0  0  0  0  0  0  0  0  0  0
  -18.1110  -27.9080   22.8210 C   0  0  0  0  0  0  0  0  0  0  0  0
  -20.6790  -28.1560   23.0040 C   0  0  0  0  0  3  0  0  0  0  0  0
  -20.7560  -26.7550   22.3510 C   0  0  0  0  0  2  0  0  0  0  0  0
  -19.6140  -26.4850   21.3670 C   0  0  0  0  0  2  0  0  0  0  0  0
  -18.2590  -26.5960   22.0710 C   0  0  0  0  0  2  0  0  0  0  0  0
  -19.2470  -28.6480   23.2460 C   0  0  0  0  0  0  0  0  0  0  0  0
  -19.0530  -29.8790   23.9090 C   0  0  0  0  0  3  0  0  0  0  0  0
  -17.7560  -30.3690   24.1530 C   0  0  0  0  0  3  0  0  0  0  0  0
  -16.6350  -29.6260   23.7440 C   0  0  0  0  0  3  0  0  0  0  0  0
  -16.8150  -28.3970   23.0850 C   0  0  0  0  0  3  0  0  0  0  0  0
  -25.9670  -32.3210   23.6790 C   0  0  0  0  0  3  0  0  0  0  0  0
  -25.6620  -33.7010   24.0810 N   0  0  0  0  0  0  0  0  0  0  0  0
  -25.9530  -34.7880   23.3530 C   0  0  0  0  0  0  0  0  0  0  0  0
  -26.5760  -34.7330   22.2890 O   0  0  0  0  0  0  0  0  0  0  0  0
  -25.1040  -33.8170   24.9140 H   0  0  0  0  0  0  0  0  0  0  0  0
  -24.1880  -36.5700   23.1630 C   0  0  0  0  0  1  0  0  0  0  0  0
  -25.4760  -36.1510   23.8890 C   0  0  0  0  0  3  0  0  0  0  0  0
  -27.6420  -37.0340   24.6370 C   0  0  0  0  0  1  0  0  0  0  0  0
  -26.4890  -37.2210   23.7600 N   0  0  0  0  0  0  0  0  0  0  0  0
  -26.0820  -38.1300   23.9620 H   0  0  0  0  0  0  0  0  0  0  0  0
  -26.5280  -31.4960   24.9030 C   0  0  1  0  0  0  0  0  0  0  0  0
  -25.4720  -31.2110   25.9970 C   0  0  0  0  0  1  0  0  0  0  0  0
  -27.0980  -30.1380   24.4320 C   0  0  0  0  0  1  0  0  0  0  0  0
  -27.7010  -32.2640   25.5570 C   0  0  0  0  0  1  0  0  0  0  0  0
  1  4  1  0
  2  1  2  0
  2  6  1  0
  4  3  2  0
  4  7  1  0
  5  3  1  0
  5 46  1  0
  6  5  2  0
  7  8  2  0
  8  9  1  0
 10  7  1  0
 11 16  1  0
 12 13  1  0
 12 11  1  0
 14 13  1  0
 14 21  1  0
 14 15  1  0
 16 10  1  0
 16 15  1  0
 17 10  2  0
 18 19  2  0
 19 38  1  0
 20 19  1  0
 20 23  1  0
 21 22  1  0
 21 18  1  0
 22 20  2  0
 23 24  1  0
 24 25  2  0
 26 29  1  0
 26 25  1  0
 27 26  2  0
 28 27  1  0
 28 23  2  0
 29 30  1  0
 30 31  1  0
 31 32  2  0
 33 32  1  0
 33 37  1  0
 34 33  2  0
 35 30  2  0
 35 34  1  0
 36 35  1  0
 38 39  1  0
 39 42  1  0
 39 41  1  0
 40 38  2  0
 43 18  1  0
 43 44  1  0
 45 43  1  0
 46 47  1  0
 48 46  1  0
 49  6  1  0
 49 50  1  0
 51 50  2  0
 51 52  1  0
 53 55  1  0
 53 52  1  0
 54 65  2  0
 55 60  1  0
 56 64  1  0
 56 66  1  0
 57 63  1  0
 57 59  1  0
 58 64  1  0
 59 58  1  0
 60 59  2  0
 61 62  1  0
 61 55  2  0
 62 57  2  0
 63 56  1  0
 64 54  1  0
 66 68  2  0
 67 66  1  0
 69 67  1  0
 70 79  2  0
 70 75  1  0
 71 67  1  0
 71 75  1  0
 72 71  1  0
 73 74  1  0
 73 72  1  0
 74 70  1  0
 75 76  2  0
 76 77  1  0
 78 77  2  0
 79 78  1  0
 80 54  1  0
 80 81  1  0
 80 90  1  0
 81 84  1  0
 82 86  1  0
 82 81  1  0
 83 82  2  0
 86 85  1  0
 88 86  1  0
 88 89  1  0
 88 87  1  0
 90 93  1  1
 90 91  1  0
 92 90  1  0
M  ISO  4   7 100  10 100  52 101  53 101
M  END
>  <TORSDO>  (78) 
F 22

>  <SCORE>  (78) 
-12.601

>  <name>  (78) 
77

>  <ligand_id>  (78) 
77

>  <original_smiles>  (78) 
[H]N=C(C(=O)N1C([H])([H])C([H])([H])C([H])([H])C([H])(n2nc(-c3c([H])c([H])c(Oc4c([H])c([H])c(F)c([H])c4F)c([H])c3[H])c(C(=O)N([H])[H])c2N([H])[H])C1([H])[H])c1c([H])c([H])c(OC([H])([H])C([H])([H])C([H])([H])Oc2c([H])c([H])c3c(c2[H])C([H])([H])N(C(=O)C([H])(N([H])C(=O)C([H])(N([H])C([H])([H])[H])C([H])([H])[H])C(C([H])([H])[H])(C([H])([H])[H])C([H])([H])[H])C([H])(C(=O)N([H])C2([H])c4c([H])c([H])c([H])c([H])c4C([H])([H])C([H])([H])C2([H])[H])C3([H])[H])c(N([H])[H])c1[H]

>  <smiles>  (78) 
[H]N=C(C(=O)N1C([H])([H])C([H])([H])C([H])([H])C([H])(n2nc(-c3c([H])c([H])c(Oc4c([H])c([H])c(F)c([H])c4F)c([H])c3[H])c(C(=O)N([H])[H])c2N([H])[H])C1([H])[H])c1c([H])c([H])c(OC([H])([H])C([H])([H])C([H])([H])Oc2c([H])c([H])c3c(c2[H])C([H])([H])N(C(=O)C([H])(N([H])C(=O)C([H])(N([H])C([H])([H])[H])C([H])([H])[H])C(C([H])([H])[H])(C([H])([H])[H])C([H])([H])[H])C([H])(C(=O)N([H])C2([H])c4c([H])c([H])c([H])c([H])c4C([H])([H])C([H])([H])C2([H])[H])C3([H])[H])c(N([H])[H])c1[H]

$$$$
78:0:0
     RDKit          3D

 95 98  0  0  1  0  0  0  0  0999 V2000
  -22.0180  -27.2370   19.9070 C   0  0  0  0  0  2  0  0  0  0  0  0
  -22.9940  -25.9240   19.8130 N   0  0  0  0  0  0  0  0  0  0  0  0
  -21.3230  -27.2350   18.8960 O   0  0  0  0  0  1  0  0  0  0  0  0
  -22.5890  -25.5170   18.9800 H   0  0  0  0  0  0  0  0  0  0  0  0
  -24.3520  -24.6790   20.1470 C   0  0  0  0  0  2  0  0  0  0  0  0
  -25.2390  -21.0640   18.0310 C   0  0  0  0  0  3  0  0  0  0  0  0
  -24.7550  -22.3120   18.5640 C   0  0  0  0  0  3  0  0  0  0  0  0
  -26.3380  -20.2570   18.4840 C   0  0  0  0  0  3  0  0  0  0  0  0
  -26.5440  -22.0040   20.1100 C   0  0  0  0  0  3  0  0  0  0  0  0
  -25.2940  -23.0150   19.6750 C   0  0  0  0  0  0  0  0  0  0  0  0
  -27.1850  -20.5620   19.5770 C   0  0  0  0  0  0  0  0  0  0  0  0
  -28.6040  -19.2610   19.9400 C   0  0  0  0  0  2  0  0  0  0  0  0
  -30.2810  -16.3290   19.9030 C   0  0  0  0  0  0  0  0  0  0  0  0
  -30.8890  -13.7380   19.3120 C   0  0  0  0  0  2  0  0  0  0  0  0
  -30.0790  -13.1030   18.1430 C   0  0  0  0  0  2  0  0  0  0  0  0
  -28.6700  -12.7080   18.6140 C   0  0  0  0  0  2  0  0  0  0  0  0
  -28.0890  -13.7810   19.5570 C   0  0  0  0  0  3  0  0  0  0  0  0
  -29.0330  -14.1860   20.6790 C   0  0  0  0  0  2  0  0  0  0  0  0
  -30.0810  -14.8810   19.9530 N   0  0  0  0  0  0  0  0  0  0  0  0
  -31.5420  -16.4370   19.9110 O   0  0  0  0  0  0  0  0  0  0  0  0
  -29.1690  -17.5030   19.6520 N   0  0  0  0  0  0  0  0  0  0  0  0
  -25.8100  -14.4640   20.3510 C   0  0  0  0  0  0  0  0  0  0  0  0
  -24.7130  -13.7360   20.6940 C   0  0  0  0  0  0  0  0  0  0  0  0
  -25.1160  -12.3670   20.6340 C   0  0  0  0  0  0  0  0  0  0  0  0
  -26.7820  -13.5260   20.0660 N   0  0  0  0  0  0  0  0  0  0  0  0
  -26.3960  -12.2600   20.3150 N   0  0  0  0  0  0  0  0  0  0  0  0
  -24.3410  -11.1420   20.7940 C   0  0  0  0  0  0  0  0  0  0  0  0
  -24.7200  -10.1490   21.7220 C   0  0  0  0  0  3  0  0  0  0  0  0
  -23.9430   -8.9830   21.8680 C   0  0  0  0  0  3  0  0  0  0  0  0
  -22.7770   -8.8080   21.0850 C   0  0  0  0  0  0  0  0  0  0  0  0
  -22.4210   -9.7900   20.1460 C   0  0  0  0  0  3  0  0  0  0  0  0
  -23.1980  -10.9490   19.9960 C   0  0  0  0  0  3  0  0  0  0  0  0
  -21.9690   -7.7010   21.1470 O   0  0  0  0  0  0  0  0  0  0  0  0
  -21.8170   -6.9890   22.3090 C   0  0  0  0  0  0  0  0  0  0  0  0
  -21.3680   -7.5960   23.5010 C   0  0  0  0  0  3  0  0  0  0  0  0
  -21.1570   -6.8110   24.6530 C   0  0  0  0  0  3  0  0  0  0  0  0
  -21.3880   -5.4240   24.6110 C   0  0  0  0  0  0  0  0  0  0  0  0
  -21.8330   -4.8180   23.4230 C   0  0  0  0  0  3  0  0  0  0  0  0
  -22.0450   -5.6000   22.2740 C   0  0  0  0  0  0  0  0  0  0  0  0
  -22.4530   -5.0100   21.1240 F   0  0  0  0  0  0  0  0  0  0  0  0
  -21.1780   -4.6680   25.7130 F   0  0  0  0  0  0  0  0  0  0  0  0
  -23.3480  -14.2850   20.9630 C   0  0  0  0  0  0  0  0  0  0  0  0
  -22.5890  -13.6300   21.8330 N   0  0  0  0  0  0  0  0  0  0  0  0
  -22.9640  -15.3290   20.4380 O   0  0  0  0  0  0  0  0  0  0  0  0
  -22.9150  -12.7870   22.2820 H   0  0  0  0  0  0  0  0  0  0  0  0
  -21.6680  -13.9780   22.0580 H   0  0  0  0  0  0  0  0  0  0  0  0
  -26.0530  -15.8280   20.2310 N   0  0  0  0  0  0  0  0  0  0  0  0
  -25.3340  -16.5210   20.4020 H   0  0  0  0  0  0  0  0  0  0  0  0
  -26.9480  -16.2260   19.9850 H   0  0  0  0  0  0  0  0  0  0  0  0
  -28.9580  -18.1460   17.2110 C   0  0  0  0  0  1  0  0  0  0  0  0
  -28.5180  -17.2160   18.3560 C   0  0  0  0  0  2  0  0  0  0  0  0
  -21.4710  -28.9170   20.9810 C   0  0  0  0  0 15  0  0  0  0  0  0
  -22.2120  -29.7950   22.9360 C   0  0  0  0  0 15  0  0  0  0  0  0
  -24.2250  -29.2800   23.7730 C   0  0  0  0  0 15  0  0  0  0  0  0
  -25.8470  -28.5950   22.8790 O   0  0  0  0  0  1  0  0  0  0  0  0
  -24.5060  -31.8770   22.9860 C   0  0  0  0  0  0  0  0  0  0  0  0
  -26.4950  -27.9930   21.6430 C   0  0  0  0  0  3  0  0  0  0  0  0
  -23.8780  -29.5780   21.2730 C   0  0  0  0  0  2  0  0  0  0  0  0
  -25.2860  -29.0720   19.6930 C   0  0  0  0  0  3  0  0  0  0  0  0
  -25.9290  -31.0680   21.1590 C   0  0  0  0  0  2  0  0  0  0  0  0
  -26.2740  -29.7670   20.4560 C   0  0  0  0  0  3  0  0  0  0  0  0
  -27.2440  -28.9960   21.0770 C   0  0  0  0  0  2  0  0  0  0  0  0
  -26.0240  -27.0820   20.6270 C   0  0  0  0  0  2  0  0  0  0  0  0
  -25.3330  -27.6780   19.5650 C   0  0  0  0  0  2  0  0  0  0  0  0
  -23.9620  -29.6160   19.7650 C   0  0  0  0  0  2  0  0  0  0  0  0
  -24.6710  -30.9350   21.8820 N   0  0  0  0  0  0  0  0  0  0  0  0
  -23.4090  -32.1840   23.4830 O   0  0  0  0  0  0  0  0  0  0  0  0
  -23.4020  -27.8040   22.1230 C   0  0  0  0  0  2  0  0  0  0  0  0
  -22.1850  -27.4270   22.9180 N   0  0  0  0  0  0  0  0  0  0  0  0
  -24.0960  -27.0330   22.6980 O   0  0  0  0  0  1  0  0  0  0  0  0
  -22.5290  -26.6350   23.4440 H   0  0  0  0  0  0  0  0  0  0  0  0
  -17.9900  -27.9630   22.8030 C   0  0  0  0  0  0  0  0  0  0  0  0
  -20.6090  -27.5600   23.3090 C   0  0  0  0  0  3  0  0  0  0  0  0
  -20.2380  -26.2060   22.7470 C   0  0  0  0  0  2  0  0  0  0  0  0
  -19.2390  -26.2170   21.6030 C   0  0  0  0  0  2  0  0  0  0  0  0
  -17.9200  -26.5950   22.1780 C   0  0  0  0  0  2  0  0  0  0  0  0
  -19.2430  -28.5430   23.2540 C   0  0  0  0  0  0  0  0  0  0  0  0
  -19.0320  -29.8450   23.8490 C   0  0  0  0  0  3  0  0  0  0  0  0
  -17.7460  -30.4670   23.9650 C   0  0  0  0  0  3  0  0  0  0  0  0
  -16.5790  -29.8200   23.5340 C   0  0  0  0  0  3  0  0  0  0  0  0
  -16.7160  -28.5690   22.9370 C   0  0  0  0  0  3  0  0  0  0  0  0
  -25.6860  -32.5160   23.8730 C   0  0  0  0  0  3  0  0  0  0  0  0
  -25.3230  -33.9110   24.1820 N   0  0  0  0  0  0  0  0  0  0  0  0
  -25.7270  -34.9670   23.4750 C   0  0  0  0  0  0  0  0  0  0  0  0
  -26.4820  -34.8550   22.5090 O   0  0  0  0  0  0  0  0  0  0  0  0
  -24.6310  -34.0540   24.9020 H   0  0  0  0  0  0  0  0  0  0  0  0
  -24.0200  -36.7650   23.0280 C   0  0  0  0  0  1  0  0  0  0  0  0
  -25.2200  -36.3590   23.8980 C   0  0  0  0  0  3  0  0  0  0  0  0
  -27.3170  -37.2520   24.8180 C   0  0  0  0  0  1  0  0  0  0  0  0
  -26.2590  -37.4070   23.8200 N   0  0  0  0  0  0  0  0  0  0  0  0
  -25.8490  -38.3310   23.9330 H   0  0  0  0  0  0  0  0  0  0  0  0
  -26.0590  -31.8410   25.2910 C   0  0  1  0  0  0  0  0  0  0  0  0
  -24.8760  -31.6860   26.3020 C   0  0  0  0  0  1  0  0  0  0  0  0
  -26.8160  -30.5010   25.1020 C   0  0  0  0  0  1  0  0  0  0  0  0
  -27.0960  -32.7170   26.0430 C   0  0  0  0  0  1  0  0  0  0  0  0
  2  1  1  0
  2  5  1  0
  3  1  1  0
  4  2  1  0
  6  8  2  0
  6  7  1  0
  7 10  2  0
  8 11  1  0
 10  9  1  0
 10  5  1  0
 11 12  1  0
 11  9  2  0
 13 20  2  0
 13 19  1  0
 14 19  1  0
 15 16  1  0
 15 14  1  0
 17 16  1  0
 17 25  1  0
 17 18  1  0
 19 18  1  0
 21 13  1  0
 21 12  1  0
 22 23  2  0
 23 42  1  0
 24 23  1  0
 24 27  1  0
 25 26  1  0
 25 22  1  0
 26 24  2  0
 27 28  1  0
 28 29  2  0
 30 33  1  0
 30 29  1  0
 31 30  2  0
 32 31  1  0
 32 27  2  0
 33 34  1  0
 34 35  1  0
 35 36  2  0
 37 36  1  0
 37 41  1  0
 38 37  2  0
 39 34  2  0
 39 38  1  0
 40 39  1  0
 42 43  1  0
 43 46  1  0
 43 45  1  0
 44 42  2  0
 47 22  1  0
 47 48  1  0
 49 47  1  0
 50 51  1  0
 51 21  1  0
 56 67  2  0
 57 55  1  0
 58 66  1  0
 59 64  1  0
 59 65  1  0
 59 61  1  0
 60 66  1  0
 61 62  1  0
 61 60  1  0
 62 57  1  0
 63 57  1  0
 64 63  1  0
 65 58  1  0
 66 56  1  0
 68 70  1  0
 68 69  1  0
 69 71  1  0
 72 81  2  0
 72 77  1  0
 73 69  1  0
 74 73  1  0
 75 76  1  0
 75 74  1  0
 76 72  1  0
 77 73  1  0
 77 78  2  0
 78 79  1  0
 80 79  2  0
 81 80  1  0
 82 56  1  0
 82 83  1  0
 82 92  1  0
 83 86  1  0
 84 88  1  0
 84 83  1  0
 85 84  2  0
 88 87  1  0
 90 88  1  0
 90 91  1  0
 90 89  1  0
 92 95  1  1
 92 93  1  0
 94 92  1  0
M  ISO  4  13 100  21 100  54 101  55 101
M  END
>  <TORSDO>  (79) 
F 23

>  <SCORE>  (79) 
-14.176

>  <name>  (79) 
78

>  <ligand_id>  (79) 
78

>  <original_smiles>  (79) 
[H]c1c([H])c(C([H])([H])N([H])C(=O)C([H])([H])C([H])([H])C([H])([H])Oc2c([H])c([H])c3c(c2[H])C([H])([H])N(C(=O)C([H])(N([H])C(=O)C([H])(N([H])C([H])([H])[H])C([H])([H])[H])C(C([H])([H])[H])(C([H])([H])[H])C([H])([H])[H])C([H])(C(=O)N([H])C2([H])c4c([H])c([H])c([H])c([H])c4C([H])([H])C([H])([H])C2([H])[H])C3([H])[H])c([H])c(C([H])([H])N(C(=O)N2C([H])([H])C([H])([H])C([H])([H])C([H])(n3nc(-c4c([H])c([H])c(Oc5c([H])c([H])c(F)c([H])c5F)c([H])c4[H])c(C(=O)N([H])[H])c3N([H])[H])C2([H])[H])C([H])([H])C([H])([H])[H])c1[H]

>  <smiles>  (79) 
[H]c1c([H])c(C([H])([H])N([H])C(=O)C([H])([H])C([H])([H])C([H])([H])Oc2c([H])c([H])c3c(c2[H])C([H])([H])N(C(=O)C([H])(N([H])C(=O)C([H])(N([H])C([H])([H])[H])C([H])([H])[H])C(C([H])([H])[H])(C([H])([H])[H])C([H])([H])[H])C([H])(C(=O)N([H])C2([H])c4c([H])c([H])c([H])c([H])c4C([H])([H])C([H])([H])C2([H])[H])C3([H])[H])c([H])c(C([H])([H])N(C(=O)N2C([H])([H])C([H])([H])C([H])([H])C([H])(n3nc(-c4c([H])c([H])c(Oc5c([H])c([H])c(F)c([H])c5F)c([H])c4[H])c(C(=O)N([H])[H])c3N([H])[H])C2([H])[H])C([H])([H])C([H])([H])[H])c1[H]

$$$$
79:0:0
     RDKit          3D

 94102  0  0  1  0  0  0  0  0999 V2000
  -30.9880  -19.2040   19.8530 C   0  0  0  0  0  3  0  0  0  0  0  0
  -28.7660  -18.6540   20.6350 C   0  0  0  0  0  3  0  0  0  0  0  0
  -30.1220  -18.2970   20.5060 C   0  0  0  0  0  0  0  0  0  0  0  0
  -30.5320  -20.4570   19.3650 C   0  0  0  0  0  0  0  0  0  0  0  0
  -28.3010  -19.9050   20.1630 C   0  0  0  0  0  0  0  0  0  0  0  0
  -29.1700  -20.8450   19.5470 C   0  0  0  0  0  0  0  0  0  0  0  0
  -31.5360  -21.3170   18.6180 C   0  0  0  0  0  1  0  0  0  0  0  0
  -26.9550  -20.2320   20.3210 N   0  0  0  0  0  0  0  0  0  0  0  0
  -26.7080  -21.2070   20.1870 H   0  0  0  0  0  0  0  0  0  0  0  0
  -26.4190  -19.7710   21.0490 H   0  0  0  0  0  0  0  0  0  0  0  0
  -30.6830  -17.0200   21.1610 C   0  0  0  0  0  2  0  0  0  0  0  0
  -30.6810  -14.7030   20.1990 C   0  0  0  0  0  0  0  0  0  0  0  0
  -30.3630  -12.4990   19.1220 C   0  0  0  0  0  2  0  0  0  0  0  0
  -29.3750  -12.6280   17.9460 C   0  0  0  0  0  2  0  0  0  0  0  0
  -27.9240  -12.4690   18.4420 C   0  0  0  0  0  2  0  0  0  0  0  0
  -27.6140  -13.3500   19.6810 C   0  0  0  0  0  3  0  0  0  0  0  0
  -28.7160  -13.2130   20.7550 C   0  0  0  0  0  2  0  0  0  0  0  0
  -30.0050  -13.5230   20.1180 N   0  0  0  0  0  0  0  0  0  0  0  0
  -31.7800  -14.8660   19.6620 O   0  0  0  0  0  0  0  0  0  0  0  0
  -30.0550  -15.7270   20.8220 N   0  0  0  0  0  0  0  0  0  0  0  0
  -29.1300  -15.5490   21.1820 H   0  0  0  0  0  0  0  0  0  0  0  0
  -25.2760  -13.9390   20.5770 C   0  0  0  0  0  0  0  0  0  0  0  0
  -24.2180  -13.1580   20.9540 C   0  0  0  0  0  0  0  0  0  0  0  0
  -24.6510  -11.8050   20.8020 C   0  0  0  0  0  0  0  0  0  0  0  0
  -26.2880  -13.0620   20.2220 N   0  0  0  0  0  0  0  0  0  0  0  0
  -25.9200  -11.7690   20.4160 N   0  0  0  0  0  0  0  0  0  0  0  0
  -23.9130  -10.5430   20.9500 C   0  0  0  0  0  0  0  0  0  0  0  0
  -24.3670   -9.5160   21.8070 C   0  0  0  0  0  3  0  0  0  0  0  0
  -23.6300   -8.3200   21.9450 C   0  0  0  0  0  3  0  0  0  0  0  0
  -22.4230   -8.1440   21.2260 C   0  0  0  0  0  0  0  0  0  0  0  0
  -21.9870   -9.1610   20.3570 C   0  0  0  0  0  3  0  0  0  0  0  0
  -22.7250  -10.3470   20.2180 C   0  0  0  0  0  3  0  0  0  0  0  0
  -21.6560   -7.0070   21.2770 O   0  0  0  0  0  0  0  0  0  0  0  0
  -21.6300   -6.2040   22.3900 C   0  0  0  0  0  0  0  0  0  0  0  0
  -21.2390   -6.6970   23.6540 C   0  0  0  0  0  3  0  0  0  0  0  0
  -21.1610   -5.8230   24.7570 C   0  0  0  0  0  3  0  0  0  0  0  0
  -21.4640   -4.4580   24.5960 C   0  0  0  0  0  0  0  0  0  0  0  0
  -21.8490   -3.9650   23.3370 C   0  0  0  0  0  3  0  0  0  0  0  0
  -21.9300   -4.8360   22.2370 C   0  0  0  0  0  0  0  0  0  0  0  0
  -22.2810   -4.3520   21.0210 F   0  0  0  0  0  0  0  0  0  0  0  0
  -21.3810   -3.6150   25.6530 F   0  0  0  0  0  0  0  0  0  0  0  0
  -22.8480  -13.6370   21.3420 C   0  0  0  0  0  0  0  0  0  0  0  0
  -22.1600  -12.8980   22.2040 N   0  0  0  0  0  0  0  0  0  0  0  0
  -22.3990  -14.7010   20.9200 O   0  0  0  0  0  0  0  0  0  0  0  0
  -22.5330  -12.0340   22.5710 H   0  0  0  0  0  0  0  0  0  0  0  0
  -21.2460  -13.2040   22.5080 H   0  0  0  0  0  0  0  0  0  0  0  0
  -25.4560  -15.3170   20.4860 N   0  0  0  0  0  0  0  0  0  0  0  0
  -24.7120  -15.9720   20.6990 H   0  0  0  0  0  0  0  0  0  0  0  0
  -26.2940  -15.7670   20.1420 H   0  0  0  0  0  0  0  0  0  0  0  0
  -28.5910  -22.0400   19.1180 O   0  0  0  0  0  0  0  0  0  0  0  0
  -29.2120  -23.3170   19.3620 C   0  0  0  0  0  2  0  0  0  0  0  0
  -28.1420  -24.3980   19.6850 C   0  0  0  0  0  2  0  0  0  0  0  0
  -28.6650  -25.8300   20.0290 C   0  0  0  0  0  2  0  0  0  0  0  0
  -28.4280  -26.8610   19.0500 O   0  0  0  0  0  0  0  0  0  0  0  0
  -24.4010  -31.3510   22.8920 C   0  0  0  0  0  0  0  0  0  0  0  0
  -27.2420  -27.5500   19.1920 C   0  0  0  0  0  0  0  0  0  0  0  0
  -23.2490  -30.1260   21.0750 C   0  0  0  0  0  3  0  0  0  0  0  0
  -24.7680  -28.9000   19.4280 C   0  0  0  0  0  0  0  0  0  0  0  0
  -25.7440  -30.6660   20.9050 C   0  0  0  0  0  2  0  0  0  0  0  0
  -25.9030  -29.4030   20.0800 C   0  0  0  0  0  0  0  0  0  0  0  0
  -27.1460  -28.7360   19.9610 C   0  0  0  0  0  3  0  0  0  0  0  0
  -26.0970  -27.0710   18.5280 C   0  0  0  0  0  3  0  0  0  0  0  0
  -24.8610  -27.7330   18.6500 C   0  0  0  0  0  3  0  0  0  0  0  0
  -23.4740  -29.6650   19.6100 C   0  0  0  0  0  2  0  0  0  0  0  0
  -24.4830  -30.7210   21.6840 N   0  0  0  0  0  0  0  0  0  0  0  0
  -23.3170  -31.4730   23.4790 O   0  0  0  0  0  0  0  0  0  0  0  0
  -22.6800  -28.9400   21.8870 C   0  0  0  0  0  0  0  0  0  0  0  0
  -21.3630  -28.7030   21.7580 N   0  0  0  0  0  0  0  0  0  0  0  0
  -23.4160  -28.2430   22.5890 O   0  0  0  0  0  0  0  0  0  0  0  0
  -20.8270  -29.3280   21.1740 H   0  0  0  0  0  0  0  0  0  0  0  0
  -18.0720  -27.2560   22.1320 C   0  0  0  0  0  0  0  0  0  0  0  0
  -20.6190  -27.6160   22.3930 C   0  0  0  0  0  3  0  0  0  0  0  0
  -20.7820  -26.2930   21.6090 C   0  0  0  0  0  2  0  0  0  0  0  0
  -19.6740  -26.0620   20.5780 C   0  0  0  0  0  2  0  0  0  0  0  0
  -18.3030  -26.0320   21.2610 C   0  0  0  0  0  2  0  0  0  0  0  0
  -19.1580  -28.0080   22.6500 C   0  0  0  0  0  0  0  0  0  0  0  0
  -18.8880  -29.1570   23.4250 C   0  0  0  0  0  3  0  0  0  0  0  0
  -17.5630  -29.5530   23.6880 C   0  0  0  0  0  3  0  0  0  0  0  0
  -16.4910  -28.7960   23.1840 C   0  0  0  0  0  3  0  0  0  0  0  0
  -16.7460  -27.6490   22.4120 C   0  0  0  0  0  3  0  0  0  0  0  0
  -25.6590  -31.9670   23.5820 C   0  0  0  0  0  3  0  0  0  0  0  0
  -25.3100  -33.3340   23.9910 N   0  0  0  0  0  0  0  0  0  0  0  0
  -25.6560  -34.4410   23.3200 C   0  0  0  0  0  0  0  0  0  0  0  0
  -26.3690  -34.4190   22.3130 O   0  0  0  0  0  0  0  0  0  0  0  0
  -24.6760  -33.4240   24.7730 H   0  0  0  0  0  0  0  0  0  0  0  0
  -23.9050  -36.2250   23.0250 C   0  0  0  0  0  1  0  0  0  0  0  0
  -25.1260  -35.7880   23.8490 C   0  0  0  0  0  3  0  0  0  0  0  0
  -27.2130  -36.6550   24.8090 C   0  0  0  0  0  1  0  0  0  0  0  0
  -26.1420  -36.8640   23.8390 N   0  0  0  0  0  0  0  0  0  0  0  0
  -25.7140  -37.7660   24.0300 H   0  0  0  0  0  0  0  0  0  0  0  0
  -26.1670  -31.1240   24.8150 C   0  0  1  0  0  0  0  0  0  0  0  0
  -25.0620  -30.8030   25.8490 C   0  0  0  0  0  1  0  0  0  0  0  0
  -26.7750  -29.7810   24.3450 C   0  0  0  0  0  1  0  0  0  0  0  0
  -27.2970  -31.8900   25.5430 C   0  0  0  0  0  1  0  0  0  0  0  0
  1  3  1  0
  3  2  2  0
  3 11  1  0
  4  6  1  0
  4  1  2  0
  5  8  1  0
  5  2  1  0
  6  5  2  0
  7  4  1  0
  8 10  1  0
  9  8  1  0
 12 20  1  0
 13 18  1  0
 14 15  1  0
 14 13  1  0
 16 15  1  0
 16 25  1  0
 16 17  1  0
 18 12  1  0
 18 17  1  0
 19 12  2  0
 20 11  1  0
 20 21  1  0
 22 23  2  0
 23 42  1  0
 24 27  1  0
 24 23  1  0
 25 26  1  0
 25 22  1  0
 26 24  2  0
 27 28  1  0
 28 29  2  0
 30 33  1  0
 30 29  1  0
 31 30  2  0
 32 31  1  0
 32 27  2  0
 33 34  1  0
 34 35  1  0
 35 36  2  0
 37 36  1  0
 37 41  1  0
 38 37  2  0
 39 34  2  0
 39 38  1  0
 40 39  1  0
 42 43  1  0
 43 46  1  0
 43 45  1  0
 44 42  2  0
 47 22  1  0
 47 48  1  0
 49 47  1  0
 50 51  1  0
 50  6  1  0
 51 52  1  0
 52 53  1  0
 54 56  1  0
 54 53  1  0
 55 66  2  0
 56 61  1  0
 57 65  1  0
 57 67  1  0
 58 64  1  0
 58 60  1  0
 59 65  1  0
 60 59  1  0
 61 60  2  0
 62 63  1  0
 62 56  2  0
 63 58  2  0
 64 57  1  0
 65 55  1  0
 67 69  2  0
 68 67  1  0
 70 68  1  0
 71 80  2  0
 71 76  1  0
 72 68  1  0
 72 76  1  0
 73 72  1  0
 74 75  1  0
 74 73  1  0
 75 71  1  0
 76 77  2  0
 77 78  1  0
 79 78  2  0
 80 79  1  0
 81 55  1  0
 81 82  1  0
 81 91  1  0
 82 85  1  0
 83 87  1  0
 83 82  1  0
 84 83  2  0
 87 86  1  0
 89 87  1  0
 89 90  1  0
 89 88  1  0
 91 94  1  1
 91 92  1  0
 93 91  1  0
M  ISO  4  12 100  20 100  53 101  54 101
M  END
>  <TORSDO>  (80) 
F 22

>  <SCORE>  (80) 
-11.416

>  <name>  (80) 
79

>  <ligand_id>  (80) 
79

>  <original_smiles>  (80) 
[H]c1c([H])c([H])c2c(c1[H])C([H])([H])C([H])([H])C([H])([H])C2([H])N([H])C(=O)C1([H])N(C(=O)C([H])(N([H])C(=O)C([H])(N([H])C([H])([H])[H])C([H])([H])[H])C(C([H])([H])[H])(C([H])([H])[H])C([H])([H])[H])C([H])([H])c2c([H])c(OC([H])([H])C([H])([H])C([H])([H])Oc3c(N([H])[H])c([H])c(C([H])([H])N([H])C(=O)N4C([H])([H])C([H])([H])C([H])([H])C([H])(n5nc(-c6c([H])c([H])c(Oc7c([H])c([H])c(F)c([H])c7F)c([H])c6[H])c(C(=O)N([H])[H])c5N([H])[H])C4([H])[H])c([H])c3C([H])([H])[H])c([H])c([H])c2C1([H])[H]

>  <smiles>  (80) 
[H]c1c([H])c([H])c2c(c1[H])C([H])([H])C([H])([H])C([H])([H])C2([H])N([H])C(=O)C1([H])N(C(=O)C([H])(N([H])C(=O)C([H])(N([H])C([H])([H])[H])C([H])([H])[H])C(C([H])([H])[H])(C([H])([H])[H])C([H])([H])[H])C([H])([H])c2c([H])c(OC([H])([H])C([H])([H])C([H])([H])Oc3c(N([H])[H])c([H])c(C([H])([H])N([H])C(=O)N4C([H])([H])C([H])([H])C([H])([H])C([H])(n5nc(-c6c([H])c([H])c(Oc7c([H])c([H])c(F)c([H])c7F)c([H])c6[H])c(C(=O)N([H])[H])c5N([H])[H])C4([H])[H])c([H])c3C([H])([H])[H])c([H])c([H])c2C1([H])[H]

$$$$
80:0:0
     RDKit          3D

 95104  0  0  1  0  0  0  0  0999 V2000
  -29.6770  -22.8510   20.2280 C   0  0  0  0  0  0  0  0  0  0  0  0
  -31.2810  -21.2200   21.2190 C   0  0  0  0  0  0  0  0  0  0  0  0
  -30.5950  -24.8690   21.1540 C   0  0  0  0  0  2  0  0  0  0  0  0
  -31.4630  -23.6470   21.4600 C   0  0  0  0  0  2  0  0  0  0  0  0
  -29.6280  -24.4020   20.0740 C   0  0  0  0  0  3  0  0  0  0  0  0
  -30.7530  -22.4610   20.9540 N   0  0  0  0  0  0  0  0  0  0  0  0
  -28.8420  -22.1110   19.7020 O   0  0  0  0  0  0  0  0  0  0  0  0
  -32.3040  -21.1380   21.9120 O   0  0  0  0  0  0  0  0  0  0  0  0
  -29.6810  -19.2490   21.4510 C   0  0  0  0  0  3  0  0  0  0  0  0
  -29.4400  -17.8560   21.3230 C   0  0  0  0  0  3  0  0  0  0  0  0
  -31.2540  -17.6780   19.7390 C   0  0  0  0  0  3  0  0  0  0  0  0
  -30.7370  -19.8780   20.7500 C   0  0  0  0  0  0  0  0  0  0  0  0
  -30.2520  -17.0290   20.5070 C   0  0  0  0  0  0  0  0  0  0  0  0
  -31.5010  -19.0730   19.8640 C   0  0  0  0  0  0  0  0  0  0  0  0
  -32.5320  -19.6160   19.1730 F   0  0  0  0  0  0  0  0  0  0  0  0
  -30.7030  -14.5520   19.9960 C   0  0  0  0  0  0  0  0  0  0  0  0
  -30.3480  -12.3480   18.9250 C   0  0  0  0  0  2  0  0  0  0  0  0
  -29.3400  -12.5130   17.7690 C   0  0  0  0  0  2  0  0  0  0  0  0
  -27.8890  -12.3960   18.2840 C   0  0  0  0  0  2  0  0  0  0  0  0
  -27.6270  -13.2640   19.5420 C   0  0  0  0  0  3  0  0  0  0  0  0
  -28.7440  -13.0680   20.5930 C   0  0  0  0  0  2  0  0  0  0  0  0
  -30.0330  -13.3630   19.9440 N   0  0  0  0  0  0  0  0  0  0  0  0
  -31.8230  -14.6880   19.4950 O   0  0  0  0  0  0  0  0  0  0  0  0
  -29.9970  -15.6000   20.5020 N   0  0  0  0  0  0  0  0  0  0  0  0
  -29.1290  -15.3200   20.9320 H   0  0  0  0  0  0  0  0  0  0  0  0
  -25.3030  -13.9190   20.4350 C   0  0  0  0  0  0  0  0  0  0  0  0
  -24.2380  -13.1670   20.8500 C   0  0  0  0  0  0  0  0  0  0  0  0
  -24.6520  -11.8030   20.7480 C   0  0  0  0  0  0  0  0  0  0  0  0
  -26.3010  -13.0140   20.1050 N   0  0  0  0  0  0  0  0  0  0  0  0
  -25.9160  -11.7350   20.3520 N   0  0  0  0  0  0  0  0  0  0  0  0
  -23.9000  -10.5580   20.9500 C   0  0  0  0  0  0  0  0  0  0  0  0
  -24.3330   -9.5700   21.8620 C   0  0  0  0  0  3  0  0  0  0  0  0
  -23.5820   -8.3910   22.0510 C   0  0  0  0  0  3  0  0  0  0  0  0
  -22.3830   -8.1890   21.3270 C   0  0  0  0  0  0  0  0  0  0  0  0
  -21.9670   -9.1660   20.4030 C   0  0  0  0  0  3  0  0  0  0  0  0
  -22.7190  -10.3380   20.2140 C   0  0  0  0  0  3  0  0  0  0  0  0
  -21.6020   -7.0640   21.4250 O   0  0  0  0  0  0  0  0  0  0  0  0
  -21.5330   -6.3360   22.5860 C   0  0  0  0  0  0  0  0  0  0  0  0
  -21.0800   -6.9050   23.7960 C   0  0  0  0  0  3  0  0  0  0  0  0
  -20.9570   -6.1030   24.9480 C   0  0  0  0  0  3  0  0  0  0  0  0
  -21.2790   -4.7330   24.8910 C   0  0  0  0  0  0  0  0  0  0  0  0
  -21.7280   -4.1640   23.6860 C   0  0  0  0  0  3  0  0  0  0  0  0
  -21.8500   -4.9630   22.5350 C   0  0  0  0  0  0  0  0  0  0  0  0
  -22.2620   -4.4060   21.3710 F   0  0  0  0  0  0  0  0  0  0  0  0
  -21.1540   -3.9620   25.9970 F   0  0  0  0  0  0  0  0  0  0  0  0
  -22.8770  -13.6780   21.2290 C   0  0  0  0  0  0  0  0  0  0  0  0
  -22.1850  -12.9820   22.1260 N   0  0  0  0  0  0  0  0  0  0  0  0
  -22.4360  -14.7290   20.7660 O   0  0  0  0  0  0  0  0  0  0  0  0
  -22.5540  -12.1330   22.5270 H   0  0  0  0  0  0  0  0  0  0  0  0
  -21.2750  -13.3080   22.4190 H   0  0  0  0  0  0  0  0  0  0  0  0
  -25.4970  -15.2890   20.2890 N   0  0  0  0  0  0  0  0  0  0  0  0
  -24.7560  -15.9580   20.4660 H   0  0  0  0  0  0  0  0  0  0  0  0
  -26.3270  -15.7180   19.8990 H   0  0  0  0  0  0  0  0  0  0  0  0
  -28.2460  -25.1300   20.1530 C   0  0  0  0  0  2  0  0  0  0  0  0
  -28.3570  -26.5860   20.1530 O   0  0  0  0  0  0  0  0  0  0  0  0
  -24.5150  -31.8110   23.2100 C   0  0  0  0  0  0  0  0  0  0  0  0
  -27.1860  -27.3360   20.1410 C   0  0  0  0  0  0  0  0  0  0  0  0
  -23.3200  -30.3920   21.5780 C   0  0  0  0  0  3  0  0  0  0  0  0
  -24.7830  -28.8620   20.1540 C   0  0  0  0  0  0  0  0  0  0  0  0
  -25.8500  -30.7590   21.3780 C   0  0  0  0  0  2  0  0  0  0  0  0
  -25.9450  -29.3860   20.7340 C   0  0  0  0  0  0  0  0  0  0  0  0
  -27.1490  -28.6360   20.7120 C   0  0  0  0  0  3  0  0  0  0  0  0
  -25.9950  -26.8370   19.5610 C   0  0  0  0  0  3  0  0  0  0  0  0
  -24.8050  -27.5890   19.5630 C   0  0  0  0  0  3  0  0  0  0  0  0
  -23.5340  -29.7150   20.2010 C   0  0  0  0  0  2  0  0  0  0  0  0
  -24.5800  -31.0040   22.1120 N   0  0  0  0  0  0  0  0  0  0  0  0
  -23.4300  -32.0780   23.7470 O   0  0  0  0  0  0  0  0  0  0  0  0
  -22.6770  -29.3690   22.5430 C   0  0  0  0  0  0  0  0  0  0  0  0
  -21.3620  -29.1410   22.3890 N   0  0  0  0  0  0  0  0  0  0  0  0
  -23.3600  -28.7820   23.3860 O   0  0  0  0  0  0  0  0  0  0  0  0
  -20.8710  -29.6680   21.6800 H   0  0  0  0  0  0  0  0  0  0  0  0
  -18.0300  -27.7970   22.7950 C   0  0  0  0  0  0  0  0  0  0  0  0
  -20.5580  -28.1910   23.1600 C   0  0  0  0  0  3  0  0  0  0  0  0
  -20.7530  -26.7470   22.6420 C   0  0  0  0  0  2  0  0  0  0  0  0
  -19.7120  -26.3360   21.5960 C   0  0  0  0  0  2  0  0  0  0  0  0
  -18.2990  -26.4350   22.1760 C   0  0  0  0  0  2  0  0  0  0  0  0
  -19.0910  -28.6280   23.2420 C   0  0  0  0  0  0  0  0  0  0  0  0
  -18.7870  -29.8980   23.7760 C   0  0  0  0  0  3  0  0  0  0  0  0
  -17.4540  -30.3410   23.8680 C   0  0  0  0  0  3  0  0  0  0  0  0
  -16.4060  -29.5080   23.4380 C   0  0  0  0  0  3  0  0  0  0  0  0
  -16.6940  -28.2380   22.9080 C   0  0  0  0  0  3  0  0  0  0  0  0
  -25.7930  -32.4570   23.8250 C   0  0  0  0  0  3  0  0  0  0  0  0
  -25.4660  -33.8490   24.1650 N   0  0  0  0  0  0  0  0  0  0  0  0
  -25.7810  -34.9100   23.4120 C   0  0  0  0  0  0  0  0  0  0  0  0
  -26.4500  -34.8230   22.3790 O   0  0  0  0  0  0  0  0  0  0  0  0
  -24.8680  -33.9890   24.9670 H   0  0  0  0  0  0  0  0  0  0  0  0
  -24.0350  -36.6880   23.0660 C   0  0  0  0  0  1  0  0  0  0  0  0
  -25.2760  -36.2890   23.8800 C   0  0  0  0  0  3  0  0  0  0  0  0
  -27.3910  -37.1920   24.7390 C   0  0  0  0  0  1  0  0  0  0  0  0
  -26.2990  -37.3540   23.7840 N   0  0  0  0  0  0  0  0  0  0  0  0
  -25.8810  -38.2690   23.9300 H   0  0  0  0  0  0  0  0  0  0  0  0
  -26.3320  -31.6890   25.0950 C   0  0  1  0  0  0  0  0  0  0  0  0
  -25.2490  -31.4240   26.1680 C   0  0  0  0  0  1  0  0  0  0  0  0
  -26.9410  -30.3260   24.6940 C   0  0  0  0  0  1  0  0  0  0  0  0
  -27.4710  -32.5020   25.7550 C   0  0  0  0  0  1  0  0  0  0  0  0
  1  6  1  0
  2  8  2  0
  3  4  1  0
  5 54  1  0
  5  1  1  0
  5  3  1  0
  6  2  1  0
  6  4  1  0
  7  1  2  0
 10  9  1  0
 11 14  2  0
 11 13  1  0
 12  2  1  0
 12  9  2  0
 13 10  2  0
 14 12  1  0
 15 14  1  0
 16 24  1  0
 17 22  1  0
 18 19  1  0
 18 17  1  0
 20 19  1  0
 20 29  1  0
 20 21  1  0
 22 16  1  0
 22 21  1  0
 23 16  2  0
 24 13  1  0
 24 25  1  0
 26 27  2  0
 27 46  1  0
 28 27  1  0
 28 31  1  0
 29 30  1  0
 29 26  1  0
 30 28  2  0
 31 32  1  0
 32 33  2  0
 34 37  1  0
 34 33  1  0
 35 34  2  0
 36 35  1  0
 36 31  2  0
 37 38  1  0
 38 39  1  0
 39 40  2  0
 41 40  1  0
 41 45  1  0
 42 41  2  0
 43 38  2  0
 43 42  1  0
 44 43  1  0
 46 47  1  0
 47 50  1  0
 47 49  1  0
 48 46  2  0
 51 26  1  0
 51 52  1  0
 53 51  1  0
 55 54  1  0
 56 67  2  0
 57 55  1  0
 57 62  1  0
 58 66  1  0
 58 68  1  0
 59 65  1  0
 59 61  1  0
 60 66  1  0
 61 60  1  0
 62 61  2  0
 63 64  1  0
 63 57  2  0
 64 59  2  0
 65 58  1  0
 66 56  1  0
 68 70  2  0
 69 68  1  0
 71 69  1  0
 72 81  2  0
 72 77  1  0
 73 69  1  0
 73 77  1  0
 74 73  1  0
 75 76  1  0
 75 74  1  0
 76 72  1  0
 77 78  2  0
 78 79  1  0
 80 79  2  0
 81 80  1  0
 82 56  1  0
 82 83  1  0
 82 92  1  0
 83 86  1  0
 84 88  1  0
 84 83  1  0
 85 84  2  0
 88 87  1  0
 90 88  1  0
 90 91  1  0
 90 89  1  0
 92 95  1  1
 92 93  1  0
 94 92  1  0
M  ISO  4  16 100  24 100  54 101  55 101
M  END
>  <TORSDO>  (81) 
F 18

>  <SCORE>  (81) 
-13.723

>  <name>  (81) 
80

>  <ligand_id>  (81) 
80

>  <original_smiles>  (81) 
[H]c1c([H])c([H])c2c(c1[H])C([H])([H])C([H])([H])C([H])([H])C2([H])N([H])C(=O)C1([H])N(C(=O)C([H])(N([H])C(=O)C([H])(N([H])C([H])([H])[H])C([H])([H])[H])C(C([H])([H])[H])(C([H])([H])[H])C([H])([H])[H])C([H])([H])c2c([H])c(OC([H])([H])C3([H])C(=O)N(C(=O)c4c([H])c([H])c(N([H])C(=O)N5C([H])([H])C([H])([H])C([H])([H])C([H])(n6nc(-c7c([H])c([H])c(Oc8c([H])c([H])c(F)c([H])c8F)c([H])c7[H])c(C(=O)N([H])[H])c6N([H])[H])C5([H])[H])c([H])c4F)C([H])([H])C3([H])[H])c([H])c([H])c2C1([H])[H]

>  <smiles>  (81) 
[H]c1c([H])c([H])c2c(c1[H])C([H])([H])C([H])([H])C([H])([H])C2([H])N([H])C(=O)C1([H])N(C(=O)C([H])(N([H])C(=O)C([H])(N([H])C([H])([H])[H])C([H])([H])[H])C(C([H])([H])[H])(C([H])([H])[H])C([H])([H])[H])C([H])([H])c2c([H])c(OC([H])([H])C3([H])C(=O)N(C(=O)c4c([H])c([H])c(N([H])C(=O)N5C([H])([H])C([H])([H])C([H])([H])C([H])(n6nc(-c7c([H])c([H])c(Oc8c([H])c([H])c(F)c([H])c8F)c([H])c7[H])c(C(=O)N([H])[H])c6N([H])[H])C5([H])[H])c([H])c4F)C([H])([H])C3([H])[H])c([H])c([H])c2C1([H])[H]

$$$$
81:0:0
     RDKit          3D

 92100  0  0  1  0  0  0  0  0999 V2000
  -30.2600  -20.2770   20.4930 C   0  0  0  0  0  3  0  0  0  0  0  0
  -27.9630  -19.7980   20.4740 C   0  0  0  0  0  3  0  0  0  0  0  0
  -29.5470  -17.8020   20.3220 C   0  0  0  0  0  0  0  0  0  0  0  0
  -30.5550  -18.8430   20.3990 C   0  0  0  0  0  0  0  0  0  0  0  0
  -28.9370  -20.8330   20.5280 C   0  0  0  0  0  0  0  0  0  0  0  0
  -28.2240  -18.3810   20.3430 C   0  0  0  0  0  0  0  0  0  0  0  0
  -32.0150  -18.4380   20.3070 C   0  0  0  0  0  1  0  0  0  0  0  0
  -29.7140  -16.2420   19.9150 C   0  0  0  0  0  0  0  0  0  0  0  0
  -29.1610  -15.9570   18.8090 N   0  0  0  0  0  0  0  0  0  0  0  0
  -28.6860  -16.7660   18.4310 H   0  0  0  0  0  0  0  0  0  0  0  0
  -30.5430  -14.9870   20.5940 C   0  0  0  0  0  0  0  0  0  0  0  0
  -30.4790  -12.6330   19.6890 C   0  0  0  0  0  2  0  0  0  0  0  0
  -29.5780  -12.5660   18.4340 C   0  0  0  0  0  2  0  0  0  0  0  0
  -28.0990  -12.3590   18.8190 C   0  0  0  0  0  2  0  0  0  0  0  0
  -27.6390  -13.2830   19.9780 C   0  0  0  0  0  3  0  0  0  0  0  0
  -28.6680  -13.3280   21.1260 C   0  0  0  0  0  2  0  0  0  0  0  0
  -29.9620  -13.7220   20.5520 N   0  0  0  0  0  0  0  0  0  0  0  0
  -31.7770  -15.0550   20.5900 O   0  0  0  0  0  0  0  0  0  0  0  0
  -25.2310  -13.8340   20.6480 C   0  0  0  0  0  0  0  0  0  0  0  0
  -24.1650  -13.0450   20.9720 C   0  0  0  0  0  0  0  0  0  0  0  0
  -24.6530  -11.7030   20.9640 C   0  0  0  0  0  0  0  0  0  0  0  0
  -26.2960  -12.9710   20.4430 N   0  0  0  0  0  0  0  0  0  0  0  0
  -25.9540  -11.6840   20.7070 N   0  0  0  0  0  0  0  0  0  0  0  0
  -23.9410  -10.4310   21.1300 C   0  0  0  0  0  0  0  0  0  0  0  0
  -24.3490   -9.4760   22.0870 C   0  0  0  0  0  3  0  0  0  0  0  0
  -23.6360   -8.2680   22.2390 C   0  0  0  0  0  3  0  0  0  0  0  0
  -22.5010   -8.0090   21.4350 C   0  0  0  0  0  0  0  0  0  0  0  0
  -22.1130   -8.9510   20.4680 C   0  0  0  0  0  3  0  0  0  0  0  0
  -22.8270  -10.1520   20.3130 C   0  0  0  0  0  3  0  0  0  0  0  0
  -21.7630   -6.8510   21.4960 O   0  0  0  0  0  0  0  0  0  0  0  0
  -21.6720   -6.1170   22.6510 C   0  0  0  0  0  0  0  0  0  0  0  0
  -21.1520   -6.6660   23.8430 C   0  0  0  0  0  3  0  0  0  0  0  0
  -21.0120   -5.8570   24.9880 C   0  0  0  0  0  3  0  0  0  0  0  0
  -21.3800   -4.4990   24.9410 C   0  0  0  0  0  0  0  0  0  0  0  0
  -21.8930   -3.9500   23.7530 C   0  0  0  0  0  3  0  0  0  0  0  0
  -22.0360   -4.7560   22.6100 C   0  0  0  0  0  0  0  0  0  0  0  0
  -22.5110   -4.2160   21.4620 F   0  0  0  0  0  0  0  0  0  0  0  0
  -21.2370   -3.7200   26.0380 F   0  0  0  0  0  0  0  0  0  0  0  0
  -22.7510  -13.5030   21.1810 C   0  0  0  0  0  0  0  0  0  0  0  0
  -21.9980  -12.8010   22.0200 N   0  0  0  0  0  0  0  0  0  0  0  0
  -22.3210  -14.5200   20.6380 O   0  0  0  0  0  0  0  0  0  0  0  0
  -22.3580  -11.9780   22.4820 H   0  0  0  0  0  0  0  0  0  0  0  0
  -21.0480  -13.0900   22.2060 H   0  0  0  0  0  0  0  0  0  0  0  0
  -25.3750  -15.2050   20.4850 N   0  0  0  0  0  0  0  0  0  0  0  0
  -24.5920  -15.8380   20.5980 H   0  0  0  0  0  0  0  0  0  0  0  0
  -26.2270  -15.6840   20.2100 H   0  0  0  0  0  0  0  0  0  0  0  0
  -28.8780  -23.4710   20.4480 C   0  0  0  0  0  3  0  0  0  0  0  0
  -28.4410  -22.2280   20.6840 N   0  0  0  0  0  0  0  0  0  0  0  0
  -27.9910  -24.8300   20.7580 C   0  0  0  0  0  2  0  0  0  0  0  0
  -28.3400  -26.2890   20.3910 O   0  0  0  0  0  0  0  0  0  0  0  0
  -24.6330  -31.9540   23.2800 C   0  0  0  0  0  0  0  0  0  0  0  0
  -27.2790  -27.2550   20.3290 C   0  0  0  0  0  0  0  0  0  0  0  0
  -23.4580  -30.5290   21.6490 C   0  0  0  0  0  3  0  0  0  0  0  0
  -24.9330  -28.9550   20.2590 C   0  0  0  0  0  0  0  0  0  0  0  0
  -26.0100  -30.8200   21.5040 C   0  0  0  0  0  2  0  0  0  0  0  0
  -26.1020  -29.4240   20.8740 C   0  0  0  0  0  0  0  0  0  0  0  0
  -27.2780  -28.5880   20.8940 C   0  0  0  0  0  3  0  0  0  0  0  0
  -26.0890  -26.8900   19.6610 C   0  0  0  0  0  3  0  0  0  0  0  0
  -24.9360  -27.7000   19.6390 C   0  0  0  0  0  3  0  0  0  0  0  0
  -23.6980  -29.8390   20.2810 C   0  0  0  0  0  2  0  0  0  0  0  0
  -24.7190  -31.1220   22.1990 N   0  0  0  0  0  0  0  0  0  0  0  0
  -23.5390  -32.2360   23.7930 O   0  0  0  0  0  0  0  0  0  0  0  0
  -22.7800  -29.5250   22.6150 C   0  0  0  0  0  0  0  0  0  0  0  0
  -21.4570  -29.3320   22.4660 N   0  0  0  0  0  0  0  0  0  0  0  0
  -23.4460  -28.9230   23.4610 O   0  0  0  0  0  0  0  0  0  0  0  0
  -20.9780  -29.8700   21.7590 H   0  0  0  0  0  0  0  0  0  0  0  0
  -18.0840  -28.0940   22.9260 C   0  0  0  0  0  0  0  0  0  0  0  0
  -20.6330  -28.4000   23.2400 C   0  0  0  0  0  3  0  0  0  0  0  0
  -20.7670  -26.9570   22.6990 C   0  0  0  0  0  2  0  0  0  0  0  0
  -19.6920  -26.5970   21.6700 C   0  0  0  0  0  2  0  0  0  0  0  0
  -18.2940  -26.7340   22.2820 C   0  0  0  0  0  2  0  0  0  0  0  0
  -19.1830  -28.8820   23.3610 C   0  0  0  0  0  0  0  0  0  0  0  0
  -18.9320  -30.1530   23.9240 C   0  0  0  0  0  3  0  0  0  0  0  0
  -17.6150  -30.6360   24.0540 C   0  0  0  0  0  3  0  0  0  0  0  0
  -16.5310  -29.8450   23.6340 C   0  0  0  0  0  3  0  0  0  0  0  0
  -16.7670  -28.5760   23.0770 C   0  0  0  0  0  3  0  0  0  0  0  0
  -25.9000  -32.6060   23.9120 C   0  0  0  0  0  3  0  0  0  0  0  0
  -26.3990  -31.8620   25.2110 C   0  0  1  0  0  0  0  0  0  0  0  0
  -25.2890  -31.6360   26.2650 C   0  0  0  0  0  1  0  0  0  0  0  0
  -26.9980  -30.4820   24.8580 C   0  0  0  0  0  1  0  0  0  0  0  0
  -27.5340  -32.6760   25.8760 C   0  0  0  0  0  1  0  0  0  0  0  0
  -25.5770  -34.0080   24.2160 N   0  0  0  0  0  0  0  0  0  0  0  0
  -25.9060  -35.0530   23.4440 C   0  0  0  0  0  0  0  0  0  0  0  0
  -26.5830  -34.9390   22.4180 O   0  0  0  0  0  0  0  0  0  0  0  0
  -24.9780  -34.1710   25.0120 H   0  0  0  0  0  0  0  0  0  0  0  0
  -24.1690  -36.8320   23.0560 C   0  0  0  0  0  1  0  0  0  0  0  0
  -25.4080  -36.4460   23.8800 C   0  0  0  0  0  3  0  0  0  0  0  0
  -27.5310  -37.3560   24.7130 C   0  0  0  0  0  1  0  0  0  0  0  0
  -26.4350  -37.5040   23.7590 N   0  0  0  0  0  0  0  0  0  0  0  0
  -26.0210  -38.4230   23.8920 H   0  0  0  0  0  0  0  0  0  0  0  0
  -25.9850  -18.0210   19.5490 C   0  0  0  0  0  1  0  0  0  0  0  0
  -27.1570  -17.5170   20.1920 O   0  0  0  0  0  0  0  0  0  0  0  0
  1  5  1  0
  2  5  2  0
  3  6  2  0
  3  4  1  0
  4  1  2  0
  5 48  1  0
  6  2  1  0
  7  4  1  0
  8  3  1  0
  8 11  1  0
  9  8  2  0
 10  9  1  0
 12 17  1  0
 13 14  1  0
 13 12  1  0
 15 14  1  0
 15 22  1  0
 15 16  1  0
 17 11  1  0
 17 16  1  0
 18 11  2  0
 19 20  2  0
 20 39  1  0
 21 20  1  0
 21 24  1  0
 22 19  1  0
 22 23  1  0
 23 21  2  0
 24 25  1  0
 25 26  2  0
 27 30  1  0
 27 26  1  0
 28 27  2  0
 29 28  1  0
 29 24  2  0
 30 31  1  0
 31 32  1  0
 32 33  2  0
 34 33  1  0
 34 38  1  0
 35 34  2  0
 36 31  2  0
 36 35  1  0
 37 36  1  0
 39 40  1  0
 40 43  1  0
 40 42  1  0
 41 39  2  0
 44 45  1  0
 44 19  1  0
 46 44  1  0
 47 48  2  0
 47 49  1  0
 50 49  1  0
 51 62  2  0
 52 50  1  0
 52 57  1  0
 53 61  1  0
 53 63  1  0
 54 60  1  0
 54 56  1  0
 55 61  1  0
 56 57  2  0
 56 55  1  0
 58 52  2  0
 59 58  1  0
 59 54  2  0
 60 53  1  0
 61 51  1  0
 63 65  2  0
 64 63  1  0
 66 64  1  0
 67 76  2  0
 67 72  1  0
 68 64  1  0
 68 72  1  0
 69 68  1  0
 70 71  1  0
 70 69  1  0
 71 67  1  0
 72 73  2  0
 73 74  1  0
 75 74  2  0
 76 75  1  0
 77 51  1  0
 77 82  1  0
 77 78  1  0
 78 81  1  1
 78 79  1  0
 80 78  1  0
 82 85  1  0
 83 87  1  0
 83 82  1  0
 84 83  2  0
 87 86  1  0
 89 87  1  0
 89 90  1  0
 89 88  1  0
 91 92  1  0
 92  6  1  0
M  ISO  4   8 100  11 100  49 101  50 101
M  END
>  <TORSDO>  (82) 
F 20

>  <SCORE>  (82) 
-13.866

>  <name>  (82) 
81

>  <ligand_id>  (82) 
81

>  <original_smiles>  (82) 
[H]N=C(C(=O)N1C([H])([H])C([H])([H])C([H])([H])C([H])(n2nc(-c3c([H])c([H])c(Oc4c([H])c([H])c(F)c([H])c4F)c([H])c3[H])c(C(=O)N([H])[H])c2N([H])[H])C1([H])[H])c1c(OC([H])([H])[H])c([H])c(N=C([H])C([H])([H])Oc2c([H])c([H])c3c(c2[H])C([H])([H])N(C(=O)C([H])(N([H])C(=O)C([H])(N([H])C([H])([H])[H])C([H])([H])[H])C(C([H])([H])[H])(C([H])([H])[H])C([H])([H])[H])C([H])(C(=O)N([H])C2([H])c4c([H])c([H])c([H])c([H])c4C([H])([H])C([H])([H])C2([H])[H])C3([H])[H])c([H])c1C([H])([H])[H]

>  <smiles>  (82) 
[H]N=C(C(=O)N1C([H])([H])C([H])([H])C([H])([H])C([H])(n2nc(-c3c([H])c([H])c(Oc4c([H])c([H])c(F)c([H])c4F)c([H])c3[H])c(C(=O)N([H])[H])c2N([H])[H])C1([H])[H])c1c(OC([H])([H])[H])c([H])c(N=C([H])C([H])([H])Oc2c([H])c([H])c3c(c2[H])C([H])([H])N(C(=O)C([H])(N([H])C(=O)C([H])(N([H])C([H])([H])[H])C([H])([H])[H])C(C([H])([H])[H])(C([H])([H])[H])C([H])([H])[H])C([H])(C(=O)N([H])C2([H])c4c([H])c([H])c([H])c([H])c4C([H])([H])C([H])([H])C2([H])[H])C3([H])[H])c([H])c1C([H])([H])[H]

$$$$
82:0:0
     RDKit          3D

 95104  0  0  1  0  0  0  0  0999 V2000
  -29.5990  -22.5180   21.5160 C   0  0  0  0  0  0  0  0  0  0  0  0
  -30.3840  -23.8210   21.4740 C   0  0  0  0  0  2  0  0  0  0  0  0
  -30.5780  -24.0340   19.9790 C   0  0  0  0  0  2  0  0  0  0  0  0
  -29.3180  -23.3920   19.4030 C   0  0  0  0  0  3  0  0  0  0  0  0
  -29.2150  -22.0920   20.2870 N   0  0  0  0  0  0  0  0  0  0  0  0
  -29.3790  -21.9580   22.5940 O   0  0  0  0  0  0  0  0  0  0  0  0
  -30.6110  -19.9530   19.5250 C   0  0  0  0  0  3  0  0  0  0  0  0
  -30.7850  -18.5100   19.4320 C   0  0  0  0  0  3  0  0  0  0  0  0
  -28.4610  -19.5830   20.3970 C   0  0  0  0  0  3  0  0  0  0  0  0
  -28.6210  -18.1370   20.3110 C   0  0  0  0  0  0  0  0  0  0  0  0
  -29.4290  -20.5870   20.0240 C   0  0  0  0  0  0  0  0  0  0  0  0
  -29.8150  -17.5050   19.8120 C   0  0  0  0  0  0  0  0  0  0  0  0
  -30.7600  -14.9260   19.7800 C   0  0  0  0  0  0  0  0  0  0  0  0
  -30.7560  -12.5400   18.9220 C   0  0  0  0  0  2  0  0  0  0  0  0
  -29.7880  -12.3440   17.7320 C   0  0  0  0  0  2  0  0  0  0  0  0
  -28.3370  -12.1210   18.2150 C   0  0  0  0  0  2  0  0  0  0  0  0
  -27.9160  -13.0470   19.3890 C   0  0  0  0  0  3  0  0  0  0  0  0
  -29.0170  -13.1590   20.4600 C   0  0  0  0  0  2  0  0  0  0  0  0
  -30.2230  -13.6370   19.7740 N   0  0  0  0  0  0  0  0  0  0  0  0
  -31.9840  -15.0200   19.6370 O   0  0  0  0  0  0  0  0  0  0  0  0
  -29.6450  -15.9370   17.9380 C   0  0  0  0  0  1  0  0  0  0  0  0
  -29.9390  -16.0310   19.3790 N   0  0  0  0  0  0  0  0  0  0  0  0
  -25.5240  -13.4990   20.1690 C   0  0  0  0  0  0  0  0  0  0  0  0
  -24.5260  -12.6700   20.6020 C   0  0  0  0  0  0  0  0  0  0  0  0
  -25.0860  -11.3560   20.6230 C   0  0  0  0  0  0  0  0  0  0  0  0
  -26.6210  -12.6840   19.9470 N   0  0  0  0  0  0  0  0  0  0  0  0
  -26.3700  -11.3950   20.2870 N   0  0  0  0  0  0  0  0  0  0  0  0
  -24.4580  -10.0550   20.8850 C   0  0  0  0  0  0  0  0  0  0  0  0
  -24.8930   -9.2270   21.9430 C   0  0  0  0  0  3  0  0  0  0  0  0
  -24.2600   -7.9890   22.1890 C   0  0  0  0  0  3  0  0  0  0  0  0
  -23.1800   -7.5710   21.3760 C   0  0  0  0  0  0  0  0  0  0  0  0
  -22.7660   -8.3890   20.3100 C   0  0  0  0  0  3  0  0  0  0  0  0
  -23.4010   -9.6180   20.0630 C   0  0  0  0  0  3  0  0  0  0  0  0
  -22.5210   -6.3740   21.5250 O   0  0  0  0  0  0  0  0  0  0  0  0
  -22.1880   -5.8860   22.7630 C   0  0  0  0  0  0  0  0  0  0  0  0
  -21.4370   -6.6480   23.6870 C   0  0  0  0  0  3  0  0  0  0  0  0
  -21.0570   -6.0820   24.9200 C   0  0  0  0  0  3  0  0  0  0  0  0
  -21.4160   -4.7560   25.2280 C   0  0  0  0  0  0  0  0  0  0  0  0
  -22.1590   -3.9950   24.3080 C   0  0  0  0  0  3  0  0  0  0  0  0
  -22.5400   -4.5590   23.0780 C   0  0  0  0  0  0  0  0  0  0  0  0
  -23.2370   -3.8150   22.1860 F   0  0  0  0  0  0  0  0  0  0  0  0
  -21.0440   -4.2090   26.4090 F   0  0  0  0  0  0  0  0  0  0  0  0
  -23.1040  -13.0600   20.8790 C   0  0  0  0  0  0  0  0  0  0  0  0
  -22.4500  -12.3730   21.8100 N   0  0  0  0  0  0  0  0  0  0  0  0
  -22.5760  -14.0100   20.3030 O   0  0  0  0  0  0  0  0  0  0  0  0
  -22.8890  -11.6070   22.2990 H   0  0  0  0  0  0  0  0  0  0  0  0
  -21.4970  -12.6180   22.0360 H   0  0  0  0  0  0  0  0  0  0  0  0
  -25.5820  -14.8670   19.9140 N   0  0  0  0  0  0  0  0  0  0  0  0
  -24.7580  -15.4540   19.9790 H   0  0  0  0  0  0  0  0  0  0  0  0
  -26.3650  -15.3280   19.4710 H   0  0  0  0  0  0  0  0  0  0  0  0
  -27.4900  -17.2980   20.7920 C   0  0  0  0  0  0  0  0  0  0  0  0
  -26.1890  -17.3640   20.0020 C   0  0  0  0  0  1  0  0  0  0  0  0
  -27.5620  -16.5610   21.7780 O   0  0  0  0  0  0  0  0  0  0  0  0
  -28.1670  -24.6140   19.4780 C   0  0  0  0  0  2  0  0  0  0  0  0
  -28.4150  -26.1330   19.2770 O   0  0  0  0  0  0  0  0  0  0  0  0
  -24.9360  -31.3160   23.1690 C   0  0  0  0  0  0  0  0  0  0  0  0
  -27.3570  -27.0970   19.4070 C   0  0  0  0  0  0  0  0  0  0  0  0
  -23.6680  -30.1940   21.3770 C   0  0  0  0  0  3  0  0  0  0  0  0
  -25.0510  -28.8340   19.6960 C   0  0  0  0  0  0  0  0  0  0  0  0
  -26.2190  -30.4610   21.1740 C   0  0  0  0  0  2  0  0  0  0  0  0
  -26.2530  -29.1810   20.3260 C   0  0  0  0  0  0  0  0  0  0  0  0
  -27.4090  -28.3320   20.1640 C   0  0  0  0  0  3  0  0  0  0  0  0
  -26.1280  -26.8500   18.7550 C   0  0  0  0  0  3  0  0  0  0  0  0
  -24.9990  -27.6820   18.8980 C   0  0  0  0  0  3  0  0  0  0  0  0
  -23.8390  -29.7260   19.9080 C   0  0  0  0  0  2  0  0  0  0  0  0
  -24.9630  -30.6690   21.9640 N   0  0  0  0  0  0  0  0  0  0  0  0
  -23.8700  -31.5320   23.7650 O   0  0  0  0  0  0  0  0  0  0  0  0
  -23.0010  -29.0630   22.1980 C   0  0  0  0  0  0  0  0  0  0  0  0
  -21.6860  -28.8600   22.0030 N   0  0  0  0  0  0  0  0  0  0  0  0
  -23.6700  -28.3740   22.9730 O   0  0  0  0  0  0  0  0  0  0  0  0
  -21.2030  -29.4700   21.3600 H   0  0  0  0  0  0  0  0  0  0  0  0
  -18.3430  -27.4860   22.2300 C   0  0  0  0  0  0  0  0  0  0  0  0
  -20.8760  -27.8160   22.6370 C   0  0  0  0  0  3  0  0  0  0  0  0
  -21.0610  -26.4570   21.9240 C   0  0  0  0  0  2  0  0  0  0  0  0
  -20.0160  -26.1990   20.8340 C   0  0  0  0  0  2  0  0  0  0  0  0
  -18.6050  -26.2220   21.4280 C   0  0  0  0  0  2  0  0  0  0  0  0
  -19.4090  -28.2420   22.7850 C   0  0  0  0  0  0  0  0  0  0  0  0
  -19.1110  -29.4250   23.4950 C   0  0  0  0  0  3  0  0  0  0  0  0
  -17.7800  -29.8530   23.6550 C   0  0  0  0  0  3  0  0  0  0  0  0
  -16.7280  -29.0940   23.1150 C   0  0  0  0  0  3  0  0  0  0  0  0
  -17.0100  -27.9110   22.4090 C   0  0  0  0  0  3  0  0  0  0  0  0
  -26.2410  -31.8350   23.8450 C   0  0  0  0  0  3  0  0  0  0  0  0
  -26.6980  -30.9480   25.0690 C   0  0  1  0  0  0  0  0  0  0  0  0
  -25.5770  -30.6950   26.1050 C   0  0  0  0  0  1  0  0  0  0  0  0
  -27.2120  -29.5720   24.5880 C   0  0  0  0  0  1  0  0  0  0  0  0
  -27.8780  -31.6300   25.7990 C   0  0  0  0  0  1  0  0  0  0  0  0
  -26.0020  -33.2210   24.2750 N   0  0  0  0  0  0  0  0  0  0  0  0
  -26.3250  -34.3080   23.5620 C   0  0  0  0  0  0  0  0  0  0  0  0
  -26.9240  -34.2470   22.4860 O   0  0  0  0  0  0  0  0  0  0  0  0
  -25.4620  -33.3450   25.1190 H   0  0  0  0  0  0  0  0  0  0  0  0
  -24.6140  -36.1530   23.4790 C   0  0  0  0  0  1  0  0  0  0  0  0
  -25.9220  -35.6830   24.1350 C   0  0  0  0  0  3  0  0  0  0  0  0
  -28.1430  -36.4980   24.7950 C   0  0  0  0  0  1  0  0  0  0  0  0
  -26.9630  -36.7200   23.9630 N   0  0  0  0  0  0  0  0  0  0  0  0
  -26.5920  -37.6420   24.1790 H   0  0  0  0  0  0  0  0  0  0  0  0
  1  6  2  0
  2  1  1  0
  3  2  1  0
  4 54  1  0
  4  3  1  0
  4  5  1  0
  5  1  1  0
  7 11  1  0
  8  7  2  0
  8 12  1  0
 10  9  1  0
 10 51  1  0
 11  5  1  0
 11  9  2  0
 12 10  2  0
 14 19  1  0
 15 16  1  0
 15 14  1  0
 17 16  1  0
 17 26  1  0
 17 18  1  0
 19 13  1  0
 19 18  1  0
 20 13  2  0
 21 22  1  0
 22 13  1  0
 22 12  1  0
 23 24  2  0
 24 25  1  0
 24 43  1  0
 25 28  1  0
 26 23  1  0
 26 27  1  0
 27 25  2  0
 28 29  1  0
 29 30  2  0
 31 34  1  0
 31 30  1  0
 32 31  2  0
 33 32  1  0
 33 28  2  0
 34 35  1  0
 35 40  2  0
 35 36  1  0
 36 37  2  0
 37 38  1  0
 38 42  1  0
 39 38  2  0
 40 39  1  0
 41 40  1  0
 43 44  1  0
 44 47  1  0
 44 46  1  0
 45 43  2  0
 48 49  1  0
 48 23  1  0
 50 48  1  0
 51 53  2  0
 52 51  1  0
 55 57  1  0
 55 54  1  0
 56 67  2  0
 57 62  1  0
 58 66  1  0
 58 68  1  0
 59 65  1  0
 59 61  1  0
 60 66  1  0
 61 60  1  0
 62 61  2  0
 63 64  1  0
 63 57  2  0
 64 59  2  0
 65 58  1  0
 66 56  1  0
 68 70  2  0
 69 68  1  0
 71 69  1  0
 72 81  2  0
 72 77  1  0
 73 69  1  0
 73 77  1  0
 74 73  1  0
 75 76  1  0
 75 74  1  0
 76 72  1  0
 77 78  2  0
 78 79  1  0
 80 79  2  0
 81 80  1  0
 82 56  1  0
 82 87  1  0
 82 83  1  0
 83 86  1  1
 83 84  1  0
 85 83  1  0
 87 90  1  0
 88 92  1  0
 88 87  1  0
 89 88  2  0
 92 91  1  0
 94 92  1  0
 94 95  1  0
 94 93  1  0
M  ISO  4  13 100  22 100  54 101  55 101
M  END
>  <TORSDO>  (83) 
F 19

>  <SCORE>  (83) 
-8.384

>  <name>  (83) 
82

>  <ligand_id>  (83) 
82

>  <original_smiles>  (83) 
[H]c1c([H])c([H])c2c(c1[H])C([H])([H])C([H])([H])C([H])([H])C2([H])N([H])C(=O)C1([H])N(C(=O)C([H])(N([H])C(=O)C([H])(N([H])C([H])([H])[H])C([H])([H])[H])C(C([H])([H])[H])(C([H])([H])[H])C([H])([H])[H])C([H])([H])c2c([H])c(OC([H])([H])C3([H])N(c4c([H])c([H])c(N(C(=O)N5C([H])([H])C([H])([H])C([H])([H])C([H])(n6nc(-c7c([H])c([H])c(Oc8c([H])c([H])c(F)c([H])c8F)c([H])c7[H])c(C(=O)N([H])[H])c6N([H])[H])C5([H])[H])C([H])([H])[H])c(C(=O)C([H])([H])[H])c4[H])C(=O)C([H])([H])C3([H])[H])c([H])c([H])c2C1([H])[H]

>  <smiles>  (83) 
[H]c1c([H])c([H])c2c(c1[H])C([H])([H])C([H])([H])C([H])([H])C2([H])N([H])C(=O)C1([H])N(C(=O)C([H])(N([H])C(=O)C([H])(N([H])C([H])([H])[H])C([H])([H])[H])C(C([H])([H])[H])(C([H])([H])[H])C([H])([H])[H])C([H])([H])c2c([H])c(OC([H])([H])C3([H])N(c4c([H])c([H])c(N(C(=O)N5C([H])([H])C([H])([H])C([H])([H])C([H])(n6nc(-c7c([H])c([H])c(Oc8c([H])c([H])c(F)c([H])c8F)c([H])c7[H])c(C(=O)N([H])[H])c6N([H])[H])C5([H])[H])C([H])([H])[H])c(C(=O)C([H])([H])[H])c4[H])C(=O)C([H])([H])C3([H])[H])c([H])c([H])c2C1([H])[H]

$$$$
83:0:0
     RDKit          3D

 94103  0  0  1  0  0  0  0  0999 V2000
  -29.5510  -22.8440   20.9150 C   0  0  0  0  0  0  0  0  0  0  0  0
  -30.1580  -23.9640   18.9010 C   0  0  0  0  0  2  0  0  0  0  0  0
  -30.8230  -22.5740   19.0090 C   0  0  0  0  0  2  0  0  0  0  0  0
  -29.5930  -24.2700   20.2960 C   0  0  0  0  0  3  0  0  0  0  0  0
  -30.2660  -21.9390   20.1990 N   0  0  0  0  0  0  0  0  0  0  0  0
  -28.9840  -22.6060   21.9830 O   0  0  0  0  0  0  0  0  0  0  0  0
  -30.8340  -20.6210   20.6470 C   0  0  0  0  0  2  0  0  0  0  0  0
  -28.6950  -19.3610   20.0420 C   0  0  0  0  0  3  0  0  0  0  0  0
  -28.4800  -16.9460   20.3140 C   0  0  0  0  0  3  0  0  0  0  0  0
  -30.6270  -18.0110   20.7090 C   0  0  0  0  0  3  0  0  0  0  0  0
  -27.9110  -18.1950   19.9960 C   0  0  0  0  0  0  0  0  0  0  0  0
  -30.0470  -19.3000   20.4330 C   0  0  0  0  0  0  0  0  0  0  0  0
  -29.8440  -16.8120   20.6420 C   0  0  0  0  0  0  0  0  0  0  0  0
  -26.4410  -18.2940   19.6440 C   0  0  0  0  0  1  0  0  0  0  0  0
  -30.8340  -14.5010   20.3080 C   0  0  0  0  0  0  0  0  0  0  0  0
  -30.5350  -12.2500   19.2940 C   0  0  0  0  0  2  0  0  0  0  0  0
  -29.5960  -12.3580   18.0720 C   0  0  0  0  0  2  0  0  0  0  0  0
  -28.1200  -12.2550   18.4990 C   0  0  0  0  0  2  0  0  0  0  0  0
  -27.7820  -13.1850   19.6930 C   0  0  0  0  0  3  0  0  0  0  0  0
  -28.8290  -13.0360   20.8230 C   0  0  0  0  0  2  0  0  0  0  0  0
  -30.1670  -13.3060   20.2570 N   0  0  0  0  0  0  0  0  0  0  0  0
  -31.9130  -14.6760   19.7330 O   0  0  0  0  0  0  0  0  0  0  0  0
  -30.2490  -15.4800   21.0420 N   0  0  0  0  0  0  0  0  0  0  0  0
  -29.5610  -15.0490   21.6410 H   0  0  0  0  0  0  0  0  0  0  0  0
  -25.4010  -13.8820   20.3900 C   0  0  0  0  0  0  0  0  0  0  0  0
  -24.3100  -13.1590   20.7870 C   0  0  0  0  0  0  0  0  0  0  0  0
  -24.7210  -11.7920   20.7740 C   0  0  0  0  0  0  0  0  0  0  0  0
  -26.4170  -12.9630   20.1770 N   0  0  0  0  0  0  0  0  0  0  0  0
  -26.0090  -11.7000   20.4600 N   0  0  0  0  0  0  0  0  0  0  0  0
  -23.9460  -10.5640   20.9830 C   0  0  0  0  0  0  0  0  0  0  0  0
  -24.3600   -9.5760   21.9050 C   0  0  0  0  0  3  0  0  0  0  0  0
  -23.5860   -8.4120   22.1010 C   0  0  0  0  0  3  0  0  0  0  0  0
  -22.3860   -8.2270   21.3760 C   0  0  0  0  0  0  0  0  0  0  0  0
  -21.9900   -9.2020   20.4440 C   0  0  0  0  0  3  0  0  0  0  0  0
  -22.7630  -10.3580   20.2450 C   0  0  0  0  0  3  0  0  0  0  0  0
  -21.5850   -7.1150   21.4830 O   0  0  0  0  0  0  0  0  0  0  0  0
  -21.5510   -6.3600   22.6280 C   0  0  0  0  0  0  0  0  0  0  0  0
  -21.2160   -6.9200   23.8800 C   0  0  0  0  0  3  0  0  0  0  0  0
  -21.1250   -6.0950   25.0190 C   0  0  0  0  0  3  0  0  0  0  0  0
  -21.3580   -4.7100   24.9060 C   0  0  0  0  0  0  0  0  0  0  0  0
  -21.6870   -4.1510   23.6600 C   0  0  0  0  0  3  0  0  0  0  0  0
  -21.7790   -4.9730   22.5230 C   0  0  0  0  0  0  0  0  0  0  0  0
  -22.0750   -4.4250   21.3200 F   0  0  0  0  0  0  0  0  0  0  0  0
  -21.2630   -3.9160   25.9980 F   0  0  0  0  0  0  0  0  0  0  0  0
  -22.9350  -13.6970   21.0600 C   0  0  0  0  0  0  0  0  0  0  0  0
  -22.1880  -13.0510   21.9490 N   0  0  0  0  0  0  0  0  0  0  0  0
  -22.5320  -14.7270   20.5220 O   0  0  0  0  0  0  0  0  0  0  0  0
  -22.5270  -12.2210   22.4110 H   0  0  0  0  0  0  0  0  0  0  0  0
  -21.2660  -13.3980   22.1720 H   0  0  0  0  0  0  0  0  0  0  0  0
  -25.5960  -15.2380   20.1650 N   0  0  0  0  0  0  0  0  0  0  0  0
  -24.8240  -15.8930   20.2190 H   0  0  0  0  0  0  0  0  0  0  0  0
  -26.4060  -15.6200   19.6970 H   0  0  0  0  0  0  0  0  0  0  0  0
  -28.2690  -25.1250   20.3180 C   0  0  0  0  0  2  0  0  0  0  0  0
  -28.4120  -26.5750   20.1350 O   0  0  0  0  0  0  0  0  0  0  0  0
  -24.5670  -31.8390   23.1700 C   0  0  0  0  0  0  0  0  0  0  0  0
  -27.2470  -27.3470   20.1160 C   0  0  0  0  0  0  0  0  0  0  0  0
  -23.3780  -30.4250   21.5290 C   0  0  0  0  0  3  0  0  0  0  0  0
  -24.8470  -28.8890   20.1130 C   0  0  0  0  0  0  0  0  0  0  0  0
  -25.9100  -30.7810   21.3470 C   0  0  0  0  0  2  0  0  0  0  0  0
  -26.0070  -29.4080   20.7030 C   0  0  0  0  0  0  0  0  0  0  0  0
  -27.2100  -28.6500   20.6900 C   0  0  0  0  0  3  0  0  0  0  0  0
  -26.0610  -26.8650   19.5140 C   0  0  0  0  0  3  0  0  0  0  0  0
  -24.8730  -27.6210   19.5140 C   0  0  0  0  0  3  0  0  0  0  0  0
  -23.5990  -29.7440   20.1530 C   0  0  0  0  0  2  0  0  0  0  0  0
  -24.6370  -31.0320   22.0720 N   0  0  0  0  0  0  0  0  0  0  0  0
  -23.4800  -32.1070   23.7020 O   0  0  0  0  0  0  0  0  0  0  0  0
  -22.7260  -29.4030   22.4900 C   0  0  0  0  0  0  0  0  0  0  0  0
  -21.4000  -29.2280   22.3730 N   0  0  0  0  0  0  0  0  0  0  0  0
  -23.4110  -28.7700   23.2980 O   0  0  0  0  0  0  0  0  0  0  0  0
  -20.9080  -29.7890   21.6920 H   0  0  0  0  0  0  0  0  0  0  0  0
  -18.0220  -28.0480   22.8980 C   0  0  0  0  0  0  0  0  0  0  0  0
  -20.5840  -28.2890   23.1430 C   0  0  0  0  0  3  0  0  0  0  0  0
  -20.6710  -26.8620   22.5540 C   0  0  0  0  0  2  0  0  0  0  0  0
  -19.5580  -26.5550   21.5500 C   0  0  0  0  0  2  0  0  0  0  0  0
  -18.1830  -26.7030   22.2090 C   0  0  0  0  0  2  0  0  0  0  0  0
  -19.1500  -28.8000   23.3210 C   0  0  0  0  0  0  0  0  0  0  0  0
  -18.9460  -30.0600   23.9250 C   0  0  0  0  0  3  0  0  0  0  0  0
  -17.6460  -30.5690   24.1070 C   0  0  0  0  0  3  0  0  0  0  0  0
  -16.5330  -29.8140   23.7000 C   0  0  0  0  0  3  0  0  0  0  0  0
  -16.7220  -28.5550   23.1010 C   0  0  0  0  0  3  0  0  0  0  0  0
  -25.8430  -32.4820   23.7940 C   0  0  0  0  0  3  0  0  0  0  0  0
  -26.3720  -31.7090   25.0640 C   0  0  1  0  0  0  0  0  0  0  0  0
  -25.2830  -31.4540   26.1330 C   0  0  0  0  0  1  0  0  0  0  0  0
  -26.9710  -30.3410   24.6630 C   0  0  0  0  0  1  0  0  0  0  0  0
  -27.5140  -32.5130   25.7280 C   0  0  0  0  0  1  0  0  0  0  0  0
  -25.5170  -33.8740   24.1340 N   0  0  0  0  0  0  0  0  0  0  0  0
  -25.8480  -34.9380   23.3900 C   0  0  0  0  0  0  0  0  0  0  0  0
  -26.5300  -34.8520   22.3660 O   0  0  0  0  0  0  0  0  0  0  0  0
  -24.9100  -34.0120   24.9280 H   0  0  0  0  0  0  0  0  0  0  0  0
  -24.1100  -36.7200   23.0310 C   0  0  0  0  0  1  0  0  0  0  0  0
  -25.3420  -36.3160   23.8570 C   0  0  0  0  0  3  0  0  0  0  0  0
  -27.4570  -37.2040   24.7310 C   0  0  0  0  0  1  0  0  0  0  0  0
  -26.3670  -37.3780   23.7750 N   0  0  0  0  0  0  0  0  0  0  0  0
  -25.9530  -38.2930   23.9300 H   0  0  0  0  0  0  0  0  0  0  0  0
  1  6  2  0
  2  3  1  0
  2  4  1  0
  3  5  1  0
  4 53  1  0
  4  1  1  0
  5  7  1  0
  5  1  1  0
  8 12  1  0
  9 13  2  0
 11  8  2  0
 11  9  1  0
 12  7  1  0
 12 10  2  0
 13 10  1  0
 13 23  1  0
 14 11  1  0
 15 23  1  0
 16 21  1  0
 17 18  1  0
 17 16  1  0
 19 18  1  0
 19 28  1  0
 19 20  1  0
 21 15  1  0
 21 20  1  0
 22 15  2  0
 23 24  1  0
 25 26  2  0
 26 45  1  0
 27 26  1  0
 27 30  1  0
 28 25  1  0
 28 29  1  0
 29 27  2  0
 30 31  1  0
 31 32  2  0
 33 36  1  0
 33 32  1  0
 34 33  2  0
 35 34  1  0
 35 30  2  0
 36 37  1  0
 37 38  1  0
 38 39  2  0
 40 39  1  0
 40 44  1  0
 41 40  2  0
 42 37  2  0
 42 41  1  0
 43 42  1  0
 45 46  1  0
 46 49  1  0
 46 48  1  0
 47 45  2  0
 50 51  1  0
 50 25  1  0
 52 50  1  0
 54 53  1  0
 55 66  2  0
 56 54  1  0
 56 61  1  0
 57 65  1  0
 57 67  1  0
 58 64  1  0
 58 60  1  0
 59 65  1  0
 60 59  1  0
 61 60  2  0
 62 63  1  0
 62 56  2  0
 63 58  2  0
 64 57  1  0
 65 55  1  0
 67 69  2  0
 68 67  1  0
 70 68  1  0
 71 80  2  0
 71 76  1  0
 72 68  1  0
 72 76  1  0
 73 72  1  0
 74 75  1  0
 74 73  1  0
 75 71  1  0
 76 77  2  0
 77 78  1  0
 79 78  2  0
 80 79  1  0
 81 55  1  0
 81 86  1  0
 81 82  1  0
 82 85  1  1
 82 83  1  0
 84 82  1  0
 86 89  1  0
 87 91  1  0
 87 86  1  0
 88 87  2  0
 91 90  1  0
 93 91  1  0
 93 94  1  0
 93 92  1  0
M  ISO  4  15 100  23 100  53 101  54 101
M  END
>  <TORSDO>  (84) 
F 19

>  <SCORE>  (84) 
-14.514

>  <name>  (84) 
83

>  <ligand_id>  (84) 
83

>  <original_smiles>  (84) 
[H]c1c([H])c([H])c2c(c1[H])C([H])([H])C([H])([H])C([H])([H])C2([H])N([H])C(=O)C1([H])N(C(=O)C([H])(N([H])C(=O)C([H])(N([H])C([H])([H])[H])C([H])([H])[H])C(C([H])([H])[H])(C([H])([H])[H])C([H])([H])[H])C([H])([H])c2c([H])c(OC([H])([H])C3([H])C(=O)N(C([H])([H])c4c([H])c(N([H])C(=O)N5C([H])([H])C([H])([H])C([H])([H])C([H])(n6nc(-c7c([H])c([H])c(Oc8c([H])c([H])c(F)c([H])c8F)c([H])c7[H])c(C(=O)N([H])[H])c6N([H])[H])C5([H])[H])c([H])c(C([H])([H])[H])c4[H])C([H])([H])C3([H])[H])c([H])c([H])c2C1([H])[H]

>  <smiles>  (84) 
[H]c1c([H])c([H])c2c(c1[H])C([H])([H])C([H])([H])C([H])([H])C2([H])N([H])C(=O)C1([H])N(C(=O)C([H])(N([H])C(=O)C([H])(N([H])C([H])([H])[H])C([H])([H])[H])C(C([H])([H])[H])(C([H])([H])[H])C([H])([H])[H])C([H])([H])c2c([H])c(OC([H])([H])C3([H])C(=O)N(C([H])([H])c4c([H])c(N([H])C(=O)N5C([H])([H])C([H])([H])C([H])([H])C([H])(n6nc(-c7c([H])c([H])c(Oc8c([H])c([H])c(F)c([H])c8F)c([H])c7[H])c(C(=O)N([H])[H])c6N([H])[H])C5([H])[H])c([H])c(C([H])([H])[H])c4[H])C([H])([H])C3([H])[H])c([H])c([H])c2C1([H])[H]

$$$$
84:0:0
     RDKit          3D

 96105  0  0  1  0  0  0  0  0999 V2000
  -31.0350  -18.1790   19.9070 C   0  0  0  0  0  3  0  0  0  0  0  0
  -28.7080  -18.0690   20.4300 C   0  0  0  0  0  3  0  0  0  0  0  0
  -30.9560  -19.6230   19.8690 C   0  0  0  0  0  0  0  0  0  0  0  0
  -29.7410  -20.3400   20.1470 C   0  0  0  0  0  0  0  0  0  0  0  0
  -29.9180  -17.3480   20.2130 C   0  0  0  0  0  0  0  0  0  0  0  0
  -28.6160  -19.4980   20.4000 C   0  0  0  0  0  0  0  0  0  0  0  0
  -30.6940  -14.8020   19.9380 C   0  0  0  0  0  0  0  0  0  0  0  0
  -30.4600  -12.5150   18.9480 C   0  0  0  0  0  2  0  0  0  0  0  0
  -29.4610  -12.5900   17.7690 C   0  0  0  0  0  2  0  0  0  0  0  0
  -28.0080  -12.4480   18.2630 C   0  0  0  0  0  2  0  0  0  0  0  0
  -27.7030  -13.3560   19.4820 C   0  0  0  0  0  3  0  0  0  0  0  0
  -28.8050  -13.2300   20.5600 C   0  0  0  0  0  2  0  0  0  0  0  0
  -30.0870  -13.5660   19.9210 N   0  0  0  0  0  0  0  0  0  0  0  0
  -31.8430  -14.9430   19.5060 O   0  0  0  0  0  0  0  0  0  0  0  0
  -29.8850  -15.8640   20.3070 N   0  0  0  0  0  0  0  0  0  0  0  0
  -29.0140  -15.5140   20.6750 H   0  0  0  0  0  0  0  0  0  0  0  0
  -25.3660  -14.0230   20.3150 C   0  0  0  0  0  0  0  0  0  0  0  0
  -24.2920  -13.2820   20.7250 C   0  0  0  0  0  0  0  0  0  0  0  0
  -24.7100  -11.9170   20.6650 C   0  0  0  0  0  0  0  0  0  0  0  0
  -26.3700  -13.1120   20.0260 N   0  0  0  0  0  0  0  0  0  0  0  0
  -25.9830  -11.8390   20.2980 N   0  0  0  0  0  0  0  0  0  0  0  0
  -23.9510  -10.6780   20.8780 C   0  0  0  0  0  0  0  0  0  0  0  0
  -24.4040   -9.6780   21.7680 C   0  0  0  0  0  3  0  0  0  0  0  0
  -23.6490   -8.5040   21.9690 C   0  0  0  0  0  3  0  0  0  0  0  0
  -22.4250   -8.3200   21.2830 C   0  0  0  0  0  0  0  0  0  0  0  0
  -21.9910   -9.3070   20.3810 C   0  0  0  0  0  3  0  0  0  0  0  0
  -22.7460  -10.4730   20.1760 C   0  0  0  0  0  3  0  0  0  0  0  0
  -21.6370   -7.2010   21.3970 O   0  0  0  0  0  0  0  0  0  0  0  0
  -21.6580   -6.4180   22.5220 C   0  0  0  0  0  0  0  0  0  0  0  0
  -21.3590   -6.9410   23.8000 C   0  0  0  0  0  3  0  0  0  0  0  0
  -21.3240   -6.0860   24.9210 C   0  0  0  0  0  3  0  0  0  0  0  0
  -21.5780   -4.7110   24.7660 C   0  0  0  0  0  0  0  0  0  0  0  0
  -21.8700   -4.1870   23.4930 C   0  0  0  0  0  3  0  0  0  0  0  0
  -21.9070   -5.0390   22.3750 C   0  0  0  0  0  0  0  0  0  0  0  0
  -22.1680   -4.5250   21.1490 F   0  0  0  0  0  0  0  0  0  0  0  0
  -21.5370   -3.8870   25.8400 F   0  0  0  0  0  0  0  0  0  0  0  0
  -22.9250  -13.8020   21.0630 C   0  0  0  0  0  0  0  0  0  0  0  0
  -22.2210  -13.1310   21.9670 N   0  0  0  0  0  0  0  0  0  0  0  0
  -22.4920  -14.8380   20.5590 O   0  0  0  0  0  0  0  0  0  0  0  0
  -22.5850  -12.2910   22.3920 H   0  0  0  0  0  0  0  0  0  0  0  0
  -21.3060  -13.4620   22.2380 H   0  0  0  0  0  0  0  0  0  0  0  0
  -25.5650  -15.3900   20.1380 N   0  0  0  0  0  0  0  0  0  0  0  0
  -24.8150  -16.0590   20.2710 H   0  0  0  0  0  0  0  0  0  0  0  0
  -26.4010  -15.8060   19.7470 H   0  0  0  0  0  0  0  0  0  0  0  0
  -28.7610  -24.0990   20.5940 C   0  0  0  0  0  0  0  0  0  0  0  0
  -28.4330  -25.4530   20.5310 C   0  0  0  0  0  3  0  0  0  0  0  0
  -28.9360  -23.4450   21.9500 C   0  0  0  0  0  2  0  0  0  0  0  0
  -29.0610  -22.9240   19.5960 C   0  0  0  0  0  2  0  0  0  0  0  0
  -29.8690  -22.2380   21.7460 C   0  0  0  0  0  2  0  0  0  0  0  0
  -29.6740  -21.7830   20.3740 N   0  0  0  0  0  0  0  0  0  0  0  0
  -28.2670  -26.4000   19.5010 O   0  0  0  0  0  0  0  0  0  0  0  0
  -24.5650  -31.6300   22.9590 C   0  0  0  0  0  0  0  0  0  0  0  0
  -27.1740  -27.2820   19.5930 C   0  0  0  0  0  0  0  0  0  0  0  0
  -23.3410  -30.3020   21.2730 C   0  0  0  0  0  3  0  0  0  0  0  0
  -24.7850  -28.8580   19.7270 C   0  0  0  0  0  0  0  0  0  0  0  0
  -25.8700  -30.6760   21.0450 C   0  0  0  0  0  2  0  0  0  0  0  0
  -25.9620  -29.3330   20.3240 C   0  0  0  0  0  0  0  0  0  0  0  0
  -27.1610  -28.5550   20.2510 C   0  0  0  0  0  3  0  0  0  0  0  0
  -25.9770  -26.8660   18.9820 C   0  0  0  0  0  3  0  0  0  0  0  0
  -24.7940  -27.6290   19.0470 C   0  0  0  0  0  3  0  0  0  0  0  0
  -23.5350  -29.7080   19.8520 C   0  0  0  0  0  2  0  0  0  0  0  0
  -24.6110  -30.8840   21.8170 N   0  0  0  0  0  0  0  0  0  0  0  0
  -23.4920  -31.8580   23.5380 O   0  0  0  0  0  0  0  0  0  0  0  0
  -22.7190  -29.2230   22.1930 C   0  0  0  0  0  0  0  0  0  0  0  0
  -21.3900  -29.0400   22.1060 N   0  0  0  0  0  0  0  0  0  0  0  0
  -23.4320  -28.5560   22.9480 O   0  0  0  0  0  0  0  0  0  0  0  0
  -20.8700  -29.6290   21.4690 H   0  0  0  0  0  0  0  0  0  0  0  0
  -18.0420  -27.7980   22.6780 C   0  0  0  0  0  0  0  0  0  0  0  0
  -20.6090  -28.0500   22.8500 C   0  0  0  0  0  3  0  0  0  0  0  0
  -20.6860  -26.6600   22.1760 C   0  0  0  0  0  2  0  0  0  0  0  0
  -19.5410  -26.4030   21.1920 C   0  0  0  0  0  2  0  0  0  0  0  0
  -18.1900  -26.4990   21.9050 C   0  0  0  0  0  2  0  0  0  0  0  0
  -19.1780  -28.5350   23.1080 C   0  0  0  0  0  0  0  0  0  0  0  0
  -18.9850  -29.7530   23.7930 C   0  0  0  0  0  3  0  0  0  0  0  0
  -17.6880  -30.2360   24.0540 C   0  0  0  0  0  3  0  0  0  0  0  0
  -16.5680  -29.4940   23.6400 C   0  0  0  0  0  3  0  0  0  0  0  0
  -16.7460  -28.2780   22.9580 C   0  0  0  0  0  3  0  0  0  0  0  0
  -25.8530  -32.2510   23.5810 C   0  0  0  0  0  3  0  0  0  0  0  0
  -26.4310  -31.4100   24.7850 C   0  0  1  0  0  0  0  0  0  0  0  0
  -25.3830  -31.0850   25.8750 C   0  0  0  0  0  1  0  0  0  0  0  0
  -27.0220  -30.0710   24.2850 C   0  0  0  0  0  1  0  0  0  0  0  0
  -27.5910  -32.1850   25.4590 C   0  0  0  0  0  1  0  0  0  0  0  0
  -25.5240  -33.6160   24.0160 N   0  0  0  0  0  0  0  0  0  0  0  0
  -25.8230  -34.7270   23.3290 C   0  0  0  0  0  0  0  0  0  0  0  0
  -26.4740  -34.7110   22.2810 O   0  0  0  0  0  0  0  0  0  0  0  0
  -24.9430  -33.7020   24.8380 H   0  0  0  0  0  0  0  0  0  0  0  0
  -24.0510  -36.4980   23.1400 C   0  0  0  0  0  1  0  0  0  0  0  0
  -25.3180  -36.0670   23.8950 C   0  0  0  0  0  3  0  0  0  0  0  0
  -27.4540  -36.9340   24.7430 C   0  0  0  0  0  1  0  0  0  0  0  0
  -26.3270  -37.1490   23.8390 N   0  0  0  0  0  0  0  0  0  0  0  0
  -25.9040  -38.0440   24.0710 H   0  0  0  0  0  0  0  0  0  0  0  0
  -27.3870  -20.1020   20.6650 N   0  0  0  0  0  0  0  0  0  0  0  0
  -26.7740  -19.6320   21.3210 H   0  0  0  0  0  0  0  0  0  0  0  0
  -27.4830  -21.0930   20.8620 H   0  0  0  0  0  0  0  0  0  0  0  0
  -33.1890  -20.4810   20.7420 C   0  0  0  0  0  1  0  0  0  0  0  0
  -32.2370  -20.3800   19.5450 C   0  0  0  0  0  2  0  0  0  0  0  0
  1  5  1  0
  3  1  2  0
  3  4  1  0
  4 50  1  0
  4  6  2  0
  5 15  1  0
  5  2  2  0
  6  2  1  0
  6 92  1  0
  7 15  1  0
  8 13  1  0
  9 10  1  0
  9  8  1  0
 11 10  1  0
 11 20  1  0
 11 12  1  0
 13  7  1  0
 13 12  1  0
 14  7  2  0
 15 16  1  0
 17 18  2  0
 18 37  1  0
 19 18  1  0
 19 22  1  0
 20 21  1  0
 20 17  1  0
 21 19  2  0
 22 23  1  0
 23 24  2  0
 25 28  1  0
 25 24  1  0
 26 25  2  0
 27 26  1  0
 27 22  2  0
 28 29  1  0
 29 30  1  0
 30 31  2  0
 32 31  1  0
 32 36  1  0
 33 32  2  0
 34 29  2  0
 34 33  1  0
 35 34  1  0
 37 38  1  0
 38 41  1  0
 38 40  1  0
 39 37  2  0
 42 43  1  0
 42 17  1  0
 44 42  1  0
 45 47  1  0
 46 45  2  0
 48 50  1  0
 48 45  1  0
 49 47  1  0
 50 49  1  0
 51 53  1  0
 51 46  1  0
 52 63  2  0
 53 58  1  0
 54 62  1  0
 54 64  1  0
 55 61  1  0
 55 57  1  0
 56 62  1  0
 57 56  1  0
 58 57  2  0
 59 60  1  0
 59 53  2  0
 60 55  2  0
 61 54  1  0
 62 52  1  0
 64 66  2  0
 65 64  1  0
 67 65  1  0
 68 77  2  0
 68 73  1  0
 69 65  1  0
 69 73  1  0
 70 69  1  0
 71 72  1  0
 71 70  1  0
 72 68  1  0
 73 74  2  0
 74 75  1  0
 76 75  2  0
 77 76  1  0
 78 52  1  0
 78 83  1  0
 78 79  1  0
 79 82  1  1
 79 80  1  0
 81 79  1  0
 83 86  1  0
 84 88  1  0
 84 83  1  0
 85 84  2  0
 88 87  1  0
 90 88  1  0
 90 91  1  0
 90 89  1  0
 92 94  1  0
 92 93  1  0
 96  3  1  0
 96 95  1  0
M  ISO  4   7 100  15 100  46 101  51 101
M  END
>  <TORSDO>  (85) 
F 19

>  <SCORE>  (85) 
-13.846

>  <name>  (85) 
84

>  <ligand_id>  (85) 
84

>  <original_smiles>  (85) 
[H]C(Oc1c([H])c([H])c2c(c1[H])C([H])([H])N(C(=O)C([H])(N([H])C(=O)C([H])(N([H])C([H])([H])[H])C([H])([H])[H])C(C([H])([H])[H])(C([H])([H])[H])C([H])([H])[H])C([H])(C(=O)N([H])C1([H])c3c([H])c([H])c([H])c([H])c3C([H])([H])C([H])([H])C1([H])[H])C2([H])[H])=C1C([H])([H])N(c2c(N([H])[H])c([H])c(N([H])C(=O)N3C([H])([H])C([H])([H])C([H])([H])C([H])(n4nc(-c5c([H])c([H])c(Oc6c([H])c([H])c(F)c([H])c6F)c([H])c5[H])c(C(=O)N([H])[H])c4N([H])[H])C3([H])[H])c([H])c2C([H])([H])C([H])([H])[H])C([H])([H])C1([H])[H]

>  <smiles>  (85) 
[H]C(Oc1c([H])c([H])c2c(c1[H])C([H])([H])N(C(=O)C([H])(N([H])C(=O)C([H])(N([H])C([H])([H])[H])C([H])([H])[H])C(C([H])([H])[H])(C([H])([H])[H])C([H])([H])[H])C([H])(C(=O)N([H])C1([H])c3c([H])c([H])c([H])c([H])c3C([H])([H])C([H])([H])C1([H])[H])C2([H])[H])=C1C([H])([H])N(c2c(N([H])[H])c([H])c(N([H])C(=O)N3C([H])([H])C([H])([H])C([H])([H])C([H])(n4nc(-c5c([H])c([H])c(Oc6c([H])c([H])c(F)c([H])c6F)c([H])c5[H])c(C(=O)N([H])[H])c4N([H])[H])C3([H])[H])c([H])c2C([H])([H])C([H])([H])[H])C([H])([H])C1([H])[H]

$$$$
85:0:0
     RDKit          3D

 96105  0  0  1  0  0  0  0  0999 V2000
  -31.1940  -22.5070   22.1440 C   0  0  0  0  0  0  0  0  0  0  0  0
  -29.2080  -22.2960   19.7250 C   0  0  0  0  0  0  0  0  0  0  0  0
  -29.7920  -22.9590   22.5530 C   0  0  0  0  0  2  0  0  0  0  0  0
  -31.3970  -21.8460   20.7680 C   0  0  0  0  0  2  0  0  0  0  0  0
  -29.1900  -24.0400   21.6230 C   0  0  0  0  0  2  0  0  0  0  0  0
  -29.3790  -23.8400   20.0960 C   0  0  0  0  0  3  0  0  0  0  0  0
  -30.1430  -21.3620   20.1480 N   0  0  0  0  0  0  0  0  0  0  0  0
  -32.1490  -22.6840   22.9030 O   0  0  0  0  0  0  0  0  0  0  0  0
  -28.2140  -21.9610   19.0750 O   0  0  0  0  0  0  0  0  0  0  0  0
  -31.1330  -19.0990   19.5970 C   0  0  0  0  0  3  0  0  0  0  0  0
  -31.1160  -17.6730   19.6410 C   0  0  0  0  0  3  0  0  0  0  0  0
  -28.8990  -19.1760   20.4780 C   0  0  0  0  0  3  0  0  0  0  0  0
  -28.8770  -17.7480   20.5390 C   0  0  0  0  0  0  0  0  0  0  0  0
  -30.0340  -19.8970   20.0240 C   0  0  0  0  0  0  0  0  0  0  0  0
  -29.9920  -16.9540   20.1280 C   0  0  0  0  0  0  0  0  0  0  0  0
  -27.6350  -17.0730   21.0990 C   0  0  0  0  0  1  0  0  0  0  0  0
  -30.5870  -14.4670   19.6130 C   0  0  0  0  0  0  0  0  0  0  0  0
  -30.1760  -12.2940   18.4710 C   0  0  0  0  0  2  0  0  0  0  0  0
  -29.1040  -12.5160   17.3790 C   0  0  0  0  0  2  0  0  0  0  0  0
  -27.6830  -12.3900   17.9630 C   0  0  0  0  0  2  0  0  0  0  0  0
  -27.5030  -13.2020   19.2730 C   0  0  0  0  0  3  0  0  0  0  0  0
  -28.6700  -12.9410   20.2530 C   0  0  0  0  0  2  0  0  0  0  0  0
  -29.9250  -13.2670   19.5530 N   0  0  0  0  0  0  0  0  0  0  0  0
  -31.6840  -14.6200   19.0650 O   0  0  0  0  0  0  0  0  0  0  0  0
  -29.8970  -15.4940   20.1980 N   0  0  0  0  0  0  0  0  0  0  0  0
  -29.0870  -15.1640   20.6990 H   0  0  0  0  0  0  0  0  0  0  0  0
  -25.2210  -13.8510   20.2580 C   0  0  0  0  0  0  0  0  0  0  0  0
  -24.1780  -13.1010   20.7270 C   0  0  0  0  0  0  0  0  0  0  0  0
  -24.5870  -11.7380   20.6050 C   0  0  0  0  0  0  0  0  0  0  0  0
  -26.2060  -12.9480   19.8920 N   0  0  0  0  0  0  0  0  0  0  0  0
  -25.8340  -11.6700   20.1560 N   0  0  0  0  0  0  0  0  0  0  0  0
  -23.8420  -10.4930   20.8340 C   0  0  0  0  0  0  0  0  0  0  0  0
  -24.3050   -9.5100   21.7350 C   0  0  0  0  0  3  0  0  0  0  0  0
  -23.5620   -8.3290   21.9520 C   0  0  0  0  0  3  0  0  0  0  0  0
  -22.3410   -8.1260   21.2680 C   0  0  0  0  0  0  0  0  0  0  0  0
  -21.8950   -9.0960   20.3540 C   0  0  0  0  0  3  0  0  0  0  0  0
  -22.6390  -10.2680   20.1360 C   0  0  0  0  0  3  0  0  0  0  0  0
  -21.5640   -6.9990   21.3980 O   0  0  0  0  0  0  0  0  0  0  0  0
  -21.5200   -6.2860   22.5680 C   0  0  0  0  0  0  0  0  0  0  0  0
  -21.1480   -6.8830   23.7930 C   0  0  0  0  0  3  0  0  0  0  0  0
  -21.0500   -6.0980   24.9590 C   0  0  0  0  0  3  0  0  0  0  0  0
  -21.3120   -4.7170   24.9020 C   0  0  0  0  0  0  0  0  0  0  0  0
  -21.6760   -4.1180   23.6830 C   0  0  0  0  0  3  0  0  0  0  0  0
  -21.7770   -4.9010   22.5180 C   0  0  0  0  0  0  0  0  0  0  0  0
  -22.1070   -4.3150   21.3430 F   0  0  0  0  0  0  0  0  0  0  0  0
  -21.2100   -3.9600   26.0190 F   0  0  0  0  0  0  0  0  0  0  0  0
  -22.8360  -13.6120   21.1660 C   0  0  0  0  0  0  0  0  0  0  0  0
  -22.1940  -12.9230   22.1030 N   0  0  0  0  0  0  0  0  0  0  0  0
  -22.3690  -14.6560   20.7130 O   0  0  0  0  0  0  0  0  0  0  0  0
  -22.5850  -12.0760   22.4910 H   0  0  0  0  0  0  0  0  0  0  0  0
  -21.2980  -13.2460   22.4400 H   0  0  0  0  0  0  0  0  0  0  0  0
  -25.4040  -15.2190   20.0880 N   0  0  0  0  0  0  0  0  0  0  0  0
  -24.6510  -15.8800   20.2540 H   0  0  0  0  0  0  0  0  0  0  0  0
  -26.1880  -15.6310   19.5990 H   0  0  0  0  0  0  0  0  0  0  0  0
  -28.4580  -24.8920   19.3310 C   0  0  0  0  0  2  0  0  0  0  0  0
  -28.6020  -26.3360   19.6450 O   0  0  0  0  0  0  0  0  0  0  0  0
  -24.6850  -31.3970   22.9580 C   0  0  0  0  0  0  0  0  0  0  0  0
  -27.4510  -27.1380   19.6290 C   0  0  0  0  0  0  0  0  0  0  0  0
  -23.5250  -30.0470   21.2450 C   0  0  0  0  0  3  0  0  0  0  0  0
  -25.0230  -28.6460   19.7220 C   0  0  0  0  0  0  0  0  0  0  0  0
  -26.0470  -30.4800   21.0670 C   0  0  0  0  0  2  0  0  0  0  0  0
  -26.1760  -29.1480   20.3390 C   0  0  0  0  0  0  0  0  0  0  0  0
  -27.3920  -28.4070   20.2850 C   0  0  0  0  0  3  0  0  0  0  0  0
  -26.2760  -26.6950   18.9790 C   0  0  0  0  0  3  0  0  0  0  0  0
  -25.0750  -27.4250   19.0320 C   0  0  0  0  0  3  0  0  0  0  0  0
  -23.7520  -29.4630   19.8280 C   0  0  0  0  0  2  0  0  0  0  0  0
  -24.7710  -30.6550   21.8140 N   0  0  0  0  0  0  0  0  0  0  0  0
  -23.5960  -31.6000   23.5110 O   0  0  0  0  0  0  0  0  0  0  0  0
  -22.9140  -28.9480   22.1490 C   0  0  0  0  0  0  0  0  0  0  0  0
  -21.5890  -28.7540   22.0510 N   0  0  0  0  0  0  0  0  0  0  0  0
  -23.6310  -28.2790   22.8980 O   0  0  0  0  0  0  0  0  0  0  0  0
  -21.0700  -29.3450   21.4190 H   0  0  0  0  0  0  0  0  0  0  0  0
  -18.2420  -27.5090   22.6250 C   0  0  0  0  0  0  0  0  0  0  0  0
  -20.8120  -27.7480   22.7790 C   0  0  0  0  0  3  0  0  0  0  0  0
  -20.8790  -26.3740   22.0720 C   0  0  0  0  0  2  0  0  0  0  0  0
  -19.7220  -26.1410   21.0960 C   0  0  0  0  0  2  0  0  0  0  0  0
  -18.3770  -26.2250   21.8250 C   0  0  0  0  0  2  0  0  0  0  0  0
  -19.3850  -28.2330   23.0600 C   0  0  0  0  0  0  0  0  0  0  0  0
  -19.2020  -29.4360   23.7740 C   0  0  0  0  0  3  0  0  0  0  0  0
  -17.9100  -29.9150   24.0590 C   0  0  0  0  0  3  0  0  0  0  0  0
  -16.7810  -29.1880   23.6410 C   0  0  0  0  0  3  0  0  0  0  0  0
  -16.9500  -27.9870   22.9280 C   0  0  0  0  0  3  0  0  0  0  0  0
  -25.9470  -32.0460   23.6050 C   0  0  0  0  0  3  0  0  0  0  0  0
  -25.5920  -33.4190   23.9890 N   0  0  0  0  0  0  0  0  0  0  0  0
  -25.8870  -34.5110   23.2730 C   0  0  0  0  0  0  0  0  0  0  0  0
  -26.5550  -34.4700   22.2350 O   0  0  0  0  0  0  0  0  0  0  0  0
  -25.0030  -33.5240   24.8020 H   0  0  0  0  0  0  0  0  0  0  0  0
  -24.0930  -36.2520   23.0010 C   0  0  0  0  0  1  0  0  0  0  0  0
  -25.3570  -35.8640   23.7860 C   0  0  0  0  0  3  0  0  0  0  0  0
  -27.4650  -36.7960   24.6310 C   0  0  0  0  0  1  0  0  0  0  0  0
  -26.3490  -36.9560   23.7020 N   0  0  0  0  0  0  0  0  0  0  0  0
  -25.9120  -37.8560   23.8820 H   0  0  0  0  0  0  0  0  0  0  0  0
  -26.4880  -31.2430   24.8510 C   0  0  1  0  0  0  0  0  0  0  0  0
  -25.4040  -30.9350   25.9090 C   0  0  0  0  0  1  0  0  0  0  0  0
  -27.1150  -29.9010   24.4070 C   0  0  0  0  0  1  0  0  0  0  0  0
  -27.6150  -32.0460   25.5430 C   0  0  0  0  0  1  0  0  0  0  0  0
  1  3  1  0
  1  8  2  0
  2  6  1  0
  2  7  1  0
  4  1  1  0
  5  3  1  0
  6 55  1  0
  6  5  1  0
  7  4  1  0
  9  2  2  0
 10 11  2  0
 10 14  1  0
 11 15  1  0
 12 13  1  0
 13 16  1  0
 14  7  1  0
 14 12  2  0
 15 25  1  0
 15 13  2  0
 17 25  1  0
 18 23  1  0
 19 20  1  0
 19 18  1  0
 21 20  1  0
 21 30  1  0
 21 22  1  0
 23 17  1  0
 23 22  1  0
 24 17  2  0
 25 26  1  0
 27 28  2  0
 28 47  1  0
 29 28  1  0
 29 32  1  0
 30 31  1  0
 30 27  1  0
 31 29  2  0
 32 33  1  0
 33 34  2  0
 35 38  1  0
 35 34  1  0
 36 35  2  0
 37 36  1  0
 37 32  2  0
 38 39  1  0
 39 40  1  0
 40 41  2  0
 42 41  1  0
 42 46  1  0
 43 42  2  0
 44 39  2  0
 44 43  1  0
 45 44  1  0
 47 48  1  0
 48 51  1  0
 48 50  1  0
 49 47  2  0
 52 53  1  0
 52 27  1  0
 54 52  1  0
 55 56  1  0
 57 68  2  0
 58 56  1  0
 58 63  1  0
 59 67  1  0
 59 69  1  0
 60 66  1  0
 60 62  1  0
 61 67  1  0
 62 61  1  0
 63 62  2  0
 64 65  1  0
 64 58  2  0
 65 60  2  0
 66 59  1  0
 67 57  1  0
 69 71  2  0
 70 69  1  0
 72 70  1  0
 73 82  2  0
 73 78  1  0
 74 70  1  0
 74 78  1  0
 75 74  1  0
 76 77  1  0
 76 75  1  0
 77 73  1  0
 78 79  2  0
 79 80  1  0
 81 80  2  0
 82 81  1  0
 83 57  1  0
 83 84  1  0
 83 93  1  0
 84 87  1  0
 85 89  1  0
 85 84  1  0
 86 85  2  0
 89 88  1  0
 91 89  1  0
 91 92  1  0
 91 90  1  0
 93 96  1  1
 93 94  1  0
 95 93  1  0
M  ISO  4  17 100  25 100  55 101  56 101
M  END
>  <TORSDO>  (86) 
F 18

>  <SCORE>  (86) 
-10.317

>  <name>  (86) 
85

>  <ligand_id>  (86) 
85

>  <original_smiles>  (86) 
[H]c1c([H])c([H])c2c(c1[H])C([H])([H])C([H])([H])C([H])([H])C2([H])N([H])C(=O)C1([H])N(C(=O)C([H])(N([H])C(=O)C([H])(N([H])C([H])([H])[H])C([H])([H])[H])C(C([H])([H])[H])(C([H])([H])[H])C([H])([H])[H])C([H])([H])c2c([H])c(OC([H])([H])C3([H])C(=O)N(c4c([H])c([H])c(N([H])C(=O)N5C([H])([H])C([H])([H])C([H])([H])C([H])(n6nc(-c7c([H])c([H])c(Oc8c([H])c([H])c(F)c([H])c8F)c([H])c7[H])c(C(=O)N([H])[H])c6N([H])[H])C5([H])[H])c(C([H])([H])[H])c4[H])C([H])([H])C(=O)C([H])([H])C3([H])[H])c([H])c([H])c2C1([H])[H]

>  <smiles>  (86) 
[H]c1c([H])c([H])c2c(c1[H])C([H])([H])C([H])([H])C([H])([H])C2([H])N([H])C(=O)C1([H])N(C(=O)C([H])(N([H])C(=O)C([H])(N([H])C([H])([H])[H])C([H])([H])[H])C(C([H])([H])[H])(C([H])([H])[H])C([H])([H])[H])C([H])([H])c2c([H])c(OC([H])([H])C3([H])C(=O)N(c4c([H])c([H])c(N([H])C(=O)N5C([H])([H])C([H])([H])C([H])([H])C([H])(n6nc(-c7c([H])c([H])c(Oc8c([H])c([H])c(F)c([H])c8F)c([H])c7[H])c(C(=O)N([H])[H])c6N([H])[H])C5([H])[H])c(C([H])([H])[H])c4[H])C([H])([H])C(=O)C([H])([H])C3([H])[H])c([H])c([H])c2C1([H])[H]

$$$$
86:0:0
     RDKit          3D

 93 93  0  0  1  0  0  0  0  0999 V2000
  -27.9140  -11.7660   19.0610 C   0  0  0  0  0 15  0  0  0  0  0  0
  -27.7690  -14.0580   21.9880 C   0  0  0  0  0 15  0  0  0  0  0  0
  -29.0460  -15.2170   19.0040 C   0  0  0  0  0  1  0  0  0  0  0  0
  -27.5980  -12.0820   21.2750 C   0  0  0  0  0  1  0  0  0  0  0  0
  -28.8370  -13.4710   18.0460 C   0  0  0  0  0  1  0  0  0  0  0  0
  -28.3900  -15.6590   20.7790 C   0  0  0  0  0  2  0  0  0  0  0  0
  -27.4610  -10.8880   22.1030 C   0  0  0  0  0  0  0  0  0  0  0  0
  -27.3810   -9.7150   22.4350 C   0  0  0  0  0  0  0  0  0  0  0  0
  -27.1610   -8.2540   22.4870 C   0  0  0  0  0  1  0  0  0  0  0  0
  -30.3060  -13.6990   17.4560 C   0  0  0  0  0  2  0  0  0  0  0  0
  -31.8960  -14.0390   19.7800 C   0  0  0  0  0  0  0  0  0  0  0  0
  -31.5690  -11.7680   20.0200 C   0  0  0  0  0  2  0  0  0  0  0  0
  -30.3170  -11.6530   19.2580 C   0  0  0  0  0  2  0  0  0  0  0  0
  -29.3850  -12.8310   20.1690 C   0  0  0  0  0  2  0  0  0  0  0  0
  -27.5280  -13.7480   19.8460 C   0  0  0  0  0  1  0  0  0  0  0  0
  -29.9020  -13.5260   21.0020 C   0  0  0  0  0  2  0  0  0  0  0  0
  -31.4680  -13.1180   20.5890 N   0  0  0  0  0  0  0  0  0  0  0  0
  -32.7570  -14.7110   20.2790 O   0  0  0  0  0  0  0  0  0  0  0  0
  -31.5050  -14.0890   18.4130 N   0  0  0  0  0  0  0  0  0  0  0  0
  -32.1420  -14.6950   17.9170 H   0  0  0  0  0  0  0  0  0  0  0  0
  -25.1220  -14.0560   20.4920 C   0  0  0  0  0  3  0  0  0  0  0  0
  -24.1160  -13.2440   20.8830 C   0  0  0  0  0  3  0  0  0  0  0  0
  -24.4940  -11.8800   20.7890 C   0  0  0  0  0  3  0  0  0  0  0  0
  -26.0060  -13.2410   19.9990 N   0  0  0  0  0  0  0  0  0  0  0  0
  -25.5000  -11.9210   19.9840 N   0  0  0  0  0  2  0  0  0  0  0  0
  -23.8180  -10.5960   21.0200 C   0  0  0  0  0  0  0  0  0  0  0  0
  -24.0220   -9.7760   22.1500 C   0  0  0  0  0  3  0  0  0  0  0  0
  -23.3170   -8.5650   22.3200 C   0  0  0  0  0  3  0  0  0  0  0  0
  -22.3150   -8.2160   21.3890 C   0  0  0  0  0  0  0  0  0  0  0  0
  -22.1070   -9.0420   20.2730 C   0  0  0  0  0  3  0  0  0  0  0  0
  -22.8580  -10.2080   20.0790 C   0  0  0  0  0  3  0  0  0  0  0  0
  -21.5110   -7.1040   21.4670 O   0  0  0  0  0  0  0  0  0  0  0  0
  -21.3080   -6.4270   22.6400 C   0  0  0  0  0  0  0  0  0  0  0  0
  -20.8190   -7.0570   23.8110 C   0  0  0  0  0  3  0  0  0  0  0  0
  -20.5630   -6.2910   24.9630 C   0  0  0  0  0  3  0  0  0  0  0  0
  -20.7790   -4.8980   24.9440 C   0  0  0  0  0  0  0  0  0  0  0  0
  -21.2420   -4.2700   23.7780 C   0  0  0  0  0  3  0  0  0  0  0  0
  -21.5080   -5.0350   22.6280 C   0  0  0  0  0  0  0  0  0  0  0  0
  -21.9340   -4.4230   21.4970 F   0  0  0  0  0  0  0  0  0  0  0  0
  -20.5230   -4.1550   26.0490 F   0  0  0  0  0  0  0  0  0  0  0  0
  -22.7680  -13.7490   21.0360 C   0  0  0  0  0  0  0  0  0  0  0  0
  -21.9840  -13.1130   21.8800 N   0  0  0  0  0  0  0  0  0  0  0  0
  -22.4300  -14.7320   20.3870 O   0  0  0  0  0  0  0  0  0  0  0  0
  -22.2790  -12.2530   22.3250 H   0  0  0  0  0  0  0  0  0  0  0  0
  -21.0660  -13.4900   22.0980 H   0  0  0  0  0  0  0  0  0  0  0  0
  -25.4170  -15.4060   20.4300 N   0  0  0  0  0  0  0  0  0  0  0  0
  -24.8060  -16.1590   20.7130 H   0  0  0  0  0  0  0  0  0  0  0  0
  -26.3120  -15.7480   20.0960 H   0  0  0  0  0  0  0  0  0  0  0  0
  -28.2540  -17.3010   21.1300 O   0  0  0  0  0  0  0  0  0  0  0  0
  -28.7260  -19.0370   20.6840 C   0  0  0  0  0  1  0  0  0  0  0  0
  -28.3730  -21.0670   20.4040 C   0  0  0  0  0 15  0  0  0  0  0  0
  -28.2400  -23.0430   20.9320 C   0  0  0  0  0  1  0  0  0  0  0  0
  -28.4810  -24.8340   20.5110 O   0  0  0  0  0  0  0  0  0  0  0  0
  -25.0390  -31.4360   23.1550 C   0  0  0  0  0  0  0  0  0  0  0  0
  -27.6300  -26.1780   20.4280 C   0  0  0  0  0  0  0  0  0  0  0  0
  -23.9690  -30.0180   21.4650 C   0  0  0  0  0  3  0  0  0  0  0  0
  -25.4900  -28.3670   20.1510 C   0  0  0  0  0  0  0  0  0  0  0  0
  -26.5560  -30.1370   21.5140 C   0  0  0  0  0  2  0  0  0  0  0  0
  -26.6420  -28.6800   20.8790 C   0  0  0  0  0  0  0  0  0  0  0  0
  -27.7040  -27.6160   20.9820 C   0  0  0  0  0  3  0  0  0  0  0  0
  -26.4890  -26.1460   19.5920 C   0  0  0  0  0  3  0  0  0  0  0  0
  -25.4690  -27.1430   19.4780 C   0  0  0  0  0  3  0  0  0  0  0  0
  -24.2920  -29.3350   20.1100 C   0  0  0  0  0  2  0  0  0  0  0  0
  -25.2130  -30.5720   22.0940 N   0  0  0  0  0  0  0  0  0  0  0  0
  -23.9120  -31.7180   23.5950 O   0  0  0  0  0  0  0  0  0  0  0  0
  -23.2160  -29.0260   22.3920 C   0  0  0  0  0  0  0  0  0  0  0  0
  -21.8860  -28.8750   22.2230 N   0  0  0  0  0  0  0  0  0  0  0  0
  -23.8470  -28.3980   23.2460 O   0  0  0  0  0  0  0  0  0  0  0  0
  -21.4340  -29.4320   21.5070 H   0  0  0  0  0  0  0  0  0  0  0  0
  -18.4740  -27.6940   22.6490 C   0  0  0  0  0  0  0  0  0  0  0  0
  -21.0320  -27.9360   22.9610 C   0  0  0  0  0  3  0  0  0  0  0  0
  -21.1290  -26.5090   22.3680 C   0  0  0  0  0  2  0  0  0  0  0  0
  -20.0460  -26.2150   21.3260 C   0  0  0  0  0  2  0  0  0  0  0  0
  -18.6530  -26.3610   21.9430 C   0  0  0  0  0  2  0  0  0  0  0  0
  -19.5910  -28.4410   23.1120 C   0  0  0  0  0  0  0  0  0  0  0  0
  -19.3660  -29.6840   23.7420 C   0  0  0  0  0  3  0  0  0  0  0  0
  -18.0610  -30.1830   23.9110 C   0  0  0  0  0  3  0  0  0  0  0  0
  -16.9590  -29.4370   23.4600 C   0  0  0  0  0  3  0  0  0  0  0  0
  -17.1670  -28.1940   22.8360 C   0  0  0  0  0  3  0  0  0  0  0  0
  -26.2450  -32.1250   23.8620 C   0  0  0  0  0  3  0  0  0  0  0  0
  -25.8650  -33.5130   24.2010 N   0  0  0  0  0  0  0  0  0  0  0  0
  -26.2010  -34.6040   23.4960 C   0  0  0  0  0  0  0  0  0  0  0  0
  -26.9170  -34.5510   22.4930 O   0  0  0  0  0  0  0  0  0  0  0  0
  -25.2250  -33.6280   24.9760 H   0  0  0  0  0  0  0  0  0  0  0  0
  -24.4280  -36.3600   23.1320 C   0  0  0  0  0  1  0  0  0  0  0  0
  -25.6590  -35.9720   23.9730 C   0  0  0  0  0  3  0  0  0  0  0  0
  -27.7350  -36.8950   24.9040 C   0  0  0  0  0  1  0  0  0  0  0  0
  -26.6650  -37.0590   23.9230 N   0  0  0  0  0  0  0  0  0  0  0  0
  -26.2310  -37.9650   24.0790 H   0  0  0  0  0  0  0  0  0  0  0  0
  -26.7070  -31.3730   25.1730 C   0  0  1  0  0  0  0  0  0  0  0  0
  -25.5550  -31.1060   26.1730 C   0  0  0  0  0  1  0  0  0  0  0  0
  -27.3570  -30.0150   24.8370 C   0  0  0  0  0  1  0  0  0  0  0  0
  -27.8040  -32.1990   25.8940 C   0  0  0  0  0  1  0  0  0  0  0  0
  3  6  1  0
  4  7  1  0
  6 49  1  0
  7  8  3  0
  8  9  1  0
 10  5  1  0
 10 19  1  0
 11 18  2  0
 11 17  1  0
 12 17  1  0
 13 12  1  0
 13 14  1  0
 14 16  1  0
 15 24  1  0
 17 16  1  0
 19 11  1  0
 20 19  1  0
 21 46  1  0
 21 22  1  0
 22 41  1  0
 23 22  1  0
 23 26  1  0
 24 21  1  0
 25 24  1  0
 25 23  1  0
 26 27  1  0
 27 28  2  0
 29 32  1  0
 29 28  1  0
 30 29  2  0
 31 30  1  0
 31 26  2  0
 32 33  1  0
 33 34  1  0
 34 35  2  0
 36 35  1  0
 36 40  1  0
 37 36  2  0
 38 33  2  0
 38 37  1  0
 39 38  1  0
 41 42  1  0
 42 45  1  0
 42 44  1  0
 43 41  2  0
 46 47  1  0
 48 46  1  0
 50 49  1  0
 53 52  1  0
 54 65  2  0
 55 53  1  0
 55 60  1  0
 56 64  1  0
 56 66  1  0
 57 59  1  0
 58 64  1  0
 59 60  2  0
 59 58  1  0
 61 55  2  0
 62 61  1  0
 62 57  2  0
 63 57  1  0
 63 56  1  0
 64 54  1  0
 66 68  2  0
 67 66  1  0
 69 67  1  0
 70 79  2  0
 70 75  1  0
 71 67  1  0
 71 75  1  0
 72 71  1  0
 73 74  1  0
 73 72  1  0
 74 70  1  0
 75 76  2  0
 76 77  1  0
 78 77  2  0
 79 78  1  0
 80 54  1  0
 80 81  1  0
 80 90  1  0
 81 84  1  0
 82 86  1  0
 82 81  1  0
 83 82  2  0
 86 85  1  0
 88 86  1  0
 88 89  1  0
 88 87  1  0
 90 93  1  1
 90 91  1  0
 92 90  1  0
M  ISO  4  11 100  19 100  52 101  53 101
M  END
>  <TORSDO>  (87) 
F 22

>  <SCORE>  (87) 
-11.993

>  <name>  (87) 
86

>  <ligand_id>  (87) 
86

>  <original_smiles>  (87) 
[H]c1c([H])c([H])c2c(c1[H])C([H])([H])C([H])([H])C([H])([H])C2([H])N([H])C(=O)C1([H])N(C(=O)C([H])(N([H])C(=O)C([H])(N([H])C([H])([H])[H])C([H])([H])[H])C(C([H])([H])[H])(C([H])([H])[H])C([H])([H])[H])C([H])([H])c2c([H])c(OC([H])([H])C([H])([H])C([H])([H])Oc3c([H])c(C#CC([H])([H])[H])c([H])c(C([H])([H])N([H])C(=O)N4C([H])([H])C([H])([H])C([H])([H])C([H])(n5nc(-c6c([H])c([H])c(Oc7c([H])c([H])c(F)c([H])c7F)c([H])c6[H])c(C(=O)N([H])[H])c5N([H])[H])C4([H])[H])c3[H])c([H])c([H])c2C1([H])[H]

>  <smiles>  (87) 
[H]c1c([H])c([H])c2c(c1[H])C([H])([H])C([H])([H])C([H])([H])C2([H])N([H])C(=O)C1([H])N(C(=O)C([H])(N([H])C(=O)C([H])(N([H])C([H])([H])[H])C([H])([H])[H])C(C([H])([H])[H])(C([H])([H])[H])C([H])([H])[H])C([H])([H])c2c([H])c(OC([H])([H])C([H])([H])C([H])([H])Oc3c([H])c(C#CC([H])([H])[H])c([H])c(C([H])([H])N([H])C(=O)N4C([H])([H])C([H])([H])C([H])([H])C([H])(n5nc(-c6c([H])c([H])c(Oc7c([H])c([H])c(F)c([H])c7F)c([H])c6[H])c(C(=O)N([H])[H])c5N([H])[H])C4([H])[H])c3[H])c([H])c([H])c2C1([H])[H]

$$$$
87:0:0
     RDKit          3D

 99108  0  0  1  0  0  0  0  0999 V2000
  -27.6710  -23.5150   21.7450 C   0  0  0  0  0  0  0  0  0  0  0  0
  -29.9360  -22.7250   19.5100 C   0  0  0  0  0  0  0  0  0  0  0  0
  -27.5850  -22.0000   21.5500 C   0  0  0  0  0  2  0  0  0  0  0  0
  -28.9370  -24.2290   21.2810 C   0  0  0  0  0  2  0  0  0  0  0  0
  -27.9020  -21.5190   20.1110 C   0  0  0  0  0  2  0  0  0  0  0  0
  -29.1270  -24.0930   19.7560 C   0  0  0  0  0  3  0  0  0  0  0  0
  -29.3520  -21.4930   19.7990 N   0  0  0  0  0  0  0  0  0  0  0  0
  -26.7520  -24.1400   22.2790 O   0  0  0  0  0  0  0  0  0  0  0  0
  -31.0950  -22.8050   19.0940 O   0  0  0  0  0  0  0  0  0  0  0  0
  -31.4310  -18.2100   19.1570 C   0  0  0  0  0  3  0  0  0  0  0  0
  -30.9090  -19.5430   18.9780 C   0  0  0  0  0  3  0  0  0  0  0  0
  -29.6850  -19.3030   21.0020 C   0  0  0  0  0  3  0  0  0  0  0  0
  -31.0950  -17.3630   20.2630 C   0  0  0  0  0  0  0  0  0  0  0  0
  -30.0050  -20.1480   19.9040 C   0  0  0  0  0  0  0  0  0  0  0  0
  -30.1680  -17.9780   21.1740 C   0  0  0  0  0  0  0  0  0  0  0  0
  -31.7340  -15.9650   20.5730 C   0  0  0  0  0  3  0  0  0  0  0  0
  -32.0600  -15.6750   21.7680 N   0  0  0  0  0  2  0  0  0  0  0  0
  -31.8020  -16.4510   22.3740 H   0  0  0  0  0  0  0  0  0  0  0  0
  -32.0610  -14.8760   19.5010 C   0  0  0  0  0  0  0  0  0  0  0  0
  -31.5810  -12.6400   18.4940 C   0  0  0  0  0  2  0  0  0  0  0  0
  -30.5460  -12.7800   17.3570 C   0  0  0  0  0  2  0  0  0  0  0  0
  -29.1130  -12.7130   17.9180 C   0  0  0  0  0  2  0  0  0  0  0  0
  -28.9160  -13.6430   19.1420 C   0  0  0  0  0  3  0  0  0  0  0  0
  -30.0490  -13.4550   20.1740 C   0  0  0  0  0  2  0  0  0  0  0  0
  -31.3300  -13.7070   19.4890 N   0  0  0  0  0  0  0  0  0  0  0  0
  -33.0590  -15.0110   18.7840 O   0  0  0  0  0  0  0  0  0  0  0  0
  -26.6730  -14.4310   20.1190 C   0  0  0  0  0  0  0  0  0  0  0  0
  -25.5790  -13.7440   20.5690 C   0  0  0  0  0  0  0  0  0  0  0  0
  -25.9030  -12.3580   20.4440 C   0  0  0  0  0  0  0  0  0  0  0  0
  -27.5990  -13.4680   19.7480 N   0  0  0  0  0  0  0  0  0  0  0  0
  -27.1460  -12.2140   20.0020 N   0  0  0  0  0  0  0  0  0  0  0  0
  -25.0820  -11.1600   20.6660 C   0  0  0  0  0  0  0  0  0  0  0  0
  -25.4300  -10.1940   21.6350 C   0  0  0  0  0  3  0  0  0  0  0  0
  -24.6150   -9.0600   21.8410 C   0  0  0  0  0  3  0  0  0  0  0  0
  -23.4350   -8.8870   21.0790 C   0  0  0  0  0  0  0  0  0  0  0  0
  -23.1050   -9.8400   20.1000 C   0  0  0  0  0  3  0  0  0  0  0  0
  -23.9210  -10.9650   19.8920 C   0  0  0  0  0  3  0  0  0  0  0  0
  -22.5940   -7.8060   21.1930 O   0  0  0  0  0  0  0  0  0  0  0  0
  -22.2560   -7.2840   22.4160 C   0  0  0  0  0  0  0  0  0  0  0  0
  -21.7270   -8.0880   23.4500 C   0  0  0  0  0  3  0  0  0  0  0  0
  -21.3280   -7.4990   24.6660 C   0  0  0  0  0  3  0  0  0  0  0  0
  -21.4470   -6.1080   24.8480 C   0  0  0  0  0  0  0  0  0  0  0  0
  -21.9680   -5.3050   23.8180 C   0  0  0  0  0  3  0  0  0  0  0  0
  -22.3680   -5.8920   22.6040 C   0  0  0  0  0  0  0  0  0  0  0  0
  -22.8500   -5.1100   21.6080 F   0  0  0  0  0  0  0  0  0  0  0  0
  -21.0560   -5.5400   26.0120 F   0  0  0  0  0  0  0  0  0  0  0  0
  -24.2680  -14.3350   21.0020 C   0  0  0  0  0  0  0  0  0  0  0  0
  -23.6280  -13.7420   22.0050 N   0  0  0  0  0  0  0  0  0  0  0  0
  -23.8250  -15.3580   20.4820 O   0  0  0  0  0  0  0  0  0  0  0  0
  -24.0000  -12.9140   22.4450 H   0  0  0  0  0  0  0  0  0  0  0  0
  -22.7540  -14.1230   22.3370 H   0  0  0  0  0  0  0  0  0  0  0  0
  -26.9510  -15.7860   19.9720 N   0  0  0  0  0  0  0  0  0  0  0  0
  -26.2750  -16.5070   20.1980 H   0  0  0  0  0  0  0  0  0  0  0  0
  -27.8150  -16.1600   19.6010 H   0  0  0  0  0  0  0  0  0  0  0  0
  -29.6630  -17.3210   22.3020 N   0  0  0  0  0  0  0  0  0  0  0  0
  -28.8600  -17.7260   22.7720 H   0  0  0  0  0  0  0  0  0  0  0  0
  -29.6140  -16.3070   22.2780 H   0  0  0  0  0  0  0  0  0  0  0  0
  -29.6850  -25.4600   19.1380 C   0  0  0  0  0  2  0  0  0  0  0  0
  -29.4470  -26.7670   19.7960 O   0  0  0  0  0  0  0  0  0  0  0  0
  -25.2140  -31.3100   23.4160 C   0  0  0  0  0  0  0  0  0  0  0  0
  -28.2290  -27.4600   19.8090 C   0  0  0  0  0  0  0  0  0  0  0  0
  -24.1460  -30.0750   21.5600 C   0  0  0  0  0  3  0  0  0  0  0  0
  -25.7350  -28.8530   19.9660 C   0  0  0  0  0  0  0  0  0  0  0  0
  -26.6520  -30.6110   21.4880 C   0  0  0  0  0  2  0  0  0  0  0  0
  -26.8480  -29.3490   20.6550 C   0  0  0  0  0  0  0  0  0  0  0  0
  -28.0920  -28.6620   20.5680 C   0  0  0  0  0  3  0  0  0  0  0  0
  -27.0910  -27.0030   19.1110 C   0  0  0  0  0  3  0  0  0  0  0  0
  -25.8580  -27.6870   19.1880 C   0  0  0  0  0  3  0  0  0  0  0  0
  -24.4320  -29.6140   20.1040 C   0  0  0  0  0  2  0  0  0  0  0  0
  -25.3540  -30.6760   22.2140 N   0  0  0  0  0  0  0  0  0  0  0  0
  -24.1040  -31.4260   23.9570 O   0  0  0  0  0  0  0  0  0  0  0  0
  -23.5520  -28.8860   22.3520 C   0  0  0  0  0  0  0  0  0  0  0  0
  -22.2680  -28.5760   22.0990 N   0  0  0  0  0  0  0  0  0  0  0  0
  -24.2450  -28.2510   23.1500 O   0  0  0  0  0  0  0  0  0  0  0  0
  -21.7640  -29.1480   21.4360 H   0  0  0  0  0  0  0  0  0  0  0  0
  -19.0690  -26.8880   22.1110 C   0  0  0  0  0  0  0  0  0  0  0  0
  -21.5200  -27.4680   22.6950 C   0  0  0  0  0  3  0  0  0  0  0  0
  -21.8890  -26.1240   22.0250 C   0  0  0  0  0  2  0  0  0  0  0  0
  -20.9570  -25.7500   20.8680 C   0  0  0  0  0  2  0  0  0  0  0  0
  -19.5100  -25.6460   21.3570 C   0  0  0  0  0  2  0  0  0  0  0  0
  -20.0140  -27.7520   22.7250 C   0  0  0  0  0  0  0  0  0  0  0  0
  -19.5550  -28.9120   23.3860 C   0  0  0  0  0  3  0  0  0  0  0  0
  -18.1810  -29.2140   23.4390 C   0  0  0  0  0  3  0  0  0  0  0  0
  -17.2470  -28.3480   22.8420 C   0  0  0  0  0  3  0  0  0  0  0  0
  -17.6920  -27.1860   22.1850 C   0  0  0  0  0  3  0  0  0  0  0  0
  -26.4360  -31.9390   24.1560 C   0  0  0  0  0  3  0  0  0  0  0  0
  -26.9120  -31.0930   25.4010 C   0  0  1  0  0  0  0  0  0  0  0  0
  -25.7610  -30.6700   26.3430 C   0  0  0  0  0  1  0  0  0  0  0  0
  -27.6430  -29.8090   24.9440 C   0  0  0  0  0  1  0  0  0  0  0  0
  -27.9330  -31.9090   26.2290 C   0  0  0  0  0  1  0  0  0  0  0  0
  -26.0530  -33.2970   24.5700 N   0  0  0  0  0  0  0  0  0  0  0  0
  -26.3770  -34.4140   23.9060 C   0  0  0  0  0  0  0  0  0  0  0  0
  -27.0980  -34.4120   22.9040 O   0  0  0  0  0  0  0  0  0  0  0  0
  -25.4160  -33.3680   25.3480 H   0  0  0  0  0  0  0  0  0  0  0  0
  -24.5830  -36.1530   23.6100 C   0  0  0  0  0  1  0  0  0  0  0  0
  -25.8140  -35.7460   24.4370 C   0  0  0  0  0  3  0  0  0  0  0  0
  -27.8830  -36.6580   25.3940 C   0  0  0  0  0  1  0  0  0  0  0  0
  -26.8020  -36.8470   24.4310 N   0  0  0  0  0  0  0  0  0  0  0  0
  -26.3520  -37.7370   24.6310 H   0  0  0  0  0  0  0  0  0  0  0  0
  1  8  2  0
  2  6  1  0
  2  7  1  0
  3  1  1  0
  4  1  1  0
  5  3  1  0
  6 58  1  0
  6  4  1  0
  7 14  1  0
  7  5  1  0
  9  2  2  0
 10 13  1  0
 11 10  2  0
 11 14  1  0
 12 15  1  0
 13 16  1  0
 13 15  2  0
 14 12  2  0
 15 55  1  0
 16 19  1  0
 16 17  1  0
 17 18  1  0
 20 25  1  0
 21 22  1  0
 21 20  1  0
 23 22  1  0
 23 30  1  0
 23 24  1  0
 25 19  1  0
 25 24  1  0
 26 19  2  0
 27 28  2  0
 28 47  1  0
 29 28  1  0
 29 32  1  0
 30 31  1  0
 30 27  1  0
 31 29  2  0
 32 33  1  0
 33 34  2  0
 35 38  1  0
 35 34  1  0
 36 35  2  0
 37 36  1  0
 37 32  2  0
 38 39  1  0
 39 44  2  0
 39 40  1  0
 40 41  2  0
 41 42  1  0
 42 46  1  0
 43 42  2  0
 44 43  1  0
 45 44  1  0
 47 48  1  0
 48 51  1  0
 48 50  1  0
 49 47  2  0
 52 27  1  0
 52 53  1  0
 54 52  1  0
 55 56  1  0
 57 55  1  0
 58 59  1  0
 59 61  1  0
 60 71  2  0
 61 66  1  0
 62 70  1  0
 62 72  1  0
 63 69  1  0
 63 65  1  0
 64 70  1  0
 65 64  1  0
 66 65  2  0
 67 68  1  0
 67 61  2  0
 68 63  2  0
 69 62  1  0
 70 60  1  0
 72 74  2  0
 73 72  1  0
 75 73  1  0
 76 85  2  0
 76 81  1  0
 77 73  1  0
 77 81  1  0
 78 77  1  0
 79 80  1  0
 79 78  1  0
 80 76  1  0
 81 82  2  0
 82 83  1  0
 84 83  2  0
 85 84  1  0
 86 60  1  0
 86 91  1  0
 86 87  1  0
 87 90  1  1
 87 88  1  0
 89 87  1  0
 91 94  1  0
 92 96  1  0
 92 91  1  0
 93 92  2  0
 96 95  1  0
 98 96  1  0
 98 99  1  0
 98 97  1  0
M  ISO  4  16 100  19 100  58 101  59 101
M  END
>  <TORSDO>  (88) 
F 20

>  <SCORE>  (88) 
-9.050

>  <name>  (88) 
87

>  <ligand_id>  (88) 
87

>  <original_smiles>  (88) 
[H]N=C(C(=O)N1C([H])([H])C([H])([H])C([H])([H])C([H])(n2nc(-c3c([H])c([H])c(Oc4c([H])c([H])c(F)c([H])c4F)c([H])c3[H])c(C(=O)N([H])[H])c2N([H])[H])C1([H])[H])c1c([H])c([H])c(N2C(=O)C([H])(C([H])([H])Oc3c([H])c([H])c4c(c3[H])C([H])([H])N(C(=O)C([H])(N([H])C(=O)C([H])(N([H])C([H])([H])[H])C([H])([H])[H])C(C([H])([H])[H])(C([H])([H])[H])C([H])([H])[H])C([H])(C(=O)N([H])C3([H])c5c([H])c([H])c([H])c([H])c5C([H])([H])C([H])([H])C3([H])[H])C4([H])[H])C([H])([H])C(=O)C([H])([H])C2([H])[H])c([H])c1N([H])[H]

>  <smiles>  (88) 
[H]N=C(C(=O)N1C([H])([H])C([H])([H])C([H])([H])C([H])(n2nc(-c3c([H])c([H])c(Oc4c([H])c([H])c(F)c([H])c4F)c([H])c3[H])c(C(=O)N([H])[H])c2N([H])[H])C1([H])[H])c1c([H])c([H])c(N2C(=O)C([H])(C([H])([H])Oc3c([H])c([H])c4c(c3[H])C([H])([H])N(C(=O)C([H])(N([H])C(=O)C([H])(N([H])C([H])([H])[H])C([H])([H])[H])C(C([H])([H])[H])(C([H])([H])[H])C([H])([H])[H])C([H])(C(=O)N([H])C3([H])c5c([H])c([H])c([H])c([H])c5C([H])([H])C([H])([H])C3([H])[H])C4([H])[H])C([H])([H])C(=O)C([H])([H])C2([H])[H])c([H])c1N([H])[H]

$$$$
88:0:0
     RDKit          3D

 92100  0  0  1  0  0  0  0  0999 V2000
  -28.5740  -21.0870   19.9240 C   0  0  0  0  0  2  0  0  0  0  0  0
  -28.9950  -19.0170   21.3950 C   0  0  0  0  0  3  0  0  0  0  0  0
  -29.3290  -17.6480   21.5490 C   0  0  0  0  0  3  0  0  0  0  0  0
  -30.1660  -17.5840   19.2810 C   0  0  0  0  0  3  0  0  0  0  0  0
  -29.2030  -19.6890   20.1670 C   0  0  0  0  0  0  0  0  0  0  0  0
  -29.8960  -16.8940   20.4930 C   0  0  0  0  0  0  0  0  0  0  0  0
  -29.8180  -18.9530   19.1180 C   0  0  0  0  0  0  0  0  0  0  0  0
  -30.0230  -19.5420   17.9150 F   0  0  0  0  0  0  0  0  0  0  0  0
  -30.6920  -14.5320   19.9450 C   0  0  0  0  0  0  0  0  0  0  0  0
  -30.3520  -12.3780   18.7630 C   0  0  0  0  0  2  0  0  0  0  0  0
  -29.3150  -12.6160   17.6410 C   0  0  0  0  0  2  0  0  0  0  0  0
  -27.8740  -12.4730   18.1750 C   0  0  0  0  0  2  0  0  0  0  0  0
  -27.6440  -13.2570   19.4940 C   0  0  0  0  0  3  0  0  0  0  0  0
  -28.7820  -12.9790   20.5020 C   0  0  0  0  0  2  0  0  0  0  0  0
  -30.0600  -13.3240   19.8570 N   0  0  0  0  0  0  0  0  0  0  0  0
  -31.7510  -14.7690   19.3530 O   0  0  0  0  0  0  0  0  0  0  0  0
  -30.0470  -15.4690   20.6840 N   0  0  0  0  0  0  0  0  0  0  0  0
  -29.3720  -15.0630   21.3160 H   0  0  0  0  0  0  0  0  0  0  0  0
  -25.3150  -13.8630   20.4000 C   0  0  0  0  0  0  0  0  0  0  0  0
  -24.2690  -13.0890   20.8280 C   0  0  0  0  0  0  0  0  0  0  0  0
  -24.7120  -11.7350   20.7240 C   0  0  0  0  0  0  0  0  0  0  0  0
  -26.3290  -12.9790   20.0660 N   0  0  0  0  0  0  0  0  0  0  0  0
  -25.9740  -11.6920   20.3140 N   0  0  0  0  0  0  0  0  0  0  0  0
  -23.9890  -10.4750   20.9400 C   0  0  0  0  0  0  0  0  0  0  0  0
  -24.4320   -9.5240   21.8840 C   0  0  0  0  0  3  0  0  0  0  0  0
  -23.7130   -8.3260   22.0850 C   0  0  0  0  0  3  0  0  0  0  0  0
  -22.5350   -8.0730   21.3430 C   0  0  0  0  0  0  0  0  0  0  0  0
  -22.1100   -9.0140   20.3890 C   0  0  0  0  0  3  0  0  0  0  0  0
  -22.8290  -10.2030   20.1870 C   0  0  0  0  0  3  0  0  0  0  0  0
  -21.7870   -6.9260   21.4530 O   0  0  0  0  0  0  0  0  0  0  0  0
  -21.6830   -6.2450   22.6380 C   0  0  0  0  0  0  0  0  0  0  0  0
  -21.1840   -6.8580   23.8080 C   0  0  0  0  0  3  0  0  0  0  0  0
  -21.0280   -6.1030   24.9880 C   0  0  0  0  0  3  0  0  0  0  0  0
  -21.3580   -4.7340   24.9970 C   0  0  0  0  0  0  0  0  0  0  0  0
  -21.8510   -4.1200   23.8320 C   0  0  0  0  0  3  0  0  0  0  0  0
  -22.0090   -4.8730   22.6550 C   0  0  0  0  0  0  0  0  0  0  0  0
  -22.4630   -4.2710   21.5290 F   0  0  0  0  0  0  0  0  0  0  0  0
  -21.2010   -4.0070   26.1280 F   0  0  0  0  0  0  0  0  0  0  0  0
  -22.9030  -13.5730   21.2200 C   0  0  0  0  0  0  0  0  0  0  0  0
  -22.2460  -12.8710   22.1360 N   0  0  0  0  0  0  0  0  0  0  0  0
  -22.4300  -14.6070   20.7490 O   0  0  0  0  0  0  0  0  0  0  0  0
  -22.6430  -12.0360   22.5410 H   0  0  0  0  0  0  0  0  0  0  0  0
  -21.3310  -13.1750   22.4380 H   0  0  0  0  0  0  0  0  0  0  0  0
  -25.4780  -15.2360   20.2490 N   0  0  0  0  0  0  0  0  0  0  0  0
  -24.7270  -15.8920   20.4330 H   0  0  0  0  0  0  0  0  0  0  0  0
  -26.3100  -15.6820   19.8800 H   0  0  0  0  0  0  0  0  0  0  0  0
  -29.0580  -22.3450   20.7350 C   0  0  0  0  0  2  0  0  0  0  0  0
  -27.7870  -24.4000   21.3840 C   0  0  0  0  0  0  0  0  0  0  0  0
  -26.5090  -24.8400   22.0730 C   0  0  0  0  0  1  0  0  0  0  0  0
  -27.8900  -23.1260   21.1740 N   0  0  0  0  0  0  0  0  0  0  0  0
  -28.7900  -25.5690   21.1420 C   0  0  0  0  0  2  0  0  0  0  0  0
  -28.5020  -26.5200   20.0710 O   0  0  0  0  0  0  0  0  0  0  0  0
  -24.5790  -31.7210   23.1350 C   0  0  0  0  0  0  0  0  0  0  0  0
  -27.3520  -27.2940   20.1130 C   0  0  0  0  0  0  0  0  0  0  0  0
  -23.4300  -30.3020   21.4690 C   0  0  0  0  0  3  0  0  0  0  0  0
  -24.9430  -28.7910   20.0680 C   0  0  0  0  0  0  0  0  0  0  0  0
  -25.9560  -30.6920   21.3260 C   0  0  0  0  0  2  0  0  0  0  0  0
  -26.0800  -29.3180   20.6950 C   0  0  0  0  0  0  0  0  0  0  0  0
  -27.2900  -28.5760   20.7210 C   0  0  0  0  0  3  0  0  0  0  0  0
  -26.2110  -26.8110   19.4440 C   0  0  0  0  0  3  0  0  0  0  0  0
  -25.0050  -27.5360   19.4370 C   0  0  0  0  0  3  0  0  0  0  0  0
  -23.6820  -29.6290   20.0930 C   0  0  0  0  0  2  0  0  0  0  0  0
  -24.6720  -30.9220   22.0350 N   0  0  0  0  0  0  0  0  0  0  0  0
  -23.4820  -31.9720   23.6550 O   0  0  0  0  0  0  0  0  0  0  0  0
  -22.7790  -29.2670   22.4150 C   0  0  0  0  0  0  0  0  0  0  0  0
  -21.4560  -29.0760   22.2770 N   0  0  0  0  0  0  0  0  0  0  0  0
  -23.4610  -28.6390   23.2280 O   0  0  0  0  0  0  0  0  0  0  0  0
  -20.9640  -29.6360   21.5960 H   0  0  0  0  0  0  0  0  0  0  0  0
  -18.0860  -27.8620   22.7550 C   0  0  0  0  0  0  0  0  0  0  0  0
  -20.6430  -28.1230   23.0320 C   0  0  0  0  0  3  0  0  0  0  0  0
  -20.7490  -26.7030   22.4290 C   0  0  0  0  0  2  0  0  0  0  0  0
  -19.6470  -26.3940   21.4120 C   0  0  0  0  0  2  0  0  0  0  0  0
  -18.2640  -26.5250   22.0580 C   0  0  0  0  0  2  0  0  0  0  0  0
  -19.2030  -28.6190   23.1980 C   0  0  0  0  0  0  0  0  0  0  0  0
  -18.9800  -29.8720   23.8100 C   0  0  0  0  0  3  0  0  0  0  0  0
  -17.6750  -30.3670   23.9850 C   0  0  0  0  0  3  0  0  0  0  0  0
  -16.5720  -29.6060   23.5620 C   0  0  0  0  0  3  0  0  0  0  0  0
  -16.7780  -28.3560   22.9540 C   0  0  0  0  0  3  0  0  0  0  0  0
  -25.8420  -32.3740   23.7800 C   0  0  0  0  0  3  0  0  0  0  0  0
  -26.3560  -31.6030   25.0570 C   0  0  1  0  0  0  0  0  0  0  0  0
  -25.2530  -31.3340   26.1070 C   0  0  0  0  0  1  0  0  0  0  0  0
  -26.9740  -30.2410   24.6620 C   0  0  0  0  0  1  0  0  0  0  0  0
  -27.4800  -32.4160   25.7440 C   0  0  0  0  0  1  0  0  0  0  0  0
  -25.4980  -33.7620   24.1160 N   0  0  0  0  0  0  0  0  0  0  0  0
  -25.8170  -34.8270   23.3670 C   0  0  0  0  0  0  0  0  0  0  0  0
  -26.5020  -34.7440   22.3440 O   0  0  0  0  0  0  0  0  0  0  0  0
  -24.8940  -33.8980   24.9130 H   0  0  0  0  0  0  0  0  0  0  0  0
  -24.0570  -36.5850   22.9950 C   0  0  0  0  0  1  0  0  0  0  0  0
  -25.2930  -36.2020   23.8240 C   0  0  0  0  0  3  0  0  0  0  0  0
  -27.3940  -37.1270   24.6960 C   0  0  0  0  0  1  0  0  0  0  0  0
  -26.3060  -37.2780   23.7350 N   0  0  0  0  0  0  0  0  0  0  0  0
  -25.8780  -38.1880   23.8800 H   0  0  0  0  0  0  0  0  0  0  0  0
  1  5  1  0
  1 47  1  0
  2  3  1  0
  4  6  1  0
  5  2  2  0
  6 17  1  0
  6  3  2  0
  7  4  2  0
  7  5  1  0
  8  7  1  0
  9 17  1  0
 10 15  1  0
 11 12  1  0
 11 10  1  0
 13 12  1  0
 13 22  1  0
 13 14  1  0
 15  9  1  0
 15 14  1  0
 16  9  2  0
 17 18  1  0
 19 20  2  0
 20 39  1  0
 21 20  1  0
 21 24  1  0
 22 23  1  0
 22 19  1  0
 23 21  2  0
 24 25  1  0
 25 26  2  0
 27 30  1  0
 27 26  1  0
 28 27  2  0
 29 28  1  0
 29 24  2  0
 30 31  1  0
 31 36  2  0
 31 32  1  0
 32 33  2  0
 33 34  1  0
 34 38  1  0
 35 34  2  0
 36 35  1  0
 37 36  1  0
 39 40  1  0
 40 43  1  0
 40 42  1  0
 41 39  2  0
 44 19  1  0
 44 45  1  0
 46 44  1  0
 47 50  1  0
 48 49  1  0
 50 48  2  0
 51 48  1  0
 52 54  1  0
 52 51  1  0
 53 64  2  0
 54 59  1  0
 55 63  1  0
 55 65  1  0
 56 62  1  0
 56 58  1  0
 57 63  1  0
 58 59  2  0
 58 57  1  0
 60 54  2  0
 61 60  1  0
 61 56  2  0
 62 55  1  0
 63 53  1  0
 65 67  2  0
 66 65  1  0
 68 66  1  0
 69 78  2  0
 69 74  1  0
 70 66  1  0
 70 74  1  0
 71 70  1  0
 72 73  1  0
 72 71  1  0
 73 69  1  0
 74 75  2  0
 75 76  1  0
 77 76  2  0
 78 77  1  0
 79 53  1  0
 79 84  1  0
 79 80  1  0
 80 83  1  1
 80 81  1  0
 82 80  1  0
 84 87  1  0
 85 89  1  0
 85 84  1  0
 86 85  2  0
 89 88  1  0
 91 89  1  0
 91 92  1  0
 91 90  1  0
M  ISO  4   9 100  17 100  51 101  52 101
M  END
>  <TORSDO>  (89) 
F 20

>  <SCORE>  (89) 
-12.622

>  <name>  (89) 
88

>  <ligand_id>  (89) 
88

>  <original_smiles>  (89) 
[H]c1c([H])c([H])c2c(c1[H])C([H])([H])C([H])([H])C([H])([H])C2([H])N([H])C(=O)C1([H])N(C(=O)C([H])(N([H])C(=O)C([H])(N([H])C([H])([H])[H])C([H])([H])[H])C(C([H])([H])[H])(C([H])([H])[H])C([H])([H])[H])C([H])([H])c2c([H])c(OC([H])([H])C(=NC([H])([H])C([H])([H])c3c([H])c([H])c(N([H])C(=O)N4C([H])([H])C([H])([H])C([H])([H])C([H])(n5nc(-c6c([H])c([H])c(Oc7c([H])c([H])c(F)c([H])c7F)c([H])c6[H])c(C(=O)N([H])[H])c5N([H])[H])C4([H])[H])c([H])c3F)C([H])([H])[H])c([H])c([H])c2C1([H])[H]

>  <smiles>  (89) 
[H]c1c([H])c([H])c2c(c1[H])C([H])([H])C([H])([H])C([H])([H])C2([H])N([H])C(=O)C1([H])N(C(=O)C([H])(N([H])C(=O)C([H])(N([H])C([H])([H])[H])C([H])([H])[H])C(C([H])([H])[H])(C([H])([H])[H])C([H])([H])[H])C([H])([H])c2c([H])c(OC([H])([H])C(=NC([H])([H])C([H])([H])c3c([H])c([H])c(N([H])C(=O)N4C([H])([H])C([H])([H])C([H])([H])C([H])(n5nc(-c6c([H])c([H])c(Oc7c([H])c([H])c(F)c([H])c7F)c([H])c6[H])c(C(=O)N([H])[H])c5N([H])[H])C4([H])[H])c([H])c3F)C([H])([H])[H])c([H])c([H])c2C1([H])[H]

$$$$
89:0:0
     RDKit          3D

 95103  0  0  1  0  0  0  0  0999 V2000
  -30.8260  -20.4860   19.6370 C   0  0  0  0  0  3  0  0  0  0  0  0
  -28.7220  -18.6550   19.7370 C   0  0  0  0  0  3  0  0  0  0  0  0
  -31.1170  -19.0990   19.5740 C   0  0  0  0  0  0  0  0  0  0  0  0
  -30.0390  -18.1650   19.6020 C   0  0  0  0  0  0  0  0  0  0  0  0
  -28.4490  -20.0430   19.7970 C   0  0  0  0  0  0  0  0  0  0  0  0
  -29.5060  -20.9900   19.7450 C   0  0  0  0  0  0  0  0  0  0  0  0
  -30.9620  -14.7450   20.5290 C   0  0  0  0  0  0  0  0  0  0  0  0
  -30.7540  -12.4570   19.7010 C   0  0  0  0  0  2  0  0  0  0  0  0
  -29.9060  -12.5270   18.4150 C   0  0  0  0  0  2  0  0  0  0  0  0
  -28.4070  -12.4090   18.7550 C   0  0  0  0  0  2  0  0  0  0  0  0
  -27.9660  -13.3590   19.9030 C   0  0  0  0  0  3  0  0  0  0  0  0
  -28.9570  -13.3210   21.0930 C   0  0  0  0  0  2  0  0  0  0  0  0
  -30.3080  -13.5540   20.5710 N   0  0  0  0  0  0  0  0  0  0  0  0
  -32.1670  -14.8220   20.2760 O   0  0  0  0  0  0  0  0  0  0  0  0
  -30.2740  -16.6870   19.3780 C   0  0  0  0  0  0  0  0  0  0  0  0
  -30.1810  -15.8430   20.4280 N   0  0  0  0  0  0  0  0  0  0  0  0
  -30.5640  -16.3110   18.2340 O   0  0  0  0  0  0  0  0  0  0  0  0
  -29.6970  -16.1500   21.2550 H   0  0  0  0  0  0  0  0  0  0  0  0
  -25.5410  -13.9680   20.4920 C   0  0  0  0  0  0  0  0  0  0  0  0
  -24.4570  -13.2010   20.8250 C   0  0  0  0  0  0  0  0  0  0  0  0
  -24.9220  -11.8490   20.8440 C   0  0  0  0  0  0  0  0  0  0  0  0
  -26.5960  -13.0870   20.3280 N   0  0  0  0  0  0  0  0  0  0  0  0
  -26.2260  -11.8080   20.6000 N   0  0  0  0  0  0  0  0  0  0  0  0
  -24.1880  -10.5900   21.0200 C   0  0  0  0  0  0  0  0  0  0  0  0
  -24.5810   -9.6350   21.9850 C   0  0  0  0  0  3  0  0  0  0  0  0
  -23.8470   -8.4410   22.1510 C   0  0  0  0  0  3  0  0  0  0  0  0
  -22.7070   -8.1900   21.3490 C   0  0  0  0  0  0  0  0  0  0  0  0
  -22.3330   -9.1340   20.3760 C   0  0  0  0  0  3  0  0  0  0  0  0
  -23.0670  -10.3210   20.2090 C   0  0  0  0  0  3  0  0  0  0  0  0
  -21.9480   -7.0460   21.4220 O   0  0  0  0  0  0  0  0  0  0  0  0
  -21.8590   -6.3150   22.5780 C   0  0  0  0  0  0  0  0  0  0  0  0
  -21.3660   -6.8750   23.7770 C   0  0  0  0  0  3  0  0  0  0  0  0
  -21.2250   -6.0690   24.9250 C   0  0  0  0  0  3  0  0  0  0  0  0
  -21.5660   -4.7030   24.8740 C   0  0  0  0  0  0  0  0  0  0  0  0
  -22.0520   -4.1430   23.6790 C   0  0  0  0  0  3  0  0  0  0  0  0
  -22.1940   -4.9470   22.5340 C   0  0  0  0  0  0  0  0  0  0  0  0
  -22.6420   -4.3970   21.3800 F   0  0  0  0  0  0  0  0  0  0  0  0
  -21.4240   -3.9270   25.9730 F   0  0  0  0  0  0  0  0  0  0  0  0
  -23.0490  -13.6810   21.0160 C   0  0  0  0  0  0  0  0  0  0  0  0
  -22.2810  -13.0050   21.8630 N   0  0  0  0  0  0  0  0  0  0  0  0
  -22.6370  -14.6930   20.4520 O   0  0  0  0  0  0  0  0  0  0  0  0
  -22.6240  -12.1840   22.3380 H   0  0  0  0  0  0  0  0  0  0  0  0
  -21.3370  -13.3150   22.0390 H   0  0  0  0  0  0  0  0  0  0  0  0
  -25.7160  -15.3350   20.2970 N   0  0  0  0  0  0  0  0  0  0  0  0
  -24.9470  -15.9960   20.3480 H   0  0  0  0  0  0  0  0  0  0  0  0
  -26.5800  -15.7580   19.9860 H   0  0  0  0  0  0  0  0  0  0  0  0
  -33.6360  -19.4300   19.5670 C   0  0  0  0  0  2  0  0  0  0  0  0
  -32.5380  -18.6570   19.5070 C   0  0  0  0  0  3  0  0  0  0  0  0
  -26.6470  -21.2760   18.8920 C   0  0  0  0  0  1  0  0  0  0  0  0
  -27.1330  -20.4150   19.9150 O   0  0  0  0  0  0  0  0  0  0  0  0
  -29.2100  -22.3510   19.8280 O   0  0  0  0  0  0  0  0  0  0  0  0
  -30.2380  -23.3060   19.5210 C   0  0  0  0  0  2  0  0  0  0  0  0
  -29.9370  -24.7710   19.9360 C   0  0  0  0  0  2  0  0  0  0  0  0
  -28.7470  -25.4850   19.2600 C   0  0  0  0  0  2  0  0  0  0  0  0
  -28.7280  -26.8620   19.6880 O   0  0  0  0  0  0  0  0  0  0  0  0
  -24.7470  -31.6770   23.1110 C   0  0  0  0  0  0  0  0  0  0  0  0
  -27.5240  -27.5460   19.7100 C   0  0  0  0  0  0  0  0  0  0  0  0
  -23.5850  -30.3670   21.3650 C   0  0  0  0  0  3  0  0  0  0  0  0
  -25.0850  -28.9830   19.8340 C   0  0  0  0  0  0  0  0  0  0  0  0
  -26.1040  -30.8090   21.2080 C   0  0  0  0  0  2  0  0  0  0  0  0
  -26.2280  -29.4950   20.4620 C   0  0  0  0  0  0  0  0  0  0  0  0
  -27.4490  -28.7830   20.3950 C   0  0  0  0  0  3  0  0  0  0  0  0
  -26.3600  -27.0560   19.0730 C   0  0  0  0  0  3  0  0  0  0  0  0
  -25.1450  -27.7630   19.1410 C   0  0  0  0  0  3  0  0  0  0  0  0
  -23.8160  -29.7990   19.9400 C   0  0  0  0  0  2  0  0  0  0  0  0
  -24.8300  -30.9630   21.9530 N   0  0  0  0  0  0  0  0  0  0  0  0
  -23.6570  -31.8750   23.6660 O   0  0  0  0  0  0  0  0  0  0  0  0
  -22.9610  -29.2580   22.2420 C   0  0  0  0  0  0  0  0  0  0  0  0
  -21.6380  -29.0650   22.1190 N   0  0  0  0  0  0  0  0  0  0  0  0
  -23.6660  -28.5780   22.9920 O   0  0  0  0  0  0  0  0  0  0  0  0
  -21.1270  -29.6710   21.4910 H   0  0  0  0  0  0  0  0  0  0  0  0
  -18.2870  -27.7990   22.5860 C   0  0  0  0  0  0  0  0  0  0  0  0
  -20.8480  -28.0520   22.8170 C   0  0  0  0  0  3  0  0  0  0  0  0
  -20.9430  -26.6810   22.1060 C   0  0  0  0  0  2  0  0  0  0  0  0
  -19.8180  -26.4480   21.0920 C   0  0  0  0  0  2  0  0  0  0  0  0
  -18.4530  -26.5220   21.7820 C   0  0  0  0  0  2  0  0  0  0  0  0
  -19.4120  -28.5260   23.0580 C   0  0  0  0  0  0  0  0  0  0  0  0
  -19.2020  -29.7280   23.7690 C   0  0  0  0  0  3  0  0  0  0  0  0
  -17.8990  -30.2040   24.0090 C   0  0  0  0  0  3  0  0  0  0  0  0
  -16.7890  -29.4730   23.5530 C   0  0  0  0  0  3  0  0  0  0  0  0
  -16.9840  -28.2700   22.8490 C   0  0  0  0  0  3  0  0  0  0  0  0
  -26.0110  -32.2990   23.7800 C   0  0  0  0  0  3  0  0  0  0  0  0
  -25.6740  -33.6760   24.1670 N   0  0  0  0  0  0  0  0  0  0  0  0
  -26.0080  -34.7660   23.4630 C   0  0  0  0  0  0  0  0  0  0  0  0
  -26.7010  -34.7190   22.4430 O   0  0  0  0  0  0  0  0  0  0  0  0
  -25.0630  -33.7850   24.9620 H   0  0  0  0  0  0  0  0  0  0  0  0
  -24.2580  -36.5450   23.1550 C   0  0  0  0  0  1  0  0  0  0  0  0
  -25.4900  -36.1250   23.9740 C   0  0  0  0  0  3  0  0  0  0  0  0
  -27.5880  -37.0050   24.8960 C   0  0  0  0  0  1  0  0  0  0  0  0
  -26.5080  -37.1960   23.9300 N   0  0  0  0  0  0  0  0  0  0  0  0
  -26.0840  -38.1040   24.1040 H   0  0  0  0  0  0  0  0  0  0  0  0
  -26.5220  -31.4800   25.0270 C   0  0  1  0  0  0  0  0  0  0  0  0
  -25.4190  -31.1830   26.0700 C   0  0  0  0  0  1  0  0  0  0  0  0
  -27.1260  -30.1260   24.5830 C   0  0  0  0  0  1  0  0  0  0  0  0
  -27.6550  -32.2570   25.7370 C   0  0  0  0  0  1  0  0  0  0  0  0
  1  6  1  0
  2  5  1  0
  3  4  1  0
  3  1  2  0
  4  2  2  0
  5 50  1  0
  6  5  2  0
  6 51  1  0
  7 13  1  0
  8 13  1  0
  9 10  1  0
  9  8  1  0
 11 10  1  0
 11 22  1  0
 11 12  1  0
 13 12  1  0
 14  7  2  0
 15  4  1  0
 15 16  1  0
 16  7  1  0
 16 18  1  0
 17 15  2  0
 19 20  2  0
 20 21  1  0
 20 39  1  0
 21 24  1  0
 22 19  1  0
 22 23  1  0
 23 21  2  0
 24 25  1  0
 25 26  2  0
 27 30  1  0
 27 26  1  0
 28 27  2  0
 29 28  1  0
 29 24  2  0
 30 31  1  0
 31 32  1  0
 32 33  2  0
 34 33  1  0
 34 38  1  0
 35 34  2  0
 36 31  2  0
 36 35  1  0
 37 36  1  0
 39 40  1  0
 40 43  1  0
 40 42  1  0
 41 39  2  0
 44 45  1  0
 44 19  1  0
 46 44  1  0
 48 47  2  0
 48  3  1  0
 49 50  1  0
 52 51  1  0
 52 53  1  0
 54 55  1  0
 54 53  1  0
 55 57  1  0
 56 67  2  0
 57 62  1  0
 58 66  1  0
 58 68  1  0
 59 65  1  0
 59 61  1  0
 60 66  1  0
 61 60  1  0
 62 61  2  0
 63 64  1  0
 63 57  2  0
 64 59  2  0
 65 58  1  0
 66 56  1  0
 68 70  2  0
 69 68  1  0
 71 69  1  0
 72 81  2  0
 72 77  1  0
 73 69  1  0
 73 77  1  0
 74 73  1  0
 75 76  1  0
 75 74  1  0
 76 72  1  0
 77 78  2  0
 78 79  1  0
 80 79  2  0
 81 80  1  0
 82 56  1  0
 82 83  1  0
 82 92  1  0
 83 86  1  0
 84 88  1  0
 84 83  1  0
 85 84  2  0
 88 87  1  0
 90 88  1  0
 90 91  1  0
 90 89  1  0
 92 95  1  1
 92 93  1  0
 94 92  1  0
M  ISO  4   7 100  16 100  54 101  55 101
M  END
>  <TORSDO>  (90) 
F 22

>  <SCORE>  (90) 
-12.044

>  <name>  (90) 
89

>  <ligand_id>  (90) 
89

>  <original_smiles>  (90) 
[H]C([H])=C([H])c1c([H])c(OC([H])([H])C([H])([H])C([H])([H])Oc2c([H])c([H])c3c(c2[H])C([H])([H])N(C(=O)C([H])(N([H])C(=O)C([H])(N([H])C([H])([H])[H])C([H])([H])[H])C(C([H])([H])[H])(C([H])([H])[H])C([H])([H])[H])C([H])(C(=O)N([H])C2([H])c4c([H])c([H])c([H])c([H])c4C([H])([H])C([H])([H])C2([H])[H])C3([H])[H])c(OC([H])([H])[H])c([H])c1C(=O)N([H])C(=O)N1C([H])([H])C([H])([H])C([H])([H])C([H])(n2nc(-c3c([H])c([H])c(Oc4c([H])c([H])c(F)c([H])c4F)c([H])c3[H])c(C(=O)N([H])[H])c2N([H])[H])C1([H])[H]

>  <smiles>  (90) 
[H]C([H])=C([H])c1c([H])c(OC([H])([H])C([H])([H])C([H])([H])Oc2c([H])c([H])c3c(c2[H])C([H])([H])N(C(=O)C([H])(N([H])C(=O)C([H])(N([H])C([H])([H])[H])C([H])([H])[H])C(C([H])([H])[H])(C([H])([H])[H])C([H])([H])[H])C([H])(C(=O)N([H])C2([H])c4c([H])c([H])c([H])c([H])c4C([H])([H])C([H])([H])C2([H])[H])C3([H])[H])c(OC([H])([H])[H])c([H])c1C(=O)N([H])C(=O)N1C([H])([H])C([H])([H])C([H])([H])C([H])(n2nc(-c3c([H])c([H])c(Oc4c([H])c([H])c(F)c([H])c4F)c([H])c3[H])c(C(=O)N([H])[H])c2N([H])[H])C1([H])[H]

$$$$
90:0:0
     RDKit          3D

 97106  0  0  1  0  0  0  0  0999 V2000
  -26.0390  -21.7720   18.8690 C   0  0  0  0  0  0  0  0  0  0  0  0
  -28.9860  -22.7520   19.5170 C   0  0  0  0  0  0  0  0  0  0  0  0
  -26.6350  -22.3770   17.6090 C   0  0  0  0  0  2  0  0  0  0  0  0
  -26.9910  -21.3650   19.9990 C   0  0  0  0  0  2  0  0  0  0  0  0
  -27.3500  -23.7350   17.8450 C   0  0  0  0  0  2  0  0  0  0  0  0
  -28.0430  -24.0110   19.2240 C   0  0  0  0  0  3  0  0  0  0  0  0
  -28.4330  -21.4870   19.6830 N   0  0  0  0  0  0  0  0  0  0  0  0
  -24.8170  -21.6370   18.9840 O   0  0  0  0  0  0  0  0  0  0  0  0
  -30.2100  -22.9130   19.5490 O   0  0  0  0  0  0  0  0  0  0  0  0
  -29.2070  -19.5880   21.1010 C   0  0  0  0  0  3  0  0  0  0  0  0
  -29.6130  -18.2360   21.2570 C   0  0  0  0  0  3  0  0  0  0  0  0
  -29.6350  -19.4420   18.7410 C   0  0  0  0  0  3  0  0  0  0  0  0
  -30.0080  -18.0560   18.8800 C   0  0  0  0  0  0  0  0  0  0  0  0
  -29.1690  -20.2240   19.8380 C   0  0  0  0  0  0  0  0  0  0  0  0
  -29.9730  -17.4060   20.1630 C   0  0  0  0  0  0  0  0  0  0  0  0
  -30.8140  -14.9090   20.1310 C   0  0  0  0  0  0  0  0  0  0  0  0
  -30.5670  -12.6660   19.0840 C   0  0  0  0  0  2  0  0  0  0  0  0
  -29.5830  -12.8660   17.9100 C   0  0  0  0  0  2  0  0  0  0  0  0
  -28.1430  -12.6340   18.3930 C   0  0  0  0  0  2  0  0  0  0  0  0
  -27.8250  -13.4700   19.6650 C   0  0  0  0  0  3  0  0  0  0  0  0
  -28.9340  -13.3120   20.7360 C   0  0  0  0  0  2  0  0  0  0  0  0
  -30.2150  -13.6700   20.1060 N   0  0  0  0  0  0  0  0  0  0  0  0
  -31.9810  -15.0690   19.7740 O   0  0  0  0  0  0  0  0  0  0  0  0
  -29.9680  -15.9550   20.4050 N   0  0  0  0  0  0  0  0  0  0  0  0
  -29.1070  -15.6150   20.8030 H   0  0  0  0  0  0  0  0  0  0  0  0
  -25.4540  -14.0430   20.4770 C   0  0  0  0  0  0  0  0  0  0  0  0
  -24.4000  -13.2610   20.8590 C   0  0  0  0  0  0  0  0  0  0  0  0
  -24.8690  -11.9140   20.7840 C   0  0  0  0  0  0  0  0  0  0  0  0
  -26.4940  -13.1750   20.1910 N   0  0  0  0  0  0  0  0  0  0  0  0
  -26.1490  -11.8880   20.4380 N   0  0  0  0  0  0  0  0  0  0  0  0
  -24.1500  -10.6450   20.9650 C   0  0  0  0  0  0  0  0  0  0  0  0
  -24.5640   -9.6930   21.9190 C   0  0  0  0  0  3  0  0  0  0  0  0
  -23.8480   -8.4870   22.0840 C   0  0  0  0  0  3  0  0  0  0  0  0
  -22.7010   -8.2320   21.2970 C   0  0  0  0  0  0  0  0  0  0  0  0
  -22.3080   -9.1740   20.3330 C   0  0  0  0  0  3  0  0  0  0  0  0
  -23.0270  -10.3690   20.1650 C   0  0  0  0  0  3  0  0  0  0  0  0
  -21.9630   -7.0770   21.3700 O   0  0  0  0  0  0  0  0  0  0  0  0
  -21.8050   -6.3960   22.5510 C   0  0  0  0  0  0  0  0  0  0  0  0
  -21.2260   -6.9990   23.6900 C   0  0  0  0  0  3  0  0  0  0  0  0
  -21.0210   -6.2420   24.8610 C   0  0  0  0  0  3  0  0  0  0  0  0
  -21.3850   -4.8830   24.8920 C   0  0  0  0  0  0  0  0  0  0  0  0
  -21.9600   -4.2810   23.7590 C   0  0  0  0  0  3  0  0  0  0  0  0
  -22.1650   -5.0350   22.5910 C   0  0  0  0  0  0  0  0  0  0  0  0
  -22.6970   -4.4460   21.4940 F   0  0  0  0  0  0  0  0  0  0  0  0
  -21.1840   -4.1530   26.0120 F   0  0  0  0  0  0  0  0  0  0  0  0
  -23.0080  -13.7300   21.1780 C   0  0  0  0  0  0  0  0  0  0  0  0
  -22.3020  -13.0110   22.0460 N   0  0  0  0  0  0  0  0  0  0  0  0
  -22.5560  -14.7660   20.7010 O   0  0  0  0  0  0  0  0  0  0  0  0
  -22.6830  -12.1780   22.4680 H   0  0  0  0  0  0  0  0  0  0  0  0
  -21.3690  -13.3090   22.2900 H   0  0  0  0  0  0  0  0  0  0  0  0
  -25.5960  -15.4190   20.3330 N   0  0  0  0  0  0  0  0  0  0  0  0
  -24.8100  -16.0440   20.4750 H   0  0  0  0  0  0  0  0  0  0  0  0
  -26.4210  -15.8870   19.9750 H   0  0  0  0  0  0  0  0  0  0  0  0
  -31.8510  -17.3420   17.2830 C   0  0  0  0  0  1  0  0  0  0  0  0
  -30.3500  -17.2960   17.6030 C   0  0  0  0  0  2  0  0  0  0  0  0
  -28.6880  -25.5050   19.1720 C   0  0  0  0  0  2  0  0  0  0  0  0
  -28.4140  -26.6720   20.0650 O   0  0  0  0  0  0  0  0  0  0  0  0
  -24.6320  -31.9720   23.2320 C   0  0  0  0  0  0  0  0  0  0  0  0
  -27.2790  -27.4980   20.0150 C   0  0  0  0  0  0  0  0  0  0  0  0
  -23.4320  -30.5850   21.5780 C   0  0  0  0  0  3  0  0  0  0  0  0
  -24.8890  -29.0780   20.1000 C   0  0  0  0  0  0  0  0  0  0  0  0
  -25.9680  -30.9330   21.3800 C   0  0  0  0  0  2  0  0  0  0  0  0
  -26.0560  -29.5670   20.6960 C   0  0  0  0  0  0  0  0  0  0  0  0
  -27.2490  -28.7830   20.6530 C   0  0  0  0  0  3  0  0  0  0  0  0
  -26.0870  -27.0620   19.4080 C   0  0  0  0  0  3  0  0  0  0  0  0
  -24.9070  -27.8310   19.4520 C   0  0  0  0  0  3  0  0  0  0  0  0
  -23.6400  -29.9350   20.1830 C   0  0  0  0  0  2  0  0  0  0  0  0
  -24.6970  -31.1810   22.1200 N   0  0  0  0  0  0  0  0  0  0  0  0
  -23.5480  -32.2250   23.7800 O   0  0  0  0  0  0  0  0  0  0  0  0
  -22.7920  -29.5460   22.5270 C   0  0  0  0  0  0  0  0  0  0  0  0
  -21.4700  -29.3350   22.3950 N   0  0  0  0  0  0  0  0  0  0  0  0
  -23.4830  -28.9280   23.3410 O   0  0  0  0  0  0  0  0  0  0  0  0
  -20.9660  -29.8890   21.7160 H   0  0  0  0  0  0  0  0  0  0  0  0
  -18.1300  -28.0240   22.8490 C   0  0  0  0  0  0  0  0  0  0  0  0
  -20.6750  -28.3670   23.1520 C   0  0  0  0  0  3  0  0  0  0  0  0
  -20.8280  -26.9410   22.5730 C   0  0  0  0  0  2  0  0  0  0  0  0
  -19.7530  -26.5880   21.5410 C   0  0  0  0  0  2  0  0  0  0  0  0
  -18.3590  -26.6850   22.1690 C   0  0  0  0  0  2  0  0  0  0  0  0
  -19.2180  -28.8210   23.2970 C   0  0  0  0  0  0  0  0  0  0  0  0
  -18.9510  -30.0720   23.8920 C   0  0  0  0  0  3  0  0  0  0  0  0
  -17.6290  -30.5300   24.0410 C   0  0  0  0  0  3  0  0  0  0  0  0
  -16.5540  -29.7310   23.6110 C   0  0  0  0  0  3  0  0  0  0  0  0
  -16.8070  -28.4800   23.0200 C   0  0  0  0  0  3  0  0  0  0  0  0
  -25.9100  -32.6130   23.8570 C   0  0  0  0  0  3  0  0  0  0  0  0
  -26.4230  -31.8520   25.1420 C   0  0  1  0  0  0  0  0  0  0  0  0
  -25.3270  -31.6170   26.2060 C   0  0  0  0  0  1  0  0  0  0  0  0
  -27.0160  -30.4750   24.7620 C   0  0  0  0  0  1  0  0  0  0  0  0
  -27.5650  -32.6570   25.8090 C   0  0  0  0  0  1  0  0  0  0  0  0
  -25.5910  -34.0110   24.1810 N   0  0  0  0  0  0  0  0  0  0  0  0
  -25.9230  -35.0650   23.4270 C   0  0  0  0  0  0  0  0  0  0  0  0
  -26.5980  -34.9660   22.3980 O   0  0  0  0  0  0  0  0  0  0  0  0
  -24.9900  -34.1600   24.9800 H   0  0  0  0  0  0  0  0  0  0  0  0
  -24.1920  -36.8520   23.0550 C   0  0  0  0  0  1  0  0  0  0  0  0
  -25.4270  -36.4530   23.8790 C   0  0  0  0  0  3  0  0  0  0  0  0
  -27.5530  -37.3440   24.7270 C   0  0  0  0  0  1  0  0  0  0  0  0
  -26.4570  -37.5100   23.7760 N   0  0  0  0  0  0  0  0  0  0  0  0
  -26.0460  -38.4280   23.9250 H   0  0  0  0  0  0  0  0  0  0  0  0
  1  8  2  0
  1  4  1  0
  2  9  2  0
  2  7  1  0
  3  5  1  0
  3  1  1  0
  5  6  1  0
  6 56  1  0
  6  2  1  0
  7 14  1  0
  7  4  1  0
 10 11  1  0
 12 13  2  0
 12 14  1  0
 13 15  1  0
 14 10  2  0
 15 24  1  0
 15 11  2  0
 16 24  1  0
 17 22  1  0
 18 19  1  0
 18 17  1  0
 20 19  1  0
 20 29  1  0
 20 21  1  0
 22 16  1  0
 22 21  1  0
 23 16  2  0
 24 25  1  0
 26 27  2  0
 27 46  1  0
 28 27  1  0
 28 31  1  0
 29 30  1  0
 29 26  1  0
 30 28  2  0
 31 32  1  0
 32 33  2  0
 34 37  1  0
 34 33  1  0
 35 34  2  0
 36 35  1  0
 36 31  2  0
 37 38  1  0
 38 43  2  0
 38 39  1  0
 39 40  2  0
 40 41  1  0
 41 45  1  0
 42 41  2  0
 43 42  1  0
 44 43  1  0
 46 47  1  0
 47 50  1  0
 47 49  1  0
 48 46  2  0
 51 52  1  0
 51 26  1  0
 53 51  1  0
 54 55  1  0
 55 13  1  0
 56 57  1  0
 58 69  2  0
 59 57  1  0
 59 64  1  0
 60 68  1  0
 60 70  1  0
 61 67  1  0
 61 63  1  0
 62 68  1  0
 63 62  1  0
 64 63  2  0
 65 66  1  0
 65 59  2  0
 66 61  2  0
 67 60  1  0
 68 58  1  0
 70 72  2  0
 71 70  1  0
 73 71  1  0
 74 83  2  0
 74 79  1  0
 75 71  1  0
 75 79  1  0
 76 75  1  0
 77 78  1  0
 77 76  1  0
 78 74  1  0
 79 80  2  0
 80 81  1  0
 82 81  2  0
 83 82  1  0
 84 58  1  0
 84 89  1  0
 84 85  1  0
 85 88  1  1
 85 86  1  0
 87 85  1  0
 89 92  1  0
 90 94  1  0
 90 89  1  0
 91 90  2  0
 94 93  1  0
 96 94  1  0
 96 97  1  0
 96 95  1  0
M  ISO  4  16 100  24 100  56 101  57 101
M  END
>  <TORSDO>  (91) 
F 19

>  <SCORE>  (91) 
-12.926

>  <name>  (91) 
90

>  <ligand_id>  (91) 
90

>  <original_smiles>  (91) 
[H]c1c([H])c([H])c2c(c1[H])C([H])([H])C([H])([H])C([H])([H])C2([H])N([H])C(=O)C1([H])N(C(=O)C([H])(N([H])C(=O)C([H])(N([H])C([H])([H])[H])C([H])([H])[H])C(C([H])([H])[H])(C([H])([H])[H])C([H])([H])[H])C([H])([H])c2c([H])c(OC([H])([H])C3([H])C(=O)N(c4c([H])c([H])c(N([H])C(=O)N5C([H])([H])C([H])([H])C([H])([H])C([H])(n6nc(-c7c([H])c([H])c(Oc8c([H])c([H])c(F)c([H])c8F)c([H])c7[H])c(C(=O)N([H])[H])c6N([H])[H])C5([H])[H])c(C([H])([H])C([H])([H])[H])c4[H])C([H])([H])C(=O)C([H])([H])C3([H])[H])c([H])c([H])c2C1([H])[H]

>  <smiles>  (91) 
[H]c1c([H])c([H])c2c(c1[H])C([H])([H])C([H])([H])C([H])([H])C2([H])N([H])C(=O)C1([H])N(C(=O)C([H])(N([H])C(=O)C([H])(N([H])C([H])([H])[H])C([H])([H])[H])C(C([H])([H])[H])(C([H])([H])[H])C([H])([H])[H])C([H])([H])c2c([H])c(OC([H])([H])C3([H])C(=O)N(c4c([H])c([H])c(N([H])C(=O)N5C([H])([H])C([H])([H])C([H])([H])C([H])(n6nc(-c7c([H])c([H])c(Oc8c([H])c([H])c(F)c([H])c8F)c([H])c7[H])c(C(=O)N([H])[H])c6N([H])[H])C5([H])[H])c(C([H])([H])C([H])([H])[H])c4[H])C([H])([H])C(=O)C([H])([H])C3([H])[H])c([H])c([H])c2C1([H])[H]

$$$$
91:0:0
     RDKit          3D

 94103  0  0  1  0  0  0  0  0999 V2000
  -29.9570  -21.0570   19.7390 C   0  0  0  0  0  0  0  0  0  0  0  0
  -30.5990  -24.3260   20.1650 C   0  0  0  0  0  2  0  0  0  0  0  0
  -31.1640  -22.9690   20.6040 C   0  0  0  0  0  2  0  0  0  0  0  0
  -28.8300  -22.8710   20.8860 C   0  0  0  0  0  2  0  0  0  0  0  0
  -29.2310  -24.3670   20.8280 C   0  0  0  0  0  3  0  0  0  0  0  0
  -30.0310  -22.0400   20.6670 N   0  0  0  0  0  0  0  0  0  0  0  0
  -29.8070  -21.3120   18.5380 O   0  0  0  0  0  0  0  0  0  0  0  0
  -29.0160  -18.7240   19.6300 C   0  0  0  0  0  3  0  0  0  0  0  0
  -29.0170  -17.3530   19.9590 C   0  0  0  0  0  3  0  0  0  0  0  0
  -30.9370  -17.7090   21.4080 C   0  0  0  0  0  3  0  0  0  0  0  0
  -29.9570  -19.6160   20.1960 C   0  0  0  0  0  0  0  0  0  0  0  0
  -29.9890  -16.8270   20.8350 C   0  0  0  0  0  0  0  0  0  0  0  0
  -30.9200  -19.0930   21.0970 C   0  0  0  0  0  0  0  0  0  0  0  0
  -31.8570  -19.9010   21.6490 F   0  0  0  0  0  0  0  0  0  0  0  0
  -30.6390  -14.4730   20.5470 C   0  0  0  0  0  0  0  0  0  0  0  0
  -30.3580  -12.3280   19.3580 C   0  0  0  0  0  2  0  0  0  0  0  0
  -29.4230  -12.5480   18.1490 C   0  0  0  0  0  2  0  0  0  0  0  0
  -27.9440  -12.4140   18.5610 C   0  0  0  0  0  2  0  0  0  0  0  0
  -27.6000  -13.2370   19.8320 C   0  0  0  0  0  3  0  0  0  0  0  0
  -28.6410  -12.9830   20.9460 C   0  0  0  0  0  2  0  0  0  0  0  0
  -29.9760  -13.2920   20.4020 N   0  0  0  0  0  0  0  0  0  0  0  0
  -31.7560  -14.6840   20.0650 O   0  0  0  0  0  0  0  0  0  0  0  0
  -29.9410  -15.4420   21.1700 N   0  0  0  0  0  0  0  0  0  0  0  0
  -29.0570  -15.1130   21.5260 H   0  0  0  0  0  0  0  0  0  0  0  0
  -25.1920  -13.8550   20.4990 C   0  0  0  0  0  0  0  0  0  0  0  0
  -24.1170  -13.0880   20.8580 C   0  0  0  0  0  0  0  0  0  0  0  0
  -24.5740  -11.7350   20.8430 C   0  0  0  0  0  0  0  0  0  0  0  0
  -26.2380  -12.9690   20.2910 N   0  0  0  0  0  0  0  0  0  0  0  0
  -25.8680  -11.6900   20.5510 N   0  0  0  0  0  0  0  0  0  0  0  0
  -23.8440  -10.4770   21.0330 C   0  0  0  0  0  0  0  0  0  0  0  0
  -24.2670   -9.5140   21.9760 C   0  0  0  0  0  3  0  0  0  0  0  0
  -23.5380   -8.3180   22.1530 C   0  0  0  0  0  3  0  0  0  0  0  0
  -22.3730   -8.0760   21.3880 C   0  0  0  0  0  0  0  0  0  0  0  0
  -21.9700   -9.0260   20.4340 C   0  0  0  0  0  3  0  0  0  0  0  0
  -22.6990  -10.2140   20.2550 C   0  0  0  0  0  3  0  0  0  0  0  0
  -21.6190   -6.9320   21.4730 O   0  0  0  0  0  0  0  0  0  0  0  0
  -21.5580   -6.1950   22.6280 C   0  0  0  0  0  0  0  0  0  0  0  0
  -21.1150   -6.7530   23.8480 C   0  0  0  0  0  3  0  0  0  0  0  0
  -21.0030   -5.9420   24.9940 C   0  0  0  0  0  3  0  0  0  0  0  0
  -21.3210   -4.5720   24.9220 C   0  0  0  0  0  0  0  0  0  0  0  0
  -21.7540   -4.0130   23.7080 C   0  0  0  0  0  3  0  0  0  0  0  0
  -21.8690   -4.8210   22.5640 C   0  0  0  0  0  0  0  0  0  0  0  0
  -22.2680   -4.2730   21.3900 F   0  0  0  0  0  0  0  0  0  0  0  0
  -21.2050   -3.7910   26.0210 F   0  0  0  0  0  0  0  0  0  0  0  0
  -22.7160  -13.5690   21.1090 C   0  0  0  0  0  0  0  0  0  0  0  0
  -21.9770  -12.8780   21.9700 N   0  0  0  0  0  0  0  0  0  0  0  0
  -22.2850  -14.5910   20.5750 O   0  0  0  0  0  0  0  0  0  0  0  0
  -22.3390  -12.0520   22.4220 H   0  0  0  0  0  0  0  0  0  0  0  0
  -21.0350  -13.1790   22.1800 H   0  0  0  0  0  0  0  0  0  0  0  0
  -25.3640  -15.2230   20.3130 N   0  0  0  0  0  0  0  0  0  0  0  0
  -24.6000  -15.8840   20.4020 H   0  0  0  0  0  0  0  0  0  0  0  0
  -26.2230  -15.6520   19.9930 H   0  0  0  0  0  0  0  0  0  0  0  0
  -28.1710  -25.2440   20.1180 C   0  0  0  0  0  2  0  0  0  0  0  0
  -28.3600  -26.6690   20.2300 O   0  0  0  0  0  0  0  0  0  0  0  0
  -24.5890  -31.9000   23.2420 C   0  0  0  0  0  0  0  0  0  0  0  0
  -27.2060  -27.4350   20.1660 C   0  0  0  0  0  0  0  0  0  0  0  0
  -23.3770  -30.5060   21.6000 C   0  0  0  0  0  3  0  0  0  0  0  0
  -24.8230  -28.9710   20.1680 C   0  0  0  0  0  0  0  0  0  0  0  0
  -25.9070  -30.8490   21.4070 C   0  0  0  0  0  2  0  0  0  0  0  0
  -25.9850  -29.4810   20.7600 C   0  0  0  0  0  0  0  0  0  0  0  0
  -27.1800  -28.7230   20.7530 C   0  0  0  0  0  3  0  0  0  0  0  0
  -26.0270  -26.9580   19.5430 C   0  0  0  0  0  3  0  0  0  0  0  0
  -24.8400  -27.7120   19.5520 C   0  0  0  0  0  3  0  0  0  0  0  0
  -23.5830  -29.8330   20.2180 C   0  0  0  0  0  2  0  0  0  0  0  0
  -24.6420  -31.1000   22.1400 N   0  0  0  0  0  0  0  0  0  0  0  0
  -23.5080  -32.1770   23.7820 O   0  0  0  0  0  0  0  0  0  0  0  0
  -22.7230  -29.4840   22.5580 C   0  0  0  0  0  0  0  0  0  0  0  0
  -21.3960  -29.3120   22.4360 N   0  0  0  0  0  0  0  0  0  0  0  0
  -23.4040  -28.8510   23.3690 O   0  0  0  0  0  0  0  0  0  0  0  0
  -20.9070  -29.8740   21.7540 H   0  0  0  0  0  0  0  0  0  0  0  0
  -18.0130  -28.1460   22.9500 C   0  0  0  0  0  0  0  0  0  0  0  0
  -20.5750  -28.3790   23.2070 C   0  0  0  0  0  3  0  0  0  0  0  0
  -20.6590  -26.9490   22.6250 C   0  0  0  0  0  2  0  0  0  0  0  0
  -19.5490  -26.6410   21.6160 C   0  0  0  0  0  2  0  0  0  0  0  0
  -18.1720  -26.7980   22.2690 C   0  0  0  0  0  2  0  0  0  0  0  0
  -19.1420  -28.8960   23.3770 C   0  0  0  0  0  0  0  0  0  0  0  0
  -18.9390  -30.1590   23.9730 C   0  0  0  0  0  3  0  0  0  0  0  0
  -17.6410  -30.6730   24.1480 C   0  0  0  0  0  3  0  0  0  0  0  0
  -16.5270  -29.9220   23.7370 C   0  0  0  0  0  3  0  0  0  0  0  0
  -16.7140  -28.6600   23.1440 C   0  0  0  0  0  3  0  0  0  0  0  0
  -25.8770  -32.5270   23.8590 C   0  0  0  0  0  3  0  0  0  0  0  0
  -25.5720  -33.9250   24.1930 N   0  0  0  0  0  0  0  0  0  0  0  0
  -25.8990  -34.9770   23.4320 C   0  0  0  0  0  0  0  0  0  0  0  0
  -26.5610  -34.8730   22.3960 O   0  0  0  0  0  0  0  0  0  0  0  0
  -24.9830  -34.0780   24.9980 H   0  0  0  0  0  0  0  0  0  0  0  0
  -24.1670  -36.7680   23.0910 C   0  0  0  0  0  1  0  0  0  0  0  0
  -25.4150  -36.3640   23.8920 C   0  0  0  0  0  3  0  0  0  0  0  0
  -27.5560  -37.2500   24.7060 C   0  0  0  0  0  1  0  0  0  0  0  0
  -26.4450  -37.4190   23.7720 N   0  0  0  0  0  0  0  0  0  0  0  0
  -26.0400  -38.3380   23.9250 H   0  0  0  0  0  0  0  0  0  0  0  0
  -26.3980  -31.7500   25.1310 C   0  0  1  0  0  0  0  0  0  0  0  0
  -25.3100  -31.5110   26.2040 C   0  0  0  0  0  1  0  0  0  0  0  0
  -26.9780  -30.3740   24.7330 C   0  0  0  0  0  1  0  0  0  0  0  0
  -27.5510  -32.5420   25.7920 C   0  0  0  0  0  1  0  0  0  0  0  0
  1 11  1  0
  1  6  1  0
  2  3  1  0
  2  5  1  0
  3  6  1  0
  5 53  1  0
  5  4  1  0
  6  4  1  0
  7  1  2  0
  8  9  2  0
  8 11  1  0
  9 12  1  0
 11 13  2  0
 12 23  1  0
 12 10  2  0
 13 10  1  0
 13 14  1  0
 15 23  1  0
 16 21  1  0
 17 18  1  0
 17 16  1  0
 19 18  1  0
 19 28  1  0
 19 20  1  0
 21 15  1  0
 21 20  1  0
 22 15  2  0
 23 24  1  0
 25 26  2  0
 26 45  1  0
 27 26  1  0
 27 30  1  0
 28 25  1  0
 28 29  1  0
 29 27  2  0
 30 31  1  0
 31 32  2  0
 33 36  1  0
 33 32  1  0
 34 33  2  0
 35 34  1  0
 35 30  2  0
 36 37  1  0
 37 38  1  0
 38 39  2  0
 40 39  1  0
 40 44  1  0
 41 40  2  0
 42 37  2  0
 42 41  1  0
 43 42  1  0
 45 46  1  0
 46 49  1  0
 46 48  1  0
 47 45  2  0
 50 51  1  0
 50 25  1  0
 52 50  1  0
 53 54  1  0
 55 66  2  0
 56 54  1  0
 56 61  1  0
 57 65  1  0
 57 67  1  0
 58 64  1  0
 58 60  1  0
 59 65  1  0
 60 59  1  0
 61 60  2  0
 62 63  1  0
 62 56  2  0
 63 58  2  0
 64 57  1  0
 65 55  1  0
 67 69  2  0
 68 67  1  0
 70 68  1  0
 71 80  2  0
 71 76  1  0
 72 68  1  0
 72 76  1  0
 73 72  1  0
 74 75  1  0
 74 73  1  0
 75 71  1  0
 76 77  2  0
 77 78  1  0
 79 78  2  0
 80 79  1  0
 81 55  1  0
 81 82  1  0
 81 91  1  0
 82 85  1  0
 83 87  1  0
 83 82  1  0
 84 83  2  0
 87 86  1  0
 89 87  1  0
 89 90  1  0
 89 88  1  0
 91 94  1  1
 91 92  1  0
 93 91  1  0
M  ISO  4  15 100  23 100  53 101  54 101
M  END
>  <TORSDO>  (92) 
F 18

>  <SCORE>  (92) 
-15.099

>  <name>  (92) 
91

>  <ligand_id>  (92) 
91

>  <original_smiles>  (92) 
[H]c1c([H])c([H])c2c(c1[H])C([H])([H])C([H])([H])C([H])([H])C2([H])N([H])C(=O)C1([H])N(C(=O)C([H])(N([H])C(=O)C([H])(N([H])C([H])([H])[H])C([H])([H])[H])C(C([H])([H])[H])(C([H])([H])[H])C([H])([H])[H])C([H])([H])c2c([H])c(OC([H])([H])C3([H])C([H])([H])N(C(=O)c4c([H])c([H])c(N([H])C(=O)N5C([H])([H])C([H])([H])C([H])([H])C([H])(n6nc(-c7c([H])c([H])c(Oc8c([H])c([H])c(F)c([H])c8F)c([H])c7[H])c(C(=O)N([H])[H])c6N([H])[H])C5([H])[H])c([H])c4F)C([H])([H])C3([H])[H])c([H])c([H])c2C1([H])[H]

>  <smiles>  (92) 
[H]c1c([H])c([H])c2c(c1[H])C([H])([H])C([H])([H])C([H])([H])C2([H])N([H])C(=O)C1([H])N(C(=O)C([H])(N([H])C(=O)C([H])(N([H])C([H])([H])[H])C([H])([H])[H])C(C([H])([H])[H])(C([H])([H])[H])C([H])([H])[H])C([H])([H])c2c([H])c(OC([H])([H])C3([H])C([H])([H])N(C(=O)c4c([H])c([H])c(N([H])C(=O)N5C([H])([H])C([H])([H])C([H])([H])C([H])(n6nc(-c7c([H])c([H])c(Oc8c([H])c([H])c(F)c([H])c8F)c([H])c7[H])c(C(=O)N([H])[H])c6N([H])[H])C5([H])[H])c([H])c4F)C([H])([H])C3([H])[H])c([H])c([H])c2C1([H])[H]

$$$$
92:0:0
     RDKit          3D

 85 92  0  0  1  0  0  0  0  0999 V2000
  -29.6460  -19.2890   20.2670 C   0  0  0  0  0  0  0  0  0  0  0  0
  -29.0060  -22.1810   20.2610 C   0  0  0  0  0  0  0  0  0  0  0  0
  -27.3610  -20.2660   20.2300 C   0  0  0  0  0  1  0  0  0  0  0  0
  -28.7820  -20.6130   20.2560 N   0  0  0  0  0  0  0  0  0  0  0  0
  -30.8610  -19.5000   20.2310 O   0  0  0  0  0  0  0  0  0  0  0  0
  -30.1960  -22.5010   20.3320 O   0  0  0  0  0  0  0  0  0  0  0  0
  -29.3180  -17.4300   20.3360 C   0  0  0  0  0  2  0  0  0  0  0  0
  -30.2420  -15.7780   20.1620 C   0  0  0  0  0  0  0  0  0  0  0  0
  -30.4110  -13.2170   19.3310 C   0  0  0  0  0  2  0  0  0  0  0  0
  -29.5080  -12.8250   18.1220 C   0  0  0  0  0  2  0  0  0  0  0  0
  -28.0900  -12.4490   18.5790 C   0  0  0  0  0  2  0  0  0  0  0  0
  -27.5820  -13.4260   19.6620 C   0  0  0  0  0  3  0  0  0  0  0  0
  -28.6210  -13.7270   20.7670 C   0  0  0  0  0  2  0  0  0  0  0  0
  -29.7910  -14.3770   20.1270 N   0  0  0  0  0  0  0  0  0  0  0  0
  -31.4690  -15.7400   19.9320 O   0  0  0  0  0  0  0  0  0  0  0  0
  -25.2250  -13.9170   20.4670 C   0  0  0  0  0  0  0  0  0  0  0  0
  -24.1800  -13.1200   20.8410 C   0  0  0  0  0  0  0  0  0  0  0  0
  -24.6670  -11.7770   20.7910 C   0  0  0  0  0  0  0  0  0  0  0  0
  -26.2760  -13.0620   20.1970 N   0  0  0  0  0  0  0  0  0  0  0  0
  -25.9570  -11.7660   20.4600 N   0  0  0  0  0  0  0  0  0  0  0  0
  -23.9570  -10.5040   20.9780 C   0  0  0  0  0  0  0  0  0  0  0  0
  -24.3810   -9.5520   21.9320 C   0  0  0  0  0  3  0  0  0  0  0  0
  -23.6660   -8.3470   22.1100 C   0  0  0  0  0  3  0  0  0  0  0  0
  -22.5120   -8.0850   21.3330 C   0  0  0  0  0  0  0  0  0  0  0  0
  -22.1070   -9.0260   20.3700 C   0  0  0  0  0  3  0  0  0  0  0  0
  -22.8220  -10.2220   20.1910 C   0  0  0  0  0  3  0  0  0  0  0  0
  -21.7690   -6.9310   21.4180 O   0  0  0  0  0  0  0  0  0  0  0  0
  -21.6670   -6.2260   22.5910 C   0  0  0  0  0  0  0  0  0  0  0  0
  -21.1280   -6.8010   23.7630 C   0  0  0  0  0  3  0  0  0  0  0  0
  -20.9770   -6.0190   24.9260 C   0  0  0  0  0  3  0  0  0  0  0  0
  -21.3550   -4.6640   24.9170 C   0  0  0  0  0  0  0  0  0  0  0  0
  -21.8870   -4.0880   23.7500 C   0  0  0  0  0  3  0  0  0  0  0  0
  -22.0390   -4.8660   22.5890 C   0  0  0  0  0  0  0  0  0  0  0  0
  -22.5330   -4.3010   21.4610 F   0  0  0  0  0  0  0  0  0  0  0  0
  -21.2040   -3.9100   26.0310 F   0  0  0  0  0  0  0  0  0  0  0  0
  -22.7800  -13.5770   21.1260 C   0  0  0  0  0  0  0  0  0  0  0  0
  -22.0700  -12.8700   21.9980 N   0  0  0  0  0  0  0  0  0  0  0  0
  -22.3250  -14.5970   20.6110 O   0  0  0  0  0  0  0  0  0  0  0  0
  -22.4530  -12.0460   22.4370 H   0  0  0  0  0  0  0  0  0  0  0  0
  -21.1310  -13.1590   22.2320 H   0  0  0  0  0  0  0  0  0  0  0  0
  -25.3650  -15.2910   20.3020 N   0  0  0  0  0  0  0  0  0  0  0  0
  -24.5890  -15.9320   20.4350 H   0  0  0  0  0  0  0  0  0  0  0  0
  -26.2010  -15.7470   19.9620 H   0  0  0  0  0  0  0  0  0  0  0  0
  -27.9400  -23.7430   20.1740 C   0  0  0  0  0  2  0  0  0  0  0  0
  -28.1840  -25.5080   20.2830 O   0  0  0  0  0  0  0  0  0  0  0  0
  -24.6530  -31.8440   23.2000 C   0  0  0  0  0  0  0  0  0  0  0  0
  -27.2220  -26.7450   20.2290 C   0  0  0  0  0  0  0  0  0  0  0  0
  -23.4930  -30.4580   21.5360 C   0  0  0  0  0  3  0  0  0  0  0  0
  -24.9620  -28.8080   20.1430 C   0  0  0  0  0  0  0  0  0  0  0  0
  -26.0750  -30.5850   21.4640 C   0  0  0  0  0  2  0  0  0  0  0  0
  -26.1490  -29.1520   20.8010 C   0  0  0  0  0  0  0  0  0  0  0  0
  -27.2620  -28.1510   20.8080 C   0  0  0  0  0  3  0  0  0  0  0  0
  -26.0000  -26.6220   19.5170 C   0  0  0  0  0  3  0  0  0  0  0  0
  -24.9290  -27.5700   19.4770 C   0  0  0  0  0  3  0  0  0  0  0  0
  -23.7570  -29.7650   20.1680 C   0  0  0  0  0  2  0  0  0  0  0  0
  -24.7640  -30.9960   22.1200 N   0  0  0  0  0  0  0  0  0  0  0  0
  -23.5510  -32.1450   23.6920 O   0  0  0  0  0  0  0  0  0  0  0  0
  -22.7530  -29.4800   22.4890 C   0  0  0  0  0  0  0  0  0  0  0  0
  -21.4190  -29.3500   22.3550 N   0  0  0  0  0  0  0  0  0  0  0  0
  -23.3930  -28.8360   23.3230 O   0  0  0  0  0  0  0  0  0  0  0  0
  -20.9520  -29.9200   21.6630 H   0  0  0  0  0  0  0  0  0  0  0  0
  -18.0030  -28.2120   22.8660 C   0  0  0  0  0  0  0  0  0  0  0  0
  -20.5730  -28.4160   23.1090 C   0  0  0  0  0  3  0  0  0  0  0  0
  -20.6330  -26.9950   22.5000 C   0  0  0  0  0  2  0  0  0  0  0  0
  -19.5160  -26.7260   21.4860 C   0  0  0  0  0  2  0  0  0  0  0  0
  -18.1440  -26.8820   22.1470 C   0  0  0  0  0  2  0  0  0  0  0  0
  -19.1430  -28.9400   23.3040 C   0  0  0  0  0  0  0  0  0  0  0  0
  -18.9540  -30.1840   23.9440 C   0  0  0  0  0  3  0  0  0  0  0  0
  -17.6610  -30.7020   24.1460 C   0  0  0  0  0  3  0  0  0  0  0  0
  -16.5370  -29.9740   23.7200 C   0  0  0  0  0  3  0  0  0  0  0  0
  -16.7090  -28.7300   23.0870 C   0  0  0  0  0  3  0  0  0  0  0  0
  -25.9040  -32.4890   23.8700 C   0  0  0  0  0  3  0  0  0  0  0  0
  -25.5820  -33.8940   24.1940 N   0  0  0  0  0  0  0  0  0  0  0  0
  -25.9120  -34.9560   23.4470 C   0  0  0  0  0  0  0  0  0  0  0  0
  -26.5750  -34.8570   22.4120 O   0  0  0  0  0  0  0  0  0  0  0  0
  -24.9880  -34.0430   24.9970 H   0  0  0  0  0  0  0  0  0  0  0  0
  -24.1730  -36.7550   23.1410 C   0  0  0  0  0  1  0  0  0  0  0  0
  -25.4350  -36.3470   23.9180 C   0  0  0  0  0  3  0  0  0  0  0  0
  -27.5830  -37.2510   24.6980 C   0  0  0  0  0  1  0  0  0  0  0  0
  -26.4620  -37.4050   23.7750 N   0  0  0  0  0  0  0  0  0  0  0  0
  -26.0540  -38.3240   23.9220 H   0  0  0  0  0  0  0  0  0  0  0  0
  -26.3630  -31.7330   25.1780 C   0  0  1  0  0  0  0  0  0  0  0  0
  -25.2290  -31.5230   26.2090 C   0  0  0  0  0  1  0  0  0  0  0  0
  -26.9470  -30.3430   24.8420 C   0  0  0  0  0  1  0  0  0  0  0  0
  -27.4980  -32.5260   25.8710 C   0  0  0  0  0  1  0  0  0  0  0  0
  1  7  1  0
  2  6  2  0
  3  4  1  0
  4  2  1  0
  4  1  1  0
  5  1  2  0
  8  7  1  0
  9 14  1  0
 10 11  1  0
 10  9  1  0
 12 11  1  0
 12 19  1  0
 12 13  1  0
 14  8  1  0
 14 13  1  0
 15  8  2  0
 16 17  2  0
 17 36  1  0
 18 17  1  0
 18 21  1  0
 19 20  1  0
 19 16  1  0
 20 18  2  0
 21 22  1  0
 22 23  2  0
 24 27  1  0
 24 23  1  0
 25 24  2  0
 26 25  1  0
 26 21  2  0
 27 28  1  0
 28 29  1  0
 29 30  2  0
 31 30  1  0
 31 35  1  0
 32 31  2  0
 33 28  2  0
 33 32  1  0
 34 33  1  0
 36 37  1  0
 37 40  1  0
 37 39  1  0
 38 36  2  0
 41 42  1  0
 41 16  1  0
 43 41  1  0
 44  2  1  0
 44 45  1  0
 46 57  2  0
 47 45  1  0
 47 52  1  0
 48 56  1  0
 48 58  1  0
 49 55  1  0
 49 51  1  0
 50 56  1  0
 51 52  2  0
 51 50  1  0
 53 47  2  0
 54 53  1  0
 54 49  2  0
 55 48  1  0
 56 46  1  0
 58 60  2  0
 59 58  1  0
 61 59  1  0
 62 71  2  0
 62 67  1  0
 63 59  1  0
 63 67  1  0
 64 63  1  0
 65 66  1  0
 65 64  1  0
 66 62  1  0
 67 68  2  0
 68 69  1  0
 70 69  2  0
 71 70  1  0
 72 46  1  0
 72 73  1  0
 72 82  1  0
 73 76  1  0
 74 78  1  0
 74 73  1  0
 75 74  2  0
 78 77  1  0
 80 78  1  0
 80 81  1  0
 80 79  1  0
 82 85  1  1
 82 83  1  0
 84 82  1  0
M  ISO  4   7 100   8 100  44 101  45 101
M  END
>  <TORSDO>  (93) 
F 18

>  <SCORE>  (93) 
-16.056

>  <name>  (93) 
92

>  <ligand_id>  (93) 
92

>  <original_smiles>  (93) 
[H]c1c([H])c([H])c2c(c1[H])C([H])([H])C([H])([H])C([H])([H])C2([H])N([H])C(=O)C1([H])N(C(=O)C([H])(N([H])C(=O)C([H])(N([H])C([H])([H])[H])C([H])([H])[H])C(C([H])([H])[H])(C([H])([H])[H])C([H])([H])[H])C([H])([H])c2c([H])c(OC([H])([H])C(=O)N(C(=O)C([H])([H])C(=O)N3C([H])([H])C([H])([H])C([H])([H])C([H])(n4nc(-c5c([H])c([H])c(Oc6c([H])c([H])c(F)c([H])c6F)c([H])c5[H])c(C(=O)N([H])[H])c4N([H])[H])C3([H])[H])C([H])([H])[H])c([H])c([H])c2C1([H])[H]

>  <smiles>  (93) 
[H]c1c([H])c([H])c2c(c1[H])C([H])([H])C([H])([H])C([H])([H])C2([H])N([H])C(=O)C1([H])N(C(=O)C([H])(N([H])C(=O)C([H])(N([H])C([H])([H])[H])C([H])([H])[H])C(C([H])([H])[H])(C([H])([H])[H])C([H])([H])[H])C([H])([H])c2c([H])c(OC([H])([H])C(=O)N(C(=O)C([H])([H])C(=O)N3C([H])([H])C([H])([H])C([H])([H])C([H])(n4nc(-c5c([H])c([H])c(Oc6c([H])c([H])c(F)c([H])c6F)c([H])c5[H])c(C(=O)N([H])[H])c4N([H])[H])C3([H])[H])C([H])([H])[H])c([H])c([H])c2C1([H])[H]

$$$$
93:0:0
     RDKit          3D

 95103  0  0  1  0  0  0  0  0999 V2000
  -28.2350  -21.8290   21.1120 C   0  0  0  0  0  0  0  0  0  0  0  0
  -28.0540  -20.5800   20.5940 N   0  0  0  0  0  0  0  0  0  0  0  0
  -29.3270  -22.1650   21.5600 O   0  0  0  0  0  0  0  0  0  0  0  0
  -27.1610  -20.4520   20.1220 H   0  0  0  0  0  0  0  0  0  0  0  0
  -29.2270  -18.7150   21.7280 C   0  0  0  0  0  3  0  0  0  0  0  0
  -29.4560  -18.8500   19.3470 C   0  0  0  0  0  3  0  0  0  0  0  0
  -30.6170  -16.9710   20.5670 C   0  0  0  0  0  0  0  0  0  0  0  0
  -30.0490  -17.5360   21.7680 C   0  0  0  0  0  0  0  0  0  0  0  0
  -28.9620  -19.4430   20.5580 C   0  0  0  0  0  0  0  0  0  0  0  0
  -30.2190  -17.6360   19.3630 C   0  0  0  0  0  0  0  0  0  0  0  0
  -30.2720  -16.9320   23.1730 C   0  0  0  0  0  1  0  0  0  0  0  0
  -30.5480  -17.0770   18.1580 F   0  0  0  0  0  0  0  0  0  0  0  0
  -31.6090  -15.7570   20.5840 C   0  0  0  0  0  0  0  0  0  0  0  0
  -32.1760  -15.3270   21.6530 N   0  0  0  0  0  0  0  0  0  0  0  0
  -31.9180  -15.7580   22.5230 H   0  0  0  0  0  0  0  0  0  0  0  0
  -32.0090  -14.9320   19.2950 C   0  0  0  0  0  0  0  0  0  0  0  0
  -31.5210  -12.8660   17.9650 C   0  0  0  0  0  2  0  0  0  0  0  0
  -30.2960  -13.0460   17.0270 C   0  0  0  0  0  2  0  0  0  0  0  0
  -28.9360  -12.9940   17.7730 C   0  0  0  0  0  2  0  0  0  0  0  0
  -28.9730  -13.8110   19.0880 C   0  0  0  0  0  3  0  0  0  0  0  0
  -30.1780  -13.3180   19.8890 C   0  0  0  0  0  2  0  0  0  0  0  0
  -31.3660  -13.7360   19.1420 N   0  0  0  0  0  0  0  0  0  0  0  0
  -32.9580  -15.2230   18.5480 O   0  0  0  0  0  0  0  0  0  0  0  0
  -27.0780  -14.6980   20.5900 C   0  0  0  0  0  0  0  0  0  0  0  0
  -25.9560  -14.0890   21.0760 C   0  0  0  0  0  0  0  0  0  0  0  0
  -25.9980  -12.7400   20.6110 C   0  0  0  0  0  0  0  0  0  0  0  0
  -27.7450  -13.7190   19.8670 N   0  0  0  0  0  0  0  0  0  0  0  0
  -27.1220  -12.5160   19.9430 N   0  0  0  0  0  0  0  0  0  0  0  0
  -25.0390  -11.6430   20.7250 C   0  0  0  0  0  0  0  0  0  0  0  0
  -25.3830  -10.4270   21.3610 C   0  0  0  0  0  3  0  0  0  0  0  0
  -24.4340   -9.3860   21.4570 C   0  0  0  0  0  3  0  0  0  0  0  0
  -23.1340   -9.5600   20.9230 C   0  0  0  0  0  0  0  0  0  0  0  0
  -22.8080  -10.7680   20.2780 C   0  0  0  0  0  3  0  0  0  0  0  0
  -23.7530  -11.7990   20.1790 C   0  0  0  0  0  3  0  0  0  0  0  0
  -22.1510   -8.6070   20.9530 O   0  0  0  0  0  0  0  0  0  0  0  0
  -22.0450   -7.7240   21.9980 C   0  0  0  0  0  0  0  0  0  0  0  0
  -21.9280   -8.1600   23.3360 C   0  0  0  0  0  3  0  0  0  0  0  0
  -21.7510   -7.2190   24.3670 C   0  0  0  0  0  3  0  0  0  0  0  0
  -21.6850   -5.8440   24.0660 C   0  0  0  0  0  0  0  0  0  0  0  0
  -21.8010   -5.4120   22.7330 C   0  0  0  0  0  3  0  0  0  0  0  0
  -21.9780   -6.3490   21.7030 C   0  0  0  0  0  0  0  0  0  0  0  0
  -22.0710   -5.9260   20.4180 F   0  0  0  0  0  0  0  0  0  0  0  0
  -21.5010   -4.9430   25.0570 F   0  0  0  0  0  0  0  0  0  0  0  0
  -24.8280  -14.7390   21.8290 C   0  0  0  0  0  0  0  0  0  0  0  0
  -24.1810  -14.0000   22.7110 N   0  0  0  0  0  0  0  0  0  0  0  0
  -24.5530  -15.9350   21.6570 O   0  0  0  0  0  0  0  0  0  0  0  0
  -24.4200  -13.0360   22.8910 H   0  0  0  0  0  0  0  0  0  0  0  0
  -23.4350  -14.4020   23.2580 H   0  0  0  0  0  0  0  0  0  0  0  0
  -27.5820  -15.9970   20.6770 N   0  0  0  0  0  0  0  0  0  0  0  0
  -27.1780  -16.7130   21.2690 H   0  0  0  0  0  0  0  0  0  0  0  0
  -28.4350  -16.3000   20.2270 H   0  0  0  0  0  0  0  0  0  0  0  0
  -27.0430  -22.8590   21.0860 C   0  0  0  0  0  2  0  0  0  0  0  0
  -27.2960  -24.4140   21.2470 C   0  0  0  0  0  3  0  0  0  0  0  0
  -28.2600  -25.1130   20.2490 C   0  0  0  0  0  3  0  0  0  0  0  0
  -28.4120  -26.5690   20.1980 O   0  0  0  0  0  0  0  0  0  0  0  0
  -24.5980  -31.7290   23.1230 C   0  0  0  0  0  0  0  0  0  0  0  0
  -27.2810  -27.3390   20.0190 C   0  0  0  0  0  0  0  0  0  0  0  0
  -23.4290  -30.3640   21.4450 C   0  0  0  0  0  3  0  0  0  0  0  0
  -24.8850  -28.8650   19.9760 C   0  0  0  0  0  0  0  0  0  0  0  0
  -25.9470  -30.7450   21.2620 C   0  0  0  0  0  2  0  0  0  0  0  0
  -26.0400  -29.3940   20.5690 C   0  0  0  0  0  0  0  0  0  0  0  0
  -27.2390  -28.6440   20.5640 C   0  0  0  0  0  3  0  0  0  0  0  0
  -26.1290  -26.8600   19.3560 C   0  0  0  0  0  3  0  0  0  0  0  0
  -24.9240  -27.6100   19.3500 C   0  0  0  0  0  3  0  0  0  0  0  0
  -23.6370  -29.7180   20.0430 C   0  0  0  0  0  2  0  0  0  0  0  0
  -24.6800  -30.9600   21.9980 N   0  0  0  0  0  0  0  0  0  0  0  0
  -23.5070  -31.9620   23.6770 O   0  0  0  0  0  0  0  0  0  0  0  0
  -22.7900  -29.3100   22.3750 C   0  0  0  0  0  0  0  0  0  0  0  0
  -21.4630  -29.1440   22.2510 N   0  0  0  0  0  0  0  0  0  0  0  0
  -23.4560  -28.6500   23.1790 O   0  0  0  0  0  0  0  0  0  0  0  0
  -21.0070  -29.6370   21.5000 H   0  0  0  0  0  0  0  0  0  0  0  0
  -18.0930  -27.9840   22.7840 C   0  0  0  0  0  0  0  0  0  0  0  0
  -20.6490  -28.1760   22.9860 C   0  0  0  0  0  3  0  0  0  0  0  0
  -20.6970  -26.8210   22.2210 C   0  0  0  0  0  2  0  0  0  0  0  0
  -19.5450  -26.6570   21.2620 C   0  0  0  0  0  2  0  0  0  0  0  0
  -18.2090  -26.7080   21.9730 C   0  0  0  0  0  2  0  0  0  0  0  0
  -19.2350  -28.6960   23.2420 C   0  0  0  0  0  0  0  0  0  0  0  0
  -19.0650  -29.9040   23.9340 C   0  0  0  0  0  3  0  0  0  0  0  0
  -17.7890  -30.4250   24.1400 C   0  0  0  0  0  3  0  0  0  0  0  0
  -16.6520  -29.7270   23.6990 C   0  0  0  0  0  3  0  0  0  0  0  0
  -16.8030  -28.5050   23.0290 C   0  0  0  0  0  3  0  0  0  0  0  0
  -25.8750  -32.3640   23.7680 C   0  0  0  0  0  3  0  0  0  0  0  0
  -25.5400  -33.7480   24.1100 N   0  0  0  0  0  0  0  0  0  0  0  0
  -25.8960  -34.8230   23.3940 C   0  0  0  0  0  0  0  0  0  0  0  0
  -26.6010  -34.7500   22.3830 O   0  0  0  0  0  0  0  0  0  0  0  0
  -24.9070  -33.8810   24.8830 H   0  0  0  0  0  0  0  0  0  0  0  0
  -24.1590  -36.6210   23.0390 C   0  0  0  0  0  1  0  0  0  0  0  0
  -25.3850  -36.2030   23.8690 C   0  0  0  0  0  3  0  0  0  0  0  0
  -27.5120  -37.0600   24.7450 C   0  0  0  0  0  1  0  0  0  0  0  0
  -26.4070  -37.2710   23.8130 N   0  0  0  0  0  0  0  0  0  0  0  0
  -25.9930  -38.1730   24.0250 H   0  0  0  0  0  0  0  0  0  0  0  0
  -26.3850  -31.5890   25.0480 C   0  0  1  0  0  0  0  0  0  0  0  0
  -25.2740  -31.3150   26.0890 C   0  0  0  0  0  1  0  0  0  0  0  0
  -26.9990  -30.2250   24.6530 C   0  0  0  0  0  1  0  0  0  0  0  0
  -27.5070  -32.3900   25.7490 C   0  0  0  0  0  1  0  0  0  0  0  0
  1  3  2  0
  2  1  1  0
  4  2  1  0
  5  8  1  0
  6 10  2  0
  6  9  1  0
  7 13  1  0
  7  8  2  0
  8 11  1  0
  9  2  1  0
  9  5  2  0
 10  7  1  0
 12 10  1  0
 13 14  2  0
 14 15  1  0
 16 13  1  0
 17 22  1  0
 18 19  1  0
 18 17  1  0
 20 19  1  0
 20 27  1  0
 20 21  1  0
 22 16  1  0
 22 21  1  0
 23 16  2  0
 24 49  1  0
 24 25  2  0
 25 44  1  0
 26 29  1  0
 26 25  1  0
 27 28  1  0
 27 24  1  0
 28 26  2  0
 29 30  1  0
 30 31  2  0
 32 35  1  0
 32 31  1  0
 33 32  2  0
 34 33  1  0
 34 29  2  0
 35 36  1  0
 36 37  1  0
 37 38  2  0
 39 38  1  0
 39 43  1  0
 40 39  2  0
 41 36  2  0
 41 40  1  0
 42 41  1  0
 44 45  1  0
 45 47  1  0
 45 48  1  0
 46 44  2  0
 49 50  1  0
 51 49  1  0
 52  1  1  0
 52 53  1  0
 54 53  2  0
 55 54  1  0
 56 67  2  0
 57 55  1  0
 57 62  1  0
 58 66  1  0
 58 68  1  0
 59 65  1  0
 59 61  1  0
 60 66  1  0
 61 60  1  0
 62 61  2  0
 63 57  2  0
 64 63  1  0
 64 59  2  0
 65 58  1  0
 66 56  1  0
 68 70  2  0
 69 68  1  0
 71 69  1  0
 72 81  2  0
 72 77  1  0
 73 69  1  0
 73 77  1  0
 74 73  1  0
 75 76  1  0
 75 74  1  0
 76 72  1  0
 77 78  2  0
 78 79  1  0
 80 79  2  0
 81 80  1  0
 82 56  1  0
 82 83  1  0
 82 92  1  0
 83 86  1  0
 84 88  1  0
 84 83  1  0
 85 84  2  0
 88 87  1  0
 90 88  1  0
 90 91  1  0
 90 89  1  0
 92 95  1  1
 92 93  1  0
 94 92  1  0
M  ISO  4  13 100  16 100  54 101  55 101
M  END
>  <TORSDO>  (94) 
F 21

>  <SCORE>  (94) 
-7.175

>  <name>  (94) 
93

>  <ligand_id>  (94) 
93

>  <original_smiles>  (94) 
[H]N=C(C(=O)N1C([H])([H])C([H])([H])C([H])([H])C([H])(n2nc(-c3c([H])c([H])c(Oc4c([H])c([H])c(F)c([H])c4F)c([H])c3[H])c(C(=O)N([H])[H])c2N([H])[H])C1([H])[H])c1c(F)c([H])c(N([H])C(=O)C([H])([H])C([H])([H])C([H])([H])Oc2c([H])c([H])c3c(c2[H])C([H])([H])N(C(=O)C([H])(N([H])C(=O)C([H])(N([H])C([H])([H])[H])C([H])([H])[H])C(C([H])([H])[H])(C([H])([H])[H])C([H])([H])[H])C([H])(C(=O)N([H])C2([H])c4c([H])c([H])c([H])c([H])c4C([H])([H])C([H])([H])C2([H])[H])C3([H])[H])c([H])c1C([H])([H])[H]

>  <smiles>  (94) 
[H]N=C(C(=O)N1C([H])([H])C([H])([H])C([H])([H])C([H])(n2nc(-c3c([H])c([H])c(Oc4c([H])c([H])c(F)c([H])c4F)c([H])c3[H])c(C(=O)N([H])[H])c2N([H])[H])C1([H])[H])c1c(F)c([H])c(N([H])C(=O)C([H])([H])C([H])([H])C([H])([H])Oc2c([H])c([H])c3c(c2[H])C([H])([H])N(C(=O)C([H])(N([H])C(=O)C([H])(N([H])C([H])([H])[H])C([H])([H])[H])C(C([H])([H])[H])(C([H])([H])[H])C([H])([H])[H])C([H])(C(=O)N([H])C2([H])c4c([H])c([H])c([H])c([H])c4C([H])([H])C([H])([H])C2([H])[H])C3([H])[H])c([H])c1C([H])([H])[H]

$$$$
94:0:0
     RDKit          3D

 93101  0  0  1  0  0  0  0  0999 V2000
  -29.8980  -23.2210   20.0220 C   0  0  0  0  0  0  0  0  0  0  0  0
  -29.4650  -22.2650   20.8680 N   0  0  0  0  0  0  0  0  0  0  0  0
  -30.4730  -22.9860   18.9570 O   0  0  0  0  0  0  0  0  0  0  0  0
  -29.0290  -22.6120   21.7120 H   0  0  0  0  0  0  0  0  0  0  0  0
  -30.0430  -18.6850   19.7730 C   0  0  0  0  0  3  0  0  0  0  0  0
  -29.5780  -20.0210   19.7490 C   0  0  0  0  0  3  0  0  0  0  0  0
  -30.3160  -20.3060   22.0410 C   0  0  0  0  0  3  0  0  0  0  0  0
  -30.7090  -18.1620   20.9080 C   0  0  0  0  0  0  0  0  0  0  0  0
  -30.7610  -18.9640   22.0780 C   0  0  0  0  0  0  0  0  0  0  0  0
  -29.7820  -20.8710   20.8640 C   0  0  0  0  0  0  0  0  0  0  0  0
  -31.3140  -18.4400   23.3940 C   0  0  0  0  0  1  0  0  0  0  0  0
  -31.5150  -16.8500   20.7870 C   0  0  0  0  0  2  0  0  0  0  0  0
  -31.3980  -14.4930   19.9770 C   0  0  0  0  0  0  0  0  0  0  0  0
  -31.0040  -12.2290   19.0660 C   0  0  0  0  0  2  0  0  0  0  0  0
  -30.0650  -12.3390   17.8480 C   0  0  0  0  0  2  0  0  0  0  0  0
  -28.5900  -12.2940   18.3000 C   0  0  0  0  0  2  0  0  0  0  0  0
  -28.2900  -13.2570   19.4820 C   0  0  0  0  0  3  0  0  0  0  0  0
  -29.3530  -13.1350   20.5940 C   0  0  0  0  0  2  0  0  0  0  0  0
  -30.6720  -13.3380   19.9730 N   0  0  0  0  0  0  0  0  0  0  0  0
  -32.5140  -14.5640   19.4590 O   0  0  0  0  0  0  0  0  0  0  0  0
  -30.8060  -15.5900   20.4990 N   0  0  0  0  0  0  0  0  0  0  0  0
  -29.8640  -15.4950   20.8480 H   0  0  0  0  0  0  0  0  0  0  0  0
  -25.9600  -14.0080   20.2770 C   0  0  0  0  0  0  0  0  0  0  0  0
  -24.8570  -13.3030   20.6780 C   0  0  0  0  0  0  0  0  0  0  0  0
  -25.2260  -11.9240   20.6200 C   0  0  0  0  0  0  0  0  0  0  0  0
  -26.9380  -13.0630   20.0030 N   0  0  0  0  0  0  0  0  0  0  0  0
  -26.5000  -11.8050   20.2640 N   0  0  0  0  0  0  0  0  0  0  0  0
  -24.4240  -10.7120   20.8320 C   0  0  0  0  0  0  0  0  0  0  0  0
  -24.7920   -9.7340   21.7800 C   0  0  0  0  0  3  0  0  0  0  0  0
  -23.9900   -8.5880   21.9760 C   0  0  0  0  0  3  0  0  0  0  0  0
  -22.8060   -8.4120   21.2190 C   0  0  0  0  0  0  0  0  0  0  0  0
  -22.4560   -9.3810   20.2600 C   0  0  0  0  0  3  0  0  0  0  0  0
  -23.2600  -10.5160   20.0620 C   0  0  0  0  0  3  0  0  0  0  0  0
  -21.9840   -7.3150   21.3160 O   0  0  0  0  0  0  0  0  0  0  0  0
  -21.8300   -6.6370   22.4980 C   0  0  0  0  0  0  0  0  0  0  0  0
  -21.3880   -7.2820   23.6740 C   0  0  0  0  0  3  0  0  0  0  0  0
  -21.1720   -6.5340   24.8500 C   0  0  0  0  0  3  0  0  0  0  0  0
  -21.3950   -5.1440   24.8490 C   0  0  0  0  0  0  0  0  0  0  0  0
  -21.8370   -4.5010   23.6800 C   0  0  0  0  0  3  0  0  0  0  0  0
  -22.0500   -5.2450   22.5070 C   0  0  0  0  0  0  0  0  0  0  0  0
  -22.4520   -4.6190   21.3750 F   0  0  0  0  0  0  0  0  0  0  0  0
  -21.1850   -4.4240   25.9760 F   0  0  0  0  0  0  0  0  0  0  0  0
  -23.5060  -13.8710   21.0060 C   0  0  0  0  0  0  0  0  0  0  0  0
  -22.7660  -13.2320   21.9040 N   0  0  0  0  0  0  0  0  0  0  0  0
  -23.1160  -14.9230   20.4990 O   0  0  0  0  0  0  0  0  0  0  0  0
  -23.0960  -12.3880   22.3460 H   0  0  0  0  0  0  0  0  0  0  0  0
  -21.8620  -13.6030   22.1650 H   0  0  0  0  0  0  0  0  0  0  0  0
  -26.2070  -15.3650   20.1050 N   0  0  0  0  0  0  0  0  0  0  0  0
  -25.4850  -16.0660   20.2380 H   0  0  0  0  0  0  0  0  0  0  0  0
  -27.0760  -15.7620   19.7690 H   0  0  0  0  0  0  0  0  0  0  0  0
  -29.6960  -24.6860   20.4550 C   0  0  0  0  0  2  0  0  0  0  0  0
  -28.5470  -25.4160   19.7360 C   0  0  0  0  0  2  0  0  0  0  0  0
  -28.4820  -26.7620   20.2350 O   0  0  0  0  0  0  0  0  0  0  0  0
  -24.6400  -31.9000   23.3180 C   0  0  0  0  0  0  0  0  0  0  0  0
  -27.2870  -27.4560   20.2170 C   0  0  0  0  0  0  0  0  0  0  0  0
  -23.4380  -30.5130   21.6600 C   0  0  0  0  0  3  0  0  0  0  0  0
  -24.8950  -28.9740   20.2380 C   0  0  0  0  0  0  0  0  0  0  0  0
  -25.9700  -30.8450   21.5000 C   0  0  0  0  0  2  0  0  0  0  0  0
  -26.0500  -29.4810   20.8440 C   0  0  0  0  0  0  0  0  0  0  0  0
  -27.2410  -28.7240   20.8420 C   0  0  0  0  0  3  0  0  0  0  0  0
  -26.1110  -26.9670   19.5980 C   0  0  0  0  0  3  0  0  0  0  0  0
  -24.9180  -27.7130   19.6210 C   0  0  0  0  0  3  0  0  0  0  0  0
  -23.6550  -29.8350   20.2790 C   0  0  0  0  0  2  0  0  0  0  0  0
  -24.6990  -31.1000   22.2180 N   0  0  0  0  0  0  0  0  0  0  0  0
  -23.5560  -32.1810   23.8490 O   0  0  0  0  0  0  0  0  0  0  0  0
  -22.7710  -29.4910   22.6090 C   0  0  0  0  0  0  0  0  0  0  0  0
  -21.4560  -29.2880   22.4420 N   0  0  0  0  0  0  0  0  0  0  0  0
  -23.4380  -28.8830   23.4510 O   0  0  0  0  0  0  0  0  0  0  0  0
  -20.9770  -29.8300   21.7370 H   0  0  0  0  0  0  0  0  0  0  0  0
  -18.0940  -28.0290   22.8060 C   0  0  0  0  0  0  0  0  0  0  0  0
  -20.6270  -28.3490   23.1960 C   0  0  0  0  0  3  0  0  0  0  0  0
  -20.7880  -26.9090   22.6550 C   0  0  0  0  0  2  0  0  0  0  0  0
  -19.7460  -26.5430   21.5950 C   0  0  0  0  0  2  0  0  0  0  0  0
  -18.3320  -26.6710   22.1720 C   0  0  0  0  0  2  0  0  0  0  0  0
  -19.1720  -28.8270   23.2730 C   0  0  0  0  0  0  0  0  0  0  0  0
  -18.9000  -30.0970   23.8200 C   0  0  0  0  0  3  0  0  0  0  0  0
  -17.5770  -30.5760   23.9080 C   0  0  0  0  0  3  0  0  0  0  0  0
  -16.5120  -29.7750   23.4620 C   0  0  0  0  0  3  0  0  0  0  0  0
  -16.7690  -28.5040   22.9190 C   0  0  0  0  0  3  0  0  0  0  0  0
  -25.9260  -32.5180   23.9490 C   0  0  0  0  0  3  0  0  0  0  0  0
  -26.4130  -31.7550   25.2420 C   0  0  1  0  0  0  0  0  0  0  0  0
  -25.2990  -31.5460   26.2960 C   0  0  0  0  0  1  0  0  0  0  0  0
  -26.9790  -30.3650   24.8740 C   0  0  0  0  0  1  0  0  0  0  0  0
  -27.5680  -32.5380   25.9090 C   0  0  0  0  0  1  0  0  0  0  0  0
  -25.6360  -33.9240   24.2550 N   0  0  0  0  0  0  0  0  0  0  0  0
  -25.9870  -34.9590   23.4800 C   0  0  0  0  0  0  0  0  0  0  0  0
  -26.6550  -34.8300   22.4490 O   0  0  0  0  0  0  0  0  0  0  0  0
  -25.0350  -34.1010   25.0470 H   0  0  0  0  0  0  0  0  0  0  0  0
  -24.2670  -36.7540   23.1200 C   0  0  0  0  0  1  0  0  0  0  0  0
  -25.5210  -36.3610   23.9150 C   0  0  0  0  0  3  0  0  0  0  0  0
  -27.6810  -37.2410   24.6810 C   0  0  0  0  0  1  0  0  0  0  0  0
  -26.5600  -37.4030   23.7590 N   0  0  0  0  0  0  0  0  0  0  0  0
  -26.1650  -38.3280   23.9050 H   0  0  0  0  0  0  0  0  0  0  0  0
  1 51  1  0
  1  2  1  0
  2  4  1  0
  3  1  2  0
  5  8  1  0
  6  5  2  0
  6 10  1  0
  7  9  1  0
  8  9  2  0
  9 11  1  0
 10  2  1  0
 10  7  2  0
 12  8  1  0
 13 21  1  0
 14 19  1  0
 15 16  1  0
 15 14  1  0
 17 16  1  0
 17 26  1  0
 17 18  1  0
 19 13  1  0
 19 18  1  0
 20 13  2  0
 21 12  1  0
 21 22  1  0
 23 24  2  0
 24 43  1  0
 25 24  1  0
 25 28  1  0
 26 27  1  0
 26 23  1  0
 27 25  2  0
 28 29  1  0
 29 30  2  0
 31 34  1  0
 31 30  1  0
 32 31  2  0
 33 32  1  0
 33 28  2  0
 34 35  1  0
 35 40  2  0
 35 36  1  0
 36 37  2  0
 38 37  1  0
 38 42  1  0
 39 38  2  0
 40 39  1  0
 41 40  1  0
 43 44  1  0
 44 47  1  0
 44 46  1  0
 45 43  2  0
 48 49  1  0
 48 23  1  0
 50 48  1  0
 52 53  1  0
 52 51  1  0
 54 65  2  0
 55 53  1  0
 55 60  1  0
 56 64  1  0
 56 66  1  0
 57 63  1  0
 57 59  1  0
 58 64  1  0
 59 58  1  0
 60 59  2  0
 61 62  1  0
 61 55  2  0
 62 57  2  0
 63 56  1  0
 64 54  1  0
 66 68  2  0
 67 66  1  0
 69 67  1  0
 70 79  2  0
 70 75  1  0
 71 67  1  0
 71 75  1  0
 72 71  1  0
 73 74  1  0
 73 72  1  0
 74 70  1  0
 75 76  2  0
 76 77  1  0
 78 77  2  0
 79 78  1  0
 80 54  1  0
 80 85  1  0
 80 81  1  0
 81 84  1  1
 81 82  1  0
 83 81  1  0
 85 88  1  0
 86 90  1  0
 86 85  1  0
 87 86  2  0
 90 89  1  0
 92 93  1  0
 92 90  1  0
 92 91  1  0
M  ISO  4  13 100  21 100  52 101  53 101
M  END
>  <TORSDO>  (95) 
F 20

>  <SCORE>  (95) 
-12.869

>  <name>  (95) 
94

>  <ligand_id>  (95) 
94

>  <original_smiles>  (95) 
[H]c1c([H])c([H])c2c(c1[H])C([H])([H])C([H])([H])C([H])([H])C2([H])N([H])C(=O)C1([H])N(C(=O)C([H])(N([H])C(=O)C([H])(N([H])C([H])([H])[H])C([H])([H])[H])C(C([H])([H])[H])(C([H])([H])[H])C([H])([H])[H])C([H])([H])c2c([H])c(OC([H])([H])C([H])([H])C(=O)N([H])c3c([H])c([H])c(C([H])([H])N([H])C(=O)N4C([H])([H])C([H])([H])C([H])([H])C([H])(n5nc(-c6c([H])c([H])c(Oc7c([H])c([H])c(F)c([H])c7F)c([H])c6[H])c(C(=O)N([H])[H])c5N([H])[H])C4([H])[H])c(C([H])([H])[H])c3[H])c([H])c([H])c2C1([H])[H]

>  <smiles>  (95) 
[H]c1c([H])c([H])c2c(c1[H])C([H])([H])C([H])([H])C([H])([H])C2([H])N([H])C(=O)C1([H])N(C(=O)C([H])(N([H])C(=O)C([H])(N([H])C([H])([H])[H])C([H])([H])[H])C(C([H])([H])[H])(C([H])([H])[H])C([H])([H])[H])C([H])([H])c2c([H])c(OC([H])([H])C([H])([H])C(=O)N([H])c3c([H])c([H])c(C([H])([H])N([H])C(=O)N4C([H])([H])C([H])([H])C([H])([H])C([H])(n5nc(-c6c([H])c([H])c(Oc7c([H])c([H])c(F)c([H])c7F)c([H])c6[H])c(C(=O)N([H])[H])c5N([H])[H])C4([H])[H])c(C([H])([H])[H])c3[H])c([H])c([H])c2C1([H])[H]

$$$$
95:0:0
     RDKit          3D

 94102  0  0  1  0  0  0  0  0999 V2000
  -29.0630  -17.7890   20.3850 C   0  0  0  0  0  3  0  0  0  0  0  0
  -30.7610  -19.8110   19.5360 C   0  0  0  0  0  3  0  0  0  0  0  0
  -30.4460  -17.4430   20.3270 C   0  0  0  0  0  0  0  0  0  0  0  0
  -31.2950  -18.5030   19.8400 C   0  0  0  0  0  0  0  0  0  0  0  0
  -28.5380  -19.0810   20.0790 C   0  0  0  0  0  0  0  0  0  0  0  0
  -29.3850  -20.1400   19.6760 C   0  0  0  0  0  0  0  0  0  0  0  0
  -30.8100  -16.0480   20.9410 C   0  0  0  0  0  0  0  0  0  0  0  0
  -30.6620  -15.9070   22.1970 N   0  0  0  0  0  0  0  0  0  0  0  0
  -30.3210  -16.7590   22.6240 H   0  0  0  0  0  0  0  0  0  0  0  0
  -31.3740  -14.8030   20.1560 C   0  0  0  0  0  0  0  0  0  0  0  0
  -31.1030  -12.4560   19.3550 C   0  0  0  0  0  2  0  0  0  0  0  0
  -30.1720  -12.4380   18.1230 C   0  0  0  0  0  2  0  0  0  0  0  0
  -28.6970  -12.3420   18.5550 C   0  0  0  0  0  2  0  0  0  0  0  0
  -28.3430  -13.3510   19.6790 C   0  0  0  0  0  3  0  0  0  0  0  0
  -29.3890  -13.3230   20.8110 C   0  0  0  0  0  2  0  0  0  0  0  0
  -30.7070  -13.5970   20.2130 N   0  0  0  0  0  0  0  0  0  0  0  0
  -32.4650  -14.8820   19.5820 O   0  0  0  0  0  0  0  0  0  0  0  0
  -26.0340  -14.0800   20.5330 C   0  0  0  0  0  0  0  0  0  0  0  0
  -24.9210  -13.3680   20.8900 C   0  0  0  0  0  0  0  0  0  0  0  0
  -25.2690  -11.9900   20.7410 C   0  0  0  0  0  0  0  0  0  0  0  0
  -26.9930  -13.1400   20.1910 N   0  0  0  0  0  0  0  0  0  0  0  0
  -26.5400  -11.8730   20.3760 N   0  0  0  0  0  0  0  0  0  0  0  0
  -24.4480  -10.7790   20.8710 C   0  0  0  0  0  0  0  0  0  0  0  0
  -24.8150   -9.7260   21.7380 C   0  0  0  0  0  3  0  0  0  0  0  0
  -23.9980   -8.5810   21.8580 C   0  0  0  0  0  3  0  0  0  0  0  0
  -22.7990   -8.4820   21.1110 C   0  0  0  0  0  0  0  0  0  0  0  0
  -22.4510   -9.5250   20.2330 C   0  0  0  0  0  3  0  0  0  0  0  0
  -23.2670  -10.6610   20.1100 C   0  0  0  0  0  3  0  0  0  0  0  0
  -21.9580   -7.3960   21.1430 O   0  0  0  0  0  0  0  0  0  0  0  0
  -21.8170   -6.6290   22.2720 C   0  0  0  0  0  0  0  0  0  0  0  0
  -21.3790   -7.1780   23.4970 C   0  0  0  0  0  3  0  0  0  0  0  0
  -21.1800   -6.3400   24.6130 C   0  0  0  0  0  3  0  0  0  0  0  0
  -21.4100   -4.9560   24.5050 C   0  0  0  0  0  0  0  0  0  0  0  0
  -21.8410   -4.4070   23.2840 C   0  0  0  0  0  3  0  0  0  0  0  0
  -22.0410   -5.2400   22.1700 C   0  0  0  0  0  0  0  0  0  0  0  0
  -22.4350   -4.7030   20.9900 F   0  0  0  0  0  0  0  0  0  0  0  0
  -21.2120   -4.1500   25.5740 F   0  0  0  0  0  0  0  0  0  0  0  0
  -23.5780  -13.9340   21.2540 C   0  0  0  0  0  0  0  0  0  0  0  0
  -22.8360  -13.2440   22.1130 N   0  0  0  0  0  0  0  0  0  0  0  0
  -23.2020  -15.0190   20.8150 O   0  0  0  0  0  0  0  0  0  0  0  0
  -23.1560  -12.3630   22.4880 H   0  0  0  0  0  0  0  0  0  0  0  0
  -21.9350  -13.6020   22.3990 H   0  0  0  0  0  0  0  0  0  0  0  0
  -26.3050  -15.4420   20.4470 N   0  0  0  0  0  0  0  0  0  0  0  0
  -25.5910  -16.1420   20.6110 H   0  0  0  0  0  0  0  0  0  0  0  0
  -27.1660  -15.8320   20.0850 H   0  0  0  0  0  0  0  0  0  0  0  0
  -26.2350  -18.3640   19.9750 C   0  0  0  0  0  1  0  0  0  0  0  0
  -27.1960  -19.3930   20.1730 O   0  0  0  0  0  0  0  0  0  0  0  0
  -33.6340  -19.4270   19.1200 C   0  0  0  0  0  1  0  0  0  0  0  0
  -32.7950  -18.2610   19.6680 C   0  0  0  0  0  2  0  0  0  0  0  0
  -28.7710  -21.3990   19.4780 O   0  0  0  0  0  0  0  0  0  0  0  0
  -29.4060  -22.5900   18.9170 C   0  0  0  0  0  2  0  0  0  0  0  0
  -28.6570  -23.9510   19.3110 C   0  0  0  0  0  2  0  0  0  0  0  0
  -29.0350  -25.2960   18.5480 C   0  0  0  0  0  2  0  0  0  0  0  0
  -28.8800  -26.6080   19.2150 O   0  0  0  0  0  0  0  0  0  0  0  0
  -24.8290  -31.1140   23.0920 C   0  0  0  0  0  0  0  0  0  0  0  0
  -27.6740  -27.3170   19.2960 C   0  0  0  0  0  0  0  0  0  0  0  0
  -23.6870  -29.9320   21.2480 C   0  0  0  0  0  3  0  0  0  0  0  0
  -25.2060  -28.7340   19.5730 C   0  0  0  0  0  0  0  0  0  0  0  0
  -26.1960  -30.4420   21.1050 C   0  0  0  0  0  2  0  0  0  0  0  0
  -26.3490  -29.1990   20.2350 C   0  0  0  0  0  0  0  0  0  0  0  0
  -27.5810  -28.5000   20.0900 C   0  0  0  0  0  3  0  0  0  0  0  0
  -26.5040  -26.8900   18.6310 C   0  0  0  0  0  3  0  0  0  0  0  0
  -25.2850  -27.5860   18.7670 C   0  0  0  0  0  3  0  0  0  0  0  0
  -23.9170  -29.5050   19.7730 C   0  0  0  0  0  2  0  0  0  0  0  0
  -24.9240  -30.5050   21.8740 N   0  0  0  0  0  0  0  0  0  0  0  0
  -23.7410  -31.2300   23.6730 O   0  0  0  0  0  0  0  0  0  0  0  0
  -23.1060  -28.7320   22.0300 C   0  0  0  0  0  0  0  0  0  0  0  0
  -21.8000  -28.4680   21.8470 N   0  0  0  0  0  0  0  0  0  0  0  0
  -23.8270  -28.0480   22.7610 O   0  0  0  0  0  0  0  0  0  0  0  0
  -21.2760  -29.0790   21.2370 H   0  0  0  0  0  0  0  0  0  0  0  0
  -18.5360  -26.9280   22.0690 C   0  0  0  0  0  0  0  0  0  0  0  0
  -21.0560  -27.3610   22.4490 C   0  0  0  0  0  3  0  0  0  0  0  0
  -21.2950  -26.0450   21.6740 C   0  0  0  0  0  2  0  0  0  0  0  0
  -20.2430  -25.7830   20.5920 C   0  0  0  0  0  2  0  0  0  0  0  0
  -18.8430  -25.7140   21.2090 C   0  0  0  0  0  2  0  0  0  0  0  0
  -19.5750  -27.7110   22.6390 C   0  0  0  0  0  0  0  0  0  0  0  0
  -19.2350  -28.8490   23.4010 C   0  0  0  0  0  3  0  0  0  0  0  0
  -17.8890  -29.2070   23.6000 C   0  0  0  0  0  3  0  0  0  0  0  0
  -16.8630  -28.4200   23.0480 C   0  0  0  0  0  3  0  0  0  0  0  0
  -17.1870  -27.2810   22.2890 C   0  0  0  0  0  3  0  0  0  0  0  0
  -26.0820  -31.7130   23.8050 C   0  0  0  0  0  3  0  0  0  0  0  0
  -25.7250  -33.0610   24.2680 N   0  0  0  0  0  0  0  0  0  0  0  0
  -26.0880  -34.1980   23.6590 C   0  0  0  0  0  0  0  0  0  0  0  0
  -26.8250  -34.2200   22.6700 O   0  0  0  0  0  0  0  0  0  0  0  0
  -25.0760  -33.1170   25.0400 H   0  0  0  0  0  0  0  0  0  0  0  0
  -24.3660  -36.0110   23.3840 C   0  0  0  0  0  1  0  0  0  0  0  0
  -25.5480  -35.5200   24.2360 C   0  0  0  0  0  3  0  0  0  0  0  0
  -27.5960  -36.3150   25.3330 C   0  0  0  0  0  1  0  0  0  0  0  0
  -26.5710  -36.5840   24.3280 N   0  0  0  0  0  0  0  0  0  0  0  0
  -26.1420  -37.4800   24.5460 H   0  0  0  0  0  0  0  0  0  0  0  0
  -26.5940  -30.8310   25.0090 C   0  0  1  0  0  0  0  0  0  0  0  0
  -25.4870  -30.4630   26.0250 C   0  0  0  0  0  1  0  0  0  0  0  0
  -27.2200  -29.5140   24.4950 C   0  0  0  0  0  1  0  0  0  0  0  0
  -27.7150  -31.5800   25.7670 C   0  0  0  0  0  1  0  0  0  0  0  0
  2  6  2  0
  2  4  1  0
  3  1  1  0
  3  7  1  0
  4  3  2  0
  5 47  1  0
  5  1  2  0
  6  5  1  0
  7  8  2  0
  8  9  1  0
 10 16  1  0
 10  7  1  0
 11 16  1  0
 12 13  1  0
 12 11  1  0
 14 13  1  0
 14 21  1  0
 14 15  1  0
 16 15  1  0
 17 10  2  0
 18 19  2  0
 19 38  1  0
 20 23  1  0
 20 19  1  0
 21 22  1  0
 21 18  1  0
 22 20  2  0
 23 24  1  0
 24 25  2  0
 26 29  1  0
 26 25  1  0
 27 26  2  0
 28 27  1  0
 28 23  2  0
 29 30  1  0
 30 31  1  0
 31 32  2  0
 33 32  1  0
 33 37  1  0
 34 33  2  0
 35 30  2  0
 35 34  1  0
 36 35  1  0
 38 39  1  0
 39 42  1  0
 39 41  1  0
 40 38  2  0
 43 18  1  0
 43 44  1  0
 45 43  1  0
 46 47  1  0
 48 49  1  0
 49  4  1  0
 50  6  1  0
 51 52  1  0
 51 50  1  0
 53 54  1  0
 53 52  1  0
 54 56  1  0
 55 66  2  0
 56 61  1  0
 57 65  1  0
 57 67  1  0
 58 64  1  0
 58 60  1  0
 59 65  1  0
 60 59  1  0
 61 60  2  0
 62 63  1  0
 62 56  2  0
 63 58  2  0
 64 57  1  0
 65 55  1  0
 67 69  2  0
 68 67  1  0
 70 68  1  0
 71 80  2  0
 71 76  1  0
 72 68  1  0
 72 76  1  0
 73 72  1  0
 74 75  1  0
 74 73  1  0
 75 71  1  0
 76 77  2  0
 77 78  1  0
 79 78  2  0
 80 79  1  0
 81 55  1  0
 81 82  1  0
 81 91  1  0
 82 85  1  0
 83 87  1  0
 83 82  1  0
 84 83  2  0
 87 86  1  0
 87 89  1  0
 89 90  1  0
 89 88  1  0
 91 94  1  1
 91 92  1  0
 93 91  1  0
M  ISO  4   7 100  10 100  53 101  54 101
M  END
>  <TORSDO>  (96) 
F 23

>  <SCORE>  (96) 
-10.138

>  <name>  (96) 
95

>  <ligand_id>  (96) 
95

>  <original_smiles>  (96) 
[H]N=C(C(=O)N1C([H])([H])C([H])([H])C([H])([H])C([H])(n2nc(-c3c([H])c([H])c(Oc4c([H])c([H])c(F)c([H])c4F)c([H])c3[H])c(C(=O)N([H])[H])c2N([H])[H])C1([H])[H])c1c([H])c(OC([H])([H])[H])c(OC([H])([H])C([H])([H])C([H])([H])Oc2c([H])c([H])c3c(c2[H])C([H])([H])N(C(=O)C([H])(N([H])C(=O)C([H])(N([H])C([H])([H])[H])C([H])([H])[H])C(C([H])([H])[H])(C([H])([H])[H])C([H])([H])[H])C([H])(C(=O)N([H])C2([H])c4c([H])c([H])c([H])c([H])c4C([H])([H])C([H])([H])C2([H])[H])C3([H])[H])c([H])c1C([H])([H])C([H])([H])[H]

>  <smiles>  (96) 
[H]N=C(C(=O)N1C([H])([H])C([H])([H])C([H])([H])C([H])(n2nc(-c3c([H])c([H])c(Oc4c([H])c([H])c(F)c([H])c4F)c([H])c3[H])c(C(=O)N([H])[H])c2N([H])[H])C1([H])[H])c1c([H])c(OC([H])([H])[H])c(OC([H])([H])C([H])([H])C([H])([H])Oc2c([H])c([H])c3c(c2[H])C([H])([H])N(C(=O)C([H])(N([H])C(=O)C([H])(N([H])C([H])([H])[H])C([H])([H])[H])C(C([H])([H])[H])(C([H])([H])[H])C([H])([H])[H])C([H])(C(=O)N([H])C2([H])c4c([H])c([H])c([H])c([H])c4C([H])([H])C([H])([H])C2([H])[H])C3([H])[H])c([H])c1C([H])([H])C([H])([H])[H]

$$$$
96:0:0
     RDKit          3D

 98106  0  0  1  0  0  0  0  0999 V2000
  -31.3140  -19.3410   20.7550 C   0  0  0  0  0  3  0  0  0  0  0  0
  -30.7440  -20.6330   20.7000 C   0  0  0  0  0  3  0  0  0  0  0  0
  -29.4200  -18.4240   19.5670 C   0  0  0  0  0  3  0  0  0  0  0  0
  -30.6530  -18.2090   20.2250 C   0  0  0  0  0  0  0  0  0  0  0  0
  -28.8270  -19.7210   19.5140 C   0  0  0  0  0  0  0  0  0  0  0  0
  -29.4750  -20.8470   20.1140 C   0  0  0  0  0  0  0  0  0  0  0  0
  -29.2000  -23.3810   20.0580 C   0  0  0  0  0  0  0  0  0  0  0  0
  -28.7970  -22.1060   20.3110 N   0  0  0  0  0  0  0  0  0  0  0  0
  -29.9600  -23.6660   19.1300 O   0  0  0  0  0  0  0  0  0  0  0  0
  -28.0290  -22.0800   20.9660 H   0  0  0  0  0  0  0  0  0  0  0  0
  -28.1370  -25.5840   20.7280 C   0  0  0  0  0  3  0  0  0  0  0  0
  -28.6200  -24.3420   21.0210 C   0  0  0  0  0  0  0  0  0  0  0  0
  -28.5900  -23.9150   22.4880 C   0  0  0  0  0  1  0  0  0  0  0  0
  -27.9940  -26.2400   19.5210 O   0  0  0  0  0  0  0  0  0  0  0  0
  -24.5800  -31.5270   22.9110 C   0  0  0  0  0  0  0  0  0  0  0  0
  -26.9400  -27.1320   19.5240 C   0  0  0  0  0  0  0  0  0  0  0  0
  -23.2690  -30.2540   21.2450 C   0  0  0  0  0  3  0  0  0  0  0  0
  -24.6170  -28.7450   19.6860 C   0  0  0  0  0  0  0  0  0  0  0  0
  -25.8000  -30.5280   20.9770 C   0  0  0  0  0  2  0  0  0  0  0  0
  -25.8150  -29.1890   20.2620 C   0  0  0  0  0  0  0  0  0  0  0  0
  -26.9830  -28.3900   20.1810 C   0  0  0  0  0  3  0  0  0  0  0  0
  -25.7330  -26.7170   18.9300 C   0  0  0  0  0  3  0  0  0  0  0  0
  -24.5730  -27.5110   19.0130 C   0  0  0  0  0  3  0  0  0  0  0  0
  -23.4060  -29.6410   19.8260 C   0  0  0  0  0  2  0  0  0  0  0  0
  -24.5700  -30.7810   21.7690 N   0  0  0  0  0  0  0  0  0  0  0  0
  -23.5280  -31.8100   23.5020 O   0  0  0  0  0  0  0  0  0  0  0  0
  -22.6100  -29.2100   22.1770 C   0  0  0  0  0  0  0  0  0  0  0  0
  -21.2720  -29.1130   22.1190 N   0  0  0  0  0  0  0  0  0  0  0  0
  -23.3000  -28.4950   22.9100 O   0  0  0  0  0  0  0  0  0  0  0  0
  -20.7780  -29.7400   21.5000 H   0  0  0  0  0  0  0  0  0  0  0  0
  -17.8620  -28.1300   22.8050 C   0  0  0  0  0  0  0  0  0  0  0  0
  -20.4450  -28.1730   22.8770 C   0  0  0  0  0  3  0  0  0  0  0  0
  -20.3860  -26.7970   22.1760 C   0  0  0  0  0  2  0  0  0  0  0  0
  -19.1840  -26.6490   21.2370 C   0  0  0  0  0  2  0  0  0  0  0  0
  -17.8740  -26.8370   22.0060 C   0  0  0  0  0  2  0  0  0  0  0  0
  -19.0690  -28.7660   23.1990 C   0  0  0  0  0  0  0  0  0  0  0  0
  -19.0000  -29.9840   23.9090 C   0  0  0  0  0  3  0  0  0  0  0  0
  -17.7580  -30.5650   24.2260 C   0  0  0  0  0  3  0  0  0  0  0  0
  -16.5660  -29.9250   23.8460 C   0  0  0  0  0  3  0  0  0  0  0  0
  -16.6200  -28.7080   23.1420 C   0  0  0  0  0  3  0  0  0  0  0  0
  -25.9070  -32.0810   23.5150 C   0  0  0  0  0  3  0  0  0  0  0  0
  -25.6530  -33.4590   23.9590 N   0  0  0  0  0  0  0  0  0  0  0  0
  -26.0340  -34.5550   23.2880 C   0  0  0  0  0  0  0  0  0  0  0  0
  -26.7060  -34.5090   22.2550 O   0  0  0  0  0  0  0  0  0  0  0  0
  -25.0590  -33.5710   24.7660 H   0  0  0  0  0  0  0  0  0  0  0  0
  -24.3800  -36.4380   23.0740 C   0  0  0  0  0  1  0  0  0  0  0  0
  -25.5980  -35.9200   23.8560 C   0  0  0  0  0  3  0  0  0  0  0  0
  -27.7600  -36.6490   24.7660 C   0  0  0  0  0  1  0  0  0  0  0  0
  -26.6730  -36.9370   23.8320 N   0  0  0  0  0  0  0  0  0  0  0  0
  -26.3030  -37.8570   24.0510 H   0  0  0  0  0  0  0  0  0  0  0  0
  -26.4610  -31.2060   24.7070 C   0  0  1  0  0  0  0  0  0  0  0  0
  -25.4150  -30.9270   25.8110 C   0  0  0  0  0  1  0  0  0  0  0  0
  -26.9760  -29.8420   24.1890 C   0  0  0  0  0  1  0  0  0  0  0  0
  -27.6700  -31.9150   25.3610 C   0  0  0  0  0  1  0  0  0  0  0  0
  -31.2880  -16.8210   20.4840 C   0  0  0  0  0  2  0  0  0  0  0  0
  -31.1080  -14.4320   19.7860 C   0  0  0  0  0  0  0  0  0  0  0  0
  -30.6500  -12.2480   18.7300 C   0  0  0  0  0  2  0  0  0  0  0  0
  -29.6540  -12.4340   17.5690 C   0  0  0  0  0  2  0  0  0  0  0  0
  -28.2050  -12.3460   18.0860 C   0  0  0  0  0  2  0  0  0  0  0  0
  -27.9600  -13.2290   19.3400 C   0  0  0  0  0  3  0  0  0  0  0  0
  -29.0750  -13.0470   20.3930 C   0  0  0  0  0  2  0  0  0  0  0  0
  -30.3610  -13.2920   19.7290 N   0  0  0  0  0  0  0  0  0  0  0  0
  -32.2330  -14.4860   19.2850 O   0  0  0  0  0  0  0  0  0  0  0  0
  -30.5330  -15.5550   20.2870 N   0  0  0  0  0  0  0  0  0  0  0  0
  -29.5960  -15.4910   20.6500 H   0  0  0  0  0  0  0  0  0  0  0  0
  -25.6430  -13.9130   20.2160 C   0  0  0  0  0  0  0  0  0  0  0  0
  -24.5700  -13.1790   20.6420 C   0  0  0  0  0  0  0  0  0  0  0  0
  -24.9710  -11.8100   20.5610 C   0  0  0  0  0  0  0  0  0  0  0  0
  -26.6330  -12.9950   19.9050 N   0  0  0  0  0  0  0  0  0  0  0  0
  -26.2370  -11.7230   20.1720 N   0  0  0  0  0  0  0  0  0  0  0  0
  -24.2060  -10.5740   20.7760 C   0  0  0  0  0  0  0  0  0  0  0  0
  -24.6000   -9.6180   21.7370 C   0  0  0  0  0  3  0  0  0  0  0  0
  -23.8370   -8.4480   21.9390 C   0  0  0  0  0  3  0  0  0  0  0  0
  -22.6640   -8.2250   21.1790 C   0  0  0  0  0  0  0  0  0  0  0  0
  -22.2890   -9.1700   20.2070 C   0  0  0  0  0  3  0  0  0  0  0  0
  -23.0530  -10.3310   20.0040 C   0  0  0  0  0  3  0  0  0  0  0  0
  -21.8750   -7.1060   21.2890 O   0  0  0  0  0  0  0  0  0  0  0  0
  -21.7260   -6.4450   22.4820 C   0  0  0  0  0  0  0  0  0  0  0  0
  -21.2270   -7.0910   23.6340 C   0  0  0  0  0  3  0  0  0  0  0  0
  -21.0240   -6.3560   24.8190 C   0  0  0  0  0  3  0  0  0  0  0  0
  -21.3080   -4.9790   24.8530 C   0  0  0  0  0  0  0  0  0  0  0  0
  -21.7980   -4.3330   23.7040 C   0  0  0  0  0  3  0  0  0  0  0  0
  -22.0030   -5.0630   22.5210 C   0  0  0  0  0  0  0  0  0  0  0  0
  -22.4560   -4.4320   21.4110 F   0  0  0  0  0  0  0  0  0  0  0  0
  -21.1050   -4.2710   25.9890 F   0  0  0  0  0  0  0  0  0  0  0  0
  -23.2130  -13.7080   21.0070 C   0  0  0  0  0  0  0  0  0  0  0  0
  -22.5220  -13.0410   21.9250 N   0  0  0  0  0  0  0  0  0  0  0  0
  -22.7780  -14.7470   20.5120 O   0  0  0  0  0  0  0  0  0  0  0  0
  -22.8870  -12.2010   22.3460 H   0  0  0  0  0  0  0  0  0  0  0  0
  -21.6130  -13.3760   22.2100 H   0  0  0  0  0  0  0  0  0  0  0  0
  -25.8520  -15.2780   20.0440 N   0  0  0  0  0  0  0  0  0  0  0  0
  -25.0990  -15.9480   20.1590 H   0  0  0  0  0  0  0  0  0  0  0  0
  -26.6660  -15.6690   19.5870 H   0  0  0  0  0  0  0  0  0  0  0  0
  -27.4840  -19.8590   18.8000 C   0  0  0  0  0  2  0  0  0  0  0  0
  -26.4030  -19.1820   19.5290 N   0  0  0  0  0  4  0  0  0  0  0  0
  -26.5900  -18.1980   19.5950 H   0  0  0  0  0  0  0  0  0  0  0  0
  -25.5350  -19.3070   19.0390 H   0  0  0  0  0  0  0  0  0  0  0  0
  -26.3020  -19.5540   20.4550 H   0  0  0  0  0  0  0  0  0  0  0  0
  2  1  1  0
  3  4  1  0
  4 55  1  0
  4  1  2  0
  5  3  2  0
  5  6  1  0
  6  8  1  0
  6  2  2  0
  7  8  1  0
  7 12  1  0
  8 10  1  0
  9  7  2  0
 11 12  2  0
 12 13  1  0
 14 16  1  0
 14 11  1  0
 15 26  2  0
 16 21  1  0
 17 25  1  0
 17 27  1  0
 18 24  1  0
 18 20  1  0
 19 25  1  0
 20 19  1  0
 21 20  2  0
 22 23  1  0
 22 16  2  0
 23 18  2  0
 24 17  1  0
 25 15  1  0
 27 29  2  0
 28 27  1  0
 30 28  1  0
 31 40  2  0
 31 36  1  0
 32 28  1  0
 32 36  1  0
 33 32  1  0
 34 35  1  0
 34 33  1  0
 35 31  1  0
 36 37  2  0
 37 38  1  0
 39 38  2  0
 40 39  1  0
 41 15  1  0
 41 42  1  0
 41 51  1  0
 42 45  1  0
 43 47  1  0
 43 42  1  0
 44 43  2  0
 47 46  1  0
 49 47  1  0
 49 50  1  0
 49 48  1  0
 51 54  1  1
 51 52  1  0
 53 51  1  0
 56 64  1  0
 57 62  1  0
 58 59  1  0
 58 57  1  0
 60 59  1  0
 60 69  1  0
 60 61  1  0
 62 56  1  0
 62 61  1  0
 63 56  2  0
 64 55  1  0
 64 65  1  0
 66 67  2  0
 67 86  1  0
 68 67  1  0
 68 71  1  0
 69 70  1  0
 69 66  1  0
 70 68  2  0
 71 72  1  0
 72 73  2  0
 74 77  1  0
 74 73  1  0
 75 74  2  0
 76 75  1  0
 76 71  2  0
 77 78  1  0
 78 83  2  0
 78 79  1  0
 79 80  2  0
 80 81  1  0
 81 85  1  0
 82 81  2  0
 83 82  1  0
 84 83  1  0
 86 87  1  0
 87 90  1  0
 87 89  1  0
 88 86  2  0
 91 92  1  0
 91 66  1  0
 93 91  1  0
 94  5  1  0
 94 95  1  0
 95 96  1  0
 95 98  1  0
 97 95  1  0
M  ISO  4  11 101  14 101  56 100  64 100
M  END
>  <TORSDO>  (97) 
F 21

>  <SCORE>  (97) 
-12.533

>  <name>  (97) 
96

>  <ligand_id>  (97) 
96

>  <original_smiles>  (97) 
[H]C(Oc1c([H])c([H])c2c(c1[H])C([H])([H])N(C(=O)C([H])(N([H])C(=O)C([H])(N([H])C([H])([H])[H])C([H])([H])[H])C(C([H])([H])[H])(C([H])([H])[H])C([H])([H])[H])C([H])(C(=O)N([H])C1([H])c3c([H])c([H])c([H])c([H])c3C([H])([H])C([H])([H])C1([H])[H])C2([H])[H])=C(C(=O)N([H])c1c([H])c([H])c(C([H])([H])N([H])C(=O)N2C([H])([H])C([H])([H])C([H])([H])C([H])(n3nc(-c4c([H])c([H])c(Oc5c([H])c([H])c(F)c([H])c5F)c([H])c4[H])c(C(=O)N([H])[H])c3N([H])[H])C2([H])[H])c([H])c1C([H])([H])[N+]([H])([H])[H])C([H])([H])[H]

>  <smiles>  (97) 
[H]C(Oc1c([H])c([H])c2c(c1[H])C([H])([H])N(C(=O)C([H])(N([H])C(=O)C([H])(N([H])C([H])([H])[H])C([H])([H])[H])C(C([H])([H])[H])(C([H])([H])[H])C([H])([H])[H])C([H])(C(=O)N([H])C1([H])c3c([H])c([H])c([H])c([H])c3C([H])([H])C([H])([H])C1([H])[H])C2([H])[H])=C(C(=O)N([H])c1c([H])c([H])c(C([H])([H])N([H])C(=O)N2C([H])([H])C([H])([H])C([H])([H])C([H])(n3nc(-c4c([H])c([H])c(Oc5c([H])c([H])c(F)c([H])c5F)c([H])c4[H])c(C(=O)N([H])[H])c3N([H])[H])C2([H])[H])c([H])c1C([H])([H])[N+]([H])([H])[H])C([H])([H])[H]

$$$$
97:0:0
     RDKit          3D

 94102  0  0  1  0  0  0  0  0999 V2000
  -28.8910  -21.0420   21.0970 N   0  0  0  0  0  0  0  0  0  0  0  0
  -27.8880  -21.1840   21.1920 H   0  0  0  0  0  0  0  0  0  0  0  0
  -30.9900  -17.9240   20.8650 C   0  0  0  0  0  3  0  0  0  0  0  0
  -30.6470  -19.2760   21.0860 C   0  0  0  0  0  3  0  0  0  0  0  0
  -28.6430  -17.3500   20.6330 C   0  0  0  0  0  3  0  0  0  0  0  0
  -29.9970  -16.9570   20.5690 C   0  0  0  0  0  0  0  0  0  0  0  0
  -29.2970  -19.6910   21.0210 C   0  0  0  0  0  0  0  0  0  0  0  0
  -28.3000  -18.7030   20.8490 C   0  0  0  0  0  0  0  0  0  0  0  0
  -26.9960  -19.0730   20.8300 F   0  0  0  0  0  0  0  0  0  0  0  0
  -31.0650  -14.7390   20.5620 C   0  0  0  0  0  0  0  0  0  0  0  0
  -30.8970  -12.3990   19.8320 C   0  0  0  0  0  2  0  0  0  0  0  0
  -30.0460  -12.3160   18.5460 C   0  0  0  0  0  2  0  0  0  0  0  0
  -28.5460  -12.2380   18.8790 C   0  0  0  0  0  2  0  0  0  0  0  0
  -28.0860  -13.2680   19.9480 C   0  0  0  0  0  3  0  0  0  0  0  0
  -29.0630  -13.3210   21.1440 C   0  0  0  0  0  2  0  0  0  0  0  0
  -30.4110  -13.5470   20.6100 N   0  0  0  0  0  0  0  0  0  0  0  0
  -32.2950  -14.8100   20.4960 O   0  0  0  0  0  0  0  0  0  0  0  0
  -30.3580  -15.7220   19.9360 N   0  0  0  0  0  0  0  0  0  0  0  0
  -25.6830  -13.9200   20.5900 C   0  0  0  0  0  0  0  0  0  0  0  0
  -24.5770  -13.1670   20.8740 C   0  0  0  0  0  0  0  0  0  0  0  0
  -24.9930  -11.8040   20.7900 C   0  0  0  0  0  0  0  0  0  0  0  0
  -26.7090  -13.0160   20.3650 N   0  0  0  0  0  0  0  0  0  0  0  0
  -26.2950  -11.7360   20.5450 N   0  0  0  0  0  0  0  0  0  0  0  0
  -24.2170  -10.5610   20.8700 C   0  0  0  0  0  0  0  0  0  0  0  0
  -24.5160   -9.5650   21.8250 C   0  0  0  0  0  3  0  0  0  0  0  0
  -23.7430   -8.3860   21.8950 C   0  0  0  0  0  3  0  0  0  0  0  0
  -22.6570   -8.1950   21.0080 C   0  0  0  0  0  0  0  0  0  0  0  0
  -22.3780   -9.1790   20.0430 C   0  0  0  0  0  3  0  0  0  0  0  0
  -23.1530  -10.3490   19.9710 C   0  0  0  0  0  3  0  0  0  0  0  0
  -21.8680   -7.0700   20.9870 O   0  0  0  0  0  0  0  0  0  0  0  0
  -21.5200   -6.4140   22.1400 C   0  0  0  0  0  0  0  0  0  0  0  0
  -20.8050   -7.0560   23.1760 C   0  0  0  0  0  3  0  0  0  0  0  0
  -20.4070   -6.3260   24.3140 C   0  0  0  0  0  3  0  0  0  0  0  0
  -20.7130   -4.9550   24.4140 C   0  0  0  0  0  0  0  0  0  0  0  0
  -21.4190   -4.3140   23.3820 C   0  0  0  0  0  3  0  0  0  0  0  0
  -21.8170   -5.0410   22.2460 C   0  0  0  0  0  0  0  0  0  0  0  0
  -22.4790   -4.4130   21.2440 F   0  0  0  0  0  0  0  0  0  0  0  0
  -20.3240   -4.2520   25.5030 F   0  0  0  0  0  0  0  0  0  0  0  0
  -23.1850  -13.6790   21.1050 C   0  0  0  0  0  0  0  0  0  0  0  0
  -22.4090  -12.9900   21.9340 N   0  0  0  0  0  0  0  0  0  0  0  0
  -22.7930  -14.7240   20.5870 O   0  0  0  0  0  0  0  0  0  0  0  0
  -22.7380  -12.1450   22.3770 H   0  0  0  0  0  0  0  0  0  0  0  0
  -21.4720  -13.3130   22.1300 H   0  0  0  0  0  0  0  0  0  0  0  0
  -25.8920  -15.2910   20.4740 N   0  0  0  0  0  0  0  0  0  0  0  0
  -25.1280  -15.9540   20.5520 H   0  0  0  0  0  0  0  0  0  0  0  0
  -26.7380  -15.7060   20.1080 H   0  0  0  0  0  0  0  0  0  0  0  0
  -29.6420  -16.7320   17.7480 C   0  0  0  0  0  1  0  0  0  0  0  0
  -30.6970  -15.9060   18.5050 C   0  0  0  0  0  2  0  0  0  0  0  0
  -29.7080  -22.1830   20.6490 C   0  0  0  0  0  2  0  0  0  0  0  0
  -28.8770  -23.2910   19.9370 C   0  0  0  0  0  2  0  0  0  0  0  0
  -29.1860  -24.7410   20.3790 C   0  0  0  0  0  0  0  0  0  0  0  0
  -29.2320  -25.0360   21.5790 O   0  0  0  0  0  0  0  0  0  0  0  0
  -29.4240  -25.8070   19.2840 C   0  0  0  0  0  2  0  0  0  0  0  0
  -29.1800  -27.1530   19.7530 O   0  0  0  0  0  0  0  0  0  0  0  0
  -24.6120  -31.5170   23.0350 C   0  0  0  0  0  0  0  0  0  0  0  0
  -27.9020  -27.6870   19.7430 C   0  0  0  0  0  0  0  0  0  0  0  0
  -23.6450  -30.0960   21.2570 C   0  0  0  0  0  3  0  0  0  0  0  0
  -25.3250  -28.8740   19.7770 C   0  0  0  0  0  0  0  0  0  0  0  0
  -26.1050  -30.7960   21.1720 C   0  0  0  0  0  2  0  0  0  0  0  0
  -26.3890  -29.4990   20.4390 C   0  0  0  0  0  0  0  0  0  0  0  0
  -27.6770  -28.9150   20.4160 C   0  0  0  0  0  3  0  0  0  0  0  0
  -26.8120  -27.0770   19.0800 C   0  0  0  0  0  3  0  0  0  0  0  0
  -25.5320  -27.6640   19.0960 C   0  0  0  0  0  3  0  0  0  0  0  0
  -23.9770  -29.5560   19.8400 C   0  0  0  0  0  2  0  0  0  0  0  0
  -24.8020  -30.8170   21.8810 N   0  0  0  0  0  0  0  0  0  0  0  0
  -23.4920  -31.6030   23.5560 O   0  0  0  0  0  0  0  0  0  0  0  0
  -23.1140  -28.9290   22.1200 C   0  0  0  0  0  0  0  0  0  0  0  0
  -21.8320  -28.5760   21.9280 N   0  0  0  0  0  0  0  0  0  0  0  0
  -23.8520  -28.3470   22.9180 O   0  0  0  0  0  0  0  0  0  0  0  0
  -21.2900  -29.1070   21.2610 H   0  0  0  0  0  0  0  0  0  0  0  0
  -18.6410  -26.9070   22.2230 C   0  0  0  0  0  0  0  0  0  0  0  0
  -21.1330  -27.4800   22.5990 C   0  0  0  0  0  3  0  0  0  0  0  0
  -21.4400  -26.1240   21.9230 C   0  0  0  0  0  2  0  0  0  0  0  0
  -20.4170  -25.7380   20.8520 C   0  0  0  0  0  2  0  0  0  0  0  0
  -19.0140  -25.6470   21.4590 C   0  0  0  0  0  2  0  0  0  0  0  0
  -19.6360  -27.7740   22.7450 C   0  0  0  0  0  0  0  0  0  0  0  0
  -19.2370  -28.9490   23.4190 C   0  0  0  0  0  3  0  0  0  0  0  0
  -17.8730  -29.2590   23.5770 C   0  0  0  0  0  3  0  0  0  0  0  0
  -16.8920  -28.3890   23.0700 C   0  0  0  0  0  3  0  0  0  0  0  0
  -17.2760  -27.2150   22.4000 C   0  0  0  0  0  3  0  0  0  0  0  0
  -25.7870  -32.2640   23.7410 C   0  0  0  0  0  3  0  0  0  0  0  0
  -25.3400  -33.6380   24.0080 N   0  0  0  0  0  0  0  0  0  0  0  0
  -25.6620  -34.7010   23.2590 C   0  0  0  0  0  0  0  0  0  0  0  0
  -26.4370  -34.6350   22.3010 O   0  0  0  0  0  0  0  0  0  0  0  0
  -24.6600  -33.7570   24.7450 H   0  0  0  0  0  0  0  0  0  0  0  0
  -23.8540  -36.3520   22.6870 C   0  0  0  0  0  1  0  0  0  0  0  0
  -25.0260  -36.0540   23.6350 C   0  0  0  0  0  3  0  0  0  0  0  0
  -26.9740  -37.1190   24.6830 C   0  0  0  0  0  1  0  0  0  0  0  0
  -25.9840  -37.1810   23.6120 N   0  0  0  0  0  0  0  0  0  0  0  0
  -25.4960  -38.0690   23.6820 H   0  0  0  0  0  0  0  0  0  0  0  0
  -26.2590  -31.5630   25.0740 C   0  0  1  0  0  0  0  0  0  0  0  0
  -25.1050  -31.2550   26.0570 C   0  0  0  0  0  1  0  0  0  0  0  0
  -26.9820  -30.2310   24.7630 C   0  0  0  0  0  1  0  0  0  0  0  0
  -27.2820  -32.4620   25.8070 C   0  0  0  0  0  1  0  0  0  0  0  0
  1  2  1  0
  3  4  1  0
  5  8  2  0
  6  5  1  0
  6  3  2  0
  7  4  2  0
  7  1  1  0
  8  7  1  0
  9  8  1  0
 10 16  1  0
 11 16  1  0
 12 13  1  0
 12 11  1  0
 14 13  1  0
 14 22  1  0
 14 15  1  0
 16 15  1  0
 17 10  2  0
 18 10  1  0
 18  6  1  0
 19 20  2  0
 20 39  1  0
 21 24  1  0
 21 20  1  0
 22 23  1  0
 22 19  1  0
 23 21  2  0
 24 25  1  0
 25 26  2  0
 27 26  1  0
 28 27  2  0
 29 28  1  0
 29 24  2  0
 30 27  1  0
 30 31  1  0
 31 36  2  0
 31 32  1  0
 32 33  2  0
 33 34  1  0
 34 38  1  0
 35 34  2  0
 36 35  1  0
 37 36  1  0
 39 40  1  0
 40 43  1  0
 40 42  1  0
 41 39  2  0
 44 45  1  0
 44 19  1  0
 46 44  1  0
 47 48  1  0
 48 18  1  0
 49  1  1  0
 50 51  1  0
 50 49  1  0
 51 52  2  0
 53 54  1  0
 53 51  1  0
 55 66  2  0
 56 54  1  0
 56 61  1  0
 57 65  1  0
 57 67  1  0
 58 64  1  0
 58 60  1  0
 59 65  1  0
 60 59  1  0
 61 60  2  0
 62 63  1  0
 62 56  2  0
 63 58  2  0
 64 57  1  0
 65 55  1  0
 67 69  2  0
 68 67  1  0
 70 68  1  0
 71 80  2  0
 71 76  1  0
 72 68  1  0
 72 76  1  0
 73 72  1  0
 74 75  1  0
 74 73  1  0
 75 71  1  0
 76 77  2  0
 77 78  1  0
 79 78  2  0
 80 79  1  0
 81 55  1  0
 81 82  1  0
 81 91  1  0
 82 85  1  0
 83 87  1  0
 83 82  1  0
 84 83  2  0
 87 86  1  0
 89 87  1  0
 89 90  1  0
 89 88  1  0
 91 94  1  1
 91 92  1  0
 93 91  1  0
M  ISO  4  10 100  18 100  53 101  54 101
M  END
>  <TORSDO>  (98) 
F 22

>  <SCORE>  (98) 
-9.515

>  <name>  (98) 
97

>  <ligand_id>  (98) 
97

>  <original_smiles>  (98) 
[H]c1c([H])c([H])c2c(c1[H])C([H])([H])C([H])([H])C([H])([H])C2([H])N([H])C(=O)C1([H])N(C(=O)C([H])(N([H])C(=O)C([H])(N([H])C([H])([H])[H])C([H])([H])[H])C(C([H])([H])[H])(C([H])([H])[H])C([H])([H])[H])C([H])([H])c2c([H])c(OC([H])([H])C(=O)C([H])([H])C([H])([H])N([H])c3c([H])c([H])c(N(C(=O)N4C([H])([H])C([H])([H])C([H])([H])C([H])(n5nc(-c6c([H])c([H])c(Oc7c([H])c([H])c(F)c([H])c7F)c([H])c6[H])c(C(=O)N([H])[H])c5N([H])[H])C4([H])[H])C([H])([H])C([H])([H])[H])c([H])c3F)c([H])c([H])c2C1([H])[H]

>  <smiles>  (98) 
[H]c1c([H])c([H])c2c(c1[H])C([H])([H])C([H])([H])C([H])([H])C2([H])N([H])C(=O)C1([H])N(C(=O)C([H])(N([H])C(=O)C([H])(N([H])C([H])([H])[H])C([H])([H])[H])C(C([H])([H])[H])(C([H])([H])[H])C([H])([H])[H])C([H])([H])c2c([H])c(OC([H])([H])C(=O)C([H])([H])C([H])([H])N([H])c3c([H])c([H])c(N(C(=O)N4C([H])([H])C([H])([H])C([H])([H])C([H])(n5nc(-c6c([H])c([H])c(Oc7c([H])c([H])c(F)c([H])c7F)c([H])c6[H])c(C(=O)N([H])[H])c5N([H])[H])C4([H])[H])C([H])([H])C([H])([H])[H])c([H])c3F)c([H])c([H])c2C1([H])[H]

$$$$
98:0:0
     RDKit          3D

 95103  0  0  1  0  0  0  0  0999 V2000
  -30.2030  -22.6940   22.3740 C   0  0  0  0  0  0  0  0  0  0  0  0
  -30.5530  -21.4110   22.1690 N   0  0  0  0  0  0  0  0  0  0  0  0
  -30.8770  -23.3690   23.1540 O   0  0  0  0  0  0  0  0  0  0  0  0
  -31.2760  -21.1010   22.8040 H   0  0  0  0  0  0  0  0  0  0  0  0
  -29.3210  -19.6380   19.0800 C   0  0  0  0  0  3  0  0  0  0  0  0
  -29.6210  -20.6910   19.9620 C   0  0  0  0  0  3  0  0  0  0  0  0
  -30.3590  -19.0710   21.6110 C   0  0  0  0  0  3  0  0  0  0  0  0
  -30.1360  -18.0000   20.7130 C   0  0  0  0  0  0  0  0  0  0  0  0
  -29.5870  -18.2950   19.4280 C   0  0  0  0  0  0  0  0  0  0  0  0
  -30.1190  -20.4150   21.2520 C   0  0  0  0  0  0  0  0  0  0  0  0
  -29.3500  -17.2440   18.3530 C   0  0  0  0  0  1  0  0  0  0  0  0
  -30.6620  -14.4780   20.1530 C   0  0  0  0  0  0  0  0  0  0  0  0
  -30.2140  -12.3910   18.9210 C   0  0  0  0  0  2  0  0  0  0  0  0
  -29.2140  -12.6310   17.7770 C   0  0  0  0  0  2  0  0  0  0  0  0
  -27.7700  -12.4770   18.2910 C   0  0  0  0  0  2  0  0  0  0  0  0
  -27.5030  -13.2880   19.5870 C   0  0  0  0  0  3  0  0  0  0  0  0
  -28.6200  -13.0650   20.6310 C   0  0  0  0  0  2  0  0  0  0  0  0
  -29.9060  -13.3610   19.9830 N   0  0  0  0  0  0  0  0  0  0  0  0
  -31.7740  -14.5880   19.6270 O   0  0  0  0  0  0  0  0  0  0  0  0
  -30.7220  -16.6530   21.0830 C   0  0  0  0  0  0  0  0  0  0  0  0
  -30.0630  -15.5310   20.7450 N   0  0  0  0  0  0  0  0  0  0  0  0
  -31.8040  -16.6320   21.6830 O   0  0  0  0  0  0  0  0  0  0  0  0
  -29.0570  -15.5530   20.7420 H   0  0  0  0  0  0  0  0  0  0  0  0
  -25.1420  -13.8600   20.4280 C   0  0  0  0  0  0  0  0  0  0  0  0
  -24.1030  -13.0720   20.8390 C   0  0  0  0  0  0  0  0  0  0  0  0
  -24.5760  -11.7250   20.7690 C   0  0  0  0  0  0  0  0  0  0  0  0
  -26.1820  -12.9920   20.1350 N   0  0  0  0  0  0  0  0  0  0  0  0
  -25.8500  -11.7030   20.3970 N   0  0  0  0  0  0  0  0  0  0  0  0
  -23.8720  -10.4530   20.9760 C   0  0  0  0  0  0  0  0  0  0  0  0
  -24.3440   -9.4910   21.8950 C   0  0  0  0  0  3  0  0  0  0  0  0
  -23.6400   -8.2830   22.0910 C   0  0  0  0  0  3  0  0  0  0  0  0
  -22.4510   -8.0300   21.3690 C   0  0  0  0  0  0  0  0  0  0  0  0
  -21.9980   -8.9810   20.4390 C   0  0  0  0  0  3  0  0  0  0  0  0
  -22.7010  -10.1800   20.2410 C   0  0  0  0  0  3  0  0  0  0  0  0
  -21.7160   -6.8740   21.4750 O   0  0  0  0  0  0  0  0  0  0  0  0
  -21.7000   -6.1350   22.6320 C   0  0  0  0  0  0  0  0  0  0  0  0
  -21.2870   -6.6870   23.8640 C   0  0  0  0  0  3  0  0  0  0  0  0
  -21.2200   -5.8750   25.0130 C   0  0  0  0  0  3  0  0  0  0  0  0
  -21.5560   -4.5100   24.9310 C   0  0  0  0  0  0  0  0  0  0  0  0
  -21.9630   -3.9570   23.7040 C   0  0  0  0  0  3  0  0  0  0  0  0
  -22.0330   -4.7670   22.5570 C   0  0  0  0  0  0  0  0  0  0  0  0
  -22.4040   -4.2240   21.3730 F   0  0  0  0  0  0  0  0  0  0  0  0
  -21.4850   -3.7270   26.0320 F   0  0  0  0  0  0  0  0  0  0  0  0
  -22.7170  -13.5310   21.1850 C   0  0  0  0  0  0  0  0  0  0  0  0
  -22.0350  -12.8140   22.0710 N   0  0  0  0  0  0  0  0  0  0  0  0
  -22.2470  -14.5630   20.7050 O   0  0  0  0  0  0  0  0  0  0  0  0
  -22.4240  -11.9790   22.4820 H   0  0  0  0  0  0  0  0  0  0  0  0
  -21.1090  -13.1110   22.3450 H   0  0  0  0  0  0  0  0  0  0  0  0
  -25.2870  -15.2340   20.2560 N   0  0  0  0  0  0  0  0  0  0  0  0
  -24.5180  -15.8780   20.4100 H   0  0  0  0  0  0  0  0  0  0  0  0
  -26.1060  -15.6840   19.8700 H   0  0  0  0  0  0  0  0  0  0  0  0
  -28.9830  -23.3580   21.7150 C   0  0  0  0  0  2  0  0  0  0  0  0
  -29.3330  -24.7100   21.0480 C   0  0  0  0  0  2  0  0  0  0  0  0
  -28.1450  -25.3230   20.2880 C   0  0  0  0  0  2  0  0  0  0  0  0
  -28.3010  -26.7410   20.1610 O   0  0  0  0  0  0  0  0  0  0  0  0
  -24.5510  -31.9240   23.2390 C   0  0  0  0  0  0  0  0  0  0  0  0
  -27.1330  -27.4710   20.1420 C   0  0  0  0  0  0  0  0  0  0  0  0
  -23.3160  -30.5280   21.6140 C   0  0  0  0  0  3  0  0  0  0  0  0
  -24.7440  -28.9810   20.1750 C   0  0  0  0  0  0  0  0  0  0  0  0
  -25.8380  -30.8790   21.3790 C   0  0  0  0  0  2  0  0  0  0  0  0
  -25.9120  -29.5070   20.7430 C   0  0  0  0  0  0  0  0  0  0  0  0
  -27.1110  -28.7600   20.7180 C   0  0  0  0  0  3  0  0  0  0  0  0
  -25.9480  -26.9620   19.5600 C   0  0  0  0  0  3  0  0  0  0  0  0
  -24.7570  -27.7100   19.5790 C   0  0  0  0  0  3  0  0  0  0  0  0
  -23.5050  -29.8450   20.2340 C   0  0  0  0  0  2  0  0  0  0  0  0
  -24.5870  -31.1240   22.1370 N   0  0  0  0  0  0  0  0  0  0  0  0
  -23.4790  -32.2040   23.7930 O   0  0  0  0  0  0  0  0  0  0  0  0
  -22.6710  -29.5130   22.5840 C   0  0  0  0  0  0  0  0  0  0  0  0
  -21.3450  -29.3320   22.4640 N   0  0  0  0  0  0  0  0  0  0  0  0
  -23.3580  -28.8880   23.3960 O   0  0  0  0  0  0  0  0  0  0  0  0
  -20.8520  -29.8870   21.7790 H   0  0  0  0  0  0  0  0  0  0  0  0
  -17.9710  -28.1480   22.9810 C   0  0  0  0  0  0  0  0  0  0  0  0
  -20.5300  -28.4000   23.2440 C   0  0  0  0  0  3  0  0  0  0  0  0
  -20.6270  -26.9640   22.6760 C   0  0  0  0  0  2  0  0  0  0  0  0
  -19.5220  -26.6380   21.6670 C   0  0  0  0  0  2  0  0  0  0  0  0
  -18.1430  -26.7920   22.3160 C   0  0  0  0  0  2  0  0  0  0  0  0
  -19.0930  -28.9090   23.4020 C   0  0  0  0  0  0  0  0  0  0  0  0
  -18.8790  -30.1780   23.9820 C   0  0  0  0  0  3  0  0  0  0  0  0
  -17.5760  -30.6850   24.1480 C   0  0  0  0  0  3  0  0  0  0  0  0
  -16.4690  -29.9200   23.7430 C   0  0  0  0  0  3  0  0  0  0  0  0
  -16.6670  -28.6540   23.1650 C   0  0  0  0  0  3  0  0  0  0  0  0
  -25.8490  -32.5480   23.8410 C   0  0  0  0  0  3  0  0  0  0  0  0
  -26.3820  -31.7710   25.1070 C   0  0  1  0  0  0  0  0  0  0  0  0
  -25.3050  -31.5330   26.1910 C   0  0  0  0  0  1  0  0  0  0  0  0
  -26.9520  -30.3930   24.6960 C   0  0  0  0  0  1  0  0  0  0  0  0
  -27.5460  -32.5570   25.7530 C   0  0  0  0  0  1  0  0  0  0  0  0
  -25.5540  -33.9470   24.1750 N   0  0  0  0  0  0  0  0  0  0  0  0
  -25.8900  -34.9970   23.4130 C   0  0  0  0  0  0  0  0  0  0  0  0
  -26.5520  -34.8890   22.3780 O   0  0  0  0  0  0  0  0  0  0  0  0
  -24.9670  -34.1070   24.9810 H   0  0  0  0  0  0  0  0  0  0  0  0
  -24.1790  -36.8050   23.0610 C   0  0  0  0  0  1  0  0  0  0  0  0
  -25.4150  -36.3890   23.8730 C   0  0  0  0  0  3  0  0  0  0  0  0
  -27.5580  -37.2510   24.7070 C   0  0  0  0  0  1  0  0  0  0  0  0
  -26.4580  -37.4320   23.7630 N   0  0  0  0  0  0  0  0  0  0  0  0
  -26.0600  -38.3560   23.9140 H   0  0  0  0  0  0  0  0  0  0  0  0
  1  3  2  0
  2  1  1  0
  2  4  1  0
  5  9  2  0
  5  6  1  0
  6 10  2  0
  8 20  1  0
  8  7  2  0
  9  8  1  0
 10  7  1  0
 10  2  1  0
 11  9  1  0
 12 21  1  0
 13 18  1  0
 14 15  1  0
 14 13  1  0
 16 15  1  0
 16 27  1  0
 16 17  1  0
 18 12  1  0
 18 17  1  0
 19 12  2  0
 20 22  2  0
 21 20  1  0
 23 21  1  0
 24 25  2  0
 25 44  1  0
 26 25  1  0
 26 29  1  0
 27 28  1  0
 27 24  1  0
 28 26  2  0
 29 30  1  0
 30 31  2  0
 32 35  1  0
 32 31  1  0
 33 32  2  0
 34 33  1  0
 34 29  2  0
 35 36  1  0
 36 37  1  0
 37 38  2  0
 39 38  1  0
 39 43  1  0
 40 39  2  0
 41 36  2  0
 41 40  1  0
 42 41  1  0
 44 45  1  0
 45 48  1  0
 45 47  1  0
 46 44  2  0
 49 50  1  0
 49 24  1  0
 51 49  1  0
 52  1  1  0
 53 52  1  0
 54 53  1  0
 55 54  1  0
 56 67  2  0
 57 55  1  0
 57 62  1  0
 58 66  1  0
 58 68  1  0
 59 65  1  0
 59 61  1  0
 60 66  1  0
 61 60  1  0
 62 61  2  0
 63 64  1  0
 63 57  2  0
 64 59  2  0
 65 58  1  0
 66 56  1  0
 68 70  2  0
 69 68  1  0
 71 69  1  0
 72 81  2  0
 72 77  1  0
 73 69  1  0
 73 77  1  0
 74 73  1  0
 75 76  1  0
 75 74  1  0
 76 72  1  0
 77 78  2  0
 78 79  1  0
 80 79  2  0
 81 80  1  0
 82 56  1  0
 82 87  1  0
 82 83  1  0
 83 86  1  1
 83 84  1  0
 85 83  1  0
 87 90  1  0
 88 92  1  0
 88 87  1  0
 89 88  2  0
 92 91  1  0
 94 92  1  0
 94 95  1  0
 94 93  1  0
M  ISO  4  12 100  21 100  54 101  55 101
M  END
>  <TORSDO>  (99) 
F 20

>  <SCORE>  (99) 
-13.093

>  <name>  (99) 
98

>  <ligand_id>  (99) 
98

>  <original_smiles>  (99) 
[H]c1c([H])c([H])c2c(c1[H])C([H])([H])C([H])([H])C([H])([H])C2([H])N([H])C(=O)C1([H])N(C(=O)C([H])(N([H])C(=O)C([H])(N([H])C([H])([H])[H])C([H])([H])[H])C(C([H])([H])[H])(C([H])([H])[H])C([H])([H])[H])C([H])([H])c2c([H])c(OC([H])([H])C([H])([H])C([H])([H])C(=O)N([H])c3c([H])c([H])c(C([H])([H])[H])c(C(=O)N([H])C(=O)N4C([H])([H])C([H])([H])C([H])([H])C([H])(n5nc(-c6c([H])c([H])c(Oc7c([H])c([H])c(F)c([H])c7F)c([H])c6[H])c(C(=O)N([H])[H])c5N([H])[H])C4([H])[H])c3[H])c([H])c([H])c2C1([H])[H]

>  <smiles>  (99) 
[H]c1c([H])c([H])c2c(c1[H])C([H])([H])C([H])([H])C([H])([H])C2([H])N([H])C(=O)C1([H])N(C(=O)C([H])(N([H])C(=O)C([H])(N([H])C([H])([H])[H])C([H])([H])[H])C(C([H])([H])[H])(C([H])([H])[H])C([H])([H])[H])C([H])([H])c2c([H])c(OC([H])([H])C([H])([H])C([H])([H])C(=O)N([H])c3c([H])c([H])c(C([H])([H])[H])c(C(=O)N([H])C(=O)N4C([H])([H])C([H])([H])C([H])([H])C([H])(n5nc(-c6c([H])c([H])c(Oc7c([H])c([H])c(F)c([H])c7F)c([H])c6[H])c(C(=O)N([H])[H])c5N([H])[H])C4([H])[H])c3[H])c([H])c([H])c2C1([H])[H]

$$$$
99:0:0
     RDKit          3D

 97105  0  0  1  0  0  0  0  0999 V2000
  -31.9700  -20.0690   20.1130 C   0  0  0  0  0  0  0  0  0  0  0  0
  -30.8860  -22.1600   19.4900 C   0  0  0  0  0  0  0  0  0  0  0  0
  -30.9630  -20.9590   20.0930 N   0  0  0  0  0  0  0  0  0  0  0  0
  -32.9570  -20.0750   19.3680 O   0  0  0  0  0  0  0  0  0  0  0  0
  -31.7760  -22.6620   18.7960 O   0  0  0  0  0  0  0  0  0  0  0  0
  -30.1750  -20.7000   20.6610 H   0  0  0  0  0  0  0  0  0  0  0  0
  -31.8320  -17.6150   20.7080 C   0  0  0  0  0  3  0  0  0  0  0  0
  -31.4060  -18.1940   23.4250 C   0  0  0  0  0  3  0  0  0  0  0  0
  -31.7950  -18.9690   21.1330 C   0  0  0  0  0  0  0  0  0  0  0  0
  -31.6230  -19.2520   22.5200 C   0  0  0  0  0  0  0  0  0  0  0  0
  -31.6370  -16.5580   21.6340 C   0  0  0  0  0  0  0  0  0  0  0  0
  -31.3920  -16.8490   22.9920 C   0  0  0  0  0  0  0  0  0  0  0  0
  -31.6990  -20.6630   23.1000 C   0  0  0  0  0  1  0  0  0  0  0  0
  -31.9890  -14.5150   20.2040 C   0  0  0  0  0  0  0  0  0  0  0  0
  -31.4840  -12.5230   18.8230 C   0  0  0  0  0  2  0  0  0  0  0  0
  -30.5120  -12.8760   17.6790 C   0  0  0  0  0  2  0  0  0  0  0  0
  -29.0470  -12.8080   18.1530 C   0  0  0  0  0  2  0  0  0  0  0  0
  -28.8190  -13.5850   19.4760 C   0  0  0  0  0  3  0  0  0  0  0  0
  -29.8770  -13.1760   20.5240 C   0  0  0  0  0  2  0  0  0  0  0  0
  -31.2210  -13.4190   19.9570 N   0  0  0  0  0  0  0  0  0  0  0  0
  -32.9840  -14.8150   19.5340 O   0  0  0  0  0  0  0  0  0  0  0  0
  -31.6250  -15.1740   21.3120 N   0  0  0  0  0  0  0  0  0  0  0  0
  -30.9830  -14.6510   21.8900 H   0  0  0  0  0  0  0  0  0  0  0  0
  -26.4840  -14.3470   20.2570 C   0  0  0  0  0  0  0  0  0  0  0  0
  -25.3750  -13.6400   20.6440 C   0  0  0  0  0  0  0  0  0  0  0  0
  -25.7410  -12.2620   20.5720 C   0  0  0  0  0  0  0  0  0  0  0  0
  -27.4600  -13.4000   19.9810 N   0  0  0  0  0  0  0  0  0  0  0  0
  -27.0150  -12.1400   20.2230 N   0  0  0  0  0  0  0  0  0  0  0  0
  -24.9370  -11.0470   20.7600 C   0  0  0  0  0  0  0  0  0  0  0  0
  -25.2640  -10.0880   21.7440 C   0  0  0  0  0  3  0  0  0  0  0  0
  -24.4660   -8.9370   21.9160 C   0  0  0  0  0  3  0  0  0  0  0  0
  -23.3270   -8.7360   21.1010 C   0  0  0  0  0  0  0  0  0  0  0  0
  -23.0170   -9.6830   20.1090 C   0  0  0  0  0  3  0  0  0  0  0  0
  -23.8150  -10.8260   19.9370 C   0  0  0  0  0  3  0  0  0  0  0  0
  -22.5080   -7.6360   21.1790 O   0  0  0  0  0  0  0  0  0  0  0  0
  -22.2630   -7.0030   22.3720 C   0  0  0  0  0  0  0  0  0  0  0  0
  -21.7390   -7.6940   23.4870 C   0  0  0  0  0  3  0  0  0  0  0  0
  -21.4370   -6.9910   24.6710 C   0  0  0  0  0  3  0  0  0  0  0  0
  -21.6490   -5.6020   24.7390 C   0  0  0  0  0  0  0  0  0  0  0  0
  -22.1640   -4.9110   23.6280 C   0  0  0  0  0  3  0  0  0  0  0  0
  -22.4670   -5.6110   22.4470 C   0  0  0  0  0  0  0  0  0  0  0  0
  -22.9440   -4.9380   21.3720 F   0  0  0  0  0  0  0  0  0  0  0  0
  -21.3510   -4.9250   25.8740 F   0  0  0  0  0  0  0  0  0  0  0  0
  -24.0230  -14.2050   20.9690 C   0  0  0  0  0  0  0  0  0  0  0  0
  -23.2930  -13.5680   21.8790 N   0  0  0  0  0  0  0  0  0  0  0  0
  -23.6220  -15.2450   20.4490 O   0  0  0  0  0  0  0  0  0  0  0  0
  -23.6270  -12.7250   22.3210 H   0  0  0  0  0  0  0  0  0  0  0  0
  -22.3860  -13.9310   22.1370 H   0  0  0  0  0  0  0  0  0  0  0  0
  -26.7360  -15.7050   20.0990 N   0  0  0  0  0  0  0  0  0  0  0  0
  -26.0160  -16.4070   20.2250 H   0  0  0  0  0  0  0  0  0  0  0  0
  -27.6090  -16.0870   19.7550 H   0  0  0  0  0  0  0  0  0  0  0  0
  -30.8980  -16.0460   25.2090 C   0  0  0  0  0  1  0  0  0  0  0  0
  -31.1470  -15.7800   23.8330 O   0  0  0  0  0  0  0  0  0  0  0  0
  -29.5770  -22.9330   19.7130 C   0  0  0  0  0  2  0  0  0  0  0  0
  -29.7500  -24.4540   19.9630 C   0  0  0  0  0  2  0  0  0  0  0  0
  -28.4100  -25.2050   19.8160 C   0  0  0  0  0  2  0  0  0  0  0  0
  -28.4940  -26.6120   20.1000 O   0  0  0  0  0  0  0  0  0  0  0  0
  -24.7070  -31.8760   23.1000 C   0  0  0  0  0  0  0  0  0  0  0  0
  -27.3090  -27.3320   20.0960 C   0  0  0  0  0  0  0  0  0  0  0  0
  -23.4730  -30.4130   21.5370 C   0  0  0  0  0  3  0  0  0  0  0  0
  -24.9030  -28.8390   20.1310 C   0  0  0  0  0  0  0  0  0  0  0  0
  -25.9960  -30.7680   21.2760 C   0  0  0  0  0  2  0  0  0  0  0  0
  -26.0730  -29.3780   20.6770 C   0  0  0  0  0  0  0  0  0  0  0  0
  -27.2770  -28.6320   20.6580 C   0  0  0  0  0  3  0  0  0  0  0  0
  -26.1090  -26.8140   19.5470 C   0  0  0  0  0  3  0  0  0  0  0  0
  -24.9150  -27.5530   19.5690 C   0  0  0  0  0  3  0  0  0  0  0  0
  -23.6560  -29.6920   20.1760 C   0  0  0  0  0  2  0  0  0  0  0  0
  -24.7450  -31.0340   22.0280 N   0  0  0  0  0  0  0  0  0  0  0  0
  -23.6360  -32.1650   23.6510 O   0  0  0  0  0  0  0  0  0  0  0  0
  -22.8520  -29.4180   22.5450 C   0  0  0  0  0  0  0  0  0  0  0  0
  -21.5410  -29.1630   22.4040 N   0  0  0  0  0  0  0  0  0  0  0  0
  -23.5450  -28.8780   23.4100 O   0  0  0  0  0  0  0  0  0  0  0  0
  -21.0400  -29.6580   21.6790 H   0  0  0  0  0  0  0  0  0  0  0  0
  -18.2320  -27.7870   22.8610 C   0  0  0  0  0  0  0  0  0  0  0  0
  -20.7520  -28.2370   23.2140 C   0  0  0  0  0  3  0  0  0  0  0  0
  -20.9720  -26.7730   22.7640 C   0  0  0  0  0  2  0  0  0  0  0  0
  -19.9410  -26.2980   21.7340 C   0  0  0  0  0  2  0  0  0  0  0  0
  -18.5250  -26.4030   22.3080 C   0  0  0  0  0  2  0  0  0  0  0  0
  -19.2790  -28.6530   23.2720 C   0  0  0  0  0  0  0  0  0  0  0  0
  -18.9530  -29.9430   23.7460 C   0  0  0  0  0  3  0  0  0  0  0  0
  -17.6120  -30.3670   23.8180 C   0  0  0  0  0  3  0  0  0  0  0  0
  -16.5800  -29.4990   23.4270 C   0  0  0  0  0  3  0  0  0  0  0  0
  -16.8900  -28.2130   22.9510 C   0  0  0  0  0  3  0  0  0  0  0  0
  -26.0020  -32.5370   23.6650 C   0  0  0  0  0  3  0  0  0  0  0  0
  -25.6670  -33.9180   24.0360 N   0  0  0  0  0  0  0  0  0  0  0  0
  -25.9570  -34.9960   23.2960 C   0  0  0  0  0  0  0  0  0  0  0  0
  -26.6050  -34.9320   22.2490 O   0  0  0  0  0  0  0  0  0  0  0  0
  -25.0910  -34.0390   24.8550 H   0  0  0  0  0  0  0  0  0  0  0  0
  -24.1850  -36.7570   23.0170 C   0  0  0  0  0  1  0  0  0  0  0  0
  -25.4470  -36.3600   23.7980 C   0  0  0  0  0  3  0  0  0  0  0  0
  -27.5780  -37.2670   24.6140 C   0  0  0  0  0  1  0  0  0  0  0  0
  -26.4550  -37.4380   23.6980 N   0  0  0  0  0  0  0  0  0  0  0  0
  -26.0310  -38.3430   23.8840 H   0  0  0  0  0  0  0  0  0  0  0  0
  -26.6100  -31.7590   24.8960 C   0  0  1  0  0  0  0  0  0  0  0  0
  -25.5730  -31.4250   25.9930 C   0  0  0  0  0  1  0  0  0  0  0  0
  -27.2590  -30.4310   24.4390 C   0  0  0  0  0  1  0  0  0  0  0  0
  -27.7370  -32.5980   25.5430 C   0  0  0  0  0  1  0  0  0  0  0  0
  1  9  1  0
  2 54  1  0
  2  3  1  0
  3  1  1  0
  3  6  1  0
  4  1  2  0
  5  2  2  0
  7  9  2  0
  7 11  1  0
  9 10  1  0
 10 13  1  0
 10  8  2  0
 11 12  2  0
 12  8  1  0
 12 53  1  0
 14 22  1  0
 15 20  1  0
 16 17  1  0
 16 15  1  0
 18 17  1  0
 18 27  1  0
 18 19  1  0
 20 14  1  0
 20 19  1  0
 21 14  2  0
 22 11  1  0
 22 23  1  0
 24 25  2  0
 25 44  1  0
 26 25  1  0
 26 29  1  0
 27 28  1  0
 27 24  1  0
 28 26  2  0
 29 30  1  0
 30 31  2  0
 32 35  1  0
 32 31  1  0
 33 32  2  0
 34 33  1  0
 34 29  2  0
 35 36  1  0
 36 41  2  0
 36 37  1  0
 37 38  2  0
 38 39  1  0
 39 43  1  0
 40 39  2  0
 41 40  1  0
 42 41  1  0
 44 45  1  0
 45 48  1  0
 45 47  1  0
 46 44  2  0
 49 50  1  0
 49 24  1  0
 51 49  1  0
 53 52  1  0
 54 55  1  0
 56 55  1  0
 56 57  1  0
 58 69  2  0
 59 57  1  0
 59 64  1  0
 60 68  1  0
 60 70  1  0
 61 67  1  0
 61 63  1  0
 62 68  1  0
 63 62  1  0
 64 63  2  0
 65 66  1  0
 65 59  2  0
 66 61  2  0
 67 60  1  0
 68 58  1  0
 70 72  2  0
 71 70  1  0
 73 71  1  0
 74 83  2  0
 74 79  1  0
 75 71  1  0
 75 79  1  0
 76 75  1  0
 77 78  1  0
 77 76  1  0
 78 74  1  0
 79 80  2  0
 80 81  1  0
 82 81  2  0
 83 82  1  0
 84 58  1  0
 84 85  1  0
 84 94  1  0
 85 88  1  0
 86 90  1  0
 86 85  1  0
 87 86  2  0
 90 89  1  0
 92 90  1  0
 92 93  1  0
 92 91  1  0
 94 97  1  1
 94 95  1  0
 96 94  1  0
M  ISO  4  14 100  22 100  56 101  57 101
M  END
>  <TORSDO>  (100) 
F 21

>  <SCORE>  (100) 
-2.256

>  <name>  (100) 
99

>  <ligand_id>  (100) 
99

>  <original_smiles>  (100) 
[H]c1c([H])c([H])c2c(c1[H])C([H])([H])C([H])([H])C([H])([H])C2([H])N([H])C(=O)C1([H])N(C(=O)C([H])(N([H])C(=O)C([H])(N([H])C([H])([H])[H])C([H])([H])[H])C(C([H])([H])[H])(C([H])([H])[H])C([H])([H])[H])C([H])([H])c2c([H])c(OC([H])([H])C([H])([H])C([H])([H])C(=O)N([H])C(=O)c3c([H])c(N([H])C(=O)N4C([H])([H])C([H])([H])C([H])([H])C([H])(n5nc(-c6c([H])c([H])c(Oc7c([H])c([H])c(F)c([H])c7F)c([H])c6[H])c(C(=O)N([H])[H])c5N([H])[H])C4([H])[H])c(OC([H])([H])[H])c([H])c3C([H])([H])[H])c([H])c([H])c2C1([H])[H]

>  <smiles>  (100) 
[H]c1c([H])c([H])c2c(c1[H])C([H])([H])C([H])([H])C([H])([H])C2([H])N([H])C(=O)C1([H])N(C(=O)C([H])(N([H])C(=O)C([H])(N([H])C([H])([H])[H])C([H])([H])[H])C(C([H])([H])[H])(C([H])([H])[H])C([H])([H])[H])C([H])([H])c2c([H])c(OC([H])([H])C([H])([H])C([H])([H])C(=O)N([H])C(=O)c3c([H])c(N([H])C(=O)N4C([H])([H])C([H])([H])C([H])([H])C([H])(n5nc(-c6c([H])c([H])c(Oc7c([H])c([H])c(F)c([H])c7F)c([H])c6[H])c(C(=O)N([H])[H])c5N([H])[H])C4([H])[H])c(OC([H])([H])[H])c([H])c3C([H])([H])[H])c([H])c([H])c2C1([H])[H]

$$$$
