0:0:0
     RDKit          3D

 95104  0  0  1  0  0  0  0  0999 V2000
  -29.3370  -22.2020   22.1480 C   0  0  0  0  0  0  0  0  0  0  0  0
  -29.0400  -22.8460   19.8650 C   0  0  0  0  0  0  0  0  0  0  0  0
  -29.5090  -23.6640   22.5730 C   0  0  0  0  0  2  0  0  0  0  0  0
  -30.1600  -24.4980   21.4730 C   0  0  0  0  0  2  0  0  0  0  0  0
  -29.4180  -24.3410   20.1410 C   0  0  0  0  0  3  0  0  0  0  0  0
  -29.0450  -21.8940   20.8540 N   0  0  0  0  0  0  0  0  0  0  0  0
  -29.4290  -21.3450   23.0360 O   0  0  0  0  0  0  0  0  0  0  0  0
  -28.7480  -22.5550   18.6990 O   0  0  0  0  0  0  0  0  0  0  0  0
  -28.6250  -20.4820   20.5660 C   0  0  0  0  0  2  0  0  0  0  0  0
  -31.8350  -18.9120   19.1780 C   0  0  0  0  0  3  0  0  0  0  0  0
  -30.8550  -19.8500   19.5230 C   0  0  0  0  0  3  0  0  0  0  0  0
  -31.7100  -17.5700   19.5690 C   0  0  0  0  0  3  0  0  0  0  0  0
  -29.6170  -18.0880   20.6760 C   0  0  0  0  0  3  0  0  0  0  0  0
  -29.7300  -19.4520   20.2690 C   0  0  0  0  0  0  0  0  0  0  0  0
  -30.6080  -17.1100   20.3420 C   0  0  0  0  0  0  0  0  0  0  0  0
  -31.0160  -14.6460   20.1600 C   0  0  0  0  0  0  0  0  0  0  0  0
  -30.5300  -12.5590   18.9170 C   0  0  0  0  0  2  0  0  0  0  0  0
  -29.5320  -12.8370   17.7760 C   0  0  0  0  0  2  0  0  0  0  0  0
  -28.0850  -12.6880   18.2860 C   0  0  0  0  0  2  0  0  0  0  0  0
  -27.8410  -13.4590   19.6090 C   0  0  0  0  0  3  0  0  0  0  0  0
  -28.9620  -13.1890   20.6320 C   0  0  0  0  0  2  0  0  0  0  0  0
  -30.2480  -13.5240   20.0000 N   0  0  0  0  0  0  0  0  0  0  0  0
  -32.1150  -14.7120   19.6090 O   0  0  0  0  0  0  0  0  0  0  0  0
  -30.2760  -15.5920   22.2710 C   0  0  0  0  0  1  0  0  0  0  0  0
  -30.5040  -15.7340   20.8250 N   0  0  0  0  0  0  0  0  0  0  0  0
  -25.5060  -14.0390   20.5020 C   0  0  0  0  0  0  0  0  0  0  0  0
  -24.4570  -13.2550   20.9050 C   0  0  0  0  0  0  0  0  0  0  0  0
  -24.9080  -11.9050   20.7920 C   0  0  0  0  0  0  0  0  0  0  0  0
  -26.5260  -13.1640   20.1670 N   0  0  0  0  0  0  0  0  0  0  0  0
  -26.1750  -11.8720   20.4000 N   0  0  0  0  0  0  0  0  0  0  0  0
  -24.1850  -10.6400   20.9780 C   0  0  0  0  0  0  0  0  0  0  0  0
  -24.6210   -9.6700   21.9090 C   0  0  0  0  0  3  0  0  0  0  0  0
  -23.8990   -8.4710   22.0840 C   0  0  0  0  0  3  0  0  0  0  0  0
  -22.7280   -8.2300   21.3270 C   0  0  0  0  0  0  0  0  0  0  0  0
  -22.3100   -9.1880   20.3860 C   0  0  0  0  0  3  0  0  0  0  0  0
  -23.0330  -10.3800   20.2090 C   0  0  0  0  0  3  0  0  0  0  0  0
  -21.9760   -7.0810   21.4110 O   0  0  0  0  0  0  0  0  0  0  0  0
  -21.8650   -6.3790   22.5840 C   0  0  0  0  0  0  0  0  0  0  0  0
  -21.3610   -6.9700   23.7630 C   0  0  0  0  0  3  0  0  0  0  0  0
  -21.2000   -6.1930   24.9270 C   0  0  0  0  0  3  0  0  0  0  0  0
  -21.5320   -4.8240   24.9110 C   0  0  0  0  0  0  0  0  0  0  0  0
  -22.0280   -4.2330   23.7360 C   0  0  0  0  0  3  0  0  0  0  0  0
  -22.1930   -5.0080   22.5760 C   0  0  0  0  0  0  0  0  0  0  0  0
  -22.6520   -4.4280   21.4400 F   0  0  0  0  0  0  0  0  0  0  0  0
  -21.3690   -4.0750   26.0270 F   0  0  0  0  0  0  0  0  0  0  0  0
  -23.0870  -13.7290   21.2830 C   0  0  0  0  0  0  0  0  0  0  0  0
  -22.4230  -13.0200   22.1910 N   0  0  0  0  0  0  0  0  0  0  0  0
  -22.6130  -14.7610   20.8090 O   0  0  0  0  0  0  0  0  0  0  0  0
  -22.8200  -12.1840   22.5940 H   0  0  0  0  0  0  0  0  0  0  0  0
  -21.5060  -13.3200   22.4900 H   0  0  0  0  0  0  0  0  0  0  0  0
  -25.6700  -15.4140   20.3730 N   0  0  0  0  0  0  0  0  0  0  0  0
  -24.9190  -16.0710   20.5550 H   0  0  0  0  0  0  0  0  0  0  0  0
  -26.5130  -15.8570   20.0320 H   0  0  0  0  0  0  0  0  0  0  0  0
  -28.1800  -25.2770   19.9870 C   0  0  0  0  0  2  0  0  0  0  0  0
  -28.3770  -26.7140   20.1290 O   0  0  0  0  0  0  0  0  0  0  0  0
  -24.5320  -31.9030   23.2430 C   0  0  0  0  0  0  0  0  0  0  0  0
  -27.2180  -27.4880   20.1100 C   0  0  0  0  0  0  0  0  0  0  0  0
  -23.3430  -30.5010   21.5940 C   0  0  0  0  0  3  0  0  0  0  0  0
  -24.8110  -29.0070   20.1450 C   0  0  0  0  0  0  0  0  0  0  0  0
  -25.8680  -30.8890   21.3910 C   0  0  0  0  0  2  0  0  0  0  0  0
  -25.9720  -29.5250   20.7330 C   0  0  0  0  0  0  0  0  0  0  0  0
  -27.1790  -28.7760   20.7080 C   0  0  0  0  0  3  0  0  0  0  0  0
  -26.0280  -27.0090   19.5070 C   0  0  0  0  0  3  0  0  0  0  0  0
  -24.8380  -27.7490   19.5300 C   0  0  0  0  0  3  0  0  0  0  0  0
  -23.5570  -29.8480   20.2050 C   0  0  0  0  0  2  0  0  0  0  0  0
  -24.6000  -31.1130   22.1340 N   0  0  0  0  0  0  0  0  0  0  0  0
  -23.4480  -32.1520   23.7880 O   0  0  0  0  0  0  0  0  0  0  0  0
  -22.7130  -29.4570   22.5450 C   0  0  0  0  0  0  0  0  0  0  0  0
  -21.3920  -29.2430   22.4140 N   0  0  0  0  0  0  0  0  0  0  0  0
  -23.4070  -28.8430   23.3590 O   0  0  0  0  0  0  0  0  0  0  0  0
  -20.8880  -29.7940   21.7330 H   0  0  0  0  0  0  0  0  0  0  0  0
  -18.0420  -27.9800   22.9180 C   0  0  0  0  0  0  0  0  0  0  0  0
  -20.5970  -28.2820   23.1780 C   0  0  0  0  0  3  0  0  0  0  0  0
  -20.7220  -26.8590   22.5880 C   0  0  0  0  0  2  0  0  0  0  0  0
  -19.6210  -26.5280   21.5750 C   0  0  0  0  0  2  0  0  0  0  0  0
  -18.2400  -26.6420   22.2270 C   0  0  0  0  0  2  0  0  0  0  0  0
  -19.1500  -28.7580   23.3510 C   0  0  0  0  0  0  0  0  0  0  0  0
  -18.9110  -30.0110   23.9550 C   0  0  0  0  0  3  0  0  0  0  0  0
  -17.5990  -30.4870   24.1330 C   0  0  0  0  0  3  0  0  0  0  0  0
  -16.5070  -29.7080   23.7140 C   0  0  0  0  0  3  0  0  0  0  0  0
  -16.7290  -28.4560   23.1130 C   0  0  0  0  0  3  0  0  0  0  0  0
  -25.8090  -32.5520   23.8600 C   0  0  0  0  0  3  0  0  0  0  0  0
  -26.3250  -31.8000   25.1480 C   0  0  1  0  0  0  0  0  0  0  0  0
  -25.2290  -31.5610   26.2120 C   0  0  0  0  0  1  0  0  0  0  0  0
  -26.9270  -30.4240   24.7730 C   0  0  0  0  0  1  0  0  0  0  0  0
  -27.4610  -32.6140   25.8120 C   0  0  0  0  0  1  0  0  0  0  0  0
  -25.4870  -33.9510   24.1710 N   0  0  0  0  0  0  0  0  0  0  0  0
  -25.8080  -34.9960   23.3980 C   0  0  0  0  0  0  0  0  0  0  0  0
  -26.4790  -34.8860   22.3680 O   0  0  0  0  0  0  0  0  0  0  0  0
  -24.8910  -34.1100   24.9700 H   0  0  0  0  0  0  0  0  0  0  0  0
  -24.0660  -36.7710   23.0150 C   0  0  0  0  0  1  0  0  0  0  0  0
  -25.3060  -36.3850   23.8360 C   0  0  0  0  0  3  0  0  0  0  0  0
  -27.4260  -37.3050   24.6690 C   0  0  0  0  0  1  0  0  0  0  0  0
  -26.3300  -37.4460   23.7150 N   0  0  0  0  0  0  0  0  0  0  0  0
  -25.9120  -38.3640   23.8450 H   0  0  0  0  0  0  0  0  0  0  0  0
  1  3  1  0
  1  7  2  0
  2  5  1  0
  2  6  1  0
  4  3  1  0
  5 54  1  0
  5  4  1  0
  6  1  1  0
  8  2  2  0
  9  6  1  0
 10 11  2  0
 10 12  1  0
 11 14  1  0
 12 15  2  0
 14  9  1  0
 14 13  2  0
 15 13  1  0
 15 25  1  0
 16 25  1  0
 17 22  1  0
 18 19  1  0
 18 17  1  0
 20 19  1  0
 20 29  1  0
 20 21  1  0
 22 16  1  0
 22 21  1  0
 23 16  2  0
 25 24  1  0
 26 27  2  0
 27 46  1  0
 28 27  1  0
 28 31  1  0
 29 30  1  0
 29 26  1  0
 30 28  2  0
 31 32  1  0
 32 33  2  0
 34 37  1  0
 34 33  1  0
 35 34  2  0
 36 35  1  0
 36 31  2  0
 37 38  1  0
 38 39  1  0
 39 40  2  0
 41 40  1  0
 41 45  1  0
 42 41  2  0
 43 38  2  0
 43 42  1  0
 44 43  1  0
 46 47  1  0
 47 50  1  0
 47 49  1  0
 48 46  2  0
 51 26  1  0
 51 52  1  0
 53 51  1  0
 54 55  1  0
 56 67  2  0
 57 55  1  0
 57 62  1  0
 58 66  1  0
 58 68  1  0
 59 65  1  0
 59 61  1  0
 60 66  1  0
 61 60  1  0
 62 61  2  0
 63 64  1  0
 63 57  2  0
 64 59  2  0
 65 58  1  0
 66 56  1  0
 68 70  2  0
 69 68  1  0
 71 69  1  0
 72 81  2  0
 72 77  1  0
 73 69  1  0
 73 77  1  0
 74 73  1  0
 75 76  1  0
 75 74  1  0
 76 72  1  0
 77 78  2  0
 78 79  1  0
 80 79  2  0
 81 80  1  0
 82 56  1  0
 82 87  1  0
 82 83  1  0
 83 86  1  1
 83 84  1  0
 85 83  1  0
 87 90  1  0
 88 92  1  0
 88 87  1  0
 89 88  2  0
 92 91  1  0
 94 92  1  0
 94 95  1  0
 94 93  1  0
M  ISO  4  16 100  25 100  54 101  55 101
M  END
>  <TORSDO>  (1) 
F 19

>  <SCORE>  (1) 
-13.748

>  <name>  (1) 
0

>  <ligand_id>  (1) 
0

>  <original_smiles>  (1) 
[H]c1c([H])c(N(C(=O)N2C([H])([H])C([H])([H])C([H])([H])C([H])(n3nc(-c4c([H])c([H])c(Oc5c([H])c([H])c(F)c([H])c5F)c([H])c4[H])c(C(=O)N([H])[H])c3N([H])[H])C2([H])[H])C([H])([H])[H])c([H])c(C([H])([H])N2C(=O)C([H])([H])C([H])([H])C([H])(C([H])([H])Oc3c([H])c([H])c4c(c3[H])C([H])([H])N(C(=O)C([H])(N([H])C(=O)C([H])(N([H])C([H])([H])[H])C([H])([H])[H])C(C([H])([H])[H])(C([H])([H])[H])C([H])([H])[H])C([H])(C(=O)N([H])C3([H])c5c([H])c([H])c([H])c([H])c5C([H])([H])C([H])([H])C3([H])[H])C4([H])[H])C2=O)c1[H]

>  <smiles>  (1) 
[H]c1c([H])c(N(C(=O)N2C([H])([H])C([H])([H])C([H])([H])C([H])(n3nc(-c4c([H])c([H])c(Oc5c([H])c([H])c(F)c([H])c5F)c([H])c4[H])c(C(=O)N([H])[H])c3N([H])[H])C2([H])[H])C([H])([H])[H])c([H])c(C([H])([H])N2C(=O)C([H])([H])C([H])([H])C([H])(C([H])([H])Oc3c([H])c([H])c4c(c3[H])C([H])([H])N(C(=O)C([H])(N([H])C(=O)C([H])(N([H])C([H])([H])[H])C([H])([H])[H])C(C([H])([H])[H])(C([H])([H])[H])C([H])([H])[H])C([H])(C(=O)N([H])C3([H])c5c([H])c([H])c([H])c([H])c5C([H])([H])C([H])([H])C3([H])[H])C4([H])[H])C2=O)c1[H]

$$$$
1:0:0
     RDKit          3D

 98106  0  0  1  0  0  0  0  0999 V2000
  -32.5110  -18.4070   21.5760 C   0  0  0  0  0  3  0  0  0  0  0  0
  -30.3220  -17.6780   22.3450 C   0  0  0  0  0  3  0  0  0  0  0  0
  -32.1020  -19.7520   21.6770 C   0  0  0  0  0  3  0  0  0  0  0  0
  -29.9120  -19.0190   22.4530 C   0  0  0  0  0  3  0  0  0  0  0  0
  -31.6240  -17.3620   21.9040 C   0  0  0  0  0  0  0  0  0  0  0  0
  -30.7930  -20.0650   22.1100 C   0  0  0  0  0  0  0  0  0  0  0  0
  -30.5900  -22.4880   21.5500 C   0  0  0  0  0  0  0  0  0  0  0  0
  -30.3270  -21.3950   22.2840 N   0  0  0  0  0  0  0  0  0  0  0  0
  -31.3080  -22.4920   20.5460 O   0  0  0  0  0  0  0  0  0  0  0  0
  -29.6520  -21.5270   23.0270 H   0  0  0  0  0  0  0  0  0  0  0  0
  -29.9030  -23.7690   22.0260 C   0  0  0  0  0  2  0  0  0  0  0  0
  -29.9800  -24.9530   21.0400 C   0  0  0  0  0  2  0  0  0  0  0  0
  -28.9240  -26.0160   21.3620 C   0  0  0  0  0  2  0  0  0  0  0  0
  -28.9220  -27.0460   20.3780 O   0  0  0  0  0  0  0  0  0  0  0  0
  -24.6390  -31.8960   23.3140 C   0  0  0  0  0  0  0  0  0  0  0  0
  -27.7250  -27.7080   20.3260 C   0  0  0  0  0  0  0  0  0  0  0  0
  -23.6120  -30.4470   21.5930 C   0  0  0  0  0  3  0  0  0  0  0  0
  -25.2350  -29.0250   20.2300 C   0  0  0  0  0  0  0  0  0  0  0  0
  -26.1130  -30.9760   21.5300 C   0  0  0  0  0  2  0  0  0  0  0  0
  -26.3210  -29.6240   20.8820 C   0  0  0  0  0  0  0  0  0  0  0  0
  -27.5710  -28.9730   20.9280 C   0  0  0  0  0  3  0  0  0  0  0  0
  -26.6280  -27.1110   19.6730 C   0  0  0  0  0  3  0  0  0  0  0  0
  -25.3810  -27.7640   19.6250 C   0  0  0  0  0  3  0  0  0  0  0  0
  -23.9350  -29.7980   20.2190 C   0  0  0  0  0  2  0  0  0  0  0  0
  -24.8020  -31.1200   22.2040 N   0  0  0  0  0  0  0  0  0  0  0  0
  -23.5170  -32.0930   23.7980 O   0  0  0  0  0  0  0  0  0  0  0  0
  -22.9770  -29.3730   22.5040 C   0  0  0  0  0  0  0  0  0  0  0  0
  -21.6710  -29.1230   22.3100 N   0  0  0  0  0  0  0  0  0  0  0  0
  -23.6560  -28.7690   23.3370 O   0  0  0  0  0  0  0  0  0  0  0  0
  -21.1830  -29.6670   21.6130 H   0  0  0  0  0  0  0  0  0  0  0  0
  -18.3410  -27.7690   22.6580 C   0  0  0  0  0  0  0  0  0  0  0  0
  -20.8730  -28.1300   23.0270 C   0  0  0  0  0  3  0  0  0  0  0  0
  -21.0570  -26.7210   22.4160 C   0  0  0  0  0  2  0  0  0  0  0  0
  -20.0070  -26.3810   21.3530 C   0  0  0  0  0  2  0  0  0  0  0  0
  -18.5980  -26.4490   21.9510 C   0  0  0  0  0  2  0  0  0  0  0  0
  -19.4090  -28.5670   23.1470 C   0  0  0  0  0  0  0  0  0  0  0  0
  -19.1150  -29.8020   23.7630 C   0  0  0  0  0  3  0  0  0  0  0  0
  -17.7850  -30.2440   23.8940 C   0  0  0  0  0  3  0  0  0  0  0  0
  -16.7300  -29.4440   23.4200 C   0  0  0  0  0  3  0  0  0  0  0  0
  -17.0080  -28.2070   22.8090 C   0  0  0  0  0  3  0  0  0  0  0  0
  -25.8510  -32.5940   24.0090 C   0  0  0  0  0  3  0  0  0  0  0  0
  -25.4750  -33.9930   24.2510 N   0  0  0  0  0  0  0  0  0  0  0  0
  -25.8490  -35.0230   23.4810 C   0  0  0  0  0  0  0  0  0  0  0  0
  -26.6170  -34.9000   22.5220 O   0  0  0  0  0  0  0  0  0  0  0  0
  -24.8020  -34.1590   24.9840 H   0  0  0  0  0  0  0  0  0  0  0  0
  -24.1240  -36.7510   22.8770 C   0  0  0  0  0  1  0  0  0  0  0  0
  -25.2820  -36.4130   23.8300 C   0  0  0  0  0  3  0  0  0  0  0  0
  -27.3110  -37.3700   24.8290 C   0  0  0  0  0  1  0  0  0  0  0  0
  -26.2940  -37.4900   23.7860 N   0  0  0  0  0  0  0  0  0  0  0  0
  -25.8560  -38.4020   23.8770 H   0  0  0  0  0  0  0  0  0  0  0  0
  -26.2890  -31.8910   25.3520 C   0  0  1  0  0  0  0  0  0  0  0  0
  -25.1120  -31.5960   26.3110 C   0  0  0  0  0  1  0  0  0  0  0  0
  -27.0060  -30.5520   25.0610 C   0  0  0  0  0  1  0  0  0  0  0  0
  -27.3100  -32.7820   26.1000 C   0  0  0  0  0  1  0  0  0  0  0  0
  -32.0740  -15.9670   21.8320 C   0  0  0  0  0  3  0  0  0  0  0  0
  -31.3450  -14.8930   21.4390 C   0  0  0  0  0  0  0  0  0  0  0  0
  -31.9430  -13.5600   21.5020 C   0  0  0  0  0  0  0  0  0  0  0  0
  -33.1890  -13.4880   21.0480 N   0  0  0  0  0  0  0  0  0  0  0  0
  -31.3620  -12.5470   21.8870 O   0  0  0  0  0  0  0  0  0  0  0  0
  -33.6430  -14.3100   20.6780 H   0  0  0  0  0  0  0  0  0  0  0  0
  -33.6760  -12.6040   21.0320 H   0  0  0  0  0  0  0  0  0  0  0  0
  -29.9190  -14.9600   20.8850 C   0  0  0  0  0  2  0  0  0  0  0  0
  -29.7640  -14.3000   19.5070 C   0  0  0  0  0  0  0  0  0  0  0  0
  -29.2920  -12.2130   18.2880 C   0  0  0  0  0  2  0  0  0  0  0  0
  -28.1280  -12.3040   17.2930 C   0  0  0  0  0  2  0  0  0  0  0  0
  -26.7970  -12.0120   18.0050 C   0  0  0  0  0  2  0  0  0  0  0  0
  -26.6180  -12.8610   19.2890 C   0  0  0  0  0  3  0  0  0  0  0  0
  -27.8710  -12.7950   20.1920 C   0  0  0  0  0  2  0  0  0  0  0  0
  -29.0510  -13.1550   19.3890 N   0  0  0  0  0  0  0  0  0  0  0  0
  -30.4470  -14.7520   18.5810 O   0  0  0  0  0  0  0  0  0  0  0  0
  -24.3750  -13.2690   20.4910 C   0  0  0  0  0  0  0  0  0  0  0  0
  -23.4490  -12.4080   21.0160 C   0  0  0  0  0  0  0  0  0  0  0  0
  -23.9740  -11.0940   20.8120 C   0  0  0  0  0  0  0  0  0  0  0  0
  -25.4050  -12.4750   20.0090 N   0  0  0  0  0  0  0  0  0  0  0  0
  -25.1760  -11.1590   20.2540 N   0  0  0  0  0  0  0  0  0  0  0  0
  -23.3770   -9.7760   21.0650 C   0  0  0  0  0  0  0  0  0  0  0  0
  -23.9610   -8.8630   21.9690 C   0  0  0  0  0  3  0  0  0  0  0  0
  -23.3600   -7.6080   22.2090 C   0  0  0  0  0  3  0  0  0  0  0  0
  -22.1600   -7.2590   21.5450 C   0  0  0  0  0  0  0  0  0  0  0  0
  -21.5960   -8.1620   20.6280 C   0  0  0  0  0  3  0  0  0  0  0  0
  -22.1980   -9.4080   20.3870 C   0  0  0  0  0  3  0  0  0  0  0  0
  -21.5190   -6.0530   21.6960 O   0  0  0  0  0  0  0  0  0  0  0  0
  -21.5290   -5.3760   22.8890 C   0  0  0  0  0  0  0  0  0  0  0  0
  -21.0370   -5.9550   24.0790 C   0  0  0  0  0  3  0  0  0  0  0  0
  -21.0030   -5.1990   25.2690 C   0  0  0  0  0  3  0  0  0  0  0  0
  -21.4510   -3.8650   25.2680 C   0  0  0  0  0  0  0  0  0  0  0  0
  -21.9360   -3.2850   24.0830 C   0  0  0  0  0  3  0  0  0  0  0  0
  -21.9720   -4.0370   22.8960 C   0  0  0  0  0  0  0  0  0  0  0  0
  -22.4210   -3.4670   21.7520 F   0  0  0  0  0  0  0  0  0  0  0  0
  -21.4110   -3.1360   26.4070 F   0  0  0  0  0  0  0  0  0  0  0  0
  -22.1100  -12.7710   21.5880 C   0  0  0  0  0  0  0  0  0  0  0  0
  -21.6300  -12.0030   22.5600 N   0  0  0  0  0  0  0  0  0  0  0  0
  -21.5010  -13.7710   21.2080 O   0  0  0  0  0  0  0  0  0  0  0  0
  -22.1390  -11.1950   22.8870 H   0  0  0  0  0  0  0  0  0  0  0  0
  -20.7400  -12.2270   22.9830 H   0  0  0  0  0  0  0  0  0  0  0  0
  -24.4210  -14.6560   20.3670 N   0  0  0  0  0  0  0  0  0  0  0  0
  -23.6580  -15.2550   20.6640 H   0  0  0  0  0  0  0  0  0  0  0  0
  -25.1750  -15.1660   19.9250 H   0  0  0  0  0  0  0  0  0  0  0  0
  1  3  2  0
  1  5  1  0
  2  4  1  0
  3  6  1  0
  5  2  2  0
  6  8  1  0
  6  4  2  0
  7 11  1  0
  7  8  1  0
  8 10  1  0
  9  7  2  0
 12 13  1  0
 12 11  1  0
 14 13  1  0
 15 26  2  0
 16 14  1  0
 16 21  1  0
 17 25  1  0
 17 27  1  0
 18 20  1  0
 19 25  1  0
 20 21  2  0
 20 19  1  0
 22 16  2  0
 23 22  1  0
 23 18  2  0
 24 18  1  0
 24 17  1  0
 25 15  1  0
 27 29  2  0
 28 27  1  0
 30 28  1  0
 31 40  2  0
 31 36  1  0
 32 28  1  0
 32 36  1  0
 33 32  1  0
 34 35  1  0
 34 33  1  0
 35 31  1  0
 36 37  2  0
 37 38  1  0
 39 38  2  0
 40 39  1  0
 41 15  1  0
 41 42  1  0
 41 51  1  0
 42 45  1  0
 43 47  1  0
 43 42  1  0
 44 43  2  0
 47 46  1  0
 49 47  1  0
 49 50  1  0
 49 48  1  0
 51 54  1  1
 51 52  1  0
 53 51  1  0
 55  5  1  0
 56 57  1  0
 56 55  2  0
 57 59  2  0
 58 57  1  0
 60 58  1  0
 61 58  1  0
 62 56  1  0
 63 62  1  0
 64 69  1  0
 65 66  1  0
 65 64  1  0
 67 66  1  0
 67 74  1  0
 67 68  1  0
 69 63  1  0
 69 68  1  0
 70 63  2  0
 71 72  2  0
 72 91  1  0
 73 72  1  0
 73 76  1  0
 74 75  1  0
 74 71  1  0
 75 73  2  0
 76 77  1  0
 77 78  2  0
 79 82  1  0
 79 78  1  0
 80 79  2  0
 81 80  1  0
 81 76  2  0
 82 83  1  0
 83 88  2  0
 83 84  1  0
 84 85  2  0
 86 85  1  0
 86 90  1  0
 87 86  2  0
 88 87  1  0
 89 88  1  0
 91 92  1  0
 92 94  1  0
 92 95  1  0
 93 91  2  0
 96 71  1  0
 96 97  1  0
 98 96  1  0
M  ISO  4  13 101  14 101  62 100  63 100
M  END
>  <TORSDO>  (2) 
F 23

>  <SCORE>  (2) 
-7.469

>  <name>  (2) 
1

>  <ligand_id>  (2) 
1

>  <original_smiles>  (2) 
[H]C(=C(C(=O)N([H])[H])C([H])([H])C(=O)N1C([H])([H])C([H])([H])C([H])([H])C([H])(n2nc(-c3c([H])c([H])c(Oc4c([H])c([H])c(F)c([H])c4F)c([H])c3[H])c(C(=O)N([H])[H])c2N([H])[H])C1([H])[H])c1c([H])c([H])c(N([H])C(=O)C([H])([H])C([H])([H])C([H])([H])Oc2c([H])c([H])c3c(c2[H])C([H])([H])N(C(=O)C([H])(N([H])C(=O)C([H])(N([H])C([H])([H])[H])C([H])([H])[H])C(C([H])([H])[H])(C([H])([H])[H])C([H])([H])[H])C([H])(C(=O)N([H])C2([H])c4c([H])c([H])c([H])c([H])c4C([H])([H])C([H])([H])C2([H])[H])C3([H])[H])c([H])c1[H]

>  <smiles>  (2) 
[H]C(=C(C(=O)N([H])[H])C([H])([H])C(=O)N1C([H])([H])C([H])([H])C([H])([H])C([H])(n2nc(-c3c([H])c([H])c(Oc4c([H])c([H])c(F)c([H])c4F)c([H])c3[H])c(C(=O)N([H])[H])c2N([H])[H])C1([H])[H])c1c([H])c([H])c(N([H])C(=O)C([H])([H])C([H])([H])C([H])([H])Oc2c([H])c([H])c3c(c2[H])C([H])([H])N(C(=O)C([H])(N([H])C(=O)C([H])(N([H])C([H])([H])[H])C([H])([H])[H])C(C([H])([H])[H])(C([H])([H])[H])C([H])([H])[H])C([H])(C(=O)N([H])C2([H])c4c([H])c([H])c([H])c([H])c4C([H])([H])C([H])([H])C2([H])[H])C3([H])[H])c([H])c1[H]

$$$$
2:0:0
     RDKit          3D

 95104  0  0  1  0  0  0  0  0999 V2000
  -29.4840  -23.3530   20.4540 C   0  0  0  0  0  3  0  0  0  0  0  0
  -29.3570  -24.6610   20.2170 C   0  0  0  0  0  0  0  0  0  0  0  0
  -30.6410  -25.4110   20.4520 C   0  0  0  0  0  3  0  0  0  0  0  0
  -31.6400  -24.2870   20.7910 C   0  0  0  0  0  3  0  0  0  0  0  0
  -30.8570  -23.0240   20.8940 N   0  0  2  0  0  4  0  0  0  0  0  0
  -30.8080  -22.7930   21.8750 H   0  0  0  0  0  0  0  0  0  0  0  0
  -28.0770  -25.3780   19.8290 C   0  0  0  0  0  2  0  0  0  0  0  0
  -28.1400  -26.7620   20.1740 O   0  0  0  0  0  0  0  0  0  0  0  0
  -24.6540  -32.0200   23.4090 C   0  0  0  0  0  0  0  0  0  0  0  0
  -26.9790  -27.5050   20.1890 C   0  0  0  0  0  0  0  0  0  0  0  0
  -23.3280  -30.7040   21.7880 C   0  0  0  0  0  3  0  0  0  0  0  0
  -24.6560  -29.1160   20.3000 C   0  0  0  0  0  0  0  0  0  0  0  0
  -25.8600  -30.9390   21.5170 C   0  0  0  0  0  2  0  0  0  0  0  0
  -25.8540  -29.5750   20.8600 C   0  0  0  0  0  0  0  0  0  0  0  0
  -27.0140  -28.7740   20.8060 C   0  0  0  0  0  3  0  0  0  0  0  0
  -25.7620  -27.0620   19.6160 C   0  0  0  0  0  3  0  0  0  0  0  0
  -24.6040  -27.8580   19.6770 C   0  0  0  0  0  3  0  0  0  0  0  0
  -23.4590  -30.0330   20.3940 C   0  0  0  0  0  2  0  0  0  0  0  0
  -24.6340  -31.2330   22.2960 N   0  0  0  0  0  0  0  0  0  0  0  0
  -23.6050  -32.3400   23.9860 O   0  0  0  0  0  0  0  0  0  0  0  0
  -22.6560  -29.7020   22.7540 C   0  0  0  0  0  0  0  0  0  0  0  0
  -21.3350  -29.5200   22.6020 N   0  0  0  0  0  0  0  0  0  0  0  0
  -23.3210  -29.0920   23.5950 O   0  0  0  0  0  0  0  0  0  0  0  0
  -20.8600  -30.0640   21.8940 H   0  0  0  0  0  0  0  0  0  0  0  0
  -17.9650  -28.2720   22.9810 C   0  0  0  0  0  0  0  0  0  0  0  0
  -20.4990  -28.6010   23.3730 C   0  0  0  0  0  3  0  0  0  0  0  0
  -20.6610  -27.1470   22.8720 C   0  0  0  0  0  2  0  0  0  0  0  0
  -19.6220  -26.7520   21.8190 C   0  0  0  0  0  2  0  0  0  0  0  0
  -18.2060  -26.8960   22.3810 C   0  0  0  0  0  2  0  0  0  0  0  0
  -19.0440  -29.0780   23.4320 C   0  0  0  0  0  0  0  0  0  0  0  0
  -18.7700  -30.3630   23.9480 C   0  0  0  0  0  3  0  0  0  0  0  0
  -17.4490  -30.8440   24.0190 C   0  0  0  0  0  3  0  0  0  0  0  0
  -16.3840  -30.0360   23.5860 C   0  0  0  0  0  3  0  0  0  0  0  0
  -16.6420  -28.7520   23.0730 C   0  0  0  0  0  3  0  0  0  0  0  0
  -25.9900  -32.5750   23.9960 C   0  0  0  0  0  3  0  0  0  0  0  0
  -25.7660  -33.9840   24.3460 N   0  0  0  0  0  0  0  0  0  0  0  0
  -26.1210  -35.0230   23.5800 C   0  0  0  0  0  0  0  0  0  0  0  0
  -26.7440  -34.8940   22.5230 O   0  0  0  0  0  0  0  0  0  0  0  0
  -25.2130  -34.1620   25.1710 H   0  0  0  0  0  0  0  0  0  0  0  0
  -24.4670  -36.8970   23.3060 C   0  0  0  0  0  1  0  0  0  0  0  0
  -25.7200  -36.4310   24.0630 C   0  0  0  0  0  3  0  0  0  0  0  0
  -27.9270  -37.2070   24.8080 C   0  0  0  0  0  1  0  0  0  0  0  0
  -26.7960  -37.4330   23.9120 N   0  0  0  0  0  0  0  0  0  0  0  0
  -26.4410  -38.3700   24.0820 H   0  0  0  0  0  0  0  0  0  0  0  0
  -26.5060  -31.7620   25.2470 C   0  0  1  0  0  0  0  0  0  0  0  0
  -25.4340  -31.5610   26.3420 C   0  0  0  0  0  1  0  0  0  0  0  0
  -27.0090  -30.3640   24.8170 C   0  0  0  0  0  1  0  0  0  0  0  0
  -27.7110  -32.4910   25.8850 C   0  0  0  0  0  1  0  0  0  0  0  0
  -31.4750  -21.8600   20.2100 C   0  0  0  0  0  2  0  0  0  0  0  0
  -32.7520  -21.3480   20.9150 C   0  0  0  0  0  2  0  0  0  0  0  0
  -32.4980  -20.4480   22.1420 C   0  0  0  0  0  2  0  0  0  0  0  0
  -30.6580  -18.6820   22.0740 C   0  0  0  0  0  3  0  0  0  0  0  0
  -32.8390  -18.1490   21.1310 C   0  0  0  0  0  3  0  0  0  0  0  0
  -30.1970  -17.3950   21.7290 C   0  0  0  0  0  3  0  0  0  0  0  0
  -32.3780  -16.8670   20.7840 C   0  0  0  0  0  3  0  0  0  0  0  0
  -31.9810  -19.0660   21.7710 C   0  0  0  0  0  0  0  0  0  0  0  0
  -31.0460  -16.4830   21.0660 C   0  0  0  0  0  0  0  0  0  0  0  0
  -30.9490  -14.3400   19.8040 C   0  0  0  0  0  0  0  0  0  0  0  0
  -30.4600  -12.2260   18.6250 C   0  0  0  0  0  2  0  0  0  0  0  0
  -29.4200  -12.4500   17.5120 C   0  0  0  0  0  2  0  0  0  0  0  0
  -27.9900  -12.3360   18.0710 C   0  0  0  0  0  2  0  0  0  0  0  0
  -27.7810  -13.1900   19.3500 C   0  0  0  0  0  3  0  0  0  0  0  0
  -28.9190  -12.9410   20.3650 C   0  0  0  0  0  2  0  0  0  0  0  0
  -30.2070  -13.2060   19.6920 N   0  0  0  0  0  0  0  0  0  0  0  0
  -31.9240  -14.5710   19.0820 O   0  0  0  0  0  0  0  0  0  0  0  0
  -30.5320  -15.1950   20.7520 N   0  0  0  0  0  0  0  0  0  0  0  0
  -29.6770  -14.9270   21.2160 H   0  0  0  0  0  0  0  0  0  0  0  0
  -25.4690  -13.8540   20.2670 C   0  0  0  0  0  0  0  0  0  0  0  0
  -24.4190  -13.1060   20.7280 C   0  0  0  0  0  0  0  0  0  0  0  0
  -24.8420  -11.7440   20.6530 C   0  0  0  0  0  0  0  0  0  0  0  0
  -26.4680  -12.9480   19.9440 N   0  0  0  0  0  0  0  0  0  0  0  0
  -26.0980  -11.6740   20.2290 N   0  0  0  0  0  0  0  0  0  0  0  0
  -24.1060  -10.4980   20.9060 C   0  0  0  0  0  0  0  0  0  0  0  0
  -24.5490   -9.5600   21.8630 C   0  0  0  0  0  3  0  0  0  0  0  0
  -23.8130   -8.3780   22.1010 C   0  0  0  0  0  3  0  0  0  0  0  0
  -22.6210   -8.1270   21.3810 C   0  0  0  0  0  0  0  0  0  0  0  0
  -22.1980   -9.0550   20.4120 C   0  0  0  0  0  3  0  0  0  0  0  0
  -22.9330  -10.2270   20.1730 C   0  0  0  0  0  3  0  0  0  0  0  0
  -21.8560   -6.9950   21.5250 O   0  0  0  0  0  0  0  0  0  0  0  0
  -21.7720   -6.3320   22.7230 C   0  0  0  0  0  0  0  0  0  0  0  0
  -21.3140   -6.9700   23.8980 C   0  0  0  0  0  3  0  0  0  0  0  0
  -21.1770   -6.2330   25.0910 C   0  0  0  0  0  3  0  0  0  0  0  0
  -21.4870   -4.8600   25.1110 C   0  0  0  0  0  0  0  0  0  0  0  0
  -21.9380   -4.2220   23.9420 C   0  0  0  0  0  3  0  0  0  0  0  0
  -22.0770   -4.9570   22.7500 C   0  0  0  0  0  0  0  0  0  0  0  0
  -22.4910   -4.3330   21.6210 F   0  0  0  0  0  0  0  0  0  0  0  0
  -21.3480   -4.1500   26.2540 F   0  0  0  0  0  0  0  0  0  0  0  0
  -23.0650  -13.6160   21.1290 C   0  0  0  0  0  0  0  0  0  0  0  0
  -22.4100  -12.9440   22.0690 N   0  0  0  0  0  0  0  0  0  0  0  0
  -22.5990  -14.6460   20.6430 O   0  0  0  0  0  0  0  0  0  0  0  0
  -22.8000  -12.1100   22.4830 H   0  0  0  0  0  0  0  0  0  0  0  0
  -21.5050  -13.2670   22.3790 H   0  0  0  0  0  0  0  0  0  0  0  0
  -25.6520  -15.2210   20.0780 N   0  0  0  0  0  0  0  0  0  0  0  0
  -24.9160  -15.8960   20.2530 H   0  0  0  0  0  0  0  0  0  0  0  0
  -26.4860  -15.6370   19.6820 H   0  0  0  0  0  0  0  0  0  0  0  0
  1  5  1  0
  2  3  1  0
  2  1  2  0
  3  4  2  0
  4  5  1  0
  5  6  1  1
  7  8  1  0
  7  2  1  0
  8 10  1  0
  9 20  2  0
 10 15  1  0
 11 19  1  0
 11 21  1  0
 12 18  1  0
 12 14  1  0
 13 19  1  0
 14 13  1  0
 15 14  2  0
 16 17  1  0
 16 10  2  0
 17 12  2  0
 18 11  1  0
 19  9  1  0
 21 23  2  0
 22 21  1  0
 24 22  1  0
 25 34  2  0
 25 30  1  0
 26 22  1  0
 26 30  1  0
 27 26  1  0
 28 29  1  0
 28 27  1  0
 29 25  1  0
 30 31  2  0
 31 32  1  0
 33 32  2  0
 34 33  1  0
 35  9  1  0
 35 36  1  0
 35 45  1  0
 36 39  1  0
 37 41  1  0
 37 36  1  0
 38 37  2  0
 41 40  1  0
 43 41  1  0
 43 44  1  0
 43 42  1  0
 45 48  1  1
 45 46  1  0
 47 45  1  0
 49  5  1  0
 49 50  1  0
 50 51  1  0
 53 56  2  0
 54 52  2  0
 55 57  2  0
 55 53  1  0
 56 52  1  0
 56 51  1  0
 57 54  1  0
 58 66  1  0
 59 64  1  0
 60 61  1  0
 60 59  1  0
 62 61  1  0
 62 71  1  0
 62 63  1  0
 64 58  1  0
 64 63  1  0
 65 58  2  0
 66 57  1  0
 66 67  1  0
 68 69  2  0
 69 88  1  0
 70 69  1  0
 70 73  1  0
 71 72  1  0
 71 68  1  0
 72 70  2  0
 73 74  1  0
 74 75  2  0
 76 79  1  0
 76 75  1  0
 77 76  2  0
 78 77  1  0
 78 73  2  0
 79 80  1  0
 80 85  2  0
 80 81  1  0
 81 82  2  0
 82 83  1  0
 83 87  1  0
 84 83  2  0
 85 84  1  0
 86 85  1  0
 88 89  1  0
 89 92  1  0
 89 91  1  0
 90 88  2  0
 93 94  1  0
 93 68  1  0
 95 93  1  0
M  ISO  4   7 101   8 101  58 100  66 100
M  END
>  <TORSDO>  (3) 
F 21

>  <SCORE>  (3) 
-12.164

>  <name>  (3) 
2

>  <ligand_id>  (3) 
2

>  <original_smiles>  (3) 
[H]C1=C(C([H])([H])Oc2c([H])c([H])c3c(c2[H])C([H])([H])N(C(=O)C([H])(N([H])C(=O)C([H])(N([H])C([H])([H])[H])C([H])([H])[H])C(C([H])([H])[H])(C([H])([H])[H])C([H])([H])[H])C([H])(C(=O)N([H])C2([H])c4c([H])c([H])c([H])c([H])c4C([H])([H])C([H])([H])C2([H])[H])C3([H])[H])C([H])([H])C([H])([H])[N+]1([H])C([H])([H])C([H])([H])C([H])([H])c1c([H])c([H])c(N([H])C(=O)N2C([H])([H])C([H])([H])C([H])([H])C([H])(n3nc(-c4c([H])c([H])c(Oc5c([H])c([H])c(F)c([H])c5F)c([H])c4[H])c(C(=O)N([H])[H])c3N([H])[H])C2([H])[H])c([H])c1[H]

>  <smiles>  (3) 
[H]C1=C(C([H])([H])Oc2c([H])c([H])c3c(c2[H])C([H])([H])N(C(=O)C([H])(N([H])C(=O)C([H])(N([H])C([H])([H])[H])C([H])([H])[H])C(C([H])([H])[H])(C([H])([H])[H])C([H])([H])[H])C([H])(C(=O)N([H])C2([H])c4c([H])c([H])c([H])c([H])c4C([H])([H])C([H])([H])C2([H])[H])C3([H])[H])C([H])([H])C([H])([H])[N+]1([H])C([H])([H])C([H])([H])C([H])([H])c1c([H])c([H])c(N([H])C(=O)N2C([H])([H])C([H])([H])C([H])([H])C([H])(n3nc(-c4c([H])c([H])c(Oc5c([H])c([H])c(F)c([H])c5F)c([H])c4[H])c(C(=O)N([H])[H])c3N([H])[H])C2([H])[H])c([H])c1[H]

$$$$
3:0:0
     RDKit          3D

 94102  0  0  1  0  0  0  0  0999 V2000
  -30.7510  -20.1150   21.1010 C   0  0  0  0  0  3  0  0  0  0  0  0
  -30.2730  -19.5140   18.7900 C   0  0  0  0  0  3  0  0  0  0  0  0
  -30.3770  -21.4470   20.8300 C   0  0  0  0  0  3  0  0  0  0  0  0
  -29.8950  -20.8430   18.5210 C   0  0  0  0  0  3  0  0  0  0  0  0
  -30.7200  -19.1460   20.0750 C   0  0  0  0  0  0  0  0  0  0  0  0
  -29.9630  -21.8220   19.5320 C   0  0  0  0  0  0  0  0  0  0  0  0
  -29.6200  -23.1390   19.1980 N   0  0  0  0  0  0  0  0  0  0  0  0
  -29.3800  -23.3110   18.2260 H   0  0  0  0  0  0  0  0  0  0  0  0
  -30.2290  -24.2460   19.9320 C   0  0  0  0  0  2  0  0  0  0  0  0
  -30.2040  -25.5540   19.1220 C   0  0  0  0  0  2  0  0  0  0  0  0
  -28.8070  -26.1790   18.9820 C   0  0  0  0  0  2  0  0  0  0  0  0
  -28.4610  -26.8600   20.1870 O   0  0  0  0  0  0  0  0  0  0  0  0
  -24.5510  -31.9370   23.2600 C   0  0  0  0  0  0  0  0  0  0  0  0
  -27.2600  -27.5310   20.1920 C   0  0  0  0  0  0  0  0  0  0  0  0
  -23.3640  -30.5130   21.6220 C   0  0  0  0  0  3  0  0  0  0  0  0
  -24.8370  -28.9850   20.2110 C   0  0  0  0  0  0  0  0  0  0  0  0
  -25.8840  -30.9000   21.4300 C   0  0  0  0  0  2  0  0  0  0  0  0
  -25.9840  -29.5260   20.8050 C   0  0  0  0  0  0  0  0  0  0  0  0
  -27.1930  -28.7990   20.8080 C   0  0  0  0  0  3  0  0  0  0  0  0
  -26.0900  -26.9890   19.6120 C   0  0  0  0  0  3  0  0  0  0  0  0
  -24.8820  -27.7110   19.6220 C   0  0  0  0  0  3  0  0  0  0  0  0
  -23.5840  -29.8270   20.2470 C   0  0  0  0  0  2  0  0  0  0  0  0
  -24.6180  -31.1320   22.1620 N   0  0  0  0  0  0  0  0  0  0  0  0
  -23.4660  -32.2010   23.7950 O   0  0  0  0  0  0  0  0  0  0  0  0
  -22.7230  -29.4890   22.5860 C   0  0  0  0  0  0  0  0  0  0  0  0
  -21.4030  -29.2880   22.4520 N   0  0  0  0  0  0  0  0  0  0  0  0
  -23.4110  -28.8780   23.4090 O   0  0  0  0  0  0  0  0  0  0  0  0
  -20.9100  -29.8320   21.7580 H   0  0  0  0  0  0  0  0  0  0  0  0
  -18.0410  -28.0570   22.9310 C   0  0  0  0  0  0  0  0  0  0  0  0
  -20.5930  -28.3460   23.2240 C   0  0  0  0  0  3  0  0  0  0  0  0
  -20.7170  -26.9120   22.6590 C   0  0  0  0  0  2  0  0  0  0  0  0
  -19.6270  -26.5690   21.6390 C   0  0  0  0  0  2  0  0  0  0  0  0
  -18.2390  -26.7030   22.2710 C   0  0  0  0  0  2  0  0  0  0  0  0
  -19.1470  -28.8350   23.3650 C   0  0  0  0  0  0  0  0  0  0  0  0
  -18.9090  -30.1010   23.9420 C   0  0  0  0  0  3  0  0  0  0  0  0
  -17.5980  -30.5900   24.0920 C   0  0  0  0  0  3  0  0  0  0  0  0
  -16.5060  -29.8080   23.6750 C   0  0  0  0  0  3  0  0  0  0  0  0
  -16.7280  -28.5440   23.1010 C   0  0  0  0  0  3  0  0  0  0  0  0
  -25.8290  -32.5850   23.8770 C   0  0  0  0  0  3  0  0  0  0  0  0
  -25.5080  -33.9820   24.1940 N   0  0  0  0  0  0  0  0  0  0  0  0
  -25.8470  -35.0310   23.4330 C   0  0  0  0  0  0  0  0  0  0  0  0
  -26.5350  -34.9240   22.4130 O   0  0  0  0  0  0  0  0  0  0  0  0
  -24.8980  -34.1380   24.9830 H   0  0  0  0  0  0  0  0  0  0  0  0
  -24.1180  -36.8110   23.0290 C   0  0  0  0  0  1  0  0  0  0  0  0
  -25.3420  -36.4180   23.8710 C   0  0  0  0  0  3  0  0  0  0  0  0
  -27.4550  -37.3140   24.7430 C   0  0  0  0  0  1  0  0  0  0  0  0
  -26.3720  -37.4750   23.7770 N   0  0  0  0  0  0  0  0  0  0  0  0
  -25.9580  -38.3940   23.9150 H   0  0  0  0  0  0  0  0  0  0  0  0
  -26.3530  -31.8270   25.1590 C   0  0  1  0  0  0  0  0  0  0  0  0
  -25.2580  -31.5700   26.2210 C   0  0  0  0  0  1  0  0  0  0  0  0
  -26.9640  -30.4600   24.7720 C   0  0  0  0  0  1  0  0  0  0  0  0
  -27.4840  -32.6450   25.8270 C   0  0  0  0  0  1  0  0  0  0  0  0
  -31.2100  -17.7260   20.3300 C   0  0  0  0  0  3  0  0  0  0  0  0
  -33.4400  -17.9590   19.5140 C   0  0  0  0  0  1  0  0  0  0  0  0
  -32.1570  -17.3720   19.3310 O   0  0  0  0  0  0  0  0  0  0  0  0
  -30.0400  -16.7110   20.3050 C   0  0  0  0  0  2  0  0  0  0  0  0
  -30.9130  -14.3970   20.1690 C   0  0  0  0  0  0  0  0  0  0  0  0
  -30.4770  -12.3100   18.9300 C   0  0  0  0  0  2  0  0  0  0  0  0
  -29.5150  -12.5800   17.7570 C   0  0  0  0  0  2  0  0  0  0  0  0
  -28.0490  -12.4720   18.2190 C   0  0  0  0  0  2  0  0  0  0  0  0
  -27.7680  -13.2850   19.5110 C   0  0  0  0  0  3  0  0  0  0  0  0
  -28.8410  -12.9990   20.5850 C   0  0  0  0  0  2  0  0  0  0  0  0
  -30.1650  -13.2720   19.9990 N   0  0  0  0  0  0  0  0  0  0  0  0
  -31.9800  -14.5660   19.5740 O   0  0  0  0  0  0  0  0  0  0  0  0
  -30.3530  -15.3490   22.3510 C   0  0  0  0  0  1  0  0  0  0  0  0
  -30.3400  -15.3890   20.8860 N   0  0  0  0  0  0  0  0  0  0  0  0
  -25.3870  -13.9280   20.2540 C   0  0  0  0  0  0  0  0  0  0  0  0
  -24.3200  -13.1720   20.6580 C   0  0  0  0  0  0  0  0  0  0  0  0
  -24.7680  -11.8160   20.6430 C   0  0  0  0  0  0  0  0  0  0  0  0
  -26.4200  -13.0330   20.0190 N   0  0  0  0  0  0  0  0  0  0  0  0
  -26.0510  -11.7590   20.3080 N   0  0  0  0  0  0  0  0  0  0  0  0
  -24.0360  -10.5640   20.8710 C   0  0  0  0  0  0  0  0  0  0  0  0
  -24.4540   -9.6310   21.8450 C   0  0  0  0  0  3  0  0  0  0  0  0
  -23.7240   -8.4420   22.0590 C   0  0  0  0  0  3  0  0  0  0  0  0
  -22.5600   -8.1790   21.2980 C   0  0  0  0  0  0  0  0  0  0  0  0
  -22.1610   -9.1000   20.3140 C   0  0  0  0  0  3  0  0  0  0  0  0
  -22.8920  -10.2800   20.1000 C   0  0  0  0  0  3  0  0  0  0  0  0
  -21.8010   -7.0400   21.4180 O   0  0  0  0  0  0  0  0  0  0  0  0
  -21.7010   -6.3620   22.6060 C   0  0  0  0  0  0  0  0  0  0  0  0
  -21.2370   -6.9890   23.7840 C   0  0  0  0  0  3  0  0  0  0  0  0
  -21.0850   -6.2380   24.9670 C   0  0  0  0  0  3  0  0  0  0  0  0
  -21.3870   -4.8630   24.9740 C   0  0  0  0  0  0  0  0  0  0  0  0
  -21.8430   -4.2360   23.8000 C   0  0  0  0  0  3  0  0  0  0  0  0
  -21.9970   -4.9840   22.6190 C   0  0  0  0  0  0  0  0  0  0  0  0
  -22.4170   -4.3710   21.4870 F   0  0  0  0  0  0  0  0  0  0  0  0
  -21.2330   -4.1400   26.1070 F   0  0  0  0  0  0  0  0  0  0  0  0
  -22.9320  -13.6670   20.9500 C   0  0  0  0  0  0  0  0  0  0  0  0
  -22.2180  -12.9990   21.8490 N   0  0  0  0  0  0  0  0  0  0  0  0
  -22.4900  -14.6830   20.4150 O   0  0  0  0  0  0  0  0  0  0  0  0
  -22.5880  -12.1780   22.3050 H   0  0  0  0  0  0  0  0  0  0  0  0
  -21.2880  -13.3150   22.0860 H   0  0  0  0  0  0  0  0  0  0  0  0
  -25.5610  -15.2930   20.0490 N   0  0  0  0  0  0  0  0  0  0  0  0
  -24.8050  -15.9590   20.1680 H   0  0  0  0  0  0  0  0  0  0  0  0
  -26.4180  -15.7190   19.7170 H   0  0  0  0  0  0  0  0  0  0  0  0
  2  5  1  0
  3  1  1  0
  4  2  2  0
  4  6  1  0
  5 53  1  0
  5  1  2  0
  6  3  2  0
  7  6  1  0
  7  9  1  0
  8  7  1  0
 10  9  1  0
 11 10  1  0
 11 12  1  0
 12 14  1  0
 13 24  2  0
 14 19  1  0
 15 23  1  0
 15 25  1  0
 16 22  1  0
 16 18  1  0
 17 23  1  0
 18 19  2  0
 18 17  1  0
 20 21  1  0
 20 14  2  0
 21 16  2  0
 22 15  1  0
 23 13  1  0
 25 27  2  0
 26 25  1  0
 28 26  1  0
 29 38  2  0
 29 34  1  0
 30 26  1  0
 30 34  1  0
 31 30  1  0
 32 33  1  0
 32 31  1  0
 33 29  1  0
 34 35  2  0
 35 36  1  0
 37 36  2  0
 38 37  1  0
 39 13  1  0
 39 40  1  0
 39 49  1  0
 40 43  1  0
 41 45  1  0
 41 40  1  0
 42 41  2  0
 45 44  1  0
 47 45  1  0
 47 48  1  0
 47 46  1  0
 49 52  1  1
 49 50  1  0
 51 49  1  0
 53 56  1  0
 55 54  1  0
 55 53  1  0
 56 66  1  0
 57 66  1  0
 58 63  1  0
 59 60  1  0
 59 58  1  0
 61 60  1  0
 61 70  1  0
 61 62  1  0
 63 57  1  0
 63 62  1  0
 64 57  2  0
 66 65  1  0
 67 68  2  0
 68 87  1  0
 69 68  1  0
 69 72  1  0
 70 67  1  0
 70 71  1  0
 71 69  2  0
 72 73  1  0
 73 74  2  0
 75 78  1  0
 75 74  1  0
 76 75  2  0
 77 76  1  0
 77 72  2  0
 78 79  1  0
 79 84  2  0
 79 80  1  0
 80 81  2  0
 81 82  1  0
 82 86  1  0
 83 82  2  0
 84 83  1  0
 85 84  1  0
 87 88  1  0
 88 91  1  0
 88 90  1  0
 89 87  2  0
 92 93  1  0
 92 67  1  0
 94 92  1  0
M  ISO  4  11 101  12 101  57 100  66 100
M  END
>  <TORSDO>  (4) 
F 23

>  <SCORE>  (4) 
-11.918

>  <name>  (4) 
3

>  <ligand_id>  (4) 
3

>  <original_smiles>  (4) 
[H]c1c([H])c([H])c2c(c1[H])C([H])([H])C([H])([H])C([H])([H])C2([H])N([H])C(=O)C1([H])N(C(=O)C([H])(N([H])C(=O)C([H])(N([H])C([H])([H])[H])C([H])([H])[H])C(C([H])([H])[H])(C([H])([H])[H])C([H])([H])[H])C([H])([H])c2c([H])c(OC([H])([H])C([H])([H])C([H])([H])N([H])c3c([H])c([H])c(C([H])(OC([H])([H])[H])C([H])([H])N(C(=O)N4C([H])([H])C([H])([H])C([H])([H])C([H])(n5nc(-c6c([H])c([H])c(Oc7c([H])c([H])c(F)c([H])c7F)c([H])c6[H])c(C(=O)N([H])[H])c5N([H])[H])C4([H])[H])C([H])([H])[H])c([H])c3[H])c([H])c([H])c2C1([H])[H]

>  <smiles>  (4) 
[H]c1c([H])c([H])c2c(c1[H])C([H])([H])C([H])([H])C([H])([H])C2([H])N([H])C(=O)C1([H])N(C(=O)C([H])(N([H])C(=O)C([H])(N([H])C([H])([H])[H])C([H])([H])[H])C(C([H])([H])[H])(C([H])([H])[H])C([H])([H])[H])C([H])([H])c2c([H])c(OC([H])([H])C([H])([H])C([H])([H])N([H])c3c([H])c([H])c(C([H])(OC([H])([H])[H])C([H])([H])N(C(=O)N4C([H])([H])C([H])([H])C([H])([H])C([H])(n5nc(-c6c([H])c([H])c(Oc7c([H])c([H])c(F)c([H])c7F)c([H])c6[H])c(C(=O)N([H])[H])c5N([H])[H])C4([H])[H])C([H])([H])[H])c([H])c3[H])c([H])c([H])c2C1([H])[H]

$$$$
4:0:0
     RDKit          3D

 94103  0  0  1  0  0  0  0  0999 V2000
  -28.7530  -24.7100   23.0450 C   0  0  0  0  0  2  0  0  0  0  0  0
  -28.3600  -23.2320   22.9980 C   0  0  0  0  0  2  0  0  0  0  0  0
  -29.1000  -23.9300   20.8310 C   0  0  0  0  0  2  0  0  0  0  0  0
  -28.5200  -25.1250   21.6000 C   0  0  0  0  0  3  0  0  0  0  0  0
  -28.7340  -22.7480   21.6480 N   0  0  1  0  0  4  0  0  0  0  0  0
  -27.8850  -22.3760   21.2460 H   0  0  0  0  0  0  0  0  0  0  0  0
  -29.0780  -26.5010   21.2200 C   0  0  0  0  0  2  0  0  0  0  0  0
  -28.4800  -26.8850   19.9840 O   0  0  0  0  0  0  0  0  0  0  0  0
  -24.6020  -31.9250   23.2210 C   0  0  0  0  0  0  0  0  0  0  0  0
  -27.2970  -27.5810   20.0780 C   0  0  0  0  0  0  0  0  0  0  0  0
  -23.3950  -30.5260   21.5730 C   0  0  0  0  0  3  0  0  0  0  0  0
  -24.8630  -29.0100   20.1330 C   0  0  0  0  0  0  0  0  0  0  0  0
  -25.9120  -30.9230   21.3590 C   0  0  0  0  0  2  0  0  0  0  0  0
  -26.0120  -29.5550   20.7180 C   0  0  0  0  0  0  0  0  0  0  0  0
  -27.2290  -28.8440   20.6980 C   0  0  0  0  0  3  0  0  0  0  0  0
  -26.1380  -27.0380   19.4870 C   0  0  0  0  0  3  0  0  0  0  0  0
  -24.9170  -27.7410   19.5210 C   0  0  0  0  0  3  0  0  0  0  0  0
  -23.6050  -29.8500   20.1890 C   0  0  0  0  0  2  0  0  0  0  0  0
  -24.6560  -31.1380   22.1110 N   0  0  0  0  0  0  0  0  0  0  0  0
  -23.5220  -32.1840   23.7660 O   0  0  0  0  0  0  0  0  0  0  0  0
  -22.7620  -29.4900   22.5270 C   0  0  0  0  0  0  0  0  0  0  0  0
  -21.4350  -29.3040   22.4140 N   0  0  0  0  0  0  0  0  0  0  0  0
  -23.4540  -28.8570   23.3270 O   0  0  0  0  0  0  0  0  0  0  0  0
  -20.9320  -29.8750   21.7500 H   0  0  0  0  0  0  0  0  0  0  0  0
  -18.0750  -28.0900   22.9110 C   0  0  0  0  0  0  0  0  0  0  0  0
  -20.6310  -28.3510   23.1750 C   0  0  0  0  0  3  0  0  0  0  0  0
  -20.7340  -26.9260   22.5780 C   0  0  0  0  0  2  0  0  0  0  0  0
  -19.6260  -26.6110   21.5680 C   0  0  0  0  0  2  0  0  0  0  0  0
  -18.2480  -26.7480   22.2210 C   0  0  0  0  0  2  0  0  0  0  0  0
  -19.1930  -28.8480   23.3450 C   0  0  0  0  0  0  0  0  0  0  0  0
  -18.9770  -30.1050   23.9500 C   0  0  0  0  0  3  0  0  0  0  0  0
  -17.6730  -30.6030   24.1260 C   0  0  0  0  0  3  0  0  0  0  0  0
  -16.5660  -29.8420   23.7090 C   0  0  0  0  0  3  0  0  0  0  0  0
  -16.7700  -28.5860   23.1090 C   0  0  0  0  0  3  0  0  0  0  0  0
  -25.8900  -32.5580   23.8430 C   0  0  0  0  0  3  0  0  0  0  0  0
  -26.4150  -31.7800   25.1110 C   0  0  1  0  0  0  0  0  0  0  0  0
  -25.3290  -31.5370   26.1840 C   0  0  0  0  0  1  0  0  0  0  0  0
  -26.9990  -30.4090   24.7010 C   0  0  0  0  0  1  0  0  0  0  0  0
  -27.5630  -32.5770   25.7750 C   0  0  0  0  0  1  0  0  0  0  0  0
  -25.5830  -33.9540   24.1770 N   0  0  0  0  0  0  0  0  0  0  0  0
  -25.9130  -35.0080   23.4170 C   0  0  0  0  0  0  0  0  0  0  0  0
  -26.5840  -34.9070   22.3850 O   0  0  0  0  0  0  0  0  0  0  0  0
  -24.9980  -34.1060   24.9840 H   0  0  0  0  0  0  0  0  0  0  0  0
  -24.1840  -36.7940   23.0530 C   0  0  0  0  0  1  0  0  0  0  0  0
  -25.4200  -36.3940   23.8740 C   0  0  0  0  0  3  0  0  0  0  0  0
  -27.5470  -37.2780   24.7180 C   0  0  0  0  0  1  0  0  0  0  0  0
  -26.4520  -37.4480   23.7680 N   0  0  0  0  0  0  0  0  0  0  0  0
  -26.0410  -38.3660   23.9190 H   0  0  0  0  0  0  0  0  0  0  0  0
  -29.7010  -21.6270   21.6880 C   0  0  0  0  0  2  0  0  0  0  0  0
  -29.9540  -20.9700   20.3170 C   0  0  0  0  0  2  0  0  0  0  0  0
  -31.3220  -18.8940   20.9320 C   0  0  0  0  0  3  0  0  0  0  0  0
  -28.9840  -18.6520   20.2640 C   0  0  0  0  0  3  0  0  0  0  0  0
  -31.3860  -17.5070   21.1790 C   0  0  0  0  0  3  0  0  0  0  0  0
  -29.0440  -17.2750   20.5150 C   0  0  0  0  0  3  0  0  0  0  0  0
  -30.1120  -19.4710   20.4830 C   0  0  0  0  0  0  0  0  0  0  0  0
  -30.2470  -16.7010   20.9680 C   0  0  0  0  0  0  0  0  0  0  0  0
  -30.7770  -14.4510   20.3300 C   0  0  0  0  0  0  0  0  0  0  0  0
  -30.3640  -12.3780   19.0800 C   0  0  0  0  0  2  0  0  0  0  0  0
  -29.4000  -12.6710   17.9110 C   0  0  0  0  0  2  0  0  0  0  0  0
  -27.9290  -12.5530   18.3630 C   0  0  0  0  0  2  0  0  0  0  0  0
  -27.6430  -13.3430   19.6690 C   0  0  0  0  0  3  0  0  0  0  0  0
  -28.7180  -13.0430   20.7390 C   0  0  0  0  0  2  0  0  0  0  0  0
  -30.0520  -13.3130   20.1670 N   0  0  0  0  0  0  0  0  0  0  0  0
  -31.8160  -14.6930   19.7100 O   0  0  0  0  0  0  0  0  0  0  0  0
  -30.2660  -15.3140   21.2110 N   0  0  0  0  0  0  0  0  0  0  0  0
  -29.4580  -14.9470   21.6890 H   0  0  0  0  0  0  0  0  0  0  0  0
  -25.2530  -13.9640   20.4210 C   0  0  0  0  0  0  0  0  0  0  0  0
  -24.1880  -13.1980   20.8140 C   0  0  0  0  0  0  0  0  0  0  0  0
  -24.6430  -11.8460   20.7810 C   0  0  0  0  0  0  0  0  0  0  0  0
  -26.2920  -13.0800   20.1730 N   0  0  0  0  0  0  0  0  0  0  0  0
  -25.9260  -11.7990   20.4450 N   0  0  0  0  0  0  0  0  0  0  0  0
  -23.9150  -10.5850   20.9930 C   0  0  0  0  0  0  0  0  0  0  0  0
  -24.3600   -9.6170   21.9180 C   0  0  0  0  0  3  0  0  0  0  0  0
  -23.6310   -8.4250   22.1140 C   0  0  0  0  0  3  0  0  0  0  0  0
  -22.4390   -8.1940   21.3880 C   0  0  0  0  0  0  0  0  0  0  0  0
  -22.0080   -9.1530   20.4530 C   0  0  0  0  0  3  0  0  0  0  0  0
  -22.7400  -10.3370   20.2540 C   0  0  0  0  0  3  0  0  0  0  0  0
  -21.6800   -7.0540   21.4980 O   0  0  0  0  0  0  0  0  0  0  0  0
  -21.6590   -6.3070   22.6490 C   0  0  0  0  0  0  0  0  0  0  0  0
  -21.2810   -6.8600   23.8910 C   0  0  0  0  0  3  0  0  0  0  0  0
  -21.2080   -6.0420   25.0360 C   0  0  0  0  0  3  0  0  0  0  0  0
  -21.5050   -4.6690   24.9410 C   0  0  0  0  0  0  0  0  0  0  0  0
  -21.8780   -4.1150   23.7020 C   0  0  0  0  0  3  0  0  0  0  0  0
  -21.9540   -4.9310   22.5610 C   0  0  0  0  0  0  0  0  0  0  0  0
  -22.2950   -4.3880   21.3680 F   0  0  0  0  0  0  0  0  0  0  0  0
  -21.4280   -3.8810   26.0370 F   0  0  0  0  0  0  0  0  0  0  0  0
  -22.7970  -13.6860   21.1130 C   0  0  0  0  0  0  0  0  0  0  0  0
  -22.0770  -13.0050   21.9970 N   0  0  0  0  0  0  0  0  0  0  0  0
  -22.3570  -14.7140   20.5990 O   0  0  0  0  0  0  0  0  0  0  0  0
  -22.4340  -12.1730   22.4400 H   0  0  0  0  0  0  0  0  0  0  0  0
  -21.1470  -13.3250   22.2330 H   0  0  0  0  0  0  0  0  0  0  0  0
  -25.4150  -15.3330   20.2290 N   0  0  0  0  0  0  0  0  0  0  0  0
  -24.6360  -15.9760   20.3140 H   0  0  0  0  0  0  0  0  0  0  0  0
  -26.2420  -15.7600   19.8350 H   0  0  0  0  0  0  0  0  0  0  0  0
  2  1  1  0
  3  4  1  0
  3  5  1  0
  4  7  1  0
  4  1  1  0
  5 49  1  0
  5  2  1  0
  5  6  1  6
  8 10  1  0
  8  7  1  0
  9 20  2  0
 10 15  1  0
 11 19  1  0
 11 21  1  0
 12 18  1  0
 12 14  1  0
 13 19  1  0
 14 13  1  0
 15 14  2  0
 16 17  1  0
 16 10  2  0
 17 12  2  0
 18 11  1  0
 19  9  1  0
 21 23  2  0
 22 21  1  0
 24 22  1  0
 25 34  2  0
 25 30  1  0
 26 22  1  0
 26 30  1  0
 27 26  1  0
 28 29  1  0
 28 27  1  0
 29 25  1  0
 30 31  2  0
 31 32  1  0
 33 32  2  0
 34 33  1  0
 35  9  1  0
 35 40  1  0
 35 36  1  0
 36 39  1  1
 36 37  1  0
 38 36  1  0
 40 43  1  0
 41 45  1  0
 41 40  1  0
 42 41  2  0
 45 44  1  0
 47 45  1  0
 47 48  1  0
 47 46  1  0
 50 55  1  0
 50 49  1  0
 51 53  1  0
 52 55  1  0
 52 54  2  0
 54 56  1  0
 55 51  2  0
 56 53  2  0
 56 65  1  0
 57 65  1  0
 58 63  1  0
 59 60  1  0
 59 58  1  0
 61 60  1  0
 61 70  1  0
 61 62  1  0
 63 57  1  0
 63 62  1  0
 64 57  2  0
 65 66  1  0
 67 68  2  0
 68 87  1  0
 69 68  1  0
 69 72  1  0
 70 67  1  0
 70 71  1  0
 71 69  2  0
 72 73  1  0
 73 74  2  0
 75 78  1  0
 75 74  1  0
 76 75  2  0
 77 76  1  0
 77 72  2  0
 78 79  1  0
 79 80  1  0
 80 81  2  0
 82 81  1  0
 82 86  1  0
 83 82  2  0
 84 79  2  0
 84 83  1  0
 85 84  1  0
 87 88  1  0
 88 91  1  0
 88 90  1  0
 89 87  2  0
 92 93  1  0
 92 67  1  0
 94 92  1  0
M  ISO  4   7 101   8 101  57 100  65 100
M  END
>  <TORSDO>  (5) 
F 20

>  <SCORE>  (5) 
-13.419

>  <name>  (5) 
4

>  <ligand_id>  (5) 
4

>  <original_smiles>  (5) 
[H]c1c([H])c([H])c2c(c1[H])C([H])([H])C([H])([H])C([H])([H])C2([H])N([H])C(=O)C1([H])N(C(=O)C([H])(N([H])C(=O)C([H])(N([H])C([H])([H])[H])C([H])([H])[H])C(C([H])([H])[H])(C([H])([H])[H])C([H])([H])[H])C([H])([H])c2c([H])c(OC([H])([H])C3([H])C([H])([H])C([H])([H])[N+]([H])(C([H])([H])C([H])([H])c4c([H])c([H])c(N([H])C(=O)N5C([H])([H])C([H])([H])C([H])([H])C([H])(n6nc(-c7c([H])c([H])c(Oc8c([H])c([H])c(F)c([H])c8F)c([H])c7[H])c(C(=O)N([H])[H])c6N([H])[H])C5([H])[H])c([H])c4[H])C3([H])[H])c([H])c([H])c2C1([H])[H]

>  <smiles>  (5) 
[H]c1c([H])c([H])c2c(c1[H])C([H])([H])C([H])([H])C([H])([H])C2([H])N([H])C(=O)C1([H])N(C(=O)C([H])(N([H])C(=O)C([H])(N([H])C([H])([H])[H])C([H])([H])[H])C(C([H])([H])[H])(C([H])([H])[H])C([H])([H])[H])C([H])([H])c2c([H])c(OC([H])([H])C3([H])C([H])([H])C([H])([H])[N+]([H])(C([H])([H])C([H])([H])c4c([H])c([H])c(N([H])C(=O)N5C([H])([H])C([H])([H])C([H])([H])C([H])(n6nc(-c7c([H])c([H])c(Oc8c([H])c([H])c(F)c([H])c8F)c([H])c7[H])c(C(=O)N([H])[H])c6N([H])[H])C5([H])[H])c([H])c4[H])C3([H])[H])c([H])c([H])c2C1([H])[H]

$$$$
5:0:0
     RDKit          3D

 82 86  0  0  1  0  0  0  0  0999 V2000
  -28.2030  -25.2140   20.1870 O   0  0  0  0  0  1  0  0  0  0  0  0
  -24.6590  -31.8230   23.1160 C   0  0  0  0  0  0  0  0  0  0  0  0
  -27.2270  -26.5180   20.2190 C   0  0  0  0  0  0  0  0  0  0  0  0
  -23.5030  -30.4040   21.4840 C   0  0  0  0  0  3  0  0  0  0  0  0
  -24.9680  -28.6960   20.1210 C   0  0  0  0  0  0  0  0  0  0  0  0
  -26.0920  -30.4850   21.4080 C   0  0  0  0  0  2  0  0  0  0  0  0
  -26.1660  -29.0180   20.7700 C   0  0  0  0  0  0  0  0  0  0  0  0
  -27.2690  -27.9690   20.7710 C   0  0  0  0  0  3  0  0  0  0  0  0
  -25.9850  -26.4690   19.5130 C   0  0  0  0  0  3  0  0  0  0  0  0
  -24.9320  -27.4500   19.4670 C   0  0  0  0  0  3  0  0  0  0  0  0
  -23.7680  -29.6710   20.1330 C   0  0  0  0  0  2  0  0  0  0  0  0
  -24.7790  -30.9440   22.0540 N   0  0  0  0  0  0  0  0  0  0  0  0
  -23.5550  -32.1300   23.6020 O   0  0  0  0  0  0  0  0  0  0  0  0
  -22.7610  -29.4600   22.4680 C   0  0  0  0  0  0  0  0  0  0  0  0
  -21.4220  -29.3490   22.3610 N   0  0  0  0  0  0  0  0  0  0  0  0
  -23.4040  -28.8170   23.3000 O   0  0  0  0  0  0  0  0  0  0  0  0
  -20.9470  -29.9240   21.6780 H   0  0  0  0  0  0  0  0  0  0  0  0
  -18.0030  -28.1330   22.8590 C   0  0  0  0  0  0  0  0  0  0  0  0
  -20.5950  -28.3830   23.0970 C   0  0  0  0  0  0  0  0  0  0  0  0
  -20.7720  -26.9760   22.4620 C   0  0  0  0  0  3  0  0  0  0  0  0
  -19.5380  -26.4150   21.7220 C   0  0  0  0  0  3  0  0  0  0  0  0
  -18.0990  -26.8440   22.0560 C   0  0  0  0  0  3  0  0  0  0  0  0
  -19.1450  -28.8670   23.2920 C   0  0  0  0  0  0  0  0  0  0  0  0
  -18.9400  -30.1130   23.9270 C   0  0  0  0  0  3  0  0  0  0  0  0
  -17.6430  -30.6230   24.1300 C   0  0  0  0  0  3  0  0  0  0  0  0
  -16.5250  -29.8800   23.7210 C   0  0  0  0  0  3  0  0  0  0  0  0
  -16.7080  -28.6360   23.0960 C   0  0  0  0  0  3  0  0  0  0  0  0
  -25.9010  -32.4970   23.7720 C   0  0  0  0  0  3  0  0  0  0  0  0
  -25.5540  -33.8960   24.1020 N   0  0  0  0  0  0  0  0  0  0  0  0
  -25.8860  -34.9730   23.3740 C   0  0  0  0  0  0  0  0  0  0  0  0
  -26.5670  -34.8910   22.3500 O   0  0  0  0  0  0  0  0  0  0  0  0
  -24.9460  -34.0310   24.8960 H   0  0  0  0  0  0  0  0  0  0  0  0
  -24.1500  -36.7720   23.0460 C   0  0  0  0  0  1  0  0  0  0  0  0
  -25.3900  -36.3550   23.8530 C   0  0  0  0  0  3  0  0  0  0  0  0
  -27.5120  -37.2520   24.7100 C   0  0  0  0  0  1  0  0  0  0  0  0
  -26.4160  -37.4190   23.7590 N   0  0  0  0  0  0  0  0  0  0  0  0
  -26.0000  -38.3340   23.9110 H   0  0  0  0  0  0  0  0  0  0  0  0
  -26.3860  -31.7540   25.0790 C   0  0  1  0  0  0  0  0  0  0  0  0
  -25.2660  -31.5290   26.1240 C   0  0  0  0  0  1  0  0  0  0  0  0
  -26.9880  -30.3730   24.7440 C   0  0  0  0  0  1  0  0  0  0  0  0
  -27.5140  -32.5680   25.7560 C   0  0  0  0  0  1  0  0  0  0  0  0
  -28.2300  -23.3320   20.4390 C   0  0  0  0  0 15  0  0  0  0  0  0
  -28.7870  -21.3790   19.8640 C   0  0  0  0  0 15  0  0  0  0  0  0
  -29.3980  -19.4400   20.4120 C   0  0  0  0  0  1  0  0  0  0  0  0
  -30.1690  -16.0920   20.0360 C   0  0  0  0  0  0  0  0  0  0  0  0
  -30.3590  -13.4710   19.1990 C   0  0  0  0  0  2  0  0  0  0  0  0
  -29.4770  -12.8700   18.0550 C   0  0  0  0  0  2  0  0  0  0  0  0
  -28.1030  -12.4290   18.5740 C   0  0  0  0  0  2  0  0  0  0  0  0
  -27.5630  -13.4490   19.5940 C   0  0  0  0  0  3  0  0  0  0  0  0
  -28.6020  -13.9210   20.6470 C   0  0  0  0  0  2  0  0  0  0  0  0
  -29.6750  -14.6720   19.9180 N   0  0  0  0  0  0  0  0  0  0  0  0
  -31.4150  -15.9560   19.9590 O   0  0  0  0  0  0  0  0  0  0  0  0
  -29.4220  -17.5600   20.0550 N   0  0  0  0  0  0  0  0  0  0  0  0
  -28.4530  -17.3130   19.9040 H   0  0  0  0  0  0  0  0  0  0  0  0
  -25.2310  -13.9310   20.4500 C   0  0  0  0  0  0  0  0  0  0  0  0
  -24.1900  -13.1380   20.8360 C   0  0  0  0  0  0  0  0  0  0  0  0
  -24.6710  -11.7930   20.7770 C   0  0  0  0  0  0  0  0  0  0  0  0
  -26.2760  -13.0750   20.1660 N   0  0  0  0  0  0  0  0  0  0  0  0
  -25.9570  -11.7790   20.4270 N   0  0  0  0  0  0  0  0  0  0  0  0
  -23.9560  -10.5240   20.9740 C   0  0  0  0  0  0  0  0  0  0  0  0
  -24.4050   -9.5560   21.8990 C   0  0  0  0  0  3  0  0  0  0  0  0
  -23.6830   -8.3560   22.0890 C   0  0  0  0  0  3  0  0  0  0  0  0
  -22.4960   -8.1180   21.3550 C   0  0  0  0  0  0  0  0  0  0  0  0
  -22.0660   -9.0740   20.4200 C   0  0  0  0  0  3  0  0  0  0  0  0
  -22.7890  -10.2650   20.2280 C   0  0  0  0  0  3  0  0  0  0  0  0
  -21.7460   -6.9710   21.4550 O   0  0  0  0  0  0  0  0  0  0  0  0
  -21.7090   -6.2310   22.6100 C   0  0  0  0  0  0  0  0  0  0  0  0
  -21.2840   -6.7860   23.8360 C   0  0  0  0  0  3  0  0  0  0  0  0
  -21.1960   -5.9730   24.9840 C   0  0  0  0  0  3  0  0  0  0  0  0
  -21.5230   -4.6050   24.9060 C   0  0  0  0  0  0  0  0  0  0  0  0
  -21.9420   -4.0500   23.6840 C   0  0  0  0  0  3  0  0  0  0  0  0
  -22.0320   -4.8600   22.5390 C   0  0  0  0  0  0  0  0  0  0  0  0
  -22.4140   -4.3150   21.3590 F   0  0  0  0  0  0  0  0  0  0  0  0
  -21.4320   -3.8220   26.0060 F   0  0  0  0  0  0  0  0  0  0  0  0
  -22.7960  -13.6030   21.1400 C   0  0  0  0  0  0  0  0  0  0  0  0
  -22.0920  -12.8960   22.0160 N   0  0  0  0  0  0  0  0  0  0  0  0
  -22.3430  -14.6300   20.6380 O   0  0  0  0  0  0  0  0  0  0  0  0
  -22.4740  -12.0650   22.4440 H   0  0  0  0  0  0  0  0  0  0  0  0
  -21.1580  -13.1890   22.2630 H   0  0  0  0  0  0  0  0  0  0  0  0
  -25.3710  -15.3060   20.2780 N   0  0  0  0  0  0  0  0  0  0  0  0
  -24.5980  -15.9490   20.4140 H   0  0  0  0  0  0  0  0  0  0  0  0
  -26.2020  -15.7550   19.9170 H   0  0  0  0  0  0  0  0  0  0  0  0
  1  3  1  0
  2 13  2  0
  3  8  1  0
  4 12  1  0
  4 14  1  0
  5 11  1  0
  5  7  1  0
  6 12  1  0
  7  8  2  0
  7  6  1  0
  9  3  2  0
 10  9  1  0
 10  5  2  0
 11  4  1  0
 12  2  1  0
 14 16  2  0
 15 14  1  0
 15 19  1  0
 17 15  1  0
 18 27  2  0
 18 23  1  0
 19 23  1  0
 20 19  2  0
 21 22  2  0
 21 20  1  0
 22 18  1  0
 23 24  2  0
 24 25  1  0
 26 25  2  0
 27 26  1  0
 28  2  1  0
 28 29  1  0
 28 38  1  0
 29 32  1  0
 30 34  1  0
 30 29  1  0
 31 30  2  0
 34 33  1  0
 36 34  1  0
 36 37  1  0
 36 35  1  0
 38 41  1  1
 38 39  1  0
 40 38  1  0
 45 53  1  0
 46 51  1  0
 47 48  1  0
 47 46  1  0
 49 48  1  0
 49 58  1  0
 49 50  1  0
 51 45  1  0
 51 50  1  0
 52 45  2  0
 53 44  1  0
 54 53  1  0
 55 56  2  0
 56 75  1  0
 57 56  1  0
 57 60  1  0
 58 59  1  0
 58 55  1  0
 59 57  2  0
 60 61  1  0
 61 62  2  0
 63 66  1  0
 63 62  1  0
 64 63  2  0
 65 64  1  0
 65 60  2  0
 66 67  1  0
 67 68  1  0
 68 69  2  0
 70 69  1  0
 70 74  1  0
 71 70  2  0
 72 67  2  0
 72 71  1  0
 73 72  1  0
 75 76  1  0
 76 79  1  0
 76 78  1  0
 77 75  2  0
 80 81  1  0
 80 55  1  0
 82 80  1  0
M  ISO  4   1 101  42 101  45 100  53 100
M  END
>  <TORSDO>  (6) 
F 18

>  <SCORE>  (6) 
-16.165

>  <name>  (6) 
5

>  <ligand_id>  (6) 
5

>  <original_smiles>  (6) 
[H]c1c([H])c([H])c2c(c1[H])C([H])([H])C([H])([H])C([H])([H])C2([H])N([H])C(=O)C1([H])N(C(=O)C([H])(N([H])C(=O)C([H])(N([H])C([H])([H])[H])C([H])([H])[H])C(C([H])([H])[H])(C([H])([H])[H])C([H])([H])[H])C([H])([H])c2c([H])c(OC([H])([H])C([H])([H])C([H])([H])N([H])C(=O)N3C([H])([H])C([H])([H])C([H])([H])C([H])(n4nc(-c5c([H])c([H])c(Oc6c([H])c([H])c(F)c([H])c6F)c([H])c5[H])c(C(=O)N([H])[H])c4N([H])[H])C3([H])[H])c([H])c([H])c2C1([H])[H]

>  <smiles>  (6) 
[H]c1c([H])c([H])c2c(c1[H])C([H])([H])C([H])([H])C([H])([H])C2([H])N([H])C(=O)C1([H])N(C(=O)C([H])(N([H])C(=O)C([H])(N([H])C([H])([H])[H])C([H])([H])[H])C(C([H])([H])[H])(C([H])([H])[H])C([H])([H])[H])C([H])([H])c2c([H])c(OC([H])([H])C([H])([H])C([H])([H])N([H])C(=O)N3C([H])([H])C([H])([H])C([H])([H])C([H])(n4nc(-c5c([H])c([H])c(Oc6c([H])c([H])c(F)c([H])c6F)c([H])c5[H])c(C(=O)N([H])[H])c4N([H])[H])C3([H])[H])c([H])c([H])c2C1([H])[H]

$$$$
6:0:0
     RDKit          3D

 95104  0  0  1  0  0  0  0  0999 V2000
  -29.1550  -24.5470   21.0990 C   0  0  0  0  0  0  0  0  0  0  0  0
  -28.8300  -25.8650   21.0970 C   0  0  0  0  0  3  0  0  0  0  0  0
  -29.5080  -23.7680   22.3430 C   0  0  0  0  0  2  0  0  0  0  0  0
  -29.2570  -23.5910   19.9140 C   0  0  0  0  0  2  0  0  0  0  0  0
  -30.2000  -22.5100   21.8080 C   0  0  0  0  0  2  0  0  0  0  0  0
  -29.5620  -22.2450   20.4970 N   0  0  2  0  0  4  0  0  0  0  0  0
  -28.6700  -21.8140   20.6780 H   0  0  0  0  0  0  0  0  0  0  0  0
  -28.5680  -26.6230   19.9790 O   0  0  0  0  0  0  0  0  0  0  0  0
  -24.7070  -31.6890   23.2500 C   0  0  0  0  0  0  0  0  0  0  0  0
  -27.4330  -27.4020   20.0210 C   0  0  0  0  0  0  0  0  0  0  0  0
  -23.5400  -30.3530   21.5240 C   0  0  0  0  0  3  0  0  0  0  0  0
  -25.0320  -28.8920   20.0560 C   0  0  0  0  0  0  0  0  0  0  0  0
  -26.0660  -30.7390   21.3870 C   0  0  0  0  0  2  0  0  0  0  0  0
  -26.1750  -29.3960   20.6920 C   0  0  0  0  0  0  0  0  0  0  0  0
  -27.3830  -28.6580   20.6760 C   0  0  0  0  0  3  0  0  0  0  0  0
  -26.2790  -26.9180   19.3770 C   0  0  0  0  0  3  0  0  0  0  0  0
  -25.0780  -27.6510   19.3960 C   0  0  0  0  0  3  0  0  0  0  0  0
  -23.7800  -29.7400   20.1180 C   0  0  0  0  0  2  0  0  0  0  0  0
  -24.7880  -30.9390   22.1120 N   0  0  0  0  0  0  0  0  0  0  0  0
  -23.6140  -31.9260   23.7840 O   0  0  0  0  0  0  0  0  0  0  0  0
  -22.8810  -29.2840   22.4260 C   0  0  0  0  0  0  0  0  0  0  0  0
  -21.5610  -29.0960   22.2670 N   0  0  0  0  0  0  0  0  0  0  0  0
  -23.5560  -28.6290   23.2250 O   0  0  0  0  0  0  0  0  0  0  0  0
  -21.0750  -29.6820   21.6030 H   0  0  0  0  0  0  0  0  0  0  0  0
  -18.1960  -27.8280   22.6290 C   0  0  0  0  0  0  0  0  0  0  0  0
  -20.7400  -28.1150   22.9790 C   0  0  0  0  0  3  0  0  0  0  0  0
  -20.8810  -26.7080   22.3520 C   0  0  0  0  0  2  0  0  0  0  0  0
  -19.8120  -26.4080   21.2960 C   0  0  0  0  0  2  0  0  0  0  0  0
  -18.4120  -26.5090   21.9080 C   0  0  0  0  0  2  0  0  0  0  0  0
  -19.2900  -28.5900   23.1180 C   0  0  0  0  0  0  0  0  0  0  0  0
  -19.0360  -29.8260   23.7500 C   0  0  0  0  0  3  0  0  0  0  0  0
  -17.7190  -30.3020   23.8980 C   0  0  0  0  0  3  0  0  0  0  0  0
  -16.6390  -29.5370   23.4270 C   0  0  0  0  0  3  0  0  0  0  0  0
  -16.8770  -28.3020   22.7980 C   0  0  0  0  0  3  0  0  0  0  0  0
  -25.9780  -32.3000   23.9180 C   0  0  0  0  0  3  0  0  0  0  0  0
  -26.5050  -31.4530   25.1420 C   0  0  1  0  0  0  0  0  0  0  0  0
  -25.4120  -31.1270   26.1850 C   0  0  0  0  0  1  0  0  0  0  0  0
  -27.1150  -30.1170   24.6590 C   0  0  0  0  0  1  0  0  0  0  0  0
  -27.6390  -32.2210   25.8610 C   0  0  0  0  0  1  0  0  0  0  0  0
  -25.6430  -33.6670   24.3380 N   0  0  0  0  0  0  0  0  0  0  0  0
  -25.9590  -34.7720   23.6510 C   0  0  0  0  0  0  0  0  0  0  0  0
  -26.6360  -34.7490   22.6180 O   0  0  0  0  0  0  0  0  0  0  0  0
  -25.0420  -33.7580   25.1440 H   0  0  0  0  0  0  0  0  0  0  0  0
  -24.1920  -36.5450   23.4110 C   0  0  0  0  0  1  0  0  0  0  0  0
  -25.4450  -36.1190   24.1930 C   0  0  0  0  0  3  0  0  0  0  0  0
  -27.5640  -36.9940   25.0720 C   0  0  0  0  0  1  0  0  0  0  0  0
  -26.4550  -37.1980   24.1430 N   0  0  0  0  0  0  0  0  0  0  0  0
  -26.0310  -38.1000   24.3480 H   0  0  0  0  0  0  0  0  0  0  0  0
  -30.3160  -21.3320   19.5820 C   0  0  0  0  0  2  0  0  0  0  0  0
  -30.5150  -18.9110   18.8580 C   0  0  0  0  0  3  0  0  0  0  0  0
  -30.5520  -17.5170   19.0780 C   0  0  0  0  0  3  0  0  0  0  0  0
  -30.3940  -19.2940   21.2420 C   0  0  0  0  0  3  0  0  0  0  0  0
  -30.4440  -17.8890   21.4830 C   0  0  0  0  0  0  0  0  0  0  0  0
  -30.4250  -19.8260   19.9290 C   0  0  0  0  0  0  0  0  0  0  0  0
  -30.5140  -16.9790   20.3860 C   0  0  0  0  0  0  0  0  0  0  0  0
  -31.1210  -14.5420   20.0230 C   0  0  0  0  0  0  0  0  0  0  0  0
  -30.7440  -12.3670   18.9180 C   0  0  0  0  0  2  0  0  0  0  0  0
  -29.7440  -12.5820   17.7610 C   0  0  0  0  0  2  0  0  0  0  0  0
  -28.2910  -12.4740   18.2660 C   0  0  0  0  0  2  0  0  0  0  0  0
  -28.0370  -13.3200   19.5410 C   0  0  0  0  0  3  0  0  0  0  0  0
  -29.1430  -13.0810   20.5950 C   0  0  0  0  0  2  0  0  0  0  0  0
  -30.4430  -13.3620   19.9610 N   0  0  0  0  0  0  0  0  0  0  0  0
  -32.2240  -14.6960   19.4890 O   0  0  0  0  0  0  0  0  0  0  0  0
  -30.4610  -15.5560   20.6270 N   0  0  0  0  0  0  0  0  0  0  0  0
  -29.6810  -15.2520   21.1880 H   0  0  0  0  0  0  0  0  0  0  0  0
  -25.7220  -13.9860   20.4450 C   0  0  0  0  0  0  0  0  0  0  0  0
  -24.6400  -13.2400   20.8300 C   0  0  0  0  0  0  0  0  0  0  0  0
  -25.0290  -11.8740   20.6790 C   0  0  0  0  0  0  0  0  0  0  0  0
  -26.7050  -13.0750   20.0880 N   0  0  0  0  0  0  0  0  0  0  0  0
  -26.2950  -11.7960   20.2860 N   0  0  0  0  0  0  0  0  0  0  0  0
  -24.2520  -10.6370   20.8340 C   0  0  0  0  0  0  0  0  0  0  0  0
  -24.6330   -9.6380   21.7570 C   0  0  0  0  0  3  0  0  0  0  0  0
  -23.8620   -8.4640   21.9010 C   0  0  0  0  0  3  0  0  0  0  0  0
  -22.6950   -8.2810   21.1200 C   0  0  0  0  0  0  0  0  0  0  0  0
  -22.3340   -9.2680   20.1860 C   0  0  0  0  0  3  0  0  0  0  0  0
  -23.1050  -10.4350   20.0410 C   0  0  0  0  0  3  0  0  0  0  0  0
  -21.8990   -7.1630   21.1740 O   0  0  0  0  0  0  0  0  0  0  0  0
  -21.6960   -6.4790   22.3450 C   0  0  0  0  0  0  0  0  0  0  0  0
  -21.2010   -7.1170   23.5040 C   0  0  0  0  0  3  0  0  0  0  0  0
  -20.9430   -6.3630   24.6660 C   0  0  0  0  0  3  0  0  0  0  0  0
  -21.1670   -4.9730   24.6700 C   0  0  0  0  0  0  0  0  0  0  0  0
  -21.6540   -4.3350   23.5150 C   0  0  0  0  0  3  0  0  0  0  0  0
  -21.9160   -5.0860   22.3550 C   0  0  0  0  0  0  0  0  0  0  0  0
  -22.3650   -4.4640   21.2390 F   0  0  0  0  0  0  0  0  0  0  0  0
  -20.9110   -4.2470   25.7820 F   0  0  0  0  0  0  0  0  0  0  0  0
  -23.2900  -13.7600   21.2310 C   0  0  0  0  0  0  0  0  0  0  0  0
  -22.6060  -13.0640   22.1330 N   0  0  0  0  0  0  0  0  0  0  0  0
  -22.8520  -14.8170   20.7770 O   0  0  0  0  0  0  0  0  0  0  0  0
  -22.9750  -12.2080   22.5190 H   0  0  0  0  0  0  0  0  0  0  0  0
  -21.7020  -13.3920   22.4440 H   0  0  0  0  0  0  0  0  0  0  0  0
  -25.9480  -15.3560   20.3500 N   0  0  0  0  0  0  0  0  0  0  0  0
  -25.2290  -16.0390   20.5640 H   0  0  0  0  0  0  0  0  0  0  0  0
  -26.8090  -15.7760   20.0230 H   0  0  0  0  0  0  0  0  0  0  0  0
  -30.9460  -18.0260   23.9520 C   0  0  0  0  0  2  0  0  0  0  0  0
  -30.4670  -17.3810   22.8730 C   0  0  0  0  0  3  0  0  0  0  0  0
  1  3  1  0
  2  1  2  0
  4  6  1  0
  4  1  1  0
  5  3  1  0
  6  7  1  1
  6  5  1  0
  8 10  1  0
  8  2  1  0
  9 20  2  0
 10 15  1  0
 11 19  1  0
 11 21  1  0
 12 18  1  0
 12 14  1  0
 13 19  1  0
 14 13  1  0
 15 14  2  0
 16 17  1  0
 16 10  2  0
 17 12  2  0
 18 11  1  0
 19  9  1  0
 21 23  2  0
 22 21  1  0
 24 22  1  0
 25 34  2  0
 25 30  1  0
 26 22  1  0
 26 30  1  0
 27 26  1  0
 28 29  1  0
 28 27  1  0
 29 25  1  0
 30 31  2  0
 31 32  1  0
 33 32  2  0
 34 33  1  0
 35  9  1  0
 35 40  1  0
 35 36  1  0
 36 39  1  1
 36 37  1  0
 38 36  1  0
 40 43  1  0
 41 45  1  0
 41 40  1  0
 42 41  2  0
 45 44  1  0
 47 45  1  0
 47 48  1  0
 47 46  1  0
 49 54  1  0
 49  6  1  0
 50 51  2  0
 50 54  1  0
 51 55  1  0
 52 53  1  0
 53 95  1  0
 54 52  2  0
 55 64  1  0
 55 53  2  0
 56 64  1  0
 57 62  1  0
 58 59  1  0
 58 57  1  0
 60 59  1  0
 60 69  1  0
 60 61  1  0
 62 56  1  0
 62 61  1  0
 63 56  2  0
 64 65  1  0
 66 67  2  0
 67 86  1  0
 68 67  1  0
 68 71  1  0
 69 70  1  0
 69 66  1  0
 70 68  2  0
 71 72  1  0
 72 73  2  0
 74 77  1  0
 74 73  1  0
 75 74  2  0
 76 75  1  0
 76 71  2  0
 77 78  1  0
 78 83  2  0
 78 79  1  0
 79 80  2  0
 80 81  1  0
 81 85  1  0
 82 81  2  0
 83 82  1  0
 84 83  1  0
 86 87  1  0
 87 90  1  0
 87 89  1  0
 88 86  2  0
 91 66  1  0
 91 92  1  0
 93 91  1  0
 95 94  2  0
M  ISO  4   2 101   8 101  56 100  64 100
M  END
>  <TORSDO>  (7) 
F 19

>  <SCORE>  (7) 
-12.742

>  <name>  (7) 
6

>  <ligand_id>  (7) 
6

>  <original_smiles>  (7) 
[H]C([H])=C([H])c1c([H])c(C([H])([H])[N+]2([H])C([H])([H])C(=C([H])Oc3c([H])c([H])c4c(c3[H])C([H])([H])N(C(=O)C([H])(N([H])C(=O)C([H])(N([H])C([H])([H])[H])C([H])([H])[H])C(C([H])([H])[H])(C([H])([H])[H])C([H])([H])[H])C([H])(C(=O)N([H])C3([H])c5c([H])c([H])c([H])c([H])c5C([H])([H])C([H])([H])C3([H])[H])C4([H])[H])C([H])([H])C2([H])[H])c([H])c([H])c1N([H])C(=O)N1C([H])([H])C([H])([H])C([H])([H])C([H])(n2nc(-c3c([H])c([H])c(Oc4c([H])c([H])c(F)c([H])c4F)c([H])c3[H])c(C(=O)N([H])[H])c2N([H])[H])C1([H])[H]

>  <smiles>  (7) 
[H]C([H])=C([H])c1c([H])c(C([H])([H])[N+]2([H])C([H])([H])C(=C([H])Oc3c([H])c([H])c4c(c3[H])C([H])([H])N(C(=O)C([H])(N([H])C(=O)C([H])(N([H])C([H])([H])[H])C([H])([H])[H])C(C([H])([H])[H])(C([H])([H])[H])C([H])([H])[H])C([H])(C(=O)N([H])C3([H])c5c([H])c([H])c([H])c([H])c5C([H])([H])C([H])([H])C3([H])[H])C4([H])[H])C([H])([H])C2([H])[H])c([H])c([H])c1N([H])C(=O)N1C([H])([H])C([H])([H])C([H])([H])C([H])(n2nc(-c3c([H])c([H])c(Oc4c([H])c([H])c(F)c([H])c4F)c([H])c3[H])c(C(=O)N([H])[H])c2N([H])[H])C1([H])[H]

$$$$
7:0:0
     RDKit          3D

 91 99  0  0  1  0  0  0  0  0999 V2000
  -27.7830  -21.7030   19.9170 C   0  0  0  0  0  3  0  0  0  0  0  0
  -26.7970  -20.7520   19.6690 C   0  0  0  0  0  3  0  0  0  0  0  0
  -28.4880  -19.0560   19.5860 C   0  0  0  0  0  3  0  0  0  0  0  0
  -29.1950  -21.4890   20.0390 C   0  0  0  0  0  0  0  0  0  0  0  0
  -29.6050  -19.9110   19.8170 C   0  0  0  0  0  0  0  0  0  0  0  0
  -27.1460  -19.4250   19.5120 C   0  0  0  0  0  0  0  0  0  0  0  0
  -26.1600  -18.4700   19.2790 N   0  0  0  0  0  0  0  0  0  0  0  0
  -25.1870  -18.6940   19.4610 H   0  0  0  0  0  0  0  0  0  0  0  0
  -26.3730  -17.4820   19.3620 H   0  0  0  0  0  0  0  0  0  0  0  0
  -29.5750  -23.0970   20.3620 C   0  0  0  0  0  0  0  0  0  0  0  0
  -29.4320  -24.3890   20.5950 C   0  0  0  0  0  0  0  0  0  0  0  0
  -29.3750  -25.8150   20.9830 O   0  0  0  0  0  0  0  0  0  0  0  0
  -25.6260  -31.7490   24.0530 C   0  0  0  0  0  0  0  0  0  0  0  0
  -28.3560  -26.9400   20.9650 C   0  0  0  0  0  0  0  0  0  0  0  0
  -24.5650  -30.4860   22.2270 C   0  0  0  0  0  3  0  0  0  0  0  0
  -26.1080  -28.9260   20.8380 C   0  0  0  0  0  0  0  0  0  0  0  0
  -27.1400  -30.6230   22.3320 C   0  0  0  0  0  2  0  0  0  0  0  0
  -27.2410  -29.2450   21.5970 C   0  0  0  0  0  0  0  0  0  0  0  0
  -28.3540  -28.2760   21.6360 C   0  0  0  0  0  3  0  0  0  0  0  0
  -27.2020  -26.8030   20.1570 C   0  0  0  0  0  3  0  0  0  0  0  0
  -26.1210  -27.7280   20.1030 C   0  0  0  0  0  3  0  0  0  0  0  0
  -24.9100  -29.8810   20.8370 C   0  0  0  0  0  2  0  0  0  0  0  0
  -25.7950  -30.9790   22.9270 N   0  0  0  0  0  0  0  0  0  0  0  0
  -24.4980  -32.0310   24.4920 O   0  0  0  0  0  0  0  0  0  0  0  0
  -23.7640  -29.4520   23.0630 C   0  0  0  0  0  0  0  0  0  0  0  0
  -22.4670  -29.2640   22.7520 N   0  0  0  0  0  0  0  0  0  0  0  0
  -24.3240  -28.8180   23.9610 O   0  0  0  0  0  0  0  0  0  0  0  0
  -22.0690  -29.8280   22.0150 H   0  0  0  0  0  0  0  0  0  0  0  0
  -19.0660  -27.9960   22.8010 C   0  0  0  0  0  0  0  0  0  0  0  0
  -21.5730  -28.2840   23.3770 C   0  0  0  0  0  3  0  0  0  0  0  0
  -21.7660  -26.8800   22.7570 C   0  0  0  0  0  2  0  0  0  0  0  0
  -20.7970  -26.5910   21.6060 C   0  0  0  0  0  2  0  0  0  0  0  0
  -19.3470  -26.6850   22.0870 C   0  0  0  0  0  2  0  0  0  0  0  0
  -20.1120  -28.7550   23.3930 C   0  0  0  0  0  0  0  0  0  0  0  0
  -19.7970  -29.9800   24.0190 C   0  0  0  0  0  3  0  0  0  0  0  0
  -18.4700  -30.4500   24.0580 C   0  0  0  0  0  3  0  0  0  0  0  0
  -17.4380  -29.6890   23.4810 C   0  0  0  0  0  3  0  0  0  0  0  0
  -17.7360  -28.4640   22.8590 C   0  0  0  0  0  3  0  0  0  0  0  0
  -26.8420  -32.3260   24.8400 C   0  0  0  0  0  3  0  0  0  0  0  0
  -27.0990  -31.5860   26.2120 C   0  0  1  0  0  0  0  0  0  0  0  0
  -25.8350  -31.4520   27.0960 C   0  0  0  0  0  1  0  0  0  0  0  0
  -27.6550  -30.1630   25.9790 C   0  0  0  0  0  1  0  0  0  0  0  0
  -28.1720  -32.3470   27.0250 C   0  0  0  0  0  1  0  0  0  0  0  0
  -26.5910  -33.7590   25.0810 N   0  0  0  0  0  0  0  0  0  0  0  0
  -27.0790  -34.7630   24.3400 C   0  0  0  0  0  0  0  0  0  0  0  0
  -27.8480  -34.5750   23.3940 O   0  0  0  0  0  0  0  0  0  0  0  0
  -25.9220  -33.9820   25.8050 H   0  0  0  0  0  0  0  0  0  0  0  0
  -25.5260  -36.6610   23.7650 C   0  0  0  0  0  1  0  0  0  0  0  0
  -26.6520  -36.2000   24.7050 C   0  0  0  0  0  3  0  0  0  0  0  0
  -28.7500  -36.9830   25.7170 C   0  0  0  0  0  1  0  0  0  0  0  0
  -27.7630  -37.1770   24.6580 N   0  0  0  0  0  0  0  0  0  0  0  0
  -27.4110  -38.1270   24.7230 H   0  0  0  0  0  0  0  0  0  0  0  0
  -30.8770  -18.6590   19.7400 C   0  0  0  0  0  2  0  0  0  0  0  0
  -31.6380  -15.6820   20.1260 C   0  0  0  0  0  0  0  0  0  0  0  0
  -31.7600  -13.1120   19.5770 C   0  0  0  0  0  2  0  0  0  0  0  0
  -30.8720  -12.6540   18.3890 C   0  0  0  0  0  2  0  0  0  0  0  0
  -29.4380  -12.3570   18.8590 C   0  0  0  0  0  2  0  0  0  0  0  0
  -28.9220  -13.4420   19.8340 C   0  0  0  0  0  3  0  0  0  0  0  0
  -29.9450  -13.8200   20.9280 C   0  0  0  0  0  2  0  0  0  0  0  0
  -31.1390  -14.3350   20.2310 N   0  0  0  0  0  0  0  0  0  0  0  0
  -32.8620  -15.6770   19.9180 O   0  0  0  0  0  0  0  0  0  0  0  0
  -30.8180  -16.9560   20.0690 N   0  0  0  0  0  0  0  0  0  0  0  0
  -29.8580  -16.6910   20.2270 H   0  0  0  0  0  0  0  0  0  0  0  0
  -26.6260  -14.0270   20.7620 C   0  0  0  0  0  0  0  0  0  0  0  0
  -25.5410  -13.2710   21.1010 C   0  0  0  0  0  0  0  0  0  0  0  0
  -25.9300  -11.9090   20.9070 C   0  0  0  0  0  0  0  0  0  0  0  0
  -27.6060  -13.1330   20.3760 N   0  0  0  0  0  0  0  0  0  0  0  0
  -27.2040  -11.8430   20.5310 N   0  0  0  0  0  0  0  0  0  0  0  0
  -25.1420  -10.6730   20.9990 C   0  0  0  0  0  0  0  0  0  0  0  0
  -25.3680   -9.7240   22.0200 C   0  0  0  0  0  3  0  0  0  0  0  0
  -24.5790   -8.5550   22.1000 C   0  0  0  0  0  3  0  0  0  0  0  0
  -23.5500   -8.3270   21.1560 C   0  0  0  0  0  0  0  0  0  0  0  0
  -23.3450   -9.2640   20.1270 C   0  0  0  0  0  3  0  0  0  0  0  0
  -24.1340  -10.4230   20.0470 C   0  0  0  0  0  3  0  0  0  0  0  0
  -22.7510   -7.2100   21.1390 O   0  0  0  0  0  0  0  0  0  0  0  0
  -22.2200   -6.6890   22.2920 C   0  0  0  0  0  0  0  0  0  0  0  0
  -21.3850   -7.4520   23.1390 C   0  0  0  0  0  3  0  0  0  0  0  0
  -20.8030   -6.8570   24.2760 C   0  0  0  0  0  3  0  0  0  0  0  0
  -21.0460   -5.5000   24.5630 C   0  0  0  0  0  0  0  0  0  0  0  0
  -21.8730   -4.7370   23.7180 C   0  0  0  0  0  3  0  0  0  0  0  0
  -22.4540   -5.3300   22.5840 C   0  0  0  0  0  0  0  0  0  0  0  0
  -23.2320   -4.5860   21.7620 F   0  0  0  0  0  0  0  0  0  0  0  0
  -20.4810   -4.9250   25.6500 F   0  0  0  0  0  0  0  0  0  0  0  0
  -24.1840  -13.7890   21.4800 C   0  0  0  0  0  0  0  0  0  0  0  0
  -23.4740  -13.0710   22.3410 N   0  0  0  0  0  0  0  0  0  0  0  0
  -23.7680  -14.8620   21.0480 O   0  0  0  0  0  0  0  0  0  0  0  0
  -23.8250  -12.1990   22.7100 H   0  0  0  0  0  0  0  0  0  0  0  0
  -22.5650  -13.3970   22.6370 H   0  0  0  0  0  0  0  0  0  0  0  0
  -26.8560  -15.3990   20.7190 N   0  0  0  0  0  0  0  0  0  0  0  0
  -26.1410  -16.0750   20.9620 H   0  0  0  0  0  0  0  0  0  0  0  0
  -27.6960  -15.8300   20.3580 H   0  0  0  0  0  0  0  0  0  0  0  0
  1  4  1  0
  2  1  2  0
  3  5  1  0
  4 10  1  0
  5  4  2  0
  6  3  2  0
  6  2  1  0
  7  9  1  0
  7  8  1  0
  7  6  1  0
 10 11  3  0
 11 12  1  0
 13 24  2  0
 14 12  1  0
 14 19  1  0
 15 23  1  0
 15 25  1  0
 16 18  1  0
 17 23  1  0
 18 19  2  0
 18 17  1  0
 20 14  2  0
 21 20  1  0
 21 16  2  0
 22 16  1  0
 22 15  1  0
 23 13  1  0
 25 27  2  0
 26 25  1  0
 28 26  1  0
 29 38  2  0
 29 34  1  0
 30 26  1  0
 30 34  1  0
 31 30  1  0
 32 33  1  0
 32 31  1  0
 33 29  1  0
 34 35  2  0
 35 36  1  0
 37 36  2  0
 38 37  1  0
 39 13  1  0
 39 44  1  0
 39 40  1  0
 40 43  1  1
 40 41  1  0
 42 40  1  0
 44 47  1  0
 45 49  1  0
 45 44  1  0
 46 45  2  0
 49 48  1  0
 51 49  1  0
 51 52  1  0
 51 50  1  0
 53  5  1  0
 53 62  1  0
 54 60  1  0
 55 60  1  0
 56 57  1  0
 56 55  1  0
 58 57  1  0
 58 67  1  0
 58 59  1  0
 60 59  1  0
 61 54  2  0
 62 54  1  0
 62 63  1  0
 64 65  2  0
 65 84  1  0
 66 69  1  0
 66 65  1  0
 67 68  1  0
 67 64  1  0
 68 66  2  0
 69 70  1  0
 70 71  2  0
 72 71  1  0
 73 72  2  0
 74 73  1  0
 74 69  2  0
 75 72  1  0
 75 76  1  0
 76 81  2  0
 76 77  1  0
 77 78  2  0
 78 79  1  0
 79 83  1  0
 80 79  2  0
 81 80  1  0
 82 81  1  0
 84 85  1  0
 85 88  1  0
 85 87  1  0
 86 84  2  0
 89 64  1  0
 89 90  1  0
 91 89  1  0
M  ISO  4  11 101  12 101  54 100  62 100
M  END
>  <TORSDO>  (8) 
F 19

>  <SCORE>  (8) 
-9.706

>  <name>  (8) 
7

>  <ligand_id>  (8) 
7

>  <original_smiles>  (8) 
[H]c1c([H])c([H])c2c(c1[H])C([H])([H])C([H])([H])C([H])([H])C2([H])N([H])C(=O)C1([H])N(C(=O)C([H])(N([H])C(=O)C([H])(N([H])C([H])([H])[H])C([H])([H])[H])C(C([H])([H])[H])(C([H])([H])[H])C([H])([H])[H])C([H])([H])c2c([H])c(OC#Cc3c([H])c([H])c(N([H])[H])c([H])c3C([H])([H])N([H])C(=O)N3C([H])([H])C([H])([H])C([H])([H])C([H])(n4nc(-c5c([H])c([H])c(Oc6c([H])c([H])c(F)c([H])c6F)c([H])c5[H])c(C(=O)N([H])[H])c4N([H])[H])C3([H])[H])c([H])c([H])c2C1([H])[H]

>  <smiles>  (8) 
[H]c1c([H])c([H])c2c(c1[H])C([H])([H])C([H])([H])C([H])([H])C2([H])N([H])C(=O)C1([H])N(C(=O)C([H])(N([H])C(=O)C([H])(N([H])C([H])([H])[H])C([H])([H])[H])C(C([H])([H])[H])(C([H])([H])[H])C([H])([H])[H])C([H])([H])c2c([H])c(OC#Cc3c([H])c([H])c(N([H])[H])c([H])c3C([H])([H])N([H])C(=O)N3C([H])([H])C([H])([H])C([H])([H])C([H])(n4nc(-c5c([H])c([H])c(Oc6c([H])c([H])c(F)c([H])c6F)c([H])c5[H])c(C(=O)N([H])[H])c4N([H])[H])C3([H])[H])c([H])c([H])c2C1([H])[H]

$$$$
8:0:0
     RDKit          3D

 95 96  0  0  1  0  0  0  0  0999 V2000
  -25.8960  -19.4260   19.6960 C   0  0  0  0  0  0  0  0  0  0  0  0
  -26.0230  -18.0030   20.0030 N   0  0  0  0  0  0  0  0  0  0  0  0
  -24.8780  -19.7490   19.0830 O   0  0  0  0  0  0  0  0  0  0  0  0
  -26.9030  -17.7860   20.4550 H   0  0  0  0  0  0  0  0  0  0  0  0
  -24.9900  -16.7270   20.0270 C   0  0  0  0  0  2  0  0  0  0  0  0
  -26.4330  -14.2320   18.5200 C   0  0  0  0  0 15  0  0  0  0  0  0
  -24.9820  -13.7780   21.9570 C   0  0  0  0  0 15  0  0  0  0  0  0
  -27.1950  -10.8900   20.4540 C   0  0  0  0  0 15  0  0  0  0  0  0
  -25.2110  -15.0330   20.1140 C   0  0  0  0  0  1  0  0  0  0  0  0
  -27.5760  -12.4140   18.6950 C   0  0  0  0  0  1  0  0  0  0  0  0
  -25.8930  -11.7690   22.1440 C   0  0  0  0  0  2  0  0  0  0  0  0
  -25.7620  -11.1160   23.3260 F   0  0  0  0  0  0  0  0  0  0  0  0
  -29.1520  -13.1500   18.2720 C   0  0  0  0  0  2  0  0  0  0  0  0
  -31.4120  -13.4290   20.3310 C   0  0  0  0  0  0  0  0  0  0  0  0
  -31.8250  -11.1300   20.3470 C   0  0  0  0  0  2  0  0  0  0  0  0
  -31.0270  -10.9110   19.0800 C   0  0  0  0  0  2  0  0  0  0  0  0
  -29.5780  -10.8980   19.5730 C   0  0  0  0  0  2  0  0  0  0  0  0
  -29.0790  -12.0050   20.7700 C   0  0  0  0  0  3  0  0  0  0  0  0
  -30.0540  -12.0210   21.8300 C   0  0  0  0  0  2  0  0  0  0  0  0
  -31.2290  -12.2770   21.0110 N   0  0  0  0  0  0  0  0  0  0  0  0
  -32.4480  -14.0060   20.7100 O   0  0  0  0  0  0  0  0  0  0  0  0
  -30.5310  -13.7260   19.1480 N   0  0  0  0  0  0  0  0  0  0  0  0
  -30.8670  -14.5750   18.7130 H   0  0  0  0  0  0  0  0  0  0  0  0
  -26.8970  -13.1560   20.7840 C   0  0  0  0  0  0  0  0  0  0  0  0
  -25.1560  -12.5030   20.3680 C   0  0  0  0  0  0  0  0  0  0  0  0
  -24.9970  -11.2590   20.1210 C   0  0  0  0  0  2  0  0  0  0  0  0
  -27.7020  -12.6340   21.1110 N   0  0  0  0  0  2  0  0  0  0  0  0
  -25.9370  -12.3960   20.4760 N   0  0  0  0  0  0  0  0  0  0  0  0
  -24.4770   -9.9240   20.7790 C   0  0  0  0  0  3  0  0  0  0  0  0
  -24.9530   -8.9770   21.7760 C   0  0  0  0  0  3  0  0  0  0  0  0
  -24.2250   -7.8070   22.1330 C   0  0  0  0  0  3  0  0  0  0  0  0
  -23.0170   -7.5150   21.4640 C   0  0  0  0  0  0  0  0  0  0  0  0
  -22.5940   -8.3810   20.4500 C   0  0  0  0  0  3  0  0  0  0  0  0
  -23.3060   -9.5390   20.1230 C   0  0  0  0  0  3  0  0  0  0  0  0
  -22.2400   -6.3960   21.6350 O   0  0  0  0  0  0  0  0  0  0  0  0
  -22.0620   -5.7830   22.8470 C   0  0  0  0  0  0  0  0  0  0  0  0
  -21.6280   -6.4820   23.9940 C   0  0  0  0  0  3  0  0  0  0  0  0
  -21.3770   -5.7790   25.1910 C   0  0  0  0  0  3  0  0  0  0  0  0
  -21.5530   -4.3820   25.2390 C   0  0  0  0  0  0  0  0  0  0  0  0
  -21.9730   -3.6850   24.0940 C   0  0  0  0  0  3  0  0  0  0  0  0
  -22.2210   -4.3830   22.9000 C   0  0  0  0  0  0  0  0  0  0  0  0
  -22.5980   -3.7040   21.7900 F   0  0  0  0  0  0  0  0  0  0  0  0
  -21.3140   -3.7080   26.3880 F   0  0  0  0  0  0  0  0  0  0  0  0
  -23.5590  -12.9640   20.4180 C   0  0  0  0  0  0  0  0  0  0  0  0
  -22.7770  -12.4180   21.3610 N   0  0  0  0  0  0  0  0  0  0  0  0
  -23.1000  -13.7950   19.6440 O   0  0  0  0  0  0  0  0  0  0  0  0
  -23.1550  -11.7570   22.0220 H   0  0  0  0  0  0  0  0  0  0  0  0
  -21.8040  -12.6810   21.4230 H   0  0  0  0  0  0  0  0  0  0  0  0
  -27.7340  -14.3830   20.9640 N   0  0  0  0  0  4  0  0  0  0  0  0
  -27.2580  -15.1470   20.5060 H   0  0  0  0  0  0  0  0  0  0  0  0
  -28.7040  -14.3240   20.7050 H   0  0  0  0  0  0  0  0  0  0  0  0
  -26.8980  -20.7570   20.1190 C   0  0  0  0  0  2  0  0  0  0  0  0
  -27.0400  -22.3940   19.4630 C   0  0  0  0  0  3  0  0  0  0  0  0
  -27.6280  -23.8820   20.2020 C   0  0  0  0  0  3  0  0  0  0  0  0
  -28.1820  -25.3410   19.7500 O   0  0  0  0  0  0  0  0  0  0  0  0
  -24.8420  -31.1280   22.8970 C   0  0  0  0  0  0  0  0  0  0  0  0
  -27.3530  -26.5150   19.6840 C   0  0  0  0  0  0  0  0  0  0  0  0
  -23.6980  -29.8110   21.1670 C   0  0  0  0  0  3  0  0  0  0  0  0
  -25.1690  -28.3810   19.6380 C   0  0  0  0  0  0  0  0  0  0  0  0
  -26.2540  -30.1040   21.0610 C   0  0  0  0  0  2  0  0  0  0  0  0
  -26.3370  -28.7520   20.3180 C   0  0  0  0  0  0  0  0  0  0  0  0
  -27.4580  -27.8290   20.3210 C   0  0  0  0  0  3  0  0  0  0  0  0
  -26.2140  -26.3060   18.9090 C   0  0  0  0  0  3  0  0  0  0  0  0
  -25.1330  -27.1940   18.9000 C   0  0  0  0  0  3  0  0  0  0  0  0
  -23.9440  -29.2690   19.7390 C   0  0  0  0  0  2  0  0  0  0  0  0
  -24.9530  -30.3730   21.7620 N   0  0  0  0  0  0  0  0  0  0  0  0
  -23.7400  -31.3490   23.4240 O   0  0  0  0  0  0  0  0  0  0  0  0
  -23.0480  -28.7100   22.0460 C   0  0  0  0  0  0  0  0  0  0  0  0
  -21.7300  -28.4900   21.8850 N   0  0  0  0  0  0  0  0  0  0  0  0
  -23.7320  -28.0640   22.8450 O   0  0  0  0  0  0  0  0  0  0  0  0
  -21.2310  -29.0670   21.2230 H   0  0  0  0  0  0  0  0  0  0  0  0
  -18.3950  -27.1240   22.2590 C   0  0  0  0  0  0  0  0  0  0  0  0
  -20.9370  -27.4790   22.5900 C   0  0  0  0  0  3  0  0  0  0  0  0
  -21.1090  -26.0850   21.9420 C   0  0  0  0  0  2  0  0  0  0  0  0
  -20.0400  -25.7710   20.8900 C   0  0  0  0  0  2  0  0  0  0  0  0
  -18.6420  -25.8230   21.5130 C   0  0  0  0  0  2  0  0  0  0  0  0
  -19.4730  -27.9080   22.7510 C   0  0  0  0  0  0  0  0  0  0  0  0
  -19.1880  -29.1230   23.4100 C   0  0  0  0  0  3  0  0  0  0  0  0
  -17.8600  -29.5580   23.5800 C   0  0  0  0  0  3  0  0  0  0  0  0
  -16.7980  -28.7710   23.1040 C   0  0  0  0  0  3  0  0  0  0  0  0
  -17.0650  -27.5560   22.4500 C   0  0  0  0  0  3  0  0  0  0  0  0
  -26.0890  -31.7680   23.5740 C   0  0  0  0  0  3  0  0  0  0  0  0
  -25.7180  -33.1310   23.9920 N   0  0  0  0  0  0  0  0  0  0  0  0
  -26.0050  -34.2480   23.3110 C   0  0  0  0  0  0  0  0  0  0  0  0
  -26.6770  -34.2410   22.2760 O   0  0  0  0  0  0  0  0  0  0  0  0
  -25.1190  -33.2070   24.8010 H   0  0  0  0  0  0  0  0  0  0  0  0
  -24.1920  -35.9810   23.0970 C   0  0  0  0  0  1  0  0  0  0  0  0
  -25.4640  -35.5820   23.8630 C   0  0  0  0  0  3  0  0  0  0  0  0
  -27.5680  -36.5140   24.7210 C   0  0  0  0  0  1  0  0  0  0  0  0
  -26.4460  -36.6870   23.8020 N   0  0  0  0  0  0  0  0  0  0  0  0
  -26.0000  -37.5770   24.0100 H   0  0  0  0  0  0  0  0  0  0  0  0
  -26.6130  -30.9420   24.8140 C   0  0  1  0  0  0  0  0  0  0  0  0
  -25.5140  -30.6060   25.8490 C   0  0  0  0  0  1  0  0  0  0  0  0
  -27.2530  -29.6100   24.3620 C   0  0  0  0  0  1  0  0  0  0  0  0
  -27.7230  -31.7380   25.5400 C   0  0  0  0  0  1  0  0  0  0  0  0
  1  2  1  0
  1 52  1  0
  2  5  1  0
  2  4  1  0
  3  1  2  0
  5  9  1  0
 11 12  1  0
 13 10  1  0
 13 22  1  0
 14 21  2  0
 14 20  1  0
 15 20  1  0
 16 17  1  0
 16 15  1  0
 17 18  1  0
 18 27  1  0
 18 19  1  0
 20 19  1  0
 22 14  1  0
 23 22  1  0
 24 49  2  0
 24 27  1  0
 25 44  1  0
 25 28  1  0
 26 25  2  0
 28 24  1  0
 28 11  1  0
 29 30  1  0
 30 31  2  0
 32 35  1  0
 32 31  1  0
 33 32  2  0
 34 33  1  0
 34 29  2  0
 35 36  1  0
 36 41  2  0
 36 37  1  0
 37 38  2  0
 38 39  1  0
 39 43  1  0
 40 39  2  0
 41 40  1  0
 42 41  1  0
 44 45  1  0
 45 48  1  0
 45 47  1  0
 46 44  2  0
 50 49  1  0
 51 49  1  0
 53 52  1  0
 53 54  2  0
 55 54  1  0
 56 67  2  0
 57 55  1  0
 57 62  1  0
 58 66  1  0
 58 68  1  0
 59 65  1  0
 59 61  1  0
 60 66  1  0
 61 62  2  0
 61 60  1  0
 63 57  2  0
 64 63  1  0
 64 59  2  0
 65 58  1  0
 66 56  1  0
 68 70  2  0
 69 68  1  0
 71 69  1  0
 72 81  2  0
 72 77  1  0
 73 69  1  0
 73 77  1  0
 74 73  1  0
 75 76  1  0
 75 74  1  0
 76 72  1  0
 77 78  2  0
 78 79  1  0
 80 79  2  0
 81 80  1  0
 82 56  1  0
 82 83  1  0
 82 92  1  0
 83 86  1  0
 84 88  1  0
 84 83  1  0
 85 84  2  0
 88 87  1  0
 90 88  1  0
 90 91  1  0
 90 89  1  0
 92 95  1  1
 92 93  1  0
 94 92  1  0
M  ISO  4  14 100  22 100  54 101  55 101
M  END
>  <TORSDO>  (9) 
F 22

>  <SCORE>  (9) 
-5.676

>  <name>  (9) 
8

>  <ligand_id>  (9) 
8

>  <original_smiles>  (9) 
[H]c1c([H])c([H])c2c(c1[H])C([H])([H])C([H])([H])C([H])([H])C2([H])N([H])C(=O)C1([H])N(C(=O)C([H])(N([H])C(=O)C([H])(N([H])C([H])([H])[H])C([H])([H])[H])C(C([H])([H])[H])(C([H])([H])[H])C([H])([H])[H])C([H])([H])c2c([H])c(OC([H])([H])C([H])([H])C([H])([H])C(=O)N([H])C([H])([H])c3c([H])c(F)c([H])c(C([H])([H])N([H])C(=O)N4C([H])([H])C([H])([H])C([H])([H])C([H])(n5nc(-c6c([H])c([H])c(Oc7c([H])c([H])c(F)c([H])c7F)c([H])c6[H])c(C(=O)N([H])[H])c5N([H])[H])C4([H])[H])c3[H])c([H])c([H])c2C1([H])[H]

>  <smiles>  (9) 
[H]c1c([H])c([H])c2c(c1[H])C([H])([H])C([H])([H])C([H])([H])C2([H])N([H])C(=O)C1([H])N(C(=O)C([H])(N([H])C(=O)C([H])(N([H])C([H])([H])[H])C([H])([H])[H])C(C([H])([H])[H])(C([H])([H])[H])C([H])([H])[H])C([H])([H])c2c([H])c(OC([H])([H])C([H])([H])C([H])([H])C(=O)N([H])C([H])([H])c3c([H])c(F)c([H])c(C([H])([H])N([H])C(=O)N4C([H])([H])C([H])([H])C([H])([H])C([H])(n5nc(-c6c([H])c([H])c(Oc7c([H])c([H])c(F)c([H])c7F)c([H])c6[H])c(C(=O)N([H])[H])c5N([H])[H])C4([H])[H])c3[H])c([H])c([H])c2C1([H])[H]

$$$$
9:0:0
     RDKit          3D

 96105  0  0  1  0  0  0  0  0999 V2000
  -29.6190  -22.1930   22.4980 C   0  0  0  0  0  0  0  0  0  0  0  0
  -28.7240  -22.6740   20.3530 C   0  0  0  0  0  0  0  0  0  0  0  0
  -29.8000  -23.6930   22.7620 C   0  0  0  0  0  2  0  0  0  0  0  0
  -28.6220  -24.5030   22.2260 C   0  0  0  0  0  2  0  0  0  0  0  0
  -28.2520  -24.1510   20.7700 C   0  0  0  0  0  3  0  0  0  0  0  0
  -29.2560  -21.7590   21.2570 N   0  0  0  0  0  0  0  0  0  0  0  0
  -29.8170  -21.4280   23.4500 O   0  0  0  0  0  0  0  0  0  0  0  0
  -28.5770  -22.3620   19.1650 O   0  0  0  0  0  0  0  0  0  0  0  0
  -28.4600  -19.3820   20.6940 C   0  0  0  0  0  3  0  0  0  0  0  0
  -28.7280  -17.9990   20.4460 C   0  0  0  0  0  3  0  0  0  0  0  0
  -30.8060  -19.7540   20.9880 C   0  0  0  0  0  3  0  0  0  0  0  0
  -31.0850  -18.3700   20.7530 C   0  0  0  0  0  0  0  0  0  0  0  0
  -29.4950  -20.3190   20.9530 C   0  0  0  0  0  0  0  0  0  0  0  0
  -30.0420  -17.4390   20.4420 C   0  0  0  0  0  0  0  0  0  0  0  0
  -32.5430  -17.9530   20.7660 C   0  0  0  0  0  1  0  0  0  0  0  0
  -30.9370  -14.9840   20.3160 C   0  0  0  0  0  0  0  0  0  0  0  0
  -30.7130  -12.6930   19.3730 C   0  0  0  0  0  2  0  0  0  0  0  0
  -29.7860  -12.6760   18.1350 C   0  0  0  0  0  2  0  0  0  0  0  0
  -28.3080  -12.5770   18.5520 C   0  0  0  0  0  2  0  0  0  0  0  0
  -27.9240  -13.5090   19.7330 C   0  0  0  0  0  3  0  0  0  0  0  0
  -28.9710  -13.4710   20.8670 C   0  0  0  0  0  2  0  0  0  0  0  0
  -30.2680  -13.7860   20.2620 N   0  0  0  0  0  0  0  0  0  0  0  0
  -32.1640  -14.9840   20.1920 O   0  0  0  0  0  0  0  0  0  0  0  0
  -30.2410  -16.0970   19.8400 N   0  0  0  0  0  0  0  0  0  0  0  0
  -25.5290  -14.1110   20.4230 C   0  0  0  0  0  0  0  0  0  0  0  0
  -24.4560  -13.3420   20.7760 C   0  0  0  0  0  0  0  0  0  0  0  0
  -24.9210  -11.9910   20.7700 C   0  0  0  0  0  0  0  0  0  0  0  0
  -26.5770  -13.2300   20.2160 N   0  0  0  0  0  0  0  0  0  0  0  0
  -26.2170  -11.9510   20.4930 N   0  0  0  0  0  0  0  0  0  0  0  0
  -24.1940  -10.7300   20.9530 C   0  0  0  0  0  0  0  0  0  0  0  0
  -24.5910   -9.7840   21.9250 C   0  0  0  0  0  3  0  0  0  0  0  0
  -23.8650   -8.5860   22.0960 C   0  0  0  0  0  3  0  0  0  0  0  0
  -22.7280   -8.3250   21.2940 C   0  0  0  0  0  0  0  0  0  0  0  0
  -22.3530   -9.2570   20.3100 C   0  0  0  0  0  3  0  0  0  0  0  0
  -23.0790  -10.4470   20.1390 C   0  0  0  0  0  3  0  0  0  0  0  0
  -21.9760   -7.1780   21.3740 O   0  0  0  0  0  0  0  0  0  0  0  0
  -21.8500   -6.4820   22.5490 C   0  0  0  0  0  0  0  0  0  0  0  0
  -21.2850   -7.0640   23.7050 C   0  0  0  0  0  3  0  0  0  0  0  0
  -21.1100   -6.2900   24.8690 C   0  0  0  0  0  3  0  0  0  0  0  0
  -21.4880   -4.9340   24.8790 C   0  0  0  0  0  0  0  0  0  0  0  0
  -22.0440   -4.3500   23.7270 C   0  0  0  0  0  3  0  0  0  0  0  0
  -22.2220   -5.1210   22.5650 C   0  0  0  0  0  0  0  0  0  0  0  0
  -22.7400   -4.5490   21.4520 F   0  0  0  0  0  0  0  0  0  0  0  0
  -21.3130   -4.1880   25.9950 F   0  0  0  0  0  0  0  0  0  0  0  0
  -23.0520  -13.8180   21.0100 C   0  0  0  0  0  0  0  0  0  0  0  0
  -22.3090  -13.1350   21.8720 N   0  0  0  0  0  0  0  0  0  0  0  0
  -22.6220  -14.8320   20.4600 O   0  0  0  0  0  0  0  0  0  0  0  0
  -22.6710  -12.3200   22.3430 H   0  0  0  0  0  0  0  0  0  0  0  0
  -21.3620  -13.4330   22.0660 H   0  0  0  0  0  0  0  0  0  0  0  0
  -25.6950  -15.4790   20.2320 N   0  0  0  0  0  0  0  0  0  0  0  0
  -24.9260  -16.1340   20.3240 H   0  0  0  0  0  0  0  0  0  0  0  0
  -26.5540  -15.9130   19.9260 H   0  0  0  0  0  0  0  0  0  0  0  0
  -30.7300  -17.4130   17.6800 C   0  0  0  0  0  1  0  0  0  0  0  0
  -30.1890  -16.1320   18.3530 C   0  0  0  0  0  2  0  0  0  0  0  0
  -28.5720  -25.3480   19.7580 C   0  0  0  0  0  2  0  0  0  0  0  0
  -28.4640  -26.7660   20.1840 O   0  0  0  0  0  0  0  0  0  0  0  0
  -24.6100  -31.9790   23.2720 C   0  0  0  0  0  0  0  0  0  0  0  0
  -27.2920  -27.5300   20.1340 C   0  0  0  0  0  0  0  0  0  0  0  0
  -23.4210  -30.5890   21.6100 C   0  0  0  0  0  3  0  0  0  0  0  0
  -24.8920  -29.0850   20.1500 C   0  0  0  0  0  0  0  0  0  0  0  0
  -25.9480  -30.9620   21.4160 C   0  0  0  0  0  2  0  0  0  0  0  0
  -26.0490  -29.5940   20.7510 C   0  0  0  0  0  0  0  0  0  0  0  0
  -27.2470  -28.8260   20.7340 C   0  0  0  0  0  3  0  0  0  0  0  0
  -26.1110  -27.0620   19.5160 C   0  0  0  0  0  3  0  0  0  0  0  0
  -24.9250  -27.8260   19.5240 C   0  0  0  0  0  3  0  0  0  0  0  0
  -23.6380  -29.9340   20.2180 C   0  0  0  0  0  2  0  0  0  0  0  0
  -24.6780  -31.1930   22.1570 N   0  0  0  0  0  0  0  0  0  0  0  0
  -23.5250  -32.2270   23.8180 O   0  0  0  0  0  0  0  0  0  0  0  0
  -22.7810  -29.5470   22.5560 C   0  0  0  0  0  0  0  0  0  0  0  0
  -21.4670  -29.3160   22.3980 N   0  0  0  0  0  0  0  0  0  0  0  0
  -23.4670  -28.9470   23.3880 O   0  0  0  0  0  0  0  0  0  0  0  0
  -20.9710  -29.8520   21.7010 H   0  0  0  0  0  0  0  0  0  0  0  0
  -18.1410  -27.9540   22.7840 C   0  0  0  0  0  0  0  0  0  0  0  0
  -20.6700  -28.3440   23.1480 C   0  0  0  0  0  3  0  0  0  0  0  0
  -20.8660  -26.9160   22.5910 C   0  0  0  0  0  2  0  0  0  0  0  0
  -19.8210  -26.5290   21.5400 C   0  0  0  0  0  2  0  0  0  0  0  0
  -18.4110  -26.6090   22.1290 C   0  0  0  0  0  2  0  0  0  0  0  0
  -19.2020  -28.7740   23.2490 C   0  0  0  0  0  0  0  0  0  0  0  0
  -18.8980  -30.0300   23.8170 C   0  0  0  0  0  3  0  0  0  0  0  0
  -17.5650  -30.4670   23.9290 C   0  0  0  0  0  3  0  0  0  0  0  0
  -16.5160  -29.6430   23.4830 C   0  0  0  0  0  3  0  0  0  0  0  0
  -16.8050  -28.3890   22.9160 C   0  0  0  0  0  3  0  0  0  0  0  0
  -25.8850  -32.6190   23.9020 C   0  0  0  0  0  3  0  0  0  0  0  0
  -26.3860  -31.8640   25.1930 C   0  0  1  0  0  0  0  0  0  0  0  0
  -25.2780  -31.6340   26.2470 C   0  0  0  0  0  1  0  0  0  0  0  0
  -26.9800  -30.4840   24.8230 C   0  0  0  0  0  1  0  0  0  0  0  0
  -27.5220  -32.6700   25.8660 C   0  0  0  0  0  1  0  0  0  0  0  0
  -25.5730  -34.0220   24.2120 N   0  0  0  0  0  0  0  0  0  0  0  0
  -25.9200  -35.0660   23.4480 C   0  0  0  0  0  0  0  0  0  0  0  0
  -26.6080  -34.9510   22.4310 O   0  0  0  0  0  0  0  0  0  0  0  0
  -24.9640  -34.1860   24.9990 H   0  0  0  0  0  0  0  0  0  0  0  0
  -24.2150  -36.8680   23.0300 C   0  0  0  0  0  1  0  0  0  0  0  0
  -25.4270  -36.4600   23.8820 C   0  0  0  0  0  3  0  0  0  0  0  0
  -27.5320  -37.3440   24.7860 C   0  0  0  0  0  1  0  0  0  0  0  0
  -26.4680  -37.5070   23.7990 N   0  0  0  0  0  0  0  0  0  0  0  0
  -26.0610  -38.4310   23.9200 H   0  0  0  0  0  0  0  0  0  0  0  0
  1  3  1  0
  1  7  2  0
  2  5  1  0
  2  6  1  0
  4  3  1  0
  5 55  1  0
  5  4  1  0
  6  1  1  0
  8  2  2  0
  9 13  1  0
 10  9  2  0
 12 15  1  0
 12 11  1  0
 13 11  2  0
 13  6  1  0
 14 10  1  0
 14 12  2  0
 17 22  1  0
 18 19  1  0
 18 17  1  0
 20 19  1  0
 20 28  1  0
 20 21  1  0
 22 16  1  0
 22 21  1  0
 23 16  2  0
 24 16  1  0
 24 14  1  0
 25 26  2  0
 26 45  1  0
 27 26  1  0
 27 30  1  0
 28 25  1  0
 28 29  1  0
 29 27  2  0
 30 31  1  0
 31 32  2  0
 33 36  1  0
 33 32  1  0
 34 33  2  0
 35 34  1  0
 35 30  2  0
 36 37  1  0
 37 42  2  0
 37 38  1  0
 38 39  2  0
 39 40  1  0
 40 44  1  0
 41 40  2  0
 42 41  1  0
 43 42  1  0
 45 46  1  0
 46 49  1  0
 46 48  1  0
 47 45  2  0
 50 51  1  0
 50 25  1  0
 52 50  1  0
 53 54  1  0
 54 24  1  0
 55 56  1  0
 57 68  2  0
 58 56  1  0
 58 63  1  0
 59 67  1  0
 59 69  1  0
 60 66  1  0
 60 62  1  0
 61 67  1  0
 62 61  1  0
 63 62  2  0
 64 65  1  0
 64 58  2  0
 65 60  2  0
 66 59  1  0
 67 57  1  0
 69 71  2  0
 70 69  1  0
 72 70  1  0
 73 82  2  0
 73 78  1  0
 74 70  1  0
 74 78  1  0
 75 74  1  0
 76 77  1  0
 76 75  1  0
 77 73  1  0
 78 79  2  0
 79 80  1  0
 81 80  2  0
 82 81  1  0
 83 57  1  0
 83 88  1  0
 83 84  1  0
 84 87  1  1
 84 85  1  0
 86 84  1  0
 88 91  1  0
 89 93  1  0
 89 88  1  0
 90 89  2  0
 93 92  1  0
 95 93  1  0
 95 96  1  0
 95 94  1  0
M  ISO  4  16 100  24 100  55 101  56 101
M  END
>  <TORSDO>  (10) 
F 19

>  <SCORE>  (10) 
-14.035

>  <name>  (10) 
9

>  <ligand_id>  (10) 
9

>  <original_smiles>  (10) 
[H]c1c([H])c([H])c2c(c1[H])C([H])([H])C([H])([H])C([H])([H])C2([H])N([H])C(=O)C1([H])N(C(=O)C([H])(N([H])C(=O)C([H])(N([H])C([H])([H])[H])C([H])([H])[H])C(C([H])([H])[H])(C([H])([H])[H])C([H])([H])[H])C([H])([H])c2c([H])c(OC([H])([H])C3([H])C(=O)N(c4c([H])c([H])c(N(C(=O)N5C([H])([H])C([H])([H])C([H])([H])C([H])(n6nc(-c7c([H])c([H])c(Oc8c([H])c([H])c(F)c([H])c8F)c([H])c7[H])c(C(=O)N([H])[H])c6N([H])[H])C5([H])[H])C([H])([H])C([H])([H])[H])c(C([H])([H])[H])c4[H])C(=O)C([H])([H])C3([H])[H])c([H])c([H])c2C1([H])[H]

>  <smiles>  (10) 
[H]c1c([H])c([H])c2c(c1[H])C([H])([H])C([H])([H])C([H])([H])C2([H])N([H])C(=O)C1([H])N(C(=O)C([H])(N([H])C(=O)C([H])(N([H])C([H])([H])[H])C([H])([H])[H])C(C([H])([H])[H])(C([H])([H])[H])C([H])([H])[H])C([H])([H])c2c([H])c(OC([H])([H])C3([H])C(=O)N(c4c([H])c([H])c(N(C(=O)N5C([H])([H])C([H])([H])C([H])([H])C([H])(n6nc(-c7c([H])c([H])c(Oc8c([H])c([H])c(F)c([H])c8F)c([H])c7[H])c(C(=O)N([H])[H])c6N([H])[H])C5([H])[H])C([H])([H])C([H])([H])[H])c(C([H])([H])[H])c4[H])C(=O)C([H])([H])C3([H])[H])c([H])c([H])c2C1([H])[H]

$$$$
10:0:0
     RDKit          3D

 94103  0  0  1  0  0  0  0  0999 V2000
  -27.2090  -23.5170   20.6920 C   0  0  0  0  0  2  0  0  0  0  0  0
  -27.5790  -22.0230   20.5700 C   0  0  0  0  0  2  0  0  0  0  0  0
  -29.5470  -23.2580   21.0460 C   0  0  0  0  0  2  0  0  0  0  0  0
  -28.5210  -24.2930   20.5120 C   0  0  0  0  0  3  0  0  0  0  0  0
  -29.0630  -21.9340   20.5680 N   0  0  1  0  0  4  0  0  0  0  0  0
  -29.3640  -21.8940   19.6070 H   0  0  0  0  0  0  0  0  0  0  0  0
  -29.6610  -20.7280   21.2330 C   0  0  0  0  0  2  0  0  0  0  0  0
  -29.0160  -19.2710   19.1890 C   0  0  0  0  0  3  0  0  0  0  0  0
  -29.3850  -16.8580   19.1840 C   0  0  0  0  0  3  0  0  0  0  0  0
  -29.9130  -18.1620   21.1700 C   0  0  0  0  0  3  0  0  0  0  0  0
  -28.9300  -18.0250   18.5410 C   0  0  0  0  0  0  0  0  0  0  0  0
  -29.5130  -19.3630   20.5130 C   0  0  0  0  0  0  0  0  0  0  0  0
  -29.8790  -16.9050   20.5080 C   0  0  0  0  0  0  0  0  0  0  0  0
  -28.3180  -17.9240   17.1570 C   0  0  0  0  0  1  0  0  0  0  0  0
  -30.9190  -14.6550   20.5880 C   0  0  0  0  0  0  0  0  0  0  0  0
  -30.6480  -12.4750   19.4630 C   0  0  0  0  0  2  0  0  0  0  0  0
  -29.7470  -12.6620   18.2220 C   0  0  0  0  0  2  0  0  0  0  0  0
  -28.2610  -12.5190   18.6010 C   0  0  0  0  0  2  0  0  0  0  0  0
  -27.8800  -13.3670   19.8410 C   0  0  0  0  0  3  0  0  0  0  0  0
  -28.8990  -13.1800   20.9900 C   0  0  0  0  0  2  0  0  0  0  0  0
  -30.2490  -13.4730   20.4730 N   0  0  0  0  0  0  0  0  0  0  0  0
  -32.0380  -14.8270   20.1000 O   0  0  0  0  0  0  0  0  0  0  0  0
  -30.2720  -15.6910   21.1680 N   0  0  0  0  0  0  0  0  0  0  0  0
  -30.1130  -15.6160   22.1610 H   0  0  0  0  0  0  0  0  0  0  0  0
  -25.4610  -13.9860   20.4640 C   0  0  0  0  0  0  0  0  0  0  0  0
  -24.3810  -13.2210   20.8050 C   0  0  0  0  0  0  0  0  0  0  0  0
  -24.8390  -11.8680   20.8070 C   0  0  0  0  0  0  0  0  0  0  0  0
  -26.5110  -13.1010   20.2780 N   0  0  0  0  0  0  0  0  0  0  0  0
  -26.1390  -11.8220   20.5430 N   0  0  0  0  0  0  0  0  0  0  0  0
  -24.1060  -10.6090   20.9900 C   0  0  0  0  0  0  0  0  0  0  0  0
  -24.5040   -9.6610   21.9580 C   0  0  0  0  0  3  0  0  0  0  0  0
  -23.7750   -8.4650   22.1310 C   0  0  0  0  0  3  0  0  0  0  0  0
  -22.6330   -8.2090   21.3340 C   0  0  0  0  0  0  0  0  0  0  0  0
  -22.2550   -9.1470   20.3580 C   0  0  0  0  0  3  0  0  0  0  0  0
  -22.9840  -10.3350   20.1840 C   0  0  0  0  0  3  0  0  0  0  0  0
  -21.8780   -7.0650   21.4140 O   0  0  0  0  0  0  0  0  0  0  0  0
  -21.7690   -6.3550   22.5820 C   0  0  0  0  0  0  0  0  0  0  0  0
  -21.2600   -6.9360   23.7640 C   0  0  0  0  0  3  0  0  0  0  0  0
  -21.1000   -6.1500   24.9220 C   0  0  0  0  0  3  0  0  0  0  0  0
  -21.4350   -4.7840   24.8990 C   0  0  0  0  0  0  0  0  0  0  0  0
  -21.9350   -4.2020   23.7210 C   0  0  0  0  0  3  0  0  0  0  0  0
  -22.0960   -4.9830   22.5640 C   0  0  0  0  0  0  0  0  0  0  0  0
  -22.5560   -4.4120   21.4260 F   0  0  0  0  0  0  0  0  0  0  0  0
  -21.2770   -4.0270   26.0100 F   0  0  0  0  0  0  0  0  0  0  0  0
  -22.9740  -13.7000   21.0240 C   0  0  0  0  0  0  0  0  0  0  0  0
  -22.2230  -13.0250   21.8860 N   0  0  0  0  0  0  0  0  0  0  0  0
  -22.5470  -14.7080   20.4630 O   0  0  0  0  0  0  0  0  0  0  0  0
  -22.5790  -12.2050   22.3580 H   0  0  0  0  0  0  0  0  0  0  0  0
  -21.2780  -13.3290   22.0730 H   0  0  0  0  0  0  0  0  0  0  0  0
  -25.6400  -15.3540   20.2700 N   0  0  0  0  0  0  0  0  0  0  0  0
  -24.8880  -16.0300   20.3560 H   0  0  0  0  0  0  0  0  0  0  0  0
  -26.5190  -15.7750   19.9990 H   0  0  0  0  0  0  0  0  0  0  0  0
  -28.5440  -25.7170   21.1570 C   0  0  0  0  0  2  0  0  0  0  0  0
  -28.4190  -26.8000   20.2090 O   0  0  0  0  0  0  0  0  0  0  0  0
  -24.5200  -31.9430   23.2690 C   0  0  0  0  0  0  0  0  0  0  0  0
  -27.2450  -27.5280   20.2360 C   0  0  0  0  0  0  0  0  0  0  0  0
  -23.3500  -30.5450   21.5970 C   0  0  0  0  0  3  0  0  0  0  0  0
  -24.8420  -29.0200   20.1990 C   0  0  0  0  0  0  0  0  0  0  0  0
  -25.8740  -30.9290   21.4390 C   0  0  0  0  0  2  0  0  0  0  0  0
  -25.9850  -29.5510   20.8100 C   0  0  0  0  0  0  0  0  0  0  0  0
  -27.1930  -28.8130   20.8230 C   0  0  0  0  0  3  0  0  0  0  0  0
  -26.0930  -27.0160   19.6090 C   0  0  0  0  0  3  0  0  0  0  0  0
  -24.8890  -27.7500   19.5960 C   0  0  0  0  0  3  0  0  0  0  0  0
  -23.5970  -29.8810   20.2150 C   0  0  0  0  0  2  0  0  0  0  0  0
  -24.5980  -31.1530   22.1610 N   0  0  0  0  0  0  0  0  0  0  0  0
  -23.4270  -32.2020   23.7960 O   0  0  0  0  0  0  0  0  0  0  0  0
  -22.6910  -29.5130   22.5390 C   0  0  0  0  0  0  0  0  0  0  0  0
  -21.3660  -29.3270   22.4050 N   0  0  0  0  0  0  0  0  0  0  0  0
  -23.3760  -28.8810   23.3490 O   0  0  0  0  0  0  0  0  0  0  0  0
  -20.8780  -29.8790   21.7110 H   0  0  0  0  0  0  0  0  0  0  0  0
  -17.9870  -28.1670   22.8980 C   0  0  0  0  0  0  0  0  0  0  0  0
  -20.5460  -28.3850   23.1640 C   0  0  0  0  0  3  0  0  0  0  0  0
  -20.6320  -26.9620   22.5590 C   0  0  0  0  0  2  0  0  0  0  0  0
  -19.5290  -26.6760   21.5380 C   0  0  0  0  0  2  0  0  0  0  0  0
  -18.1490  -26.8280   22.1920 C   0  0  0  0  0  2  0  0  0  0  0  0
  -19.1160  -28.9010   23.3460 C   0  0  0  0  0  0  0  0  0  0  0  0
  -18.9140  -30.1510   23.9730 C   0  0  0  0  0  3  0  0  0  0  0  0
  -17.6190  -30.6690   24.1490 C   0  0  0  0  0  3  0  0  0  0  0  0
  -16.5030  -29.9290   23.7160 C   0  0  0  0  0  3  0  0  0  0  0  0
  -16.6880  -28.6790   23.0960 C   0  0  0  0  0  3  0  0  0  0  0  0
  -25.7940  -32.5830   23.9070 C   0  0  0  0  0  3  0  0  0  0  0  0
  -26.2930  -31.8160   25.1920 C   0  0  1  0  0  0  0  0  0  0  0  0
  -25.1770  -31.5610   26.2310 C   0  0  0  0  0  1  0  0  0  0  0  0
  -26.9030  -30.4460   24.8110 C   0  0  0  0  0  1  0  0  0  0  0  0
  -27.4100  -32.6260   25.8870 C   0  0  0  0  0  1  0  0  0  0  0  0
  -25.4750  -33.9810   24.2240 N   0  0  0  0  0  0  0  0  0  0  0  0
  -25.8330  -35.0320   23.4730 C   0  0  0  0  0  0  0  0  0  0  0  0
  -26.5390  -34.9270   22.4640 O   0  0  0  0  0  0  0  0  0  0  0  0
  -24.8470  -34.1330   25.0000 H   0  0  0  0  0  0  0  0  0  0  0  0
  -24.1240  -36.8280   23.0530 C   0  0  0  0  0  1  0  0  0  0  0  0
  -25.3330  -36.4200   23.9090 C   0  0  0  0  0  3  0  0  0  0  0  0
  -27.4350  -37.3040   24.8210 C   0  0  0  0  0  1  0  0  0  0  0  0
  -26.3700  -37.4710   23.8380 N   0  0  0  0  0  0  0  0  0  0  0  0
  -25.9570  -38.3900   23.9720 H   0  0  0  0  0  0  0  0  0  0  0  0
  2  1  1  0
  4  1  1  0
  4  3  1  0
  4 53  1  0
  5  2  1  0
  5  3  1  0
  5  7  1  0
  5  6  1  6
  8 12  1  0
  9 13  2  0
 11  9  1  0
 11  8  2  0
 12 10  2  0
 12  7  1  0
 13 23  1  0
 13 10  1  0
 14 11  1  0
 15 23  1  0
 16 21  1  0
 17 18  1  0
 17 16  1  0
 19 18  1  0
 19 28  1  0
 19 20  1  0
 21 15  1  0
 21 20  1  0
 22 15  2  0
 23 24  1  0
 25 26  2  0
 26 27  1  0
 26 45  1  0
 27 30  1  0
 28 25  1  0
 28 29  1  0
 29 27  2  0
 30 31  1  0
 31 32  2  0
 33 36  1  0
 33 32  1  0
 34 33  2  0
 35 34  1  0
 35 30  2  0
 36 37  1  0
 37 38  1  0
 38 39  2  0
 40 39  1  0
 40 44  1  0
 41 40  2  0
 42 37  2  0
 42 41  1  0
 43 42  1  0
 45 46  1  0
 46 49  1  0
 46 48  1  0
 47 45  2  0
 50 51  1  0
 50 25  1  0
 52 50  1  0
 54 56  1  0
 54 53  1  0
 55 66  2  0
 56 61  1  0
 57 65  1  0
 57 67  1  0
 58 64  1  0
 58 60  1  0
 59 65  1  0
 60 61  2  0
 60 59  1  0
 62 56  2  0
 63 62  1  0
 63 58  2  0
 64 57  1  0
 65 55  1  0
 67 69  2  0
 68 67  1  0
 70 68  1  0
 71 80  2  0
 71 76  1  0
 72 68  1  0
 72 76  1  0
 73 72  1  0
 74 75  1  0
 74 73  1  0
 75 71  1  0
 76 77  2  0
 77 78  1  0
 79 78  2  0
 80 79  1  0
 81 55  1  0
 81 86  1  0
 81 82  1  0
 82 85  1  1
 82 83  1  0
 84 82  1  0
 86 89  1  0
 87 91  1  0
 87 86  1  0
 88 87  2  0
 91 90  1  0
 93 91  1  0
 93 94  1  0
 93 92  1  0
M  ISO  4  15 100  23 100  53 101  54 101
M  END
>  <TORSDO>  (11) 
F 19

>  <SCORE>  (11) 
-14.087

>  <name>  (11) 
10

>  <ligand_id>  (11) 
10

>  <original_smiles>  (11) 
[H]c1c([H])c([H])c2c(c1[H])C([H])([H])C([H])([H])C([H])([H])C2([H])N([H])C(=O)C1([H])N(C(=O)C([H])(N([H])C(=O)C([H])(N([H])C([H])([H])[H])C([H])([H])[H])C(C([H])([H])[H])(C([H])([H])[H])C([H])([H])[H])C([H])([H])c2c([H])c(OC([H])([H])C3([H])C([H])([H])C([H])([H])[N+]([H])(C([H])([H])c4c([H])c(N([H])C(=O)N5C([H])([H])C([H])([H])C([H])([H])C([H])(n6nc(-c7c([H])c([H])c(Oc8c([H])c([H])c(F)c([H])c8F)c([H])c7[H])c(C(=O)N([H])[H])c6N([H])[H])C5([H])[H])c([H])c(C([H])([H])[H])c4[H])C3([H])[H])c([H])c([H])c2C1([H])[H]

>  <smiles>  (11) 
[H]c1c([H])c([H])c2c(c1[H])C([H])([H])C([H])([H])C([H])([H])C2([H])N([H])C(=O)C1([H])N(C(=O)C([H])(N([H])C(=O)C([H])(N([H])C([H])([H])[H])C([H])([H])[H])C(C([H])([H])[H])(C([H])([H])[H])C([H])([H])[H])C([H])([H])c2c([H])c(OC([H])([H])C3([H])C([H])([H])C([H])([H])[N+]([H])(C([H])([H])c4c([H])c(N([H])C(=O)N5C([H])([H])C([H])([H])C([H])([H])C([H])(n6nc(-c7c([H])c([H])c(Oc8c([H])c([H])c(F)c([H])c8F)c([H])c7[H])c(C(=O)N([H])[H])c6N([H])[H])C5([H])[H])c([H])c(C([H])([H])[H])c4[H])C3([H])[H])c([H])c([H])c2C1([H])[H]

$$$$
11:0:0
     RDKit          3D

 93 95  0  0  1  0  0  0  0  0999 V2000
  -26.2100  -18.3510   19.8860 C   0  0  0  0  0  0  0  0  0  0  0  0
  -25.3750  -17.1270   20.2650 N   0  0  0  0  0  0  0  0  0  0  0  0
  -27.1800  -18.0810   19.1750 O   0  0  0  0  0  0  0  0  0  0  0  0
  -24.6450  -17.4270   20.9000 H   0  0  0  0  0  0  0  0  0  0  0  0
  -25.1590  -11.9420   21.7750 C   0  0  0  0  0  1  0  0  0  0  0  0
  -26.8860  -11.1330   20.4600 C   0  0  0  0  0  1  0  0  0  0  0  0
  -24.4320  -14.0410   21.5670 C   0  0  0  0  0 15  0  0  0  0  0  0
  -26.9390  -14.7380   18.8680 C   0  0  0  0  0 15  0  0  0  0  0  0
  -27.9200  -12.8590   19.1540 C   0  0  0  0  0  1  0  0  0  0  0  0
  -25.3180  -15.4550   20.0500 C   0  0  0  0  0  1  0  0  0  0  0  0
  -29.5630  -13.7020   19.6180 C   0  0  0  0  0  3  0  0  0  0  0  0
  -30.8030  -13.6130   21.0670 C   0  0  0  0  0  0  0  0  0  0  0  0
  -31.6580  -11.4610   21.2340 C   0  0  0  0  0  2  0  0  0  0  0  0
  -31.0610  -11.2290   19.8630 C   0  0  0  0  0  2  0  0  0  0  0  0
  -29.5590  -11.1060   20.1490 C   0  0  0  0  0  2  0  0  0  0  0  0
  -28.7600  -12.0060   21.4440 C   0  0  0  0  0  3  0  0  0  0  0  0
  -29.6590  -12.0120   22.5560 C   0  0  0  0  0  2  0  0  0  0  0  0
  -30.8540  -12.5010   21.8600 N   0  0  0  0  0  0  0  0  0  0  0  0
  -31.7190  -14.3640   21.4560 O   0  0  0  0  0  0  0  0  0  0  0  0
  -26.4900  -13.1740   20.9930 C   0  0  0  0  0  0  0  0  0  0  0  0
  -24.9180  -12.4980   20.2570 C   0  0  0  0  0  0  0  0  0  0  0  0
  -24.8540  -11.2150   20.0600 C   0  0  0  0  0  2  0  0  0  0  0  0
  -27.3320  -12.7540   21.4830 N   0  0  0  0  0  2  0  0  0  0  0  0
  -25.7040  -12.4270   20.4890 N   0  0  0  0  0  4  0  0  0  0  0  0
  -24.3100   -9.8330   20.7330 C   0  0  0  0  0  3  0  0  0  0  0  0
  -24.7310   -8.9200   21.8040 C   0  0  0  0  0  3  0  0  0  0  0  0
  -24.0320   -7.7200   22.1570 C   0  0  0  0  0  3  0  0  0  0  0  0
  -22.8810   -7.3400   21.4290 C   0  0  0  0  0  0  0  0  0  0  0  0
  -22.4960   -8.1720   20.3690 C   0  0  0  0  0  3  0  0  0  0  0  0
  -23.1870   -9.3550   20.0420 C   0  0  0  0  0  3  0  0  0  0  0  0
  -22.1430   -6.1800   21.5780 O   0  0  0  0  0  0  0  0  0  0  0  0
  -21.9430   -5.5300   22.7750 C   0  0  0  0  0  0  0  0  0  0  0  0
  -21.4310   -6.1840   23.9150 C   0  0  0  0  0  3  0  0  0  0  0  0
  -21.1720   -5.4510   25.0930 C   0  0  0  0  0  3  0  0  0  0  0  0
  -21.4170   -4.0640   25.1340 C   0  0  0  0  0  0  0  0  0  0  0  0
  -21.9120   -3.4070   23.9960 C   0  0  0  0  0  3  0  0  0  0  0  0
  -22.1650   -4.1370   22.8180 C   0  0  0  0  0  0  0  0  0  0  0  0
  -22.6100   -3.4860   21.7170 F   0  0  0  0  0  0  0  0  0  0  0  0
  -21.1800   -3.3640   26.2680 F   0  0  0  0  0  0  0  0  0  0  0  0
  -23.3060  -12.8430   20.1700 C   0  0  0  0  0  0  0  0  0  0  0  0
  -22.4760  -12.2480   21.0530 N   0  0  0  0  0  0  0  0  0  0  0  0
  -22.8660  -13.6440   19.3620 O   0  0  0  0  0  0  0  0  0  0  0  0
  -22.8530  -11.6430   21.7670 H   0  0  0  0  0  0  0  0  0  0  0  0
  -21.4890  -12.4560   21.0480 H   0  0  0  0  0  0  0  0  0  0  0  0
  -27.2210  -14.4040   21.4470 N   0  0  0  0  0  4  0  0  0  0  0  0
  -26.7000  -15.2310   21.1780 H   0  0  0  0  0  0  0  0  0  0  0  0
  -28.1850  -14.4930   21.1760 H   0  0  0  0  0  0  0  0  0  0  0  0
  -29.6880  -15.3740   17.6120 C   0  0  0  0  0  1  0  0  0  0  0  0
  -30.2910  -14.1470   18.3210 C   0  0  0  0  0  2  0  0  0  0  0  0
  -26.1300  -20.1480   20.2160 C   0  0  0  0  0  2  0  0  0  0  0  0
  -27.1190  -21.7070   19.7830 C   0  0  0  0  0  3  0  0  0  0  0  0
  -26.9780  -23.5880   19.9550 C   0  0  0  0  0  3  0  0  0  0  0  0
  -27.8180  -25.0780   19.6660 O   0  0  0  0  0  0  0  0  0  0  0  0
  -24.8300  -31.1950   22.9050 C   0  0  0  0  0  0  0  0  0  0  0  0
  -27.1770  -26.4290   19.5940 C   0  0  0  0  0  0  0  0  0  0  0  0
  -23.6720  -29.9110   21.1700 C   0  0  0  0  0  3  0  0  0  0  0  0
  -25.1160  -28.4980   19.5800 C   0  0  0  0  0  0  0  0  0  0  0  0
  -26.2390  -30.1300   21.0610 C   0  0  0  0  0  2  0  0  0  0  0  0
  -26.2910  -28.7710   20.2910 C   0  0  0  0  0  0  0  0  0  0  0  0
  -27.3480  -27.7450   20.2840 C   0  0  0  0  0  3  0  0  0  0  0  0
  -26.0870  -26.4230   18.7280 C   0  0  0  0  0  3  0  0  0  0  0  0
  -25.0590  -27.3740   18.7570 C   0  0  0  0  0  3  0  0  0  0  0  0
  -23.9070  -29.4080   19.7240 C   0  0  0  0  0  2  0  0  0  0  0  0
  -24.9390  -30.4440   21.7630 N   0  0  0  0  0  0  0  0  0  0  0  0
  -23.7310  -31.4110   23.4420 O   0  0  0  0  0  0  0  0  0  0  0  0
  -23.0290  -28.7920   22.0360 C   0  0  0  0  0  0  0  0  0  0  0  0
  -21.7100  -28.5690   21.8850 N   0  0  0  0  0  0  0  0  0  0  0  0
  -23.7200  -28.1390   22.8220 O   0  0  0  0  0  0  0  0  0  0  0  0
  -21.2020  -29.1530   21.2360 H   0  0  0  0  0  0  0  0  0  0  0  0
  -18.3880  -27.1610   22.2700 C   0  0  0  0  0  0  0  0  0  0  0  0
  -20.9290  -27.5400   22.5800 C   0  0  0  0  0  3  0  0  0  0  0  0
  -21.1100  -26.1580   21.9100 C   0  0  0  0  0  2  0  0  0  0  0  0
  -20.0350  -25.8500   20.8640 C   0  0  0  0  0  2  0  0  0  0  0  0
  -18.6420  -25.8750   21.5000 C   0  0  0  0  0  2  0  0  0  0  0  0
  -19.4610  -27.9500   22.7630 C   0  0  0  0  0  0  0  0  0  0  0  0
  -19.1700  -29.1490   23.4480 C   0  0  0  0  0  3  0  0  0  0  0  0
  -17.8380  -29.5640   23.6400 C   0  0  0  0  0  3  0  0  0  0  0  0
  -16.7800  -28.7730   23.1610 C   0  0  0  0  0  3  0  0  0  0  0  0
  -17.0550  -27.5730   22.4820 C   0  0  0  0  0  3  0  0  0  0  0  0
  -26.0770  -31.8370   23.5800 C   0  0  0  0  0  3  0  0  0  0  0  0
  -25.7120  -33.2050   23.9960 N   0  0  0  0  0  0  0  0  0  0  0  0
  -26.0260  -34.3240   23.3280 C   0  0  0  0  0  0  0  0  0  0  0  0
  -26.7170  -34.3160   22.3080 O   0  0  0  0  0  0  0  0  0  0  0  0
  -25.0980  -33.2840   24.7920 H   0  0  0  0  0  0  0  0  0  0  0  0
  -24.2630  -36.1060   23.0630 C   0  0  0  0  0  1  0  0  0  0  0  0
  -25.4910  -35.6640   23.8770 C   0  0  0  0  0  3  0  0  0  0  0  0
  -27.5750  -36.5340   24.8460 C   0  0  0  0  0  1  0  0  0  0  0  0
  -26.4990  -36.7470   23.8800 N   0  0  0  0  0  0  0  0  0  0  0  0
  -26.0660  -37.6450   24.0830 H   0  0  0  0  0  0  0  0  0  0  0  0
  -26.5920  -31.0180   24.8290 C   0  0  1  0  0  0  0  0  0  0  0  0
  -25.4880  -30.7090   25.8690 C   0  0  0  0  0  1  0  0  0  0  0  0
  -27.2120  -29.6720   24.3960 C   0  0  0  0  0  1  0  0  0  0  0  0
  -27.7180  -31.8040   25.5400 C   0  0  0  0  0  1  0  0  0  0  0  0
  1 50  1  0
  1  2  1  0
  2  4  1  0
  3  1  2  0
  6 24  1  0
 10  2  1  0
 11  9  1  0
 11 12  1  0
 12 19  2  0
 12 18  1  0
 13 18  1  0
 14 15  1  0
 14 13  1  0
 15 16  1  0
 16 23  1  0
 16 17  1  0
 18 17  1  0
 20 45  2  0
 20 23  1  0
 21 24  1  0
 22 21  2  0
 24 20  1  0
 24  5  1  0
 25 26  1  0
 26 27  2  0
 28 31  1  0
 28 27  1  0
 29 28  2  0
 30 29  1  0
 30 25  2  0
 31 32  1  0
 32 37  2  0
 32 33  1  0
 33 34  2  0
 34 35  1  0
 35 39  1  0
 36 35  2  0
 37 36  1  0
 38 37  1  0
 40 21  1  0
 40 41  1  0
 41 43  1  0
 42 40  2  0
 44 41  1  0
 46 45  1  0
 47 45  1  0
 48 49  1  0
 49 11  1  0
 51 52  2  0
 51 50  1  0
 53 52  1  0
 54 65  2  0
 55 53  1  0
 55 60  1  0
 56 64  1  0
 56 66  1  0
 57 63  1  0
 57 59  1  0
 58 64  1  0
 59 58  1  0
 60 59  2  0
 61 62  1  0
 61 55  2  0
 62 57  2  0
 63 56  1  0
 64 54  1  0
 66 68  2  0
 67 66  1  0
 69 67  1  0
 70 79  2  0
 70 75  1  0
 71 67  1  0
 71 75  1  0
 72 71  1  0
 73 74  1  0
 73 72  1  0
 74 70  1  0
 75 76  2  0
 76 77  1  0
 78 77  2  0
 79 78  1  0
 80 54  1  0
 80 81  1  0
 80 90  1  0
 81 84  1  0
 82 86  1  0
 82 81  1  0
 83 82  2  0
 86 85  1  0
 86 88  1  0
 88 89  1  0
 88 87  1  0
 90 93  1  1
 90 91  1  0
 92 90  1  0
M  ISO  4  11 100  12 100  52 101  53 101
M  END
>  <TORSDO>  (12) 
F 22

>  <SCORE>  (12) 
-4.930

>  <name>  (12) 
11

>  <ligand_id>  (12) 
11

>  <original_smiles>  (12) 
[H]c1c([H])c([H])c2c(c1[H])C([H])([H])C([H])([H])C([H])([H])C2([H])N([H])C(=O)C1([H])N(C(=O)C([H])(N([H])C(=O)C([H])(N([H])C([H])([H])[H])C([H])([H])[H])C(C([H])([H])[H])(C([H])([H])[H])C([H])([H])[H])C([H])([H])c2c([H])c(OC([H])([H])C([H])([H])C([H])([H])C(=O)N([H])c3c([H])c([H])c([H])c(C([H])(C(=O)N4C([H])([H])C([H])([H])C([H])([H])C([H])(n5nc(-c6c([H])c([H])c(Oc7c([H])c([H])c(F)c([H])c7F)c([H])c6[H])c(C(=O)N([H])[H])c5N([H])[H])C4([H])[H])C([H])([H])C([H])([H])[H])c3[H])c([H])c([H])c2C1([H])[H]

>  <smiles>  (12) 
[H]c1c([H])c([H])c2c(c1[H])C([H])([H])C([H])([H])C([H])([H])C2([H])N([H])C(=O)C1([H])N(C(=O)C([H])(N([H])C(=O)C([H])(N([H])C([H])([H])[H])C([H])([H])[H])C(C([H])([H])[H])(C([H])([H])[H])C([H])([H])[H])C([H])([H])c2c([H])c(OC([H])([H])C([H])([H])C([H])([H])C(=O)N([H])c3c([H])c([H])c([H])c(C([H])(C(=O)N4C([H])([H])C([H])([H])C([H])([H])C([H])(n5nc(-c6c([H])c([H])c(Oc7c([H])c([H])c(F)c([H])c7F)c([H])c6[H])c(C(=O)N([H])[H])c5N([H])[H])C4([H])[H])C([H])([H])C([H])([H])[H])c3[H])c([H])c([H])c2C1([H])[H]

$$$$
12:0:0
     RDKit          3D

 92100  0  0  1  0  0  0  0  0999 V2000
  -30.1860  -19.7060   19.5860 C   0  0  0  0  0  3  0  0  0  0  0  0
  -27.4360  -19.6500   19.9740 C   0  0  0  0  0  3  0  0  0  0  0  0
  -29.5650  -18.4350   19.7850 C   0  0  0  0  0  0  0  0  0  0  0  0
  -28.1610  -18.4400   20.0260 C   0  0  0  0  0  0  0  0  0  0  0  0
  -29.4700  -20.9420   19.5950 C   0  0  0  0  0  0  0  0  0  0  0  0
  -28.0640  -20.8890   19.7330 C   0  0  0  0  0  0  0  0  0  0  0  0
  -27.3720  -17.1910   20.3860 C   0  0  0  0  0  1  0  0  0  0  0  0
  -30.4030  -17.1810   19.6860 C   0  0  0  0  0  3  0  0  0  0  0  0
  -29.9970  -15.8790   19.7410 C   0  0  0  0  0  3  0  0  0  0  0  0
  -30.9010  -14.7130   19.6220 C   0  0  0  0  0  0  0  0  0  0  0  0
  -30.7410  -12.3160   19.0340 C   0  0  0  0  0  2  0  0  0  0  0  0
  -29.7780  -12.2060   17.8320 C   0  0  0  0  0  2  0  0  0  0  0  0
  -28.3110  -12.1090   18.3010 C   0  0  0  0  0  2  0  0  0  0  0  0
  -27.9520  -13.1760   19.3700 C   0  0  0  0  0  3  0  0  0  0  0  0
  -29.0300  -13.2260   20.4750 C   0  0  0  0  0  2  0  0  0  0  0  0
  -30.3250  -13.4880   19.8250 N   0  0  0  0  0  0  0  0  0  0  0  0
  -32.0550  -14.8080   19.1900 O   0  0  0  0  0  0  0  0  0  0  0  0
  -25.6300  -13.9000   20.2080 C   0  0  0  0  0  0  0  0  0  0  0  0
  -24.5460  -13.1800   20.6340 C   0  0  0  0  0  0  0  0  0  0  0  0
  -24.9340  -11.8070   20.5740 C   0  0  0  0  0  0  0  0  0  0  0  0
  -26.6150  -12.9670   19.9190 N   0  0  0  0  0  0  0  0  0  0  0  0
  -26.2030  -11.7030   20.1970 N   0  0  0  0  0  0  0  0  0  0  0  0
  -24.1570  -10.5850   20.7980 C   0  0  0  0  0  0  0  0  0  0  0  0
  -24.5930   -9.5900   21.7000 C   0  0  0  0  0  3  0  0  0  0  0  0
  -23.8200   -8.4280   21.9110 C   0  0  0  0  0  3  0  0  0  0  0  0
  -22.5960   -8.2550   21.2220 C   0  0  0  0  0  0  0  0  0  0  0  0
  -22.1790   -9.2380   20.3070 C   0  0  0  0  0  3  0  0  0  0  0  0
  -22.9520  -10.3920   20.0940 C   0  0  0  0  0  3  0  0  0  0  0  0
  -21.7910   -7.1480   21.3460 O   0  0  0  0  0  0  0  0  0  0  0  0
  -21.7760   -6.3920   22.4910 C   0  0  0  0  0  0  0  0  0  0  0  0
  -21.4590   -6.9500   23.7480 C   0  0  0  0  0  3  0  0  0  0  0  0
  -21.3890   -6.1230   24.8870 C   0  0  0  0  0  3  0  0  0  0  0  0
  -21.6250   -4.7400   24.7700 C   0  0  0  0  0  0  0  0  0  0  0  0
  -21.9350   -4.1810   23.5180 C   0  0  0  0  0  3  0  0  0  0  0  0
  -22.0070   -5.0050   22.3810 C   0  0  0  0  0  0  0  0  0  0  0  0
  -22.2850   -4.4580   21.1720 F   0  0  0  0  0  0  0  0  0  0  0  0
  -21.5510   -3.9450   25.8630 F   0  0  0  0  0  0  0  0  0  0  0  0
  -23.1930  -13.7270   20.9860 C   0  0  0  0  0  0  0  0  0  0  0  0
  -22.4830  -13.0720   21.8980 N   0  0  0  0  0  0  0  0  0  0  0  0
  -22.7740  -14.7690   20.4840 O   0  0  0  0  0  0  0  0  0  0  0  0
  -22.8360  -12.2300   22.3280 H   0  0  0  0  0  0  0  0  0  0  0  0
  -21.5760  -13.4200   22.1750 H   0  0  0  0  0  0  0  0  0  0  0  0
  -25.8540  -15.2600   20.0230 N   0  0  0  0  0  0  0  0  0  0  0  0
  -25.1230  -15.9480   20.1650 H   0  0  0  0  0  0  0  0  0  0  0  0
  -26.6980  -15.6550   19.6270 H   0  0  0  0  0  0  0  0  0  0  0  0
  -26.5060  -22.1120   18.4590 C   0  0  0  0  0  1  0  0  0  0  0  0
  -27.3160  -22.0350   19.6250 O   0  0  0  0  0  0  0  0  0  0  0  0
  -30.1640  -22.1320   19.3760 O   0  0  0  0  0  0  0  0  0  0  0  0
  -29.8480  -23.3440   20.1120 C   0  0  0  0  0  2  0  0  0  0  0  0
  -29.0880  -24.4320   19.2800 C   0  0  0  0  0  2  0  0  0  0  0  0
  -29.6610  -25.8940   19.2750 C   0  0  0  0  0  2  0  0  0  0  0  0
  -29.2610  -26.8240   20.3140 O   0  0  0  0  0  0  0  0  0  0  0  0
  -24.8900  -31.6350   23.3130 C   0  0  0  0  0  0  0  0  0  0  0  0
  -28.0430  -27.4920   20.2320 C   0  0  0  0  0  0  0  0  0  0  0  0
  -23.9030  -30.2370   21.5320 C   0  0  0  0  0  3  0  0  0  0  0  0
  -25.5540  -28.8650   20.1460 C   0  0  0  0  0  0  0  0  0  0  0  0
  -26.4090  -30.7570   21.5370 C   0  0  0  0  0  2  0  0  0  0  0  0
  -26.6320  -29.4230   20.8430 C   0  0  0  0  0  0  0  0  0  0  0  0
  -27.8730  -28.7400   20.8910 C   0  0  0  0  0  3  0  0  0  0  0  0
  -26.9370  -26.9570   19.5320 C   0  0  0  0  0  3  0  0  0  0  0  0
  -25.7020  -27.6310   19.4910 C   0  0  0  0  0  3  0  0  0  0  0  0
  -24.2530  -29.6400   20.1420 C   0  0  0  0  0  2  0  0  0  0  0  0
  -25.0810  -30.8910   22.1860 N   0  0  0  0  0  0  0  0  0  0  0  0
  -23.7580  -31.8110   23.7840 O   0  0  0  0  0  0  0  0  0  0  0  0
  -23.2590  -29.1300   22.3980 C   0  0  0  0  0  0  0  0  0  0  0  0
  -21.9530  -28.8890   22.1930 N   0  0  0  0  0  0  0  0  0  0  0  0
  -23.9330  -28.4930   23.2120 O   0  0  0  0  0  0  0  0  0  0  0  0
  -21.4680  -29.4600   21.5150 H   0  0  0  0  0  0  0  0  0  0  0  0
  -18.6170  -27.5300   22.4860 C   0  0  0  0  0  0  0  0  0  0  0  0
  -21.1520  -27.8670   22.8650 C   0  0  0  0  0  3  0  0  0  0  0  0
  -21.3320  -26.4860   22.1940 C   0  0  0  0  0  2  0  0  0  0  0  0
  -20.2780  -26.1940   21.1210 C   0  0  0  0  0  2  0  0  0  0  0  0
  -18.8710  -26.2410   21.7250 C   0  0  0  0  0  2  0  0  0  0  0  0
  -19.6890  -28.3020   23.0090 C   0  0  0  0  0  0  0  0  0  0  0  0
  -19.4000  -29.5100   23.6790 C   0  0  0  0  0  3  0  0  0  0  0  0
  -18.0720  -29.9490   23.8310 C   0  0  0  0  0  3  0  0  0  0  0  0
  -17.0130  -29.1740   23.3260 C   0  0  0  0  0  3  0  0  0  0  0  0
  -17.2860  -27.9660   22.6590 C   0  0  0  0  0  3  0  0  0  0  0  0
  -26.0830  -32.3220   24.0510 C   0  0  0  0  0  3  0  0  0  0  0  0
  -25.6830  -33.7060   24.3410 N   0  0  0  0  0  0  0  0  0  0  0  0
  -26.0390  -34.7710   23.6080 C   0  0  0  0  0  0  0  0  0  0  0  0
  -26.8060  -34.6930   22.6450 O   0  0  0  0  0  0  0  0  0  0  0  0
  -25.0100  -33.8370   25.0830 H   0  0  0  0  0  0  0  0  0  0  0  0
  -24.2640  -36.4760   23.0940 C   0  0  0  0  0  1  0  0  0  0  0  0
  -25.4520  -36.1370   24.0090 C   0  0  0  0  0  3  0  0  0  0  0  0
  -27.4680  -37.1280   25.0000 C   0  0  0  0  0  1  0  0  0  0  0  0
  -26.4400  -37.2370   23.9670 N   0  0  0  0  0  0  0  0  0  0  0  0
  -25.9820  -38.1380   24.0700 H   0  0  0  0  0  0  0  0  0  0  0  0
  -26.5080  -31.5760   25.3740 C   0  0  1  0  0  0  0  0  0  0  0  0
  -25.3300  -31.2960   26.3370 C   0  0  0  0  0  1  0  0  0  0  0  0
  -27.1800  -30.2220   25.0460 C   0  0  0  0  0  1  0  0  0  0  0  0
  -27.5600  -32.4170   26.1350 C   0  0  0  0  0  1  0  0  0  0  0  0
  1  5  2  0
  1  3  1  0
  2  4  1  0
  3  4  2  0
  4  7  1  0
  5  6  1  0
  6  2  2  0
  8  9  2  0
  8  3  1  0
 10  9  1  0
 10 16  1  0
 11 16  1  0
 12 13  1  0
 12 11  1  0
 14 13  1  0
 14 21  1  0
 14 15  1  0
 16 15  1  0
 17 10  2  0
 18 19  2  0
 19 38  1  0
 20 19  1  0
 20 23  1  0
 21 22  1  0
 21 18  1  0
 22 20  2  0
 23 24  1  0
 24 25  2  0
 26 29  1  0
 26 25  1  0
 27 26  2  0
 28 27  1  0
 28 23  2  0
 29 30  1  0
 30 31  1  0
 31 32  2  0
 33 32  1  0
 33 37  1  0
 34 33  2  0
 35 30  2  0
 35 34  1  0
 36 35  1  0
 38 39  1  0
 39 42  1  0
 39 41  1  0
 40 38  2  0
 43 44  1  0
 43 18  1  0
 45 43  1  0
 46 47  1  0
 47  6  1  0
 48  5  1  0
 48 49  1  0
 50 49  1  0
 51 50  1  0
 51 52  1  0
 53 64  2  0
 54 52  1  0
 54 59  1  0
 55 63  1  0
 55 65  1  0
 56 58  1  0
 57 63  1  0
 58 59  2  0
 58 57  1  0
 60 54  2  0
 61 60  1  0
 61 56  2  0
 62 56  1  0
 62 55  1  0
 63 53  1  0
 65 67  2  0
 66 65  1  0
 68 66  1  0
 69 78  2  0
 69 74  1  0
 70 66  1  0
 70 74  1  0
 71 70  1  0
 72 73  1  0
 72 71  1  0
 73 69  1  0
 74 75  2  0
 75 76  1  0
 77 76  2  0
 78 77  1  0
 79 53  1  0
 79 80  1  0
 79 89  1  0
 80 83  1  0
 81 85  1  0
 81 80  1  0
 82 81  2  0
 85 84  1  0
 87 85  1  0
 87 88  1  0
 87 86  1  0
 89 92  1  1
 89 90  1  0
 91 89  1  0
M  ISO  4   9 100  10 100  51 101  52 101
M  END
>  <TORSDO>  (13) 
F 22

>  <SCORE>  (13) 
-12.121

>  <name>  (13) 
12

>  <ligand_id>  (13) 
12

>  <original_smiles>  (13) 
[H]C(C(=O)N1C([H])([H])C([H])([H])C([H])([H])C([H])(n2nc(-c3c([H])c([H])c(Oc4c([H])c([H])c(F)c([H])c4F)c([H])c3[H])c(C(=O)N([H])[H])c2N([H])[H])C1([H])[H])=C([H])c1c([H])c(OC([H])([H])C([H])([H])C([H])([H])Oc2c([H])c([H])c3c(c2[H])C([H])([H])N(C(=O)C([H])(N([H])C(=O)C([H])(N([H])C([H])([H])[H])C([H])([H])[H])C(C([H])([H])[H])(C([H])([H])[H])C([H])([H])[H])C([H])(C(=O)N([H])C2([H])c4c([H])c([H])c([H])c([H])c4C([H])([H])C([H])([H])C2([H])[H])C3([H])[H])c(OC([H])([H])[H])c([H])c1C([H])([H])[H]

>  <smiles>  (13) 
[H]C(C(=O)N1C([H])([H])C([H])([H])C([H])([H])C([H])(n2nc(-c3c([H])c([H])c(Oc4c([H])c([H])c(F)c([H])c4F)c([H])c3[H])c(C(=O)N([H])[H])c2N([H])[H])C1([H])[H])=C([H])c1c([H])c(OC([H])([H])C([H])([H])C([H])([H])Oc2c([H])c([H])c3c(c2[H])C([H])([H])N(C(=O)C([H])(N([H])C(=O)C([H])(N([H])C([H])([H])[H])C([H])([H])[H])C(C([H])([H])[H])(C([H])([H])[H])C([H])([H])[H])C([H])(C(=O)N([H])C2([H])c4c([H])c([H])c([H])c([H])c4C([H])([H])C([H])([H])C2([H])[H])C3([H])[H])c(OC([H])([H])[H])c([H])c1C([H])([H])[H]

$$$$
13:0:0
     RDKit          3D

 94103  0  0  1  0  0  0  0  0999 V2000
  -31.5490  -23.4480   20.7950 C   0  0  0  0  0  2  0  0  0  0  0  0
  -30.7350  -24.6070   20.2300 C   0  0  0  0  0  2  0  0  0  0  0  0
  -30.4780  -22.5350   21.3850 C   0  0  0  0  0  2  0  0  0  0  0  0
  -29.3650  -24.0080   19.8400 C   0  0  0  0  0  3  0  0  0  0  0  0
  -29.3470  -22.5870   20.4310 N   0  0  1  0  0  4  0  0  0  0  0  0
  -28.4980  -22.4550   20.9610 H   0  0  0  0  0  0  0  0  0  0  0  0
  -29.3920  -21.4430   19.4300 C   0  0  0  0  0  2  0  0  0  0  0  0
  -30.8390  -19.2580   19.6460 C   0  0  0  0  0  3  0  0  0  0  0  0
  -30.9940  -17.8530   19.8670 C   0  0  0  0  0  3  0  0  0  0  0  0
  -28.5590  -19.1480   20.4010 C   0  0  0  0  0  3  0  0  0  0  0  0
  -29.6130  -19.9450   19.8860 C   0  0  0  0  0  0  0  0  0  0  0  0
  -29.9170  -17.0550   20.3400 C   0  0  0  0  0  0  0  0  0  0  0  0
  -28.7100  -17.7470   20.6180 C   0  0  0  0  0  0  0  0  0  0  0  0
  -27.6500  -17.0350   21.0730 F   0  0  0  0  0  0  0  0  0  0  0  0
  -30.6840  -14.5810   20.0630 C   0  0  0  0  0  0  0  0  0  0  0  0
  -30.4060  -12.3630   18.9730 C   0  0  0  0  0  2  0  0  0  0  0  0
  -29.4060  -12.5290   17.8050 C   0  0  0  0  0  2  0  0  0  0  0  0
  -27.9540  -12.3810   18.3000 C   0  0  0  0  0  2  0  0  0  0  0  0
  -27.6660  -13.2250   19.5700 C   0  0  0  0  0  3  0  0  0  0  0  0
  -28.7710  -13.0260   20.6330 C   0  0  0  0  0  2  0  0  0  0  0  0
  -30.0610  -13.3610   20.0050 N   0  0  0  0  0  0  0  0  0  0  0  0
  -31.8120  -14.7500   19.5920 O   0  0  0  0  0  0  0  0  0  0  0  0
  -29.9220  -15.6080   20.5480 N   0  0  0  0  0  0  0  0  0  0  0  0
  -29.0700  -15.2820   20.9790 H   0  0  0  0  0  0  0  0  0  0  0  0
  -25.3120  -13.8450   20.3990 C   0  0  0  0  0  0  0  0  0  0  0  0
  -24.2520  -13.0810   20.8050 C   0  0  0  0  0  0  0  0  0  0  0  0
  -24.6970  -11.7250   20.7390 C   0  0  0  0  0  0  0  0  0  0  0  0
  -26.3350  -12.9560   20.1090 N   0  0  0  0  0  0  0  0  0  0  0  0
  -25.9720  -11.6750   20.3720 N   0  0  0  0  0  0  0  0  0  0  0  0
  -23.9640  -10.4690   20.9470 C   0  0  0  0  0  0  0  0  0  0  0  0
  -24.4100   -9.4970   21.8700 C   0  0  0  0  0  3  0  0  0  0  0  0
  -23.6770   -8.3070   22.0650 C   0  0  0  0  0  3  0  0  0  0  0  0
  -22.4830   -8.0810   21.3390 C   0  0  0  0  0  0  0  0  0  0  0  0
  -22.0560   -9.0420   20.4060 C   0  0  0  0  0  3  0  0  0  0  0  0
  -22.7900  -10.2240   20.2090 C   0  0  0  0  0  3  0  0  0  0  0  0
  -21.7210   -6.9420   21.4440 O   0  0  0  0  0  0  0  0  0  0  0  0
  -21.6740   -6.2130   22.6050 C   0  0  0  0  0  0  0  0  0  0  0  0
  -21.2750   -6.7890   23.8310 C   0  0  0  0  0  3  0  0  0  0  0  0
  -21.1720   -5.9870   24.9860 C   0  0  0  0  0  3  0  0  0  0  0  0
  -21.4590   -4.6100   24.9150 C   0  0  0  0  0  0  0  0  0  0  0  0
  -21.8530   -4.0340   23.6940 C   0  0  0  0  0  3  0  0  0  0  0  0
  -21.9570   -4.8340   22.5420 C   0  0  0  0  0  0  0  0  0  0  0  0
  -22.3150   -4.2700   21.3630 F   0  0  0  0  0  0  0  0  0  0  0  0
  -21.3540   -3.8390   26.0220 F   0  0  0  0  0  0  0  0  0  0  0  0
  -22.8750  -13.5720   21.1470 C   0  0  0  0  0  0  0  0  0  0  0  0
  -22.1800  -12.8780   22.0410 N   0  0  0  0  0  0  0  0  0  0  0  0
  -22.4270  -14.6090   20.6580 O   0  0  0  0  0  0  0  0  0  0  0  0
  -22.5570  -12.0410   22.4590 H   0  0  0  0  0  0  0  0  0  0  0  0
  -21.2590  -13.1910   22.3140 H   0  0  0  0  0  0  0  0  0  0  0  0
  -25.4840  -15.2160   20.2360 N   0  0  0  0  0  0  0  0  0  0  0  0
  -24.7430  -15.8770   20.4370 H   0  0  0  0  0  0  0  0  0  0  0  0
  -26.3540  -15.6680   19.9870 H   0  0  0  0  0  0  0  0  0  0  0  0
  -28.1990  -25.0010   20.2800 C   0  0  0  0  0  2  0  0  0  0  0  0
  -28.3510  -26.4320   19.9180 O   0  0  0  0  0  0  0  0  0  0  0  0
  -24.5220  -31.6900   23.0520 C   0  0  0  0  0  0  0  0  0  0  0  0
  -27.2100  -27.2420   19.9210 C   0  0  0  0  0  0  0  0  0  0  0  0
  -23.3440  -30.3140   21.3730 C   0  0  0  0  0  3  0  0  0  0  0  0
  -24.8210  -28.8090   19.9280 C   0  0  0  0  0  0  0  0  0  0  0  0
  -25.8790  -30.6690   21.2110 C   0  0  0  0  0  2  0  0  0  0  0  0
  -25.9790  -29.3060   20.5400 C   0  0  0  0  0  0  0  0  0  0  0  0
  -27.1780  -28.5350   20.5250 C   0  0  0  0  0  3  0  0  0  0  0  0
  -26.0320  -26.7970   19.2790 C   0  0  0  0  0  3  0  0  0  0  0  0
  -24.8490  -27.5590   19.2890 C   0  0  0  0  0  3  0  0  0  0  0  0
  -23.5750  -29.6690   19.9820 C   0  0  0  0  0  2  0  0  0  0  0  0
  -24.6000  -30.9070   21.9360 N   0  0  0  0  0  0  0  0  0  0  0  0
  -23.4330  -31.9440   23.5860 O   0  0  0  0  0  0  0  0  0  0  0  0
  -22.6870  -29.2700   22.3070 C   0  0  0  0  0  0  0  0  0  0  0  0
  -21.3590  -29.1010   22.1840 N   0  0  0  0  0  0  0  0  0  0  0  0
  -23.3700  -28.6150   23.0990 O   0  0  0  0  0  0  0  0  0  0  0  0
  -20.8680  -29.6810   21.5170 H   0  0  0  0  0  0  0  0  0  0  0  0
  -17.9770  -27.9240   22.6890 C   0  0  0  0  0  0  0  0  0  0  0  0
  -20.5410  -28.1430   22.9300 C   0  0  0  0  0  3  0  0  0  0  0  0
  -20.6180  -26.7340   22.2990 C   0  0  0  0  0  2  0  0  0  0  0  0
  -19.4970  -26.4630   21.2900 C   0  0  0  0  0  2  0  0  0  0  0  0
  -18.1270  -26.5990   21.9600 C   0  0  0  0  0  2  0  0  0  0  0  0
  -19.1110  -28.6570   23.1310 C   0  0  0  0  0  0  0  0  0  0  0  0
  -18.9160  -29.8980   23.7730 C   0  0  0  0  0  3  0  0  0  0  0  0
  -17.6190  -30.4080   23.9770 C   0  0  0  0  0  3  0  0  0  0  0  0
  -16.5000  -29.6720   23.5510 C   0  0  0  0  0  3  0  0  0  0  0  0
  -16.6800  -28.4310   22.9130 C   0  0  0  0  0  3  0  0  0  0  0  0
  -25.7940  -32.3200   23.6970 C   0  0  0  0  0  3  0  0  0  0  0  0
  -26.3170  -31.5180   24.9520 C   0  0  1  0  0  0  0  0  0  0  0  0
  -25.2240  -31.2370   26.0090 C   0  0  0  0  0  1  0  0  0  0  0  0
  -26.9170  -30.1600   24.5210 C   0  0  0  0  0  1  0  0  0  0  0  0
  -27.4560  -32.3070   25.6400 C   0  0  0  0  0  1  0  0  0  0  0  0
  -25.4650  -33.7030   24.0680 N   0  0  0  0  0  0  0  0  0  0  0  0
  -25.7910  -34.7840   23.3450 C   0  0  0  0  0  0  0  0  0  0  0  0
  -26.4710  -34.7210   22.3180 O   0  0  0  0  0  0  0  0  0  0  0  0
  -24.8610  -33.8250   24.8680 H   0  0  0  0  0  0  0  0  0  0  0  0
  -24.0460  -36.5690   23.0290 C   0  0  0  0  0  1  0  0  0  0  0  0
  -25.2820  -36.1520   23.8420 C   0  0  0  0  0  3  0  0  0  0  0  0
  -27.3980  -37.0320   24.7250 C   0  0  0  0  0  1  0  0  0  0  0  0
  -26.3040  -37.2190   23.7750 N   0  0  0  0  0  0  0  0  0  0  0  0
  -25.8860  -38.1290   23.9460 H   0  0  0  0  0  0  0  0  0  0  0  0
  1  3  1  0
  2  1  1  0
  4  2  1  0
  4 53  1  0
  4  5  1  0
  5  6  1  1
  5  3  1  0
  7 11  1  0
  7  5  1  0
  8  9  2  0
  8 11  1  0
  9 12  1  0
 10 13  1  0
 11 10  2  0
 12 23  1  0
 12 13  2  0
 13 14  1  0
 15 23  1  0
 16 21  1  0
 17 18  1  0
 17 16  1  0
 19 18  1  0
 19 28  1  0
 19 20  1  0
 21 15  1  0
 21 20  1  0
 22 15  2  0
 23 24  1  0
 25 26  2  0
 26 45  1  0
 27 26  1  0
 27 30  1  0
 28 29  1  0
 28 25  1  0
 29 27  2  0
 30 31  1  0
 31 32  2  0
 33 36  1  0
 33 32  1  0
 34 33  2  0
 35 34  1  0
 35 30  2  0
 36 37  1  0
 37 38  1  0
 38 39  2  0
 40 39  1  0
 40 44  1  0
 41 40  2  0
 42 37  2  0
 42 41  1  0
 43 42  1  0
 45 46  1  0
 46 49  1  0
 46 48  1  0
 47 45  2  0
 50 25  1  0
 50 51  1  0
 52 50  1  0
 54 56  1  0
 54 53  1  0
 55 66  2  0
 56 61  1  0
 57 65  1  0
 57 67  1  0
 58 64  1  0
 58 60  1  0
 59 65  1  0
 60 59  1  0
 61 60  2  0
 62 63  1  0
 62 56  2  0
 63 58  2  0
 64 57  1  0
 65 55  1  0
 67 69  2  0
 68 67  1  0
 70 68  1  0
 71 80  2  0
 71 76  1  0
 72 68  1  0
 72 76  1  0
 73 72  1  0
 74 75  1  0
 74 73  1  0
 75 71  1  0
 76 77  2  0
 77 78  1  0
 79 78  2  0
 80 79  1  0
 81 55  1  0
 81 86  1  0
 81 82  1  0
 82 85  1  1
 82 83  1  0
 84 82  1  0
 86 89  1  0
 87 91  1  0
 87 86  1  0
 88 87  2  0
 91 90  1  0
 93 91  1  0
 93 94  1  0
 93 92  1  0
M  ISO  4  15 100  23 100  53 101  54 101
M  END
>  <TORSDO>  (14) 
F 19

>  <SCORE>  (14) 
-13.893

>  <name>  (14) 
13

>  <ligand_id>  (14) 
13

>  <original_smiles>  (14) 
[H]c1c([H])c([H])c2c(c1[H])C([H])([H])C([H])([H])C([H])([H])C2([H])N([H])C(=O)C1([H])N(C(=O)C([H])(N([H])C(=O)C([H])(N([H])C([H])([H])[H])C([H])([H])[H])C(C([H])([H])[H])(C([H])([H])[H])C([H])([H])[H])C([H])([H])c2c([H])c(OC([H])([H])C3([H])C([H])([H])C([H])([H])C([H])([H])[N+]3([H])C([H])([H])c3c([H])c([H])c(N([H])C(=O)N4C([H])([H])C([H])([H])C([H])([H])C([H])(n5nc(-c6c([H])c([H])c(Oc7c([H])c([H])c(F)c([H])c7F)c([H])c6[H])c(C(=O)N([H])[H])c5N([H])[H])C4([H])[H])c(F)c3[H])c([H])c([H])c2C1([H])[H]

>  <smiles>  (14) 
[H]c1c([H])c([H])c2c(c1[H])C([H])([H])C([H])([H])C([H])([H])C2([H])N([H])C(=O)C1([H])N(C(=O)C([H])(N([H])C(=O)C([H])(N([H])C([H])([H])[H])C([H])([H])[H])C(C([H])([H])[H])(C([H])([H])[H])C([H])([H])[H])C([H])([H])c2c([H])c(OC([H])([H])C3([H])C([H])([H])C([H])([H])C([H])([H])[N+]3([H])C([H])([H])c3c([H])c([H])c(N([H])C(=O)N4C([H])([H])C([H])([H])C([H])([H])C([H])(n5nc(-c6c([H])c([H])c(Oc7c([H])c([H])c(F)c([H])c7F)c([H])c6[H])c(C(=O)N([H])[H])c5N([H])[H])C4([H])[H])c(F)c3[H])c([H])c([H])c2C1([H])[H]

$$$$
14:0:0
     RDKit          3D

 96104  0  0  1  0  0  0  0  0999 V2000
  -29.2310  -17.8420   20.8670 C   0  0  0  0  0  3  0  0  0  0  0  0
  -31.6080  -17.7260   20.4230 C   0  0  0  0  0  3  0  0  0  0  0  0
  -29.1930  -19.2050   20.4730 C   0  0  0  0  0  0  0  0  0  0  0  0
  -30.4220  -17.0810   20.8440 C   0  0  0  0  0  0  0  0  0  0  0  0
  -31.5880  -19.0910   20.0360 C   0  0  0  0  0  0  0  0  0  0  0  0
  -30.3880  -19.8450   20.0290 C   0  0  0  0  0  0  0  0  0  0  0  0
  -31.1270  -14.6500   21.0490 C   0  0  0  0  0  0  0  0  0  0  0  0
  -30.9980  -12.2560   20.4370 C   0  0  0  0  0  2  0  0  0  0  0  0
  -30.2800  -12.1410   19.0760 C   0  0  0  0  0  2  0  0  0  0  0  0
  -28.7480  -12.1000   19.2570 C   0  0  0  0  0  2  0  0  0  0  0  0
  -28.2280  -13.2190   20.1980 C   0  0  0  0  0  3  0  0  0  0  0  0
  -29.0650  -13.2660   21.4960 C   0  0  0  0  0  2  0  0  0  0  0  0
  -30.4790  -13.4520   21.1210 N   0  0  0  0  0  0  0  0  0  0  0  0
  -32.3100  -14.7470   20.7080 O   0  0  0  0  0  0  0  0  0  0  0  0
  -30.3380  -15.7190   21.2960 N   0  0  0  0  0  0  0  0  0  0  0  0
  -29.4290  -15.4450   21.6390 H   0  0  0  0  0  0  0  0  0  0  0  0
  -25.7960  -14.0240   20.4690 C   0  0  0  0  0  0  0  0  0  0  0  0
  -24.6330  -13.3510   20.7320 C   0  0  0  0  0  0  0  0  0  0  0  0
  -24.9980  -11.9800   20.8850 C   0  0  0  0  0  0  0  0  0  0  0  0
  -26.8010  -13.0680   20.4770 N   0  0  0  0  0  0  0  0  0  0  0  0
  -26.3140  -11.8380   20.7820 N   0  0  0  0  0  0  0  0  0  0  0  0
  -24.1650  -10.7830   21.0660 C   0  0  0  0  0  0  0  0  0  0  0  0
  -24.4660   -9.8170   22.0520 C   0  0  0  0  0  3  0  0  0  0  0  0
  -23.6410   -8.6830   22.2180 C   0  0  0  0  0  3  0  0  0  0  0  0
  -22.5000   -8.5090   21.3990 C   0  0  0  0  0  0  0  0  0  0  0  0
  -22.2180   -9.4630   20.4050 C   0  0  0  0  0  3  0  0  0  0  0  0
  -23.0440  -10.5880   20.2370 C   0  0  0  0  0  3  0  0  0  0  0  0
  -21.6570   -7.4260   21.4710 O   0  0  0  0  0  0  0  0  0  0  0  0
  -21.5900   -6.6400   22.5930 C   0  0  0  0  0  0  0  0  0  0  0  0
  -21.2960   -7.1780   23.8640 C   0  0  0  0  0  3  0  0  0  0  0  0
  -21.1680   -6.3250   24.9780 C   0  0  0  0  0  3  0  0  0  0  0  0
  -21.3240   -4.9340   24.8230 C   0  0  0  0  0  0  0  0  0  0  0  0
  -21.6130   -4.3960   23.5570 C   0  0  0  0  0  3  0  0  0  0  0  0
  -21.7420   -5.2470   22.4450 C   0  0  0  0  0  0  0  0  0  0  0  0
  -21.9990   -4.7200   21.2230 F   0  0  0  0  0  0  0  0  0  0  0  0
  -21.1950   -4.1130   25.8910 F   0  0  0  0  0  0  0  0  0  0  0  0
  -23.2460  -13.9300   20.7460 C   0  0  0  0  0  0  0  0  0  0  0  0
  -22.3580  -13.3790   21.5650 N   0  0  0  0  0  0  0  0  0  0  0  0
  -22.9570  -14.9100   20.0610 O   0  0  0  0  0  0  0  0  0  0  0  0
  -22.6000  -12.5890   22.1440 H   0  0  0  0  0  0  0  0  0  0  0  0
  -21.4210  -13.7540   21.6150 H   0  0  0  0  0  0  0  0  0  0  0  0
  -26.0800  -15.3610   20.2020 N   0  0  0  0  0  0  0  0  0  0  0  0
  -25.3510  -16.0590   20.1180 H   0  0  0  0  0  0  0  0  0  0  0  0
  -26.9930  -15.7050   19.9290 H   0  0  0  0  0  0  0  0  0  0  0  0
  -32.7790  -19.7210   19.6740 N   0  0  0  0  0  0  0  0  0  0  0  0
  -33.5330  -19.1610   19.2900 H   0  0  0  0  0  0  0  0  0  0  0  0
  -32.6850  -20.6290   19.2300 H   0  0  0  0  0  0  0  0  0  0  0  0
  -27.8530  -19.9280   20.6010 C   0  0  0  0  0  2  0  0  0  0  0  0
  -26.7600  -22.2400   20.5370 C   0  0  0  0  0  1  0  0  0  0  0  0
  -27.9770  -21.4190   20.9730 C   0  0  0  0  0  2  0  0  0  0  0  0
  -30.4900  -21.1930   19.7000 O   0  0  0  0  0  0  0  0  0  0  0  0
  -29.5300  -21.7800   18.8100 C   0  0  0  0  0  2  0  0  0  0  0  0
  -29.6960  -23.3230   18.7410 C   0  0  0  0  0  2  0  0  0  0  0  0
  -28.4510  -24.0470   18.1610 C   0  0  0  0  0  2  0  0  0  0  0  0
  -28.6050  -25.5640   17.8600 C   0  0  0  0  0  2  0  0  0  0  0  0
  -28.5130  -26.4560   18.9810 O   0  0  0  0  0  0  0  0  0  0  0  0
  -25.0030  -30.9370   23.2740 C   0  0  0  0  0  0  0  0  0  0  0  0
  -27.3690  -27.2170   19.1550 C   0  0  0  0  0  0  0  0  0  0  0  0
  -23.7080  -30.0410   21.3670 C   0  0  0  0  0  3  0  0  0  0  0  0
  -25.0620  -28.8070   19.5880 C   0  0  0  0  0  0  0  0  0  0  0  0
  -26.2520  -30.2850   21.2170 C   0  0  0  0  0  2  0  0  0  0  0  0
  -26.2500  -29.1020   20.2670 C   0  0  0  0  0  0  0  0  0  0  0  0
  -27.4010  -28.3060   20.0600 C   0  0  0  0  0  3  0  0  0  0  0  0
  -26.1590  -26.9380   18.4800 C   0  0  0  0  0  3  0  0  0  0  0  0
  -25.0100  -27.7230   18.6960 C   0  0  0  0  0  3  0  0  0  0  0  0
  -23.8720  -29.6990   19.8610 C   0  0  0  0  0  2  0  0  0  0  0  0
  -25.0070  -30.4210   22.0130 N   0  0  0  0  0  0  0  0  0  0  0  0
  -23.9420  -31.1330   23.8840 O   0  0  0  0  0  0  0  0  0  0  0  0
  -23.0020  -28.8570   22.0670 C   0  0  0  0  0  0  0  0  0  0  0  0
  -21.6680  -28.7850   21.9240 N   0  0  0  0  0  0  0  0  0  0  0  0
  -23.6520  -28.0170   22.6970 O   0  0  0  0  0  0  0  0  0  0  0  0
  -21.2090  -29.5160   21.4000 H   0  0  0  0  0  0  0  0  0  0  0  0
  -18.2390  -27.6650   22.1260 C   0  0  0  0  0  0  0  0  0  0  0  0
  -20.8020  -27.7370   22.4610 C   0  0  0  0  0  3  0  0  0  0  0  0
  -20.8500  -26.4670   21.5800 C   0  0  0  0  0  2  0  0  0  0  0  0
  -19.7510  -26.4300   20.5130 C   0  0  0  0  0  2  0  0  0  0  0  0
  -18.3670  -26.4920   21.1670 C   0  0  0  0  0  2  0  0  0  0  0  0
  -19.3840  -28.2590   22.7200 C   0  0  0  0  0  0  0  0  0  0  0  0
  -19.2120  -29.3690   23.5760 C   0  0  0  0  0  3  0  0  0  0  0  0
  -17.9290  -29.8810   23.8420 C   0  0  0  0  0  3  0  0  0  0  0  0
  -16.7980  -29.2780   23.2640 C   0  0  0  0  0  3  0  0  0  0  0  0
  -16.9540  -28.1710   22.4120 C   0  0  0  0  0  3  0  0  0  0  0  0
  -26.3270  -31.3290   24.0010 C   0  0  0  0  0  3  0  0  0  0  0  0
  -26.1020  -32.6200   24.6660 N   0  0  0  0  0  0  0  0  0  0  0  0
  -26.5730  -33.7930   24.2240 C   0  0  0  0  0  0  0  0  0  0  0  0
  -27.3100  -33.8920   23.2400 O   0  0  0  0  0  0  0  0  0  0  0  0
  -25.4640  -32.6200   25.4490 H   0  0  0  0  0  0  0  0  0  0  0  0
  -25.0530  -35.7970   24.2250 C   0  0  0  0  0  1  0  0  0  0  0  0
  -26.1590  -35.0610   24.9990 C   0  0  0  0  0  3  0  0  0  0  0  0
  -28.2570  -35.4540   26.2120 C   0  0  0  0  0  1  0  0  0  0  0  0
  -27.2830  -35.9850   25.2600 N   0  0  0  0  0  0  0  0  0  0  0  0
  -26.9440  -36.8740   25.6170 H   0  0  0  0  0  0  0  0  0  0  0  0
  -26.8090  -30.2450   25.0420 C   0  0  1  0  0  0  0  0  0  0  0  0
  -25.7150  -29.8230   26.0510 C   0  0  0  0  0  1  0  0  0  0  0  0
  -27.2990  -28.9700   24.3160 C   0  0  0  0  0  1  0  0  0  0  0  0
  -28.0150  -30.7880   25.8450 C   0  0  0  0  0  1  0  0  0  0  0  0
  2  4  2  0
  3 48  1  0
  3  1  2  0
  4  1  1  0
  4 15  1  0
  5  2  1  0
  6  5  2  0
  6  3  1  0
  7 13  1  0
  7 15  1  0
  8 13  1  0
  9 10  1  0
  9  8  1  0
 11 10  1  0
 11 20  1  0
 11 12  1  0
 13 12  1  0
 14  7  2  0
 15 16  1  0
 17 20  1  0
 17 18  2  0
 18 37  1  0
 18 19  1  0
 19 22  1  0
 20 21  1  0
 21 19  2  0
 22 23  1  0
 23 24  2  0
 25 28  1  0
 25 24  1  0
 26 25  2  0
 27 26  1  0
 27 22  2  0
 28 29  1  0
 29 30  1  0
 30 31  2  0
 32 31  1  0
 32 36  1  0
 33 32  2  0
 34 29  2  0
 34 33  1  0
 35 34  1  0
 37 38  1  0
 38 41  1  0
 38 40  1  0
 39 37  2  0
 42 17  1  0
 43 42  1  0
 44 42  1  0
 45  5  1  0
 46 45  1  0
 47 45  1  0
 48 50  1  0
 49 50  1  0
 51  6  1  0
 52 51  1  0
 53 52  1  0
 54 53  1  0
 55 54  1  0
 55 56  1  0
 56 58  1  0
 57 68  2  0
 58 63  1  0
 59 67  1  0
 59 69  1  0
 60 66  1  0
 60 62  1  0
 61 67  1  0
 62 61  1  0
 63 62  2  0
 64 65  1  0
 64 58  2  0
 65 60  2  0
 66 59  1  0
 67 57  1  0
 69 71  2  0
 70 69  1  0
 72 70  1  0
 73 82  2  0
 73 78  1  0
 74 70  1  0
 74 78  1  0
 75 74  1  0
 76 77  1  0
 76 75  1  0
 77 73  1  0
 78 79  2  0
 79 80  1  0
 81 80  2  0
 82 81  1  0
 83 57  1  0
 83 84  1  0
 83 93  1  0
 84 87  1  0
 85 84  1  0
 85 89  1  0
 86 85  2  0
 89 88  1  0
 89 91  1  0
 91 92  1  0
 91 90  1  0
 93 96  1  1
 93 94  1  0
 95 93  1  0
M  ISO  4   7 100  15 100  55 101  56 101
M  END
>  <TORSDO>  (15) 
F 24

>  <SCORE>  (15) 
-10.015

>  <name>  (15) 
14

>  <ligand_id>  (15) 
14

>  <original_smiles>  (15) 
[H]c1c([H])c([H])c2c(c1[H])C([H])([H])C([H])([H])C([H])([H])C2([H])N([H])C(=O)C1([H])N(C(=O)C([H])(N([H])C(=O)C([H])(N([H])C([H])([H])[H])C([H])([H])[H])C(C([H])([H])[H])(C([H])([H])[H])C([H])([H])[H])C([H])([H])c2c([H])c(OC([H])([H])C([H])([H])C([H])([H])C([H])([H])Oc3c(N([H])[H])c([H])c(N([H])C(=O)N4C([H])([H])C([H])([H])C([H])([H])C([H])(n5nc(-c6c([H])c([H])c(Oc7c([H])c([H])c(F)c([H])c7F)c([H])c6[H])c(C(=O)N([H])[H])c5N([H])[H])C4([H])[H])c([H])c3C([H])([H])C([H])([H])C([H])([H])[H])c([H])c([H])c2C1([H])[H]

>  <smiles>  (15) 
[H]c1c([H])c([H])c2c(c1[H])C([H])([H])C([H])([H])C([H])([H])C2([H])N([H])C(=O)C1([H])N(C(=O)C([H])(N([H])C(=O)C([H])(N([H])C([H])([H])[H])C([H])([H])[H])C(C([H])([H])[H])(C([H])([H])[H])C([H])([H])[H])C([H])([H])c2c([H])c(OC([H])([H])C([H])([H])C([H])([H])C([H])([H])Oc3c(N([H])[H])c([H])c(N([H])C(=O)N4C([H])([H])C([H])([H])C([H])([H])C([H])(n5nc(-c6c([H])c([H])c(Oc7c([H])c([H])c(F)c([H])c7F)c([H])c6[H])c(C(=O)N([H])[H])c5N([H])[H])C4([H])[H])c([H])c3C([H])([H])C([H])([H])C([H])([H])[H])c([H])c([H])c2C1([H])[H]

$$$$
15:0:0
     RDKit          3D

 96105  0  0  1  0  0  0  0  0999 V2000
  -29.1980  -21.4970   17.8620 C   0  0  0  0  0  0  0  0  0  0  0  0
  -28.5960  -22.2130   20.0550 C   0  0  0  0  0  0  0  0  0  0  0  0
  -29.1130  -22.9370   17.3200 C   0  0  0  0  0  2  0  0  0  0  0  0
  -29.2120  -24.0180   18.3960 C   0  0  0  0  0  2  0  0  0  0  0  0
  -28.2510  -23.6890   19.5330 C   0  0  0  0  0  3  0  0  0  0  0  0
  -29.0240  -21.2030   19.1920 N   0  0  0  0  0  0  0  0  0  0  0  0
  -29.4000  -20.6250   17.0070 O   0  0  0  0  0  0  0  0  0  0  0  0
  -28.4560  -21.9940   21.2640 O   0  0  0  0  0  0  0  0  0  0  0  0
  -30.6290  -19.2610   19.6400 C   0  0  0  0  0  3  0  0  0  0  0  0
  -30.9200  -17.8810   19.8620 C   0  0  0  0  0  3  0  0  0  0  0  0
  -28.2850  -18.8170   19.8570 C   0  0  0  0  0  3  0  0  0  0  0  0
  -29.3010  -19.7860   19.6000 C   0  0  0  0  0  0  0  0  0  0  0  0
  -29.9060  -16.9160   20.1070 C   0  0  0  0  0  0  0  0  0  0  0  0
  -28.5680  -17.4240   20.1040 C   0  0  0  0  0  0  0  0  0  0  0  0
  -30.6780  -14.4980   19.6690 C   0  0  0  0  0  0  0  0  0  0  0  0
  -30.2430  -12.3220   18.5120 C   0  0  0  0  0  2  0  0  0  0  0  0
  -29.1890  -12.5200   17.4030 C   0  0  0  0  0  2  0  0  0  0  0  0
  -27.7650  -12.3780   17.9740 C   0  0  0  0  0  2  0  0  0  0  0  0
  -27.5610  -13.1960   19.2780 C   0  0  0  0  0  3  0  0  0  0  0  0
  -28.7200  -12.9800   20.2710 C   0  0  0  0  0  2  0  0  0  0  0  0
  -29.9750  -13.3160   19.5790 N   0  0  0  0  0  0  0  0  0  0  0  0
  -31.7280  -14.6420   19.0320 O   0  0  0  0  0  0  0  0  0  0  0  0
  -30.4630  -15.3020   21.9120 C   0  0  0  0  0  1  0  0  0  0  0  0
  -30.1950  -15.5090   20.4790 N   0  0  0  0  0  0  0  0  0  0  0  0
  -25.2530  -13.8060   20.2230 C   0  0  0  0  0  0  0  0  0  0  0  0
  -24.2220  -13.0400   20.6950 C   0  0  0  0  0  0  0  0  0  0  0  0
  -24.6710  -11.6860   20.6250 C   0  0  0  0  0  0  0  0  0  0  0  0
  -26.2650  -12.9190   19.8920 N   0  0  0  0  0  0  0  0  0  0  0  0
  -25.9260  -11.6390   20.1920 N   0  0  0  0  0  0  0  0  0  0  0  0
  -23.9570  -10.4290   20.8880 C   0  0  0  0  0  0  0  0  0  0  0  0
  -24.4330   -9.4930   21.8330 C   0  0  0  0  0  3  0  0  0  0  0  0
  -23.7170   -8.3020   22.0830 C   0  0  0  0  0  3  0  0  0  0  0  0
  -22.5120   -8.0390   21.3910 C   0  0  0  0  0  0  0  0  0  0  0  0
  -22.0560   -8.9620   20.4340 C   0  0  0  0  0  3  0  0  0  0  0  0
  -22.7710  -10.1450   20.1820 C   0  0  0  0  0  3  0  0  0  0  0  0
  -21.7640   -6.8970   21.5500 O   0  0  0  0  0  0  0  0  0  0  0  0
  -21.7200   -6.2250   22.7460 C   0  0  0  0  0  0  0  0  0  0  0  0
  -21.2970   -6.8510   23.9400 C   0  0  0  0  0  3  0  0  0  0  0  0
  -21.2040   -6.1040   25.1310 C   0  0  0  0  0  3  0  0  0  0  0  0
  -21.5230   -4.7330   25.1300 C   0  0  0  0  0  0  0  0  0  0  0  0
  -21.9380   -4.1070   23.9420 C   0  0  0  0  0  3  0  0  0  0  0  0
  -22.0350   -4.8510   22.7520 C   0  0  0  0  0  0  0  0  0  0  0  0
  -22.4140   -4.2380   21.6050 F   0  0  0  0  0  0  0  0  0  0  0  0
  -21.4270   -4.0130   26.2720 F   0  0  0  0  0  0  0  0  0  0  0  0
  -22.8620  -13.5270   21.1010 C   0  0  0  0  0  0  0  0  0  0  0  0
  -22.2240  -12.8510   22.0520 N   0  0  0  0  0  0  0  0  0  0  0  0
  -22.3740  -14.5440   20.6070 O   0  0  0  0  0  0  0  0  0  0  0  0
  -22.6300  -12.0290   22.4740 H   0  0  0  0  0  0  0  0  0  0  0  0
  -21.3140  -13.1620   22.3610 H   0  0  0  0  0  0  0  0  0  0  0  0
  -25.4060  -15.1740   20.0310 N   0  0  0  0  0  0  0  0  0  0  0  0
  -24.6640  -15.8310   20.2430 H   0  0  0  0  0  0  0  0  0  0  0  0
  -26.2650  -15.6250   19.7400 H   0  0  0  0  0  0  0  0  0  0  0  0
  -26.2170  -16.9390   20.3780 C   0  0  0  0  0  1  0  0  0  0  0  0
  -27.5670  -16.4980   20.3250 O   0  0  0  0  0  0  0  0  0  0  0  0
  -28.1560  -24.8950   20.5850 C   0  0  0  0  0  2  0  0  0  0  0  0
  -28.2610  -26.3170   20.1650 O   0  0  0  0  0  0  0  0  0  0  0  0
  -24.5490  -31.7580   23.1730 C   0  0  0  0  0  0  0  0  0  0  0  0
  -27.1320  -27.1450   20.1770 C   0  0  0  0  0  0  0  0  0  0  0  0
  -23.3410  -30.3590   21.5320 C   0  0  0  0  0  3  0  0  0  0  0  0
  -24.7840  -28.7700   20.1380 C   0  0  0  0  0  0  0  0  0  0  0  0
  -25.8830  -30.6480   21.3650 C   0  0  0  0  0  2  0  0  0  0  0  0
  -25.9540  -29.2620   20.7310 C   0  0  0  0  0  0  0  0  0  0  0  0
  -27.1340  -28.4610   20.7350 C   0  0  0  0  0  3  0  0  0  0  0  0
  -25.9420  -26.6940   19.5740 C   0  0  0  0  0  3  0  0  0  0  0  0
  -24.7790  -27.4910   19.5530 C   0  0  0  0  0  3  0  0  0  0  0  0
  -23.5600  -29.6610   20.1620 C   0  0  0  0  0  2  0  0  0  0  0  0
  -24.6100  -30.9390   22.0820 N   0  0  0  0  0  0  0  0  0  0  0  0
  -23.4650  -32.0530   23.6980 O   0  0  0  0  0  0  0  0  0  0  0  0
  -22.6560  -29.3620   22.4990 C   0  0  0  0  0  0  0  0  0  0  0  0
  -21.3250  -29.2200   22.3770 N   0  0  0  0  0  0  0  0  0  0  0  0
  -23.3210  -28.7210   23.3170 O   0  0  0  0  0  0  0  0  0  0  0  0
  -20.8490  -29.7890   21.6930 H   0  0  0  0  0  0  0  0  0  0  0  0
  -17.9170  -28.1320   22.9120 C   0  0  0  0  0  0  0  0  0  0  0  0
  -20.4860  -28.3020   23.1510 C   0  0  0  0  0  3  0  0  0  0  0  0
  -20.5300  -26.8730   22.5620 C   0  0  0  0  0  2  0  0  0  0  0  0
  -19.4060  -26.5970   21.5590 C   0  0  0  0  0  2  0  0  0  0  0  0
  -18.0390  -26.7830   22.2230 C   0  0  0  0  0  2  0  0  0  0  0  0
  -19.0670  -28.8520   23.3330 C   0  0  0  0  0  0  0  0  0  0  0  0
  -18.8980  -30.1160   23.9390 C   0  0  0  0  0  3  0  0  0  0  0  0
  -17.6130  -30.6600   24.1270 C   0  0  0  0  0  3  0  0  0  0  0  0
  -16.4790  -29.9350   23.7240 C   0  0  0  0  0  3  0  0  0  0  0  0
  -16.6310  -28.6720   23.1220 C   0  0  0  0  0  3  0  0  0  0  0  0
  -25.8330  -32.3810   23.8020 C   0  0  0  0  0  3  0  0  0  0  0  0
  -26.3450  -31.5990   25.0750 C   0  0  1  0  0  0  0  0  0  0  0  0
  -25.2510  -31.3520   26.1390 C   0  0  0  0  0  1  0  0  0  0  0  0
  -26.9280  -30.2250   24.6730 C   0  0  0  0  0  1  0  0  0  0  0  0
  -27.4960  -32.3860   25.7450 C   0  0  0  0  0  1  0  0  0  0  0  0
  -25.5310  -33.7790   24.1410 N   0  0  0  0  0  0  0  0  0  0  0  0
  -25.8620  -34.8350   23.3860 C   0  0  0  0  0  0  0  0  0  0  0  0
  -26.5210  -34.7350   22.3480 O   0  0  0  0  0  0  0  0  0  0  0  0
  -24.9420  -33.9300   24.9470 H   0  0  0  0  0  0  0  0  0  0  0  0
  -24.1360  -36.6380   23.0620 C   0  0  0  0  0  1  0  0  0  0  0  0
  -25.3870  -36.2240   23.8560 C   0  0  0  0  0  3  0  0  0  0  0  0
  -27.5360  -37.0960   24.6610 C   0  0  0  0  0  1  0  0  0  0  0  0
  -26.4210  -37.2750   23.7350 N   0  0  0  0  0  0  0  0  0  0  0  0
  -26.0200  -38.1950   23.8970 H   0  0  0  0  0  0  0  0  0  0  0  0
  1  6  1  0
  2  8  2  0
  3  1  1  0
  3  4  1  0
  4  5  1  0
  5  2  1  0
  5 55  1  0
  6 12  1  0
  6  2  1  0
  7  1  2  0
  9 10  1  0
 10 13  2  0
 11 14  2  0
 12  9  2  0
 12 11  1  0
 13 24  1  0
 14 13  1  0
 14 54  1  0
 15 24  1  0
 16 21  1  0
 17 18  1  0
 17 16  1  0
 19 18  1  0
 19 28  1  0
 19 20  1  0
 21 15  1  0
 21 20  1  0
 22 15  2  0
 24 23  1  0
 25 26  2  0
 26 45  1  0
 27 26  1  0
 27 30  1  0
 28 29  1  0
 28 25  1  0
 29 27  2  0
 30 31  1  0
 31 32  2  0
 33 36  1  0
 33 32  1  0
 34 33  2  0
 35 34  1  0
 35 30  2  0
 36 37  1  0
 37 42  2  0
 37 38  1  0
 38 39  2  0
 40 39  1  0
 40 44  1  0
 41 40  2  0
 42 41  1  0
 43 42  1  0
 45 46  1  0
 46 49  1  0
 46 48  1  0
 47 45  2  0
 50 25  1  0
 50 51  1  0
 52 50  1  0
 54 53  1  0
 56 58  1  0
 56 55  1  0
 57 68  2  0
 58 63  1  0
 59 67  1  0
 59 69  1  0
 60 66  1  0
 60 62  1  0
 61 67  1  0
 62 63  2  0
 62 61  1  0
 64 58  2  0
 65 64  1  0
 65 60  2  0
 66 59  1  0
 67 57  1  0
 69 71  2  0
 70 69  1  0
 72 70  1  0
 73 82  2  0
 73 78  1  0
 74 70  1  0
 74 78  1  0
 75 74  1  0
 76 77  1  0
 76 75  1  0
 77 73  1  0
 78 79  2  0
 79 80  1  0
 81 80  2  0
 82 81  1  0
 83 57  1  0
 83 88  1  0
 83 84  1  0
 84 87  1  1
 84 85  1  0
 86 84  1  0
 88 91  1  0
 89 93  1  0
 89 88  1  0
 90 89  2  0
 93 92  1  0
 95 93  1  0
 95 96  1  0
 95 94  1  0
M  ISO  4  15 100  24 100  55 101  56 101
M  END
>  <TORSDO>  (16) 
F 19

>  <SCORE>  (16) 
-13.511

>  <name>  (16) 
15

>  <ligand_id>  (16) 
15

>  <original_smiles>  (16) 
[H]c1c([H])c([H])c2c(c1[H])C([H])([H])C([H])([H])C([H])([H])C2([H])N([H])C(=O)C1([H])N(C(=O)C([H])(N([H])C(=O)C([H])(N([H])C([H])([H])[H])C([H])([H])[H])C(C([H])([H])[H])(C([H])([H])[H])C([H])([H])[H])C([H])([H])c2c([H])c(OC([H])([H])C3([H])C(=O)N(c4c([H])c([H])c(N(C(=O)N5C([H])([H])C([H])([H])C([H])([H])C([H])(n6nc(-c7c([H])c([H])c(Oc8c([H])c([H])c(F)c([H])c8F)c([H])c7[H])c(C(=O)N([H])[H])c6N([H])[H])C5([H])[H])C([H])([H])[H])c(OC([H])([H])[H])c4[H])C(=O)C([H])([H])C3([H])[H])c([H])c([H])c2C1([H])[H]

>  <smiles>  (16) 
[H]c1c([H])c([H])c2c(c1[H])C([H])([H])C([H])([H])C([H])([H])C2([H])N([H])C(=O)C1([H])N(C(=O)C([H])(N([H])C(=O)C([H])(N([H])C([H])([H])[H])C([H])([H])[H])C(C([H])([H])[H])(C([H])([H])[H])C([H])([H])[H])C([H])([H])c2c([H])c(OC([H])([H])C3([H])C(=O)N(c4c([H])c([H])c(N(C(=O)N5C([H])([H])C([H])([H])C([H])([H])C([H])(n6nc(-c7c([H])c([H])c(Oc8c([H])c([H])c(F)c([H])c8F)c([H])c7[H])c(C(=O)N([H])[H])c6N([H])[H])C5([H])[H])C([H])([H])[H])c(OC([H])([H])[H])c4[H])C(=O)C([H])([H])C3([H])[H])c([H])c([H])c2C1([H])[H]

$$$$
16:0:0
     RDKit          3D

 95104  0  0  1  0  0  0  0  0999 V2000
  -29.5240  -24.1170   19.8200 C   0  0  0  0  0  3  0  0  0  0  0  0
  -30.7940  -24.6090   19.5580 C   0  0  0  0  0  0  0  0  0  0  0  0
  -29.3060  -22.6150   19.9060 C   0  0  0  0  0  0  0  0  0  0  0  0
  -31.9420  -23.6360   19.4140 C   0  0  0  0  0  2  0  0  0  0  0  0
  -31.7100  -22.4110   20.2910 C   0  0  0  0  0  2  0  0  0  0  0  0
  -30.4080  -21.7650   20.0380 N   0  0  0  0  0  0  0  0  0  0  0  0
  -31.2300  -25.7720   19.4020 O   0  0  0  0  0  0  0  0  0  0  0  0
  -28.1610  -22.1600   19.8570 O   0  0  0  0  0  0  0  0  0  0  0  0
  -31.4210  -19.5680   20.8290 C   0  0  0  0  0  3  0  0  0  0  0  0
  -29.5090  -19.4080   19.4000 C   0  0  0  0  0  3  0  0  0  0  0  0
  -31.5180  -18.1480   20.8860 C   0  0  0  0  0  3  0  0  0  0  0  0
  -29.5730  -17.9750   19.4960 C   0  0  0  0  0  3  0  0  0  0  0  0
  -30.4170  -20.2680   20.0900 C   0  0  0  0  0  0  0  0  0  0  0  0
  -30.5750  -17.3010   20.2510 C   0  0  0  0  0  0  0  0  0  0  0  0
  -31.0770  -14.8230   19.8820 C   0  0  0  0  0  0  0  0  0  0  0  0
  -30.7400  -12.6690   18.6400 C   0  0  0  0  0  2  0  0  0  0  0  0
  -29.6160  -12.8330   17.5870 C   0  0  0  0  0  2  0  0  0  0  0  0
  -28.2080  -12.6300   18.1900 C   0  0  0  0  0  2  0  0  0  0  0  0
  -28.0370  -13.3820   19.5350 C   0  0  0  0  0  3  0  0  0  0  0  0
  -29.2400  -13.0640   20.4400 C   0  0  0  0  0  2  0  0  0  0  0  0
  -30.4510  -13.5890   19.7700 N   0  0  0  0  0  0  0  0  0  0  0  0
  -32.1070  -15.0320   19.2260 O   0  0  0  0  0  0  0  0  0  0  0  0
  -30.4830  -15.8700   20.5960 N   0  0  0  0  0  0  0  0  0  0  0  0
  -25.7930  -13.9320   20.6590 C   0  0  0  0  0  0  0  0  0  0  0  0
  -24.7690  -13.1390   21.0990 C   0  0  0  0  0  0  0  0  0  0  0  0
  -25.1810  -11.7940   20.8510 C   0  0  0  0  0  0  0  0  0  0  0  0
  -26.7660  -13.0680   20.1800 N   0  0  0  0  0  0  0  0  0  0  0  0
  -26.4070  -11.7700   20.3440 N   0  0  0  0  0  0  0  0  0  0  0  0
  -24.4540  -10.5270   21.0100 C   0  0  0  0  0  0  0  0  0  0  0  0
  -24.9180   -9.5100   21.8730 C   0  0  0  0  0  3  0  0  0  0  0  0
  -24.1900   -8.3110   22.0210 C   0  0  0  0  0  3  0  0  0  0  0  0
  -22.9860   -8.1180   21.3030 C   0  0  0  0  0  0  0  0  0  0  0  0
  -22.5420   -9.1230   20.4250 C   0  0  0  0  0  3  0  0  0  0  0  0
  -23.2710  -10.3140   20.2750 C   0  0  0  0  0  3  0  0  0  0  0  0
  -22.2280   -6.9740   21.3650 O   0  0  0  0  0  0  0  0  0  0  0  0
  -22.1350   -6.2320   22.5140 C   0  0  0  0  0  0  0  0  0  0  0  0
  -21.6730   -6.7920   23.7260 C   0  0  0  0  0  3  0  0  0  0  0  0
  -21.5280   -5.9790   24.8670 C   0  0  0  0  0  3  0  0  0  0  0  0
  -21.8350   -4.6070   24.7980 C   0  0  0  0  0  0  0  0  0  0  0  0
  -22.2910   -4.0470   23.5910 C   0  0  0  0  0  3  0  0  0  0  0  0
  -22.4390   -4.8580   22.4520 C   0  0  0  0  0  0  0  0  0  0  0  0
  -22.8580   -4.3100   21.2860 F   0  0  0  0  0  0  0  0  0  0  0  0
  -21.6900   -3.8210   25.8900 F   0  0  0  0  0  0  0  0  0  0  0  0
  -23.4450  -13.6000   21.6350 C   0  0  0  0  0  0  0  0  0  0  0  0
  -22.8560  -12.8400   22.5520 N   0  0  0  0  0  0  0  0  0  0  0  0
  -22.9420  -14.6660   21.2750 O   0  0  0  0  0  0  0  0  0  0  0  0
  -23.2750  -11.9750   22.8590 H   0  0  0  0  0  0  0  0  0  0  0  0
  -21.9790  -13.1320   22.9610 H   0  0  0  0  0  0  0  0  0  0  0  0
  -25.9700  -15.3120   20.6130 N   0  0  0  0  0  0  0  0  0  0  0  0
  -25.2520  -15.9660   20.9070 H   0  0  0  0  0  0  0  0  0  0  0  0
  -26.7820  -15.7660   20.2200 H   0  0  0  0  0  0  0  0  0  0  0  0
  -30.1640  -16.6590   23.0500 C   0  0  0  0  0  1  0  0  0  0  0  0
  -29.9170  -15.6090   21.9440 C   0  0  0  0  0  2  0  0  0  0  0  0
  -28.2840  -25.0900   19.9200 C   0  0  0  0  0  2  0  0  0  0  0  0
  -28.4780  -26.5590   20.0870 O   0  0  0  0  0  0  0  0  0  0  0  0
  -24.6620  -31.9100   23.1410 C   0  0  0  0  0  0  0  0  0  0  0  0
  -27.3390  -27.3900   20.0640 C   0  0  0  0  0  0  0  0  0  0  0  0
  -23.4780  -30.4970   21.5050 C   0  0  0  0  0  3  0  0  0  0  0  0
  -24.9470  -28.9700   20.0770 C   0  0  0  0  0  0  0  0  0  0  0  0
  -26.0140  -30.8510   21.3160 C   0  0  0  0  0  2  0  0  0  0  0  0
  -26.1140  -29.4760   20.6630 C   0  0  0  0  0  0  0  0  0  0  0  0
  -27.3130  -28.6980   20.6430 C   0  0  0  0  0  3  0  0  0  0  0  0
  -26.1360  -26.9390   19.4700 C   0  0  0  0  0  3  0  0  0  0  0  0
  -24.9600  -27.7060   19.4750 C   0  0  0  0  0  3  0  0  0  0  0  0
  -23.6990  -29.8280   20.1240 C   0  0  0  0  0  2  0  0  0  0  0  0
  -24.7370  -31.1040   22.0430 N   0  0  0  0  0  0  0  0  0  0  0  0
  -23.5750  -32.1690   23.6770 O   0  0  0  0  0  0  0  0  0  0  0  0
  -22.8330  -29.4680   22.4640 C   0  0  0  0  0  0  0  0  0  0  0  0
  -21.5060  -29.2860   22.3500 N   0  0  0  0  0  0  0  0  0  0  0  0
  -23.5240  -28.8340   23.2670 O   0  0  0  0  0  0  0  0  0  0  0  0
  -21.0060  -29.8500   21.6770 H   0  0  0  0  0  0  0  0  0  0  0  0
  -18.1320  -28.1080   22.9180 C   0  0  0  0  0  0  0  0  0  0  0  0
  -20.6990  -28.3400   23.1230 C   0  0  0  0  0  3  0  0  0  0  0  0
  -20.7730  -26.9200   22.5160 C   0  0  0  0  0  2  0  0  0  0  0  0
  -19.6420  -26.6270   21.5260 C   0  0  0  0  0  2  0  0  0  0  0  0
  -18.2790  -26.7710   22.2100 C   0  0  0  0  0  2  0  0  0  0  0  0
  -19.2690  -28.8510   23.3340 C   0  0  0  0  0  0  0  0  0  0  0  0
  -19.0780  -30.1020   23.9590 C   0  0  0  0  0  3  0  0  0  0  0  0
  -17.7830  -30.6120   24.1710 C   0  0  0  0  0  3  0  0  0  0  0  0
  -16.6610  -29.8660   23.7710 C   0  0  0  0  0  3  0  0  0  0  0  0
  -16.8370  -28.6160   23.1510 C   0  0  0  0  0  3  0  0  0  0  0  0
  -25.9360  -32.5600   23.7620 C   0  0  0  0  0  3  0  0  0  0  0  0
  -26.4850  -31.7760   25.0170 C   0  0  1  0  0  0  0  0  0  0  0  0
  -25.4060  -31.4830   26.0880 C   0  0  0  0  0  1  0  0  0  0  0  0
  -27.1060  -30.4260   24.5930 C   0  0  0  0  0  1  0  0  0  0  0  0
  -27.6180  -32.5900   25.6850 C   0  0  0  0  0  1  0  0  0  0  0  0
  -25.5930  -33.9430   24.1250 N   0  0  0  0  0  0  0  0  0  0  0  0
  -25.8960  -35.0210   23.3880 C   0  0  0  0  0  0  0  0  0  0  0  0
  -26.5620  -34.9570   22.3500 O   0  0  0  0  0  0  0  0  0  0  0  0
  -24.9930  -34.0640   24.9260 H   0  0  0  0  0  0  0  0  0  0  0  0
  -24.1380  -36.7930   23.0730 C   0  0  0  0  0  1  0  0  0  0  0  0
  -25.3810  -36.3880   23.8790 C   0  0  0  0  0  3  0  0  0  0  0  0
  -27.4880  -37.2930   24.7550 C   0  0  0  0  0  1  0  0  0  0  0  0
  -26.3940  -37.4610   23.8020 N   0  0  0  0  0  0  0  0  0  0  0  0
  -25.9700  -38.3700   23.9630 H   0  0  0  0  0  0  0  0  0  0  0  0
  1  3  1  0
  1 54  1  0
  2  1  1  0
  3  6  1  0
  4  2  1  0
  4  5  1  0
  6 13  1  0
  6  5  1  0
  7  2  2  0
  8  3  2  0
  9 11  1  0
 10 12  2  0
 10 13  1  0
 12 14  1  0
 13  9  2  0
 14 23  1  0
 14 11  2  0
 15 23  1  0
 16 21  1  0
 17 18  1  0
 17 16  1  0
 19 18  1  0
 19 27  1  0
 19 20  1  0
 21 15  1  0
 21 20  1  0
 22 15  2  0
 23 53  1  0
 24 25  2  0
 25 44  1  0
 26 29  1  0
 26 25  1  0
 27 28  1  0
 27 24  1  0
 28 26  2  0
 29 30  1  0
 30 31  2  0
 32 35  1  0
 32 31  1  0
 33 32  2  0
 34 33  1  0
 34 29  2  0
 35 36  1  0
 36 37  1  0
 37 38  2  0
 39 38  1  0
 39 43  1  0
 40 39  2  0
 41 36  2  0
 41 40  1  0
 42 41  1  0
 44 45  1  0
 45 47  1  0
 45 48  1  0
 46 44  2  0
 49 24  1  0
 49 50  1  0
 51 49  1  0
 53 52  1  0
 54 55  1  0
 56 67  2  0
 57 55  1  0
 57 62  1  0
 58 66  1  0
 58 68  1  0
 59 65  1  0
 59 61  1  0
 60 66  1  0
 61 60  1  0
 62 61  2  0
 63 64  1  0
 63 57  2  0
 64 59  2  0
 65 58  1  0
 66 56  1  0
 68 70  2  0
 69 68  1  0
 71 69  1  0
 72 81  2  0
 72 77  1  0
 73 69  1  0
 73 77  1  0
 74 73  1  0
 75 76  1  0
 75 74  1  0
 76 72  1  0
 77 78  2  0
 78 79  1  0
 80 79  2  0
 81 80  1  0
 82 56  1  0
 82 87  1  0
 82 83  1  0
 83 86  1  1
 83 84  1  0
 85 83  1  0
 87 90  1  0
 88 92  1  0
 88 87  1  0
 89 88  2  0
 92 91  1  0
 94 92  1  0
 94 95  1  0
 94 93  1  0
M  ISO  4  15 100  23 100  54 101  55 101
M  END
>  <TORSDO>  (17) 
F 19

>  <SCORE>  (17) 
-11.496

>  <name>  (17) 
16

>  <ligand_id>  (17) 
16

>  <original_smiles>  (17) 
[H]c1c([H])c([H])c2c(c1[H])C([H])([H])C([H])([H])C([H])([H])C2([H])N([H])C(=O)C1([H])N(C(=O)C([H])(N([H])C(=O)C([H])(N([H])C([H])([H])[H])C([H])([H])[H])C(C([H])([H])[H])(C([H])([H])[H])C([H])([H])[H])C([H])([H])c2c([H])c(OC([H])([H])C3=C([O-])C([H])([H])C([H])([H])N(c4c([H])c([H])c(N(C(=O)N5C([H])([H])C([H])([H])C([H])([H])C([H])(n6nc(-c7c([H])c([H])c(Oc8c([H])c([H])c(F)c([H])c8F)c([H])c7[H])c(C(=O)N([H])[H])c6N([H])[H])C5([H])[H])C([H])([H])C([H])([H])[H])c([H])c4[H])C3=O)c([H])c([H])c2C1([H])[H]

>  <smiles>  (17) 
[H]c1c([H])c([H])c2c(c1[H])C([H])([H])C([H])([H])C([H])([H])C2([H])N([H])C(=O)C1([H])N(C(=O)C([H])(N([H])C(=O)C([H])(N([H])C([H])([H])[H])C([H])([H])[H])C(C([H])([H])[H])(C([H])([H])[H])C([H])([H])[H])C([H])([H])c2c([H])c(OC([H])([H])C3=C([O-])C([H])([H])C([H])([H])N(c4c([H])c([H])c(N(C(=O)N5C([H])([H])C([H])([H])C([H])([H])C([H])(n6nc(-c7c([H])c([H])c(Oc8c([H])c([H])c(F)c([H])c8F)c([H])c7[H])c(C(=O)N([H])[H])c6N([H])[H])C5([H])[H])C([H])([H])C([H])([H])[H])c([H])c4[H])C3=O)c([H])c([H])c2C1([H])[H]

$$$$
17:0:0
     RDKit          3D

 92100  0  0  1  0  0  0  0  0999 V2000
  -30.0050  -21.5660   20.5910 N   0  0  0  0  0  0  0  0  0  0  0  0
  -30.6540  -22.0300   21.2260 H   0  0  0  0  0  0  0  0  0  0  0  0
  -30.9840  -19.4550   21.3580 C   0  0  0  0  0  3  0  0  0  0  0  0
  -31.0730  -18.0380   21.4150 C   0  0  0  0  0  3  0  0  0  0  0  0
  -29.2640  -19.2900   19.7010 C   0  0  0  0  0  3  0  0  0  0  0  0
  -29.3630  -17.8540   19.7380 C   0  0  0  0  0  0  0  0  0  0  0  0
  -30.0550  -20.1310   20.5310 C   0  0  0  0  0  0  0  0  0  0  0  0
  -30.2470  -17.1780   20.6410 C   0  0  0  0  0  0  0  0  0  0  0  0
  -28.4580  -17.0510   18.8280 C   0  0  0  0  0  1  0  0  0  0  0  0
  -30.6960  -14.7170   20.1080 C   0  0  0  0  0  0  0  0  0  0  0  0
  -30.3130  -12.5530   18.9120 C   0  0  0  0  0  2  0  0  0  0  0  0
  -29.2980  -12.7260   17.7620 C   0  0  0  0  0  2  0  0  0  0  0  0
  -27.8600  -12.5250   18.2750 C   0  0  0  0  0  2  0  0  0  0  0  0
  -27.5790  -13.3400   19.5590 C   0  0  0  0  0  3  0  0  0  0  0  0
  -28.7050  -13.1680   20.5990 C   0  0  0  0  0  2  0  0  0  0  0  0
  -29.9880  -13.5370   19.9700 N   0  0  0  0  0  0  0  0  0  0  0  0
  -31.7440  -14.8860   19.4780 O   0  0  0  0  0  0  0  0  0  0  0  0
  -30.1960  -15.4020   22.3630 C   0  0  0  0  0  1  0  0  0  0  0  0
  -30.2110  -15.7230   20.9250 N   0  0  0  0  0  0  0  0  0  0  0  0
  -25.2450  -13.9120   20.4740 C   0  0  0  0  0  0  0  0  0  0  0  0
  -24.2060  -13.1260   20.8880 C   0  0  0  0  0  0  0  0  0  0  0  0
  -24.6620  -11.7780   20.7740 C   0  0  0  0  0  0  0  0  0  0  0  0
  -26.2680  -13.0410   20.1270 N   0  0  0  0  0  0  0  0  0  0  0  0
  -25.9270  -11.7500   20.3710 N   0  0  0  0  0  0  0  0  0  0  0  0
  -23.9470  -10.5110   20.9660 C   0  0  0  0  0  0  0  0  0  0  0  0
  -24.4160   -9.5260   21.8640 C   0  0  0  0  0  3  0  0  0  0  0  0
  -23.7000   -8.3250   22.0450 C   0  0  0  0  0  3  0  0  0  0  0  0
  -22.5020   -8.0970   21.3280 C   0  0  0  0  0  0  0  0  0  0  0  0
  -22.0510   -9.0720   20.4190 C   0  0  0  0  0  3  0  0  0  0  0  0
  -22.7670  -10.2650   20.2360 C   0  0  0  0  0  3  0  0  0  0  0  0
  -21.7540   -6.9480   21.4190 O   0  0  0  0  0  0  0  0  0  0  0  0
  -21.7170   -6.2050   22.5720 C   0  0  0  0  0  0  0  0  0  0  0  0
  -21.3050   -6.7590   23.8030 C   0  0  0  0  0  3  0  0  0  0  0  0
  -21.2140   -5.9430   24.9470 C   0  0  0  0  0  3  0  0  0  0  0  0
  -21.5250   -4.5720   24.8620 C   0  0  0  0  0  0  0  0  0  0  0  0
  -21.9290   -4.0170   23.6360 C   0  0  0  0  0  3  0  0  0  0  0  0
  -22.0220   -4.8320   22.4930 C   0  0  0  0  0  0  0  0  0  0  0  0
  -22.3930   -4.2880   21.3090 F   0  0  0  0  0  0  0  0  0  0  0  0
  -21.4290   -3.7850   25.9600 F   0  0  0  0  0  0  0  0  0  0  0  0
  -22.8330  -13.5950   21.2750 C   0  0  0  0  0  0  0  0  0  0  0  0
  -22.1740  -12.8800   22.1790 N   0  0  0  0  0  0  0  0  0  0  0  0
  -22.3550  -14.6290   20.8090 O   0  0  0  0  0  0  0  0  0  0  0  0
  -22.5730  -12.0420   22.5750 H   0  0  0  0  0  0  0  0  0  0  0  0
  -21.2550  -13.1750   22.4810 H   0  0  0  0  0  0  0  0  0  0  0  0
  -25.3940  -15.2880   20.3390 N   0  0  0  0  0  0  0  0  0  0  0  0
  -24.6380  -15.9340   20.5340 H   0  0  0  0  0  0  0  0  0  0  0  0
  -26.2220  -15.7390   19.9790 H   0  0  0  0  0  0  0  0  0  0  0  0
  -28.9990  -22.5100   20.0060 C   0  0  0  0  0  2  0  0  0  0  0  0
  -29.1780  -24.0440   20.3810 C   0  0  0  0  0  0  0  0  0  0  0  0
  -30.1390  -24.3900   21.0780 O   0  0  0  0  0  0  0  0  0  0  0  0
  -28.1260  -25.1080   19.8770 C   0  0  0  0  0  2  0  0  0  0  0  0
  -28.3250  -26.5270   20.2720 O   0  0  0  0  0  0  0  0  0  0  0  0
  -24.5940  -31.9310   23.2890 C   0  0  0  0  0  0  0  0  0  0  0  0
  -27.2060  -27.3790   20.2170 C   0  0  0  0  0  0  0  0  0  0  0  0
  -23.3890  -30.5380   21.6430 C   0  0  0  0  0  3  0  0  0  0  0  0
  -24.8390  -28.9930   20.2150 C   0  0  0  0  0  0  0  0  0  0  0  0
  -25.9300  -30.8510   21.4660 C   0  0  0  0  0  2  0  0  0  0  0  0
  -26.0080  -29.4760   20.8160 C   0  0  0  0  0  0  0  0  0  0  0  0
  -27.1920  -28.6790   20.8110 C   0  0  0  0  0  3  0  0  0  0  0  0
  -26.0120  -26.9540   19.5870 C   0  0  0  0  0  3  0  0  0  0  0  0
  -24.8430  -27.7370   19.5920 C   0  0  0  0  0  3  0  0  0  0  0  0
  -23.6030  -29.8670   20.2620 C   0  0  0  0  0  2  0  0  0  0  0  0
  -24.6560  -31.1240   22.1890 N   0  0  0  0  0  0  0  0  0  0  0  0
  -23.5110  -32.2100   23.8220 O   0  0  0  0  0  0  0  0  0  0  0  0
  -22.7240  -29.5190   22.6010 C   0  0  0  0  0  0  0  0  0  0  0  0
  -21.3980  -29.3410   22.4680 N   0  0  0  0  0  0  0  0  0  0  0  0
  -23.4000  -28.8930   23.4210 O   0  0  0  0  0  0  0  0  0  0  0  0
  -20.9130  -29.8980   21.7790 H   0  0  0  0  0  0  0  0  0  0  0  0
  -18.0170  -28.1470   22.9540 C   0  0  0  0  0  0  0  0  0  0  0  0
  -20.5750  -28.4060   23.2360 C   0  0  0  0  0  3  0  0  0  0  0  0
  -20.6770  -26.9730   22.6630 C   0  0  0  0  0  2  0  0  0  0  0  0
  -19.5810  -26.6510   21.6430 C   0  0  0  0  0  2  0  0  0  0  0  0
  -18.1960  -26.7970   22.2810 C   0  0  0  0  0  2  0  0  0  0  0  0
  -19.1350  -28.9090   23.3890 C   0  0  0  0  0  0  0  0  0  0  0  0
  -18.9150  -30.1720   23.9790 C   0  0  0  0  0  3  0  0  0  0  0  0
  -17.6110  -30.6750   24.1390 C   0  0  0  0  0  3  0  0  0  0  0  0
  -16.5070  -29.9100   23.7210 C   0  0  0  0  0  3  0  0  0  0  0  0
  -16.7110  -28.6480   23.1360 C   0  0  0  0  0  3  0  0  0  0  0  0
  -25.8780  -32.5580   23.9130 C   0  0  0  0  0  3  0  0  0  0  0  0
  -26.3810  -31.7950   25.1990 C   0  0  1  0  0  0  0  0  0  0  0  0
  -25.2800  -31.5760   26.2630 C   0  0  0  0  0  1  0  0  0  0  0  0
  -26.9570  -30.4090   24.8260 C   0  0  0  0  0  1  0  0  0  0  0  0
  -27.5330  -32.5860   25.8610 C   0  0  0  0  0  1  0  0  0  0  0  0
  -25.5780  -33.9620   24.2290 N   0  0  0  0  0  0  0  0  0  0  0  0
  -25.9050  -35.0050   23.4530 C   0  0  0  0  0  0  0  0  0  0  0  0
  -26.5650  -34.8860   22.4170 O   0  0  0  0  0  0  0  0  0  0  0  0
  -24.9940  -34.1290   25.0360 H   0  0  0  0  0  0  0  0  0  0  0  0
  -24.1740  -36.7950   23.1040 C   0  0  0  0  0  1  0  0  0  0  0  0
  -25.4290  -36.4010   23.8990 C   0  0  0  0  0  3  0  0  0  0  0  0
  -27.5790  -37.2970   24.6770 C   0  0  0  0  0  1  0  0  0  0  0  0
  -26.4620  -37.4490   23.7480 N   0  0  0  0  0  0  0  0  0  0  0  0
  -26.0600  -38.3730   23.8810 H   0  0  0  0  0  0  0  0  0  0  0  0
  1  2  1  0
  3  4  1  0
  5  6  2  0
  5  7  1  0
  6  8  1  0
  7  1  1  0
  7  3  2  0
  8 19  1  0
  8  4  2  0
  9  6  1  0
 10 19  1  0
 11 16  1  0
 12 13  1  0
 12 11  1  0
 14 13  1  0
 14 23  1  0
 14 15  1  0
 16 10  1  0
 16 15  1  0
 17 10  2  0
 19 18  1  0
 20 21  2  0
 21 40  1  0
 22 21  1  0
 22 25  1  0
 23 24  1  0
 23 20  1  0
 24 22  2  0
 25 26  1  0
 26 27  2  0
 28 31  1  0
 28 27  1  0
 29 28  2  0
 30 29  1  0
 30 25  2  0
 31 32  1  0
 32 33  1  0
 33 34  2  0
 35 34  1  0
 35 39  1  0
 36 35  2  0
 37 32  2  0
 37 36  1  0
 38 37  1  0
 40 41  1  0
 41 44  1  0
 41 43  1  0
 42 40  2  0
 45 20  1  0
 45 46  1  0
 47 45  1  0
 48 49  1  0
 48  1  1  0
 49 50  2  0
 51 52  1  0
 51 49  1  0
 53 64  2  0
 54 52  1  0
 54 59  1  0
 55 63  1  0
 55 65  1  0
 56 62  1  0
 56 58  1  0
 57 63  1  0
 58 57  1  0
 59 58  2  0
 60 61  1  0
 60 54  2  0
 61 56  2  0
 62 55  1  0
 63 53  1  0
 65 67  2  0
 66 65  1  0
 68 66  1  0
 69 78  2  0
 69 74  1  0
 70 66  1  0
 70 74  1  0
 71 70  1  0
 72 73  1  0
 72 71  1  0
 73 69  1  0
 74 75  2  0
 75 76  1  0
 77 76  2  0
 78 77  1  0
 79 53  1  0
 79 84  1  0
 79 80  1  0
 80 83  1  1
 80 81  1  0
 82 80  1  0
 84 87  1  0
 85 89  1  0
 85 84  1  0
 86 85  2  0
 89 88  1  0
 91 92  1  0
 91 89  1  0
 91 90  1  0
M  ISO  4  10 100  19 100  51 101  52 101
M  END
>  <TORSDO>  (18) 
F 20

>  <SCORE>  (18) 
-13.077

>  <name>  (18) 
17

>  <ligand_id>  (18) 
17

>  <original_smiles>  (18) 
[H]c1c([H])c([H])c2c(c1[H])C([H])([H])C([H])([H])C([H])([H])C2([H])N([H])C(=O)C1([H])N(C(=O)C([H])(N([H])C(=O)C([H])(N([H])C([H])([H])[H])C([H])([H])[H])C(C([H])([H])[H])(C([H])([H])[H])C([H])([H])[H])C([H])([H])c2c([H])c(OC([H])([H])C(=O)C([H])([H])N([H])c3c([H])c([H])c(N(C(=O)N4C([H])([H])C([H])([H])C([H])([H])C([H])(n5nc(-c6c([H])c([H])c(Oc7c([H])c([H])c(F)c([H])c7F)c([H])c6[H])c(C(=O)N([H])[H])c5N([H])[H])C4([H])[H])C([H])([H])[H])c(C([H])([H])[H])c3[H])c([H])c([H])c2C1([H])[H]

>  <smiles>  (18) 
[H]c1c([H])c([H])c2c(c1[H])C([H])([H])C([H])([H])C([H])([H])C2([H])N([H])C(=O)C1([H])N(C(=O)C([H])(N([H])C(=O)C([H])(N([H])C([H])([H])[H])C([H])([H])[H])C(C([H])([H])[H])(C([H])([H])[H])C([H])([H])[H])C([H])([H])c2c([H])c(OC([H])([H])C(=O)C([H])([H])N([H])c3c([H])c([H])c(N(C(=O)N4C([H])([H])C([H])([H])C([H])([H])C([H])(n5nc(-c6c([H])c([H])c(Oc7c([H])c([H])c(F)c([H])c7F)c([H])c6[H])c(C(=O)N([H])[H])c5N([H])[H])C4([H])[H])C([H])([H])[H])c(C([H])([H])[H])c3[H])c([H])c([H])c2C1([H])[H]

$$$$
18:0:0
     RDKit          3D

 92100  0  0  1  0  0  0  0  0999 V2000
  -29.3010  -19.7880   20.5370 C   0  0  0  0  0  2  0  0  0  0  0  0
  -29.7650  -20.0830   17.9200 C   0  0  0  0  0  3  0  0  0  0  0  0
  -29.0700  -21.2570   20.0120 C   0  0  0  0  0  0  0  0  0  0  0  0
  -29.9170  -18.7610   18.4470 C   0  0  0  0  0  0  0  0  0  0  0  0
  -29.7490  -18.4490   19.8310 C   0  0  0  0  0  0  0  0  0  0  0  0
  -29.3640  -21.2490   18.6330 C   0  0  0  0  0  0  0  0  0  0  0  0
  -30.1440  -17.6720   17.4100 C   0  0  0  0  0  1  0  0  0  0  0  0
  -30.5540  -15.5380   19.8790 C   0  0  0  0  0  0  0  0  0  0  0  0
  -30.4920  -13.0830   18.9040 C   0  0  0  0  0  2  0  0  0  0  0  0
  -29.4950  -12.8630   17.7300 C   0  0  0  0  0  2  0  0  0  0  0  0
  -28.0990  -12.5090   18.2600 C   0  0  0  0  0  2  0  0  0  0  0  0
  -27.7140  -13.4460   19.4210 C   0  0  0  0  0  3  0  0  0  0  0  0
  -28.8190  -13.5890   20.4780 C   0  0  0  0  0  2  0  0  0  0  0  0
  -29.9930  -14.2000   19.8170 N   0  0  0  0  0  0  0  0  0  0  0  0
  -31.7180  -15.5150   19.4340 O   0  0  0  0  0  0  0  0  0  0  0  0
  -29.8990  -16.8540   20.3290 N   0  0  0  0  0  0  0  0  0  0  0  0
  -25.4260  -13.9920   20.3830 C   0  0  0  0  0  0  0  0  0  0  0  0
  -24.3960  -13.2120   20.8180 C   0  0  0  0  0  0  0  0  0  0  0  0
  -24.8530  -11.8600   20.7210 C   0  0  0  0  0  0  0  0  0  0  0  0
  -26.4340  -13.1170   20.0250 N   0  0  0  0  0  0  0  0  0  0  0  0
  -26.1130  -11.8270   20.3010 N   0  0  0  0  0  0  0  0  0  0  0  0
  -24.1390  -10.5960   20.9370 C   0  0  0  0  0  0  0  0  0  0  0  0
  -24.5960   -9.6320   21.8620 C   0  0  0  0  0  3  0  0  0  0  0  0
  -23.8740   -8.4370   22.0620 C   0  0  0  0  0  3  0  0  0  0  0  0
  -22.6810   -8.1960   21.3380 C   0  0  0  0  0  0  0  0  0  0  0  0
  -22.2420   -9.1520   20.4040 C   0  0  0  0  0  3  0  0  0  0  0  0
  -22.9660  -10.3380   20.2020 C   0  0  0  0  0  3  0  0  0  0  0  0
  -21.9280   -7.0520   21.4490 O   0  0  0  0  0  0  0  0  0  0  0  0
  -21.8580   -6.3460   22.6240 C   0  0  0  0  0  0  0  0  0  0  0  0
  -21.3900   -6.9340   23.8190 C   0  0  0  0  0  3  0  0  0  0  0  0
  -21.2640   -6.1530   24.9860 C   0  0  0  0  0  3  0  0  0  0  0  0
  -21.6030   -4.7870   24.9590 C   0  0  0  0  0  0  0  0  0  0  0  0
  -22.0680   -4.2000   23.7690 C   0  0  0  0  0  3  0  0  0  0  0  0
  -22.1910   -4.9760   22.6040 C   0  0  0  0  0  0  0  0  0  0  0  0
  -22.6170   -4.3990   21.4560 F   0  0  0  0  0  0  0  0  0  0  0  0
  -21.4770   -4.0360   26.0780 F   0  0  0  0  0  0  0  0  0  0  0  0
  -23.0280  -13.6900   21.2060 C   0  0  0  0  0  0  0  0  0  0  0  0
  -22.3670  -12.9930   22.1190 N   0  0  0  0  0  0  0  0  0  0  0  0
  -22.5580  -14.7240   20.7300 O   0  0  0  0  0  0  0  0  0  0  0  0
  -22.7570  -12.1550   22.5260 H   0  0  0  0  0  0  0  0  0  0  0  0
  -21.4550  -13.3080   22.4200 H   0  0  0  0  0  0  0  0  0  0  0  0
  -25.5900  -15.3680   20.2340 N   0  0  0  0  0  0  0  0  0  0  0  0
  -24.8390  -16.0180   20.4390 H   0  0  0  0  0  0  0  0  0  0  0  0
  -26.4190  -15.8180   19.8680 H   0  0  0  0  0  0  0  0  0  0  0  0
  -30.5480  -17.1820   22.7320 C   0  0  0  0  0  1  0  0  0  0  0  0
  -29.4640  -16.7730   21.7340 C   0  0  0  0  0  2  0  0  0  0  0  0
  -29.1480  -22.4210   17.9140 N   0  0  0  0  0  0  0  0  0  0  0  0
  -28.9920  -22.3830   16.9120 H   0  0  0  0  0  0  0  0  0  0  0  0
  -28.6160  -23.1470   18.3870 H   0  0  0  0  0  0  0  0  0  0  0  0
  -28.4150  -22.7380   20.6740 C   0  0  0  0  0  0  0  0  0  0  0  0
  -28.1250  -24.2280   20.7910 C   0  0  0  0  0  3  0  0  0  0  0  0
  -28.3720  -25.7130   20.3680 O   0  0  0  0  0  0  0  0  0  0  0  0
  -24.7480  -31.8690   23.2460 C   0  0  0  0  0  0  0  0  0  0  0  0
  -27.3890  -26.8760   20.3790 C   0  0  0  0  0  0  0  0  0  0  0  0
  -23.6020  -30.4480   21.5960 C   0  0  0  0  0  3  0  0  0  0  0  0
  -25.0950  -28.8150   20.2420 C   0  0  0  0  0  0  0  0  0  0  0  0
  -26.1760  -30.6470   21.5150 C   0  0  0  0  0  2  0  0  0  0  0  0
  -26.2710  -29.2130   20.8930 C   0  0  0  0  0  0  0  0  0  0  0  0
  -27.4110  -28.2670   20.9350 C   0  0  0  0  0  3  0  0  0  0  0  0
  -26.1810  -26.6630   19.6740 C   0  0  0  0  0  3  0  0  0  0  0  0
  -25.0800  -27.5590   19.6150 C   0  0  0  0  0  3  0  0  0  0  0  0
  -23.8780  -29.7480   20.2360 C   0  0  0  0  0  2  0  0  0  0  0  0
  -24.8640  -31.0170   22.1730 N   0  0  0  0  0  0  0  0  0  0  0  0
  -23.6440  -32.1580   23.7380 O   0  0  0  0  0  0  0  0  0  0  0  0
  -22.8880  -29.4610   22.5570 C   0  0  0  0  0  0  0  0  0  0  0  0
  -21.5610  -29.2870   22.4090 N   0  0  0  0  0  0  0  0  0  0  0  0
  -23.5390  -28.8470   23.4080 O   0  0  0  0  0  0  0  0  0  0  0  0
  -21.0880  -29.8360   21.7060 H   0  0  0  0  0  0  0  0  0  0  0  0
  -18.1820  -28.0330   22.8440 C   0  0  0  0  0  0  0  0  0  0  0  0
  -20.7300  -28.3500   23.1730 C   0  0  0  0  0  3  0  0  0  0  0  0
  -20.8700  -26.9080   22.6290 C   0  0  0  0  0  2  0  0  0  0  0  0
  -19.8030  -26.5480   21.5890 C   0  0  0  0  0  2  0  0  0  0  0  0
  -18.4010  -26.6780   22.1920 C   0  0  0  0  0  2  0  0  0  0  0  0
  -19.2750  -28.8240   23.2890 C   0  0  0  0  0  0  0  0  0  0  0  0
  -19.0130  -30.0870   23.8610 C   0  0  0  0  0  3  0  0  0  0  0  0
  -17.6940  -30.5630   23.9900 C   0  0  0  0  0  3  0  0  0  0  0  0
  -16.6160  -29.7710   23.5560 C   0  0  0  0  0  3  0  0  0  0  0  0
  -16.8620  -28.5090   22.9890 C   0  0  0  0  0  3  0  0  0  0  0  0
  -25.9960  -32.5340   23.9010 C   0  0  0  0  0  3  0  0  0  0  0  0
  -26.4670  -31.7990   25.2170 C   0  0  1  0  0  0  0  0  0  0  0  0
  -25.3350  -31.5810   26.2490 C   0  0  0  0  0  1  0  0  0  0  0  0
  -27.0760  -30.4170   24.8920 C   0  0  0  0  0  1  0  0  0  0  0  0
  -27.5840  -32.6190   25.9040 C   0  0  0  0  0  1  0  0  0  0  0  0
  -25.6620  -33.9390   24.2010 N   0  0  0  0  0  0  0  0  0  0  0  0
  -26.0100  -34.9900   23.4480 C   0  0  0  0  0  0  0  0  0  0  0  0
  -26.7070  -34.8810   22.4360 O   0  0  0  0  0  0  0  0  0  0  0  0
  -25.0510  -34.0980   24.9890 H   0  0  0  0  0  0  0  0  0  0  0  0
  -24.2880  -36.7820   23.0340 C   0  0  0  0  0  1  0  0  0  0  0  0
  -25.5080  -36.3830   23.8810 C   0  0  0  0  0  3  0  0  0  0  0  0
  -27.6170  -37.2860   24.7600 C   0  0  0  0  0  1  0  0  0  0  0  0
  -26.5390  -37.4400   23.7860 N   0  0  0  0  0  0  0  0  0  0  0  0
  -26.1240  -38.3590   23.9170 H   0  0  0  0  0  0  0  0  0  0  0  0
  2  4  1  0
  2  6  2  0
  3  1  1  0
  3 50  2  0
  4  5  2  0
  5 16  1  0
  5  1  1  0
  6  3  1  0
  7  4  1  0
  8 16  1  0
  9 14  1  0
 10 11  1  0
 10  9  1  0
 12 11  1  0
 12 20  1  0
 12 13  1  0
 14  8  1  0
 14 13  1  0
 15  8  2  0
 16 46  1  0
 17 18  2  0
 18 37  1  0
 19 18  1  0
 19 22  1  0
 20 21  1  0
 20 17  1  0
 21 19  2  0
 22 23  1  0
 23 24  2  0
 25 28  1  0
 25 24  1  0
 26 25  2  0
 27 26  1  0
 27 22  2  0
 28 29  1  0
 29 30  1  0
 30 31  2  0
 32 31  1  0
 32 36  1  0
 33 32  2  0
 34 29  2  0
 34 33  1  0
 35 34  1  0
 37 38  1  0
 38 41  1  0
 38 40  1  0
 39 37  2  0
 42 17  1  0
 42 43  1  0
 44 42  1  0
 46 45  1  0
 47 49  1  0
 47  6  1  0
 48 47  1  0
 50 51  2  0
 52 54  1  0
 52 51  1  0
 53 64  2  0
 54 59  1  0
 55 63  1  0
 55 65  1  0
 56 58  1  0
 57 63  1  0
 58 59  2  0
 58 57  1  0
 60 54  2  0
 61 60  1  0
 61 56  2  0
 62 56  1  0
 62 55  1  0
 63 53  1  0
 65 67  2  0
 66 65  1  0
 68 66  1  0
 69 78  2  0
 69 74  1  0
 70 66  1  0
 70 74  1  0
 71 70  1  0
 72 73  1  0
 72 71  1  0
 73 69  1  0
 74 75  2  0
 75 76  1  0
 77 76  2  0
 78 77  1  0
 79 53  1  0
 79 84  1  0
 79 80  1  0
 80 83  1  1
 80 81  1  0
 82 80  1  0
 84 87  1  0
 85 89  1  0
 85 84  1  0
 86 85  2  0
 89 88  1  0
 91 89  1  0
 91 92  1  0
 91 90  1  0
M  ISO  4   8 100  16 100  51 101  52 101
M  END
>  <TORSDO>  (19) 
F 19

>  <SCORE>  (19) 
-14.266

>  <name>  (19) 
18

>  <ligand_id>  (19) 
18

>  <original_smiles>  (19) 
[H]C(Oc1c([H])c([H])c2c(c1[H])C([H])([H])N(C(=O)C([H])(N([H])C(=O)C([H])(N([H])C([H])([H])[H])C([H])([H])[H])C(C([H])([H])[H])(C([H])([H])[H])C([H])([H])[H])C([H])(C(=O)N([H])C1([H])c3c([H])c([H])c([H])c([H])c3C([H])([H])C([H])([H])C1([H])[H])C2([H])[H])=C([H])c1c([H])c(N(C(=O)N2C([H])([H])C([H])([H])C([H])([H])C([H])(n3nc(-c4c([H])c([H])c(Oc5c([H])c([H])c(F)c([H])c5F)c([H])c4[H])c(C(=O)N([H])[H])c3N([H])[H])C2([H])[H])C([H])([H])C([H])([H])[H])c(C([H])([H])[H])c([H])c1N([H])[H]

>  <smiles>  (19) 
[H]C(Oc1c([H])c([H])c2c(c1[H])C([H])([H])N(C(=O)C([H])(N([H])C(=O)C([H])(N([H])C([H])([H])[H])C([H])([H])[H])C(C([H])([H])[H])(C([H])([H])[H])C([H])([H])[H])C([H])(C(=O)N([H])C1([H])c3c([H])c([H])c([H])c([H])c3C([H])([H])C([H])([H])C1([H])[H])C2([H])[H])=C([H])c1c([H])c(N(C(=O)N2C([H])([H])C([H])([H])C([H])([H])C([H])(n3nc(-c4c([H])c([H])c(Oc5c([H])c([H])c(F)c([H])c5F)c([H])c4[H])c(C(=O)N([H])[H])c3N([H])[H])C2([H])[H])C([H])([H])C([H])([H])[H])c(C([H])([H])[H])c([H])c1N([H])[H]

$$$$
19:0:0
     RDKit          3D

 98107  0  0  1  0  0  0  0  0999 V2000
  -27.3550  -21.1780   19.9510 C   0  0  0  0  0  0  0  0  0  0  0  0
  -29.2310  -22.5970   19.6320 C   0  0  0  0  0  0  0  0  0  0  0  0
  -26.5390  -22.3170   20.5600 C   0  0  0  0  0  2  0  0  0  0  0  0
  -26.8510  -23.6310   19.8680 C   0  0  0  0  0  2  0  0  0  0  0  0
  -28.3560  -23.9330   19.8520 C   0  0  0  0  0  3  0  0  0  0  0  0
  -28.7040  -21.3140   19.7800 N   0  0  0  0  0  0  0  0  0  0  0  0
  -26.7380  -20.1560   19.6240 O   0  0  0  0  0  0  0  0  0  0  0  0
  -30.4230  -22.7500   19.3450 O   0  0  0  0  0  0  0  0  0  0  0  0
  -31.0600  -18.2580   19.0470 C   0  0  0  0  0  3  0  0  0  0  0  0
  -30.4280  -19.5460   18.9100 C   0  0  0  0  0  3  0  0  0  0  0  0
  -29.2560  -19.1510   20.9490 C   0  0  0  0  0  3  0  0  0  0  0  0
  -30.8020  -17.3580   20.1310 C   0  0  0  0  0  0  0  0  0  0  0  0
  -29.4880  -20.0410   19.8630 C   0  0  0  0  0  0  0  0  0  0  0  0
  -29.8450  -17.8640   21.0750 C   0  0  0  0  0  0  0  0  0  0  0  0
  -31.5620  -16.0170   20.3910 C   0  0  0  0  0  3  0  0  0  0  0  0
  -32.0050  -15.7690   21.5570 N   0  0  0  0  0  2  0  0  0  0  0  0
  -31.7420  -16.5290   22.1780 H   0  0  0  0  0  0  0  0  0  0  0  0
  -31.8560  -14.9440   19.2920 C   0  0  0  0  0  0  0  0  0  0  0  0
  -31.3410  -12.7320   18.2540 C   0  0  0  0  0  2  0  0  0  0  0  0
  -30.2370  -12.8940   17.1880 C   0  0  0  0  0  2  0  0  0  0  0  0
  -28.8390  -12.7990   17.8300 C   0  0  0  0  0  2  0  0  0  0  0  0
  -28.7110  -13.6850   19.0960 C   0  0  0  0  0  3  0  0  0  0  0  0
  -29.9070  -13.4770   20.0490 C   0  0  0  0  0  2  0  0  0  0  0  0
  -31.1400  -13.7660   19.2950 N   0  0  0  0  0  0  0  0  0  0  0  0
  -32.8100  -15.1090   18.5230 O   0  0  0  0  0  0  0  0  0  0  0  0
  -26.5230  -14.4130   20.2310 C   0  0  0  0  0  0  0  0  0  0  0  0
  -25.4630  -13.7000   20.7220 C   0  0  0  0  0  0  0  0  0  0  0  0
  -25.7860  -12.3240   20.5200 C   0  0  0  0  0  0  0  0  0  0  0  0
  -27.4340  -13.4750   19.7720 N   0  0  0  0  0  0  0  0  0  0  0  0
  -27.0020  -12.2070   20.0000 N   0  0  0  0  0  0  0  0  0  0  0  0
  -24.9860  -11.1130   20.7420 C   0  0  0  0  0  0  0  0  0  0  0  0
  -25.3610  -10.1430   21.6970 C   0  0  0  0  0  3  0  0  0  0  0  0
  -24.5650   -8.9960   21.9060 C   0  0  0  0  0  3  0  0  0  0  0  0
  -23.3790   -8.8110   21.1570 C   0  0  0  0  0  0  0  0  0  0  0  0
  -23.0200   -9.7680   20.1910 C   0  0  0  0  0  3  0  0  0  0  0  0
  -23.8170  -10.9060   19.9820 C   0  0  0  0  0  3  0  0  0  0  0  0
  -22.5560   -7.7170   21.2730 O   0  0  0  0  0  0  0  0  0  0  0  0
  -22.2520   -7.1710   22.4950 C   0  0  0  0  0  0  0  0  0  0  0  0
  -21.6350   -7.9260   23.5150 C   0  0  0  0  0  3  0  0  0  0  0  0
  -21.2770   -7.3070   24.7300 C   0  0  0  0  0  3  0  0  0  0  0  0
  -21.5260   -5.9350   24.9220 C   0  0  0  0  0  0  0  0  0  0  0  0
  -22.1350   -5.1800   23.9030 C   0  0  0  0  0  3  0  0  0  0  0  0
  -22.4940   -5.7970   22.6920 C   0  0  0  0  0  0  0  0  0  0  0  0
  -23.0610   -5.0600   21.7070 F   0  0  0  0  0  0  0  0  0  0  0  0
  -21.1750   -5.3390   26.0850 F   0  0  0  0  0  0  0  0  0  0  0  0
  -24.1800  -14.2640   21.2590 C   0  0  0  0  0  0  0  0  0  0  0  0
  -23.5920  -13.6120   22.2540 N   0  0  0  0  0  0  0  0  0  0  0  0
  -23.7170  -15.3200   20.8290 O   0  0  0  0  0  0  0  0  0  0  0  0
  -23.9850  -12.7590   22.6260 H   0  0  0  0  0  0  0  0  0  0  0  0
  -22.7400  -13.9760   22.6580 H   0  0  0  0  0  0  0  0  0  0  0  0
  -26.7780  -15.7770   20.1160 N   0  0  0  0  0  0  0  0  0  0  0  0
  -27.6060  -16.1800   19.6980 H   0  0  0  0  0  0  0  0  0  0  0  0
  -26.0850  -16.4720   20.3690 H   0  0  0  0  0  0  0  0  0  0  0  0
  -29.4170  -17.1310   22.1880 N   0  0  0  0  0  0  0  0  0  0  0  0
  -28.5630  -17.4240   22.6510 H   0  0  0  0  0  0  0  0  0  0  0  0
  -29.5100  -16.1220   22.1630 H   0  0  0  0  0  0  0  0  0  0  0  0
  -28.6310  -25.2300   18.9510 C   0  0  0  0  0  2  0  0  0  0  0  0
  -28.5130  -26.6050   19.5040 O   0  0  0  0  0  0  0  0  0  0  0  0
  -24.6170  -31.5710   22.9510 C   0  0  0  0  0  0  0  0  0  0  0  0
  -27.3390  -27.3720   19.4980 C   0  0  0  0  0  0  0  0  0  0  0  0
  -23.4350  -30.2630   21.2190 C   0  0  0  0  0  3  0  0  0  0  0  0
  -24.9150  -28.8850   19.6510 C   0  0  0  0  0  0  0  0  0  0  0  0
  -25.9570  -30.6870   21.0300 C   0  0  0  0  0  2  0  0  0  0  0  0
  -26.0710  -29.3670   20.2760 C   0  0  0  0  0  0  0  0  0  0  0  0
  -27.2800  -28.6170   20.1980 C   0  0  0  0  0  3  0  0  0  0  0  0
  -26.1670  -26.9530   18.8350 C   0  0  0  0  0  3  0  0  0  0  0  0
  -24.9650  -27.6830   18.9250 C   0  0  0  0  0  3  0  0  0  0  0  0
  -23.6490  -29.7060   19.7860 C   0  0  0  0  0  2  0  0  0  0  0  0
  -24.6890  -30.8550   21.7910 N   0  0  0  0  0  0  0  0  0  0  0  0
  -23.5340  -31.7660   23.5220 O   0  0  0  0  0  0  0  0  0  0  0  0
  -22.8250  -29.1520   22.1060 C   0  0  0  0  0  0  0  0  0  0  0  0
  -21.5000  -28.9530   21.9990 N   0  0  0  0  0  0  0  0  0  0  0  0
  -23.5400  -28.4750   22.8480 O   0  0  0  0  0  0  0  0  0  0  0  0
  -20.9800  -29.5560   21.3770 H   0  0  0  0  0  0  0  0  0  0  0  0
  -18.1710  -27.6170   22.4570 C   0  0  0  0  0  0  0  0  0  0  0  0
  -20.7250  -27.9330   22.7070 C   0  0  0  0  0  3  0  0  0  0  0  0
  -20.8580  -26.5550   22.0170 C   0  0  0  0  0  2  0  0  0  0  0  0
  -19.7480  -26.2790   20.9990 C   0  0  0  0  0  2  0  0  0  0  0  0
  -18.3730  -26.3320   21.6740 C   0  0  0  0  0  2  0  0  0  0  0  0
  -19.2740  -28.3770   22.9290 C   0  0  0  0  0  0  0  0  0  0  0  0
  -19.0290  -29.5820   23.6230 C   0  0  0  0  0  3  0  0  0  0  0  0
  -17.7130  -30.0280   23.8490 C   0  0  0  0  0  3  0  0  0  0  0  0
  -16.6240  -29.2640   23.3950 C   0  0  0  0  0  3  0  0  0  0  0  0
  -16.8550  -28.0600   22.7040 C   0  0  0  0  0  3  0  0  0  0  0  0
  -25.8890  -32.1970   23.6050 C   0  0  0  0  0  3  0  0  0  0  0  0
  -26.4160  -31.3810   24.8490 C   0  0  1  0  0  0  0  0  0  0  0  0
  -25.3290  -31.0860   25.9080 C   0  0  0  0  0  1  0  0  0  0  0  0
  -27.0150  -30.0280   24.4020 C   0  0  0  0  0  1  0  0  0  0  0  0
  -27.5580  -32.1620   25.5430 C   0  0  0  0  0  1  0  0  0  0  0  0
  -25.5560  -33.5750   23.9960 N   0  0  0  0  0  0  0  0  0  0  0  0
  -25.8800  -34.6660   23.2900 C   0  0  0  0  0  0  0  0  0  0  0  0
  -26.5580  -34.6190   22.2590 O   0  0  0  0  0  0  0  0  0  0  0  0
  -24.9570  -33.6850   24.8010 H   0  0  0  0  0  0  0  0  0  0  0  0
  -24.1280  -36.4490   23.0020 C   0  0  0  0  0  1  0  0  0  0  0  0
  -25.3680  -36.0250   23.8060 C   0  0  0  0  0  3  0  0  0  0  0  0
  -27.4760  -36.9060   24.7060 C   0  0  0  0  0  1  0  0  0  0  0  0
  -26.3860  -37.0970   23.7530 N   0  0  0  0  0  0  0  0  0  0  0  0
  -25.9640  -38.0040   23.9300 H   0  0  0  0  0  0  0  0  0  0  0  0
  1  3  1  0
  2  6  1  0
  2  5  1  0
  4  3  1  0
  5 57  1  0
  5  4  1  0
  6 13  1  0
  6  1  1  0
  7  1  2  0
  8  2  2  0
  9 12  1  0
 10  9  2  0
 10 13  1  0
 11 14  1  0
 12 15  1  0
 12 14  2  0
 13 11  2  0
 14 54  1  0
 15 18  1  0
 15 16  1  0
 16 17  1  0
 18 24  1  0
 19 24  1  0
 20 21  1  0
 20 19  1  0
 22 21  1  0
 22 29  1  0
 22 23  1  0
 24 23  1  0
 25 18  2  0
 26 27  2  0
 27 46  1  0
 28 27  1  0
 28 31  1  0
 29 30  1  0
 29 26  1  0
 30 28  2  0
 31 32  1  0
 32 33  2  0
 34 37  1  0
 34 33  1  0
 35 34  2  0
 36 35  1  0
 36 31  2  0
 37 38  1  0
 38 43  2  0
 38 39  1  0
 39 40  2  0
 40 41  1  0
 41 45  1  0
 42 41  2  0
 43 42  1  0
 44 43  1  0
 46 47  1  0
 47 49  1  0
 47 50  1  0
 48 46  2  0
 51 26  1  0
 51 53  1  0
 52 51  1  0
 54 55  1  0
 56 54  1  0
 57 58  1  0
 59 70  2  0
 60 58  1  0
 60 65  1  0
 61 69  1  0
 61 71  1  0
 62 68  1  0
 62 64  1  0
 63 69  1  0
 64 63  1  0
 65 64  2  0
 66 67  1  0
 66 60  2  0
 67 62  2  0
 68 61  1  0
 69 59  1  0
 71 73  2  0
 72 71  1  0
 74 72  1  0
 75 84  2  0
 75 80  1  0
 76 72  1  0
 76 80  1  0
 77 76  1  0
 78 79  1  0
 78 77  1  0
 79 75  1  0
 80 81  2  0
 81 82  1  0
 83 82  2  0
 84 83  1  0
 85 59  1  0
 85 90  1  0
 85 86  1  0
 86 89  1  1
 86 87  1  0
 88 86  1  0
 90 93  1  0
 91 95  1  0
 91 90  1  0
 92 91  2  0
 95 94  1  0
 97 95  1  0
 97 98  1  0
 97 96  1  0
M  ISO  4  15 100  18 100  57 101  58 101
M  END
>  <TORSDO>  (20) 
F 20

>  <SCORE>  (20) 
-9.211

>  <name>  (20) 
19

>  <ligand_id>  (20) 
19

>  <original_smiles>  (20) 
[H]N=C(C(=O)N1C([H])([H])C([H])([H])C([H])([H])C([H])(n2nc(-c3c([H])c([H])c(Oc4c([H])c([H])c(F)c([H])c4F)c([H])c3[H])c(C(=O)N([H])[H])c2N([H])[H])C1([H])[H])c1c([H])c([H])c(N2C(=O)C([H])([H])C([H])([H])C([H])(C([H])([H])Oc3c([H])c([H])c4c(c3[H])C([H])([H])N(C(=O)C([H])(N([H])C(=O)C([H])(N([H])C([H])([H])[H])C([H])([H])[H])C(C([H])([H])[H])(C([H])([H])[H])C([H])([H])[H])C([H])(C(=O)N([H])C3([H])c5c([H])c([H])c([H])c([H])c5C([H])([H])C([H])([H])C3([H])[H])C4([H])[H])C2=O)c([H])c1N([H])[H]

>  <smiles>  (20) 
[H]N=C(C(=O)N1C([H])([H])C([H])([H])C([H])([H])C([H])(n2nc(-c3c([H])c([H])c(Oc4c([H])c([H])c(F)c([H])c4F)c([H])c3[H])c(C(=O)N([H])[H])c2N([H])[H])C1([H])[H])c1c([H])c([H])c(N2C(=O)C([H])([H])C([H])([H])C([H])(C([H])([H])Oc3c([H])c([H])c4c(c3[H])C([H])([H])N(C(=O)C([H])(N([H])C(=O)C([H])(N([H])C([H])([H])[H])C([H])([H])[H])C(C([H])([H])[H])(C([H])([H])[H])C([H])([H])[H])C([H])(C(=O)N([H])C3([H])c5c([H])c([H])c([H])c([H])c5C([H])([H])C([H])([H])C3([H])[H])C4([H])[H])C2=O)c([H])c1N([H])[H]

$$$$
20:0:0
     RDKit          3D

 95104  0  0  1  0  0  0  0  0999 V2000
  -28.3110  -23.1300   19.5670 C   0  0  0  0  0  2  0  0  0  0  0  0
  -29.1390  -21.8340   19.7560 C   0  0  0  0  0  2  0  0  0  0  0  0
  -30.6510  -23.6210   19.9900 C   0  0  0  0  0  2  0  0  0  0  0  0
  -29.3180  -24.3040   19.6200 C   0  0  0  0  0  3  0  0  0  0  0  0
  -30.5350  -22.2350   19.4930 N   0  0  1  0  0  4  0  0  0  0  0  0
  -30.5840  -22.3200   18.4900 H   0  0  0  0  0  0  0  0  0  0  0  0
  -31.6870  -21.3320   19.8110 C   0  0  0  0  0  2  0  0  0  0  0  0
  -31.9180  -18.8140   20.2390 C   0  0  0  0  0  3  0  0  0  0  0  0
  -31.3350  -17.8250   22.3920 C   0  0  0  0  0  3  0  0  0  0  0  0
  -30.9980  -20.2130   22.0080 C   0  0  0  0  0  3  0  0  0  0  0  0
  -31.8790  -17.6870   21.0970 C   0  0  0  0  0  0  0  0  0  0  0  0
  -31.4760  -20.0880   20.6860 C   0  0  0  0  0  0  0  0  0  0  0  0
  -30.9070  -19.0870   22.8450 C   0  0  0  0  0  0  0  0  0  0  0  0
  -30.4450  -19.2260   24.1100 F   0  0  0  0  0  0  0  0  0  0  0  0
  -32.5490  -16.3730   20.6930 C   0  0  0  0  0  2  0  0  0  0  0  0
  -31.8990  -14.3370   19.3980 C   0  0  0  0  0  0  0  0  0  0  0  0
  -31.2630  -12.1170   18.5070 C   0  0  0  0  0  2  0  0  0  0  0  0
  -30.2040  -12.2290   17.3950 C   0  0  0  0  0  2  0  0  0  0  0  0
  -28.7860  -12.2570   17.9970 C   0  0  0  0  0  2  0  0  0  0  0  0
  -28.6500  -13.3060   19.1320 C   0  0  0  0  0  3  0  0  0  0  0  0
  -29.7990  -13.1630   20.1510 C   0  0  0  0  0  2  0  0  0  0  0  0
  -31.0800  -13.2530   19.4290 N   0  0  0  0  0  0  0  0  0  0  0  0
  -32.8600  -14.4240   18.6270 O   0  0  0  0  0  0  0  0  0  0  0  0
  -31.6460  -15.2850   20.3160 N   0  0  0  0  0  0  0  0  0  0  0  0
  -30.8440  -15.1320   20.9080 H   0  0  0  0  0  0  0  0  0  0  0  0
  -26.5050  -14.2510   20.2000 C   0  0  0  0  0  0  0  0  0  0  0  0
  -25.3730  -13.6380   20.6720 C   0  0  0  0  0  0  0  0  0  0  0  0
  -25.5800  -12.2350   20.4970 C   0  0  0  0  0  0  0  0  0  0  0  0
  -27.3400  -13.2280   19.7750 N   0  0  0  0  0  0  0  0  0  0  0  0
  -26.7920  -12.0080   20.0080 N   0  0  0  0  0  0  0  0  0  0  0  0
  -24.6730  -11.1010   20.7120 C   0  0  0  0  0  0  0  0  0  0  0  0
  -25.0370  -10.0130   21.5350 C   0  0  0  0  0  3  0  0  0  0  0  0
  -24.1420   -8.9410   21.7430 C   0  0  0  0  0  3  0  0  0  0  0  0
  -22.8660   -8.9530   21.1290 C   0  0  0  0  0  0  0  0  0  0  0  0
  -22.5160  -10.0270   20.2930 C   0  0  0  0  0  3  0  0  0  0  0  0
  -23.4110  -11.0920   20.0820 C   0  0  0  0  0  3  0  0  0  0  0  0
  -21.9410   -7.9440   21.2540 O   0  0  0  0  0  0  0  0  0  0  0  0
  -21.7790   -7.2570   22.4300 C   0  0  0  0  0  0  0  0  0  0  0  0
  -21.4900   -7.9150   23.6450 C   0  0  0  0  0  3  0  0  0  0  0  0
  -21.2610   -7.1660   24.8150 C   0  0  0  0  0  3  0  0  0  0  0  0
  -21.3110   -5.7600   24.7710 C   0  0  0  0  0  0  0  0  0  0  0  0
  -21.5910   -5.1010   23.5610 C   0  0  0  0  0  3  0  0  0  0  0  0
  -21.8220   -5.8490   22.3930 C   0  0  0  0  0  0  0  0  0  0  0  0
  -22.0710   -5.2070   21.2250 F   0  0  0  0  0  0  0  0  0  0  0  0
  -21.0840   -5.0390   25.8950 F   0  0  0  0  0  0  0  0  0  0  0  0
  -24.1290  -14.3170   21.1680 C   0  0  0  0  0  0  0  0  0  0  0  0
  -23.4550  -13.7240   22.1490 N   0  0  0  0  0  0  0  0  0  0  0  0
  -23.7700  -15.4050   20.7220 O   0  0  0  0  0  0  0  0  0  0  0  0
  -23.7550  -12.8380   22.5310 H   0  0  0  0  0  0  0  0  0  0  0  0
  -22.6260  -14.1630   22.5250 H   0  0  0  0  0  0  0  0  0  0  0  0
  -26.8860  -15.5850   20.0810 N   0  0  0  0  0  0  0  0  0  0  0  0
  -26.2810  -16.3520   20.3550 H   0  0  0  0  0  0  0  0  0  0  0  0
  -27.7580  -15.8970   19.6710 H   0  0  0  0  0  0  0  0  0  0  0  0
  -28.9100  -25.5070   20.5220 C   0  0  0  0  0  2  0  0  0  0  0  0
  -28.8140  -26.7220   19.7640 O   0  0  0  0  0  0  0  0  0  0  0  0
  -24.9290  -31.4770   23.4200 C   0  0  0  0  0  0  0  0  0  0  0  0
  -27.6420  -27.4310   19.8910 C   0  0  0  0  0  0  0  0  0  0  0  0
  -23.7610  -30.2980   21.5860 C   0  0  0  0  0  3  0  0  0  0  0  0
  -25.2490  -28.9340   20.0190 C   0  0  0  0  0  0  0  0  0  0  0  0
  -26.2930  -30.6640   21.4940 C   0  0  0  0  0  2  0  0  0  0  0  0
  -26.3920  -29.3770   20.7000 C   0  0  0  0  0  0  0  0  0  0  0  0
  -27.5940  -28.6350   20.6300 C   0  0  0  0  0  3  0  0  0  0  0  0
  -26.4880  -26.9980   19.2090 C   0  0  0  0  0  3  0  0  0  0  0  0
  -25.2940  -27.7460   19.2680 C   0  0  0  0  0  3  0  0  0  0  0  0
  -24.0040  -29.7890   20.1390 C   0  0  0  0  0  2  0  0  0  0  0  0
  -25.0110  -30.8220   22.2270 N   0  0  0  0  0  0  0  0  0  0  0  0
  -23.8360  -31.6890   23.9610 O   0  0  0  0  0  0  0  0  0  0  0  0
  -23.0800  -29.1730   22.3960 C   0  0  0  0  0  0  0  0  0  0  0  0
  -21.7570  -29.0210   22.2170 N   0  0  0  0  0  0  0  0  0  0  0  0
  -23.7390  -28.4400   23.1380 O   0  0  0  0  0  0  0  0  0  0  0  0
  -21.2920  -29.6570   21.5850 H   0  0  0  0  0  0  0  0  0  0  0  0
  -18.3590  -27.8270   22.4890 C   0  0  0  0  0  0  0  0  0  0  0  0
  -20.9130  -28.0060   22.8450 C   0  0  0  0  0  3  0  0  0  0  0  0
  -21.0110  -26.6620   22.0880 C   0  0  0  0  0  2  0  0  0  0  0  0
  -19.9250  -26.4920   21.0220 C   0  0  0  0  0  2  0  0  0  0  0  0
  -18.5320  -26.5740   21.6490 C   0  0  0  0  0  2  0  0  0  0  0  0
  -19.4760  -28.5100   23.0370 C   0  0  0  0  0  0  0  0  0  0  0  0
  -19.2590  -29.6920   23.7780 C   0  0  0  0  0  3  0  0  0  0  0  0
  -17.9550  -30.1870   23.9770 C   0  0  0  0  0  3  0  0  0  0  0  0
  -16.8530  -29.4980   23.4440 C   0  0  0  0  0  3  0  0  0  0  0  0
  -17.0550  -28.3190   22.7050 C   0  0  0  0  0  3  0  0  0  0  0  0
  -26.2010  -32.0130   24.1450 C   0  0  0  0  0  3  0  0  0  0  0  0
  -26.5900  -31.1690   25.4200 C   0  0  1  0  0  0  0  0  0  0  0  0
  -25.4200  -30.9600   26.4070 C   0  0  0  0  0  1  0  0  0  0  0  0
  -27.1130  -29.7740   25.0050 C   0  0  0  0  0  1  0  0  0  0  0  0
  -27.7430  -31.8670   26.1780 C   0  0  0  0  0  1  0  0  0  0  0  0
  -25.9490  -33.4160   24.5070 N   0  0  0  0  0  0  0  0  0  0  0  0
  -26.3900  -34.4700   23.8080 C   0  0  0  0  0  0  0  0  0  0  0  0
  -27.1240  -34.3600   22.8220 O   0  0  0  0  0  0  0  0  0  0  0  0
  -25.3120  -33.5810   25.2710 H   0  0  0  0  0  0  0  0  0  0  0  0
  -24.7910  -36.3640   23.3950 C   0  0  0  0  0  1  0  0  0  0  0  0
  -25.9460  -35.8680   24.2790 C   0  0  0  0  0  3  0  0  0  0  0  0
  -28.0540  -36.6080   25.2950 C   0  0  0  0  0  1  0  0  0  0  0  0
  -27.0400  -36.8630   24.2760 N   0  0  0  0  0  0  0  0  0  0  0  0
  -26.6760  -37.8010   24.4170 H   0  0  0  0  0  0  0  0  0  0  0  0
  1  4  1  0
  1  2  1  0
  4  3  1  0
  4 54  1  0
  5  2  1  0
  5  7  1  0
  5  3  1  0
  5  6  1  6
  7 12  1  0
  8 12  2  0
  8 11  1  0
  9 13  1  0
 10 13  2  0
 11  9  2  0
 12 10  1  0
 13 14  1  0
 15 11  1  0
 16 22  1  0
 16 24  1  0
 17 22  1  0
 18 19  1  0
 18 17  1  0
 20 19  1  0
 20 29  1  0
 20 21  1  0
 22 21  1  0
 23 16  2  0
 24 15  1  0
 24 25  1  0
 26 27  2  0
 27 46  1  0
 28 27  1  0
 28 31  1  0
 29 30  1  0
 29 26  1  0
 30 28  2  0
 31 32  1  0
 32 33  2  0
 34 37  1  0
 34 33  1  0
 35 34  2  0
 36 35  1  0
 36 31  2  0
 37 38  1  0
 38 39  1  0
 39 40  2  0
 41 40  1  0
 41 45  1  0
 42 41  2  0
 43 38  2  0
 43 42  1  0
 44 43  1  0
 46 47  1  0
 47 50  1  0
 47 49  1  0
 48 46  2  0
 51 26  1  0
 51 52  1  0
 53 51  1  0
 55 57  1  0
 55 54  1  0
 56 67  2  0
 57 62  1  0
 58 66  1  0
 58 68  1  0
 59 65  1  0
 59 61  1  0
 60 66  1  0
 61 60  1  0
 62 61  2  0
 63 64  1  0
 63 57  2  0
 64 59  2  0
 65 58  1  0
 66 56  1  0
 68 70  2  0
 69 68  1  0
 71 69  1  0
 72 81  2  0
 72 77  1  0
 73 69  1  0
 73 77  1  0
 74 73  1  0
 75 76  1  0
 75 74  1  0
 76 72  1  0
 77 78  2  0
 78 79  1  0
 80 79  2  0
 81 80  1  0
 82 56  1  0
 82 87  1  0
 82 83  1  0
 83 86  1  1
 83 84  1  0
 85 83  1  0
 87 90  1  0
 88 92  1  0
 88 87  1  0
 89 88  2  0
 92 91  1  0
 94 92  1  0
 94 95  1  0
 94 93  1  0
M  ISO  4  16 100  24 100  54 101  55 101
M  END
>  <TORSDO>  (21) 
F 20

>  <SCORE>  (21) 
-10.424

>  <name>  (21) 
20

>  <ligand_id>  (21) 
20

>  <original_smiles>  (21) 
[H]c1c([H])c([H])c2c(c1[H])C([H])([H])C([H])([H])C([H])([H])C2([H])N([H])C(=O)C1([H])N(C(=O)C([H])(N([H])C(=O)C([H])(N([H])C([H])([H])[H])C([H])([H])[H])C(C([H])([H])[H])(C([H])([H])[H])C([H])([H])[H])C([H])([H])c2c([H])c(OC([H])([H])C3([H])C([H])([H])C([H])([H])[N+]([H])(C([H])([H])c4c([H])c(F)c([H])c(C([H])([H])N([H])C(=O)N5C([H])([H])C([H])([H])C([H])([H])C([H])(n6nc(-c7c([H])c([H])c(Oc8c([H])c([H])c(F)c([H])c8F)c([H])c7[H])c(C(=O)N([H])[H])c6N([H])[H])C5([H])[H])c4[H])C3([H])[H])c([H])c([H])c2C1([H])[H]

>  <smiles>  (21) 
[H]c1c([H])c([H])c2c(c1[H])C([H])([H])C([H])([H])C([H])([H])C2([H])N([H])C(=O)C1([H])N(C(=O)C([H])(N([H])C(=O)C([H])(N([H])C([H])([H])[H])C([H])([H])[H])C(C([H])([H])[H])(C([H])([H])[H])C([H])([H])[H])C([H])([H])c2c([H])c(OC([H])([H])C3([H])C([H])([H])C([H])([H])[N+]([H])(C([H])([H])c4c([H])c(F)c([H])c(C([H])([H])N([H])C(=O)N5C([H])([H])C([H])([H])C([H])([H])C([H])(n6nc(-c7c([H])c([H])c(Oc8c([H])c([H])c(F)c([H])c8F)c([H])c7[H])c(C(=O)N([H])[H])c6N([H])[H])C5([H])[H])c4[H])C3([H])[H])c([H])c([H])c2C1([H])[H]

$$$$
21:0:0
     RDKit          3D

 96105  0  0  1  0  0  0  0  0999 V2000
  -31.5600  -18.2010   19.6460 C   0  0  0  0  0  3  0  0  0  0  0  0
  -31.5750  -20.6430   19.6930 C   0  0  0  0  0  3  0  0  0  0  0  0
  -30.3140  -18.1650   20.3050 C   0  0  0  0  0  0  0  0  0  0  0  0
  -29.7250  -19.4140   20.7130 C   0  0  0  0  0  0  0  0  0  0  0  0
  -30.3380  -20.6650   20.3760 C   0  0  0  0  0  0  0  0  0  0  0  0
  -32.1930  -19.4240   19.3490 C   0  0  0  0  0  0  0  0  0  0  0  0
  -28.4290  -19.4190   21.5150 C   0  0  0  0  0  1  0  0  0  0  0  0
  -29.8050  -24.2140   21.3360 C   0  0  0  0  0  2  0  0  0  0  0  0
  -30.5150  -22.8620   21.5030 C   0  0  0  0  0  2  0  0  0  0  0  0
  -28.9910  -22.6710   19.7020 C   0  0  0  0  0  2  0  0  0  0  0  0
  -29.3090  -24.1890   19.8900 C   0  0  0  0  0  3  0  0  0  0  0  0
  -29.7370  -21.9100   20.7180 N   0  0  0  0  0  0  0  0  0  0  0  0
  -28.1130  -25.1430   19.5760 C   0  0  0  0  0  2  0  0  0  0  0  0
  -28.3430  -26.5870   19.6030 O   0  0  0  0  0  0  0  0  0  0  0  0
  -24.5300  -31.5990   23.0240 C   0  0  0  0  0  0  0  0  0  0  0  0
  -27.1950  -27.3790   19.6170 C   0  0  0  0  0  0  0  0  0  0  0  0
  -23.3290  -30.2900   21.3100 C   0  0  0  0  0  3  0  0  0  0  0  0
  -24.7880  -28.8930   19.7570 C   0  0  0  0  0  0  0  0  0  0  0  0
  -25.8510  -30.7010   21.1060 C   0  0  0  0  0  2  0  0  0  0  0  0
  -25.9540  -29.3800   20.3630 C   0  0  0  0  0  0  0  0  0  0  0  0
  -27.1620  -28.6350   20.2850 C   0  0  0  0  0  3  0  0  0  0  0  0
  -26.0040  -26.9400   18.9880 C   0  0  0  0  0  3  0  0  0  0  0  0
  -24.8130  -27.6780   19.0630 C   0  0  0  0  0  3  0  0  0  0  0  0
  -23.5320  -29.7240   19.8810 C   0  0  0  0  0  2  0  0  0  0  0  0
  -24.5890  -30.8750   21.8720 N   0  0  0  0  0  0  0  0  0  0  0  0
  -23.4520  -31.8110   23.5950 O   0  0  0  0  0  0  0  0  0  0  0  0
  -22.7110  -29.1880   22.2010 C   0  0  0  0  0  0  0  0  0  0  0  0
  -21.3850  -29.0020   22.0960 N   0  0  0  0  0  0  0  0  0  0  0  0
  -23.4220  -28.5090   22.9470 O   0  0  0  0  0  0  0  0  0  0  0  0
  -20.8690  -29.6050   21.4700 H   0  0  0  0  0  0  0  0  0  0  0  0
  -18.0350  -27.7470   22.6110 C   0  0  0  0  0  0  0  0  0  0  0  0
  -20.5990  -27.9980   22.8150 C   0  0  0  0  0  3  0  0  0  0  0  0
  -20.6860  -26.6200   22.1210 C   0  0  0  0  0  2  0  0  0  0  0  0
  -19.5500  -26.3730   21.1230 C   0  0  0  0  0  2  0  0  0  0  0  0
  -18.1910  -26.4580   21.8230 C   0  0  0  0  0  2  0  0  0  0  0  0
  -19.1650  -28.4780   23.0640 C   0  0  0  0  0  0  0  0  0  0  0  0
  -18.9620  -29.6880   23.7630 C   0  0  0  0  0  3  0  0  0  0  0  0
  -17.6620  -30.1670   24.0130 C   0  0  0  0  0  3  0  0  0  0  0  0
  -16.5460  -29.4310   23.5760 C   0  0  0  0  0  3  0  0  0  0  0  0
  -16.7330  -28.2220   22.8810 C   0  0  0  0  0  3  0  0  0  0  0  0
  -25.8090  -32.2170   23.6660 C   0  0  0  0  0  3  0  0  0  0  0  0
  -26.3660  -31.3700   24.8770 C   0  0  1  0  0  0  0  0  0  0  0  0
  -25.2990  -31.0370   25.9470 C   0  0  0  0  0  1  0  0  0  0  0  0
  -26.9680  -30.0350   24.3800 C   0  0  0  0  0  1  0  0  0  0  0  0
  -27.5150  -32.1400   25.5700 C   0  0  0  0  0  1  0  0  0  0  0  0
  -25.4760  -33.5810   24.0970 N   0  0  0  0  0  0  0  0  0  0  0  0
  -25.7770  -34.6900   23.4070 C   0  0  0  0  0  0  0  0  0  0  0  0
  -26.4340  -34.6720   22.3650 O   0  0  0  0  0  0  0  0  0  0  0  0
  -24.8920  -33.6680   24.9160 H   0  0  0  0  0  0  0  0  0  0  0  0
  -24.0090  -36.4650   23.1920 C   0  0  0  0  0  1  0  0  0  0  0  0
  -25.2650  -36.0310   23.9660 C   0  0  0  0  0  3  0  0  0  0  0  0
  -27.3840  -36.9020   24.8460 C   0  0  0  0  0  1  0  0  0  0  0  0
  -26.2740  -37.1110   23.9200 N   0  0  0  0  0  0  0  0  0  0  0  0
  -25.8510  -38.0110   24.1320 H   0  0  0  0  0  0  0  0  0  0  0  0
  -33.4180  -19.4290   18.6790 N   0  0  0  0  0  0  0  0  0  0  0  0
  -33.7080  -18.5870   18.1900 H   0  0  0  0  0  0  0  0  0  0  0  0
  -33.6780  -20.2750   18.1780 H   0  0  0  0  0  0  0  0  0  0  0  0
  -29.5420  -16.8130   20.3690 C   0  0  0  0  0  2  0  0  0  0  0  0
  -30.7410  -14.5900   20.1640 C   0  0  0  0  0  0  0  0  0  0  0  0
  -30.3990  -12.4160   19.0320 C   0  0  0  0  0  2  0  0  0  0  0  0
  -29.4280  -12.6380   17.8520 C   0  0  0  0  0  2  0  0  0  0  0  0
  -27.9580  -12.5230   18.3070 C   0  0  0  0  0  2  0  0  0  0  0  0
  -27.6730  -13.3390   19.5960 C   0  0  0  0  0  3  0  0  0  0  0  0
  -28.7580  -13.0970   20.6740 C   0  0  0  0  0  2  0  0  0  0  0  0
  -30.0760  -13.3980   20.0840 N   0  0  0  0  0  0  0  0  0  0  0  0
  -31.7880  -14.8050   19.5520 O   0  0  0  0  0  0  0  0  0  0  0  0
  -30.1350  -15.5570   20.8920 N   0  0  0  0  0  0  0  0  0  0  0  0
  -29.5400  -15.1490   21.5950 H   0  0  0  0  0  0  0  0  0  0  0  0
  -25.3020  -13.9790   20.3580 C   0  0  0  0  0  0  0  0  0  0  0  0
  -24.2350  -13.2220   20.7610 C   0  0  0  0  0  0  0  0  0  0  0  0
  -24.6760  -11.8650   20.7260 C   0  0  0  0  0  0  0  0  0  0  0  0
  -26.3290  -13.0830   20.1060 N   0  0  0  0  0  0  0  0  0  0  0  0
  -25.9570  -11.8060   20.3830 N   0  0  0  0  0  0  0  0  0  0  0  0
  -23.9400  -10.6130   20.9470 C   0  0  0  0  0  0  0  0  0  0  0  0
  -24.3880   -9.6500   21.8790 C   0  0  0  0  0  3  0  0  0  0  0  0
  -23.6540   -8.4600   22.0840 C   0  0  0  0  0  3  0  0  0  0  0  0
  -22.4600   -8.2290   21.3610 C   0  0  0  0  0  0  0  0  0  0  0  0
  -22.0320   -9.1790   20.4170 C   0  0  0  0  0  3  0  0  0  0  0  0
  -22.7640  -10.3590   20.2100 C   0  0  0  0  0  3  0  0  0  0  0  0
  -21.6960   -7.0930   21.4760 O   0  0  0  0  0  0  0  0  0  0  0  0
  -21.6730   -6.3570   22.6340 C   0  0  0  0  0  0  0  0  0  0  0  0
  -21.2780   -6.9190   23.8690 C   0  0  0  0  0  3  0  0  0  0  0  0
  -21.2030   -6.1100   25.0190 C   0  0  0  0  0  3  0  0  0  0  0  0
  -21.5120   -4.7390   24.9370 C   0  0  0  0  0  0  0  0  0  0  0  0
  -21.8990   -4.1750   23.7080 C   0  0  0  0  0  3  0  0  0  0  0  0
  -21.9780   -4.9830   22.5600 C   0  0  0  0  0  0  0  0  0  0  0  0
  -22.3300   -4.4310   21.3740 F   0  0  0  0  0  0  0  0  0  0  0  0
  -21.4320   -3.9580   26.0400 F   0  0  0  0  0  0  0  0  0  0  0  0
  -22.8530  -13.7170   21.0730 C   0  0  0  0  0  0  0  0  0  0  0  0
  -22.1470  -13.0380   21.9700 N   0  0  0  0  0  0  0  0  0  0  0  0
  -22.4080  -14.7420   20.5570 O   0  0  0  0  0  0  0  0  0  0  0  0
  -22.5200  -12.2090   22.4110 H   0  0  0  0  0  0  0  0  0  0  0  0
  -21.2200  -13.3500   22.2190 H   0  0  0  0  0  0  0  0  0  0  0  0
  -25.4800  -15.3470   20.1650 N   0  0  0  0  0  0  0  0  0  0  0  0
  -24.7350  -16.0240   20.2890 H   0  0  0  0  0  0  0  0  0  0  0  0
  -26.3280  -15.7560   19.7950 H   0  0  0  0  0  0  0  0  0  0  0  0
  1  3  1  0
  2  5  2  0
  3 58  1  0
  3  4  2  0
  4  7  1  0
  5  4  1  0
  5 12  1  0
  6  1  2  0
  6  2  1  0
  8  9  1  0
 10 11  1  0
 10 12  1  0
 11 13  1  0
 11  8  1  0
 12  9  1  0
 13 14  1  0
 14 16  1  0
 15 26  2  0
 16 21  1  0
 17 25  1  0
 17 27  1  0
 18 24  1  0
 18 20  1  0
 19 25  1  0
 20 19  1  0
 21 20  2  0
 22 23  1  0
 22 16  2  0
 23 18  2  0
 24 17  1  0
 25 15  1  0
 27 29  2  0
 28 27  1  0
 30 28  1  0
 31 40  2  0
 31 36  1  0
 32 28  1  0
 32 36  1  0
 33 32  1  0
 34 35  1  0
 34 33  1  0
 35 31  1  0
 36 37  2  0
 37 38  1  0
 39 38  2  0
 40 39  1  0
 41 15  1  0
 41 46  1  0
 41 42  1  0
 42 45  1  1
 42 43  1  0
 44 42  1  0
 46 49  1  0
 47 51  1  0
 47 46  1  0
 48 47  2  0
 51 50  1  0
 53 51  1  0
 53 54  1  0
 53 52  1  0
 55  6  1  0
 56 55  1  0
 57 55  1  0
 58 67  1  0
 59 67  1  0
 60 65  1  0
 61 62  1  0
 61 60  1  0
 63 62  1  0
 63 72  1  0
 63 64  1  0
 65 59  1  0
 65 64  1  0
 66 59  2  0
 67 68  1  0
 69 70  2  0
 70 89  1  0
 71 70  1  0
 71 74  1  0
 72 69  1  0
 72 73  1  0
 73 71  2  0
 74 75  1  0
 75 76  2  0
 77 80  1  0
 77 76  1  0
 78 77  2  0
 79 78  1  0
 79 74  2  0
 80 81  1  0
 81 82  1  0
 82 83  2  0
 84 83  1  0
 84 88  1  0
 85 84  2  0
 86 81  2  0
 86 85  1  0
 87 86  1  0
 89 90  1  0
 90 93  1  0
 90 92  1  0
 91 89  2  0
 94 95  1  0
 94 69  1  0
 96 94  1  0
M  ISO  4  13 101  14 101  59 100  67 100
M  END
>  <TORSDO>  (22) 
F 20

>  <SCORE>  (22) 
-12.490

>  <name>  (22) 
21

>  <ligand_id>  (22) 
21

>  <original_smiles>  (22) 
[H]c1c([H])c([H])c2c(c1[H])C([H])([H])C([H])([H])C([H])([H])C2([H])N([H])C(=O)C1([H])N(C(=O)C([H])(N([H])C(=O)C([H])(N([H])C([H])([H])[H])C([H])([H])[H])C(C([H])([H])[H])(C([H])([H])[H])C([H])([H])[H])C([H])([H])c2c([H])c(OC([H])([H])C3([H])C([H])([H])N(c4c([H])c(N([H])[H])c([H])c(C([H])([H])N([H])C(=O)N5C([H])([H])C([H])([H])C([H])([H])C([H])(n6nc(-c7c([H])c([H])c(Oc8c([H])c([H])c(F)c([H])c8F)c([H])c7[H])c(C(=O)N([H])[H])c6N([H])[H])C5([H])[H])c4C([H])([H])[H])C([H])([H])C3([H])[H])c([H])c([H])c2C1([H])[H]

>  <smiles>  (22) 
[H]c1c([H])c([H])c2c(c1[H])C([H])([H])C([H])([H])C([H])([H])C2([H])N([H])C(=O)C1([H])N(C(=O)C([H])(N([H])C(=O)C([H])(N([H])C([H])([H])[H])C([H])([H])[H])C(C([H])([H])[H])(C([H])([H])[H])C([H])([H])[H])C([H])([H])c2c([H])c(OC([H])([H])C3([H])C([H])([H])N(c4c([H])c(N([H])[H])c([H])c(C([H])([H])N([H])C(=O)N5C([H])([H])C([H])([H])C([H])([H])C([H])(n6nc(-c7c([H])c([H])c(Oc8c([H])c([H])c(F)c([H])c8F)c([H])c7[H])c(C(=O)N([H])[H])c6N([H])[H])C5([H])[H])c4C([H])([H])[H])C([H])([H])C3([H])[H])c([H])c([H])c2C1([H])[H]

$$$$
23:0:0
     RDKit          3D

 94103  0  0  1  0  0  0  0  0999 V2000
  -28.3230  -22.6560   21.8930 C   0  0  0  0  0  0  0  0  0  0  0  0
  -27.0620  -23.5020   22.0780 C   0  0  0  0  0  2  0  0  0  0  0  0
  -26.4920  -23.5730   20.6760 C   0  0  0  0  0  2  0  0  0  0  0  0
  -27.7400  -23.3360   19.8250 C   0  0  0  0  0  3  0  0  0  0  0  0
  -28.4930  -22.2050   20.6200 N   0  0  0  0  0  0  0  0  0  0  0  0
  -29.0940  -22.4970   22.8430 O   0  0  0  0  0  0  0  0  0  0  0  0
  -29.4460  -19.8970   21.4190 C   0  0  0  0  0  3  0  0  0  0  0  0
  -29.7770  -18.5020   21.3710 C   0  0  0  0  0  3  0  0  0  0  0  0
  -28.6310  -19.7970   19.2460 C   0  0  0  0  0  3  0  0  0  0  0  0
  -28.8390  -20.6860   20.3860 C   0  0  0  0  0  0  0  0  0  0  0  0
  -29.5830  -17.5980   20.2700 C   0  0  0  0  0  0  0  0  0  0  0  0
  -28.9860  -18.3560   19.1840 C   0  0  0  0  0  0  0  0  0  0  0  0
  -28.6980  -17.6810   18.0440 F   0  0  0  0  0  0  0  0  0  0  0  0
  -30.3710  -15.0260   19.5630 C   0  0  0  0  0  0  0  0  0  0  0  0
  -30.1030  -12.7230   18.4980 C   0  0  0  0  0  2  0  0  0  0  0  0
  -29.0140  -12.7140   17.4000 C   0  0  0  0  0  2  0  0  0  0  0  0
  -27.6260  -12.4620   18.0200 C   0  0  0  0  0  2  0  0  0  0  0  0
  -27.3760  -13.3670   19.2480 C   0  0  0  0  0  3  0  0  0  0  0  0
  -28.5560  -13.3270   20.2330 C   0  0  0  0  0  2  0  0  0  0  0  0
  -29.7620  -13.7660   19.5130 N   0  0  0  0  0  0  0  0  0  0  0  0
  -31.4060  -15.1630   18.8950 O   0  0  0  0  0  0  0  0  0  0  0  0
  -29.9010  -16.0690   20.4250 N   0  0  0  0  0  0  0  0  0  0  0  0
  -25.1520  -13.9370   20.3780 C   0  0  0  0  0  0  0  0  0  0  0  0
  -24.1360  -13.1520   20.8530 C   0  0  0  0  0  0  0  0  0  0  0  0
  -24.5550  -11.8010   20.6560 C   0  0  0  0  0  0  0  0  0  0  0  0
  -26.1180  -13.0610   19.9160 N   0  0  0  0  0  0  0  0  0  0  0  0
  -25.7820  -11.7660   20.1510 N   0  0  0  0  0  0  0  0  0  0  0  0
  -23.8310  -10.5400   20.8660 C   0  0  0  0  0  0  0  0  0  0  0  0
  -24.3250   -9.5360   21.7280 C   0  0  0  0  0  3  0  0  0  0  0  0
  -23.6010   -8.3400   21.9230 C   0  0  0  0  0  3  0  0  0  0  0  0
  -22.3660   -8.1400   21.2580 C   0  0  0  0  0  0  0  0  0  0  0  0
  -21.8920   -9.1330   20.3820 C   0  0  0  0  0  3  0  0  0  0  0  0
  -22.6170  -10.3200   20.1850 C   0  0  0  0  0  3  0  0  0  0  0  0
  -21.6060   -7.0010   21.3690 O   0  0  0  0  0  0  0  0  0  0  0  0
  -21.5850   -6.2620   22.5240 C   0  0  0  0  0  0  0  0  0  0  0  0
  -21.2130   -6.8220   23.7650 C   0  0  0  0  0  3  0  0  0  0  0  0
  -21.1390   -6.0080   24.9120 C   0  0  0  0  0  3  0  0  0  0  0  0
  -21.4270   -4.6340   24.8210 C   0  0  0  0  0  0  0  0  0  0  0  0
  -21.7940   -4.0710   23.5850 C   0  0  0  0  0  3  0  0  0  0  0  0
  -21.8710   -4.8840   22.4380 C   0  0  0  0  0  0  0  0  0  0  0  0
  -22.2050   -4.3320   21.2460 F   0  0  0  0  0  0  0  0  0  0  0  0
  -21.3480   -3.8490   25.9190 F   0  0  0  0  0  0  0  0  0  0  0  0
  -22.8080  -13.6330   21.3610 C   0  0  0  0  0  0  0  0  0  0  0  0
  -22.2030  -12.9050   22.2940 N   0  0  0  0  0  0  0  0  0  0  0  0
  -22.3180  -14.6870   20.9630 O   0  0  0  0  0  0  0  0  0  0  0  0
  -22.6090  -12.0500   22.6460 H   0  0  0  0  0  0  0  0  0  0  0  0
  -21.3180  -13.2120   22.6710 H   0  0  0  0  0  0  0  0  0  0  0  0
  -25.3250  -15.3150   20.2800 N   0  0  0  0  0  0  0  0  0  0  0  0
  -24.6000  -15.9680   20.5540 H   0  0  0  0  0  0  0  0  0  0  0  0
  -26.1300  -15.7690   19.8680 H   0  0  0  0  0  0  0  0  0  0  0  0
  -31.6390  -16.0440   22.2750 C   0  0  0  0  0  1  0  0  0  0  0  0
  -30.2000  -15.6920   21.8330 C   0  0  0  0  0  2  0  0  0  0  0  0
  -28.3690  -24.8710   19.4920 C   0  0  0  0  0  2  0  0  0  0  0  0
  -28.2150  -26.2940   20.0920 O   0  0  0  0  0  0  0  0  0  0  0  0
  -24.5290  -31.8200   23.1550 C   0  0  0  0  0  0  0  0  0  0  0  0
  -27.1390  -27.2370   19.9700 C   0  0  0  0  0  0  0  0  0  0  0  0
  -23.3320  -30.4330   21.5070 C   0  0  0  0  0  3  0  0  0  0  0  0
  -24.7850  -28.9290   20.0050 C   0  0  0  0  0  0  0  0  0  0  0  0
  -25.8710  -30.7520   21.3110 C   0  0  0  0  0  2  0  0  0  0  0  0
  -25.9590  -29.3790   20.6250 C   0  0  0  0  0  0  0  0  0  0  0  0
  -27.1300  -28.5420   20.6000 C   0  0  0  0  0  3  0  0  0  0  0  0
  -25.9570  -26.8960   19.2830 C   0  0  0  0  0  3  0  0  0  0  0  0
  -24.8000  -27.7070   19.3130 C   0  0  0  0  0  3  0  0  0  0  0  0
  -23.5420  -29.8020   20.1030 C   0  0  0  0  0  2  0  0  0  0  0  0
  -24.5970  -31.0250   22.0450 N   0  0  0  0  0  0  0  0  0  0  0  0
  -23.4480  -32.0710   23.7080 O   0  0  0  0  0  0  0  0  0  0  0  0
  -22.7020  -29.3830   22.4570 C   0  0  0  0  0  0  0  0  0  0  0  0
  -21.3930  -29.1230   22.2970 N   0  0  0  0  0  0  0  0  0  0  0  0
  -23.3940  -28.8120   23.3030 O   0  0  0  0  0  0  0  0  0  0  0  0
  -20.8900  -29.6320   21.5830 H   0  0  0  0  0  0  0  0  0  0  0  0
  -18.1070  -27.6440   22.6620 C   0  0  0  0  0  0  0  0  0  0  0  0
  -20.6140  -28.1420   23.0580 C   0  0  0  0  0  3  0  0  0  0  0  0
  -20.8770  -26.7080   22.5430 C   0  0  0  0  0  2  0  0  0  0  0  0
  -19.8660  -26.2590   21.4830 C   0  0  0  0  0  2  0  0  0  0  0  0
  -18.4410  -26.2990   22.0420 C   0  0  0  0  0  2  0  0  0  0  0  0
  -19.1270  -28.5170   23.1250 C   0  0  0  0  0  0  0  0  0  0  0  0
  -18.7610  -29.7720   23.6640 C   0  0  0  0  0  3  0  0  0  0  0  0
  -17.4080  -30.1560   23.7390 C   0  0  0  0  0  3  0  0  0  0  0  0
  -16.4020  -29.2840   23.2880 C   0  0  0  0  0  3  0  0  0  0  0  0
  -16.7520  -28.0280   22.7570 C   0  0  0  0  0  3  0  0  0  0  0  0
  -25.8070  -32.4710   23.7680 C   0  0  0  0  0  3  0  0  0  0  0  0
  -26.3480  -31.7060   25.0390 C   0  0  1  0  0  0  0  0  0  0  0  0
  -25.2620  -31.4280   26.1050 C   0  0  0  0  0  1  0  0  0  0  0  0
  -26.9700  -30.3500   24.6380 C   0  0  0  0  0  1  0  0  0  0  0  0
  -27.4780  -32.5250   25.7100 C   0  0  0  0  0  1  0  0  0  0  0  0
  -25.4810  -33.8650   24.1140 N   0  0  0  0  0  0  0  0  0  0  0  0
  -25.7650  -34.9280   23.3520 C   0  0  0  0  0  0  0  0  0  0  0  0
  -26.4030  -34.8410   22.2990 O   0  0  0  0  0  0  0  0  0  0  0  0
  -24.9210  -34.0030   24.9440 H   0  0  0  0  0  0  0  0  0  0  0  0
  -23.9810  -36.6770   23.0670 C   0  0  0  0  0  1  0  0  0  0  0  0
  -25.2630  -36.3060   23.8290 C   0  0  0  0  0  3  0  0  0  0  0  0
  -27.4120  -37.2350   24.5760 C   0  0  0  0  0  1  0  0  0  0  0  0
  -26.2670  -37.3840   23.6800 N   0  0  0  0  0  0  0  0  0  0  0  0
  -25.8460  -38.2920   23.8590 H   0  0  0  0  0  0  0  0  0  0  0  0
  1  2  1  0
  1  6  2  0
  3  2  1  0
  4 53  1  0
  4  5  1  0
  4  3  1  0
  5  1  1  0
  8  7  1  0
  9 10  1  0
 10  5  1  0
 10  7  2  0
 11 22  1  0
 11  8  2  0
 12  9  2  0
 12 11  1  0
 13 12  1  0
 14 22  1  0
 15 20  1  0
 16 17  1  0
 16 15  1  0
 18 17  1  0
 18 26  1  0
 18 19  1  0
 20 14  1  0
 20 19  1  0
 21 14  2  0
 22 52  1  0
 23 24  2  0
 24 43  1  0
 25 24  1  0
 25 28  1  0
 26 27  1  0
 26 23  1  0
 27 25  2  0
 28 29  1  0
 29 30  2  0
 31 34  1  0
 31 30  1  0
 32 31  2  0
 33 32  1  0
 33 28  2  0
 34 35  1  0
 35 36  1  0
 36 37  2  0
 38 37  1  0
 38 42  1  0
 39 38  2  0
 40 35  2  0
 40 39  1  0
 41 40  1  0
 43 44  1  0
 44 46  1  0
 44 47  1  0
 45 43  2  0
 48 23  1  0
 48 49  1  0
 50 48  1  0
 52 51  1  0
 53 54  1  0
 55 66  2  0
 56 54  1  0
 56 61  1  0
 57 65  1  0
 57 67  1  0
 58 64  1  0
 58 60  1  0
 59 65  1  0
 60 59  1  0
 61 60  2  0
 62 63  1  0
 62 56  2  0
 63 58  2  0
 64 57  1  0
 65 55  1  0
 67 69  2  0
 68 67  1  0
 70 68  1  0
 71 80  2  0
 71 76  1  0
 72 68  1  0
 72 76  1  0
 73 72  1  0
 74 75  1  0
 74 73  1  0
 75 71  1  0
 76 77  2  0
 77 78  1  0
 79 78  2  0
 80 79  1  0
 81 55  1  0
 81 86  1  0
 81 82  1  0
 82 85  1  1
 82 83  1  0
 84 82  1  0
 86 89  1  0
 87 91  1  0
 87 86  1  0
 88 87  2  0
 91 90  1  0
 93 91  1  0
 93 94  1  0
 93 92  1  0
M  ISO  4  14 100  22 100  53 101  54 101
M  END
>  <TORSDO>  (23) 
F 19

>  <SCORE>  (23) 
-11.879

>  <name>  (23) 
23

>  <ligand_id>  (23) 
23

>  <original_smiles>  (23) 
[H]c1c([H])c([H])c2c(c1[H])C([H])([H])C([H])([H])C([H])([H])C2([H])N([H])C(=O)C1([H])N(C(=O)C([H])(N([H])C(=O)C([H])(N([H])C([H])([H])[H])C([H])([H])[H])C(C([H])([H])[H])(C([H])([H])[H])C([H])([H])[H])C([H])([H])c2c([H])c(OC([H])([H])C3([H])N(c4c([H])c([H])c(N(C(=O)N5C([H])([H])C([H])([H])C([H])([H])C([H])(n6nc(-c7c([H])c([H])c(Oc8c([H])c([H])c(F)c([H])c8F)c([H])c7[H])c(C(=O)N([H])[H])c6N([H])[H])C5([H])[H])C([H])([H])C([H])([H])[H])c(F)c4[H])C(=O)C([H])([H])C3([H])[H])c([H])c([H])c2C1([H])[H]

>  <smiles>  (23) 
[H]c1c([H])c([H])c2c(c1[H])C([H])([H])C([H])([H])C([H])([H])C2([H])N([H])C(=O)C1([H])N(C(=O)C([H])(N([H])C(=O)C([H])(N([H])C([H])([H])[H])C([H])([H])[H])C(C([H])([H])[H])(C([H])([H])[H])C([H])([H])[H])C([H])([H])c2c([H])c(OC([H])([H])C3([H])N(c4c([H])c([H])c(N(C(=O)N5C([H])([H])C([H])([H])C([H])([H])C([H])(n6nc(-c7c([H])c([H])c(Oc8c([H])c([H])c(F)c([H])c8F)c([H])c7[H])c(C(=O)N([H])[H])c6N([H])[H])C5([H])[H])C([H])([H])C([H])([H])[H])c(F)c4[H])C(=O)C([H])([H])C3([H])[H])c([H])c([H])c2C1([H])[H]

$$$$
24:0:0
     RDKit          3D

 97106  0  0  1  0  0  0  0  0999 V2000
  -28.6340  -19.1450   20.7510 C   0  0  0  0  0  3  0  0  0  0  0  0
  -28.7280  -17.7320   20.7480 C   0  0  0  0  0  3  0  0  0  0  0  0
  -31.1090  -17.8760   20.4010 C   0  0  0  0  0  3  0  0  0  0  0  0
  -31.0250  -19.3040   20.4150 C   0  0  0  0  0  0  0  0  0  0  0  0
  -29.7750  -19.9720   20.6040 C   0  0  0  0  0  0  0  0  0  0  0  0
  -29.9610  -17.0620   20.5810 C   0  0  0  0  0  0  0  0  0  0  0  0
  -30.7080  -14.6400   20.0950 C   0  0  0  0  0  0  0  0  0  0  0  0
  -30.4060  -12.4760   18.9180 C   0  0  0  0  0  2  0  0  0  0  0  0
  -29.3870  -12.6920   17.7760 C   0  0  0  0  0  2  0  0  0  0  0  0
  -27.9400  -12.5380   18.2850 C   0  0  0  0  0  2  0  0  0  0  0  0
  -27.6760  -13.3390   19.5880 C   0  0  0  0  0  3  0  0  0  0  0  0
  -28.7940  -13.0780   20.6230 C   0  0  0  0  0  2  0  0  0  0  0  0
  -30.0810  -13.4290   19.9930 N   0  0  0  0  0  0  0  0  0  0  0  0
  -31.8210  -14.8480   19.6010 O   0  0  0  0  0  0  0  0  0  0  0  0
  -29.9440  -15.6160   20.6550 N   0  0  0  0  0  0  0  0  0  0  0  0
  -29.0900  -15.2360   21.0350 H   0  0  0  0  0  0  0  0  0  0  0  0
  -25.3280  -13.9450   20.4500 C   0  0  0  0  0  0  0  0  0  0  0  0
  -24.2760  -13.1730   20.8600 C   0  0  0  0  0  0  0  0  0  0  0  0
  -24.7200  -11.8180   20.7650 C   0  0  0  0  0  0  0  0  0  0  0  0
  -26.3500  -13.0620   20.1350 N   0  0  0  0  0  0  0  0  0  0  0  0
  -25.9910  -11.7760   20.3830 N   0  0  0  0  0  0  0  0  0  0  0  0
  -23.9940  -10.5580   20.9620 C   0  0  0  0  0  0  0  0  0  0  0  0
  -24.4400   -9.5860   21.8830 C   0  0  0  0  0  3  0  0  0  0  0  0
  -23.7150   -8.3880   22.0680 C   0  0  0  0  0  3  0  0  0  0  0  0
  -22.5290   -8.1570   21.3310 C   0  0  0  0  0  0  0  0  0  0  0  0
  -22.1020   -9.1190   20.3990 C   0  0  0  0  0  3  0  0  0  0  0  0
  -22.8280  -10.3070   20.2130 C   0  0  0  0  0  3  0  0  0  0  0  0
  -21.7740   -7.0120   21.4260 O   0  0  0  0  0  0  0  0  0  0  0  0
  -21.7030   -6.2910   22.5900 C   0  0  0  0  0  0  0  0  0  0  0  0
  -21.2030   -6.8520   23.7850 C   0  0  0  0  0  3  0  0  0  0  0  0
  -21.0840   -6.0550   24.9410 C   0  0  0  0  0  3  0  0  0  0  0  0
  -21.4540   -4.6970   24.9020 C   0  0  0  0  0  0  0  0  0  0  0  0
  -21.9460   -4.1350   23.7120 C   0  0  0  0  0  3  0  0  0  0  0  0
  -22.0680   -4.9300   22.5580 C   0  0  0  0  0  0  0  0  0  0  0  0
  -22.5240   -4.3790   21.4070 F   0  0  0  0  0  0  0  0  0  0  0  0
  -21.3310   -3.9290   26.0100 F   0  0  0  0  0  0  0  0  0  0  0  0
  -22.9010  -13.6550   21.2240 C   0  0  0  0  0  0  0  0  0  0  0  0
  -22.2140  -12.9360   22.1050 N   0  0  0  0  0  0  0  0  0  0  0  0
  -22.4480  -14.7010   20.7650 O   0  0  0  0  0  0  0  0  0  0  0  0
  -22.5940  -12.0880   22.4990 H   0  0  0  0  0  0  0  0  0  0  0  0
  -21.2930  -13.2380   22.3910 H   0  0  0  0  0  0  0  0  0  0  0  0
  -25.4950  -15.3190   20.2960 N   0  0  0  0  0  0  0  0  0  0  0  0
  -24.7290  -15.9670   20.4430 H   0  0  0  0  0  0  0  0  0  0  0  0
  -26.2990  -15.7500   19.8600 H   0  0  0  0  0  0  0  0  0  0  0  0
  -29.0410  -24.3220   20.9780 C   0  0  0  0  0  0  0  0  0  0  0  0
  -28.5060  -25.5740   21.1000 C   0  0  0  0  0  3  0  0  0  0  0  0
  -29.7960  -23.7510   19.7720 C   0  0  0  0  0  2  0  0  0  0  0  0
  -29.0210  -23.3550   22.1620 C   0  0  0  0  0  2  0  0  0  0  0  0
  -29.5740  -22.2150   19.5220 C   0  0  0  0  0  2  0  0  0  0  0  0
  -28.7650  -21.8760   21.7830 C   0  0  0  0  0  2  0  0  0  0  0  0
  -29.6850  -21.3970   20.7450 N   0  0  0  0  0  0  0  0  0  0  0  0
  -28.5510  -26.6360   20.2030 O   0  0  0  0  0  0  0  0  0  0  0  0
  -24.6690  -31.8730   23.2350 C   0  0  0  0  0  0  0  0  0  0  0  0
  -27.4290  -27.4500   20.1800 C   0  0  0  0  0  0  0  0  0  0  0  0
  -23.5200  -30.4760   21.5500 C   0  0  0  0  0  3  0  0  0  0  0  0
  -25.0270  -28.9670   20.1430 C   0  0  0  0  0  0  0  0  0  0  0  0
  -26.0510  -30.8530   21.4210 C   0  0  0  0  0  2  0  0  0  0  0  0
  -26.1700  -29.4860   20.7670 C   0  0  0  0  0  0  0  0  0  0  0  0
  -27.3780  -28.7370   20.7810 C   0  0  0  0  0  3  0  0  0  0  0  0
  -26.2700  -26.9590   19.5470 C   0  0  0  0  0  3  0  0  0  0  0  0
  -25.0750  -27.7040   19.5270 C   0  0  0  0  0  3  0  0  0  0  0  0
  -23.7730  -29.8140   20.1690 C   0  0  0  0  0  2  0  0  0  0  0  0
  -24.7640  -31.0830   22.1270 N   0  0  0  0  0  0  0  0  0  0  0  0
  -23.5720  -32.1280   23.7510 O   0  0  0  0  0  0  0  0  0  0  0  0
  -22.8540  -29.4400   22.4850 C   0  0  0  0  0  0  0  0  0  0  0  0
  -21.5280  -29.2720   22.3490 N   0  0  0  0  0  0  0  0  0  0  0  0
  -23.5290  -28.7910   23.2890 O   0  0  0  0  0  0  0  0  0  0  0  0
  -21.0460  -29.8470   21.6730 H   0  0  0  0  0  0  0  0  0  0  0  0
  -18.1340  -28.1310   22.8520 C   0  0  0  0  0  0  0  0  0  0  0  0
  -20.7010  -28.3220   23.0940 C   0  0  0  0  0  3  0  0  0  0  0  0
  -20.7630  -26.9130   22.4590 C   0  0  0  0  0  2  0  0  0  0  0  0
  -19.6390  -26.6560   21.4500 C   0  0  0  0  0  2  0  0  0  0  0  0
  -18.2700  -26.8060   22.1210 C   0  0  0  0  0  2  0  0  0  0  0  0
  -19.2760  -28.8490   23.2960 C   0  0  0  0  0  0  0  0  0  0  0  0
  -19.0940  -30.0930   23.9400 C   0  0  0  0  0  3  0  0  0  0  0  0
  -17.8040  -30.6150   24.1450 C   0  0  0  0  0  3  0  0  0  0  0  0
  -16.6760  -29.8920   23.7180 C   0  0  0  0  0  3  0  0  0  0  0  0
  -16.8430  -28.6510   23.0770 C   0  0  0  0  0  3  0  0  0  0  0  0
  -25.9320  -32.5120   23.8940 C   0  0  0  0  0  3  0  0  0  0  0  0
  -26.4120  -31.7500   25.1890 C   0  0  1  0  0  0  0  0  0  0  0  0
  -25.2860  -31.5090   26.2210 C   0  0  0  0  0  1  0  0  0  0  0  0
  -27.0150  -30.3740   24.8200 C   0  0  0  0  0  1  0  0  0  0  0  0
  -27.5360  -32.5520   25.8830 C   0  0  0  0  0  1  0  0  0  0  0  0
  -25.6080  -33.9110   24.2060 N   0  0  0  0  0  0  0  0  0  0  0  0
  -25.9600  -34.9610   23.4490 C   0  0  0  0  0  0  0  0  0  0  0  0
  -26.6600  -34.8520   22.4390 O   0  0  0  0  0  0  0  0  0  0  0  0
  -24.9890  -34.0690   24.9880 H   0  0  0  0  0  0  0  0  0  0  0  0
  -24.2470  -36.7530   23.0200 C   0  0  0  0  0  1  0  0  0  0  0  0
  -25.4550  -36.3500   23.8830 C   0  0  0  0  0  3  0  0  0  0  0  0
  -27.5480  -37.2420   24.8060 C   0  0  0  0  0  1  0  0  0  0  0  0
  -26.4920  -37.4010   23.8100 N   0  0  0  0  0  0  0  0  0  0  0  0
  -26.0800  -38.3230   23.9270 H   0  0  0  0  0  0  0  0  0  0  0  0
  -32.3160  -20.1040   20.2790 C   0  0  0  0  0  2  0  0  0  0  0  0
  -32.6940  -20.7190   21.5570 N   0  0  0  0  0  4  0  0  0  0  0  0
  -31.9430  -21.3180   21.8550 H   0  0  0  0  0  0  0  0  0  0  0  0
  -33.5290  -21.2650   21.4450 H   0  0  0  0  0  0  0  0  0  0  0  0
  -32.8540  -20.0150   22.2520 H   0  0  0  0  0  0  0  0  0  0  0  0
  2  1  1  0
  3  4  2  0
  3  6  1  0
  4  5  1  0
  5 51  1  0
  5  1  2  0
  6 15  1  0
  6  2  2  0
  7 15  1  0
  8 13  1  0
  9 10  1  0
  9  8  1  0
 11 10  1  0
 11 20  1  0
 11 12  1  0
 13  7  1  0
 13 12  1  0
 14  7  2  0
 15 16  1  0
 17 18  2  0
 18 37  1  0
 19 18  1  0
 19 22  1  0
 20 21  1  0
 20 17  1  0
 21 19  2  0
 22 23  1  0
 23 24  2  0
 25 28  1  0
 25 24  1  0
 26 25  2  0
 27 26  1  0
 27 22  2  0
 28 29  1  0
 29 30  1  0
 30 31  2  0
 32 31  1  0
 32 36  1  0
 33 32  2  0
 34 29  2  0
 34 33  1  0
 35 34  1  0
 37 38  1  0
 38 41  1  0
 38 40  1  0
 39 37  2  0
 42 43  1  0
 42 17  1  0
 44 42  1  0
 45 46  2  0
 45 48  1  0
 47 45  1  0
 49 47  1  0
 49 51  1  0
 50 48  1  0
 51 50  1  0
 52 46  1  0
 53 64  2  0
 54 52  1  0
 54 59  1  0
 55 63  1  0
 55 65  1  0
 56 62  1  0
 56 58  1  0
 57 63  1  0
 58 59  2  0
 58 57  1  0
 60 54  2  0
 61 60  1  0
 61 56  2  0
 62 55  1  0
 63 53  1  0
 65 67  2  0
 66 65  1  0
 68 66  1  0
 69 78  2  0
 69 74  1  0
 70 66  1  0
 70 74  1  0
 71 70  1  0
 72 73  1  0
 72 71  1  0
 73 69  1  0
 74 75  2  0
 75 76  1  0
 77 76  2  0
 78 77  1  0
 79 53  1  0
 79 84  1  0
 79 80  1  0
 80 83  1  1
 80 81  1  0
 82 80  1  0
 84 87  1  0
 85 89  1  0
 85 84  1  0
 86 85  2  0
 89 88  1  0
 91 89  1  0
 91 92  1  0
 91 90  1  0
 93  4  1  0
 93 94  1  0
 94 95  1  0
 94 97  1  0
 96 94  1  0
M  ISO  4   7 100  15 100  46 101  52 101
M  END
>  <TORSDO>  (24) 
F 19

>  <SCORE>  (24) 
-14.589

>  <name>  (24) 
24

>  <ligand_id>  (24) 
24

>  <original_smiles>  (24) 
[H]C(Oc1c([H])c([H])c2c(c1[H])C([H])([H])N(C(=O)C([H])(N([H])C(=O)C([H])(N([H])C([H])([H])[H])C([H])([H])[H])C(C([H])([H])[H])(C([H])([H])[H])C([H])([H])[H])C([H])(C(=O)N([H])C1([H])c3c([H])c([H])c([H])c([H])c3C([H])([H])C([H])([H])C1([H])[H])C2([H])[H])=C1C([H])([H])C([H])([H])N(c2c([H])c([H])c(N([H])C(=O)N3C([H])([H])C([H])([H])C([H])([H])C([H])(n4nc(-c5c([H])c([H])c(Oc6c([H])c([H])c(F)c([H])c6F)c([H])c5[H])c(C(=O)N([H])[H])c4N([H])[H])C3([H])[H])c([H])c2C([H])([H])[N+]([H])([H])[H])C([H])([H])C1([H])[H]

>  <smiles>  (24) 
[H]C(Oc1c([H])c([H])c2c(c1[H])C([H])([H])N(C(=O)C([H])(N([H])C(=O)C([H])(N([H])C([H])([H])[H])C([H])([H])[H])C(C([H])([H])[H])(C([H])([H])[H])C([H])([H])[H])C([H])(C(=O)N([H])C1([H])c3c([H])c([H])c([H])c([H])c3C([H])([H])C([H])([H])C1([H])[H])C2([H])[H])=C1C([H])([H])C([H])([H])N(c2c([H])c([H])c(N([H])C(=O)N3C([H])([H])C([H])([H])C([H])([H])C([H])(n4nc(-c5c([H])c([H])c(Oc6c([H])c([H])c(F)c([H])c6F)c([H])c5[H])c(C(=O)N([H])[H])c4N([H])[H])C3([H])[H])c([H])c2C([H])([H])[N+]([H])([H])[H])C([H])([H])C1([H])[H]

$$$$
25:0:0
     RDKit          3D

 94103  0  0  1  0  0  0  0  0999 V2000
  -28.4920  -23.1090   22.0160 C   0  0  0  0  0  0  0  0  0  0  0  0
  -29.0630  -24.4260   22.5150 C   0  0  0  0  0  2  0  0  0  0  0  0
  -30.0640  -24.7720   21.4200 C   0  0  0  0  0  2  0  0  0  0  0  0
  -29.4510  -24.1060   20.1840 C   0  0  0  0  0  3  0  0  0  0  0  0
  -28.9330  -22.8030   20.7700 N   0  0  0  0  0  0  0  0  0  0  0  0
  -27.6870  -22.4730   22.7000 O   0  0  0  0  0  0  0  0  0  0  0  0
  -30.4950  -19.7850   18.9220 C   0  0  0  0  0  3  0  0  0  0  0  0
  -30.0690  -21.1140   19.2250 C   0  0  0  0  0  3  0  0  0  0  0  0
  -28.9130  -20.2510   21.1350 C   0  0  0  0  0  3  0  0  0  0  0  0
  -30.1670  -18.6550   19.7240 C   0  0  0  0  0  0  0  0  0  0  0  0
  -29.2810  -21.4100   20.3690 C   0  0  0  0  0  0  0  0  0  0  0  0
  -29.3420  -18.9230   20.8380 C   0  0  0  0  0  0  0  0  0  0  0  0
  -28.9830  -17.9140   21.6660 F   0  0  0  0  0  0  0  0  0  0  0  0
  -30.8290  -17.2660   19.3850 C   0  0  0  0  0  2  0  0  0  0  0  0
  -31.0550  -14.7640   19.5830 C   0  0  0  0  0  0  0  0  0  0  0  0
  -30.6090  -12.5690   18.5240 C   0  0  0  0  0  2  0  0  0  0  0  0
  -29.5420  -12.7700   17.4280 C   0  0  0  0  0  2  0  0  0  0  0  0
  -28.1290  -12.6300   18.0250 C   0  0  0  0  0  2  0  0  0  0  0  0
  -27.9430  -13.4570   19.3260 C   0  0  0  0  0  3  0  0  0  0  0  0
  -29.1270  -13.2760   20.3040 C   0  0  0  0  0  2  0  0  0  0  0  0
  -30.3590  -13.5830   19.5690 N   0  0  0  0  0  0  0  0  0  0  0  0
  -32.1780  -14.8310   19.0800 O   0  0  0  0  0  0  0  0  0  0  0  0
  -30.3900  -15.9200   19.9050 N   0  0  0  0  0  0  0  0  0  0  0  0
  -29.4670  -15.8450   20.3060 H   0  0  0  0  0  0  0  0  0  0  0  0
  -25.6950  -14.0630   20.4050 C   0  0  0  0  0  0  0  0  0  0  0  0
  -24.6520  -13.2970   20.8460 C   0  0  0  0  0  0  0  0  0  0  0  0
  -25.0480  -11.9380   20.6460 C   0  0  0  0  0  0  0  0  0  0  0  0
  -26.6600  -13.1740   19.9620 N   0  0  0  0  0  0  0  0  0  0  0  0
  -26.2850  -11.8850   20.1680 N   0  0  0  0  0  0  0  0  0  0  0  0
  -24.2970  -10.6890   20.8270 C   0  0  0  0  0  0  0  0  0  0  0  0
  -24.7230   -9.6960   21.7370 C   0  0  0  0  0  3  0  0  0  0  0  0
  -23.9730   -8.5130   21.9100 C   0  0  0  0  0  3  0  0  0  0  0  0
  -22.7840   -8.3120   21.1710 C   0  0  0  0  0  0  0  0  0  0  0  0
  -22.3760   -9.2930   20.2490 C   0  0  0  0  0  3  0  0  0  0  0  0
  -23.1260  -10.4680   20.0740 C   0  0  0  0  0  3  0  0  0  0  0  0
  -22.0070   -7.1820   21.2520 O   0  0  0  0  0  0  0  0  0  0  0  0
  -21.8320   -6.5120   22.4360 C   0  0  0  0  0  0  0  0  0  0  0  0
  -21.3060   -7.1480   23.5820 C   0  0  0  0  0  3  0  0  0  0  0  0
  -21.0790   -6.4050   24.7580 C   0  0  0  0  0  3  0  0  0  0  0  0
  -21.3690   -5.0280   24.7870 C   0  0  0  0  0  0  0  0  0  0  0  0
  -21.8880   -4.3910   23.6460 C   0  0  0  0  0  3  0  0  0  0  0  0
  -22.1170   -5.1320   22.4730 C   0  0  0  0  0  0  0  0  0  0  0  0
  -22.5970   -4.5100   21.3690 F   0  0  0  0  0  0  0  0  0  0  0  0
  -21.1440   -4.3120   25.9140 F   0  0  0  0  0  0  0  0  0  0  0  0
  -23.3250  -13.7940   21.3400 C   0  0  0  0  0  0  0  0  0  0  0  0
  -22.6980  -13.0610   22.2530 N   0  0  0  0  0  0  0  0  0  0  0  0
  -22.8590  -14.8650   20.9510 O   0  0  0  0  0  0  0  0  0  0  0  0
  -23.0910  -12.1930   22.5850 H   0  0  0  0  0  0  0  0  0  0  0  0
  -21.8130  -13.3740   22.6280 H   0  0  0  0  0  0  0  0  0  0  0  0
  -25.8960  -15.4390   20.3190 N   0  0  0  0  0  0  0  0  0  0  0  0
  -25.1840  -16.1070   20.5920 H   0  0  0  0  0  0  0  0  0  0  0  0
  -26.7200  -15.8760   19.9300 H   0  0  0  0  0  0  0  0  0  0  0  0
  -28.3340  -25.1010   19.6090 C   0  0  0  0  0  2  0  0  0  0  0  0
  -28.5080  -26.5690   19.7660 O   0  0  0  0  0  0  0  0  0  0  0  0
  -24.5420  -31.5680   23.1260 C   0  0  0  0  0  0  0  0  0  0  0  0
  -27.3540  -27.3680   19.7640 C   0  0  0  0  0  0  0  0  0  0  0  0
  -23.3980  -30.2270   21.3970 C   0  0  0  0  0  3  0  0  0  0  0  0
  -24.9150  -28.8540   19.8640 C   0  0  0  0  0  0  0  0  0  0  0  0
  -25.9190  -30.6820   21.2320 C   0  0  0  0  0  2  0  0  0  0  0  0
  -26.0610  -29.3590   20.4920 C   0  0  0  0  0  0  0  0  0  0  0  0
  -27.2840  -28.6290   20.4330 C   0  0  0  0  0  3  0  0  0  0  0  0
  -26.1840  -26.9200   19.1110 C   0  0  0  0  0  3  0  0  0  0  0  0
  -24.9780  -27.6420   19.1640 C   0  0  0  0  0  3  0  0  0  0  0  0
  -23.6370  -29.6590   19.9740 C   0  0  0  0  0  2  0  0  0  0  0  0
  -24.6380  -30.8410   21.9750 N   0  0  0  0  0  0  0  0  0  0  0  0
  -23.4500  -31.7550   23.6800 O   0  0  0  0  0  0  0  0  0  0  0  0
  -22.7920  -29.1160   22.2870 C   0  0  0  0  0  0  0  0  0  0  0  0
  -21.4860  -28.8510   22.1150 N   0  0  0  0  0  0  0  0  0  0  0  0
  -23.4980  -28.4970   23.0880 O   0  0  0  0  0  0  0  0  0  0  0  0
  -20.9760  -29.4070   21.4450 H   0  0  0  0  0  0  0  0  0  0  0  0
  -18.1970  -27.3800   22.4530 C   0  0  0  0  0  0  0  0  0  0  0  0
  -20.7190  -27.8180   22.8150 C   0  0  0  0  0  3  0  0  0  0  0  0
  -20.9470  -26.4270   22.1780 C   0  0  0  0  0  2  0  0  0  0  0  0
  -19.9020  -26.0710   21.1160 C   0  0  0  0  0  2  0  0  0  0  0  0
  -18.4950  -26.0810   21.7220 C   0  0  0  0  0  2  0  0  0  0  0  0
  -19.2420  -28.2030   22.9510 C   0  0  0  0  0  0  0  0  0  0  0  0
  -18.9110  -29.4180   23.5920 C   0  0  0  0  0  3  0  0  0  0  0  0
  -17.5680  -29.8110   23.7390 C   0  0  0  0  0  3  0  0  0  0  0  0
  -16.5370  -28.9860   23.2580 C   0  0  0  0  0  3  0  0  0  0  0  0
  -16.8520  -27.7720   22.6210 C   0  0  0  0  0  3  0  0  0  0  0  0
  -25.7960  -32.2180   23.7880 C   0  0  0  0  0  3  0  0  0  0  0  0
  -26.2970  -31.4390   25.0650 C   0  0  1  0  0  0  0  0  0  0  0  0
  -25.1830  -31.1590   26.1010 C   0  0  0  0  0  1  0  0  0  0  0  0
  -26.9230  -30.0830   24.6700 C   0  0  0  0  0  1  0  0  0  0  0  0
  -27.4120  -32.2510   25.7690 C   0  0  0  0  0  1  0  0  0  0  0  0
  -25.4490  -33.6050   24.1290 N   0  0  0  0  0  0  0  0  0  0  0  0
  -25.7590  -34.6740   23.3830 C   0  0  0  0  0  0  0  0  0  0  0  0
  -26.4390  -34.5990   22.3560 O   0  0  0  0  0  0  0  0  0  0  0  0
  -24.8500  -33.7360   24.9310 H   0  0  0  0  0  0  0  0  0  0  0  0
  -23.9800  -36.4190   23.0440 C   0  0  0  0  0  1  0  0  0  0  0  0
  -25.2330  -36.0450   23.8520 C   0  0  0  0  0  3  0  0  0  0  0  0
  -27.3380  -36.9890   24.6930 C   0  0  0  0  0  1  0  0  0  0  0  0
  -26.2340  -37.1280   23.7450 N   0  0  0  0  0  0  0  0  0  0  0  0
  -25.8020  -38.0360   23.8940 H   0  0  0  0  0  0  0  0  0  0  0  0
  1  2  1  0
  1  6  2  0
  3  2  1  0
  4 53  1  0
  4  5  1  0
  4  3  1  0
  5  1  1  0
  7  8  2  0
  7 10  1  0
  8 11  1  0
 10 12  2  0
 11  5  1  0
 11  9  2  0
 12  9  1  0
 12 13  1  0
 14 10  1  0
 14 23  1  0
 15 23  1  0
 16 21  1  0
 17 18  1  0
 17 16  1  0
 19 18  1  0
 19 28  1  0
 19 20  1  0
 21 15  1  0
 21 20  1  0
 22 15  2  0
 23 24  1  0
 25 26  2  0
 26 45  1  0
 27 30  1  0
 27 26  1  0
 28 29  1  0
 28 25  1  0
 29 27  2  0
 30 31  1  0
 31 32  2  0
 33 36  1  0
 33 32  1  0
 34 33  2  0
 35 34  1  0
 35 30  2  0
 36 37  1  0
 37 42  2  0
 37 38  1  0
 38 39  2  0
 39 40  1  0
 40 44  1  0
 41 40  2  0
 42 41  1  0
 43 42  1  0
 45 46  1  0
 46 48  1  0
 46 49  1  0
 47 45  2  0
 50 25  1  0
 50 51  1  0
 52 50  1  0
 53 54  1  0
 55 66  2  0
 56 54  1  0
 56 61  1  0
 57 65  1  0
 57 67  1  0
 58 64  1  0
 58 60  1  0
 59 65  1  0
 60 59  1  0
 61 60  2  0
 62 63  1  0
 62 56  2  0
 63 58  2  0
 64 57  1  0
 65 55  1  0
 67 69  2  0
 68 67  1  0
 70 68  1  0
 71 80  2  0
 71 76  1  0
 72 68  1  0
 72 76  1  0
 73 72  1  0
 74 75  1  0
 74 73  1  0
 75 71  1  0
 76 77  2  0
 77 78  1  0
 79 78  2  0
 80 79  1  0
 81 55  1  0
 81 86  1  0
 81 82  1  0
 82 85  1  1
 82 83  1  0
 84 82  1  0
 86 89  1  0
 87 91  1  0
 87 86  1  0
 88 87  2  0
 91 90  1  0
 93 91  1  0
 93 94  1  0
 93 92  1  0
M  ISO  4  15 100  23 100  53 101  54 101
M  END
>  <TORSDO>  (25) 
F 19

>  <SCORE>  (25) 
-11.552

>  <name>  (25) 
25

>  <ligand_id>  (25) 
25

>  <original_smiles>  (25) 
[H]c1c([H])c([H])c2c(c1[H])C([H])([H])C([H])([H])C([H])([H])C2([H])N([H])C(=O)C1([H])N(C(=O)C([H])(N([H])C(=O)C([H])(N([H])C([H])([H])[H])C([H])([H])[H])C(C([H])([H])[H])(C([H])([H])[H])C([H])([H])[H])C([H])([H])c2c([H])c(OC([H])([H])C3([H])N(c4c([H])c([H])c(C([H])([H])N([H])C(=O)N5C([H])([H])C([H])([H])C([H])([H])C([H])(n6nc(-c7c([H])c([H])c(Oc8c([H])c([H])c(F)c([H])c8F)c([H])c7[H])c(C(=O)N([H])[H])c6N([H])[H])C5([H])[H])c(F)c4[H])C(=O)C([H])([H])C3([H])[H])c([H])c([H])c2C1([H])[H]

>  <smiles>  (25) 
[H]c1c([H])c([H])c2c(c1[H])C([H])([H])C([H])([H])C([H])([H])C2([H])N([H])C(=O)C1([H])N(C(=O)C([H])(N([H])C(=O)C([H])(N([H])C([H])([H])[H])C([H])([H])[H])C(C([H])([H])[H])(C([H])([H])[H])C([H])([H])[H])C([H])([H])c2c([H])c(OC([H])([H])C3([H])N(c4c([H])c([H])c(C([H])([H])N([H])C(=O)N5C([H])([H])C([H])([H])C([H])([H])C([H])(n6nc(-c7c([H])c([H])c(Oc8c([H])c([H])c(F)c([H])c8F)c([H])c7[H])c(C(=O)N([H])[H])c6N([H])[H])C5([H])[H])c(F)c4[H])C(=O)C([H])([H])C3([H])[H])c([H])c([H])c2C1([H])[H]

$$$$
26:0:0
     RDKit          3D

 94103  0  0  1  0  0  0  0  0999 V2000
  -30.2160  -23.4590   21.6760 C   0  0  0  0  0  0  0  0  0  0  0  0
  -29.5480  -24.5700   22.4690 C   0  0  0  0  0  2  0  0  0  0  0  0
  -28.0930  -24.4240   22.0410 C   0  0  0  0  0  2  0  0  0  0  0  0
  -28.2270  -23.8970   20.6090 C   0  0  0  0  0  3  0  0  0  0  0  0
  -29.3970  -22.9390   20.7270 N   0  0  0  0  0  0  0  0  0  0  0  0
  -31.3780  -23.1260   21.9260 O   0  0  0  0  0  0  0  0  0  0  0  0
  -28.4880  -19.1840   20.2330 C   0  0  0  0  0  3  0  0  0  0  0  0
  -28.3480  -20.5990   20.4360 C   0  0  0  0  0  3  0  0  0  0  0  0
  -30.7130  -20.8400   20.1790 C   0  0  0  0  0  3  0  0  0  0  0  0
  -29.7450  -18.5530   19.9990 C   0  0  0  0  0  0  0  0  0  0  0  0
  -30.8650  -19.4340   19.9970 C   0  0  0  0  0  0  0  0  0  0  0  0
  -29.4640  -21.4850   20.4200 C   0  0  0  0  0  0  0  0  0  0  0  0
  -32.2690  -18.9010   19.7630 C   0  0  0  0  0  1  0  0  0  0  0  0
  -29.8720  -17.0550   19.4960 C   0  0  0  0  0  2  0  0  0  0  0  0
  -30.5610  -14.6960   20.1810 C   0  0  0  0  0  0  0  0  0  0  0  0
  -30.3210  -12.4440   19.1710 C   0  0  0  0  0  2  0  0  0  0  0  0
  -29.3650  -12.5710   17.9650 C   0  0  0  0  0  2  0  0  0  0  0  0
  -27.9020  -12.4060   18.4170 C   0  0  0  0  0  2  0  0  0  0  0  0
  -27.5570  -13.2700   19.6610 C   0  0  0  0  0  3  0  0  0  0  0  0
  -28.6360  -13.1460   20.7620 C   0  0  0  0  0  2  0  0  0  0  0  0
  -29.9320  -13.4770   20.1570 N   0  0  0  0  0  0  0  0  0  0  0  0
  -31.7260  -14.8070   19.7920 O   0  0  0  0  0  0  0  0  0  0  0  0
  -29.7810  -15.8160   20.3580 N   0  0  0  0  0  0  0  0  0  0  0  0
  -28.8710  -15.6430   20.7560 H   0  0  0  0  0  0  0  0  0  0  0  0
  -25.1720  -13.8440   20.4140 C   0  0  0  0  0  0  0  0  0  0  0  0
  -24.1180  -13.0620   20.8040 C   0  0  0  0  0  0  0  0  0  0  0  0
  -24.5940  -11.7160   20.7730 C   0  0  0  0  0  0  0  0  0  0  0  0
  -26.2210  -12.9730   20.1680 N   0  0  0  0  0  0  0  0  0  0  0  0
  -25.8810  -11.6890   20.4470 N   0  0  0  0  0  0  0  0  0  0  0  0
  -23.8820  -10.4480   20.9800 C   0  0  0  0  0  0  0  0  0  0  0  0
  -24.3380   -9.4870   21.9110 C   0  0  0  0  0  3  0  0  0  0  0  0
  -23.6250   -8.2840   22.1050 C   0  0  0  0  0  3  0  0  0  0  0  0
  -22.4430   -8.0330   21.3690 C   0  0  0  0  0  0  0  0  0  0  0  0
  -22.0060   -8.9820   20.4280 C   0  0  0  0  0  3  0  0  0  0  0  0
  -22.7190  -10.1760   20.2310 C   0  0  0  0  0  3  0  0  0  0  0  0
  -21.7000   -6.8820   21.4740 O   0  0  0  0  0  0  0  0  0  0  0  0
  -21.6800   -6.1400   22.6280 C   0  0  0  0  0  0  0  0  0  0  0  0
  -21.2750   -6.6920   23.8630 C   0  0  0  0  0  3  0  0  0  0  0  0
  -21.2040   -5.8760   25.0100 C   0  0  0  0  0  3  0  0  0  0  0  0
  -21.5280   -4.5080   24.9220 C   0  0  0  0  0  0  0  0  0  0  0  0
  -21.9250   -3.9560   23.6930 C   0  0  0  0  0  3  0  0  0  0  0  0
  -21.9990   -4.7680   22.5480 C   0  0  0  0  0  0  0  0  0  0  0  0
  -22.3620   -4.2260   21.3620 F   0  0  0  0  0  0  0  0  0  0  0  0
  -21.4510   -3.7230   26.0220 F   0  0  0  0  0  0  0  0  0  0  0  0
  -22.7210  -13.5280   21.0920 C   0  0  0  0  0  0  0  0  0  0  0  0
  -22.0100  -12.8290   21.9700 N   0  0  0  0  0  0  0  0  0  0  0  0
  -22.2670  -14.5460   20.5730 O   0  0  0  0  0  0  0  0  0  0  0  0
  -22.3890  -12.0050   22.4130 H   0  0  0  0  0  0  0  0  0  0  0  0
  -21.0730  -13.1230   22.2040 H   0  0  0  0  0  0  0  0  0  0  0  0
  -25.3190  -15.2160   20.2260 N   0  0  0  0  0  0  0  0  0  0  0  0
  -24.5420  -15.8590   20.3360 H   0  0  0  0  0  0  0  0  0  0  0  0
  -26.1490  -15.6590   19.8530 H   0  0  0  0  0  0  0  0  0  0  0  0
  -28.4390  -25.1620   19.6340 C   0  0  0  0  0  2  0  0  0  0  0  0
  -28.3560  -26.5580   20.1420 O   0  0  0  0  0  0  0  0  0  0  0  0
  -24.6000  -31.8880   23.2270 C   0  0  0  0  0  0  0  0  0  0  0  0
  -27.1950  -27.3480   20.1150 C   0  0  0  0  0  0  0  0  0  0  0  0
  -23.3830  -30.4970   21.5890 C   0  0  0  0  0  3  0  0  0  0  0  0
  -24.8200  -28.9470   20.1460 C   0  0  0  0  0  0  0  0  0  0  0  0
  -25.9210  -30.8130   21.3910 C   0  0  0  0  0  2  0  0  0  0  0  0
  -25.9920  -29.4390   20.7340 C   0  0  0  0  0  0  0  0  0  0  0  0
  -27.1780  -28.6490   20.7070 C   0  0  0  0  0  3  0  0  0  0  0  0
  -25.9930  -26.8970   19.5260 C   0  0  0  0  0  3  0  0  0  0  0  0
  -24.8220  -27.6820   19.5380 C   0  0  0  0  0  3  0  0  0  0  0  0
  -23.5850  -29.8240   20.2040 C   0  0  0  0  0  2  0  0  0  0  0  0
  -24.6530  -31.0860   22.1240 N   0  0  0  0  0  0  0  0  0  0  0  0
  -23.5210  -32.1660   23.7710 O   0  0  0  0  0  0  0  0  0  0  0  0
  -22.7290  -29.4770   22.5510 C   0  0  0  0  0  0  0  0  0  0  0  0
  -21.4020  -29.3010   22.4350 N   0  0  0  0  0  0  0  0  0  0  0  0
  -23.4150  -28.8480   23.3620 O   0  0  0  0  0  0  0  0  0  0  0  0
  -20.9090  -29.8610   21.7530 H   0  0  0  0  0  0  0  0  0  0  0  0
  -18.0310  -28.0930   22.9480 C   0  0  0  0  0  0  0  0  0  0  0  0
  -20.5890  -28.3590   23.2060 C   0  0  0  0  0  3  0  0  0  0  0  0
  -20.6930  -26.9280   22.6290 C   0  0  0  0  0  2  0  0  0  0  0  0
  -19.5880  -26.6050   21.6180 C   0  0  0  0  0  2  0  0  0  0  0  0
  -18.2090  -26.7460   22.2690 C   0  0  0  0  0  2  0  0  0  0  0  0
  -19.1490  -28.8580   23.3750 C   0  0  0  0  0  0  0  0  0  0  0  0
  -18.9300  -30.1180   23.9700 C   0  0  0  0  0  3  0  0  0  0  0  0
  -17.6240  -30.6160   24.1420 C   0  0  0  0  0  3  0  0  0  0  0  0
  -16.5200  -29.8480   23.7310 C   0  0  0  0  0  3  0  0  0  0  0  0
  -16.7250  -28.5880   23.1390 C   0  0  0  0  0  3  0  0  0  0  0  0
  -25.8880  -32.5190   23.8420 C   0  0  0  0  0  3  0  0  0  0  0  0
  -26.4130  -31.7420   25.1130 C   0  0  1  0  0  0  0  0  0  0  0  0
  -25.3280  -31.5000   26.1890 C   0  0  0  0  0  1  0  0  0  0  0  0
  -26.9930  -30.3660   24.7110 C   0  0  0  0  0  1  0  0  0  0  0  0
  -27.5690  -32.5330   25.7670 C   0  0  0  0  0  1  0  0  0  0  0  0
  -25.5800  -33.9160   24.1820 N   0  0  0  0  0  0  0  0  0  0  0  0
  -25.9080  -34.9720   23.4260 C   0  0  0  0  0  0  0  0  0  0  0  0
  -26.5720  -34.8720   22.3910 O   0  0  0  0  0  0  0  0  0  0  0  0
  -24.9890  -34.0670   24.9860 H   0  0  0  0  0  0  0  0  0  0  0  0
  -24.1830  -36.7710   23.0840 C   0  0  0  0  0  1  0  0  0  0  0  0
  -25.4240  -36.3600   23.8910 C   0  0  0  0  0  3  0  0  0  0  0  0
  -27.5620  -37.2360   24.7220 C   0  0  0  0  0  1  0  0  0  0  0  0
  -26.4590  -37.4110   23.7820 N   0  0  0  0  0  0  0  0  0  0  0  0
  -26.0570  -38.3320   23.9330 H   0  0  0  0  0  0  0  0  0  0  0  0
  1  6  2  0
  1  2  1  0
  3  2  1  0
  4 53  1  0
  4  5  1  0
  4  3  1  0
  5  1  1  0
  7  8  1  0
  9 12  1  0
 10  7  2  0
 11 10  1  0
 11  9  2  0
 12  8  2  0
 12  5  1  0
 13 11  1  0
 14 10  1  0
 14 23  1  0
 15 23  1  0
 16 21  1  0
 17 18  1  0
 17 16  1  0
 19 18  1  0
 19 28  1  0
 19 20  1  0
 21 15  1  0
 21 20  1  0
 22 15  2  0
 23 24  1  0
 25 26  2  0
 26 45  1  0
 27 26  1  0
 27 30  1  0
 28 25  1  0
 28 29  1  0
 29 27  2  0
 30 31  1  0
 31 32  2  0
 33 36  1  0
 33 32  1  0
 34 33  2  0
 35 34  1  0
 35 30  2  0
 36 37  1  0
 37 38  1  0
 38 39  2  0
 40 39  1  0
 40 44  1  0
 41 40  2  0
 42 37  2  0
 42 41  1  0
 43 42  1  0
 45 46  1  0
 46 49  1  0
 46 48  1  0
 47 45  2  0
 50 51  1  0
 50 25  1  0
 52 50  1  0
 53 54  1  0
 55 66  2  0
 56 54  1  0
 56 61  1  0
 57 65  1  0
 57 67  1  0
 58 64  1  0
 58 60  1  0
 59 65  1  0
 60 59  1  0
 61 60  2  0
 62 63  1  0
 62 56  2  0
 63 58  2  0
 64 57  1  0
 65 55  1  0
 67 69  2  0
 68 67  1  0
 70 68  1  0
 71 80  2  0
 71 76  1  0
 72 68  1  0
 72 76  1  0
 73 72  1  0
 74 75  1  0
 74 73  1  0
 75 71  1  0
 76 77  2  0
 77 78  1  0
 79 78  2  0
 80 79  1  0
 81 55  1  0
 81 86  1  0
 81 82  1  0
 82 85  1  1
 82 83  1  0
 84 82  1  0
 86 89  1  0
 87 91  1  0
 87 86  1  0
 88 87  2  0
 91 90  1  0
 93 91  1  0
 93 94  1  0
 93 92  1  0
M  ISO  4  15 100  23 100  53 101  54 101
M  END
>  <TORSDO>  (26) 
F 19

>  <SCORE>  (26) 
-14.259

>  <name>  (26) 
26

>  <ligand_id>  (26) 
26

>  <original_smiles>  (26) 
[H]c1c([H])c([H])c2c(c1[H])C([H])([H])C([H])([H])C([H])([H])C2([H])N([H])C(=O)C1([H])N(C(=O)C([H])(N([H])C(=O)C([H])(N([H])C([H])([H])[H])C([H])([H])[H])C(C([H])([H])[H])(C([H])([H])[H])C([H])([H])[H])C([H])([H])c2c([H])c(OC([H])([H])C3([H])N(c4c([H])c([H])c(C([H])([H])N([H])C(=O)N5C([H])([H])C([H])([H])C([H])([H])C([H])(n6nc(-c7c([H])c([H])c(Oc8c([H])c([H])c(F)c([H])c8F)c([H])c7[H])c(C(=O)N([H])[H])c6N([H])[H])C5([H])[H])c(C([H])([H])[H])c4[H])C(=O)C([H])([H])C3([H])[H])c([H])c([H])c2C1([H])[H]

>  <smiles>  (26) 
[H]c1c([H])c([H])c2c(c1[H])C([H])([H])C([H])([H])C([H])([H])C2([H])N([H])C(=O)C1([H])N(C(=O)C([H])(N([H])C(=O)C([H])(N([H])C([H])([H])[H])C([H])([H])[H])C(C([H])([H])[H])(C([H])([H])[H])C([H])([H])[H])C([H])([H])c2c([H])c(OC([H])([H])C3([H])N(c4c([H])c([H])c(C([H])([H])N([H])C(=O)N5C([H])([H])C([H])([H])C([H])([H])C([H])(n6nc(-c7c([H])c([H])c(Oc8c([H])c([H])c(F)c([H])c8F)c([H])c7[H])c(C(=O)N([H])[H])c6N([H])[H])C5([H])[H])c(C([H])([H])[H])c4[H])C(=O)C([H])([H])C3([H])[H])c([H])c([H])c2C1([H])[H]

$$$$
27:0:0
     RDKit          3D

 93101  0  0  1  0  0  0  0  0999 V2000
  -28.7080  -22.2840   20.4910 C   0  0  0  0  0  0  0  0  0  0  0  0
  -28.9010  -21.4340   21.5160 N   0  0  0  0  0  0  0  0  0  0  0  0
  -28.9420  -22.0060   19.3130 O   0  0  0  0  0  0  0  0  0  0  0  0
  -28.7690  -21.8330   22.4340 H   0  0  0  0  0  0  0  0  0  0  0  0
  -30.9720  -18.5030   22.5400 C   0  0  0  0  0  3  0  0  0  0  0  0
  -29.7470  -17.8730   20.5390 C   0  0  0  0  0  3  0  0  0  0  0  0
  -30.3500  -19.7670   22.5260 C   0  0  0  0  0  3  0  0  0  0  0  0
  -29.1370  -19.1470   20.5130 C   0  0  0  0  0  3  0  0  0  0  0  0
  -30.7000  -17.5520   21.5330 C   0  0  0  0  0  0  0  0  0  0  0  0
  -29.4570  -20.1200   21.4920 C   0  0  0  0  0  0  0  0  0  0  0  0
  -31.4870  -16.2400   21.5350 C   0  0  0  0  0  2  0  0  0  0  0  0
  -31.2260  -14.3440   19.8830 C   0  0  0  0  0  0  0  0  0  0  0  0
  -30.7340  -12.2430   18.6600 C   0  0  0  0  0  2  0  0  0  0  0  0
  -29.7110  -12.4550   17.5280 C   0  0  0  0  0  2  0  0  0  0  0  0
  -28.2690  -12.3830   18.0630 C   0  0  0  0  0  2  0  0  0  0  0  0
  -28.0570  -13.2900   19.3040 C   0  0  0  0  0  3  0  0  0  0  0  0
  -29.1550  -12.9960   20.3470 C   0  0  0  0  0  2  0  0  0  0  0  0
  -30.4690  -13.2320   19.7150 N   0  0  0  0  0  0  0  0  0  0  0  0
  -32.2190  -14.6100   19.1930 O   0  0  0  0  0  0  0  0  0  0  0  0
  -30.8240  -15.1000   20.9140 N   0  0  0  0  0  0  0  0  0  0  0  0
  -30.0230  -14.7400   21.4100 H   0  0  0  0  0  0  0  0  0  0  0  0
  -25.7780  -14.0930   20.2090 C   0  0  0  0  0  0  0  0  0  0  0  0
  -24.6750  -13.4030   20.6460 C   0  0  0  0  0  0  0  0  0  0  0  0
  -25.0160  -12.0190   20.5550 C   0  0  0  0  0  0  0  0  0  0  0  0
  -26.7210  -13.1300   19.8790 N   0  0  0  0  0  0  0  0  0  0  0  0
  -26.2680  -11.8780   20.1400 N   0  0  0  0  0  0  0  0  0  0  0  0
  -24.2050  -10.8170   20.7800 C   0  0  0  0  0  0  0  0  0  0  0  0
  -24.6090   -9.8090   21.6830 C   0  0  0  0  0  3  0  0  0  0  0  0
  -23.8030   -8.6720   21.8930 C   0  0  0  0  0  3  0  0  0  0  0  0
  -22.5780   -8.5340   21.1990 C   0  0  0  0  0  0  0  0  0  0  0  0
  -22.1920   -9.5280   20.2820 C   0  0  0  0  0  3  0  0  0  0  0  0
  -22.9990  -10.6580   20.0710 C   0  0  0  0  0  3  0  0  0  0  0  0
  -21.7430   -7.4490   21.3190 O   0  0  0  0  0  0  0  0  0  0  0  0
  -21.6670   -6.7230   22.4810 C   0  0  0  0  0  0  0  0  0  0  0  0
  -21.3280   -7.3240   23.7130 C   0  0  0  0  0  3  0  0  0  0  0  0
  -21.1950   -6.5310   24.8700 C   0  0  0  0  0  3  0  0  0  0  0  0
  -21.3890   -5.1390   24.7960 C   0  0  0  0  0  0  0  0  0  0  0  0
  -21.7170   -4.5370   23.5690 C   0  0  0  0  0  3  0  0  0  0  0  0
  -21.8530   -5.3280   22.4130 C   0  0  0  0  0  0  0  0  0  0  0  0
  -22.1520   -4.7400   21.2310 F   0  0  0  0  0  0  0  0  0  0  0  0
  -21.2520   -4.3760   25.9060 F   0  0  0  0  0  0  0  0  0  0  0  0
  -23.3510  -13.9900   21.0370 C   0  0  0  0  0  0  0  0  0  0  0  0
  -22.6340  -13.3450   21.9510 N   0  0  0  0  0  0  0  0  0  0  0  0
  -22.9610  -15.0580   20.5670 O   0  0  0  0  0  0  0  0  0  0  0  0
  -22.9560  -12.4780   22.3560 H   0  0  0  0  0  0  0  0  0  0  0  0
  -21.7490  -13.7280   22.2520 H   0  0  0  0  0  0  0  0  0  0  0  0
  -26.0480  -15.4480   20.0510 N   0  0  0  0  0  0  0  0  0  0  0  0
  -25.3640  -16.1690   20.2530 H   0  0  0  0  0  0  0  0  0  0  0  0
  -26.9300  -15.8220   19.7220 H   0  0  0  0  0  0  0  0  0  0  0  0
  -28.1630  -23.6800   20.8380 C   0  0  0  0  0  2  0  0  0  0  0  0
  -29.2930  -24.6920   21.1340 C   0  0  0  0  0  2  0  0  0  0  0  0
  -28.8430  -26.1600   21.3000 C   0  0  0  0  0  2  0  0  0  0  0  0
  -28.4220  -26.6960   20.0470 O   0  0  0  0  0  0  0  0  0  0  0  0
  -24.4740  -31.7760   23.1480 C   0  0  0  0  0  0  0  0  0  0  0  0
  -27.2570  -27.4180   20.0910 C   0  0  0  0  0  0  0  0  0  0  0  0
  -23.3120  -30.3420   21.4940 C   0  0  0  0  0  3  0  0  0  0  0  0
  -24.8200  -28.8390   20.0830 C   0  0  0  0  0  0  0  0  0  0  0  0
  -25.8270  -30.7680   21.3210 C   0  0  0  0  0  2  0  0  0  0  0  0
  -25.9540  -29.3990   20.6850 C   0  0  0  0  0  0  0  0  0  0  0  0
  -27.1760  -28.6910   20.6980 C   0  0  0  0  0  3  0  0  0  0  0  0
  -26.1160  -26.8680   19.4810 C   0  0  0  0  0  3  0  0  0  0  0  0
  -24.8940  -27.5680   19.4850 C   0  0  0  0  0  3  0  0  0  0  0  0
  -23.5520  -29.6620   20.1170 C   0  0  0  0  0  2  0  0  0  0  0  0
  -24.5540  -30.9780   22.0440 N   0  0  0  0  0  0  0  0  0  0  0  0
  -23.3850  -32.0210   23.6840 O   0  0  0  0  0  0  0  0  0  0  0  0
  -22.6860  -29.3040   22.4510 C   0  0  0  0  0  0  0  0  0  0  0  0
  -21.3690  -29.0860   22.3180 N   0  0  0  0  0  0  0  0  0  0  0  0
  -23.3820  -28.6980   23.2700 O   0  0  0  0  0  0  0  0  0  0  0  0
  -20.8660  -29.6340   21.6350 H   0  0  0  0  0  0  0  0  0  0  0  0
  -18.0350  -27.7830   22.7770 C   0  0  0  0  0  0  0  0  0  0  0  0
  -20.5760  -28.1270   23.0840 C   0  0  0  0  0  3  0  0  0  0  0  0
  -20.7320  -26.6950   22.5180 C   0  0  0  0  0  2  0  0  0  0  0  0
  -19.6560  -26.3330   21.4900 C   0  0  0  0  0  2  0  0  0  0  0  0
  -18.2630  -26.4350   22.1160 C   0  0  0  0  0  2  0  0  0  0  0  0
  -19.1200  -28.5840   23.2180 C   0  0  0  0  0  0  0  0  0  0  0  0
  -18.8510  -29.8440   23.7940 C   0  0  0  0  0  3  0  0  0  0  0  0
  -17.5280  -30.3010   23.9420 C   0  0  0  0  0  3  0  0  0  0  0  0
  -16.4560  -29.4970   23.5180 C   0  0  0  0  0  3  0  0  0  0  0  0
  -16.7110  -28.2400   22.9420 C   0  0  0  0  0  3  0  0  0  0  0  0
  -25.7430  -32.4360   23.7690 C   0  0  0  0  0  3  0  0  0  0  0  0
  -25.3960  -33.8220   24.1060 N   0  0  0  0  0  0  0  0  0  0  0  0
  -25.6950  -34.8870   23.3500 C   0  0  0  0  0  0  0  0  0  0  0  0
  -26.3640  -34.8080   22.3170 O   0  0  0  0  0  0  0  0  0  0  0  0
  -24.8080  -33.9580   24.9150 H   0  0  0  0  0  0  0  0  0  0  0  0
  -23.9070  -36.6240   23.0050 C   0  0  0  0  0  1  0  0  0  0  0  0
  -25.1650  -36.2580   23.8120 C   0  0  0  0  0  3  0  0  0  0  0  0
  -27.2740  -37.2090   24.6370 C   0  0  0  0  0  1  0  0  0  0  0  0
  -26.1610  -37.3450   23.6990 N   0  0  0  0  0  0  0  0  0  0  0  0
  -25.7270  -38.2520   23.8480 H   0  0  0  0  0  0  0  0  0  0  0  0
  -26.2860  -31.6730   25.0390 C   0  0  1  0  0  0  0  0  0  0  0  0
  -25.2030  -31.4000   26.1060 C   0  0  0  0  0  1  0  0  0  0  0  0
  -26.9060  -30.3130   24.6400 C   0  0  0  0  0  1  0  0  0  0  0  0
  -27.4110  -32.4990   25.7090 C   0  0  0  0  0  1  0  0  0  0  0  0
  1 50  1  0
  1  2  1  0
  2  4  1  0
  3  1  2  0
  6  9  1  0
  7  5  1  0
  8  6  2  0
  8 10  1  0
  9 11  1  0
  9  5  2  0
 10  2  1  0
 10  7  2  0
 12 20  1  0
 13 18  1  0
 14 15  1  0
 14 13  1  0
 16 15  1  0
 16 25  1  0
 16 17  1  0
 18 12  1  0
 18 17  1  0
 19 12  2  0
 20 21  1  0
 20 11  1  0
 22 23  2  0
 23 42  1  0
 24 23  1  0
 24 27  1  0
 25 26  1  0
 25 22  1  0
 26 24  2  0
 27 28  1  0
 28 29  2  0
 30 33  1  0
 30 29  1  0
 31 30  2  0
 32 31  1  0
 32 27  2  0
 33 34  1  0
 34 35  1  0
 35 36  2  0
 37 36  1  0
 37 41  1  0
 38 37  2  0
 39 34  2  0
 39 38  1  0
 40 39  1  0
 42 43  1  0
 43 46  1  0
 43 45  1  0
 44 42  2  0
 47 22  1  0
 47 48  1  0
 49 47  1  0
 50 51  1  0
 51 52  1  0
 53 55  1  0
 53 52  1  0
 54 65  2  0
 55 60  1  0
 56 64  1  0
 56 66  1  0
 57 63  1  0
 57 59  1  0
 58 64  1  0
 59 60  2  0
 59 58  1  0
 61 62  1  0
 61 55  2  0
 62 57  2  0
 63 56  1  0
 64 54  1  0
 66 68  2  0
 67 66  1  0
 69 67  1  0
 70 79  2  0
 70 75  1  0
 71 67  1  0
 71 75  1  0
 72 71  1  0
 73 74  1  0
 73 72  1  0
 74 70  1  0
 75 76  2  0
 76 77  1  0
 78 77  2  0
 79 78  1  0
 80 54  1  0
 80 81  1  0
 80 90  1  0
 81 84  1  0
 82 86  1  0
 82 81  1  0
 83 82  2  0
 86 85  1  0
 88 86  1  0
 88 89  1  0
 88 87  1  0
 90 93  1  1
 90 91  1  0
 92 90  1  0
M  ISO  4  12 100  20 100  52 101  53 101
M  END
>  <TORSDO>  (27) 
F 21

>  <SCORE>  (27) 
-12.280

>  <name>  (27) 
27

>  <ligand_id>  (27) 
27

>  <original_smiles>  (27) 
[H]c1c([H])c([H])c2c(c1[H])C([H])([H])C([H])([H])C([H])([H])C2([H])N([H])C(=O)C1([H])N(C(=O)C([H])(N([H])C(=O)C([H])(N([H])C([H])([H])[H])C([H])([H])[H])C(C([H])([H])[H])(C([H])([H])[H])C([H])([H])[H])C([H])([H])c2c([H])c(OC([H])([H])C([H])([H])C([H])([H])C(=O)N([H])c3c([H])c([H])c(C([H])([H])N([H])C(=O)N4C([H])([H])C([H])([H])C([H])([H])C([H])(n5nc(-c6c([H])c([H])c(Oc7c([H])c([H])c(F)c([H])c7F)c([H])c6[H])c(C(=O)N([H])[H])c5N([H])[H])C4([H])[H])c([H])c3[H])c([H])c([H])c2C1([H])[H]

>  <smiles>  (27) 
[H]c1c([H])c([H])c2c(c1[H])C([H])([H])C([H])([H])C([H])([H])C2([H])N([H])C(=O)C1([H])N(C(=O)C([H])(N([H])C(=O)C([H])(N([H])C([H])([H])[H])C([H])([H])[H])C(C([H])([H])[H])(C([H])([H])[H])C([H])([H])[H])C([H])([H])c2c([H])c(OC([H])([H])C([H])([H])C([H])([H])C(=O)N([H])c3c([H])c([H])c(C([H])([H])N([H])C(=O)N4C([H])([H])C([H])([H])C([H])([H])C([H])(n5nc(-c6c([H])c([H])c(Oc7c([H])c([H])c(F)c([H])c7F)c([H])c6[H])c(C(=O)N([H])[H])c5N([H])[H])C4([H])[H])c([H])c3[H])c([H])c([H])c2C1([H])[H]

$$$$
28:0:0
     RDKit          3D

 93101  0  0  1  0  0  0  0  0999 V2000
  -29.6670  -18.4040   18.9570 C   0  0  0  0  0  3  0  0  0  0  0  0
  -29.3140  -19.5420   18.2040 C   0  0  0  0  0  3  0  0  0  0  0  0
  -29.6150  -19.7900   20.9500 C   0  0  0  0  0  3  0  0  0  0  0  0
  -29.8340  -18.4860   20.3500 C   0  0  0  0  0  0  0  0  0  0  0  0
  -29.2390  -20.9810   20.2050 C   0  0  0  0  0  0  0  0  0  0  0  0
  -29.1050  -20.8070   18.8020 C   0  0  0  0  0  0  0  0  0  0  0  0
  -28.7430  -21.8590   17.9660 N   0  0  0  0  0  0  0  0  0  0  0  0
  -28.8240  -21.6840   16.9690 H   0  0  0  0  0  0  0  0  0  0  0  0
  -29.1440  -22.7620   18.1970 H   0  0  0  0  0  0  0  0  0  0  0  0
  -28.8270  -22.3490   20.9230 C   0  0  0  0  0  2  0  0  0  0  0  0
  -29.1160  -23.8200   20.3620 C   0  0  0  0  0  0  0  0  0  0  0  0
  -30.2270  -24.1000   19.8960 O   0  0  0  0  0  0  0  0  0  0  0  0
  -27.9680  -24.9230   20.4030 C   0  0  0  0  0  2  0  0  0  0  0  0
  -28.3110  -26.3800   20.2550 O   0  0  0  0  0  0  0  0  0  0  0  0
  -24.6130  -31.8790   23.2310 C   0  0  0  0  0  0  0  0  0  0  0  0
  -27.2200  -27.2780   20.1970 C   0  0  0  0  0  0  0  0  0  0  0  0
  -23.4120  -30.4800   21.5930 C   0  0  0  0  0  3  0  0  0  0  0  0
  -24.8660  -28.9260   20.1740 C   0  0  0  0  0  0  0  0  0  0  0  0
  -25.9570  -30.7820   21.4210 C   0  0  0  0  0  2  0  0  0  0  0  0
  -26.0380  -29.4020   20.7740 C   0  0  0  0  0  0  0  0  0  0  0  0
  -27.2200  -28.5930   20.7710 C   0  0  0  0  0  3  0  0  0  0  0  0
  -26.0220  -26.8740   19.5620 C   0  0  0  0  0  3  0  0  0  0  0  0
  -24.8630  -27.6690   19.5550 C   0  0  0  0  0  3  0  0  0  0  0  0
  -23.6300  -29.8030   20.2170 C   0  0  0  0  0  2  0  0  0  0  0  0
  -24.6800  -31.0660   22.1370 N   0  0  0  0  0  0  0  0  0  0  0  0
  -23.5280  -32.1630   23.7590 O   0  0  0  0  0  0  0  0  0  0  0  0
  -22.7440  -29.4680   22.5550 C   0  0  0  0  0  0  0  0  0  0  0  0
  -21.4190  -29.2870   22.4200 N   0  0  0  0  0  0  0  0  0  0  0  0
  -23.4170  -28.8490   23.3830 O   0  0  0  0  0  0  0  0  0  0  0  0
  -20.9350  -29.8410   21.7260 H   0  0  0  0  0  0  0  0  0  0  0  0
  -18.0400  -28.0810   22.9000 C   0  0  0  0  0  0  0  0  0  0  0  0
  -20.5940  -28.3540   23.1900 C   0  0  0  0  0  3  0  0  0  0  0  0
  -20.7060  -26.9180   22.6290 C   0  0  0  0  0  2  0  0  0  0  0  0
  -19.6150  -26.5810   21.6070 C   0  0  0  0  0  2  0  0  0  0  0  0
  -18.2260  -26.7280   22.2380 C   0  0  0  0  0  2  0  0  0  0  0  0
  -19.1510  -28.8530   23.3330 C   0  0  0  0  0  0  0  0  0  0  0  0
  -18.9230  -30.1190   23.9140 C   0  0  0  0  0  3  0  0  0  0  0  0
  -17.6140  -30.6160   24.0630 C   0  0  0  0  0  3  0  0  0  0  0  0
  -16.5160  -29.8430   23.6450 C   0  0  0  0  0  3  0  0  0  0  0  0
  -16.7310  -28.5770   23.0710 C   0  0  0  0  0  3  0  0  0  0  0  0
  -25.8950  -32.5110   23.8560 C   0  0  0  0  0  3  0  0  0  0  0  0
  -25.5830  -33.9100   24.1850 N   0  0  0  0  0  0  0  0  0  0  0  0
  -25.9160  -34.9630   23.4270 C   0  0  0  0  0  0  0  0  0  0  0  0
  -26.5880  -34.8600   22.3970 O   0  0  0  0  0  0  0  0  0  0  0  0
  -24.9820  -34.0640   24.9800 H   0  0  0  0  0  0  0  0  0  0  0  0
  -24.1870  -36.7590   23.0730 C   0  0  0  0  0  1  0  0  0  0  0  0
  -25.4280  -36.3510   23.8850 C   0  0  0  0  0  3  0  0  0  0  0  0
  -27.5650  -37.2350   24.7130 C   0  0  0  0  0  1  0  0  0  0  0  0
  -26.4610  -37.4050   23.7720 N   0  0  0  0  0  0  0  0  0  0  0  0
  -26.0530  -38.3230   23.9240 H   0  0  0  0  0  0  0  0  0  0  0  0
  -26.4070  -31.7430   25.1360 C   0  0  1  0  0  0  0  0  0  0  0  0
  -25.3120  -31.5110   26.2010 C   0  0  0  0  0  1  0  0  0  0  0  0
  -26.9910  -30.3610   24.7560 C   0  0  0  0  0  1  0  0  0  0  0  0
  -27.5570  -32.5400   25.7990 C   0  0  0  0  0  1  0  0  0  0  0  0
  -30.3280  -17.2040   21.1380 C   0  0  0  0  0  2  0  0  0  0  0  0
  -30.6130  -14.6870   20.4350 C   0  0  0  0  0  0  0  0  0  0  0  0
  -30.3740  -12.4470   19.3540 C   0  0  0  0  0  2  0  0  0  0  0  0
  -29.4260  -12.5520   18.1410 C   0  0  0  0  0  2  0  0  0  0  0  0
  -27.9590  -12.3830   18.5810 C   0  0  0  0  0  2  0  0  0  0  0  0
  -27.6000  -13.2530   19.8140 C   0  0  0  0  0  3  0  0  0  0  0  0
  -28.6660  -13.1290   20.9240 C   0  0  0  0  0  2  0  0  0  0  0  0
  -29.9630  -13.4810   20.3280 N   0  0  0  0  0  0  0  0  0  0  0  0
  -31.7890  -14.7980   20.0800 O   0  0  0  0  0  0  0  0  0  0  0  0
  -29.8740  -15.7970   20.7850 N   0  0  0  0  0  0  0  0  0  0  0  0
  -28.9050  -15.6060   20.9840 H   0  0  0  0  0  0  0  0  0  0  0  0
  -25.2110  -13.8420   20.5510 C   0  0  0  0  0  0  0  0  0  0  0  0
  -24.1480  -13.0650   20.9240 C   0  0  0  0  0  0  0  0  0  0  0  0
  -24.6150  -11.7150   20.8900 C   0  0  0  0  0  0  0  0  0  0  0  0
  -26.2570  -12.9650   20.3110 N   0  0  0  0  0  0  0  0  0  0  0  0
  -25.9040  -11.6810   20.5750 N   0  0  0  0  0  0  0  0  0  0  0  0
  -23.8910  -10.4500   21.0780 C   0  0  0  0  0  0  0  0  0  0  0  0
  -24.3360   -9.4740   21.9960 C   0  0  0  0  0  3  0  0  0  0  0  0
  -23.6120   -8.2760   22.1740 C   0  0  0  0  0  3  0  0  0  0  0  0
  -22.4270   -8.0460   21.4320 C   0  0  0  0  0  0  0  0  0  0  0  0
  -22.0020   -9.0110   20.5020 C   0  0  0  0  0  3  0  0  0  0  0  0
  -22.7280  -10.2020   20.3240 C   0  0  0  0  0  3  0  0  0  0  0  0
  -21.6720   -6.9000   21.5190 O   0  0  0  0  0  0  0  0  0  0  0  0
  -21.6480   -6.1400   22.6610 C   0  0  0  0  0  0  0  0  0  0  0  0
  -21.2510   -6.6780   23.9060 C   0  0  0  0  0  3  0  0  0  0  0  0
  -21.1750   -5.8450   25.0400 C   0  0  0  0  0  3  0  0  0  0  0  0
  -21.4840   -4.4760   24.9310 C   0  0  0  0  0  0  0  0  0  0  0  0
  -21.8730   -3.9370   23.6910 C   0  0  0  0  0  3  0  0  0  0  0  0
  -21.9520   -4.7680   22.5600 C   0  0  0  0  0  0  0  0  0  0  0  0
  -22.3080   -4.2400   21.3640 F   0  0  0  0  0  0  0  0  0  0  0  0
  -21.4020   -3.6730   26.0180 F   0  0  0  0  0  0  0  0  0  0  0  0
  -22.7500  -13.5390   21.1990 C   0  0  0  0  0  0  0  0  0  0  0  0
  -22.0240  -12.8390   22.0640 N   0  0  0  0  0  0  0  0  0  0  0  0
  -22.3100  -14.5650   20.6840 O   0  0  0  0  0  0  0  0  0  0  0  0
  -22.3910  -12.0090   22.5050 H   0  0  0  0  0  0  0  0  0  0  0  0
  -21.0870  -13.1410   22.2920 H   0  0  0  0  0  0  0  0  0  0  0  0
  -25.3690  -15.2140   20.3750 N   0  0  0  0  0  0  0  0  0  0  0  0
  -24.5950  -15.8600   20.4830 H   0  0  0  0  0  0  0  0  0  0  0  0
  -26.2100  -15.6600   20.0280 H   0  0  0  0  0  0  0  0  0  0  0  0
  1  4  1  0
  2  6  1  0
  2  1  2  0
  4  3  2  0
  4 55  1  0
  5 10  1  0
  5  3  1  0
  6  5  2  0
  7  9  1  0
  7  6  1  0
  8  7  1  0
 11 13  1  0
 11 10  1  0
 12 11  2  0
 14 13  1  0
 15 26  2  0
 16 14  1  0
 16 21  1  0
 17 25  1  0
 17 27  1  0
 18 24  1  0
 18 20  1  0
 19 25  1  0
 20 19  1  0
 21 20  2  0
 22 16  2  0
 23 22  1  0
 23 18  2  0
 24 17  1  0
 25 15  1  0
 27 29  2  0
 28 27  1  0
 30 28  1  0
 31 40  2  0
 31 36  1  0
 32 28  1  0
 32 36  1  0
 33 32  1  0
 34 35  1  0
 34 33  1  0
 35 31  1  0
 36 37  2  0
 37 38  1  0
 39 38  2  0
 40 39  1  0
 41 15  1  0
 41 42  1  0
 41 51  1  0
 42 45  1  0
 43 47  1  0
 43 42  1  0
 44 43  2  0
 47 46  1  0
 49 47  1  0
 49 50  1  0
 49 48  1  0
 51 54  1  1
 51 52  1  0
 53 51  1  0
 56 64  1  0
 57 62  1  0
 58 59  1  0
 58 57  1  0
 60 59  1  0
 60 69  1  0
 60 61  1  0
 62 56  1  0
 62 61  1  0
 63 56  2  0
 64 65  1  0
 64 55  1  0
 66 67  2  0
 67 86  1  0
 68 67  1  0
 68 71  1  0
 69 66  1  0
 69 70  1  0
 70 68  2  0
 71 72  1  0
 72 73  2  0
 74 77  1  0
 74 73  1  0
 75 74  2  0
 76 75  1  0
 76 71  2  0
 77 78  1  0
 78 79  1  0
 79 80  2  0
 81 80  1  0
 81 85  1  0
 82 81  2  0
 83 78  2  0
 83 82  1  0
 84 83  1  0
 86 87  1  0
 87 90  1  0
 87 89  1  0
 88 86  2  0
 91 92  1  0
 91 66  1  0
 93 91  1  0
M  ISO  4  13 101  14 101  56 100  64 100
M  END
>  <TORSDO>  (28) 
F 21

>  <SCORE>  (28) 
-13.775

>  <name>  (28) 
28

>  <ligand_id>  (28) 
28

>  <original_smiles>  (28) 
[H]c1c([H])c([H])c2c(c1[H])C([H])([H])C([H])([H])C([H])([H])C2([H])N([H])C(=O)C1([H])N(C(=O)C([H])(N([H])C(=O)C([H])(N([H])C([H])([H])[H])C([H])([H])[H])C(C([H])([H])[H])(C([H])([H])[H])C([H])([H])[H])C([H])([H])c2c([H])c(OC([H])([H])C(=O)C([H])([H])c3c([H])c(C([H])([H])N([H])C(=O)N4C([H])([H])C([H])([H])C([H])([H])C([H])(n5nc(-c6c([H])c([H])c(Oc7c([H])c([H])c(F)c([H])c7F)c([H])c6[H])c(C(=O)N([H])[H])c5N([H])[H])C4([H])[H])c([H])c([H])c3N([H])[H])c([H])c([H])c2C1([H])[H]

>  <smiles>  (28) 
[H]c1c([H])c([H])c2c(c1[H])C([H])([H])C([H])([H])C([H])([H])C2([H])N([H])C(=O)C1([H])N(C(=O)C([H])(N([H])C(=O)C([H])(N([H])C([H])([H])[H])C([H])([H])[H])C(C([H])([H])[H])(C([H])([H])[H])C([H])([H])[H])C([H])([H])c2c([H])c(OC([H])([H])C(=O)C([H])([H])c3c([H])c(C([H])([H])N([H])C(=O)N4C([H])([H])C([H])([H])C([H])([H])C([H])(n5nc(-c6c([H])c([H])c(Oc7c([H])c([H])c(F)c([H])c7F)c([H])c6[H])c(C(=O)N([H])[H])c5N([H])[H])C4([H])[H])c([H])c([H])c3N([H])[H])c([H])c([H])c2C1([H])[H]

$$$$
29:0:0
     RDKit          3D

 94103  0  0  1  0  0  0  0  0999 V2000
  -31.4140  -22.5630   20.8840 C   0  0  0  0  0  0  0  0  0  0  0  0
  -31.4590  -23.8070   21.7910 C   0  0  0  0  0  2  0  0  0  0  0  0
  -30.4900  -24.9310   21.3860 C   0  0  0  0  0  2  0  0  0  0  0  0
  -29.1920  -23.2690   20.0010 C   0  0  0  0  0  2  0  0  0  0  0  0
  -29.1050  -24.3490   21.1080 C   0  0  0  0  0  3  0  0  0  0  0  0
  -30.2860  -22.2800   20.1810 N   0  0  0  0  0  0  0  0  0  0  0  0
  -32.4180  -21.8470   20.8480 O   0  0  0  0  0  0  0  0  0  0  0  0
  -30.2400  -21.1290   19.2470 C   0  0  0  0  0  2  0  0  0  0  0  0
  -31.3610  -18.8840   19.7810 C   0  0  0  0  0  3  0  0  0  0  0  0
  -29.0000  -19.1150   20.2650 C   0  0  0  0  0  3  0  0  0  0  0  0
  -31.3060  -17.5150   20.1310 C   0  0  0  0  0  3  0  0  0  0  0  0
  -28.9400  -17.7420   20.6070 C   0  0  0  0  0  3  0  0  0  0  0  0
  -30.2070  -19.6980   19.8190 C   0  0  0  0  0  0  0  0  0  0  0  0
  -30.0800  -16.9070   20.5120 C   0  0  0  0  0  0  0  0  0  0  0  0
  -30.6160  -14.4550   20.2940 C   0  0  0  0  0  0  0  0  0  0  0  0
  -30.2710  -12.2930   19.1620 C   0  0  0  0  0  2  0  0  0  0  0  0
  -29.3240  -12.5230   17.9660 C   0  0  0  0  0  2  0  0  0  0  0  0
  -27.8530  -12.4000   18.4080 C   0  0  0  0  0  2  0  0  0  0  0  0
  -27.5370  -13.2310   19.6810 C   0  0  0  0  0  3  0  0  0  0  0  0
  -28.6020  -13.0010   20.7790 C   0  0  0  0  0  2  0  0  0  0  0  0
  -29.9260  -13.2840   20.1970 N   0  0  0  0  0  0  0  0  0  0  0  0
  -31.7550  -14.5800   19.8370 O   0  0  0  0  0  0  0  0  0  0  0  0
  -29.9200  -15.5020   20.7880 N   0  0  0  0  0  0  0  0  0  0  0  0
  -29.0230  -15.2390   21.1690 H   0  0  0  0  0  0  0  0  0  0  0  0
  -25.1440  -13.8520   20.3940 C   0  0  0  0  0  0  0  0  0  0  0  0
  -24.0760  -13.0880   20.7800 C   0  0  0  0  0  0  0  0  0  0  0  0
  -24.5330  -11.7340   20.7660 C   0  0  0  0  0  0  0  0  0  0  0  0
  -26.1860  -12.9650   20.1700 N   0  0  0  0  0  0  0  0  0  0  0  0
  -25.8210  -11.6870   20.4530 N   0  0  0  0  0  0  0  0  0  0  0  0
  -23.8030  -10.4770   20.9780 C   0  0  0  0  0  0  0  0  0  0  0  0
  -24.2420   -9.5180   21.9180 C   0  0  0  0  0  3  0  0  0  0  0  0
  -23.5140   -8.3250   22.1160 C   0  0  0  0  0  3  0  0  0  0  0  0
  -22.3330   -8.0830   21.3750 C   0  0  0  0  0  0  0  0  0  0  0  0
  -21.9130   -9.0290   20.4250 C   0  0  0  0  0  3  0  0  0  0  0  0
  -22.6410  -10.2150   20.2250 C   0  0  0  0  0  3  0  0  0  0  0  0
  -21.5750   -6.9410   21.4820 O   0  0  0  0  0  0  0  0  0  0  0  0
  -21.5410   -6.2060   22.6400 C   0  0  0  0  0  0  0  0  0  0  0  0
  -21.1420   -6.7730   23.8710 C   0  0  0  0  0  3  0  0  0  0  0  0
  -21.0550   -5.9640   25.0230 C   0  0  0  0  0  3  0  0  0  0  0  0
  -21.3580   -4.5910   24.9450 C   0  0  0  0  0  0  0  0  0  0  0  0
  -21.7490   -4.0250   23.7190 C   0  0  0  0  0  3  0  0  0  0  0  0
  -21.8380   -4.8310   22.5700 C   0  0  0  0  0  0  0  0  0  0  0  0
  -22.1960   -4.2750   21.3860 F   0  0  0  0  0  0  0  0  0  0  0  0
  -21.2660   -3.8120   26.0470 F   0  0  0  0  0  0  0  0  0  0  0  0
  -22.6820  -13.5740   21.0530 C   0  0  0  0  0  0  0  0  0  0  0  0
  -21.9560  -12.8920   21.9330 N   0  0  0  0  0  0  0  0  0  0  0  0
  -22.2440  -14.5920   20.5210 O   0  0  0  0  0  0  0  0  0  0  0  0
  -22.3220  -12.0680   22.3860 H   0  0  0  0  0  0  0  0  0  0  0  0
  -21.0210  -13.2010   22.1590 H   0  0  0  0  0  0  0  0  0  0  0  0
  -25.3140  -15.2180   20.1930 N   0  0  0  0  0  0  0  0  0  0  0  0
  -24.5460  -15.8750   20.2810 H   0  0  0  0  0  0  0  0  0  0  0  0
  -26.1550  -15.6390   19.8180 H   0  0  0  0  0  0  0  0  0  0  0  0
  -27.9820  -25.4140   20.9350 C   0  0  0  0  0  2  0  0  0  0  0  0
  -28.2040  -26.5320   20.0490 O   0  0  0  0  0  0  0  0  0  0  0  0
  -24.5070  -31.7880   23.1250 C   0  0  0  0  0  0  0  0  0  0  0  0
  -27.0910  -27.3500   19.9910 C   0  0  0  0  0  0  0  0  0  0  0  0
  -23.2770  -30.4160   21.4740 C   0  0  0  0  0  3  0  0  0  0  0  0
  -24.7120  -28.8880   20.0130 C   0  0  0  0  0  0  0  0  0  0  0  0
  -25.8050  -30.7550   21.2640 C   0  0  0  0  0  2  0  0  0  0  0  0
  -25.8790  -29.3910   20.6060 C   0  0  0  0  0  0  0  0  0  0  0  0
  -27.0730  -28.6300   20.5910 C   0  0  0  0  0  3  0  0  0  0  0  0
  -25.9130  -26.8710   19.3750 C   0  0  0  0  0  3  0  0  0  0  0  0
  -24.7270  -27.6300   19.3890 C   0  0  0  0  0  3  0  0  0  0  0  0
  -23.4730  -29.7510   20.0840 C   0  0  0  0  0  2  0  0  0  0  0  0
  -24.5480  -31.0020   22.0120 N   0  0  0  0  0  0  0  0  0  0  0  0
  -23.4330  -32.0650   23.6760 O   0  0  0  0  0  0  0  0  0  0  0  0
  -22.6230  -29.3920   22.4280 C   0  0  0  0  0  0  0  0  0  0  0  0
  -21.2930  -29.2360   22.3230 N   0  0  0  0  0  0  0  0  0  0  0  0
  -23.3090  -28.7380   23.2190 O   0  0  0  0  0  0  0  0  0  0  0  0
  -20.8010  -29.8150   21.6580 H   0  0  0  0  0  0  0  0  0  0  0  0
  -17.9040  -28.1070   22.8680 C   0  0  0  0  0  0  0  0  0  0  0  0
  -20.4710  -28.3000   23.0910 C   0  0  0  0  0  3  0  0  0  0  0  0
  -20.5310  -26.8810   22.4820 C   0  0  0  0  0  2  0  0  0  0  0  0
  -19.4010  -26.6050   21.4850 C   0  0  0  0  0  2  0  0  0  0  0  0
  -18.0360  -26.7690   22.1590 C   0  0  0  0  0  2  0  0  0  0  0  0
  -19.0480  -28.8330   23.2910 C   0  0  0  0  0  0  0  0  0  0  0  0
  -18.8710  -30.0880   23.9120 C   0  0  0  0  0  3  0  0  0  0  0  0
  -17.5830  -30.6170   24.1160 C   0  0  0  0  0  3  0  0  0  0  0  0
  -16.4530  -29.8850   23.7090 C   0  0  0  0  0  3  0  0  0  0  0  0
  -16.6130  -28.6330   23.0910 C   0  0  0  0  0  3  0  0  0  0  0  0
  -25.8040  -32.4010   23.7430 C   0  0  0  0  0  3  0  0  0  0  0  0
  -26.3380  -31.5960   24.9910 C   0  0  1  0  0  0  0  0  0  0  0  0
  -25.2610  -31.3420   26.0710 C   0  0  0  0  0  1  0  0  0  0  0  0
  -26.9070  -30.2250   24.5550 C   0  0  0  0  0  1  0  0  0  0  0  0
  -27.5040  -32.3680   25.6520 C   0  0  0  0  0  1  0  0  0  0  0  0
  -25.5050  -33.7920   24.1110 N   0  0  0  0  0  0  0  0  0  0  0  0
  -25.8370  -34.8610   23.3740 C   0  0  0  0  0  0  0  0  0  0  0  0
  -26.5010  -34.7800   22.3370 O   0  0  0  0  0  0  0  0  0  0  0  0
  -24.9140  -33.9320   24.9180 H   0  0  0  0  0  0  0  0  0  0  0  0
  -24.1200  -36.6730   23.0710 C   0  0  0  0  0  1  0  0  0  0  0  0
  -25.3610  -36.2400   23.8690 C   0  0  0  0  0  3  0  0  0  0  0  0
  -27.5030  -37.0890   24.7130 C   0  0  0  0  0  1  0  0  0  0  0  0
  -26.3990  -37.2890   23.7790 N   0  0  0  0  0  0  0  0  0  0  0  0
  -26.0000  -38.2080   23.9520 H   0  0  0  0  0  0  0  0  0  0  0  0
  1  2  1  0
  3  2  1  0
  4  6  1  0
  4  5  1  0
  5 53  1  0
  5  3  1  0
  6  1  1  0
  7  1  2  0
  8 13  1  0
  8  6  1  0
  9 13  2  0
  9 11  1  0
 10 12  2  0
 11 14  2  0
 13 10  1  0
 14 12  1  0
 14 23  1  0
 15 23  1  0
 16 21  1  0
 17 18  1  0
 17 16  1  0
 19 18  1  0
 19 28  1  0
 19 20  1  0
 21 15  1  0
 21 20  1  0
 22 15  2  0
 23 24  1  0
 25 26  2  0
 26 45  1  0
 27 26  1  0
 27 30  1  0
 28 25  1  0
 28 29  1  0
 29 27  2  0
 30 31  1  0
 31 32  2  0
 33 36  1  0
 33 32  1  0
 34 33  2  0
 35 34  1  0
 35 30  2  0
 36 37  1  0
 37 38  1  0
 38 39  2  0
 40 39  1  0
 40 44  1  0
 41 40  2  0
 42 37  2  0
 42 41  1  0
 43 42  1  0
 45 46  1  0
 46 49  1  0
 46 48  1  0
 47 45  2  0
 50 51  1  0
 50 25  1  0
 52 50  1  0
 54 53  1  0
 55 66  2  0
 56 54  1  0
 56 61  1  0
 57 65  1  0
 57 67  1  0
 58 64  1  0
 58 60  1  0
 59 65  1  0
 60 59  1  0
 61 60  2  0
 62 63  1  0
 62 56  2  0
 63 58  2  0
 64 57  1  0
 65 55  1  0
 67 69  2  0
 68 67  1  0
 70 68  1  0
 71 80  2  0
 71 76  1  0
 72 68  1  0
 72 76  1  0
 73 72  1  0
 74 75  1  0
 74 73  1  0
 75 71  1  0
 76 77  2  0
 77 78  1  0
 79 78  2  0
 80 79  1  0
 81 55  1  0
 81 86  1  0
 81 82  1  0
 82 85  1  1
 82 83  1  0
 84 82  1  0
 86 89  1  0
 87 91  1  0
 87 86  1  0
 88 87  2  0
 91 90  1  0
 93 91  1  0
 93 94  1  0
 93 92  1  0
M  ISO  4  15 100  23 100  53 101  54 101
M  END
>  <TORSDO>  (29) 
F 19

>  <SCORE>  (29) 
-13.472

>  <name>  (29) 
29

>  <ligand_id>  (29) 
29

>  <original_smiles>  (29) 
[H]c1c([H])c([H])c2c(c1[H])C([H])([H])C([H])([H])C([H])([H])C2([H])N([H])C(=O)C1([H])N(C(=O)C([H])(N([H])C(=O)C([H])(N([H])C([H])([H])[H])C([H])([H])[H])C(C([H])([H])[H])(C([H])([H])[H])C([H])([H])[H])C([H])([H])c2c([H])c(OC([H])([H])C3([H])C([H])([H])N(C([H])([H])c4c([H])c([H])c(N([H])C(=O)N5C([H])([H])C([H])([H])C([H])([H])C([H])(n6nc(-c7c([H])c([H])c(Oc8c([H])c([H])c(F)c([H])c8F)c([H])c7[H])c(C(=O)N([H])[H])c6N([H])[H])C5([H])[H])c([H])c4[H])C(=O)C([H])([H])C3([H])[H])c([H])c([H])c2C1([H])[H]

>  <smiles>  (29) 
[H]c1c([H])c([H])c2c(c1[H])C([H])([H])C([H])([H])C([H])([H])C2([H])N([H])C(=O)C1([H])N(C(=O)C([H])(N([H])C(=O)C([H])(N([H])C([H])([H])[H])C([H])([H])[H])C(C([H])([H])[H])(C([H])([H])[H])C([H])([H])[H])C([H])([H])c2c([H])c(OC([H])([H])C3([H])C([H])([H])N(C([H])([H])c4c([H])c([H])c(N([H])C(=O)N5C([H])([H])C([H])([H])C([H])([H])C([H])(n6nc(-c7c([H])c([H])c(Oc8c([H])c([H])c(F)c([H])c8F)c([H])c7[H])c(C(=O)N([H])[H])c6N([H])[H])C5([H])[H])c([H])c4[H])C(=O)C([H])([H])C3([H])[H])c([H])c([H])c2C1([H])[H]

$$$$
30:0:0
     RDKit          3D

 94103  0  0  1  0  0  0  0  0999 V2000
  -29.8870  -21.1270   19.7540 C   0  0  0  0  0  0  0  0  0  0  0  0
  -28.0730  -23.3750   22.0880 C   0  0  0  0  0  2  0  0  0  0  0  0
  -28.3230  -21.9410   21.5810 C   0  0  0  0  0  2  0  0  0  0  0  0
  -29.2000  -23.5070   19.9870 C   0  0  0  0  0  2  0  0  0  0  0  0
  -28.1900  -24.2810   20.8560 C   0  0  0  0  0  3  0  0  0  0  0  0
  -29.1440  -22.0830   20.3780 N   0  0  0  0  0  0  0  0  0  0  0  0
  -30.6250  -21.4150   18.8070 O   0  0  0  0  0  0  0  0  0  0  0  0
  -28.7010  -18.8980   20.2720 C   0  0  0  0  0  3  0  0  0  0  0  0
  -28.7700  -17.5080   20.5410 C   0  0  0  0  0  3  0  0  0  0  0  0
  -31.1140  -19.0380   20.4780 C   0  0  0  0  0  3  0  0  0  0  0  0
  -29.8810  -19.6810   20.2170 C   0  0  0  0  0  0  0  0  0  0  0  0
  -30.0130  -16.8610   20.7520 C   0  0  0  0  0  0  0  0  0  0  0  0
  -31.1840  -17.6580   20.7720 C   0  0  0  0  0  0  0  0  0  0  0  0
  -32.3850  -17.1220   21.0870 F   0  0  0  0  0  0  0  0  0  0  0  0
  -30.6900  -14.5170   20.2320 C   0  0  0  0  0  0  0  0  0  0  0  0
  -30.3750  -12.3930   19.0100 C   0  0  0  0  0  2  0  0  0  0  0  0
  -29.3800  -12.6150   17.8510 C   0  0  0  0  0  2  0  0  0  0  0  0
  -27.9210  -12.4770   18.3320 C   0  0  0  0  0  2  0  0  0  0  0  0
  -27.6380  -13.2740   19.6340 C   0  0  0  0  0  3  0  0  0  0  0  0
  -28.7310  -12.9940   20.6880 C   0  0  0  0  0  2  0  0  0  0  0  0
  -30.0370  -13.3300   20.0930 N   0  0  0  0  0  0  0  0  0  0  0  0
  -31.7630  -14.7430   19.6660 O   0  0  0  0  0  0  0  0  0  0  0  0
  -30.0260  -15.4430   20.9610 N   0  0  0  0  0  0  0  0  0  0  0  0
  -29.2040  -15.0650   21.4040 H   0  0  0  0  0  0  0  0  0  0  0  0
  -25.2630  -13.8720   20.4380 C   0  0  0  0  0  0  0  0  0  0  0  0
  -24.2100  -13.0940   20.8370 C   0  0  0  0  0  0  0  0  0  0  0  0
  -24.6700  -11.7440   20.7680 C   0  0  0  0  0  0  0  0  0  0  0  0
  -26.2990  -12.9950   20.1550 N   0  0  0  0  0  0  0  0  0  0  0  0
  -25.9470  -11.7090   20.4090 N   0  0  0  0  0  0  0  0  0  0  0  0
  -23.9530  -10.4790   20.9630 C   0  0  0  0  0  0  0  0  0  0  0  0
  -24.3890   -9.5180   21.9000 C   0  0  0  0  0  3  0  0  0  0  0  0
  -23.6730   -8.3160   22.0810 C   0  0  0  0  0  3  0  0  0  0  0  0
  -22.5040   -8.0660   21.3250 C   0  0  0  0  0  0  0  0  0  0  0  0
  -22.0870   -9.0150   20.3740 C   0  0  0  0  0  3  0  0  0  0  0  0
  -22.8050  -10.2080   20.1910 C   0  0  0  0  0  3  0  0  0  0  0  0
  -21.7550   -6.9190   21.4190 O   0  0  0  0  0  0  0  0  0  0  0  0
  -21.6740   -6.2030   22.5850 C   0  0  0  0  0  0  0  0  0  0  0  0
  -21.1620   -6.7710   23.7730 C   0  0  0  0  0  3  0  0  0  0  0  0
  -21.0320   -5.9800   24.9320 C   0  0  0  0  0  3  0  0  0  0  0  0
  -21.4030   -4.6220   24.9050 C   0  0  0  0  0  0  0  0  0  0  0  0
  -21.9100   -4.0550   23.7230 C   0  0  0  0  0  3  0  0  0  0  0  0
  -22.0420   -4.8420   22.5660 C   0  0  0  0  0  0  0  0  0  0  0  0
  -22.5090   -4.2840   21.4240 F   0  0  0  0  0  0  0  0  0  0  0  0
  -21.2710   -3.8610   26.0160 F   0  0  0  0  0  0  0  0  0  0  0  0
  -22.8250  -13.5670   21.1690 C   0  0  0  0  0  0  0  0  0  0  0  0
  -22.1240  -12.8500   22.0400 N   0  0  0  0  0  0  0  0  0  0  0  0
  -22.3730  -14.6080   20.6920 O   0  0  0  0  0  0  0  0  0  0  0  0
  -22.5020  -12.0090   22.4500 H   0  0  0  0  0  0  0  0  0  0  0  0
  -21.1940  -13.1460   22.3020 H   0  0  0  0  0  0  0  0  0  0  0  0
  -25.4190  -15.2450   20.2750 N   0  0  0  0  0  0  0  0  0  0  0  0
  -24.6470  -15.8870   20.4150 H   0  0  0  0  0  0  0  0  0  0  0  0
  -26.2300  -15.6830   19.8590 H   0  0  0  0  0  0  0  0  0  0  0  0
  -28.5580  -25.7610   21.1900 C   0  0  0  0  0  2  0  0  0  0  0  0
  -28.4310  -26.6990   20.1050 O   0  0  0  0  0  0  0  0  0  0  0  0
  -24.6010  -31.8920   23.1700 C   0  0  0  0  0  0  0  0  0  0  0  0
  -27.2790  -27.4540   20.1150 C   0  0  0  0  0  0  0  0  0  0  0  0
  -23.4100  -30.4870   21.5150 C   0  0  0  0  0  3  0  0  0  0  0  0
  -24.8810  -28.9530   20.1000 C   0  0  0  0  0  0  0  0  0  0  0  0
  -25.9350  -30.8550   21.3350 C   0  0  0  0  0  2  0  0  0  0  0  0
  -26.0320  -29.4820   20.7000 C   0  0  0  0  0  0  0  0  0  0  0  0
  -27.2360  -28.7390   20.7070 C   0  0  0  0  0  3  0  0  0  0  0  0
  -26.1180  -26.9420   19.5040 C   0  0  0  0  0  3  0  0  0  0  0  0
  -24.9190  -27.6820   19.4990 C   0  0  0  0  0  3  0  0  0  0  0  0
  -23.6330  -29.8070   20.1370 C   0  0  0  0  0  2  0  0  0  0  0  0
  -24.6650  -31.0940   22.0640 N   0  0  0  0  0  0  0  0  0  0  0  0
  -23.5150  -32.1570   23.7050 O   0  0  0  0  0  0  0  0  0  0  0  0
  -22.7580  -29.4630   22.4740 C   0  0  0  0  0  0  0  0  0  0  0  0
  -21.4320  -29.2880   22.3560 N   0  0  0  0  0  0  0  0  0  0  0  0
  -23.4440  -28.8260   23.2790 O   0  0  0  0  0  0  0  0  0  0  0  0
  -20.9400  -29.8540   21.6790 H   0  0  0  0  0  0  0  0  0  0  0  0
  -18.0510  -28.1380   22.8980 C   0  0  0  0  0  0  0  0  0  0  0  0
  -20.6170  -28.3470   23.1230 C   0  0  0  0  0  3  0  0  0  0  0  0
  -20.6830  -26.9280   22.5130 C   0  0  0  0  0  2  0  0  0  0  0  0
  -19.5550  -26.6470   21.5140 C   0  0  0  0  0  2  0  0  0  0  0  0
  -18.1900  -26.8010   22.1900 C   0  0  0  0  0  2  0  0  0  0  0  0
  -19.1910  -28.8710   23.3220 C   0  0  0  0  0  0  0  0  0  0  0  0
  -19.0070  -30.1250   23.9460 C   0  0  0  0  0  3  0  0  0  0  0  0
  -17.7160  -30.6450   24.1490 C   0  0  0  0  0  3  0  0  0  0  0  0
  -16.5900  -29.9090   23.7420 C   0  0  0  0  0  3  0  0  0  0  0  0
  -16.7580  -28.6570   23.1220 C   0  0  0  0  0  3  0  0  0  0  0  0
  -25.8800  -32.5300   23.7960 C   0  0  0  0  0  3  0  0  0  0  0  0
  -25.5590  -33.9210   24.1390 N   0  0  0  0  0  0  0  0  0  0  0  0
  -25.8900  -34.9830   23.3900 C   0  0  0  0  0  0  0  0  0  0  0  0
  -26.5680  -34.8950   22.3630 O   0  0  0  0  0  0  0  0  0  0  0  0
  -24.9620  -34.0650   24.9390 H   0  0  0  0  0  0  0  0  0  0  0  0
  -24.1630  -36.7730   23.0270 C   0  0  0  0  0  1  0  0  0  0  0  0
  -25.3890  -36.3630   23.8580 C   0  0  0  0  0  3  0  0  0  0  0  0
  -27.4980  -37.2480   24.7500 C   0  0  0  0  0  1  0  0  0  0  0  0
  -26.4190  -37.4210   23.7800 N   0  0  0  0  0  0  0  0  0  0  0  0
  -26.0050  -38.3380   23.9240 H   0  0  0  0  0  0  0  0  0  0  0  0
  -26.4050  -31.7510   25.0650 C   0  0  1  0  0  0  0  0  0  0  0  0
  -25.3170  -31.4880   26.1300 C   0  0  0  0  0  1  0  0  0  0  0  0
  -27.0070  -30.3860   24.6560 C   0  0  0  0  0  1  0  0  0  0  0  0
  -27.5440  -32.5530   25.7400 C   0  0  0  0  0  1  0  0  0  0  0  0
  1 11  1  0
  1  6  1  0
  3  2  1  0
  4  6  1  0
  4  5  1  0
  5 53  1  0
  5  2  1  0
  6  3  1  0
  7  1  2  0
  8  9  1  0
  9 12  2  0
 10 13  2  0
 11  8  2  0
 11 10  1  0
 12 13  1  0
 12 23  1  0
 13 14  1  0
 15 23  1  0
 16 21  1  0
 17 18  1  0
 17 16  1  0
 19 18  1  0
 19 28  1  0
 19 20  1  0
 21 15  1  0
 21 20  1  0
 22 15  2  0
 23 24  1  0
 25 26  2  0
 26 45  1  0
 27 26  1  0
 27 30  1  0
 28 29  1  0
 28 25  1  0
 29 27  2  0
 30 31  1  0
 31 32  2  0
 33 36  1  0
 33 32  1  0
 34 33  2  0
 35 34  1  0
 35 30  2  0
 36 37  1  0
 37 38  1  0
 38 39  2  0
 40 39  1  0
 40 44  1  0
 41 40  2  0
 42 37  2  0
 42 41  1  0
 43 42  1  0
 45 46  1  0
 46 49  1  0
 46 48  1  0
 47 45  2  0
 50 51  1  0
 50 25  1  0
 52 50  1  0
 54 56  1  0
 54 53  1  0
 55 66  2  0
 56 61  1  0
 57 65  1  0
 57 67  1  0
 58 64  1  0
 58 60  1  0
 59 65  1  0
 60 61  2  0
 60 59  1  0
 62 56  2  0
 63 62  1  0
 63 58  2  0
 64 57  1  0
 65 55  1  0
 67 69  2  0
 68 67  1  0
 70 68  1  0
 71 80  2  0
 71 76  1  0
 72 68  1  0
 72 76  1  0
 73 72  1  0
 74 75  1  0
 74 73  1  0
 75 71  1  0
 76 77  2  0
 77 78  1  0
 79 78  2  0
 80 79  1  0
 81 55  1  0
 81 82  1  0
 81 91  1  0
 82 85  1  0
 83 87  1  0
 83 82  1  0
 84 83  2  0
 87 86  1  0
 89 87  1  0
 89 90  1  0
 89 88  1  0
 91 94  1  1
 91 92  1  0
 93 91  1  0
M  ISO  4  15 100  23 100  53 101  54 101
M  END
>  <TORSDO>  (30) 
F 18

>  <SCORE>  (30) 
-14.940

>  <name>  (30) 
30

>  <ligand_id>  (30) 
30

>  <original_smiles>  (30) 
[H]c1c([H])c([H])c2c(c1[H])C([H])([H])C([H])([H])C([H])([H])C2([H])N([H])C(=O)C1([H])N(C(=O)C([H])(N([H])C(=O)C([H])(N([H])C([H])([H])[H])C([H])([H])[H])C(C([H])([H])[H])(C([H])([H])[H])C([H])([H])[H])C([H])([H])c2c([H])c(OC([H])([H])C3([H])C([H])([H])N(C(=O)c4c([H])c([H])c(N([H])C(=O)N5C([H])([H])C([H])([H])C([H])([H])C([H])(n6nc(-c7c([H])c([H])c(Oc8c([H])c([H])c(F)c([H])c8F)c([H])c7[H])c(C(=O)N([H])[H])c6N([H])[H])C5([H])[H])c(F)c4[H])C([H])([H])C3([H])[H])c([H])c([H])c2C1([H])[H]

>  <smiles>  (30) 
[H]c1c([H])c([H])c2c(c1[H])C([H])([H])C([H])([H])C([H])([H])C2([H])N([H])C(=O)C1([H])N(C(=O)C([H])(N([H])C(=O)C([H])(N([H])C([H])([H])[H])C([H])([H])[H])C(C([H])([H])[H])(C([H])([H])[H])C([H])([H])[H])C([H])([H])c2c([H])c(OC([H])([H])C3([H])C([H])([H])N(C(=O)c4c([H])c([H])c(N([H])C(=O)N5C([H])([H])C([H])([H])C([H])([H])C([H])(n6nc(-c7c([H])c([H])c(Oc8c([H])c([H])c(F)c([H])c8F)c([H])c7[H])c(C(=O)N([H])[H])c6N([H])[H])C5([H])[H])c(F)c4[H])C([H])([H])C3([H])[H])c([H])c([H])c2C1([H])[H]

$$$$
31:0:0
     RDKit          3D

 84 91  0  0  1  0  0  0  0  0999 V2000
  -28.9410  -22.8300   20.4080 C   0  0  0  0  0  0  0  0  0  0  0  0
  -30.0510  -23.1450   20.8460 O   0  0  0  0  0  0  0  0  0  0  0  0
  -27.8770  -24.2070   20.1070 C   0  0  0  0  0  2  0  0  0  0  0  0
  -28.1660  -25.8350   20.3160 O   0  0  0  0  0  0  0  0  0  0  0  0
  -24.6540  -31.8790   23.2440 C   0  0  0  0  0  0  0  0  0  0  0  0
  -27.1760  -26.9590   20.2420 C   0  0  0  0  0  0  0  0  0  0  0  0
  -23.4530  -30.4870   21.6080 C   0  0  0  0  0  3  0  0  0  0  0  0
  -24.8930  -28.8690   20.1870 C   0  0  0  0  0  0  0  0  0  0  0  0
  -26.0220  -30.6770   21.4630 C   0  0  0  0  0  2  0  0  0  0  0  0
  -26.0830  -29.2630   20.8100 C   0  0  0  0  0  0  0  0  0  0  0  0
  -27.2190  -28.3300   20.8100 C   0  0  0  0  0  3  0  0  0  0  0  0
  -25.9560  -26.7230   19.5690 C   0  0  0  0  0  3  0  0  0  0  0  0
  -24.8560  -27.6200   19.5460 C   0  0  0  0  0  3  0  0  0  0  0  0
  -23.6800  -29.8000   20.2330 C   0  0  0  0  0  2  0  0  0  0  0  0
  -24.7320  -31.0420   22.1580 N   0  0  0  0  0  0  0  0  0  0  0  0
  -23.5660  -32.1770   23.7630 O   0  0  0  0  0  0  0  0  0  0  0  0
  -22.7510  -29.4990   22.5760 C   0  0  0  0  0  0  0  0  0  0  0  0
  -21.4190  -29.3420   22.4510 N   0  0  0  0  0  0  0  0  0  0  0  0
  -23.4110  -28.8740   23.4090 O   0  0  0  0  0  0  0  0  0  0  0  0
  -20.9390  -29.8960   21.7550 H   0  0  0  0  0  0  0  0  0  0  0  0
  -18.0320  -28.1410   22.9520 C   0  0  0  0  0  0  0  0  0  0  0  0
  -20.5920  -28.4100   23.2230 C   0  0  0  0  0  3  0  0  0  0  0  0
  -20.6950  -26.9730   22.6580 C   0  0  0  0  0  2  0  0  0  0  0  0
  -19.5970  -26.6440   21.6410 C   0  0  0  0  0  2  0  0  0  0  0  0
  -18.2130  -26.7900   22.2800 C   0  0  0  0  0  2  0  0  0  0  0  0
  -19.1490  -28.9080   23.3810 C   0  0  0  0  0  0  0  0  0  0  0  0
  -18.9240  -30.1690   23.9730 C   0  0  0  0  0  3  0  0  0  0  0  0
  -17.6160  -30.6650   24.1380 C   0  0  0  0  0  3  0  0  0  0  0  0
  -16.5150  -29.8960   23.7230 C   0  0  0  0  0  3  0  0  0  0  0  0
  -16.7230  -28.6350   23.1360 C   0  0  0  0  0  3  0  0  0  0  0  0
  -25.9270  -32.5180   23.8770 C   0  0  0  0  0  3  0  0  0  0  0  0
  -26.4270  -31.7530   25.1650 C   0  0  1  0  0  0  0  0  0  0  0  0
  -25.3240  -31.5330   26.2280 C   0  0  0  0  0  1  0  0  0  0  0  0
  -27.0030  -30.3670   24.7980 C   0  0  0  0  0  1  0  0  0  0  0  0
  -27.5790  -32.5440   25.8290 C   0  0  0  0  0  1  0  0  0  0  0  0
  -25.6160  -33.9190   24.2110 N   0  0  0  0  0  0  0  0  0  0  0  0
  -25.9320  -34.9780   23.4530 C   0  0  0  0  0  0  0  0  0  0  0  0
  -26.5790  -34.8790   22.4080 O   0  0  0  0  0  0  0  0  0  0  0  0
  -25.0360  -34.0690   25.0240 H   0  0  0  0  0  0  0  0  0  0  0  0
  -24.1850  -36.7720   23.1690 C   0  0  0  0  0  1  0  0  0  0  0  0
  -25.4600  -36.3690   23.9300 C   0  0  0  0  0  3  0  0  0  0  0  0
  -27.6210  -37.2680   24.6760 C   0  0  0  0  0  1  0  0  0  0  0  0
  -26.4830  -37.4260   23.7740 N   0  0  0  0  0  0  0  0  0  0  0  0
  -26.0780  -38.3440   23.9310 H   0  0  0  0  0  0  0  0  0  0  0  0
  -28.6690  -21.1630   20.1910 O   0  0  0  0  0  0  0  0  0  0  0  0
  -29.6640  -19.8760   20.4750 C   0  0  0  0  0  2  0  0  0  0  0  0
  -29.8030  -16.9170   20.2980 C   0  0  0  0  0  0  0  0  0  0  0  0
  -29.5650  -18.2030   20.3210 C   0  0  0  0  0  0  0  0  0  0  0  0
  -30.4420  -15.3720   20.2060 C   0  0  0  0  0  0  0  0  0  0  0  0
  -30.4040  -12.9060   19.3760 C   0  0  0  0  0  2  0  0  0  0  0  0
  -29.5010  -12.6760   18.1380 C   0  0  0  0  0  2  0  0  0  0  0  0
  -28.0560  -12.3860   18.5720 C   0  0  0  0  0  2  0  0  0  0  0  0
  -27.5860  -13.3570   19.6840 C   0  0  0  0  0  3  0  0  0  0  0  0
  -28.6220  -13.5590   20.8070 C   0  0  0  0  0  2  0  0  0  0  0  0
  -29.8540  -14.0660   20.1810 N   0  0  0  0  0  0  0  0  0  0  0  0
  -31.6610  -15.2970   19.9820 O   0  0  0  0  0  0  0  0  0  0  0  0
  -25.2120  -13.8790   20.4410 C   0  0  0  0  0  0  0  0  0  0  0  0
  -24.1620  -13.0880   20.8140 C   0  0  0  0  0  0  0  0  0  0  0  0
  -24.6500  -11.7450   20.7950 C   0  0  0  0  0  0  0  0  0  0  0  0
  -26.2670  -13.0180   20.2000 N   0  0  0  0  0  0  0  0  0  0  0  0
  -25.9430  -11.7280   20.4840 N   0  0  0  0  0  0  0  0  0  0  0  0
  -23.9400  -10.4730   20.9930 C   0  0  0  0  0  0  0  0  0  0  0  0
  -24.3820   -9.5170   21.9340 C   0  0  0  0  0  3  0  0  0  0  0  0
  -23.6680   -8.3130   22.1210 C   0  0  0  0  0  3  0  0  0  0  0  0
  -22.4980   -8.0580   21.3680 C   0  0  0  0  0  0  0  0  0  0  0  0
  -22.0750   -9.0020   20.4170 C   0  0  0  0  0  3  0  0  0  0  0  0
  -22.7900  -10.1970   20.2270 C   0  0  0  0  0  3  0  0  0  0  0  0
  -21.7550   -6.9060   21.4640 O   0  0  0  0  0  0  0  0  0  0  0  0
  -21.7140   -6.1690   22.6210 C   0  0  0  0  0  0  0  0  0  0  0  0
  -21.2750   -6.7250   23.8420 C   0  0  0  0  0  3  0  0  0  0  0  0
  -21.1820   -5.9140   24.9910 C   0  0  0  0  0  3  0  0  0  0  0  0
  -21.5190   -4.5500   24.9200 C   0  0  0  0  0  0  0  0  0  0  0  0
  -21.9520   -3.9930   23.7030 C   0  0  0  0  0  3  0  0  0  0  0  0
  -22.0450   -4.8010   22.5570 C   0  0  0  0  0  0  0  0  0  0  0  0
  -22.4420   -4.2550   21.3820 F   0  0  0  0  0  0  0  0  0  0  0  0
  -21.4240   -3.7690   26.0230 F   0  0  0  0  0  0  0  0  0  0  0  0
  -22.7580  -13.5470   21.0740 C   0  0  0  0  0  0  0  0  0  0  0  0
  -22.0390  -12.8540   21.9480 N   0  0  0  0  0  0  0  0  0  0  0  0
  -22.3070  -14.5580   20.5360 O   0  0  0  0  0  0  0  0  0  0  0  0
  -22.4170  -12.0380   22.4050 H   0  0  0  0  0  0  0  0  0  0  0  0
  -21.0960  -13.1440   22.1660 H   0  0  0  0  0  0  0  0  0  0  0  0
  -25.3570  -15.2510   20.2560 N   0  0  0  0  0  0  0  0  0  0  0  0
  -24.5830  -15.8970   20.3730 H   0  0  0  0  0  0  0  0  0  0  0  0
  -26.2060  -15.7020   19.9390 H   0  0  0  0  0  0  0  0  0  0  0  0
  1  2  2  0
  3  4  1  0
  3  1  1  0
  5 16  2  0
  6  4  1  0
  6 11  1  0
  7 15  1  0
  7 17  1  0
  8 14  1  0
  8 10  1  0
  9 15  1  0
 10  9  1  0
 11 10  2  0
 12  6  2  0
 13 12  1  0
 13  8  2  0
 14  7  1  0
 15  5  1  0
 17 19  2  0
 18 17  1  0
 20 18  1  0
 21 30  2  0
 21 26  1  0
 22 18  1  0
 22 26  1  0
 23 22  1  0
 24 25  1  0
 24 23  1  0
 25 21  1  0
 26 27  2  0
 27 28  1  0
 29 28  2  0
 30 29  1  0
 31  5  1  0
 31 36  1  0
 31 32  1  0
 32 35  1  1
 32 33  1  0
 34 32  1  0
 36 39  1  0
 37 41  1  0
 37 36  1  0
 38 37  2  0
 41 40  1  0
 43 41  1  0
 43 44  1  0
 43 42  1  0
 45  1  1  0
 45 46  1  0
 47 48  3  0
 48 46  1  0
 49 47  1  0
 50 55  1  0
 51 52  1  0
 51 50  1  0
 53 52  1  0
 53 60  1  0
 53 54  1  0
 55 49  1  0
 55 54  1  0
 56 49  2  0
 57 58  2  0
 58 77  1  0
 59 58  1  0
 59 62  1  0
 60 57  1  0
 60 61  1  0
 61 59  2  0
 62 63  1  0
 63 64  2  0
 65 68  1  0
 65 64  1  0
 66 65  2  0
 67 66  1  0
 67 62  2  0
 68 69  1  0
 69 70  1  0
 70 71  2  0
 72 71  1  0
 72 76  1  0
 73 72  2  0
 74 69  2  0
 74 73  1  0
 75 74  1  0
 77 78  1  0
 78 81  1  0
 78 80  1  0
 79 77  2  0
 82 83  1  0
 82 57  1  0
 84 82  1  0
M  ISO  4   3 101   4 101  47 100  49 100
M  END
>  <TORSDO>  (31) 
F 20

>  <SCORE>  (31) 
-15.605

>  <name>  (31) 
31

>  <ligand_id>  (31) 
31

>  <original_smiles>  (31) 
[H]c1c([H])c([H])c2c(c1[H])C([H])([H])C([H])([H])C([H])([H])C2([H])N([H])C(=O)C1([H])N(C(=O)C([H])(N([H])C(=O)C([H])(N([H])C([H])([H])[H])C([H])([H])[H])C(C([H])([H])[H])(C([H])([H])[H])C([H])([H])[H])C([H])([H])c2c([H])c(OC([H])([H])C(=O)OC([H])([H])C#CC(=O)N3C([H])([H])C([H])([H])C([H])([H])C([H])(n4nc(-c5c([H])c([H])c(Oc6c([H])c([H])c(F)c([H])c6F)c([H])c5[H])c(C(=O)N([H])[H])c4N([H])[H])C3([H])[H])c([H])c([H])c2C1([H])[H]

>  <smiles>  (31) 
[H]c1c([H])c([H])c2c(c1[H])C([H])([H])C([H])([H])C([H])([H])C2([H])N([H])C(=O)C1([H])N(C(=O)C([H])(N([H])C(=O)C([H])(N([H])C([H])([H])[H])C([H])([H])[H])C(C([H])([H])[H])(C([H])([H])[H])C([H])([H])[H])C([H])([H])c2c([H])c(OC([H])([H])C(=O)OC([H])([H])C#CC(=O)N3C([H])([H])C([H])([H])C([H])([H])C([H])(n4nc(-c5c([H])c([H])c(Oc6c([H])c([H])c(F)c([H])c6F)c([H])c5[H])c(C(=O)N([H])[H])c4N([H])[H])C3([H])[H])c([H])c([H])c2C1([H])[H]

$$$$
32:0:0
     RDKit          3D

 94103  0  0  1  0  0  0  0  0999 V2000
  -29.0710  -22.7590   20.1260 C   0  0  0  0  0  3  0  0  0  0  0  0
  -29.0200  -23.9910   19.5350 C   0  0  0  0  0  0  0  0  0  0  0  0
  -29.8070  -24.1920   18.2930 C   0  0  0  0  0  0  0  0  0  0  0  0
  -30.5380  -22.9740   17.7080 C   0  0  0  0  0  2  0  0  0  0  0  0
  -30.9610  -21.9820   18.8080 C   0  0  0  0  0  2  0  0  0  0  0  0
  -29.8450  -21.6610   19.6990 N   0  0  0  0  0  0  0  0  0  0  0  0
  -29.8600  -25.2640   17.6820 O   0  0  0  0  0  0  0  0  0  0  0  0
  -31.3330  -19.5670   22.3940 C   0  0  0  0  0  3  0  0  0  0  0  0
  -30.9160  -18.2660   22.0470 C   0  0  0  0  0  3  0  0  0  0  0  0
  -30.9430  -20.6740   21.6220 C   0  0  0  0  0  3  0  0  0  0  0  0
  -29.7170  -19.1830   20.1330 C   0  0  0  0  0  3  0  0  0  0  0  0
  -30.0980  -18.0440   20.9190 C   0  0  0  0  0  0  0  0  0  0  0  0
  -30.1310  -20.5100   20.4840 C   0  0  0  0  0  0  0  0  0  0  0  0
  -29.6010  -16.5880   20.6670 C   0  0  0  0  0  2  0  0  0  0  0  0
  -31.1030  -14.5620   20.1980 C   0  0  0  0  0  0  0  0  0  0  0  0
  -30.7350  -12.3490   19.1710 C   0  0  0  0  0  2  0  0  0  0  0  0
  -29.7970  -12.5210   17.9590 C   0  0  0  0  0  2  0  0  0  0  0  0
  -28.3250  -12.4290   18.4020 C   0  0  0  0  0  2  0  0  0  0  0  0
  -28.0040  -13.3190   19.6370 C   0  0  0  0  0  3  0  0  0  0  0  0
  -29.0690  -13.1520   20.7440 C   0  0  0  0  0  2  0  0  0  0  0  0
  -30.3780  -13.4070   20.1330 N   0  0  0  0  0  0  0  0  0  0  0  0
  -32.3180  -14.5470   19.9790 O   0  0  0  0  0  0  0  0  0  0  0  0
  -30.8640  -16.3600   18.5800 C   0  0  0  0  0  1  0  0  0  0  0  0
  -30.4290  -15.6940   19.8150 N   0  0  0  0  0  0  0  0  0  0  0  0
  -25.6410  -13.9980   20.3760 C   0  0  0  0  0  0  0  0  0  0  0  0
  -24.5540  -13.2610   20.7540 C   0  0  0  0  0  0  0  0  0  0  0  0
  -24.9720  -11.8940   20.7280 C   0  0  0  0  0  0  0  0  0  0  0  0
  -26.6540  -13.0830   20.1390 N   0  0  0  0  0  0  0  0  0  0  0  0
  -26.2590  -11.8140   20.4150 N   0  0  0  0  0  0  0  0  0  0  0  0
  -24.2080  -10.6550   20.9200 C   0  0  0  0  0  0  0  0  0  0  0  0
  -24.5910   -9.6970   21.8830 C   0  0  0  0  0  3  0  0  0  0  0  0
  -23.8260   -8.5230   22.0680 C   0  0  0  0  0  3  0  0  0  0  0  0
  -22.6660   -8.3020   21.2880 C   0  0  0  0  0  0  0  0  0  0  0  0
  -22.3030   -9.2510   20.3160 C   0  0  0  0  0  3  0  0  0  0  0  0
  -23.0680  -10.4150   20.1300 C   0  0  0  0  0  3  0  0  0  0  0  0
  -21.8770   -7.1810   21.3800 O   0  0  0  0  0  0  0  0  0  0  0  0
  -21.7460   -6.4870   22.5540 C   0  0  0  0  0  0  0  0  0  0  0  0
  -21.2460   -7.0960   23.7280 C   0  0  0  0  0  3  0  0  0  0  0  0
  -21.0620   -6.3290   24.8970 C   0  0  0  0  0  3  0  0  0  0  0  0
  -21.3660   -4.9540   24.8900 C   0  0  0  0  0  0  0  0  0  0  0  0
  -21.8550   -4.3440   23.7230 C   0  0  0  0  0  3  0  0  0  0  0  0
  -22.0430   -5.1100   22.5560 C   0  0  0  0  0  0  0  0  0  0  0  0
  -22.4920   -4.5140   21.4260 F   0  0  0  0  0  0  0  0  0  0  0  0
  -21.1820   -4.2150   26.0090 F   0  0  0  0  0  0  0  0  0  0  0  0
  -23.1740  -13.7850   21.0280 C   0  0  0  0  0  0  0  0  0  0  0  0
  -22.4300  -13.1220   21.9080 N   0  0  0  0  0  0  0  0  0  0  0  0
  -22.7630  -14.8130   20.4960 O   0  0  0  0  0  0  0  0  0  0  0  0
  -22.7760  -12.2880   22.3570 H   0  0  0  0  0  0  0  0  0  0  0  0
  -21.5040  -13.4540   22.1320 H   0  0  0  0  0  0  0  0  0  0  0  0
  -25.8490  -15.3630   20.1890 N   0  0  0  0  0  0  0  0  0  0  0  0
  -25.1100  -16.0480   20.2970 H   0  0  0  0  0  0  0  0  0  0  0  0
  -26.7090  -15.7620   19.8340 H   0  0  0  0  0  0  0  0  0  0  0  0
  -27.9420  -25.0490   19.8570 C   0  0  0  0  0  2  0  0  0  0  0  0
  -28.2680  -26.4500   20.1810 O   0  0  0  0  0  0  0  0  0  0  0  0
  -24.5840  -31.9080   23.2170 C   0  0  0  0  0  0  0  0  0  0  0  0
  -27.1580  -27.3130   20.1780 C   0  0  0  0  0  0  0  0  0  0  0  0
  -23.3730  -30.4920   21.6070 C   0  0  0  0  0  3  0  0  0  0  0  0
  -24.8090  -28.9380   20.1990 C   0  0  0  0  0  0  0  0  0  0  0  0
  -25.9190  -30.7970   21.4150 C   0  0  0  0  0  2  0  0  0  0  0  0
  -25.9910  -29.4180   20.7780 C   0  0  0  0  0  0  0  0  0  0  0  0
  -27.1740  -28.6180   20.7600 C   0  0  0  0  0  3  0  0  0  0  0  0
  -25.9300  -26.8900   19.6000 C   0  0  0  0  0  3  0  0  0  0  0  0
  -24.7780  -27.6760   19.6100 C   0  0  0  0  0  3  0  0  0  0  0  0
  -23.5810  -29.8180   20.2320 C   0  0  0  0  0  2  0  0  0  0  0  0
  -24.6460  -31.0800   22.1350 N   0  0  0  0  0  0  0  0  0  0  0  0
  -23.5020  -32.1950   23.7470 O   0  0  0  0  0  0  0  0  0  0  0  0
  -22.7180  -29.4780   22.5750 C   0  0  0  0  0  0  0  0  0  0  0  0
  -21.3990  -29.2600   22.4220 N   0  0  0  0  0  0  0  0  0  0  0  0
  -23.3920  -28.8900   23.4250 O   0  0  0  0  0  0  0  0  0  0  0  0
  -20.9130  -29.7860   21.7100 H   0  0  0  0  0  0  0  0  0  0  0  0
  -18.0490  -27.9650   22.8460 C   0  0  0  0  0  0  0  0  0  0  0  0
  -20.5830  -28.3310   23.2060 C   0  0  0  0  0  3  0  0  0  0  0  0
  -20.7590  -26.8780   22.7100 C   0  0  0  0  0  2  0  0  0  0  0  0
  -19.7130  -26.4630   21.6700 C   0  0  0  0  0  2  0  0  0  0  0  0
  -18.3010  -26.5900   22.2480 C   0  0  0  0  0  2  0  0  0  0  0  0
  -19.1200  -28.7880   23.2820 C   0  0  0  0  0  0  0  0  0  0  0  0
  -18.8330  -30.0700   23.7990 C   0  0  0  0  0  3  0  0  0  0  0  0
  -17.5060  -30.5300   23.8850 C   0  0  0  0  0  3  0  0  0  0  0  0
  -16.4470  -29.7050   23.4660 C   0  0  0  0  0  3  0  0  0  0  0  0
  -16.7190  -28.4250   22.9530 C   0  0  0  0  0  3  0  0  0  0  0  0
  -25.8700  -32.5490   23.8200 C   0  0  0  0  0  3  0  0  0  0  0  0
  -26.4070  -31.7800   25.0900 C   0  0  1  0  0  0  0  0  0  0  0  0
  -25.3270  -31.5310   26.1680 C   0  0  0  0  0  1  0  0  0  0  0  0
  -27.0000  -30.4090   24.6940 C   0  0  0  0  0  1  0  0  0  0  0  0
  -27.5560  -32.5870   25.7410 C   0  0  0  0  0  1  0  0  0  0  0  0
  -25.5510  -33.9440   24.1540 N   0  0  0  0  0  0  0  0  0  0  0  0
  -25.8770  -35.0010   23.3970 C   0  0  0  0  0  0  0  0  0  0  0  0
  -26.5470  -34.9040   22.3660 O   0  0  0  0  0  0  0  0  0  0  0  0
  -24.9590  -34.0950   24.9560 H   0  0  0  0  0  0  0  0  0  0  0  0
  -24.1490  -36.7900   23.0260 C   0  0  0  0  0  1  0  0  0  0  0  0
  -25.3770  -36.3840   23.8560 C   0  0  0  0  0  3  0  0  0  0  0  0
  -27.4970  -37.2650   24.7280 C   0  0  0  0  0  1  0  0  0  0  0  0
  -26.4060  -37.4420   23.7720 N   0  0  0  0  0  0  0  0  0  0  0  0
  -25.9960  -38.3570   23.9300 H   0  0  0  0  0  0  0  0  0  0  0  0
  2 53  1  0
  2  1  2  0
  3  2  1  0
  4  3  1  0
  4  5  1  0
  5  6  1  0
  6  1  1  0
  6 13  1  0
  7  3  2  0
  9  8  1  0
 10  8  2  0
 11 13  2  0
 11 12  1  0
 12  9  2  0
 13 10  1  0
 14 12  1  0
 16 21  1  0
 17 18  1  0
 17 16  1  0
 19 18  1  0
 19 28  1  0
 19 20  1  0
 21 15  1  0
 21 20  1  0
 22 15  2  0
 23 24  1  0
 24 15  1  0
 24 14  1  0
 25 26  2  0
 26 45  1  0
 27 26  1  0
 27 30  1  0
 28 25  1  0
 28 29  1  0
 29 27  2  0
 30 31  1  0
 31 32  2  0
 33 36  1  0
 33 32  1  0
 34 33  2  0
 35 34  1  0
 35 30  2  0
 36 37  1  0
 37 42  2  0
 37 38  1  0
 38 39  2  0
 40 39  1  0
 40 44  1  0
 41 40  2  0
 42 41  1  0
 43 42  1  0
 45 46  1  0
 46 49  1  0
 46 48  1  0
 47 45  2  0
 50 51  1  0
 50 25  1  0
 52 50  1  0
 53 54  1  0
 55 66  2  0
 56 54  1  0
 56 61  1  0
 57 65  1  0
 57 67  1  0
 58 64  1  0
 58 60  1  0
 59 65  1  0
 60 59  1  0
 61 60  2  0
 62 63  1  0
 62 56  2  0
 63 58  2  0
 64 57  1  0
 65 55  1  0
 67 69  2  0
 68 67  1  0
 70 68  1  0
 71 80  2  0
 71 76  1  0
 72 68  1  0
 72 76  1  0
 73 72  1  0
 74 75  1  0
 74 73  1  0
 75 71  1  0
 76 77  2  0
 77 78  1  0
 79 78  2  0
 80 79  1  0
 81 55  1  0
 81 86  1  0
 81 82  1  0
 82 85  1  1
 82 83  1  0
 84 82  1  0
 86 89  1  0
 87 91  1  0
 87 86  1  0
 88 87  2  0
 91 90  1  0
 93 91  1  0
 93 94  1  0
 93 92  1  0
M  ISO  4  15 100  24 100  53 101  54 101
M  END
>  <TORSDO>  (32) 
F 19

>  <SCORE>  (32) 
-14.308

>  <name>  (32) 
32

>  <ligand_id>  (32) 
32

>  <original_smiles>  (32) 
[H]C1=C(C([H])([H])Oc2c([H])c([H])c3c(c2[H])C([H])([H])N(C(=O)C([H])(N([H])C(=O)C([H])(N([H])C([H])([H])[H])C([H])([H])[H])C(C([H])([H])[H])(C([H])([H])[H])C([H])([H])[H])C([H])(C(=O)N([H])C2([H])c4c([H])c([H])c([H])c([H])c4C([H])([H])C([H])([H])C2([H])[H])C3([H])[H])C(=O)C([H])([H])C([H])([H])N1c1c([H])c([H])c([H])c(C([H])([H])N(C(=O)N2C([H])([H])C([H])([H])C([H])([H])C([H])(n3nc(-c4c([H])c([H])c(Oc5c([H])c([H])c(F)c([H])c5F)c([H])c4[H])c(C(=O)N([H])[H])c3N([H])[H])C2([H])[H])C([H])([H])[H])c1[H]

>  <smiles>  (32) 
[H]C1=C(C([H])([H])Oc2c([H])c([H])c3c(c2[H])C([H])([H])N(C(=O)C([H])(N([H])C(=O)C([H])(N([H])C([H])([H])[H])C([H])([H])[H])C(C([H])([H])[H])(C([H])([H])[H])C([H])([H])[H])C([H])(C(=O)N([H])C2([H])c4c([H])c([H])c([H])c([H])c4C([H])([H])C([H])([H])C2([H])[H])C3([H])[H])C(=O)C([H])([H])C([H])([H])N1c1c([H])c([H])c([H])c(C([H])([H])N(C(=O)N2C([H])([H])C([H])([H])C([H])([H])C([H])(n3nc(-c4c([H])c([H])c(Oc5c([H])c([H])c(F)c([H])c5F)c([H])c4[H])c(C(=O)N([H])[H])c3N([H])[H])C2([H])[H])C([H])([H])[H])c1[H]

$$$$
33:0:0
     RDKit          3D

 96105  0  0  1  0  0  0  0  0999 V2000
  -31.8600  -22.7500   20.0760 C   0  0  0  0  0  0  0  0  0  0  0  0
  -32.0970  -24.2680   20.1080 C   0  0  0  0  0  2  0  0  0  0  0  0
  -30.8790  -25.1130   19.7160 C   0  0  0  0  0  2  0  0  0  0  0  0
  -29.4170  -23.1310   20.0450 C   0  0  0  0  0  2  0  0  0  0  0  0
  -29.5960  -24.6210   20.4010 C   0  0  1  0  0  0  0  0  0  0  0  0
  -29.6640  -24.7830   21.9360 C   0  0  0  0  0  1  0  0  0  0  0  0
  -30.5950  -22.2490   20.2120 N   0  0  0  0  0  0  0  0  0  0  0  0
  -32.8650  -22.0450   19.9430 O   0  0  0  0  0  0  0  0  0  0  0  0
  -30.9590  -18.4960   20.7240 C   0  0  0  0  0  3  0  0  0  0  0  0
  -31.1670  -19.8870   20.8770 C   0  0  0  0  0  3  0  0  0  0  0  0
  -29.2180  -20.3250   19.4970 C   0  0  0  0  0  3  0  0  0  0  0  0
  -29.9020  -18.0190   19.9190 C   0  0  0  0  0  0  0  0  0  0  0  0
  -30.3350  -20.8260   20.2090 C   0  0  0  0  0  0  0  0  0  0  0  0
  -29.0080  -18.9460   19.3460 C   0  0  0  0  0  0  0  0  0  0  0  0
  -27.9630  -18.5250   18.5940 F   0  0  0  0  0  0  0  0  0  0  0  0
  -29.7980  -16.5530   19.5160 C   0  0  0  0  0  2  0  0  0  0  0  0
  -30.6370  -14.4690   20.4520 C   0  0  0  0  0  0  0  0  0  0  0  0
  -30.3600  -12.2840   19.3880 C   0  0  0  0  0  2  0  0  0  0  0  0
  -29.4490  -12.4990   18.1580 C   0  0  0  0  0  2  0  0  0  0  0  0
  -27.9620  -12.3900   18.5570 C   0  0  0  0  0  2  0  0  0  0  0  0
  -27.6050  -13.2420   19.8040 C   0  0  0  0  0  3  0  0  0  0  0  0
  -28.6370  -13.0230   20.9390 C   0  0  0  0  0  2  0  0  0  0  0  0
  -29.9800  -13.2840   20.3950 N   0  0  0  0  0  0  0  0  0  0  0  0
  -31.8070  -14.6200   20.0880 O   0  0  0  0  0  0  0  0  0  0  0  0
  -29.8230  -15.5290   20.5670 N   0  0  0  0  0  0  0  0  0  0  0  0
  -28.9130  -15.3040   20.9420 H   0  0  0  0  0  0  0  0  0  0  0  0
  -25.1930  -13.8790   20.4460 C   0  0  0  0  0  0  0  0  0  0  0  0
  -24.1110  -13.1190   20.8030 C   0  0  0  0  0  0  0  0  0  0  0  0
  -24.5650  -11.7660   20.8090 C   0  0  0  0  0  0  0  0  0  0  0  0
  -26.2390  -12.9870   20.2560 N   0  0  0  0  0  0  0  0  0  0  0  0
  -25.8630  -11.7140   20.5340 N   0  0  0  0  0  0  0  0  0  0  0  0
  -23.8280  -10.5100   21.0060 C   0  0  0  0  0  0  0  0  0  0  0  0
  -24.2450   -9.5510   21.9540 C   0  0  0  0  0  3  0  0  0  0  0  0
  -23.5090   -8.3600   22.1380 C   0  0  0  0  0  3  0  0  0  0  0  0
  -22.3420   -8.1220   21.3730 C   0  0  0  0  0  0  0  0  0  0  0  0
  -21.9450   -9.0710   20.4160 C   0  0  0  0  0  3  0  0  0  0  0  0
  -22.6810  -10.2520   20.2300 C   0  0  0  0  0  3  0  0  0  0  0  0
  -21.5780   -6.9830   21.4680 O   0  0  0  0  0  0  0  0  0  0  0  0
  -21.5240   -6.2470   22.6240 C   0  0  0  0  0  0  0  0  0  0  0  0
  -21.1130   -6.8130   23.8490 C   0  0  0  0  0  3  0  0  0  0  0  0
  -21.0060   -6.0010   24.9980 C   0  0  0  0  0  3  0  0  0  0  0  0
  -21.2990   -4.6280   24.9210 C   0  0  0  0  0  0  0  0  0  0  0  0
  -21.7040   -4.0620   23.7000 C   0  0  0  0  0  3  0  0  0  0  0  0
  -21.8140   -4.8680   22.5540 C   0  0  0  0  0  0  0  0  0  0  0  0
  -22.1840   -4.3150   21.3730 F   0  0  0  0  0  0  0  0  0  0  0  0
  -21.1890   -3.8470   26.0210 F   0  0  0  0  0  0  0  0  0  0  0  0
  -22.7100  -13.6090   21.0310 C   0  0  0  0  0  0  0  0  0  0  0  0
  -21.9590  -12.9340   21.8950 N   0  0  0  0  0  0  0  0  0  0  0  0
  -22.2890  -14.6260   20.4810 O   0  0  0  0  0  0  0  0  0  0  0  0
  -22.3100  -12.1120   22.3640 H   0  0  0  0  0  0  0  0  0  0  0  0
  -21.0170  -13.2440   22.0920 H   0  0  0  0  0  0  0  0  0  0  0  0
  -25.3680  -15.2440   20.2460 N   0  0  0  0  0  0  0  0  0  0  0  0
  -24.5990  -15.8980   20.3410 H   0  0  0  0  0  0  0  0  0  0  0  0
  -26.2180  -15.6820   19.9170 H   0  0  0  0  0  0  0  0  0  0  0  0
  -28.3630  -25.3810   19.8560 C   0  0  0  0  0  2  0  0  0  0  0  0
  -28.4060  -26.7740   20.1560 O   0  0  0  0  0  0  0  0  0  0  0  0
  -24.5930  -31.8880   23.2570 C   0  0  0  0  0  0  0  0  0  0  0  0
  -27.2120  -27.4650   20.1410 C   0  0  0  0  0  0  0  0  0  0  0  0
  -23.3710  -30.4950   21.6200 C   0  0  0  0  0  3  0  0  0  0  0  0
  -24.8110  -28.9600   20.1820 C   0  0  0  0  0  0  0  0  0  0  0  0
  -25.8950  -30.8540   21.4020 C   0  0  0  0  0  2  0  0  0  0  0  0
  -25.9730  -29.4840   20.7590 C   0  0  0  0  0  0  0  0  0  0  0  0
  -27.1750  -28.7450   20.7350 C   0  0  0  0  0  3  0  0  0  0  0  0
  -26.0290  -26.9520   19.5560 C   0  0  0  0  0  3  0  0  0  0  0  0
  -24.8320  -27.6920   19.5780 C   0  0  0  0  0  3  0  0  0  0  0  0
  -23.5680  -29.8200   20.2370 C   0  0  0  0  0  2  0  0  0  0  0  0
  -24.6400  -31.0920   22.1520 N   0  0  0  0  0  0  0  0  0  0  0  0
  -23.5160  -32.1640   23.8030 O   0  0  0  0  0  0  0  0  0  0  0  0
  -22.7240  -29.4720   22.5820 C   0  0  0  0  0  0  0  0  0  0  0  0
  -21.3990  -29.2920   22.4580 N   0  0  0  0  0  0  0  0  0  0  0  0
  -23.4100  -28.8430   23.3900 O   0  0  0  0  0  0  0  0  0  0  0  0
  -20.9060  -29.8510   21.7750 H   0  0  0  0  0  0  0  0  0  0  0  0
  -18.0250  -28.1000   22.9610 C   0  0  0  0  0  0  0  0  0  0  0  0
  -20.5830  -28.3560   23.2320 C   0  0  0  0  0  3  0  0  0  0  0  0
  -20.6840  -26.9240   22.6580 C   0  0  0  0  0  2  0  0  0  0  0  0
  -19.5820  -26.6000   21.6450 C   0  0  0  0  0  2  0  0  0  0  0  0
  -18.2010  -26.7480   22.2890 C   0  0  0  0  0  2  0  0  0  0  0  0
  -19.1440  -28.8620   23.3890 C   0  0  0  0  0  0  0  0  0  0  0  0
  -18.9280  -30.1270   23.9770 C   0  0  0  0  0  3  0  0  0  0  0  0
  -17.6230  -30.6310   24.1390 C   0  0  0  0  0  3  0  0  0  0  0  0
  -16.5180  -29.8660   23.7270 C   0  0  0  0  0  3  0  0  0  0  0  0
  -16.7190  -28.6020   23.1440 C   0  0  0  0  0  3  0  0  0  0  0  0
  -25.8860  -32.5130   23.8700 C   0  0  0  0  0  3  0  0  0  0  0  0
  -26.4120  -31.7330   25.1350 C   0  0  1  0  0  0  0  0  0  0  0  0
  -25.3290  -31.4930   26.2120 C   0  0  0  0  0  1  0  0  0  0  0  0
  -26.9860  -30.3580   24.7250 C   0  0  0  0  0  1  0  0  0  0  0  0
  -27.5740  -32.5200   25.7870 C   0  0  0  0  0  1  0  0  0  0  0  0
  -25.5830  -33.9110   24.2060 N   0  0  0  0  0  0  0  0  0  0  0  0
  -25.9080  -34.9640   23.4430 C   0  0  0  0  0  0  0  0  0  0  0  0
  -26.5640  -34.8590   22.4020 O   0  0  0  0  0  0  0  0  0  0  0  0
  -24.9970  -34.0660   25.0140 H   0  0  0  0  0  0  0  0  0  0  0  0
  -24.1730  -36.7530   23.1180 C   0  0  0  0  0  1  0  0  0  0  0  0
  -25.4290  -36.3520   23.9070 C   0  0  0  0  0  3  0  0  0  0  0  0
  -27.5810  -37.2330   24.6950 C   0  0  0  0  0  1  0  0  0  0  0  0
  -26.4590  -37.4050   23.7740 N   0  0  0  0  0  0  0  0  0  0  0  0
  -26.0580  -38.3250   23.9330 H   0  0  0  0  0  0  0  0  0  0  0  0
  1  2  1  0
  1  7  1  0
  3  2  1  0
  3  5  1  0
  4  7  1  0
  4  5  1  0
  5  6  1  1
  8  1  2  0
  9 10  1  0
 11 13  1  0
 12  9  2  0
 13  7  1  0
 13 10  2  0
 14 11  2  0
 14 12  1  0
 15 14  1  0
 16 12  1  0
 16 25  1  0
 17 25  1  0
 18 23  1  0
 19 20  1  0
 19 18  1  0
 21 20  1  0
 21 30  1  0
 21 22  1  0
 23 17  1  0
 23 22  1  0
 24 17  2  0
 25 26  1  0
 27 28  2  0
 28 29  1  0
 28 47  1  0
 29 32  1  0
 30 27  1  0
 30 31  1  0
 31 29  2  0
 32 33  1  0
 33 34  2  0
 35 38  1  0
 35 34  1  0
 36 35  2  0
 37 36  1  0
 37 32  2  0
 38 39  1  0
 39 40  1  0
 40 41  2  0
 42 41  1  0
 42 46  1  0
 43 42  2  0
 44 39  2  0
 44 43  1  0
 45 44  1  0
 47 48  1  0
 48 51  1  0
 48 50  1  0
 49 47  2  0
 52 53  1  0
 52 27  1  0
 54 52  1  0
 55 56  1  0
 55  5  1  0
 57 68  2  0
 58 56  1  0
 58 63  1  0
 59 67  1  0
 59 69  1  0
 60 66  1  0
 60 62  1  0
 61 67  1  0
 62 61  1  0
 63 62  2  0
 64 65  1  0
 64 58  2  0
 65 60  2  0
 66 59  1  0
 67 57  1  0
 69 71  2  0
 70 69  1  0
 72 70  1  0
 73 82  2  0
 73 78  1  0
 74 70  1  0
 74 78  1  0
 75 74  1  0
 76 77  1  0
 76 75  1  0
 77 73  1  0
 78 79  2  0
 79 80  1  0
 81 80  2  0
 82 81  1  0
 83 57  1  0
 83 88  1  0
 83 84  1  0
 84 87  1  1
 84 85  1  0
 86 84  1  0
 88 91  1  0
 89 93  1  0
 89 88  1  0
 90 89  2  0
 93 92  1  0
 95 93  1  0
 95 96  1  0
 95 94  1  0
M  ISO  4  17 100  25 100  55 101  56 101
M  END
>  <TORSDO>  (33) 
F 19

>  <SCORE>  (33) 
-14.461

>  <name>  (33) 
33

>  <ligand_id>  (33) 
33

>  <original_smiles>  (33) 
[H]c1c([H])c([H])c2c(c1[H])C([H])([H])C([H])([H])C([H])([H])C2([H])N([H])C(=O)C1([H])N(C(=O)C([H])(N([H])C(=O)C([H])(N([H])C([H])([H])[H])C([H])([H])[H])C(C([H])([H])[H])(C([H])([H])[H])C([H])([H])[H])C([H])([H])c2c([H])c(OC([H])([H])C3(C([H])([H])[H])C([H])([H])N(c4c([H])c([H])c(C([H])([H])N([H])C(=O)N5C([H])([H])C([H])([H])C([H])([H])C([H])(n6nc(-c7c([H])c([H])c(Oc8c([H])c([H])c(F)c([H])c8F)c([H])c7[H])c(C(=O)N([H])[H])c6N([H])[H])C5([H])[H])c(F)c4[H])C(=O)C([H])([H])C3([H])[H])c([H])c([H])c2C1([H])[H]

>  <smiles>  (33) 
[H]c1c([H])c([H])c2c(c1[H])C([H])([H])C([H])([H])C([H])([H])C2([H])N([H])C(=O)C1([H])N(C(=O)C([H])(N([H])C(=O)C([H])(N([H])C([H])([H])[H])C([H])([H])[H])C(C([H])([H])[H])(C([H])([H])[H])C([H])([H])[H])C([H])([H])c2c([H])c(OC([H])([H])C3(C([H])([H])[H])C([H])([H])N(c4c([H])c([H])c(C([H])([H])N([H])C(=O)N5C([H])([H])C([H])([H])C([H])([H])C([H])(n6nc(-c7c([H])c([H])c(Oc8c([H])c([H])c(F)c([H])c8F)c([H])c7[H])c(C(=O)N([H])[H])c6N([H])[H])C5([H])[H])c(F)c4[H])C(=O)C([H])([H])C3([H])[H])c([H])c([H])c2C1([H])[H]

$$$$
34:0:0
     RDKit          3D

 93102  0  0  1  0  0  0  0  0999 V2000
  -28.8730  -22.3020   21.8930 C   0  0  0  0  0  0  0  0  0  0  0  0
  -29.4350  -23.5810   22.4970 C   0  0  0  0  0  2  0  0  0  0  0  0
  -30.2300  -24.1670   21.3360 C   0  0  0  0  0  2  0  0  0  0  0  0
  -29.4560  -23.6650   20.1160 C   0  0  0  0  0  3  0  0  0  0  0  0
  -29.1190  -22.1950   20.5710 N   0  0  0  0  0  0  0  0  0  0  0  0
  -28.2920  -21.4630   22.5900 O   0  0  0  0  0  0  0  0  0  0  0  0
  -30.8280  -20.1930   20.7150 C   0  0  0  0  0  3  0  0  0  0  0  0
  -31.1020  -18.7630   20.7120 C   0  0  0  0  0  3  0  0  0  0  0  0
  -28.8050  -19.8060   19.5740 C   0  0  0  0  0  3  0  0  0  0  0  0
  -29.0850  -18.3800   19.5530 C   0  0  0  0  0  0  0  0  0  0  0  0
  -29.6300  -20.7980   20.1940 C   0  0  0  0  0  0  0  0  0  0  0  0
  -30.2310  -17.7550   20.1680 C   0  0  0  0  0  0  0  0  0  0  0  0
  -28.0200  -17.5210   18.9210 C   0  0  0  0  0  1  0  0  0  0  0  0
  -30.9080  -15.1120   19.9430 C   0  0  0  0  0  0  0  0  0  0  0  0
  -30.6560  -12.7940   18.9150 C   0  0  0  0  0  2  0  0  0  0  0  0
  -29.6250  -12.7970   17.7610 C   0  0  0  0  0  2  0  0  0  0  0  0
  -28.1980  -12.5720   18.2940 C   0  0  0  0  0  2  0  0  0  0  0  0
  -27.8960  -13.4550   19.5290 C   0  0  0  0  0  3  0  0  0  0  0  0
  -29.0390  -13.4090   20.5640 C   0  0  0  0  0  2  0  0  0  0  0  0
  -30.2760  -13.8590   19.8940 N   0  0  0  0  0  0  0  0  0  0  0  0
  -32.0120  -15.1990   19.3880 O   0  0  0  0  0  0  0  0  0  0  0  0
  -30.0570  -16.1080   21.9860 C   0  0  0  0  0  1  0  0  0  0  0  0
  -30.3030  -16.2620   20.5440 N   0  0  0  0  0  0  0  0  0  0  0  0
  -25.6010  -14.0390   20.5090 C   0  0  0  0  0  0  0  0  0  0  0  0
  -24.5540  -13.2700   20.9290 C   0  0  0  0  0  0  0  0  0  0  0  0
  -24.9790  -11.9150   20.7770 C   0  0  0  0  0  0  0  0  0  0  0  0
  -26.5980  -13.1580   20.1240 N   0  0  0  0  0  0  0  0  0  0  0  0
  -26.2350  -11.8680   20.3460 N   0  0  0  0  0  0  0  0  0  0  0  0
  -24.2400  -10.6620   20.9590 C   0  0  0  0  0  0  0  0  0  0  0  0
  -24.6570   -9.6860   21.8900 C   0  0  0  0  0  3  0  0  0  0  0  0
  -23.9160   -8.4960   22.0570 C   0  0  0  0  0  3  0  0  0  0  0  0
  -22.7440   -8.2770   21.2960 C   0  0  0  0  0  0  0  0  0  0  0  0
  -22.3460   -9.2420   20.3540 C   0  0  0  0  0  3  0  0  0  0  0  0
  -23.0880  -10.4230   20.1840 C   0  0  0  0  0  3  0  0  0  0  0  0
  -21.9750   -7.1410   21.3720 O   0  0  0  0  0  0  0  0  0  0  0  0
  -21.8170   -6.4600   22.5520 C   0  0  0  0  0  0  0  0  0  0  0  0
  -21.2700   -7.0760   23.6990 C   0  0  0  0  0  3  0  0  0  0  0  0
  -21.0620   -6.3230   24.8710 C   0  0  0  0  0  3  0  0  0  0  0  0
  -21.3870   -4.9530   24.8950 C   0  0  0  0  0  0  0  0  0  0  0  0
  -21.9280   -4.3370   23.7520 C   0  0  0  0  0  3  0  0  0  0  0  0
  -22.1400   -5.0910   22.5840 C   0  0  0  0  0  0  0  0  0  0  0  0
  -22.6420   -4.4870   21.4810 F   0  0  0  0  0  0  0  0  0  0  0  0
  -21.1790   -4.2270   26.0190 F   0  0  0  0  0  0  0  0  0  0  0  0
  -23.2030  -13.7660   21.3510 C   0  0  0  0  0  0  0  0  0  0  0  0
  -22.5430  -13.0510   22.2540 N   0  0  0  0  0  0  0  0  0  0  0  0
  -22.7430  -14.8220   20.9160 O   0  0  0  0  0  0  0  0  0  0  0  0
  -22.9270  -12.1970   22.6250 H   0  0  0  0  0  0  0  0  0  0  0  0
  -21.6410  -13.3680   22.5800 H   0  0  0  0  0  0  0  0  0  0  0  0
  -25.7720  -15.4110   20.3990 N   0  0  0  0  0  0  0  0  0  0  0  0
  -25.0200  -16.0610   20.6000 H   0  0  0  0  0  0  0  0  0  0  0  0
  -26.5990  -15.8530   20.0250 H   0  0  0  0  0  0  0  0  0  0  0  0
  -28.2580  -24.8250   19.8900 C   0  0  0  0  0  2  0  0  0  0  0  0
  -28.4420  -26.3620   19.9590 O   0  0  0  0  0  0  0  0  0  0  0  0
  -24.5920  -31.7450   23.1650 C   0  0  0  0  0  0  0  0  0  0  0  0
  -27.3260  -27.2680   19.9470 C   0  0  0  0  0  0  0  0  0  0  0  0
  -23.4310  -30.3770   21.4730 C   0  0  0  0  0  3  0  0  0  0  0  0
  -24.9270  -28.9040   19.9910 C   0  0  0  0  0  0  0  0  0  0  0  0
  -25.9720  -30.7390   21.3120 C   0  0  0  0  0  2  0  0  0  0  0  0
  -26.0900  -29.3780   20.6100 C   0  0  0  0  0  0  0  0  0  0  0  0
  -27.2900  -28.5770   20.5690 C   0  0  0  0  0  3  0  0  0  0  0  0
  -26.1280  -26.8820   19.3050 C   0  0  0  0  0  3  0  0  0  0  0  0
  -24.9550  -27.6690   19.3260 C   0  0  0  0  0  3  0  0  0  0  0  0
  -23.6700  -29.7570   20.0700 C   0  0  0  0  0  2  0  0  0  0  0  0
  -24.6840  -30.9730   22.0390 N   0  0  0  0  0  0  0  0  0  0  0  0
  -23.5000  -31.9750   23.7060 O   0  0  0  0  0  0  0  0  0  0  0  0
  -22.7860  -29.3140   22.3970 C   0  0  0  0  0  0  0  0  0  0  0  0
  -21.4670  -29.0930   22.2490 N   0  0  0  0  0  0  0  0  0  0  0  0
  -23.4750  -28.6900   23.2080 O   0  0  0  0  0  0  0  0  0  0  0  0
  -20.9660  -29.6500   21.5720 H   0  0  0  0  0  0  0  0  0  0  0  0
  -18.1340  -27.7450   22.6800 C   0  0  0  0  0  0  0  0  0  0  0  0
  -20.6760  -28.1010   22.9840 C   0  0  0  0  0  3  0  0  0  0  0  0
  -20.8430  -26.6930   22.3680 C   0  0  0  0  0  2  0  0  0  0  0  0
  -19.7650  -26.3570   21.3320 C   0  0  0  0  0  2  0  0  0  0  0  0
  -18.3710  -26.4260   21.9630 C   0  0  0  0  0  2  0  0  0  0  0  0
  -19.2160  -28.5380   23.1440 C   0  0  0  0  0  0  0  0  0  0  0  0
  -18.9390  -29.7700   23.7750 C   0  0  0  0  0  3  0  0  0  0  0  0
  -17.6130  -30.2120   23.9440 C   0  0  0  0  0  3  0  0  0  0  0  0
  -16.5450  -29.4170   23.4950 C   0  0  0  0  0  3  0  0  0  0  0  0
  -16.8060  -28.1850   22.8690 C   0  0  0  0  0  3  0  0  0  0  0  0
  -25.8530  -32.3940   23.8130 C   0  0  0  0  0  3  0  0  0  0  0  0
  -25.5170  -33.7870   24.1520 N   0  0  0  0  0  0  0  0  0  0  0  0
  -25.8360  -34.8520   23.4040 C   0  0  0  0  0  0  0  0  0  0  0  0
  -26.5110  -34.7670   22.3750 O   0  0  0  0  0  0  0  0  0  0  0  0
  -24.9180  -33.9250   24.9520 H   0  0  0  0  0  0  0  0  0  0  0  0
  -24.0770  -36.6190   23.0680 C   0  0  0  0  0  1  0  0  0  0  0  0
  -25.3280  -36.2310   23.8720 C   0  0  0  0  0  3  0  0  0  0  0  0
  -27.4460  -37.1530   24.7050 C   0  0  0  0  0  1  0  0  0  0  0  0
  -26.3410  -37.3030   23.7610 N   0  0  0  0  0  0  0  0  0  0  0  0
  -25.9190  -38.2140   23.9110 H   0  0  0  0  0  0  0  0  0  0  0  0
  -26.3550  -31.6230   25.0960 C   0  0  1  0  0  0  0  0  0  0  0  0
  -25.2420  -31.3480   26.1340 C   0  0  0  0  0  1  0  0  0  0  0  0
  -26.9820  -30.2640   24.7100 C   0  0  0  0  0  1  0  0  0  0  0  0
  -27.4680  -32.4400   25.7950 C   0  0  0  0  0  1  0  0  0  0  0  0
  1  2  1  0
  1  6  2  0
  3  2  1  0
  4 52  1  0
  4  5  1  0
  4  3  1  0
  5  1  1  0
  8  7  1  0
  9 11  1  0
 10  9  2  0
 10 12  1  0
 11  5  1  0
 11  7  2  0
 12 23  1  0
 12  8  2  0
 13 10  1  0
 14 23  1  0
 15 20  1  0
 16 17  1  0
 16 15  1  0
 18 17  1  0
 18 27  1  0
 18 19  1  0
 20 14  1  0
 20 19  1  0
 21 14  2  0
 23 22  1  0
 24 25  2  0
 25 44  1  0
 26 25  1  0
 26 29  1  0
 27 28  1  0
 27 24  1  0
 28 26  2  0
 29 30  1  0
 30 31  2  0
 32 35  1  0
 32 31  1  0
 33 32  2  0
 34 33  1  0
 34 29  2  0
 35 36  1  0
 36 41  2  0
 36 37  1  0
 37 38  2  0
 38 39  1  0
 39 43  1  0
 40 39  2  0
 41 40  1  0
 42 41  1  0
 44 45  1  0
 45 48  1  0
 45 47  1  0
 46 44  2  0
 49 24  1  0
 49 50  1  0
 51 49  1  0
 52 53  1  0
 54 65  2  0
 55 53  1  0
 55 60  1  0
 56 64  1  0
 56 66  1  0
 57 63  1  0
 57 59  1  0
 58 64  1  0
 59 58  1  0
 60 59  2  0
 61 62  1  0
 61 55  2  0
 62 57  2  0
 63 56  1  0
 64 54  1  0
 66 68  2  0
 67 66  1  0
 69 67  1  0
 70 79  2  0
 70 75  1  0
 71 67  1  0
 71 75  1  0
 72 71  1  0
 73 74  1  0
 73 72  1  0
 74 70  1  0
 75 76  2  0
 76 77  1  0
 78 77  2  0
 79 78  1  0
 80 54  1  0
 80 81  1  0
 80 90  1  0
 81 84  1  0
 82 86  1  0
 82 81  1  0
 83 82  2  0
 86 85  1  0
 88 86  1  0
 88 89  1  0
 88 87  1  0
 90 93  1  1
 90 91  1  0
 92 90  1  0
M  ISO  4  14 100  23 100  52 101  53 101
M  END
>  <TORSDO>  (34) 
F 18

>  <SCORE>  (34) 
-13.773

>  <name>  (34) 
34

>  <ligand_id>  (34) 
34

>  <original_smiles>  (34) 
[H]c1c([H])c([H])c2c(c1[H])C([H])([H])C([H])([H])C([H])([H])C2([H])N([H])C(=O)C1([H])N(C(=O)C([H])(N([H])C(=O)C([H])(N([H])C([H])([H])[H])C([H])([H])[H])C(C([H])([H])[H])(C([H])([H])[H])C([H])([H])[H])C([H])([H])c2c([H])c(OC([H])([H])C3([H])N(c4c([H])c([H])c(N(C(=O)N5C([H])([H])C([H])([H])C([H])([H])C([H])(n6nc(-c7c([H])c([H])c(Oc8c([H])c([H])c(F)c([H])c8F)c([H])c7[H])c(C(=O)N([H])[H])c6N([H])[H])C5([H])[H])C([H])([H])[H])c(C([H])([H])[H])c4[H])C(=O)C([H])([H])C3([H])[H])c([H])c([H])c2C1([H])[H]

>  <smiles>  (34) 
[H]c1c([H])c([H])c2c(c1[H])C([H])([H])C([H])([H])C([H])([H])C2([H])N([H])C(=O)C1([H])N(C(=O)C([H])(N([H])C(=O)C([H])(N([H])C([H])([H])[H])C([H])([H])[H])C(C([H])([H])[H])(C([H])([H])[H])C([H])([H])[H])C([H])([H])c2c([H])c(OC([H])([H])C3([H])N(c4c([H])c([H])c(N(C(=O)N5C([H])([H])C([H])([H])C([H])([H])C([H])(n6nc(-c7c([H])c([H])c(Oc8c([H])c([H])c(F)c([H])c8F)c([H])c7[H])c(C(=O)N([H])[H])c6N([H])[H])C5([H])[H])C([H])([H])[H])c(C([H])([H])[H])c4[H])C(=O)C([H])([H])C3([H])[H])c([H])c([H])c2C1([H])[H]

$$$$
35:0:0
     RDKit          3D

 99107  0  0  1  0  0  0  0  0999 V2000
  -31.4870  -21.6460   21.9350 C   0  0  0  0  0  2  0  0  0  0  0  0
  -30.0660  -23.6560   21.4020 C   0  0  0  0  0  0  0  0  0  0  0  0
  -30.7940  -22.5870   21.0410 N   0  0  0  0  0  0  0  0  0  0  0  0
  -29.7790  -23.8800   22.5800 O   0  0  0  0  0  0  0  0  0  0  0  0
  -30.9470  -22.4920   20.0440 H   0  0  0  0  0  0  0  0  0  0  0  0
  -28.9440  -25.6110   20.4550 C   0  0  0  0  0  3  0  0  0  0  0  0
  -29.7050  -24.5130   20.2660 C   0  0  0  0  0  0  0  0  0  0  0  0
  -30.1390  -24.2180   19.0300 O   0  0  0  0  0  0  0  0  0  0  0  0
  -29.8340  -24.9160   18.4640 H   0  0  0  0  0  0  0  0  0  0  0  0
  -28.6050  -26.4610   19.4270 O   0  0  0  0  0  0  0  0  0  0  0  0
  -24.9920  -31.3820   23.1030 C   0  0  0  0  0  0  0  0  0  0  0  0
  -27.4460  -27.1840   19.5770 C   0  0  0  0  0  0  0  0  0  0  0  0
  -23.6870  -30.0970   21.4370 C   0  0  0  0  0  3  0  0  0  0  0  0
  -25.0530  -28.6630   19.8280 C   0  0  0  0  0  0  0  0  0  0  0  0
  -26.1930  -30.4810   21.1120 C   0  0  0  0  0  2  0  0  0  0  0  0
  -26.2420  -29.1560   20.3810 C   0  0  0  0  0  0  0  0  0  0  0  0
  -27.4440  -28.4240   20.2530 C   0  0  0  0  0  3  0  0  0  0  0  0
  -26.2420  -26.6950   19.0280 C   0  0  0  0  0  3  0  0  0  0  0  0
  -25.0470  -27.4300   19.1520 C   0  0  0  0  0  3  0  0  0  0  0  0
  -23.8140  -29.5140   20.0050 C   0  0  0  0  0  2  0  0  0  0  0  0
  -24.9790  -30.6640   21.9430 N   0  0  0  0  0  0  0  0  0  0  0  0
  -23.9460  -31.6140   23.7230 O   0  0  0  0  0  0  0  0  0  0  0  0
  -23.0910  -29.0100   22.3610 C   0  0  0  0  0  0  0  0  0  0  0  0
  -21.7770  -28.7640   22.2240 N   0  0  0  0  0  0  0  0  0  0  0  0
  -23.8050  -28.3970   23.1580 O   0  0  0  0  0  0  0  0  0  0  0  0
  -21.2600  -29.3240   21.5600 H   0  0  0  0  0  0  0  0  0  0  0  0
  -18.5100  -27.2530   22.5360 C   0  0  0  0  0  0  0  0  0  0  0  0
  -21.0090  -27.7560   22.9560 C   0  0  0  0  0  3  0  0  0  0  0  0
  -21.2820  -26.3380   22.4060 C   0  0  0  0  0  2  0  0  0  0  0  0
  -20.2790  -25.9030   21.3320 C   0  0  0  0  0  2  0  0  0  0  0  0
  -18.8530  -25.9210   21.8910 C   0  0  0  0  0  2  0  0  0  0  0  0
  -19.5230  -28.1210   23.0210 C   0  0  0  0  0  0  0  0  0  0  0  0
  -19.1500  -29.3620   23.5790 C   0  0  0  0  0  3  0  0  0  0  0  0
  -17.7960  -29.7400   23.6590 C   0  0  0  0  0  3  0  0  0  0  0  0
  -16.7960  -28.8700   23.1920 C   0  0  0  0  0  3  0  0  0  0  0  0
  -17.1540  -27.6280   22.6350 C   0  0  0  0  0  3  0  0  0  0  0  0
  -26.3150  -31.9670   23.6880 C   0  0  0  0  0  3  0  0  0  0  0  0
  -26.0210  -33.3200   24.1780 N   0  0  0  0  0  0  0  0  0  0  0  0
  -26.3660  -34.4490   23.5430 C   0  0  0  0  0  0  0  0  0  0  0  0
  -27.0350  -34.4590   22.5070 O   0  0  0  0  0  0  0  0  0  0  0  0
  -25.4230  -33.3900   24.9870 H   0  0  0  0  0  0  0  0  0  0  0  0
  -24.6770  -36.3060   23.3750 C   0  0  0  0  0  1  0  0  0  0  0  0
  -25.8910  -35.7800   24.1570 C   0  0  0  0  0  3  0  0  0  0  0  0
  -28.0160  -36.5160   25.1430 C   0  0  0  0  0  1  0  0  0  0  0  0
  -26.9430  -36.8180   24.1980 N   0  0  0  0  0  0  0  0  0  0  0  0
  -26.5480  -37.7220   24.4450 H   0  0  0  0  0  0  0  0  0  0  0  0
  -26.9360  -31.0790   24.8360 C   0  0  1  0  0  0  0  0  0  0  0  0
  -25.9310  -30.7110   25.9520 C   0  0  0  0  0  1  0  0  0  0  0  0
  -27.5030  -29.7600   24.2570 C   0  0  0  0  0  1  0  0  0  0  0  0
  -28.1240  -31.8240   25.4910 C   0  0  0  0  0  1  0  0  0  0  0  0
  -30.5650  -20.6110   22.6450 C   0  0  0  0  0  3  0  0  0  0  0  0
  -29.3710  -17.3120   20.0120 C   0  0  0  0  0  3  0  0  0  0  0  0
  -28.9470  -18.6280   19.7640 C   0  0  0  0  0  3  0  0  0  0  0  0
  -30.5820  -18.0890   21.9800 C   0  0  0  0  0  3  0  0  0  0  0  0
  -30.1670  -19.4300   21.7320 C   0  0  0  0  0  0  0  0  0  0  0  0
  -30.1780  -17.0260   21.1340 C   0  0  0  0  0  0  0  0  0  0  0  0
  -29.3210  -19.6820   20.6250 C   0  0  0  0  0  0  0  0  0  0  0  0
  -31.0920  -14.7930   20.6790 C   0  0  0  0  0  0  0  0  0  0  0  0
  -30.7980  -12.7400   19.3500 C   0  0  0  0  0  2  0  0  0  0  0  0
  -29.8800  -13.0450   18.1490 C   0  0  0  0  0  2  0  0  0  0  0  0
  -28.3960  -12.9020   18.5380 C   0  0  0  0  0  2  0  0  0  0  0  0
  -28.0430  -13.6540   19.8490 C   0  0  0  0  0  3  0  0  0  0  0  0
  -29.0660  -13.3140   20.9570 C   0  0  0  0  0  2  0  0  0  0  0  0
  -30.4180  -13.6300   20.4580 N   0  0  0  0  0  0  0  0  0  0  0  0
  -32.1760  -15.0580   20.1490 O   0  0  0  0  0  0  0  0  0  0  0  0
  -30.4750  -15.6750   21.4840 N   0  0  0  0  0  0  0  0  0  0  0  0
  -29.8000  -15.2490   22.1030 H   0  0  0  0  0  0  0  0  0  0  0  0
  -25.6160  -14.2550   20.4760 C   0  0  0  0  0  0  0  0  0  0  0  0
  -24.5380  -13.4770   20.8070 C   0  0  0  0  0  0  0  0  0  0  0  0
  -25.0040  -12.1270   20.7780 C   0  0  0  0  0  0  0  0  0  0  0  0
  -26.6720  -13.3780   20.2760 N   0  0  0  0  0  0  0  0  0  0  0  0
  -26.3020  -12.0930   20.5100 N   0  0  0  0  0  0  0  0  0  0  0  0
  -24.2740  -10.8630   20.9350 C   0  0  0  0  0  0  0  0  0  0  0  0
  -24.6480   -9.9090   21.9070 C   0  0  0  0  0  3  0  0  0  0  0  0
  -23.9200   -8.7070   22.0500 C   0  0  0  0  0  3  0  0  0  0  0  0
  -22.7990   -8.4540   21.2230 C   0  0  0  0  0  0  0  0  0  0  0  0
  -22.4470   -9.3960   20.2400 C   0  0  0  0  0  3  0  0  0  0  0  0
  -23.1770  -10.5870   20.0950 C   0  0  0  0  0  3  0  0  0  0  0  0
  -22.0480   -7.3040   21.2730 O   0  0  0  0  0  0  0  0  0  0  0  0
  -21.8760   -6.6070   22.4420 C   0  0  0  0  0  0  0  0  0  0  0  0
  -21.2880   -7.1970   23.5830 C   0  0  0  0  0  3  0  0  0  0  0  0
  -21.0660   -6.4230   24.7390 C   0  0  0  0  0  3  0  0  0  0  0  0
  -21.4230   -5.0630   24.7550 C   0  0  0  0  0  0  0  0  0  0  0  0
  -22.0030   -4.4720   23.6200 C   0  0  0  0  0  3  0  0  0  0  0  0
  -22.2270   -5.2420   22.4650 C   0  0  0  0  0  0  0  0  0  0  0  0
  -22.7660   -4.6620   21.3650 F   0  0  0  0  0  0  0  0  0  0  0  0
  -21.2000   -4.3190   25.8650 F   0  0  0  0  0  0  0  0  0  0  0  0
  -23.1330  -13.9480   21.0420 C   0  0  0  0  0  0  0  0  0  0  0  0
  -22.3940  -13.2560   21.9050 N   0  0  0  0  0  0  0  0  0  0  0  0
  -22.6970  -14.9600   20.4960 O   0  0  0  0  0  0  0  0  0  0  0  0
  -22.7600  -12.4310   22.3580 H   0  0  0  0  0  0  0  0  0  0  0  0
  -21.4470  -13.5460   22.1030 H   0  0  0  0  0  0  0  0  0  0  0  0
  -25.7810  -15.6280   20.3100 N   0  0  0  0  0  0  0  0  0  0  0  0
  -25.0070  -16.2800   20.3660 H   0  0  0  0  0  0  0  0  0  0  0  0
  -26.6400  -16.0660   20.0020 H   0  0  0  0  0  0  0  0  0  0  0  0
  -27.4870  -21.1070   20.2140 C   0  0  0  0  0  1  0  0  0  0  0  0
  -28.8890  -20.9630   20.3850 O   0  0  0  0  0  0  0  0  0  0  0  0
  -30.1620  -19.5480   24.9740 C   0  0  0  0  0  1  0  0  0  0  0  0
  -31.1670  -20.1980   24.0120 C   0  0  0  0  0  2  0  0  0  0  0  0
  2  4  2  0
  3  2  1  0
  3  1  1  0
  5  3  1  0
  7  6  2  0
  7  2  1  0
  8  7  1  0
  9  8  1  0
 10 12  1  0
 10  6  1  0
 11 22  2  0
 12 17  1  0
 13 21  1  0
 13 23  1  0
 14 20  1  0
 14 16  1  0
 15 21  1  0
 16 15  1  0
 17 16  2  0
 18 19  1  0
 18 12  2  0
 19 14  2  0
 20 13  1  0
 21 11  1  0
 23 25  2  0
 24 23  1  0
 26 24  1  0
 27 36  2  0
 27 32  1  0
 28 24  1  0
 28 32  1  0
 29 28  1  0
 30 31  1  0
 30 29  1  0
 31 27  1  0
 32 33  2  0
 33 34  1  0
 35 34  2  0
 36 35  1  0
 37 11  1  0
 37 38  1  0
 37 47  1  0
 38 41  1  0
 39 43  1  0
 39 38  1  0
 40 39  2  0
 43 42  1  0
 43 45  1  0
 45 46  1  0
 45 44  1  0
 47 50  1  1
 47 48  1  0
 49 47  1  0
 51  1  1  0
 51 99  1  0
 52 56  1  0
 53 52  2  0
 53 57  1  0
 55 54  1  0
 55 51  1  0
 56 66  1  0
 56 54  2  0
 57 55  2  0
 58 66  1  0
 59 64  1  0
 60 61  1  0
 60 59  1  0
 62 61  1  0
 62 71  1  0
 62 63  1  0
 64 58  1  0
 64 63  1  0
 65 58  2  0
 66 67  1  0
 68 69  2  0
 69 88  1  0
 70 69  1  0
 70 73  1  0
 71 68  1  0
 71 72  1  0
 72 70  2  0
 73 74  1  0
 74 75  2  0
 76 79  1  0
 76 75  1  0
 77 76  2  0
 78 77  1  0
 78 73  2  0
 79 80  1  0
 80 85  2  0
 80 81  1  0
 81 82  2  0
 82 83  1  0
 83 87  1  0
 84 83  2  0
 85 84  1  0
 86 85  1  0
 88 89  1  0
 89 92  1  0
 89 91  1  0
 90 88  2  0
 93 94  1  0
 93 68  1  0
 95 93  1  0
 96 97  1  0
 97 57  1  0
 99 98  1  0
M  ISO  4   6 101  10 101  58 100  66 100
M  END
>  <TORSDO>  (35) 
F 23

>  <SCORE>  (35) 
-10.688

>  <name>  (35) 
35

>  <ligand_id>  (35) 
35

>  <original_smiles>  (35) 
[H]OC(C(=O)N([H])C([H])([H])C([H])(c1c([H])c(N([H])C(=O)N2C([H])([H])C([H])([H])C([H])([H])C([H])(n3nc(-c4c([H])c([H])c(Oc5c([H])c([H])c(F)c([H])c5F)c([H])c4[H])c(C(=O)N([H])[H])c3N([H])[H])C2([H])[H])c([H])c([H])c1OC([H])([H])[H])C([H])([H])C([H])([H])[H])=C([H])Oc1c([H])c([H])c2c(c1[H])C([H])([H])N(C(=O)C([H])(N([H])C(=O)C([H])(N([H])C([H])([H])[H])C([H])([H])[H])C(C([H])([H])[H])(C([H])([H])[H])C([H])([H])[H])C([H])(C(=O)N([H])C1([H])c3c([H])c([H])c([H])c([H])c3C([H])([H])C([H])([H])C1([H])[H])C2([H])[H]

>  <smiles>  (35) 
[H]OC(C(=O)N([H])C([H])([H])C([H])(c1c([H])c(N([H])C(=O)N2C([H])([H])C([H])([H])C([H])([H])C([H])(n3nc(-c4c([H])c([H])c(Oc5c([H])c([H])c(F)c([H])c5F)c([H])c4[H])c(C(=O)N([H])[H])c3N([H])[H])C2([H])[H])c([H])c([H])c1OC([H])([H])[H])C([H])([H])C([H])([H])[H])=C([H])Oc1c([H])c([H])c2c(c1[H])C([H])([H])N(C(=O)C([H])(N([H])C(=O)C([H])(N([H])C([H])([H])[H])C([H])([H])[H])C(C([H])([H])[H])(C([H])([H])[H])C([H])([H])[H])C([H])(C(=O)N([H])C1([H])c3c([H])c([H])c([H])c([H])c3C([H])([H])C([H])([H])C1([H])[H])C2([H])[H]

$$$$
36:0:0
     RDKit          3D

 94102  0  0  1  0  0  0  0  0999 V2000
  -28.9730  -19.7300   20.6240 C   0  0  0  0  0  3  0  0  0  0  0  0
  -29.8820  -19.8600   18.0200 C   0  0  0  0  0  3  0  0  0  0  0  0
  -29.0300  -21.0570   19.9980 C   0  0  0  0  0  0  0  0  0  0  0  0
  -29.3350  -18.4690   19.9740 C   0  0  0  0  0  0  0  0  0  0  0  0
  -29.8130  -18.5970   18.6480 C   0  0  0  0  0  0  0  0  0  0  0  0
  -29.5040  -21.0650   18.6560 C   0  0  0  0  0  0  0  0  0  0  0  0
  -30.2380  -17.3780   17.8420 C   0  0  0  0  0  1  0  0  0  0  0  0
  -29.6550  -22.2320   17.8980 N   0  0  0  0  0  0  0  0  0  0  0  0
  -30.1580  -22.1640   17.0190 H   0  0  0  0  0  0  0  0  0  0  0  0
  -29.8230  -23.1170   18.3600 H   0  0  0  0  0  0  0  0  0  0  0  0
  -28.7330  -22.4070   20.7590 C   0  0  0  0  0  0  0  0  0  0  0  0
  -29.1090  -22.5260   21.9300 O   0  0  0  0  0  0  0  0  0  0  0  0
  -27.8710  -23.6400   20.1770 C   0  0  0  0  0  2  0  0  0  0  0  0
  -28.4700  -25.0830   19.7060 C   0  0  0  0  0  2  0  0  0  0  0  0
  -28.3130  -26.4360   20.3550 O   0  0  0  0  0  0  0  0  0  0  0  0
  -24.6010  -31.9430   23.2310 C   0  0  0  0  0  0  0  0  0  0  0  0
  -27.2000  -27.3000   20.2300 C   0  0  0  0  0  0  0  0  0  0  0  0
  -23.3970  -30.5290   21.6030 C   0  0  0  0  0  3  0  0  0  0  0  0
  -24.8450  -28.9510   20.1890 C   0  0  0  0  0  0  0  0  0  0  0  0
  -25.9380  -30.8270   21.4230 C   0  0  0  0  0  2  0  0  0  0  0  0
  -26.0130  -29.4360   20.7890 C   0  0  0  0  0  0  0  0  0  0  0  0
  -27.1890  -28.6190   20.8010 C   0  0  0  0  0  3  0  0  0  0  0  0
  -26.0120  -26.8770   19.6000 C   0  0  0  0  0  3  0  0  0  0  0  0
  -24.8510  -27.6820   19.5830 C   0  0  0  0  0  3  0  0  0  0  0  0
  -23.6110  -29.8330   20.2310 C   0  0  0  0  0  2  0  0  0  0  0  0
  -24.6640  -31.1200   22.1420 N   0  0  0  0  0  0  0  0  0  0  0  0
  -23.5160  -32.2290   23.7620 O   0  0  0  0  0  0  0  0  0  0  0  0
  -22.7280  -29.5280   22.5760 C   0  0  0  0  0  0  0  0  0  0  0  0
  -21.4000  -29.3570   22.4550 N   0  0  0  0  0  0  0  0  0  0  0  0
  -23.4040  -28.9060   23.3990 O   0  0  0  0  0  0  0  0  0  0  0  0
  -20.9130  -29.9130   21.7650 H   0  0  0  0  0  0  0  0  0  0  0  0
  -18.0180  -28.1790   22.9750 C   0  0  0  0  0  0  0  0  0  0  0  0
  -20.5780  -28.4300   23.2350 C   0  0  0  0  0  3  0  0  0  0  0  0
  -20.6710  -26.9930   22.6710 C   0  0  0  0  0  2  0  0  0  0  0  0
  -19.5650  -26.6680   21.6610 C   0  0  0  0  0  2  0  0  0  0  0  0
  -18.1860  -26.8250   22.3080 C   0  0  0  0  0  2  0  0  0  0  0  0
  -19.1410  -28.9400   23.3960 C   0  0  0  0  0  0  0  0  0  0  0  0
  -18.9300  -30.2070   23.9820 C   0  0  0  0  0  3  0  0  0  0  0  0
  -17.6280  -30.7160   24.1470 C   0  0  0  0  0  3  0  0  0  0  0  0
  -16.5190  -29.9520   23.7420 C   0  0  0  0  0  3  0  0  0  0  0  0
  -16.7150  -28.6860   23.1630 C   0  0  0  0  0  3  0  0  0  0  0  0
  -25.8830  -32.5820   23.8500 C   0  0  0  0  0  3  0  0  0  0  0  0
  -25.5690  -33.9800   24.1790 N   0  0  0  0  0  0  0  0  0  0  0  0
  -25.9030  -35.0350   23.4220 C   0  0  0  0  0  0  0  0  0  0  0  0
  -26.5740  -34.9310   22.3920 O   0  0  0  0  0  0  0  0  0  0  0  0
  -24.9710  -34.1330   24.9770 H   0  0  0  0  0  0  0  0  0  0  0  0
  -24.1780  -36.8320   23.0650 C   0  0  0  0  0  1  0  0  0  0  0  0
  -25.4150  -36.4240   23.8800 C   0  0  0  0  0  3  0  0  0  0  0  0
  -27.5480  -37.3050   24.7210 C   0  0  0  0  0  1  0  0  0  0  0  0
  -26.4500  -37.4750   23.7730 N   0  0  0  0  0  0  0  0  0  0  0  0
  -26.0440  -38.3970   23.9190 H   0  0  0  0  0  0  0  0  0  0  0  0
  -26.4030  -31.8170   25.1300 C   0  0  1  0  0  0  0  0  0  0  0  0
  -25.3110  -31.5830   26.2010 C   0  0  0  0  0  1  0  0  0  0  0  0
  -26.9870  -30.4390   24.7460 C   0  0  0  0  0  1  0  0  0  0  0  0
  -27.5530  -32.6170   25.7870 C   0  0  0  0  0  1  0  0  0  0  0  0
  -29.0630  -16.9850   20.5520 C   0  0  0  0  0  2  0  0  0  0  0  0
  -30.6530  -14.8140   20.3980 C   0  0  0  0  0  0  0  0  0  0  0  0
  -30.3740  -12.5340   19.4000 C   0  0  0  0  0  2  0  0  0  0  0  0
  -29.4710  -12.5880   18.1520 C   0  0  0  0  0  2  0  0  0  0  0  0
  -28.0000  -12.4110   18.5640 C   0  0  0  0  0  2  0  0  0  0  0  0
  -27.6040  -13.3200   19.7580 C   0  0  0  0  0  3  0  0  0  0  0  0
  -28.6440  -13.2940   20.9000 C   0  0  0  0  0  2  0  0  0  0  0  0
  -29.9480  -13.6260   20.3170 N   0  0  0  0  0  0  0  0  0  0  0  0
  -31.8230  -14.8090   20.0060 O   0  0  0  0  0  0  0  0  0  0  0  0
  -31.0880  -16.6950   21.8620 C   0  0  0  0  0  1  0  0  0  0  0  0
  -30.1530  -15.9930   20.9750 N   0  0  0  0  0  0  0  0  0  0  0  0
  -25.2090  -13.9050   20.4430 C   0  0  0  0  0  0  0  0  0  0  0  0
  -24.1410  -13.1310   20.8040 C   0  0  0  0  0  0  0  0  0  0  0  0
  -24.6100  -11.7810   20.8010 C   0  0  0  0  0  0  0  0  0  0  0  0
  -26.2590  -13.0280   20.2350 N   0  0  0  0  0  0  0  0  0  0  0  0
  -25.9060  -11.7460   20.5160 N   0  0  0  0  0  0  0  0  0  0  0  0
  -23.8840  -10.5190   20.9940 C   0  0  0  0  0  0  0  0  0  0  0  0
  -24.3040   -9.5620   21.9440 C   0  0  0  0  0  3  0  0  0  0  0  0
  -23.5770   -8.3670   22.1260 C   0  0  0  0  0  3  0  0  0  0  0  0
  -22.4160   -8.1180   21.3570 C   0  0  0  0  0  0  0  0  0  0  0  0
  -22.0150   -9.0620   20.3960 C   0  0  0  0  0  3  0  0  0  0  0  0
  -22.7430  -10.2500   20.2120 C   0  0  0  0  0  3  0  0  0  0  0  0
  -21.6610   -6.9730   21.4470 O   0  0  0  0  0  0  0  0  0  0  0  0
  -21.6000   -6.2410   22.6060 C   0  0  0  0  0  0  0  0  0  0  0  0
  -21.1660   -6.8080   23.8240 C   0  0  0  0  0  3  0  0  0  0  0  0
  -21.0510   -6.0030   24.9750 C   0  0  0  0  0  3  0  0  0  0  0  0
  -21.3590   -4.6320   24.9080 C   0  0  0  0  0  0  0  0  0  0  0  0
  -21.7860   -4.0630   23.6950 C   0  0  0  0  0  3  0  0  0  0  0  0
  -21.9020   -4.8650   22.5460 C   0  0  0  0  0  0  0  0  0  0  0  0
  -22.2940   -4.3090   21.3750 F   0  0  0  0  0  0  0  0  0  0  0  0
  -21.2430   -3.8550   26.0110 F   0  0  0  0  0  0  0  0  0  0  0  0
  -22.7380  -13.6060   21.0410 C   0  0  0  0  0  0  0  0  0  0  0  0
  -21.9930  -12.9170   21.8980 N   0  0  0  0  0  0  0  0  0  0  0  0
  -22.3100  -14.6260   20.5020 O   0  0  0  0  0  0  0  0  0  0  0  0
  -22.3530  -12.0930   22.3560 H   0  0  0  0  0  0  0  0  0  0  0  0
  -21.0510  -13.2180   22.1010 H   0  0  0  0  0  0  0  0  0  0  0  0
  -25.3710  -15.2730   20.2490 N   0  0  0  0  0  0  0  0  0  0  0  0
  -24.5960  -15.9230   20.3340 H   0  0  0  0  0  0  0  0  0  0  0  0
  -26.2200  -15.7110   19.9170 H   0  0  0  0  0  0  0  0  0  0  0  0
  2  5  2  0
  2  6  1  0
  3  1  1  0
  3 11  1  0
  4 56  1  0
  4  1  2  0
  5  4  1  0
  6  3  2  0
  7  5  1  0
  8 10  1  0
  8  6  1  0
  9  8  1  0
 11 12  2  0
 13 11  1  0
 14 13  1  0
 14 15  1  0
 16 27  2  0
 17 15  1  0
 17 22  1  0
 18 26  1  0
 18 28  1  0
 19 25  1  0
 19 21  1  0
 20 26  1  0
 21 22  2  0
 21 20  1  0
 23 17  2  0
 24 23  1  0
 24 19  2  0
 25 18  1  0
 26 16  1  0
 28 30  2  0
 29 28  1  0
 31 29  1  0
 32 41  2  0
 32 37  1  0
 33 29  1  0
 33 37  1  0
 34 33  1  0
 35 36  1  0
 35 34  1  0
 36 32  1  0
 37 38  2  0
 38 39  1  0
 40 39  2  0
 41 40  1  0
 42 16  1  0
 42 43  1  0
 42 52  1  0
 43 46  1  0
 44 48  1  0
 44 43  1  0
 45 44  2  0
 48 47  1  0
 50 48  1  0
 50 51  1  0
 50 49  1  0
 52 55  1  1
 52 53  1  0
 54 52  1  0
 56 66  1  0
 57 66  1  0
 58 63  1  0
 59 60  1  0
 59 58  1  0
 61 60  1  0
 61 70  1  0
 61 62  1  0
 63 57  1  0
 63 62  1  0
 64 57  2  0
 66 65  1  0
 67 68  2  0
 68 87  1  0
 69 68  1  0
 69 72  1  0
 70 67  1  0
 70 71  1  0
 71 69  2  0
 72 73  1  0
 73 74  2  0
 75 78  1  0
 75 74  1  0
 76 75  2  0
 77 76  1  0
 77 72  2  0
 78 79  1  0
 79 80  1  0
 80 81  2  0
 82 81  1  0
 82 86  1  0
 83 82  2  0
 84 79  2  0
 84 83  1  0
 85 84  1  0
 87 88  1  0
 88 91  1  0
 88 90  1  0
 89 87  2  0
 92 93  1  0
 92 67  1  0
 94 92  1  0
M  ISO  4  14 101  15 101  57 100  66 100
M  END
>  <TORSDO>  (36) 
F 21

>  <SCORE>  (36) 
-13.658

>  <name>  (36) 
36

>  <ligand_id>  (36) 
36

>  <original_smiles>  (36) 
[H]c1c([H])c([H])c2c(c1[H])C([H])([H])C([H])([H])C([H])([H])C2([H])N([H])C(=O)C1([H])N(C(=O)C([H])(N([H])C(=O)C([H])(N([H])C([H])([H])[H])C([H])([H])[H])C(C([H])([H])[H])(C([H])([H])[H])C([H])([H])[H])C([H])([H])c2c([H])c(OC([H])([H])C([H])([H])C(=O)c3c([H])c(C([H])([H])N(C(=O)N4C([H])([H])C([H])([H])C([H])([H])C([H])(n5nc(-c6c([H])c([H])c(Oc7c([H])c([H])c(F)c([H])c7F)c([H])c6[H])c(C(=O)N([H])[H])c5N([H])[H])C4([H])[H])C([H])([H])[H])c(C([H])([H])[H])c([H])c3N([H])[H])c([H])c([H])c2C1([H])[H]

>  <smiles>  (36) 
[H]c1c([H])c([H])c2c(c1[H])C([H])([H])C([H])([H])C([H])([H])C2([H])N([H])C(=O)C1([H])N(C(=O)C([H])(N([H])C(=O)C([H])(N([H])C([H])([H])[H])C([H])([H])[H])C(C([H])([H])[H])(C([H])([H])[H])C([H])([H])[H])C([H])([H])c2c([H])c(OC([H])([H])C([H])([H])C(=O)c3c([H])c(C([H])([H])N(C(=O)N4C([H])([H])C([H])([H])C([H])([H])C([H])(n5nc(-c6c([H])c([H])c(Oc7c([H])c([H])c(F)c([H])c7F)c([H])c6[H])c(C(=O)N([H])[H])c5N([H])[H])C4([H])[H])C([H])([H])[H])c(C([H])([H])[H])c([H])c3N([H])[H])c([H])c([H])c2C1([H])[H]

$$$$
37:0:0
     RDKit          3D

 96104  0  0  1  0  0  0  0  0999 V2000
  -31.2340  -18.6620   19.6880 C   0  0  0  0  0  3  0  0  0  0  0  0
  -30.2590  -19.9680   21.9580 C   0  0  0  0  0  3  0  0  0  0  0  0
  -31.2210  -17.9510   20.9130 C   0  0  0  0  0  0  0  0  0  0  0  0
  -30.6620  -18.6120   22.0440 C   0  0  0  0  0  0  0  0  0  0  0  0
  -30.3670  -20.7060   20.7570 C   0  0  0  0  0  0  0  0  0  0  0  0
  -30.8230  -20.0150   19.6050 C   0  0  0  0  0  0  0  0  0  0  0  0
  -30.9470  -20.6650   18.4210 F   0  0  0  0  0  0  0  0  0  0  0  0
  -30.5320  -17.9700   23.2770 N   0  0  0  0  0  0  0  0  0  0  0  0
  -29.8870  -18.3620   23.9570 H   0  0  0  0  0  0  0  0  0  0  0  0
  -30.5490  -16.9570   23.3070 H   0  0  0  0  0  0  0  0  0  0  0  0
  -33.4490  -16.7040   20.7030 C   0  0  0  0  0  1  0  0  0  0  0  0
  -31.9450  -16.5830   21.0290 C   0  0  0  0  0  3  0  0  0  0  0  0
  -31.7240  -14.4200   19.6420 C   0  0  0  0  0  0  0  0  0  0  0  0
  -31.1600  -12.2770   18.5380 C   0  0  0  0  0  2  0  0  0  0  0  0
  -30.1070  -12.5000   17.4350 C   0  0  0  0  0  2  0  0  0  0  0  0
  -28.6830  -12.4590   18.0210 C   0  0  0  0  0  2  0  0  0  0  0  0
  -28.5300  -13.3410   19.2880 C   0  0  0  0  0  3  0  0  0  0  0  0
  -29.6790  -13.0800   20.2860 C   0  0  0  0  0  2  0  0  0  0  0  0
  -30.9500  -13.3010   19.5750 N   0  0  0  0  0  0  0  0  0  0  0  0
  -32.7600  -14.5420   18.9820 O   0  0  0  0  0  0  0  0  0  0  0  0
  -31.2660  -15.3980   20.4530 N   0  0  0  0  0  0  0  0  0  0  0  0
  -30.3660  -15.1960   20.8610 H   0  0  0  0  0  0  0  0  0  0  0  0
  -26.3050  -14.1220   20.3200 C   0  0  0  0  0  0  0  0  0  0  0  0
  -25.2110  -13.4310   20.7640 C   0  0  0  0  0  0  0  0  0  0  0  0
  -25.5210  -12.0470   20.5950 C   0  0  0  0  0  0  0  0  0  0  0  0
  -27.2190  -13.1640   19.9090 N   0  0  0  0  0  0  0  0  0  0  0  0
  -26.7560  -11.9060   20.1310 N   0  0  0  0  0  0  0  0  0  0  0  0
  -24.6930  -10.8510   20.7950 C   0  0  0  0  0  0  0  0  0  0  0  0
  -25.0410   -9.8630   21.7430 C   0  0  0  0  0  3  0  0  0  0  0  0
  -24.2200   -8.7310   21.9300 C   0  0  0  0  0  3  0  0  0  0  0  0
  -23.0370   -8.5780   21.1680 C   0  0  0  0  0  0  0  0  0  0  0  0
  -22.7080   -9.5530   20.2100 C   0  0  0  0  0  3  0  0  0  0  0  0
  -23.5280  -10.6780   20.0220 C   0  0  0  0  0  3  0  0  0  0  0  0
  -22.1920   -7.4980   21.2620 O   0  0  0  0  0  0  0  0  0  0  0  0
  -21.9620   -6.8670   22.4590 C   0  0  0  0  0  0  0  0  0  0  0  0
  -21.4030   -7.5470   23.5630 C   0  0  0  0  0  3  0  0  0  0  0  0
  -21.1160   -6.8450   24.7510 C   0  0  0  0  0  3  0  0  0  0  0  0
  -21.3800   -5.4640   24.8340 C   0  0  0  0  0  0  0  0  0  0  0  0
  -21.9310   -4.7840   23.7330 C   0  0  0  0  0  3  0  0  0  0  0  0
  -22.2180   -5.4850   22.5490 C   0  0  0  0  0  0  0  0  0  0  0  0
  -22.7290   -4.8210   21.4830 F   0  0  0  0  0  0  0  0  0  0  0  0
  -21.0980   -4.7870   25.9710 F   0  0  0  0  0  0  0  0  0  0  0  0
  -23.9110  -14.0200   21.2350 C   0  0  0  0  0  0  0  0  0  0  0  0
  -23.2290  -13.3470   22.1530 N   0  0  0  0  0  0  0  0  0  0  0  0
  -23.5180  -15.1110   20.8230 O   0  0  0  0  0  0  0  0  0  0  0  0
  -23.5630  -12.4630   22.5090 H   0  0  0  0  0  0  0  0  0  0  0  0
  -22.3600  -13.7220   22.5070 H   0  0  0  0  0  0  0  0  0  0  0  0
  -26.5930  -15.4800   20.2120 N   0  0  0  0  0  0  0  0  0  0  0  0
  -25.9260  -16.1960   20.4800 H   0  0  0  0  0  0  0  0  0  0  0  0
  -27.4570  -15.8610   19.8470 H   0  0  0  0  0  0  0  0  0  0  0  0
  -30.0960  -22.0980   20.7910 N   0  0  0  0  0  0  0  0  0  0  0  0
  -29.9000  -22.4440   21.7260 H   0  0  0  0  0  0  0  0  0  0  0  0
  -29.2510  -22.7190   19.7650 C   0  0  0  0  0  2  0  0  0  0  0  0
  -29.4760  -24.2530   19.5780 C   0  0  0  0  0  2  0  0  0  0  0  0
  -28.7460  -25.2010   20.5680 C   0  0  0  0  0  2  0  0  0  0  0  0
  -28.8270  -26.5990   20.1870 O   0  0  0  0  0  0  0  0  0  0  0  0
  -24.6860  -31.6190   23.1460 C   0  0  0  0  0  0  0  0  0  0  0  0
  -27.6350  -27.3020   20.1420 C   0  0  0  0  0  0  0  0  0  0  0  0
  -23.6000  -30.1600   21.4720 C   0  0  0  0  0  3  0  0  0  0  0  0
  -25.1690  -28.7020   20.0840 C   0  0  0  0  0  0  0  0  0  0  0  0
  -26.1110  -30.6440   21.3430 C   0  0  0  0  0  2  0  0  0  0  0  0
  -26.2850  -29.2790   20.7050 C   0  0  0  0  0  0  0  0  0  0  0  0
  -27.5220  -28.5880   20.7270 C   0  0  0  0  0  3  0  0  0  0  0  0
  -26.5020  -26.7550   19.4980 C   0  0  0  0  0  3  0  0  0  0  0  0
  -25.2740  -27.4400   19.4780 C   0  0  0  0  0  3  0  0  0  0  0  0
  -23.8820  -29.4960   20.0990 C   0  0  0  0  0  2  0  0  0  0  0  0
  -24.8150  -30.8240   22.0460 N   0  0  0  0  0  0  0  0  0  0  0  0
  -23.5770  -31.8340   23.6560 O   0  0  0  0  0  0  0  0  0  0  0  0
  -22.9780  -29.1030   22.4130 C   0  0  0  0  0  0  0  0  0  0  0  0
  -21.6690  -28.8490   22.2460 N   0  0  0  0  0  0  0  0  0  0  0  0
  -23.6700  -28.5150   23.2490 O   0  0  0  0  0  0  0  0  0  0  0  0
  -21.1700  -29.3790   21.5450 H   0  0  0  0  0  0  0  0  0  0  0  0
  -18.3490  -27.4860   22.6540 C   0  0  0  0  0  0  0  0  0  0  0  0
  -20.8840  -27.8660   22.9890 C   0  0  0  0  0  3  0  0  0  0  0  0
  -21.0690  -26.4460   22.4040 C   0  0  0  0  0  2  0  0  0  0  0  0
  -20.0080  -26.0790   21.3620 C   0  0  0  0  0  2  0  0  0  0  0  0
  -18.6070  -26.1520   21.9730 C   0  0  0  0  0  2  0  0  0  0  0  0
  -19.4180  -28.2980   23.1160 C   0  0  0  0  0  0  0  0  0  0  0  0
  -19.1230  -29.5450   23.7090 C   0  0  0  0  0  3  0  0  0  0  0  0
  -17.7920  -29.9820   23.8460 C   0  0  0  0  0  3  0  0  0  0  0  0
  -16.7380  -29.1660   23.4000 C   0  0  0  0  0  3  0  0  0  0  0  0
  -17.0170  -27.9200   22.8100 C   0  0  0  0  0  3  0  0  0  0  0  0
  -25.9200  -32.3150   23.8000 C   0  0  0  0  0  3  0  0  0  0  0  0
  -25.5250  -33.6900   24.1360 N   0  0  0  0  0  0  0  0  0  0  0  0
  -25.8070  -34.7650   23.3880 C   0  0  0  0  0  0  0  0  0  0  0  0
  -26.4980  -34.7090   22.3680 O   0  0  0  0  0  0  0  0  0  0  0  0
  -24.9090  -33.8030   24.9280 H   0  0  0  0  0  0  0  0  0  0  0  0
  -23.9760  -36.4500   23.0220 C   0  0  0  0  0  1  0  0  0  0  0  0
  -25.2310  -36.1200   23.8460 C   0  0  0  0  0  3  0  0  0  0  0  0
  -27.2950  -37.1340   24.7070 C   0  0  0  0  0  1  0  0  0  0  0  0
  -26.1990  -37.2340   23.7470 N   0  0  0  0  0  0  0  0  0  0  0  0
  -25.7350  -38.1270   23.8860 H   0  0  0  0  0  0  0  0  0  0  0  0
  -26.4520  -31.5590   25.0800 C   0  0  1  0  0  0  0  0  0  0  0  0
  -25.3460  -31.2180   26.1040 C   0  0  0  0  0  1  0  0  0  0  0  0
  -27.1520  -30.2390   24.6820 C   0  0  0  0  0  1  0  0  0  0  0  0
  -27.5160  -32.4250   25.7940 C   0  0  0  0  0  1  0  0  0  0  0  0
  1  3  1  0
  2  4  1  0
  3 12  1  0
  3  4  2  0
  4  8  1  0
  5 51  1  0
  5  2  2  0
  6  1  2  0
  6  5  1  0
  7  6  1  0
  8 10  1  0
  8  9  1  0
 12 11  1  0
 13 21  1  0
 14 19  1  0
 15 16  1  0
 15 14  1  0
 17 16  1  0
 17 26  1  0
 17 18  1  0
 19 13  1  0
 19 18  1  0
 20 13  2  0
 21 22  1  0
 21 12  1  0
 23 24  2  0
 24 43  1  0
 25 24  1  0
 25 28  1  0
 26 27  1  0
 26 23  1  0
 27 25  2  0
 28 29  1  0
 29 30  2  0
 31 34  1  0
 31 30  1  0
 32 31  2  0
 33 32  1  0
 33 28  2  0
 34 35  1  0
 35 40  2  0
 35 36  1  0
 36 37  2  0
 37 38  1  0
 38 42  1  0
 39 38  2  0
 40 39  1  0
 41 40  1  0
 43 44  1  0
 44 47  1  0
 44 46  1  0
 45 43  2  0
 48 23  1  0
 48 49  1  0
 50 48  1  0
 51 52  1  0
 53 51  1  0
 54 53  1  0
 54 55  1  0
 56 55  1  0
 57 68  2  0
 58 56  1  0
 58 63  1  0
 59 67  1  0
 59 69  1  0
 60 66  1  0
 60 62  1  0
 61 67  1  0
 62 63  2  0
 62 61  1  0
 64 58  2  0
 65 64  1  0
 65 60  2  0
 66 59  1  0
 67 57  1  0
 69 71  2  0
 70 69  1  0
 72 70  1  0
 73 82  2  0
 73 78  1  0
 74 70  1  0
 74 78  1  0
 75 74  1  0
 76 77  1  0
 76 75  1  0
 77 73  1  0
 78 79  2  0
 79 80  1  0
 81 80  2  0
 82 81  1  0
 83 57  1  0
 83 84  1  0
 83 93  1  0
 84 87  1  0
 85 89  1  0
 85 84  1  0
 86 85  2  0
 89 88  1  0
 91 89  1  0
 91 92  1  0
 91 90  1  0
 93 96  1  1
 93 94  1  0
 95 93  1  0
M  ISO  4  13 100  21 100  55 101  56 101
M  END
>  <TORSDO>  (37) 
F 22

>  <SCORE>  (37) 
-9.993

>  <name>  (37) 
37

>  <ligand_id>  (37) 
37

>  <original_smiles>  (37) 
[H]c1c([H])c([H])c2c(c1[H])C([H])([H])C([H])([H])C([H])([H])C2([H])N([H])C(=O)C1([H])N(C(=O)C([H])(N([H])C(=O)C([H])(N([H])C([H])([H])[H])C([H])([H])[H])C(C([H])([H])[H])(C([H])([H])[H])C([H])([H])[H])C([H])([H])c2c([H])c(OC([H])([H])C([H])([H])C([H])([H])N([H])c3c([H])c(N([H])[H])c(C([H])(N([H])C(=O)N4C([H])([H])C([H])([H])C([H])([H])C([H])(n5nc(-c6c([H])c([H])c(Oc7c([H])c([H])c(F)c([H])c7F)c([H])c6[H])c(C(=O)N([H])[H])c5N([H])[H])C4([H])[H])C([H])([H])[H])c([H])c3F)c([H])c([H])c2C1([H])[H]

>  <smiles>  (37) 
[H]c1c([H])c([H])c2c(c1[H])C([H])([H])C([H])([H])C([H])([H])C2([H])N([H])C(=O)C1([H])N(C(=O)C([H])(N([H])C(=O)C([H])(N([H])C([H])([H])[H])C([H])([H])[H])C(C([H])([H])[H])(C([H])([H])[H])C([H])([H])[H])C([H])([H])c2c([H])c(OC([H])([H])C([H])([H])C([H])([H])N([H])c3c([H])c(N([H])[H])c(C([H])(N([H])C(=O)N4C([H])([H])C([H])([H])C([H])([H])C([H])(n5nc(-c6c([H])c([H])c(Oc7c([H])c([H])c(F)c([H])c7F)c([H])c6[H])c(C(=O)N([H])[H])c5N([H])[H])C4([H])[H])C([H])([H])[H])c([H])c3F)c([H])c([H])c2C1([H])[H]

$$$$
38:0:0
     RDKit          3D

 91 99  0  0  1  0  0  0  0  0999 V2000
  -30.1800  -21.6730   20.4260 C   0  0  0  0  0  0  0  0  0  0  0  0
  -31.3140  -22.1420   20.5690 O   0  0  0  0  0  0  0  0  0  0  0  0
  -31.1980  -19.3130   20.5060 C   0  0  0  0  0  3  0  0  0  0  0  0
  -31.1600  -17.8870   20.5400 C   0  0  0  0  0  3  0  0  0  0  0  0
  -28.8020  -19.4160   20.4030 C   0  0  0  0  0  3  0  0  0  0  0  0
  -30.0290  -20.1320   20.4410 C   0  0  0  0  0  0  0  0  0  0  0  0
  -29.9290  -17.1840   20.5160 C   0  0  0  0  0  0  0  0  0  0  0  0
  -28.7580  -17.9880   20.4470 C   0  0  0  0  0  0  0  0  0  0  0  0
  -27.5550  -17.3670   20.4200 F   0  0  0  0  0  0  0  0  0  0  0  0
  -30.5790  -14.6810   20.2380 C   0  0  0  0  0  0  0  0  0  0  0  0
  -30.3420  -12.4680   19.1300 C   0  0  0  0  0  2  0  0  0  0  0  0
  -29.3690  -12.6210   17.9400 C   0  0  0  0  0  2  0  0  0  0  0  0
  -27.9070  -12.4530   18.3970 C   0  0  0  0  0  2  0  0  0  0  0  0
  -27.5740  -13.2920   19.6600 C   0  0  0  0  0  3  0  0  0  0  0  0
  -28.6580  -13.1130   20.7480 C   0  0  0  0  0  2  0  0  0  0  0  0
  -29.9560  -13.4640   20.1490 N   0  0  0  0  0  0  0  0  0  0  0  0
  -31.7380  -14.8360   19.8460 O   0  0  0  0  0  0  0  0  0  0  0  0
  -29.7770  -15.7310   20.5950 N   0  0  0  0  0  0  0  0  0  0  0  0
  -28.8370  -15.4450   20.8310 H   0  0  0  0  0  0  0  0  0  0  0  0
  -25.1850  -13.8740   20.4080 C   0  0  0  0  0  0  0  0  0  0  0  0
  -24.1310  -13.0930   20.7950 C   0  0  0  0  0  0  0  0  0  0  0  0
  -24.6050  -11.7460   20.7680 C   0  0  0  0  0  0  0  0  0  0  0  0
  -26.2360  -13.0020   20.1670 N   0  0  0  0  0  0  0  0  0  0  0  0
  -25.8930  -11.7170   20.4440 N   0  0  0  0  0  0  0  0  0  0  0  0
  -23.8930  -10.4790   20.9780 C   0  0  0  0  0  0  0  0  0  0  0  0
  -24.3430   -9.5250   21.9170 C   0  0  0  0  0  3  0  0  0  0  0  0
  -23.6310   -8.3230   22.1140 C   0  0  0  0  0  3  0  0  0  0  0  0
  -22.4550   -8.0640   21.3700 C   0  0  0  0  0  0  0  0  0  0  0  0
  -22.0240   -9.0070   20.4200 C   0  0  0  0  0  3  0  0  0  0  0  0
  -22.7370  -10.2010   20.2210 C   0  0  0  0  0  3  0  0  0  0  0  0
  -21.7130   -6.9130   21.4740 O   0  0  0  0  0  0  0  0  0  0  0  0
  -21.6750   -6.1840   22.6370 C   0  0  0  0  0  0  0  0  0  0  0  0
  -21.2330   -6.7460   23.8540 C   0  0  0  0  0  3  0  0  0  0  0  0
  -21.1420   -5.9440   25.0080 C   0  0  0  0  0  3  0  0  0  0  0  0
  -21.4840   -4.5800   24.9470 C   0  0  0  0  0  0  0  0  0  0  0  0
  -21.9190   -4.0160   23.7350 C   0  0  0  0  0  3  0  0  0  0  0  0
  -22.0110   -4.8170   22.5820 C   0  0  0  0  0  0  0  0  0  0  0  0
  -22.4110   -4.2640   21.4110 F   0  0  0  0  0  0  0  0  0  0  0  0
  -21.3910   -3.8070   26.0540 F   0  0  0  0  0  0  0  0  0  0  0  0
  -22.7320  -13.5600   21.0830 C   0  0  0  0  0  0  0  0  0  0  0  0
  -22.0250  -12.8660   21.9680 N   0  0  0  0  0  0  0  0  0  0  0  0
  -22.2760  -14.5740   20.5590 O   0  0  0  0  0  0  0  0  0  0  0  0
  -22.4060  -12.0460   22.4140 H   0  0  0  0  0  0  0  0  0  0  0  0
  -21.0880  -13.1620   22.2030 H   0  0  0  0  0  0  0  0  0  0  0  0
  -25.3310  -15.2450   20.2240 N   0  0  0  0  0  0  0  0  0  0  0  0
  -24.5600  -15.8860   20.3700 H   0  0  0  0  0  0  0  0  0  0  0  0
  -26.1840  -15.7230   19.9610 H   0  0  0  0  0  0  0  0  0  0  0  0
  -29.0330  -22.6480   20.2300 C   0  0  0  0  0  3  0  0  0  0  0  0
  -29.1960  -24.0160   20.1460 C   0  0  0  0  0  3  0  0  0  0  0  0
  -28.0800  -25.0700   19.8720 C   0  0  0  0  0  2  0  0  0  0  0  0
  -28.3140  -26.4950   20.2070 O   0  0  0  0  0  0  0  0  0  0  0  0
  -24.6110  -31.8790   23.2950 C   0  0  0  0  0  0  0  0  0  0  0  0
  -27.1980  -27.3520   20.1690 C   0  0  0  0  0  0  0  0  0  0  0  0
  -23.3960  -30.5020   21.6470 C   0  0  0  0  0  3  0  0  0  0  0  0
  -24.8350  -28.9710   20.1950 C   0  0  0  0  0  0  0  0  0  0  0  0
  -25.9360  -30.8180   21.4550 C   0  0  0  0  0  2  0  0  0  0  0  0
  -26.0100  -29.4480   20.7920 C   0  0  0  0  0  0  0  0  0  0  0  0
  -27.1930  -28.6500   20.7710 C   0  0  0  0  0  3  0  0  0  0  0  0
  -25.9950  -26.9360   19.5480 C   0  0  0  0  0  3  0  0  0  0  0  0
  -24.8300  -27.7200   19.5660 C   0  0  0  0  0  3  0  0  0  0  0  0
  -23.6010  -29.8470   20.2590 C   0  0  0  0  0  2  0  0  0  0  0  0
  -24.6670  -31.0820   22.1890 N   0  0  0  0  0  0  0  0  0  0  0  0
  -23.5300  -32.1530   23.8380 O   0  0  0  0  0  0  0  0  0  0  0  0
  -22.7370  -29.4730   22.5980 C   0  0  0  0  0  0  0  0  0  0  0  0
  -21.4120  -29.2900   22.4670 N   0  0  0  0  0  0  0  0  0  0  0  0
  -23.4170  -28.8440   23.4130 O   0  0  0  0  0  0  0  0  0  0  0  0
  -20.9220  -29.8500   21.7830 H   0  0  0  0  0  0  0  0  0  0  0  0
  -18.0390  -28.0760   22.9480 C   0  0  0  0  0  0  0  0  0  0  0  0
  -20.5950  -28.3450   23.2290 C   0  0  0  0  0  3  0  0  0  0  0  0
  -20.7060  -26.9160   22.6480 C   0  0  0  0  0  2  0  0  0  0  0  0
  -19.6090  -26.5930   21.6280 C   0  0  0  0  0  2  0  0  0  0  0  0
  -18.2240  -26.7290   22.2680 C   0  0  0  0  0  2  0  0  0  0  0  0
  -19.1520  -28.8410   23.3850 C   0  0  0  0  0  0  0  0  0  0  0  0
  -18.9250  -30.1010   23.9810 C   0  0  0  0  0  3  0  0  0  0  0  0
  -17.6170  -30.5950   24.1450 C   0  0  0  0  0  3  0  0  0  0  0  0
  -16.5180  -29.8270   23.7220 C   0  0  0  0  0  3  0  0  0  0  0  0
  -16.7300  -28.5690   23.1300 C   0  0  0  0  0  3  0  0  0  0  0  0
  -25.8980  -32.5020   23.9180 C   0  0  0  0  0  3  0  0  0  0  0  0
  -26.4070  -31.7280   25.1960 C   0  0  1  0  0  0  0  0  0  0  0  0
  -25.3100  -31.5000   26.2620 C   0  0  0  0  0  1  0  0  0  0  0  0
  -26.9810  -30.3460   24.8070 C   0  0  0  0  0  1  0  0  0  0  0  0
  -27.5620  -32.5140   25.8580 C   0  0  0  0  0  1  0  0  0  0  0  0
  -25.5980  -33.9020   24.2460 N   0  0  0  0  0  0  0  0  0  0  0  0
  -25.9150  -34.9500   23.4740 C   0  0  0  0  0  0  0  0  0  0  0  0
  -26.5610  -34.8400   22.4280 O   0  0  0  0  0  0  0  0  0  0  0  0
  -25.0220  -34.0630   25.0590 H   0  0  0  0  0  0  0  0  0  0  0  0
  -24.1710  -36.7370   23.1630 C   0  0  0  0  0  1  0  0  0  0  0  0
  -25.4400  -36.3420   23.9340 C   0  0  0  0  0  3  0  0  0  0  0  0
  -27.5990  -37.2420   24.6820 C   0  0  0  0  0  1  0  0  0  0  0  0
  -26.4660  -37.3960   23.7750 N   0  0  0  0  0  0  0  0  0  0  0  0
  -26.0630  -38.3170   23.9260 H   0  0  0  0  0  0  0  0  0  0  0  0
  1  6  1  0
  1  2  2  0
  3  4  1  0
  5  6  1  0
  5  8  2  0
  6  3  2  0
  7  4  2  0
  7 18  1  0
  8  7  1  0
  9  8  1  0
 10 18  1  0
 11 16  1  0
 12 13  1  0
 12 11  1  0
 14 13  1  0
 14 23  1  0
 14 15  1  0
 16 10  1  0
 16 15  1  0
 17 10  2  0
 18 19  1  0
 20 21  2  0
 21 40  1  0
 22 21  1  0
 22 25  1  0
 23 20  1  0
 23 24  1  0
 24 22  2  0
 25 26  1  0
 26 27  2  0
 28 31  1  0
 28 27  1  0
 29 28  2  0
 30 29  1  0
 30 25  2  0
 31 32  1  0
 32 33  1  0
 33 34  2  0
 35 34  1  0
 35 39  1  0
 36 35  2  0
 37 32  2  0
 37 36  1  0
 38 37  1  0
 40 41  1  0
 41 44  1  0
 41 43  1  0
 42 40  2  0
 45 46  1  0
 45 20  1  0
 47 45  1  0
 48  1  1  0
 49 48  2  0
 50 49  1  0
 50 51  1  0
 52 63  2  0
 53 51  1  0
 53 58  1  0
 54 62  1  0
 54 64  1  0
 55 61  1  0
 55 57  1  0
 56 62  1  0
 57 56  1  0
 58 57  2  0
 59 60  1  0
 59 53  2  0
 60 55  2  0
 61 54  1  0
 62 52  1  0
 64 66  2  0
 65 64  1  0
 67 65  1  0
 68 77  2  0
 68 73  1  0
 69 65  1  0
 69 73  1  0
 70 69  1  0
 71 72  1  0
 71 70  1  0
 72 68  1  0
 73 74  2  0
 74 75  1  0
 76 75  2  0
 77 76  1  0
 78 52  1  0
 78 83  1  0
 78 79  1  0
 79 82  1  1
 79 80  1  0
 81 79  1  0
 83 86  1  0
 84 88  1  0
 84 83  1  0
 85 84  2  0
 88 87  1  0
 90 91  1  0
 90 88  1  0
 90 89  1  0
M  ISO  4  10 100  18 100  50 101  51 101
M  END
>  <TORSDO>  (38) 
F 19

>  <SCORE>  (38) 
-14.462

>  <name>  (38) 
38

>  <ligand_id>  (38) 
38

>  <original_smiles>  (38) 
[H]C(C(=O)c1c([H])c([H])c(N([H])C(=O)N2C([H])([H])C([H])([H])C([H])([H])C([H])(n3nc(-c4c([H])c([H])c(Oc5c([H])c([H])c(F)c([H])c5F)c([H])c4[H])c(C(=O)N([H])[H])c3N([H])[H])C2([H])[H])c(F)c1[H])=C([H])C([H])([H])Oc1c([H])c([H])c2c(c1[H])C([H])([H])N(C(=O)C([H])(N([H])C(=O)C([H])(N([H])C([H])([H])[H])C([H])([H])[H])C(C([H])([H])[H])(C([H])([H])[H])C([H])([H])[H])C([H])(C(=O)N([H])C1([H])c3c([H])c([H])c([H])c([H])c3C([H])([H])C([H])([H])C1([H])[H])C2([H])[H]

>  <smiles>  (38) 
[H]C(C(=O)c1c([H])c([H])c(N([H])C(=O)N2C([H])([H])C([H])([H])C([H])([H])C([H])(n3nc(-c4c([H])c([H])c(Oc5c([H])c([H])c(F)c([H])c5F)c([H])c4[H])c(C(=O)N([H])[H])c3N([H])[H])C2([H])[H])c(F)c1[H])=C([H])C([H])([H])Oc1c([H])c([H])c2c(c1[H])C([H])([H])N(C(=O)C([H])(N([H])C(=O)C([H])(N([H])C([H])([H])[H])C([H])([H])[H])C(C([H])([H])[H])(C([H])([H])[H])C([H])([H])[H])C([H])(C(=O)N([H])C1([H])c3c([H])c([H])c([H])c([H])c3C([H])([H])C([H])([H])C1([H])[H])C2([H])[H]

$$$$
39:0:0
     RDKit          3D

 93101  0  0  1  0  0  0  0  0999 V2000
  -30.3710  -22.0080   20.0550 N   0  0  0  0  0  0  0  0  0  0  0  0
  -31.2480  -22.5260   20.0730 H   0  0  0  0  0  0  0  0  0  0  0  0
  -29.4170  -18.4720   20.9910 C   0  0  0  0  0  3  0  0  0  0  0  0
  -29.2830  -19.8310   20.6030 C   0  0  0  0  0  3  0  0  0  0  0  0
  -31.8340  -18.6990   20.9310 C   0  0  0  0  0  3  0  0  0  0  0  0
  -30.6960  -17.9000   21.1810 C   0  0  0  0  0  0  0  0  0  0  0  0
  -30.4280  -20.6400   20.3950 C   0  0  0  0  0  0  0  0  0  0  0  0
  -31.7030  -20.0490   20.5440 C   0  0  0  0  0  0  0  0  0  0  0  0
  -32.8170  -20.7960   20.3430 F   0  0  0  0  0  0  0  0  0  0  0  0
  -30.8860  -16.4960   21.7700 C   0  0  0  0  0  2  0  0  0  0  0  0
  -30.7430  -14.4520   20.3380 C   0  0  0  0  0  0  0  0  0  0  0  0
  -30.3690  -12.3540   19.0850 C   0  0  0  0  0  2  0  0  0  0  0  0
  -29.3980  -12.5870   17.9100 C   0  0  0  0  0  2  0  0  0  0  0  0
  -27.9350  -12.4480   18.3740 C   0  0  0  0  0  2  0  0  0  0  0  0
  -27.6360  -13.2610   19.6610 C   0  0  0  0  0  3  0  0  0  0  0  0
  -28.7120  -13.0020   20.7380 C   0  0  0  0  0  2  0  0  0  0  0  0
  -30.0260  -13.3110   20.1480 N   0  0  0  0  0  0  0  0  0  0  0  0
  -31.8320  -14.6560   19.7940 O   0  0  0  0  0  0  0  0  0  0  0  0
  -30.1790  -15.3750   21.1370 N   0  0  0  0  0  0  0  0  0  0  0  0
  -29.2630  -15.1560   21.4940 H   0  0  0  0  0  0  0  0  0  0  0  0
  -25.2500  -13.8750   20.4030 C   0  0  0  0  0  0  0  0  0  0  0  0
  -24.1860  -13.1060   20.7930 C   0  0  0  0  0  0  0  0  0  0  0  0
  -24.6450  -11.7530   20.7610 C   0  0  0  0  0  0  0  0  0  0  0  0
  -26.2900  -12.9900   20.1630 N   0  0  0  0  0  0  0  0  0  0  0  0
  -25.9300  -11.7100   20.4340 N   0  0  0  0  0  0  0  0  0  0  0  0
  -23.9200  -10.4930   20.9670 C   0  0  0  0  0  0  0  0  0  0  0  0
  -24.3610   -9.5320   21.9040 C   0  0  0  0  0  3  0  0  0  0  0  0
  -23.6370   -8.3350   22.0960 C   0  0  0  0  0  3  0  0  0  0  0  0
  -22.4570   -8.0920   21.3530 C   0  0  0  0  0  0  0  0  0  0  0  0
  -22.0370   -9.0420   20.4040 C   0  0  0  0  0  3  0  0  0  0  0  0
  -22.7610  -10.2290   20.2110 C   0  0  0  0  0  3  0  0  0  0  0  0
  -21.7030   -6.9480   21.4540 O   0  0  0  0  0  0  0  0  0  0  0  0
  -21.6600   -6.2160   22.6130 C   0  0  0  0  0  0  0  0  0  0  0  0
  -21.2350   -6.7790   23.8370 C   0  0  0  0  0  3  0  0  0  0  0  0
  -21.1410   -5.9720   24.9880 C   0  0  0  0  0  3  0  0  0  0  0  0
  -21.4600   -4.6030   24.9170 C   0  0  0  0  0  0  0  0  0  0  0  0
  -21.8780   -4.0390   23.6990 C   0  0  0  0  0  3  0  0  0  0  0  0
  -21.9750   -4.8430   22.5490 C   0  0  0  0  0  0  0  0  0  0  0  0
  -22.3570   -4.2900   21.3730 F   0  0  0  0  0  0  0  0  0  0  0  0
  -21.3640   -3.8260   26.0210 F   0  0  0  0  0  0  0  0  0  0  0  0
  -22.7940  -13.5860   21.0850 C   0  0  0  0  0  0  0  0  0  0  0  0
  -22.0770  -12.8940   21.9630 N   0  0  0  0  0  0  0  0  0  0  0  0
  -22.3510  -14.6120   20.5700 O   0  0  0  0  0  0  0  0  0  0  0  0
  -22.4490  -12.0640   22.4010 H   0  0  0  0  0  0  0  0  0  0  0  0
  -21.1440  -13.1990   22.2020 H   0  0  0  0  0  0  0  0  0  0  0  0
  -25.4170  -15.2440   20.2150 N   0  0  0  0  0  0  0  0  0  0  0  0
  -24.6550  -15.9040   20.3210 H   0  0  0  0  0  0  0  0  0  0  0  0
  -26.2640  -15.6710   19.8610 H   0  0  0  0  0  0  0  0  0  0  0  0
  -29.1500  -22.8150   20.1940 C   0  0  0  0  0  2  0  0  0  0  0  0
  -29.3960  -24.3450   20.1600 C   0  0  0  0  0  0  0  0  0  0  0  0
  -30.5260  -24.8190   20.3250 O   0  0  0  0  0  0  0  0  0  0  0  0
  -28.1650  -25.2300   19.8890 C   0  0  0  0  0  2  0  0  0  0  0  0
  -28.3570  -26.6360   20.1740 O   0  0  0  0  0  0  0  0  0  0  0  0
  -24.5790  -31.8860   23.2270 C   0  0  0  0  0  0  0  0  0  0  0  0
  -27.2000  -27.4020   20.1510 C   0  0  0  0  0  0  0  0  0  0  0  0
  -23.3700  -30.4860   21.5910 C   0  0  0  0  0  3  0  0  0  0  0  0
  -24.8160  -28.9460   20.1680 C   0  0  0  0  0  0  0  0  0  0  0  0
  -25.9020  -30.8250   21.3980 C   0  0  0  0  0  2  0  0  0  0  0  0
  -25.9820  -29.4530   20.7550 C   0  0  0  0  0  0  0  0  0  0  0  0
  -27.1770  -28.6910   20.7420 C   0  0  0  0  0  3  0  0  0  0  0  0
  -26.0050  -26.9230   19.5550 C   0  0  0  0  0  3  0  0  0  0  0  0
  -24.8240  -27.6810   19.5650 C   0  0  0  0  0  3  0  0  0  0  0  0
  -23.5770  -29.8100   20.2130 C   0  0  0  0  0  2  0  0  0  0  0  0
  -24.6360  -31.0800   22.1290 N   0  0  0  0  0  0  0  0  0  0  0  0
  -23.4980  -32.1640   23.7630 O   0  0  0  0  0  0  0  0  0  0  0  0
  -22.7150  -29.4650   22.5510 C   0  0  0  0  0  0  0  0  0  0  0  0
  -21.3880  -29.2900   22.4270 N   0  0  0  0  0  0  0  0  0  0  0  0
  -23.3960  -28.8340   23.3630 O   0  0  0  0  0  0  0  0  0  0  0  0
  -20.8990  -29.8530   21.7440 H   0  0  0  0  0  0  0  0  0  0  0  0
  -18.0050  -28.1320   22.9470 C   0  0  0  0  0  0  0  0  0  0  0  0
  -20.5680  -28.3570   23.1990 C   0  0  0  0  0  3  0  0  0  0  0  0
  -20.6480  -26.9270   22.6160 C   0  0  0  0  0  2  0  0  0  0  0  0
  -19.5340  -26.6220   21.6090 C   0  0  0  0  0  2  0  0  0  0  0  0
  -18.1590  -26.7840   22.2630 C   0  0  0  0  0  2  0  0  0  0  0  0
  -19.1360  -28.8780   23.3720 C   0  0  0  0  0  0  0  0  0  0  0  0
  -18.9380  -30.1420   23.9680 C   0  0  0  0  0  3  0  0  0  0  0  0
  -17.6410  -30.6590   24.1450 C   0  0  0  0  0  3  0  0  0  0  0  0
  -16.5240  -29.9100   23.7380 C   0  0  0  0  0  3  0  0  0  0  0  0
  -16.7070  -28.6480   23.1450 C   0  0  0  0  0  3  0  0  0  0  0  0
  -25.8660  -32.5150   23.8450 C   0  0  0  0  0  3  0  0  0  0  0  0
  -25.5610  -33.9140   24.1710 N   0  0  0  0  0  0  0  0  0  0  0  0
  -25.8980  -34.9640   23.4100 C   0  0  0  0  0  0  0  0  0  0  0  0
  -26.5710  -34.8560   22.3820 O   0  0  0  0  0  0  0  0  0  0  0  0
  -24.9680  -34.0720   24.9740 H   0  0  0  0  0  0  0  0  0  0  0  0
  -24.1790  -36.7600   23.0330 C   0  0  0  0  0  1  0  0  0  0  0  0
  -25.4090  -36.3530   23.8610 C   0  0  0  0  0  3  0  0  0  0  0  0
  -27.5420  -37.2220   24.7120 C   0  0  0  0  0  1  0  0  0  0  0  0
  -26.4440  -37.4050   23.7650 N   0  0  0  0  0  0  0  0  0  0  0  0
  -26.0380  -38.3220   23.9300 H   0  0  0  0  0  0  0  0  0  0  0  0
  -26.3820  -31.7440   25.1210 C   0  0  1  0  0  0  0  0  0  0  0  0
  -25.2910  -31.5120   26.1920 C   0  0  0  0  0  1  0  0  0  0  0  0
  -26.9600  -30.3650   24.7280 C   0  0  0  0  0  1  0  0  0  0  0  0
  -27.5380  -32.5360   25.7790 C   0  0  0  0  0  1  0  0  0  0  0  0
  1  2  1  0
  1 49  1  0
  1  7  1  0
  3  6  1  0
  4  3  2  0
  5  6  2  0
  6 10  1  0
  7  8  2  0
  7  4  1  0
  8  5  1  0
  9  8  1  0
 11 19  1  0
 12 17  1  0
 13 14  1  0
 13 12  1  0
 15 14  1  0
 15 24  1  0
 15 16  1  0
 17 11  1  0
 17 16  1  0
 18 11  2  0
 19 20  1  0
 19 10  1  0
 21 22  2  0
 22 41  1  0
 23 22  1  0
 23 26  1  0
 24 21  1  0
 24 25  1  0
 25 23  2  0
 26 27  1  0
 27 28  2  0
 29 32  1  0
 29 28  1  0
 30 29  2  0
 31 30  1  0
 31 26  2  0
 32 33  1  0
 33 34  1  0
 34 35  2  0
 36 35  1  0
 36 40  1  0
 37 36  2  0
 38 33  2  0
 38 37  1  0
 39 38  1  0
 41 42  1  0
 42 45  1  0
 42 44  1  0
 43 41  2  0
 46 47  1  0
 46 21  1  0
 48 46  1  0
 50 49  1  0
 50 51  2  0
 52 50  1  0
 52 53  1  0
 54 65  2  0
 55 53  1  0
 55 60  1  0
 56 64  1  0
 56 66  1  0
 57 63  1  0
 57 59  1  0
 58 64  1  0
 59 58  1  0
 60 59  2  0
 61 62  1  0
 61 55  2  0
 62 57  2  0
 63 56  1  0
 64 54  1  0
 66 68  2  0
 67 66  1  0
 69 67  1  0
 70 79  2  0
 70 75  1  0
 71 67  1  0
 71 75  1  0
 72 71  1  0
 73 74  1  0
 73 72  1  0
 74 70  1  0
 75 76  2  0
 76 77  1  0
 78 77  2  0
 79 78  1  0
 80 54  1  0
 80 81  1  0
 80 90  1  0
 81 84  1  0
 82 86  1  0
 82 81  1  0
 83 82  2  0
 86 85  1  0
 88 86  1  0
 88 89  1  0
 88 87  1  0
 90 93  1  1
 90 91  1  0
 92 90  1  0
M  ISO  4  11 100  19 100  52 101  53 101
M  END
>  <TORSDO>  (39) 
F 21

>  <SCORE>  (39) 
-13.634

>  <name>  (39) 
39

>  <ligand_id>  (39) 
39

>  <original_smiles>  (39) 
[H]c1c([H])c([H])c2c(c1[H])C([H])([H])C([H])([H])C([H])([H])C2([H])N([H])C(=O)C1([H])N(C(=O)C([H])(N([H])C(=O)C([H])(N([H])C([H])([H])[H])C([H])([H])[H])C(C([H])([H])[H])(C([H])([H])[H])C([H])([H])[H])C([H])([H])c2c([H])c(OC([H])([H])C(=O)C([H])([H])N([H])c3c([H])c([H])c(C([H])([H])N([H])C(=O)N4C([H])([H])C([H])([H])C([H])([H])C([H])(n5nc(-c6c([H])c([H])c(Oc7c([H])c([H])c(F)c([H])c7F)c([H])c6[H])c(C(=O)N([H])[H])c5N([H])[H])C4([H])[H])c([H])c3F)c([H])c([H])c2C1([H])[H]

>  <smiles>  (39) 
[H]c1c([H])c([H])c2c(c1[H])C([H])([H])C([H])([H])C([H])([H])C2([H])N([H])C(=O)C1([H])N(C(=O)C([H])(N([H])C(=O)C([H])(N([H])C([H])([H])[H])C([H])([H])[H])C(C([H])([H])[H])(C([H])([H])[H])C([H])([H])[H])C([H])([H])c2c([H])c(OC([H])([H])C(=O)C([H])([H])N([H])c3c([H])c([H])c(C([H])([H])N([H])C(=O)N4C([H])([H])C([H])([H])C([H])([H])C([H])(n5nc(-c6c([H])c([H])c(Oc7c([H])c([H])c(F)c([H])c7F)c([H])c6[H])c(C(=O)N([H])[H])c5N([H])[H])C4([H])[H])c([H])c3F)c([H])c([H])c2C1([H])[H]

$$$$
40:0:0
     RDKit          3D

 93101  0  0  1  0  0  0  0  0999 V2000
  -30.3520  -21.1070   21.7120 N   0  0  0  0  0  0  0  0  0  0  0  0
  -30.3430  -21.4080   22.6840 H   0  0  0  0  0  0  0  0  0  0  0  0
  -30.6580  -18.8520   22.5180 C   0  0  0  0  0  3  0  0  0  0  0  0
  -30.0410  -19.1610   20.1920 C   0  0  0  0  0  3  0  0  0  0  0  0
  -30.6510  -17.4480   22.3450 C   0  0  0  0  0  0  0  0  0  0  0  0
  -30.3480  -19.7220   21.4530 C   0  0  0  0  0  0  0  0  0  0  0  0
  -30.3570  -16.8880   21.0790 C   0  0  0  0  0  0  0  0  0  0  0  0
  -30.0390  -17.7590   20.0040 C   0  0  0  0  0  0  0  0  0  0  0  0
  -30.9380  -16.5580   23.5440 C   0  0  0  0  0  1  0  0  0  0  0  0
  -29.6690  -17.2620   18.7980 F   0  0  0  0  0  0  0  0  0  0  0  0
  -30.8280  -14.6360   20.0730 C   0  0  0  0  0  0  0  0  0  0  0  0
  -30.4860  -12.5240   18.8280 C   0  0  0  0  0  2  0  0  0  0  0  0
  -29.4630  -12.7570   17.6970 C   0  0  0  0  0  2  0  0  0  0  0  0
  -28.0160  -12.6010   18.2090 C   0  0  0  0  0  2  0  0  0  0  0  0
  -27.7620  -13.3930   19.5180 C   0  0  0  0  0  3  0  0  0  0  0  0
  -28.8780  -13.1070   20.5470 C   0  0  0  0  0  2  0  0  0  0  0  0
  -30.1730  -13.4510   19.9250 N   0  0  0  0  0  0  0  0  0  0  0  0
  -31.8600  -14.9170   19.4530 O   0  0  0  0  0  0  0  0  0  0  0  0
  -30.2660  -15.4670   20.9680 N   0  0  0  0  0  0  0  0  0  0  0  0
  -29.5740  -15.0340   21.5600 H   0  0  0  0  0  0  0  0  0  0  0  0
  -25.4140  -13.9840   20.3970 C   0  0  0  0  0  0  0  0  0  0  0  0
  -24.3690  -13.2010   20.8080 C   0  0  0  0  0  0  0  0  0  0  0  0
  -24.8220  -11.8500   20.6990 C   0  0  0  0  0  0  0  0  0  0  0  0
  -26.4390  -13.1080   20.0690 N   0  0  0  0  0  0  0  0  0  0  0  0
  -26.0880  -11.8180   20.3040 N   0  0  0  0  0  0  0  0  0  0  0  0
  -24.1050  -10.5830   20.8920 C   0  0  0  0  0  0  0  0  0  0  0  0
  -24.5300   -9.6310   21.8460 C   0  0  0  0  0  3  0  0  0  0  0  0
  -23.8140   -8.4280   22.0250 C   0  0  0  0  0  3  0  0  0  0  0  0
  -22.6590   -8.1680   21.2500 C   0  0  0  0  0  0  0  0  0  0  0  0
  -22.2530   -9.1090   20.2860 C   0  0  0  0  0  3  0  0  0  0  0  0
  -22.9690  -10.3040   20.1060 C   0  0  0  0  0  3  0  0  0  0  0  0
  -21.9170   -7.0150   21.3360 O   0  0  0  0  0  0  0  0  0  0  0  0
  -21.7470   -6.3550   22.5270 C   0  0  0  0  0  0  0  0  0  0  0  0
  -21.1820   -6.9880   23.6550 C   0  0  0  0  0  3  0  0  0  0  0  0
  -20.9600   -6.2540   24.8370 C   0  0  0  0  0  3  0  0  0  0  0  0
  -21.2960   -4.8870   24.8910 C   0  0  0  0  0  0  0  0  0  0  0  0
  -21.8550   -4.2540   23.7670 C   0  0  0  0  0  3  0  0  0  0  0  0
  -22.0760   -4.9860   22.5870 C   0  0  0  0  0  0  0  0  0  0  0  0
  -22.5950   -4.3660   21.5000 F   0  0  0  0  0  0  0  0  0  0  0  0
  -21.0780   -4.1800   26.0230 F   0  0  0  0  0  0  0  0  0  0  0  0
  -22.9950  -13.6680   21.1890 C   0  0  0  0  0  0  0  0  0  0  0  0
  -22.3330  -12.9540   22.0920 N   0  0  0  0  0  0  0  0  0  0  0  0
  -22.5180  -14.7030   20.7230 O   0  0  0  0  0  0  0  0  0  0  0  0
  -22.7300  -12.1150   22.4870 H   0  0  0  0  0  0  0  0  0  0  0  0
  -21.4130  -13.2490   22.3900 H   0  0  0  0  0  0  0  0  0  0  0  0
  -25.5750  -15.3590   20.2590 N   0  0  0  0  0  0  0  0  0  0  0  0
  -24.8240  -16.0160   20.4430 H   0  0  0  0  0  0  0  0  0  0  0  0
  -26.4110  -15.8050   19.9020 H   0  0  0  0  0  0  0  0  0  0  0  0
  -30.0120  -22.1100   20.7030 C   0  0  0  0  0  2  0  0  0  0  0  0
  -29.6560  -23.4630   21.3620 C   0  0  0  0  0  2  0  0  0  0  0  0
  -29.3970  -24.6270   20.3750 C   0  0  0  0  0  2  0  0  0  0  0  0
  -28.7690  -25.8640   21.0580 C   0  0  0  0  0  2  0  0  0  0  0  0
  -28.6930  -26.9840   20.1700 O   0  0  0  0  0  0  0  0  0  0  0  0
  -24.6380  -31.9540   23.2920 C   0  0  0  0  0  0  0  0  0  0  0  0
  -27.4990  -27.6650   20.2030 C   0  0  0  0  0  0  0  0  0  0  0  0
  -23.5100  -30.5290   21.6140 C   0  0  0  0  0  3  0  0  0  0  0  0
  -25.0430  -29.0610   20.1980 C   0  0  0  0  0  0  0  0  0  0  0  0
  -26.0190  -30.9890   21.4550 C   0  0  0  0  0  2  0  0  0  0  0  0
  -26.1700  -29.6280   20.8090 C   0  0  0  0  0  0  0  0  0  0  0  0
  -27.4030  -28.9380   20.8080 C   0  0  0  0  0  3  0  0  0  0  0  0
  -26.3590  -27.1030   19.5940 C   0  0  0  0  0  3  0  0  0  0  0  0
  -25.1310  -27.7950   19.5890 C   0  0  0  0  0  3  0  0  0  0  0  0
  -23.7670  -29.8720   20.2310 C   0  0  0  0  0  2  0  0  0  0  0  0
  -24.7400  -31.1710   22.1800 N   0  0  0  0  0  0  0  0  0  0  0  0
  -23.5400  -32.1770   23.8190 O   0  0  0  0  0  0  0  0  0  0  0  0
  -22.8820  -29.4730   22.5520 C   0  0  0  0  0  0  0  0  0  0  0  0
  -21.5760  -29.2180   22.3770 N   0  0  0  0  0  0  0  0  0  0  0  0
  -23.5680  -28.8870   23.3940 O   0  0  0  0  0  0  0  0  0  0  0  0
  -21.0820  -29.7450   21.6690 H   0  0  0  0  0  0  0  0  0  0  0  0
  -18.2670  -27.8090   22.7220 C   0  0  0  0  0  0  0  0  0  0  0  0
  -20.7850  -28.2370   23.1180 C   0  0  0  0  0  3  0  0  0  0  0  0
  -21.0090  -26.8110   22.5660 C   0  0  0  0  0  2  0  0  0  0  0  0
  -19.9850  -26.4080   21.5010 C   0  0  0  0  0  2  0  0  0  0  0  0
  -18.5660  -26.4670   22.0740 C   0  0  0  0  0  2  0  0  0  0  0  0
  -19.3090  -28.6470   23.1980 C   0  0  0  0  0  0  0  0  0  0  0  0
  -18.9800  -29.8990   23.7610 C   0  0  0  0  0  3  0  0  0  0  0  0
  -17.6390  -30.3160   23.8530 C   0  0  0  0  0  3  0  0  0  0  0  0
  -16.6100  -29.4780   23.3920 C   0  0  0  0  0  3  0  0  0  0  0  0
  -16.9240  -28.2260   22.8330 C   0  0  0  0  0  3  0  0  0  0  0  0
  -25.8910  -32.6230   23.9400 C   0  0  0  0  0  3  0  0  0  0  0  0
  -25.5440  -34.0190   24.2310 N   0  0  0  0  0  0  0  0  0  0  0  0
  -25.8770  -35.0610   23.4570 C   0  0  0  0  0  0  0  0  0  0  0  0
  -26.5780  -34.9500   22.4470 O   0  0  0  0  0  0  0  0  0  0  0  0
  -24.9240  -34.1790   25.0110 H   0  0  0  0  0  0  0  0  0  0  0  0
  -24.1160  -36.8030   23.0210 C   0  0  0  0  0  1  0  0  0  0  0  0
  -25.3480  -36.4480   23.8690 C   0  0  0  0  0  3  0  0  0  0  0  0
  -27.4420  -37.4020   24.7240 C   0  0  0  0  0  1  0  0  0  0  0  0
  -26.3590  -37.5220   23.7520 N   0  0  0  0  0  0  0  0  0  0  0  0
  -25.9270  -38.4360   23.8680 H   0  0  0  0  0  0  0  0  0  0  0  0
  -26.3850  -31.8840   25.2430 C   0  0  1  0  0  0  0  0  0  0  0  0
  -25.2630  -31.6230   26.2730 C   0  0  0  0  0  1  0  0  0  0  0  0
  -27.0280  -30.5230   24.8860 C   0  0  0  0  0  1  0  0  0  0  0  0
  -27.4850  -32.7220   25.9350 C   0  0  0  0  0  1  0  0  0  0  0  0
  1  2  1  0
  4  6  1  0
  5  3  1  0
  5  9  1  0
  6  1  1  0
  6  3  2  0
  7  5  2  0
  8  4  2  0
  8  7  1  0
 10  8  1  0
 11 19  1  0
 12 17  1  0
 13 14  1  0
 13 12  1  0
 15 14  1  0
 15 24  1  0
 15 16  1  0
 17 11  1  0
 17 16  1  0
 18 11  2  0
 19  7  1  0
 19 20  1  0
 21 22  2  0
 22 41  1  0
 23 22  1  0
 23 26  1  0
 24 25  1  0
 24 21  1  0
 25 23  2  0
 26 27  1  0
 27 28  2  0
 29 32  1  0
 29 28  1  0
 30 29  2  0
 31 30  1  0
 31 26  2  0
 32 33  1  0
 33 38  2  0
 33 34  1  0
 34 35  2  0
 35 36  1  0
 36 40  1  0
 37 36  2  0
 38 37  1  0
 39 38  1  0
 41 42  1  0
 42 45  1  0
 42 44  1  0
 43 41  2  0
 46 21  1  0
 46 47  1  0
 48 46  1  0
 49 50  1  0
 49  1  1  0
 51 52  1  0
 51 50  1  0
 53 55  1  0
 53 52  1  0
 54 65  2  0
 55 60  1  0
 56 64  1  0
 56 66  1  0
 57 63  1  0
 57 59  1  0
 58 64  1  0
 59 58  1  0
 60 59  2  0
 61 55  2  0
 62 61  1  0
 62 57  2  0
 63 56  1  0
 64 54  1  0
 66 68  2  0
 67 66  1  0
 69 67  1  0
 70 79  2  0
 70 75  1  0
 71 67  1  0
 71 75  1  0
 72 71  1  0
 73 74  1  0
 73 72  1  0
 74 70  1  0
 75 76  2  0
 76 77  1  0
 78 77  2  0
 79 78  1  0
 80 54  1  0
 80 81  1  0
 80 90  1  0
 81 84  1  0
 82 86  1  0
 82 81  1  0
 83 82  2  0
 86 85  1  0
 88 89  1  0
 88 86  1  0
 88 87  1  0
 90 93  1  1
 90 91  1  0
 92 90  1  0
M  ISO  4  11 100  19 100  52 101  53 101
M  END
>  <TORSDO>  (40) 
F 21

>  <SCORE>  (40) 
-11.529

>  <name>  (40) 
40

>  <ligand_id>  (40) 
40

>  <original_smiles>  (40) 
[H]c1c([H])c([H])c2c(c1[H])C([H])([H])C([H])([H])C([H])([H])C2([H])N([H])C(=O)C1([H])N(C(=O)C([H])(N([H])C(=O)C([H])(N([H])C([H])([H])[H])C([H])([H])[H])C(C([H])([H])[H])(C([H])([H])[H])C([H])([H])[H])C([H])([H])c2c([H])c(OC([H])([H])C([H])([H])C([H])([H])C([H])([H])N([H])c3c([H])c(F)c(N([H])C(=O)N4C([H])([H])C([H])([H])C([H])([H])C([H])(n5nc(-c6c([H])c([H])c(Oc7c([H])c([H])c(F)c([H])c7F)c([H])c6[H])c(C(=O)N([H])[H])c5N([H])[H])C4([H])[H])c(C([H])([H])[H])c3[H])c([H])c([H])c2C1([H])[H]

>  <smiles>  (40) 
[H]c1c([H])c([H])c2c(c1[H])C([H])([H])C([H])([H])C([H])([H])C2([H])N([H])C(=O)C1([H])N(C(=O)C([H])(N([H])C(=O)C([H])(N([H])C([H])([H])[H])C([H])([H])[H])C(C([H])([H])[H])(C([H])([H])[H])C([H])([H])[H])C([H])([H])c2c([H])c(OC([H])([H])C([H])([H])C([H])([H])C([H])([H])N([H])c3c([H])c(F)c(N([H])C(=O)N4C([H])([H])C([H])([H])C([H])([H])C([H])(n5nc(-c6c([H])c([H])c(Oc7c([H])c([H])c(F)c([H])c7F)c([H])c6[H])c(C(=O)N([H])[H])c5N([H])[H])C4([H])[H])c(C([H])([H])[H])c3[H])c([H])c([H])c2C1([H])[H]

$$$$
41:0:0
     RDKit          3D

 89 98  0  0  1  0  0  0  0  0999 V2000
  -28.0800  -22.3490   19.7610 C   0  0  0  0  0  3  0  0  0  0  0  0
  -28.7880  -21.1200   20.1610 C   0  0  0  0  0  0  0  0  0  0  0  0
  -29.9370  -21.3970   20.7790 C   0  0  0  0  0  0  0  0  0  0  0  0
  -28.7140  -23.5780   20.0580 C   0  0  0  0  0  0  0  0  0  0  0  0
  -30.3830  -17.6280   20.8770 C   0  0  0  0  0  0  0  0  0  0  0  0
  -28.6700  -19.5650   20.0670 C   0  0  0  0  0  3  0  0  0  0  0  0
  -30.7080  -20.1470   21.1510 C   0  0  0  0  0  3  0  0  0  0  0  0
  -29.9140  -18.9500   20.6840 N   0  0  0  0  0  0  0  0  0  0  0  0
  -31.4800  -17.5130   21.4310 O   0  0  0  0  0  0  0  0  0  0  0  0
  -30.2230  -23.1520   20.9130 S   0  0  0  0  0  0  0  0  0  0  0  0
  -28.3680  -25.0250   19.4450 C   0  0  0  0  0  2  0  0  0  0  0  0
  -28.2790  -26.2990   20.2740 O   0  0  0  0  0  0  0  0  0  0  0  0
  -24.6050  -31.8840   23.2320 C   0  0  0  0  0  0  0  0  0  0  0  0
  -27.1970  -27.2300   20.1730 C   0  0  0  0  0  0  0  0  0  0  0  0
  -23.4030  -30.4880   21.5960 C   0  0  0  0  0  3  0  0  0  0  0  0
  -24.8500  -28.9310   20.1650 C   0  0  0  0  0  0  0  0  0  0  0  0
  -25.9530  -30.7730   21.4210 C   0  0  0  0  0  2  0  0  0  0  0  0
  -26.0270  -29.3880   20.7680 C   0  0  0  0  0  0  0  0  0  0  0  0
  -27.1980  -28.5500   20.7650 C   0  0  0  0  0  3  0  0  0  0  0  0
  -25.9800  -26.8560   19.5510 C   0  0  0  0  0  3  0  0  0  0  0  0
  -24.8350  -27.6750   19.5470 C   0  0  0  0  0  3  0  0  0  0  0  0
  -23.6190  -29.8170   20.2140 C   0  0  0  0  0  2  0  0  0  0  0  0
  -24.6740  -31.0670   22.1380 N   0  0  0  0  0  0  0  0  0  0  0  0
  -23.5200  -32.1660   23.7640 O   0  0  0  0  0  0  0  0  0  0  0  0
  -22.7330  -29.4730   22.5560 C   0  0  0  0  0  0  0  0  0  0  0  0
  -21.4060  -29.3010   22.4330 N   0  0  0  0  0  0  0  0  0  0  0  0
  -23.4090  -28.8460   23.3760 O   0  0  0  0  0  0  0  0  0  0  0  0
  -20.9170  -29.8590   21.7460 H   0  0  0  0  0  0  0  0  0  0  0  0
  -18.0240  -28.1100   22.9470 C   0  0  0  0  0  0  0  0  0  0  0  0
  -20.5850  -28.3650   23.2060 C   0  0  0  0  0  3  0  0  0  0  0  0
  -20.6810  -26.9330   22.6300 C   0  0  0  0  0  2  0  0  0  0  0  0
  -19.5750  -26.6130   21.6200 C   0  0  0  0  0  2  0  0  0  0  0  0
  -18.1950  -26.7610   22.2680 C   0  0  0  0  0  2  0  0  0  0  0  0
  -19.1470  -28.8700   23.3730 C   0  0  0  0  0  0  0  0  0  0  0  0
  -18.9310  -30.1320   23.9680 C   0  0  0  0  0  3  0  0  0  0  0  0
  -17.6280  -30.6340   24.1410 C   0  0  0  0  0  3  0  0  0  0  0  0
  -16.5210  -29.8720   23.7300 C   0  0  0  0  0  3  0  0  0  0  0  0
  -16.7200  -28.6110   23.1390 C   0  0  0  0  0  3  0  0  0  0  0  0
  -25.8850  -32.5200   23.8550 C   0  0  0  0  0  3  0  0  0  0  0  0
  -25.5750  -33.9200   24.1790 N   0  0  0  0  0  0  0  0  0  0  0  0
  -25.9070  -34.9720   23.4180 C   0  0  0  0  0  0  0  0  0  0  0  0
  -26.5740  -34.8640   22.3850 O   0  0  0  0  0  0  0  0  0  0  0  0
  -24.9820  -34.0780   24.9810 H   0  0  0  0  0  0  0  0  0  0  0  0
  -24.1820  -36.7690   23.0610 C   0  0  0  0  0  1  0  0  0  0  0  0
  -25.4230  -36.3630   23.8730 C   0  0  0  0  0  3  0  0  0  0  0  0
  -27.5590  -37.2470   24.7020 C   0  0  0  0  0  1  0  0  0  0  0  0
  -26.4580  -37.4140   23.7570 N   0  0  0  0  0  0  0  0  0  0  0  0
  -26.0530  -38.3350   23.9000 H   0  0  0  0  0  0  0  0  0  0  0  0
  -26.3940  -31.7570   25.1400 C   0  0  1  0  0  0  0  0  0  0  0  0
  -25.2970  -31.5300   26.2050 C   0  0  0  0  0  1  0  0  0  0  0  0
  -26.9750  -30.3740   24.7630 C   0  0  0  0  0  1  0  0  0  0  0  0
  -27.5450  -32.5520   25.8000 C   0  0  0  0  0  1  0  0  0  0  0  0
  -29.6280  -16.2360   20.5300 C   0  0  0  0  0  2  0  0  0  0  0  0
  -30.5120  -14.8630   20.3530 C   0  0  0  0  0  0  0  0  0  0  0  0
  -30.3790  -12.5530   19.3660 C   0  0  0  0  0  2  0  0  0  0  0  0
  -29.4350  -12.6020   18.1410 C   0  0  0  0  0  2  0  0  0  0  0  0
  -27.9690  -12.4010   18.5710 C   0  0  0  0  0  2  0  0  0  0  0  0
  -27.5830  -13.2800   19.7880 C   0  0  0  0  0  3  0  0  0  0  0  0
  -28.6460  -13.2150   20.9050 C   0  0  0  0  0  2  0  0  0  0  0  0
  -29.9360  -13.6020   20.3210 N   0  0  0  0  0  0  0  0  0  0  0  0
  -31.7010  -14.9420   20.0250 O   0  0  0  0  0  0  0  0  0  0  0  0
  -25.1940  -13.8350   20.5350 C   0  0  0  0  0  0  0  0  0  0  0  0
  -24.1390  -13.0470   20.9050 C   0  0  0  0  0  0  0  0  0  0  0  0
  -24.6170  -11.7010   20.8660 C   0  0  0  0  0  0  0  0  0  0  0  0
  -26.2460  -12.9700   20.2860 N   0  0  0  0  0  0  0  0  0  0  0  0
  -25.9080  -11.6810   20.5510 N   0  0  0  0  0  0  0  0  0  0  0  0
  -23.9060  -10.4310   21.0550 C   0  0  0  0  0  0  0  0  0  0  0  0
  -24.3550   -9.4610   21.9790 C   0  0  0  0  0  3  0  0  0  0  0  0
  -23.6410   -8.2560   22.1550 C   0  0  0  0  0  3  0  0  0  0  0  0
  -22.4650   -8.0100   21.4070 C   0  0  0  0  0  0  0  0  0  0  0  0
  -22.0360   -8.9690   20.4720 C   0  0  0  0  0  3  0  0  0  0  0  0
  -22.7490  -10.1660   20.2940 C   0  0  0  0  0  3  0  0  0  0  0  0
  -21.7220   -6.8570   21.4930 O   0  0  0  0  0  0  0  0  0  0  0  0
  -21.6920   -6.1050   22.6400 C   0  0  0  0  0  0  0  0  0  0  0  0
  -21.2660   -6.6440   23.8730 C   0  0  0  0  0  3  0  0  0  0  0  0
  -21.1830   -5.8170   25.0110 C   0  0  0  0  0  3  0  0  0  0  0  0
  -21.5150   -4.4530   24.9170 C   0  0  0  0  0  0  0  0  0  0  0  0
  -21.9350   -3.9130   23.6890 C   0  0  0  0  0  3  0  0  0  0  0  0
  -22.0190   -4.7370   22.5520 C   0  0  0  0  0  0  0  0  0  0  0  0
  -22.4030   -4.2070   21.3650 F   0  0  0  0  0  0  0  0  0  0  0  0
  -21.4290   -3.6560   26.0080 F   0  0  0  0  0  0  0  0  0  0  0  0
  -22.7380  -13.5070   21.1840 C   0  0  0  0  0  0  0  0  0  0  0  0
  -22.0200  -12.7990   22.0470 N   0  0  0  0  0  0  0  0  0  0  0  0
  -22.2880  -14.5320   20.6710 O   0  0  0  0  0  0  0  0  0  0  0  0
  -22.3960  -11.9700   22.4840 H   0  0  0  0  0  0  0  0  0  0  0  0
  -21.0790  -13.0890   22.2770 H   0  0  0  0  0  0  0  0  0  0  0  0
  -25.3420  -15.2090   20.3640 N   0  0  0  0  0  0  0  0  0  0  0  0
  -24.5680  -15.8540   20.4820 H   0  0  0  0  0  0  0  0  0  0  0  0
  -26.1830  -15.6590   20.0290 H   0  0  0  0  0  0  0  0  0  0  0  0
  1  4  2  0
  1  2  1  0
  2  3  1  0
  3 10  1  0
  3  7  2  0
  4 10  1  0
  5  9  2  0
  6  2  2  0
  6  8  1  0
  8  5  1  0
  8  7  1  0
 11  4  1  0
 11 12  1  0
 13 24  2  0
 14 12  1  0
 14 19  1  0
 15 23  1  0
 15 25  1  0
 16 22  1  0
 16 18  1  0
 17 23  1  0
 18 17  1  0
 19 18  2  0
 20 14  2  0
 21 20  1  0
 21 16  2  0
 22 15  1  0
 23 13  1  0
 25 27  2  0
 26 25  1  0
 28 26  1  0
 29 38  2  0
 29 34  1  0
 30 26  1  0
 30 34  1  0
 31 30  1  0
 32 33  1  0
 32 31  1  0
 33 29  1  0
 34 35  2  0
 35 36  1  0
 37 36  2  0
 38 37  1  0
 39 13  1  0
 39 40  1  0
 39 49  1  0
 40 43  1  0
 41 45  1  0
 41 40  1  0
 42 41  2  0
 45 44  1  0
 47 45  1  0
 47 48  1  0
 47 46  1  0
 49 52  1  1
 49 50  1  0
 51 49  1  0
 53  5  1  0
 54 53  1  0
 55 60  1  0
 56 57  1  0
 56 55  1  0
 58 57  1  0
 58 65  1  0
 58 59  1  0
 60 54  1  0
 60 59  1  0
 61 54  2  0
 62 63  2  0
 63 82  1  0
 64 63  1  0
 64 67  1  0
 65 62  1  0
 65 66  1  0
 66 64  2  0
 67 68  1  0
 68 69  2  0
 70 73  1  0
 70 69  1  0
 71 70  2  0
 72 71  1  0
 72 67  2  0
 73 74  1  0
 74 75  1  0
 75 76  2  0
 77 76  1  0
 77 81  1  0
 78 77  2  0
 79 74  2  0
 79 78  1  0
 80 79  1  0
 82 83  1  0
 83 86  1  0
 83 85  1  0
 84 82  2  0
 87 88  1  0
 87 62  1  0
 89 87  1  0
M  ISO  4  11 101  12 101  53 100  54 100
M  END
>  <TORSDO>  (41) 
F 18

>  <SCORE>  (41) 
-14.841

>  <name>  (41) 
41

>  <ligand_id>  (41) 
41

>  <original_smiles>  (41) 
[H]c1c([H])c([H])c2c(c1[H])C([H])([H])C([H])([H])C([H])([H])C2([H])N([H])C(=O)C1([H])N(C(=O)C([H])(N([H])C(=O)C([H])(N([H])C([H])([H])[H])C([H])([H])[H])C(C([H])([H])[H])(C([H])([H])[H])C([H])([H])[H])C([H])([H])c2c([H])c(OC([H])([H])c3sc4c(c3[H])C([H])([H])N(C(=O)C([H])([H])C(=O)N3C([H])([H])C([H])([H])C([H])([H])C([H])(n5nc(-c6c([H])c([H])c(Oc7c([H])c([H])c(F)c([H])c7F)c([H])c6[H])c(C(=O)N([H])[H])c5N([H])[H])C3([H])[H])C4([H])[H])c([H])c([H])c2C1([H])[H]

>  <smiles>  (41) 
[H]c1c([H])c([H])c2c(c1[H])C([H])([H])C([H])([H])C([H])([H])C2([H])N([H])C(=O)C1([H])N(C(=O)C([H])(N([H])C(=O)C([H])(N([H])C([H])([H])[H])C([H])([H])[H])C(C([H])([H])[H])(C([H])([H])[H])C([H])([H])[H])C([H])([H])c2c([H])c(OC([H])([H])c3sc4c(c3[H])C([H])([H])N(C(=O)C([H])([H])C(=O)N3C([H])([H])C([H])([H])C([H])([H])C([H])(n5nc(-c6c([H])c([H])c(Oc7c([H])c([H])c(F)c([H])c7F)c([H])c6[H])c(C(=O)N([H])[H])c5N([H])[H])C3([H])[H])C4([H])[H])c([H])c([H])c2C1([H])[H]

$$$$
42:0:0
     RDKit          3D

 96105  0  0  1  0  0  0  0  0999 V2000
  -27.2200  -24.0740   21.1240 C   0  0  0  0  0  0  0  0  0  0  0  0
  -26.6540  -22.6600   21.2170 C   0  0  0  0  0  2  0  0  0  0  0  0
  -27.7360  -21.6960   21.7270 C   0  0  0  0  0  2  0  0  0  0  0  0
  -29.1000  -22.7950   19.9050 C   0  0  0  0  0  2  0  0  0  0  0  0
  -28.5850  -24.2300   20.4370 C   0  0  0  0  0  3  0  0  0  0  0  0
  -28.8910  -21.6230   20.8250 N   0  0  0  0  0  0  0  0  0  0  0  0
  -26.6230  -25.0260   21.6340 O   0  0  0  0  0  0  0  0  0  0  0  0
  -30.5770  -19.7640   20.9070 C   0  0  0  0  0  3  0  0  0  0  0  0
  -30.9310  -18.3860   20.7400 C   0  0  0  0  0  3  0  0  0  0  0  0
  -28.4050  -19.3180   19.9830 C   0  0  0  0  0  3  0  0  0  0  0  0
  -29.3030  -20.2720   20.5340 C   0  0  0  0  0  0  0  0  0  0  0  0
  -30.0270  -17.4340   20.1920 C   0  0  0  0  0  0  0  0  0  0  0  0
  -28.7560  -17.9490   19.8010 C   0  0  0  0  0  0  0  0  0  0  0  0
  -31.0520  -15.0950   20.5020 C   0  0  0  0  0  0  0  0  0  0  0  0
  -30.8700  -12.7870   19.6220 C   0  0  0  0  0  2  0  0  0  0  0  0
  -29.9650  -12.7630   18.3690 C   0  0  0  0  0  2  0  0  0  0  0  0
  -28.4790  -12.6540   18.7570 C   0  0  0  0  0  2  0  0  0  0  0  0
  -28.0610  -13.6090   19.9070 C   0  0  0  0  0  3  0  0  0  0  0  0
  -29.0820  -13.5980   21.0620 C   0  0  0  0  0  2  0  0  0  0  0  0
  -30.3980  -13.8890   20.4810 N   0  0  0  0  0  0  0  0  0  0  0  0
  -32.2830  -15.1280   20.5450 O   0  0  0  0  0  0  0  0  0  0  0  0
  -30.8650  -16.1250   18.3510 C   0  0  0  0  0  1  0  0  0  0  0  0
  -30.4360  -16.0900   19.7640 N   0  0  0  0  0  0  0  0  0  0  0  0
  -25.6490  -14.2200   20.5520 C   0  0  0  0  0  0  0  0  0  0  0  0
  -24.5640  -13.4510   20.8680 C   0  0  0  0  0  0  0  0  0  0  0  0
  -25.0200  -12.0990   20.8470 C   0  0  0  0  0  0  0  0  0  0  0  0
  -26.7000  -13.3370   20.3590 N   0  0  0  0  0  0  0  0  0  0  0  0
  -26.3230  -12.0550   20.6040 N   0  0  0  0  0  0  0  0  0  0  0  0
  -24.2760  -10.8400   20.9950 C   0  0  0  0  0  0  0  0  0  0  0  0
  -24.6530   -9.8720   21.9500 C   0  0  0  0  0  3  0  0  0  0  0  0
  -23.9120   -8.6780   22.0880 C   0  0  0  0  0  3  0  0  0  0  0  0
  -22.7800   -8.4480   21.2700 C   0  0  0  0  0  0  0  0  0  0  0  0
  -22.4220   -9.4070   20.3080 C   0  0  0  0  0  3  0  0  0  0  0  0
  -23.1640  -10.5920   20.1670 C   0  0  0  0  0  3  0  0  0  0  0  0
  -22.0160   -7.3060   21.3140 O   0  0  0  0  0  0  0  0  0  0  0  0
  -21.8480   -6.5990   22.4760 C   0  0  0  0  0  0  0  0  0  0  0  0
  -21.2680   -7.1800   23.6240 C   0  0  0  0  0  3  0  0  0  0  0  0
  -21.0490   -6.3980   24.7760 C   0  0  0  0  0  3  0  0  0  0  0  0
  -21.4020   -5.0350   24.7780 C   0  0  0  0  0  0  0  0  0  0  0  0
  -21.9730   -4.4530   23.6330 C   0  0  0  0  0  3  0  0  0  0  0  0
  -22.1930   -5.2330   22.4830 C   0  0  0  0  0  0  0  0  0  0  0  0
  -22.7240   -4.6600   21.3760 F   0  0  0  0  0  0  0  0  0  0  0  0
  -21.1880   -4.2820   25.8820 F   0  0  0  0  0  0  0  0  0  0  0  0
  -23.1570  -13.9350   21.0740 C   0  0  0  0  0  0  0  0  0  0  0  0
  -22.3970  -13.2530   21.9220 N   0  0  0  0  0  0  0  0  0  0  0  0
  -22.7400  -14.9500   20.5180 O   0  0  0  0  0  0  0  0  0  0  0  0
  -22.7460  -12.4280   22.3880 H   0  0  0  0  0  0  0  0  0  0  0  0
  -21.4520  -13.5590   22.1050 H   0  0  0  0  0  0  0  0  0  0  0  0
  -25.8070  -15.5890   20.3830 N   0  0  0  0  0  0  0  0  0  0  0  0
  -25.0080  -16.2120   20.4100 H   0  0  0  0  0  0  0  0  0  0  0  0
  -26.6410  -16.0500   20.0090 H   0  0  0  0  0  0  0  0  0  0  0  0
  -27.8370  -17.1150   19.1660 N   0  0  0  0  0  0  0  0  0  0  0  0
  -28.2470  -16.3140   18.7010 H   0  0  0  0  0  0  0  0  0  0  0  0
  -27.1390  -17.5650   18.5830 H   0  0  0  0  0  0  0  0  0  0  0  0
  -28.5860  -25.4560   19.4070 C   0  0  0  0  0  2  0  0  0  0  0  0
  -28.5130  -26.8680   19.8630 O   0  0  0  0  0  0  0  0  0  0  0  0
  -24.6360  -31.9490   23.1690 C   0  0  0  0  0  0  0  0  0  0  0  0
  -27.3360  -27.6340   19.8500 C   0  0  0  0  0  0  0  0  0  0  0  0
  -23.4450  -30.5980   21.4780 C   0  0  0  0  0  3  0  0  0  0  0  0
  -24.9170  -29.1640   19.9530 C   0  0  0  0  0  0  0  0  0  0  0  0
  -25.9680  -31.0040   21.2710 C   0  0  0  0  0  2  0  0  0  0  0  0
  -26.0760  -29.6610   20.5580 C   0  0  0  0  0  0  0  0  0  0  0  0
  -27.2850  -28.9090   20.4970 C   0  0  0  0  0  3  0  0  0  0  0  0
  -26.1480  -27.1850   19.2320 C   0  0  0  0  0  3  0  0  0  0  0  0
  -24.9540  -27.9300   19.2850 C   0  0  0  0  0  3  0  0  0  0  0  0
  -23.6550  -29.9920   20.0640 C   0  0  0  0  0  2  0  0  0  0  0  0
  -24.7030  -31.2000   22.0300 N   0  0  0  0  0  0  0  0  0  0  0  0
  -23.5540  -32.1650   23.7330 O   0  0  0  0  0  0  0  0  0  0  0  0
  -22.8250  -29.5200   22.3970 C   0  0  0  0  0  0  0  0  0  0  0  0
  -21.5020  -29.3160   22.2820 N   0  0  0  0  0  0  0  0  0  0  0  0
  -23.5340  -28.8720   23.1710 O   0  0  0  0  0  0  0  0  0  0  0  0
  -20.9860  -29.8880   21.6270 H   0  0  0  0  0  0  0  0  0  0  0  0
  -18.1630  -28.0340   22.7960 C   0  0  0  0  0  0  0  0  0  0  0  0
  -20.7220  -28.3200   23.0180 C   0  0  0  0  0  3  0  0  0  0  0  0
  -20.8320  -26.9260   22.3570 C   0  0  0  0  0  2  0  0  0  0  0  0
  -19.7120  -26.6450   21.3520 C   0  0  0  0  0  2  0  0  0  0  0  0
  -18.3440  -26.7310   22.0340 C   0  0  0  0  0  2  0  0  0  0  0  0
  -19.2800  -28.7870   23.2450 C   0  0  0  0  0  0  0  0  0  0  0  0
  -19.0590  -30.0080   23.9170 C   0  0  0  0  0  3  0  0  0  0  0  0
  -17.7500  -30.4760   24.1430 C   0  0  0  0  0  3  0  0  0  0  0  0
  -16.6480  -29.7190   23.7110 C   0  0  0  0  0  3  0  0  0  0  0  0
  -16.8560  -28.4980   23.0440 C   0  0  0  0  0  3  0  0  0  0  0  0
  -25.9090  -32.5850   23.8040 C   0  0  0  0  0  3  0  0  0  0  0  0
  -26.4180  -31.8120   25.0810 C   0  0  1  0  0  0  0  0  0  0  0  0
  -25.3160  -31.5630   26.1370 C   0  0  0  0  0  1  0  0  0  0  0  0
  -27.0130  -30.4400   24.6860 C   0  0  0  0  0  1  0  0  0  0  0  0
  -27.5560  -32.6090   25.7610 C   0  0  0  0  0  1  0  0  0  0  0  0
  -25.5860  -33.9790   24.1410 N   0  0  0  0  0  0  0  0  0  0  0  0
  -25.9350  -35.0420   23.4050 C   0  0  0  0  0  0  0  0  0  0  0  0
  -26.6330  -34.9530   22.3920 O   0  0  0  0  0  0  0  0  0  0  0  0
  -24.9620  -34.1200   24.9220 H   0  0  0  0  0  0  0  0  0  0  0  0
  -24.2290  -36.8500   23.0100 C   0  0  0  0  0  1  0  0  0  0  0  0
  -25.4320  -36.4240   23.8670 C   0  0  0  0  0  3  0  0  0  0  0  0
  -27.5260  -37.2940   24.8100 C   0  0  0  0  0  1  0  0  0  0  0  0
  -26.4710  -37.4770   23.8170 N   0  0  0  0  0  0  0  0  0  0  0  0
  -26.0590  -38.3960   23.9570 H   0  0  0  0  0  0  0  0  0  0  0  0
  1  2  1  0
  1  7  2  0
  2  3  1  0
  4  5  1  0
  4  6  1  0
  5 55  1  0
  5  1  1  0
  6  3  1  0
  9  8  1  0
 10 11  1  0
 11  6  1  0
 11  8  2  0
 12  9  2  0
 13 10  2  0
 13 12  1  0
 14 21  2  0
 15 20  1  0
 16 17  1  0
 16 15  1  0
 18 17  1  0
 18 27  1  0
 18 19  1  0
 20 14  1  0
 20 19  1  0
 22 23  1  0
 23 12  1  0
 23 14  1  0
 24 25  2  0
 25 44  1  0
 26 25  1  0
 26 29  1  0
 27 24  1  0
 27 28  1  0
 28 26  2  0
 29 30  1  0
 30 31  2  0
 32 35  1  0
 32 31  1  0
 33 32  2  0
 34 33  1  0
 34 29  2  0
 35 36  1  0
 36 41  2  0
 36 37  1  0
 37 38  2  0
 38 39  1  0
 39 43  1  0
 40 39  2  0
 41 40  1  0
 42 41  1  0
 44 45  1  0
 45 48  1  0
 45 47  1  0
 46 44  2  0
 49 50  1  0
 49 24  1  0
 51 49  1  0
 52 13  1  0
 53 52  1  0
 54 52  1  0
 55 56  1  0
 57 68  2  0
 58 56  1  0
 58 63  1  0
 59 67  1  0
 59 69  1  0
 60 66  1  0
 60 62  1  0
 61 67  1  0
 62 61  1  0
 63 62  2  0
 64 65  1  0
 64 58  2  0
 65 60  2  0
 66 59  1  0
 67 57  1  0
 69 71  2  0
 70 69  1  0
 72 70  1  0
 73 82  2  0
 73 78  1  0
 74 70  1  0
 74 78  1  0
 75 74  1  0
 76 77  1  0
 76 75  1  0
 77 73  1  0
 78 79  2  0
 79 80  1  0
 81 80  2  0
 82 81  1  0
 83 57  1  0
 83 88  1  0
 83 84  1  0
 84 87  1  1
 84 85  1  0
 86 84  1  0
 88 91  1  0
 89 93  1  0
 89 88  1  0
 90 89  2  0
 93 92  1  0
 95 93  1  0
 95 96  1  0
 95 94  1  0
M  ISO  4  14 100  23 100  55 101  56 101
M  END
>  <TORSDO>  (42) 
F 19

>  <SCORE>  (42) 
-13.878

>  <name>  (42) 
42

>  <ligand_id>  (42) 
42

>  <original_smiles>  (42) 
[H]c1c([H])c([H])c2c(c1[H])C([H])([H])C([H])([H])C([H])([H])C2([H])N([H])C(=O)C1([H])N(C(=O)C([H])(N([H])C(=O)C([H])(N([H])C([H])([H])[H])C([H])([H])[H])C(C([H])([H])[H])(C([H])([H])[H])C([H])([H])[H])C([H])([H])c2c([H])c(OC([H])([H])C3([H])C(=O)C([H])([H])C([H])([H])N(c4c([H])c([H])c(N(C(=O)N5C([H])([H])C([H])([H])C([H])([H])C([H])(n6nc(-c7c([H])c([H])c(Oc8c([H])c([H])c(F)c([H])c8F)c([H])c7[H])c(C(=O)N([H])[H])c6N([H])[H])C5([H])[H])C([H])([H])[H])c(N([H])[H])c4[H])C3([H])[H])c([H])c([H])c2C1([H])[H]

>  <smiles>  (42) 
[H]c1c([H])c([H])c2c(c1[H])C([H])([H])C([H])([H])C([H])([H])C2([H])N([H])C(=O)C1([H])N(C(=O)C([H])(N([H])C(=O)C([H])(N([H])C([H])([H])[H])C([H])([H])[H])C(C([H])([H])[H])(C([H])([H])[H])C([H])([H])[H])C([H])([H])c2c([H])c(OC([H])([H])C3([H])C(=O)C([H])([H])C([H])([H])N(c4c([H])c([H])c(N(C(=O)N5C([H])([H])C([H])([H])C([H])([H])C([H])(n6nc(-c7c([H])c([H])c(Oc8c([H])c([H])c(F)c([H])c8F)c([H])c7[H])c(C(=O)N([H])[H])c6N([H])[H])C5([H])[H])C([H])([H])[H])c(N([H])[H])c4[H])C3([H])[H])c([H])c([H])c2C1([H])[H]

$$$$
43:0:0
     RDKit          3D

 94102  0  0  1  0  0  0  0  0999 V2000
  -28.5340  -17.5720   19.8770 C   0  0  0  0  0  3  0  0  0  0  0  0
  -27.6430  -18.6230   19.5850 C   0  0  0  0  0  3  0  0  0  0  0  0
  -29.1530  -20.1820   20.6770 C   0  0  0  0  0  3  0  0  0  0  0  0
  -29.7400  -17.8140   20.5800 C   0  0  0  0  0  0  0  0  0  0  0  0
  -27.9620  -19.9460   19.9540 C   0  0  0  0  0  0  0  0  0  0  0  0
  -30.0270  -19.1320   21.0050 C   0  0  0  0  0  0  0  0  0  0  0  0
  -31.1500  -19.4220   21.7050 F   0  0  0  0  0  0  0  0  0  0  0  0
  -30.9420  -14.4310   20.0920 C   0  0  0  0  0  0  0  0  0  0  0  0
  -30.4830  -12.3160   18.9290 C   0  0  0  0  0  2  0  0  0  0  0  0
  -29.4960  -12.5740   17.7730 C   0  0  0  0  0  2  0  0  0  0  0  0
  -28.0400  -12.4770   18.2700 C   0  0  0  0  0  2  0  0  0  0  0  0
  -27.7900  -13.3110   19.5560 C   0  0  0  0  0  3  0  0  0  0  0  0
  -28.8910  -13.0510   20.6100 C   0  0  0  0  0  2  0  0  0  0  0  0
  -30.1970  -13.3020   19.9790 N   0  0  0  0  0  0  0  0  0  0  0  0
  -32.0530  -14.5380   19.5640 O   0  0  0  0  0  0  0  0  0  0  0  0
  -30.7670  -16.7260   20.7270 C   0  0  0  0  0  0  0  0  0  0  0  0
  -30.2940  -15.4710   20.6380 N   0  0  0  0  0  0  0  0  0  0  0  0
  -31.9590  -17.0130   20.8830 O   0  0  0  0  0  0  0  0  0  0  0  0
  -29.3170  -15.3350   20.8240 H   0  0  0  0  0  0  0  0  0  0  0  0
  -25.4470  -13.9780   20.3860 C   0  0  0  0  0  0  0  0  0  0  0  0
  -24.3770  -13.2300   20.7990 C   0  0  0  0  0  0  0  0  0  0  0  0
  -24.7990  -11.8670   20.7340 C   0  0  0  0  0  0  0  0  0  0  0  0
  -26.4550  -13.0710   20.0970 N   0  0  0  0  0  0  0  0  0  0  0  0
  -26.0710  -11.7960   20.3610 N   0  0  0  0  0  0  0  0  0  0  0  0
  -24.0490  -10.6210   20.9450 C   0  0  0  0  0  0  0  0  0  0  0  0
  -24.4880   -9.6430   21.8650 C   0  0  0  0  0  3  0  0  0  0  0  0
  -23.7400   -8.4630   22.0640 C   0  0  0  0  0  3  0  0  0  0  0  0
  -22.5400   -8.2520   21.3450 C   0  0  0  0  0  0  0  0  0  0  0  0
  -22.1200   -9.2190   20.4150 C   0  0  0  0  0  3  0  0  0  0  0  0
  -22.8670  -10.3910   20.2130 C   0  0  0  0  0  3  0  0  0  0  0  0
  -21.7650   -7.1230   21.4540 O   0  0  0  0  0  0  0  0  0  0  0  0
  -21.7200   -6.3910   22.6130 C   0  0  0  0  0  0  0  0  0  0  0  0
  -21.3070   -6.9590   23.8380 C   0  0  0  0  0  3  0  0  0  0  0  0
  -21.2090   -6.1530   24.9900 C   0  0  0  0  0  3  0  0  0  0  0  0
  -21.5140   -4.7800   24.9170 C   0  0  0  0  0  0  0  0  0  0  0  0
  -21.9180   -4.2120   23.6970 C   0  0  0  0  0  3  0  0  0  0  0  0
  -22.0180   -5.0150   22.5470 C   0  0  0  0  0  0  0  0  0  0  0  0
  -22.3890   -4.4580   21.3690 F   0  0  0  0  0  0  0  0  0  0  0  0
  -21.4120   -4.0030   26.0220 F   0  0  0  0  0  0  0  0  0  0  0  0
  -23.0080  -13.7420   21.1440 C   0  0  0  0  0  0  0  0  0  0  0  0
  -22.3050  -13.0570   22.0380 N   0  0  0  0  0  0  0  0  0  0  0  0
  -22.5730  -14.7830   20.6550 O   0  0  0  0  0  0  0  0  0  0  0  0
  -22.6680  -12.2120   22.4540 H   0  0  0  0  0  0  0  0  0  0  0  0
  -21.3900  -13.3870   22.3130 H   0  0  0  0  0  0  0  0  0  0  0  0
  -25.6390  -15.3450   20.2100 N   0  0  0  0  0  0  0  0  0  0  0  0
  -24.8970  -16.0180   20.3620 H   0  0  0  0  0  0  0  0  0  0  0  0
  -26.4730  -15.7610   19.8200 H   0  0  0  0  0  0  0  0  0  0  0  0
  -27.1120  -20.9930   19.5630 N   0  0  0  0  0  0  0  0  0  0  0  0
  -26.3890  -20.7440   18.8900 H   0  0  0  0  0  0  0  0  0  0  0  0
  -27.7510  -22.2830   19.3210 C   0  0  0  0  0  2  0  0  0  0  0  0
  -27.6180  -23.2500   20.5140 C   0  0  0  0  0  2  0  0  0  0  0  0
  -28.6770  -24.3950   20.4120 C   0  0  0  0  0  2  0  0  0  0  0  0
  -28.5480  -25.8340   20.9860 C   0  0  0  0  0  2  0  0  0  0  0  0
  -28.5210  -26.8440   19.9710 O   0  0  0  0  0  0  0  0  0  0  0  0
  -24.5360  -31.7730   23.1560 C   0  0  0  0  0  0  0  0  0  0  0  0
  -27.3460  -27.5450   19.9630 C   0  0  0  0  0  0  0  0  0  0  0  0
  -23.3900  -30.3910   21.4550 C   0  0  0  0  0  3  0  0  0  0  0  0
  -24.9040  -28.9440   20.0000 C   0  0  0  0  0  0  0  0  0  0  0  0
  -25.9020  -30.8390   21.2940 C   0  0  0  0  0  2  0  0  0  0  0  0
  -26.0370  -29.4940   20.6160 C   0  0  0  0  0  0  0  0  0  0  0  0
  -27.2620  -28.7990   20.6000 C   0  0  0  0  0  3  0  0  0  0  0  0
  -26.2050  -26.9970   19.3430 C   0  0  0  0  0  3  0  0  0  0  0  0
  -24.9800  -27.6900   19.3670 C   0  0  0  0  0  3  0  0  0  0  0  0
  -23.6320  -29.7580   20.0590 C   0  0  0  0  0  2  0  0  0  0  0  0
  -24.6270  -31.0130   22.0280 N   0  0  0  0  0  0  0  0  0  0  0  0
  -23.4410  -31.9980   23.6900 O   0  0  0  0  0  0  0  0  0  0  0  0
  -22.7590  -29.3210   22.3740 C   0  0  0  0  0  0  0  0  0  0  0  0
  -21.4390  -29.1150   22.2320 N   0  0  0  0  0  0  0  0  0  0  0  0
  -23.4520  -28.6790   23.1660 O   0  0  0  0  0  0  0  0  0  0  0  0
  -20.9400  -29.6890   21.5670 H   0  0  0  0  0  0  0  0  0  0  0  0
  -18.0860  -27.8520   22.6770 C   0  0  0  0  0  0  0  0  0  0  0  0
  -20.6390  -28.1340   22.9630 C   0  0  0  0  0  3  0  0  0  0  0  0
  -20.7630  -26.7290   22.3290 C   0  0  0  0  0  2  0  0  0  0  0  0
  -19.6660  -26.4320   21.3010 C   0  0  0  0  0  2  0  0  0  0  0  0
  -18.2820  -26.5320   21.9480 C   0  0  0  0  0  2  0  0  0  0  0  0
  -19.1930  -28.6120   23.1400 C   0  0  0  0  0  0  0  0  0  0  0  0
  -18.9550  -29.8480   23.7790 C   0  0  0  0  0  3  0  0  0  0  0  0
  -17.6410  -30.3220   23.9620 C   0  0  0  0  0  3  0  0  0  0  0  0
  -16.5500  -29.5590   23.5150 C   0  0  0  0  0  3  0  0  0  0  0  0
  -16.7730  -28.3250   22.8780 C   0  0  0  0  0  3  0  0  0  0  0  0
  -25.7980  -32.4170   23.8140 C   0  0  0  0  0  3  0  0  0  0  0  0
  -25.4640  -33.8070   24.1450 N   0  0  0  0  0  0  0  0  0  0  0  0
  -25.8000  -34.8670   23.3980 C   0  0  0  0  0  0  0  0  0  0  0  0
  -26.4970  -34.7780   22.3830 O   0  0  0  0  0  0  0  0  0  0  0  0
  -24.8510  -33.9510   24.9340 H   0  0  0  0  0  0  0  0  0  0  0  0
  -24.0530  -36.6350   23.0070 C   0  0  0  0  0  1  0  0  0  0  0  0
  -25.2790  -36.2460   23.8490 C   0  0  0  0  0  3  0  0  0  0  0  0
  -27.3740  -37.1600   24.7420 C   0  0  0  0  0  1  0  0  0  0  0  0
  -26.2980  -37.3150   23.7680 N   0  0  0  0  0  0  0  0  0  0  0  0
  -25.8720  -38.2260   23.9090 H   0  0  0  0  0  0  0  0  0  0  0  0
  -26.2990  -31.6410   25.0940 C   0  0  1  0  0  0  0  0  0  0  0  0
  -25.1880  -31.3790   26.1370 C   0  0  0  0  0  1  0  0  0  0  0  0
  -26.9110  -30.2770   24.6990 C   0  0  0  0  0  1  0  0  0  0  0  0
  -27.4240  -32.4460   25.7880 C   0  0  0  0  0  1  0  0  0  0  0  0
  1  4  1  0
  2  1  2  0
  2  5  1  0
  3  6  1  0
  4 16  1  0
  4  6  2  0
  5  3  2  0
  6  7  1  0
  8 17  1  0
  9 14  1  0
 10 11  1  0
 10  9  1  0
 12 11  1  0
 12 23  1  0
 12 13  1  0
 14  8  1  0
 14 13  1  0
 15  8  2  0
 16 18  2  0
 17 16  1  0
 17 19  1  0
 20 21  2  0
 21 40  1  0
 22 21  1  0
 22 25  1  0
 23 24  1  0
 23 20  1  0
 24 22  2  0
 25 26  1  0
 26 27  2  0
 28 31  1  0
 28 27  1  0
 29 28  2  0
 30 29  1  0
 30 25  2  0
 31 32  1  0
 32 33  1  0
 33 34  2  0
 35 34  1  0
 35 39  1  0
 36 35  2  0
 37 32  2  0
 37 36  1  0
 38 37  1  0
 40 41  1  0
 41 44  1  0
 41 43  1  0
 42 40  2  0
 45 46  1  0
 45 20  1  0
 47 45  1  0
 48  5  1  0
 49 48  1  0
 50 48  1  0
 50 51  1  0
 52 51  1  0
 52 53  1  0
 54 53  1  0
 55 66  2  0
 56 54  1  0
 56 61  1  0
 57 65  1  0
 57 67  1  0
 58 64  1  0
 58 60  1  0
 59 65  1  0
 60 59  1  0
 61 60  2  0
 62 63  1  0
 62 56  2  0
 63 58  2  0
 64 57  1  0
 65 55  1  0
 67 69  2  0
 68 67  1  0
 70 68  1  0
 71 80  2  0
 71 76  1  0
 72 68  1  0
 72 76  1  0
 73 72  1  0
 74 75  1  0
 74 73  1  0
 75 71  1  0
 76 77  2  0
 77 78  1  0
 79 78  2  0
 80 79  1  0
 81 55  1  0
 81 82  1  0
 81 91  1  0
 82 85  1  0
 83 87  1  0
 83 82  1  0
 84 83  2  0
 87 86  1  0
 89 87  1  0
 89 90  1  0
 89 88  1  0
 91 94  1  1
 91 92  1  0
 93 91  1  0
M  ISO  4   8 100  17 100  53 101  54 101
M  END
>  <TORSDO>  (43) 
F 21

>  <SCORE>  (43) 
-13.798

>  <name>  (43) 
43

>  <ligand_id>  (43) 
43

>  <original_smiles>  (43) 
[H]c1c([H])c([H])c2c(c1[H])C([H])([H])C([H])([H])C([H])([H])C2([H])N([H])C(=O)C1([H])N(C(=O)C([H])(N([H])C(=O)C([H])(N([H])C([H])([H])[H])C([H])([H])[H])C(C([H])([H])[H])(C([H])([H])[H])C([H])([H])[H])C([H])([H])c2c([H])c(OC([H])([H])C([H])([H])C([H])([H])C([H])([H])N([H])c3c([H])c([H])c(C(=O)N([H])C(=O)N4C([H])([H])C([H])([H])C([H])([H])C([H])(n5nc(-c6c([H])c([H])c(Oc7c([H])c([H])c(F)c([H])c7F)c([H])c6[H])c(C(=O)N([H])[H])c5N([H])[H])C4([H])[H])c(F)c3[H])c([H])c([H])c2C1([H])[H]

>  <smiles>  (43) 
[H]c1c([H])c([H])c2c(c1[H])C([H])([H])C([H])([H])C([H])([H])C2([H])N([H])C(=O)C1([H])N(C(=O)C([H])(N([H])C(=O)C([H])(N([H])C([H])([H])[H])C([H])([H])[H])C(C([H])([H])[H])(C([H])([H])[H])C([H])([H])[H])C([H])([H])c2c([H])c(OC([H])([H])C([H])([H])C([H])([H])C([H])([H])N([H])c3c([H])c([H])c(C(=O)N([H])C(=O)N4C([H])([H])C([H])([H])C([H])([H])C([H])(n5nc(-c6c([H])c([H])c(Oc7c([H])c([H])c(F)c([H])c7F)c([H])c6[H])c(C(=O)N([H])[H])c5N([H])[H])C4([H])[H])c(F)c3[H])c([H])c([H])c2C1([H])[H]

$$$$
44:0:0
     RDKit          3D

 96100  0  0  1  0  0  0  0  0999 V2000
  -27.6650  -16.3620   18.8360 C   0  0  0  0  0  0  0  0  0  0  0  0
  -27.3520  -20.6020   18.5320 C   0  0  0  0  0  2  0  0  0  0  0  0
  -26.9320  -19.0090   18.7370 C   0  0  0  0  0  2  0  0  0  0  0  0
  -28.6780  -19.3980   19.8560 C   0  0  0  0  0  2  0  0  0  0  0  0
  -28.1680  -21.2550   19.7520 C   0  0  0  0  0  2  0  0  0  0  0  0
  -27.9390  -17.9530   19.1580 N   0  0  0  0  0  0  0  0  0  0  0  0
  -26.6090  -16.3050   18.2070 O   0  0  0  0  0  0  0  0  0  0  0  0
  -29.4880  -14.6740   19.7680 C   0  0  0  0  0  1  0  0  0  0  0  0
  -30.3310  -13.0230   20.8750 C   0  0  0  0  0  1  0  0  0  0  0  0
  -27.8850  -12.9420   18.6470 C   0  0  0  0  0  3  0  0  0  0  0  0
  -28.2870  -14.6390   18.9330 C   0  0  0  0  0  3  0  0  0  0  0  0
  -29.8480  -11.5870   20.4720 C   0  0  0  0  0  3  0  0  0  0  0  0
  -28.6020  -11.4810   19.4180 C   0  0  0  0  0  0  0  0  0  0  0  0
  -28.6550   -9.0920   20.5410 C   0  0  0  0  0  1  0  0  0  0  0  0
  -28.2030  -10.0810   19.4210 O   0  0  0  0  0  0  0  0  0  0  0  0
  -31.2000  -10.8090   20.2810 C   0  0  0  0  0  2  0  0  0  0  0  0
  -32.7240  -12.9920   19.8180 C   0  0  0  0  0  0  0  0  0  0  0  0
  -31.8030  -14.9820   19.7950 C   0  0  0  0  0  2  0  0  0  0  0  0
  -30.9320  -15.3250   21.3970 C   0  0  0  0  0  1  0  0  0  0  0  0
  -29.1590  -14.6380   22.0860 C   0  0  0  0  0  1  0  0  0  0  0  0
  -28.2790  -13.3360   21.1770 C   0  0  0  0  0  2  0  0  0  0  0  0
  -30.1540  -12.8860   18.6510 C   0  0  0  0  0  1  0  0  0  0  0  0
  -31.7420  -13.5780   19.0370 N   0  0  0  0  0  0  0  0  0  0  0  0
  -33.6240  -13.6220   20.4290 O   0  0  0  0  0  0  0  0  0  0  0  0
  -32.5050  -11.6030   20.0320 N   0  0  0  0  0  0  0  0  0  0  0  0
  -33.2370  -11.1250   20.5430 H   0  0  0  0  0  0  0  0  0  0  0  0
  -25.9490  -13.7620   21.2040 C   0  0  0  0  0  3  0  0  0  0  0  0
  -24.9610  -12.8860   21.1660 C   0  0  0  0  0  0  0  0  0  0  0  0
  -25.5060  -11.5880   21.3190 C   0  0  0  0  0  0  0  0  0  0  0  0
  -26.9820  -12.9760   21.3780 N   0  0  0  0  0  0  0  0  0  0  0  0
  -26.7370  -11.6960   21.6010 N   0  0  0  0  0  2  0  0  0  0  0  0
  -24.9750  -10.2840   21.3700 C   0  0  0  0  0  0  0  0  0  0  0  0
  -25.2170   -9.3620   22.4180 C   0  0  0  0  0  3  0  0  0  0  0  0
  -24.6300   -8.0700   22.4430 C   0  0  0  0  0  3  0  0  0  0  0  0
  -23.6850   -7.7650   21.4460 C   0  0  0  0  0  0  0  0  0  0  0  0
  -23.4640   -8.6790   20.3990 C   0  0  0  0  0  3  0  0  0  0  0  0
  -24.1220   -9.9150   20.3270 C   0  0  0  0  0  3  0  0  0  0  0  0
  -23.0280   -6.5720   21.3780 O   0  0  0  0  0  0  0  0  0  0  0  0
  -22.4610   -6.0710   22.5030 C   0  0  0  0  0  0  0  0  0  0  0  0
  -21.5560   -6.8280   23.2680 C   0  0  0  0  0  3  0  0  0  0  0  0
  -20.9910   -6.2670   24.4200 C   0  0  0  0  0  3  0  0  0  0  0  0
  -21.2690   -4.9260   24.7590 C   0  0  0  0  0  0  0  0  0  0  0  0
  -22.1670   -4.1790   23.9790 C   0  0  0  0  0  3  0  0  0  0  0  0
  -22.8010   -4.7680   22.8670 C   0  0  0  0  0  0  0  0  0  0  0  0
  -23.6740   -4.0570   22.1220 F   0  0  0  0  0  0  0  0  0  0  0  0
  -20.7120   -4.3710   25.8510 F   0  0  0  0  0  0  0  0  0  0  0  0
  -23.5300  -13.2500   21.2000 C   0  0  0  0  0  0  0  0  0  0  0  0
  -22.8130  -12.6020   22.1040 N   0  0  0  0  0  0  0  0  0  0  0  0
  -23.0690  -14.1740   20.5570 O   0  0  0  0  0  0  0  0  0  0  0  0
  -23.2500  -11.9010   22.6660 H   0  0  0  0  0  0  0  0  0  0  0  0
  -21.8930  -12.9730   22.3470 H   0  0  0  0  0  0  0  0  0  0  0  0
  -26.0350  -15.1050   21.0210 N   0  0  0  0  0  0  0  0  0  0  0  0
  -25.2120  -15.3950   20.5170 H   0  0  0  0  0  0  0  0  0  0  0  0
  -26.7320  -15.7610   21.3270 H   0  0  0  0  0  0  0  0  0  0  0  0
  -28.3100  -23.3080   20.4340 C   0  0  0  0  0 15  0  0  0  0  0  0
  -28.7380  -25.1910   20.4820 O   0  0  0  0  0  1  0  0  0  0  0  0
  -25.2970  -31.9980   23.4210 C   0  0  0  0  0  0  0  0  0  0  0  0
  -27.9520  -26.6030   20.5680 C   0  0  0  0  0  0  0  0  0  0  0  0
  -24.2900  -30.4890   21.7990 C   0  0  0  0  0  3  0  0  0  0  0  0
  -25.8350  -28.8750   20.4660 C   0  0  0  0  0  0  0  0  0  0  0  0
  -26.8840  -30.6190   21.8610 C   0  0  0  0  0  2  0  0  0  0  0  0
  -27.0030  -29.1510   21.1820 C   0  0  0  0  0  0  0  0  0  0  0  0
  -28.0580  -28.0540   21.1710 C   0  0  0  0  0  3  0  0  0  0  0  0
  -26.7370  -26.6150   19.8730 C   0  0  0  0  0  3  0  0  0  0  0  0
  -25.7750  -27.6530   19.7770 C   0  0  0  0  0  3  0  0  0  0  0  0
  -24.6460  -29.8180   20.4450 C   0  0  0  0  0  2  0  0  0  0  0  0
  -25.5260  -31.0880   22.4030 N   0  0  0  0  0  0  0  0  0  0  0  0
  -24.1490  -32.2620   23.8220 O   0  0  0  0  0  0  0  0  0  0  0  0
  -23.5580  -29.4900   22.7520 C   0  0  0  0  0  0  0  0  0  0  0  0
  -22.2750  -29.1740   22.5060 N   0  0  0  0  0  0  0  0  0  0  0  0
  -24.1690  -29.0160   23.7050 O   0  0  0  0  0  0  0  0  0  0  0  0
  -21.8200  -29.6210   21.7250 H   0  0  0  0  0  0  0  0  0  0  0  0
  -18.9560  -27.6930   22.8690 C   0  0  0  0  0  0  0  0  0  0  0  0
  -21.4620  -28.2130   23.2760 C   0  0  0  0  0  3  0  0  0  0  0  0
  -21.7170  -26.7660   22.7990 C   0  0  0  0  0  2  0  0  0  0  0  0
  -20.7210  -26.2910   21.7280 C   0  0  0  0  0  2  0  0  0  0  0  0
  -19.2930  -26.3380   22.2720 C   0  0  0  0  0  2  0  0  0  0  0  0
  -19.9730  -28.5760   23.3240 C   0  0  0  0  0  0  0  0  0  0  0  0
  -19.5940  -29.8320   23.8490 C   0  0  0  0  0  3  0  0  0  0  0  0
  -18.2370  -30.2130   23.9090 C   0  0  0  0  0  3  0  0  0  0  0  0
  -17.2380  -29.3340   23.4650 C   0  0  0  0  0  3  0  0  0  0  0  0
  -17.5970  -28.0740   22.9580 C   0  0  0  0  0  3  0  0  0  0  0  0
  -26.4490  -32.7790   24.1180 C   0  0  0  0  0  3  0  0  0  0  0  0
  -26.9490  -32.0940   25.4440 C   0  0  1  0  0  0  0  0  0  0  0  0
  -25.8070  -31.6530   26.3880 C   0  0  0  0  0  1  0  0  0  0  0  0
  -27.8010  -30.8430   25.1650 C   0  0  0  0  0  1  0  0  0  0  0  0
  -27.8760  -33.0660   26.2050 C   0  0  0  0  0  1  0  0  0  0  0  0
  -25.9710  -34.1550   24.4170 N   0  0  0  0  0  0  0  0  0  0  0  0
  -26.1030  -35.2240   23.6200 C   0  0  0  0  0  0  0  0  0  0  0  0
  -26.6860  -35.1770   22.5390 O   0  0  0  0  0  0  0  0  0  0  0  0
  -25.4300  -34.2610   25.2630 H   0  0  0  0  0  0  0  0  0  0  0  0
  -24.1020  -36.7630   23.4740 C   0  0  0  0  0  1  0  0  0  0  0  0
  -25.4930  -36.5700   24.1020 C   0  0  0  0  0  3  0  0  0  0  0  0
  -27.5610  -37.7940   24.6200 C   0  0  0  0  0  1  0  0  0  0  0  0
  -26.3460  -37.7520   23.8070 N   0  0  0  0  0  0  0  0  0  0  0  0
  -25.8280  -38.6170   23.9750 H   0  0  0  0  0  0  0  0  0  0  0  0
  1 11  1  0
  1  6  1  0
  2  3  1  0
  2  5  1  0
  3  6  1  0
  5  4  1  0
  6  4  1  0
  7  1  2  0
 10 11  1  0
 10 13  2  0
 11  8  1  0
 12  9  1  0
 13 15  1  0
 13 12  1  0
 15 14  1  0
 16 12  1  0
 17 25  1  0
 17 24  2  0
 18 19  1  0
 21 30  1  0
 21 20  1  0
 22 23  1  0
 23 18  1  0
 23 17  1  0
 25 16  1  0
 25 26  1  0
 27 52  1  0
 27 30  1  0
 28 47  1  0
 28 27  1  0
 28 29  2  0
 29 32  1  0
 29 31  1  0
 30 31  1  0
 32 33  1  0
 33 34  2  0
 35 34  1  0
 36 35  2  0
 37 36  1  0
 37 32  2  0
 38 35  1  0
 38 39  1  0
 39 44  2  0
 39 40  1  0
 40 41  2  0
 41 42  1  0
 42 46  1  0
 43 42  2  0
 44 43  1  0
 45 44  1  0
 47 48  1  0
 48 51  1  0
 48 50  1  0
 49 47  2  0
 52 54  1  0
 53 52  1  0
 56 58  1  0
 57 68  2  0
 58 63  1  0
 59 67  1  0
 59 69  1  0
 60 62  1  0
 61 67  1  0
 62 61  1  0
 63 62  2  0
 64 58  2  0
 65 64  1  0
 65 60  2  0
 66 60  1  0
 66 59  1  0
 67 57  1  0
 69 71  2  0
 70 69  1  0
 72 70  1  0
 73 82  2  0
 73 78  1  0
 74 70  1  0
 74 78  1  0
 75 74  1  0
 76 77  1  0
 76 75  1  0
 77 73  1  0
 78 79  2  0
 79 80  1  0
 81 80  2  0
 82 81  1  0
 83 57  1  0
 83 88  1  0
 83 84  1  0
 84 87  1  1
 84 85  1  0
 86 84  1  0
 88 91  1  0
 89 93  1  0
 89 88  1  0
 90 89  2  0
 93 92  1  0
 95 96  1  0
 95 93  1  0
 95 94  1  0
M  ISO  4  17 100  25 100  55 101  56 101
M  END
>  <TORSDO>  (44) 
F 20

>  <SCORE>  (44) 
-9.428

>  <name>  (44) 
44

>  <ligand_id>  (44) 
44

>  <original_smiles>  (44) 
[H]c1c([H])c([H])c2c(c1[H])C([H])([H])C([H])([H])C([H])([H])C2([H])N([H])C(=O)C1([H])N(C(=O)C([H])(N([H])C(=O)C([H])(N([H])C([H])([H])[H])C([H])([H])[H])C(C([H])([H])[H])(C([H])([H])[H])C([H])([H])[H])C([H])([H])c2c([H])c(OC([H])([H])C3([H])C([H])([H])N(C(=O)c4c([H])c([H])c(C([H])([H])N([H])C(=O)N5C([H])([H])C([H])([H])C([H])([H])C([H])(n6nc(-c7c([H])c([H])c(Oc8c([H])c([H])c(F)c([H])c8F)c([H])c7[H])c(C(=O)N([H])[H])c6N([H])[H])C5([H])[H])c(OC([H])([H])[H])c4[H])C([H])([H])C3([H])[H])c([H])c([H])c2C1([H])[H]

>  <smiles>  (44) 
[H]c1c([H])c([H])c2c(c1[H])C([H])([H])C([H])([H])C([H])([H])C2([H])N([H])C(=O)C1([H])N(C(=O)C([H])(N([H])C(=O)C([H])(N([H])C([H])([H])[H])C([H])([H])[H])C(C([H])([H])[H])(C([H])([H])[H])C([H])([H])[H])C([H])([H])c2c([H])c(OC([H])([H])C3([H])C([H])([H])N(C(=O)c4c([H])c([H])c(C([H])([H])N([H])C(=O)N5C([H])([H])C([H])([H])C([H])([H])C([H])(n6nc(-c7c([H])c([H])c(Oc8c([H])c([H])c(F)c([H])c8F)c([H])c7[H])c(C(=O)N([H])[H])c6N([H])[H])C5([H])[H])c(OC([H])([H])[H])c4[H])C([H])([H])C3([H])[H])c([H])c([H])c2C1([H])[H]

$$$$
45:0:0
     RDKit          3D

 92100  0  0  1  0  0  0  0  0999 V2000
  -27.9550  -22.8330   19.5120 C   0  0  0  0  0  3  0  0  0  0  0  0
  -28.2200  -21.4610   19.8150 C   0  0  0  0  0  3  0  0  0  0  0  0
  -30.1390  -22.1330   21.0520 C   0  0  0  0  0  3  0  0  0  0  0  0
  -28.7950  -23.9040   19.9250 C   0  0  0  0  0  0  0  0  0  0  0  0
  -29.9060  -23.5060   20.7190 C   0  0  0  0  0  0  0  0  0  0  0  0
  -29.3690  -21.0340   20.5460 C   0  0  0  0  0  0  0  0  0  0  0  0
  -30.9290  -24.5370   21.1690 C   0  0  0  0  0  1  0  0  0  0  0  0
  -29.2970  -18.5150   20.0160 C   0  0  0  0  0  0  0  0  0  0  0  0
  -29.7370  -19.5940   20.7930 N   0  0  0  0  0  0  0  0  0  0  0  0
  -28.8850  -18.7430   18.8710 O   0  0  0  0  0  0  0  0  0  0  0  0
  -32.2370  -19.6530   20.9830 C   0  0  0  0  0  1  0  0  0  0  0  0
  -30.8850  -19.3700   21.7020 C   0  0  0  0  0  2  0  0  0  0  0  0
  -29.1020  -16.9720   20.4200 C   0  0  0  0  0  2  0  0  0  0  0  0
  -30.0380  -15.9030   21.1710 C   0  0  0  0  0  2  0  0  0  0  0  0
  -30.7070  -14.7090   20.3380 C   0  0  0  0  0  0  0  0  0  0  0  0
  -30.5150  -12.5430   19.0830 C   0  0  0  0  0  2  0  0  0  0  0  0
  -29.5150  -12.6550   17.9060 C   0  0  0  0  0  2  0  0  0  0  0  0
  -28.0490  -12.5250   18.3640 C   0  0  0  0  0  2  0  0  0  0  0  0
  -27.7510  -13.3310   19.6480 C   0  0  0  0  0  3  0  0  0  0  0  0
  -28.8230  -13.0680   20.7200 C   0  0  0  0  0  2  0  0  0  0  0  0
  -30.1070  -13.4870   20.1510 N   0  0  0  0  0  0  0  0  0  0  0  0
  -31.8090  -14.9190   19.8180 O   0  0  0  0  0  0  0  0  0  0  0  0
  -25.3800  -13.9450   20.4030 C   0  0  0  0  0  0  0  0  0  0  0  0
  -24.3160  -13.1700   20.7940 C   0  0  0  0  0  0  0  0  0  0  0  0
  -24.7720  -11.8190   20.7490 C   0  0  0  0  0  0  0  0  0  0  0  0
  -26.4140  -13.0580   20.1520 N   0  0  0  0  0  0  0  0  0  0  0  0
  -26.0550  -11.7760   20.4180 N   0  0  0  0  0  0  0  0  0  0  0  0
  -24.0430  -10.5580   20.9560 C   0  0  0  0  0  0  0  0  0  0  0  0
  -24.4880   -9.5840   21.8790 C   0  0  0  0  0  3  0  0  0  0  0  0
  -23.7560   -8.3900   22.0690 C   0  0  0  0  0  3  0  0  0  0  0  0
  -22.5660   -8.1670   21.3330 C   0  0  0  0  0  0  0  0  0  0  0  0
  -22.1460   -9.1240   20.3930 C   0  0  0  0  0  3  0  0  0  0  0  0
  -22.8790  -10.3070   20.2010 C   0  0  0  0  0  3  0  0  0  0  0  0
  -21.8020   -7.0290   21.4380 O   0  0  0  0  0  0  0  0  0  0  0  0
  -21.7550   -6.2930   22.5950 C   0  0  0  0  0  0  0  0  0  0  0  0
  -21.3410   -6.8600   23.8200 C   0  0  0  0  0  3  0  0  0  0  0  0
  -21.2420   -6.0530   24.9720 C   0  0  0  0  0  3  0  0  0  0  0  0
  -21.5530   -4.6830   24.8990 C   0  0  0  0  0  0  0  0  0  0  0  0
  -21.9670   -4.1160   23.6810 C   0  0  0  0  0  3  0  0  0  0  0  0
  -22.0650   -4.9200   22.5310 C   0  0  0  0  0  0  0  0  0  0  0  0
  -22.4420   -4.3650   21.3550 F   0  0  0  0  0  0  0  0  0  0  0  0
  -21.4470   -3.9060   26.0030 F   0  0  0  0  0  0  0  0  0  0  0  0
  -22.9300  -13.6540   21.1020 C   0  0  0  0  0  0  0  0  0  0  0  0
  -22.2270  -12.9520   21.9880 N   0  0  0  0  0  0  0  0  0  0  0  0
  -22.4810  -14.6790   20.5990 O   0  0  0  0  0  0  0  0  0  0  0  0
  -22.6100  -12.1200   22.4070 H   0  0  0  0  0  0  0  0  0  0  0  0
  -21.3000  -13.2510   22.2530 H   0  0  0  0  0  0  0  0  0  0  0  0
  -25.5490  -15.3110   20.2240 N   0  0  0  0  0  0  0  0  0  0  0  0
  -24.8020  -15.9910   20.3440 H   0  0  0  0  0  0  0  0  0  0  0  0
  -26.3860  -15.7090   19.8140 H   0  0  0  0  0  0  0  0  0  0  0  0
  -28.6130  -25.3630   19.3350 C   0  0  0  0  0  2  0  0  0  0  0  0
  -28.3620  -26.5460   20.1840 O   0  0  0  0  0  0  0  0  0  0  0  0
  -24.5920  -31.8640   23.2160 C   0  0  0  0  0  0  0  0  0  0  0  0
  -27.2090  -27.3480   20.0970 C   0  0  0  0  0  0  0  0  0  0  0  0
  -23.3700  -30.4750   21.5760 C   0  0  0  0  0  3  0  0  0  0  0  0
  -24.8130  -28.9320   20.1230 C   0  0  0  0  0  0  0  0  0  0  0  0
  -25.9020  -30.8080   21.3630 C   0  0  0  0  0  2  0  0  0  0  0  0
  -25.9830  -29.4340   20.7060 C   0  0  0  0  0  0  0  0  0  0  0  0
  -27.1760  -28.6520   20.6870 C   0  0  0  0  0  3  0  0  0  0  0  0
  -26.0150  -26.8900   19.4990 C   0  0  0  0  0  3  0  0  0  0  0  0
  -24.8330  -27.6630   19.5140 C   0  0  0  0  0  3  0  0  0  0  0  0
  -23.5700  -29.8030   20.1890 C   0  0  0  0  0  2  0  0  0  0  0  0
  -24.6410  -31.0650   22.1090 N   0  0  0  0  0  0  0  0  0  0  0  0
  -23.5140  -32.1380   23.7650 O   0  0  0  0  0  0  0  0  0  0  0  0
  -22.7150  -29.4540   22.5360 C   0  0  0  0  0  0  0  0  0  0  0  0
  -21.3880  -29.2790   22.4180 N   0  0  0  0  0  0  0  0  0  0  0  0
  -23.4030  -28.8210   23.3430 O   0  0  0  0  0  0  0  0  0  0  0  0
  -20.8930  -29.8430   21.7400 H   0  0  0  0  0  0  0  0  0  0  0  0
  -18.0180  -28.0880   22.9380 C   0  0  0  0  0  0  0  0  0  0  0  0
  -20.5750  -28.3400   23.1940 C   0  0  0  0  0  3  0  0  0  0  0  0
  -20.6720  -26.9110   22.6130 C   0  0  0  0  0  2  0  0  0  0  0  0
  -19.5650  -26.5960   21.6020 C   0  0  0  0  0  2  0  0  0  0  0  0
  -18.1860  -26.7430   22.2500 C   0  0  0  0  0  2  0  0  0  0  0  0
  -19.1380  -28.8460   23.3640 C   0  0  0  0  0  0  0  0  0  0  0  0
  -18.9260  -30.1070   23.9630 C   0  0  0  0  0  3  0  0  0  0  0  0
  -17.6250  -30.6110   24.1390 C   0  0  0  0  0  3  0  0  0  0  0  0
  -16.5170  -29.8490   23.7280 C   0  0  0  0  0  3  0  0  0  0  0  0
  -16.7130  -28.5910   23.1330 C   0  0  0  0  0  3  0  0  0  0  0  0
  -25.8820  -32.4890   23.8310 C   0  0  0  0  0  3  0  0  0  0  0  0
  -25.5790  -33.8850   24.1760 N   0  0  0  0  0  0  0  0  0  0  0  0
  -25.9060  -34.9440   23.4220 C   0  0  0  0  0  0  0  0  0  0  0  0
  -26.5610  -34.8460   22.3800 O   0  0  0  0  0  0  0  0  0  0  0  0
  -24.9900  -34.0350   24.9820 H   0  0  0  0  0  0  0  0  0  0  0  0
  -24.1720  -36.7390   23.1070 C   0  0  0  0  0  1  0  0  0  0  0  0
  -25.4260  -36.3280   23.8950 C   0  0  0  0  0  3  0  0  0  0  0  0
  -27.5760  -37.2030   24.6950 C   0  0  0  0  0  1  0  0  0  0  0  0
  -26.4550  -37.3840   23.7750 N   0  0  0  0  0  0  0  0  0  0  0  0
  -26.0530  -38.3010   23.9450 H   0  0  0  0  0  0  0  0  0  0  0  0
  -26.4120  -31.7040   25.0950 C   0  0  1  0  0  0  0  0  0  0  0  0
  -25.3320  -31.4610   26.1760 C   0  0  0  0  0  1  0  0  0  0  0  0
  -26.9800  -30.3260   24.6850 C   0  0  0  0  0  1  0  0  0  0  0  0
  -27.5780  -32.4850   25.7460 C   0  0  0  0  0  1  0  0  0  0  0  0
  1  2  2  0
  1  4  1  0
  2  6  1  0
  4  5  2  0
  5  3  1  0
  5  7  1  0
  6  9  1  0
  6  3  2  0
  8 13  1  0
  8  9  1  0
  9 12  1  0
 10  8  2  0
 11 12  1  0
 13 14  1  0
 15 14  1  0
 16 21  1  0
 17 18  1  0
 17 16  1  0
 19 18  1  0
 19 26  1  0
 19 20  1  0
 21 15  1  0
 21 20  1  0
 22 15  2  0
 23 24  2  0
 24 43  1  0
 25 24  1  0
 25 28  1  0
 26 23  1  0
 26 27  1  0
 27 25  2  0
 28 29  1  0
 29 30  2  0
 31 34  1  0
 31 30  1  0
 32 31  2  0
 33 32  1  0
 33 28  2  0
 34 35  1  0
 35 36  1  0
 36 37  2  0
 38 37  1  0
 38 42  1  0
 39 38  2  0
 40 35  2  0
 40 39  1  0
 41 40  1  0
 43 44  1  0
 44 47  1  0
 44 46  1  0
 45 43  2  0
 48 49  1  0
 48 23  1  0
 50 48  1  0
 51  4  1  0
 51 52  1  0
 53 64  2  0
 54 52  1  0
 54 59  1  0
 55 63  1  0
 55 65  1  0
 56 62  1  0
 56 58  1  0
 57 63  1  0
 58 57  1  0
 59 58  2  0
 60 61  1  0
 60 54  2  0
 61 56  2  0
 62 55  1  0
 63 53  1  0
 65 67  2  0
 66 65  1  0
 68 66  1  0
 69 78  2  0
 69 74  1  0
 70 66  1  0
 70 74  1  0
 71 70  1  0
 72 73  1  0
 72 71  1  0
 73 69  1  0
 74 75  2  0
 75 76  1  0
 77 76  2  0
 78 77  1  0
 79 53  1  0
 79 80  1  0
 79 89  1  0
 80 83  1  0
 81 85  1  0
 81 80  1  0
 82 81  2  0
 85 84  1  0
 87 85  1  0
 87 88  1  0
 87 86  1  0
 89 92  1  1
 89 90  1  0
 91 89  1  0
M  ISO  4  14 100  15 100  51 101  52 101
M  END
>  <TORSDO>  (45) 
F 21

>  <SCORE>  (45) 
-13.771

>  <name>  (45) 
45

>  <ligand_id>  (45) 
45

>  <original_smiles>  (45) 
[H]c1c([H])c([H])c2c(c1[H])C([H])([H])C([H])([H])C([H])([H])C2([H])N([H])C(=O)C1([H])N(C(=O)C([H])(N([H])C(=O)C([H])(N([H])C([H])([H])[H])C([H])([H])[H])C(C([H])([H])[H])(C([H])([H])[H])C([H])([H])[H])C([H])([H])c2c([H])c(OC([H])([H])c3c([H])c([H])c(N(C(=O)C([H])([H])C([H])([H])C(=O)N4C([H])([H])C([H])([H])C([H])([H])C([H])(n5nc(-c6c([H])c([H])c(Oc7c([H])c([H])c(F)c([H])c7F)c([H])c6[H])c(C(=O)N([H])[H])c5N([H])[H])C4([H])[H])C([H])([H])C([H])([H])[H])c([H])c3C([H])([H])[H])c([H])c([H])c2C1([H])[H]

>  <smiles>  (45) 
[H]c1c([H])c([H])c2c(c1[H])C([H])([H])C([H])([H])C([H])([H])C2([H])N([H])C(=O)C1([H])N(C(=O)C([H])(N([H])C(=O)C([H])(N([H])C([H])([H])[H])C([H])([H])[H])C(C([H])([H])[H])(C([H])([H])[H])C([H])([H])[H])C([H])([H])c2c([H])c(OC([H])([H])c3c([H])c([H])c(N(C(=O)C([H])([H])C([H])([H])C(=O)N4C([H])([H])C([H])([H])C([H])([H])C([H])(n5nc(-c6c([H])c([H])c(Oc7c([H])c([H])c(F)c([H])c7F)c([H])c6[H])c(C(=O)N([H])[H])c5N([H])[H])C4([H])[H])C([H])([H])C([H])([H])[H])c([H])c3C([H])([H])[H])c([H])c([H])c2C1([H])[H]

$$$$
46:0:0
     RDKit          3D

 92100  0  0  1  0  0  0  0  0999 V2000
  -29.7680  -19.1310   19.0320 C   0  0  0  0  0  3  0  0  0  0  0  0
  -29.5390  -20.4990   19.2330 C   0  0  0  0  0  3  0  0  0  0  0  0
  -30.2390  -18.8320   21.3950 C   0  0  0  0  0  3  0  0  0  0  0  0
  -30.1520  -18.2920   20.0910 C   0  0  0  0  0  0  0  0  0  0  0  0
  -29.6990  -21.0810   20.5110 C   0  0  0  0  0  0  0  0  0  0  0  0
  -30.0080  -20.2200   21.6000 C   0  0  0  0  0  0  0  0  0  0  0  0
  -30.1400  -20.7470   22.8510 O   0  0  0  0  0  0  0  0  0  0  0  0
  -30.0100  -21.6910   22.8410 H   0  0  0  0  0  0  0  0  0  0  0  0
  -30.5920  -16.8930   19.6770 C   0  0  0  0  0  2  0  0  0  0  0  0
  -31.0600  -14.6100   20.2000 C   0  0  0  0  0  0  0  0  0  0  0  0
  -30.6680  -12.4670   19.0700 C   0  0  0  0  0  2  0  0  0  0  0  0
  -29.6950  -12.7110   17.8980 C   0  0  0  0  0  2  0  0  0  0  0  0
  -28.2360  -12.5990   18.3780 C   0  0  0  0  0  2  0  0  0  0  0  0
  -27.9570  -13.4300   19.6590 C   0  0  0  0  0  3  0  0  0  0  0  0
  -29.0460  -13.1960   20.7320 C   0  0  0  0  0  2  0  0  0  0  0  0
  -30.3540  -13.4550   20.1180 N   0  0  0  0  0  0  0  0  0  0  0  0
  -32.1980  -14.7170   19.7360 O   0  0  0  0  0  0  0  0  0  0  0  0
  -30.3550  -15.7110   20.5140 N   0  0  0  0  0  0  0  0  0  0  0  0
  -29.4330  -15.5850   20.9040 H   0  0  0  0  0  0  0  0  0  0  0  0
  -25.6080  -14.0610   20.4990 C   0  0  0  0  0  0  0  0  0  0  0  0
  -24.5410  -13.2970   20.8880 C   0  0  0  0  0  0  0  0  0  0  0  0
  -24.9680  -11.9390   20.7840 C   0  0  0  0  0  0  0  0  0  0  0  0
  -26.6220  -13.1690   20.1890 N   0  0  0  0  0  0  0  0  0  0  0  0
  -26.2420  -11.8850   20.4190 N   0  0  0  0  0  0  0  0  0  0  0  0
  -24.2240  -10.6850   20.9600 C   0  0  0  0  0  0  0  0  0  0  0  0
  -24.6470   -9.6990   21.8770 C   0  0  0  0  0  3  0  0  0  0  0  0
  -23.9070   -8.5090   22.0400 C   0  0  0  0  0  3  0  0  0  0  0  0
  -22.7290   -8.2970   21.2830 C   0  0  0  0  0  0  0  0  0  0  0  0
  -22.3260   -9.2730   20.3560 C   0  0  0  0  0  3  0  0  0  0  0  0
  -23.0650  -10.4540   20.1910 C   0  0  0  0  0  3  0  0  0  0  0  0
  -21.9580   -7.1610   21.3590 O   0  0  0  0  0  0  0  0  0  0  0  0
  -21.8470   -6.4420   22.5210 C   0  0  0  0  0  0  0  0  0  0  0  0
  -21.3390   -7.0160   23.7070 C   0  0  0  0  0  3  0  0  0  0  0  0
  -21.1770   -6.2220   24.8600 C   0  0  0  0  0  3  0  0  0  0  0  0
  -21.5120   -4.8540   24.8260 C   0  0  0  0  0  0  0  0  0  0  0  0
  -22.0090   -4.2790   23.6430 C   0  0  0  0  0  3  0  0  0  0  0  0
  -22.1740   -5.0710   22.4930 C   0  0  0  0  0  0  0  0  0  0  0  0
  -22.6360   -4.5090   21.3500 F   0  0  0  0  0  0  0  0  0  0  0  0
  -21.3470   -4.0870   25.9300 F   0  0  0  0  0  0  0  0  0  0  0  0
  -23.1690  -13.7930   21.2420 C   0  0  0  0  0  0  0  0  0  0  0  0
  -22.4720  -13.0900   22.1270 N   0  0  0  0  0  0  0  0  0  0  0  0
  -22.7240  -14.8370   20.7660 O   0  0  0  0  0  0  0  0  0  0  0  0
  -22.8470  -12.2460   22.5360 H   0  0  0  0  0  0  0  0  0  0  0  0
  -21.5520  -13.4010   22.4000 H   0  0  0  0  0  0  0  0  0  0  0  0
  -25.7980  -15.4340   20.3620 N   0  0  0  0  0  0  0  0  0  0  0  0
  -25.0510  -16.1020   20.5250 H   0  0  0  0  0  0  0  0  0  0  0  0
  -26.6400  -15.8640   20.0010 H   0  0  0  0  0  0  0  0  0  0  0  0
  -29.5860  -22.4500   20.7140 O   0  0  0  0  0  0  0  0  0  0  0  0
  -30.0260  -23.2840   19.6240 C   0  0  0  0  0  2  0  0  0  0  0  0
  -29.9060  -24.8050   19.8700 C   0  0  0  0  0  2  0  0  0  0  0  0
  -28.5350  -25.4160   19.5260 C   0  0  0  0  0  2  0  0  0  0  0  0
  -28.5270  -26.8090   19.8750 O   0  0  0  0  0  0  0  0  0  0  0  0
  -24.5170  -31.6980   23.1430 C   0  0  0  0  0  0  0  0  0  0  0  0
  -27.3220  -27.4850   19.8740 C   0  0  0  0  0  0  0  0  0  0  0  0
  -23.3700  -30.3400   21.4260 C   0  0  0  0  0  3  0  0  0  0  0  0
  -24.8790  -28.9150   19.9490 C   0  0  0  0  0  0  0  0  0  0  0  0
  -25.8870  -30.7810   21.2720 C   0  0  0  0  0  2  0  0  0  0  0  0
  -26.0170  -29.4460   20.5650 C   0  0  0  0  0  0  0  0  0  0  0  0
  -27.2410  -28.7390   20.5200 C   0  0  0  0  0  3  0  0  0  0  0  0
  -26.1590  -26.9700   19.2530 C   0  0  0  0  0  3  0  0  0  0  0  0
  -24.9420  -27.6750   19.2950 C   0  0  0  0  0  3  0  0  0  0  0  0
  -23.6120  -29.7370   20.0190 C   0  0  0  0  0  2  0  0  0  0  0  0
  -24.6080  -30.9530   22.0050 N   0  0  0  0  0  0  0  0  0  0  0  0
  -23.4220  -31.9110   23.6850 O   0  0  0  0  0  0  0  0  0  0  0  0
  -22.7430  -29.2530   22.3290 C   0  0  0  0  0  0  0  0  0  0  0  0
  -21.4210  -29.0580   22.2020 N   0  0  0  0  0  0  0  0  0  0  0  0
  -23.4420  -28.5930   23.1010 O   0  0  0  0  0  0  0  0  0  0  0  0
  -20.9170  -29.6460   21.5540 H   0  0  0  0  0  0  0  0  0  0  0  0
  -18.0720  -27.7760   22.6440 C   0  0  0  0  0  0  0  0  0  0  0  0
  -20.6260  -28.0650   22.9210 C   0  0  0  0  0  3  0  0  0  0  0  0
  -20.7500  -26.6690   22.2680 C   0  0  0  0  0  2  0  0  0  0  0  0
  -19.6510  -26.3830   21.2390 C   0  0  0  0  0  2  0  0  0  0  0  0
  -18.2690  -26.4700   21.8940 C   0  0  0  0  0  2  0  0  0  0  0  0
  -19.1790  -28.5330   23.1120 C   0  0  0  0  0  0  0  0  0  0  0  0
  -18.9420  -29.7570   23.7740 C   0  0  0  0  0  3  0  0  0  0  0  0
  -17.6300  -30.2290   23.9680 C   0  0  0  0  0  3  0  0  0  0  0  0
  -16.5370  -29.4690   23.5170 C   0  0  0  0  0  3  0  0  0  0  0  0
  -16.7580  -28.2440   22.8610 C   0  0  0  0  0  3  0  0  0  0  0  0
  -25.7760  -32.3390   23.8040 C   0  0  0  0  0  3  0  0  0  0  0  0
  -25.4320  -33.7230   24.1610 N   0  0  0  0  0  0  0  0  0  0  0  0
  -25.7560  -34.7980   23.4340 C   0  0  0  0  0  0  0  0  0  0  0  0
  -26.4470  -34.7320   22.4120 O   0  0  0  0  0  0  0  0  0  0  0  0
  -24.8160  -33.8450   24.9510 H   0  0  0  0  0  0  0  0  0  0  0  0
  -23.9950  -36.5600   23.0880 C   0  0  0  0  0  1  0  0  0  0  0  0
  -25.2300  -36.1640   23.9140 C   0  0  0  0  0  3  0  0  0  0  0  0
  -27.3250  -37.0770   24.8100 C   0  0  0  0  0  1  0  0  0  0  0  0
  -26.2400  -37.2420   23.8480 N   0  0  0  0  0  0  0  0  0  0  0  0
  -25.8100  -38.1490   24.0080 H   0  0  0  0  0  0  0  0  0  0  0  0
  -26.2840  -31.5490   25.0700 C   0  0  1  0  0  0  0  0  0  0  0  0
  -25.1810  -31.2800   26.1190 C   0  0  0  0  0  1  0  0  0  0  0  0
  -26.8860  -30.1850   24.6560 C   0  0  0  0  0  1  0  0  0  0  0  0
  -27.4170  -32.3420   25.7650 C   0  0  0  0  0  1  0  0  0  0  0  0
  1  2  2  0
  1  4  1  0
  2  5  1  0
  3  6  1  0
  4  3  2  0
  5 48  1  0
  5  6  2  0
  6  7  1  0
  8  7  1  0
  9  4  1  0
  9 18  1  0
 10 18  1  0
 11 16  1  0
 12 13  1  0
 12 11  1  0
 14 13  1  0
 14 23  1  0
 14 15  1  0
 16 10  1  0
 16 15  1  0
 17 10  2  0
 18 19  1  0
 20 21  2  0
 21 40  1  0
 22 21  1  0
 22 25  1  0
 23 24  1  0
 23 20  1  0
 24 22  2  0
 25 26  1  0
 26 27  2  0
 28 31  1  0
 28 27  1  0
 29 28  2  0
 30 29  1  0
 30 25  2  0
 31 32  1  0
 32 33  1  0
 33 34  2  0
 35 34  1  0
 35 39  1  0
 36 35  2  0
 37 32  2  0
 37 36  1  0
 38 37  1  0
 40 41  1  0
 41 44  1  0
 41 43  1  0
 42 40  2  0
 45 20  1  0
 45 46  1  0
 47 45  1  0
 49 50  1  0
 49 48  1  0
 51 50  1  0
 51 52  1  0
 53 64  2  0
 54 52  1  0
 54 59  1  0
 55 63  1  0
 55 65  1  0
 56 62  1  0
 56 58  1  0
 57 63  1  0
 58 57  1  0
 59 58  2  0
 60 61  1  0
 60 54  2  0
 61 56  2  0
 62 55  1  0
 63 53  1  0
 65 67  2  0
 66 65  1  0
 68 66  1  0
 69 78  2  0
 69 74  1  0
 70 66  1  0
 70 74  1  0
 71 70  1  0
 72 73  1  0
 72 71  1  0
 73 69  1  0
 74 75  2  0
 75 76  1  0
 77 76  2  0
 78 77  1  0
 79 53  1  0
 79 80  1  0
 79 89  1  0
 80 83  1  0
 81 85  1  0
 81 80  1  0
 82 81  2  0
 85 84  1  0
 87 85  1  0
 87 88  1  0
 87 86  1  0
 89 92  1  1
 89 90  1  0
 91 89  1  0
M  ISO  4  10 100  18 100  51 101  52 101
M  END
>  <TORSDO>  (46) 
F 22

>  <SCORE>  (46) 
-12.838

>  <name>  (46) 
46

>  <ligand_id>  (46) 
46

>  <original_smiles>  (46) 
[H]Oc1c([H])c(C([H])([H])N([H])C(=O)N2C([H])([H])C([H])([H])C([H])([H])C([H])(n3nc(-c4c([H])c([H])c(Oc5c([H])c([H])c(F)c([H])c5F)c([H])c4[H])c(C(=O)N([H])[H])c3N([H])[H])C2([H])[H])c([H])c([H])c1OC([H])([H])C([H])([H])C([H])([H])Oc1c([H])c([H])c2c(c1[H])C([H])([H])N(C(=O)C([H])(N([H])C(=O)C([H])(N([H])C([H])([H])[H])C([H])([H])[H])C(C([H])([H])[H])(C([H])([H])[H])C([H])([H])[H])C([H])(C(=O)N([H])C1([H])c3c([H])c([H])c([H])c([H])c3C([H])([H])C([H])([H])C1([H])[H])C2([H])[H]

>  <smiles>  (46) 
[H]Oc1c([H])c(C([H])([H])N([H])C(=O)N2C([H])([H])C([H])([H])C([H])([H])C([H])(n3nc(-c4c([H])c([H])c(Oc5c([H])c([H])c(F)c([H])c5F)c([H])c4[H])c(C(=O)N([H])[H])c3N([H])[H])C2([H])[H])c([H])c([H])c1OC([H])([H])C([H])([H])C([H])([H])Oc1c([H])c([H])c2c(c1[H])C([H])([H])N(C(=O)C([H])(N([H])C(=O)C([H])(N([H])C([H])([H])[H])C([H])([H])[H])C(C([H])([H])[H])(C([H])([H])[H])C([H])([H])[H])C([H])(C(=O)N([H])C1([H])c3c([H])c([H])c([H])c([H])c3C([H])([H])C([H])([H])C1([H])[H])C2([H])[H]

$$$$
47:0:0
     RDKit          3D

 95103  0  0  1  0  0  0  0  0999 V2000
  -31.4910  -18.2590   19.7360 C   0  0  0  0  0  3  0  0  0  0  0  0
  -31.5060  -19.6840   19.6420 C   0  0  0  0  0  3  0  0  0  0  0  0
  -29.0890  -18.2830   19.8490 C   0  0  0  0  0  3  0  0  0  0  0  0
  -30.2790  -17.5110   19.7790 C   0  0  0  0  0  0  0  0  0  0  0  0
  -30.3130  -20.4460   19.6440 C   0  0  0  0  0  0  0  0  0  0  0  0
  -29.1060  -19.7100   19.8080 C   0  0  0  0  0  0  0  0  0  0  0  0
  -30.9880  -15.0330   19.9090 C   0  0  0  0  0  0  0  0  0  0  0  0
  -30.8920  -12.6010   19.3780 C   0  0  0  0  0  2  0  0  0  0  0  0
  -30.0210  -12.3280   18.1310 C   0  0  0  0  0  2  0  0  0  0  0  0
  -28.5150  -12.2750   18.4840 C   0  0  0  0  0  2  0  0  0  0  0  0
  -28.0440  -13.3440   19.5130 C   0  0  0  0  0  3  0  0  0  0  0  0
  -29.0600  -13.5410   20.6580 C   0  0  0  0  0  2  0  0  0  0  0  0
  -30.3680  -13.8090   20.0450 N   0  0  0  0  0  0  0  0  0  0  0  0
  -32.2170  -15.0970   19.8270 O   0  0  0  0  0  0  0  0  0  0  0  0
  -30.2230  -16.0900   19.4130 N   0  0  0  0  0  0  0  0  0  0  0  0
  -25.6450  -13.9940   20.1260 C   0  0  0  0  0  0  0  0  0  0  0  0
  -24.5620  -13.2470   20.5010 C   0  0  0  0  0  0  0  0  0  0  0  0
  -25.0230  -11.8980   20.5750 C   0  0  0  0  0  0  0  0  0  0  0  0
  -26.6910  -13.0960   19.9870 N   0  0  0  0  0  0  0  0  0  0  0  0
  -26.3240  -11.8360   20.3220 N   0  0  0  0  0  0  0  0  0  0  0  0
  -24.2900  -10.6500   20.8160 C   0  0  0  0  0  0  0  0  0  0  0  0
  -24.7000   -9.7360   21.8120 C   0  0  0  0  0  3  0  0  0  0  0  0
  -23.9670   -8.5520   22.0380 C   0  0  0  0  0  3  0  0  0  0  0  0
  -22.8140   -8.2700   21.2670 C   0  0  0  0  0  0  0  0  0  0  0  0
  -22.4260   -9.1710   20.2610 C   0  0  0  0  0  3  0  0  0  0  0  0
  -23.1580  -10.3490   20.0330 C   0  0  0  0  0  3  0  0  0  0  0  0
  -22.0570   -7.1330   21.3990 O   0  0  0  0  0  0  0  0  0  0  0  0
  -21.9860   -6.4510   22.5890 C   0  0  0  0  0  0  0  0  0  0  0  0
  -21.5570   -7.0760   23.7810 C   0  0  0  0  0  3  0  0  0  0  0  0
  -21.4330   -6.3210   24.9650 C   0  0  0  0  0  3  0  0  0  0  0  0
  -21.7270   -4.9440   24.9570 C   0  0  0  0  0  0  0  0  0  0  0  0
  -22.1480   -4.3200   23.7690 C   0  0  0  0  0  3  0  0  0  0  0  0
  -22.2750   -5.0730   22.5900 C   0  0  0  0  0  0  0  0  0  0  0  0
  -22.6620   -4.4630   21.4420 F   0  0  0  0  0  0  0  0  0  0  0  0
  -21.5990   -4.2170   26.0920 F   0  0  0  0  0  0  0  0  0  0  0  0
  -23.1580  -13.7430   20.6850 C   0  0  0  0  0  0  0  0  0  0  0  0
  -22.4040  -13.1240   21.5860 N   0  0  0  0  0  0  0  0  0  0  0  0
  -22.7350  -14.7170   20.0620 O   0  0  0  0  0  0  0  0  0  0  0  0
  -22.7600  -12.3430   22.1170 H   0  0  0  0  0  0  0  0  0  0  0  0
  -21.4590  -13.4400   21.7540 H   0  0  0  0  0  0  0  0  0  0  0  0
  -25.8170  -15.3520   19.8670 N   0  0  0  0  0  0  0  0  0  0  0  0
  -25.0480  -16.0100   19.9070 H   0  0  0  0  0  0  0  0  0  0  0  0
  -26.6830  -15.7680   19.5480 H   0  0  0  0  0  0  0  0  0  0  0  0
  -30.4760  -16.5420   16.9010 C   0  0  0  0  0  1  0  0  0  0  0  0
  -29.6510  -15.9390   18.0530 C   0  0  0  0  0  2  0  0  0  0  0  0
  -30.2910  -21.8780   19.5860 N   0  0  0  0  0  0  0  0  0  0  0  0
  -29.5480  -22.2180   20.1950 H   0  0  0  0  0  0  0  0  0  0  0  0
  -30.2910  -22.6390   18.3010 C   0  0  0  0  0  2  0  0  0  0  0  0
  -30.3670  -24.2300   18.4320 C   0  0  0  0  0  3  0  0  0  0  0  0
  -29.3620  -25.1100   17.5660 C   0  0  0  0  0  3  0  0  0  0  0  0
  -29.2770  -26.5670   17.8210 O   0  0  0  0  0  0  0  0  0  0  0  0
  -25.1700  -30.4270   22.3040 C   0  0  0  0  0  0  0  0  0  0  0  0
  -28.0300  -27.1790   18.0400 C   0  0  0  0  0  0  0  0  0  0  0  0
  -23.9900  -29.2410   20.4870 C   0  0  0  0  0  3  0  0  0  0  0  0
  -25.4650  -28.3120   18.6150 C   0  0  0  0  0  0  0  0  0  0  0  0
  -26.4110  -30.0230   20.1680 C   0  0  0  0  0  2  0  0  0  0  0  0
  -26.6110  -28.8520   19.2110 C   0  0  0  0  0  0  0  0  0  0  0  0
  -27.8910  -28.2970   18.9170 C   0  0  0  0  0  3  0  0  0  0  0  0
  -26.8490  -26.6980   17.4250 C   0  0  0  0  0  3  0  0  0  0  0  0
  -25.5830  -27.2410   17.7160 C   0  0  0  0  0  3  0  0  0  0  0  0
  -24.1290  -28.9290   18.9730 C   0  0  0  0  0  2  0  0  0  0  0  0
  -25.2130  -29.9040   21.0430 N   0  0  0  0  0  0  0  0  0  0  0  0
  -24.1310  -30.3930   22.9800 O   0  0  0  0  0  0  0  0  0  0  0  0
  -23.6030  -27.9420   21.2330 C   0  0  0  0  0  0  0  0  0  0  0  0
  -22.3160  -27.5630   21.1580 N   0  0  0  0  0  0  0  0  0  0  0  0
  -24.4540  -27.2860   21.8380 O   0  0  0  0  0  0  0  0  0  0  0  0
  -21.6750  -28.1620   20.6560 H   0  0  0  0  0  0  0  0  0  0  0  0
  -19.2460  -25.6910   21.5770 C   0  0  0  0  0  0  0  0  0  0  0  0
  -21.7420  -26.3510   21.7440 C   0  0  0  0  0  3  0  0  0  0  0  0
  -22.0200  -25.1120   20.8620 C   0  0  0  0  0  2  0  0  0  0  0  0
  -20.8930  -24.8140   19.8670 C   0  0  0  0  0  2  0  0  0  0  0  0
  -19.5760  -24.5670   20.6080 C   0  0  0  0  0  2  0  0  0  0  0  0
  -20.2620  -26.5390   22.0990 C   0  0  0  0  0  0  0  0  0  0  0  0
  -19.8970  -27.5890   22.9680 C   0  0  0  0  0  3  0  0  0  0  0  0
  -18.5500  -27.7990   23.3180 C   0  0  0  0  0  3  0  0  0  0  0  0
  -17.5510  -26.9490   22.8100 C   0  0  0  0  0  3  0  0  0  0  0  0
  -17.9020  -25.8960   21.9470 C   0  0  0  0  0  3  0  0  0  0  0  0
  -26.4130  -31.1140   22.9470 C   0  0  0  0  0  3  0  0  0  0  0  0
  -25.9390  -32.2960   23.6790 N   0  0  0  0  0  0  0  0  0  0  0  0
  -26.0510  -33.5590   23.2430 C   0  0  0  0  0  0  0  0  0  0  0  0
  -26.6340  -33.8560   22.1970 O   0  0  0  0  0  0  0  0  0  0  0  0
  -25.3960  -32.1240   24.5140 H   0  0  0  0  0  0  0  0  0  0  0  0
  -24.0740  -35.0950   23.4860 C   0  0  0  0  0  1  0  0  0  0  0  0
  -25.4150  -34.6680   24.1050 C   0  0  0  0  0  3  0  0  0  0  0  0
  -27.4660  -35.5880   25.0890 C   0  0  0  0  0  1  0  0  0  0  0  0
  -26.2850  -35.8520   24.2720 N   0  0  0  0  0  0  0  0  0  0  0  0
  -25.7710  -36.6190   24.6970 H   0  0  0  0  0  0  0  0  0  0  0  0
  -27.2270  -30.1560   23.9030 C   0  0  1  0  0  0  0  0  0  0  0  0
  -26.3540  -29.4540   24.9700 C   0  0  0  0  0  1  0  0  0  0  0  0
  -27.9530  -29.0570   23.0920 C   0  0  0  0  0  1  0  0  0  0  0  0
  -28.3270  -30.9600   24.6370 C   0  0  0  0  0  1  0  0  0  0  0  0
  -27.9190  -20.3870   19.9290 O   0  0  0  0  0  0  0  0  0  0  0  0
  -27.4100  -20.8810   18.6990 C   0  0  0  0  0  2  0  0  0  0  0  0
  -25.1760  -19.6580   18.8740 C   0  0  0  0  0  1  0  0  0  0  0  0
  -25.8890  -21.0160   18.8180 C   0  0  0  0  0  2  0  0  0  0  0  0
  1  4  1  0
  2  5  1  0
  2  1  2  0
  4  3  2  0
  5  6  2  0
  6  3  1  0
  6 92  1  0
  7 13  1  0
  8 13  1  0
  9 10  1  0
  9  8  1  0
 11 10  1  0
 11 19  1  0
 11 12  1  0
 13 12  1  0
 14  7  2  0
 15  4  1  0
 15  7  1  0
 16 17  2  0
 17 18  1  0
 17 36  1  0
 18 21  1  0
 19 16  1  0
 19 20  1  0
 20 18  2  0
 21 22  1  0
 22 23  2  0
 24 27  1  0
 24 23  1  0
 25 24  2  0
 26 25  1  0
 26 21  2  0
 27 28  1  0
 28 33  2  0
 28 29  1  0
 29 30  2  0
 31 30  1  0
 31 35  1  0
 32 31  2  0
 33 32  1  0
 34 33  1  0
 36 37  1  0
 37 40  1  0
 37 39  1  0
 38 36  2  0
 41 42  1  0
 41 16  1  0
 43 41  1  0
 44 45  1  0
 45 15  1  0
 46  5  1  0
 46 47  1  0
 48 49  1  0
 48 46  1  0
 50 51  1  0
 50 49  2  0
 51 53  1  0
 52 63  2  0
 53 58  1  0
 54 62  1  0
 54 64  1  0
 55 61  1  0
 55 57  1  0
 56 62  1  0
 57 56  1  0
 58 57  2  0
 59 60  1  0
 59 53  2  0
 60 55  2  0
 61 54  1  0
 62 52  1  0
 64 66  2  0
 65 64  1  0
 67 65  1  0
 68 77  2  0
 68 73  1  0
 69 65  1  0
 69 73  1  0
 70 69  1  0
 71 72  1  0
 71 70  1  0
 72 68  1  0
 73 74  2  0
 74 75  1  0
 76 75  2  0
 77 76  1  0
 78 52  1  0
 78 79  1  0
 78 88  1  0
 79 82  1  0
 80 79  1  0
 80 84  1  0
 81 80  2  0
 84 83  1  0
 84 86  1  0
 86 87  1  0
 86 85  1  0
 88 91  1  1
 88 89  1  0
 90 88  1  0
 93 95  1  0
 93 92  1  0
 95 94  1  0
M  ISO  4   7 100  15 100  50 101  51 101
M  END
>  <TORSDO>  (47) 
F 24

>  <SCORE>  (47) 
-5.033

>  <name>  (47) 
47

>  <ligand_id>  (47) 
47

>  <original_smiles>  (47) 
[H]c1c([H])c([H])c2c(c1[H])C([H])([H])C([H])([H])C([H])([H])C2([H])N([H])C(=O)C1([H])N(C(=O)C([H])(N([H])C(=O)C([H])(N([H])C([H])([H])[H])C([H])([H])[H])C(C([H])([H])[H])(C([H])([H])[H])C([H])([H])[H])C([H])([H])c2c([H])c(OC([H])([H])C([H])([H])C([H])([H])N([H])c3c([H])c([H])c(N(C(=O)N4C([H])([H])C([H])([H])C([H])([H])C([H])(n5nc(-c6c([H])c([H])c(Oc7c([H])c([H])c(F)c([H])c7F)c([H])c6[H])c(C(=O)N([H])[H])c5N([H])[H])C4([H])[H])C([H])([H])C([H])([H])[H])c([H])c3OC([H])([H])C([H])([H])C([H])([H])[H])c([H])c([H])c2C1([H])[H]

>  <smiles>  (47) 
[H]c1c([H])c([H])c2c(c1[H])C([H])([H])C([H])([H])C([H])([H])C2([H])N([H])C(=O)C1([H])N(C(=O)C([H])(N([H])C(=O)C([H])(N([H])C([H])([H])[H])C([H])([H])[H])C(C([H])([H])[H])(C([H])([H])[H])C([H])([H])[H])C([H])([H])c2c([H])c(OC([H])([H])C([H])([H])C([H])([H])N([H])c3c([H])c([H])c(N(C(=O)N4C([H])([H])C([H])([H])C([H])([H])C([H])(n5nc(-c6c([H])c([H])c(Oc7c([H])c([H])c(F)c([H])c7F)c([H])c6[H])c(C(=O)N([H])[H])c5N([H])[H])C4([H])[H])C([H])([H])C([H])([H])[H])c([H])c3OC([H])([H])C([H])([H])C([H])([H])[H])c([H])c([H])c2C1([H])[H]

$$$$
48:0:0
     RDKit          3D

 94103  0  0  1  0  0  0  0  0999 V2000
  -29.6870  -24.1220   18.3650 C   0  0  0  0  0  0  0  0  0  0  0  0
  -30.0130  -22.8220   17.6350 C   0  0  0  0  0  2  0  0  0  0  0  0
  -30.7370  -21.8260   18.5520 C   0  0  0  0  0  2  0  0  0  0  0  0
  -29.0170  -22.5110   20.2480 C   0  0  0  0  0  2  0  0  0  0  0  0
  -29.3550  -24.0280   19.8640 C   0  0  0  0  0  3  0  0  0  0  0  0
  -29.9240  -21.4400   19.7110 N   0  0  0  0  0  0  0  0  0  0  0  0
  -29.7100  -25.1980   17.7590 O   0  0  0  0  0  0  0  0  0  0  0  0
  -31.1330  -19.2840   19.9840 C   0  0  0  0  0  3  0  0  0  0  0  0
  -31.2110  -17.8720   20.1600 C   0  0  0  0  0  3  0  0  0  0  0  0
  -28.8380  -17.8270   20.5010 C   0  0  0  0  0  3  0  0  0  0  0  0
  -28.7500  -19.2410   20.3150 C   0  0  0  0  0  0  0  0  0  0  0  0
  -29.9100  -20.0240   20.0200 C   0  0  0  0  0  0  0  0  0  0  0  0
  -30.0510  -17.0990   20.4050 C   0  0  0  0  0  0  0  0  0  0  0  0
  -27.3590  -19.8470   20.3950 C   0  0  0  0  0  1  0  0  0  0  0  0
  -30.7690  -14.6380   20.0550 C   0  0  0  0  0  0  0  0  0  0  0  0
  -30.4900  -12.4470   18.9230 C   0  0  0  0  0  2  0  0  0  0  0  0
  -29.4720  -12.6270   17.7750 C   0  0  0  0  0  2  0  0  0  0  0  0
  -28.0280  -12.4490   18.2860 C   0  0  0  0  0  2  0  0  0  0  0  0
  -27.7460  -13.2580   19.5800 C   0  0  0  0  0  3  0  0  0  0  0  0
  -28.8740  -13.0550   20.6200 C   0  0  0  0  0  2  0  0  0  0  0  0
  -30.1490  -13.4200   19.9790 N   0  0  0  0  0  0  0  0  0  0  0  0
  -31.8880  -14.8250   19.5710 O   0  0  0  0  0  0  0  0  0  0  0  0
  -30.0070  -15.6510   20.5670 N   0  0  0  0  0  0  0  0  0  0  0  0
  -29.1520  -15.3030   20.9720 H   0  0  0  0  0  0  0  0  0  0  0  0
  -25.3970  -13.8200   20.4620 C   0  0  0  0  0  0  0  0  0  0  0  0
  -24.3560  -13.0280   20.8670 C   0  0  0  0  0  0  0  0  0  0  0  0
  -24.8180  -11.6810   20.7560 C   0  0  0  0  0  0  0  0  0  0  0  0
  -26.4280  -12.9540   20.1330 N   0  0  0  0  0  0  0  0  0  0  0  0
  -26.0870  -11.6600   20.3670 N   0  0  0  0  0  0  0  0  0  0  0  0
  -24.1080  -10.4100   20.9420 C   0  0  0  0  0  0  0  0  0  0  0  0
  -24.5370   -9.4550   21.8900 C   0  0  0  0  0  3  0  0  0  0  0  0
  -23.8260   -8.2480   22.0630 C   0  0  0  0  0  3  0  0  0  0  0  0
  -22.6720   -7.9870   21.2880 C   0  0  0  0  0  0  0  0  0  0  0  0
  -22.2600   -8.9300   20.3300 C   0  0  0  0  0  3  0  0  0  0  0  0
  -22.9730  -10.1280   20.1550 C   0  0  0  0  0  3  0  0  0  0  0  0
  -21.9340   -6.8300   21.3700 O   0  0  0  0  0  0  0  0  0  0  0  0
  -21.7880   -6.1510   22.5530 C   0  0  0  0  0  0  0  0  0  0  0  0
  -21.2140   -6.7550   23.6920 C   0  0  0  0  0  3  0  0  0  0  0  0
  -21.0180   -6.0000   24.8660 C   0  0  0  0  0  3  0  0  0  0  0  0
  -21.3870   -4.6420   24.9010 C   0  0  0  0  0  0  0  0  0  0  0  0
  -21.9550   -4.0370   23.7660 C   0  0  0  0  0  3  0  0  0  0  0  0
  -22.1520   -4.7890   22.5940 C   0  0  0  0  0  0  0  0  0  0  0  0
  -22.6800   -4.1960   21.4960 F   0  0  0  0  0  0  0  0  0  0  0  0
  -21.1920   -3.9150   26.0260 F   0  0  0  0  0  0  0  0  0  0  0  0
  -22.9760  -13.4900   21.2400 C   0  0  0  0  0  0  0  0  0  0  0  0
  -22.3030  -12.7580   22.1230 N   0  0  0  0  0  0  0  0  0  0  0  0
  -22.5040  -14.5310   20.7860 O   0  0  0  0  0  0  0  0  0  0  0  0
  -22.6970  -11.9150   22.5120 H   0  0  0  0  0  0  0  0  0  0  0  0
  -21.3800  -13.0490   22.4140 H   0  0  0  0  0  0  0  0  0  0  0  0
  -25.5450  -15.1970   20.3260 N   0  0  0  0  0  0  0  0  0  0  0  0
  -24.7800  -15.8380   20.5050 H   0  0  0  0  0  0  0  0  0  0  0  0
  -26.3490  -15.6480   19.9090 H   0  0  0  0  0  0  0  0  0  0  0  0
  -28.2290  -25.0780   20.2610 C   0  0  0  0  0  2  0  0  0  0  0  0
  -28.4340  -26.5310   20.0540 O   0  0  0  0  0  0  0  0  0  0  0  0
  -24.6700  -31.8450   23.1610 C   0  0  0  0  0  0  0  0  0  0  0  0
  -27.2990  -27.3550   20.0390 C   0  0  0  0  0  0  0  0  0  0  0  0
  -23.4700  -30.4680   21.4990 C   0  0  0  0  0  3  0  0  0  0  0  0
  -24.9250  -28.9440   20.0550 C   0  0  0  0  0  0  0  0  0  0  0  0
  -26.0080  -30.7990   21.3240 C   0  0  0  0  0  2  0  0  0  0  0  0
  -26.0920  -29.4320   20.6590 C   0  0  0  0  0  0  0  0  0  0  0  0
  -27.2820  -28.6470   20.6430 C   0  0  0  0  0  3  0  0  0  0  0  0
  -26.1120  -26.9270   19.4000 C   0  0  0  0  0  3  0  0  0  0  0  0
  -24.9360  -27.6950   19.4190 C   0  0  0  0  0  3  0  0  0  0  0  0
  -23.6870  -29.8140   20.1100 C   0  0  0  0  0  2  0  0  0  0  0  0
  -24.7350  -31.0540   22.0520 N   0  0  0  0  0  0  0  0  0  0  0  0
  -23.5860  -32.1140   23.6970 O   0  0  0  0  0  0  0  0  0  0  0  0
  -22.8100  -29.4350   22.4440 C   0  0  0  0  0  0  0  0  0  0  0  0
  -21.4820  -29.2720   22.3260 N   0  0  0  0  0  0  0  0  0  0  0  0
  -23.4920  -28.7830   23.2410 O   0  0  0  0  0  0  0  0  0  0  0  0
  -20.9930  -29.8500   21.6560 H   0  0  0  0  0  0  0  0  0  0  0  0
  -18.0910  -28.1390   22.8680 C   0  0  0  0  0  0  0  0  0  0  0  0
  -20.6600  -28.3280   23.0830 C   0  0  0  0  0  3  0  0  0  0  0  0
  -20.7140  -26.9150   22.4560 C   0  0  0  0  0  2  0  0  0  0  0  0
  -19.5810  -26.6530   21.4600 C   0  0  0  0  0  2  0  0  0  0  0  0
  -18.2190  -26.8090   22.1430 C   0  0  0  0  0  2  0  0  0  0  0  0
  -19.2380  -28.8580   23.2950 C   0  0  0  0  0  0  0  0  0  0  0  0
  -19.0640  -30.1050   23.9350 C   0  0  0  0  0  3  0  0  0  0  0  0
  -17.7770  -30.6310   24.1510 C   0  0  0  0  0  3  0  0  0  0  0  0
  -16.6440  -29.9070   23.7380 C   0  0  0  0  0  3  0  0  0  0  0  0
  -16.8020  -28.6610   23.1030 C   0  0  0  0  0  3  0  0  0  0  0  0
  -25.9530  -32.4680   23.7930 C   0  0  0  0  0  3  0  0  0  0  0  0
  -25.6370  -33.8580   24.1540 N   0  0  0  0  0  0  0  0  0  0  0  0
  -25.9440  -34.9260   23.4060 C   0  0  0  0  0  0  0  0  0  0  0  0
  -26.5920  -34.8470   22.3590 O   0  0  0  0  0  0  0  0  0  0  0  0
  -25.0570  -33.9930   24.9690 H   0  0  0  0  0  0  0  0  0  0  0  0
  -24.1850  -36.7030   23.1250 C   0  0  0  0  0  1  0  0  0  0  0  0
  -25.4520  -36.3020   23.8980 C   0  0  0  0  0  3  0  0  0  0  0  0
  -27.5950  -37.2010   24.6910 C   0  0  0  0  0  1  0  0  0  0  0  0
  -26.4690  -37.3680   23.7740 N   0  0  0  0  0  0  0  0  0  0  0  0
  -26.0570  -38.2810   23.9410 H   0  0  0  0  0  0  0  0  0  0  0  0
  -26.4740  -31.6730   25.0530 C   0  0  1  0  0  0  0  0  0  0  0  0
  -25.3830  -31.4070   26.1160 C   0  0  0  0  0  1  0  0  0  0  0  0
  -27.0640  -30.3060   24.6320 C   0  0  0  0  0  1  0  0  0  0  0  0
  -27.6220  -32.4570   25.7300 C   0  0  0  0  0  1  0  0  0  0  0  0
  1  5  1  0
  2  1  1  0
  2  3  1  0
  3  6  1  0
  5  4  1  0
  5 53  1  0
  6 12  1  0
  6  4  1  0
  7  1  2  0
  8 12  2  0
  8  9  1  0
  9 13  2  0
 11 14  1  0
 11 10  2  0
 12 11  1  0
 13 10  1  0
 13 23  1  0
 15 23  1  0
 16 21  1  0
 17 18  1  0
 17 16  1  0
 19 18  1  0
 19 28  1  0
 19 20  1  0
 21 15  1  0
 21 20  1  0
 22 15  2  0
 23 24  1  0
 25 26  2  0
 26 45  1  0
 27 26  1  0
 27 30  1  0
 28 29  1  0
 28 25  1  0
 29 27  2  0
 30 31  1  0
 31 32  2  0
 33 36  1  0
 33 32  1  0
 34 33  2  0
 35 34  1  0
 35 30  2  0
 36 37  1  0
 37 42  2  0
 37 38  1  0
 38 39  2  0
 39 40  1  0
 40 44  1  0
 41 40  2  0
 42 41  1  0
 43 42  1  0
 45 46  1  0
 46 49  1  0
 46 48  1  0
 47 45  2  0
 50 25  1  0
 50 51  1  0
 52 50  1  0
 54 53  1  0
 55 66  2  0
 56 54  1  0
 56 61  1  0
 57 65  1  0
 57 67  1  0
 58 64  1  0
 58 60  1  0
 59 65  1  0
 60 59  1  0
 61 60  2  0
 62 63  1  0
 62 56  2  0
 63 58  2  0
 64 57  1  0
 65 55  1  0
 67 69  2  0
 68 67  1  0
 70 68  1  0
 71 80  2  0
 71 76  1  0
 72 68  1  0
 72 76  1  0
 73 72  1  0
 74 75  1  0
 74 73  1  0
 75 71  1  0
 76 77  2  0
 77 78  1  0
 79 78  2  0
 80 79  1  0
 81 55  1  0
 81 82  1  0
 81 91  1  0
 82 85  1  0
 83 87  1  0
 83 82  1  0
 84 83  2  0
 87 86  1  0
 89 87  1  0
 89 90  1  0
 89 88  1  0
 91 94  1  1
 91 92  1  0
 93 91  1  0
M  ISO  4  15 100  23 100  53 101  54 101
M  END
>  <TORSDO>  (48) 
F 18

>  <SCORE>  (48) 
-14.029

>  <name>  (48) 
48

>  <ligand_id>  (48) 
48

>  <original_smiles>  (48) 
[H]c1c([H])c([H])c2c(c1[H])C([H])([H])C([H])([H])C([H])([H])C2([H])N([H])C(=O)C1([H])N(C(=O)C([H])(N([H])C(=O)C([H])(N([H])C([H])([H])[H])C([H])([H])[H])C(C([H])([H])[H])(C([H])([H])[H])C([H])([H])[H])C([H])([H])c2c([H])c(OC([H])([H])C3([H])C(=O)C([H])([H])C([H])([H])N(c4c([H])c([H])c(N([H])C(=O)N5C([H])([H])C([H])([H])C([H])([H])C([H])(n6nc(-c7c([H])c([H])c(Oc8c([H])c([H])c(F)c([H])c8F)c([H])c7[H])c(C(=O)N([H])[H])c6N([H])[H])C5([H])[H])c([H])c4C([H])([H])[H])C3([H])[H])c([H])c([H])c2C1([H])[H]

>  <smiles>  (48) 
[H]c1c([H])c([H])c2c(c1[H])C([H])([H])C([H])([H])C([H])([H])C2([H])N([H])C(=O)C1([H])N(C(=O)C([H])(N([H])C(=O)C([H])(N([H])C([H])([H])[H])C([H])([H])[H])C(C([H])([H])[H])(C([H])([H])[H])C([H])([H])[H])C([H])([H])c2c([H])c(OC([H])([H])C3([H])C(=O)C([H])([H])C([H])([H])N(c4c([H])c([H])c(N([H])C(=O)N5C([H])([H])C([H])([H])C([H])([H])C([H])(n6nc(-c7c([H])c([H])c(Oc8c([H])c([H])c(F)c([H])c8F)c([H])c7[H])c(C(=O)N([H])[H])c6N([H])[H])C5([H])[H])c([H])c4C([H])([H])[H])C3([H])[H])c([H])c([H])c2C1([H])[H]

$$$$
49:0:0
     RDKit          3D

 95104  0  0  1  0  0  0  0  0999 V2000
  -28.3550  -24.8700   21.0870 C   0  0  0  0  0  3  0  0  0  0  0  0
  -27.2070  -24.8190   21.8620 C   0  0  0  0  0  0  0  0  0  0  0  0
  -28.9530  -23.6220   20.5440 C   0  0  0  0  0  0  0  0  0  0  0  0
  -26.5880  -23.4660   22.1440 C   0  0  0  0  0  2  0  0  0  0  0  0
  -27.7140  -22.4510   22.3330 C   0  0  0  0  0  2  0  0  0  0  0  0
  -28.6300  -22.4350   21.1750 N   0  0  0  0  0  0  0  0  0  0  0  0
  -26.5720  -25.7040   22.4770 O   0  0  0  0  0  0  0  0  0  0  0  0
  -29.6880  -23.6570   19.5520 O   0  0  0  0  0  0  0  0  0  0  0  0
  -28.8450  -18.6910   20.4580 C   0  0  0  0  0  3  0  0  0  0  0  0
  -31.0570  -19.6510   20.2430 C   0  0  0  0  0  3  0  0  0  0  0  0
  -28.3310  -19.9810   20.7390 C   0  0  0  0  0  3  0  0  0  0  0  0
  -30.5470  -20.9350   20.5440 C   0  0  0  0  0  3  0  0  0  0  0  0
  -30.2210  -18.5110   20.2090 C   0  0  0  0  0  0  0  0  0  0  0  0
  -29.1680  -21.1340   20.8010 C   0  0  0  0  0  0  0  0  0  0  0  0
  -30.8660  -17.1570   19.8660 C   0  0  0  0  0  2  0  0  0  0  0  0
  -30.9010  -14.7150   19.9890 C   0  0  0  0  0  0  0  0  0  0  0  0
  -30.4910  -12.5150   18.9750 C   0  0  0  0  0  2  0  0  0  0  0  0
  -29.5220  -12.6900   17.7890 C   0  0  0  0  0  2  0  0  0  0  0  0
  -28.0670  -12.5710   18.2750 C   0  0  0  0  0  2  0  0  0  0  0  0
  -27.7730  -13.4490   19.5230 C   0  0  0  0  0  3  0  0  0  0  0  0
  -28.8740  -13.3210   20.6000 C   0  0  0  0  0  2  0  0  0  0  0  0
  -30.1720  -13.5650   19.9580 N   0  0  0  0  0  0  0  0  0  0  0  0
  -32.0420  -14.7680   19.5220 O   0  0  0  0  0  0  0  0  0  0  0  0
  -30.2740  -15.8710   20.3110 N   0  0  0  0  0  0  0  0  0  0  0  0
  -29.3260  -15.8470   20.6540 H   0  0  0  0  0  0  0  0  0  0  0  0
  -25.4270  -14.0560   20.3780 C   0  0  0  0  0  0  0  0  0  0  0  0
  -24.3730  -13.2870   20.7880 C   0  0  0  0  0  0  0  0  0  0  0  0
  -24.8130  -11.9310   20.6990 C   0  0  0  0  0  0  0  0  0  0  0  0
  -26.4480  -13.1700   20.0700 N   0  0  0  0  0  0  0  0  0  0  0  0
  -26.0860  -11.8850   20.3230 N   0  0  0  0  0  0  0  0  0  0  0  0
  -24.0800  -10.6720   20.8970 C   0  0  0  0  0  0  0  0  0  0  0  0
  -24.4710   -9.7360   21.8800 C   0  0  0  0  0  3  0  0  0  0  0  0
  -23.7370   -8.5430   22.0630 C   0  0  0  0  0  3  0  0  0  0  0  0
  -22.6010   -8.2790   21.2630 C   0  0  0  0  0  0  0  0  0  0  0  0
  -22.2290   -9.2040   20.2730 C   0  0  0  0  0  3  0  0  0  0  0  0
  -22.9620  -10.3870   20.0870 C   0  0  0  0  0  3  0  0  0  0  0  0
  -21.8440   -7.1350   21.3530 O   0  0  0  0  0  0  0  0  0  0  0  0
  -21.6480   -6.4930   22.5490 C   0  0  0  0  0  0  0  0  0  0  0  0
  -21.0610   -7.1430   23.6550 C   0  0  0  0  0  3  0  0  0  0  0  0
  -20.8120   -6.4280   24.8430 C   0  0  0  0  0  3  0  0  0  0  0  0
  -21.1420   -5.0620   24.9250 C   0  0  0  0  0  0  0  0  0  0  0  0
  -21.7240   -4.4110   23.8230 C   0  0  0  0  0  3  0  0  0  0  0  0
  -21.9730   -5.1230   22.6370 C   0  0  0  0  0  0  0  0  0  0  0  0
  -22.5120   -4.4870   21.5700 F   0  0  0  0  0  0  0  0  0  0  0  0
  -20.8990   -4.3720   26.0640 F   0  0  0  0  0  0  0  0  0  0  0  0
  -22.9970  -13.7740   21.1440 C   0  0  0  0  0  0  0  0  0  0  0  0
  -22.3140  -13.0780   22.0470 N   0  0  0  0  0  0  0  0  0  0  0  0
  -22.5370  -14.8060   20.6560 O   0  0  0  0  0  0  0  0  0  0  0  0
  -22.7010  -12.2420   22.4610 H   0  0  0  0  0  0  0  0  0  0  0  0
  -21.3950  -13.3850   22.3270 H   0  0  0  0  0  0  0  0  0  0  0  0
  -25.6010  -15.4280   20.2220 N   0  0  0  0  0  0  0  0  0  0  0  0
  -24.8430  -16.0890   20.3620 H   0  0  0  0  0  0  0  0  0  0  0  0
  -26.4290  -15.8550   19.8270 H   0  0  0  0  0  0  0  0  0  0  0  0
  -29.1030  -26.2150   20.9170 C   0  0  0  0  0  2  0  0  0  0  0  0
  -28.6890  -27.0110   19.7930 O   0  0  0  0  0  0  0  0  0  0  0  0
  -24.5290  -31.7820   23.1700 C   0  0  0  0  0  0  0  0  0  0  0  0
  -27.4960  -27.7000   19.8930 C   0  0  0  0  0  0  0  0  0  0  0  0
  -23.4370  -30.4000   21.4330 C   0  0  0  0  0  3  0  0  0  0  0  0
  -25.0080  -29.0450   19.9450 C   0  0  0  0  0  0  0  0  0  0  0  0
  -25.9310  -30.9410   21.2860 C   0  0  0  0  0  2  0  0  0  0  0  0
  -26.1200  -29.6110   20.5830 C   0  0  0  0  0  0  0  0  0  0  0  0
  -27.3670  -28.9400   20.5640 C   0  0  0  0  0  3  0  0  0  0  0  0
  -26.3740  -27.1600   19.2350 C   0  0  0  0  0  3  0  0  0  0  0  0
  -25.1290  -27.8160   19.2690 C   0  0  0  0  0  3  0  0  0  0  0  0
  -23.7050  -29.8120   20.0210 C   0  0  0  0  0  2  0  0  0  0  0  0
  -24.6490  -31.0530   22.0240 N   0  0  0  0  0  0  0  0  0  0  0  0
  -23.4270  -31.9480   23.7120 O   0  0  0  0  0  0  0  0  0  0  0  0
  -22.8460  -29.2870   22.3280 C   0  0  0  0  0  0  0  0  0  0  0  0
  -21.5360  -29.0280   22.1800 N   0  0  0  0  0  0  0  0  0  0  0  0
  -23.5610  -28.6620   23.1150 O   0  0  0  0  0  0  0  0  0  0  0  0
  -21.0120  -29.5910   21.5240 H   0  0  0  0  0  0  0  0  0  0  0  0
  -18.2350  -27.6390   22.6510 C   0  0  0  0  0  0  0  0  0  0  0  0
  -20.7830  -27.9950   22.8900 C   0  0  0  0  0  3  0  0  0  0  0  0
  -20.9350  -26.6220   22.1990 C   0  0  0  0  0  2  0  0  0  0  0  0
  -19.8260  -26.3310   21.1810 C   0  0  0  0  0  2  0  0  0  0  0  0
  -18.4540  -26.3590   21.8630 C   0  0  0  0  0  2  0  0  0  0  0  0
  -19.3270  -28.4150   23.1210 C   0  0  0  0  0  0  0  0  0  0  0  0
  -19.0680  -29.6140   23.8180 C   0  0  0  0  0  3  0  0  0  0  0  0
  -17.7470  -30.0390   24.0530 C   0  0  0  0  0  3  0  0  0  0  0  0
  -16.6690  -29.2610   23.5960 C   0  0  0  0  0  3  0  0  0  0  0  0
  -16.9130  -28.0620   22.9030 C   0  0  0  0  0  3  0  0  0  0  0  0
  -25.7650  -32.4640   23.8400 C   0  0  0  0  0  3  0  0  0  0  0  0
  -26.2700  -31.7040   25.1270 C   0  0  1  0  0  0  0  0  0  0  0  0
  -25.1520  -31.4060   26.1540 C   0  0  0  0  0  1  0  0  0  0  0  0
  -26.9270  -30.3590   24.7420 C   0  0  0  0  0  1  0  0  0  0  0  0
  -27.3580  -32.5420   25.8370 C   0  0  0  0  0  1  0  0  0  0  0  0
  -25.3870  -33.8460   24.1660 N   0  0  0  0  0  0  0  0  0  0  0  0
  -25.6960  -34.9140   23.4190 C   0  0  0  0  0  0  0  0  0  0  0  0
  -26.4030  -34.8420   22.4100 O   0  0  0  0  0  0  0  0  0  0  0  0
  -24.7590  -33.9720   24.9470 H   0  0  0  0  0  0  0  0  0  0  0  0
  -23.9050  -36.6310   23.0120 C   0  0  0  0  0  1  0  0  0  0  0  0
  -25.1350  -36.2790   23.8640 C   0  0  0  0  0  3  0  0  0  0  0  0
  -27.1980  -37.2520   24.7730 C   0  0  0  0  0  1  0  0  0  0  0  0
  -26.1240  -37.3770   23.7910 N   0  0  0  0  0  0  0  0  0  0  0  0
  -25.6740  -38.2780   23.9240 H   0  0  0  0  0  0  0  0  0  0  0  0
  1 54  1  0
  1  2  1  0
  2  4  1  0
  2  7  2  0
  3  1  1  0
  3  6  1  0
  4  5  1  0
  6  5  1  0
  8  3  2  0
  9 11  1  0
 10 12  2  0
 11 14  2  0
 12 14  1  0
 13 10  1  0
 13  9  2  0
 14  6  1  0
 15 13  1  0
 15 24  1  0
 16 24  1  0
 17 22  1  0
 18 19  1  0
 18 17  1  0
 20 19  1  0
 20 29  1  0
 20 21  1  0
 22 16  1  0
 22 21  1  0
 23 16  2  0
 24 25  1  0
 26 27  2  0
 27 46  1  0
 28 27  1  0
 28 31  1  0
 29 30  1  0
 29 26  1  0
 30 28  2  0
 31 32  1  0
 32 33  2  0
 34 37  1  0
 34 33  1  0
 35 34  2  0
 36 35  1  0
 36 31  2  0
 37 38  1  0
 38 43  2  0
 38 39  1  0
 39 40  2  0
 40 41  1  0
 41 45  1  0
 42 41  2  0
 43 42  1  0
 44 43  1  0
 46 47  1  0
 47 50  1  0
 47 49  1  0
 48 46  2  0
 51 52  1  0
 51 26  1  0
 53 51  1  0
 55 57  1  0
 55 54  1  0
 56 67  2  0
 57 62  1  0
 58 66  1  0
 58 68  1  0
 59 65  1  0
 59 61  1  0
 60 66  1  0
 61 60  1  0
 62 61  2  0
 63 64  1  0
 63 57  2  0
 64 59  2  0
 65 58  1  0
 66 56  1  0
 68 70  2  0
 69 68  1  0
 71 69  1  0
 72 81  2  0
 72 77  1  0
 73 69  1  0
 73 77  1  0
 74 73  1  0
 75 76  1  0
 75 74  1  0
 76 72  1  0
 77 78  2  0
 78 79  1  0
 80 79  2  0
 81 80  1  0
 82 56  1  0
 82 87  1  0
 82 83  1  0
 83 86  1  1
 83 84  1  0
 85 83  1  0
 87 90  1  0
 88 92  1  0
 88 87  1  0
 89 88  2  0
 92 91  1  0
 94 92  1  0
 94 95  1  0
 94 93  1  0
M  ISO  4  16 100  24 100  54 101  55 101
M  END
>  <TORSDO>  (49) 
F 19

>  <SCORE>  (49) 
-12.980

>  <name>  (49) 
49

>  <ligand_id>  (49) 
49

>  <original_smiles>  (49) 
[H]c1c([H])c([H])c2c(c1[H])C([H])([H])C([H])([H])C([H])([H])C2([H])N([H])C(=O)C1([H])N(C(=O)C([H])(N([H])C(=O)C([H])(N([H])C([H])([H])[H])C([H])([H])[H])C(C([H])([H])[H])(C([H])([H])[H])C([H])([H])[H])C([H])([H])c2c([H])c(OC([H])([H])C3=C([O-])C([H])([H])C([H])([H])N(c4c([H])c([H])c(C([H])([H])N([H])C(=O)N5C([H])([H])C([H])([H])C([H])([H])C([H])(n6nc(-c7c([H])c([H])c(Oc8c([H])c([H])c(F)c([H])c8F)c([H])c7[H])c(C(=O)N([H])[H])c6N([H])[H])C5([H])[H])c([H])c4[H])C3=O)c([H])c([H])c2C1([H])[H]

>  <smiles>  (49) 
[H]c1c([H])c([H])c2c(c1[H])C([H])([H])C([H])([H])C([H])([H])C2([H])N([H])C(=O)C1([H])N(C(=O)C([H])(N([H])C(=O)C([H])(N([H])C([H])([H])[H])C([H])([H])[H])C(C([H])([H])[H])(C([H])([H])[H])C([H])([H])[H])C([H])([H])c2c([H])c(OC([H])([H])C3=C([O-])C([H])([H])C([H])([H])N(c4c([H])c([H])c(C([H])([H])N([H])C(=O)N5C([H])([H])C([H])([H])C([H])([H])C([H])(n6nc(-c7c([H])c([H])c(Oc8c([H])c([H])c(F)c([H])c8F)c([H])c7[H])c(C(=O)N([H])[H])c6N([H])[H])C5([H])[H])c([H])c4[H])C3=O)c([H])c([H])c2C1([H])[H]

$$$$
50:0:0
     RDKit          3D

 99105  0  0  1  0  0  0  0  0999 V2000
  -21.0730  -28.2330   21.0920 C   0  0  0  0  0 15  0  0  0  0  0  0
  -20.0180  -27.5750   18.7960 C   0  0  0  0  0 15  0  0  0  0  0  0
  -23.2950  -27.8220   20.4600 C   0  0  0  0  0  3  0  0  0  0  0  0
  -22.0450  -26.7500   17.7750 C   0  0  0  0  0  2  0  0  0  0  0  0
  -23.5800  -27.0640   18.6950 N   0  0  0  0  0  0  0  0  0  0  0  0
  -23.6890  -26.1170   19.0300 H   0  0  0  0  0  0  0  0  0  0  0  0
  -23.9530  -27.8510   22.9390 C   0  0  0  0  0  1  0  0  0  0  0  0
  -23.9360  -27.0770   21.6200 C   0  0  0  0  0  2  0  0  0  0  0  0
  -25.1010  -27.0710   17.6960 C   0  0  0  0  0  2  0  0  0  0  0  0
  -27.9660  -24.8190   14.8050 C   0  0  0  0  0  3  0  0  0  0  0  0
  -26.7210  -25.3690   15.5530 C   0  0  0  0  0  3  0  0  0  0  0  0
  -29.2730  -25.6460   16.3270 C   0  0  0  0  0  3  0  0  0  0  0  0
  -29.4570  -24.8830   15.0420 C   0  0  0  0  0  0  0  0  0  0  0  0
  -26.5480  -26.1240   16.8460 C   0  0  0  0  0  0  0  0  0  0  0  0
  -28.0350  -26.1620   17.1140 C   0  0  0  0  0  0  0  0  0  0  0  0
  -28.0380  -25.9490   19.4340 C   0  0  0  0  0  1  0  0  0  0  0  0
  -28.3550  -26.7560   18.3040 O   0  0  0  0  0  0  0  0  0  0  0  0
  -32.3280  -24.1460   13.5680 C   0  0  0  0  0  3  0  0  0  0  0  0
  -30.8800  -24.0460   14.1560 C   0  0  0  0  0  0  0  0  0  0  0  0
  -33.6400  -23.2570   12.7910 C   0  0  0  0  0  0  0  0  0  0  0  0
  -36.3010  -23.1610   12.2710 C   0  0  0  0  0  2  0  0  0  0  0  0
  -37.2190  -23.7310   13.4000 C   0  0  0  0  0  2  0  0  0  0  0  0
  -37.2150  -25.2680   13.3910 C   0  0  0  0  0  2  0  0  0  0  0  0
  -35.7850  -25.7950   13.1470 C   0  0  0  0  0  3  0  0  0  0  0  0
  -35.1240  -25.1700   11.9210 C   0  0  0  0  0  2  0  0  0  0  0  0
  -34.8990  -23.7990   12.3190 N   0  0  0  0  0  0  0  0  0  0  0  0
  -33.7730  -22.0140   12.6260 O   0  0  0  0  0  0  0  0  0  0  0  0
  -34.8140  -28.0290   13.7840 C   0  0  0  0  0  0  0  0  0  0  0  0
  -35.1060  -29.2990   13.3920 C   0  0  0  0  0  0  0  0  0  0  0  0
  -36.1380  -29.1850   12.4100 C   0  0  0  0  0  0  0  0  0  0  0  0
  -35.6740  -27.2230   13.0670 N   0  0  0  0  0  0  0  0  0  0  0  0
  -36.4210  -27.9120   12.1750 N   0  0  0  0  0  0  0  0  0  0  0  0
  -36.9300  -30.2140   11.7410 C   0  0  0  0  0  0  0  0  0  0  0  0
  -37.0580  -30.2570   10.3360 C   0  0  0  0  0  3  0  0  0  0  0  0
  -37.8130  -31.2790    9.7220 C   0  0  0  0  0  3  0  0  0  0  0  0
  -38.4440  -32.2670   10.5150 C   0  0  0  0  0  0  0  0  0  0  0  0
  -38.3340  -32.2010   11.9160 C   0  0  0  0  0  3  0  0  0  0  0  0
  -37.5880  -31.1800   12.5250 C   0  0  0  0  0  3  0  0  0  0  0  0
  -39.2140  -33.2840   10.0090 O   0  0  0  0  0  0  0  0  0  0  0  0
  -39.0650  -33.7220    8.7170 C   0  0  0  0  0  0  0  0  0  0  0  0
  -37.8200  -34.1610    8.2180 C   0  0  0  0  0  3  0  0  0  0  0  0
  -37.7270  -34.6700    6.9070 C   0  0  0  0  0  3  0  0  0  0  0  0
  -38.8780  -34.7470    6.0980 C   0  0  0  0  0  0  0  0  0  0  0  0
  -40.1190  -34.3130    6.5960 C   0  0  0  0  0  3  0  0  0  0  0  0
  -40.2120  -33.8050    7.9030 C   0  0  0  0  0  0  0  0  0  0  0  0
  -41.4140  -33.4080    8.3850 F   0  0  0  0  0  0  0  0  0  0  0  0
  -38.7920  -35.2430    4.8410 F   0  0  0  0  0  0  0  0  0  0  0  0
  -34.5350  -30.5490   13.9860 C   0  0  0  0  0  0  0  0  0  0  0  0
  -34.4420  -31.6150   13.2010 N   0  0  0  0  0  0  0  0  0  0  0  0
  -34.1260  -30.5710   15.1460 O   0  0  0  0  0  0  0  0  0  0  0  0
  -34.7590  -31.5930   12.2440 H   0  0  0  0  0  0  0  0  0  0  0  0
  -34.0450  -32.4680   13.5660 H   0  0  0  0  0  0  0  0  0  0  0  0
  -33.9220  -27.5050   14.7150 N   0  0  0  0  0  0  0  0  0  0  0  0
  -33.3770  -28.1250   15.3050 H   0  0  0  0  0  0  0  0  0  0  0  0
  -33.9800  -26.5660   15.0890 H   0  0  0  0  0  0  0  0  0  0  0  0
  -30.4150  -22.8010   13.9850 O   0  0  0  0  0  0  0  0  0  0  0  0
  -29.5390  -22.7750   14.3510 H   0  0  0  0  0  0  0  0  0  0  0  0
  -22.4910  -24.9500   17.5450 C   0  0  0  0  0  2  0  0  0  0  0  0
  -23.5370  -23.7150   18.0270 O   0  0  0  0  0  0  0  0  0  0  0  0
  -18.4370  -24.7710   20.8520 C   0  0  0  0  0  0  0  0  0  0  0  0
  -23.4470  -22.9110   19.1570 C   0  0  0  0  0  0  0  0  0  0  0  0
  -20.6700  -25.3420   21.7480 C   0  0  0  0  0  3  0  0  0  0  0  0
  -22.5740  -23.7110   21.5710 C   0  0  0  0  0  0  0  0  0  0  0  0
  -20.2090  -22.9870   21.0570 C   0  0  0  0  0  2  0  0  0  0  0  0
  -21.7100  -22.9440   20.7670 C   0  0  0  0  0  0  0  0  0  0  0  0
  -22.1880  -22.4360   19.5560 C   0  0  0  0  0  3  0  0  0  0  0  0
  -24.4270  -23.2380   20.0940 C   0  0  0  0  0  3  0  0  0  0  0  0
  -23.9620  -23.7200   21.3160 C   0  0  0  0  0  3  0  0  0  0  0  0
  -21.8460  -24.6680   22.5100 C   0  0  0  0  0  2  0  0  0  0  0  0
  -19.6680  -24.3510   21.2910 N   0  0  0  0  0  0  0  0  0  0  0  0
  -18.0540  -25.9430   20.9970 O   0  0  0  0  0  0  0  0  0  0  0  0
  -21.2380  -25.7830   20.4300 C   0  0  0  0  0  0  0  0  0  0  0  0
  -22.4140  -26.4350   20.3180 N   0  0  0  0  0  0  0  0  0  0  0  0
  -20.6100  -25.6900   19.3860 O   0  0  0  0  0  0  0  0  0  0  0  0
  -22.9270  -26.1720   21.1450 H   0  0  0  0  0  0  0  0  0  0  0  0
  -24.6150  -30.8020   21.4170 C   0  0  0  0  0  0  0  0  0  0  0  0
  -23.1830  -28.8480   19.7410 C   0  0  0  0  0  3  0  0  0  0  0  0
  -24.3290  -29.3570   18.9260 C   0  0  0  0  0  2  0  0  0  0  0  0
  -25.6360  -29.3860   19.7330 C   0  0  0  0  0  2  0  0  0  0  0  0
  -25.7270  -30.6810   20.4410 C   0  0  0  0  0  2  0  0  0  0  0  0
  -23.3680  -30.0940   21.1740 C   0  0  0  0  0  0  0  0  0  0  0  0
  -22.5830  -30.2830   22.4300 C   0  0  0  0  0  3  0  0  0  0  0  0
  -22.9340  -31.0790   23.5830 C   0  0  0  0  0  3  0  0  0  0  0  0
  -24.1440  -31.7770   23.6430 C   0  0  0  0  0  3  0  0  0  0  0  0
  -24.9830  -31.6040   22.5430 C   0  0  0  0  0  3  0  0  0  0  0  0
  -17.4790  -23.7770   20.1390 C   0  0  0  0  0  3  0  0  0  0  0  0
  -16.5210  -23.3520   21.1550 N   0  0  0  0  0  0  0  0  0  0  0  0
  -16.5470  -22.1430   21.7270 C   0  0  0  0  0  0  0  0  0  0  0  0
  -17.3340  -21.2550   21.3840 O   0  0  0  0  0  0  0  0  0  0  0  0
  -15.8730  -24.0410   21.5040 H   0  0  0  0  0  0  0  0  0  0  0  0
  -16.2640  -21.8740   24.2020 C   0  0  0  0  0  1  0  0  0  0  0  0
  -15.5340  -21.8800   22.8510 C   0  0  0  0  0  3  0  0  0  0  0  0
  -13.8680  -20.6430   21.5400 C   0  0  0  0  0  1  0  0  0  0  0  0
  -14.7900  -20.6180   22.6740 N   0  0  0  0  0  0  0  0  0  0  0  0
  -14.2570  -20.3960   23.5090 H   0  0  0  0  0  0  0  0  0  0  0  0
  -16.7300  -24.3320   18.8630 C   0  0  1  0  0  0  0  0  0  0  0  0
  -16.0640  -25.7120   19.0710 C   0  0  0  0  0  1  0  0  0  0  0  0
  -17.6720  -24.4110   17.6390 C   0  0  0  0  0  1  0  0  0  0  0  0
  -15.6200  -23.3350   18.4450 C   0  0  0  0  0  1  0  0  0  0  0  0
  3  8  1  0
  4  5  1  0
  5  6  1  0
  8  7  1  0
  9  5  1  0
 10 13  2  0
 10 11  1  0
 11 14  2  0
 12 15  2  0
 13 12  1  0
 14 15  1  0
 14  9  1  0
 15 17  1  0
 17 16  1  0
 18 19  2  0
 19 13  1  0
 20 18  1  0
 21 26  1  0
 21 22  1  0
 23 22  1  0
 24 25  1  0
 24 23  1  0
 25 26  1  0
 26 20  1  0
 27 20  2  0
 28 53  1  0
 29 28  2  0
 29 48  1  0
 30 29  1  0
 31 24  1  0
 31 28  1  0
 32 30  2  0
 32 31  1  0
 33 30  1  0
 33 38  1  0
 34 33  2  0
 35 34  1  0
 35 36  2  0
 36 37  1  0
 37 38  2  0
 39 36  1  0
 40 39  1  0
 41 40  1  0
 42 41  2  0
 43 44  2  0
 43 42  1  0
 44 45  1  0
 45 46  1  0
 45 40  2  0
 47 43  1  0
 48 50  2  0
 49 52  1  0
 49 48  1  0
 51 49  1  0
 53 55  1  0
 53 54  1  0
 56 19  1  0
 56 57  1  0
 58  4  1  0
 58 59  1  0
 59 61  1  0
 60 71  2  0
 60 70  1  0
 61 66  2  0
 61 67  1  0
 62 72  1  0
 62 69  1  0
 63 69  1  0
 64 70  1  0
 65 64  1  0
 65 63  2  0
 66 65  1  0
 67 68  2  0
 68 63  1  0
 70 62  1  0
 73 72  1  0
 73  3  1  0
 73 75  1  0
 74 72  2  0
 76 85  1  0
 77  3  1  0
 77 81  1  0
 78 79  1  0
 78 77  1  0
 79 80  1  0
 80 76  1  0
 81 76  2  0
 81 82  1  0
 82 83  2  0
 83 84  1  0
 85 84  2  0
 86 60  1  0
 86 87  1  0
 87 90  1  0
 87 88  1  0
 88 92  1  0
 89 88  2  0
 92 91  1  0
 93 94  1  0
 94 92  1  0
 94 95  1  0
 96 97  1  1
 96 86  1  0
 98 96  1  0
 99 96  1  0
M  ISO  4  18 100  20 100  58 101  59 101
M  END
>  <TORSDO>  (50) 
F 23

>  <SCORE>  (50) 
-1.731

>  <name>  (50) 
50

>  <ligand_id>  (50) 
50

>  <original_smiles>  (50) 
[H]OC(=C([H])C(=O)N1C([H])([H])C([H])([H])C([H])([H])C([H])(n2nc(-c3c([H])c([H])c(Oc4c([H])c([H])c(F)c([H])c4F)c([H])c3[H])c(C(=O)N([H])[H])c2N([H])[H])C1([H])[H])c1c([H])c([H])c(C([H])([H])[N+]2([H])C([H])(C([H])([H])Oc3c([H])c([H])c4c(c3[H])C([H])([H])N(C(=O)C([H])(N([H])C(=O)C([H])(N([H])C([H])([H])[H])C([H])([H])[H])C(C([H])([H])[H])(C([H])([H])[H])C([H])([H])[H])C([H])(C(=O)N([H])C3([H])c5c([H])c([H])c([H])c([H])c5C([H])([H])C([H])([H])C3([H])[H])C4([H])[H])C([H])([H])C([H])([H])C2([H])C([H])([H])C([H])([H])[H])c(OC([H])([H])[H])c1[H]

>  <smiles>  (50) 
[H]OC(=C([H])C(=O)N1C([H])([H])C([H])([H])C([H])([H])C([H])(n2nc(-c3c([H])c([H])c(Oc4c([H])c([H])c(F)c([H])c4F)c([H])c3[H])c(C(=O)N([H])[H])c2N([H])[H])C1([H])[H])c1c([H])c([H])c(C([H])([H])[N+]2([H])C([H])(C([H])([H])Oc3c([H])c([H])c4c(c3[H])C([H])([H])N(C(=O)C([H])(N([H])C(=O)C([H])(N([H])C([H])([H])[H])C([H])([H])[H])C(C([H])([H])[H])(C([H])([H])[H])C([H])([H])[H])C([H])(C(=O)N([H])C3([H])c5c([H])c([H])c([H])c([H])c5C([H])([H])C([H])([H])C3([H])[H])C4([H])[H])C([H])([H])C([H])([H])C2([H])C([H])([H])C([H])([H])[H])c(OC([H])([H])[H])c1[H]

$$$$
51:0:0
     RDKit          3D

 99108  0  0  1  0  0  0  0  0999 V2000
  -30.8370  -23.3170   17.3980 C   0  0  0  0  0  0  0  0  0  0  0  0
  -28.9900  -23.0230   19.9460 C   0  0  0  0  0  0  0  0  0  0  0  0
  -31.4940  -23.9500   18.6270 C   0  0  0  0  0  2  0  0  0  0  0  0
  -29.5230  -22.5360   17.5710 C   0  0  0  0  0  2  0  0  0  0  0  0
  -30.5840  -24.9500   19.3790 C   0  0  0  0  0  2  0  0  0  0  0  0
  -29.1040  -24.5260   19.5960 C   0  0  0  0  0  3  0  0  0  0  0  0
  -29.2700  -22.1170   18.9680 N   0  0  0  0  0  0  0  0  0  0  0  0
  -31.3540  -23.4380   16.2840 O   0  0  0  0  0  0  0  0  0  0  0  0
  -28.6640  -22.6900   21.0910 O   0  0  0  0  0  0  0  0  0  0  0  0
  -28.7910  -18.4320   18.5870 C   0  0  0  0  0  3  0  0  0  0  0  0
  -28.5650  -19.8170   18.4860 C   0  0  0  0  0  3  0  0  0  0  0  0
  -30.2930  -20.2130   20.1610 C   0  0  0  0  0  3  0  0  0  0  0  0
  -29.8070  -17.9310   19.4290 C   0  0  0  0  0  0  0  0  0  0  0  0
  -29.3480  -20.7190   19.2380 C   0  0  0  0  0  0  0  0  0  0  0  0
  -30.5270  -18.8250   20.2580 C   0  0  0  0  0  0  0  0  0  0  0  0
  -31.5190  -18.3620   21.1210 N   0  0  0  0  0  0  0  0  0  0  0  0
  -31.7900  -18.9500   21.9030 H   0  0  0  0  0  0  0  0  0  0  0  0
  -31.5010  -17.3760   21.3600 H   0  0  0  0  0  0  0  0  0  0  0  0
  -30.2340  -16.4820   19.2450 C   0  0  0  0  0  2  0  0  0  0  0  0
  -30.6940  -14.4290   20.4220 C   0  0  0  0  0  0  0  0  0  0  0  0
  -30.3620  -12.2550   19.3800 C   0  0  0  0  0  2  0  0  0  0  0  0
  -29.4460  -12.4830   18.1590 C   0  0  0  0  0  2  0  0  0  0  0  0
  -27.9660  -12.3720   18.5720 C   0  0  0  0  0  2  0  0  0  0  0  0
  -27.6190  -13.2200   19.8260 C   0  0  0  0  0  3  0  0  0  0  0  0
  -28.6670  -13.0310   20.9500 C   0  0  0  0  0  2  0  0  0  0  0  0
  -30.0010  -13.2650   20.3820 N   0  0  0  0  0  0  0  0  0  0  0  0
  -31.8950  -14.5070   20.1600 O   0  0  0  0  0  0  0  0  0  0  0  0
  -29.9230  -15.5190   20.3090 N   0  0  0  0  0  0  0  0  0  0  0  0
  -28.9480  -15.4050   20.5390 H   0  0  0  0  0  0  0  0  0  0  0  0
  -25.2170  -13.8340   20.5110 C   0  0  0  0  0  0  0  0  0  0  0  0
  -24.1460  -13.0650   20.8770 C   0  0  0  0  0  0  0  0  0  0  0  0
  -24.6070  -11.7130   20.8650 C   0  0  0  0  0  0  0  0  0  0  0  0
  -26.2640  -12.9500   20.2990 N   0  0  0  0  0  0  0  0  0  0  0  0
  -25.9010  -11.6710   20.5710 N   0  0  0  0  0  0  0  0  0  0  0  0
  -23.8790  -10.4530   21.0580 C   0  0  0  0  0  0  0  0  0  0  0  0
  -24.3150   -9.4830   21.9870 C   0  0  0  0  0  3  0  0  0  0  0  0
  -23.5870   -8.2880   22.1680 C   0  0  0  0  0  3  0  0  0  0  0  0
  -22.4090   -8.0540   21.4210 C   0  0  0  0  0  0  0  0  0  0  0  0
  -21.9930   -9.0120   20.4790 C   0  0  0  0  0  3  0  0  0  0  0  0
  -22.7210  -10.1990   20.2960 C   0  0  0  0  0  3  0  0  0  0  0  0
  -21.6520   -6.9110   21.5110 O   0  0  0  0  0  0  0  0  0  0  0  0
  -21.6250   -6.1560   22.6560 C   0  0  0  0  0  0  0  0  0  0  0  0
  -21.2420   -6.7020   23.9000 C   0  0  0  0  0  3  0  0  0  0  0  0
  -21.1590   -5.8740   25.0370 C   0  0  0  0  0  3  0  0  0  0  0  0
  -21.4500   -4.5010   24.9330 C   0  0  0  0  0  0  0  0  0  0  0  0
  -21.8280   -3.9530   23.6940 C   0  0  0  0  0  3  0  0  0  0  0  0
  -21.9120   -4.7790   22.5580 C   0  0  0  0  0  0  0  0  0  0  0  0
  -22.2550   -4.2430   21.3620 F   0  0  0  0  0  0  0  0  0  0  0  0
  -21.3640   -3.7030   26.0230 F   0  0  0  0  0  0  0  0  0  0  0  0
  -22.7450  -13.5440   21.1290 C   0  0  0  0  0  0  0  0  0  0  0  0
  -22.0090  -12.8570   21.9950 N   0  0  0  0  0  0  0  0  0  0  0  0
  -22.3130  -14.5640   20.5940 O   0  0  0  0  0  0  0  0  0  0  0  0
  -22.3700  -12.0320   22.4490 H   0  0  0  0  0  0  0  0  0  0  0  0
  -21.0680  -13.1600   22.2040 H   0  0  0  0  0  0  0  0  0  0  0  0
  -25.3820  -15.2030   20.3200 N   0  0  0  0  0  0  0  0  0  0  0  0
  -24.6110  -15.8550   20.4140 H   0  0  0  0  0  0  0  0  0  0  0  0
  -26.2300  -15.6430   19.9870 H   0  0  0  0  0  0  0  0  0  0  0  0
  -28.4090  -25.4360   20.6260 C   0  0  0  0  0  2  0  0  0  0  0  0
  -28.4360  -26.7790   20.1400 O   0  0  0  0  0  0  0  0  0  0  0  0
  -24.6130  -31.8750   23.2300 C   0  0  0  0  0  0  0  0  0  0  0  0
  -27.2460  -27.4600   20.1490 C   0  0  0  0  0  0  0  0  0  0  0  0
  -23.3950  -30.4680   21.5980 C   0  0  0  0  0  3  0  0  0  0  0  0
  -24.8410  -28.9300   20.1670 C   0  0  0  0  0  0  0  0  0  0  0  0
  -25.9130  -30.8420   21.3750 C   0  0  0  0  0  2  0  0  0  0  0  0
  -25.9980  -29.4720   20.7400 C   0  0  0  0  0  0  0  0  0  0  0  0
  -27.2060  -28.7450   20.7240 C   0  0  0  0  0  3  0  0  0  0  0  0
  -26.0770  -26.9210   19.5700 C   0  0  0  0  0  3  0  0  0  0  0  0
  -24.8730  -27.6530   19.5800 C   0  0  0  0  0  3  0  0  0  0  0  0
  -23.5940  -29.7830   20.2190 C   0  0  0  0  0  2  0  0  0  0  0  0
  -24.6590  -31.0760   22.1260 N   0  0  0  0  0  0  0  0  0  0  0  0
  -23.5360  -32.1470   23.7780 O   0  0  0  0  0  0  0  0  0  0  0  0
  -22.7540  -29.4480   22.5660 C   0  0  0  0  0  0  0  0  0  0  0  0
  -21.4290  -29.2660   22.4470 N   0  0  0  0  0  0  0  0  0  0  0  0
  -23.4450  -28.8230   23.3740 O   0  0  0  0  0  0  0  0  0  0  0  0
  -20.9340  -29.8230   21.7650 H   0  0  0  0  0  0  0  0  0  0  0  0
  -18.0590  -28.0750   22.9640 C   0  0  0  0  0  0  0  0  0  0  0  0
  -20.6180  -28.3300   23.2250 C   0  0  0  0  0  3  0  0  0  0  0  0
  -20.7160  -26.8980   22.6490 C   0  0  0  0  0  2  0  0  0  0  0  0
  -19.6100  -26.5780   21.6400 C   0  0  0  0  0  2  0  0  0  0  0  0
  -18.2310  -26.7250   22.2890 C   0  0  0  0  0  2  0  0  0  0  0  0
  -19.1800  -28.8370   23.3880 C   0  0  0  0  0  0  0  0  0  0  0  0
  -18.9680  -30.1020   23.9770 C   0  0  0  0  0  3  0  0  0  0  0  0
  -17.6640  -30.6050   24.1470 C   0  0  0  0  0  3  0  0  0  0  0  0
  -16.5570  -29.8420   23.7390 C   0  0  0  0  0  3  0  0  0  0  0  0
  -16.7550  -28.5790   23.1540 C   0  0  0  0  0  3  0  0  0  0  0  0
  -25.9060  -32.5050   23.8390 C   0  0  0  0  0  3  0  0  0  0  0  0
  -26.4420  -31.7270   25.1020 C   0  0  1  0  0  0  0  0  0  0  0  0
  -25.3640  -31.4810   26.1840 C   0  0  0  0  0  1  0  0  0  0  0  0
  -27.0200  -30.3520   24.6900 C   0  0  0  0  0  1  0  0  0  0  0  0
  -27.6000  -32.5180   25.7530 C   0  0  0  0  0  1  0  0  0  0  0  0
  -25.5970  -33.9000   24.1790 N   0  0  0  0  0  0  0  0  0  0  0  0
  -25.9230  -34.9560   23.4220 C   0  0  0  0  0  0  0  0  0  0  0  0
  -26.5870  -34.8590   22.3870 O   0  0  0  0  0  0  0  0  0  0  0  0
  -25.0050  -34.0500   24.9830 H   0  0  0  0  0  0  0  0  0  0  0  0
  -24.1890  -36.7460   23.0830 C   0  0  0  0  0  1  0  0  0  0  0  0
  -25.4340  -36.3410   23.8880 C   0  0  0  0  0  3  0  0  0  0  0  0
  -27.5740  -37.2220   24.7110 C   0  0  0  0  0  1  0  0  0  0  0  0
  -26.4640  -37.3970   23.7770 N   0  0  0  0  0  0  0  0  0  0  0  0
  -26.0570  -38.3150   23.9340 H   0  0  0  0  0  0  0  0  0  0  0  0
  1  4  1  0
  1  3  1  0
  2  9  2  0
  3  5  1  0
  4  7  1  0
  5  6  1  0
  6  2  1  0
  6 58  1  0
  7 14  1  0
  7  2  1  0
  8  1  2  0
 10 13  1  0
 11 10  2  0
 11 14  1  0
 12 15  1  0
 13 15  2  0
 14 12  2  0
 15 16  1  0
 16 18  1  0
 16 17  1  0
 19 13  1  0
 19 28  1  0
 21 26  1  0
 22 23  1  0
 22 21  1  0
 24 23  1  0
 24 33  1  0
 24 25  1  0
 26 20  1  0
 26 25  1  0
 27 20  2  0
 28 20  1  0
 28 29  1  0
 30 31  2  0
 31 50  1  0
 32 31  1  0
 32 35  1  0
 33 30  1  0
 33 34  1  0
 34 32  2  0
 35 36  1  0
 36 37  2  0
 38 41  1  0
 38 37  1  0
 39 38  2  0
 40 39  1  0
 40 35  2  0
 41 42  1  0
 42 43  1  0
 43 44  2  0
 45 44  1  0
 45 49  1  0
 46 45  2  0
 47 42  2  0
 47 46  1  0
 48 47  1  0
 50 51  1  0
 51 54  1  0
 51 53  1  0
 52 50  2  0
 55 56  1  0
 55 30  1  0
 57 55  1  0
 59 61  1  0
 59 58  1  0
 60 71  2  0
 61 66  1  0
 62 70  1  0
 62 72  1  0
 63 69  1  0
 63 65  1  0
 64 70  1  0
 65 64  1  0
 66 65  2  0
 67 68  1  0
 67 61  2  0
 68 63  2  0
 69 62  1  0
 70 60  1  0
 72 74  2  0
 73 72  1  0
 75 73  1  0
 76 85  2  0
 76 81  1  0
 77 73  1  0
 77 81  1  0
 78 77  1  0
 79 80  1  0
 79 78  1  0
 80 76  1  0
 81 82  2  0
 82 83  1  0
 84 83  2  0
 85 84  1  0
 86 60  1  0
 86 91  1  0
 86 87  1  0
 87 90  1  1
 87 88  1  0
 89 87  1  0
 91 94  1  0
 92 96  1  0
 92 91  1  0
 93 92  2  0
 96 95  1  0
 98 96  1  0
 98 99  1  0
 98 97  1  0
M  ISO  4  20 100  28 100  58 101  59 101
M  END
>  <TORSDO>  (51) 
F 20

>  <SCORE>  (51) 
-14.267

>  <name>  (51) 
51

>  <ligand_id>  (51) 
51

>  <original_smiles>  (51) 
[H]c1c([H])c([H])c2c(c1[H])C([H])([H])C([H])([H])C([H])([H])C2([H])N([H])C(=O)C1([H])N(C(=O)C([H])(N([H])C(=O)C([H])(N([H])C([H])([H])[H])C([H])([H])[H])C(C([H])([H])[H])(C([H])([H])[H])C([H])([H])[H])C([H])([H])c2c([H])c(OC([H])([H])C3([H])C(=O)N(c4c([H])c([H])c(C([H])([H])N([H])C(=O)N5C([H])([H])C([H])([H])C([H])([H])C([H])(n6nc(-c7c([H])c([H])c(Oc8c([H])c([H])c(F)c([H])c8F)c([H])c7[H])c(C(=O)N([H])[H])c6N([H])[H])C5([H])[H])c(N([H])[H])c4[H])C([H])([H])C(=O)C([H])([H])C3([H])[H])c([H])c([H])c2C1([H])[H]

>  <smiles>  (51) 
[H]c1c([H])c([H])c2c(c1[H])C([H])([H])C([H])([H])C([H])([H])C2([H])N([H])C(=O)C1([H])N(C(=O)C([H])(N([H])C(=O)C([H])(N([H])C([H])([H])[H])C([H])([H])[H])C(C([H])([H])[H])(C([H])([H])[H])C([H])([H])[H])C([H])([H])c2c([H])c(OC([H])([H])C3([H])C(=O)N(c4c([H])c([H])c(C([H])([H])N([H])C(=O)N5C([H])([H])C([H])([H])C([H])([H])C([H])(n6nc(-c7c([H])c([H])c(Oc8c([H])c([H])c(F)c([H])c8F)c([H])c7[H])c(C(=O)N([H])[H])c6N([H])[H])C5([H])[H])c(N([H])[H])c4[H])C([H])([H])C(=O)C([H])([H])C3([H])[H])c([H])c([H])c2C1([H])[H]

$$$$
52:0:0
     RDKit          3D

 92100  0  0  1  0  0  0  0  0999 V2000
  -30.0760  -18.0420   20.2540 C   0  0  0  0  0  3  0  0  0  0  0  0
  -28.1100  -16.6260   20.1680 C   0  0  0  0  0  3  0  0  0  0  0  0
  -27.9140  -19.0140   19.6850 C   0  0  0  0  0  3  0  0  0  0  0  0
  -29.5030  -16.7350   20.3760 C   0  0  0  0  0  0  0  0  0  0  0  0
  -29.2970  -19.1980   19.9130 C   0  0  0  0  0  0  0  0  0  0  0  0
  -27.3290  -17.7440   19.8220 C   0  0  0  0  0  0  0  0  0  0  0  0
  -25.9930  -17.6110   19.6450 F   0  0  0  0  0  0  0  0  0  0  0  0
  -30.2160  -15.5040   20.8980 C   0  0  0  0  0  0  0  0  0  0  0  0
  -30.3890  -15.3800   22.1510 N   0  0  0  0  0  0  0  0  0  0  0  0
  -30.0160  -16.1770   22.6540 H   0  0  0  0  0  0  0  0  0  0  0  0
  -30.6970  -14.3900   19.9330 C   0  0  0  0  0  0  0  0  0  0  0  0
  -30.3720  -12.1220   18.9720 C   0  0  0  0  0  2  0  0  0  0  0  0
  -29.3600  -12.1790   17.8090 C   0  0  0  0  0  2  0  0  0  0  0  0
  -27.9140  -12.0580   18.3260 C   0  0  0  0  0  2  0  0  0  0  0  0
  -27.6310  -12.9960   19.5310 C   0  0  0  0  0  3  0  0  0  0  0  0
  -28.7490  -12.8890   20.5920 C   0  0  0  0  0  2  0  0  0  0  0  0
  -30.0300  -13.1920   19.9330 N   0  0  0  0  0  0  0  0  0  0  0  0
  -31.7130  -14.5760   19.2540 O   0  0  0  0  0  0  0  0  0  0  0  0
  -25.3080  -13.6600   20.4140 C   0  0  0  0  0  0  0  0  0  0  0  0
  -24.2540  -12.9190   20.8700 C   0  0  0  0  0  0  0  0  0  0  0  0
  -24.6640  -11.5540   20.7770 C   0  0  0  0  0  0  0  0  0  0  0  0
  -26.3100  -12.7510   20.1020 N   0  0  0  0  0  0  0  0  0  0  0  0
  -25.9260  -11.4780   20.3710 N   0  0  0  0  0  0  0  0  0  0  0  0
  -23.9070  -10.3180   20.9960 C   0  0  0  0  0  0  0  0  0  0  0  0
  -24.3720   -9.3140   21.8730 C   0  0  0  0  0  3  0  0  0  0  0  0
  -23.6140   -8.1410   22.0840 C   0  0  0  0  0  3  0  0  0  0  0  0
  -22.3790   -7.9650   21.4180 C   0  0  0  0  0  0  0  0  0  0  0  0
  -21.9320   -8.9570   20.5270 C   0  0  0  0  0  3  0  0  0  0  0  0
  -22.6880  -10.1210   20.3140 C   0  0  0  0  0  3  0  0  0  0  0  0
  -21.5910   -6.8470   21.5400 O   0  0  0  0  0  0  0  0  0  0  0  0
  -21.6010   -6.0800   22.6780 C   0  0  0  0  0  0  0  0  0  0  0  0
  -21.2840   -6.6210   23.9430 C   0  0  0  0  0  3  0  0  0  0  0  0
  -21.2380   -5.7860   25.0750 C   0  0  0  0  0  3  0  0  0  0  0  0
  -21.5000   -4.4080   24.9450 C   0  0  0  0  0  0  0  0  0  0  0  0
  -21.8130   -3.8660   23.6870 C   0  0  0  0  0  3  0  0  0  0  0  0
  -21.8600   -4.7010   22.5550 C   0  0  0  0  0  0  0  0  0  0  0  0
  -22.1380   -4.1680   21.3400 F   0  0  0  0  0  0  0  0  0  0  0  0
  -21.4480   -3.6050   26.0330 F   0  0  0  0  0  0  0  0  0  0  0  0
  -22.9020  -13.4420   21.2620 C   0  0  0  0  0  0  0  0  0  0  0  0
  -22.2270  -12.7630   22.1840 N   0  0  0  0  0  0  0  0  0  0  0  0
  -22.4530  -14.4840   20.7850 O   0  0  0  0  0  0  0  0  0  0  0  0
  -22.6000  -11.9190   22.5920 H   0  0  0  0  0  0  0  0  0  0  0  0
  -21.3250  -13.0950   22.4900 H   0  0  0  0  0  0  0  0  0  0  0  0
  -25.4830  -15.0190   20.2130 N   0  0  0  0  0  0  0  0  0  0  0  0
  -24.7730  -15.7020   20.4540 H   0  0  0  0  0  0  0  0  0  0  0  0
  -26.2820  -15.4400   19.7620 H   0  0  0  0  0  0  0  0  0  0  0  0
  -29.9070  -20.4530   19.8620 O   0  0  0  0  0  0  0  0  0  0  0  0
  -29.2520  -21.6250   19.2940 C   0  0  0  0  0  2  0  0  0  0  0  0
  -28.9840  -22.7870   20.3060 C   0  0  0  0  0  2  0  0  0  0  0  0
  -28.6680  -24.1980   19.6820 C   0  0  0  0  0  2  0  0  0  0  0  0
  -28.4380  -25.3400   20.7240 C   0  0  0  0  0  2  0  0  0  0  0  0
  -28.4890  -26.7040   20.2300 O   0  0  0  0  0  0  0  0  0  0  0  0
  -24.6060  -31.8970   23.2920 C   0  0  0  0  0  0  0  0  0  0  0  0
  -27.3180  -27.4410   20.2500 C   0  0  0  0  0  0  0  0  0  0  0  0
  -23.4320  -30.4840   21.6370 C   0  0  0  0  0  3  0  0  0  0  0  0
  -24.9140  -28.9480   20.2350 C   0  0  0  0  0  0  0  0  0  0  0  0
  -25.9610  -30.8540   21.4710 C   0  0  0  0  0  2  0  0  0  0  0  0
  -26.0650  -29.4800   20.8310 C   0  0  0  0  0  0  0  0  0  0  0  0
  -27.2730  -28.7390   20.8230 C   0  0  0  0  0  3  0  0  0  0  0  0
  -26.1470  -26.9240   19.6580 C   0  0  0  0  0  3  0  0  0  0  0  0
  -24.9520  -27.6710   19.6450 C   0  0  0  0  0  3  0  0  0  0  0  0
  -23.6610  -29.7990   20.2640 C   0  0  0  0  0  2  0  0  0  0  0  0
  -24.6850  -31.0940   22.1920 N   0  0  0  0  0  0  0  0  0  0  0  0
  -23.5170  -32.1610   23.8190 O   0  0  0  0  0  0  0  0  0  0  0  0
  -22.7740  -29.4620   22.5930 C   0  0  0  0  0  0  0  0  0  0  0  0
  -21.4500  -29.2770   22.4550 N   0  0  0  0  0  0  0  0  0  0  0  0
  -23.4540  -28.8360   23.4120 O   0  0  0  0  0  0  0  0  0  0  0  0
  -20.9660  -29.8380   21.7670 H   0  0  0  0  0  0  0  0  0  0  0  0
  -18.0710  -28.0870   22.9390 C   0  0  0  0  0  0  0  0  0  0  0  0
  -20.6290  -28.3350   23.2140 C   0  0  0  0  0  3  0  0  0  0  0  0
  -20.7270  -26.9090   22.6230 C   0  0  0  0  0  2  0  0  0  0  0  0
  -19.6250  -26.6000   21.6040 C   0  0  0  0  0  2  0  0  0  0  0  0
  -18.2440  -26.7440   22.2490 C   0  0  0  0  0  2  0  0  0  0  0  0
  -19.1920  -28.8420   23.3760 C   0  0  0  0  0  0  0  0  0  0  0  0
  -18.9770  -30.1010   23.9780 C   0  0  0  0  0  3  0  0  0  0  0  0
  -17.6740  -30.6050   24.1480 C   0  0  0  0  0  3  0  0  0  0  0  0
  -16.5670  -29.8470   23.7280 C   0  0  0  0  0  3  0  0  0  0  0  0
  -16.7670  -28.5910   23.1290 C   0  0  0  0  0  3  0  0  0  0  0  0
  -25.8780  -32.5380   23.9290 C   0  0  0  0  0  3  0  0  0  0  0  0
  -25.5650  -33.9410   24.2310 N   0  0  0  0  0  0  0  0  0  0  0  0
  -25.9090  -34.9810   23.4590 C   0  0  0  0  0  0  0  0  0  0  0  0
  -26.5930  -34.8590   22.4400 O   0  0  0  0  0  0  0  0  0  0  0  0
  -24.9570  -34.1080   25.0190 H   0  0  0  0  0  0  0  0  0  0  0  0
  -24.1770  -36.7620   23.0540 C   0  0  0  0  0  1  0  0  0  0  0  0
  -25.4120  -36.3760   23.8850 C   0  0  0  0  0  3  0  0  0  0  0  0
  -27.5350  -37.2840   24.7210 C   0  0  0  0  0  1  0  0  0  0  0  0
  -26.4430  -37.4300   23.7620 N   0  0  0  0  0  0  0  0  0  0  0  0
  -26.0330  -38.3510   23.8860 H   0  0  0  0  0  0  0  0  0  0  0  0
  -26.3720  -31.7870   25.2270 C   0  0  1  0  0  0  0  0  0  0  0  0
  -25.2590  -31.5630   26.2770 C   0  0  0  0  0  1  0  0  0  0  0  0
  -26.9630  -30.4040   24.8670 C   0  0  0  0  0  1  0  0  0  0  0  0
  -27.5080  -32.5940   25.9010 C   0  0  0  0  0  1  0  0  0  0  0  0
  1  4  1  0
  2  4  2  0
  3  6  2  0
  3  5  1  0
  4  8  1  0
  5  1  2  0
  6  2  1  0
  7  6  1  0
  8  9  2  0
  9 10  1  0
 11 17  1  0
 11  8  1  0
 12 17  1  0
 13 14  1  0
 13 12  1  0
 15 14  1  0
 15 22  1  0
 15 16  1  0
 17 16  1  0
 18 11  2  0
 19 20  2  0
 20 39  1  0
 21 20  1  0
 21 24  1  0
 22 23  1  0
 22 19  1  0
 23 21  2  0
 24 25  1  0
 25 26  2  0
 27 30  1  0
 27 26  1  0
 28 27  2  0
 29 28  1  0
 29 24  2  0
 30 31  1  0
 31 32  1  0
 32 33  2  0
 34 33  1  0
 34 38  1  0
 35 34  2  0
 36 31  2  0
 36 35  1  0
 37 36  1  0
 39 40  1  0
 40 43  1  0
 40 42  1  0
 41 39  2  0
 44 19  1  0
 44 45  1  0
 46 44  1  0
 47  5  1  0
 48 47  1  0
 48 49  1  0
 50 49  1  0
 50 51  1  0
 52 54  1  0
 52 51  1  0
 53 64  2  0
 54 59  1  0
 55 63  1  0
 55 65  1  0
 56 62  1  0
 56 58  1  0
 57 63  1  0
 58 57  1  0
 59 58  2  0
 60 54  2  0
 61 60  1  0
 61 56  2  0
 62 55  1  0
 63 53  1  0
 65 67  2  0
 66 65  1  0
 68 66  1  0
 69 78  2  0
 69 74  1  0
 70 66  1  0
 70 74  1  0
 71 70  1  0
 72 73  1  0
 72 71  1  0
 73 69  1  0
 74 75  2  0
 75 76  1  0
 77 76  2  0
 78 77  1  0
 79 53  1  0
 79 80  1  0
 79 89  1  0
 80 83  1  0
 81 85  1  0
 81 80  1  0
 82 81  2  0
 85 84  1  0
 87 85  1  0
 87 88  1  0
 87 86  1  0
 89 92  1  1
 89 90  1  0
 91 89  1  0
M  ISO  4   8 100  11 100  51 101  52 101
M  END
>  <TORSDO>  (52) 
F 22

>  <SCORE>  (52) 
-13.095

>  <name>  (52) 
52

>  <ligand_id>  (52) 
52

>  <original_smiles>  (52) 
[H]N=C(C(=O)N1C([H])([H])C([H])([H])C([H])([H])C([H])(n2nc(-c3c([H])c([H])c(Oc4c([H])c([H])c(F)c([H])c4F)c([H])c3[H])c(C(=O)N([H])[H])c2N([H])[H])C1([H])[H])c1c([H])c(F)c([H])c(OC([H])([H])C([H])([H])C([H])([H])C([H])([H])Oc2c([H])c([H])c3c(c2[H])C([H])([H])N(C(=O)C([H])(N([H])C(=O)C([H])(N([H])C([H])([H])[H])C([H])([H])[H])C(C([H])([H])[H])(C([H])([H])[H])C([H])([H])[H])C([H])(C(=O)N([H])C2([H])c4c([H])c([H])c([H])c([H])c4C([H])([H])C([H])([H])C2([H])[H])C3([H])[H])c1[H]

>  <smiles>  (52) 
[H]N=C(C(=O)N1C([H])([H])C([H])([H])C([H])([H])C([H])(n2nc(-c3c([H])c([H])c(Oc4c([H])c([H])c(F)c([H])c4F)c([H])c3[H])c(C(=O)N([H])[H])c2N([H])[H])C1([H])[H])c1c([H])c(F)c([H])c(OC([H])([H])C([H])([H])C([H])([H])C([H])([H])Oc2c([H])c([H])c3c(c2[H])C([H])([H])N(C(=O)C([H])(N([H])C(=O)C([H])(N([H])C([H])([H])[H])C([H])([H])[H])C(C([H])([H])[H])(C([H])([H])[H])C([H])([H])[H])C([H])(C(=O)N([H])C2([H])c4c([H])c([H])c([H])c([H])c4C([H])([H])C([H])([H])C2([H])[H])C3([H])[H])c1[H]

$$$$
53:0:0
     RDKit          3D

 93101  0  0  1  0  0  0  0  0999 V2000
  -29.8010  -21.3380   20.1710 C   0  0  0  0  0  3  0  0  0  0  0  0
  -30.9320  -18.5460   22.6190 C   0  0  0  0  0  3  0  0  0  0  0  0
  -30.4920  -19.7610   22.0580 C   0  0  0  0  0  3  0  0  0  0  0  0
  -30.8750  -17.3360   21.9020 C   0  0  0  0  0  3  0  0  0  0  0  0
  -29.8800  -18.5570   20.0360 C   0  0  0  0  0  3  0  0  0  0  0  0
  -29.9740  -19.8380   20.7450 C   0  0  0  0  0  0  0  0  0  0  0  0
  -30.3440  -17.2820   20.5970 C   0  0  0  0  0  0  0  0  0  0  0  0
  -30.9550  -14.7770   20.0250 C   0  0  0  0  0  0  0  0  0  0  0  0
  -30.7020  -12.5080   18.9900 C   0  0  0  0  0  2  0  0  0  0  0  0
  -29.7220  -12.5820   17.7970 C   0  0  0  0  0  2  0  0  0  0  0  0
  -28.2620  -12.4350   18.2730 C   0  0  0  0  0  2  0  0  0  0  0  0
  -27.9360  -13.3360   19.4930 C   0  0  0  0  0  3  0  0  0  0  0  0
  -29.0270  -13.2340   20.5800 C   0  0  0  0  0  2  0  0  0  0  0  0
  -30.3040  -13.5690   19.9390 N   0  0  0  0  0  0  0  0  0  0  0  0
  -32.1640  -14.8430   19.7850 O   0  0  0  0  0  0  0  0  0  0  0  0
  -30.1650  -15.9270   20.0130 N   0  0  0  0  0  0  0  0  0  0  0  0
  -29.2090  -15.7210   19.7720 H   0  0  0  0  0  0  0  0  0  0  0  0
  -25.5860  -13.9900   20.2880 C   0  0  0  0  0  0  0  0  0  0  0  0
  -24.5120  -13.2440   20.6860 C   0  0  0  0  0  0  0  0  0  0  0  0
  -24.9420  -11.8810   20.6490 C   0  0  0  0  0  0  0  0  0  0  0  0
  -26.6020  -13.0840   20.0260 N   0  0  0  0  0  0  0  0  0  0  0  0
  -26.2230  -11.8110   20.3090 N   0  0  0  0  0  0  0  0  0  0  0  0
  -24.1900  -10.6370   20.8610 C   0  0  0  0  0  0  0  0  0  0  0  0
  -24.5830   -9.6930   21.8350 C   0  0  0  0  0  3  0  0  0  0  0  0
  -23.8330   -8.5140   22.0300 C   0  0  0  0  0  3  0  0  0  0  0  0
  -22.6760   -8.2700   21.2530 C   0  0  0  0  0  0  0  0  0  0  0  0
  -22.3030   -9.2030   20.2690 C   0  0  0  0  0  3  0  0  0  0  0  0
  -23.0520  -10.3740   20.0720 C   0  0  0  0  0  3  0  0  0  0  0  0
  -21.9000   -7.1420   21.3580 O   0  0  0  0  0  0  0  0  0  0  0  0
  -21.7610   -6.4710   22.5470 C   0  0  0  0  0  0  0  0  0  0  0  0
  -21.2520   -7.1030   23.7030 C   0  0  0  0  0  3  0  0  0  0  0  0
  -21.0600   -6.3580   24.8840 C   0  0  0  0  0  3  0  0  0  0  0  0
  -21.3660   -4.9850   24.9100 C   0  0  0  0  0  0  0  0  0  0  0  0
  -21.8680   -4.3530   23.7570 C   0  0  0  0  0  3  0  0  0  0  0  0
  -22.0620   -5.0950   22.5790 C   0  0  0  0  0  0  0  0  0  0  0  0
  -22.5250   -4.4760   21.4660 F   0  0  0  0  0  0  0  0  0  0  0  0
  -21.1750   -4.2680   26.0420 F   0  0  0  0  0  0  0  0  0  0  0  0
  -23.1330  -13.7560   20.9850 C   0  0  0  0  0  0  0  0  0  0  0  0
  -22.4120  -13.0910   21.8810 N   0  0  0  0  0  0  0  0  0  0  0  0
  -22.7050  -14.7820   20.4600 O   0  0  0  0  0  0  0  0  0  0  0  0
  -22.7700  -12.2610   22.3310 H   0  0  0  0  0  0  0  0  0  0  0  0
  -21.4870  -13.4170   22.1220 H   0  0  0  0  0  0  0  0  0  0  0  0
  -25.7770  -15.3570   20.1050 N   0  0  0  0  0  0  0  0  0  0  0  0
  -25.0270  -16.0240   20.2520 H   0  0  0  0  0  0  0  0  0  0  0  0
  -26.6270  -15.7900   19.7690 H   0  0  0  0  0  0  0  0  0  0  0  0
  -30.5160  -21.4030   18.8890 N   0  0  0  0  0  4  0  0  0  0  0  0
  -30.0100  -20.9170   18.1710 H   0  0  0  0  0  0  0  0  0  0  0  0
  -31.4190  -20.9750   18.9870 H   0  0  0  0  0  0  0  0  0  0  0  0
  -30.6500  -22.3550   18.6010 H   0  0  0  0  0  0  0  0  0  0  0  0
  -28.4000  -22.1620   20.0780 C   0  0  0  0  0  2  0  0  0  0  0  0
  -27.9830  -23.5860   20.7870 C   0  0  0  0  0  2  0  0  0  0  0  0
  -28.7480  -25.0190   20.7960 C   0  0  0  0  0  2  0  0  0  0  0  0
  -28.4200  -26.3260   20.1190 O   0  0  0  0  0  0  0  0  0  0  0  0
  -24.5670  -31.7550   23.1730 C   0  0  0  0  0  0  0  0  0  0  0  0
  -27.2570  -27.1140   20.2580 C   0  0  0  0  0  0  0  0  0  0  0  0
  -23.3990  -30.3150   21.5450 C   0  0  0  0  0  3  0  0  0  0  0  0
  -24.8800  -28.7290   20.1850 C   0  0  0  0  0  0  0  0  0  0  0  0
  -25.9400  -30.6390   21.3890 C   0  0  0  0  0  2  0  0  0  0  0  0
  -26.0400  -29.2390   20.7820 C   0  0  0  0  0  0  0  0  0  0  0  0
  -27.2340  -28.4480   20.7960 C   0  0  0  0  0  3  0  0  0  0  0  0
  -26.0720  -26.6600   19.6500 C   0  0  0  0  0  3  0  0  0  0  0  0
  -24.9000  -27.4460   19.6110 C   0  0  0  0  0  3  0  0  0  0  0  0
  -23.6390  -29.6030   20.1870 C   0  0  0  0  0  2  0  0  0  0  0  0
  -24.6540  -30.9250   22.0910 N   0  0  0  0  0  0  0  0  0  0  0  0
  -23.4740  -32.0340   23.6880 O   0  0  0  0  0  0  0  0  0  0  0  0
  -22.7280  -29.3170   22.5190 C   0  0  0  0  0  0  0  0  0  0  0  0
  -21.4080  -29.1140   22.3670 N   0  0  0  0  0  0  0  0  0  0  0  0
  -23.3970  -28.7240   23.3690 O   0  0  0  0  0  0  0  0  0  0  0  0
  -20.9260  -29.6430   21.6540 H   0  0  0  0  0  0  0  0  0  0  0  0
  -18.0460  -27.8420   22.8010 C   0  0  0  0  0  0  0  0  0  0  0  0
  -20.5880  -28.1790   23.1410 C   0  0  0  0  0  3  0  0  0  0  0  0
  -20.7450  -26.7330   22.6170 C   0  0  0  0  0  2  0  0  0  0  0  0
  -19.6850  -26.3490   21.5800 C   0  0  0  0  0  2  0  0  0  0  0  0
  -18.2800  -26.4780   22.1750 C   0  0  0  0  0  2  0  0  0  0  0  0
  -19.1310  -28.6480   23.2400 C   0  0  0  0  0  0  0  0  0  0  0  0
  -18.8590  -29.9230   23.7840 C   0  0  0  0  0  3  0  0  0  0  0  0
  -17.5370  -30.3930   23.8930 C   0  0  0  0  0  3  0  0  0  0  0  0
  -16.4670  -29.5850   23.4700 C   0  0  0  0  0  3  0  0  0  0  0  0
  -16.7230  -28.3120   22.9290 C   0  0  0  0  0  3  0  0  0  0  0  0
  -25.8350  -32.4130   23.8020 C   0  0  0  0  0  3  0  0  0  0  0  0
  -25.4960  -33.8040   24.1370 N   0  0  0  0  0  0  0  0  0  0  0  0
  -25.8210  -34.8690   23.3920 C   0  0  0  0  0  0  0  0  0  0  0  0
  -26.5060  -34.7850   22.3690 O   0  0  0  0  0  0  0  0  0  0  0  0
  -24.8890  -33.9410   24.9310 H   0  0  0  0  0  0  0  0  0  0  0  0
  -24.0730  -36.6410   23.0280 C   0  0  0  0  0  1  0  0  0  0  0  0
  -25.3080  -36.2460   23.8550 C   0  0  0  0  0  3  0  0  0  0  0  0
  -27.4160  -37.1550   24.7260 C   0  0  0  0  0  1  0  0  0  0  0  0
  -26.3250  -37.3160   23.7680 N   0  0  0  0  0  0  0  0  0  0  0  0
  -25.9030  -38.2280   23.9180 H   0  0  0  0  0  0  0  0  0  0  0  0
  -26.3600  -31.6510   25.0800 C   0  0  1  0  0  0  0  0  0  0  0  0
  -25.2650  -31.3890   26.1430 C   0  0  0  0  0  1  0  0  0  0  0  0
  -26.9720  -30.2850   24.6910 C   0  0  0  0  0  1  0  0  0  0  0  0
  -27.4910  -32.4660   25.7480 C   0  0  0  0  0  1  0  0  0  0  0  0
  1 50  1  0
  1  6  1  0
  3  2  1  0
  4  2  2  0
  5  7  2  0
  5  6  1  0
  6  3  2  0
  7  4  1  0
  9 14  1  0
 10 11  1  0
 10  9  1  0
 12 11  1  0
 12 21  1  0
 12 13  1  0
 14  8  1  0
 14 13  1  0
 15  8  2  0
 16  8  1  0
 16  7  1  0
 17 16  1  0
 18 19  2  0
 19 38  1  0
 20 19  1  0
 20 23  1  0
 21 18  1  0
 21 22  1  0
 22 20  2  0
 23 24  1  0
 24 25  2  0
 26 29  1  0
 26 25  1  0
 27 26  2  0
 28 27  1  0
 28 23  2  0
 29 30  1  0
 30 35  2  0
 30 31  1  0
 31 32  2  0
 32 33  1  0
 33 37  1  0
 34 33  2  0
 35 34  1  0
 36 35  1  0
 38 39  1  0
 39 42  1  0
 39 41  1  0
 40 38  2  0
 43 44  1  0
 43 18  1  0
 45 43  1  0
 46 48  1  0
 46  1  1  0
 47 46  1  0
 49 46  1  0
 50 51  1  0
 51 52  1  0
 53 55  1  0
 53 52  1  0
 54 65  2  0
 55 60  1  0
 56 64  1  0
 56 66  1  0
 57 63  1  0
 57 59  1  0
 58 64  1  0
 59 60  2  0
 59 58  1  0
 61 55  2  0
 62 61  1  0
 62 57  2  0
 63 56  1  0
 64 54  1  0
 66 68  2  0
 67 66  1  0
 69 67  1  0
 70 79  2  0
 70 75  1  0
 71 67  1  0
 71 75  1  0
 72 71  1  0
 73 74  1  0
 73 72  1  0
 74 70  1  0
 75 76  2  0
 76 77  1  0
 78 77  2  0
 79 78  1  0
 80 54  1  0
 80 81  1  0
 80 90  1  0
 81 84  1  0
 82 86  1  0
 82 81  1  0
 83 82  2  0
 86 85  1  0
 88 86  1  0
 88 89  1  0
 88 87  1  0
 90 93  1  1
 90 91  1  0
 92 90  1  0
M  ISO  4   8 100  16 100  52 101  53 101
M  END
>  <TORSDO>  (53) 
F 21

>  <SCORE>  (53) 
-13.114

>  <name>  (53) 
53

>  <ligand_id>  (53) 
53

>  <original_smiles>  (53) 
[H]c1c([H])c([H])c2c(c1[H])C([H])([H])C([H])([H])C([H])([H])C2([H])N([H])C(=O)C1([H])N(C(=O)C([H])(N([H])C(=O)C([H])(N([H])C([H])([H])[H])C([H])([H])[H])C(C([H])([H])[H])(C([H])([H])[H])C([H])([H])[H])C([H])([H])c2c([H])c(OC([H])([H])C([H])([H])C([H])([H])C([H])(c3c([H])c([H])c([H])c(N([H])C(=O)N4C([H])([H])C([H])([H])C([H])([H])C([H])(n5nc(-c6c([H])c([H])c(Oc7c([H])c([H])c(F)c([H])c7F)c([H])c6[H])c(C(=O)N([H])[H])c5N([H])[H])C4([H])[H])c3[H])[N+]([H])([H])[H])c([H])c([H])c2C1([H])[H]

>  <smiles>  (53) 
[H]c1c([H])c([H])c2c(c1[H])C([H])([H])C([H])([H])C([H])([H])C2([H])N([H])C(=O)C1([H])N(C(=O)C([H])(N([H])C(=O)C([H])(N([H])C([H])([H])[H])C([H])([H])[H])C(C([H])([H])[H])(C([H])([H])[H])C([H])([H])[H])C([H])([H])c2c([H])c(OC([H])([H])C([H])([H])C([H])([H])C([H])(c3c([H])c([H])c([H])c(N([H])C(=O)N4C([H])([H])C([H])([H])C([H])([H])C([H])(n5nc(-c6c([H])c([H])c(Oc7c([H])c([H])c(F)c([H])c7F)c([H])c6[H])c(C(=O)N([H])[H])c5N([H])[H])C4([H])[H])c3[H])[N+]([H])([H])[H])c([H])c([H])c2C1([H])[H]

$$$$
54:0:0
     RDKit          3D

 94103  0  0  1  0  0  0  0  0999 V2000
  -27.7620  -21.9560   18.3610 C   0  0  0  0  0  0  0  0  0  0  0  0
  -26.4950  -22.7430   18.6950 C   0  0  0  0  0  2  0  0  0  0  0  0
  -26.7210  -23.0900   20.1700 C   0  0  0  0  0  2  0  0  0  0  0  0
  -28.2430  -23.2110   20.2270 C   0  0  0  0  0  3  0  0  0  0  0  0
  -28.6420  -21.9360   19.3850 N   0  0  0  0  0  0  0  0  0  0  0  0
  -27.9080  -21.3840   17.2760 O   0  0  0  0  0  0  0  0  0  0  0  0
  -30.2890  -19.8660   19.3770 C   0  0  0  0  0  3  0  0  0  0  0  0
  -30.5890  -18.4400   19.4920 C   0  0  0  0  0  3  0  0  0  0  0  0
  -28.1420  -19.5000   20.2520 C   0  0  0  0  0  3  0  0  0  0  0  0
  -28.4270  -18.0730   20.3560 C   0  0  0  0  0  0  0  0  0  0  0  0
  -29.0460  -20.4920   19.7510 C   0  0  0  0  0  0  0  0  0  0  0  0
  -29.6770  -17.4400   19.9830 C   0  0  0  0  0  0  0  0  0  0  0  0
  -27.2850  -17.2300   20.8820 C   0  0  0  0  0  1  0  0  0  0  0  0
  -30.4960  -14.8390   19.5570 C   0  0  0  0  0  0  0  0  0  0  0  0
  -30.1360  -12.5340   18.5390 C   0  0  0  0  0  2  0  0  0  0  0  0
  -29.0820  -12.6100   17.4100 C   0  0  0  0  0  2  0  0  0  0  0  0
  -27.6680  -12.4190   17.9900 C   0  0  0  0  0  2  0  0  0  0  0  0
  -27.4290  -13.2960   19.2460 C   0  0  0  0  0  3  0  0  0  0  0  0
  -28.6020  -13.2240   20.2490 C   0  0  0  0  0  2  0  0  0  0  0  0
  -29.8290  -13.6070   19.5320 N   0  0  0  0  0  0  0  0  0  0  0  0
  -31.5760  -14.8990   18.9540 O   0  0  0  0  0  0  0  0  0  0  0  0
  -30.0150  -15.9570   20.3090 N   0  0  0  0  0  0  0  0  0  0  0  0
  -25.1640  -13.8990   20.2730 C   0  0  0  0  0  0  0  0  0  0  0  0
  -24.1360  -13.1380   20.7480 C   0  0  0  0  0  0  0  0  0  0  0  0
  -24.5560  -11.7800   20.6200 C   0  0  0  0  0  0  0  0  0  0  0  0
  -26.1490  -13.0090   19.8850 N   0  0  0  0  0  0  0  0  0  0  0  0
  -25.7990  -11.7240   20.1550 N   0  0  0  0  0  0  0  0  0  0  0  0
  -23.8190  -10.5310   20.8510 C   0  0  0  0  0  0  0  0  0  0  0  0
  -24.3020   -9.5430   21.7380 C   0  0  0  0  0  3  0  0  0  0  0  0
  -23.5640   -8.3600   21.9610 C   0  0  0  0  0  3  0  0  0  0  0  0
  -22.3320   -8.1570   21.2950 C   0  0  0  0  0  0  0  0  0  0  0  0
  -21.8680   -9.1320   20.3960 C   0  0  0  0  0  3  0  0  0  0  0  0
  -22.6050  -10.3070   20.1720 C   0  0  0  0  0  3  0  0  0  0  0  0
  -21.5610   -7.0280   21.4280 O   0  0  0  0  0  0  0  0  0  0  0  0
  -21.5520   -6.2930   22.5870 C   0  0  0  0  0  0  0  0  0  0  0  0
  -21.2080   -6.8650   23.8300 C   0  0  0  0  0  3  0  0  0  0  0  0
  -21.1450   -6.0590   24.9840 C   0  0  0  0  0  3  0  0  0  0  0  0
  -21.4170   -4.6800   24.8950 C   0  0  0  0  0  0  0  0  0  0  0  0
  -21.7550   -4.1060   23.6560 C   0  0  0  0  0  3  0  0  0  0  0  0
  -21.8200   -4.9120   22.5050 C   0  0  0  0  0  0  0  0  0  0  0  0
  -22.1240   -4.3500   21.3110 F   0  0  0  0  0  0  0  0  0  0  0  0
  -21.3470   -3.9030   26.0010 F   0  0  0  0  0  0  0  0  0  0  0  0
  -22.7950  -13.6380   21.2010 C   0  0  0  0  0  0  0  0  0  0  0  0
  -22.1660  -12.9380   22.1360 N   0  0  0  0  0  0  0  0  0  0  0  0
  -22.3240  -14.6900   20.7640 O   0  0  0  0  0  0  0  0  0  0  0  0
  -22.5640  -12.0840   22.4990 H   0  0  0  0  0  0  0  0  0  0  0  0
  -21.2730  -13.2580   22.4880 H   0  0  0  0  0  0  0  0  0  0  0  0
  -25.3360  -15.2690   20.1110 N   0  0  0  0  0  0  0  0  0  0  0  0
  -24.6200  -15.9430   20.3570 H   0  0  0  0  0  0  0  0  0  0  0  0
  -26.1450  -15.6920   19.6760 H   0  0  0  0  0  0  0  0  0  0  0  0
  -31.6050  -16.6480   22.1160 C   0  0  0  0  0  1  0  0  0  0  0  0
  -30.3880  -15.7820   21.7290 C   0  0  0  0  0  2  0  0  0  0  0  0
  -28.5470  -24.7780   19.6560 C   0  0  0  0  0  2  0  0  0  0  0  0
  -28.3300  -26.1670   20.3000 O   0  0  0  0  0  0  0  0  0  0  0  0
  -24.4880  -31.7180   23.1050 C   0  0  0  0  0  0  0  0  0  0  0  0
  -27.2240  -27.0670   20.1500 C   0  0  0  0  0  0  0  0  0  0  0  0
  -23.3440  -30.2850   21.4500 C   0  0  0  0  0  3  0  0  0  0  0  0
  -24.8550  -28.7360   20.0560 C   0  0  0  0  0  0  0  0  0  0  0  0
  -25.8890  -30.6160   21.3270 C   0  0  0  0  0  2  0  0  0  0  0  0
  -26.0040  -29.2210   20.6900 C   0  0  0  0  0  0  0  0  0  0  0  0
  -27.1820  -28.3920   20.7320 C   0  0  0  0  0  3  0  0  0  0  0  0
  -26.0510  -26.6700   19.4750 C   0  0  0  0  0  3  0  0  0  0  0  0
  -24.8860  -27.4730   19.4390 C   0  0  0  0  0  3  0  0  0  0  0  0
  -23.6080  -29.6020   20.0780 C   0  0  0  0  0  2  0  0  0  0  0  0
  -24.5910  -30.8960   22.0170 N   0  0  0  0  0  0  0  0  0  0  0  0
  -23.3890  -31.9800   23.6150 O   0  0  0  0  0  0  0  0  0  0  0  0
  -22.6730  -29.2700   22.4070 C   0  0  0  0  0  0  0  0  0  0  0  0
  -21.3480  -29.0820   22.2710 N   0  0  0  0  0  0  0  0  0  0  0  0
  -23.3460  -28.6520   23.2360 O   0  0  0  0  0  0  0  0  0  0  0  0
  -20.8580  -29.6370   21.5830 H   0  0  0  0  0  0  0  0  0  0  0  0
  -17.9770  -27.8450   22.7420 C   0  0  0  0  0  0  0  0  0  0  0  0
  -20.5310  -28.1330   23.0330 C   0  0  0  0  0  3  0  0  0  0  0  0
  -20.6560  -26.7040   22.4560 C   0  0  0  0  0  2  0  0  0  0  0  0
  -19.5660  -26.3720   21.4290 C   0  0  0  0  0  2  0  0  0  0  0  0
  -18.1760  -26.4990   22.0620 C   0  0  0  0  0  2  0  0  0  0  0  0
  -19.0840  -28.6180   23.1830 C   0  0  0  0  0  0  0  0  0  0  0  0
  -18.8470  -29.8750   23.7780 C   0  0  0  0  0  3  0  0  0  0  0  0
  -17.5350  -30.3590   23.9460 C   0  0  0  0  0  3  0  0  0  0  0  0
  -16.4420  -29.5810   23.5260 C   0  0  0  0  0  3  0  0  0  0  0  0
  -16.6630  -28.3300   22.9250 C   0  0  0  0  0  3  0  0  0  0  0  0
  -25.7420  -32.3830   23.7500 C   0  0  0  0  0  3  0  0  0  0  0  0
  -26.2520  -31.6280   25.0400 C   0  0  1  0  0  0  0  0  0  0  0  0
  -25.1460  -31.3770   26.0920 C   0  0  0  0  0  1  0  0  0  0  0  0
  -26.8670  -30.2570   24.6790 C   0  0  0  0  0  1  0  0  0  0  0  0
  -27.3830  -32.4440   25.7140 C   0  0  0  0  0  1  0  0  0  0  0  0
  -25.3990  -33.7760   24.0770 N   0  0  0  0  0  0  0  0  0  0  0  0
  -25.7130  -34.8370   23.3210 C   0  0  0  0  0  0  0  0  0  0  0  0
  -26.3900  -34.7460   22.2920 O   0  0  0  0  0  0  0  0  0  0  0  0
  -24.7990  -33.9190   24.8770 H   0  0  0  0  0  0  0  0  0  0  0  0
  -23.9500  -36.5940   22.9600 C   0  0  0  0  0  1  0  0  0  0  0  0
  -25.1980  -36.2170   23.7750 C   0  0  0  0  0  3  0  0  0  0  0  0
  -27.3120  -37.1500   24.6060 C   0  0  0  0  0  1  0  0  0  0  0  0
  -26.2090  -37.2910   23.6600 N   0  0  0  0  0  0  0  0  0  0  0  0
  -25.7850  -38.2040   23.8040 H   0  0  0  0  0  0  0  0  0  0  0  0
  1  2  1  0
  1  5  1  0
  2  3  1  0
  3  4  1  0
  4 53  1  0
  5 11  1  0
  5  4  1  0
  6  1  2  0
  7  8  2  0
  7 11  1  0
  8 12  1  0
  9 10  1  0
 10 13  1  0
 11  9  2  0
 12 22  1  0
 12 10  2  0
 14 22  1  0
 15 20  1  0
 16 17  1  0
 16 15  1  0
 18 17  1  0
 18 26  1  0
 18 19  1  0
 20 14  1  0
 20 19  1  0
 21 14  2  0
 22 52  1  0
 23 24  2  0
 24 43  1  0
 25 24  1  0
 25 28  1  0
 26 27  1  0
 26 23  1  0
 27 25  2  0
 28 29  1  0
 29 30  2  0
 31 34  1  0
 31 30  1  0
 32 31  2  0
 33 32  1  0
 33 28  2  0
 34 35  1  0
 35 36  1  0
 36 37  2  0
 38 37  1  0
 38 42  1  0
 39 38  2  0
 40 35  2  0
 40 39  1  0
 41 40  1  0
 43 44  1  0
 44 47  1  0
 44 46  1  0
 45 43  2  0
 48 23  1  0
 48 49  1  0
 50 48  1  0
 52 51  1  0
 53 54  1  0
 55 66  2  0
 56 54  1  0
 56 61  1  0
 57 65  1  0
 57 67  1  0
 58 64  1  0
 58 60  1  0
 59 65  1  0
 60 61  2  0
 60 59  1  0
 62 56  2  0
 63 62  1  0
 63 58  2  0
 64 57  1  0
 65 55  1  0
 67 69  2  0
 68 67  1  0
 70 68  1  0
 71 80  2  0
 71 76  1  0
 72 68  1  0
 72 76  1  0
 73 72  1  0
 74 75  1  0
 74 73  1  0
 75 71  1  0
 76 77  2  0
 77 78  1  0
 79 78  2  0
 80 79  1  0
 81 55  1  0
 81 86  1  0
 81 82  1  0
 82 85  1  1
 82 83  1  0
 84 82  1  0
 86 89  1  0
 87 91  1  0
 87 86  1  0
 88 87  2  0
 91 90  1  0
 93 91  1  0
 93 94  1  0
 93 92  1  0
M  ISO  4  14 100  22 100  53 101  54 101
M  END
>  <TORSDO>  (54) 
F 19

>  <SCORE>  (54) 
-13.078

>  <name>  (54) 
54

>  <ligand_id>  (54) 
54

>  <original_smiles>  (54) 
[H]c1c([H])c([H])c2c(c1[H])C([H])([H])C([H])([H])C([H])([H])C2([H])N([H])C(=O)C1([H])N(C(=O)C([H])(N([H])C(=O)C([H])(N([H])C([H])([H])[H])C([H])([H])[H])C(C([H])([H])[H])(C([H])([H])[H])C([H])([H])[H])C([H])([H])c2c([H])c(OC([H])([H])C3([H])N(c4c([H])c([H])c(N(C(=O)N5C([H])([H])C([H])([H])C([H])([H])C([H])(n6nc(-c7c([H])c([H])c(Oc8c([H])c([H])c(F)c([H])c8F)c([H])c7[H])c(C(=O)N([H])[H])c6N([H])[H])C5([H])[H])C([H])([H])C([H])([H])[H])c(C([H])([H])[H])c4[H])C(=O)C([H])([H])C3([H])[H])c([H])c([H])c2C1([H])[H]

>  <smiles>  (54) 
[H]c1c([H])c([H])c2c(c1[H])C([H])([H])C([H])([H])C([H])([H])C2([H])N([H])C(=O)C1([H])N(C(=O)C([H])(N([H])C(=O)C([H])(N([H])C([H])([H])[H])C([H])([H])[H])C(C([H])([H])[H])(C([H])([H])[H])C([H])([H])[H])C([H])([H])c2c([H])c(OC([H])([H])C3([H])N(c4c([H])c([H])c(N(C(=O)N5C([H])([H])C([H])([H])C([H])([H])C([H])(n6nc(-c7c([H])c([H])c(Oc8c([H])c([H])c(F)c([H])c8F)c([H])c7[H])c(C(=O)N([H])[H])c6N([H])[H])C5([H])[H])C([H])([H])C([H])([H])[H])c(C([H])([H])[H])c4[H])C(=O)C([H])([H])C3([H])[H])c([H])c([H])c2C1([H])[H]

$$$$
55:0:0
     RDKit          3D

 93101  0  0  1  0  0  0  0  0999 V2000
  -30.6920  -22.1820   19.6230 C   0  0  0  0  0  3  0  0  0  0  0  0
  -30.7510  -20.8560   20.0950 C   0  0  0  0  0  3  0  0  0  0  0  0
  -28.2740  -21.9970   19.4290 C   0  0  0  0  0  3  0  0  0  0  0  0
  -29.4500  -22.7640   19.2740 C   0  0  0  0  0  0  0  0  0  0  0  0
  -29.5800  -20.0780   20.2100 C   0  0  0  0  0  0  0  0  0  0  0  0
  -28.3290  -20.6740   19.9030 C   0  0  0  0  0  0  0  0  0  0  0  0
  -27.1710  -19.9880   20.0580 F   0  0  0  0  0  0  0  0  0  0  0  0
  -29.3510  -24.1360   18.6990 C   0  0  0  0  0  0  0  0  0  0  0  0
  -28.3650  -24.5120   18.0590 O   0  0  0  0  0  0  0  0  0  0  0  0
  -30.5450  -25.0810   18.9150 C   0  0  0  0  0  2  0  0  0  0  0  0
  -30.2650  -26.5790   18.6520 C   0  0  0  0  0  2  0  0  0  0  0  0
  -29.6340  -27.3290   19.8390 C   0  0  0  0  0  2  0  0  0  0  0  0
  -28.4050  -26.7020   20.1690 O   0  0  0  0  0  0  0  0  0  0  0  0
  -24.5840  -31.8900   23.2420 C   0  0  0  0  0  0  0  0  0  0  0  0
  -27.2710  -27.4740   20.1950 C   0  0  0  0  0  0  0  0  0  0  0  0
  -23.3900  -30.4740   21.5980 C   0  0  0  0  0  3  0  0  0  0  0  0
  -24.8610  -28.9340   20.1970 C   0  0  0  0  0  0  0  0  0  0  0  0
  -25.9110  -30.8530   21.4090 C   0  0  0  0  0  2  0  0  0  0  0  0
  -26.0100  -29.4800   20.7830 C   0  0  0  0  0  0  0  0  0  0  0  0
  -27.2200  -28.7560   20.7860 C   0  0  0  0  0  3  0  0  0  0  0  0
  -26.1040  -26.9240   19.6330 C   0  0  0  0  0  3  0  0  0  0  0  0
  -24.8990  -27.6510   19.6240 C   0  0  0  0  0  3  0  0  0  0  0  0
  -23.6110  -29.7830   20.2250 C   0  0  0  0  0  2  0  0  0  0  0  0
  -24.6460  -31.0860   22.1420 N   0  0  0  0  0  0  0  0  0  0  0  0
  -23.4980  -32.1600   23.7740 O   0  0  0  0  0  0  0  0  0  0  0  0
  -22.7370  -29.4570   22.5620 C   0  0  0  0  0  0  0  0  0  0  0  0
  -21.4140  -29.2690   22.4260 N   0  0  0  0  0  0  0  0  0  0  0  0
  -23.4160  -28.8400   23.3870 O   0  0  0  0  0  0  0  0  0  0  0  0
  -20.9270  -29.8190   21.7330 H   0  0  0  0  0  0  0  0  0  0  0  0
  -18.0380  -28.0820   22.9130 C   0  0  0  0  0  0  0  0  0  0  0  0
  -20.5950  -28.3350   23.1960 C   0  0  0  0  0  3  0  0  0  0  0  0
  -20.6980  -26.9020   22.6230 C   0  0  0  0  0  2  0  0  0  0  0  0
  -19.5990  -26.5800   21.6050 C   0  0  0  0  0  2  0  0  0  0  0  0
  -18.2150  -26.7290   22.2430 C   0  0  0  0  0  2  0  0  0  0  0  0
  -19.1560  -28.8420   23.3470 C   0  0  0  0  0  0  0  0  0  0  0  0
  -18.9380  -30.1080   23.9320 C   0  0  0  0  0  3  0  0  0  0  0  0
  -17.6340  -30.6150   24.0870 C   0  0  0  0  0  3  0  0  0  0  0  0
  -16.5300  -29.8510   23.6720 C   0  0  0  0  0  3  0  0  0  0  0  0
  -16.7320  -28.5860   23.0900 C   0  0  0  0  0  3  0  0  0  0  0  0
  -25.8660  -32.5260   23.8660 C   0  0  0  0  0  3  0  0  0  0  0  0
  -25.5530  -33.9250   24.1840 N   0  0  0  0  0  0  0  0  0  0  0  0
  -25.9000  -34.9740   23.4240 C   0  0  0  0  0  0  0  0  0  0  0  0
  -26.5870  -34.8640   22.4050 O   0  0  0  0  0  0  0  0  0  0  0  0
  -24.9440  -34.0850   24.9730 H   0  0  0  0  0  0  0  0  0  0  0  0
  -24.1870  -36.7690   23.0190 C   0  0  0  0  0  1  0  0  0  0  0  0
  -25.4050  -36.3640   23.8650 C   0  0  0  0  0  3  0  0  0  0  0  0
  -27.5200  -37.2430   24.7480 C   0  0  0  0  0  1  0  0  0  0  0  0
  -26.4430  -37.4140   23.7770 N   0  0  0  0  0  0  0  0  0  0  0  0
  -26.0350  -38.3360   23.9150 H   0  0  0  0  0  0  0  0  0  0  0  0
  -26.3810  -31.7610   25.1470 C   0  0  1  0  0  0  0  0  0  0  0  0
  -25.2820  -31.5110   26.2040 C   0  0  0  0  0  1  0  0  0  0  0  0
  -26.9800  -30.3890   24.7590 C   0  0  0  0  0  1  0  0  0  0  0  0
  -27.5170  -32.5670   25.8200 C   0  0  0  0  0  1  0  0  0  0  0  0
  -29.7260  -18.7710   20.6210 O   0  0  0  0  0  0  0  0  0  0  0  0
  -28.8730  -17.8100   20.0060 C   0  0  0  0  0  2  0  0  0  0  0  0
  -29.6940  -16.5650   19.6570 C   0  0  0  0  0  2  0  0  0  0  0  0
  -30.0630  -15.6730   20.8630 C   0  0  0  0  0  2  0  0  0  0  0  0
  -30.7830  -14.4130   20.3580 C   0  0  0  0  0  0  0  0  0  0  0  0
  -30.4640  -12.2800   19.1840 C   0  0  0  0  0  2  0  0  0  0  0  0
  -29.5230  -12.5470   17.9890 C   0  0  0  0  0  2  0  0  0  0  0  0
  -28.0440  -12.4340   18.4140 C   0  0  0  0  0  2  0  0  0  0  0  0
  -27.7270  -13.2340   19.7080 C   0  0  0  0  0  3  0  0  0  0  0  0
  -28.7830  -12.9440   20.7970 C   0  0  0  0  0  2  0  0  0  0  0  0
  -30.1120  -13.2380   20.2400 N   0  0  0  0  0  0  0  0  0  0  0  0
  -31.9200  -14.5760   19.9050 O   0  0  0  0  0  0  0  0  0  0  0  0
  -25.3270  -13.8640   20.3950 C   0  0  0  0  0  0  0  0  0  0  0  0
  -24.2550  -13.1010   20.7690 C   0  0  0  0  0  0  0  0  0  0  0  0
  -24.7110  -11.7470   20.7570 C   0  0  0  0  0  0  0  0  0  0  0  0
  -26.3700  -12.9750   20.1810 N   0  0  0  0  0  0  0  0  0  0  0  0
  -26.0010  -11.6980   20.4530 N   0  0  0  0  0  0  0  0  0  0  0  0
  -23.9810  -10.4900   20.9620 C   0  0  0  0  0  0  0  0  0  0  0  0
  -24.4100   -9.5330   21.9080 C   0  0  0  0  0  3  0  0  0  0  0  0
  -23.6820   -8.3380   22.0990 C   0  0  0  0  0  3  0  0  0  0  0  0
  -22.5110   -8.0930   21.3430 C   0  0  0  0  0  0  0  0  0  0  0  0
  -22.1000   -9.0400   20.3870 C   0  0  0  0  0  3  0  0  0  0  0  0
  -22.8300  -10.2240   20.1950 C   0  0  0  0  0  3  0  0  0  0  0  0
  -21.7540   -6.9520   21.4420 O   0  0  0  0  0  0  0  0  0  0  0  0
  -21.7040   -6.2220   22.6030 C   0  0  0  0  0  0  0  0  0  0  0  0
  -21.2780   -6.7910   23.8230 C   0  0  0  0  0  3  0  0  0  0  0  0
  -21.1750   -5.9880   24.9770 C   0  0  0  0  0  3  0  0  0  0  0  0
  -21.4870   -4.6170   24.9100 C   0  0  0  0  0  0  0  0  0  0  0  0
  -21.9050   -4.0460   23.6940 C   0  0  0  0  0  3  0  0  0  0  0  0
  -22.0090   -4.8480   22.5440 C   0  0  0  0  0  0  0  0  0  0  0  0
  -22.3940   -4.2900   21.3700 F   0  0  0  0  0  0  0  0  0  0  0  0
  -21.3800   -3.8420   26.0160 F   0  0  0  0  0  0  0  0  0  0  0  0
  -22.8590  -13.5870   21.0330 C   0  0  0  0  0  0  0  0  0  0  0  0
  -22.1270  -12.9010   21.9040 N   0  0  0  0  0  0  0  0  0  0  0  0
  -22.4250  -14.6090   20.5030 O   0  0  0  0  0  0  0  0  0  0  0  0
  -22.4920  -12.0740   22.3520 H   0  0  0  0  0  0  0  0  0  0  0  0
  -21.1910  -13.2080   22.1270 H   0  0  0  0  0  0  0  0  0  0  0  0
  -25.4990  -15.2310   20.2000 N   0  0  0  0  0  0  0  0  0  0  0  0
  -24.7360  -15.8920   20.3030 H   0  0  0  0  0  0  0  0  0  0  0  0
  -26.3550  -15.6590   19.8740 H   0  0  0  0  0  0  0  0  0  0  0  0
  1  2  1  0
  2  5  2  0
  3  6  2  0
  4  3  1  0
  4  1  2  0
  5 54  1  0
  6  7  1  0
  6  5  1  0
  8 10  1  0
  8  4  1  0
  9  8  2  0
 11 10  1  0
 11 12  1  0
 12 13  1  0
 13 15  1  0
 14 25  2  0
 15 20  1  0
 16 24  1  0
 16 26  1  0
 17 23  1  0
 17 19  1  0
 18 24  1  0
 19 20  2  0
 19 18  1  0
 21 15  2  0
 22 21  1  0
 22 17  2  0
 23 16  1  0
 24 14  1  0
 26 28  2  0
 27 26  1  0
 29 27  1  0
 30 39  2  0
 30 35  1  0
 31 27  1  0
 31 35  1  0
 32 31  1  0
 33 34  1  0
 33 32  1  0
 34 30  1  0
 35 36  2  0
 36 37  1  0
 38 37  2  0
 39 38  1  0
 40 14  1  0
 40 41  1  0
 40 50  1  0
 41 44  1  0
 42 46  1  0
 42 41  1  0
 43 42  2  0
 46 45  1  0
 48 46  1  0
 48 49  1  0
 48 47  1  0
 50 53  1  1
 50 51  1  0
 52 50  1  0
 55 54  1  0
 56 55  1  0
 56 57  1  0
 58 57  1  0
 59 64  1  0
 60 61  1  0
 60 59  1  0
 62 61  1  0
 62 69  1  0
 62 63  1  0
 64 58  1  0
 64 63  1  0
 65 58  2  0
 66 67  2  0
 67 86  1  0
 68 67  1  0
 68 71  1  0
 69 66  1  0
 69 70  1  0
 70 68  2  0
 71 72  1  0
 72 73  2  0
 74 77  1  0
 74 73  1  0
 75 74  2  0
 76 75  1  0
 76 71  2  0
 77 78  1  0
 78 79  1  0
 79 80  2  0
 81 80  1  0
 81 85  1  0
 82 81  2  0
 83 78  2  0
 83 82  1  0
 84 83  1  0
 86 87  1  0
 87 90  1  0
 87 89  1  0
 88 86  2  0
 91 92  1  0
 91 66  1  0
 93 91  1  0
M  ISO  4  12 101  13 101  57 100  58 100
M  END
>  <TORSDO>  (55) 
F 24

>  <SCORE>  (55) 
-12.509

>  <name>  (55) 
55

>  <ligand_id>  (55) 
55

>  <original_smiles>  (55) 
[H]c1c([H])c([H])c2c(c1[H])C([H])([H])C([H])([H])C([H])([H])C2([H])N([H])C(=O)C1([H])N(C(=O)C([H])(N([H])C(=O)C([H])(N([H])C([H])([H])[H])C([H])([H])[H])C(C([H])([H])[H])(C([H])([H])[H])C([H])([H])[H])C([H])([H])c2c([H])c(OC([H])([H])C([H])([H])C([H])([H])C(=O)c3c([H])c([H])c(OC([H])([H])C([H])([H])C([H])([H])C(=O)N4C([H])([H])C([H])([H])C([H])([H])C([H])(n5nc(-c6c([H])c([H])c(Oc7c([H])c([H])c(F)c([H])c7F)c([H])c6[H])c(C(=O)N([H])[H])c5N([H])[H])C4([H])[H])c(F)c3[H])c([H])c([H])c2C1([H])[H]

>  <smiles>  (55) 
[H]c1c([H])c([H])c2c(c1[H])C([H])([H])C([H])([H])C([H])([H])C2([H])N([H])C(=O)C1([H])N(C(=O)C([H])(N([H])C(=O)C([H])(N([H])C([H])([H])[H])C([H])([H])[H])C(C([H])([H])[H])(C([H])([H])[H])C([H])([H])[H])C([H])([H])c2c([H])c(OC([H])([H])C([H])([H])C([H])([H])C(=O)c3c([H])c([H])c(OC([H])([H])C([H])([H])C([H])([H])C(=O)N4C([H])([H])C([H])([H])C([H])([H])C([H])(n5nc(-c6c([H])c([H])c(Oc7c([H])c([H])c(F)c([H])c7F)c([H])c6[H])c(C(=O)N([H])[H])c5N([H])[H])C4([H])[H])c(F)c3[H])c([H])c([H])c2C1([H])[H]

$$$$
56:0:0
     RDKit          3D

 95103  0  0  1  0  0  0  0  0999 V2000
  -30.2810  -21.3580   19.2030 C   0  0  0  0  0  0  0  0  0  0  0  0
  -29.4060  -22.1960   19.7710 N   0  0  0  0  0  0  0  0  0  0  0  0
  -30.9820  -21.6680   18.2380 O   0  0  0  0  0  0  0  0  0  0  0  0
  -28.8990  -21.8450   20.5730 H   0  0  0  0  0  0  0  0  0  0  0  0
  -29.3360  -19.3200   20.4110 C   0  0  0  0  0  3  0  0  0  0  0  0
  -29.5260  -18.0750   21.0460 C   0  0  0  0  0  3  0  0  0  0  0  0
  -31.7240  -19.4410   19.9450 C   0  0  0  0  0  3  0  0  0  0  0  0
  -30.4390  -20.0210   19.8700 C   0  0  0  0  0  0  0  0  0  0  0  0
  -30.8210  -17.5210   21.1530 C   0  0  0  0  0  0  0  0  0  0  0  0
  -31.9160  -18.2070   20.5880 C   0  0  0  0  0  0  0  0  0  0  0  0
  -33.1670  -17.6940   20.6700 F   0  0  0  0  0  0  0  0  0  0  0  0
  -31.0400  -16.2130   21.9030 C   0  0  0  0  0  2  0  0  0  0  0  0
  -30.7480  -14.3290   20.3020 C   0  0  0  0  0  0  0  0  0  0  0  0
  -30.2920  -12.3160   18.9440 C   0  0  0  0  0  2  0  0  0  0  0  0
  -29.3010  -12.6200   17.8050 C   0  0  0  0  0  2  0  0  0  0  0  0
  -27.8480  -12.4780   18.2990 C   0  0  0  0  0  2  0  0  0  0  0  0
  -27.5920  -13.2540   19.6190 C   0  0  0  0  0  3  0  0  0  0  0  0
  -28.6840  -12.9270   20.6600 C   0  0  0  0  0  2  0  0  0  0  0  0
  -29.9980  -13.2220   20.0610 N   0  0  0  0  0  0  0  0  0  0  0  0
  -31.7580  -14.6170   19.6550 O   0  0  0  0  0  0  0  0  0  0  0  0
  -30.3310  -15.0730   21.3310 N   0  0  0  0  0  0  0  0  0  0  0  0
  -29.5010  -14.7600   21.8110 H   0  0  0  0  0  0  0  0  0  0  0  0
  -25.2260  -13.8820   20.4170 C   0  0  0  0  0  0  0  0  0  0  0  0
  -24.1650  -13.1160   20.8210 C   0  0  0  0  0  0  0  0  0  0  0  0
  -24.6110  -11.7610   20.7630 C   0  0  0  0  0  0  0  0  0  0  0  0
  -26.2530  -12.9940   20.1430 N   0  0  0  0  0  0  0  0  0  0  0  0
  -25.8880  -11.7110   20.4060 N   0  0  0  0  0  0  0  0  0  0  0  0
  -23.8810  -10.5030   20.9740 C   0  0  0  0  0  0  0  0  0  0  0  0
  -24.3340   -9.5340   21.8960 C   0  0  0  0  0  3  0  0  0  0  0  0
  -23.6070   -8.3410   22.0950 C   0  0  0  0  0  3  0  0  0  0  0  0
  -22.4130   -8.1080   21.3710 C   0  0  0  0  0  0  0  0  0  0  0  0
  -21.9780   -9.0670   20.4380 C   0  0  0  0  0  3  0  0  0  0  0  0
  -22.7050  -10.2520   20.2380 C   0  0  0  0  0  3  0  0  0  0  0  0
  -21.6570   -6.9670   21.4770 O   0  0  0  0  0  0  0  0  0  0  0  0
  -21.6300   -6.2260   22.6310 C   0  0  0  0  0  0  0  0  0  0  0  0
  -21.2390   -6.7850   23.8670 C   0  0  0  0  0  3  0  0  0  0  0  0
  -21.1610   -5.9720   25.0140 C   0  0  0  0  0  3  0  0  0  0  0  0
  -21.4610   -4.6010   24.9290 C   0  0  0  0  0  0  0  0  0  0  0  0
  -21.8450   -4.0400   23.6980 C   0  0  0  0  0  3  0  0  0  0  0  0
  -21.9260   -4.8500   22.5520 C   0  0  0  0  0  0  0  0  0  0  0  0
  -22.2750   -4.3010   21.3640 F   0  0  0  0  0  0  0  0  0  0  0  0
  -21.3770   -3.8170   26.0300 F   0  0  0  0  0  0  0  0  0  0  0  0
  -22.7820  -13.6040   21.1510 C   0  0  0  0  0  0  0  0  0  0  0  0
  -22.0800  -12.9060   22.0380 N   0  0  0  0  0  0  0  0  0  0  0  0
  -22.3330  -14.6360   20.6530 O   0  0  0  0  0  0  0  0  0  0  0  0
  -22.4510  -12.0670   22.4610 H   0  0  0  0  0  0  0  0  0  0  0  0
  -21.1550  -13.2170   22.3000 H   0  0  0  0  0  0  0  0  0  0  0  0
  -25.4000  -15.2530   20.2400 N   0  0  0  0  0  0  0  0  0  0  0  0
  -24.6520  -15.9230   20.3780 H   0  0  0  0  0  0  0  0  0  0  0  0
  -26.2520  -15.6780   19.8970 H   0  0  0  0  0  0  0  0  0  0  0  0
  -29.1600  -23.5910   19.3880 C   0  0  0  0  0  2  0  0  0  0  0  0
  -29.5250  -24.5590   20.5390 C   0  0  0  0  0  2  0  0  0  0  0  0
  -28.5160  -25.8620   22.4650 C   0  0  0  0  0  1  0  0  0  0  0  0
  -28.3840  -25.5060   20.9750 C   0  0  0  0  0  3  0  0  0  0  0  0
  -28.4140  -26.7120   20.2040 O   0  0  0  0  0  0  0  0  0  0  0  0
  -24.5840  -31.8840   23.2440 C   0  0  0  0  0  0  0  0  0  0  0  0
  -27.2430  -27.4360   20.2080 C   0  0  0  0  0  0  0  0  0  0  0  0
  -23.3820  -30.4640   21.6110 C   0  0  0  0  0  3  0  0  0  0  0  0
  -24.8420  -28.9200   20.2000 C   0  0  0  0  0  0  0  0  0  0  0  0
  -25.9060  -30.8340   21.4120 C   0  0  0  0  0  2  0  0  0  0  0  0
  -25.9970  -29.4600   20.7850 C   0  0  0  0  0  0  0  0  0  0  0  0
  -27.2040  -28.7260   20.7810 C   0  0  0  0  0  3  0  0  0  0  0  0
  -26.0760  -26.9050   19.6240 C   0  0  0  0  0  3  0  0  0  0  0  0
  -24.8780  -27.6430   19.6130 C   0  0  0  0  0  3  0  0  0  0  0  0
  -23.5930  -29.7700   20.2380 C   0  0  0  0  0  2  0  0  0  0  0  0
  -24.6420  -31.0750   22.1480 N   0  0  0  0  0  0  0  0  0  0  0  0
  -23.5010  -32.1560   23.7800 O   0  0  0  0  0  0  0  0  0  0  0  0
  -22.7320  -29.4520   22.5820 C   0  0  0  0  0  0  0  0  0  0  0  0
  -21.4090  -29.2640   22.4520 N   0  0  0  0  0  0  0  0  0  0  0  0
  -23.4130  -28.8370   23.4070 O   0  0  0  0  0  0  0  0  0  0  0  0
  -20.9130  -29.8150   21.7640 H   0  0  0  0  0  0  0  0  0  0  0  0
  -18.0360  -28.0640   22.9440 C   0  0  0  0  0  0  0  0  0  0  0  0
  -20.5920  -28.3320   23.2280 C   0  0  0  0  0  3  0  0  0  0  0  0
  -20.7030  -26.8950   22.6690 C   0  0  0  0  0  2  0  0  0  0  0  0
  -19.6070  -26.5570   21.6550 C   0  0  0  0  0  2  0  0  0  0  0  0
  -18.2200  -26.7060   22.2880 C   0  0  0  0  0  2  0  0  0  0  0  0
  -19.1510  -28.8340   23.3710 C   0  0  0  0  0  0  0  0  0  0  0  0
  -18.9270  -30.1050   23.9450 C   0  0  0  0  0  3  0  0  0  0  0  0
  -17.6210  -30.6050   24.1010 C   0  0  0  0  0  3  0  0  0  0  0  0
  -16.5210  -29.8300   23.6920 C   0  0  0  0  0  3  0  0  0  0  0  0
  -16.7290  -28.5630   23.1180 C   0  0  0  0  0  3  0  0  0  0  0  0
  -25.8690  -32.5260   23.8600 C   0  0  0  0  0  3  0  0  0  0  0  0
  -25.5580  -33.9240   24.1880 N   0  0  0  0  0  0  0  0  0  0  0  0
  -25.8870  -34.9750   23.4240 C   0  0  0  0  0  0  0  0  0  0  0  0
  -26.5560  -34.8700   22.3920 O   0  0  0  0  0  0  0  0  0  0  0  0
  -24.9750  -34.0830   24.9950 H   0  0  0  0  0  0  0  0  0  0  0  0
  -24.1570  -36.7610   23.0510 C   0  0  0  0  0  1  0  0  0  0  0  0
  -25.3920  -36.3640   23.8740 C   0  0  0  0  0  3  0  0  0  0  0  0
  -27.5160  -37.2530   24.7240 C   0  0  0  0  0  1  0  0  0  0  0  0
  -26.4240  -37.4190   23.7690 N   0  0  0  0  0  0  0  0  0  0  0  0
  -26.0140  -38.3380   23.9140 H   0  0  0  0  0  0  0  0  0  0  0  0
  -26.3960  -31.7580   25.1340 C   0  0  1  0  0  0  0  0  0  0  0  0
  -25.3090  -31.5090   26.2060 C   0  0  0  0  0  1  0  0  0  0  0  0
  -26.9860  -30.3860   24.7370 C   0  0  0  0  0  1  0  0  0  0  0  0
  -27.5460  -32.5570   25.7900 C   0  0  0  0  0  1  0  0  0  0  0  0
  1  2  1  0
  1  8  1  0
  2  4  1  0
  3  1  2  0
  5  6  1  0
  6  9  2  0
  7 10  2  0
  8  7  1  0
  8  5  2  0
  9 12  1  0
 10 11  1  0
 10  9  1  0
 13 21  1  0
 14 19  1  0
 15 16  1  0
 15 14  1  0
 17 16  1  0
 17 26  1  0
 17 18  1  0
 19 13  1  0
 19 18  1  0
 20 13  2  0
 21 22  1  0
 21 12  1  0
 23 24  2  0
 24 43  1  0
 25 24  1  0
 25 28  1  0
 26 27  1  0
 26 23  1  0
 27 25  2  0
 28 29  1  0
 29 30  2  0
 31 34  1  0
 31 30  1  0
 32 31  2  0
 33 32  1  0
 33 28  2  0
 34 35  1  0
 35 36  1  0
 36 37  2  0
 38 37  1  0
 38 42  1  0
 39 38  2  0
 40 35  2  0
 40 39  1  0
 41 40  1  0
 43 44  1  0
 44 47  1  0
 44 46  1  0
 45 43  2  0
 48 49  1  0
 48 23  1  0
 50 48  1  0
 51  2  1  0
 51 52  1  0
 52 54  1  0
 54 53  1  0
 55 57  1  0
 55 54  1  0
 56 67  2  0
 57 62  1  0
 58 66  1  0
 58 68  1  0
 59 65  1  0
 59 61  1  0
 60 66  1  0
 61 60  1  0
 62 61  2  0
 63 57  2  0
 64 63  1  0
 64 59  2  0
 65 58  1  0
 66 56  1  0
 68 70  2  0
 69 68  1  0
 71 69  1  0
 72 81  2  0
 72 77  1  0
 73 69  1  0
 73 77  1  0
 74 73  1  0
 75 76  1  0
 75 74  1  0
 76 72  1  0
 77 78  2  0
 78 79  1  0
 80 79  2  0
 81 80  1  0
 82 56  1  0
 82 83  1  0
 82 92  1  0
 83 86  1  0
 84 88  1  0
 84 83  1  0
 85 84  2  0
 88 87  1  0
 90 88  1  0
 90 91  1  0
 90 89  1  0
 92 95  1  1
 92 93  1  0
 94 92  1  0
M  ISO  4  13 100  21 100  54 101  55 101
M  END
>  <TORSDO>  (56) 
F 21

>  <SCORE>  (56) 
-13.607

>  <name>  (56) 
56

>  <ligand_id>  (56) 
56

>  <original_smiles>  (56) 
[H]c1c([H])c([H])c2c(c1[H])C([H])([H])C([H])([H])C([H])([H])C2([H])N([H])C(=O)C1([H])N(C(=O)C([H])(N([H])C(=O)C([H])(N([H])C([H])([H])[H])C([H])([H])[H])C(C([H])([H])[H])(C([H])([H])[H])C([H])([H])[H])C([H])([H])c2c([H])c(OC([H])(C([H])([H])[H])C([H])([H])C([H])([H])N([H])C(=O)c3c([H])c([H])c(C([H])([H])N([H])C(=O)N4C([H])([H])C([H])([H])C([H])([H])C([H])(n5nc(-c6c([H])c([H])c(Oc7c([H])c([H])c(F)c([H])c7F)c([H])c6[H])c(C(=O)N([H])[H])c5N([H])[H])C4([H])[H])c(F)c3[H])c([H])c([H])c2C1([H])[H]

>  <smiles>  (56) 
[H]c1c([H])c([H])c2c(c1[H])C([H])([H])C([H])([H])C([H])([H])C2([H])N([H])C(=O)C1([H])N(C(=O)C([H])(N([H])C(=O)C([H])(N([H])C([H])([H])[H])C([H])([H])[H])C(C([H])([H])[H])(C([H])([H])[H])C([H])([H])[H])C([H])([H])c2c([H])c(OC([H])(C([H])([H])[H])C([H])([H])C([H])([H])N([H])C(=O)c3c([H])c([H])c(C([H])([H])N([H])C(=O)N4C([H])([H])C([H])([H])C([H])([H])C([H])(n5nc(-c6c([H])c([H])c(Oc7c([H])c([H])c(F)c([H])c7F)c([H])c6[H])c(C(=O)N([H])[H])c5N([H])[H])C4([H])[H])c(F)c3[H])c([H])c([H])c2C1([H])[H]

$$$$
57:0:0
     RDKit          3D

 95103  0  0  1  0  0  0  0  0999 V2000
  -29.2530  -21.4830   20.5200 C   0  0  0  0  0  0  0  0  0  0  0  0
  -29.2230  -20.4750   21.4210 N   0  0  0  0  0  0  0  0  0  0  0  0
  -29.8840  -21.4290   19.4630 O   0  0  0  0  0  0  0  0  0  0  0  0
  -28.7010  -20.7120   22.2540 H   0  0  0  0  0  0  0  0  0  0  0  0
  -30.4680  -18.8580   22.7170 C   0  0  0  0  0  3  0  0  0  0  0  0
  -30.9920  -17.5710   22.9340 C   0  0  0  0  0  3  0  0  0  0  0  0
  -29.8910  -18.2220   20.4540 C   0  0  0  0  0  3  0  0  0  0  0  0
  -29.8950  -19.2040   21.4830 C   0  0  0  0  0  0  0  0  0  0  0  0
  -30.3920  -16.8810   20.6540 C   0  0  0  0  0  0  0  0  0  0  0  0
  -30.9310  -16.5660   21.9350 C   0  0  0  0  0  0  0  0  0  0  0  0
  -31.0240  -14.7020   19.5350 C   0  0  0  0  0  0  0  0  0  0  0  0
  -30.5920  -12.4980   18.4980 C   0  0  0  0  0  2  0  0  0  0  0  0
  -29.5200  -12.6450   17.3960 C   0  0  0  0  0  2  0  0  0  0  0  0
  -28.0970  -12.5710   17.9910 C   0  0  0  0  0  2  0  0  0  0  0  0
  -27.9100  -13.4190   19.2770 C   0  0  0  0  0  3  0  0  0  0  0  0
  -29.0910  -13.2440   20.2580 C   0  0  0  0  0  2  0  0  0  0  0  0
  -30.3270  -13.5270   19.5180 N   0  0  0  0  0  0  0  0  0  0  0  0
  -32.1880  -14.7660   19.1310 O   0  0  0  0  0  0  0  0  0  0  0  0
  -30.2730  -15.8570   19.6090 N   0  0  0  0  0  0  0  0  0  0  0  0
  -25.6550  -14.0780   20.3070 C   0  0  0  0  0  0  0  0  0  0  0  0
  -24.6040  -13.3300   20.7590 C   0  0  0  0  0  0  0  0  0  0  0  0
  -25.0010  -11.9660   20.6140 C   0  0  0  0  0  0  0  0  0  0  0  0
  -26.6240  -13.1690   19.9140 N   0  0  0  0  0  0  0  0  0  0  0  0
  -26.2430  -11.8910   20.1570 N   0  0  0  0  0  0  0  0  0  0  0  0
  -24.2480  -10.7240   20.8240 C   0  0  0  0  0  0  0  0  0  0  0  0
  -24.6960   -9.7360   21.7290 C   0  0  0  0  0  3  0  0  0  0  0  0
  -23.9450   -8.5570   21.9270 C   0  0  0  0  0  3  0  0  0  0  0  0
  -22.7340   -8.3590   21.2220 C   0  0  0  0  0  0  0  0  0  0  0  0
  -22.3090   -9.3350   20.3050 C   0  0  0  0  0  3  0  0  0  0  0  0
  -23.0590  -10.5060   20.1020 C   0  0  0  0  0  3  0  0  0  0  0  0
  -21.9530   -7.2350   21.3330 O   0  0  0  0  0  0  0  0  0  0  0  0
  -21.8480   -6.5490   22.5160 C   0  0  0  0  0  0  0  0  0  0  0  0
  -21.4030   -7.1710   23.7030 C   0  0  0  0  0  3  0  0  0  0  0  0
  -21.2430   -6.4110   24.8800 C   0  0  0  0  0  3  0  0  0  0  0  0
  -21.5190   -5.0310   24.8700 C   0  0  0  0  0  0  0  0  0  0  0  0
  -21.9550   -4.4080   23.6890 C   0  0  0  0  0  3  0  0  0  0  0  0
  -22.1160   -5.1660   22.5150 C   0  0  0  0  0  0  0  0  0  0  0  0
  -22.5170   -4.5560   21.3740 F   0  0  0  0  0  0  0  0  0  0  0  0
  -21.3560   -4.3000   25.9980 F   0  0  0  0  0  0  0  0  0  0  0  0
  -23.2680  -13.8460   21.2140 C   0  0  0  0  0  0  0  0  0  0  0  0
  -22.6220  -13.1500   22.1440 N   0  0  0  0  0  0  0  0  0  0  0  0
  -22.8100  -14.9000   20.7760 O   0  0  0  0  0  0  0  0  0  0  0  0
  -23.0060  -12.2960   22.5210 H   0  0  0  0  0  0  0  0  0  0  0  0
  -21.7270  -13.4750   22.4840 H   0  0  0  0  0  0  0  0  0  0  0  0
  -25.8590  -15.4490   20.1760 N   0  0  0  0  0  0  0  0  0  0  0  0
  -25.1380  -16.1310   20.3920 H   0  0  0  0  0  0  0  0  0  0  0  0
  -26.7110  -15.8660   19.8230 H   0  0  0  0  0  0  0  0  0  0  0  0
  -30.6240  -17.0980   17.4350 C   0  0  0  0  0  1  0  0  0  0  0  0
  -29.6690  -16.2880   18.3300 C   0  0  0  0  0  2  0  0  0  0  0  0
  -31.7860  -14.9220   23.4840 C   0  0  0  0  0  1  0  0  0  0  0  0
  -31.3540  -15.2740   22.1770 O   0  0  0  0  0  0  0  0  0  0  0  0
  -28.4220  -22.7460   20.8910 C   0  0  0  0  0  2  0  0  0  0  0  0
  -28.7360  -24.0990   20.1610 C   0  0  0  0  0  2  0  0  0  0  0  0
  -28.0870  -25.3440   20.8430 C   0  0  0  0  0  2  0  0  0  0  0  0
  -28.3270  -26.6320   20.2120 O   0  0  0  0  0  0  0  0  0  0  0  0
  -24.6360  -31.9620   23.2090 C   0  0  0  0  0  0  0  0  0  0  0  0
  -27.2110  -27.4490   20.1630 C   0  0  0  0  0  0  0  0  0  0  0  0
  -23.4050  -30.5470   21.5950 C   0  0  0  0  0  3  0  0  0  0  0  0
  -24.8370  -28.9950   20.1610 C   0  0  0  0  0  0  0  0  0  0  0  0
  -25.9300  -30.8940   21.3600 C   0  0  0  0  0  2  0  0  0  0  0  0
  -26.0050  -29.5130   20.7350 C   0  0  0  0  0  0  0  0  0  0  0  0
  -27.1990  -28.7490   20.7340 C   0  0  0  0  0  3  0  0  0  0  0  0
  -26.0340  -26.9640   19.5580 C   0  0  0  0  0  3  0  0  0  0  0  0
  -24.8480  -27.7210   19.5610 C   0  0  0  0  0  3  0  0  0  0  0  0
  -23.5980  -29.8590   20.2160 C   0  0  0  0  0  2  0  0  0  0  0  0
  -24.6760  -31.1490   22.1130 N   0  0  0  0  0  0  0  0  0  0  0  0
  -23.5640  -32.2430   23.7630 O   0  0  0  0  0  0  0  0  0  0  0  0
  -22.7650  -29.5360   22.5770 C   0  0  0  0  0  0  0  0  0  0  0  0
  -21.4470  -29.3140   22.4370 N   0  0  0  0  0  0  0  0  0  0  0  0
  -23.4510  -28.9550   23.4230 O   0  0  0  0  0  0  0  0  0  0  0  0
  -20.9520  -29.8350   21.7270 H   0  0  0  0  0  0  0  0  0  0  0  0
  -18.1130  -27.9830   22.8660 C   0  0  0  0  0  0  0  0  0  0  0  0
  -20.6420  -28.3770   23.2230 C   0  0  0  0  0  3  0  0  0  0  0  0
  -20.8340  -26.9250   22.7280 C   0  0  0  0  0  2  0  0  0  0  0  0
  -19.7920  -26.5010   21.6870 C   0  0  0  0  0  2  0  0  0  0  0  0
  -18.3800  -26.6110   22.2690 C   0  0  0  0  0  2  0  0  0  0  0  0
  -19.1760  -28.8180   23.3000 C   0  0  0  0  0  0  0  0  0  0  0  0
  -18.8760  -30.0980   23.8140 C   0  0  0  0  0  3  0  0  0  0  0  0
  -17.5440  -30.5440   23.9030 C   0  0  0  0  0  3  0  0  0  0  0  0
  -16.4930  -29.7060   23.4870 C   0  0  0  0  0  3  0  0  0  0  0  0
  -16.7800  -28.4280   22.9740 C   0  0  0  0  0  3  0  0  0  0  0  0
  -25.9340  -32.5960   23.8010 C   0  0  0  0  0  3  0  0  0  0  0  0
  -25.6240  -33.9870   24.1620 N   0  0  0  0  0  0  0  0  0  0  0  0
  -25.9300  -35.0530   23.4110 C   0  0  0  0  0  0  0  0  0  0  0  0
  -26.5760  -34.9690   22.3630 O   0  0  0  0  0  0  0  0  0  0  0  0
  -25.0620  -34.1260   24.9880 H   0  0  0  0  0  0  0  0  0  0  0  0
  -24.1840  -36.8360   23.1140 C   0  0  0  0  0  1  0  0  0  0  0  0
  -25.4420  -36.4310   23.8990 C   0  0  0  0  0  3  0  0  0  0  0  0
  -27.5880  -37.3150   24.7010 C   0  0  0  0  0  1  0  0  0  0  0  0
  -26.4650  -37.4930   23.7840 N   0  0  0  0  0  0  0  0  0  0  0  0
  -26.0570  -38.4090   23.9550 H   0  0  0  0  0  0  0  0  0  0  0  0
  -26.4970  -31.8090   25.0470 C   0  0  1  0  0  0  0  0  0  0  0  0
  -25.4330  -31.5120   26.1310 C   0  0  0  0  0  1  0  0  0  0  0  0
  -27.1110  -30.4590   24.6060 C   0  0  0  0  0  1  0  0  0  0  0  0
  -27.6360  -32.6190   25.7100 C   0  0  0  0  0  1  0  0  0  0  0  0
  1 52  1  0
  1  2  1  0
  2  8  1  0
  2  4  1  0
  3  1  2  0
  5  6  1  0
  7  9  2  0
  7  8  1  0
  8  5  2  0
  9 10  1  0
 10 51  1  0
 10  6  2  0
 11 19  1  0
 12 17  1  0
 13 14  1  0
 13 12  1  0
 15 14  1  0
 15 23  1  0
 15 16  1  0
 17 11  1  0
 17 16  1  0
 18 11  2  0
 19  9  1  0
 20 21  2  0
 21 40  1  0
 22 21  1  0
 22 25  1  0
 23 24  1  0
 23 20  1  0
 24 22  2  0
 25 26  1  0
 26 27  2  0
 28 31  1  0
 28 27  1  0
 29 28  2  0
 30 29  1  0
 30 25  2  0
 31 32  1  0
 32 33  1  0
 33 34  2  0
 35 34  1  0
 35 39  1  0
 36 35  2  0
 37 32  2  0
 37 36  1  0
 38 37  1  0
 40 41  1  0
 41 44  1  0
 41 43  1  0
 42 40  2  0
 45 20  1  0
 45 46  1  0
 47 45  1  0
 48 49  1  0
 49 19  1  0
 51 50  1  0
 53 54  1  0
 53 52  1  0
 55 54  1  0
 56 67  2  0
 57 55  1  0
 57 62  1  0
 58 66  1  0
 58 68  1  0
 59 65  1  0
 59 61  1  0
 60 66  1  0
 61 60  1  0
 62 61  2  0
 63 64  1  0
 63 57  2  0
 64 59  2  0
 65 58  1  0
 66 56  1  0
 68 70  2  0
 69 68  1  0
 71 69  1  0
 72 81  2  0
 72 77  1  0
 73 69  1  0
 73 77  1  0
 74 73  1  0
 75 76  1  0
 75 74  1  0
 76 72  1  0
 77 78  2  0
 78 79  1  0
 80 79  2  0
 81 80  1  0
 82 56  1  0
 82 83  1  0
 82 92  1  0
 83 86  1  0
 84 88  1  0
 84 83  1  0
 85 84  2  0
 88 87  1  0
 90 88  1  0
 90 91  1  0
 90 89  1  0
 92 95  1  1
 92 93  1  0
 94 92  1  0
M  ISO  4  11 100  19 100  54 101  55 101
M  END
>  <TORSDO>  (57) 
F 22

>  <SCORE>  (57) 
-7.693

>  <name>  (57) 
57

>  <ligand_id>  (57) 
57

>  <original_smiles>  (57) 
[H]c1c([H])c([H])c2c(c1[H])C([H])([H])C([H])([H])C([H])([H])C2([H])N([H])C(=O)C1([H])N(C(=O)C([H])(N([H])C(=O)C([H])(N([H])C([H])([H])[H])C([H])([H])[H])C(C([H])([H])[H])(C([H])([H])[H])C([H])([H])[H])C([H])([H])c2c([H])c(OC([H])([H])C([H])([H])C([H])([H])C(=O)N([H])c3c([H])c([H])c(OC([H])([H])[H])c(N(C(=O)N4C([H])([H])C([H])([H])C([H])([H])C([H])(n5nc(-c6c([H])c([H])c(Oc7c([H])c([H])c(F)c([H])c7F)c([H])c6[H])c(C(=O)N([H])[H])c5N([H])[H])C4([H])[H])C([H])([H])C([H])([H])[H])c3[H])c([H])c([H])c2C1([H])[H]

>  <smiles>  (57) 
[H]c1c([H])c([H])c2c(c1[H])C([H])([H])C([H])([H])C([H])([H])C2([H])N([H])C(=O)C1([H])N(C(=O)C([H])(N([H])C(=O)C([H])(N([H])C([H])([H])[H])C([H])([H])[H])C(C([H])([H])[H])(C([H])([H])[H])C([H])([H])[H])C([H])([H])c2c([H])c(OC([H])([H])C([H])([H])C([H])([H])C(=O)N([H])c3c([H])c([H])c(OC([H])([H])[H])c(N(C(=O)N4C([H])([H])C([H])([H])C([H])([H])C([H])(n5nc(-c6c([H])c([H])c(Oc7c([H])c([H])c(F)c([H])c7F)c([H])c6[H])c(C(=O)N([H])[H])c5N([H])[H])C4([H])[H])C([H])([H])C([H])([H])[H])c3[H])c([H])c([H])c2C1([H])[H]

$$$$
58:0:0
     RDKit          3D

 94103  0  0  1  0  0  0  0  0999 V2000
  -31.1830  -22.0260   19.2180 C   0  0  0  0  0  0  0  0  0  0  0  0
  -29.0780  -22.3910   20.2580 C   0  0  0  0  0  0  0  0  0  0  0  0
  -31.5090  -23.5340   19.2130 C   0  0  0  0  0  2  0  0  0  0  0  0
  -30.5910  -24.3870   20.0860 C   0  0  0  0  0  2  0  0  0  0  0  0
  -29.1470  -23.9480   19.8880 C   0  0  0  0  0  3  0  0  0  0  0  0
  -30.0960  -21.5130   19.8830 N   0  0  0  0  0  0  0  0  0  0  0  0
  -31.9460  -21.3220   18.5430 O   0  0  0  0  0  0  0  0  0  0  0  0
  -28.0840  -22.0000   20.8830 O   0  0  0  0  0  0  0  0  0  0  0  0
  -31.2990  -19.3360   20.5130 C   0  0  0  0  0  3  0  0  0  0  0  0
  -28.9670  -19.1850   19.9880 C   0  0  0  0  0  3  0  0  0  0  0  0
  -31.3760  -17.9190   20.6590 C   0  0  0  0  0  3  0  0  0  0  0  0
  -29.0350  -17.7660   20.1670 C   0  0  0  0  0  3  0  0  0  0  0  0
  -30.1040  -20.0350   20.1410 C   0  0  0  0  0  0  0  0  0  0  0  0
  -30.2450  -17.0850   20.4770 C   0  0  0  0  0  0  0  0  0  0  0  0
  -30.8390  -14.6370   20.0890 C   0  0  0  0  0  0  0  0  0  0  0  0
  -30.4990  -12.4630   18.8960 C   0  0  0  0  0  2  0  0  0  0  0  0
  -29.4830  -12.6700   17.7500 C   0  0  0  0  0  2  0  0  0  0  0  0
  -28.0330  -12.5090   18.2520 C   0  0  0  0  0  2  0  0  0  0  0  0
  -27.7700  -13.2830   19.5710 C   0  0  0  0  0  3  0  0  0  0  0  0
  -28.8970  -13.0290   20.5890 C   0  0  0  0  0  2  0  0  0  0  0  0
  -30.1730  -13.4330   19.9680 N   0  0  0  0  0  0  0  0  0  0  0  0
  -31.8960  -14.8250   19.4740 O   0  0  0  0  0  0  0  0  0  0  0  0
  -30.0730  -15.4410   22.2610 C   0  0  0  0  0  1  0  0  0  0  0  0
  -30.2610  -15.6590   20.8250 N   0  0  0  0  0  0  0  0  0  0  0  0
  -25.4380  -13.8450   20.4870 C   0  0  0  0  0  0  0  0  0  0  0  0
  -24.4000  -13.0560   20.9040 C   0  0  0  0  0  0  0  0  0  0  0  0
  -24.8530  -11.7070   20.7770 C   0  0  0  0  0  0  0  0  0  0  0  0
  -26.4580  -12.9750   20.1340 N   0  0  0  0  0  0  0  0  0  0  0  0
  -26.1150  -11.6800   20.3620 N   0  0  0  0  0  0  0  0  0  0  0  0
  -24.1380  -10.4390   20.9690 C   0  0  0  0  0  0  0  0  0  0  0  0
  -24.5790   -9.4740   21.9020 C   0  0  0  0  0  3  0  0  0  0  0  0
  -23.8620   -8.2690   22.0780 C   0  0  0  0  0  3  0  0  0  0  0  0
  -22.6900   -8.0240   21.3220 C   0  0  0  0  0  0  0  0  0  0  0  0
  -22.2700   -8.9780   20.3790 C   0  0  0  0  0  3  0  0  0  0  0  0
  -22.9870  -10.1740   20.2000 C   0  0  0  0  0  3  0  0  0  0  0  0
  -21.9420   -6.8760   21.4130 O   0  0  0  0  0  0  0  0  0  0  0  0
  -21.8350   -6.1770   22.5900 C   0  0  0  0  0  0  0  0  0  0  0  0
  -21.3040   -6.7610   23.7600 C   0  0  0  0  0  3  0  0  0  0  0  0
  -21.1460   -5.9850   24.9250 C   0  0  0  0  0  3  0  0  0  0  0  0
  -21.5070   -4.6250   24.9220 C   0  0  0  0  0  0  0  0  0  0  0  0
  -22.0320   -4.0390   23.7580 C   0  0  0  0  0  3  0  0  0  0  0  0
  -22.1930   -4.8130   22.5940 C   0  0  0  0  0  0  0  0  0  0  0  0
  -22.6790   -4.2370   21.4680 F   0  0  0  0  0  0  0  0  0  0  0  0
  -21.3470   -3.8790   26.0400 F   0  0  0  0  0  0  0  0  0  0  0  0
  -23.0300  -13.5240   21.3040 C   0  0  0  0  0  0  0  0  0  0  0  0
  -22.3670  -12.7910   22.1930 N   0  0  0  0  0  0  0  0  0  0  0  0
  -22.5590  -14.5730   20.8680 O   0  0  0  0  0  0  0  0  0  0  0  0
  -22.7630  -11.9420   22.5690 H   0  0  0  0  0  0  0  0  0  0  0  0
  -21.4500  -13.0800   22.5010 H   0  0  0  0  0  0  0  0  0  0  0  0
  -25.5900  -15.2240   20.3620 N   0  0  0  0  0  0  0  0  0  0  0  0
  -24.8300  -15.8700   20.5470 H   0  0  0  0  0  0  0  0  0  0  0  0
  -26.4060  -15.6730   19.9670 H   0  0  0  0  0  0  0  0  0  0  0  0
  -28.1630  -24.9970   20.5760 C   0  0  0  0  0  2  0  0  0  0  0  0
  -28.3720  -26.4400   20.2610 O   0  0  0  0  0  0  0  0  0  0  0  0
  -24.5930  -31.8510   23.1770 C   0  0  0  0  0  0  0  0  0  0  0  0
  -27.2530  -27.2790   20.2090 C   0  0  0  0  0  0  0  0  0  0  0  0
  -23.4210  -30.4340   21.5310 C   0  0  0  0  0  3  0  0  0  0  0  0
  -24.8970  -28.8850   20.1370 C   0  0  0  0  0  0  0  0  0  0  0  0
  -25.9630  -30.7630   21.3910 C   0  0  0  0  0  2  0  0  0  0  0  0
  -26.0550  -29.3830   20.7480 C   0  0  0  0  0  0  0  0  0  0  0  0
  -27.2400  -28.5920   20.7700 C   0  0  0  0  0  3  0  0  0  0  0  0
  -26.0770  -26.8320   19.5660 C   0  0  0  0  0  3  0  0  0  0  0  0
  -24.9100  -27.6190   19.5330 C   0  0  0  0  0  3  0  0  0  0  0  0
  -23.6580  -29.7520   20.1580 C   0  0  0  0  0  2  0  0  0  0  0  0
  -24.6760  -31.0350   22.0880 N   0  0  0  0  0  0  0  0  0  0  0  0
  -23.5000  -32.1270   23.6910 O   0  0  0  0  0  0  0  0  0  0  0  0
  -22.7510  -29.4190   22.4890 C   0  0  0  0  0  0  0  0  0  0  0  0
  -21.4250  -29.2470   22.3570 N   0  0  0  0  0  0  0  0  0  0  0  0
  -23.4230  -28.7940   23.3130 O   0  0  0  0  0  0  0  0  0  0  0  0
  -20.9440  -29.7980   21.6600 H   0  0  0  0  0  0  0  0  0  0  0  0
  -18.0340  -28.0930   22.8650 C   0  0  0  0  0  0  0  0  0  0  0  0
  -20.5970  -28.3170   23.1260 C   0  0  0  0  0  3  0  0  0  0  0  0
  -20.6810  -26.8870   22.5430 C   0  0  0  0  0  2  0  0  0  0  0  0
  -19.5700  -26.5850   21.5330 C   0  0  0  0  0  2  0  0  0  0  0  0
  -18.1920  -26.7450   22.1800 C   0  0  0  0  0  2  0  0  0  0  0  0
  -19.1650  -28.8380   23.2940 C   0  0  0  0  0  0  0  0  0  0  0  0
  -18.9630  -30.1010   23.8930 C   0  0  0  0  0  3  0  0  0  0  0  0
  -17.6650  -30.6150   24.0710 C   0  0  0  0  0  3  0  0  0  0  0  0
  -16.5500  -29.8650   23.6590 C   0  0  0  0  0  3  0  0  0  0  0  0
  -16.7360  -28.6080   23.0580 C   0  0  0  0  0  3  0  0  0  0  0  0
  -25.8630  -32.4960   23.8120 C   0  0  0  0  0  3  0  0  0  0  0  0
  -25.5330  -33.8910   24.1410 N   0  0  0  0  0  0  0  0  0  0  0  0
  -25.8670  -34.9500   23.3930 C   0  0  0  0  0  0  0  0  0  0  0  0
  -26.5520  -34.8580   22.3700 O   0  0  0  0  0  0  0  0  0  0  0  0
  -24.9200  -34.0380   24.9300 H   0  0  0  0  0  0  0  0  0  0  0  0
  -24.1310  -36.7340   23.0180 C   0  0  0  0  0  1  0  0  0  0  0  0
  -25.3580  -36.3300   23.8510 C   0  0  0  0  0  3  0  0  0  0  0  0
  -27.4640  -37.2280   24.7370 C   0  0  0  0  0  1  0  0  0  0  0  0
  -26.3820  -37.3940   23.7710 N   0  0  0  0  0  0  0  0  0  0  0  0
  -25.9600  -38.3070   23.9220 H   0  0  0  0  0  0  0  0  0  0  0  0
  -26.3740  -31.7300   25.0950 C   0  0  1  0  0  0  0  0  0  0  0  0
  -25.2740  -31.4640   26.1480 C   0  0  0  0  0  1  0  0  0  0  0  0
  -26.9880  -30.3640   24.7110 C   0  0  0  0  0  1  0  0  0  0  0  0
  -27.4980  -32.5470   25.7770 C   0  0  0  0  0  1  0  0  0  0  0  0
  1  6  1  0
  2  8  2  0
  3  1  1  0
  3  4  1  0
  5  4  1  0
  5  2  1  0
  5 53  1  0
  6 13  1  0
  6  2  1  0
  7  1  2  0
  9 11  1  0
 10 13  1  0
 10 12  2  0
 12 14  1  0
 13  9  2  0
 14 11  2  0
 14 24  1  0
 15 24  1  0
 16 21  1  0
 17 18  1  0
 17 16  1  0
 19 18  1  0
 19 28  1  0
 19 20  1  0
 21 15  1  0
 21 20  1  0
 22 15  2  0
 24 23  1  0
 25 26  2  0
 26 45  1  0
 27 26  1  0
 27 30  1  0
 28 29  1  0
 28 25  1  0
 29 27  2  0
 30 31  1  0
 31 32  2  0
 33 36  1  0
 33 32  1  0
 34 33  2  0
 35 34  1  0
 35 30  2  0
 36 37  1  0
 37 42  2  0
 37 38  1  0
 38 39  2  0
 40 39  1  0
 40 44  1  0
 41 40  2  0
 42 41  1  0
 43 42  1  0
 45 46  1  0
 46 49  1  0
 46 48  1  0
 47 45  2  0
 50 25  1  0
 50 51  1  0
 52 50  1  0
 54 53  1  0
 55 66  2  0
 56 54  1  0
 56 61  1  0
 57 65  1  0
 57 67  1  0
 58 64  1  0
 58 60  1  0
 59 65  1  0
 60 61  2  0
 60 59  1  0
 62 56  2  0
 63 62  1  0
 63 58  2  0
 64 57  1  0
 65 55  1  0
 67 69  2  0
 68 67  1  0
 70 68  1  0
 71 80  2  0
 71 76  1  0
 72 68  1  0
 72 76  1  0
 73 72  1  0
 74 75  1  0
 74 73  1  0
 75 71  1  0
 76 77  2  0
 77 78  1  0
 79 78  2  0
 80 79  1  0
 81 55  1  0
 81 82  1  0
 81 91  1  0
 82 85  1  0
 83 87  1  0
 83 82  1  0
 84 83  2  0
 87 86  1  0
 89 87  1  0
 89 90  1  0
 89 88  1  0
 91 94  1  1
 91 92  1  0
 93 91  1  0
M  ISO  4  15 100  24 100  53 101  54 101
M  END
>  <TORSDO>  (58) 
F 18

>  <SCORE>  (58) 
-13.806

>  <name>  (58) 
58

>  <ligand_id>  (58) 
58

>  <original_smiles>  (58) 
[H]c1c([H])c([H])c2c(c1[H])C([H])([H])C([H])([H])C([H])([H])C2([H])N([H])C(=O)C1([H])N(C(=O)C([H])(N([H])C(=O)C([H])(N([H])C([H])([H])[H])C([H])([H])[H])C(C([H])([H])[H])(C([H])([H])[H])C([H])([H])[H])C([H])([H])c2c([H])c(OC([H])([H])C3([H])C(=O)N(c4c([H])c([H])c(N(C(=O)N5C([H])([H])C([H])([H])C([H])([H])C([H])(n6nc(-c7c([H])c([H])c(Oc8c([H])c([H])c(F)c([H])c8F)c([H])c7[H])c(C(=O)N([H])[H])c6N([H])[H])C5([H])[H])C([H])([H])[H])c([H])c4[H])C(=O)C([H])([H])C3([H])[H])c([H])c([H])c2C1([H])[H]

>  <smiles>  (58) 
[H]c1c([H])c([H])c2c(c1[H])C([H])([H])C([H])([H])C([H])([H])C2([H])N([H])C(=O)C1([H])N(C(=O)C([H])(N([H])C(=O)C([H])(N([H])C([H])([H])[H])C([H])([H])[H])C(C([H])([H])[H])(C([H])([H])[H])C([H])([H])[H])C([H])([H])c2c([H])c(OC([H])([H])C3([H])C(=O)N(c4c([H])c([H])c(N(C(=O)N5C([H])([H])C([H])([H])C([H])([H])C([H])(n6nc(-c7c([H])c([H])c(Oc8c([H])c([H])c(F)c([H])c8F)c([H])c7[H])c(C(=O)N([H])[H])c6N([H])[H])C5([H])[H])C([H])([H])[H])c([H])c4[H])C(=O)C([H])([H])C3([H])[H])c([H])c([H])c2C1([H])[H]

$$$$
59:0:0
     RDKit          3D

 93102  0  0  1  0  0  0  0  0999 V2000
  -28.4570  -24.1460   20.6870 C   0  0  0  0  0  0  0  0  0  0  0  0
  -28.2540  -25.4750   20.9560 C   0  0  0  0  0  3  0  0  0  0  0  0
  -28.0620  -23.0950   21.7240 C   0  0  0  0  0  2  0  0  0  0  0  0
  -28.9130  -23.5030   19.3670 C   0  0  0  0  0  2  0  0  0  0  0  0
  -29.0100  -21.8740   21.8140 C   0  0  0  0  0  2  0  0  0  0  0  0
  -29.7000  -22.1360   19.4850 C   0  0  0  0  0  2  0  0  0  0  0  0
  -29.1960  -21.2120   20.5190 N   0  0  0  0  0  0  0  0  0  0  0  0
  -29.2190  -18.8970   19.5400 C   0  0  0  0  0  3  0  0  0  0  0  0
  -29.5230  -17.5020   19.6370 C   0  0  0  0  0  3  0  0  0  0  0  0
  -30.3940  -19.2940   21.5900 C   0  0  0  0  0  3  0  0  0  0  0  0
  -29.6130  -19.8330   20.5360 C   0  0  0  0  0  0  0  0  0  0  0  0
  -30.2510  -16.9580   20.7320 C   0  0  0  0  0  0  0  0  0  0  0  0
  -30.7080  -17.9150   21.6890 C   0  0  0  0  0  0  0  0  0  0  0  0
  -31.4700  -17.5390   22.7450 F   0  0  0  0  0  0  0  0  0  0  0  0
  -30.8230  -14.6440   19.9150 C   0  0  0  0  0  0  0  0  0  0  0  0
  -30.3990  -12.5220   18.6740 C   0  0  0  0  0  2  0  0  0  0  0  0
  -29.3390  -12.7080   17.5680 C   0  0  0  0  0  2  0  0  0  0  0  0
  -27.9200  -12.5170   18.1350 C   0  0  0  0  0  2  0  0  0  0  0  0
  -27.6910  -13.3330   19.4320 C   0  0  0  0  0  3  0  0  0  0  0  0
  -28.8440  -13.1260   20.4310 C   0  0  0  0  0  2  0  0  0  0  0  0
  -30.1120  -13.4780   19.7650 N   0  0  0  0  0  0  0  0  0  0  0  0
  -31.7970  -14.8970   19.2000 O   0  0  0  0  0  0  0  0  0  0  0  0
  -30.7660  -15.0100   22.2650 C   0  0  0  0  0  1  0  0  0  0  0  0
  -30.4560  -15.5080   20.9130 N   0  0  0  0  0  0  0  0  0  0  0  0
  -25.3870  -13.9020   20.4220 C   0  0  0  0  0  0  0  0  0  0  0  0
  -24.3570  -13.1140   20.8590 C   0  0  0  0  0  0  0  0  0  0  0  0
  -24.8040  -11.7650   20.7130 C   0  0  0  0  0  0  0  0  0  0  0  0
  -26.3950  -13.0330   20.0360 N   0  0  0  0  0  0  0  0  0  0  0  0
  -26.0540  -11.7390   20.2710 N   0  0  0  0  0  0  0  0  0  0  0  0
  -24.0910  -10.4960   20.9150 C   0  0  0  0  0  0  0  0  0  0  0  0
  -24.5520   -9.5270   21.8320 C   0  0  0  0  0  3  0  0  0  0  0  0
  -23.8390   -8.3240   22.0200 C   0  0  0  0  0  3  0  0  0  0  0  0
  -22.6500   -8.0810   21.2910 C   0  0  0  0  0  0  0  0  0  0  0  0
  -22.2080   -9.0390   20.3630 C   0  0  0  0  0  3  0  0  0  0  0  0
  -22.9220  -10.2350   20.1730 C   0  0  0  0  0  3  0  0  0  0  0  0
  -21.9060   -6.9300   21.3910 O   0  0  0  0  0  0  0  0  0  0  0  0
  -21.8160   -6.2300   22.5670 C   0  0  0  0  0  0  0  0  0  0  0  0
  -21.3360   -6.8250   23.7550 C   0  0  0  0  0  3  0  0  0  0  0  0
  -21.1950   -6.0500   24.9230 C   0  0  0  0  0  3  0  0  0  0  0  0
  -21.5220   -4.6820   24.9050 C   0  0  0  0  0  0  0  0  0  0  0  0
  -21.9950   -4.0860   23.7230 C   0  0  0  0  0  3  0  0  0  0  0  0
  -22.1390   -4.8580   22.5570 C   0  0  0  0  0  0  0  0  0  0  0  0
  -22.5740   -4.2740   21.4150 F   0  0  0  0  0  0  0  0  0  0  0  0
  -21.3790   -3.9350   26.0250 F   0  0  0  0  0  0  0  0  0  0  0  0
  -22.9990  -13.5800   21.2980 C   0  0  0  0  0  0  0  0  0  0  0  0
  -22.3620  -12.8490   22.2060 N   0  0  0  0  0  0  0  0  0  0  0  0
  -22.5130  -14.6270   20.8700 O   0  0  0  0  0  0  0  0  0  0  0  0
  -22.7690  -12.0010   22.5730 H   0  0  0  0  0  0  0  0  0  0  0  0
  -21.4540  -13.1420   22.5390 H   0  0  0  0  0  0  0  0  0  0  0  0
  -25.5430  -15.2800   20.3000 N   0  0  0  0  0  0  0  0  0  0  0  0
  -24.8000  -15.9300   20.5300 H   0  0  0  0  0  0  0  0  0  0  0  0
  -26.3670  -15.7350   19.9290 H   0  0  0  0  0  0  0  0  0  0  0  0
  -28.4010  -26.6000   20.1450 O   0  0  0  0  0  0  0  0  0  0  0  0
  -24.6190  -31.9070   23.2080 C   0  0  0  0  0  0  0  0  0  0  0  0
  -27.2980  -27.4480   20.1200 C   0  0  0  0  0  0  0  0  0  0  0  0
  -23.4330  -30.5010   21.5580 C   0  0  0  0  0  3  0  0  0  0  0  0
  -24.9060  -28.9840   20.1220 C   0  0  0  0  0  0  0  0  0  0  0  0
  -25.9620  -30.8720   21.3700 C   0  0  0  0  0  2  0  0  0  0  0  0
  -26.0650  -29.5010   20.7190 C   0  0  0  0  0  0  0  0  0  0  0  0
  -27.2680  -28.7410   20.7130 C   0  0  0  0  0  3  0  0  0  0  0  0
  -26.1230  -26.9670   19.5080 C   0  0  0  0  0  3  0  0  0  0  0  0
  -24.9340  -27.7200   19.5090 C   0  0  0  0  0  3  0  0  0  0  0  0
  -23.6540  -29.8350   20.1740 C   0  0  0  0  0  2  0  0  0  0  0  0
  -24.6890  -31.1090   22.1030 N   0  0  0  0  0  0  0  0  0  0  0  0
  -23.5330  -32.1660   23.7470 O   0  0  0  0  0  0  0  0  0  0  0  0
  -22.7850  -29.4700   22.5120 C   0  0  0  0  0  0  0  0  0  0  0  0
  -21.4630  -29.2730   22.3820 N   0  0  0  0  0  0  0  0  0  0  0  0
  -23.4720  -28.8490   23.3280 O   0  0  0  0  0  0  0  0  0  0  0  0
  -20.9680  -29.8270   21.6960 H   0  0  0  0  0  0  0  0  0  0  0  0
  -18.1120  -27.9880   22.8200 C   0  0  0  0  0  0  0  0  0  0  0  0
  -20.6550  -28.3220   23.1450 C   0  0  0  0  0  3  0  0  0  0  0  0
  -20.8100  -26.8880   22.5880 C   0  0  0  0  0  2  0  0  0  0  0  0
  -19.7410  -26.5220   21.5540 C   0  0  0  0  0  2  0  0  0  0  0  0
  -18.3410  -26.6350   22.1650 C   0  0  0  0  0  2  0  0  0  0  0  0
  -19.1990  -28.7860   23.2660 C   0  0  0  0  0  0  0  0  0  0  0  0
  -18.9310  -30.0500   23.8360 C   0  0  0  0  0  3  0  0  0  0  0  0
  -17.6090  -30.5150   23.9680 C   0  0  0  0  0  3  0  0  0  0  0  0
  -16.5360  -29.7130   23.5400 C   0  0  0  0  0  3  0  0  0  0  0  0
  -16.7880  -28.4520   22.9710 C   0  0  0  0  0  3  0  0  0  0  0  0
  -25.8960  -32.5490   23.8340 C   0  0  0  0  0  3  0  0  0  0  0  0
  -25.5720  -33.9410   24.1730 N   0  0  0  0  0  0  0  0  0  0  0  0
  -25.9030  -35.0040   23.4280 C   0  0  0  0  0  0  0  0  0  0  0  0
  -26.5860  -34.9150   22.4030 O   0  0  0  0  0  0  0  0  0  0  0  0
  -24.9680  -34.0840   24.9710 H   0  0  0  0  0  0  0  0  0  0  0  0
  -24.1790  -36.7940   23.0520 C   0  0  0  0  0  1  0  0  0  0  0  0
  -25.3990  -36.3840   23.8910 C   0  0  0  0  0  3  0  0  0  0  0  0
  -27.5080  -37.2630   24.7900 C   0  0  0  0  0  1  0  0  0  0  0  0
  -26.4290  -37.4410   23.8210 N   0  0  0  0  0  0  0  0  0  0  0  0
  -26.0160  -38.3570   23.9720 H   0  0  0  0  0  0  0  0  0  0  0  0
  -26.4220  -31.7750   25.1060 C   0  0  1  0  0  0  0  0  0  0  0  0
  -25.3310  -31.5150   26.1700 C   0  0  0  0  0  1  0  0  0  0  0  0
  -27.0220  -30.4080   24.7010 C   0  0  0  0  0  1  0  0  0  0  0  0
  -27.5620  -32.5780   25.7740 C   0  0  0  0  0  1  0  0  0  0  0  0
  1  2  2  0
  1  3  1  0
  3  5  1  0
  4  6  1  0
  4  1  1  0
  6  7  1  0
  7 11  1  0
  7  5  1  0
  8  9  2  0
  8 11  1  0
  9 12  1  0
 10 13  1  0
 11 10  2  0
 12 24  1  0
 12 13  2  0
 13 14  1  0
 15 24  1  0
 16 21  1  0
 17 18  1  0
 17 16  1  0
 19 18  1  0
 19 28  1  0
 19 20  1  0
 21 15  1  0
 21 20  1  0
 22 15  2  0
 24 23  1  0
 25 26  2  0
 26 45  1  0
 27 26  1  0
 27 30  1  0
 28 29  1  0
 28 25  1  0
 29 27  2  0
 30 31  1  0
 31 32  2  0
 33 36  1  0
 33 32  1  0
 34 33  2  0
 35 34  1  0
 35 30  2  0
 36 37  1  0
 37 38  1  0
 38 39  2  0
 40 39  1  0
 40 44  1  0
 41 40  2  0
 42 37  2  0
 42 41  1  0
 43 42  1  0
 45 46  1  0
 46 49  1  0
 46 48  1  0
 47 45  2  0
 50 25  1  0
 50 51  1  0
 52 50  1  0
 53  2  1  0
 54 65  2  0
 55 53  1  0
 55 60  1  0
 56 64  1  0
 56 66  1  0
 57 63  1  0
 57 59  1  0
 58 64  1  0
 59 58  1  0
 60 59  2  0
 61 62  1  0
 61 55  2  0
 62 57  2  0
 63 56  1  0
 64 54  1  0
 66 68  2  0
 67 66  1  0
 69 67  1  0
 70 79  2  0
 70 75  1  0
 71 67  1  0
 71 75  1  0
 72 71  1  0
 73 74  1  0
 73 72  1  0
 74 70  1  0
 75 76  2  0
 76 77  1  0
 78 77  2  0
 79 78  1  0
 80 54  1  0
 80 81  1  0
 80 90  1  0
 81 84  1  0
 82 86  1  0
 82 81  1  0
 83 82  2  0
 86 85  1  0
 88 86  1  0
 88 89  1  0
 88 87  1  0
 90 93  1  1
 90 91  1  0
 92 90  1  0
M  ISO  4   2 101  15 100  24 100  53 101
M  END
>  <TORSDO>  (59) 
F 17

>  <SCORE>  (59) 
-13.936

>  <name>  (59) 
59

>  <ligand_id>  (59) 
59

>  <original_smiles>  (59) 
[H]C(Oc1c([H])c([H])c2c(c1[H])C([H])([H])N(C(=O)C([H])(N([H])C(=O)C([H])(N([H])C([H])([H])[H])C([H])([H])[H])C(C([H])([H])[H])(C([H])([H])[H])C([H])([H])[H])C([H])(C(=O)N([H])C1([H])c3c([H])c([H])c([H])c([H])c3C([H])([H])C([H])([H])C1([H])[H])C2([H])[H])=C1C([H])([H])C([H])([H])N(c2c([H])c([H])c(N(C(=O)N3C([H])([H])C([H])([H])C([H])([H])C([H])(n4nc(-c5c([H])c([H])c(Oc6c([H])c([H])c(F)c([H])c6F)c([H])c5[H])c(C(=O)N([H])[H])c4N([H])[H])C3([H])[H])C([H])([H])[H])c(F)c2[H])C([H])([H])C1([H])[H]

>  <smiles>  (59) 
[H]C(Oc1c([H])c([H])c2c(c1[H])C([H])([H])N(C(=O)C([H])(N([H])C(=O)C([H])(N([H])C([H])([H])[H])C([H])([H])[H])C(C([H])([H])[H])(C([H])([H])[H])C([H])([H])[H])C([H])(C(=O)N([H])C1([H])c3c([H])c([H])c([H])c([H])c3C([H])([H])C([H])([H])C1([H])[H])C2([H])[H])=C1C([H])([H])C([H])([H])N(c2c([H])c([H])c(N(C(=O)N3C([H])([H])C([H])([H])C([H])([H])C([H])(n4nc(-c5c([H])c([H])c(Oc6c([H])c([H])c(F)c([H])c6F)c([H])c5[H])c(C(=O)N([H])[H])c4N([H])[H])C3([H])[H])C([H])([H])[H])c(F)c2[H])C([H])([H])C1([H])[H]

$$$$
60:0:0
     RDKit          3D

 96105  0  0  1  0  0  0  0  0999 V2000
  -31.9110  -22.7840   20.4960 C   0  0  0  0  0  0  0  0  0  0  0  0
  -29.5350  -22.9620   20.2760 C   0  0  0  0  0  0  0  0  0  0  0  0
  -32.0780  -24.3010   20.6630 C   0  0  0  0  0  2  0  0  0  0  0  0
  -30.7760  -24.9950   21.0730 C   0  0  0  0  0  2  0  0  0  0  0  0
  -29.6320  -24.5190   20.1710 C   0  0  0  0  0  3  0  0  0  0  0  0
  -30.6700  -22.2100   20.4630 N   0  0  0  0  0  0  0  0  0  0  0  0
  -32.9510  -22.1250   20.3700 O   0  0  0  0  0  0  0  0  0  0  0  0
  -28.4200  -22.4390   20.1540 O   0  0  0  0  0  0  0  0  0  0  0  0
  -31.1300  -18.9300   22.2580 C   0  0  0  0  0  3  0  0  0  0  0  0
  -31.1150  -20.3060   21.9700 C   0  0  0  0  0  3  0  0  0  0  0  0
  -30.0460  -19.8350   19.8460 C   0  0  0  0  0  3  0  0  0  0  0  0
  -30.6030  -17.9710   21.3660 C   0  0  0  0  0  0  0  0  0  0  0  0
  -30.0420  -18.4390   20.1400 C   0  0  0  0  0  0  0  0  0  0  0  0
  -30.5890  -20.7870   20.7500 C   0  0  0  0  0  0  0  0  0  0  0  0
  -29.4470  -17.4900   19.1090 C   0  0  0  0  0  1  0  0  0  0  0  0
  -30.7350  -16.5090   21.8490 C   0  0  0  0  0  2  0  0  0  0  0  0
  -30.6910  -14.4350   20.4560 C   0  0  0  0  0  0  0  0  0  0  0  0
  -30.3520  -12.3070   19.2400 C   0  0  0  0  0  2  0  0  0  0  0  0
  -29.4070  -12.5250   18.0420 C   0  0  0  0  0  2  0  0  0  0  0  0
  -27.9320  -12.4100   18.4760 C   0  0  0  0  0  2  0  0  0  0  0  0
  -27.6110  -13.2450   19.7440 C   0  0  0  0  0  3  0  0  0  0  0  0
  -28.6630  -12.9820   20.8420 C   0  0  0  0  0  2  0  0  0  0  0  0
  -29.9870  -13.2880   20.2740 N   0  0  0  0  0  0  0  0  0  0  0  0
  -31.8060  -14.6250   19.9620 O   0  0  0  0  0  0  0  0  0  0  0  0
  -30.0700  -15.3920   21.1680 N   0  0  0  0  0  0  0  0  0  0  0  0
  -29.1170  -15.2030   21.4360 H   0  0  0  0  0  0  0  0  0  0  0  0
  -25.2100  -13.8800   20.4220 C   0  0  0  0  0  0  0  0  0  0  0  0
  -24.1320  -13.1200   20.7920 C   0  0  0  0  0  0  0  0  0  0  0  0
  -24.5850  -11.7660   20.7860 C   0  0  0  0  0  0  0  0  0  0  0  0
  -26.2520  -12.9890   20.2160 N   0  0  0  0  0  0  0  0  0  0  0  0
  -25.8790  -11.7130   20.4920 N   0  0  0  0  0  0  0  0  0  0  0  0
  -23.8500  -10.5120   20.9890 C   0  0  0  0  0  0  0  0  0  0  0  0
  -24.2730   -9.5540   21.9370 C   0  0  0  0  0  3  0  0  0  0  0  0
  -23.5430   -8.3620   22.1260 C   0  0  0  0  0  3  0  0  0  0  0  0
  -22.3730   -8.1200   21.3650 C   0  0  0  0  0  0  0  0  0  0  0  0
  -21.9700   -9.0650   20.4070 C   0  0  0  0  0  3  0  0  0  0  0  0
  -22.7000  -10.2490   20.2180 C   0  0  0  0  0  3  0  0  0  0  0  0
  -21.6110   -6.9790   21.4640 O   0  0  0  0  0  0  0  0  0  0  0  0
  -21.5580   -6.2480   22.6230 C   0  0  0  0  0  0  0  0  0  0  0  0
  -21.1370   -6.8160   23.8450 C   0  0  0  0  0  3  0  0  0  0  0  0
  -21.0320   -6.0110   24.9970 C   0  0  0  0  0  3  0  0  0  0  0  0
  -21.3380   -4.6380   24.9270 C   0  0  0  0  0  0  0  0  0  0  0  0
  -21.7520   -4.0700   23.7100 C   0  0  0  0  0  3  0  0  0  0  0  0
  -21.8600   -4.8740   22.5610 C   0  0  0  0  0  0  0  0  0  0  0  0
  -22.2410   -4.3160   21.3850 F   0  0  0  0  0  0  0  0  0  0  0  0
  -21.2290   -3.8620   26.0310 F   0  0  0  0  0  0  0  0  0  0  0  0
  -22.7370  -13.6100   21.0480 C   0  0  0  0  0  0  0  0  0  0  0  0
  -22.0000  -12.9280   21.9180 N   0  0  0  0  0  0  0  0  0  0  0  0
  -22.3100  -14.6320   20.5140 O   0  0  0  0  0  0  0  0  0  0  0  0
  -22.3590  -12.0970   22.3660 H   0  0  0  0  0  0  0  0  0  0  0  0
  -21.0660  -13.2400   22.1410 H   0  0  0  0  0  0  0  0  0  0  0  0
  -25.3870  -15.2470   20.2250 N   0  0  0  0  0  0  0  0  0  0  0  0
  -24.6210  -15.9080   20.3000 H   0  0  0  0  0  0  0  0  0  0  0  0
  -26.2510  -15.6760   19.9190 H   0  0  0  0  0  0  0  0  0  0  0  0
  -28.3070  -25.2860   20.4820 C   0  0  0  0  0  2  0  0  0  0  0  0
  -28.3910  -26.6980   20.1610 O   0  0  0  0  0  0  0  0  0  0  0  0
  -24.5700  -31.8950   23.2350 C   0  0  0  0  0  0  0  0  0  0  0  0
  -27.2140  -27.4290   20.1690 C   0  0  0  0  0  0  0  0  0  0  0  0
  -23.3590  -30.4890   21.5970 C   0  0  0  0  0  3  0  0  0  0  0  0
  -24.8130  -28.9480   20.1710 C   0  0  0  0  0  0  0  0  0  0  0  0
  -25.8860  -30.8470   21.3910 C   0  0  0  0  0  2  0  0  0  0  0  0
  -25.9720  -29.4710   20.7590 C   0  0  0  0  0  0  0  0  0  0  0  0
  -27.1740  -28.7220   20.7520 C   0  0  0  0  0  3  0  0  0  0  0  0
  -26.0340  -26.9330   19.5670 C   0  0  0  0  0  3  0  0  0  0  0  0
  -24.8400  -27.6800   19.5700 C   0  0  0  0  0  3  0  0  0  0  0  0
  -23.5650  -29.8040   20.2180 C   0  0  0  0  0  2  0  0  0  0  0  0
  -24.6220  -31.0920   22.1340 N   0  0  0  0  0  0  0  0  0  0  0  0
  -23.4900  -32.1700   23.7780 O   0  0  0  0  0  0  0  0  0  0  0  0
  -22.7080  -29.4740   22.5630 C   0  0  0  0  0  0  0  0  0  0  0  0
  -21.3830  -29.2930   22.4420 N   0  0  0  0  0  0  0  0  0  0  0  0
  -23.3950  -28.8470   23.3750 O   0  0  0  0  0  0  0  0  0  0  0  0
  -20.8880  -29.8530   21.7620 H   0  0  0  0  0  0  0  0  0  0  0  0
  -18.0110  -28.1010   22.9580 C   0  0  0  0  0  0  0  0  0  0  0  0
  -20.5700  -28.3560   23.2170 C   0  0  0  0  0  3  0  0  0  0  0  0
  -20.6690  -26.9250   22.6400 C   0  0  0  0  0  2  0  0  0  0  0  0
  -19.5600  -26.6020   21.6330 C   0  0  0  0  0  2  0  0  0  0  0  0
  -18.1800  -26.7520   22.2810 C   0  0  0  0  0  2  0  0  0  0  0  0
  -19.1330  -28.8610   23.3820 C   0  0  0  0  0  0  0  0  0  0  0  0
  -18.9200  -30.1280   23.9700 C   0  0  0  0  0  3  0  0  0  0  0  0
  -17.6180  -30.6320   24.1400 C   0  0  0  0  0  3  0  0  0  0  0  0
  -16.5100  -29.8690   23.7320 C   0  0  0  0  0  3  0  0  0  0  0  0
  -16.7080  -28.6060   23.1470 C   0  0  0  0  0  3  0  0  0  0  0  0
  -25.8590  -32.5250   23.8500 C   0  0  0  0  0  3  0  0  0  0  0  0
  -26.3880  -31.7510   25.1200 C   0  0  1  0  0  0  0  0  0  0  0  0
  -25.3010  -31.5060   26.1920 C   0  0  0  0  0  1  0  0  0  0  0  0
  -26.9770  -30.3780   24.7200 C   0  0  0  0  0  1  0  0  0  0  0  0
  -27.5360  -32.5540   25.7770 C   0  0  0  0  0  1  0  0  0  0  0  0
  -25.5550  -33.9210   24.1820 N   0  0  0  0  0  0  0  0  0  0  0  0
  -25.8870  -34.9730   23.4220 C   0  0  0  0  0  0  0  0  0  0  0  0
  -26.5520  -34.8690   22.3890 O   0  0  0  0  0  0  0  0  0  0  0  0
  -24.9650  -34.0770   24.9860 H   0  0  0  0  0  0  0  0  0  0  0  0
  -24.1580  -36.7640   23.0690 C   0  0  0  0  0  1  0  0  0  0  0  0
  -25.3990  -36.3590   23.8820 C   0  0  0  0  0  3  0  0  0  0  0  0
  -27.5340  -37.2360   24.7150 C   0  0  0  0  0  1  0  0  0  0  0  0
  -26.4310  -37.4140   23.7750 N   0  0  0  0  0  0  0  0  0  0  0  0
  -26.0240  -38.3310   23.9370 H   0  0  0  0  0  0  0  0  0  0  0  0
  1  3  1  0
  2  6  1  0
  3  4  1  0
  5  2  1  0
  5 55  1  0
  5  4  1  0
  6  1  1  0
  6 14  1  0
  7  1  2  0
  8  2  2  0
 10  9  1  0
 11 13  2  0
 11 14  1  0
 12 16  1  0
 12  9  2  0
 13 12  1  0
 14 10  2  0
 15 13  1  0
 17 25  1  0
 18 23  1  0
 19 20  1  0
 19 18  1  0
 21 20  1  0
 21 30  1  0
 21 22  1  0
 23 17  1  0
 23 22  1  0
 24 17  2  0
 25 26  1  0
 25 16  1  0
 27 28  2  0
 28 47  1  0
 29 28  1  0
 29 32  1  0
 30 27  1  0
 30 31  1  0
 31 29  2  0
 32 33  1  0
 33 34  2  0
 35 38  1  0
 35 34  1  0
 36 35  2  0
 37 36  1  0
 37 32  2  0
 38 39  1  0
 39 40  1  0
 40 41  2  0
 42 41  1  0
 42 46  1  0
 43 42  2  0
 44 39  2  0
 44 43  1  0
 45 44  1  0
 47 48  1  0
 48 51  1  0
 48 50  1  0
 49 47  2  0
 52 53  1  0
 52 27  1  0
 54 52  1  0
 56 58  1  0
 56 55  1  0
 57 68  2  0
 58 63  1  0
 59 67  1  0
 59 69  1  0
 60 66  1  0
 60 62  1  0
 61 67  1  0
 62 61  1  0
 63 62  2  0
 64 65  1  0
 64 58  2  0
 65 60  2  0
 66 59  1  0
 67 57  1  0
 69 71  2  0
 70 69  1  0
 72 70  1  0
 73 82  2  0
 73 78  1  0
 74 70  1  0
 74 78  1  0
 75 74  1  0
 76 77  1  0
 76 75  1  0
 77 73  1  0
 78 79  2  0
 79 80  1  0
 81 80  2  0
 82 81  1  0
 83 57  1  0
 83 88  1  0
 83 84  1  0
 84 87  1  1
 84 85  1  0
 86 84  1  0
 88 91  1  0
 89 93  1  0
 89 88  1  0
 90 89  2  0
 93 92  1  0
 95 93  1  0
 95 96  1  0
 95 94  1  0
M  ISO  4  17 100  25 100  55 101  56 101
M  END
>  <TORSDO>  (60) 
F 19

>  <SCORE>  (60) 
-14.481

>  <name>  (60) 
60

>  <ligand_id>  (60) 
60

>  <original_smiles>  (60) 
[H]c1c([H])c([H])c2c(c1[H])C([H])([H])C([H])([H])C([H])([H])C2([H])N([H])C(=O)C1([H])N(C(=O)C([H])(N([H])C(=O)C([H])(N([H])C([H])([H])[H])C([H])([H])[H])C(C([H])([H])[H])(C([H])([H])[H])C([H])([H])[H])C([H])([H])c2c([H])c(OC([H])([H])C3([H])C(=O)N(c4c([H])c([H])c(C([H])([H])N([H])C(=O)N5C([H])([H])C([H])([H])C([H])([H])C([H])(n6nc(-c7c([H])c([H])c(Oc8c([H])c([H])c(F)c([H])c8F)c([H])c7[H])c(C(=O)N([H])[H])c6N([H])[H])C5([H])[H])c(C([H])([H])[H])c4[H])C(=O)C([H])([H])C3([H])[H])c([H])c([H])c2C1([H])[H]

>  <smiles>  (60) 
[H]c1c([H])c([H])c2c(c1[H])C([H])([H])C([H])([H])C([H])([H])C2([H])N([H])C(=O)C1([H])N(C(=O)C([H])(N([H])C(=O)C([H])(N([H])C([H])([H])[H])C([H])([H])[H])C(C([H])([H])[H])(C([H])([H])[H])C([H])([H])[H])C([H])([H])c2c([H])c(OC([H])([H])C3([H])C(=O)N(c4c([H])c([H])c(C([H])([H])N([H])C(=O)N5C([H])([H])C([H])([H])C([H])([H])C([H])(n6nc(-c7c([H])c([H])c(Oc8c([H])c([H])c(F)c([H])c8F)c([H])c7[H])c(C(=O)N([H])[H])c6N([H])[H])C5([H])[H])c(C([H])([H])[H])c4[H])C(=O)C([H])([H])C3([H])[H])c([H])c([H])c2C1([H])[H]

$$$$
61:0:0
     RDKit          3D

 92100  0  0  1  0  0  0  0  0999 V2000
  -29.1090  -22.5760   20.0650 C   0  0  0  0  0  0  0  0  0  0  0  0
  -29.9430  -21.6670   20.6460 N   0  0  0  0  0  0  0  0  0  0  0  0
  -28.1980  -22.2390   19.3060 O   0  0  0  0  0  0  0  0  0  0  0  0
  -30.6270  -22.0710   21.2730 H   0  0  0  0  0  0  0  0  0  0  0  0
  -29.2550  -19.3560   19.7570 C   0  0  0  0  0  3  0  0  0  0  0  0
  -30.9200  -18.1640   21.6640 C   0  0  0  0  0  3  0  0  0  0  0  0
  -29.3280  -17.9300   19.8630 C   0  0  0  0  0  0  0  0  0  0  0  0
  -30.1400  -17.3010   20.8550 C   0  0  0  0  0  0  0  0  0  0  0  0
  -29.9860  -20.2110   20.6250 C   0  0  0  0  0  0  0  0  0  0  0  0
  -30.8480  -19.5770   21.5520 C   0  0  0  0  0  0  0  0  0  0  0  0
  -28.4730  -17.0940   18.9280 C   0  0  0  0  0  1  0  0  0  0  0  0
  -31.5920  -20.3460   22.3850 F   0  0  0  0  0  0  0  0  0  0  0  0
  -30.0010  -15.7860   21.2470 C   0  0  0  0  0  2  0  0  0  0  0  0
  -30.7390  -14.6270   20.4730 C   0  0  0  0  0  0  0  0  0  0  0  0
  -30.5140  -12.4560   19.2600 C   0  0  0  0  0  2  0  0  0  0  0  0
  -29.5560  -12.6500   18.0640 C   0  0  0  0  0  2  0  0  0  0  0  0
  -28.0820  -12.4930   18.4910 C   0  0  0  0  0  2  0  0  0  0  0  0
  -27.7460  -13.2970   19.7740 C   0  0  0  0  0  3  0  0  0  0  0  0
  -28.8080  -13.0470   20.8680 C   0  0  0  0  0  2  0  0  0  0  0  0
  -30.1190  -13.4140   20.3090 N   0  0  0  0  0  0  0  0  0  0  0  0
  -31.8530  -14.8370   19.9810 O   0  0  0  0  0  0  0  0  0  0  0  0
  -25.3450  -13.9050   20.4700 C   0  0  0  0  0  0  0  0  0  0  0  0
  -24.2750  -13.1340   20.8370 C   0  0  0  0  0  0  0  0  0  0  0  0
  -24.7370  -11.7830   20.8140 C   0  0  0  0  0  0  0  0  0  0  0  0
  -26.3920  -13.0230   20.2490 N   0  0  0  0  0  0  0  0  0  0  0  0
  -26.0280  -11.7420   20.5130 N   0  0  0  0  0  0  0  0  0  0  0  0
  -24.0100  -10.5230   21.0090 C   0  0  0  0  0  0  0  0  0  0  0  0
  -24.4390   -9.5590   21.9470 C   0  0  0  0  0  3  0  0  0  0  0  0
  -23.7120   -8.3630   22.1290 C   0  0  0  0  0  3  0  0  0  0  0  0
  -22.5430   -8.1220   21.3710 C   0  0  0  0  0  0  0  0  0  0  0  0
  -22.1330   -9.0740   20.4200 C   0  0  0  0  0  3  0  0  0  0  0  0
  -22.8600  -10.2610   20.2370 C   0  0  0  0  0  3  0  0  0  0  0  0
  -21.7880   -6.9770   21.4610 O   0  0  0  0  0  0  0  0  0  0  0  0
  -21.7290   -6.2430   22.6190 C   0  0  0  0  0  0  0  0  0  0  0  0
  -21.2870   -6.8050   23.8360 C   0  0  0  0  0  3  0  0  0  0  0  0
  -21.1760   -5.9980   24.9850 C   0  0  0  0  0  3  0  0  0  0  0  0
  -21.4970   -4.6290   24.9170 C   0  0  0  0  0  0  0  0  0  0  0  0
  -21.9320   -4.0660   23.7050 C   0  0  0  0  0  3  0  0  0  0  0  0
  -22.0460   -4.8710   22.5580 C   0  0  0  0  0  0  0  0  0  0  0  0
  -22.4440   -4.3190   21.3860 F   0  0  0  0  0  0  0  0  0  0  0  0
  -21.3830   -3.8500   26.0190 F   0  0  0  0  0  0  0  0  0  0  0  0
  -22.8760  -13.6130   21.1010 C   0  0  0  0  0  0  0  0  0  0  0  0
  -22.1440  -12.9190   21.9650 N   0  0  0  0  0  0  0  0  0  0  0  0
  -22.4400  -14.6370   20.5760 O   0  0  0  0  0  0  0  0  0  0  0  0
  -22.5090  -12.0900   22.4110 H   0  0  0  0  0  0  0  0  0  0  0  0
  -21.2060  -13.2220   22.1850 H   0  0  0  0  0  0  0  0  0  0  0  0
  -25.5070  -15.2750   20.2910 N   0  0  0  0  0  0  0  0  0  0  0  0
  -24.7390  -15.9280   20.3980 H   0  0  0  0  0  0  0  0  0  0  0  0
  -26.3650  -15.7190   19.9920 H   0  0  0  0  0  0  0  0  0  0  0  0
  -29.3280  -24.1060   20.3670 C   0  0  0  0  0  3  0  0  0  0  0  0
  -28.1560  -25.0900   19.9690 C   0  0  0  0  0  3  0  0  0  0  0  0
  -28.3270  -26.5340   20.2060 O   0  0  0  0  0  0  0  0  0  0  0  0
  -24.5610  -31.8660   23.2250 C   0  0  0  0  0  0  0  0  0  0  0  0
  -27.1870  -27.3470   20.1550 C   0  0  0  0  0  0  0  0  0  0  0  0
  -23.3550  -30.4670   21.5860 C   0  0  0  0  0  3  0  0  0  0  0  0
  -24.8070  -28.9260   20.1570 C   0  0  0  0  0  0  0  0  0  0  0  0
  -25.8920  -30.8000   21.3980 C   0  0  0  0  0  2  0  0  0  0  0  0
  -25.9740  -29.4250   20.7500 C   0  0  0  0  0  0  0  0  0  0  0  0
  -27.1650  -28.6460   20.7410 C   0  0  0  0  0  3  0  0  0  0  0  0
  -25.9950  -26.8950   19.5390 C   0  0  0  0  0  3  0  0  0  0  0  0
  -24.8190  -27.6640   19.5450 C   0  0  0  0  0  3  0  0  0  0  0  0
  -23.5680  -29.7930   20.2050 C   0  0  0  0  0  2  0  0  0  0  0  0
  -24.6220  -31.0610   22.1260 N   0  0  0  0  0  0  0  0  0  0  0  0
  -23.4780  -32.1420   23.7630 O   0  0  0  0  0  0  0  0  0  0  0  0
  -22.6980  -29.4480   22.5440 C   0  0  0  0  0  0  0  0  0  0  0  0
  -21.3710  -29.2720   22.4210 N   0  0  0  0  0  0  0  0  0  0  0  0
  -23.3780  -28.8190   23.3600 O   0  0  0  0  0  0  0  0  0  0  0  0
  -20.8810  -29.8300   21.7360 H   0  0  0  0  0  0  0  0  0  0  0  0
  -17.9910  -28.0970   22.9420 C   0  0  0  0  0  0  0  0  0  0  0  0
  -20.5530  -28.3370   23.1940 C   0  0  0  0  0  3  0  0  0  0  0  0
  -20.6400  -26.9080   22.6090 C   0  0  0  0  0  2  0  0  0  0  0  0
  -19.5280  -26.5990   21.6020 C   0  0  0  0  0  2  0  0  0  0  0  0
  -18.1520  -26.7510   22.2570 C   0  0  0  0  0  2  0  0  0  0  0  0
  -19.1190  -28.8490   23.3680 C   0  0  0  0  0  0  0  0  0  0  0  0
  -18.9130  -30.1100   23.9670 C   0  0  0  0  0  3  0  0  0  0  0  0
  -17.6140  -30.6210   24.1470 C   0  0  0  0  0  3  0  0  0  0  0  0
  -16.5000  -29.8660   23.7380 C   0  0  0  0  0  3  0  0  0  0  0  0
  -16.6900  -28.6060   23.1420 C   0  0  0  0  0  3  0  0  0  0  0  0
  -25.8450  -32.5000   23.8440 C   0  0  0  0  0  3  0  0  0  0  0  0
  -26.3700  -31.7220   25.1140 C   0  0  1  0  0  0  0  0  0  0  0  0
  -25.2830  -31.4710   26.1840 C   0  0  0  0  0  1  0  0  0  0  0  0
  -26.9590  -30.3490   24.7110 C   0  0  0  0  0  1  0  0  0  0  0  0
  -27.5180  -32.5170   25.7780 C   0  0  0  0  0  1  0  0  0  0  0  0
  -25.5330  -33.8950   24.1850 N   0  0  0  0  0  0  0  0  0  0  0  0
  -25.8540  -34.9520   23.4280 C   0  0  0  0  0  0  0  0  0  0  0  0
  -26.5150  -34.8580   22.3900 O   0  0  0  0  0  0  0  0  0  0  0  0
  -24.9450  -34.0420   24.9920 H   0  0  0  0  0  0  0  0  0  0  0  0
  -24.1180  -36.7410   23.0950 C   0  0  0  0  0  1  0  0  0  0  0  0
  -25.3640  -36.3370   23.8970 C   0  0  0  0  0  3  0  0  0  0  0  0
  -27.4990  -37.2260   24.7240 C   0  0  0  0  0  1  0  0  0  0  0  0
  -26.3920  -37.3940   23.7850 N   0  0  0  0  0  0  0  0  0  0  0  0
  -25.9830  -38.3110   23.9400 H   0  0  0  0  0  0  0  0  0  0  0  0
  1 50  1  0
  1  2  1  0
  2  4  1  0
  3  1  2  0
  5  7  2  0
  5  9  1  0
  7  8  1  0
  8 13  1  0
  8  6  2  0
  9  2  1  0
  9 10  2  0
 10  6  1  0
 10 12  1  0
 11  7  1  0
 14 13  1  0
 15 20  1  0
 16 17  1  0
 16 15  1  0
 18 17  1  0
 18 25  1  0
 18 19  1  0
 20 14  1  0
 20 19  1  0
 21 14  2  0
 22 23  2  0
 23 42  1  0
 24 23  1  0
 24 27  1  0
 25 22  1  0
 25 26  1  0
 26 24  2  0
 27 28  1  0
 28 29  2  0
 30 33  1  0
 30 29  1  0
 31 30  2  0
 32 31  1  0
 32 27  2  0
 33 34  1  0
 34 35  1  0
 35 36  2  0
 37 36  1  0
 37 41  1  0
 38 37  2  0
 39 34  2  0
 39 38  1  0
 40 39  1  0
 42 43  1  0
 43 46  1  0
 43 45  1  0
 44 42  2  0
 47 48  1  0
 47 22  1  0
 49 47  1  0
 51 52  1  0
 51 50  2  0
 53 64  2  0
 54 52  1  0
 54 59  1  0
 55 63  1  0
 55 65  1  0
 56 62  1  0
 56 58  1  0
 57 63  1  0
 58 57  1  0
 59 58  2  0
 60 61  1  0
 60 54  2  0
 61 56  2  0
 62 55  1  0
 63 53  1  0
 65 67  2  0
 66 65  1  0
 68 66  1  0
 69 78  2  0
 69 74  1  0
 70 66  1  0
 70 74  1  0
 71 70  1  0
 72 73  1  0
 72 71  1  0
 73 69  1  0
 74 75  2  0
 75 76  1  0
 77 76  2  0
 78 77  1  0
 79 53  1  0
 79 84  1  0
 79 80  1  0
 80 83  1  1
 80 81  1  0
 82 80  1  0
 84 87  1  0
 85 89  1  0
 85 84  1  0
 86 85  2  0
 89 88  1  0
 91 89  1  0
 91 92  1  0
 91 90  1  0
M  ISO  4  13 100  14 100  51 101  52 101
M  END
>  <TORSDO>  (61) 
F 20

>  <SCORE>  (61) 
-14.292

>  <name>  (61) 
61

>  <ligand_id>  (61) 
61

>  <original_smiles>  (61) 
[H]c1c([H])c([H])c2c(c1[H])C([H])([H])C([H])([H])C([H])([H])C2([H])N([H])C(=O)C1([H])N(C(=O)C([H])(N([H])C(=O)C([H])(N([H])C([H])([H])[H])C([H])([H])[H])C(C([H])([H])[H])(C([H])([H])[H])C([H])([H])[H])C([H])([H])c2c([H])c(OC([H])([H])C([H])([H])C(=O)N([H])c3c([H])c(C([H])([H])[H])c(C([H])([H])C(=O)N4C([H])([H])C([H])([H])C([H])([H])C([H])(n5nc(-c6c([H])c([H])c(Oc7c([H])c([H])c(F)c([H])c7F)c([H])c6[H])c(C(=O)N([H])[H])c5N([H])[H])C4([H])[H])c([H])c3F)c([H])c([H])c2C1([H])[H]

>  <smiles>  (61) 
[H]c1c([H])c([H])c2c(c1[H])C([H])([H])C([H])([H])C([H])([H])C2([H])N([H])C(=O)C1([H])N(C(=O)C([H])(N([H])C(=O)C([H])(N([H])C([H])([H])[H])C([H])([H])[H])C(C([H])([H])[H])(C([H])([H])[H])C([H])([H])[H])C([H])([H])c2c([H])c(OC([H])([H])C([H])([H])C(=O)N([H])c3c([H])c(C([H])([H])[H])c(C([H])([H])C(=O)N4C([H])([H])C([H])([H])C([H])([H])C([H])(n5nc(-c6c([H])c([H])c(Oc7c([H])c([H])c(F)c([H])c7F)c([H])c6[H])c(C(=O)N([H])[H])c5N([H])[H])C4([H])[H])c([H])c3F)c([H])c([H])c2C1([H])[H]

$$$$
62:0:0
     RDKit          3D

 95 95  0  0  1  0  0  0  0  0999 V2000
  -21.9530  -27.7930   19.9970 C   0  0  0  0  0  3  0  0  0  0  0  0
  -22.3850  -26.1000   18.3410 C   0  0  0  0  0  1  0  0  0  0  0  0
  -22.8830  -26.3850   19.7060 N   0  0  0  0  0  2  0  0  0  0  0  0
  -21.1520  -28.1590   19.1110 O   0  0  0  0  0  0  0  0  0  0  0  0
  -24.1850  -24.9510   20.1140 C   0  0  0  0  0 15  0  0  0  0  0  0
  -26.5940  -22.5820   20.4920 C   0  0  0  0  0  3  0  0  0  0  0  0
  -27.5290  -21.2540   20.4160 C   0  0  0  0  0  3  0  0  0  0  0  0
  -26.2180  -20.4720   19.0370 C   0  0  0  0  0  3  0  0  0  0  0  0
  -25.2790  -23.1620   19.8530 C   0  0  0  0  0  3  0  0  0  0  0  0
  -27.5430  -19.8590   19.6690 C   0  0  0  0  0  3  0  0  0  0  0  0
  -25.2520  -21.7850   19.0700 C   0  0  0  0  0  0  0  0  0  0  0  0
  -29.7700  -16.9160   19.5980 C   0  0  0  0  0  0  0  0  0  0  0  0
  -30.6950  -14.3060   18.8300 C   0  0  0  0  0  2  0  0  0  0  0  0
  -29.9600  -13.3900   17.7710 C   0  0  0  0  0  2  0  0  0  0  0  0
  -28.6660  -12.8060   18.3630 C   0  0  0  0  0  2  0  0  0  0  0  0
  -28.0340  -13.8560   19.2920 C   0  0  0  0  0  3  0  0  0  0  0  0
  -28.9840  -14.4360   20.3350 C   0  0  0  0  0  2  0  0  0  0  0  0
  -29.7500  -15.3860   19.5270 N   0  0  0  0  0  0  0  0  0  0  0  0
  -31.0400  -16.9810   19.4450 O   0  0  0  0  0  0  0  0  0  0  0  0
  -28.7210  -18.3100   17.8880 C   0  0  0  0  0  1  0  0  0  0  0  0
  -28.5980  -18.2010   19.3520 N   0  0  0  0  0  2  0  0  0  0  0  0
  -25.8400  -14.3890   20.3160 C   0  0  0  0  0  0  0  0  0  0  0  0
  -24.8140  -13.6090   20.7490 C   0  0  0  0  0  0  0  0  0  0  0  0
  -25.2540  -12.2550   20.6030 C   0  0  0  0  0  0  0  0  0  0  0  0
  -26.8090  -13.4980   19.9080 N   0  0  0  0  0  0  0  0  0  0  0  0
  -26.5020  -12.2120   20.1590 N   0  0  0  0  0  0  0  0  0  0  0  0
  -24.5310  -11.0030   20.7840 C   0  0  0  0  0  0  0  0  0  0  0  0
  -24.9530  -10.0370   21.7220 C   0  0  0  0  0  3  0  0  0  0  0  0
  -24.2200   -8.8440   21.8900 C   0  0  0  0  0  3  0  0  0  0  0  0
  -23.0580   -8.6150   21.1160 C   0  0  0  0  0  0  0  0  0  0  0  0
  -22.6610   -9.5700   20.1660 C   0  0  0  0  0  3  0  0  0  0  0  0
  -23.3930  -10.7530   19.9940 C   0  0  0  0  0  3  0  0  0  0  0  0
  -22.2940   -7.4770   21.1960 O   0  0  0  0  0  0  0  0  0  0  0  0
  -22.0680   -6.8490   22.3920 C   0  0  0  0  0  0  0  0  0  0  0  0
  -21.5120   -7.5270   23.4990 C   0  0  0  0  0  3  0  0  0  0  0  0
  -21.2330   -6.8230   24.6880 C   0  0  0  0  0  3  0  0  0  0  0  0
  -21.4970   -5.4430   24.7670 C   0  0  0  0  0  0  0  0  0  0  0  0
  -22.0470   -4.7660   23.6660 C   0  0  0  0  0  3  0  0  0  0  0  0
  -22.3280   -5.4670   22.4790 C   0  0  0  0  0  0  0  0  0  0  0  0
  -22.8380   -4.8060   21.4120 F   0  0  0  0  0  0  0  0  0  0  0  0
  -21.2200   -4.7660   25.9060 F   0  0  0  0  0  0  0  0  0  0  0  0
  -23.4630  -14.1020   21.1570 C   0  0  0  0  0  0  0  0  0  0  0  0
  -22.8140  -13.4010   22.0780 N   0  0  0  0  0  0  0  0  0  0  0  0
  -23.0000  -15.1460   20.6950 O   0  0  0  0  0  0  0  0  0  0  0  0
  -23.2110  -12.5620   22.4680 H   0  0  0  0  0  0  0  0  0  0  0  0
  -21.9080  -13.7120   22.3950 H   0  0  0  0  0  0  0  0  0  0  0  0
  -26.0180  -15.7670   20.1980 N   0  0  0  0  0  0  0  0  0  0  0  0
  -25.2580  -16.4070   20.4100 H   0  0  0  0  0  0  0  0  0  0  0  0
  -26.7980  -16.2190   19.7440 H   0  0  0  0  0  0  0  0  0  0  0  0
  -23.1350  -22.5330   18.1730 C   0  0  0  0  0  1  0  0  0  0  0  0
  -24.1820  -21.5530   18.2150 O   0  0  0  0  0  0  0  0  0  0  0  0
  -21.6470  -29.3550   21.3060 C   0  0  0  0  0 15  0  0  0  0  0  0
  -22.5380  -29.7050   23.4500 C   0  0  0  0  0 15  0  0  0  0  0  0
  -24.5970  -29.1210   23.9730 C   0  0  0  0  0 15  0  0  0  0  0  0
  -26.1020  -28.2830   23.0470 O   0  0  0  0  0  1  0  0  0  0  0  0
  -24.5780  -31.9010   23.1640 C   0  0  0  0  0  0  0  0  0  0  0  0
  -26.7120  -27.9030   21.7300 C   0  0  0  0  0  3  0  0  0  0  0  0
  -23.9800  -29.6310   21.5390 C   0  0  0  0  0  2  0  0  0  0  0  0
  -25.3670  -29.1270   19.9400 C   0  0  0  0  0  3  0  0  0  0  0  0
  -26.0920  -31.0520   21.4420 C   0  0  0  0  0  2  0  0  0  0  0  0
  -26.3830  -29.7850   20.6710 C   0  0  0  0  0  3  0  0  0  0  0  0
  -27.3620  -28.9990   21.2170 C   0  0  0  0  0  2  0  0  0  0  0  0
  -26.1880  -27.0750   20.6750 C   0  0  0  0  0  2  0  0  0  0  0  0
  -25.4240  -27.7380   19.7370 C   0  0  0  0  0  2  0  0  0  0  0  0
  -24.0530  -29.7020   20.0470 C   0  0  0  0  0  2  0  0  0  0  0  0
  -24.8230  -30.9070   22.1340 N   0  0  0  0  0  0  0  0  0  0  0  0
  -23.4320  -32.3050   23.4730 O   0  0  0  0  0  0  0  0  0  0  0  0
  -23.4820  -27.8300   22.2720 C   0  0  0  0  0  2  0  0  0  0  0  0
  -22.2150  -27.4000   22.9940 N   0  0  0  0  0  0  0  0  0  0  0  0
  -24.1310  -26.9860   22.7310 O   0  0  0  0  0  1  0  0  0  0  0  0
  -22.4160  -26.4920   23.3490 H   0  0  0  0  0  0  0  0  0  0  0  0
  -18.0820  -28.2420   22.7670 C   0  0  0  0  0  0  0  0  0  0  0  0
  -20.6420  -27.6360   23.4130 C   0  0  0  0  0  3  0  0  0  0  0  0
  -20.2230  -26.3110   22.8090 C   0  0  0  0  0  2  0  0  0  0  0  0
  -19.2380  -26.3000   21.6500 C   0  0  0  0  0  2  0  0  0  0  0  0
  -17.9330  -26.8910   22.0800 C   0  0  0  0  0  2  0  0  0  0  0  0
  -19.3270  -28.6910   23.3480 C   0  0  0  0  0  0  0  0  0  0  0  0
  -19.1880  -29.9330   24.0350 C   0  0  0  0  0  3  0  0  0  0  0  0
  -17.9390  -30.6300   24.1740 C   0  0  0  0  0  3  0  0  0  0  0  0
  -16.7710  -30.1460   23.5710 C   0  0  0  0  0  3  0  0  0  0  0  0
  -16.8570  -28.9450   22.8640 C   0  0  0  0  0  3  0  0  0  0  0  0
  -25.7180  -32.5880   24.0490 C   0  0  0  0  0  3  0  0  0  0  0  0
  -25.3100  -33.9980   24.2500 N   0  0  0  0  0  0  0  0  0  0  0  0
  -25.8020  -35.0160   23.5500 C   0  0  0  0  0  0  0  0  0  0  0  0
  -26.6060  -34.8450   22.6360 O   0  0  0  0  0  0  0  0  0  0  0  0
  -24.5740  -34.1780   24.9160 H   0  0  0  0  0  0  0  0  0  0  0  0
  -24.1860  -36.8540   22.9230 C   0  0  0  0  0  1  0  0  0  0  0  0
  -25.3110  -36.4510   23.8880 C   0  0  0  0  0  3  0  0  0  0  0  0
  -27.3740  -37.3140   24.8990 C   0  0  0  0  0  1  0  0  0  0  0  0
  -26.3840  -37.4580   23.8390 N   0  0  0  0  0  0  0  0  0  0  0  0
  -26.0080  -38.4000   23.8750 H   0  0  0  0  0  0  0  0  0  0  0  0
  -26.0390  -31.9570   25.4770 C   0  0  1  0  0  0  0  0  0  0  0  0
  -24.7510  -31.6710   26.3300 C   0  0  0  0  0  1  0  0  0  0  0  0
  -27.0010  -30.7360   25.3020 C   0  0  0  0  0  1  0  0  0  0  0  0
  -26.9260  -32.8810   26.3200 C   0  0  0  0  0  1  0  0  0  0  0  0
  2  3  1  0
  3  1  1  0
  4  1  2  0
  7  6  1  0
  8 11  2  0
  8 10  1  0
  9  6  2  0
 10  7  2  0
 11  9  1  0
 13 18  1  0
 14 15  1  0
 14 13  1  0
 16 15  1  0
 16 25  1  0
 16 17  1  0
 18 12  1  0
 18 17  1  0
 19 12  2  0
 20 21  1  0
 21 12  1  0
 22 23  2  0
 23 42  1  0
 24 23  1  0
 24 27  1  0
 25 26  1  0
 25 22  1  0
 26 24  2  0
 27 28  1  0
 28 29  2  0
 30 33  1  0
 30 29  1  0
 31 30  2  0
 32 31  1  0
 32 27  2  0
 33 34  1  0
 34 39  2  0
 34 35  1  0
 35 36  2  0
 36 37  1  0
 37 41  1  0
 38 37  2  0
 39 38  1  0
 40 39  1  0
 42 43  1  0
 43 46  1  0
 43 45  1  0
 44 42  2  0
 47 22  1  0
 47 48  1  0
 49 47  1  0
 50 51  1  0
 51 11  1  0
 56 67  2  0
 57 55  1  0
 58 66  1  0
 59 64  1  0
 59 65  1  0
 59 61  1  0
 60 66  1  0
 61 62  1  0
 61 60  1  0
 62 57  1  0
 63 57  1  0
 64 63  1  0
 65 58  1  0
 66 56  1  0
 68 70  1  0
 68 69  1  0
 69 71  1  0
 72 81  2  0
 72 77  1  0
 73 69  1  0
 74 73  1  0
 75 76  1  0
 75 74  1  0
 76 72  1  0
 77 73  1  0
 77 78  2  0
 78 79  1  0
 80 79  2  0
 81 80  1  0
 82 56  1  0
 82 83  1  0
 82 92  1  0
 83 86  1  0
 84 88  1  0
 84 83  1  0
 85 84  2  0
 88 87  1  0
 90 91  1  0
 90 88  1  0
 90 89  1  0
 92 95  1  1
 92 93  1  0
 94 92  1  0
M  ISO  4  12 100  21 100  54 101  55 101
M  END
>  <TORSDO>  (62) 
F 22

>  <SCORE>  (62) 
-12.731

>  <name>  (62) 
62

>  <ligand_id>  (62) 
62

>  <original_smiles>  (62) 
[H]c1c([H])c([H])c2c(c1[H])C([H])([H])C([H])([H])C([H])([H])C2([H])N([H])C(=O)C1([H])N(C(=O)C([H])(N([H])C(=O)C([H])(N([H])C([H])([H])[H])C([H])([H])[H])C(C([H])([H])[H])(C([H])([H])[H])C([H])([H])[H])C([H])([H])c2c([H])c(OC([H])([H])C([H])([H])C([H])([H])C(=O)N(C([H])([H])[H])C([H])([H])c3c([H])c([H])c(N(C(=O)N4C([H])([H])C([H])([H])C([H])([H])C([H])(n5nc(-c6c([H])c([H])c(Oc7c([H])c([H])c(F)c([H])c7F)c([H])c6[H])c(C(=O)N([H])[H])c5N([H])[H])C4([H])[H])C([H])([H])[H])c([H])c3OC([H])([H])[H])c([H])c([H])c2C1([H])[H]

>  <smiles>  (62) 
[H]c1c([H])c([H])c2c(c1[H])C([H])([H])C([H])([H])C([H])([H])C2([H])N([H])C(=O)C1([H])N(C(=O)C([H])(N([H])C(=O)C([H])(N([H])C([H])([H])[H])C([H])([H])[H])C(C([H])([H])[H])(C([H])([H])[H])C([H])([H])[H])C([H])([H])c2c([H])c(OC([H])([H])C([H])([H])C([H])([H])C(=O)N(C([H])([H])[H])C([H])([H])c3c([H])c([H])c(N(C(=O)N4C([H])([H])C([H])([H])C([H])([H])C([H])(n5nc(-c6c([H])c([H])c(Oc7c([H])c([H])c(F)c([H])c7F)c([H])c6[H])c(C(=O)N([H])[H])c5N([H])[H])C4([H])[H])C([H])([H])[H])c([H])c3OC([H])([H])[H])c([H])c([H])c2C1([H])[H]

$$$$
63:0:0
     RDKit          3D

 94103  0  0  1  0  0  0  0  0999 V2000
  -29.8870  -21.1270   19.7540 C   0  0  0  0  0  0  0  0  0  0  0  0
  -28.0730  -23.3750   22.0880 C   0  0  0  0  0  2  0  0  0  0  0  0
  -28.3230  -21.9410   21.5810 C   0  0  0  0  0  2  0  0  0  0  0  0
  -29.2000  -23.5070   19.9870 C   0  0  0  0  0  2  0  0  0  0  0  0
  -28.1900  -24.2810   20.8560 C   0  0  0  0  0  3  0  0  0  0  0  0
  -29.1440  -22.0830   20.3780 N   0  0  0  0  0  0  0  0  0  0  0  0
  -30.6250  -21.4150   18.8070 O   0  0  0  0  0  0  0  0  0  0  0  0
  -28.7010  -18.8980   20.2720 C   0  0  0  0  0  3  0  0  0  0  0  0
  -28.7700  -17.5080   20.5410 C   0  0  0  0  0  3  0  0  0  0  0  0
  -31.1140  -19.0380   20.4780 C   0  0  0  0  0  3  0  0  0  0  0  0
  -29.8810  -19.6810   20.2170 C   0  0  0  0  0  0  0  0  0  0  0  0
  -30.0130  -16.8610   20.7520 C   0  0  0  0  0  0  0  0  0  0  0  0
  -31.1840  -17.6580   20.7720 C   0  0  0  0  0  0  0  0  0  0  0  0
  -32.3850  -17.1220   21.0870 F   0  0  0  0  0  0  0  0  0  0  0  0
  -30.6900  -14.5170   20.2320 C   0  0  0  0  0  0  0  0  0  0  0  0
  -30.3750  -12.3930   19.0100 C   0  0  0  0  0  2  0  0  0  0  0  0
  -29.3800  -12.6150   17.8510 C   0  0  0  0  0  2  0  0  0  0  0  0
  -27.9210  -12.4770   18.3320 C   0  0  0  0  0  2  0  0  0  0  0  0
  -27.6380  -13.2740   19.6340 C   0  0  0  0  0  3  0  0  0  0  0  0
  -28.7310  -12.9940   20.6880 C   0  0  0  0  0  2  0  0  0  0  0  0
  -30.0370  -13.3300   20.0930 N   0  0  0  0  0  0  0  0  0  0  0  0
  -31.7630  -14.7430   19.6660 O   0  0  0  0  0  0  0  0  0  0  0  0
  -30.0260  -15.4430   20.9610 N   0  0  0  0  0  0  0  0  0  0  0  0
  -29.2040  -15.0650   21.4040 H   0  0  0  0  0  0  0  0  0  0  0  0
  -25.2630  -13.8720   20.4380 C   0  0  0  0  0  0  0  0  0  0  0  0
  -24.2100  -13.0940   20.8370 C   0  0  0  0  0  0  0  0  0  0  0  0
  -24.6700  -11.7440   20.7680 C   0  0  0  0  0  0  0  0  0  0  0  0
  -26.2990  -12.9950   20.1550 N   0  0  0  0  0  0  0  0  0  0  0  0
  -25.9470  -11.7090   20.4090 N   0  0  0  0  0  0  0  0  0  0  0  0
  -23.9530  -10.4790   20.9630 C   0  0  0  0  0  0  0  0  0  0  0  0
  -24.3890   -9.5180   21.9000 C   0  0  0  0  0  3  0  0  0  0  0  0
  -23.6730   -8.3160   22.0810 C   0  0  0  0  0  3  0  0  0  0  0  0
  -22.5040   -8.0660   21.3250 C   0  0  0  0  0  0  0  0  0  0  0  0
  -22.0870   -9.0150   20.3740 C   0  0  0  0  0  3  0  0  0  0  0  0
  -22.8050  -10.2080   20.1910 C   0  0  0  0  0  3  0  0  0  0  0  0
  -21.7550   -6.9190   21.4190 O   0  0  0  0  0  0  0  0  0  0  0  0
  -21.6740   -6.2030   22.5850 C   0  0  0  0  0  0  0  0  0  0  0  0
  -21.1620   -6.7710   23.7730 C   0  0  0  0  0  3  0  0  0  0  0  0
  -21.0320   -5.9800   24.9320 C   0  0  0  0  0  3  0  0  0  0  0  0
  -21.4030   -4.6220   24.9050 C   0  0  0  0  0  0  0  0  0  0  0  0
  -21.9100   -4.0550   23.7230 C   0  0  0  0  0  3  0  0  0  0  0  0
  -22.0420   -4.8420   22.5660 C   0  0  0  0  0  0  0  0  0  0  0  0
  -22.5090   -4.2840   21.4240 F   0  0  0  0  0  0  0  0  0  0  0  0
  -21.2710   -3.8610   26.0160 F   0  0  0  0  0  0  0  0  0  0  0  0
  -22.8250  -13.5670   21.1690 C   0  0  0  0  0  0  0  0  0  0  0  0
  -22.1240  -12.8500   22.0400 N   0  0  0  0  0  0  0  0  0  0  0  0
  -22.3730  -14.6080   20.6920 O   0  0  0  0  0  0  0  0  0  0  0  0
  -22.5020  -12.0090   22.4500 H   0  0  0  0  0  0  0  0  0  0  0  0
  -21.1940  -13.1460   22.3020 H   0  0  0  0  0  0  0  0  0  0  0  0
  -25.4190  -15.2450   20.2750 N   0  0  0  0  0  0  0  0  0  0  0  0
  -24.6470  -15.8870   20.4150 H   0  0  0  0  0  0  0  0  0  0  0  0
  -26.2300  -15.6830   19.8590 H   0  0  0  0  0  0  0  0  0  0  0  0
  -28.5580  -25.7610   21.1900 C   0  0  0  0  0  2  0  0  0  0  0  0
  -28.4310  -26.6990   20.1050 O   0  0  0  0  0  0  0  0  0  0  0  0
  -24.6010  -31.8920   23.1700 C   0  0  0  0  0  0  0  0  0  0  0  0
  -27.2790  -27.4540   20.1150 C   0  0  0  0  0  0  0  0  0  0  0  0
  -23.4100  -30.4870   21.5150 C   0  0  0  0  0  3  0  0  0  0  0  0
  -24.8810  -28.9530   20.1000 C   0  0  0  0  0  0  0  0  0  0  0  0
  -25.9350  -30.8550   21.3350 C   0  0  0  0  0  2  0  0  0  0  0  0
  -26.0320  -29.4820   20.7000 C   0  0  0  0  0  0  0  0  0  0  0  0
  -27.2360  -28.7390   20.7070 C   0  0  0  0  0  3  0  0  0  0  0  0
  -26.1180  -26.9420   19.5040 C   0  0  0  0  0  3  0  0  0  0  0  0
  -24.9190  -27.6820   19.4990 C   0  0  0  0  0  3  0  0  0  0  0  0
  -23.6330  -29.8070   20.1370 C   0  0  0  0  0  2  0  0  0  0  0  0
  -24.6650  -31.0940   22.0640 N   0  0  0  0  0  0  0  0  0  0  0  0
  -23.5150  -32.1570   23.7050 O   0  0  0  0  0  0  0  0  0  0  0  0
  -22.7580  -29.4630   22.4740 C   0  0  0  0  0  0  0  0  0  0  0  0
  -21.4320  -29.2880   22.3560 N   0  0  0  0  0  0  0  0  0  0  0  0
  -23.4440  -28.8260   23.2790 O   0  0  0  0  0  0  0  0  0  0  0  0
  -20.9400  -29.8540   21.6790 H   0  0  0  0  0  0  0  0  0  0  0  0
  -18.0510  -28.1380   22.8980 C   0  0  0  0  0  0  0  0  0  0  0  0
  -20.6170  -28.3470   23.1230 C   0  0  0  0  0  3  0  0  0  0  0  0
  -20.6830  -26.9280   22.5130 C   0  0  0  0  0  2  0  0  0  0  0  0
  -19.5550  -26.6470   21.5140 C   0  0  0  0  0  2  0  0  0  0  0  0
  -18.1900  -26.8010   22.1900 C   0  0  0  0  0  2  0  0  0  0  0  0
  -19.1910  -28.8710   23.3220 C   0  0  0  0  0  0  0  0  0  0  0  0
  -19.0070  -30.1250   23.9460 C   0  0  0  0  0  3  0  0  0  0  0  0
  -17.7160  -30.6450   24.1490 C   0  0  0  0  0  3  0  0  0  0  0  0
  -16.5900  -29.9090   23.7420 C   0  0  0  0  0  3  0  0  0  0  0  0
  -16.7580  -28.6570   23.1220 C   0  0  0  0  0  3  0  0  0  0  0  0
  -25.8800  -32.5300   23.7960 C   0  0  0  0  0  3  0  0  0  0  0  0
  -25.5590  -33.9210   24.1390 N   0  0  0  0  0  0  0  0  0  0  0  0
  -25.8900  -34.9830   23.3900 C   0  0  0  0  0  0  0  0  0  0  0  0
  -26.5680  -34.8950   22.3630 O   0  0  0  0  0  0  0  0  0  0  0  0
  -24.9620  -34.0650   24.9390 H   0  0  0  0  0  0  0  0  0  0  0  0
  -24.1630  -36.7730   23.0270 C   0  0  0  0  0  1  0  0  0  0  0  0
  -25.3890  -36.3630   23.8580 C   0  0  0  0  0  3  0  0  0  0  0  0
  -27.4980  -37.2480   24.7500 C   0  0  0  0  0  1  0  0  0  0  0  0
  -26.4190  -37.4210   23.7800 N   0  0  0  0  0  0  0  0  0  0  0  0
  -26.0050  -38.3380   23.9240 H   0  0  0  0  0  0  0  0  0  0  0  0
  -26.4050  -31.7510   25.0650 C   0  0  1  0  0  0  0  0  0  0  0  0
  -25.3170  -31.4880   26.1300 C   0  0  0  0  0  1  0  0  0  0  0  0
  -27.0070  -30.3860   24.6560 C   0  0  0  0  0  1  0  0  0  0  0  0
  -27.5440  -32.5530   25.7400 C   0  0  0  0  0  1  0  0  0  0  0  0
  1 11  1  0
  1  6  1  0
  3  2  1  0
  4  6  1  0
  4  5  1  0
  5 53  1  0
  5  2  1  0
  6  3  1  0
  7  1  2  0
  8  9  1  0
  9 12  2  0
 10 13  2  0
 11  8  2  0
 11 10  1  0
 12 13  1  0
 12 23  1  0
 13 14  1  0
 15 23  1  0
 16 21  1  0
 17 18  1  0
 17 16  1  0
 19 18  1  0
 19 28  1  0
 19 20  1  0
 21 15  1  0
 21 20  1  0
 22 15  2  0
 23 24  1  0
 25 26  2  0
 26 45  1  0
 27 26  1  0
 27 30  1  0
 28 29  1  0
 28 25  1  0
 29 27  2  0
 30 31  1  0
 31 32  2  0
 33 36  1  0
 33 32  1  0
 34 33  2  0
 35 34  1  0
 35 30  2  0
 36 37  1  0
 37 38  1  0
 38 39  2  0
 40 39  1  0
 40 44  1  0
 41 40  2  0
 42 37  2  0
 42 41  1  0
 43 42  1  0
 45 46  1  0
 46 49  1  0
 46 48  1  0
 47 45  2  0
 50 51  1  0
 50 25  1  0
 52 50  1  0
 54 56  1  0
 54 53  1  0
 55 66  2  0
 56 61  1  0
 57 65  1  0
 57 67  1  0
 58 64  1  0
 58 60  1  0
 59 65  1  0
 60 61  2  0
 60 59  1  0
 62 56  2  0
 63 62  1  0
 63 58  2  0
 64 57  1  0
 65 55  1  0
 67 69  2  0
 68 67  1  0
 70 68  1  0
 71 80  2  0
 71 76  1  0
 72 68  1  0
 72 76  1  0
 73 72  1  0
 74 75  1  0
 74 73  1  0
 75 71  1  0
 76 77  2  0
 77 78  1  0
 79 78  2  0
 80 79  1  0
 81 55  1  0
 81 82  1  0
 81 91  1  0
 82 85  1  0
 83 87  1  0
 83 82  1  0
 84 83  2  0
 87 86  1  0
 89 87  1  0
 89 90  1  0
 89 88  1  0
 91 94  1  1
 91 92  1  0
 93 91  1  0
M  ISO  4  15 100  23 100  53 101  54 101
M  END
>  <TORSDO>  (63) 
F 18

>  <SCORE>  (63) 
-14.940

>  <name>  (63) 
63

>  <ligand_id>  (63) 
63

>  <original_smiles>  (63) 
[H]c1c([H])c([H])c2c(c1[H])C([H])([H])C([H])([H])C([H])([H])C2([H])N([H])C(=O)C1([H])N(C(=O)C([H])(N([H])C(=O)C([H])(N([H])C([H])([H])[H])C([H])([H])[H])C(C([H])([H])[H])(C([H])([H])[H])C([H])([H])[H])C([H])([H])c2c([H])c(OC([H])([H])C3([H])C([H])([H])N(C(=O)c4c([H])c([H])c(N([H])C(=O)N5C([H])([H])C([H])([H])C([H])([H])C([H])(n6nc(-c7c([H])c([H])c(Oc8c([H])c([H])c(F)c([H])c8F)c([H])c7[H])c(C(=O)N([H])[H])c6N([H])[H])C5([H])[H])c(F)c4[H])C([H])([H])C3([H])[H])c([H])c([H])c2C1([H])[H]

>  <smiles>  (63) 
[H]c1c([H])c([H])c2c(c1[H])C([H])([H])C([H])([H])C([H])([H])C2([H])N([H])C(=O)C1([H])N(C(=O)C([H])(N([H])C(=O)C([H])(N([H])C([H])([H])[H])C([H])([H])[H])C(C([H])([H])[H])(C([H])([H])[H])C([H])([H])[H])C([H])([H])c2c([H])c(OC([H])([H])C3([H])C([H])([H])N(C(=O)c4c([H])c([H])c(N([H])C(=O)N5C([H])([H])C([H])([H])C([H])([H])C([H])(n6nc(-c7c([H])c([H])c(Oc8c([H])c([H])c(F)c([H])c8F)c([H])c7[H])c(C(=O)N([H])[H])c6N([H])[H])C5([H])[H])c(F)c4[H])C([H])([H])C3([H])[H])c([H])c([H])c2C1([H])[H]

$$$$
64:0:0
     RDKit          3D

 94103  0  0  1  0  0  0  0  0999 V2000
  -27.4870  -21.1500   20.1530 C   0  0  0  0  0  0  0  0  0  0  0  0
  -26.5960  -22.3920   20.3470 C   0  0  0  0  0  3  0  0  0  0  0  0
  -27.2040  -23.7890   20.2400 C   0  0  0  0  0  3  0  0  0  0  0  0
  -29.4830  -22.6160   20.1490 C   0  0  0  0  0  2  0  0  0  0  0  0
  -28.6120  -23.9090   19.6540 C   0  0  1  0  0  0  0  0  0  0  0  0
  -28.5180  -23.8660   18.1190 C   0  0  0  0  0  1  0  0  0  0  0  0
  -28.8460  -21.2240   20.1680 N   0  0  0  0  0  0  0  0  0  0  0  0
  -26.8810  -20.0820   20.0000 O   0  0  0  0  0  0  0  0  0  0  0  0
  -29.4950  -19.1590   21.5320 C   0  0  0  0  0  3  0  0  0  0  0  0
  -30.1810  -19.1920   19.2470 C   0  0  0  0  0  3  0  0  0  0  0  0
  -29.9150  -17.7910   21.6430 C   0  0  0  0  0  3  0  0  0  0  0  0
  -30.5930  -17.8120   19.3590 C   0  0  0  0  0  3  0  0  0  0  0  0
  -29.5650  -19.9100   20.3200 C   0  0  0  0  0  0  0  0  0  0  0  0
  -30.4300  -17.0370   20.5490 C   0  0  0  0  0  0  0  0  0  0  0  0
  -31.0230  -14.6830   19.6700 C   0  0  0  0  0  0  0  0  0  0  0  0
  -30.5310  -12.5350   18.4680 C   0  0  0  0  0  2  0  0  0  0  0  0
  -29.4190  -12.6510   17.4000 C   0  0  0  0  0  2  0  0  0  0  0  0
  -28.0390  -12.4510   18.0430 C   0  0  0  0  0  2  0  0  0  0  0  0
  -27.8520  -13.3390   19.2970 C   0  0  0  0  0  3  0  0  0  0  0  0
  -29.0420  -13.1910   20.2690 C   0  0  0  0  0  2  0  0  0  0  0  0
  -30.2850  -13.5240   19.5500 N   0  0  0  0  0  0  0  0  0  0  0  0
  -31.9780  -14.8850   18.9100 O   0  0  0  0  0  0  0  0  0  0  0  0
  -30.9750  -15.0340   22.0580 C   0  0  0  0  0  1  0  0  0  0  0  0
  -30.7370  -15.5790   20.6910 N   0  0  0  0  0  0  0  0  0  0  0  0
  -25.6100  -13.9770   20.3670 C   0  0  0  0  0  0  0  0  0  0  0  0
  -24.5650  -13.2210   20.8310 C   0  0  0  0  0  0  0  0  0  0  0  0
  -24.9550  -11.8570   20.6580 C   0  0  0  0  0  0  0  0  0  0  0  0
  -26.5690  -13.0740   19.9420 N   0  0  0  0  0  0  0  0  0  0  0  0
  -26.1880  -11.7900   20.1710 N   0  0  0  0  0  0  0  0  0  0  0  0
  -24.2070  -10.6120   20.8700 C   0  0  0  0  0  0  0  0  0  0  0  0
  -24.6420   -9.6330   21.7900 C   0  0  0  0  0  3  0  0  0  0  0  0
  -23.8870   -8.4570   21.9920 C   0  0  0  0  0  3  0  0  0  0  0  0
  -22.6860   -8.2520   21.2740 C   0  0  0  0  0  0  0  0  0  0  0  0
  -22.2700   -9.2210   20.3450 C   0  0  0  0  0  3  0  0  0  0  0  0
  -23.0240  -10.3870   20.1400 C   0  0  0  0  0  3  0  0  0  0  0  0
  -21.9010   -7.1280   21.3860 O   0  0  0  0  0  0  0  0  0  0  0  0
  -21.7770   -6.4530   22.5750 C   0  0  0  0  0  0  0  0  0  0  0  0
  -21.2930   -7.0840   23.7430 C   0  0  0  0  0  3  0  0  0  0  0  0
  -21.1140   -6.3380   24.9250 C   0  0  0  0  0  3  0  0  0  0  0  0
  -21.4070   -4.9610   24.9390 C   0  0  0  0  0  0  0  0  0  0  0  0
  -21.8850   -4.3300   23.7770 C   0  0  0  0  0  3  0  0  0  0  0  0
  -22.0650   -5.0740   22.5990 C   0  0  0  0  0  0  0  0  0  0  0  0
  -22.5050   -4.4570   21.4750 F   0  0  0  0  0  0  0  0  0  0  0  0
  -21.2300   -4.2420   26.0720 F   0  0  0  0  0  0  0  0  0  0  0  0
  -23.2480  -13.7330   21.3300 C   0  0  0  0  0  0  0  0  0  0  0  0
  -22.6400  -13.0360   22.2840 N   0  0  0  0  0  0  0  0  0  0  0  0
  -22.7720  -14.7890   20.9120 O   0  0  0  0  0  0  0  0  0  0  0  0
  -23.0440  -12.1870   22.6470 H   0  0  0  0  0  0  0  0  0  0  0  0
  -21.7600  -13.3640   22.6550 H   0  0  0  0  0  0  0  0  0  0  0  0
  -25.8130  -15.3460   20.2560 N   0  0  0  0  0  0  0  0  0  0  0  0
  -25.1130  -16.0270   20.5320 H   0  0  0  0  0  0  0  0  0  0  0  0
  -26.6620  -15.7750   19.9040 H   0  0  0  0  0  0  0  0  0  0  0  0
  -29.1540  -25.3770   20.0950 C   0  0  0  0  0  2  0  0  0  0  0  0
  -28.7680  -26.6550   19.4380 O   0  0  0  0  0  0  0  0  0  0  0  0
  -24.5890  -31.4730   22.9450 C   0  0  0  0  0  0  0  0  0  0  0  0
  -27.5440  -27.3330   19.6070 C   0  0  0  0  0  0  0  0  0  0  0  0
  -23.4990  -30.1320   21.1690 C   0  0  0  0  0  3  0  0  0  0  0  0
  -25.0760  -28.7960   19.6490 C   0  0  0  0  0  0  0  0  0  0  0  0
  -26.0100  -30.6110   21.0760 C   0  0  0  0  0  2  0  0  0  0  0  0
  -26.1880  -29.2850   20.3490 C   0  0  0  0  0  0  0  0  0  0  0  0
  -27.4140  -28.5560   20.3380 C   0  0  0  0  0  3  0  0  0  0  0  0
  -26.4290  -26.9260   18.8450 C   0  0  0  0  0  3  0  0  0  0  0  0
  -25.2080  -27.6270   18.8760 C   0  0  0  0  0  3  0  0  0  0  0  0
  -23.7770  -29.5700   19.7440 C   0  0  0  0  0  2  0  0  0  0  0  0
  -24.7160  -30.7570   21.7870 N   0  0  0  0  0  0  0  0  0  0  0  0
  -23.4820  -31.6420   23.4780 O   0  0  0  0  0  0  0  0  0  0  0  0
  -22.8870  -29.0090   22.0400 C   0  0  0  0  0  0  0  0  0  0  0  0
  -21.5770  -28.7670   21.8760 N   0  0  0  0  0  0  0  0  0  0  0  0
  -23.5910  -28.3630   22.8210 O   0  0  0  0  0  0  0  0  0  0  0  0
  -21.0660  -29.3410   21.2210 H   0  0  0  0  0  0  0  0  0  0  0  0
  -18.2590  -27.3570   22.2840 C   0  0  0  0  0  0  0  0  0  0  0  0
  -20.8030  -27.7300   22.5610 C   0  0  0  0  0  3  0  0  0  0  0  0
  -20.9720  -26.3700   21.8470 C   0  0  0  0  0  2  0  0  0  0  0  0
  -19.8660  -26.1060   20.8190 C   0  0  0  0  0  2  0  0  0  0  0  0
  -18.5090  -26.0700   21.5190 C   0  0  0  0  0  2  0  0  0  0  0  0
  -19.3390  -28.1440   22.7650 C   0  0  0  0  0  0  0  0  0  0  0  0
  -19.0630  -29.3440   23.4500 C   0  0  0  0  0  3  0  0  0  0  0  0
  -17.7330  -29.7490   23.6710 C   0  0  0  0  0  3  0  0  0  0  0  0
  -16.6650  -28.9610   23.2110 C   0  0  0  0  0  3  0  0  0  0  0  0
  -16.9290  -27.7710   22.5120 C   0  0  0  0  0  3  0  0  0  0  0  0
  -25.8240  -32.1320   23.6340 C   0  0  0  0  0  3  0  0  0  0  0  0
  -25.4240  -33.4790   24.0660 N   0  0  0  0  0  0  0  0  0  0  0  0
  -25.6980  -34.6070   23.3970 C   0  0  0  0  0  0  0  0  0  0  0  0
  -26.3760  -34.6260   22.3670 O   0  0  0  0  0  0  0  0  0  0  0  0
  -24.8160  -33.5280   24.8670 H   0  0  0  0  0  0  0  0  0  0  0  0
  -23.8590  -36.3110   23.1710 C   0  0  0  0  0  1  0  0  0  0  0  0
  -25.1210  -35.9230   23.9590 C   0  0  0  0  0  3  0  0  0  0  0  0
  -27.1860  -36.8780   24.8770 C   0  0  0  0  0  1  0  0  0  0  0  0
  -26.0830  -37.0450   23.9360 N   0  0  0  0  0  0  0  0  0  0  0  0
  -25.6160  -37.9240   24.1490 H   0  0  0  0  0  0  0  0  0  0  0  0
  -26.3760  -31.3000   24.8590 C   0  0  1  0  0  0  0  0  0  0  0  0
  -25.2920  -30.9150   25.8940 C   0  0  0  0  0  1  0  0  0  0  0  0
  -27.0420  -29.9920   24.3760 C   0  0  0  0  0  1  0  0  0  0  0  0
  -27.4650  -32.1100   25.6040 C   0  0  0  0  0  1  0  0  0  0  0  0
  1  7  1  0
  1  2  1  0
  3  2  2  0
  4  7  1  0
  5  6  1  6
  5 53  1  0
  5  4  1  0
  5  3  1  0
  7 13  1  0
  8  1  2  0
  9 11  1  0
 10 12  2  0
 10 13  1  0
 12 14  1  0
 13  9  2  0
 14 24  1  0
 14 11  2  0
 15 24  1  0
 16 21  1  0
 17 18  1  0
 17 16  1  0
 19 18  1  0
 19 28  1  0
 19 20  1  0
 21 15  1  0
 21 20  1  0
 22 15  2  0
 24 23  1  0
 25 26  2  0
 26 45  1  0
 27 26  1  0
 27 30  1  0
 28 29  1  0
 28 25  1  0
 29 27  2  0
 30 31  1  0
 31 32  2  0
 33 36  1  0
 33 32  1  0
 34 33  2  0
 35 34  1  0
 35 30  2  0
 36 37  1  0
 37 42  2  0
 37 38  1  0
 38 39  2  0
 39 40  1  0
 40 44  1  0
 41 40  2  0
 42 41  1  0
 43 42  1  0
 45 46  1  0
 46 48  1  0
 46 49  1  0
 47 45  2  0
 50 25  1  0
 50 51  1  0
 52 50  1  0
 54 56  1  0
 54 53  1  0
 55 66  2  0
 56 61  1  0
 57 65  1  0
 57 67  1  0
 58 64  1  0
 58 60  1  0
 59 65  1  0
 60 59  1  0
 61 60  2  0
 62 63  1  0
 62 56  2  0
 63 58  2  0
 64 57  1  0
 65 55  1  0
 67 69  2  0
 68 67  1  0
 70 68  1  0
 71 80  2  0
 71 76  1  0
 72 68  1  0
 72 76  1  0
 73 72  1  0
 74 75  1  0
 74 73  1  0
 75 71  1  0
 76 77  2  0
 77 78  1  0
 79 78  2  0
 80 79  1  0
 81 55  1  0
 81 82  1  0
 81 91  1  0
 82 85  1  0
 83 87  1  0
 83 82  1  0
 84 83  2  0
 87 86  1  0
 89 87  1  0
 89 90  1  0
 89 88  1  0
 91 94  1  1
 91 92  1  0
 93 91  1  0
M  ISO  4  15 100  24 100  53 101  54 101
M  END
>  <TORSDO>  (64) 
F 18

>  <SCORE>  (64) 
-11.024

>  <name>  (64) 
64

>  <ligand_id>  (64) 
64

>  <original_smiles>  (64) 
[H]c1c([H])c([H])c2c(c1[H])C([H])([H])C([H])([H])C([H])([H])C2([H])N([H])C(=O)C1([H])N(C(=O)C([H])(N([H])C(=O)C([H])(N([H])C([H])([H])[H])C([H])([H])[H])C(C([H])([H])[H])(C([H])([H])[H])C([H])([H])[H])C([H])([H])c2c([H])c(OC([H])([H])C3(C([H])([H])[H])C([H])([H])N(c4c([H])c([H])c(N(C(=O)N5C([H])([H])C([H])([H])C([H])([H])C([H])(n6nc(-c7c([H])c([H])c(Oc8c([H])c([H])c(F)c([H])c8F)c([H])c7[H])c(C(=O)N([H])[H])c6N([H])[H])C5([H])[H])C([H])([H])[H])c([H])c4[H])C(=O)C([H])([H])C3([H])[H])c([H])c([H])c2C1([H])[H]

>  <smiles>  (64) 
[H]c1c([H])c([H])c2c(c1[H])C([H])([H])C([H])([H])C([H])([H])C2([H])N([H])C(=O)C1([H])N(C(=O)C([H])(N([H])C(=O)C([H])(N([H])C([H])([H])[H])C([H])([H])[H])C(C([H])([H])[H])(C([H])([H])[H])C([H])([H])[H])C([H])([H])c2c([H])c(OC([H])([H])C3(C([H])([H])[H])C([H])([H])N(c4c([H])c([H])c(N(C(=O)N5C([H])([H])C([H])([H])C([H])([H])C([H])(n6nc(-c7c([H])c([H])c(Oc8c([H])c([H])c(F)c([H])c8F)c([H])c7[H])c(C(=O)N([H])[H])c6N([H])[H])C5([H])[H])C([H])([H])[H])c([H])c4[H])C(=O)C([H])([H])C3([H])[H])c([H])c([H])c2C1([H])[H]

$$$$
65:0:0
     RDKit          3D

 92100  0  0  1  0  0  0  0  0999 V2000
  -29.5300  -22.7950   20.9380 C   0  0  0  0  0  0  0  0  0  0  0  0
  -29.0190  -21.6280   21.3590 N   0  0  0  0  0  0  0  0  0  0  0  0
  -30.7140  -22.9640   20.6340 O   0  0  0  0  0  0  0  0  0  0  0  0
  -28.0230  -21.6300   21.5330 H   0  0  0  0  0  0  0  0  0  0  0  0
  -31.1590  -18.6640   21.1030 C   0  0  0  0  0  3  0  0  0  0  0  0
  -30.8840  -20.0060   21.5110 C   0  0  0  0  0  3  0  0  0  0  0  0
  -30.0850  -18.0560   20.5070 C   0  0  0  0  0  0  0  0  0  0  0  0
  -29.6000  -20.4100   21.2250 C   0  0  0  0  0  0  0  0  0  0  0  0
  -28.6830  -19.0850   20.5620 S   0  0  0  0  0  0  0  0  0  0  0  0
  -30.0510  -16.7670   19.7460 C   0  0  0  0  0  2  0  0  0  0  0  0
  -30.7220  -14.4690   20.2400 C   0  0  0  0  0  0  0  0  0  0  0  0
  -30.3490  -12.3290   19.1060 C   0  0  0  0  0  2  0  0  0  0  0  0
  -29.3960  -12.5880   17.9220 C   0  0  0  0  0  2  0  0  0  0  0  0
  -27.9250  -12.4800   18.3730 C   0  0  0  0  0  2  0  0  0  0  0  0
  -27.6270  -13.2890   19.6640 C   0  0  0  0  0  3  0  0  0  0  0  0
  -28.7070  -13.0430   20.7490 C   0  0  0  0  0  2  0  0  0  0  0  0
  -30.0280  -13.3060   20.1560 N   0  0  0  0  0  0  0  0  0  0  0  0
  -31.8600  -14.6130   19.7910 O   0  0  0  0  0  0  0  0  0  0  0  0
  -29.9710  -15.5380   20.5440 N   0  0  0  0  0  0  0  0  0  0  0  0
  -29.0670  -15.3300   20.9410 H   0  0  0  0  0  0  0  0  0  0  0  0
  -25.2420  -13.9090   20.4170 C   0  0  0  0  0  0  0  0  0  0  0  0
  -24.1790  -13.1420   20.8120 C   0  0  0  0  0  0  0  0  0  0  0  0
  -24.6350  -11.7890   20.7760 C   0  0  0  0  0  0  0  0  0  0  0  0
  -26.2810  -13.0240   20.1710 N   0  0  0  0  0  0  0  0  0  0  0  0
  -25.9200  -11.7440   20.4460 N   0  0  0  0  0  0  0  0  0  0  0  0
  -23.9100  -10.5300   20.9830 C   0  0  0  0  0  0  0  0  0  0  0  0
  -24.3610   -9.5620   21.9080 C   0  0  0  0  0  3  0  0  0  0  0  0
  -23.6360   -8.3660   22.1030 C   0  0  0  0  0  3  0  0  0  0  0  0
  -22.4460   -8.1300   21.3730 C   0  0  0  0  0  0  0  0  0  0  0  0
  -22.0150   -9.0880   20.4390 C   0  0  0  0  0  3  0  0  0  0  0  0
  -22.7410  -10.2750   20.2420 C   0  0  0  0  0  3  0  0  0  0  0  0
  -21.6890   -6.9870   21.4830 O   0  0  0  0  0  0  0  0  0  0  0  0
  -21.6670   -6.2420   22.6330 C   0  0  0  0  0  0  0  0  0  0  0  0
  -21.2850   -6.7970   23.8740 C   0  0  0  0  0  3  0  0  0  0  0  0
  -21.2100   -5.9780   25.0190 C   0  0  0  0  0  3  0  0  0  0  0  0
  -21.5070   -4.6050   24.9240 C   0  0  0  0  0  0  0  0  0  0  0  0
  -21.8830   -4.0490   23.6870 C   0  0  0  0  0  3  0  0  0  0  0  0
  -21.9590   -4.8650   22.5440 C   0  0  0  0  0  0  0  0  0  0  0  0
  -22.2990   -4.3200   21.3510 F   0  0  0  0  0  0  0  0  0  0  0  0
  -21.4290   -3.8180   26.0200 F   0  0  0  0  0  0  0  0  0  0  0  0
  -22.7870  -13.6240   21.1080 C   0  0  0  0  0  0  0  0  0  0  0  0
  -22.0710  -12.9340   21.9910 N   0  0  0  0  0  0  0  0  0  0  0  0
  -22.3450  -14.6470   20.5870 O   0  0  0  0  0  0  0  0  0  0  0  0
  -22.4420  -12.1080   22.4360 H   0  0  0  0  0  0  0  0  0  0  0  0
  -21.1390  -13.2440   22.2260 H   0  0  0  0  0  0  0  0  0  0  0  0
  -25.4050  -15.2780   20.2310 N   0  0  0  0  0  0  0  0  0  0  0  0
  -24.6420  -15.9340   20.3540 H   0  0  0  0  0  0  0  0  0  0  0  0
  -26.2480  -15.7190   19.8860 H   0  0  0  0  0  0  0  0  0  0  0  0
  -28.5520  -23.9650   20.8450 C   0  0  0  0  0  2  0  0  0  0  0  0
  -28.3770  -24.4790   19.3940 C   0  0  0  0  0  2  0  0  0  0  0  0
  -28.8300  -25.9320   19.1580 C   0  0  0  0  0  2  0  0  0  0  0  0
  -28.4510  -26.8360   20.1900 O   0  0  0  0  0  0  0  0  0  0  0  0
  -24.5720  -31.8880   23.2570 C   0  0  0  0  0  0  0  0  0  0  0  0
  -27.2440  -27.4970   20.1490 C   0  0  0  0  0  0  0  0  0  0  0  0
  -23.3680  -30.4910   21.6040 C   0  0  0  0  0  3  0  0  0  0  0  0
  -24.8280  -28.9670   20.1740 C   0  0  0  0  0  0  0  0  0  0  0  0
  -25.8860  -30.8690   21.4050 C   0  0  0  0  0  2  0  0  0  0  0  0
  -25.9770  -29.4960   20.7720 C   0  0  0  0  0  0  0  0  0  0  0  0
  -27.1790  -28.7610   20.7730 C   0  0  0  0  0  3  0  0  0  0  0  0
  -26.0780  -26.9760   19.5440 C   0  0  0  0  0  3  0  0  0  0  0  0
  -24.8710  -27.7000   19.5630 C   0  0  0  0  0  3  0  0  0  0  0  0
  -23.5790  -29.8150   20.2220 C   0  0  0  0  0  2  0  0  0  0  0  0
  -24.6270  -31.0980   22.1480 N   0  0  0  0  0  0  0  0  0  0  0  0
  -23.4910  -32.1520   23.8010 O   0  0  0  0  0  0  0  0  0  0  0  0
  -22.7240  -29.4630   22.5620 C   0  0  0  0  0  0  0  0  0  0  0  0
  -21.3990  -29.2850   22.4410 N   0  0  0  0  0  0  0  0  0  0  0  0
  -23.4120  -28.8320   23.3680 O   0  0  0  0  0  0  0  0  0  0  0  0
  -20.9060  -29.8550   21.7650 H   0  0  0  0  0  0  0  0  0  0  0  0
  -18.0220  -28.0960   22.9420 C   0  0  0  0  0  0  0  0  0  0  0  0
  -20.5820  -28.3430   23.2070 C   0  0  0  0  0  3  0  0  0  0  0  0
  -20.6760  -26.9160   22.6210 C   0  0  0  0  0  2  0  0  0  0  0  0
  -19.5700  -26.6050   21.6070 C   0  0  0  0  0  2  0  0  0  0  0  0
  -18.1920  -26.7510   22.2580 C   0  0  0  0  0  2  0  0  0  0  0  0
  -19.1450  -28.8510   23.3750 C   0  0  0  0  0  0  0  0  0  0  0  0
  -18.9330  -30.1100   23.9770 C   0  0  0  0  0  3  0  0  0  0  0  0
  -17.6310  -30.6160   24.1460 C   0  0  0  0  0  3  0  0  0  0  0  0
  -16.5220  -29.8610   23.7270 C   0  0  0  0  0  3  0  0  0  0  0  0
  -16.7200  -28.6010   23.1320 C   0  0  0  0  0  3  0  0  0  0  0  0
  -25.8590  -32.5170   23.8780 C   0  0  0  0  0  3  0  0  0  0  0  0
  -25.5510  -33.9160   24.2020 N   0  0  0  0  0  0  0  0  0  0  0  0
  -25.8990  -34.9640   23.4420 C   0  0  0  0  0  0  0  0  0  0  0  0
  -26.5800  -34.8510   22.4180 O   0  0  0  0  0  0  0  0  0  0  0  0
  -24.9410  -34.0730   24.9890 H   0  0  0  0  0  0  0  0  0  0  0  0
  -24.1850  -36.7640   23.0600 C   0  0  0  0  0  1  0  0  0  0  0  0
  -25.4170  -36.3570   23.8870 C   0  0  0  0  0  3  0  0  0  0  0  0
  -27.5480  -37.2350   24.7330 C   0  0  0  0  0  1  0  0  0  0  0  0
  -26.4570  -37.4030   23.7750 N   0  0  0  0  0  0  0  0  0  0  0  0
  -26.0580  -38.3270   23.9060 H   0  0  0  0  0  0  0  0  0  0  0  0
  -26.3710  -31.7440   25.1550 C   0  0  1  0  0  0  0  0  0  0  0  0
  -25.2750  -31.5130   26.2240 C   0  0  0  0  0  1  0  0  0  0  0  0
  -26.9480  -30.3650   24.7590 C   0  0  0  0  0  1  0  0  0  0  0  0
  -27.5280  -32.5320   25.8140 C   0  0  0  0  0  1  0  0  0  0  0  0
  1  2  1  0
  2  4  1  0
  3  1  2  0
  5  6  1  0
  7  9  1  0
  7  5  2  0
  8  2  1  0
  8  6  2  0
  9  8  1  0
 10  7  1  0
 10 19  1  0
 11 19  1  0
 12 17  1  0
 13 14  1  0
 13 12  1  0
 15 14  1  0
 15 24  1  0
 15 16  1  0
 17 11  1  0
 17 16  1  0
 18 11  2  0
 19 20  1  0
 21 22  2  0
 22 41  1  0
 23 22  1  0
 23 26  1  0
 24 21  1  0
 24 25  1  0
 25 23  2  0
 26 27  1  0
 27 28  2  0
 29 32  1  0
 29 28  1  0
 30 29  2  0
 31 30  1  0
 31 26  2  0
 32 33  1  0
 33 34  1  0
 34 35  2  0
 36 35  1  0
 36 40  1  0
 37 36  2  0
 38 33  2  0
 38 37  1  0
 39 38  1  0
 41 42  1  0
 42 45  1  0
 42 44  1  0
 43 41  2  0
 46 47  1  0
 46 21  1  0
 48 46  1  0
 49  1  1  0
 50 49  1  0
 51 50  1  0
 51 52  1  0
 53 64  2  0
 54 52  1  0
 54 59  1  0
 55 63  1  0
 55 65  1  0
 56 62  1  0
 56 58  1  0
 57 63  1  0
 58 59  2  0
 58 57  1  0
 60 61  1  0
 60 54  2  0
 61 56  2  0
 62 55  1  0
 63 53  1  0
 65 67  2  0
 66 65  1  0
 68 66  1  0
 69 78  2  0
 69 74  1  0
 70 66  1  0
 70 74  1  0
 71 70  1  0
 72 73  1  0
 72 71  1  0
 73 69  1  0
 74 75  2  0
 75 76  1  0
 77 76  2  0
 78 77  1  0
 79 53  1  0
 79 80  1  0
 79 89  1  0
 80 83  1  0
 81 85  1  0
 81 80  1  0
 82 81  2  0
 85 84  1  0
 87 85  1  0
 87 88  1  0
 87 86  1  0
 89 92  1  1
 89 90  1  0
 91 89  1  0
M  ISO  4  11 100  19 100  51 101  52 101
M  END
>  <TORSDO>  (65) 
F 21

>  <SCORE>  (65) 
-13.544

>  <name>  (65) 
65

>  <ligand_id>  (65) 
65

>  <original_smiles>  (65) 
[H]c1c(N([H])C(=O)C([H])([H])C([H])([H])C([H])([H])Oc2c([H])c([H])c3c(c2[H])C([H])([H])N(C(=O)C([H])(N([H])C(=O)C([H])(N([H])C([H])([H])[H])C([H])([H])[H])C(C([H])([H])[H])(C([H])([H])[H])C([H])([H])[H])C([H])(C(=O)N([H])C2([H])c4c([H])c([H])c([H])c([H])c4C([H])([H])C([H])([H])C2([H])[H])C3([H])[H])sc(C([H])([H])N([H])C(=O)N2C([H])([H])C([H])([H])C([H])([H])C([H])(n3nc(-c4c([H])c([H])c(Oc5c([H])c([H])c(F)c([H])c5F)c([H])c4[H])c(C(=O)N([H])[H])c3N([H])[H])C2([H])[H])c1[H]

>  <smiles>  (65) 
[H]c1c(N([H])C(=O)C([H])([H])C([H])([H])C([H])([H])Oc2c([H])c([H])c3c(c2[H])C([H])([H])N(C(=O)C([H])(N([H])C(=O)C([H])(N([H])C([H])([H])[H])C([H])([H])[H])C(C([H])([H])[H])(C([H])([H])[H])C([H])([H])[H])C([H])(C(=O)N([H])C2([H])c4c([H])c([H])c([H])c([H])c4C([H])([H])C([H])([H])C2([H])[H])C3([H])[H])sc(C([H])([H])N([H])C(=O)N2C([H])([H])C([H])([H])C([H])([H])C([H])(n3nc(-c4c([H])c([H])c(Oc5c([H])c([H])c(F)c([H])c5F)c([H])c4[H])c(C(=O)N([H])[H])c3N([H])[H])C2([H])[H])c1[H]

$$$$
66:0:0
     RDKit          3D

 96105  0  0  1  0  0  0  0  0999 V2000
  -30.7930  -23.0820   18.1080 C   0  0  0  0  0  0  0  0  0  0  0  0
  -29.0070  -22.5110   20.2770 C   0  0  0  0  0  0  0  0  0  0  0  0
  -30.0770  -24.3070   18.6470 C   0  0  0  0  0  2  0  0  0  0  0  0
  -31.1050  -21.9880   19.1270 C   0  0  0  0  0  2  0  0  0  0  0  0
  -29.2690  -24.0550   19.9460 C   0  0  0  0  0  3  0  0  0  0  0  0
  -29.9100  -21.5290   19.8730 N   0  0  0  0  0  0  0  0  0  0  0  0
  -31.1160  -22.9890   16.9230 O   0  0  0  0  0  0  0  0  0  0  0  0
  -27.9890  -22.2370   20.9190 O   0  0  0  0  0  0  0  0  0  0  0  0
  -31.0300  -19.3540   20.5710 C   0  0  0  0  0  3  0  0  0  0  0  0
  -31.0590  -17.9430   20.7650 C   0  0  0  0  0  3  0  0  0  0  0  0
  -28.6920  -19.2650   20.0650 C   0  0  0  0  0  3  0  0  0  0  0  0
  -29.8580  -20.0730   20.1800 C   0  0  0  0  0  0  0  0  0  0  0  0
  -29.8950  -17.1510   20.6160 C   0  0  0  0  0  0  0  0  0  0  0  0
  -28.6950  -17.8480   20.3030 C   0  0  0  0  0  0  0  0  0  0  0  0
  -30.6420  -14.6720   20.3830 C   0  0  0  0  0  0  0  0  0  0  0  0
  -30.4690  -12.4310   19.3170 C   0  0  0  0  0  2  0  0  0  0  0  0
  -29.5040  -12.5380   18.1150 C   0  0  0  0  0  2  0  0  0  0  0  0
  -28.0410  -12.3430   18.5660 C   0  0  0  0  0  2  0  0  0  0  0  0
  -27.6800  -13.1960   19.8120 C   0  0  0  0  0  3  0  0  0  0  0  0
  -28.7580  -13.0630   20.9110 C   0  0  0  0  0  2  0  0  0  0  0  0
  -30.0520  -13.4360   20.3160 N   0  0  0  0  0  0  0  0  0  0  0  0
  -31.7870  -14.8560   19.9630 O   0  0  0  0  0  0  0  0  0  0  0  0
  -29.8310  -15.6980   20.7870 N   0  0  0  0  0  0  0  0  0  0  0  0
  -28.9290  -15.3810   21.1120 H   0  0  0  0  0  0  0  0  0  0  0  0
  -25.2830  -13.7310   20.5660 C   0  0  0  0  0  0  0  0  0  0  0  0
  -24.2400  -12.9330   20.9480 C   0  0  0  0  0  0  0  0  0  0  0  0
  -24.7320  -11.5930   20.8970 C   0  0  0  0  0  0  0  0  0  0  0  0
  -26.3460  -12.8780   20.3140 N   0  0  0  0  0  0  0  0  0  0  0  0
  -26.0190  -11.5850   20.5700 N   0  0  0  0  0  0  0  0  0  0  0  0
  -24.0360  -10.3140   21.0850 C   0  0  0  0  0  0  0  0  0  0  0  0
  -24.4730   -9.3670   22.0380 C   0  0  0  0  0  3  0  0  0  0  0  0
  -23.7750   -8.1540   22.2130 C   0  0  0  0  0  3  0  0  0  0  0  0
  -22.6270   -7.8760   21.4340 C   0  0  0  0  0  0  0  0  0  0  0  0
  -22.2100   -8.8110   20.4700 C   0  0  0  0  0  3  0  0  0  0  0  0
  -22.9080  -10.0180   20.2940 C   0  0  0  0  0  3  0  0  0  0  0  0
  -21.9010   -6.7120   21.5160 O   0  0  0  0  0  0  0  0  0  0  0  0
  -21.8140   -6.0000   22.6860 C   0  0  0  0  0  0  0  0  0  0  0  0
  -21.3040   -6.5740   23.8700 C   0  0  0  0  0  3  0  0  0  0  0  0
  -21.1670   -5.7870   25.0310 C   0  0  0  0  0  3  0  0  0  0  0  0
  -21.5290   -4.4270   25.0080 C   0  0  0  0  0  0  0  0  0  0  0  0
  -22.0320   -3.8520   23.8280 C   0  0  0  0  0  3  0  0  0  0  0  0
  -22.1710   -4.6370   22.6690 C   0  0  0  0  0  0  0  0  0  0  0  0
  -22.6360   -4.0730   21.5280 F   0  0  0  0  0  0  0  0  0  0  0  0
  -21.3900   -3.6690   26.1200 F   0  0  0  0  0  0  0  0  0  0  0  0
  -22.8380  -13.3780   21.2500 C   0  0  0  0  0  0  0  0  0  0  0  0
  -22.1440  -12.6650   22.1310 N   0  0  0  0  0  0  0  0  0  0  0  0
  -22.3670  -14.3940   20.7420 O   0  0  0  0  0  0  0  0  0  0  0  0
  -22.5400  -11.8440   22.5650 H   0  0  0  0  0  0  0  0  0  0  0  0
  -21.2070  -12.9470   22.3770 H   0  0  0  0  0  0  0  0  0  0  0  0
  -25.4060  -15.1040   20.3940 N   0  0  0  0  0  0  0  0  0  0  0  0
  -24.6210  -15.7310   20.5240 H   0  0  0  0  0  0  0  0  0  0  0  0
  -26.2600  -15.5870   20.1400 H   0  0  0  0  0  0  0  0  0  0  0  0
  -26.3140  -17.7520   20.0200 C   0  0  0  0  0  1  0  0  0  0  0  0
  -27.5510  -17.0790   20.2300 O   0  0  0  0  0  0  0  0  0  0  0  0
  -28.0070  -25.0200   19.9410 C   0  0  0  0  0  2  0  0  0  0  0  0
  -28.2270  -26.4840   19.8420 O   0  0  0  0  0  0  0  0  0  0  0  0
  -24.5800  -31.8110   23.0770 C   0  0  0  0  0  0  0  0  0  0  0  0
  -27.1000  -27.3230   19.8530 C   0  0  0  0  0  0  0  0  0  0  0  0
  -23.3330  -30.4630   21.4270 C   0  0  0  0  0  3  0  0  0  0  0  0
  -24.7430  -28.9440   19.9350 C   0  0  0  0  0  0  0  0  0  0  0  0
  -25.8700  -30.7730   21.2000 C   0  0  0  0  0  2  0  0  0  0  0  0
  -25.9270  -29.4110   20.5180 C   0  0  0  0  0  0  0  0  0  0  0  0
  -27.1090  -28.6140   20.4660 C   0  0  0  0  0  3  0  0  0  0  0  0
  -25.8900  -26.9120   19.2470 C   0  0  0  0  0  3  0  0  0  0  0  0
  -24.7260  -27.6990   19.2910 C   0  0  0  0  0  3  0  0  0  0  0  0
  -23.5140  -29.8220   20.0270 C   0  0  0  0  0  2  0  0  0  0  0  0
  -24.6150  -31.0310   21.9580 N   0  0  0  0  0  0  0  0  0  0  0  0
  -23.5090  -32.0810   23.6410 O   0  0  0  0  0  0  0  0  0  0  0  0
  -22.6830  -29.4250   22.3730 C   0  0  0  0  0  0  0  0  0  0  0  0
  -21.3520  -29.2710   22.2780 N   0  0  0  0  0  0  0  0  0  0  0  0
  -23.3750  -28.7640   23.1520 O   0  0  0  0  0  0  0  0  0  0  0  0
  -20.8530  -29.8570   21.6220 H   0  0  0  0  0  0  0  0  0  0  0  0
  -17.9680  -28.1350   22.8570 C   0  0  0  0  0  0  0  0  0  0  0  0
  -20.5390  -28.3250   23.0430 C   0  0  0  0  0  3  0  0  0  0  0  0
  -20.5860  -26.9140   22.4130 C   0  0  0  0  0  2  0  0  0  0  0  0
  -19.4410  -26.6550   21.4280 C   0  0  0  0  0  2  0  0  0  0  0  0
  -18.0870  -26.8070   22.1270 C   0  0  0  0  0  2  0  0  0  0  0  0
  -19.1180  -28.8540   23.2730 C   0  0  0  0  0  0  0  0  0  0  0  0
  -18.9500  -30.0980   23.9180 C   0  0  0  0  0  3  0  0  0  0  0  0
  -17.6650  -30.6230   24.1490 C   0  0  0  0  0  3  0  0  0  0  0  0
  -16.5280  -29.9000   23.7480 C   0  0  0  0  0  3  0  0  0  0  0  0
  -16.6810  -28.6560   23.1070 C   0  0  0  0  0  3  0  0  0  0  0  0
  -25.8800  -32.4170   23.6890 C   0  0  0  0  0  3  0  0  0  0  0  0
  -26.4280  -31.5970   24.9210 C   0  0  1  0  0  0  0  0  0  0  0  0
  -25.3620  -31.3240   26.0090 C   0  0  0  0  0  1  0  0  0  0  0  0
  -26.9930  -30.2320   24.4640 C   0  0  0  0  0  1  0  0  0  0  0  0
  -27.6000  -32.3620   25.5800 C   0  0  0  0  0  1  0  0  0  0  0  0
  -25.5820  -33.8020   24.0790 N   0  0  0  0  0  0  0  0  0  0  0  0
  -25.9020  -34.8830   23.3550 C   0  0  0  0  0  0  0  0  0  0  0  0
  -26.5490  -34.8190   22.3070 O   0  0  0  0  0  0  0  0  0  0  0  0
  -25.0050  -33.9260   24.8990 H   0  0  0  0  0  0  0  0  0  0  0  0
  -24.1730  -36.6940   23.1080 C   0  0  0  0  0  1  0  0  0  0  0  0
  -25.4290  -36.2540   23.8770 C   0  0  0  0  0  3  0  0  0  0  0  0
  -27.5810  -37.1010   24.7010 C   0  0  0  0  0  1  0  0  0  0  0  0
  -26.4630  -37.3080   23.7850 N   0  0  0  0  0  0  0  0  0  0  0  0
  -26.0620  -38.2220   23.9760 H   0  0  0  0  0  0  0  0  0  0  0  0
  1  3  1  0
  1  4  1  0
  2  8  2  0
  3  5  1  0
  4  6  1  0
  5 55  1  0
  5  2  1  0
  6 12  1  0
  6  2  1  0
  7  1  2  0
  9 10  1  0
 11 12  1  0
 11 14  2  0
 12  9  2  0
 13 10  2  0
 13 23  1  0
 14 13  1  0
 15 23  1  0
 16 21  1  0
 17 18  1  0
 17 16  1  0
 19 18  1  0
 19 28  1  0
 19 20  1  0
 21 15  1  0
 21 20  1  0
 22 15  2  0
 23 24  1  0
 25 26  2  0
 26 45  1  0
 27 26  1  0
 27 30  1  0
 28 25  1  0
 28 29  1  0
 29 27  2  0
 30 31  1  0
 31 32  2  0
 33 36  1  0
 33 32  1  0
 34 33  2  0
 35 34  1  0
 35 30  2  0
 36 37  1  0
 37 38  1  0
 38 39  2  0
 40 39  1  0
 40 44  1  0
 41 40  2  0
 42 37  2  0
 42 41  1  0
 43 42  1  0
 45 46  1  0
 46 49  1  0
 46 48  1  0
 47 45  2  0
 50 51  1  0
 50 25  1  0
 52 50  1  0
 53 54  1  0
 54 14  1  0
 56 58  1  0
 56 55  1  0
 57 68  2  0
 58 63  1  0
 59 67  1  0
 59 69  1  0
 60 66  1  0
 60 62  1  0
 61 67  1  0
 62 61  1  0
 63 62  2  0
 64 65  1  0
 64 58  2  0
 65 60  2  0
 66 59  1  0
 67 57  1  0
 69 71  2  0
 70 69  1  0
 72 70  1  0
 73 82  2  0
 73 78  1  0
 74 70  1  0
 74 78  1  0
 75 74  1  0
 76 77  1  0
 76 75  1  0
 77 73  1  0
 78 79  2  0
 79 80  1  0
 81 80  2  0
 82 81  1  0
 83 57  1  0
 83 88  1  0
 83 84  1  0
 84 87  1  1
 84 85  1  0
 86 84  1  0
 88 91  1  0
 89 93  1  0
 89 88  1  0
 90 89  2  0
 93 92  1  0
 95 93  1  0
 95 96  1  0
 95 94  1  0
M  ISO  4  15 100  23 100  55 101  56 101
M  END
>  <TORSDO>  (66) 
F 19

>  <SCORE>  (66) 
-14.429

>  <name>  (66) 
66

>  <ligand_id>  (66) 
66

>  <original_smiles>  (66) 
[H]c1c([H])c([H])c2c(c1[H])C([H])([H])C([H])([H])C([H])([H])C2([H])N([H])C(=O)C1([H])N(C(=O)C([H])(N([H])C(=O)C([H])(N([H])C([H])([H])[H])C([H])([H])[H])C(C([H])([H])[H])(C([H])([H])[H])C([H])([H])[H])C([H])([H])c2c([H])c(OC([H])([H])C3([H])C(=O)N(c4c([H])c([H])c(N([H])C(=O)N5C([H])([H])C([H])([H])C([H])([H])C([H])(n6nc(-c7c([H])c([H])c(Oc8c([H])c([H])c(F)c([H])c8F)c([H])c7[H])c(C(=O)N([H])[H])c6N([H])[H])C5([H])[H])c(OC([H])([H])[H])c4[H])C([H])([H])C(=O)C3([H])[H])c([H])c([H])c2C1([H])[H]

>  <smiles>  (66) 
[H]c1c([H])c([H])c2c(c1[H])C([H])([H])C([H])([H])C([H])([H])C2([H])N([H])C(=O)C1([H])N(C(=O)C([H])(N([H])C(=O)C([H])(N([H])C([H])([H])[H])C([H])([H])[H])C(C([H])([H])[H])(C([H])([H])[H])C([H])([H])[H])C([H])([H])c2c([H])c(OC([H])([H])C3([H])C(=O)N(c4c([H])c([H])c(N([H])C(=O)N5C([H])([H])C([H])([H])C([H])([H])C([H])(n6nc(-c7c([H])c([H])c(Oc8c([H])c([H])c(F)c([H])c8F)c([H])c7[H])c(C(=O)N([H])[H])c6N([H])[H])C5([H])[H])c(OC([H])([H])[H])c4[H])C([H])([H])C(=O)C3([H])[H])c([H])c([H])c2C1([H])[H]

$$$$
67:0:0
     RDKit          3D

 94103  0  0  1  0  0  0  0  0999 V2000
  -31.7820  -22.6090   19.4360 C   0  0  0  0  0  2  0  0  0  0  0  0
  -30.4550  -22.9490   18.7640 C   0  0  0  0  0  2  0  0  0  0  0  0
  -31.4010  -21.5910   20.5140 C   0  0  0  0  0  2  0  0  0  0  0  0
  -29.4280  -22.8790   19.9070 C   0  0  0  0  0  3  0  0  0  0  0  0
  -29.9740  -21.8450   20.8520 N   0  0  1  0  0  4  0  0  0  0  0  0
  -29.9920  -22.3180   21.7430 H   0  0  0  0  0  0  0  0  0  0  0  0
  -29.1230  -20.6310   21.1290 C   0  0  0  0  0  2  0  0  0  0  0  0
  -29.6650  -18.1900   18.1820 C   0  0  0  0  0  3  0  0  0  0  0  0
  -29.4080  -19.3600   18.9210 C   0  0  0  0  0  3  0  0  0  0  0  0
  -29.8700  -16.9630   18.8370 C   0  0  0  0  0  3  0  0  0  0  0  0
  -29.5740  -18.0730   20.9860 C   0  0  0  0  0  3  0  0  0  0  0  0
  -29.3890  -19.3290   20.3320 C   0  0  0  0  0  0  0  0  0  0  0  0
  -29.8130  -16.8780   20.2500 C   0  0  0  0  0  0  0  0  0  0  0  0
  -30.6280  -14.5440   20.4630 C   0  0  0  0  0  0  0  0  0  0  0  0
  -30.3550  -12.3610   19.3600 C   0  0  0  0  0  2  0  0  0  0  0  0
  -29.4270  -12.5640   18.1430 C   0  0  0  0  0  2  0  0  0  0  0  0
  -27.9470  -12.4330   18.5540 C   0  0  0  0  0  2  0  0  0  0  0  0
  -27.5980  -13.2690   19.8150 C   0  0  0  0  0  3  0  0  0  0  0  0
  -28.6430  -13.0550   20.9350 C   0  0  0  0  0  2  0  0  0  0  0  0
  -29.9750  -13.3510   20.3820 N   0  0  0  0  0  0  0  0  0  0  0  0
  -31.7700  -14.7060   20.0210 O   0  0  0  0  0  0  0  0  0  0  0  0
  -29.9020  -15.5990   20.9020 N   0  0  0  0  0  0  0  0  0  0  0  0
  -29.1250  -15.3660   21.5030 H   0  0  0  0  0  0  0  0  0  0  0  0
  -25.1920  -13.8740   20.4970 C   0  0  0  0  0  0  0  0  0  0  0  0
  -24.1230  -13.1010   20.8650 C   0  0  0  0  0  0  0  0  0  0  0  0
  -24.5870  -11.7500   20.8480 C   0  0  0  0  0  0  0  0  0  0  0  0
  -26.2410  -12.9930   20.2840 N   0  0  0  0  0  0  0  0  0  0  0  0
  -25.8800  -11.7110   20.5520 N   0  0  0  0  0  0  0  0  0  0  0  0
  -23.8620  -10.4880   21.0420 C   0  0  0  0  0  0  0  0  0  0  0  0
  -24.3000   -9.5200   21.9720 C   0  0  0  0  0  3  0  0  0  0  0  0
  -23.5770   -8.3210   22.1550 C   0  0  0  0  0  3  0  0  0  0  0  0
  -22.4000   -8.0820   21.4070 C   0  0  0  0  0  0  0  0  0  0  0  0
  -21.9810   -9.0380   20.4650 C   0  0  0  0  0  3  0  0  0  0  0  0
  -22.7050  -10.2280   20.2800 C   0  0  0  0  0  3  0  0  0  0  0  0
  -21.6470   -6.9360   21.4980 O   0  0  0  0  0  0  0  0  0  0  0  0
  -21.6160   -6.1850   22.6460 C   0  0  0  0  0  0  0  0  0  0  0  0
  -21.2190   -6.7320   23.8860 C   0  0  0  0  0  3  0  0  0  0  0  0
  -21.1350   -5.9070   25.0250 C   0  0  0  0  0  3  0  0  0  0  0  0
  -21.4380   -4.5350   24.9250 C   0  0  0  0  0  0  0  0  0  0  0  0
  -21.8270   -3.9870   23.6910 C   0  0  0  0  0  3  0  0  0  0  0  0
  -21.9130   -4.8090   22.5540 C   0  0  0  0  0  0  0  0  0  0  0  0
  -22.2690   -4.2720   21.3620 F   0  0  0  0  0  0  0  0  0  0  0  0
  -21.3490   -3.7420   26.0170 F   0  0  0  0  0  0  0  0  0  0  0  0
  -22.7210  -13.5750   21.1200 C   0  0  0  0  0  0  0  0  0  0  0  0
  -21.9860  -12.8880   21.9870 N   0  0  0  0  0  0  0  0  0  0  0  0
  -22.2840  -14.5940   20.5840 O   0  0  0  0  0  0  0  0  0  0  0  0
  -22.3500  -12.0650   22.4450 H   0  0  0  0  0  0  0  0  0  0  0  0
  -21.0450  -13.1910   22.1950 H   0  0  0  0  0  0  0  0  0  0  0  0
  -25.3600  -15.2420   20.3110 N   0  0  0  0  0  0  0  0  0  0  0  0
  -24.5960  -15.9030   20.4080 H   0  0  0  0  0  0  0  0  0  0  0  0
  -26.2200  -15.6730   19.9940 H   0  0  0  0  0  0  0  0  0  0  0  0
  -29.2560  -24.2970   20.5650 C   0  0  0  0  0  2  0  0  0  0  0  0
  -28.3440  -25.2670   19.7560 C   0  0  0  0  0  2  0  0  0  0  0  0
  -28.3800  -26.6550   20.1830 O   0  0  0  0  0  0  0  0  0  0  0  0
  -24.6100  -31.8960   23.2290 C   0  0  0  0  0  0  0  0  0  0  0  0
  -27.2170  -27.4180   20.1250 C   0  0  0  0  0  0  0  0  0  0  0  0
  -23.3930  -30.5020   21.5940 C   0  0  0  0  0  3  0  0  0  0  0  0
  -24.8320  -28.9690   20.1510 C   0  0  0  0  0  0  0  0  0  0  0  0
  -25.9220  -30.8430   21.3870 C   0  0  0  0  0  2  0  0  0  0  0  0
  -25.9970  -29.4720   20.7400 C   0  0  0  0  0  0  0  0  0  0  0  0
  -27.1900  -28.7030   20.7290 C   0  0  0  0  0  3  0  0  0  0  0  0
  -26.0320  -26.9610   19.4980 C   0  0  0  0  0  3  0  0  0  0  0  0
  -24.8470  -27.7130   19.5270 C   0  0  0  0  0  3  0  0  0  0  0  0
  -23.5930  -29.8330   20.2100 C   0  0  0  0  0  2  0  0  0  0  0  0
  -24.6610  -31.0960   22.1270 N   0  0  0  0  0  0  0  0  0  0  0  0
  -23.5330  -32.1700   23.7760 O   0  0  0  0  0  0  0  0  0  0  0  0
  -22.7470  -29.4760   22.5550 C   0  0  0  0  0  0  0  0  0  0  0  0
  -21.4230  -29.2880   22.4310 N   0  0  0  0  0  0  0  0  0  0  0  0
  -23.4340  -28.8540   23.3690 O   0  0  0  0  0  0  0  0  0  0  0  0
  -20.9300  -29.8450   21.7460 H   0  0  0  0  0  0  0  0  0  0  0  0
  -18.0570  -28.0690   22.9280 C   0  0  0  0  0  0  0  0  0  0  0  0
  -20.6110  -28.3490   23.2040 C   0  0  0  0  0  3  0  0  0  0  0  0
  -20.7270  -26.9150   22.6380 C   0  0  0  0  0  2  0  0  0  0  0  0
  -19.6310  -26.5780   21.6210 C   0  0  0  0  0  2  0  0  0  0  0  0
  -18.2450  -26.7160   22.2600 C   0  0  0  0  0  2  0  0  0  0  0  0
  -19.1680  -28.8420   23.3560 C   0  0  0  0  0  0  0  0  0  0  0  0
  -18.9380  -30.1070   23.9400 C   0  0  0  0  0  3  0  0  0  0  0  0
  -17.6290  -30.6000   24.0970 C   0  0  0  0  0  3  0  0  0  0  0  0
  -16.5320  -29.8250   23.6830 C   0  0  0  0  0  3  0  0  0  0  0  0
  -16.7470  -28.5610   23.1050 C   0  0  0  0  0  3  0  0  0  0  0  0
  -25.9010  -32.5260   23.8410 C   0  0  0  0  0  3  0  0  0  0  0  0
  -26.4300  -31.7500   25.1090 C   0  0  1  0  0  0  0  0  0  0  0  0
  -25.3480  -31.5100   26.1870 C   0  0  0  0  0  1  0  0  0  0  0  0
  -27.0080  -30.3730   24.7070 C   0  0  0  0  0  1  0  0  0  0  0  0
  -27.5880  -32.5420   25.7610 C   0  0  0  0  0  1  0  0  0  0  0  0
  -25.5930  -33.9230   24.1770 N   0  0  0  0  0  0  0  0  0  0  0  0
  -25.9170  -34.9760   23.4150 C   0  0  0  0  0  0  0  0  0  0  0  0
  -26.5780  -34.8760   22.3780 O   0  0  0  0  0  0  0  0  0  0  0  0
  -25.0040  -34.0750   24.9820 H   0  0  0  0  0  0  0  0  0  0  0  0
  -24.1810  -36.7660   23.0810 C   0  0  0  0  0  1  0  0  0  0  0  0
  -25.4320  -36.3640   23.8790 C   0  0  0  0  0  3  0  0  0  0  0  0
  -27.5760  -37.2500   24.6860 C   0  0  0  0  0  1  0  0  0  0  0  0
  -26.4610  -37.4190   23.7560 N   0  0  0  0  0  0  0  0  0  0  0  0
  -26.0550  -38.3380   23.9110 H   0  0  0  0  0  0  0  0  0  0  0  0
  1  3  1  0
  2  1  1  0
  2  4  1  0
  3  5  1  0
  4 52  1  0
  4  5  1  0
  5  7  1  0
  5  6  1  1
  8 10  2  0
  8  9  1  0
  9 12  2  0
 10 13  1  0
 12 11  1  0
 12  7  1  0
 13 22  1  0
 13 11  2  0
 14 22  1  0
 15 20  1  0
 16 17  1  0
 16 15  1  0
 18 17  1  0
 18 27  1  0
 18 19  1  0
 20 14  1  0
 20 19  1  0
 21 14  2  0
 22 23  1  0
 24 25  2  0
 25 44  1  0
 26 25  1  0
 26 29  1  0
 27 24  1  0
 27 28  1  0
 28 26  2  0
 29 30  1  0
 30 31  2  0
 32 35  1  0
 32 31  1  0
 33 32  2  0
 34 33  1  0
 34 29  2  0
 35 36  1  0
 36 37  1  0
 37 38  2  0
 39 38  1  0
 39 43  1  0
 40 39  2  0
 41 36  2  0
 41 40  1  0
 42 41  1  0
 44 45  1  0
 45 48  1  0
 45 47  1  0
 46 44  2  0
 49 50  1  0
 49 24  1  0
 51 49  1  0
 53 54  1  0
 53 52  1  0
 55 66  2  0
 56 54  1  0
 56 61  1  0
 57 65  1  0
 57 67  1  0
 58 64  1  0
 58 60  1  0
 59 65  1  0
 60 59  1  0
 61 60  2  0
 62 63  1  0
 62 56  2  0
 63 58  2  0
 64 57  1  0
 65 55  1  0
 67 69  2  0
 68 67  1  0
 70 68  1  0
 71 80  2  0
 71 76  1  0
 72 68  1  0
 72 76  1  0
 73 72  1  0
 74 75  1  0
 74 73  1  0
 75 71  1  0
 76 77  2  0
 77 78  1  0
 79 78  2  0
 80 79  1  0
 81 55  1  0
 81 86  1  0
 81 82  1  0
 82 85  1  1
 82 83  1  0
 84 82  1  0
 86 89  1  0
 87 91  1  0
 87 86  1  0
 88 87  2  0
 91 90  1  0
 93 91  1  0
 93 94  1  0
 93 92  1  0
M  ISO  4  14 100  22 100  53 101  54 101
M  END
>  <TORSDO>  (67) 
F 20

>  <SCORE>  (67) 
-13.959

>  <name>  (67) 
67

>  <ligand_id>  (67) 
67

>  <original_smiles>  (67) 
[H]c1c([H])c([H])c2c(c1[H])C([H])([H])C([H])([H])C([H])([H])C2([H])N([H])C(=O)C1([H])N(C(=O)C([H])(N([H])C(=O)C([H])(N([H])C([H])([H])[H])C([H])([H])[H])C(C([H])([H])[H])(C([H])([H])[H])C([H])([H])[H])C([H])([H])c2c([H])c(OC([H])([H])C([H])([H])C3([H])C([H])([H])C([H])([H])C([H])([H])[N+]3([H])C([H])([H])c3c([H])c([H])c([H])c(N([H])C(=O)N4C([H])([H])C([H])([H])C([H])([H])C([H])(n5nc(-c6c([H])c([H])c(Oc7c([H])c([H])c(F)c([H])c7F)c([H])c6[H])c(C(=O)N([H])[H])c5N([H])[H])C4([H])[H])c3[H])c([H])c([H])c2C1([H])[H]

>  <smiles>  (67) 
[H]c1c([H])c([H])c2c(c1[H])C([H])([H])C([H])([H])C([H])([H])C2([H])N([H])C(=O)C1([H])N(C(=O)C([H])(N([H])C(=O)C([H])(N([H])C([H])([H])[H])C([H])([H])[H])C(C([H])([H])[H])(C([H])([H])[H])C([H])([H])[H])C([H])([H])c2c([H])c(OC([H])([H])C([H])([H])C3([H])C([H])([H])C([H])([H])C([H])([H])[N+]3([H])C([H])([H])c3c([H])c([H])c([H])c(N([H])C(=O)N4C([H])([H])C([H])([H])C([H])([H])C([H])(n5nc(-c6c([H])c([H])c(Oc7c([H])c([H])c(F)c([H])c7F)c([H])c6[H])c(C(=O)N([H])[H])c5N([H])[H])C4([H])[H])c3[H])c([H])c([H])c2C1([H])[H]

$$$$
68:0:0
     RDKit          3D

 95104  0  0  1  0  0  0  0  0999 V2000
  -31.4750  -22.3500   19.5490 C   0  0  0  0  0  0  0  0  0  0  0  0
  -29.1960  -22.5850   20.2340 C   0  0  0  0  0  0  0  0  0  0  0  0
  -31.5220  -23.7920   19.0360 C   0  0  0  0  0  2  0  0  0  0  0  0
  -30.5800  -24.7150   19.7900 C   0  0  0  0  0  2  0  0  0  0  0  0
  -29.1670  -24.1390   19.8750 C   0  0  0  0  0  3  0  0  0  0  0  0
  -30.3080  -21.7850   19.9810 N   0  0  0  0  0  0  0  0  0  0  0  0
  -32.5500  -21.7380   19.5520 O   0  0  0  0  0  0  0  0  0  0  0  0
  -28.1650  -22.1040   20.7210 O   0  0  0  0  0  0  0  0  0  0  0  0
  -30.2460  -19.6250   21.3480 C   0  0  0  0  0  3  0  0  0  0  0  0
  -30.3260  -18.2020   21.4220 C   0  0  0  0  0  3  0  0  0  0  0  0
  -30.5130  -19.4670   18.9670 C   0  0  0  0  0  3  0  0  0  0  0  0
  -30.6150  -18.0420   19.0320 C   0  0  0  0  0  0  0  0  0  0  0  0
  -30.3160  -20.3060   20.1060 C   0  0  0  0  0  0  0  0  0  0  0  0
  -30.4610  -17.3580   20.2770 C   0  0  0  0  0  0  0  0  0  0  0  0
  -30.8760  -17.3030   17.7250 C   0  0  0  0  0  1  0  0  0  0  0  0
  -30.7300  -14.7820   20.1360 C   0  0  0  0  0  0  0  0  0  0  0  0
  -30.5090  -12.5530   18.9930 C   0  0  0  0  0  2  0  0  0  0  0  0
  -29.4660  -12.6080   17.8500 C   0  0  0  0  0  2  0  0  0  0  0  0
  -28.0410  -12.3270   18.3800 C   0  0  0  0  0  2  0  0  0  0  0  0
  -27.7320  -13.1910   19.6160 C   0  0  0  0  0  3  0  0  0  0  0  0
  -28.8750  -13.0530   20.6630 C   0  0  0  0  0  2  0  0  0  0  0  0
  -30.0990  -13.5500   20.0160 N   0  0  0  0  0  0  0  0  0  0  0  0
  -31.9210  -14.8500   19.8170 O   0  0  0  0  0  0  0  0  0  0  0  0
  -28.5390  -16.0560   20.5510 C   0  0  0  0  0  1  0  0  0  0  0  0
  -29.9990  -15.9640   20.3830 N   0  0  0  0  0  0  0  0  0  0  0  0
  -25.3840  -13.8490   20.4620 C   0  0  0  0  0  0  0  0  0  0  0  0
  -24.3330  -13.0800   20.8860 C   0  0  0  0  0  0  0  0  0  0  0  0
  -24.7850  -11.7300   20.8100 C   0  0  0  0  0  0  0  0  0  0  0  0
  -26.4110  -12.9530   20.1720 N   0  0  0  0  0  0  0  0  0  0  0  0
  -26.0540  -11.6800   20.4370 N   0  0  0  0  0  0  0  0  0  0  0  0
  -24.0640  -10.4720   21.0030 C   0  0  0  0  0  0  0  0  0  0  0  0
  -24.5110   -9.5060   21.9280 C   0  0  0  0  0  3  0  0  0  0  0  0
  -23.7910   -8.3060   22.1050 C   0  0  0  0  0  3  0  0  0  0  0  0
  -22.6130   -8.0700   21.3560 C   0  0  0  0  0  0  0  0  0  0  0  0
  -22.1910   -9.0250   20.4140 C   0  0  0  0  0  3  0  0  0  0  0  0
  -22.9130  -10.2160   20.2350 C   0  0  0  0  0  3  0  0  0  0  0  0
  -21.8650   -6.9240   21.4450 O   0  0  0  0  0  0  0  0  0  0  0  0
  -21.7860   -6.2100   22.6140 C   0  0  0  0  0  0  0  0  0  0  0  0
  -21.2630   -6.7750   23.7980 C   0  0  0  0  0  3  0  0  0  0  0  0
  -21.1310   -5.9830   24.9570 C   0  0  0  0  0  3  0  0  0  0  0  0
  -21.5150   -4.6290   24.9330 C   0  0  0  0  0  0  0  0  0  0  0  0
  -22.0340   -4.0660   23.7540 C   0  0  0  0  0  3  0  0  0  0  0  0
  -22.1660   -4.8530   22.5980 C   0  0  0  0  0  0  0  0  0  0  0  0
  -22.6480   -4.3000   21.4580 F   0  0  0  0  0  0  0  0  0  0  0  0
  -21.3810   -3.8670   26.0430 F   0  0  0  0  0  0  0  0  0  0  0  0
  -22.9560  -13.5660   21.2390 C   0  0  0  0  0  0  0  0  0  0  0  0
  -22.2680  -12.8490   22.1240 N   0  0  0  0  0  0  0  0  0  0  0  0
  -22.4980  -14.6060   20.7690 O   0  0  0  0  0  0  0  0  0  0  0  0
  -22.6490  -12.0010   22.5190 H   0  0  0  0  0  0  0  0  0  0  0  0
  -21.3500  -13.1510   22.4140 H   0  0  0  0  0  0  0  0  0  0  0  0
  -25.5150  -15.2210   20.2780 N   0  0  0  0  0  0  0  0  0  0  0  0
  -24.7160  -15.8370   20.3860 H   0  0  0  0  0  0  0  0  0  0  0  0
  -26.3000  -15.6680   19.8260 H   0  0  0  0  0  0  0  0  0  0  0  0
  -28.2980  -25.1290   20.7450 C   0  0  0  0  0  2  0  0  0  0  0  0
  -28.4570  -26.5570   20.3840 O   0  0  0  0  0  0  0  0  0  0  0  0
  -24.6030  -31.8770   23.2740 C   0  0  0  0  0  0  0  0  0  0  0  0
  -27.3250  -27.3640   20.3200 C   0  0  0  0  0  0  0  0  0  0  0  0
  -23.4480  -30.4520   21.6120 C   0  0  0  0  0  3  0  0  0  0  0  0
  -24.9460  -28.9240   20.2240 C   0  0  0  0  0  0  0  0  0  0  0  0
  -25.9780  -30.8250   21.4660 C   0  0  0  0  0  2  0  0  0  0  0  0
  -26.0930  -29.4440   20.8390 C   0  0  0  0  0  0  0  0  0  0  0  0
  -27.2920  -28.6800   20.8640 C   0  0  0  0  0  3  0  0  0  0  0  0
  -26.1610  -26.8830   19.6810 C   0  0  0  0  0  3  0  0  0  0  0  0
  -24.9830  -27.6520   19.6300 C   0  0  0  0  0  3  0  0  0  0  0  0
  -23.6940  -29.7760   20.2380 C   0  0  0  0  0  2  0  0  0  0  0  0
  -24.6930  -31.0690   22.1790 N   0  0  0  0  0  0  0  0  0  0  0  0
  -23.5090  -32.1470   23.7900 O   0  0  0  0  0  0  0  0  0  0  0  0
  -22.7820  -29.4330   22.5640 C   0  0  0  0  0  0  0  0  0  0  0  0
  -21.4580  -29.2550   22.4300 N   0  0  0  0  0  0  0  0  0  0  0  0
  -23.4550  -28.8050   23.3870 O   0  0  0  0  0  0  0  0  0  0  0  0
  -20.9750  -29.8140   21.7420 H   0  0  0  0  0  0  0  0  0  0  0  0
  -18.0730  -28.0870   22.9220 C   0  0  0  0  0  0  0  0  0  0  0  0
  -20.6330  -28.3150   23.1880 C   0  0  0  0  0  3  0  0  0  0  0  0
  -20.7180  -26.8910   22.5890 C   0  0  0  0  0  2  0  0  0  0  0  0
  -19.6090  -26.5950   21.5750 C   0  0  0  0  0  2  0  0  0  0  0  0
  -18.2320  -26.7460   22.2270 C   0  0  0  0  0  2  0  0  0  0  0  0
  -19.2000  -28.8310   23.3600 C   0  0  0  0  0  0  0  0  0  0  0  0
  -18.9970  -30.0870   23.9690 C   0  0  0  0  0  3  0  0  0  0  0  0
  -17.6980  -30.6010   24.1460 C   0  0  0  0  0  3  0  0  0  0  0  0
  -16.5850  -29.8510   23.7270 C   0  0  0  0  0  3  0  0  0  0  0  0
  -16.7720  -28.5980   23.1210 C   0  0  0  0  0  3  0  0  0  0  0  0
  -25.8730  -32.5250   23.9150 C   0  0  0  0  0  3  0  0  0  0  0  0
  -25.5500  -33.9290   24.2130 N   0  0  0  0  0  0  0  0  0  0  0  0
  -25.8990  -34.9690   23.4430 C   0  0  0  0  0  0  0  0  0  0  0  0
  -26.5940  -34.8480   22.4300 O   0  0  0  0  0  0  0  0  0  0  0  0
  -24.9350  -34.0990   24.9960 H   0  0  0  0  0  0  0  0  0  0  0  0
  -24.1840  -36.7560   23.0010 C   0  0  0  0  0  1  0  0  0  0  0  0
  -25.3950  -36.3640   23.8610 C   0  0  0  0  0  3  0  0  0  0  0  0
  -27.4920  -37.2670   24.7710 C   0  0  0  0  0  1  0  0  0  0  0  0
  -26.4340  -37.4130   23.7740 N   0  0  0  0  0  0  0  0  0  0  0  0
  -26.0230  -38.3370   23.8810 H   0  0  0  0  0  0  0  0  0  0  0  0
  -26.3610  -31.7770   25.2160 C   0  0  1  0  0  0  0  0  0  0  0  0
  -25.2370  -31.5490   26.2520 C   0  0  0  0  0  1  0  0  0  0  0  0
  -26.9580  -30.3940   24.8620 C   0  0  0  0  0  1  0  0  0  0  0  0
  -27.4830  -32.5920   25.9020 C   0  0  0  0  0  1  0  0  0  0  0  0
  1  7  2  0
  1  6  1  0
  2  8  2  0
  3  1  1  0
  3  4  1  0
  4  5  1  0
  5  2  1  0
  5 54  1  0
  6 13  1  0
  6  2  1  0
  9 10  1  0
 11 12  2  0
 11 13  1  0
 12 14  1  0
 13  9  2  0
 14 25  1  0
 14 10  2  0
 15 12  1  0
 16 25  1  0
 17 22  1  0
 18 19  1  0
 18 17  1  0
 20 19  1  0
 20 29  1  0
 20 21  1  0
 22 16  1  0
 22 21  1  0
 23 16  2  0
 25 24  1  0
 26 27  2  0
 27 46  1  0
 28 27  1  0
 28 31  1  0
 29 30  1  0
 29 26  1  0
 30 28  2  0
 31 32  1  0
 32 33  2  0
 34 37  1  0
 34 33  1  0
 35 34  2  0
 36 35  1  0
 36 31  2  0
 37 38  1  0
 38 39  1  0
 39 40  2  0
 41 40  1  0
 41 45  1  0
 42 41  2  0
 43 38  2  0
 43 42  1  0
 44 43  1  0
 46 47  1  0
 47 50  1  0
 47 49  1  0
 48 46  2  0
 51 52  1  0
 51 26  1  0
 53 51  1  0
 55 54  1  0
 56 67  2  0
 57 55  1  0
 57 62  1  0
 58 66  1  0
 58 68  1  0
 59 65  1  0
 59 61  1  0
 60 66  1  0
 61 62  2  0
 61 60  1  0
 63 57  2  0
 64 63  1  0
 64 59  2  0
 65 58  1  0
 66 56  1  0
 68 70  2  0
 69 68  1  0
 71 69  1  0
 72 81  2  0
 72 77  1  0
 73 69  1  0
 73 77  1  0
 74 73  1  0
 75 76  1  0
 75 74  1  0
 76 72  1  0
 77 78  2  0
 78 79  1  0
 80 79  2  0
 81 80  1  0
 82 56  1  0
 82 83  1  0
 82 92  1  0
 83 86  1  0
 84 88  1  0
 84 83  1  0
 85 84  2  0
 88 87  1  0
 90 88  1  0
 90 91  1  0
 90 89  1  0
 92 95  1  1
 92 93  1  0
 94 92  1  0
M  ISO  4  16 100  25 100  54 101  55 101
M  END
>  <TORSDO>  (68) 
F 18

>  <SCORE>  (68) 
-14.549

>  <name>  (68) 
68

>  <ligand_id>  (68) 
68

>  <original_smiles>  (68) 
[H]c1c([H])c([H])c2c(c1[H])C([H])([H])C([H])([H])C([H])([H])C2([H])N([H])C(=O)C1([H])N(C(=O)C([H])(N([H])C(=O)C([H])(N([H])C([H])([H])[H])C([H])([H])[H])C(C([H])([H])[H])(C([H])([H])[H])C([H])([H])[H])C([H])([H])c2c([H])c(OC([H])([H])C3([H])C(=O)N(c4c([H])c([H])c(N(C(=O)N5C([H])([H])C([H])([H])C([H])([H])C([H])(n6nc(-c7c([H])c([H])c(Oc8c([H])c([H])c(F)c([H])c8F)c([H])c7[H])c(C(=O)N([H])[H])c6N([H])[H])C5([H])[H])C([H])([H])[H])c(C([H])([H])[H])c4[H])C(=O)C([H])([H])C3([H])[H])c([H])c([H])c2C1([H])[H]

>  <smiles>  (68) 
[H]c1c([H])c([H])c2c(c1[H])C([H])([H])C([H])([H])C([H])([H])C2([H])N([H])C(=O)C1([H])N(C(=O)C([H])(N([H])C(=O)C([H])(N([H])C([H])([H])[H])C([H])([H])[H])C(C([H])([H])[H])(C([H])([H])[H])C([H])([H])[H])C([H])([H])c2c([H])c(OC([H])([H])C3([H])C(=O)N(c4c([H])c([H])c(N(C(=O)N5C([H])([H])C([H])([H])C([H])([H])C([H])(n6nc(-c7c([H])c([H])c(Oc8c([H])c([H])c(F)c([H])c8F)c([H])c7[H])c(C(=O)N([H])[H])c6N([H])[H])C5([H])[H])C([H])([H])[H])c(C([H])([H])[H])c4[H])C(=O)C([H])([H])C3([H])[H])c([H])c([H])c2C1([H])[H]

$$$$
69:0:0
     RDKit          3D

 94102  0  0  1  0  0  0  0  0999 V2000
  -31.6090  -19.1630   19.5200 C   0  0  0  0  0  3  0  0  0  0  0  0
  -30.5860  -21.3420   19.7120 C   0  0  0  0  0  3  0  0  0  0  0  0
  -30.3960  -18.4930   19.8110 C   0  0  0  0  0  0  0  0  0  0  0  0
  -29.2460  -19.3100   20.0800 C   0  0  0  0  0  0  0  0  0  0  0  0
  -31.7210  -20.5570   19.4770 C   0  0  0  0  0  0  0  0  0  0  0  0
  -29.3420  -20.7480   20.0300 C   0  0  0  0  0  0  0  0  0  0  0  0
  -27.9180  -18.6600   20.4290 C   0  0  0  0  0  1  0  0  0  0  0  0
  -30.5750  -16.9910   19.7880 C   0  0  0  0  0  3  0  0  0  0  0  0
  -29.9290  -15.8540   20.1920 C   0  0  0  0  0  3  0  0  0  0  0  0
  -30.6180  -14.5630   19.9070 C   0  0  0  0  0  0  0  0  0  0  0  0
  -30.2340  -12.3390   18.9250 C   0  0  0  0  0  2  0  0  0  0  0  0
  -29.2400  -12.4750   17.7550 C   0  0  0  0  0  2  0  0  0  0  0  0
  -27.7920  -12.3550   18.2670 C   0  0  0  0  0  2  0  0  0  0  0  0
  -27.5150  -13.2410   19.5150 C   0  0  0  0  0  3  0  0  0  0  0  0
  -28.6350  -13.1200   20.5700 C   0  0  0  0  0  2  0  0  0  0  0  0
  -29.9110  -13.3950   19.9060 N   0  0  0  0  0  0  0  0  0  0  0  0
  -31.7830  -14.5550   19.4970 O   0  0  0  0  0  0  0  0  0  0  0  0
  -25.1910  -13.8450   20.4230 C   0  0  0  0  0  0  0  0  0  0  0  0
  -24.1430  -13.0760   20.8520 C   0  0  0  0  0  0  0  0  0  0  0  0
  -24.5850  -11.7210   20.7560 C   0  0  0  0  0  0  0  0  0  0  0  0
  -26.2030  -12.9600   20.0920 N   0  0  0  0  0  0  0  0  0  0  0  0
  -25.8500  -11.6750   20.3560 N   0  0  0  0  0  0  0  0  0  0  0  0
  -23.8570  -10.4620   20.9700 C   0  0  0  0  0  0  0  0  0  0  0  0
  -24.3250   -9.4810   21.8710 C   0  0  0  0  0  3  0  0  0  0  0  0
  -23.5990   -8.2860   22.0690 C   0  0  0  0  0  3  0  0  0  0  0  0
  -22.3890   -8.0660   21.3700 C   0  0  0  0  0  0  0  0  0  0  0  0
  -21.9400   -9.0370   20.4560 C   0  0  0  0  0  3  0  0  0  0  0  0
  -22.6660  -10.2220   20.2560 C   0  0  0  0  0  3  0  0  0  0  0  0
  -21.6290   -6.9270   21.4810 O   0  0  0  0  0  0  0  0  0  0  0  0
  -21.6160   -6.1790   22.6320 C   0  0  0  0  0  0  0  0  0  0  0  0
  -21.2180   -6.7280   23.8710 C   0  0  0  0  0  3  0  0  0  0  0  0
  -21.1540   -5.9070   25.0150 C   0  0  0  0  0  3  0  0  0  0  0  0
  -21.4760   -4.5400   24.9220 C   0  0  0  0  0  0  0  0  0  0  0  0
  -21.8670   -3.9910   23.6870 C   0  0  0  0  0  3  0  0  0  0  0  0
  -21.9350   -4.8090   22.5460 C   0  0  0  0  0  0  0  0  0  0  0  0
  -22.2910   -4.2710   21.3540 F   0  0  0  0  0  0  0  0  0  0  0  0
  -21.4080   -3.7500   26.0180 F   0  0  0  0  0  0  0  0  0  0  0  0
  -22.7750  -13.5630   21.2320 C   0  0  0  0  0  0  0  0  0  0  0  0
  -22.0960  -12.8510   22.1250 N   0  0  0  0  0  0  0  0  0  0  0  0
  -22.3210  -14.6100   20.7740 O   0  0  0  0  0  0  0  0  0  0  0  0
  -22.4810  -12.0030   22.5160 H   0  0  0  0  0  0  0  0  0  0  0  0
  -21.1820  -13.1600   22.4210 H   0  0  0  0  0  0  0  0  0  0  0  0
  -25.3670  -15.2160   20.2650 N   0  0  0  0  0  0  0  0  0  0  0  0
  -24.6290  -15.8860   20.4520 H   0  0  0  0  0  0  0  0  0  0  0  0
  -26.1950  -15.6380   19.8640 H   0  0  0  0  0  0  0  0  0  0  0  0
  -32.9160  -21.1710   19.1790 O   0  0  0  0  0  0  0  0  0  0  0  0
  -33.9690  -20.9590   20.1170 C   0  0  0  0  0  2  0  0  0  0  0  0
  -36.3040  -19.9640   20.4590 C   0  0  0  0  0  1  0  0  0  0  0  0
  -35.0230  -19.9530   19.6110 C   0  0  0  0  0  2  0  0  0  0  0  0
  -28.2350  -21.5610   20.2580 O   0  0  0  0  0  0  0  0  0  0  0  0
  -28.4110  -22.8660   20.8720 C   0  0  0  0  0  2  0  0  0  0  0  0
  -28.2490  -24.1290   19.9620 C   0  0  0  0  0  2  0  0  0  0  0  0
  -28.3660  -25.4710   20.7570 C   0  0  0  0  0  2  0  0  0  0  0  0
  -28.3750  -26.7040   19.9940 O   0  0  0  0  0  0  0  0  0  0  0  0
  -24.6250  -31.8230   23.3020 C   0  0  0  0  0  0  0  0  0  0  0  0
  -27.2300  -27.4740   20.0500 C   0  0  0  0  0  0  0  0  0  0  0  0
  -23.4160  -30.5180   21.5850 C   0  0  0  0  0  3  0  0  0  0  0  0
  -24.8640  -29.0280   20.0970 C   0  0  0  0  0  0  0  0  0  0  0  0
  -25.9500  -30.8480   21.4280 C   0  0  0  0  0  2  0  0  0  0  0  0
  -26.0250  -29.5060   20.7210 C   0  0  0  0  0  0  0  0  0  0  0  0
  -27.2140  -28.7380   20.6890 C   0  0  0  0  0  3  0  0  0  0  0  0
  -26.0550  -27.0140   19.4250 C   0  0  0  0  0  3  0  0  0  0  0  0
  -24.8780  -27.7850   19.4420 C   0  0  0  0  0  3  0  0  0  0  0  0
  -23.6330  -29.9060   20.1750 C   0  0  0  0  0  2  0  0  0  0  0  0
  -24.6820  -31.0730   22.1640 N   0  0  0  0  0  0  0  0  0  0  0  0
  -23.5430  -32.0830   23.8480 O   0  0  0  0  0  0  0  0  0  0  0  0
  -22.7450  -29.4580   22.4900 C   0  0  0  0  0  0  0  0  0  0  0  0
  -21.4170  -29.3040   22.3510 N   0  0  0  0  0  0  0  0  0  0  0  0
  -23.4160  -28.7760   23.2700 O   0  0  0  0  0  0  0  0  0  0  0  0
  -20.9350  -29.9100   21.7000 H   0  0  0  0  0  0  0  0  0  0  0  0
  -18.0260  -28.1540   22.8030 C   0  0  0  0  0  0  0  0  0  0  0  0
  -20.5880  -28.3400   23.0710 C   0  0  0  0  0  3  0  0  0  0  0  0
  -20.6580  -26.9440   22.4090 C   0  0  0  0  0  2  0  0  0  0  0  0
  -19.5450  -26.7050   21.3860 C   0  0  0  0  0  2  0  0  0  0  0  0
  -18.1690  -26.8430   22.0460 C   0  0  0  0  0  2  0  0  0  0  0  0
  -19.1620  -28.8640   23.2710 C   0  0  0  0  0  0  0  0  0  0  0  0
  -18.9750  -30.0950   23.9370 C   0  0  0  0  0  3  0  0  0  0  0  0
  -17.6830  -30.6130   24.1400 C   0  0  0  0  0  3  0  0  0  0  0  0
  -16.5600  -29.8990   23.6880 C   0  0  0  0  0  3  0  0  0  0  0  0
  -16.7320  -28.6720   23.0220 C   0  0  0  0  0  3  0  0  0  0  0  0
  -25.9150  -32.4080   23.9600 C   0  0  0  0  0  3  0  0  0  0  0  0
  -25.6350  -33.8030   24.3200 N   0  0  0  0  0  0  0  0  0  0  0  0
  -26.0040  -34.8650   23.5910 C   0  0  0  0  0  0  0  0  0  0  0  0
  -26.6850  -34.7680   22.5660 O   0  0  0  0  0  0  0  0  0  0  0  0
  -25.0350  -33.9570   25.1170 H   0  0  0  0  0  0  0  0  0  0  0  0
  -24.3250  -36.7060   23.2510 C   0  0  0  0  0  1  0  0  0  0  0  0
  -25.5440  -36.2530   24.0730 C   0  0  0  0  0  3  0  0  0  0  0  0
  -27.6820  -37.0730   24.9590 C   0  0  0  0  0  1  0  0  0  0  0  0
  -26.6020  -37.2830   23.9990 N   0  0  0  0  0  0  0  0  0  0  0  0
  -26.2150  -38.2100   24.1530 H   0  0  0  0  0  0  0  0  0  0  0  0
  -26.3940  -31.5910   25.2240 C   0  0  1  0  0  0  0  0  0  0  0  0
  -25.2740  -31.3560   26.2650 C   0  0  0  0  0  1  0  0  0  0  0  0
  -26.9560  -30.2100   24.8110 C   0  0  0  0  0  1  0  0  0  0  0  0
  -27.5500  -32.3430   25.9260 C   0  0  0  0  0  1  0  0  0  0  0  0
  1  3  1  0
  2  6  2  0
  3  4  2  0
  4  7  1  0
  5  1  2  0
  5  2  1  0
  6  4  1  0
  6 50  1  0
  8  3  1  0
  8  9  2  0
 10  9  1  0
 11 16  1  0
 12 13  1  0
 12 11  1  0
 14 13  1  0
 14 21  1  0
 14 15  1  0
 16 10  1  0
 16 15  1  0
 17 10  2  0
 18 19  2  0
 19 38  1  0
 20 19  1  0
 20 23  1  0
 21 22  1  0
 21 18  1  0
 22 20  2  0
 23 24  1  0
 24 25  2  0
 26 29  1  0
 26 25  1  0
 27 26  2  0
 28 27  1  0
 28 23  2  0
 29 30  1  0
 30 31  1  0
 31 32  2  0
 33 32  1  0
 33 37  1  0
 34 33  2  0
 35 30  2  0
 35 34  1  0
 36 35  1  0
 38 39  1  0
 39 42  1  0
 39 41  1  0
 40 38  2  0
 43 18  1  0
 43 44  1  0
 45 43  1  0
 46  5  1  0
 46 47  1  0
 49 47  1  0
 49 48  1  0
 50 51  1  0
 52 53  1  0
 52 51  1  0
 54 56  1  0
 54 53  1  0
 55 66  2  0
 56 61  1  0
 57 65  1  0
 57 67  1  0
 58 64  1  0
 58 60  1  0
 59 65  1  0
 60 59  1  0
 61 60  2  0
 62 63  1  0
 62 56  2  0
 63 58  2  0
 64 57  1  0
 65 55  1  0
 67 69  2  0
 68 67  1  0
 70 68  1  0
 71 80  2  0
 71 76  1  0
 72 68  1  0
 72 76  1  0
 73 72  1  0
 74 75  1  0
 74 73  1  0
 75 71  1  0
 76 77  2  0
 77 78  1  0
 79 78  2  0
 80 79  1  0
 81 55  1  0
 81 82  1  0
 81 91  1  0
 82 85  1  0
 83 87  1  0
 83 82  1  0
 84 83  2  0
 87 86  1  0
 89 87  1  0
 89 90  1  0
 89 88  1  0
 91 94  1  1
 91 92  1  0
 93 91  1  0
M  ISO  4   9 100  10 100  53 101  54 101
M  END
>  <TORSDO>  (69) 
F 24

>  <SCORE>  (69) 
-12.440

>  <name>  (69) 
69

>  <ligand_id>  (69) 
69

>  <original_smiles>  (69) 
[H]C(C(=O)N1C([H])([H])C([H])([H])C([H])([H])C([H])(n2nc(-c3c([H])c([H])c(Oc4c([H])c([H])c(F)c([H])c4F)c([H])c3[H])c(C(=O)N([H])[H])c2N([H])[H])C1([H])[H])=C([H])c1c([H])c(OC([H])([H])C([H])([H])C([H])([H])[H])c([H])c(OC([H])([H])C([H])([H])C([H])([H])Oc2c([H])c([H])c3c(c2[H])C([H])([H])N(C(=O)C([H])(N([H])C(=O)C([H])(N([H])C([H])([H])[H])C([H])([H])[H])C(C([H])([H])[H])(C([H])([H])[H])C([H])([H])[H])C([H])(C(=O)N([H])C2([H])c4c([H])c([H])c([H])c([H])c4C([H])([H])C([H])([H])C2([H])[H])C3([H])[H])c1C([H])([H])[H]

>  <smiles>  (69) 
[H]C(C(=O)N1C([H])([H])C([H])([H])C([H])([H])C([H])(n2nc(-c3c([H])c([H])c(Oc4c([H])c([H])c(F)c([H])c4F)c([H])c3[H])c(C(=O)N([H])[H])c2N([H])[H])C1([H])[H])=C([H])c1c([H])c(OC([H])([H])C([H])([H])C([H])([H])[H])c([H])c(OC([H])([H])C([H])([H])C([H])([H])Oc2c([H])c([H])c3c(c2[H])C([H])([H])N(C(=O)C([H])(N([H])C(=O)C([H])(N([H])C([H])([H])[H])C([H])([H])[H])C(C([H])([H])[H])(C([H])([H])[H])C([H])([H])[H])C([H])(C(=O)N([H])C2([H])c4c([H])c([H])c([H])c([H])c4C([H])([H])C([H])([H])C2([H])[H])C3([H])[H])c1C([H])([H])[H]

$$$$
70:0:0
     RDKit          3D

 98107  0  0  1  0  0  0  0  0999 V2000
  -31.0770  -18.9190   21.3020 C   0  0  0  0  0  3  0  0  0  0  0  0
  -30.1580  -19.9080   19.2710 C   0  0  0  0  0  3  0  0  0  0  0  0
  -29.9180  -17.5170   19.6940 C   0  0  0  0  0  3  0  0  0  0  0  0
  -30.8560  -20.0480   20.4940 C   0  0  0  0  0  0  0  0  0  0  0  0
  -30.6080  -17.6500   20.9230 C   0  0  0  0  0  0  0  0  0  0  0  0
  -29.7110  -18.6290   18.8460 C   0  0  0  0  0  0  0  0  0  0  0  0
  -31.4570  -21.3570   20.9950 C   0  0  0  0  0  2  0  0  0  0  0  0
  -30.1690  -23.5060   20.8490 C   0  0  0  0  0  0  0  0  0  0  0  0
  -30.8410  -24.2500   18.6950 C   0  0  0  0  0  2  0  0  0  0  0  0
  -31.7050  -23.0710   19.1640 C   0  0  0  0  0  2  0  0  0  0  0  0
  -30.1580  -24.7700   19.9780 C   0  0  0  0  0  3  0  0  0  0  0  0
  -31.0180  -22.5940   20.3490 N   0  0  0  0  0  0  0  0  0  0  0  0
  -29.5060  -23.3790   21.8800 O   0  0  0  0  0  0  0  0  0  0  0  0
  -28.7720  -25.4530   19.7920 C   0  0  0  0  0  2  0  0  0  0  0  0
  -28.6910  -26.7560   20.4120 O   0  0  0  0  0  0  0  0  0  0  0  0
  -24.6150  -31.8960   23.2890 C   0  0  0  0  0  0  0  0  0  0  0  0
  -27.4880  -27.4480   20.3630 C   0  0  0  0  0  0  0  0  0  0  0  0
  -23.5130  -30.4520   21.6120 C   0  0  0  0  0  3  0  0  0  0  0  0
  -25.0570  -28.9190   20.2800 C   0  0  0  0  0  0  0  0  0  0  0  0
  -26.0430  -30.8420   21.5330 C   0  0  0  0  0  2  0  0  0  0  0  0
  -26.1820  -29.4650   20.9110 C   0  0  0  0  0  0  0  0  0  0  0  0
  -27.3960  -28.7360   20.9510 C   0  0  0  0  0  3  0  0  0  0  0  0
  -26.3330  -26.9200   19.7380 C   0  0  0  0  0  3  0  0  0  0  0  0
  -25.1290  -27.6450   19.6960 C   0  0  0  0  0  3  0  0  0  0  0  0
  -23.7960  -29.7530   20.2570 C   0  0  0  0  0  2  0  0  0  0  0  0
  -24.7390  -31.0800   22.2020 N   0  0  0  0  0  0  0  0  0  0  0  0
  -23.5040  -32.1550   23.7730 O   0  0  0  0  0  0  0  0  0  0  0  0
  -22.8320  -29.4350   22.5560 C   0  0  0  0  0  0  0  0  0  0  0  0
  -21.5090  -29.2620   22.3970 N   0  0  0  0  0  0  0  0  0  0  0  0
  -23.4930  -28.8020   23.3830 O   0  0  0  0  0  0  0  0  0  0  0  0
  -21.0370  -29.8230   21.7010 H   0  0  0  0  0  0  0  0  0  0  0  0
  -18.1080  -28.1400   22.8720 C   0  0  0  0  0  0  0  0  0  0  0  0
  -20.6690  -28.3260   23.1450 C   0  0  0  0  0  3  0  0  0  0  0  0
  -20.7350  -26.9080   22.5330 C   0  0  0  0  0  2  0  0  0  0  0  0
  -19.6260  -26.6390   21.5120 C   0  0  0  0  0  2  0  0  0  0  0  0
  -18.2490  -26.8060   22.1600 C   0  0  0  0  0  2  0  0  0  0  0  0
  -19.2450  -28.8620   23.3200 C   0  0  0  0  0  0  0  0  0  0  0  0
  -19.0610  -30.1160   23.9420 C   0  0  0  0  0  3  0  0  0  0  0  0
  -17.7700  -30.6480   24.1220 C   0  0  0  0  0  3  0  0  0  0  0  0
  -16.6460  -29.9210   23.6940 C   0  0  0  0  0  3  0  0  0  0  0  0
  -16.8150  -28.6700   23.0750 C   0  0  0  0  0  3  0  0  0  0  0  0
  -25.8600  -32.5570   23.9610 C   0  0  0  0  0  3  0  0  0  0  0  0
  -25.5200  -33.9580   24.2410 N   0  0  0  0  0  0  0  0  0  0  0  0
  -25.8830  -34.9960   23.4770 C   0  0  0  0  0  0  0  0  0  0  0  0
  -26.6080  -34.8770   22.4860 O   0  0  0  0  0  0  0  0  0  0  0  0
  -24.8790  -34.1260   25.0040 H   0  0  0  0  0  0  0  0  0  0  0  0
  -24.1500  -36.7550   22.9950 C   0  0  0  0  0  1  0  0  0  0  0  0
  -25.3560  -36.3900   23.8750 C   0  0  0  0  0  3  0  0  0  0  0  0
  -27.4300  -37.3310   24.7920 C   0  0  0  0  0  1  0  0  0  0  0  0
  -26.3800  -37.4540   23.7840 N   0  0  0  0  0  0  0  0  0  0  0  0
  -25.9530  -38.3710   23.8820 H   0  0  0  0  0  0  0  0  0  0  0  0
  -26.3170  -31.8220   25.2810 C   0  0  1  0  0  0  0  0  0  0  0  0
  -25.1700  -31.5900   26.2930 C   0  0  0  0  0  1  0  0  0  0  0  0
  -26.9420  -30.4470   24.9520 C   0  0  0  0  0  1  0  0  0  0  0  0
  -27.4190  -32.6460   25.9860 C   0  0  0  0  0  1  0  0  0  0  0  0
  -30.8970  -16.4810   21.8600 C   0  0  0  0  0  2  0  0  0  0  0  0
  -30.8000  -14.4450   20.4650 C   0  0  0  0  0  0  0  0  0  0  0  0
  -30.3540  -12.4990   19.0310 C   0  0  0  0  0  2  0  0  0  0  0  0
  -29.3710  -12.8970   17.9120 C   0  0  0  0  0  2  0  0  0  0  0  0
  -27.9060  -12.8010   18.3820 C   0  0  0  0  0  2  0  0  0  0  0  0
  -27.6600  -13.4420   19.7710 C   0  0  0  0  0  3  0  0  0  0  0  0
  -28.7490  -13.0100   20.7790 C   0  0  0  0  0  2  0  0  0  0  0  0
  -30.0660  -13.3360   20.2030 N   0  0  0  0  0  0  0  0  0  0  0  0
  -31.8150  -14.7570   19.8360 O   0  0  0  0  0  0  0  0  0  0  0  0
  -30.3250  -15.2060   21.4510 N   0  0  0  0  0  0  0  0  0  0  0  0
  -29.5140  -14.8790   21.9470 H   0  0  0  0  0  0  0  0  0  0  0  0
  -25.2700  -14.0150   20.5370 C   0  0  0  0  0  0  0  0  0  0  0  0
  -24.2130  -13.2260   20.9080 C   0  0  0  0  0  0  0  0  0  0  0  0
  -24.6800  -11.8790   20.8320 C   0  0  0  0  0  0  0  0  0  0  0  0
  -26.3150  -13.1460   20.2660 N   0  0  0  0  0  0  0  0  0  0  0  0
  -25.9620  -11.8540   20.4880 N   0  0  0  0  0  0  0  0  0  0  0  0
  -23.9640  -10.6080   21.0070 C   0  0  0  0  0  0  0  0  0  0  0  0
  -24.4140   -9.6210   21.9100 C   0  0  0  0  0  3  0  0  0  0  0  0
  -23.6960   -8.4160   22.0680 C   0  0  0  0  0  3  0  0  0  0  0  0
  -22.5150   -8.1880   21.3220 C   0  0  0  0  0  0  0  0  0  0  0  0
  -22.0850   -9.1640   20.4050 C   0  0  0  0  0  3  0  0  0  0  0  0
  -22.8050  -10.3600   20.2460 C   0  0  0  0  0  3  0  0  0  0  0  0
  -21.7630   -7.0380   21.3960 O   0  0  0  0  0  0  0  0  0  0  0  0
  -21.7160   -6.2810   22.5360 C   0  0  0  0  0  0  0  0  0  0  0  0
  -21.2650   -6.8130   23.7650 C   0  0  0  0  0  3  0  0  0  0  0  0
  -21.1690   -5.9820   24.9000 C   0  0  0  0  0  3  0  0  0  0  0  0
  -21.5150   -4.6200   24.8030 C   0  0  0  0  0  0  0  0  0  0  0  0
  -21.9620   -4.0870   23.5800 C   0  0  0  0  0  3  0  0  0  0  0  0
  -22.0590   -4.9170   22.4480 C   0  0  0  0  0  0  0  0  0  0  0  0
  -22.4710   -4.3950   21.2660 F   0  0  0  0  0  0  0  0  0  0  0  0
  -21.4170   -3.8190   25.8890 F   0  0  0  0  0  0  0  0  0  0  0  0
  -22.8200  -13.6880   21.2250 C   0  0  0  0  0  0  0  0  0  0  0  0
  -22.1210  -12.9660   22.0920 N   0  0  0  0  0  0  0  0  0  0  0  0
  -22.3620  -14.7230   20.7450 O   0  0  0  0  0  0  0  0  0  0  0  0
  -22.5080  -12.1300   22.5060 H   0  0  0  0  0  0  0  0  0  0  0  0
  -21.1870  -13.2550   22.3480 H   0  0  0  0  0  0  0  0  0  0  0  0
  -25.4210  -15.3900   20.3880 N   0  0  0  0  0  0  0  0  0  0  0  0
  -24.6530  -16.0410   20.5110 H   0  0  0  0  0  0  0  0  0  0  0  0
  -26.2640  -15.8380   20.0470 H   0  0  0  0  0  0  0  0  0  0  0  0
  -29.0870  -18.3860   17.6390 O   0  0  0  0  0  0  0  0  0  0  0  0
  -29.3440  -19.2640   16.5430 C   0  0  0  0  0  2  0  0  0  0  0  0
  -29.6400  -19.1740   13.9700 C   0  0  0  0  0  1  0  0  0  0  0  0
  -29.0760  -18.5000   15.2320 C   0  0  0  0  0  2  0  0  0  0  0  0
  2  4  1  0
  3  5  2  0
  4  7  1  0
  4  1  2  0
  5  1  1  0
  5 56  1  0
  6  2  2  0
  6  3  1  0
  8 13  2  0
  9 10  1  0
  9 11  1  0
 10 12  1  0
 11 14  1  0
 11  8  1  0
 12  8  1  0
 12  7  1  0
 14 15  1  0
 16 27  2  0
 17 15  1  0
 17 22  1  0
 18 26  1  0
 18 28  1  0
 19 21  1  0
 20 26  1  0
 21 22  2  0
 21 20  1  0
 23 17  2  0
 24 23  1  0
 24 19  2  0
 25 19  1  0
 25 18  1  0
 26 16  1  0
 28 30  2  0
 29 28  1  0
 31 29  1  0
 32 41  2  0
 32 37  1  0
 33 29  1  0
 33 37  1  0
 34 33  1  0
 35 36  1  0
 35 34  1  0
 36 32  1  0
 37 38  2  0
 38 39  1  0
 40 39  2  0
 41 40  1  0
 42 16  1  0
 42 43  1  0
 42 52  1  0
 43 46  1  0
 44 48  1  0
 44 43  1  0
 45 44  2  0
 48 47  1  0
 50 48  1  0
 50 51  1  0
 50 49  1  0
 52 55  1  1
 52 53  1  0
 54 52  1  0
 57 65  1  0
 58 63  1  0
 59 60  1  0
 59 58  1  0
 61 60  1  0
 61 70  1  0
 61 62  1  0
 63 57  1  0
 63 62  1  0
 64 57  2  0
 65 56  1  0
 65 66  1  0
 67 68  2  0
 68 87  1  0
 69 68  1  0
 69 72  1  0
 70 71  1  0
 70 67  1  0
 71 69  2  0
 72 73  1  0
 73 74  2  0
 75 78  1  0
 75 74  1  0
 76 75  2  0
 77 76  1  0
 77 72  2  0
 78 79  1  0
 79 80  1  0
 80 81  2  0
 82 81  1  0
 82 86  1  0
 83 82  2  0
 84 79  2  0
 84 83  1  0
 85 84  1  0
 87 88  1  0
 88 91  1  0
 88 90  1  0
 89 87  2  0
 92 93  1  0
 92 67  1  0
 94 92  1  0
 95  6  1  0
 96 95  1  0
 97 98  1  0
 98 96  1  0
M  ISO  4  14 101  15 101  57 100  65 100
M  END
>  <TORSDO>  (70) 
F 23

>  <SCORE>  (70) 
-13.312

>  <name>  (70) 
70

>  <ligand_id>  (70) 
70

>  <original_smiles>  (70) 
[H]c1c([H])c([H])c2c(c1[H])C([H])([H])C([H])([H])C([H])([H])C2([H])N([H])C(=O)C1([H])N(C(=O)C([H])(N([H])C(=O)C([H])(N([H])C([H])([H])[H])C([H])([H])[H])C(C([H])([H])[H])(C([H])([H])[H])C([H])([H])[H])C([H])([H])c2c([H])c(OC([H])([H])C3([H])C(=O)N(C([H])([H])c4c([H])c(OC([H])([H])C([H])([H])C([H])([H])[H])c([H])c(C([H])([H])N([H])C(=O)N5C([H])([H])C([H])([H])C([H])([H])C([H])(n6nc(-c7c([H])c([H])c(Oc8c([H])c([H])c(F)c([H])c8F)c([H])c7[H])c(C(=O)N([H])[H])c6N([H])[H])C5([H])[H])c4[H])C([H])([H])C3([H])[H])c([H])c([H])c2C1([H])[H]

>  <smiles>  (70) 
[H]c1c([H])c([H])c2c(c1[H])C([H])([H])C([H])([H])C([H])([H])C2([H])N([H])C(=O)C1([H])N(C(=O)C([H])(N([H])C(=O)C([H])(N([H])C([H])([H])[H])C([H])([H])[H])C(C([H])([H])[H])(C([H])([H])[H])C([H])([H])[H])C([H])([H])c2c([H])c(OC([H])([H])C3([H])C(=O)N(C([H])([H])c4c([H])c(OC([H])([H])C([H])([H])C([H])([H])[H])c([H])c(C([H])([H])N([H])C(=O)N5C([H])([H])C([H])([H])C([H])([H])C([H])(n6nc(-c7c([H])c([H])c(Oc8c([H])c([H])c(F)c([H])c8F)c([H])c7[H])c(C(=O)N([H])[H])c6N([H])[H])C5([H])[H])c4[H])C([H])([H])C3([H])[H])c([H])c([H])c2C1([H])[H]

$$$$
71:0:0
     RDKit          3D

 95104  0  0  1  0  0  0  0  0999 V2000
  -29.1300  -22.6390   20.1560 C   0  0  0  0  0  3  0  0  0  0  0  0
  -29.2930  -24.0120   20.2340 C   0  0  0  0  0  0  0  0  0  0  0  0
  -30.6450  -24.4970   20.6160 C   0  0  0  0  0  0  0  0  0  0  0  0
  -31.7840  -23.4700   20.6230 C   0  0  0  0  0  2  0  0  0  0  0  0
  -31.3250  -22.0940   21.1400 C   0  0  0  0  0  2  0  0  0  0  0  0
  -30.0970  -21.6420   20.4800 N   0  0  0  0  0  0  0  0  0  0  0  0
  -30.9130  -25.6660   20.9110 O   0  0  0  0  0  0  0  0  0  0  0  0
  -30.2890  -19.4150   21.5860 C   0  0  0  0  0  3  0  0  0  0  0  0
  -29.7810  -19.4630   19.2460 C   0  0  0  0  0  3  0  0  0  0  0  0
  -30.3320  -17.9890   21.5590 C   0  0  0  0  0  0  0  0  0  0  0  0
  -29.8480  -18.0290   19.1930 C   0  0  0  0  0  0  0  0  0  0  0  0
  -30.0020  -20.2020   20.4400 C   0  0  0  0  0  0  0  0  0  0  0  0
  -30.1320  -17.2490   20.3590 C   0  0  0  0  0  0  0  0  0  0  0  0
  -30.6060  -17.2490   22.8570 C   0  0  0  0  0  1  0  0  0  0  0  0
  -29.5830  -17.3460   17.8640 C   0  0  0  0  0  1  0  0  0  0  0  0
  -30.8560  -14.7500   20.0390 C   0  0  0  0  0  0  0  0  0  0  0  0
  -30.6710  -12.4640   19.0660 C   0  0  0  0  0  2  0  0  0  0  0  0
  -29.6670  -12.5140   17.8930 C   0  0  0  0  0  2  0  0  0  0  0  0
  -28.2210  -12.3270   18.3960 C   0  0  0  0  0  2  0  0  0  0  0  0
  -27.8940  -13.2290   19.6150 C   0  0  0  0  0  3  0  0  0  0  0  0
  -29.0050  -13.1450   20.6850 C   0  0  0  0  0  2  0  0  0  0  0  0
  -30.2770  -13.5060   20.0380 N   0  0  0  0  0  0  0  0  0  0  0  0
  -31.9880  -14.9280   19.5800 O   0  0  0  0  0  0  0  0  0  0  0  0
  -30.0460  -15.7830   20.4380 N   0  0  0  0  0  0  0  0  0  0  0  0
  -29.2060  -15.4520   20.8860 H   0  0  0  0  0  0  0  0  0  0  0  0
  -25.5540  -13.8090   20.5050 C   0  0  0  0  0  0  0  0  0  0  0  0
  -24.5050  -13.0260   20.9040 C   0  0  0  0  0  0  0  0  0  0  0  0
  -24.9520  -11.6740   20.7830 C   0  0  0  0  0  0  0  0  0  0  0  0
  -26.5740  -12.9330   20.1680 N   0  0  0  0  0  0  0  0  0  0  0  0
  -26.2210  -11.6420   20.3960 N   0  0  0  0  0  0  0  0  0  0  0  0
  -24.2260  -10.4090   20.9610 C   0  0  0  0  0  0  0  0  0  0  0  0
  -24.6380   -9.4490   21.9130 C   0  0  0  0  0  3  0  0  0  0  0  0
  -23.9130   -8.2490   22.0780 C   0  0  0  0  0  3  0  0  0  0  0  0
  -22.7630   -8.0010   21.2910 C   0  0  0  0  0  0  0  0  0  0  0  0
  -22.3710   -8.9490   20.3300 C   0  0  0  0  0  3  0  0  0  0  0  0
  -23.0960  -10.1400   20.1640 C   0  0  0  0  0  3  0  0  0  0  0  0
  -22.0130   -6.8530   21.3640 O   0  0  0  0  0  0  0  0  0  0  0  0
  -21.8280   -6.1880   22.5500 C   0  0  0  0  0  0  0  0  0  0  0  0
  -21.2510   -6.8180   23.6740 C   0  0  0  0  0  3  0  0  0  0  0  0
  -21.0140   -6.0790   24.8500 C   0  0  0  0  0  3  0  0  0  0  0  0
  -21.3430   -4.7110   24.9030 C   0  0  0  0  0  0  0  0  0  0  0  0
  -21.9130   -4.0820   23.7820 C   0  0  0  0  0  3  0  0  0  0  0  0
  -22.1510   -4.8170   22.6080 C   0  0  0  0  0  0  0  0  0  0  0  0
  -22.6810   -4.2000   21.5240 F   0  0  0  0  0  0  0  0  0  0  0  0
  -21.1090   -3.9990   26.0300 F   0  0  0  0  0  0  0  0  0  0  0  0
  -23.1310  -13.5000   21.2830 C   0  0  0  0  0  0  0  0  0  0  0  0
  -22.4620  -12.7840   22.1800 N   0  0  0  0  0  0  0  0  0  0  0  0
  -22.6610  -14.5380   20.8190 O   0  0  0  0  0  0  0  0  0  0  0  0
  -22.8560  -11.9430   22.5770 H   0  0  0  0  0  0  0  0  0  0  0  0
  -21.5430  -13.0820   22.4770 H   0  0  0  0  0  0  0  0  0  0  0  0
  -25.7200  -15.1850   20.3780 N   0  0  0  0  0  0  0  0  0  0  0  0
  -24.9640  -15.8370   20.5580 H   0  0  0  0  0  0  0  0  0  0  0  0
  -26.5450  -15.6330   20.0010 H   0  0  0  0  0  0  0  0  0  0  0  0
  -28.1520  -25.0710   19.9820 C   0  0  0  0  0  2  0  0  0  0  0  0
  -28.3800  -26.5290   20.1710 O   0  0  0  0  0  0  0  0  0  0  0  0
  -24.7130  -31.9120   23.2710 C   0  0  0  0  0  0  0  0  0  0  0  0
  -27.2670  -27.3880   20.1230 C   0  0  0  0  0  0  0  0  0  0  0  0
  -23.4850  -30.5560   21.6110 C   0  0  0  0  0  3  0  0  0  0  0  0
  -24.9150  -29.0240   20.1460 C   0  0  0  0  0  0  0  0  0  0  0  0
  -26.0260  -30.8560   21.4210 C   0  0  0  0  0  2  0  0  0  0  0  0
  -26.0900  -29.4910   20.7480 C   0  0  0  0  0  0  0  0  0  0  0  0
  -27.2680  -28.6830   20.7290 C   0  0  0  0  0  3  0  0  0  0  0  0
  -26.0680  -26.9830   19.4910 C   0  0  0  0  0  3  0  0  0  0  0  0
  -24.9060  -27.7760   19.5070 C   0  0  0  0  0  3  0  0  0  0  0  0
  -23.6860  -29.9080   20.2170 C   0  0  0  0  0  2  0  0  0  0  0  0
  -24.7600  -31.1240   22.1580 N   0  0  0  0  0  0  0  0  0  0  0  0
  -23.6350  -32.1910   23.8170 O   0  0  0  0  0  0  0  0  0  0  0  0
  -22.8180  -29.5280   22.5550 C   0  0  0  0  0  0  0  0  0  0  0  0
  -21.4970  -29.3320   22.4000 N   0  0  0  0  0  0  0  0  0  0  0  0
  -23.4860  -28.9110   23.3880 O   0  0  0  0  0  0  0  0  0  0  0  0
  -21.0180  -29.8820   21.7010 H   0  0  0  0  0  0  0  0  0  0  0  0
  -18.1340  -28.0650   22.7880 C   0  0  0  0  0  0  0  0  0  0  0  0
  -20.6740  -28.3850   23.1510 C   0  0  0  0  0  3  0  0  0  0  0  0
  -20.8300  -26.9500   22.5940 C   0  0  0  0  0  2  0  0  0  0  0  0
  -19.7730  -26.5920   21.5460 C   0  0  0  0  0  2  0  0  0  0  0  0
  -18.3650  -26.7120   22.1350 C   0  0  0  0  0  2  0  0  0  0  0  0
  -19.2180  -28.8560   23.2510 C   0  0  0  0  0  0  0  0  0  0  0  0
  -18.9490  -30.1200   23.8190 C   0  0  0  0  0  3  0  0  0  0  0  0
  -17.6280  -30.5920   23.9340 C   0  0  0  0  0  3  0  0  0  0  0  0
  -16.5570  -29.7970   23.4910 C   0  0  0  0  0  3  0  0  0  0  0  0
  -16.8110  -28.5370   22.9210 C   0  0  0  0  0  3  0  0  0  0  0  0
  -26.0050  -32.5180   23.8980 C   0  0  0  0  0  3  0  0  0  0  0  0
  -25.7220  -33.9190   24.2330 N   0  0  0  0  0  0  0  0  0  0  0  0
  -26.0420  -34.9670   23.4620 C   0  0  0  0  0  0  0  0  0  0  0  0
  -26.6790  -34.8550   22.4100 O   0  0  0  0  0  0  0  0  0  0  0  0
  -25.1560  -34.0820   25.0530 H   0  0  0  0  0  0  0  0  0  0  0  0
  -24.3070  -36.7660   23.1840 C   0  0  0  0  0  1  0  0  0  0  0  0
  -25.5860  -36.3600   23.9340 C   0  0  0  0  0  3  0  0  0  0  0  0
  -27.7590  -37.2460   24.6510 C   0  0  0  0  0  1  0  0  0  0  0  0
  -26.6140  -37.4080   23.7610 N   0  0  0  0  0  0  0  0  0  0  0  0
  -26.2180  -38.3300   23.9210 H   0  0  0  0  0  0  0  0  0  0  0  0
  -26.5030  -31.7310   25.1720 C   0  0  1  0  0  0  0  0  0  0  0  0
  -25.4040  -31.5060   26.2350 C   0  0  0  0  0  1  0  0  0  0  0  0
  -27.0640  -30.3440   24.7740 C   0  0  0  0  0  1  0  0  0  0  0  0
  -27.6630  -32.5020   25.8430 C   0  0  0  0  0  1  0  0  0  0  0  0
  1  2  2  0
  1  6  1  0
  2  3  1  0
  3  4  1  0
  3  7  2  0
  4  5  1  0
  6  5  1  0
  9 12  1  0
 10  8  1  0
 10 14  1  0
 11  9  2  0
 11 13  1  0
 12  6  1  0
 12  8  2  0
 13 24  1  0
 13 10  2  0
 15 11  1  0
 16 24  1  0
 17 22  1  0
 18 19  1  0
 18 17  1  0
 20 19  1  0
 20 29  1  0
 20 21  1  0
 22 16  1  0
 22 21  1  0
 23 16  2  0
 24 25  1  0
 26 27  2  0
 27 46  1  0
 28 27  1  0
 28 31  1  0
 29 30  1  0
 29 26  1  0
 30 28  2  0
 31 32  1  0
 32 33  2  0
 34 37  1  0
 34 33  1  0
 35 34  2  0
 36 35  1  0
 36 31  2  0
 37 38  1  0
 38 43  2  0
 38 39  1  0
 39 40  2  0
 40 41  1  0
 41 45  1  0
 42 41  2  0
 43 42  1  0
 44 43  1  0
 46 47  1  0
 47 50  1  0
 47 49  1  0
 48 46  2  0
 51 26  1  0
 51 52  1  0
 53 51  1  0
 54 55  1  0
 54  2  1  0
 56 67  2  0
 57 55  1  0
 57 62  1  0
 58 66  1  0
 58 68  1  0
 59 65  1  0
 59 61  1  0
 60 66  1  0
 61 60  1  0
 62 61  2  0
 63 64  1  0
 63 57  2  0
 64 59  2  0
 65 58  1  0
 66 56  1  0
 68 70  2  0
 69 68  1  0
 71 69  1  0
 72 81  2  0
 72 77  1  0
 73 69  1  0
 73 77  1  0
 74 73  1  0
 75 76  1  0
 75 74  1  0
 76 72  1  0
 77 78  2  0
 78 79  1  0
 80 79  2  0
 81 80  1  0
 82 56  1  0
 82 83  1  0
 82 92  1  0
 83 86  1  0
 84 88  1  0
 84 83  1  0
 85 84  2  0
 88 87  1  0
 90 91  1  0
 90 88  1  0
 90 89  1  0
 92 95  1  1
 92 93  1  0
 94 92  1  0
M  ISO  4  16 100  24 100  54 101  55 101
M  END
>  <TORSDO>  (71) 
F 18

>  <SCORE>  (71) 
-13.674

>  <name>  (71) 
71

>  <ligand_id>  (71) 
71

>  <original_smiles>  (71) 
[H]C1=C(C([H])([H])Oc2c([H])c([H])c3c(c2[H])C([H])([H])N(C(=O)C([H])(N([H])C(=O)C([H])(N([H])C([H])([H])[H])C([H])([H])[H])C(C([H])([H])[H])(C([H])([H])[H])C([H])([H])[H])C([H])(C(=O)N([H])C2([H])c4c([H])c([H])c([H])c([H])c4C([H])([H])C([H])([H])C2([H])[H])C3([H])[H])C(=O)C([H])([H])C([H])([H])N1c1c([H])c(C([H])([H])[H])c(N([H])C(=O)N2C([H])([H])C([H])([H])C([H])([H])C([H])(n3nc(-c4c([H])c([H])c(Oc5c([H])c([H])c(F)c([H])c5F)c([H])c4[H])c(C(=O)N([H])[H])c3N([H])[H])C2([H])[H])c(C([H])([H])[H])c1[H]

>  <smiles>  (71) 
[H]C1=C(C([H])([H])Oc2c([H])c([H])c3c(c2[H])C([H])([H])N(C(=O)C([H])(N([H])C(=O)C([H])(N([H])C([H])([H])[H])C([H])([H])[H])C(C([H])([H])[H])(C([H])([H])[H])C([H])([H])[H])C([H])(C(=O)N([H])C2([H])c4c([H])c([H])c([H])c([H])c4C([H])([H])C([H])([H])C2([H])[H])C3([H])[H])C(=O)C([H])([H])C([H])([H])N1c1c([H])c(C([H])([H])[H])c(N([H])C(=O)N2C([H])([H])C([H])([H])C([H])([H])C([H])(n3nc(-c4c([H])c([H])c(Oc5c([H])c([H])c(F)c([H])c5F)c([H])c4[H])c(C(=O)N([H])[H])c3N([H])[H])C2([H])[H])c(C([H])([H])[H])c1[H]

$$$$
72:0:0
     RDKit          3D

 94102  0  0  1  0  0  0  0  0999 V2000
  -29.2100  -18.8190   20.7280 C   0  0  0  0  0  3  0  0  0  0  0  0
  -30.7760  -20.8730   21.8010 C   0  0  0  0  0  3  0  0  0  0  0  0
  -30.5180  -18.5040   21.1450 C   0  0  0  0  0  0  0  0  0  0  0  0
  -31.2870  -19.5460   21.7290 C   0  0  0  0  0  0  0  0  0  0  0  0
  -28.7190  -20.1530   20.7450 C   0  0  0  0  0  0  0  0  0  0  0  0
  -29.5070  -21.2050   21.2580 C   0  0  0  0  0  0  0  0  0  0  0  0
  -32.6830  -19.2640   22.2640 C   0  0  0  0  0  1  0  0  0  0  0  0
  -31.0740  -17.1300   20.9150 C   0  0  0  0  0  3  0  0  0  0  0  0
  -30.4080  -15.9580   20.7300 C   0  0  0  0  0  3  0  0  0  0  0  0
  -31.1350  -14.7490   20.2860 C   0  0  0  0  0  0  0  0  0  0  0  0
  -30.8350  -12.5210   19.2480 C   0  0  0  0  0  2  0  0  0  0  0  0
  -29.9060  -12.6440   18.0230 C   0  0  0  0  0  2  0  0  0  0  0  0
  -28.4310  -12.5110   18.4470 C   0  0  0  0  0  2  0  0  0  0  0  0
  -28.0700  -13.4090   19.6590 C   0  0  0  0  0  3  0  0  0  0  0  0
  -29.1220  -13.2840   20.7840 C   0  0  0  0  0  2  0  0  0  0  0  0
  -30.4420  -13.5730   20.2070 N   0  0  0  0  0  0  0  0  0  0  0  0
  -32.2800  -14.8300   19.8360 O   0  0  0  0  0  0  0  0  0  0  0  0
  -25.6930  -14.0280   20.4200 C   0  0  0  0  0  0  0  0  0  0  0  0
  -24.6150  -13.2650   20.7790 C   0  0  0  0  0  0  0  0  0  0  0  0
  -25.0510  -11.9060   20.6990 C   0  0  0  0  0  0  0  0  0  0  0  0
  -26.7200  -13.1370   20.1470 N   0  0  0  0  0  0  0  0  0  0  0  0
  -26.3360  -11.8520   20.3710 N   0  0  0  0  0  0  0  0  0  0  0  0
  -24.3040  -10.6530   20.8600 C   0  0  0  0  0  0  0  0  0  0  0  0
  -24.7140   -9.6620   21.7800 C   0  0  0  0  0  3  0  0  0  0  0  0
  -23.9700   -8.4710   21.9280 C   0  0  0  0  0  3  0  0  0  0  0  0
  -22.8030   -8.2640   21.1560 C   0  0  0  0  0  0  0  0  0  0  0  0
  -22.4100   -9.2440   20.2300 C   0  0  0  0  0  3  0  0  0  0  0  0
  -23.1530  -10.4260   20.0800 C   0  0  0  0  0  3  0  0  0  0  0  0
  -22.0320   -7.1300   21.2170 O   0  0  0  0  0  0  0  0  0  0  0  0
  -21.9310   -6.3860   22.3650 C   0  0  0  0  0  0  0  0  0  0  0  0
  -21.4230   -6.9330   23.5630 C   0  0  0  0  0  3  0  0  0  0  0  0
  -21.2680   -6.1160   24.7010 C   0  0  0  0  0  3  0  0  0  0  0  0
  -21.6140   -4.7530   24.6400 C   0  0  0  0  0  0  0  0  0  0  0  0
  -22.1140   -4.2040   23.4460 C   0  0  0  0  0  3  0  0  0  0  0  0
  -22.2690   -5.0180   22.3100 C   0  0  0  0  0  0  0  0  0  0  0  0
  -22.7330   -4.4790   21.1570 F   0  0  0  0  0  0  0  0  0  0  0  0
  -21.4590   -3.9650   25.7310 F   0  0  0  0  0  0  0  0  0  0  0  0
  -23.2300  -13.7580   21.0880 C   0  0  0  0  0  0  0  0  0  0  0  0
  -22.5070  -13.0660   21.9620 N   0  0  0  0  0  0  0  0  0  0  0  0
  -22.7970  -14.7960   20.5920 O   0  0  0  0  0  0  0  0  0  0  0  0
  -22.8680  -12.2260   22.3920 H   0  0  0  0  0  0  0  0  0  0  0  0
  -21.5770  -13.3780   22.2040 H   0  0  0  0  0  0  0  0  0  0  0  0
  -25.8760  -15.4000   20.2830 N   0  0  0  0  0  0  0  0  0  0  0  0
  -25.1160  -16.0570   20.4300 H   0  0  0  0  0  0  0  0  0  0  0  0
  -26.7260  -15.8410   19.9540 H   0  0  0  0  0  0  0  0  0  0  0  0
  -27.4720  -20.4940   20.2720 O   0  0  0  0  0  0  0  0  0  0  0  0
  -26.9600  -19.7780   19.1560 C   0  0  0  0  0  2  0  0  0  0  0  0
  -26.4410  -19.9870   16.6970 C   0  0  0  0  0  1  0  0  0  0  0  0
  -26.8330  -20.7360   17.9710 C   0  0  0  0  0  2  0  0  0  0  0  0
  -28.9420  -22.4790   21.1690 O   0  0  0  0  0  0  0  0  0  0  0  0
  -29.6630  -23.6760   21.5120 C   0  0  0  0  0  2  0  0  0  0  0  0
  -29.5190  -24.8240   20.4560 C   0  0  0  0  0  2  0  0  0  0  0  0
  -28.1680  -25.5890   20.3680 C   0  0  0  0  0  2  0  0  0  0  0  0
  -28.2840  -26.8640   19.6760 O   0  0  0  0  0  0  0  0  0  0  0  0
  -24.5130  -31.7780   23.1640 C   0  0  0  0  0  0  0  0  0  0  0  0
  -27.1320  -27.6280   19.6920 C   0  0  0  0  0  0  0  0  0  0  0  0
  -23.2790  -30.4750   21.4620 C   0  0  0  0  0  3  0  0  0  0  0  0
  -24.7140  -29.0960   19.8620 C   0  0  0  0  0  0  0  0  0  0  0  0
  -25.7850  -30.9200   21.1940 C   0  0  0  0  0  2  0  0  0  0  0  0
  -25.8800  -29.6010   20.4490 C   0  0  0  0  0  0  0  0  0  0  0  0
  -27.0950  -28.8760   20.3580 C   0  0  0  0  0  3  0  0  0  0  0  0
  -25.9540  -27.1510   19.0800 C   0  0  0  0  0  3  0  0  0  0  0  0
  -24.7480  -27.8730   19.1680 C   0  0  0  0  0  3  0  0  0  0  0  0
  -23.4490  -29.9140   20.0250 C   0  0  0  0  0  2  0  0  0  0  0  0
  -24.5450  -31.0690   21.9970 N   0  0  0  0  0  0  0  0  0  0  0  0
  -23.4480  -31.9760   23.7640 O   0  0  0  0  0  0  0  0  0  0  0  0
  -22.6930  -29.3650   22.3630 C   0  0  0  0  0  0  0  0  0  0  0  0
  -21.3770  -29.1230   22.2400 N   0  0  0  0  0  0  0  0  0  0  0  0
  -23.4200  -28.7260   23.1300 O   0  0  0  0  0  0  0  0  0  0  0  0
  -20.8470  -29.6940   21.5940 H   0  0  0  0  0  0  0  0  0  0  0  0
  -18.0870  -27.6850   22.6580 C   0  0  0  0  0  0  0  0  0  0  0  0
  -20.6220  -28.0960   22.9580 C   0  0  0  0  0  3  0  0  0  0  0  0
  -20.8210  -26.7060   22.3130 C   0  0  0  0  0  2  0  0  0  0  0  0
  -19.7460  -26.3640   21.2770 C   0  0  0  0  0  2  0  0  0  0  0  0
  -18.3540  -26.3860   21.9160 C   0  0  0  0  0  2  0  0  0  0  0  0
  -19.1530  -28.4950   23.1340 C   0  0  0  0  0  0  0  0  0  0  0  0
  -18.8520  -29.7100   23.7860 C   0  0  0  0  0  3  0  0  0  0  0  0
  -17.5180  -30.1190   23.9650 C   0  0  0  0  0  3  0  0  0  0  0  0
  -16.4660  -29.3070   23.5060 C   0  0  0  0  0  3  0  0  0  0  0  0
  -16.7510  -28.0930   22.8580 C   0  0  0  0  0  3  0  0  0  0  0  0
  -25.8060  -32.3940   23.7820 C   0  0  0  0  0  3  0  0  0  0  0  0
  -25.5030  -33.7870   24.1400 N   0  0  0  0  0  0  0  0  0  0  0  0
  -25.8380  -34.8530   23.4010 C   0  0  0  0  0  0  0  0  0  0  0  0
  -26.5090  -34.7670   22.3680 O   0  0  0  0  0  0  0  0  0  0  0  0
  -24.8940  -33.9270   24.9310 H   0  0  0  0  0  0  0  0  0  0  0  0
  -24.1170  -36.6620   23.0800 C   0  0  0  0  0  1  0  0  0  0  0  0
  -25.3550  -36.2350   23.8840 C   0  0  0  0  0  3  0  0  0  0  0  0
  -27.4840  -37.1020   24.7450 C   0  0  0  0  0  1  0  0  0  0  0  0
  -26.3910  -37.2860   23.7930 N   0  0  0  0  0  0  0  0  0  0  0  0
  -25.9880  -38.2060   23.9480 H   0  0  0  0  0  0  0  0  0  0  0  0
  -26.3350  -31.5970   25.0390 C   0  0  1  0  0  0  0  0  0  0  0  0
  -25.2590  -31.3510   26.1240 C   0  0  0  0  0  1  0  0  0  0  0  0
  -26.8990  -30.2200   24.6160 C   0  0  0  0  0  1  0  0  0  0  0  0
  -27.5070  -32.3690   25.6910 C   0  0  0  0  0  1  0  0  0  0  0  0
  1  5  2  0
  1  3  1  0
  3  4  2  0
  4  2  1  0
  4  7  1  0
  5  6  1  0
  6  2  2  0
  8  3  1  0
  9  8  2  0
 10  9  1  0
 11 16  1  0
 12 13  1  0
 12 11  1  0
 14 13  1  0
 14 21  1  0
 14 15  1  0
 16 10  1  0
 16 15  1  0
 17 10  2  0
 18 19  2  0
 19 38  1  0
 20 19  1  0
 20 23  1  0
 21 22  1  0
 21 18  1  0
 22 20  2  0
 23 24  1  0
 24 25  2  0
 26 29  1  0
 26 25  1  0
 27 26  2  0
 28 27  1  0
 28 23  2  0
 29 30  1  0
 30 31  1  0
 31 32  2  0
 33 32  1  0
 33 37  1  0
 34 33  2  0
 35 30  2  0
 35 34  1  0
 36 35  1  0
 38 39  1  0
 39 42  1  0
 39 41  1  0
 40 38  2  0
 43 18  1  0
 43 44  1  0
 45 43  1  0
 46  5  1  0
 47 46  1  0
 48 49  1  0
 49 47  1  0
 50  6  1  0
 50 51  1  0
 52 51  1  0
 53 52  1  0
 54 56  1  0
 54 53  1  0
 55 66  2  0
 56 61  1  0
 57 65  1  0
 57 67  1  0
 58 64  1  0
 58 60  1  0
 59 65  1  0
 60 59  1  0
 61 60  2  0
 62 63  1  0
 62 56  2  0
 63 58  2  0
 64 57  1  0
 65 55  1  0
 67 69  2  0
 68 67  1  0
 70 68  1  0
 71 80  2  0
 71 76  1  0
 72 68  1  0
 72 76  1  0
 73 72  1  0
 74 75  1  0
 74 73  1  0
 75 71  1  0
 76 77  2  0
 77 78  1  0
 79 78  2  0
 80 79  1  0
 81 55  1  0
 81 82  1  0
 81 91  1  0
 82 85  1  0
 83 87  1  0
 83 82  1  0
 84 83  2  0
 87 86  1  0
 89 87  1  0
 89 90  1  0
 89 88  1  0
 91 94  1  1
 91 92  1  0
 93 91  1  0
M  ISO  4   9 100  10 100  53 101  54 101
M  END
>  <TORSDO>  (72) 
F 24

>  <SCORE>  (72) 
-11.592

>  <name>  (72) 
72

>  <ligand_id>  (72) 
72

>  <original_smiles>  (72) 
[H]C(C(=O)N1C([H])([H])C([H])([H])C([H])([H])C([H])(n2nc(-c3c([H])c([H])c(Oc4c([H])c([H])c(F)c([H])c4F)c([H])c3[H])c(C(=O)N([H])[H])c2N([H])[H])C1([H])[H])=C([H])c1c([H])c(OC([H])([H])C([H])([H])C([H])([H])[H])c(OC([H])([H])C([H])([H])C([H])([H])Oc2c([H])c([H])c3c(c2[H])C([H])([H])N(C(=O)C([H])(N([H])C(=O)C([H])(N([H])C([H])([H])[H])C([H])([H])[H])C(C([H])([H])[H])(C([H])([H])[H])C([H])([H])[H])C([H])(C(=O)N([H])C2([H])c4c([H])c([H])c([H])c([H])c4C([H])([H])C([H])([H])C2([H])[H])C3([H])[H])c([H])c1C([H])([H])[H]

>  <smiles>  (72) 
[H]C(C(=O)N1C([H])([H])C([H])([H])C([H])([H])C([H])(n2nc(-c3c([H])c([H])c(Oc4c([H])c([H])c(F)c([H])c4F)c([H])c3[H])c(C(=O)N([H])[H])c2N([H])[H])C1([H])[H])=C([H])c1c([H])c(OC([H])([H])C([H])([H])C([H])([H])[H])c(OC([H])([H])C([H])([H])C([H])([H])Oc2c([H])c([H])c3c(c2[H])C([H])([H])N(C(=O)C([H])(N([H])C(=O)C([H])(N([H])C([H])([H])[H])C([H])([H])[H])C(C([H])([H])[H])(C([H])([H])[H])C([H])([H])[H])C([H])(C(=O)N([H])C2([H])c4c([H])c([H])c([H])c([H])c4C([H])([H])C([H])([H])C2([H])[H])C3([H])[H])c([H])c1C([H])([H])[H]

$$$$
73:0:0
     RDKit          3D

 93101  0  0  1  0  0  0  0  0999 V2000
  -31.1470  -19.4630   18.5430 C   0  0  0  0  0  3  0  0  0  0  0  0
  -29.4140  -19.1670   20.7070 C   0  0  0  0  0  3  0  0  0  0  0  0
  -30.6960  -18.1730   18.8940 C   0  0  0  0  0  0  0  0  0  0  0  0
  -29.8320  -17.9940   20.0080 C   0  0  0  0  0  0  0  0  0  0  0  0
  -30.7310  -20.6200   19.2450 C   0  0  0  0  0  0  0  0  0  0  0  0
  -29.8240  -20.4770   20.3210 C   0  0  0  0  0  0  0  0  0  0  0  0
  -31.1640  -17.0200   18.0210 C   0  0  0  0  0  1  0  0  0  0  0  0
  -32.0520  -22.0680   17.8420 C   0  0  0  0  0  1  0  0  0  0  0  0
  -31.1810  -21.8910   18.9500 O   0  0  0  0  0  0  0  0  0  0  0  0
  -29.2710  -16.5940   20.3970 C   0  0  0  0  0  2  0  0  0  0  0  0
  -30.7370  -14.5540   20.4800 C   0  0  0  0  0  0  0  0  0  0  0  0
  -30.4060  -12.3710   19.3610 C   0  0  0  0  0  2  0  0  0  0  0  0
  -29.4800  -12.5280   18.1380 C   0  0  0  0  0  2  0  0  0  0  0  0
  -28.0080  -12.3800   18.5600 C   0  0  0  0  0  2  0  0  0  0  0  0
  -27.6480  -13.2530   19.7910 C   0  0  0  0  0  3  0  0  0  0  0  0
  -28.6950  -13.1110   20.9170 C   0  0  0  0  0  2  0  0  0  0  0  0
  -30.0180  -13.3990   20.3450 N   0  0  0  0  0  0  0  0  0  0  0  0
  -31.8910  -14.6440   20.0540 O   0  0  0  0  0  0  0  0  0  0  0  0
  -30.8700  -16.2230   22.2250 C   0  0  0  0  0  1  0  0  0  0  0  0
  -30.1550  -15.6210   21.0990 N   0  0  0  0  0  0  0  0  0  0  0  0
  -25.2510  -13.8690   20.4800 C   0  0  0  0  0  0  0  0  0  0  0  0
  -24.1780  -13.1030   20.8420 C   0  0  0  0  0  0  0  0  0  0  0  0
  -24.6360  -11.7490   20.8290 C   0  0  0  0  0  0  0  0  0  0  0  0
  -26.2950  -12.9830   20.2660 N   0  0  0  0  0  0  0  0  0  0  0  0
  -25.9290  -11.7040   20.5360 N   0  0  0  0  0  0  0  0  0  0  0  0
  -23.9040  -10.4910   21.0180 C   0  0  0  0  0  0  0  0  0  0  0  0
  -24.3210   -9.5320   21.9670 C   0  0  0  0  0  3  0  0  0  0  0  0
  -23.5900   -8.3370   22.1450 C   0  0  0  0  0  3  0  0  0  0  0  0
  -22.4270   -8.0950   21.3740 C   0  0  0  0  0  0  0  0  0  0  0  0
  -22.0310   -9.0440   20.4160 C   0  0  0  0  0  3  0  0  0  0  0  0
  -22.7620  -10.2290   20.2360 C   0  0  0  0  0  3  0  0  0  0  0  0
  -21.6680   -6.9530   21.4610 O   0  0  0  0  0  0  0  0  0  0  0  0
  -21.6010   -6.2210   22.6190 C   0  0  0  0  0  0  0  0  0  0  0  0
  -21.1530   -6.7860   23.8330 C   0  0  0  0  0  3  0  0  0  0  0  0
  -21.0330   -5.9800   24.9830 C   0  0  0  0  0  3  0  0  0  0  0  0
  -21.3490   -4.6100   24.9190 C   0  0  0  0  0  0  0  0  0  0  0  0
  -21.7900   -4.0440   23.7100 C   0  0  0  0  0  3  0  0  0  0  0  0
  -21.9120   -4.8480   22.5620 C   0  0  0  0  0  0  0  0  0  0  0  0
  -22.3160   -4.2920   21.3940 F   0  0  0  0  0  0  0  0  0  0  0  0
  -21.2260   -3.8330   26.0210 F   0  0  0  0  0  0  0  0  0  0  0  0
  -22.7790  -13.5850   21.0930 C   0  0  0  0  0  0  0  0  0  0  0  0
  -22.0370  -12.8970   21.9530 N   0  0  0  0  0  0  0  0  0  0  0  0
  -22.3510  -14.6110   20.5620 O   0  0  0  0  0  0  0  0  0  0  0  0
  -22.3950  -12.0690   22.4050 H   0  0  0  0  0  0  0  0  0  0  0  0
  -21.0980  -13.2030   22.1640 H   0  0  0  0  0  0  0  0  0  0  0  0
  -25.4210  -15.2380   20.2920 N   0  0  0  0  0  0  0  0  0  0  0  0
  -24.6530  -15.8930   20.3870 H   0  0  0  0  0  0  0  0  0  0  0  0
  -26.2730  -15.6730   19.9620 H   0  0  0  0  0  0  0  0  0  0  0  0
  -29.3920  -21.5950   21.0280 O   0  0  0  0  0  0  0  0  0  0  0  0
  -28.6890  -22.6320   20.3000 C   0  0  0  0  0  2  0  0  0  0  0  0
  -29.1040  -24.1110   20.6240 C   0  0  0  0  0  2  0  0  0  0  0  0
  -28.1090  -25.1490   20.0180 C   0  0  0  0  0  2  0  0  0  0  0  0
  -28.3220  -26.5730   20.2590 O   0  0  0  0  0  0  0  0  0  0  0  0
  -24.5730  -31.8980   23.2450 C   0  0  0  0  0  0  0  0  0  0  0  0
  -27.1920  -27.3900   20.1840 C   0  0  0  0  0  0  0  0  0  0  0  0
  -23.3690  -30.5020   21.6020 C   0  0  0  0  0  3  0  0  0  0  0  0
  -24.8200  -28.9650   20.1750 C   0  0  0  0  0  0  0  0  0  0  0  0
  -25.9050  -30.8330   21.4220 C   0  0  0  0  0  2  0  0  0  0  0  0
  -25.9850  -29.4600   20.7760 C   0  0  0  0  0  0  0  0  0  0  0  0
  -27.1740  -28.6810   20.7780 C   0  0  0  0  0  3  0  0  0  0  0  0
  -26.0090  -26.9460   19.5440 C   0  0  0  0  0  3  0  0  0  0  0  0
  -24.8310  -27.7090   19.5540 C   0  0  0  0  0  3  0  0  0  0  0  0
  -23.5820  -29.8310   20.2220 C   0  0  0  0  0  2  0  0  0  0  0  0
  -24.6340  -31.0940   22.1470 N   0  0  0  0  0  0  0  0  0  0  0  0
  -23.4900  -32.1770   23.7790 O   0  0  0  0  0  0  0  0  0  0  0  0
  -22.7100  -29.4800   22.5590 C   0  0  0  0  0  0  0  0  0  0  0  0
  -21.3830  -29.3070   22.4310 N   0  0  0  0  0  0  0  0  0  0  0  0
  -23.3880  -28.8500   23.3740 O   0  0  0  0  0  0  0  0  0  0  0  0
  -20.8980  -29.8690   21.7450 H   0  0  0  0  0  0  0  0  0  0  0  0
  -17.9970  -28.1390   22.9330 C   0  0  0  0  0  0  0  0  0  0  0  0
  -20.5580  -28.3740   23.1990 C   0  0  0  0  0  3  0  0  0  0  0  0
  -20.6470  -26.9450   22.6180 C   0  0  0  0  0  2  0  0  0  0  0  0
  -19.5410  -26.6340   21.6060 C   0  0  0  0  0  2  0  0  0  0  0  0
  -18.1610  -26.7900   22.2530 C   0  0  0  0  0  2  0  0  0  0  0  0
  -19.1250  -28.8900   23.3630 C   0  0  0  0  0  0  0  0  0  0  0  0
  -18.9180  -30.1530   23.9580 C   0  0  0  0  0  3  0  0  0  0  0  0
  -17.6190  -30.6670   24.1270 C   0  0  0  0  0  3  0  0  0  0  0  0
  -16.5070  -29.9140   23.7140 C   0  0  0  0  0  3  0  0  0  0  0  0
  -16.6970  -28.6510   23.1230 C   0  0  0  0  0  3  0  0  0  0  0  0
  -25.8580  -32.5270   23.8680 C   0  0  0  0  0  3  0  0  0  0  0  0
  -25.5500  -33.9250   24.1980 N   0  0  0  0  0  0  0  0  0  0  0  0
  -25.8880  -34.9780   23.4410 C   0  0  0  0  0  0  0  0  0  0  0  0
  -26.5630  -34.8740   22.4130 O   0  0  0  0  0  0  0  0  0  0  0  0
  -24.9530  -34.0800   24.9980 H   0  0  0  0  0  0  0  0  0  0  0  0
  -24.1710  -36.7780   23.0710 C   0  0  0  0  0  1  0  0  0  0  0  0
  -25.4000  -36.3660   23.8970 C   0  0  0  0  0  3  0  0  0  0  0  0
  -27.5280  -37.2380   24.7580 C   0  0  0  0  0  1  0  0  0  0  0  0
  -26.4390  -37.4160   23.8010 N   0  0  0  0  0  0  0  0  0  0  0  0
  -26.0350  -38.3360   23.9480 H   0  0  0  0  0  0  0  0  0  0  0  0
  -26.3730  -31.7530   25.1440 C   0  0  1  0  0  0  0  0  0  0  0  0
  -25.2770  -31.5130   26.2090 C   0  0  0  0  0  1  0  0  0  0  0  0
  -26.9560  -30.3760   24.7500 C   0  0  0  0  0  1  0  0  0  0  0  0
  -27.5220  -32.5470   25.8090 C   0  0  0  0  0  1  0  0  0  0  0  0
  1  3  2  0
  1  5  1  0
  3  4  1  0
  4 10  1  0
  4  2  2  0
  5  6  2  0
  6  2  1  0
  6 49  1  0
  7  3  1  0
  8  9  1  0
  9  5  1  0
 10 20  1  0
 11 20  1  0
 12 17  1  0
 13 14  1  0
 13 12  1  0
 15 14  1  0
 15 24  1  0
 15 16  1  0
 17 11  1  0
 17 16  1  0
 18 11  2  0
 20 19  1  0
 21 22  2  0
 22 41  1  0
 23 22  1  0
 23 26  1  0
 24 21  1  0
 24 25  1  0
 25 23  2  0
 26 27  1  0
 27 28  2  0
 29 32  1  0
 29 28  1  0
 30 29  2  0
 31 30  1  0
 31 26  2  0
 32 33  1  0
 33 34  1  0
 34 35  2  0
 36 35  1  0
 36 40  1  0
 37 36  2  0
 38 33  2  0
 38 37  1  0
 39 38  1  0
 41 42  1  0
 42 45  1  0
 42 44  1  0
 43 41  2  0
 46 47  1  0
 46 21  1  0
 48 46  1  0
 50 51  1  0
 50 49  1  0
 52 53  1  0
 52 51  1  0
 54 65  2  0
 55 53  1  0
 55 60  1  0
 56 64  1  0
 56 66  1  0
 57 63  1  0
 57 59  1  0
 58 64  1  0
 59 60  2  0
 59 58  1  0
 61 62  1  0
 61 55  2  0
 62 57  2  0
 63 56  1  0
 64 54  1  0
 66 68  2  0
 67 66  1  0
 69 67  1  0
 70 79  2  0
 70 75  1  0
 71 67  1  0
 71 75  1  0
 72 71  1  0
 73 74  1  0
 73 72  1  0
 74 70  1  0
 75 76  2  0
 76 77  1  0
 78 77  2  0
 79 78  1  0
 80 54  1  0
 80 81  1  0
 80 90  1  0
 81 84  1  0
 82 86  1  0
 82 81  1  0
 83 82  2  0
 86 85  1  0
 88 86  1  0
 88 89  1  0
 88 87  1  0
 90 93  1  1
 90 91  1  0
 92 90  1  0
M  ISO  4  11 100  20 100  52 101  53 101
M  END
>  <TORSDO>  (73) 
F 22

>  <SCORE>  (73) 
-13.232

>  <name>  (73) 
73

>  <ligand_id>  (73) 
73

>  <original_smiles>  (73) 
[H]c1c([H])c([H])c2c(c1[H])C([H])([H])C([H])([H])C([H])([H])C2([H])N([H])C(=O)C1([H])N(C(=O)C([H])(N([H])C(=O)C([H])(N([H])C([H])([H])[H])C([H])([H])[H])C(C([H])([H])[H])(C([H])([H])[H])C([H])([H])[H])C([H])([H])c2c([H])c(OC([H])([H])C([H])([H])C([H])([H])Oc3c([H])c(C([H])([H])N(C(=O)N4C([H])([H])C([H])([H])C([H])([H])C([H])(n5nc(-c6c([H])c([H])c(Oc7c([H])c([H])c(F)c([H])c7F)c([H])c6[H])c(C(=O)N([H])[H])c5N([H])[H])C4([H])[H])C([H])([H])[H])c(C([H])([H])[H])c([H])c3OC([H])([H])[H])c([H])c([H])c2C1([H])[H]

>  <smiles>  (73) 
[H]c1c([H])c([H])c2c(c1[H])C([H])([H])C([H])([H])C([H])([H])C2([H])N([H])C(=O)C1([H])N(C(=O)C([H])(N([H])C(=O)C([H])(N([H])C([H])([H])[H])C([H])([H])[H])C(C([H])([H])[H])(C([H])([H])[H])C([H])([H])[H])C([H])([H])c2c([H])c(OC([H])([H])C([H])([H])C([H])([H])Oc3c([H])c(C([H])([H])N(C(=O)N4C([H])([H])C([H])([H])C([H])([H])C([H])(n5nc(-c6c([H])c([H])c(Oc7c([H])c([H])c(F)c([H])c7F)c([H])c6[H])c(C(=O)N([H])[H])c5N([H])[H])C4([H])[H])C([H])([H])[H])c(C([H])([H])[H])c([H])c3OC([H])([H])[H])c([H])c([H])c2C1([H])[H]

$$$$
74:0:0
     RDKit          3D

 96105  0  0  1  0  0  0  0  0999 V2000
  -28.6050  -21.7750   19.9050 C   0  0  0  0  0  2  0  0  0  0  0  0
  -30.5170  -25.0100   19.5170 C   0  0  0  0  0  2  0  0  0  0  0  0
  -30.0300  -23.6460   19.0010 C   0  0  0  0  0  2  0  0  0  0  0  0
  -28.9200  -23.9860   21.0470 C   0  0  0  0  0  2  0  0  0  0  0  0
  -29.8450  -25.2100   20.8950 C   0  0  0  0  0  3  0  0  0  0  0  0
  -29.4970  -22.9360   20.1810 N   0  0  1  0  0  4  0  0  0  0  0  0
  -30.2960  -22.5600   20.6670 H   0  0  0  0  0  0  0  0  0  0  0  0
  -29.1440  -26.5760   21.0860 C   0  0  0  0  0  2  0  0  0  0  0  0
  -28.3050  -26.7580   19.9580 O   0  0  0  0  0  0  0  0  0  0  0  0
  -24.5560  -31.9190   23.2300 C   0  0  0  0  0  0  0  0  0  0  0  0
  -27.1760  -27.5240   20.0910 C   0  0  0  0  0  0  0  0  0  0  0  0
  -23.3350  -30.5250   21.5950 C   0  0  0  0  0  3  0  0  0  0  0  0
  -24.7780  -29.0010   20.1490 C   0  0  0  0  0  0  0  0  0  0  0  0
  -25.8540  -30.8930   21.3720 C   0  0  0  0  0  2  0  0  0  0  0  0
  -25.9400  -29.5260   20.7320 C   0  0  0  0  0  0  0  0  0  0  0  0
  -27.1460  -28.7910   20.7150 C   0  0  0  0  0  3  0  0  0  0  0  0
  -26.0060  -27.0120   19.5010 C   0  0  0  0  0  3  0  0  0  0  0  0
  -24.8020  -27.7360   19.5360 C   0  0  0  0  0  3  0  0  0  0  0  0
  -23.5320  -29.8530   20.2090 C   0  0  0  0  0  2  0  0  0  0  0  0
  -24.6000  -31.1260   22.1240 N   0  0  0  0  0  0  0  0  0  0  0  0
  -23.4830  -32.1880   23.7850 O   0  0  0  0  0  0  0  0  0  0  0  0
  -22.6970  -29.4960   22.5540 C   0  0  0  0  0  0  0  0  0  0  0  0
  -21.3730  -29.3060   22.4370 N   0  0  0  0  0  0  0  0  0  0  0  0
  -23.3900  -28.8710   23.3630 O   0  0  0  0  0  0  0  0  0  0  0  0
  -20.8750  -29.8590   21.7530 H   0  0  0  0  0  0  0  0  0  0  0  0
  -18.0110  -28.0810   22.9410 C   0  0  0  0  0  0  0  0  0  0  0  0
  -20.5670  -28.3610   23.2080 C   0  0  0  0  0  3  0  0  0  0  0  0
  -20.6830  -26.9310   22.6340 C   0  0  0  0  0  2  0  0  0  0  0  0
  -19.5810  -26.5960   21.6220 C   0  0  0  0  0  2  0  0  0  0  0  0
  -18.1980  -26.7320   22.2670 C   0  0  0  0  0  2  0  0  0  0  0  0
  -19.1240  -28.8530   23.3680 C   0  0  0  0  0  0  0  0  0  0  0  0
  -18.8980  -30.1170   23.9560 C   0  0  0  0  0  3  0  0  0  0  0  0
  -17.5900  -30.6090   24.1250 C   0  0  0  0  0  3  0  0  0  0  0  0
  -16.4910  -29.8330   23.7120 C   0  0  0  0  0  3  0  0  0  0  0  0
  -16.7010  -28.5720   23.1270 C   0  0  0  0  0  3  0  0  0  0  0  0
  -25.8510  -32.5480   23.8370 C   0  0  0  0  0  3  0  0  0  0  0  0
  -25.5480  -33.9460   24.1680 N   0  0  0  0  0  0  0  0  0  0  0  0
  -25.8730  -34.9960   23.4030 C   0  0  0  0  0  0  0  0  0  0  0  0
  -26.5350  -34.8880   22.3650 O   0  0  0  0  0  0  0  0  0  0  0  0
  -24.9660  -34.1030   24.9770 H   0  0  0  0  0  0  0  0  0  0  0  0
  -24.1500  -36.7950   23.0550 C   0  0  0  0  0  1  0  0  0  0  0  0
  -25.3920  -36.3860   23.8600 C   0  0  0  0  0  3  0  0  0  0  0  0
  -27.5300  -37.2690   24.6810 C   0  0  0  0  0  1  0  0  0  0  0  0
  -26.4250  -37.4360   23.7420 N   0  0  0  0  0  0  0  0  0  0  0  0
  -26.0220  -38.3580   23.8910 H   0  0  0  0  0  0  0  0  0  0  0  0
  -26.3850  -31.7730   25.1040 C   0  0  1  0  0  0  0  0  0  0  0  0
  -25.3060  -31.5310   26.1860 C   0  0  0  0  0  1  0  0  0  0  0  0
  -26.9580  -30.3940   24.6980 C   0  0  0  0  0  1  0  0  0  0  0  0
  -27.5440  -32.5640   25.7540 C   0  0  0  0  0  1  0  0  0  0  0  0
  -28.7130  -19.2330   19.7170 C   0  0  0  0  0  3  0  0  0  0  0  0
  -29.2330  -17.9760   20.0940 C   0  0  0  0  0  3  0  0  0  0  0  0
  -30.2500  -20.3270   21.2520 C   0  0  0  0  0  3  0  0  0  0  0  0
  -29.2150  -20.4220   20.2940 C   0  0  0  0  0  0  0  0  0  0  0  0
  -30.2720  -17.8870   21.0500 C   0  0  0  0  0  0  0  0  0  0  0  0
  -30.7950  -19.0710   21.6190 C   0  0  0  0  0  0  0  0  0  0  0  0
  -32.5020  -20.0830   22.9860 C   0  0  0  0  0  1  0  0  0  0  0  0
  -31.8250  -18.9220   22.5240 O   0  0  0  0  0  0  0  0  0  0  0  0
  -30.8730  -16.5540   21.5080 C   0  0  0  0  0  2  0  0  0  0  0  0
  -30.7960  -14.4340   20.2100 C   0  0  0  0  0  0  0  0  0  0  0  0
  -30.4050  -12.3330   18.9850 C   0  0  0  0  0  2  0  0  0  0  0  0
  -29.4140  -12.5790   17.8300 C   0  0  0  0  0  2  0  0  0  0  0  0
  -27.9580  -12.4450   18.3260 C   0  0  0  0  0  2  0  0  0  0  0  0
  -27.6880  -13.2730   19.6110 C   0  0  0  0  0  3  0  0  0  0  0  0
  -28.7800  -12.9930   20.6680 C   0  0  0  0  0  2  0  0  0  0  0  0
  -30.0870  -13.2860   20.0540 N   0  0  0  0  0  0  0  0  0  0  0  0
  -31.8570  -14.6640   19.6230 O   0  0  0  0  0  0  0  0  0  0  0  0
  -30.2360  -15.3300   21.0290 N   0  0  0  0  0  0  0  0  0  0  0  0
  -29.3530  -15.0720   21.4440 H   0  0  0  0  0  0  0  0  0  0  0  0
  -25.3280  -13.9130   20.4180 C   0  0  0  0  0  0  0  0  0  0  0  0
  -24.2640  -13.1510   20.8240 C   0  0  0  0  0  0  0  0  0  0  0  0
  -24.7070  -11.7940   20.7660 C   0  0  0  0  0  0  0  0  0  0  0  0
  -26.3500  -13.0180   20.1380 N   0  0  0  0  0  0  0  0  0  0  0  0
  -25.9800  -11.7390   20.4030 N   0  0  0  0  0  0  0  0  0  0  0  0
  -23.9750  -10.5390   20.9740 C   0  0  0  0  0  0  0  0  0  0  0  0
  -24.4260   -9.5630   21.8900 C   0  0  0  0  0  3  0  0  0  0  0  0
  -23.6930   -8.3730   22.0860 C   0  0  0  0  0  3  0  0  0  0  0  0
  -22.4930   -8.1520   21.3680 C   0  0  0  0  0  0  0  0  0  0  0  0
  -22.0610   -9.1160   20.4400 C   0  0  0  0  0  3  0  0  0  0  0  0
  -22.7950  -10.2970   20.2420 C   0  0  0  0  0  3  0  0  0  0  0  0
  -21.7310   -7.0140   21.4750 O   0  0  0  0  0  0  0  0  0  0  0  0
  -21.6970   -6.2750   22.6290 C   0  0  0  0  0  0  0  0  0  0  0  0
  -21.2950   -6.8350   23.8620 C   0  0  0  0  0  3  0  0  0  0  0  0
  -21.2080   -6.0230   25.0090 C   0  0  0  0  0  3  0  0  0  0  0  0
  -21.5170   -4.6510   24.9260 C   0  0  0  0  0  0  0  0  0  0  0  0
  -21.9150   -4.0910   23.6990 C   0  0  0  0  0  3  0  0  0  0  0  0
  -22.0020   -4.9010   22.5530 C   0  0  0  0  0  0  0  0  0  0  0  0
  -22.3650   -4.3510   21.3690 F   0  0  0  0  0  0  0  0  0  0  0  0
  -21.4270   -3.8690   26.0260 F   0  0  0  0  0  0  0  0  0  0  0  0
  -22.8870  -13.6450   21.1560 C   0  0  0  0  0  0  0  0  0  0  0  0
  -22.1840  -12.9510   22.0460 N   0  0  0  0  0  0  0  0  0  0  0  0
  -22.4420  -14.6810   20.6660 O   0  0  0  0  0  0  0  0  0  0  0  0
  -22.5550  -12.1140   22.4670 H   0  0  0  0  0  0  0  0  0  0  0  0
  -21.2610  -13.2670   22.3110 H   0  0  0  0  0  0  0  0  0  0  0  0
  -25.5070  -15.2820   20.2450 N   0  0  0  0  0  0  0  0  0  0  0  0
  -24.7540  -15.9470   20.3890 H   0  0  0  0  0  0  0  0  0  0  0  0
  -26.3550  -15.7110   19.8970 H   0  0  0  0  0  0  0  0  0  0  0  0
  1  6  1  0
  1 53  1  0
  2  5  1  0
  3  2  1  0
  3  6  1  0
  5  4  1  0
  5  8  1  0
  6  7  1  1
  6  4  1  0
  9 11  1  0
  9  8  1  0
 10 21  2  0
 11 16  1  0
 12 20  1  0
 12 22  1  0
 13 19  1  0
 13 15  1  0
 14 20  1  0
 15 14  1  0
 16 15  2  0
 17 18  1  0
 17 11  2  0
 18 13  2  0
 19 12  1  0
 20 10  1  0
 22 24  2  0
 23 22  1  0
 25 23  1  0
 26 35  2  0
 26 31  1  0
 27 23  1  0
 27 31  1  0
 28 27  1  0
 29 30  1  0
 29 28  1  0
 30 26  1  0
 31 32  2  0
 32 33  1  0
 34 33  2  0
 35 34  1  0
 36 10  1  0
 36 37  1  0
 36 46  1  0
 37 40  1  0
 38 42  1  0
 38 37  1  0
 39 38  2  0
 42 41  1  0
 44 42  1  0
 44 45  1  0
 44 43  1  0
 46 49  1  1
 46 47  1  0
 48 46  1  0
 50 51  2  0
 50 53  1  0
 51 54  1  0
 52 55  1  0
 53 52  2  0
 54 58  1  0
 54 55  2  0
 55 57  1  0
 57 56  1  0
 59 67  1  0
 60 65  1  0
 61 62  1  0
 61 60  1  0
 63 62  1  0
 63 72  1  0
 63 64  1  0
 65 59  1  0
 65 64  1  0
 66 59  2  0
 67 68  1  0
 67 58  1  0
 69 70  2  0
 70 89  1  0
 71 70  1  0
 71 74  1  0
 72 73  1  0
 72 69  1  0
 73 71  2  0
 74 75  1  0
 75 76  2  0
 77 80  1  0
 77 76  1  0
 78 77  2  0
 79 78  1  0
 79 74  2  0
 80 81  1  0
 81 82  1  0
 82 83  2  0
 84 83  1  0
 84 88  1  0
 85 84  2  0
 86 81  2  0
 86 85  1  0
 87 86  1  0
 89 90  1  0
 90 93  1  0
 90 92  1  0
 91 89  2  0
 94 95  1  0
 94 69  1  0
 96 94  1  0
M  ISO  4   8 101   9 101  59 100  67 100
M  END
>  <TORSDO>  (74) 
F 21

>  <SCORE>  (74) 
-13.794

>  <name>  (74) 
74

>  <ligand_id>  (74) 
74

>  <original_smiles>  (74) 
[H]c1c([H])c([H])c2c(c1[H])C([H])([H])C([H])([H])C([H])([H])C2([H])N([H])C(=O)C1([H])N(C(=O)C([H])(N([H])C(=O)C([H])(N([H])C([H])([H])[H])C([H])([H])[H])C(C([H])([H])[H])(C([H])([H])[H])C([H])([H])[H])C([H])([H])c2c([H])c(OC([H])([H])C3([H])C([H])([H])C([H])([H])[N+]([H])(C([H])([H])c4c([H])c([H])c(C([H])([H])N([H])C(=O)N5C([H])([H])C([H])([H])C([H])([H])C([H])(n6nc(-c7c([H])c([H])c(Oc8c([H])c([H])c(F)c([H])c8F)c([H])c7[H])c(C(=O)N([H])[H])c6N([H])[H])C5([H])[H])c(OC([H])([H])[H])c4[H])C3([H])[H])c([H])c([H])c2C1([H])[H]

>  <smiles>  (74) 
[H]c1c([H])c([H])c2c(c1[H])C([H])([H])C([H])([H])C([H])([H])C2([H])N([H])C(=O)C1([H])N(C(=O)C([H])(N([H])C(=O)C([H])(N([H])C([H])([H])[H])C([H])([H])[H])C(C([H])([H])[H])(C([H])([H])[H])C([H])([H])[H])C([H])([H])c2c([H])c(OC([H])([H])C3([H])C([H])([H])C([H])([H])[N+]([H])(C([H])([H])c4c([H])c([H])c(C([H])([H])N([H])C(=O)N5C([H])([H])C([H])([H])C([H])([H])C([H])(n6nc(-c7c([H])c([H])c(Oc8c([H])c([H])c(F)c([H])c8F)c([H])c7[H])c(C(=O)N([H])[H])c6N([H])[H])C5([H])[H])c(OC([H])([H])[H])c4[H])C3([H])[H])c([H])c([H])c2C1([H])[H]

$$$$
75:0:0
     RDKit          3D

 96105  0  0  1  0  0  0  0  0999 V2000
  -31.4140  -22.1650   19.9160 C   0  0  0  0  0  0  0  0  0  0  0  0
  -31.7510  -23.5430   20.5140 C   0  0  0  0  0  2  0  0  0  0  0  0
  -31.0770  -24.7260   19.7900 C   0  0  0  0  0  2  0  0  0  0  0  0
  -29.4300  -23.1340   18.7820 C   0  0  0  0  0  2  0  0  0  0  0  0
  -29.5800  -24.4570   19.5590 C   0  0  0  0  0  3  0  0  0  0  0  0
  -30.2380  -21.9940   19.2630 N   0  0  0  0  0  0  0  0  0  0  0  0
  -32.2400  -21.2580   20.0820 O   0  0  0  0  0  0  0  0  0  0  0  0
  -29.8070  -20.7420   18.6020 C   0  0  0  0  0  2  0  0  0  0  0  0
  -30.2590  -18.2740   18.3740 C   0  0  0  0  0  3  0  0  0  0  0  0
  -30.4450  -16.9840   18.8860 C   0  0  0  0  0  3  0  0  0  0  0  0
  -30.3690  -17.8730   21.1440 C   0  0  0  0  0  3  0  0  0  0  0  0
  -30.1160  -19.3810   19.2320 C   0  0  0  0  0  0  0  0  0  0  0  0
  -30.5380  -16.7490   20.2820 C   0  0  0  0  0  0  0  0  0  0  0  0
  -30.1540  -19.1840   20.6330 C   0  0  0  0  0  0  0  0  0  0  0  0
  -31.3210  -14.4210   20.0350 C   0  0  0  0  0  0  0  0  0  0  0  0
  -30.8530  -12.3270   18.7980 C   0  0  0  0  0  2  0  0  0  0  0  0
  -29.8480  -12.5840   17.6570 C   0  0  0  0  0  2  0  0  0  0  0  0
  -28.3950  -12.4820   18.1680 C   0  0  0  0  0  2  0  0  0  0  0  0
  -28.1600  -13.2900   19.4720 C   0  0  0  0  0  3  0  0  0  0  0  0
  -29.2650  -13.0170   20.5040 C   0  0  0  0  0  2  0  0  0  0  0  0
  -30.5650  -13.2970   19.8710 N   0  0  0  0  0  0  0  0  0  0  0  0
  -32.3870  -14.5800   19.4260 O   0  0  0  0  0  0  0  0  0  0  0  0
  -30.8440  -15.2390   22.2610 C   0  0  0  0  0  1  0  0  0  0  0  0
  -30.7960  -15.4160   20.8020 N   0  0  0  0  0  0  0  0  0  0  0  0
  -25.8540  -13.9570   20.3900 C   0  0  0  0  0  0  0  0  0  0  0  0
  -24.7830  -13.2140   20.8080 C   0  0  0  0  0  0  0  0  0  0  0  0
  -25.1810  -11.8480   20.6880 C   0  0  0  0  0  0  0  0  0  0  0  0
  -26.8330  -13.0460   20.0330 N   0  0  0  0  0  0  0  0  0  0  0  0
  -26.4360  -11.7690   20.2660 N   0  0  0  0  0  0  0  0  0  0  0  0
  -24.4210  -10.6050   20.8900 C   0  0  0  0  0  0  0  0  0  0  0  0
  -24.8050   -9.6460   21.8540 C   0  0  0  0  0  3  0  0  0  0  0  0
  -24.0440   -8.4700   22.0340 C   0  0  0  0  0  3  0  0  0  0  0  0
  -22.8890   -8.2420   21.2480 C   0  0  0  0  0  0  0  0  0  0  0  0
  -22.5250   -9.1900   20.2760 C   0  0  0  0  0  3  0  0  0  0  0  0
  -23.2850  -10.3580   20.0940 C   0  0  0  0  0  3  0  0  0  0  0  0
  -22.1110   -7.1130   21.3300 O   0  0  0  0  0  0  0  0  0  0  0  0
  -21.9130   -6.4630   22.5230 C   0  0  0  0  0  0  0  0  0  0  0  0
  -21.3560   -7.1200   23.6440 C   0  0  0  0  0  3  0  0  0  0  0  0
  -21.1040   -6.3970   24.8270 C   0  0  0  0  0  3  0  0  0  0  0  0
  -21.3990   -5.0220   24.8890 C   0  0  0  0  0  0  0  0  0  0  0  0
  -21.9460   -4.3640   23.7730 C   0  0  0  0  0  3  0  0  0  0  0  0
  -22.2010   -5.0860   22.5910 C   0  0  0  0  0  0  0  0  0  0  0  0
  -22.7130   -4.4470   21.5120 F   0  0  0  0  0  0  0  0  0  0  0  0
  -21.1470   -4.3260   26.0210 F   0  0  0  0  0  0  0  0  0  0  0  0
  -23.4360  -13.7370   21.2090 C   0  0  0  0  0  0  0  0  0  0  0  0
  -22.7630  -13.0640   22.1360 N   0  0  0  0  0  0  0  0  0  0  0  0
  -22.9930  -14.7780   20.7300 O   0  0  0  0  0  0  0  0  0  0  0  0
  -23.1370  -12.2200   22.5410 H   0  0  0  0  0  0  0  0  0  0  0  0
  -21.8590  -13.4030   22.4410 H   0  0  0  0  0  0  0  0  0  0  0  0
  -26.0700  -15.3270   20.2690 N   0  0  0  0  0  0  0  0  0  0  0  0
  -25.3450  -16.0130   20.4500 H   0  0  0  0  0  0  0  0  0  0  0  0
  -26.9120  -15.7330   19.8780 H   0  0  0  0  0  0  0  0  0  0  0  0
  -29.8240  -20.1620   22.8300 C   0  0  0  0  0  1  0  0  0  0  0  0
  -29.9750  -20.3070   21.4210 O   0  0  0  0  0  0  0  0  0  0  0  0
  -28.8510  -25.5990   18.7960 C   0  0  0  0  0  2  0  0  0  0  0  0
  -28.6120  -26.7440   19.6300 O   0  0  0  0  0  0  0  0  0  0  0  0
  -24.6250  -31.6210   22.9440 C   0  0  0  0  0  0  0  0  0  0  0  0
  -27.3810  -27.3850   19.6460 C   0  0  0  0  0  0  0  0  0  0  0  0
  -23.4410  -30.2520   21.2590 C   0  0  0  0  0  3  0  0  0  0  0  0
  -24.9220  -28.8110   19.7660 C   0  0  0  0  0  0  0  0  0  0  0  0
  -25.9540  -30.6860   21.0510 C   0  0  0  0  0  2  0  0  0  0  0  0
  -26.0730  -29.3450   20.3580 C   0  0  0  0  0  0  0  0  0  0  0  0
  -27.2950  -28.6370   20.3000 C   0  0  0  0  0  3  0  0  0  0  0  0
  -26.1940  -26.8550   19.0760 C   0  0  0  0  0  3  0  0  0  0  0  0
  -24.9770  -27.5590   19.1340 C   0  0  0  0  0  3  0  0  0  0  0  0
  -23.6570  -29.6330   19.8530 C   0  0  0  0  0  2  0  0  0  0  0  0
  -24.6930  -30.8650   21.8100 N   0  0  0  0  0  0  0  0  0  0  0  0
  -23.5430  -31.8440   23.5030 O   0  0  0  0  0  0  0  0  0  0  0  0
  -22.8300  -29.1760   22.1850 C   0  0  0  0  0  0  0  0  0  0  0  0
  -21.5040  -28.9880   22.0860 N   0  0  0  0  0  0  0  0  0  0  0  0
  -23.5440  -28.5180   22.9460 O   0  0  0  0  0  0  0  0  0  0  0  0
  -20.9890  -29.5700   21.4410 H   0  0  0  0  0  0  0  0  0  0  0  0
  -18.1480  -27.7800   22.6630 C   0  0  0  0  0  0  0  0  0  0  0  0
  -20.7180  -28.0030   22.8280 C   0  0  0  0  0  3  0  0  0  0  0  0
  -20.7800  -26.6150   22.1490 C   0  0  0  0  0  2  0  0  0  0  0  0
  -19.6280  -26.3700   21.1710 C   0  0  0  0  0  2  0  0  0  0  0  0
  -18.2790  -26.4780   21.8900 C   0  0  0  0  0  2  0  0  0  0  0  0
  -19.2930  -28.5050   23.0890 C   0  0  0  0  0  0  0  0  0  0  0  0
  -19.1150  -29.7270   23.7730 C   0  0  0  0  0  3  0  0  0  0  0  0
  -17.8240  -30.2230   24.0350 C   0  0  0  0  0  3  0  0  0  0  0  0
  -16.6940  -29.4940   23.6250 C   0  0  0  0  0  3  0  0  0  0  0  0
  -16.8570  -28.2750   22.9450 C   0  0  0  0  0  3  0  0  0  0  0  0
  -25.9010  -32.2630   23.5730 C   0  0  0  0  0  3  0  0  0  0  0  0
  -26.4820  -31.4310   24.7820 C   0  0  1  0  0  0  0  0  0  0  0  0
  -25.4300  -31.0760   25.8590 C   0  0  0  0  0  1  0  0  0  0  0  0
  -27.1070  -30.1080   24.2800 C   0  0  0  0  0  1  0  0  0  0  0  0
  -27.6180  -32.2250   25.4690 C   0  0  0  0  0  1  0  0  0  0  0  0
  -25.5490  -33.6240   24.0040 N   0  0  0  0  0  0  0  0  0  0  0  0
  -25.8650  -34.7390   23.3330 C   0  0  0  0  0  0  0  0  0  0  0  0
  -26.5590  -34.7320   22.3130 O   0  0  0  0  0  0  0  0  0  0  0  0
  -24.9320  -33.6980   24.8000 H   0  0  0  0  0  0  0  0  0  0  0  0
  -24.1030  -36.5110   23.0590 C   0  0  0  0  0  1  0  0  0  0  0  0
  -25.3260  -36.0740   23.8790 C   0  0  0  0  0  3  0  0  0  0  0  0
  -27.4090  -36.9380   24.8510 C   0  0  0  0  0  1  0  0  0  0  0  0
  -26.3330  -37.1570   23.8870 N   0  0  0  0  0  0  0  0  0  0  0  0
  -25.8990  -38.0500   24.0990 H   0  0  0  0  0  0  0  0  0  0  0  0
  1  7  2  0
  1  2  1  0
  3  2  1  0
  4  6  1  0
  4  5  1  0
  5 55  1  0
  5  3  1  0
  6  1  1  0
  8 12  1  0
  8  6  1  0
  9 10  2  0
  9 12  1  0
 10 13  1  0
 12 14  2  0
 13 24  1  0
 13 11  2  0
 14 11  1  0
 14 54  1  0
 15 24  1  0
 16 21  1  0
 17 18  1  0
 17 16  1  0
 19 18  1  0
 19 28  1  0
 19 20  1  0
 21 15  1  0
 21 20  1  0
 22 15  2  0
 24 23  1  0
 25 26  2  0
 26 45  1  0
 27 26  1  0
 27 30  1  0
 28 29  1  0
 28 25  1  0
 29 27  2  0
 30 31  1  0
 31 32  2  0
 33 36  1  0
 33 32  1  0
 34 33  2  0
 35 34  1  0
 35 30  2  0
 36 37  1  0
 37 42  2  0
 37 38  1  0
 38 39  2  0
 39 40  1  0
 40 44  1  0
 41 40  2  0
 42 41  1  0
 43 42  1  0
 45 46  1  0
 46 49  1  0
 46 48  1  0
 47 45  2  0
 50 25  1  0
 50 51  1  0
 52 50  1  0
 54 53  1  0
 55 56  1  0
 56 58  1  0
 57 68  2  0
 58 63  1  0
 59 67  1  0
 59 69  1  0
 60 66  1  0
 60 62  1  0
 61 67  1  0
 62 61  1  0
 63 62  2  0
 64 65  1  0
 64 58  2  0
 65 60  2  0
 66 59  1  0
 67 57  1  0
 69 71  2  0
 70 69  1  0
 72 70  1  0
 73 82  2  0
 73 78  1  0
 74 70  1  0
 74 78  1  0
 75 74  1  0
 76 77  1  0
 76 75  1  0
 77 73  1  0
 78 79  2  0
 79 80  1  0
 81 80  2  0
 82 81  1  0
 83 57  1  0
 83 88  1  0
 83 84  1  0
 84 87  1  1
 84 85  1  0
 86 84  1  0
 88 91  1  0
 89 93  1  0
 89 88  1  0
 90 89  2  0
 93 92  1  0
 93 95  1  0
 95 96  1  0
 95 94  1  0
M  ISO  4  15 100  24 100  55 101  56 101
M  END
>  <TORSDO>  (75) 
F 20

>  <SCORE>  (75) 
-11.581

>  <name>  (75) 
75

>  <ligand_id>  (75) 
75

>  <original_smiles>  (75) 
[H]c1c([H])c([H])c2c(c1[H])C([H])([H])C([H])([H])C([H])([H])C2([H])N([H])C(=O)C1([H])N(C(=O)C([H])(N([H])C(=O)C([H])(N([H])C([H])([H])[H])C([H])([H])[H])C(C([H])([H])[H])(C([H])([H])[H])C([H])([H])[H])C([H])([H])c2c([H])c(OC([H])([H])C3([H])C([H])([H])N(C([H])([H])c4c([H])c([H])c(N(C(=O)N5C([H])([H])C([H])([H])C([H])([H])C([H])(n6nc(-c7c([H])c([H])c(Oc8c([H])c([H])c(F)c([H])c8F)c([H])c7[H])c(C(=O)N([H])[H])c6N([H])[H])C5([H])[H])C([H])([H])[H])c([H])c4OC([H])([H])[H])C(=O)C([H])([H])C3([H])[H])c([H])c([H])c2C1([H])[H]

>  <smiles>  (75) 
[H]c1c([H])c([H])c2c(c1[H])C([H])([H])C([H])([H])C([H])([H])C2([H])N([H])C(=O)C1([H])N(C(=O)C([H])(N([H])C(=O)C([H])(N([H])C([H])([H])[H])C([H])([H])[H])C(C([H])([H])[H])(C([H])([H])[H])C([H])([H])[H])C([H])([H])c2c([H])c(OC([H])([H])C3([H])C([H])([H])N(C([H])([H])c4c([H])c([H])c(N(C(=O)N5C([H])([H])C([H])([H])C([H])([H])C([H])(n6nc(-c7c([H])c([H])c(Oc8c([H])c([H])c(F)c([H])c8F)c([H])c7[H])c(C(=O)N([H])[H])c6N([H])[H])C5([H])[H])C([H])([H])[H])c([H])c4OC([H])([H])[H])C(=O)C([H])([H])C3([H])[H])c([H])c([H])c2C1([H])[H]

$$$$
76:0:0
     RDKit          3D

 93101  0  0  1  0  0  0  0  0999 V2000
  -29.9310  -22.1680   20.6160 C   0  0  0  0  0  0  0  0  0  0  0  0
  -30.3730  -21.1840   21.4160 N   0  0  0  0  0  0  0  0  0  0  0  0
  -29.8040  -22.0580   19.3940 O   0  0  0  0  0  0  0  0  0  0  0  0
  -30.6070  -21.4770   22.3570 H   0  0  0  0  0  0  0  0  0  0  0  0
  -29.7230  -19.1410   20.1250 C   0  0  0  0  0  3  0  0  0  0  0  0
  -31.0330  -18.9700   22.1630 C   0  0  0  0  0  3  0  0  0  0  0  0
  -29.6030  -17.7360   20.0710 C   0  0  0  0  0  0  0  0  0  0  0  0
  -30.1680  -16.9400   21.1020 C   0  0  0  0  0  0  0  0  0  0  0  0
  -30.3980  -19.7740   21.1960 C   0  0  0  0  0  0  0  0  0  0  0  0
  -30.9240  -17.5670   22.1180 C   0  0  0  0  0  0  0  0  0  0  0  0
  -28.7930  -17.1280   18.9370 C   0  0  0  0  0  1  0  0  0  0  0  0
  -31.4870  -16.8290   23.1050 F   0  0  0  0  0  0  0  0  0  0  0  0
  -29.8130  -15.4590   21.2590 C   0  0  0  0  0  2  0  0  0  0  0  0
  -30.4040  -14.4820   20.2210 C   0  0  0  0  0  0  0  0  0  0  0  0
  -30.1070  -12.4020   18.9030 C   0  0  0  0  0  2  0  0  0  0  0  0
  -29.0720  -12.6220   17.7810 C   0  0  0  0  0  2  0  0  0  0  0  0
  -27.6320  -12.4200   18.2970 C   0  0  0  0  0  2  0  0  0  0  0  0
  -27.3590  -13.1890   19.6170 C   0  0  0  0  0  3  0  0  0  0  0  0
  -28.4860  -12.9000   20.6330 C   0  0  0  0  0  2  0  0  0  0  0  0
  -29.7630  -13.2990   20.0150 N   0  0  0  0  0  0  0  0  0  0  0  0
  -31.4160  -14.8040   19.5860 O   0  0  0  0  0  0  0  0  0  0  0  0
  -24.9800  -13.7240   20.4570 C   0  0  0  0  0  0  0  0  0  0  0  0
  -23.9540  -12.9150   20.8680 C   0  0  0  0  0  0  0  0  0  0  0  0
  -24.4490  -11.5790   20.7830 C   0  0  0  0  0  0  0  0  0  0  0  0
  -26.0370  -12.8760   20.1570 N   0  0  0  0  0  0  0  0  0  0  0  0
  -25.7210  -11.5810   20.4040 N   0  0  0  0  0  0  0  0  0  0  0  0
  -23.7710  -10.2930   20.9860 C   0  0  0  0  0  0  0  0  0  0  0  0
  -24.2590   -9.3400   21.9070 C   0  0  0  0  0  3  0  0  0  0  0  0
  -23.5790   -8.1170   22.0980 C   0  0  0  0  0  3  0  0  0  0  0  0
  -22.3990   -7.8400   21.3690 C   0  0  0  0  0  0  0  0  0  0  0  0
  -21.9310   -8.7840   20.4380 C   0  0  0  0  0  3  0  0  0  0  0  0
  -22.6110   -9.9980   20.2440 C   0  0  0  0  0  3  0  0  0  0  0  0
  -21.6870   -6.6690   21.4700 O   0  0  0  0  0  0  0  0  0  0  0  0
  -21.6760   -5.9320   22.6270 C   0  0  0  0  0  0  0  0  0  0  0  0
  -21.2040   -6.4670   23.8460 C   0  0  0  0  0  3  0  0  0  0  0  0
  -21.1440   -5.6520   24.9950 C   0  0  0  0  0  3  0  0  0  0  0  0
  -21.5470   -4.3050   24.9260 C   0  0  0  0  0  0  0  0  0  0  0  0
  -22.0120   -3.7700   23.7110 C   0  0  0  0  0  3  0  0  0  0  0  0
  -22.0730   -4.5810   22.5650 C   0  0  0  0  0  0  0  0  0  0  0  0
  -22.5030   -4.0560   21.3930 F   0  0  0  0  0  0  0  0  0  0  0  0
  -21.4820   -3.5200   26.0270 F   0  0  0  0  0  0  0  0  0  0  0  0
  -22.5620  -13.3480   21.2290 C   0  0  0  0  0  0  0  0  0  0  0  0
  -21.9040  -12.6130   22.1200 N   0  0  0  0  0  0  0  0  0  0  0  0
  -22.0650  -14.3690   20.7560 O   0  0  0  0  0  0  0  0  0  0  0  0
  -22.3200  -11.7860   22.5220 H   0  0  0  0  0  0  0  0  0  0  0  0
  -20.9740  -12.8820   22.4050 H   0  0  0  0  0  0  0  0  0  0  0  0
  -25.0950  -15.1010   20.2990 N   0  0  0  0  0  0  0  0  0  0  0  0
  -24.3170  -15.7300   20.4650 H   0  0  0  0  0  0  0  0  0  0  0  0
  -25.9170  -15.5730   19.9450 H   0  0  0  0  0  0  0  0  0  0  0  0
  -29.6280  -23.5030   21.3100 C   0  0  0  0  0  2  0  0  0  0  0  0
  -29.2080  -24.6340   20.3490 C   0  0  0  0  0  2  0  0  0  0  0  0
  -28.6670  -25.8740   21.0780 C   0  0  0  0  0  2  0  0  0  0  0  0
  -28.4780  -26.9090   20.1230 O   0  0  0  0  0  0  0  0  0  0  0  0
  -24.5280  -31.9320   23.2760 C   0  0  0  0  0  0  0  0  0  0  0  0
  -27.2830  -27.5770   20.2000 C   0  0  0  0  0  0  0  0  0  0  0  0
  -23.3610  -30.5220   21.6080 C   0  0  0  0  0  3  0  0  0  0  0  0
  -24.8550  -29.0080   20.2010 C   0  0  0  0  0  0  0  0  0  0  0  0
  -25.8790  -30.9270   21.4400 C   0  0  0  0  0  2  0  0  0  0  0  0
  -25.9950  -29.5590   20.8040 C   0  0  0  0  0  0  0  0  0  0  0  0
  -27.2130  -28.8480   20.8040 C   0  0  0  0  0  3  0  0  0  0  0  0
  -26.1320  -27.0240   19.6040 C   0  0  0  0  0  3  0  0  0  0  0  0
  -24.9160  -27.7360   19.6030 C   0  0  0  0  0  3  0  0  0  0  0  0
  -23.5980  -29.8470   20.2290 C   0  0  0  0  0  2  0  0  0  0  0  0
  -24.6060  -31.1410   22.1670 N   0  0  0  0  0  0  0  0  0  0  0  0
  -23.4380  -32.1850   23.8050 O   0  0  0  0  0  0  0  0  0  0  0  0
  -22.7120  -29.4870   22.5550 C   0  0  0  0  0  0  0  0  0  0  0  0
  -21.3910  -29.2980   22.4160 N   0  0  0  0  0  0  0  0  0  0  0  0
  -23.3960  -28.8580   23.3670 O   0  0  0  0  0  0  0  0  0  0  0  0
  -20.9020  -29.8590   21.7320 H   0  0  0  0  0  0  0  0  0  0  0  0
  -18.0150  -28.1110   22.9070 C   0  0  0  0  0  0  0  0  0  0  0  0
  -20.5750  -28.3470   23.1710 C   0  0  0  0  0  3  0  0  0  0  0  0
  -20.6660  -26.9290   22.5610 C   0  0  0  0  0  2  0  0  0  0  0  0
  -19.5570  -26.6370   21.5460 C   0  0  0  0  0  2  0  0  0  0  0  0
  -18.1790  -26.7760   22.2010 C   0  0  0  0  0  2  0  0  0  0  0  0
  -19.1400  -28.8560   23.3480 C   0  0  0  0  0  0  0  0  0  0  0  0
  -18.9330  -30.1080   23.9660 C   0  0  0  0  0  3  0  0  0  0  0  0
  -17.6320  -30.6150   24.1490 C   0  0  0  0  0  3  0  0  0  0  0  0
  -16.5210  -29.8670   23.7240 C   0  0  0  0  0  3  0  0  0  0  0  0
  -16.7130  -28.6160   23.1090 C   0  0  0  0  0  3  0  0  0  0  0  0
  -25.7990  -32.5730   23.9140 C   0  0  0  0  0  3  0  0  0  0  0  0
  -25.4870  -33.9780   24.2050 N   0  0  0  0  0  0  0  0  0  0  0  0
  -25.8530  -35.0120   23.4370 C   0  0  0  0  0  0  0  0  0  0  0  0
  -26.5620  -34.8860   22.4330 O   0  0  0  0  0  0  0  0  0  0  0  0
  -24.8650  -34.1530   24.9800 H   0  0  0  0  0  0  0  0  0  0  0  0
  -24.1600  -36.8100   22.9660 C   0  0  0  0  0  1  0  0  0  0  0  0
  -25.3550  -36.4120   23.8460 C   0  0  0  0  0  3  0  0  0  0  0  0
  -27.4520  -37.2960   24.7670 C   0  0  0  0  0  1  0  0  0  0  0  0
  -26.4010  -37.4550   23.7660 N   0  0  0  0  0  0  0  0  0  0  0  0
  -25.9950  -38.3810   23.8780 H   0  0  0  0  0  0  0  0  0  0  0  0
  -26.2840  -31.8270   25.2180 C   0  0  1  0  0  0  0  0  0  0  0  0
  -25.1650  -31.6080   26.2610 C   0  0  0  0  0  1  0  0  0  0  0  0
  -26.8790  -30.4450   24.8630 C   0  0  0  0  0  1  0  0  0  0  0  0
  -27.4170  -32.6350   25.8940 C   0  0  0  0  0  1  0  0  0  0  0  0
  1 50  1  0
  1  2  1  0
  2  4  1  0
  3  1  2  0
  5  9  1  0
  7  5  2  0
  7  8  1  0
  8 13  1  0
  8 10  2  0
  9  2  1  0
  9  6  2  0
 10  6  1  0
 10 12  1  0
 11  7  1  0
 14 13  1  0
 15 20  1  0
 16 17  1  0
 16 15  1  0
 18 17  1  0
 18 25  1  0
 18 19  1  0
 20 14  1  0
 20 19  1  0
 21 14  2  0
 22 23  2  0
 23 42  1  0
 24 23  1  0
 24 27  1  0
 25 26  1  0
 25 22  1  0
 26 24  2  0
 27 28  1  0
 28 29  2  0
 30 33  1  0
 30 29  1  0
 31 30  2  0
 32 31  1  0
 32 27  2  0
 33 34  1  0
 34 35  1  0
 35 36  2  0
 37 36  1  0
 37 41  1  0
 38 37  2  0
 39 34  2  0
 39 38  1  0
 40 39  1  0
 42 43  1  0
 43 46  1  0
 43 45  1  0
 44 42  2  0
 47 22  1  0
 47 48  1  0
 49 47  1  0
 51 52  1  0
 51 50  1  0
 53 55  1  0
 53 52  1  0
 54 65  2  0
 55 60  1  0
 56 64  1  0
 56 66  1  0
 57 63  1  0
 57 59  1  0
 58 64  1  0
 59 60  2  0
 59 58  1  0
 61 55  2  0
 62 61  1  0
 62 57  2  0
 63 56  1  0
 64 54  1  0
 66 68  2  0
 67 66  1  0
 69 67  1  0
 70 79  2  0
 70 75  1  0
 71 67  1  0
 71 75  1  0
 72 71  1  0
 73 74  1  0
 73 72  1  0
 74 70  1  0
 75 76  2  0
 76 77  1  0
 78 77  2  0
 79 78  1  0
 80 54  1  0
 80 81  1  0
 80 90  1  0
 81 84  1  0
 82 86  1  0
 82 81  1  0
 83 82  2  0
 86 85  1  0
 88 86  1  0
 88 89  1  0
 88 87  1  0
 90 93  1  1
 90 91  1  0
 92 90  1  0
M  ISO  4  13 100  14 100  52 101  53 101
M  END
>  <TORSDO>  (76) 
F 21

>  <SCORE>  (76) 
-13.086

>  <name>  (76) 
76

>  <ligand_id>  (76) 
76

>  <original_smiles>  (76) 
[H]c1c([H])c([H])c2c(c1[H])C([H])([H])C([H])([H])C([H])([H])C2([H])N([H])C(=O)C1([H])N(C(=O)C([H])(N([H])C(=O)C([H])(N([H])C([H])([H])[H])C([H])([H])[H])C(C([H])([H])[H])(C([H])([H])[H])C([H])([H])[H])C([H])([H])c2c([H])c(OC([H])([H])C([H])([H])C([H])([H])C(=O)N([H])c3c([H])c(F)c(C([H])([H])C(=O)N4C([H])([H])C([H])([H])C([H])([H])C([H])(n5nc(-c6c([H])c([H])c(Oc7c([H])c([H])c(F)c([H])c7F)c([H])c6[H])c(C(=O)N([H])[H])c5N([H])[H])C4([H])[H])c(C([H])([H])[H])c3[H])c([H])c([H])c2C1([H])[H]

>  <smiles>  (76) 
[H]c1c([H])c([H])c2c(c1[H])C([H])([H])C([H])([H])C([H])([H])C2([H])N([H])C(=O)C1([H])N(C(=O)C([H])(N([H])C(=O)C([H])(N([H])C([H])([H])[H])C([H])([H])[H])C(C([H])([H])[H])(C([H])([H])[H])C([H])([H])[H])C([H])([H])c2c([H])c(OC([H])([H])C([H])([H])C([H])([H])C(=O)N([H])c3c([H])c(F)c(C([H])([H])C(=O)N4C([H])([H])C([H])([H])C([H])([H])C([H])(n5nc(-c6c([H])c([H])c(Oc7c([H])c([H])c(F)c([H])c7F)c([H])c6[H])c(C(=O)N([H])[H])c5N([H])[H])C4([H])[H])c(C([H])([H])[H])c3[H])c([H])c([H])c2C1([H])[H]

$$$$
77:0:0
     RDKit          3D

 94103  0  0  1  0  0  0  0  0999 V2000
  -31.3230  -21.0920   20.0500 C   0  0  0  0  0  0  0  0  0  0  0  0
  -30.5400  -24.6550   19.3690 C   0  0  0  0  0  2  0  0  0  0  0  0
  -31.4910  -23.4720   19.5130 C   0  0  0  0  0  2  0  0  0  0  0  0
  -29.3300  -22.7710   20.2500 C   0  0  0  0  0  2  0  0  0  0  0  0
  -29.4100  -24.3380   20.3320 C   0  0  0  0  0  3  0  0  0  0  0  0
  -30.6970  -22.3040   19.9240 N   0  0  0  0  0  0  0  0  0  0  0  0
  -32.5380  -21.0040   19.8280 O   0  0  0  0  0  0  0  0  0  0  0  0
  -29.9240  -19.0410   19.4650 C   0  0  0  0  0  3  0  0  0  0  0  0
  -30.6950  -17.7280   21.8130 C   0  0  0  0  0  3  0  0  0  0  0  0
  -30.6470  -19.7810   20.4350 C   0  0  0  0  0  0  0  0  0  0  0  0
  -29.6290  -17.6580   19.6410 C   0  0  0  0  0  0  0  0  0  0  0  0
  -31.0030  -19.1030   21.6380 C   0  0  0  0  0  0  0  0  0  0  0  0
  -30.0670  -16.9660   20.8050 C   0  0  0  0  0  0  0  0  0  0  0  0
  -28.8680  -16.9190   18.5520 C   0  0  0  0  0  1  0  0  0  0  0  0
  -31.7770  -19.8100   22.7420 C   0  0  0  0  0  1  0  0  0  0  0  0
  -29.7980  -15.6140   21.0180 O   0  0  0  0  0  0  0  0  0  0  0  0
  -30.6570  -14.6070   20.5920 C   0  0  0  0  0  0  0  0  0  0  0  0
  -30.3810  -12.4290   19.4110 C   0  0  0  0  0  2  0  0  0  0  0  0
  -29.4570  -12.6830   18.2000 C   0  0  0  0  0  2  0  0  0  0  0  0
  -27.9740  -12.5560   18.5990 C   0  0  0  0  0  2  0  0  0  0  0  0
  -27.6250  -13.3570   19.8810 C   0  0  0  0  0  3  0  0  0  0  0  0
  -28.6520  -13.0960   21.0030 C   0  0  0  0  0  2  0  0  0  0  0  0
  -29.9910  -13.3730   20.4700 N   0  0  0  0  0  0  0  0  0  0  0  0
  -31.8080  -14.8160   20.2010 O   0  0  0  0  0  0  0  0  0  0  0  0
  -25.2140  -13.9780   20.5230 C   0  0  0  0  0  0  0  0  0  0  0  0
  -24.1340  -13.2140   20.8710 C   0  0  0  0  0  0  0  0  0  0  0  0
  -24.5920  -11.8600   20.8690 C   0  0  0  0  0  0  0  0  0  0  0  0
  -26.2620  -13.0910   20.3310 N   0  0  0  0  0  0  0  0  0  0  0  0
  -25.8910  -11.8120   20.5960 N   0  0  0  0  0  0  0  0  0  0  0  0
  -23.8560  -10.6030   21.0570 C   0  0  0  0  0  0  0  0  0  0  0  0
  -24.2690   -9.6390   22.0030 C   0  0  0  0  0  3  0  0  0  0  0  0
  -23.5330   -8.4460   22.1770 C   0  0  0  0  0  3  0  0  0  0  0  0
  -22.3710   -8.2110   21.4040 C   0  0  0  0  0  0  0  0  0  0  0  0
  -21.9800   -9.1640   20.4470 C   0  0  0  0  0  3  0  0  0  0  0  0
  -22.7150  -10.3480   20.2720 C   0  0  0  0  0  3  0  0  0  0  0  0
  -21.6080   -7.0720   21.4860 O   0  0  0  0  0  0  0  0  0  0  0  0
  -21.5470   -6.3270   22.6360 C   0  0  0  0  0  0  0  0  0  0  0  0
  -21.1100   -6.8820   23.8600 C   0  0  0  0  0  3  0  0  0  0  0  0
  -20.9950   -6.0660   25.0020 C   0  0  0  0  0  3  0  0  0  0  0  0
  -21.3040   -4.6960   24.9210 C   0  0  0  0  0  0  0  0  0  0  0  0
  -21.7310   -4.1390   23.7030 C   0  0  0  0  0  3  0  0  0  0  0  0
  -21.8490   -4.9530   22.5630 C   0  0  0  0  0  0  0  0  0  0  0  0
  -22.2420   -4.4070   21.3860 F   0  0  0  0  0  0  0  0  0  0  0  0
  -21.1860   -3.9080   26.0160 F   0  0  0  0  0  0  0  0  0  0  0  0
  -22.7320  -13.6980   21.1010 C   0  0  0  0  0  0  0  0  0  0  0  0
  -21.9800  -13.0100   21.9510 N   0  0  0  0  0  0  0  0  0  0  0  0
  -22.3100  -14.7220   20.5610 O   0  0  0  0  0  0  0  0  0  0  0  0
  -22.3360  -12.1810   22.4040 H   0  0  0  0  0  0  0  0  0  0  0  0
  -21.0380  -13.3130   22.1520 H   0  0  0  0  0  0  0  0  0  0  0  0
  -25.3890  -15.3450   20.3340 N   0  0  0  0  0  0  0  0  0  0  0  0
  -24.6180  -16.0010   20.4040 H   0  0  0  0  0  0  0  0  0  0  0  0
  -26.2620  -15.7850   20.0760 H   0  0  0  0  0  0  0  0  0  0  0  0
  -28.1290  -25.1770   20.0410 C   0  0  0  0  0  2  0  0  0  0  0  0
  -28.3100  -26.6130   20.2020 O   0  0  0  0  0  0  0  0  0  0  0  0
  -24.5560  -31.8990   23.2560 C   0  0  0  0  0  0  0  0  0  0  0  0
  -27.1640  -27.4030   20.1680 C   0  0  0  0  0  0  0  0  0  0  0  0
  -23.3460  -30.5040   21.6150 C   0  0  0  0  0  3  0  0  0  0  0  0
  -24.7910  -28.9720   20.1800 C   0  0  0  0  0  0  0  0  0  0  0  0
  -25.8840  -30.8380   21.4280 C   0  0  0  0  0  2  0  0  0  0  0  0
  -25.9570  -29.4700   20.7720 C   0  0  0  0  0  0  0  0  0  0  0  0
  -27.1500  -28.6970   20.7560 C   0  0  0  0  0  3  0  0  0  0  0  0
  -25.9730  -26.9410   19.5600 C   0  0  0  0  0  3  0  0  0  0  0  0
  -24.7970  -27.7120   19.5670 C   0  0  0  0  0  3  0  0  0  0  0  0
  -23.5540  -29.8370   20.2310 C   0  0  0  0  0  2  0  0  0  0  0  0
  -24.6130  -31.0970   22.1560 N   0  0  0  0  0  0  0  0  0  0  0  0
  -23.4740  -32.1740   23.7930 O   0  0  0  0  0  0  0  0  0  0  0  0
  -22.6910  -29.4780   22.5690 C   0  0  0  0  0  0  0  0  0  0  0  0
  -21.3660  -29.2980   22.4390 N   0  0  0  0  0  0  0  0  0  0  0  0
  -23.3720  -28.8550   23.3870 O   0  0  0  0  0  0  0  0  0  0  0  0
  -20.8790  -29.8510   21.7480 H   0  0  0  0  0  0  0  0  0  0  0  0
  -17.9890  -28.1140   22.9370 C   0  0  0  0  0  0  0  0  0  0  0  0
  -20.5480  -28.3630   23.2100 C   0  0  0  0  0  3  0  0  0  0  0  0
  -20.6450  -26.9330   22.6320 C   0  0  0  0  0  2  0  0  0  0  0  0
  -19.5420  -26.6160   21.6170 C   0  0  0  0  0  2  0  0  0  0  0  0
  -18.1600  -26.7650   22.2580 C   0  0  0  0  0  2  0  0  0  0  0  0
  -19.1100  -28.8710   23.3690 C   0  0  0  0  0  0  0  0  0  0  0  0
  -18.8940  -30.1350   23.9610 C   0  0  0  0  0  3  0  0  0  0  0  0
  -17.5890  -30.6410   24.1240 C   0  0  0  0  0  3  0  0  0  0  0  0
  -16.4840  -29.8790   23.7090 C   0  0  0  0  0  3  0  0  0  0  0  0
  -16.6850  -28.6180   23.1220 C   0  0  0  0  0  3  0  0  0  0  0  0
  -25.8430  -32.5280   23.8750 C   0  0  0  0  0  3  0  0  0  0  0  0
  -26.3650  -31.7520   25.1450 C   0  0  1  0  0  0  0  0  0  0  0  0
  -25.2750  -31.5050   26.2130 C   0  0  0  0  0  1  0  0  0  0  0  0
  -26.9530  -30.3780   24.7500 C   0  0  0  0  0  1  0  0  0  0  0  0
  -27.5130  -32.5480   25.8100 C   0  0  0  0  0  1  0  0  0  0  0  0
  -25.5360  -33.9250   24.2050 N   0  0  0  0  0  0  0  0  0  0  0  0
  -25.8550  -34.9770   23.4380 C   0  0  0  0  0  0  0  0  0  0  0  0
  -26.5090  -34.8730   22.3970 O   0  0  0  0  0  0  0  0  0  0  0  0
  -24.9600  -34.0810   25.0190 H   0  0  0  0  0  0  0  0  0  0  0  0
  -24.1110  -36.7590   23.1070 C   0  0  0  0  0  1  0  0  0  0  0  0
  -25.3680  -36.3640   23.8990 C   0  0  0  0  0  3  0  0  0  0  0  0
  -27.5100  -37.2600   24.6950 C   0  0  0  0  0  1  0  0  0  0  0  0
  -26.3940  -37.4220   23.7680 N   0  0  0  0  0  0  0  0  0  0  0  0
  -25.9840  -38.3390   23.9210 H   0  0  0  0  0  0  0  0  0  0  0  0
  1 10  1  0
  2  3  1  0
  2  5  1  0
  3  6  1  0
  4  5  1  0
  5 53  1  0
  6  1  1  0
  6  4  1  0
  7  1  2  0
  8 11  2  0
  8 10  1  0
 10 12  2  0
 11 13  1  0
 12  9  1  0
 12 15  1  0
 13 16  1  0
 13  9  2  0
 14 11  1  0
 17 16  1  0
 18 23  1  0
 19 20  1  0
 19 18  1  0
 21 20  1  0
 21 28  1  0
 21 22  1  0
 23 17  1  0
 23 22  1  0
 24 17  2  0
 25 26  2  0
 26 45  1  0
 27 26  1  0
 27 30  1  0
 28 25  1  0
 28 29  1  0
 29 27  2  0
 30 31  1  0
 31 32  2  0
 33 36  1  0
 33 32  1  0
 34 33  2  0
 35 34  1  0
 35 30  2  0
 36 37  1  0
 37 38  1  0
 38 39  2  0
 40 39  1  0
 40 44  1  0
 41 40  2  0
 42 37  2  0
 42 41  1  0
 43 42  1  0
 45 46  1  0
 46 49  1  0
 46 48  1  0
 47 45  2  0
 50 51  1  0
 50 25  1  0
 52 50  1  0
 53 54  1  0
 55 66  2  0
 56 54  1  0
 56 61  1  0
 57 65  1  0
 57 67  1  0
 58 64  1  0
 58 60  1  0
 59 65  1  0
 60 59  1  0
 61 60  2  0
 62 63  1  0
 62 56  2  0
 63 58  2  0
 64 57  1  0
 65 55  1  0
 67 69  2  0
 68 67  1  0
 70 68  1  0
 71 80  2  0
 71 76  1  0
 72 68  1  0
 72 76  1  0
 73 72  1  0
 74 75  1  0
 74 73  1  0
 75 71  1  0
 76 77  2  0
 77 78  1  0
 79 78  2  0
 80 79  1  0
 81 55  1  0
 81 86  1  0
 81 82  1  0
 82 85  1  1
 82 83  1  0
 84 82  1  0
 86 89  1  0
 87 91  1  0
 87 86  1  0
 88 87  2  0
 91 90  1  0
 93 91  1  0
 93 94  1  0
 93 92  1  0
M  ISO  4  16 100  17 100  53 101  54 101
M  END
>  <TORSDO>  (77) 
F 19

>  <SCORE>  (77) 
-14.513

>  <name>  (77) 
77

>  <ligand_id>  (77) 
77

>  <original_smiles>  (77) 
[H]c1c([H])c([H])c2c(c1[H])C([H])([H])C([H])([H])C([H])([H])C2([H])N([H])C(=O)C1([H])N(C(=O)C([H])(N([H])C(=O)C([H])(N([H])C([H])([H])[H])C([H])([H])[H])C(C([H])([H])[H])(C([H])([H])[H])C([H])([H])[H])C([H])([H])c2c([H])c(OC([H])([H])C3([H])C([H])([H])N(C(=O)c4c([H])c(C([H])([H])[H])c(OC(=O)N5C([H])([H])C([H])([H])C([H])([H])C([H])(n6nc(-c7c([H])c([H])c(Oc8c([H])c([H])c(F)c([H])c8F)c([H])c7[H])c(C(=O)N([H])[H])c6N([H])[H])C5([H])[H])c([H])c4C([H])([H])[H])C([H])([H])C3([H])[H])c([H])c([H])c2C1([H])[H]

>  <smiles>  (77) 
[H]c1c([H])c([H])c2c(c1[H])C([H])([H])C([H])([H])C([H])([H])C2([H])N([H])C(=O)C1([H])N(C(=O)C([H])(N([H])C(=O)C([H])(N([H])C([H])([H])[H])C([H])([H])[H])C(C([H])([H])[H])(C([H])([H])[H])C([H])([H])[H])C([H])([H])c2c([H])c(OC([H])([H])C3([H])C([H])([H])N(C(=O)c4c([H])c(C([H])([H])[H])c(OC(=O)N5C([H])([H])C([H])([H])C([H])([H])C([H])(n6nc(-c7c([H])c([H])c(Oc8c([H])c([H])c(F)c([H])c8F)c([H])c7[H])c(C(=O)N([H])[H])c6N([H])[H])C5([H])[H])c([H])c4C([H])([H])[H])C([H])([H])C3([H])[H])c([H])c([H])c2C1([H])[H]

$$$$
78:0:0
     RDKit          3D

 96105  0  0  1  0  0  0  0  0999 V2000
  -28.3540  -22.5420   22.4290 C   0  0  0  0  0  0  0  0  0  0  0  0
  -27.0350  -25.8480   21.4160 C   0  0  0  0  0  2  0  0  0  0  0  0
  -26.8810  -24.5140   22.1580 C   0  0  0  0  0  2  0  0  0  0  0  0
  -29.0630  -24.6160   21.1770 C   0  0  0  0  0  2  0  0  0  0  0  0
  -28.1480  -25.5770   20.4040 C   0  0  0  0  0  3  0  0  0  0  0  0
  -28.1620  -23.8150   22.0100 N   0  0  0  0  0  0  0  0  0  0  0  0
  -27.4670  -21.8860   22.9880 O   0  0  0  0  0  0  0  0  0  0  0  0
  -32.1150  -21.7700   22.3870 C   0  0  0  0  0  3  0  0  0  0  0  0
  -30.8930  -22.4340   22.6300 C   0  0  0  0  0  3  0  0  0  0  0  0
  -32.1360  -20.5450   21.6870 C   0  0  0  0  0  3  0  0  0  0  0  0
  -29.7090  -20.6550   21.4670 C   0  0  0  0  0  3  0  0  0  0  0  0
  -29.6800  -21.8840   22.1580 C   0  0  0  0  0  0  0  0  0  0  0  0
  -30.9240  -19.9760   21.2370 C   0  0  0  0  0  0  0  0  0  0  0  0
  -31.4500  -17.5780   20.7030 C   0  0  0  0  0  0  0  0  0  0  0  0
  -30.8330  -18.7590   20.5180 N   0  0  0  0  0  0  0  0  0  0  0  0
  -32.4070  -17.4000   21.4620 O   0  0  0  0  0  0  0  0  0  0  0  0
  -30.0560  -18.7130   19.8740 H   0  0  0  0  0  0  0  0  0  0  0  0
  -30.7750  -16.4420   19.9140 C   0  0  0  0  0  2  0  0  0  0  0  0
  -31.6380  -15.1670   19.7330 C   0  0  0  0  0  0  0  0  0  0  0  0
  -31.3630  -12.8410   18.9700 C   0  0  0  0  0  2  0  0  0  0  0  0
  -30.3700  -12.8650   17.7840 C   0  0  0  0  0  2  0  0  0  0  0  0
  -28.9080  -12.8010   18.2760 C   0  0  0  0  0  2  0  0  0  0  0  0
  -28.6170  -13.8170   19.4110 C   0  0  0  0  0  3  0  0  0  0  0  0
  -29.7130  -13.7370   20.4980 C   0  0  0  0  0  2  0  0  0  0  0  0
  -31.0180  -13.9610   19.8580 N   0  0  0  0  0  0  0  0  0  0  0  0
  -32.7620  -15.2730   19.2240 O   0  0  0  0  0  0  0  0  0  0  0  0
  -26.3380  -14.5890   20.3290 C   0  0  0  0  0  0  0  0  0  0  0  0
  -25.2300  -13.8910   20.7290 C   0  0  0  0  0  0  0  0  0  0  0  0
  -25.5620  -12.5090   20.5820 C   0  0  0  0  0  0  0  0  0  0  0  0
  -27.2790  -13.6360   19.9680 N   0  0  0  0  0  0  0  0  0  0  0  0
  -26.8180  -12.3770   20.1720 N   0  0  0  0  0  0  0  0  0  0  0  0
  -24.7390  -11.3050   20.7510 C   0  0  0  0  0  0  0  0  0  0  0  0
  -25.1040  -10.2860   21.6580 C   0  0  0  0  0  3  0  0  0  0  0  0
  -24.2880   -9.1450   21.8140 C   0  0  0  0  0  3  0  0  0  0  0  0
  -23.0940   -9.0170   21.0640 C   0  0  0  0  0  0  0  0  0  0  0  0
  -22.7500  -10.0250   20.1460 C   0  0  0  0  0  3  0  0  0  0  0  0
  -23.5650  -11.1570   19.9880 C   0  0  0  0  0  3  0  0  0  0  0  0
  -22.2510   -7.9340   21.1330 O   0  0  0  0  0  0  0  0  0  0  0  0
  -22.0480   -7.2530   22.3070 C   0  0  0  0  0  0  0  0  0  0  0  0
  -21.5480   -7.8930   23.4620 C   0  0  0  0  0  3  0  0  0  0  0  0
  -21.2880   -7.1420   24.6260 C   0  0  0  0  0  3  0  0  0  0  0  0
  -21.5190   -5.7530   24.6350 C   0  0  0  0  0  0  0  0  0  0  0  0
  -22.0130   -5.1140   23.4830 C   0  0  0  0  0  3  0  0  0  0  0  0
  -22.2750   -5.8620   22.3220 C   0  0  0  0  0  0  0  0  0  0  0  0
  -22.7290   -5.2380   21.2090 F   0  0  0  0  0  0  0  0  0  0  0  0
  -21.2630   -5.0300   25.7500 F   0  0  0  0  0  0  0  0  0  0  0  0
  -23.9060  -14.4690   21.1370 C   0  0  0  0  0  0  0  0  0  0  0  0
  -23.1930  -13.7930   22.0320 N   0  0  0  0  0  0  0  0  0  0  0  0
  -23.5170  -15.5500   20.6980 O   0  0  0  0  0  0  0  0  0  0  0  0
  -23.5240  -12.9170   22.4080 H   0  0  0  0  0  0  0  0  0  0  0  0
  -22.3040  -14.1580   22.3470 H   0  0  0  0  0  0  0  0  0  0  0  0
  -26.6140  -15.9500   20.2240 N   0  0  0  0  0  0  0  0  0  0  0  0
  -25.9160  -16.6550   20.4310 H   0  0  0  0  0  0  0  0  0  0  0  0
  -27.4710  -16.3370   19.8500 H   0  0  0  0  0  0  0  0  0  0  0  0
  -28.8590  -26.8210   19.8140 C   0  0  0  0  0  2  0  0  0  0  0  0
  -28.1710  -27.3600   18.6850 O   0  0  0  0  0  0  0  0  0  0  0  0
  -24.4140  -31.5860   23.0180 C   0  0  0  0  0  0  0  0  0  0  0  0
  -26.9860  -27.9890   18.9650 C   0  0  0  0  0  0  0  0  0  0  0  0
  -23.1290  -30.3820   21.2810 C   0  0  0  0  0  3  0  0  0  0  0  0
  -24.5150  -29.2430   19.4700 C   0  0  0  0  0  0  0  0  0  0  0  0
  -25.5890  -30.9870   20.9100 C   0  0  0  0  0  2  0  0  0  0  0  0
  -25.6900  -29.7610   20.0300 C   0  0  0  0  0  0  0  0  0  0  0  0
  -26.9330  -29.1400   19.7790 C   0  0  0  0  0  3  0  0  0  0  0  0
  -25.8010  -27.4820   18.3980 C   0  0  0  0  0  3  0  0  0  0  0  0
  -24.5610  -28.0980   18.6570 C   0  0  0  0  0  3  0  0  0  0  0  0
  -23.2290  -29.9690   19.7880 C   0  0  0  0  0  2  0  0  0  0  0  0
  -24.3990  -30.9920   21.7930 N   0  0  0  0  0  0  0  0  0  0  0  0
  -23.3840  -31.6690   23.7010 O   0  0  0  0  0  0  0  0  0  0  0  0
  -22.6660  -29.1580   22.1030 C   0  0  0  0  0  0  0  0  0  0  0  0
  -21.3580  -28.8580   22.0400 N   0  0  0  0  0  0  0  0  0  0  0  0
  -23.4750  -28.4900   22.7500 O   0  0  0  0  0  0  0  0  0  0  0  0
  -20.7630  -29.4580   21.4850 H   0  0  0  0  0  0  0  0  0  0  0  0
  -18.1740  -27.2260   22.5300 C   0  0  0  0  0  0  0  0  0  0  0  0
  -20.7020  -27.7350   22.7040 C   0  0  0  0  0  3  0  0  0  0  0  0
  -20.9160  -26.4210   21.9170 C   0  0  0  0  0  2  0  0  0  0  0  0
  -19.7890  -26.1200   20.9250 C   0  0  0  0  0  2  0  0  0  0  0  0
  -18.4460  -26.0150   21.6530 C   0  0  0  0  0  2  0  0  0  0  0  0
  -19.2310  -28.0420   23.0100 C   0  0  0  0  0  0  0  0  0  0  0  0
  -18.9200  -29.1780   23.7900 C   0  0  0  0  0  3  0  0  0  0  0  0
  -17.5830  -29.4960   24.0970 C   0  0  0  0  0  3  0  0  0  0  0  0
  -16.5420  -28.6740   23.6330 C   0  0  0  0  0  3  0  0  0  0  0  0
  -16.8380  -27.5410   22.8540 C   0  0  0  0  0  3  0  0  0  0  0  0
  -25.7180  -32.2130   23.6070 C   0  0  0  0  0  3  0  0  0  0  0  0
  -26.3560  -31.3520   24.7650 C   0  0  1  0  0  0  0  0  0  0  0  0
  -25.3530  -30.9690   25.8790 C   0  0  0  0  0  1  0  0  0  0  0  0
  -26.9660  -30.0440   24.2080 C   0  0  0  0  0  1  0  0  0  0  0  0
  -27.5190  -32.1360   25.4190 C   0  0  0  0  0  1  0  0  0  0  0  0
  -25.3810  -33.5590   24.0840 N   0  0  0  0  0  0  0  0  0  0  0  0
  -25.6530  -34.6910   23.4220 C   0  0  0  0  0  0  0  0  0  0  0  0
  -26.2850  -34.7120   22.3620 O   0  0  0  0  0  0  0  0  0  0  0  0
  -24.8160  -33.6160   24.9180 H   0  0  0  0  0  0  0  0  0  0  0  0
  -23.8710  -36.4600   23.2940 C   0  0  0  0  0  1  0  0  0  0  0  0
  -25.1400  -36.0080   24.0320 C   0  0  0  0  0  3  0  0  0  0  0  0
  -27.2660  -36.8620   24.9160 C   0  0  0  0  0  1  0  0  0  0  0  0
  -26.1420  -37.0950   24.0120 N   0  0  0  0  0  0  0  0  0  0  0  0
  -25.7150  -37.9830   24.2620 H   0  0  0  0  0  0  0  0  0  0  0  0
  1  7  2  0
  2  3  1  0
  4  6  1  0
  5 55  1  0
  5  4  1  0
  5  2  1  0
  6  3  1  0
  6  1  1  0
  8  9  1  0
 10  8  2  0
 11 12  1  0
 12  1  1  0
 12  9  2  0
 13 11  2  0
 13 10  1  0
 14 16  2  0
 15 14  1  0
 15 13  1  0
 17 15  1  0
 18 14  1  0
 19 25  1  0
 19 18  1  0
 20 25  1  0
 21 22  1  0
 21 20  1  0
 23 22  1  0
 23 30  1  0
 23 24  1  0
 25 24  1  0
 26 19  2  0
 27 28  2  0
 28 47  1  0
 29 28  1  0
 29 32  1  0
 30 31  1  0
 30 27  1  0
 31 29  2  0
 32 33  1  0
 33 34  2  0
 35 38  1  0
 35 34  1  0
 36 35  2  0
 37 36  1  0
 37 32  2  0
 38 39  1  0
 39 44  2  0
 39 40  1  0
 40 41  2  0
 41 42  1  0
 42 46  1  0
 43 42  2  0
 44 43  1  0
 45 44  1  0
 47 48  1  0
 48 51  1  0
 48 50  1  0
 49 47  2  0
 52 27  1  0
 52 53  1  0
 54 52  1  0
 56 58  1  0
 56 55  1  0
 57 68  2  0
 58 63  1  0
 59 67  1  0
 59 69  1  0
 60 66  1  0
 60 62  1  0
 61 67  1  0
 62 61  1  0
 63 62  2  0
 64 65  1  0
 64 58  2  0
 65 60  2  0
 66 59  1  0
 67 57  1  0
 69 71  2  0
 70 69  1  0
 72 70  1  0
 73 82  2  0
 73 78  1  0
 74 70  1  0
 74 78  1  0
 75 74  1  0
 76 77  1  0
 76 75  1  0
 77 73  1  0
 78 79  2  0
 79 80  1  0
 81 80  2  0
 82 81  1  0
 83 57  1  0
 83 88  1  0
 83 84  1  0
 84 87  1  1
 84 85  1  0
 86 84  1  0
 88 91  1  0
 89 93  1  0
 89 88  1  0
 90 89  2  0
 93 92  1  0
 95 93  1  0
 95 96  1  0
 95 94  1  0
M  ISO  4  18 100  19 100  55 101  56 101
M  END
>  <TORSDO>  (78) 
F 20

>  <SCORE>  (78) 
-7.893

>  <name>  (78) 
78

>  <ligand_id>  (78) 
78

>  <original_smiles>  (78) 
[H]c1c([H])c(C(=O)N2C([H])([H])C([H])([H])C([H])(C([H])([H])Oc3c([H])c([H])c4c(c3[H])C([H])([H])N(C(=O)C([H])(N([H])C(=O)C([H])(N([H])C([H])([H])[H])C([H])([H])[H])C(C([H])([H])[H])(C([H])([H])[H])C([H])([H])[H])C([H])(C(=O)N([H])C3([H])c5c([H])c([H])c([H])c([H])c5C([H])([H])C([H])([H])C3([H])[H])C4([H])[H])C2([H])[H])c([H])c(N([H])C(=O)C([H])([H])C(=O)N2C([H])([H])C([H])([H])C([H])([H])C([H])(n3nc(-c4c([H])c([H])c(Oc5c([H])c([H])c(F)c([H])c5F)c([H])c4[H])c(C(=O)N([H])[H])c3N([H])[H])C2([H])[H])c1[H]

>  <smiles>  (78) 
[H]c1c([H])c(C(=O)N2C([H])([H])C([H])([H])C([H])(C([H])([H])Oc3c([H])c([H])c4c(c3[H])C([H])([H])N(C(=O)C([H])(N([H])C(=O)C([H])(N([H])C([H])([H])[H])C([H])([H])[H])C(C([H])([H])[H])(C([H])([H])[H])C([H])([H])[H])C([H])(C(=O)N([H])C3([H])c5c([H])c([H])c([H])c([H])c5C([H])([H])C([H])([H])C3([H])[H])C4([H])[H])C2([H])[H])c([H])c(N([H])C(=O)C([H])([H])C(=O)N2C([H])([H])C([H])([H])C([H])([H])C([H])(n3nc(-c4c([H])c([H])c(Oc5c([H])c([H])c(F)c([H])c5F)c([H])c4[H])c(C(=O)N([H])[H])c3N([H])[H])C2([H])[H])c1[H]

$$$$
79:0:0
     RDKit          3D

 95103  0  0  1  0  0  0  0  0999 V2000
  -29.3970  -19.5360   20.8030 C   0  0  0  0  0  3  0  0  0  0  0  0
  -28.6290  -19.2980   18.2010 C   0  0  0  0  0  3  0  0  0  0  0  0
  -28.9570  -20.8150   20.1380 C   0  0  0  0  0  0  0  0  0  0  0  0
  -29.4710  -18.1410   20.2130 C   0  0  0  0  0  0  0  0  0  0  0  0
  -28.6080  -20.5850   18.7810 C   0  0  0  0  0  0  0  0  0  0  0  0
  -28.9870  -18.1030   18.8830 C   0  0  0  0  0  0  0  0  0  0  0  0
  -30.5650  -15.6020   20.3440 C   0  0  0  0  0  0  0  0  0  0  0  0
  -30.5370  -13.2610   19.3210 C   0  0  0  0  0  2  0  0  0  0  0  0
  -29.5830  -13.2010   18.1080 C   0  0  0  0  0  2  0  0  0  0  0  0
  -28.1530  -12.8720   18.5700 C   0  0  0  0  0  2  0  0  0  0  0  0
  -27.7250  -13.7390   19.7850 C   0  0  0  0  0  3  0  0  0  0  0  0
  -28.8010  -13.7680   20.8900 C   0  0  0  0  0  2  0  0  0  0  0  0
  -30.0270  -14.3050   20.2760 N   0  0  0  0  0  0  0  0  0  0  0  0
  -31.7200  -15.7150   19.9080 O   0  0  0  0  0  0  0  0  0  0  0  0
  -29.8670  -16.7690   20.8660 N   0  0  0  0  0  0  0  0  0  0  0  0
  -25.3490  -14.1750   20.6100 C   0  0  0  0  0  0  0  0  0  0  0  0
  -24.3320  -13.3370   20.9770 C   0  0  0  0  0  0  0  0  0  0  0  0
  -24.8530  -12.0080   20.8770 C   0  0  0  0  0  0  0  0  0  0  0  0
  -26.4190  -13.3540   20.3030 N   0  0  0  0  0  0  0  0  0  0  0  0
  -26.1340  -12.0430   20.5240 N   0  0  0  0  0  0  0  0  0  0  0  0
  -24.1870  -10.7070   21.0350 C   0  0  0  0  0  0  0  0  0  0  0  0
  -24.6310   -9.7550   21.9790 C   0  0  0  0  0  3  0  0  0  0  0  0
  -23.9580   -8.5210   22.1220 C   0  0  0  0  0  3  0  0  0  0  0  0
  -22.8270   -8.2350   21.3220 C   0  0  0  0  0  0  0  0  0  0  0  0
  -22.4010   -9.1760   20.3660 C   0  0  0  0  0  3  0  0  0  0  0  0
  -23.0760  -10.4010   20.2210 C   0  0  0  0  0  3  0  0  0  0  0  0
  -22.1220   -7.0560   21.3800 O   0  0  0  0  0  0  0  0  0  0  0  0
  -21.9910   -6.3510   22.5490 C   0  0  0  0  0  0  0  0  0  0  0  0
  -21.3620   -6.9010   23.6870 C   0  0  0  0  0  3  0  0  0  0  0  0
  -21.1890   -6.1170   24.8440 C   0  0  0  0  0  3  0  0  0  0  0  0
  -21.6360   -4.7810   24.8630 C   0  0  0  0  0  0  0  0  0  0  0  0
  -22.2570   -4.2300   23.7280 C   0  0  0  0  0  3  0  0  0  0  0  0
  -22.4300   -5.0130   22.5740 C   0  0  0  0  0  0  0  0  0  0  0  0
  -23.0130   -4.4690   21.4770 F   0  0  0  0  0  0  0  0  0  0  0  0
  -21.4630   -4.0240   25.9710 F   0  0  0  0  0  0  0  0  0  0  0  0
  -22.9250  -13.7420   21.3060 C   0  0  0  0  0  0  0  0  0  0  0  0
  -22.2560  -12.9920   22.1800 N   0  0  0  0  0  0  0  0  0  0  0  0
  -22.4210  -14.7540   20.8220 O   0  0  0  0  0  0  0  0  0  0  0  0
  -22.6760  -12.1760   22.5990 H   0  0  0  0  0  0  0  0  0  0  0  0
  -21.3070  -13.2360   22.4250 H   0  0  0  0  0  0  0  0  0  0  0  0
  -25.4500  -15.5550   20.4880 N   0  0  0  0  0  0  0  0  0  0  0  0
  -24.6680  -16.1800   20.6590 H   0  0  0  0  0  0  0  0  0  0  0  0
  -26.2940  -16.0390   20.2100 H   0  0  0  0  0  0  0  0  0  0  0  0
  -29.9790  -16.8330   22.3300 C   0  0  0  0  0  2  0  0  0  0  0  0
  -30.6400  -18.4040   24.2300 C   0  0  0  0  0  1  0  0  0  0  0  0
  -30.8930  -17.9920   22.7800 C   0  0  0  0  0  2  0  0  0  0  0  0
  -28.1280  -21.6080   17.9700 N   0  0  0  0  0  0  0  0  0  0  0  0
  -27.5820  -21.3450   17.1540 H   0  0  0  0  0  0  0  0  0  0  0  0
  -27.7370  -22.4060   18.4580 H   0  0  0  0  0  0  0  0  0  0  0  0
  -28.7360  -22.3320   20.7390 C   0  0  0  0  0  3  0  0  0  0  0  0
  -28.6190  -23.6720   20.2140 C   0  0  0  0  0  3  0  0  0  0  0  0
  -28.0990  -25.1340   20.8520 C   0  0  0  0  0  2  0  0  0  0  0  0
  -28.3720  -26.6090   20.3380 O   0  0  0  0  0  0  0  0  0  0  0  0
  -24.8850  -32.3260   23.5520 C   0  0  0  0  0  0  0  0  0  0  0  0
  -27.3460  -27.6410   20.3540 C   0  0  0  0  0  0  0  0  0  0  0  0
  -23.6380  -30.9900   21.9000 C   0  0  0  0  0  3  0  0  0  0  0  0
  -25.0440  -29.4460   20.3930 C   0  0  0  0  0  0  0  0  0  0  0  0
  -26.1950  -31.2330   21.6870 C   0  0  0  0  0  2  0  0  0  0  0  0
  -26.2430  -29.8570   20.9890 C   0  0  0  0  0  0  0  0  0  0  0  0
  -27.4000  -28.9800   20.9350 C   0  0  0  0  0  3  0  0  0  0  0  0
  -26.1210  -27.3460   19.7200 C   0  0  0  0  0  3  0  0  0  0  0  0
  -25.0030  -28.2080   19.7330 C   0  0  0  0  0  3  0  0  0  0  0  0
  -23.8240  -30.3520   20.4960 C   0  0  0  0  0  2  0  0  0  0  0  0
  -24.9280  -31.5380   22.4330 N   0  0  0  0  0  0  0  0  0  0  0  0
  -23.8130  -32.5990   24.1160 O   0  0  0  0  0  0  0  0  0  0  0  0
  -22.9700  -29.9610   22.8480 C   0  0  0  0  0  0  0  0  0  0  0  0
  -21.6560  -29.7260   22.6760 N   0  0  0  0  0  0  0  0  0  0  0  0
  -23.6410  -29.3740   23.7020 O   0  0  0  0  0  0  0  0  0  0  0  0
  -21.1740  -30.2490   21.9580 H   0  0  0  0  0  0  0  0  0  0  0  0
  -18.3350  -28.3050   23.0120 C   0  0  0  0  0  0  0  0  0  0  0  0
  -20.8520  -28.7550   23.4230 C   0  0  0  0  0  3  0  0  0  0  0  0
  -21.0840  -27.3180   22.9030 C   0  0  0  0  0  2  0  0  0  0  0  0
  -20.0730  -26.8920   21.8340 C   0  0  0  0  0  2  0  0  0  0  0  0
  -18.6470  -26.9560   22.3870 C   0  0  0  0  0  2  0  0  0  0  0  0
  -19.3710  -29.1570   23.4830 C   0  0  0  0  0  0  0  0  0  0  0  0
  -19.0270  -30.4160   24.0220 C   0  0  0  0  0  3  0  0  0  0  0  0
  -17.6810  -30.8240   24.0990 C   0  0  0  0  0  3  0  0  0  0  0  0
  -16.6610  -29.9680   23.6460 C   0  0  0  0  0  3  0  0  0  0  0  0
  -16.9890  -28.7130   23.1050 C   0  0  0  0  0  3  0  0  0  0  0  0
  -26.1800  -32.9340   24.1720 C   0  0  0  0  0  3  0  0  0  0  0  0
  -25.9070  -34.3450   24.4850 N   0  0  0  0  0  0  0  0  0  0  0  0
  -26.2540  -35.3830   23.7130 C   0  0  0  0  0  0  0  0  0  0  0  0
  -26.9060  -35.2500   22.6740 O   0  0  0  0  0  0  0  0  0  0  0  0
  -25.3270  -34.5230   25.2920 H   0  0  0  0  0  0  0  0  0  0  0  0
  -24.5640  -37.2180   23.3780 C   0  0  0  0  0  1  0  0  0  0  0  0
  -25.8130  -36.7900   24.1650 C   0  0  0  0  0  3  0  0  0  0  0  0
  -27.9830  -37.6380   24.9420 C   0  0  0  0  0  1  0  0  0  0  0  0
  -26.8680  -37.8170   24.0140 N   0  0  0  0  0  0  0  0  0  0  0  0
  -26.4860  -38.7490   24.1510 H   0  0  0  0  0  0  0  0  0  0  0  0
  -26.6640  -32.1720   25.4680 C   0  0  1  0  0  0  0  0  0  0  0  0
  -25.5440  -31.9420   26.5110 C   0  0  0  0  0  1  0  0  0  0  0  0
  -27.2580  -30.7920   25.1080 C   0  0  0  0  0  1  0  0  0  0  0  0
  -27.8000  -32.9710   26.1490 C   0  0  0  0  0  1  0  0  0  0  0  0
  -27.5880  -16.6970   17.5570 C   0  0  0  0  0  1  0  0  0  0  0  0
  -28.7990  -16.8730   18.2880 O   0  0  0  0  0  0  0  0  0  0  0  0
  2  5  2  0
  2  6  1  0
  3 50  1  0
  3  1  2  0
  4  1  1  0
  4 15  1  0
  5  3  1  0
  6  4  2  0
  7 15  1  0
  8 13  1  0
  9 10  1  0
  9  8  1  0
 11 10  1  0
 11 19  1  0
 11 12  1  0
 13  7  1  0
 13 12  1  0
 14  7  2  0
 15 44  1  0
 16 17  2  0
 17 36  1  0
 18 17  1  0
 18 21  1  0
 19 20  1  0
 19 16  1  0
 20 18  2  0
 21 22  1  0
 22 23  2  0
 24 27  1  0
 24 23  1  0
 25 24  2  0
 26 25  1  0
 26 21  2  0
 27 28  1  0
 28 33  2  0
 28 29  1  0
 29 30  2  0
 30 31  1  0
 31 35  1  0
 32 31  2  0
 33 32  1  0
 34 33  1  0
 36 37  1  0
 37 40  1  0
 37 39  1  0
 38 36  2  0
 41 16  1  0
 41 42  1  0
 43 41  1  0
 44 46  1  0
 46 45  1  0
 47 49  1  0
 47  5  1  0
 48 47  1  0
 51 50  2  0
 51 52  1  0
 53 55  1  0
 53 52  1  0
 54 65  2  0
 55 60  1  0
 56 64  1  0
 56 66  1  0
 57 63  1  0
 57 59  1  0
 58 64  1  0
 59 58  1  0
 60 59  2  0
 61 62  1  0
 61 55  2  0
 62 57  2  0
 63 56  1  0
 64 54  1  0
 66 68  2  0
 67 66  1  0
 69 67  1  0
 70 79  2  0
 70 75  1  0
 71 67  1  0
 71 75  1  0
 72 71  1  0
 73 74  1  0
 73 72  1  0
 74 70  1  0
 75 76  2  0
 76 77  1  0
 78 77  2  0
 79 78  1  0
 80 54  1  0
 80 81  1  0
 80 90  1  0
 81 84  1  0
 82 86  1  0
 82 81  1  0
 83 82  2  0
 86 85  1  0
 88 89  1  0
 88 86  1  0
 88 87  1  0
 90 93  1  1
 90 91  1  0
 92 90  1  0
 94 95  1  0
 95  6  1  0
M  ISO  4   7 100  15 100  52 101  53 101
M  END
>  <TORSDO>  (79) 
F 22

>  <SCORE>  (79) 
-8.919

>  <name>  (79) 
79

>  <ligand_id>  (79) 
79

>  <original_smiles>  (79) 
[H]C(=C([H])C([H])([H])Oc1c([H])c([H])c2c(c1[H])C([H])([H])N(C(=O)C([H])(N([H])C(=O)C([H])(N([H])C([H])([H])[H])C([H])([H])[H])C(C([H])([H])[H])(C([H])([H])[H])C([H])([H])[H])C([H])(C(=O)N([H])C1([H])c3c([H])c([H])c([H])c([H])c3C([H])([H])C([H])([H])C1([H])[H])C2([H])[H])c1c([H])c(N(C(=O)N2C([H])([H])C([H])([H])C([H])([H])C([H])(n3nc(-c4c([H])c([H])c(Oc5c([H])c([H])c(F)c([H])c5F)c([H])c4[H])c(C(=O)N([H])[H])c3N([H])[H])C2([H])[H])C([H])([H])C([H])([H])C([H])([H])[H])c(OC([H])([H])[H])c([H])c1N([H])[H]

>  <smiles>  (79) 
[H]C(=C([H])C([H])([H])Oc1c([H])c([H])c2c(c1[H])C([H])([H])N(C(=O)C([H])(N([H])C(=O)C([H])(N([H])C([H])([H])[H])C([H])([H])[H])C(C([H])([H])[H])(C([H])([H])[H])C([H])([H])[H])C([H])(C(=O)N([H])C1([H])c3c([H])c([H])c([H])c([H])c3C([H])([H])C([H])([H])C1([H])[H])C2([H])[H])c1c([H])c(N(C(=O)N2C([H])([H])C([H])([H])C([H])([H])C([H])(n3nc(-c4c([H])c([H])c(Oc5c([H])c([H])c(F)c([H])c5F)c([H])c4[H])c(C(=O)N([H])[H])c3N([H])[H])C2([H])[H])C([H])([H])C([H])([H])C([H])([H])[H])c(OC([H])([H])[H])c([H])c1N([H])[H]

$$$$
80:0:0
     RDKit          3D

 92100  0  0  1  0  0  0  0  0999 V2000
  -29.5340  -18.8940   19.8620 C   0  0  0  0  0  3  0  0  0  0  0  0
  -30.9400  -17.6380   21.9110 C   0  0  0  0  0  3  0  0  0  0  0  0
  -29.5890  -17.4740   19.9110 C   0  0  0  0  0  0  0  0  0  0  0  0
  -30.2940  -16.7990   20.9610 C   0  0  0  0  0  0  0  0  0  0  0  0
  -30.1730  -19.7100   20.8270 C   0  0  0  0  0  0  0  0  0  0  0  0
  -30.8910  -19.0480   21.8430 C   0  0  0  0  0  0  0  0  0  0  0  0
  -28.8140  -16.7490   18.8250 C   0  0  0  0  0  1  0  0  0  0  0  0
  -31.5360  -19.7780   22.7850 F   0  0  0  0  0  0  0  0  0  0  0  0
  -30.7420  -14.4690   20.1820 C   0  0  0  0  0  0  0  0  0  0  0  0
  -30.2660  -12.4130   18.8710 C   0  0  0  0  0  2  0  0  0  0  0  0
  -29.2540  -12.6740   17.7400 C   0  0  0  0  0  2  0  0  0  0  0  0
  -27.8110  -12.5150   18.2530 C   0  0  0  0  0  2  0  0  0  0  0  0
  -27.5640  -13.2910   19.5710 C   0  0  0  0  0  3  0  0  0  0  0  0
  -28.6810  -13.0310   20.6000 C   0  0  0  0  0  2  0  0  0  0  0  0
  -29.9830  -13.3470   19.9770 N   0  0  0  0  0  0  0  0  0  0  0  0
  -31.7560  -14.6990   19.5160 O   0  0  0  0  0  0  0  0  0  0  0  0
  -30.5680  -14.8520   22.5200 C   0  0  0  0  0  1  0  0  0  0  0  0
  -30.3420  -15.3460   21.1490 N   0  0  0  0  0  0  0  0  0  0  0  0
  -25.2230  -13.9070   20.4410 C   0  0  0  0  0  0  0  0  0  0  0  0
  -24.1710  -13.1360   20.8540 C   0  0  0  0  0  0  0  0  0  0  0  0
  -24.6180  -11.7810   20.7700 C   0  0  0  0  0  0  0  0  0  0  0  0
  -26.2430  -13.0200   20.1280 N   0  0  0  0  0  0  0  0  0  0  0  0
  -25.8880  -11.7360   20.3850 N   0  0  0  0  0  0  0  0  0  0  0  0
  -23.8950  -10.5220   20.9780 C   0  0  0  0  0  0  0  0  0  0  0  0
  -24.3620   -9.5440   21.8840 C   0  0  0  0  0  3  0  0  0  0  0  0
  -23.6390   -8.3470   22.0800 C   0  0  0  0  0  3  0  0  0  0  0  0
  -22.4350   -8.1200   21.3700 C   0  0  0  0  0  0  0  0  0  0  0  0
  -21.9870   -9.0880   20.4540 C   0  0  0  0  0  3  0  0  0  0  0  0
  -22.7110  -10.2760   20.2560 C   0  0  0  0  0  3  0  0  0  0  0  0
  -21.6820   -6.9770   21.4760 O   0  0  0  0  0  0  0  0  0  0  0  0
  -21.6570   -6.2350   22.6300 C   0  0  0  0  0  0  0  0  0  0  0  0
  -21.2790   -6.7980   23.8680 C   0  0  0  0  0  3  0  0  0  0  0  0
  -21.2000   -5.9830   25.0160 C   0  0  0  0  0  3  0  0  0  0  0  0
  -21.4880   -4.6090   24.9260 C   0  0  0  0  0  0  0  0  0  0  0  0
  -21.8610   -4.0470   23.6920 C   0  0  0  0  0  3  0  0  0  0  0  0
  -21.9420   -4.8570   22.5470 C   0  0  0  0  0  0  0  0  0  0  0  0
  -22.2790   -4.3070   21.3570 F   0  0  0  0  0  0  0  0  0  0  0  0
  -21.4060   -3.8250   26.0270 F   0  0  0  0  0  0  0  0  0  0  0  0
  -22.7960  -13.6190   21.2170 C   0  0  0  0  0  0  0  0  0  0  0  0
  -22.1190  -12.9170   22.1200 N   0  0  0  0  0  0  0  0  0  0  0  0
  -22.3340  -14.6520   20.7360 O   0  0  0  0  0  0  0  0  0  0  0  0
  -22.5070  -12.0820   22.5300 H   0  0  0  0  0  0  0  0  0  0  0  0
  -21.2000  -13.2230   22.4060 H   0  0  0  0  0  0  0  0  0  0  0  0
  -25.3900  -15.2800   20.2860 N   0  0  0  0  0  0  0  0  0  0  0  0
  -24.6460  -15.9420   20.4690 H   0  0  0  0  0  0  0  0  0  0  0  0
  -26.2490  -15.7210   19.9830 H   0  0  0  0  0  0  0  0  0  0  0  0
  -30.1870  -21.1050   20.8210 O   0  0  0  0  0  0  0  0  0  0  0  0
  -29.1030  -21.8590   20.2460 C   0  0  0  0  0  2  0  0  0  0  0  0
  -29.5750  -23.2180   19.6510 C   0  0  0  0  0  2  0  0  0  0  0  0
  -29.6810  -24.4440   20.6040 C   0  0  0  0  0  2  0  0  0  0  0  0
  -28.3870  -25.2910   20.7630 C   0  0  0  0  0  2  0  0  0  0  0  0
  -28.5320  -26.6620   20.3190 O   0  0  0  0  0  0  0  0  0  0  0  0
  -24.6490  -31.8980   23.2380 C   0  0  0  0  0  0  0  0  0  0  0  0
  -27.3660  -27.4060   20.2800 C   0  0  0  0  0  0  0  0  0  0  0  0
  -23.4750  -30.4530   21.6110 C   0  0  0  0  0  3  0  0  0  0  0  0
  -24.9590  -28.9050   20.2300 C   0  0  0  0  0  0  0  0  0  0  0  0
  -26.0010  -30.8330   21.4300 C   0  0  0  0  0  2  0  0  0  0  0  0
  -26.1080  -29.4500   20.8170 C   0  0  0  0  0  0  0  0  0  0  0  0
  -27.3170  -28.7100   20.8350 C   0  0  0  0  0  3  0  0  0  0  0  0
  -26.1980  -26.8910   19.6720 C   0  0  0  0  0  3  0  0  0  0  0  0
  -25.0000  -27.6250   19.6550 C   0  0  0  0  0  3  0  0  0  0  0  0
  -23.7070  -29.7530   20.2450 C   0  0  0  0  0  2  0  0  0  0  0  0
  -24.7270  -31.0770   22.1520 N   0  0  0  0  0  0  0  0  0  0  0  0
  -23.5610  -32.1690   23.7630 O   0  0  0  0  0  0  0  0  0  0  0  0
  -22.8240  -29.4430   22.5840 C   0  0  0  0  0  0  0  0  0  0  0  0
  -21.5050  -29.2370   22.4420 N   0  0  0  0  0  0  0  0  0  0  0  0
  -23.5040  -28.8470   23.4240 O   0  0  0  0  0  0  0  0  0  0  0  0
  -21.0160  -29.7710   21.7370 H   0  0  0  0  0  0  0  0  0  0  0  0
  -18.1470  -27.9830   22.9020 C   0  0  0  0  0  0  0  0  0  0  0  0
  -20.6910  -28.3020   23.2210 C   0  0  0  0  0  3  0  0  0  0  0  0
  -20.8360  -26.8590   22.6860 C   0  0  0  0  0  2  0  0  0  0  0  0
  -19.7630  -26.4860   21.6580 C   0  0  0  0  0  2  0  0  0  0  0  0
  -18.3640  -26.6200   22.2680 C   0  0  0  0  0  2  0  0  0  0  0  0
  -19.2400  -28.7800   23.3350 C   0  0  0  0  0  0  0  0  0  0  0  0
  -18.9830  -30.0540   23.8870 C   0  0  0  0  0  3  0  0  0  0  0  0
  -17.6650  -30.5330   24.0080 C   0  0  0  0  0  3  0  0  0  0  0  0
  -16.5860  -29.7340   23.5930 C   0  0  0  0  0  3  0  0  0  0  0  0
  -16.8280  -28.4600   23.0470 C   0  0  0  0  0  3  0  0  0  0  0  0
  -25.9230  -32.5560   23.8590 C   0  0  0  0  0  3  0  0  0  0  0  0
  -25.5910  -33.9510   24.1750 N   0  0  0  0  0  0  0  0  0  0  0  0
  -25.9060  -35.0010   23.4050 C   0  0  0  0  0  0  0  0  0  0  0  0
  -26.5790  -34.8990   22.3750 O   0  0  0  0  0  0  0  0  0  0  0  0
  -24.9960  -34.1050   24.9760 H   0  0  0  0  0  0  0  0  0  0  0  0
  -24.1440  -36.7550   23.0340 C   0  0  0  0  0  1  0  0  0  0  0  0
  -25.3940  -36.3850   23.8470 C   0  0  0  0  0  3  0  0  0  0  0  0
  -27.5150  -37.3160   24.6600 C   0  0  0  0  0  1  0  0  0  0  0  0
  -26.4060  -37.4560   23.7200 N   0  0  0  0  0  0  0  0  0  0  0  0
  -25.9850  -38.3690   23.8660 H   0  0  0  0  0  0  0  0  0  0  0  0
  -26.4510  -31.8010   25.1400 C   0  0  1  0  0  0  0  0  0  0  0  0
  -25.3600  -31.5520   26.2080 C   0  0  0  0  0  1  0  0  0  0  0  0
  -27.0590  -30.4310   24.7570 C   0  0  0  0  0  1  0  0  0  0  0  0
  -27.5870  -32.6190   25.8000 C   0  0  0  0  0  1  0  0  0  0  0  0
  1  3  2  0
  1  5  1  0
  3  4  1  0
  4 18  1  0
  4  2  2  0
  5  6  2  0
  6  2  1  0
  6  8  1  0
  7  3  1  0
  9 18  1  0
 10 15  1  0
 11 12  1  0
 11 10  1  0
 13 12  1  0
 13 22  1  0
 13 14  1  0
 15  9  1  0
 15 14  1  0
 16  9  2  0
 18 17  1  0
 19 20  2  0
 20 39  1  0
 21 20  1  0
 21 24  1  0
 22 23  1  0
 22 19  1  0
 23 21  2  0
 24 25  1  0
 25 26  2  0
 27 30  1  0
 27 26  1  0
 28 27  2  0
 29 28  1  0
 29 24  2  0
 30 31  1  0
 31 32  1  0
 32 33  2  0
 34 33  1  0
 34 38  1  0
 35 34  2  0
 36 31  2  0
 36 35  1  0
 37 36  1  0
 39 40  1  0
 40 43  1  0
 40 42  1  0
 41 39  2  0
 44 19  1  0
 44 45  1  0
 46 44  1  0
 47  5  1  0
 48 47  1  0
 49 48  1  0
 49 50  1  0
 50 51  1  0
 52 51  1  0
 53 64  2  0
 54 52  1  0
 54 59  1  0
 55 63  1  0
 55 65  1  0
 56 62  1  0
 56 58  1  0
 57 63  1  0
 58 59  2  0
 58 57  1  0
 60 54  2  0
 61 60  1  0
 61 56  2  0
 62 55  1  0
 63 53  1  0
 65 67  2  0
 66 65  1  0
 68 66  1  0
 69 78  2  0
 69 74  1  0
 70 66  1  0
 70 74  1  0
 71 70  1  0
 72 73  1  0
 72 71  1  0
 73 69  1  0
 74 75  2  0
 75 76  1  0
 77 76  2  0
 78 77  1  0
 79 53  1  0
 79 80  1  0
 79 89  1  0
 80 83  1  0
 81 85  1  0
 81 80  1  0
 82 81  2  0
 85 84  1  0
 87 85  1  0
 87 88  1  0
 87 86  1  0
 89 92  1  1
 89 90  1  0
 91 89  1  0
M  ISO  4   9 100  18 100  51 101  52 101
M  END
>  <TORSDO>  (80) 
F 21

>  <SCORE>  (80) 
-12.383

>  <name>  (80) 
80

>  <ligand_id>  (80) 
80

>  <original_smiles>  (80) 
[H]c1c([H])c([H])c2c(c1[H])C([H])([H])C([H])([H])C([H])([H])C2([H])N([H])C(=O)C1([H])N(C(=O)C([H])(N([H])C(=O)C([H])(N([H])C([H])([H])[H])C([H])([H])[H])C(C([H])([H])[H])(C([H])([H])[H])C([H])([H])[H])C([H])([H])c2c([H])c(OC([H])([H])C([H])([H])C([H])([H])C([H])([H])Oc3c([H])c(C([H])([H])[H])c(N(C(=O)N4C([H])([H])C([H])([H])C([H])([H])C([H])(n5nc(-c6c([H])c([H])c(Oc7c([H])c([H])c(F)c([H])c7F)c([H])c6[H])c(C(=O)N([H])[H])c5N([H])[H])C4([H])[H])C([H])([H])[H])c([H])c3F)c([H])c([H])c2C1([H])[H]

>  <smiles>  (80) 
[H]c1c([H])c([H])c2c(c1[H])C([H])([H])C([H])([H])C([H])([H])C2([H])N([H])C(=O)C1([H])N(C(=O)C([H])(N([H])C(=O)C([H])(N([H])C([H])([H])[H])C([H])([H])[H])C(C([H])([H])[H])(C([H])([H])[H])C([H])([H])[H])C([H])([H])c2c([H])c(OC([H])([H])C([H])([H])C([H])([H])C([H])([H])Oc3c([H])c(C([H])([H])[H])c(N(C(=O)N4C([H])([H])C([H])([H])C([H])([H])C([H])(n5nc(-c6c([H])c([H])c(Oc7c([H])c([H])c(F)c([H])c7F)c([H])c6[H])c(C(=O)N([H])[H])c5N([H])[H])C4([H])[H])C([H])([H])[H])c([H])c3F)c([H])c([H])c2C1([H])[H]

$$$$
81:0:0
     RDKit          3D

 91 99  0  0  1  0  0  0  0  0999 V2000
  -29.1680  -17.6930   19.5610 C   0  0  0  0  0  3  0  0  0  0  0  0
  -28.7660  -20.0800   19.2210 C   0  0  0  0  0  3  0  0  0  0  0  0
  -30.1140  -19.3330   21.0980 C   0  0  0  0  0  3  0  0  0  0  0  0
  -28.5770  -18.7380   18.8270 C   0  0  0  0  0  0  0  0  0  0  0  0
  -29.9410  -17.9760   20.7050 C   0  0  0  0  0  0  0  0  0  0  0  0
  -29.5360  -20.4080   20.3650 C   0  0  0  0  0  0  0  0  0  0  0  0
  -27.7390  -18.4170   17.6080 C   0  0  0  0  0  1  0  0  0  0  0  0
  -30.6030  -16.8350   21.4990 C   0  0  0  0  0  2  0  0  0  0  0  0
  -30.7370  -14.5180   20.5010 C   0  0  0  0  0  0  0  0  0  0  0  0
  -30.4150  -12.4060   19.2570 C   0  0  0  0  0  2  0  0  0  0  0  0
  -29.4690  -12.6390   18.0610 C   0  0  0  0  0  2  0  0  0  0  0  0
  -27.9970  -12.4810   18.4960 C   0  0  0  0  0  2  0  0  0  0  0  0
  -27.6630  -13.2900   19.7770 C   0  0  0  0  0  3  0  0  0  0  0  0
  -28.7210  -13.0410   20.8750 C   0  0  0  0  0  2  0  0  0  0  0  0
  -30.0450  -13.3590   20.3170 N   0  0  0  0  0  0  0  0  0  0  0  0
  -31.8340  -14.7280   19.9780 O   0  0  0  0  0  0  0  0  0  0  0  0
  -30.1110  -15.4710   21.2190 N   0  0  0  0  0  0  0  0  0  0  0  0
  -29.2170  -15.2210   21.6130 H   0  0  0  0  0  0  0  0  0  0  0  0
  -25.2580  -13.8780   20.4840 C   0  0  0  0  0  0  0  0  0  0  0  0
  -24.1960  -13.0970   20.8520 C   0  0  0  0  0  0  0  0  0  0  0  0
  -24.6700  -11.7490   20.8240 C   0  0  0  0  0  0  0  0  0  0  0  0
  -26.3110  -13.0050   20.2540 N   0  0  0  0  0  0  0  0  0  0  0  0
  -25.9610  -11.7210   20.5170 N   0  0  0  0  0  0  0  0  0  0  0  0
  -23.9560  -10.4800   21.0150 C   0  0  0  0  0  0  0  0  0  0  0  0
  -24.3880   -9.5230   21.9600 C   0  0  0  0  0  3  0  0  0  0  0  0
  -23.6730   -8.3200   22.1380 C   0  0  0  0  0  3  0  0  0  0  0  0
  -22.5120   -8.0640   21.3710 C   0  0  0  0  0  0  0  0  0  0  0  0
  -22.0990   -9.0090   20.4140 C   0  0  0  0  0  3  0  0  0  0  0  0
  -22.8160  -10.2040   20.2340 C   0  0  0  0  0  3  0  0  0  0  0  0
  -21.7690   -6.9110   21.4560 O   0  0  0  0  0  0  0  0  0  0  0  0
  -21.6980   -6.1840   22.6170 C   0  0  0  0  0  0  0  0  0  0  0  0
  -21.2100   -6.7440   23.8180 C   0  0  0  0  0  3  0  0  0  0  0  0
  -21.0900   -5.9410   24.9700 C   0  0  0  0  0  3  0  0  0  0  0  0
  -21.4470   -4.5810   24.9230 C   0  0  0  0  0  0  0  0  0  0  0  0
  -21.9270   -4.0210   23.7250 C   0  0  0  0  0  3  0  0  0  0  0  0
  -22.0500   -4.8200   22.5750 C   0  0  0  0  0  0  0  0  0  0  0  0
  -22.4930   -4.2700   21.4190 F   0  0  0  0  0  0  0  0  0  0  0  0
  -21.3250   -3.8080   26.0270 F   0  0  0  0  0  0  0  0  0  0  0  0
  -22.7940  -13.5620   21.1230 C   0  0  0  0  0  0  0  0  0  0  0  0
  -22.0660  -12.8550   21.9810 N   0  0  0  0  0  0  0  0  0  0  0  0
  -22.3500  -14.5870   20.6080 O   0  0  0  0  0  0  0  0  0  0  0  0
  -22.4360  -12.0290   22.4240 H   0  0  0  0  0  0  0  0  0  0  0  0
  -21.1250  -13.1500   22.2040 H   0  0  0  0  0  0  0  0  0  0  0  0
  -25.4140  -15.2500   20.3090 N   0  0  0  0  0  0  0  0  0  0  0  0
  -24.6460  -15.9020   20.4320 H   0  0  0  0  0  0  0  0  0  0  0  0
  -26.2700  -15.6970   20.0110 H   0  0  0  0  0  0  0  0  0  0  0  0
  -29.7480  -21.7190   20.7910 O   0  0  0  0  0  0  0  0  0  0  0  0
  -29.1430  -22.7960   20.0410 C   0  0  0  0  0  2  0  0  0  0  0  0
  -29.3150  -24.2200   20.6540 C   0  0  0  0  0  2  0  0  0  0  0  0
  -28.3560  -25.2520   19.9910 C   0  0  0  0  0  2  0  0  0  0  0  0
  -28.4730  -26.6430   20.3990 O   0  0  0  0  0  0  0  0  0  0  0  0
  -24.6750  -31.9510   23.3260 C   0  0  0  0  0  0  0  0  0  0  0  0
  -27.3300  -27.4350   20.3130 C   0  0  0  0  0  0  0  0  0  0  0  0
  -23.4900  -30.5520   21.6700 C   0  0  0  0  0  3  0  0  0  0  0  0
  -24.9560  -29.0050   20.2720 C   0  0  0  0  0  0  0  0  0  0  0  0
  -26.0270  -30.8780   21.5230 C   0  0  0  0  0  2  0  0  0  0  0  0
  -26.1110  -29.5030   20.8870 C   0  0  0  0  0  0  0  0  0  0  0  0
  -27.2980  -28.7240   20.9100 C   0  0  0  0  0  3  0  0  0  0  0  0
  -26.1570  -26.9860   19.6580 C   0  0  0  0  0  3  0  0  0  0  0  0
  -24.9770  -27.7470   19.6530 C   0  0  0  0  0  3  0  0  0  0  0  0
  -23.7200  -29.8730   20.2950 C   0  0  0  0  0  2  0  0  0  0  0  0
  -24.7480  -31.1420   22.2310 N   0  0  0  0  0  0  0  0  0  0  0  0
  -23.5860  -32.2330   23.8440 O   0  0  0  0  0  0  0  0  0  0  0  0
  -22.8140  -29.5360   22.6210 C   0  0  0  0  0  0  0  0  0  0  0  0
  -21.4900  -29.3620   22.4750 N   0  0  0  0  0  0  0  0  0  0  0  0
  -23.4800  -28.9080   23.4490 O   0  0  0  0  0  0  0  0  0  0  0  0
  -21.0120  -29.9210   21.7790 H   0  0  0  0  0  0  0  0  0  0  0  0
  -18.0970  -28.2120   22.9480 C   0  0  0  0  0  0  0  0  0  0  0  0
  -20.6560  -28.4320   23.2360 C   0  0  0  0  0  3  0  0  0  0  0  0
  -20.7410  -27.0010   22.6550 C   0  0  0  0  0  2  0  0  0  0  0  0
  -19.6420  -26.6990   21.6330 C   0  0  0  0  0  2  0  0  0  0  0  0
  -18.2580  -26.8630   22.2690 C   0  0  0  0  0  2  0  0  0  0  0  0
  -19.2230  -28.9550   23.3890 C   0  0  0  0  0  0  0  0  0  0  0  0
  -19.0200  -30.2190   23.9840 C   0  0  0  0  0  3  0  0  0  0  0  0
  -17.7220  -30.7410   24.1420 C   0  0  0  0  0  3  0  0  0  0  0  0
  -16.6090  -29.9950   23.7170 C   0  0  0  0  0  3  0  0  0  0  0  0
  -16.7970  -28.7310   23.1280 C   0  0  0  0  0  3  0  0  0  0  0  0
  -25.9530  -32.5780   23.9630 C   0  0  0  0  0  3  0  0  0  0  0  0
  -25.6510  -33.9840   24.2650 N   0  0  0  0  0  0  0  0  0  0  0  0
  -25.9930  -35.0190   23.4880 C   0  0  0  0  0  0  0  0  0  0  0  0
  -26.6680  -34.8920   22.4610 O   0  0  0  0  0  0  0  0  0  0  0  0
  -25.0540  -34.1590   25.0610 H   0  0  0  0  0  0  0  0  0  0  0  0
  -24.2790  -36.8150   23.0880 C   0  0  0  0  0  1  0  0  0  0  0  0
  -25.5120  -36.4190   23.9150 C   0  0  0  0  0  3  0  0  0  0  0  0
  -27.6440  -37.3110   24.7440 C   0  0  0  0  0  1  0  0  0  0  0  0
  -26.5510  -37.4630   23.7870 N   0  0  0  0  0  0  0  0  0  0  0  0
  -26.1490  -38.3890   23.9090 H   0  0  0  0  0  0  0  0  0  0  0  0
  -26.4380  -31.8200   25.2600 C   0  0  1  0  0  0  0  0  0  0  0  0
  -25.3220  -31.6050   26.3080 C   0  0  0  0  0  1  0  0  0  0  0  0
  -27.0190  -30.4340   24.8990 C   0  0  0  0  0  1  0  0  0  0  0  0
  -27.5790  -32.6150   25.9360 C   0  0  0  0  0  1  0  0  0  0  0  0
  1  5  1  0
  2  6  2  0
  4  2  1  0
  4  1  2  0
  5  3  2  0
  5  8  1  0
  6 47  1  0
  6  3  1  0
  7  4  1  0
  9 17  1  0
 10 15  1  0
 11 12  1  0
 11 10  1  0
 13 12  1  0
 13 22  1  0
 13 14  1  0
 15  9  1  0
 15 14  1  0
 16  9  2  0
 17  8  1  0
 17 18  1  0
 19 20  2  0
 20 39  1  0
 21 20  1  0
 21 24  1  0
 22 19  1  0
 22 23  1  0
 23 21  2  0
 24 25  1  0
 25 26  2  0
 27 30  1  0
 27 26  1  0
 28 27  2  0
 29 28  1  0
 29 24  2  0
 30 31  1  0
 31 32  1  0
 32 33  2  0
 34 33  1  0
 34 38  1  0
 35 34  2  0
 36 31  2  0
 36 35  1  0
 37 36  1  0
 39 40  1  0
 40 43  1  0
 40 42  1  0
 41 39  2  0
 44 45  1  0
 44 19  1  0
 46 44  1  0
 48 49  1  0
 48 47  1  0
 50 51  1  0
 50 49  1  0
 52 63  2  0
 53 51  1  0
 53 58  1  0
 54 62  1  0
 54 64  1  0
 55 61  1  0
 55 57  1  0
 56 62  1  0
 57 58  2  0
 57 56  1  0
 59 53  2  0
 60 59  1  0
 60 55  2  0
 61 54  1  0
 62 52  1  0
 64 66  2  0
 65 64  1  0
 67 65  1  0
 68 77  2  0
 68 73  1  0
 69 65  1  0
 69 73  1  0
 70 69  1  0
 71 72  1  0
 71 70  1  0
 72 68  1  0
 73 74  2  0
 74 75  1  0
 76 75  2  0
 77 76  1  0
 78 52  1  0
 78 79  1  0
 78 88  1  0
 79 82  1  0
 80 84  1  0
 80 79  1  0
 81 80  2  0
 84 83  1  0
 86 87  1  0
 86 84  1  0
 86 85  1  0
 88 91  1  1
 88 89  1  0
 90 88  1  0
M  ISO  4   9 100  17 100  50 101  51 101
M  END
>  <TORSDO>  (81) 
F 21

>  <SCORE>  (81) 
-13.679

>  <name>  (81) 
81

>  <ligand_id>  (81) 
81

>  <original_smiles>  (81) 
[H]c1c([H])c([H])c2c(c1[H])C([H])([H])C([H])([H])C([H])([H])C2([H])N([H])C(=O)C1([H])N(C(=O)C([H])(N([H])C(=O)C([H])(N([H])C([H])([H])[H])C([H])([H])[H])C(C([H])([H])[H])(C([H])([H])[H])C([H])([H])[H])C([H])([H])c2c([H])c(OC([H])([H])C([H])([H])C([H])([H])Oc3c([H])c(C([H])([H])[H])c([H])c(C([H])([H])N([H])C(=O)N4C([H])([H])C([H])([H])C([H])([H])C([H])(n5nc(-c6c([H])c([H])c(Oc7c([H])c([H])c(F)c([H])c7F)c([H])c6[H])c(C(=O)N([H])[H])c5N([H])[H])C4([H])[H])c3[H])c([H])c([H])c2C1([H])[H]

>  <smiles>  (81) 
[H]c1c([H])c([H])c2c(c1[H])C([H])([H])C([H])([H])C([H])([H])C2([H])N([H])C(=O)C1([H])N(C(=O)C([H])(N([H])C(=O)C([H])(N([H])C([H])([H])[H])C([H])([H])[H])C(C([H])([H])[H])(C([H])([H])[H])C([H])([H])[H])C([H])([H])c2c([H])c(OC([H])([H])C([H])([H])C([H])([H])Oc3c([H])c(C([H])([H])[H])c([H])c(C([H])([H])N([H])C(=O)N4C([H])([H])C([H])([H])C([H])([H])C([H])(n5nc(-c6c([H])c([H])c(Oc7c([H])c([H])c(F)c([H])c7F)c([H])c6[H])c(C(=O)N([H])[H])c5N([H])[H])C4([H])[H])c3[H])c([H])c([H])c2C1([H])[H]

$$$$
82:0:0
     RDKit          3D

 94102  0  0  1  0  0  0  0  0999 V2000
  -28.8570  -20.7260   21.6970 N   0  0  0  0  0  0  0  0  0  0  0  0
  -29.3950  -21.0260   22.5070 H   0  0  0  0  0  0  0  0  0  0  0  0
  -28.3400  -18.7770   20.2800 C   0  0  0  0  0  3  0  0  0  0  0  0
  -28.6970  -17.5040   19.7900 C   0  0  0  0  0  3  0  0  0  0  0  0
  -30.1320  -18.6430   21.9010 C   0  0  0  0  0  3  0  0  0  0  0  0
  -29.0990  -19.3940   21.2950 C   0  0  0  0  0  0  0  0  0  0  0  0
  -29.8510  -16.8270   20.2670 C   0  0  0  0  0  0  0  0  0  0  0  0
  -30.5100  -17.3730   21.3990 C   0  0  0  0  0  0  0  0  0  0  0  0
  -31.5620  -16.7370   21.9700 F   0  0  0  0  0  0  0  0  0  0  0  0
  -31.0870  -14.6900   19.9720 C   0  0  0  0  0  0  0  0  0  0  0  0
  -30.7140  -12.4790   18.9920 C   0  0  0  0  0  2  0  0  0  0  0  0
  -29.7340  -12.6150   17.8050 C   0  0  0  0  0  2  0  0  0  0  0  0
  -28.2770  -12.5400   18.2820 C   0  0  0  0  0  2  0  0  0  0  0  0
  -27.9840  -13.4380   19.5130 C   0  0  0  0  0  3  0  0  0  0  0  0
  -29.0750  -13.3060   20.5980 C   0  0  0  0  0  2  0  0  0  0  0  0
  -30.3730  -13.5350   19.9550 N   0  0  0  0  0  0  0  0  0  0  0  0
  -32.3170  -14.6970   19.8840 O   0  0  0  0  0  0  0  0  0  0  0  0
  -30.4150  -15.7660   19.4610 N   0  0  0  0  0  0  0  0  0  0  0  0
  -25.6180  -14.0700   20.2890 C   0  0  0  0  0  0  0  0  0  0  0  0
  -24.5480  -13.3090   20.6700 C   0  0  0  0  0  0  0  0  0  0  0  0
  -24.9930  -11.9530   20.6330 C   0  0  0  0  0  0  0  0  0  0  0  0
  -26.6480  -13.1780   20.0410 N   0  0  0  0  0  0  0  0  0  0  0  0
  -26.2790  -11.9000   20.3130 N   0  0  0  0  0  0  0  0  0  0  0  0
  -24.2560  -10.6980   20.8280 C   0  0  0  0  0  0  0  0  0  0  0  0
  -24.6520   -9.7530   21.8010 C   0  0  0  0  0  3  0  0  0  0  0  0
  -23.9140   -8.5630   21.9840 C   0  0  0  0  0  3  0  0  0  0  0  0
  -22.7680   -8.3100   21.1940 C   0  0  0  0  0  0  0  0  0  0  0  0
  -22.3930   -9.2440   20.2110 C   0  0  0  0  0  3  0  0  0  0  0  0
  -23.1300  -10.4240   20.0250 C   0  0  0  0  0  3  0  0  0  0  0  0
  -22.0040   -7.1710   21.2860 O   0  0  0  0  0  0  0  0  0  0  0  0
  -21.8370   -6.5110   22.4770 C   0  0  0  0  0  0  0  0  0  0  0  0
  -21.2640   -7.1420   23.6030 C   0  0  0  0  0  3  0  0  0  0  0  0
  -21.0450   -6.4070   24.7860 C   0  0  0  0  0  3  0  0  0  0  0  0
  -21.3880   -5.0440   24.8430 C   0  0  0  0  0  0  0  0  0  0  0  0
  -21.9520   -4.4120   23.7200 C   0  0  0  0  0  3  0  0  0  0  0  0
  -22.1740   -5.1430   22.5400 C   0  0  0  0  0  0  0  0  0  0  0  0
  -22.6970   -4.5250   21.4540 F   0  0  0  0  0  0  0  0  0  0  0  0
  -21.1710   -4.3360   25.9770 F   0  0  0  0  0  0  0  0  0  0  0  0
  -23.1600  -13.8010   20.9610 C   0  0  0  0  0  0  0  0  0  0  0  0
  -22.4450  -13.1250   21.8530 N   0  0  0  0  0  0  0  0  0  0  0  0
  -22.7180  -14.8190   20.4300 O   0  0  0  0  0  0  0  0  0  0  0  0
  -22.8140  -12.3000   22.3030 H   0  0  0  0  0  0  0  0  0  0  0  0
  -21.5150  -13.4400   22.0920 H   0  0  0  0  0  0  0  0  0  0  0  0
  -25.7990  -15.4380   20.1090 N   0  0  0  0  0  0  0  0  0  0  0  0
  -25.0490  -16.1080   20.2350 H   0  0  0  0  0  0  0  0  0  0  0  0
  -26.6680  -15.8670   19.8190 H   0  0  0  0  0  0  0  0  0  0  0  0
  -31.4970  -15.6300   17.2010 C   0  0  0  0  0  2  0  0  0  0  0  0
  -30.7560  -16.2310   18.1540 C   0  0  0  0  0  3  0  0  0  0  0  0
  -28.7270  -21.7490   20.6440 C   0  0  0  0  0  2  0  0  0  0  0  0
  -28.5510  -23.1880   21.2080 C   0  0  0  0  0  2  0  0  0  0  0  0
  -28.5250  -24.3280   20.1600 C   0  0  0  0  0  0  0  0  0  0  0  0
  -28.5560  -24.0920   18.9480 O   0  0  0  0  0  0  0  0  0  0  0  0
  -28.4590  -25.7750   20.7020 C   0  0  0  0  0  2  0  0  0  0  0  0
  -28.3920  -26.7710   19.6580 O   0  0  0  0  0  0  0  0  0  0  0  0
  -24.5220  -31.7000   23.0300 C   0  0  0  0  0  0  0  0  0  0  0  0
  -27.2300  -27.5030   19.6920 C   0  0  0  0  0  0  0  0  0  0  0  0
  -23.3230  -30.3370   21.3490 C   0  0  0  0  0  3  0  0  0  0  0  0
  -24.7930  -28.9240   19.8150 C   0  0  0  0  0  0  0  0  0  0  0  0
  -25.8270  -30.7960   21.1080 C   0  0  0  0  0  2  0  0  0  0  0  0
  -25.9450  -29.4610   20.4030 C   0  0  0  0  0  0  0  0  0  0  0  0
  -27.1700  -28.7580   20.3380 C   0  0  0  0  0  3  0  0  0  0  0  0
  -26.0660  -26.9790   19.0930 C   0  0  0  0  0  3  0  0  0  0  0  0
  -24.8480  -27.6830   19.1530 C   0  0  0  0  0  3  0  0  0  0  0  0
  -23.5210  -29.7370   19.9320 C   0  0  0  0  0  2  0  0  0  0  0  0
  -24.5760  -30.9580   21.8870 N   0  0  0  0  0  0  0  0  0  0  0  0
  -23.4470  -31.9070   23.6100 O   0  0  0  0  0  0  0  0  0  0  0  0
  -22.7330  -29.2470   22.2720 C   0  0  0  0  0  0  0  0  0  0  0  0
  -21.4120  -29.0260   22.1700 N   0  0  0  0  0  0  0  0  0  0  0  0
  -23.4600  -28.6050   23.0350 O   0  0  0  0  0  0  0  0  0  0  0  0
  -20.8850  -29.6010   21.5290 H   0  0  0  0  0  0  0  0  0  0  0  0
  -18.0910  -27.7040   22.6960 C   0  0  0  0  0  0  0  0  0  0  0  0
  -20.6470  -28.0240   22.9110 C   0  0  0  0  0  3  0  0  0  0  0  0
  -20.7730  -26.6290   22.2560 C   0  0  0  0  0  2  0  0  0  0  0  0
  -19.6520  -26.3280   21.2570 C   0  0  0  0  0  2  0  0  0  0  0  0
  -18.2860  -26.3970   21.9450 C   0  0  0  0  0  2  0  0  0  0  0  0
  -19.1980  -28.4750   23.1360 C   0  0  0  0  0  0  0  0  0  0  0  0
  -18.9610  -29.7000   23.7970 C   0  0  0  0  0  3  0  0  0  0  0  0
  -17.6480  -30.1530   24.0250 C   0  0  0  0  0  3  0  0  0  0  0  0
  -16.5550  -29.3760   23.6020 C   0  0  0  0  0  3  0  0  0  0  0  0
  -16.7770  -28.1540   22.9440 C   0  0  0  0  0  3  0  0  0  0  0  0
  -25.8020  -32.3450   23.6490 C   0  0  0  0  0  3  0  0  0  0  0  0
  -25.4640  -33.7190   24.0400 N   0  0  0  0  0  0  0  0  0  0  0  0
  -25.7660  -34.8090   23.3230 C   0  0  0  0  0  0  0  0  0  0  0  0
  -26.4330  -34.7640   22.2860 O   0  0  0  0  0  0  0  0  0  0  0  0
  -24.8780  -33.8260   24.8560 H   0  0  0  0  0  0  0  0  0  0  0  0
  -24.0010  -36.5740   23.0290 C   0  0  0  0  0  1  0  0  0  0  0  0
  -25.2440  -36.1640   23.8350 C   0  0  0  0  0  3  0  0  0  0  0  0
  -27.3480  -37.0610   24.7280 C   0  0  0  0  0  1  0  0  0  0  0  0
  -26.2540  -37.2440   23.7770 N   0  0  0  0  0  0  0  0  0  0  0  0
  -25.8270  -38.1480   23.9540 H   0  0  0  0  0  0  0  0  0  0  0  0
  -26.3720  -31.5370   24.8810 C   0  0  1  0  0  0  0  0  0  0  0  0
  -25.3110  -31.2240   25.9620 C   0  0  0  0  0  1  0  0  0  0  0  0
  -26.9810  -30.1930   24.4140 C   0  0  0  0  0  1  0  0  0  0  0  0
  -27.5170  -32.3330   25.5480 C   0  0  0  0  0  1  0  0  0  0  0  0
  1  2  1  0
  3  6  1  0
  4  7  1  0
  4  3  2  0
  6  1  1  0
  6  5  2  0
  7  8  2  0
  8  5  1  0
  8  9  1  0
 11 16  1  0
 12 13  1  0
 12 11  1  0
 14 13  1  0
 14 22  1  0
 14 15  1  0
 16 10  1  0
 16 15  1  0
 17 10  2  0
 18 10  1  0
 18  7  1  0
 19 20  2  0
 20 39  1  0
 21 20  1  0
 21 24  1  0
 22 19  1  0
 22 23  1  0
 23 21  2  0
 24 25  1  0
 25 26  2  0
 27 30  1  0
 27 26  1  0
 28 27  2  0
 29 28  1  0
 29 24  2  0
 30 31  1  0
 31 36  2  0
 31 32  1  0
 32 33  2  0
 33 34  1  0
 34 38  1  0
 35 34  2  0
 36 35  1  0
 37 36  1  0
 39 40  1  0
 40 43  1  0
 40 42  1  0
 41 39  2  0
 44 45  1  0
 44 19  1  0
 46 44  1  0
 47 48  2  0
 48 18  1  0
 49 50  1  0
 49  1  1  0
 51 53  1  0
 51 50  1  0
 52 51  2  0
 54 56  1  0
 54 53  1  0
 55 66  2  0
 56 61  1  0
 57 65  1  0
 57 67  1  0
 58 64  1  0
 58 60  1  0
 59 65  1  0
 60 59  1  0
 61 60  2  0
 62 63  1  0
 62 56  2  0
 63 58  2  0
 64 57  1  0
 65 55  1  0
 67 69  2  0
 68 67  1  0
 70 68  1  0
 71 80  2  0
 71 76  1  0
 72 68  1  0
 72 76  1  0
 73 72  1  0
 74 75  1  0
 74 73  1  0
 75 71  1  0
 76 77  2  0
 77 78  1  0
 79 78  2  0
 80 79  1  0
 81 55  1  0
 81 82  1  0
 81 91  1  0
 82 85  1  0
 83 87  1  0
 83 82  1  0
 84 83  2  0
 87 86  1  0
 89 87  1  0
 89 90  1  0
 89 88  1  0
 91 94  1  1
 91 92  1  0
 93 91  1  0
M  ISO  4  10 100  18 100  53 101  54 101
M  END
>  <TORSDO>  (82) 
F 22

>  <SCORE>  (82) 
-11.491

>  <name>  (82) 
82

>  <ligand_id>  (82) 
82

>  <original_smiles>  (82) 
[H]C([H])=C([H])N(C(=O)N1C([H])([H])C([H])([H])C([H])([H])C([H])(n2nc(-c3c([H])c([H])c(Oc4c([H])c([H])c(F)c([H])c4F)c([H])c3[H])c(C(=O)N([H])[H])c2N([H])[H])C1([H])[H])c1c([H])c([H])c(N([H])C([H])([H])C([H])([H])C(=O)C([H])([H])Oc2c([H])c([H])c3c(c2[H])C([H])([H])N(C(=O)C([H])(N([H])C(=O)C([H])(N([H])C([H])([H])[H])C([H])([H])[H])C(C([H])([H])[H])(C([H])([H])[H])C([H])([H])[H])C([H])(C(=O)N([H])C2([H])c4c([H])c([H])c([H])c([H])c4C([H])([H])C([H])([H])C2([H])[H])C3([H])[H])c([H])c1F

>  <smiles>  (82) 
[H]C([H])=C([H])N(C(=O)N1C([H])([H])C([H])([H])C([H])([H])C([H])(n2nc(-c3c([H])c([H])c(Oc4c([H])c([H])c(F)c([H])c4F)c([H])c3[H])c(C(=O)N([H])[H])c2N([H])[H])C1([H])[H])c1c([H])c([H])c(N([H])C([H])([H])C([H])([H])C(=O)C([H])([H])Oc2c([H])c([H])c3c(c2[H])C([H])([H])N(C(=O)C([H])(N([H])C(=O)C([H])(N([H])C([H])([H])[H])C([H])([H])[H])C(C([H])([H])[H])(C([H])([H])[H])C([H])([H])[H])C([H])(C(=O)N([H])C2([H])c4c([H])c([H])c([H])c([H])c4C([H])([H])C([H])([H])C2([H])[H])C3([H])[H])c([H])c1F

$$$$
83:0:0
     RDKit          3D

 93101  0  0  1  0  0  0  0  0999 V2000
  -30.8580  -17.6120   21.3620 C   0  0  0  0  0  3  0  0  0  0  0  0
  -28.8120  -19.3520   20.5910 C   0  0  0  0  0  3  0  0  0  0  0  0
  -29.9000  -17.1400   20.4300 C   0  0  0  0  0  0  0  0  0  0  0  0
  -28.8410  -18.0390   20.0770 C   0  0  0  0  0  0  0  0  0  0  0  0
  -29.8170  -19.8370   21.4550 C   0  0  0  0  0  0  0  0  0  0  0  0
  -30.8200  -18.9320   21.8640 C   0  0  0  0  0  0  0  0  0  0  0  0
  -27.7120  -17.7130   19.1040 C   0  0  0  0  0  1  0  0  0  0  0  0
  -31.7930  -19.3460   22.7120 F   0  0  0  0  0  0  0  0  0  0  0  0
  -30.1090  -15.8260   19.7190 C   0  0  0  0  0  0  0  0  0  0  0  0
  -29.7840  -15.7280   18.4970 N   0  0  0  0  0  0  0  0  0  0  0  0
  -29.3720  -16.5920   18.1670 H   0  0  0  0  0  0  0  0  0  0  0  0
  -30.8520  -14.6660   20.4060 C   0  0  0  0  0  0  0  0  0  0  0  0
  -30.5910  -12.4040   19.4990 C   0  0  0  0  0  2  0  0  0  0  0  0
  -29.6780  -12.4600   18.2560 C   0  0  0  0  0  2  0  0  0  0  0  0
  -28.1900  -12.3750   18.6600 C   0  0  0  0  0  2  0  0  0  0  0  0
  -27.8020  -13.3050   19.8420 C   0  0  0  0  0  3  0  0  0  0  0  0
  -28.8450  -13.2460   20.9790 C   0  0  0  0  0  2  0  0  0  0  0  0
  -30.1780  -13.4830   20.4050 N   0  0  0  0  0  0  0  0  0  0  0  0
  -32.0810  -14.7380   20.3460 O   0  0  0  0  0  0  0  0  0  0  0  0
  -25.4020  -13.9210   20.5430 C   0  0  0  0  0  0  0  0  0  0  0  0
  -24.3260  -13.1520   20.8850 C   0  0  0  0  0  0  0  0  0  0  0  0
  -24.7860  -11.8020   20.8660 C   0  0  0  0  0  0  0  0  0  0  0  0
  -26.4490  -13.0380   20.3220 N   0  0  0  0  0  0  0  0  0  0  0  0
  -26.0820  -11.7590   20.5860 N   0  0  0  0  0  0  0  0  0  0  0  0
  -24.0560  -10.5430   21.0420 C   0  0  0  0  0  0  0  0  0  0  0  0
  -24.4530   -9.5900   22.0050 C   0  0  0  0  0  3  0  0  0  0  0  0
  -23.7240   -8.3940   22.1690 C   0  0  0  0  0  3  0  0  0  0  0  0
  -22.5830   -8.1430   21.3680 C   0  0  0  0  0  0  0  0  0  0  0  0
  -22.2070   -9.0850   20.3960 C   0  0  0  0  0  3  0  0  0  0  0  0
  -22.9370  -10.2730   20.2300 C   0  0  0  0  0  3  0  0  0  0  0  0
  -21.8280   -6.9980   21.4410 O   0  0  0  0  0  0  0  0  0  0  0  0
  -21.7130   -6.2850   22.6080 C   0  0  0  0  0  0  0  0  0  0  0  0
  -21.1840   -6.8620   23.7840 C   0  0  0  0  0  3  0  0  0  0  0  0
  -21.0190   -6.0730   24.9410 C   0  0  0  0  0  3  0  0  0  0  0  0
  -21.3730   -4.7100   24.9210 C   0  0  0  0  0  0  0  0  0  0  0  0
  -21.8950   -4.1340   23.7480 C   0  0  0  0  0  3  0  0  0  0  0  0
  -22.0610   -4.9210   22.5940 C   0  0  0  0  0  0  0  0  0  0  0  0
  -22.5440   -4.3570   21.4610 F   0  0  0  0  0  0  0  0  0  0  0  0
  -21.2070   -3.9500   26.0280 F   0  0  0  0  0  0  0  0  0  0  0  0
  -22.9250  -13.6350   21.1260 C   0  0  0  0  0  0  0  0  0  0  0  0
  -22.1770  -12.9450   21.9790 N   0  0  0  0  0  0  0  0  0  0  0  0
  -22.5020  -14.6610   20.5930 O   0  0  0  0  0  0  0  0  0  0  0  0
  -22.5330  -12.1200   22.4370 H   0  0  0  0  0  0  0  0  0  0  0  0
  -21.2360  -13.2510   22.1810 H   0  0  0  0  0  0  0  0  0  0  0  0
  -25.5630  -15.2900   20.3840 N   0  0  0  0  0  0  0  0  0  0  0  0
  -24.7940  -15.9400   20.5030 H   0  0  0  0  0  0  0  0  0  0  0  0
  -26.4380  -15.7410   20.1610 H   0  0  0  0  0  0  0  0  0  0  0  0
  -29.8660  -21.1540   21.8900 O   0  0  0  0  0  0  0  0  0  0  0  0
  -29.0330  -22.1040   21.2140 C   0  0  0  0  0  2  0  0  0  0  0  0
  -29.3410  -23.5530   21.6410 C   0  0  0  0  0  2  0  0  0  0  0  0
  -28.6860  -24.6040   20.7090 C   0  0  0  0  0  2  0  0  0  0  0  0
  -28.8610  -26.0640   21.1770 C   0  0  0  0  0  2  0  0  0  0  0  0
  -28.6350  -26.9770   20.1000 O   0  0  0  0  0  0  0  0  0  0  0  0
  -24.6110  -31.9420   23.2590 C   0  0  0  0  0  0  0  0  0  0  0  0
  -27.4480  -27.6650   20.1400 C   0  0  0  0  0  0  0  0  0  0  0  0
  -23.4850  -30.5650   21.5380 C   0  0  0  0  0  3  0  0  0  0  0  0
  -25.0180  -29.0990   20.1170 C   0  0  0  0  0  0  0  0  0  0  0  0
  -26.0050  -30.9860   21.4290 C   0  0  0  0  0  2  0  0  0  0  0  0
  -26.1410  -29.6360   20.7570 C   0  0  0  0  0  0  0  0  0  0  0  0
  -27.3610  -28.9240   20.7710 C   0  0  0  0  0  3  0  0  0  0  0  0
  -26.3150  -27.1330   19.4960 C   0  0  0  0  0  3  0  0  0  0  0  0
  -25.0960  -27.8410   19.4880 C   0  0  0  0  0  3  0  0  0  0  0  0
  -23.7520  -29.9280   20.1470 C   0  0  0  0  0  2  0  0  0  0  0  0
  -24.7160  -31.1780   22.1350 N   0  0  0  0  0  0  0  0  0  0  0  0
  -23.5090  -32.1750   23.7740 O   0  0  0  0  0  0  0  0  0  0  0  0
  -22.8290  -29.5020   22.4470 C   0  0  0  0  0  0  0  0  0  0  0  0
  -21.5080  -29.3160   22.2910 N   0  0  0  0  0  0  0  0  0  0  0  0
  -23.5050  -28.8480   23.2460 O   0  0  0  0  0  0  0  0  0  0  0  0
  -21.0250  -29.8970   21.6200 H   0  0  0  0  0  0  0  0  0  0  0  0
  -18.1320  -28.0980   22.7080 C   0  0  0  0  0  0  0  0  0  0  0  0
  -20.6860  -28.3430   23.0100 C   0  0  0  0  0  3  0  0  0  0  0  0
  -20.7940  -26.9400   22.3670 C   0  0  0  0  0  2  0  0  0  0  0  0
  -19.6990  -26.6660   21.3320 C   0  0  0  0  0  2  0  0  0  0  0  0
  -18.3130  -26.7820   21.9700 C   0  0  0  0  0  2  0  0  0  0  0  0
  -19.2470  -28.8390   23.1800 C   0  0  0  0  0  0  0  0  0  0  0  0
  -19.0240  -30.0740   23.8270 C   0  0  0  0  0  3  0  0  0  0  0  0
  -17.7180  -30.5680   24.0060 C   0  0  0  0  0  3  0  0  0  0  0  0
  -16.6170  -29.8230   23.5490 C   0  0  0  0  0  3  0  0  0  0  0  0
  -16.8250  -28.5890   22.9060 C   0  0  0  0  0  3  0  0  0  0  0  0
  -25.8670  -32.5770   23.9360 C   0  0  0  0  0  3  0  0  0  0  0  0
  -25.5370  -33.9710   24.2590 N   0  0  0  0  0  0  0  0  0  0  0  0
  -25.8910  -35.0280   23.5150 C   0  0  0  0  0  0  0  0  0  0  0  0
  -26.6020  -34.9320   22.5110 O   0  0  0  0  0  0  0  0  0  0  0  0
  -24.9150  -34.1210   25.0400 H   0  0  0  0  0  0  0  0  0  0  0  0
  -24.1750  -36.8140   23.0830 C   0  0  0  0  0  1  0  0  0  0  0  0
  -25.3750  -36.4100   23.9550 C   0  0  0  0  0  3  0  0  0  0  0  0
  -27.4530  -37.3030   24.9100 C   0  0  0  0  0  1  0  0  0  0  0  0
  -26.4070  -37.4690   23.9040 N   0  0  0  0  0  0  0  0  0  0  0  0
  -25.9880  -38.3870   24.0320 H   0  0  0  0  0  0  0  0  0  0  0  0
  -26.3410  -31.8020   25.2270 C   0  0  1  0  0  0  0  0  0  0  0  0
  -25.2080  -31.5460   26.2490 C   0  0  0  0  0  1  0  0  0  0  0  0
  -26.9550  -30.4330   24.8500 C   0  0  0  0  0  1  0  0  0  0  0  0
  -27.4580  -32.6030   25.9380 C   0  0  0  0  0  1  0  0  0  0  0  0
  1  6  1  0
  2  5  1  0
  3  1  2  0
  4  3  1  0
  4  2  2  0
  5  6  2  0
  5 48  1  0
  6  8  1  0
  7  4  1  0
  9 12  1  0
  9  3  1  0
 10  9  2  0
 11 10  1  0
 13 18  1  0
 14 15  1  0
 14 13  1  0
 16 15  1  0
 16 23  1  0
 16 17  1  0
 18 12  1  0
 18 17  1  0
 19 12  2  0
 20 21  2  0
 21 40  1  0
 22 21  1  0
 22 25  1  0
 23 20  1  0
 23 24  1  0
 24 22  2  0
 25 26  1  0
 26 27  2  0
 28 31  1  0
 28 27  1  0
 29 28  2  0
 30 29  1  0
 30 25  2  0
 31 32  1  0
 32 33  1  0
 33 34  2  0
 35 34  1  0
 35 39  1  0
 36 35  2  0
 37 32  2  0
 37 36  1  0
 38 37  1  0
 40 41  1  0
 41 44  1  0
 41 43  1  0
 42 40  2  0
 45 46  1  0
 45 20  1  0
 47 45  1  0
 49 50  1  0
 49 48  1  0
 51 52  1  0
 51 50  1  0
 53 55  1  0
 53 52  1  0
 54 65  2  0
 55 60  1  0
 56 64  1  0
 56 66  1  0
 57 63  1  0
 57 59  1  0
 58 64  1  0
 59 60  2  0
 59 58  1  0
 61 55  2  0
 62 61  1  0
 62 57  2  0
 63 56  1  0
 64 54  1  0
 66 68  2  0
 67 66  1  0
 69 67  1  0
 70 79  2  0
 70 75  1  0
 71 67  1  0
 71 75  1  0
 72 71  1  0
 73 74  1  0
 73 72  1  0
 74 70  1  0
 75 76  2  0
 76 77  1  0
 78 77  2  0
 79 78  1  0
 80 54  1  0
 80 81  1  0
 80 90  1  0
 81 84  1  0
 82 86  1  0
 82 81  1  0
 83 82  2  0
 86 85  1  0
 88 86  1  0
 88 89  1  0
 88 87  1  0
 90 93  1  1
 90 91  1  0
 92 90  1  0
M  ISO  4   9 100  12 100  52 101  53 101
M  END
>  <TORSDO>  (83) 
F 22

>  <SCORE>  (83) 
-13.261

>  <name>  (83) 
83

>  <ligand_id>  (83) 
83

>  <original_smiles>  (83) 
[H]N=C(C(=O)N1C([H])([H])C([H])([H])C([H])([H])C([H])(n2nc(-c3c([H])c([H])c(Oc4c([H])c([H])c(F)c([H])c4F)c([H])c3[H])c(C(=O)N([H])[H])c2N([H])[H])C1([H])[H])c1c([H])c(F)c(OC([H])([H])C([H])([H])C([H])([H])C([H])([H])Oc2c([H])c([H])c3c(c2[H])C([H])([H])N(C(=O)C([H])(N([H])C(=O)C([H])(N([H])C([H])([H])[H])C([H])([H])[H])C(C([H])([H])[H])(C([H])([H])[H])C([H])([H])[H])C([H])(C(=O)N([H])C2([H])c4c([H])c([H])c([H])c([H])c4C([H])([H])C([H])([H])C2([H])[H])C3([H])[H])c([H])c1C([H])([H])[H]

>  <smiles>  (83) 
[H]N=C(C(=O)N1C([H])([H])C([H])([H])C([H])([H])C([H])(n2nc(-c3c([H])c([H])c(Oc4c([H])c([H])c(F)c([H])c4F)c([H])c3[H])c(C(=O)N([H])[H])c2N([H])[H])C1([H])[H])c1c([H])c(F)c(OC([H])([H])C([H])([H])C([H])([H])C([H])([H])Oc2c([H])c([H])c3c(c2[H])C([H])([H])N(C(=O)C([H])(N([H])C(=O)C([H])(N([H])C([H])([H])[H])C([H])([H])[H])C(C([H])([H])[H])(C([H])([H])[H])C([H])([H])[H])C([H])(C(=O)N([H])C2([H])c4c([H])c([H])c([H])c([H])c4C([H])([H])C([H])([H])C2([H])[H])C3([H])[H])c([H])c1C([H])([H])[H]

$$$$
84:0:0
     RDKit          3D

 94102  0  0  1  0  0  0  0  0999 V2000
  -30.1480  -22.8700   18.8530 C   0  0  0  0  0  0  0  0  0  0  0  0
  -30.2380  -21.5700   18.5580 N   0  0  0  0  0  0  0  0  0  0  0  0
  -30.7930  -23.4060   19.7560 O   0  0  0  0  0  0  0  0  0  0  0  0
  -29.6780  -21.2300   17.7890 H   0  0  0  0  0  0  0  0  0  0  0  0
  -31.0240  -20.5700   19.2700 C   0  0  0  0  0  2  0  0  0  0  0  0
  -28.1460  -18.0710   19.9020 C   0  0  0  0  0  3  0  0  0  0  0  0
  -28.8550  -19.1800   19.4050 C   0  0  0  0  0  3  0  0  0  0  0  0
  -28.7920  -17.1260   20.7180 C   0  0  0  0  0  3  0  0  0  0  0  0
  -30.8590  -18.4070   20.5570 C   0  0  0  0  0  3  0  0  0  0  0  0
  -30.2160  -19.3660   19.7470 C   0  0  0  0  0  0  0  0  0  0  0  0
  -30.1580  -17.2840   21.0370 C   0  0  0  0  0  0  0  0  0  0  0  0
  -30.8850  -16.2470   21.8800 C   0  0  0  0  0  2  0  0  0  0  0  0
  -30.8840  -14.2280   20.4380 C   0  0  0  0  0  0  0  0  0  0  0  0
  -30.4610  -12.2250   19.0630 C   0  0  0  0  0  2  0  0  0  0  0  0
  -29.4950  -12.5350   17.9070 C   0  0  0  0  0  2  0  0  0  0  0  0
  -28.0260  -12.4200   18.3580 C   0  0  0  0  0  2  0  0  0  0  0  0
  -27.7480  -13.2030   19.6670 C   0  0  0  0  0  3  0  0  0  0  0  0
  -28.8030  -12.8430   20.7350 C   0  0  0  0  0  2  0  0  0  0  0  0
  -30.1470  -13.1200   20.1840 N   0  0  0  0  0  0  0  0  0  0  0  0
  -31.8540  -14.5820   19.7560 O   0  0  0  0  0  0  0  0  0  0  0  0
  -30.4920  -14.8930   21.5280 N   0  0  0  0  0  0  0  0  0  0  0  0
  -29.7700  -14.4630   22.0870 H   0  0  0  0  0  0  0  0  0  0  0  0
  -25.3620  -13.8730   20.3870 C   0  0  0  0  0  0  0  0  0  0  0  0
  -24.2840  -13.1250   20.7760 C   0  0  0  0  0  0  0  0  0  0  0  0
  -24.7160  -11.7630   20.7470 C   0  0  0  0  0  0  0  0  0  0  0  0
  -26.3890  -12.9680   20.1530 N   0  0  0  0  0  0  0  0  0  0  0  0
  -26.0000  -11.6950   20.4220 N   0  0  0  0  0  0  0  0  0  0  0  0
  -23.9650  -10.5180   20.9540 C   0  0  0  0  0  0  0  0  0  0  0  0
  -24.3870   -9.5520   21.8950 C   0  0  0  0  0  3  0  0  0  0  0  0
  -23.6410   -8.3690   22.0880 C   0  0  0  0  0  3  0  0  0  0  0  0
  -22.4610   -8.1460   21.3400 C   0  0  0  0  0  0  0  0  0  0  0  0
  -22.0600   -9.0970   20.3870 C   0  0  0  0  0  3  0  0  0  0  0  0
  -22.8060  -10.2720   20.1920 C   0  0  0  0  0  3  0  0  0  0  0  0
  -21.6860   -7.0160   21.4420 O   0  0  0  0  0  0  0  0  0  0  0  0
  -21.6220   -6.2900   22.6040 C   0  0  0  0  0  0  0  0  0  0  0  0
  -21.2070   -6.8680   23.8230 C   0  0  0  0  0  3  0  0  0  0  0  0
  -21.0880   -6.0690   24.9770 C   0  0  0  0  0  3  0  0  0  0  0  0
  -21.3740   -4.6920   24.9140 C   0  0  0  0  0  0  0  0  0  0  0  0
  -21.7840   -4.1130   23.6990 C   0  0  0  0  0  3  0  0  0  0  0  0
  -21.9040   -4.9100   22.5480 C   0  0  0  0  0  0  0  0  0  0  0  0
  -22.2760   -4.3410   21.3750 F   0  0  0  0  0  0  0  0  0  0  0  0
  -21.2530   -3.9230   26.0210 F   0  0  0  0  0  0  0  0  0  0  0  0
  -22.9000  -13.6310   21.0670 C   0  0  0  0  0  0  0  0  0  0  0  0
  -22.1720  -12.9550   21.9490 N   0  0  0  0  0  0  0  0  0  0  0  0
  -22.4750  -14.6600   20.5470 O   0  0  0  0  0  0  0  0  0  0  0  0
  -22.5270  -12.1210   22.3930 H   0  0  0  0  0  0  0  0  0  0  0  0
  -21.2430  -13.2790   22.1830 H   0  0  0  0  0  0  0  0  0  0  0  0
  -25.5490  -15.2380   20.1930 N   0  0  0  0  0  0  0  0  0  0  0  0
  -24.7840  -15.8980   20.2800 H   0  0  0  0  0  0  0  0  0  0  0  0
  -26.3840  -15.6480   19.7970 H   0  0  0  0  0  0  0  0  0  0  0  0
  -29.1720  -23.6870   18.0060 C   0  0  0  0  0  2  0  0  0  0  0  0
  -28.2580  -24.6030   18.8460 C   0  0  0  0  0  2  0  0  0  0  0  0
  -28.7780  -26.0530   18.9570 C   0  0  0  0  0  2  0  0  0  0  0  0
  -28.3800  -26.7490   20.1420 O   0  0  0  0  0  0  0  0  0  0  0  0
  -24.5760  -31.8940   23.2380 C   0  0  0  0  0  0  0  0  0  0  0  0
  -27.1970  -27.4540   20.1330 C   0  0  0  0  0  0  0  0  0  0  0  0
  -23.3590  -30.4940   21.6020 C   0  0  0  0  0  3  0  0  0  0  0  0
  -24.8010  -28.9540   20.1750 C   0  0  0  0  0  0  0  0  0  0  0  0
  -25.8830  -30.8470   21.3930 C   0  0  0  0  0  2  0  0  0  0  0  0
  -25.9610  -29.4720   20.7640 C   0  0  0  0  0  0  0  0  0  0  0  0
  -27.1560  -28.7210   20.7580 C   0  0  0  0  0  3  0  0  0  0  0  0
  -26.0150  -26.9450   19.5550 C   0  0  0  0  0  3  0  0  0  0  0  0
  -24.8200  -27.6840   19.5760 C   0  0  0  0  0  3  0  0  0  0  0  0
  -23.5630  -29.8160   20.2210 C   0  0  0  0  0  2  0  0  0  0  0  0
  -24.6250  -31.0930   22.1380 N   0  0  0  0  0  0  0  0  0  0  0  0
  -23.4960  -32.1700   23.7820 O   0  0  0  0  0  0  0  0  0  0  0  0
  -22.7090  -29.4740   22.5630 C   0  0  0  0  0  0  0  0  0  0  0  0
  -21.3850  -29.2990   22.4420 N   0  0  0  0  0  0  0  0  0  0  0  0
  -23.3940  -28.8440   23.3750 O   0  0  0  0  0  0  0  0  0  0  0  0
  -20.8930  -29.8600   21.7610 H   0  0  0  0  0  0  0  0  0  0  0  0
  -18.0050  -28.1310   22.9540 C   0  0  0  0  0  0  0  0  0  0  0  0
  -20.5660  -28.3660   23.2150 C   0  0  0  0  0  3  0  0  0  0  0  0
  -20.6540  -26.9360   22.6350 C   0  0  0  0  0  2  0  0  0  0  0  0
  -19.5440  -26.6250   21.6250 C   0  0  0  0  0  2  0  0  0  0  0  0
  -18.1670  -26.7830   22.2750 C   0  0  0  0  0  2  0  0  0  0  0  0
  -19.1330  -28.8810   23.3820 C   0  0  0  0  0  0  0  0  0  0  0  0
  -18.9280  -30.1470   23.9760 C   0  0  0  0  0  3  0  0  0  0  0  0
  -17.6290  -30.6590   24.1470 C   0  0  0  0  0  3  0  0  0  0  0  0
  -16.5160  -29.9060   23.7370 C   0  0  0  0  0  3  0  0  0  0  0  0
  -16.7050  -28.6430   23.1470 C   0  0  0  0  0  3  0  0  0  0  0  0
  -25.8660  -32.5210   23.8520 C   0  0  0  0  0  3  0  0  0  0  0  0
  -25.5620  -33.9200   24.1860 N   0  0  0  0  0  0  0  0  0  0  0  0
  -25.9010  -34.9700   23.4260 C   0  0  0  0  0  0  0  0  0  0  0  0
  -26.5720  -34.8640   22.3960 O   0  0  0  0  0  0  0  0  0  0  0  0
  -24.9700  -34.0760   24.9880 H   0  0  0  0  0  0  0  0  0  0  0  0
  -24.1850  -36.7700   23.0620 C   0  0  0  0  0  1  0  0  0  0  0  0
  -25.4190  -36.3600   23.8830 C   0  0  0  0  0  3  0  0  0  0  0  0
  -27.5550  -37.2290   24.7250 C   0  0  0  0  0  1  0  0  0  0  0  0
  -26.4580  -37.4070   23.7770 N   0  0  0  0  0  0  0  0  0  0  0  0
  -26.0580  -38.3300   23.9250 H   0  0  0  0  0  0  0  0  0  0  0  0
  -26.3900  -31.7440   25.1220 C   0  0  1  0  0  0  0  0  0  0  0  0
  -25.3070  -31.5040   26.1980 C   0  0  0  0  0  1  0  0  0  0  0  0
  -26.9670  -30.3680   24.7150 C   0  0  0  0  0  1  0  0  0  0  0  0
  -27.5480  -32.5330   25.7770 C   0  0  0  0  0  1  0  0  0  0  0  0
  1  3  2  0
  2  1  1  0
  2  5  1  0
  4  2  1  0
  5 10  1  0
  6  8  1  0
  7 10  1  0
  7  6  2  0
  8 11  2  0
  9 11  1  0
 10  9  2  0
 11 12  1  0
 13 21  1  0
 14 19  1  0
 15 16  1  0
 15 14  1  0
 17 16  1  0
 17 26  1  0
 17 18  1  0
 19 13  1  0
 19 18  1  0
 20 13  2  0
 21 12  1  0
 21 22  1  0
 23 24  2  0
 24 43  1  0
 25 24  1  0
 25 28  1  0
 26 23  1  0
 26 27  1  0
 27 25  2  0
 28 29  1  0
 29 30  2  0
 31 34  1  0
 31 30  1  0
 32 31  2  0
 33 32  1  0
 33 28  2  0
 34 35  1  0
 35 36  1  0
 36 37  2  0
 38 37  1  0
 38 42  1  0
 39 38  2  0
 40 35  2  0
 40 39  1  0
 41 40  1  0
 43 44  1  0
 44 47  1  0
 44 46  1  0
 45 43  2  0
 48 49  1  0
 48 23  1  0
 50 48  1  0
 51 52  1  0
 51  1  1  0
 52 53  1  0
 53 54  1  0
 55 66  2  0
 56 54  1  0
 56 61  1  0
 57 65  1  0
 57 67  1  0
 58 64  1  0
 58 60  1  0
 59 65  1  0
 60 59  1  0
 61 60  2  0
 62 63  1  0
 62 56  2  0
 63 58  2  0
 64 57  1  0
 65 55  1  0
 67 69  2  0
 68 67  1  0
 70 68  1  0
 71 80  2  0
 71 76  1  0
 72 68  1  0
 72 76  1  0
 73 72  1  0
 74 75  1  0
 74 73  1  0
 75 71  1  0
 76 77  2  0
 77 78  1  0
 79 78  2  0
 80 79  1  0
 81 55  1  0
 81 82  1  0
 81 91  1  0
 82 85  1  0
 83 87  1  0
 83 82  1  0
 84 83  2  0
 87 86  1  0
 89 87  1  0
 89 90  1  0
 89 88  1  0
 91 94  1  1
 91 92  1  0
 93 91  1  0
M  ISO  4  13 100  21 100  53 101  54 101
M  END
>  <TORSDO>  (84) 
F 22

>  <SCORE>  (84) 
-13.354

>  <name>  (84) 
84

>  <ligand_id>  (84) 
84

>  <original_smiles>  (84) 
[H]c1c([H])c(C([H])([H])N([H])C(=O)N2C([H])([H])C([H])([H])C([H])([H])C([H])(n3nc(-c4c([H])c([H])c(Oc5c([H])c([H])c(F)c([H])c5F)c([H])c4[H])c(C(=O)N([H])[H])c3N([H])[H])C2([H])[H])c([H])c(C([H])([H])N([H])C(=O)C([H])([H])C([H])([H])C([H])([H])Oc2c([H])c([H])c3c(c2[H])C([H])([H])N(C(=O)C([H])(N([H])C(=O)C([H])(N([H])C([H])([H])[H])C([H])([H])[H])C(C([H])([H])[H])(C([H])([H])[H])C([H])([H])[H])C([H])(C(=O)N([H])C2([H])c4c([H])c([H])c([H])c([H])c4C([H])([H])C([H])([H])C2([H])[H])C3([H])[H])c1[H]

>  <smiles>  (84) 
[H]c1c([H])c(C([H])([H])N([H])C(=O)N2C([H])([H])C([H])([H])C([H])([H])C([H])(n3nc(-c4c([H])c([H])c(Oc5c([H])c([H])c(F)c([H])c5F)c([H])c4[H])c(C(=O)N([H])[H])c3N([H])[H])C2([H])[H])c([H])c(C([H])([H])N([H])C(=O)C([H])([H])C([H])([H])C([H])([H])Oc2c([H])c([H])c3c(c2[H])C([H])([H])N(C(=O)C([H])(N([H])C(=O)C([H])(N([H])C([H])([H])[H])C([H])([H])[H])C(C([H])([H])[H])(C([H])([H])[H])C([H])([H])[H])C([H])(C(=O)N([H])C2([H])c4c([H])c([H])c([H])c([H])c4C([H])([H])C([H])([H])C2([H])[H])C3([H])[H])c1[H]

$$$$
85:0:0
     RDKit          3D

 94102  0  0  1  0  0  0  0  0999 V2000
  -29.8680  -18.0330   20.3190 C   0  0  0  0  0  3  0  0  0  0  0  0
  -29.6270  -19.3160   19.7860 C   0  0  0  0  0  3  0  0  0  0  0  0
  -30.7250  -20.3070   21.7060 C   0  0  0  0  0  3  0  0  0  0  0  0
  -30.5260  -17.8570   21.5630 C   0  0  0  0  0  0  0  0  0  0  0  0
  -30.0570  -20.4690   20.4780 C   0  0  0  0  0  0  0  0  0  0  0  0
  -30.9570  -19.0260   22.2450 C   0  0  0  0  0  0  0  0  0  0  0  0
  -31.6000  -18.9440   23.4370 F   0  0  0  0  0  0  0  0  0  0  0  0
  -30.7630  -16.4880   22.1260 C   0  0  0  0  0  0  0  0  0  0  0  0
  -31.6750  -16.2350   22.9730 N   0  0  0  0  0  0  0  0  0  0  0  0
  -32.2110  -17.0710   23.1940 H   0  0  0  0  0  0  0  0  0  0  0  0
  -29.8050  -15.3610   21.7280 C   0  0  0  0  0  2  0  0  0  0  0  0
  -30.2620  -14.5240   20.5090 C   0  0  0  0  0  0  0  0  0  0  0  0
  -29.9590  -12.4940   19.1210 C   0  0  0  0  0  2  0  0  0  0  0  0
  -28.9520  -12.7250   17.9790 C   0  0  0  0  0  2  0  0  0  0  0  0
  -27.5070  -12.4910   18.4640 C   0  0  0  0  0  2  0  0  0  0  0  0
  -27.1950  -13.2440   19.7840 C   0  0  0  0  0  3  0  0  0  0  0  0
  -28.3000  -12.9860   20.8310 C   0  0  0  0  0  2  0  0  0  0  0  0
  -29.5930  -13.3730   20.2400 N   0  0  0  0  0  0  0  0  0  0  0  0
  -31.2200  -14.8940   19.8190 O   0  0  0  0  0  0  0  0  0  0  0  0
  -24.7870  -13.7160   20.5720 C   0  0  0  0  0  0  0  0  0  0  0  0
  -23.7730  -12.8810   20.9580 C   0  0  0  0  0  0  0  0  0  0  0  0
  -24.3020  -11.5570   20.8840 C   0  0  0  0  0  0  0  0  0  0  0  0
  -25.8700  -12.8940   20.2940 N   0  0  0  0  0  0  0  0  0  0  0  0
  -25.5810  -11.5900   20.5360 N   0  0  0  0  0  0  0  0  0  0  0  0
  -23.6490  -10.2550   21.0720 C   0  0  0  0  0  0  0  0  0  0  0  0
  -24.1510   -9.3020   21.9860 C   0  0  0  0  0  3  0  0  0  0  0  0
  -23.4960   -8.0630   22.1610 C   0  0  0  0  0  3  0  0  0  0  0  0
  -22.3250   -7.7700   21.4230 C   0  0  0  0  0  0  0  0  0  0  0  0
  -21.8420   -8.7120   20.4990 C   0  0  0  0  0  3  0  0  0  0  0  0
  -22.4980   -9.9420   20.3210 C   0  0  0  0  0  3  0  0  0  0  0  0
  -21.6370   -6.5840   21.5100 O   0  0  0  0  0  0  0  0  0  0  0  0
  -21.6450   -5.8280   22.6550 C   0  0  0  0  0  0  0  0  0  0  0  0
  -21.1980   -6.3430   23.8910 C   0  0  0  0  0  3  0  0  0  0  0  0
  -21.1590   -5.5110   25.0270 C   0  0  0  0  0  3  0  0  0  0  0  0
  -21.5560   -4.1650   24.9290 C   0  0  0  0  0  0  0  0  0  0  0  0
  -21.9960   -3.6480   23.6980 C   0  0  0  0  0  3  0  0  0  0  0  0
  -22.0370   -4.4770   22.5630 C   0  0  0  0  0  0  0  0  0  0  0  0
  -22.4420   -3.9690   21.3740 F   0  0  0  0  0  0  0  0  0  0  0  0
  -21.5110   -3.3620   26.0190 F   0  0  0  0  0  0  0  0  0  0  0  0
  -22.3620  -13.2790   21.2860 C   0  0  0  0  0  0  0  0  0  0  0  0
  -21.7030  -12.5300   22.1630 N   0  0  0  0  0  0  0  0  0  0  0  0
  -21.8520  -14.2880   20.7990 O   0  0  0  0  0  0  0  0  0  0  0  0
  -22.1270  -11.7150   22.5780 H   0  0  0  0  0  0  0  0  0  0  0  0
  -20.7590  -12.7780   22.4240 H   0  0  0  0  0  0  0  0  0  0  0  0
  -24.8760  -15.0960   20.4170 N   0  0  0  0  0  0  0  0  0  0  0  0
  -24.0810  -15.7090   20.5650 H   0  0  0  0  0  0  0  0  0  0  0  0
  -25.6960  -15.5850   20.0800 H   0  0  0  0  0  0  0  0  0  0  0  0
  -29.8690  -21.7720   19.9910 N   0  0  0  0  0  0  0  0  0  0  0  0
  -30.1740  -22.5500   20.5710 H   0  0  0  0  0  0  0  0  0  0  0  0
  -28.8910  -22.0660   18.9490 C   0  0  0  0  0  2  0  0  0  0  0  0
  -28.9850  -23.5290   18.4880 C   0  0  0  0  0  2  0  0  0  0  0  0
  -28.5910  -24.5660   19.5580 C   0  0  0  0  0  2  0  0  0  0  0  0
  -28.8100  -26.0050   19.0620 C   0  0  0  0  0  2  0  0  0  0  0  0
  -28.5310  -26.9550   20.0890 O   0  0  0  0  0  0  0  0  0  0  0  0
  -24.5860  -31.9500   23.2360 C   0  0  0  0  0  0  0  0  0  0  0  0
  -27.3120  -27.5950   20.1040 C   0  0  0  0  0  0  0  0  0  0  0  0
  -23.4030  -30.5450   21.5770 C   0  0  0  0  0  3  0  0  0  0  0  0
  -24.8810  -29.0390   20.1460 C   0  0  0  0  0  0  0  0  0  0  0  0
  -25.9210  -30.9440   21.3890 C   0  0  0  0  0  2  0  0  0  0  0  0
  -26.0250  -29.5790   20.7430 C   0  0  0  0  0  0  0  0  0  0  0  0
  -27.2380  -28.8580   20.7310 C   0  0  0  0  0  3  0  0  0  0  0  0
  -26.1410  -27.0530   19.5240 C   0  0  0  0  0  3  0  0  0  0  0  0
  -24.9300  -27.7710   19.5420 C   0  0  0  0  0  3  0  0  0  0  0  0
  -23.6250  -29.8790   20.1930 C   0  0  0  0  0  2  0  0  0  0  0  0
  -24.6550  -31.1600   22.1260 N   0  0  0  0  0  0  0  0  0  0  0  0
  -23.5000  -32.2020   23.7760 O   0  0  0  0  0  0  0  0  0  0  0  0
  -22.7650  -29.5070   22.5270 C   0  0  0  0  0  0  0  0  0  0  0  0
  -21.4420  -29.3180   22.4030 N   0  0  0  0  0  0  0  0  0  0  0  0
  -23.4570  -28.8730   23.3280 O   0  0  0  0  0  0  0  0  0  0  0  0
  -20.9450  -29.8820   21.7280 H   0  0  0  0  0  0  0  0  0  0  0  0
  -18.0730  -28.1210   22.9150 C   0  0  0  0  0  0  0  0  0  0  0  0
  -20.6330  -28.3660   23.1630 C   0  0  0  0  0  3  0  0  0  0  0  0
  -20.7260  -26.9470   22.5540 C   0  0  0  0  0  2  0  0  0  0  0  0
  -19.6110  -26.6510   21.5460 C   0  0  0  0  0  2  0  0  0  0  0  0
  -18.2380  -26.7860   22.2100 C   0  0  0  0  0  2  0  0  0  0  0  0
  -19.1980  -28.8710   23.3490 C   0  0  0  0  0  0  0  0  0  0  0  0
  -18.9920  -30.1230   23.9670 C   0  0  0  0  0  3  0  0  0  0  0  0
  -17.6910  -30.6250   24.1590 C   0  0  0  0  0  3  0  0  0  0  0  0
  -16.5790  -29.8720   23.7430 C   0  0  0  0  0  3  0  0  0  0  0  0
  -16.7710  -28.6220   23.1260 C   0  0  0  0  0  3  0  0  0  0  0  0
  -25.8640  -32.5900   23.8640 C   0  0  0  0  0  3  0  0  0  0  0  0
  -25.5460  -33.9890   24.1800 N   0  0  0  0  0  0  0  0  0  0  0  0
  -25.8830  -35.0360   23.4150 C   0  0  0  0  0  0  0  0  0  0  0  0
  -26.5630  -34.9280   22.3920 O   0  0  0  0  0  0  0  0  0  0  0  0
  -24.9420  -34.1480   24.9730 H   0  0  0  0  0  0  0  0  0  0  0  0
  -24.1480  -36.8140   23.0260 C   0  0  0  0  0  1  0  0  0  0  0  0
  -25.3810  -36.4250   23.8550 C   0  0  0  0  0  3  0  0  0  0  0  0
  -27.5020  -37.3270   24.7020 C   0  0  0  0  0  1  0  0  0  0  0  0
  -26.4090  -37.4830   23.7460 N   0  0  0  0  0  0  0  0  0  0  0  0
  -25.9950  -38.4010   23.8860 H   0  0  0  0  0  0  0  0  0  0  0  0
  -26.3750  -31.8290   25.1490 C   0  0  1  0  0  0  0  0  0  0  0  0
  -25.2740  -31.5890   26.2080 C   0  0  0  0  0  1  0  0  0  0  0  0
  -26.9710  -30.4540   24.7660 C   0  0  0  0  0  1  0  0  0  0  0  0
  -27.5140  -32.6350   25.8170 C   0  0  0  0  0  1  0  0  0  0  0  0
  1  4  1  0
  2  1  2  0
  2  5  1  0
  3  6  1  0
  4  8  1  0
  4  6  2  0
  5  3  2  0
  6  7  1  0
  8  9  2  0
  9 10  1  0
 11  8  1  0
 12 11  1  0
 13 18  1  0
 14 15  1  0
 14 13  1  0
 16 15  1  0
 16 23  1  0
 16 17  1  0
 18 12  1  0
 18 17  1  0
 19 12  2  0
 20 21  2  0
 21 40  1  0
 22 21  1  0
 22 25  1  0
 23 24  1  0
 23 20  1  0
 24 22  2  0
 25 26  1  0
 26 27  2  0
 28 31  1  0
 28 27  1  0
 29 28  2  0
 30 29  1  0
 30 25  2  0
 31 32  1  0
 32 33  1  0
 33 34  2  0
 35 34  1  0
 35 39  1  0
 36 35  2  0
 37 32  2  0
 37 36  1  0
 38 37  1  0
 40 41  1  0
 41 44  1  0
 41 43  1  0
 42 40  2  0
 45 46  1  0
 45 20  1  0
 47 45  1  0
 48  5  1  0
 48 49  1  0
 50 48  1  0
 51 50  1  0
 51 52  1  0
 53 52  1  0
 53 54  1  0
 54 56  1  0
 55 66  2  0
 56 61  1  0
 57 65  1  0
 57 67  1  0
 58 64  1  0
 58 60  1  0
 59 65  1  0
 60 59  1  0
 61 60  2  0
 62 63  1  0
 62 56  2  0
 63 58  2  0
 64 57  1  0
 65 55  1  0
 67 69  2  0
 68 67  1  0
 70 68  1  0
 71 80  2  0
 71 76  1  0
 72 68  1  0
 72 76  1  0
 73 72  1  0
 74 75  1  0
 74 73  1  0
 75 71  1  0
 76 77  2  0
 77 78  1  0
 79 78  2  0
 80 79  1  0
 81 55  1  0
 81 82  1  0
 81 91  1  0
 82 85  1  0
 83 87  1  0
 83 82  1  0
 84 83  2  0
 87 86  1  0
 89 87  1  0
 89 90  1  0
 89 88  1  0
 91 94  1  1
 91 92  1  0
 93 91  1  0
M  ISO  4  11 100  12 100  53 101  54 101
M  END
>  <TORSDO>  (85) 
F 23

>  <SCORE>  (85) 
-11.537

>  <name>  (85) 
85

>  <ligand_id>  (85) 
85

>  <original_smiles>  (85) 
[H]N=C(c1c([H])c([H])c(N([H])C([H])([H])C([H])([H])C([H])([H])C([H])([H])Oc2c([H])c([H])c3c(c2[H])C([H])([H])N(C(=O)C([H])(N([H])C(=O)C([H])(N([H])C([H])([H])[H])C([H])([H])[H])C(C([H])([H])[H])(C([H])([H])[H])C([H])([H])[H])C([H])(C(=O)N([H])C2([H])c4c([H])c([H])c([H])c([H])c4C([H])([H])C([H])([H])C2([H])[H])C3([H])[H])c([H])c1F)C([H])([H])C(=O)N1C([H])([H])C([H])([H])C([H])([H])C([H])(n2nc(-c3c([H])c([H])c(Oc4c([H])c([H])c(F)c([H])c4F)c([H])c3[H])c(C(=O)N([H])[H])c2N([H])[H])C1([H])[H]

>  <smiles>  (85) 
[H]N=C(c1c([H])c([H])c(N([H])C([H])([H])C([H])([H])C([H])([H])C([H])([H])Oc2c([H])c([H])c3c(c2[H])C([H])([H])N(C(=O)C([H])(N([H])C(=O)C([H])(N([H])C([H])([H])[H])C([H])([H])[H])C(C([H])([H])[H])(C([H])([H])[H])C([H])([H])[H])C([H])(C(=O)N([H])C2([H])c4c([H])c([H])c([H])c([H])c4C([H])([H])C([H])([H])C2([H])[H])C3([H])[H])c([H])c1F)C([H])([H])C(=O)N1C([H])([H])C([H])([H])C([H])([H])C([H])(n2nc(-c3c([H])c([H])c(Oc4c([H])c([H])c(F)c([H])c4F)c([H])c3[H])c(C(=O)N([H])[H])c2N([H])[H])C1([H])[H]

$$$$
86:0:0
     RDKit          3D

 92100  0  0  1  0  0  0  0  0999 V2000
  -31.4070  -17.5160   20.9500 C   0  0  0  0  0  3  0  0  0  0  0  0
  -29.0050  -18.9150   20.5030 C   0  0  0  0  0  3  0  0  0  0  0  0
  -31.4120  -18.9270   20.8520 C   0  0  0  0  0  0  0  0  0  0  0  0
  -30.2020  -16.7930   20.8020 C   0  0  0  0  0  0  0  0  0  0  0  0
  -30.2150  -19.6440   20.6090 C   0  0  0  0  0  0  0  0  0  0  0  0
  -29.0040  -17.5060   20.5990 C   0  0  0  0  0  0  0  0  0  0  0  0
  -32.7210  -19.6790   21.0060 C   0  0  0  0  0  1  0  0  0  0  0  0
  -27.8410  -16.8240   20.4740 F   0  0  0  0  0  0  0  0  0  0  0  0
  -30.7290  -14.4580   20.1120 C   0  0  0  0  0  0  0  0  0  0  0  0
  -30.3500  -12.3500   18.8820 C   0  0  0  0  0  2  0  0  0  0  0  0
  -29.3290  -12.6050   17.7520 C   0  0  0  0  0  2  0  0  0  0  0  0
  -27.8840  -12.4590   18.2720 C   0  0  0  0  0  2  0  0  0  0  0  0
  -27.6380  -13.2520   19.5840 C   0  0  0  0  0  3  0  0  0  0  0  0
  -28.7580  -12.9620   20.6090 C   0  0  0  0  0  2  0  0  0  0  0  0
  -30.0510  -13.2850   19.9780 N   0  0  0  0  0  0  0  0  0  0  0  0
  -31.7890  -14.6880   19.5230 O   0  0  0  0  0  0  0  0  0  0  0  0
  -30.1130  -15.3730   20.8830 N   0  0  0  0  0  0  0  0  0  0  0  0
  -29.2570  -15.0390   21.2990 H   0  0  0  0  0  0  0  0  0  0  0  0
  -25.2900  -13.8560   20.4520 C   0  0  0  0  0  0  0  0  0  0  0  0
  -24.2390  -13.0820   20.8620 C   0  0  0  0  0  0  0  0  0  0  0  0
  -24.6870  -11.7300   20.7700 C   0  0  0  0  0  0  0  0  0  0  0  0
  -26.3130  -12.9760   20.1370 N   0  0  0  0  0  0  0  0  0  0  0  0
  -25.9560  -11.6900   20.3820 N   0  0  0  0  0  0  0  0  0  0  0  0
  -23.9650  -10.4670   20.9740 C   0  0  0  0  0  0  0  0  0  0  0  0
  -24.4200   -9.4970   21.8940 C   0  0  0  0  0  3  0  0  0  0  0  0
  -23.6990   -8.2990   22.0860 C   0  0  0  0  0  3  0  0  0  0  0  0
  -22.5080   -8.0630   21.3590 C   0  0  0  0  0  0  0  0  0  0  0  0
  -22.0710   -9.0220   20.4280 C   0  0  0  0  0  3  0  0  0  0  0  0
  -22.7930  -10.2110   20.2340 C   0  0  0  0  0  3  0  0  0  0  0  0
  -21.7570   -6.9180   21.4620 O   0  0  0  0  0  0  0  0  0  0  0  0
  -21.6960   -6.1980   22.6270 C   0  0  0  0  0  0  0  0  0  0  0  0
  -21.2150   -6.7630   23.8280 C   0  0  0  0  0  3  0  0  0  0  0  0
  -21.1060   -5.9650   24.9860 C   0  0  0  0  0  3  0  0  0  0  0  0
  -21.4680   -4.6050   24.9430 C   0  0  0  0  0  0  0  0  0  0  0  0
  -21.9410   -4.0410   23.7460 C   0  0  0  0  0  3  0  0  0  0  0  0
  -22.0530   -4.8340   22.5910 C   0  0  0  0  0  0  0  0  0  0  0  0
  -22.4900   -4.2790   21.4350 F   0  0  0  0  0  0  0  0  0  0  0  0
  -21.3540   -3.8390   26.0520 F   0  0  0  0  0  0  0  0  0  0  0  0
  -22.8660  -13.5600   21.2380 C   0  0  0  0  0  0  0  0  0  0  0  0
  -22.1930  -12.8490   22.1350 N   0  0  0  0  0  0  0  0  0  0  0  0
  -22.4020  -14.6020   20.7740 O   0  0  0  0  0  0  0  0  0  0  0  0
  -22.5810  -12.0070   22.5330 H   0  0  0  0  0  0  0  0  0  0  0  0
  -21.2750  -13.1510   22.4300 H   0  0  0  0  0  0  0  0  0  0  0  0
  -25.4540  -15.2310   20.3110 N   0  0  0  0  0  0  0  0  0  0  0  0
  -24.7210  -15.8850   20.5560 H   0  0  0  0  0  0  0  0  0  0  0  0
  -26.3440  -15.6870   20.1440 H   0  0  0  0  0  0  0  0  0  0  0  0
  -30.3120  -21.0210   20.4860 O   0  0  0  0  0  0  0  0  0  0  0  0
  -29.1330  -21.8190   20.3370 C   0  0  0  0  0  2  0  0  0  0  0  0
  -29.5720  -23.2590   19.9890 C   0  0  0  0  0  2  0  0  0  0  0  0
  -28.4390  -24.3150   19.9490 C   0  0  0  0  0  2  0  0  0  0  0  0
  -28.8730  -25.6470   19.2840 C   0  0  0  0  0  2  0  0  0  0  0  0
  -28.6240  -26.8070   20.0860 O   0  0  0  0  0  0  0  0  0  0  0  0
  -24.5760  -31.7470   23.1850 C   0  0  0  0  0  0  0  0  0  0  0  0
  -27.4030  -27.4520   20.0520 C   0  0  0  0  0  0  0  0  0  0  0  0
  -23.4430  -30.3670   21.4710 C   0  0  0  0  0  3  0  0  0  0  0  0
  -24.9640  -28.8970   20.0460 C   0  0  0  0  0  0  0  0  0  0  0  0
  -25.9620  -30.7830   21.3520 C   0  0  0  0  0  2  0  0  0  0  0  0
  -26.0920  -29.4310   20.6800 C   0  0  0  0  0  0  0  0  0  0  0  0
  -27.3070  -28.7120   20.6870 C   0  0  0  0  0  3  0  0  0  0  0  0
  -26.2530  -26.9240   19.4220 C   0  0  0  0  0  3  0  0  0  0  0  0
  -25.0390  -27.6410   19.4160 C   0  0  0  0  0  3  0  0  0  0  0  0
  -23.7020  -29.7270   20.0800 C   0  0  0  0  0  2  0  0  0  0  0  0
  -24.6760  -30.9810   22.0620 N   0  0  0  0  0  0  0  0  0  0  0  0
  -23.4760  -31.9810   23.7040 O   0  0  0  0  0  0  0  0  0  0  0  0
  -22.7870  -29.3090   22.3860 C   0  0  0  0  0  0  0  0  0  0  0  0
  -21.4640  -29.1270   22.2390 N   0  0  0  0  0  0  0  0  0  0  0  0
  -23.4660  -28.6540   23.1820 O   0  0  0  0  0  0  0  0  0  0  0  0
  -20.9800  -29.7080   21.5700 H   0  0  0  0  0  0  0  0  0  0  0  0
  -18.0840  -27.9390   22.6910 C   0  0  0  0  0  0  0  0  0  0  0  0
  -20.6440  -28.1570   22.9640 C   0  0  0  0  0  3  0  0  0  0  0  0
  -20.7310  -26.7590   22.3110 C   0  0  0  0  0  2  0  0  0  0  0  0
  -19.6220  -26.5010   21.2870 C   0  0  0  0  0  2  0  0  0  0  0  0
  -18.2450  -26.6250   21.9440 C   0  0  0  0  0  2  0  0  0  0  0  0
  -19.2110  -28.6650   23.1560 C   0  0  0  0  0  0  0  0  0  0  0  0
  -19.0080  -29.8980   23.8130 C   0  0  0  0  0  3  0  0  0  0  0  0
  -17.7100  -30.4030   24.0110 C   0  0  0  0  0  3  0  0  0  0  0  0
  -16.5960  -29.6720   23.5630 C   0  0  0  0  0  3  0  0  0  0  0  0
  -16.7840  -28.4420   22.9080 C   0  0  0  0  0  3  0  0  0  0  0  0
  -25.8330  -32.3830   23.8580 C   0  0  0  0  0  3  0  0  0  0  0  0
  -25.5050  -33.7800   24.1750 N   0  0  0  0  0  0  0  0  0  0  0  0
  -25.8530  -34.8320   23.4220 C   0  0  0  0  0  0  0  0  0  0  0  0
  -26.5540  -34.7320   22.4120 O   0  0  0  0  0  0  0  0  0  0  0  0
  -24.8860  -33.9330   24.9570 H   0  0  0  0  0  0  0  0  0  0  0  0
  -24.1160  -36.6050   23.0140 C   0  0  0  0  0  1  0  0  0  0  0  0
  -25.3380  -36.2170   23.8610 C   0  0  0  0  0  3  0  0  0  0  0  0
  -27.4370  -37.1300   24.7490 C   0  0  0  0  0  1  0  0  0  0  0  0
  -26.3610  -37.2820   23.7740 N   0  0  0  0  0  0  0  0  0  0  0  0
  -25.9380  -38.1980   23.9080 H   0  0  0  0  0  0  0  0  0  0  0  0
  -26.3040  -31.6140   25.1520 C   0  0  1  0  0  0  0  0  0  0  0  0
  -25.1710  -31.3690   26.1750 C   0  0  0  0  0  1  0  0  0  0  0  0
  -26.9080  -30.2400   24.7790 C   0  0  0  0  0  1  0  0  0  0  0  0
  -27.4240  -32.4130   25.8600 C   0  0  0  0  0  1  0  0  0  0  0  0
  2  6  2  0
  2  5  1  0
  3  1  1  0
  3  7  1  0
  4 17  1  0
  4  1  2  0
  5  3  2  0
  6  4  1  0
  8  6  1  0
  9 17  1  0
 10 15  1  0
 11 12  1  0
 11 10  1  0
 13 12  1  0
 13 22  1  0
 13 14  1  0
 15  9  1  0
 15 14  1  0
 16  9  2  0
 17 18  1  0
 19 20  2  0
 20 39  1  0
 21 20  1  0
 21 24  1  0
 22 23  1  0
 22 19  1  0
 23 21  2  0
 24 25  1  0
 25 26  2  0
 27 30  1  0
 27 26  1  0
 28 27  2  0
 29 28  1  0
 29 24  2  0
 30 31  1  0
 31 32  1  0
 32 33  2  0
 34 33  1  0
 34 38  1  0
 35 34  2  0
 36 31  2  0
 36 35  1  0
 37 36  1  0
 39 40  1  0
 40 43  1  0
 40 42  1  0
 41 39  2  0
 44 19  1  0
 44 45  1  0
 46 44  1  0
 47  5  1  0
 48 47  1  0
 49 48  1  0
 50 49  1  0
 51 50  1  0
 51 52  1  0
 53 64  2  0
 54 52  1  0
 54 59  1  0
 55 63  1  0
 55 65  1  0
 56 62  1  0
 56 58  1  0
 57 63  1  0
 58 59  2  0
 58 57  1  0
 60 54  2  0
 61 60  1  0
 61 56  2  0
 62 55  1  0
 63 53  1  0
 65 67  2  0
 66 65  1  0
 68 66  1  0
 69 78  2  0
 69 74  1  0
 70 66  1  0
 70 74  1  0
 71 70  1  0
 72 73  1  0
 72 71  1  0
 73 69  1  0
 74 75  2  0
 75 76  1  0
 77 76  2  0
 78 77  1  0
 79 53  1  0
 79 80  1  0
 79 89  1  0
 80 83  1  0
 81 85  1  0
 81 80  1  0
 82 81  2  0
 85 84  1  0
 87 85  1  0
 87 88  1  0
 87 86  1  0
 89 92  1  1
 89 90  1  0
 91 89  1  0
M  ISO  4   9 100  17 100  51 101  52 101
M  END
>  <TORSDO>  (86) 
F 21

>  <SCORE>  (86) 
-13.650

>  <name>  (86) 
86

>  <ligand_id>  (86) 
86

>  <original_smiles>  (86) 
[H]c1c([H])c([H])c2c(c1[H])C([H])([H])C([H])([H])C([H])([H])C2([H])N([H])C(=O)C1([H])N(C(=O)C([H])(N([H])C(=O)C([H])(N([H])C([H])([H])[H])C([H])([H])[H])C(C([H])([H])[H])(C([H])([H])[H])C([H])([H])[H])C([H])([H])c2c([H])c(OC([H])([H])C([H])([H])C([H])([H])C([H])([H])Oc3c([H])c(F)c(N([H])C(=O)N4C([H])([H])C([H])([H])C([H])([H])C([H])(n5nc(-c6c([H])c([H])c(Oc7c([H])c([H])c(F)c([H])c7F)c([H])c6[H])c(C(=O)N([H])[H])c5N([H])[H])C4([H])[H])c([H])c3C([H])([H])[H])c([H])c([H])c2C1([H])[H]

>  <smiles>  (86) 
[H]c1c([H])c([H])c2c(c1[H])C([H])([H])C([H])([H])C([H])([H])C2([H])N([H])C(=O)C1([H])N(C(=O)C([H])(N([H])C(=O)C([H])(N([H])C([H])([H])[H])C([H])([H])[H])C(C([H])([H])[H])(C([H])([H])[H])C([H])([H])[H])C([H])([H])c2c([H])c(OC([H])([H])C([H])([H])C([H])([H])C([H])([H])Oc3c([H])c(F)c(N([H])C(=O)N4C([H])([H])C([H])([H])C([H])([H])C([H])(n5nc(-c6c([H])c([H])c(Oc7c([H])c([H])c(F)c([H])c7F)c([H])c6[H])c(C(=O)N([H])[H])c5N([H])[H])C4([H])[H])c([H])c3C([H])([H])[H])c([H])c([H])c2C1([H])[H]

$$$$
87:0:0
     RDKit          3D

 93101  0  0  1  0  0  0  0  0999 V2000
  -30.8660  -18.3480   19.0300 C   0  0  0  0  0  3  0  0  0  0  0  0
  -29.0910  -18.9510   21.0660 C   0  0  0  0  0  3  0  0  0  0  0  0
  -30.2530  -17.2490   19.6940 C   0  0  0  0  0  0  0  0  0  0  0  0
  -29.3860  -17.5870   20.7680 C   0  0  0  0  0  0  0  0  0  0  0  0
  -30.5930  -19.7190   19.3450 C   0  0  0  0  0  0  0  0  0  0  0  0
  -29.6290  -20.0460   20.3410 C   0  0  0  0  0  0  0  0  0  0  0  0
  -28.6880  -16.5010   21.5720 C   0  0  0  0  0  1  0  0  0  0  0  0
  -30.3050  -15.8700   19.0450 C   0  0  0  0  0  0  0  0  0  0  0  0
  -29.7430  -15.8100   17.9110 N   0  0  0  0  0  0  0  0  0  0  0  0
  -29.3100  -16.6950   17.6760 H   0  0  0  0  0  0  0  0  0  0  0  0
  -31.1260  -14.6450   19.6100 C   0  0  0  0  0  0  0  0  0  0  0  0
  -30.7660  -12.3330   18.8030 C   0  0  0  0  0  2  0  0  0  0  0  0
  -29.7400  -12.3680   17.6490 C   0  0  0  0  0  2  0  0  0  0  0  0
  -28.3010  -12.2770   18.1960 C   0  0  0  0  0  2  0  0  0  0  0  0
  -28.0310  -13.2480   19.3760 C   0  0  0  0  0  3  0  0  0  0  0  0
  -29.1780  -13.2210   20.4070 C   0  0  0  0  0  2  0  0  0  0  0  0
  -30.4470  -13.4550   19.7020 N   0  0  0  0  0  0  0  0  0  0  0  0
  -32.3470  -14.6780   19.4410 O   0  0  0  0  0  0  0  0  0  0  0  0
  -25.7800  -13.9940   20.3470 C   0  0  0  0  0  0  0  0  0  0  0  0
  -24.6920  -13.2850   20.7750 C   0  0  0  0  0  0  0  0  0  0  0  0
  -25.0460  -11.9060   20.6420 C   0  0  0  0  0  0  0  0  0  0  0  0
  -26.7250  -13.0480   19.9820 N   0  0  0  0  0  0  0  0  0  0  0  0
  -26.2990  -11.7870   20.2250 N   0  0  0  0  0  0  0  0  0  0  0  0
  -24.2460  -10.6940   20.8250 C   0  0  0  0  0  0  0  0  0  0  0  0
  -24.6390   -9.6860   21.7300 C   0  0  0  0  0  3  0  0  0  0  0  0
  -23.8460   -8.5310   21.9020 C   0  0  0  0  0  3  0  0  0  0  0  0
  -22.6450   -8.3810   21.1690 C   0  0  0  0  0  0  0  0  0  0  0  0
  -22.2700   -9.3790   20.2500 C   0  0  0  0  0  3  0  0  0  0  0  0
  -23.0650  -10.5240   20.0770 C   0  0  0  0  0  3  0  0  0  0  0  0
  -21.8220   -7.2870   21.2580 O   0  0  0  0  0  0  0  0  0  0  0  0
  -21.6990   -6.5710   22.4220 C   0  0  0  0  0  0  0  0  0  0  0  0
  -21.2360   -7.1630   23.6170 C   0  0  0  0  0  3  0  0  0  0  0  0
  -21.0620   -6.3750   24.7720 C   0  0  0  0  0  3  0  0  0  0  0  0
  -21.3370   -4.9950   24.7310 C   0  0  0  0  0  0  0  0  0  0  0  0
  -21.7930   -4.4030   23.5400 C   0  0  0  0  0  3  0  0  0  0  0  0
  -21.9710   -5.1880   22.3880 C   0  0  0  0  0  0  0  0  0  0  0  0
  -22.3890   -4.6090   21.2370 F   0  0  0  0  0  0  0  0  0  0  0  0
  -21.1630   -4.2350   25.8370 F   0  0  0  0  0  0  0  0  0  0  0  0
  -23.3610  -13.8480   21.1810 C   0  0  0  0  0  0  0  0  0  0  0  0
  -22.6560  -13.1700   22.0780 N   0  0  0  0  0  0  0  0  0  0  0  0
  -22.9580  -14.9230   20.7380 O   0  0  0  0  0  0  0  0  0  0  0  0
  -22.9940  -12.2990   22.4590 H   0  0  0  0  0  0  0  0  0  0  0  0
  -21.7630  -13.5280   22.3880 H   0  0  0  0  0  0  0  0  0  0  0  0
  -26.0310  -15.3570   20.2090 N   0  0  0  0  0  0  0  0  0  0  0  0
  -25.3130  -16.0530   20.3810 H   0  0  0  0  0  0  0  0  0  0  0  0
  -26.8520  -15.7360   19.7540 H   0  0  0  0  0  0  0  0  0  0  0  0
  -32.6160  -20.5280   18.3860 C   0  0  0  0  0  1  0  0  0  0  0  0
  -31.2410  -20.7380   18.6900 O   0  0  0  0  0  0  0  0  0  0  0  0
  -29.1950  -21.3390   20.7080 O   0  0  0  0  0  0  0  0  0  0  0  0
  -29.2970  -22.5140   19.8440 C   0  0  0  0  0  2  0  0  0  0  0  0
  -28.6990  -23.8520   20.4590 C   0  0  0  0  0  3  0  0  0  0  0  0
  -28.6790  -25.1340   19.5290 C   0  0  0  0  0  3  0  0  0  0  0  0
  -28.4940  -26.4550   20.1500 O   0  0  0  0  0  0  0  0  0  0  0  0
  -24.6290  -31.6770   23.1750 C   0  0  0  0  0  0  0  0  0  0  0  0
  -27.3110  -27.2000   20.0870 C   0  0  0  0  0  0  0  0  0  0  0  0
  -23.4430  -30.2880   21.5130 C   0  0  0  0  0  3  0  0  0  0  0  0
  -24.9130  -28.7580   20.0800 C   0  0  0  0  0  0  0  0  0  0  0  0
  -25.9760  -30.6350   21.3440 C   0  0  0  0  0  2  0  0  0  0  0  0
  -26.0680  -29.2650   20.6860 C   0  0  0  0  0  0  0  0  0  0  0  0
  -27.2630  -28.4950   20.6820 C   0  0  0  0  0  3  0  0  0  0  0  0
  -26.1290  -26.7280   19.4720 C   0  0  0  0  0  3  0  0  0  0  0  0
  -24.9430  -27.4930   19.4680 C   0  0  0  0  0  3  0  0  0  0  0  0
  -23.6670  -29.6210   20.1280 C   0  0  0  0  0  2  0  0  0  0  0  0
  -24.7000  -30.8840   22.0680 N   0  0  0  0  0  0  0  0  0  0  0  0
  -23.5410  -31.9410   23.7090 O   0  0  0  0  0  0  0  0  0  0  0  0
  -22.7830  -29.2570   22.4600 C   0  0  0  0  0  0  0  0  0  0  0  0
  -21.4580  -29.0830   22.3310 N   0  0  0  0  0  0  0  0  0  0  0  0
  -23.4620  -28.6200   23.2680 O   0  0  0  0  0  0  0  0  0  0  0  0
  -20.9710  -29.6470   21.6490 H   0  0  0  0  0  0  0  0  0  0  0  0
  -18.0730  -27.9100   22.8310 C   0  0  0  0  0  0  0  0  0  0  0  0
  -20.6370  -28.1370   23.0890 C   0  0  0  0  0  3  0  0  0  0  0  0
  -20.7220  -26.7180   22.4800 C   0  0  0  0  0  2  0  0  0  0  0  0
  -19.6090  -26.4310   21.4680 C   0  0  0  0  0  2  0  0  0  0  0  0
  -18.2320  -26.5760   22.1240 C   0  0  0  0  0  2  0  0  0  0  0  0
  -19.2040  -28.6510   23.2700 C   0  0  0  0  0  0  0  0  0  0  0  0
  -19.0030  -29.9040   23.8890 C   0  0  0  0  0  3  0  0  0  0  0  0
  -17.7060  -30.4130   24.0800 C   0  0  0  0  0  3  0  0  0  0  0  0
  -16.5890  -29.6690   23.6610 C   0  0  0  0  0  3  0  0  0  0  0  0
  -16.7750  -28.4210   23.0390 C   0  0  0  0  0  3  0  0  0  0  0  0
  -25.9050  -32.3090   23.8110 C   0  0  0  0  0  3  0  0  0  0  0  0
  -25.5920  -33.7070   24.1380 N   0  0  0  0  0  0  0  0  0  0  0  0
  -25.9210  -34.7620   23.3810 C   0  0  0  0  0  0  0  0  0  0  0  0
  -26.5890  -34.6590   22.3480 O   0  0  0  0  0  0  0  0  0  0  0  0
  -24.9980  -33.8580   24.9410 H   0  0  0  0  0  0  0  0  0  0  0  0
  -24.1720  -36.5400   23.0480 C   0  0  0  0  0  1  0  0  0  0  0  0
  -25.4310  -36.1500   23.8400 C   0  0  0  0  0  3  0  0  0  0  0  0
  -27.5620  -37.0610   24.6430 C   0  0  0  0  0  1  0  0  0  0  0  0
  -26.4520  -37.2110   23.7060 N   0  0  0  0  0  0  0  0  0  0  0  0
  -26.0390  -38.1290   23.8510 H   0  0  0  0  0  0  0  0  0  0  0  0
  -26.4080  -31.5380   25.0930 C   0  0  1  0  0  0  0  0  0  0  0  0
  -25.3010  -31.2960   26.1450 C   0  0  0  0  0  1  0  0  0  0  0  0
  -27.0010  -30.1640   24.7040 C   0  0  0  0  0  1  0  0  0  0  0  0
  -27.5410  -32.3400   25.7740 C   0  0  0  0  0  1  0  0  0  0  0  0
  1  5  2  0
  1  3  1  0
  3  4  2  0
  4  2  1  0
  4  7  1  0
  5  6  1  0
  6 49  1  0
  6  2  2  0
  8 11  1  0
  8  3  1  0
  9  8  2  0
 10  9  1  0
 11 17  1  0
 12 17  1  0
 13 14  1  0
 13 12  1  0
 15 14  1  0
 15 22  1  0
 15 16  1  0
 17 16  1  0
 18 11  2  0
 19 20  2  0
 20 39  1  0
 21 20  1  0
 21 24  1  0
 22 23  1  0
 22 19  1  0
 23 21  2  0
 24 25  1  0
 25 26  2  0
 27 30  1  0
 27 26  1  0
 28 27  2  0
 29 28  1  0
 29 24  2  0
 30 31  1  0
 31 32  1  0
 32 33  2  0
 34 33  1  0
 34 38  1  0
 35 34  2  0
 36 31  2  0
 36 35  1  0
 37 36  1  0
 39 40  1  0
 40 43  1  0
 40 42  1  0
 41 39  2  0
 44 19  1  0
 44 45  1  0
 46 44  1  0
 47 48  1  0
 48  5  1  0
 50 51  1  0
 50 49  1  0
 52 53  1  0
 52 51  2  0
 54 65  2  0
 55 53  1  0
 55 60  1  0
 56 64  1  0
 56 66  1  0
 57 63  1  0
 57 59  1  0
 58 64  1  0
 59 58  1  0
 60 59  2  0
 61 55  2  0
 62 61  1  0
 62 57  2  0
 63 56  1  0
 64 54  1  0
 66 68  2  0
 67 66  1  0
 69 67  1  0
 70 79  2  0
 70 75  1  0
 71 67  1  0
 71 75  1  0
 72 71  1  0
 73 74  1  0
 73 72  1  0
 74 70  1  0
 75 76  2  0
 76 77  1  0
 78 77  2  0
 79 78  1  0
 80 54  1  0
 80 81  1  0
 80 90  1  0
 81 84  1  0
 82 86  1  0
 82 81  1  0
 83 82  2  0
 86 85  1  0
 88 86  1  0
 88 89  1  0
 88 87  1  0
 90 93  1  1
 90 91  1  0
 92 90  1  0
M  ISO  4   8 100  11 100  52 101  53 101
M  END
>  <TORSDO>  (87) 
F 22

>  <SCORE>  (87) 
-10.893

>  <name>  (87) 
87

>  <ligand_id>  (87) 
87

>  <original_smiles>  (87) 
[H]N=C(C(=O)N1C([H])([H])C([H])([H])C([H])([H])C([H])(n2nc(-c3c([H])c([H])c(Oc4c([H])c([H])c(F)c([H])c4F)c([H])c3[H])c(C(=O)N([H])[H])c2N([H])[H])C1([H])[H])c1c([H])c(OC([H])([H])[H])c(OC([H])([H])C([H])([H])C([H])([H])Oc2c([H])c([H])c3c(c2[H])C([H])([H])N(C(=O)C([H])(N([H])C(=O)C([H])(N([H])C([H])([H])[H])C([H])([H])[H])C(C([H])([H])[H])(C([H])([H])[H])C([H])([H])[H])C([H])(C(=O)N([H])C2([H])c4c([H])c([H])c([H])c([H])c4C([H])([H])C([H])([H])C2([H])[H])C3([H])[H])c([H])c1C([H])([H])[H]

>  <smiles>  (87) 
[H]N=C(C(=O)N1C([H])([H])C([H])([H])C([H])([H])C([H])(n2nc(-c3c([H])c([H])c(Oc4c([H])c([H])c(F)c([H])c4F)c([H])c3[H])c(C(=O)N([H])[H])c2N([H])[H])C1([H])[H])c1c([H])c(OC([H])([H])[H])c(OC([H])([H])C([H])([H])C([H])([H])Oc2c([H])c([H])c3c(c2[H])C([H])([H])N(C(=O)C([H])(N([H])C(=O)C([H])(N([H])C([H])([H])[H])C([H])([H])[H])C(C([H])([H])[H])(C([H])([H])[H])C([H])([H])[H])C([H])(C(=O)N([H])C2([H])c4c([H])c([H])c([H])c([H])c4C([H])([H])C([H])([H])C2([H])[H])C3([H])[H])c([H])c1C([H])([H])[H]

$$$$
88:0:0
     RDKit          3D

 94102  0  0  1  0  0  0  0  0999 V2000
  -29.7920  -22.3450   18.0460 C   0  0  0  0  0  0  0  0  0  0  0  0
  -30.4550  -21.1780   18.1430 N   0  0  0  0  0  0  0  0  0  0  0  0
  -29.8380  -22.9600   16.9780 O   0  0  0  0  0  0  0  0  0  0  0  0
  -31.0880  -21.0150   17.3730 H   0  0  0  0  0  0  0  0  0  0  0  0
  -31.7490  -18.4330   20.2940 C   0  0  0  0  0  3  0  0  0  0  0  0
  -31.6830  -19.5820   19.4810 C   0  0  0  0  0  3  0  0  0  0  0  0
  -29.2540  -19.5290   19.5870 C   0  0  0  0  0  3  0  0  0  0  0  0
  -30.5700  -17.8010   20.7450 C   0  0  0  0  0  0  0  0  0  0  0  0
  -30.4410  -20.1410   19.1170 C   0  0  0  0  0  0  0  0  0  0  0  0
  -29.3200  -18.3620   20.3860 C   0  0  0  0  0  0  0  0  0  0  0  0
  -28.1700  -17.7740   20.7960 F   0  0  0  0  0  0  0  0  0  0  0  0
  -30.6810  -16.5760   21.6600 C   0  0  0  0  0  2  0  0  0  0  0  0
  -30.7110  -14.4090   20.3810 C   0  0  0  0  0  0  0  0  0  0  0  0
  -30.3570  -12.3150   19.1180 C   0  0  0  0  0  2  0  0  0  0  0  0
  -29.3900  -12.5650   17.9440 C   0  0  0  0  0  2  0  0  0  0  0  0
  -27.9260  -12.4250   18.4020 C   0  0  0  0  0  2  0  0  0  0  0  0
  -27.6230  -13.2310   19.6930 C   0  0  0  0  0  3  0  0  0  0  0  0
  -28.6920  -12.9470   20.7710 C   0  0  0  0  0  2  0  0  0  0  0  0
  -30.0110  -13.2590   20.1910 N   0  0  0  0  0  0  0  0  0  0  0  0
  -31.7980  -14.6340   19.8400 O   0  0  0  0  0  0  0  0  0  0  0  0
  -30.1100  -15.3190   21.1610 N   0  0  0  0  0  0  0  0  0  0  0  0
  -29.2100  -15.0550   21.5320 H   0  0  0  0  0  0  0  0  0  0  0  0
  -25.2330  -13.8480   20.4220 C   0  0  0  0  0  0  0  0  0  0  0  0
  -24.1660  -13.0780   20.8030 C   0  0  0  0  0  0  0  0  0  0  0  0
  -24.6230  -11.7260   20.7690 C   0  0  0  0  0  0  0  0  0  0  0  0
  -26.2740  -12.9620   20.1840 N   0  0  0  0  0  0  0  0  0  0  0  0
  -25.9090  -11.6820   20.4480 N   0  0  0  0  0  0  0  0  0  0  0  0
  -23.8950  -10.4660   20.9700 C   0  0  0  0  0  0  0  0  0  0  0  0
  -24.3260   -9.5070   21.9140 C   0  0  0  0  0  3  0  0  0  0  0  0
  -23.5990   -8.3120   22.1010 C   0  0  0  0  0  3  0  0  0  0  0  0
  -22.4280   -8.0680   21.3440 C   0  0  0  0  0  0  0  0  0  0  0  0
  -22.0180   -9.0150   20.3890 C   0  0  0  0  0  3  0  0  0  0  0  0
  -22.7460  -10.2010   20.2010 C   0  0  0  0  0  3  0  0  0  0  0  0
  -21.6730   -6.9230   21.4400 O   0  0  0  0  0  0  0  0  0  0  0  0
  -21.6130   -6.1960   22.6020 C   0  0  0  0  0  0  0  0  0  0  0  0
  -21.1500   -6.7600   23.8110 C   0  0  0  0  0  3  0  0  0  0  0  0
  -21.0370   -5.9590   24.9640 C   0  0  0  0  0  3  0  0  0  0  0  0
  -21.3780   -4.5940   24.9100 C   0  0  0  0  0  0  0  0  0  0  0  0
  -21.8350   -4.0300   23.7060 C   0  0  0  0  0  3  0  0  0  0  0  0
  -21.9480   -4.8280   22.5550 C   0  0  0  0  0  0  0  0  0  0  0  0
  -22.3690   -4.2730   21.3920 F   0  0  0  0  0  0  0  0  0  0  0  0
  -21.2630   -3.8220   26.0160 F   0  0  0  0  0  0  0  0  0  0  0  0
  -22.7730  -13.5600   21.0900 C   0  0  0  0  0  0  0  0  0  0  0  0
  -22.0540  -12.8640   21.9640 N   0  0  0  0  0  0  0  0  0  0  0  0
  -22.3330  -14.5870   20.5770 O   0  0  0  0  0  0  0  0  0  0  0  0
  -22.4230  -12.0320   22.3990 H   0  0  0  0  0  0  0  0  0  0  0  0
  -21.1210  -13.1700   22.2030 H   0  0  0  0  0  0  0  0  0  0  0  0
  -25.4010  -15.2170   20.2420 N   0  0  0  0  0  0  0  0  0  0  0  0
  -24.6450  -15.8780   20.3800 H   0  0  0  0  0  0  0  0  0  0  0  0
  -26.2610  -15.6600   19.9410 H   0  0  0  0  0  0  0  0  0  0  0  0
  -29.0060  -22.9530   19.2230 C   0  0  0  0  0  2  0  0  0  0  0  0
  -28.9190  -24.5070   19.1200 C   0  0  0  0  0  2  0  0  0  0  0  0
  -28.3300  -25.2300   20.3490 C   0  0  0  0  0  2  0  0  0  0  0  0
  -28.4010  -26.6630   20.2000 O   0  0  0  0  0  0  0  0  0  0  0  0
  -24.5730  -31.8530   23.2360 C   0  0  0  0  0  0  0  0  0  0  0  0
  -27.2230  -27.3850   20.1860 C   0  0  0  0  0  0  0  0  0  0  0  0
  -23.3740  -30.4540   21.5840 C   0  0  0  0  0  3  0  0  0  0  0  0
  -24.8340  -28.9060   20.1780 C   0  0  0  0  0  0  0  0  0  0  0  0
  -25.9040  -30.8040   21.4050 C   0  0  0  0  0  2  0  0  0  0  0  0
  -25.9910  -29.4300   20.7680 C   0  0  0  0  0  0  0  0  0  0  0  0
  -27.1890  -28.6780   20.7630 C   0  0  0  0  0  3  0  0  0  0  0  0
  -26.0470  -26.8790   19.5880 C   0  0  0  0  0  3  0  0  0  0  0  0
  -24.8560  -27.6310   19.5880 C   0  0  0  0  0  3  0  0  0  0  0  0
  -23.5940  -29.7700   20.2100 C   0  0  0  0  0  2  0  0  0  0  0  0
  -24.6350  -31.0520   22.1340 N   0  0  0  0  0  0  0  0  0  0  0  0
  -23.4890  -32.1260   23.7690 O   0  0  0  0  0  0  0  0  0  0  0  0
  -22.7090  -29.4380   22.5430 C   0  0  0  0  0  0  0  0  0  0  0  0
  -21.3810  -29.2760   22.4170 N   0  0  0  0  0  0  0  0  0  0  0  0
  -23.3860  -28.7960   23.3510 O   0  0  0  0  0  0  0  0  0  0  0  0
  -20.8960  -29.8480   21.7390 H   0  0  0  0  0  0  0  0  0  0  0  0
  -17.9860  -28.1530   22.9330 C   0  0  0  0  0  0  0  0  0  0  0  0
  -20.5510  -28.3460   23.1830 C   0  0  0  0  0  3  0  0  0  0  0  0
  -20.6140  -26.9200   22.5840 C   0  0  0  0  0  2  0  0  0  0  0  0
  -19.4960  -26.6400   21.5760 C   0  0  0  0  0  2  0  0  0  0  0  0
  -18.1250  -26.8080   22.2380 C   0  0  0  0  0  2  0  0  0  0  0  0
  -19.1270  -28.8810   23.3630 C   0  0  0  0  0  0  0  0  0  0  0  0
  -18.9440  -30.1410   23.9730 C   0  0  0  0  0  3  0  0  0  0  0  0
  -17.6530  -30.6710   24.1580 C   0  0  0  0  0  3  0  0  0  0  0  0
  -16.5270  -29.9370   23.7460 C   0  0  0  0  0  3  0  0  0  0  0  0
  -16.6940  -28.6800   23.1370 C   0  0  0  0  0  3  0  0  0  0  0  0
  -25.8550  -32.4800   23.8650 C   0  0  0  0  0  3  0  0  0  0  0  0
  -25.5490  -33.8780   24.1910 N   0  0  0  0  0  0  0  0  0  0  0  0
  -25.8920  -34.9280   23.4330 C   0  0  0  0  0  0  0  0  0  0  0  0
  -26.5700  -34.8200   22.4070 O   0  0  0  0  0  0  0  0  0  0  0  0
  -24.9480  -34.0320   24.9870 H   0  0  0  0  0  0  0  0  0  0  0  0
  -24.1800  -36.7290   23.0520 C   0  0  0  0  0  1  0  0  0  0  0  0
  -25.4070  -36.3200   23.8830 C   0  0  0  0  0  3  0  0  0  0  0  0
  -27.5320  -37.1950   24.7490 C   0  0  0  0  0  1  0  0  0  0  0  0
  -26.4480  -37.3670   23.7850 N   0  0  0  0  0  0  0  0  0  0  0  0
  -26.0450  -38.2900   23.9260 H   0  0  0  0  0  0  0  0  0  0  0  0
  -26.3590  -31.7070   25.1450 C   0  0  1  0  0  0  0  0  0  0  0  0
  -25.2560  -31.4690   26.2040 C   0  0  0  0  0  1  0  0  0  0  0  0
  -26.9380  -30.3280   24.7540 C   0  0  0  0  0  1  0  0  0  0  0  0
  -27.5070  -32.4950   25.8170 C   0  0  0  0  0  1  0  0  0  0  0  0
  1  2  1  0
  1 51  1  0
  2  9  1  0
  3  1  2  0
  4  2  1  0
  5  8  1  0
  6  5  2  0
  7 10  1  0
  8 12  1  0
  9  6  1  0
  9  7  2  0
 10  8  2  0
 10 11  1  0
 13 21  1  0
 14 19  1  0
 15 16  1  0
 15 14  1  0
 17 16  1  0
 17 26  1  0
 17 18  1  0
 19 13  1  0
 19 18  1  0
 20 13  2  0
 21 22  1  0
 21 12  1  0
 23 24  2  0
 24 43  1  0
 25 24  1  0
 25 28  1  0
 26 23  1  0
 26 27  1  0
 27 25  2  0
 28 29  1  0
 29 30  2  0
 31 34  1  0
 31 30  1  0
 32 31  2  0
 33 32  1  0
 33 28  2  0
 34 35  1  0
 35 36  1  0
 36 37  2  0
 38 37  1  0
 38 42  1  0
 39 38  2  0
 40 35  2  0
 40 39  1  0
 41 40  1  0
 43 44  1  0
 44 47  1  0
 44 46  1  0
 45 43  2  0
 48 49  1  0
 48 23  1  0
 50 48  1  0
 52 51  1  0
 52 53  1  0
 54 53  1  0
 55 66  2  0
 56 54  1  0
 56 61  1  0
 57 65  1  0
 57 67  1  0
 58 64  1  0
 58 60  1  0
 59 65  1  0
 60 59  1  0
 61 60  2  0
 62 63  1  0
 62 56  2  0
 63 58  2  0
 64 57  1  0
 65 55  1  0
 67 69  2  0
 68 67  1  0
 70 68  1  0
 71 80  2  0
 71 76  1  0
 72 68  1  0
 72 76  1  0
 73 72  1  0
 74 75  1  0
 74 73  1  0
 75 71  1  0
 76 77  2  0
 77 78  1  0
 79 78  2  0
 80 79  1  0
 81 55  1  0
 81 82  1  0
 81 91  1  0
 82 85  1  0
 83 87  1  0
 83 82  1  0
 84 83  2  0
 87 86  1  0
 89 87  1  0
 89 90  1  0
 89 88  1  0
 91 94  1  1
 91 92  1  0
 93 91  1  0
M  ISO  4  13 100  21 100  53 101  54 101
M  END
>  <TORSDO>  (88) 
F 21

>  <SCORE>  (88) 
-13.779

>  <name>  (88) 
88

>  <ligand_id>  (88) 
88

>  <original_smiles>  (88) 
[H]c1c([H])c([H])c2c(c1[H])C([H])([H])C([H])([H])C([H])([H])C2([H])N([H])C(=O)C1([H])N(C(=O)C([H])(N([H])C(=O)C([H])(N([H])C([H])([H])[H])C([H])([H])[H])C(C([H])([H])[H])(C([H])([H])[H])C([H])([H])[H])C([H])([H])c2c([H])c(OC([H])([H])C([H])([H])C([H])([H])C(=O)N([H])c3c([H])c([H])c(C([H])([H])N([H])C(=O)N4C([H])([H])C([H])([H])C([H])([H])C([H])(n5nc(-c6c([H])c([H])c(Oc7c([H])c([H])c(F)c([H])c7F)c([H])c6[H])c(C(=O)N([H])[H])c5N([H])[H])C4([H])[H])c(F)c3[H])c([H])c([H])c2C1([H])[H]

>  <smiles>  (88) 
[H]c1c([H])c([H])c2c(c1[H])C([H])([H])C([H])([H])C([H])([H])C2([H])N([H])C(=O)C1([H])N(C(=O)C([H])(N([H])C(=O)C([H])(N([H])C([H])([H])[H])C([H])([H])[H])C(C([H])([H])[H])(C([H])([H])[H])C([H])([H])[H])C([H])([H])c2c([H])c(OC([H])([H])C([H])([H])C([H])([H])C(=O)N([H])c3c([H])c([H])c(C([H])([H])N([H])C(=O)N4C([H])([H])C([H])([H])C([H])([H])C([H])(n5nc(-c6c([H])c([H])c(Oc7c([H])c([H])c(F)c([H])c7F)c([H])c6[H])c(C(=O)N([H])[H])c5N([H])[H])C4([H])[H])c(F)c3[H])c([H])c([H])c2C1([H])[H]

$$$$
89:0:0
     RDKit          3D

 90 98  0  0  1  0  0  0  0  0999 V2000
  -29.6470  -22.0000   20.6810 C   0  0  0  0  0  2  0  0  0  0  0  0
  -28.8430  -23.3070   20.4230 C   0  0  0  0  0  2  0  0  0  0  0  0
  -29.4090  -24.5650   21.1330 C   0  0  0  0  0  2  0  0  0  0  0  0
  -28.4280  -25.7610   21.2880 C   0  0  0  0  0  2  0  0  0  0  0  0
  -28.3950  -26.6750   20.1820 O   0  0  0  0  0  0  0  0  0  0  0  0
  -24.6030  -31.8870   23.2550 C   0  0  0  0  0  0  0  0  0  0  0  0
  -27.2580  -27.4510   20.1750 C   0  0  0  0  0  0  0  0  0  0  0  0
  -23.4000  -30.4840   21.6100 C   0  0  0  0  0  3  0  0  0  0  0  0
  -24.8610  -28.9510   20.1840 C   0  0  0  0  0  0  0  0  0  0  0  0
  -25.9260  -30.8480   21.4150 C   0  0  0  0  0  2  0  0  0  0  0  0
  -26.0170  -29.4770   20.7750 C   0  0  0  0  0  0  0  0  0  0  0  0
  -27.2210  -28.7340   20.7710 C   0  0  0  0  0  3  0  0  0  0  0  0
  -26.0900  -26.9400   19.5750 C   0  0  0  0  0  3  0  0  0  0  0  0
  -24.8920  -27.6800   19.5810 C   0  0  0  0  0  3  0  0  0  0  0  0
  -23.6130  -29.8050   20.2300 C   0  0  0  0  0  2  0  0  0  0  0  0
  -24.6610  -31.0880   22.1520 N   0  0  0  0  0  0  0  0  0  0  0  0
  -23.5210  -32.1570   23.7950 O   0  0  0  0  0  0  0  0  0  0  0  0
  -22.7500  -29.4620   22.5700 C   0  0  0  0  0  0  0  0  0  0  0  0
  -21.4250  -29.2810   22.4440 N   0  0  0  0  0  0  0  0  0  0  0  0
  -23.4330  -28.8350   23.3830 O   0  0  0  0  0  0  0  0  0  0  0  0
  -20.9340  -29.8390   21.7590 H   0  0  0  0  0  0  0  0  0  0  0  0
  -18.0480  -28.0940   22.9460 C   0  0  0  0  0  0  0  0  0  0  0  0
  -20.6080  -28.3420   23.2120 C   0  0  0  0  0  3  0  0  0  0  0  0
  -20.7040  -26.9130   22.6290 C   0  0  0  0  0  2  0  0  0  0  0  0
  -19.5980  -26.5980   21.6170 C   0  0  0  0  0  2  0  0  0  0  0  0
  -18.2190  -26.7450   22.2650 C   0  0  0  0  0  2  0  0  0  0  0  0
  -19.1710  -28.8500   23.3770 C   0  0  0  0  0  0  0  0  0  0  0  0
  -18.9580  -30.1110   23.9730 C   0  0  0  0  0  3  0  0  0  0  0  0
  -17.6550  -30.6170   24.1430 C   0  0  0  0  0  3  0  0  0  0  0  0
  -16.5470  -29.8580   23.7300 C   0  0  0  0  0  3  0  0  0  0  0  0
  -16.7450  -28.5970   23.1380 C   0  0  0  0  0  3  0  0  0  0  0  0
  -25.8880  -32.5190   23.8760 C   0  0  0  0  0  3  0  0  0  0  0  0
  -25.5820  -33.9190   24.1980 N   0  0  0  0  0  0  0  0  0  0  0  0
  -25.9200  -34.9670   23.4350 C   0  0  0  0  0  0  0  0  0  0  0  0
  -26.5950  -34.8560   22.4080 O   0  0  0  0  0  0  0  0  0  0  0  0
  -24.9840  -34.0790   24.9950 H   0  0  0  0  0  0  0  0  0  0  0  0
  -24.1980  -36.7610   23.0600 C   0  0  0  0  0  1  0  0  0  0  0  0
  -25.4320  -36.3580   23.8820 C   0  0  0  0  0  3  0  0  0  0  0  0
  -27.5650  -37.2390   24.7230 C   0  0  0  0  0  1  0  0  0  0  0  0
  -26.4680  -37.4080   23.7730 N   0  0  0  0  0  0  0  0  0  0  0  0
  -26.0630  -38.3290   23.9180 H   0  0  0  0  0  0  0  0  0  0  0  0
  -26.4030  -31.7510   25.1540 C   0  0  1  0  0  0  0  0  0  0  0  0
  -25.3110  -31.5170   26.2230 C   0  0  0  0  0  1  0  0  0  0  0  0
  -26.9860  -30.3720   24.7650 C   0  0  0  0  0  1  0  0  0  0  0  0
  -27.5550  -32.5450   25.8150 C   0  0  0  0  0  1  0  0  0  0  0  0
  -29.0300  -20.9170   19.9790 O   0  0  0  0  0  0  0  0  0  0  0  0
  -28.8060  -17.2360   19.9120 C   0  0  0  0  0  3  0  0  0  0  0  0
  -30.6640  -17.8150   21.3650 C   0  0  0  0  0  3  0  0  0  0  0  0
  -28.5840  -18.6040   19.6560 C   0  0  0  0  0  3  0  0  0  0  0  0
  -30.4340  -19.1910   21.1090 C   0  0  0  0  0  3  0  0  0  0  0  0
  -29.8440  -16.8240   20.7750 C   0  0  0  0  0  0  0  0  0  0  0  0
  -29.3730  -19.6040   20.2610 C   0  0  0  0  0  0  0  0  0  0  0  0
  -30.6440  -14.5020   20.4870 C   0  0  0  0  0  0  0  0  0  0  0  0
  -30.3760  -12.3470   19.3070 C   0  0  0  0  0  2  0  0  0  0  0  0
  -29.4250  -12.5620   18.1100 C   0  0  0  0  0  2  0  0  0  0  0  0
  -27.9510  -12.4190   18.5390 C   0  0  0  0  0  2  0  0  0  0  0  0
  -27.6180  -13.2380   19.8150 C   0  0  0  0  0  3  0  0  0  0  0  0
  -28.6750  -12.9850   20.9140 C   0  0  0  0  0  2  0  0  0  0  0  0
  -30.0010  -13.3070   20.3570 N   0  0  0  0  0  0  0  0  0  0  0  0
  -31.7510  -14.7300   19.9870 O   0  0  0  0  0  0  0  0  0  0  0  0
  -29.9400  -15.4470   21.1360 N   0  0  0  0  0  0  0  0  0  0  0  0
  -29.0990  -15.0650   21.5410 H   0  0  0  0  0  0  0  0  0  0  0  0
  -25.2150  -13.8540   20.5080 C   0  0  0  0  0  0  0  0  0  0  0  0
  -24.1460  -13.0850   20.8810 C   0  0  0  0  0  0  0  0  0  0  0  0
  -24.6070  -11.7330   20.8590 C   0  0  0  0  0  0  0  0  0  0  0  0
  -26.2620  -12.9700   20.2890 N   0  0  0  0  0  0  0  0  0  0  0  0
  -25.8970  -11.6900   20.5550 N   0  0  0  0  0  0  0  0  0  0  0  0
  -23.8800  -10.4720   21.0550 C   0  0  0  0  0  0  0  0  0  0  0  0
  -24.3150   -9.5080   21.9910 C   0  0  0  0  0  3  0  0  0  0  0  0
  -23.5900   -8.3120   22.1750 C   0  0  0  0  0  3  0  0  0  0  0  0
  -22.4170   -8.0700   21.4220 C   0  0  0  0  0  0  0  0  0  0  0  0
  -22.0000   -9.0230   20.4760 C   0  0  0  0  0  3  0  0  0  0  0  0
  -22.7250  -10.2120   20.2900 C   0  0  0  0  0  3  0  0  0  0  0  0
  -21.6630   -6.9250   21.5150 O   0  0  0  0  0  0  0  0  0  0  0  0
  -21.6230   -6.1820   22.6680 C   0  0  0  0  0  0  0  0  0  0  0  0
  -21.2060   -6.7360   23.8980 C   0  0  0  0  0  3  0  0  0  0  0  0
  -21.1130   -5.9190   25.0420 C   0  0  0  0  0  3  0  0  0  0  0  0
  -21.4270   -4.5480   24.9580 C   0  0  0  0  0  0  0  0  0  0  0  0
  -21.8360   -3.9950   23.7320 C   0  0  0  0  0  3  0  0  0  0  0  0
  -21.9310   -4.8090   22.5890 C   0  0  0  0  0  0  0  0  0  0  0  0
  -22.3070   -4.2660   21.4070 F   0  0  0  0  0  0  0  0  0  0  0  0
  -21.3300   -3.7620   26.0540 F   0  0  0  0  0  0  0  0  0  0  0  0
  -22.7480  -13.5650   21.1490 C   0  0  0  0  0  0  0  0  0  0  0  0
  -22.0180  -12.8730   22.0170 N   0  0  0  0  0  0  0  0  0  0  0  0
  -22.3110  -14.5880   20.6230 O   0  0  0  0  0  0  0  0  0  0  0  0
  -22.3840  -12.0450   22.4640 H   0  0  0  0  0  0  0  0  0  0  0  0
  -21.0810  -13.1780   22.2390 H   0  0  0  0  0  0  0  0  0  0  0  0
  -25.3780  -15.2240   20.3220 N   0  0  0  0  0  0  0  0  0  0  0  0
  -24.6070  -15.8740   20.4240 H   0  0  0  0  0  0  0  0  0  0  0  0
  -26.2270  -15.6660   19.9960 H   0  0  0  0  0  0  0  0  0  0  0  0
  2  1  1  0
  2  3  1  0
  3  4  1  0
  5  4  1  0
  6 17  2  0
  7  5  1  0
  7 12  1  0
  8 16  1  0
  8 18  1  0
  9 15  1  0
  9 11  1  0
 10 16  1  0
 11 10  1  0
 12 11  2  0
 13 14  1  0
 13  7  2  0
 14  9  2  0
 15  8  1  0
 16  6  1  0
 18 20  2  0
 19 18  1  0
 21 19  1  0
 22 31  2  0
 22 27  1  0
 23 19  1  0
 23 27  1  0
 24 23  1  0
 25 26  1  0
 25 24  1  0
 26 22  1  0
 27 28  2  0
 28 29  1  0
 30 29  2  0
 31 30  1  0
 32  6  1  0
 32 33  1  0
 32 42  1  0
 33 36  1  0
 34 38  1  0
 34 33  1  0
 35 34  2  0
 38 37  1  0
 40 38  1  0
 40 41  1  0
 40 39  1  0
 42 45  1  1
 42 43  1  0
 44 42  1  0
 46 52  1  0
 46  1  1  0
 47 51  1  0
 49 47  2  0
 49 52  1  0
 50 48  1  0
 51 61  1  0
 51 48  2  0
 52 50  2  0
 53 61  1  0
 54 59  1  0
 55 56  1  0
 55 54  1  0
 57 56  1  0
 57 66  1  0
 57 58  1  0
 59 53  1  0
 59 58  1  0
 60 53  2  0
 61 62  1  0
 63 64  2  0
 64 83  1  0
 65 64  1  0
 65 68  1  0
 66 63  1  0
 66 67  1  0
 67 65  2  0
 68 69  1  0
 69 70  2  0
 71 74  1  0
 71 70  1  0
 72 71  2  0
 73 72  1  0
 73 68  2  0
 74 75  1  0
 75 76  1  0
 76 77  2  0
 78 77  1  0
 78 82  1  0
 79 78  2  0
 80 75  2  0
 80 79  1  0
 81 80  1  0
 83 84  1  0
 84 87  1  0
 84 86  1  0
 85 83  2  0
 88 89  1  0
 88 63  1  0
 90 88  1  0
M  ISO  4   4 101   5 101  53 100  61 100
M  END
>  <TORSDO>  (89) 
F 21

>  <SCORE>  (89) 
-13.693

>  <name>  (89) 
89

>  <ligand_id>  (89) 
89

>  <original_smiles>  (89) 
[H]c1c([H])c([H])c2c(c1[H])C([H])([H])C([H])([H])C([H])([H])C2([H])N([H])C(=O)C1([H])N(C(=O)C([H])(N([H])C(=O)C([H])(N([H])C([H])([H])[H])C([H])([H])[H])C(C([H])([H])[H])(C([H])([H])[H])C([H])([H])[H])C([H])([H])c2c([H])c(OC([H])([H])C([H])([H])C([H])([H])C([H])([H])Oc3c([H])c([H])c(N([H])C(=O)N4C([H])([H])C([H])([H])C([H])([H])C([H])(n5nc(-c6c([H])c([H])c(Oc7c([H])c([H])c(F)c([H])c7F)c([H])c6[H])c(C(=O)N([H])[H])c5N([H])[H])C4([H])[H])c([H])c3[H])c([H])c([H])c2C1([H])[H]

>  <smiles>  (89) 
[H]c1c([H])c([H])c2c(c1[H])C([H])([H])C([H])([H])C([H])([H])C2([H])N([H])C(=O)C1([H])N(C(=O)C([H])(N([H])C(=O)C([H])(N([H])C([H])([H])[H])C([H])([H])[H])C(C([H])([H])[H])(C([H])([H])[H])C([H])([H])[H])C([H])([H])c2c([H])c(OC([H])([H])C([H])([H])C([H])([H])C([H])([H])Oc3c([H])c([H])c(N([H])C(=O)N4C([H])([H])C([H])([H])C([H])([H])C([H])(n5nc(-c6c([H])c([H])c(Oc7c([H])c([H])c(F)c([H])c7F)c([H])c6[H])c(C(=O)N([H])[H])c5N([H])[H])C4([H])[H])c([H])c3[H])c([H])c([H])c2C1([H])[H]

$$$$
90:0:0
     RDKit          3D

 96105  0  0  1  0  0  0  0  0999 V2000
  -30.2470  -21.1600   21.6630 C   0  0  0  0  0  0  0  0  0  0  0  0
  -28.2130  -23.4180   19.4870 C   0  0  0  0  0  2  0  0  0  0  0  0
  -28.9850  -22.1070   19.6930 C   0  0  0  0  0  2  0  0  0  0  0  0
  -28.9740  -24.4410   20.3200 C   0  0  0  0  0  3  0  0  0  0  0  0
  -29.5020  -23.5940   21.5200 C   0  0  2  0  0  0  0  0  0  0  0  0
  -28.5050  -23.5920   22.7050 C   0  0  0  0  0  1  0  0  0  0  0  0
  -30.8540  -24.1990   21.9750 C   0  0  0  0  0  1  0  0  0  0  0  0
  -29.6280  -22.1940   21.0090 N   0  0  0  0  0  0  0  0  0  0  0  0
  -30.8780  -21.3260   22.7110 O   0  0  0  0  0  0  0  0  0  0  0  0
  -28.9570  -19.0900   20.8690 C   0  0  0  0  0  3  0  0  0  0  0  0
  -28.9080  -17.6950   20.6450 C   0  0  0  0  0  3  0  0  0  0  0  0
  -31.3520  -18.9330   21.2010 C   0  0  0  0  0  3  0  0  0  0  0  0
  -30.1830  -19.7310   21.1580 C   0  0  0  0  0  0  0  0  0  0  0  0
  -30.0750  -16.8970   20.7120 C   0  0  0  0  0  0  0  0  0  0  0  0
  -31.3080  -17.5360   20.9950 C   0  0  0  0  0  0  0  0  0  0  0  0
  -32.4450  -16.8220   21.1570 F   0  0  0  0  0  0  0  0  0  0  0  0
  -30.5900  -14.5580   19.8960 C   0  0  0  0  0  0  0  0  0  0  0  0
  -30.2420  -12.4110   18.7130 C   0  0  0  0  0  2  0  0  0  0  0  0
  -29.1720  -12.6110   17.6200 C   0  0  0  0  0  2  0  0  0  0  0  0
  -27.7510  -12.4370   18.1960 C   0  0  0  0  0  2  0  0  0  0  0  0
  -27.5330  -13.2430   19.5030 C   0  0  0  0  0  3  0  0  0  0  0  0
  -28.6970  -12.9990   20.4900 C   0  0  0  0  0  2  0  0  0  0  0  0
  -29.9540  -13.3560   19.8040 N   0  0  0  0  0  0  0  0  0  0  0  0
  -31.6280  -14.8060   19.2730 O   0  0  0  0  0  0  0  0  0  0  0  0
  -29.9130  -15.4780   20.6140 N   0  0  0  0  0  0  0  0  0  0  0  0
  -29.0520  -15.1200   20.9960 H   0  0  0  0  0  0  0  0  0  0  0  0
  -25.2360  -13.8150   20.5160 C   0  0  0  0  0  0  0  0  0  0  0  0
  -24.2060  -13.0240   20.9510 C   0  0  0  0  0  0  0  0  0  0  0  0
  -24.6420  -11.6750   20.7720 C   0  0  0  0  0  0  0  0  0  0  0  0
  -26.2360  -12.9460   20.1080 N   0  0  0  0  0  0  0  0  0  0  0  0
  -25.8870  -11.6500   20.3160 N   0  0  0  0  0  0  0  0  0  0  0  0
  -23.9260  -10.4070   20.9540 C   0  0  0  0  0  0  0  0  0  0  0  0
  -24.3620   -9.4410   21.8870 C   0  0  0  0  0  3  0  0  0  0  0  0
  -23.6470   -8.2350   22.0570 C   0  0  0  0  0  3  0  0  0  0  0  0
  -22.4810   -7.9890   21.2940 C   0  0  0  0  0  0  0  0  0  0  0  0
  -22.0630   -8.9440   20.3510 C   0  0  0  0  0  3  0  0  0  0  0  0
  -22.7800  -10.1410   20.1790 C   0  0  0  0  0  3  0  0  0  0  0  0
  -21.7370   -6.8360   21.3730 O   0  0  0  0  0  0  0  0  0  0  0  0
  -21.5800   -6.1610   22.5570 C   0  0  0  0  0  0  0  0  0  0  0  0
  -20.9770   -6.7620   23.6830 C   0  0  0  0  0  3  0  0  0  0  0  0
  -20.7710   -6.0110   24.8570 C   0  0  0  0  0  3  0  0  0  0  0  0
  -21.1580   -4.6580   24.9050 C   0  0  0  0  0  0  0  0  0  0  0  0
  -21.7550   -4.0560   23.7840 C   0  0  0  0  0  3  0  0  0  0  0  0
  -21.9620   -4.8060   22.6120 C   0  0  0  0  0  0  0  0  0  0  0  0
  -22.5190   -4.2150   21.5270 F   0  0  0  0  0  0  0  0  0  0  0  0
  -20.9540   -3.9340   26.0300 F   0  0  0  0  0  0  0  0  0  0  0  0
  -22.8540  -13.4880   21.4150 C   0  0  0  0  0  0  0  0  0  0  0  0
  -22.2180  -12.7310   22.3010 N   0  0  0  0  0  0  0  0  0  0  0  0
  -22.3770  -14.5530   21.0280 O   0  0  0  0  0  0  0  0  0  0  0  0
  -22.6190  -11.8680   22.6350 H   0  0  0  0  0  0  0  0  0  0  0  0
  -21.3160  -13.0210   22.6510 H   0  0  0  0  0  0  0  0  0  0  0  0
  -25.3970  -15.1940   20.4150 N   0  0  0  0  0  0  0  0  0  0  0  0
  -24.6490  -15.8400   20.6420 H   0  0  0  0  0  0  0  0  0  0  0  0
  -26.1900  -15.6450   19.9770 H   0  0  0  0  0  0  0  0  0  0  0  0
  -28.1830  -25.7370   20.6830 C   0  0  0  0  0  2  0  0  0  0  0  0
  -28.0440  -26.6660   19.5970 O   0  0  0  0  0  0  0  0  0  0  0  0
  -24.4360  -31.7560   23.0710 C   0  0  0  0  0  0  0  0  0  0  0  0
  -26.9140  -27.4450   19.6880 C   0  0  0  0  0  0  0  0  0  0  0  0
  -23.1540  -30.4470   21.4080 C   0  0  0  0  0  3  0  0  0  0  0  0
  -24.5390  -28.9660   19.8580 C   0  0  0  0  0  0  0  0  0  0  0  0
  -25.6750  -30.7920   21.1350 C   0  0  0  0  0  2  0  0  0  0  0  0
  -25.7230  -29.4510   20.4290 C   0  0  0  0  0  0  0  0  0  0  0  0
  -26.9180  -28.6970   20.3440 C   0  0  0  0  0  3  0  0  0  0  0  0
  -25.7180  -26.9720   19.1130 C   0  0  0  0  0  3  0  0  0  0  0  0
  -24.5300  -27.7240   19.1980 C   0  0  0  0  0  3  0  0  0  0  0  0
  -23.3070  -29.8330   19.9920 C   0  0  0  0  0  2  0  0  0  0  0  0
  -24.4420  -31.0100   21.9300 N   0  0  0  0  0  0  0  0  0  0  0  0
  -23.3780  -32.0130   23.6630 O   0  0  0  0  0  0  0  0  0  0  0  0
  -22.5250  -29.3890   22.3430 C   0  0  0  0  0  0  0  0  0  0  0  0
  -21.1950  -29.2240   22.2520 N   0  0  0  0  0  0  0  0  0  0  0  0
  -23.2290  -28.7200   23.1050 O   0  0  0  0  0  0  0  0  0  0  0  0
  -20.6880  -29.8160   21.6080 H   0  0  0  0  0  0  0  0  0  0  0  0
  -17.8260  -28.0480   22.8170 C   0  0  0  0  0  0  0  0  0  0  0  0
  -20.3960  -28.2580   23.0050 C   0  0  0  0  0  3  0  0  0  0  0  0
  -20.4560  -26.8580   22.3520 C   0  0  0  0  0  2  0  0  0  0  0  0
  -19.3110  -26.6030   21.3650 C   0  0  0  0  0  2  0  0  0  0  0  0
  -17.9570  -26.7330   22.0680 C   0  0  0  0  0  2  0  0  0  0  0  0
  -18.9710  -28.7720   23.2430 C   0  0  0  0  0  0  0  0  0  0  0  0
  -18.7940  -30.0060   23.9050 C   0  0  0  0  0  3  0  0  0  0  0  0
  -17.5040  -30.5160   24.1450 C   0  0  0  0  0  3  0  0  0  0  0  0
  -16.3740  -29.7880   23.7350 C   0  0  0  0  0  3  0  0  0  0  0  0
  -16.5350  -28.5550   23.0780 C   0  0  0  0  0  3  0  0  0  0  0  0
  -25.7510  -32.3420   23.6740 C   0  0  0  0  0  3  0  0  0  0  0  0
  -25.4770  -33.7310   24.0660 N   0  0  0  0  0  0  0  0  0  0  0  0
  -25.8140  -34.8060   23.3410 C   0  0  0  0  0  0  0  0  0  0  0  0
  -26.4580  -34.7310   22.2910 O   0  0  0  0  0  0  0  0  0  0  0  0
  -24.9040  -33.8650   24.8860 H   0  0  0  0  0  0  0  0  0  0  0  0
  -24.1240  -36.6500   23.0820 C   0  0  0  0  0  1  0  0  0  0  0  0
  -25.3630  -36.1840   23.8630 C   0  0  0  0  0  3  0  0  0  0  0  0
  -27.5190  -36.9900   24.7190 C   0  0  0  0  0  1  0  0  0  0  0  0
  -26.4190  -37.2160   23.7850 N   0  0  0  0  0  0  0  0  0  0  0  0
  -26.0340  -38.1390   23.9660 H   0  0  0  0  0  0  0  0  0  0  0  0
  -26.2990  -31.5130   24.8990 C   0  0  1  0  0  0  0  0  0  0  0  0
  -25.2370  -31.2420   25.9900 C   0  0  0  0  0  1  0  0  0  0  0  0
  -26.8510  -30.1460   24.4290 C   0  0  0  0  0  1  0  0  0  0  0  0
  -27.4800  -32.2640   25.5560 C   0  0  0  0  0  1  0  0  0  0  0  0
  1  9  2  0
  2  3  1  0
  2  4  1  0
  3  8  1  0
  4 55  1  0
  4  5  1  0
  5  7  1  1
  5  6  1  0
  8  5  1  0
  8  1  1  0
 10 13  1  0
 11 14  1  0
 11 10  2  0
 13 12  2  0
 13  1  1  0
 14 15  2  0
 15 16  1  0
 15 12  1  0
 17 25  1  0
 18 23  1  0
 19 20  1  0
 19 18  1  0
 21 20  1  0
 21 30  1  0
 21 22  1  0
 23 17  1  0
 23 22  1  0
 24 17  2  0
 25 14  1  0
 25 26  1  0
 27 28  2  0
 28 47  1  0
 29 28  1  0
 29 32  1  0
 30 31  1  0
 30 27  1  0
 31 29  2  0
 32 33  1  0
 33 34  2  0
 35 38  1  0
 35 34  1  0
 36 35  2  0
 37 36  1  0
 37 32  2  0
 38 39  1  0
 39 44  2  0
 39 40  1  0
 40 41  2  0
 41 42  1  0
 42 46  1  0
 43 42  2  0
 44 43  1  0
 45 44  1  0
 47 48  1  0
 48 50  1  0
 48 51  1  0
 49 47  2  0
 52 27  1  0
 52 53  1  0
 54 52  1  0
 56 58  1  0
 56 55  1  0
 57 68  2  0
 58 63  1  0
 59 67  1  0
 59 69  1  0
 60 66  1  0
 60 62  1  0
 61 67  1  0
 62 61  1  0
 63 62  2  0
 64 65  1  0
 64 58  2  0
 65 60  2  0
 66 59  1  0
 67 57  1  0
 69 71  2  0
 70 69  1  0
 72 70  1  0
 73 82  2  0
 73 78  1  0
 74 70  1  0
 74 78  1  0
 75 74  1  0
 76 77  1  0
 76 75  1  0
 77 73  1  0
 78 79  2  0
 79 80  1  0
 81 80  2  0
 82 81  1  0
 83 57  1  0
 83 84  1  0
 83 93  1  0
 84 87  1  0
 85 89  1  0
 85 84  1  0
 86 85  2  0
 89 88  1  0
 91 89  1  0
 91 92  1  0
 91 90  1  0
 93 96  1  1
 93 94  1  0
 95 93  1  0
M  ISO  4  17 100  25 100  55 101  56 101
M  END
>  <TORSDO>  (90) 
F 18

>  <SCORE>  (90) 
-13.218

>  <name>  (90) 
90

>  <ligand_id>  (90) 
90

>  <original_smiles>  (90) 
[H]c1c([H])c([H])c2c(c1[H])C([H])([H])C([H])([H])C([H])([H])C2([H])N([H])C(=O)C1([H])N(C(=O)C([H])(N([H])C(=O)C([H])(N([H])C([H])([H])[H])C([H])([H])[H])C(C([H])([H])[H])(C([H])([H])[H])C([H])([H])[H])C([H])([H])c2c([H])c(OC([H])([H])C3([H])C([H])([H])C([H])([H])N(C(=O)c4c([H])c([H])c(N([H])C(=O)N5C([H])([H])C([H])([H])C([H])([H])C([H])(n6nc(-c7c([H])c([H])c(Oc8c([H])c([H])c(F)c([H])c8F)c([H])c7[H])c(C(=O)N([H])[H])c6N([H])[H])C5([H])[H])c(F)c4[H])C3(C([H])([H])[H])C([H])([H])[H])c([H])c([H])c2C1([H])[H]

>  <smiles>  (90) 
[H]c1c([H])c([H])c2c(c1[H])C([H])([H])C([H])([H])C([H])([H])C2([H])N([H])C(=O)C1([H])N(C(=O)C([H])(N([H])C(=O)C([H])(N([H])C([H])([H])[H])C([H])([H])[H])C(C([H])([H])[H])(C([H])([H])[H])C([H])([H])[H])C([H])([H])c2c([H])c(OC([H])([H])C3([H])C([H])([H])C([H])([H])N(C(=O)c4c([H])c([H])c(N([H])C(=O)N5C([H])([H])C([H])([H])C([H])([H])C([H])(n6nc(-c7c([H])c([H])c(Oc8c([H])c([H])c(F)c([H])c8F)c([H])c7[H])c(C(=O)N([H])[H])c6N([H])[H])C5([H])[H])c(F)c4[H])C3(C([H])([H])[H])C([H])([H])[H])c([H])c([H])c2C1([H])[H]

$$$$
91:0:0
     RDKit          3D

 95104  0  0  1  0  0  0  0  0999 V2000
  -29.1970  -23.5900   22.8620 C   0  0  0  0  0  0  0  0  0  0  0  0
  -28.3150  -22.3460   22.7260 C   0  0  0  0  0  2  0  0  0  0  0  0
  -30.1710  -23.8780   21.7160 C   0  0  0  0  0  2  0  0  0  0  0  0
  -27.8270  -22.1170   21.2820 C   0  0  0  0  0  2  0  0  0  0  0  0
  -29.5340  -23.6370   20.3300 C   0  0  0  0  0  3  0  0  0  0  0  0
  -28.9330  -22.1970   20.3200 N   0  0  0  0  0  0  0  0  0  0  0  0
  -29.1720  -24.2890   23.8790 O   0  0  0  0  0  0  0  0  0  0  0  0
  -28.6630  -19.7990   19.6320 C   0  0  0  0  0  3  0  0  0  0  0  0
  -30.6770  -20.2330   20.7580 C   0  0  0  0  0  3  0  0  0  0  0  0
  -28.9600  -18.3900   19.5900 C   0  0  0  0  0  0  0  0  0  0  0  0
  -29.4810  -20.8160   20.2040 C   0  0  0  0  0  0  0  0  0  0  0  0
  -30.1510  -17.7910   20.1510 C   0  0  0  0  0  0  0  0  0  0  0  0
  -30.9970  -18.8020   20.7390 C   0  0  0  0  0  0  0  0  0  0  0  0
  -27.9320  -17.5480   18.8530 C   0  0  0  0  0  1  0  0  0  0  0  0
  -32.1800  -18.4120   21.2740 F   0  0  0  0  0  0  0  0  0  0  0  0
  -31.1150  -15.2430   20.5830 C   0  0  0  0  0  0  0  0  0  0  0  0
  -31.0330  -12.8310   19.8180 C   0  0  0  0  0  2  0  0  0  0  0  0
  -30.1800  -12.6270   18.5460 C   0  0  0  0  0  2  0  0  0  0  0  0
  -28.6760  -12.5300   18.8750 C   0  0  0  0  0  2  0  0  0  0  0  0
  -28.1990  -13.5370   19.9570 C   0  0  0  0  0  3  0  0  0  0  0  0
  -29.1850  -13.6420   21.1340 C   0  0  0  0  0  2  0  0  0  0  0  0
  -30.4880  -13.9980   20.5590 N   0  0  0  0  0  0  0  0  0  0  0  0
  -32.3480  -15.2400   20.6400 O   0  0  0  0  0  0  0  0  0  0  0  0
  -30.6930  -16.1180   18.4250 C   0  0  0  0  0  1  0  0  0  0  0  0
  -30.4870  -16.3130   19.8780 N   0  0  0  0  0  0  0  0  0  0  0  0
  -25.7940  -14.1800   20.5780 C   0  0  0  0  0  0  0  0  0  0  0  0
  -24.6880  -13.4290   20.8660 C   0  0  0  0  0  0  0  0  0  0  0  0
  -25.1220  -12.0680   20.8580 C   0  0  0  0  0  0  0  0  0  0  0  0
  -26.8290  -13.2770   20.3910 N   0  0  0  0  0  0  0  0  0  0  0  0
  -26.4290  -12.0030   20.6330 N   0  0  0  0  0  0  0  0  0  0  0  0
  -24.3570  -10.8240   20.9920 C   0  0  0  0  0  0  0  0  0  0  0  0
  -24.7050   -9.8420   21.9470 C   0  0  0  0  0  3  0  0  0  0  0  0
  -23.9420   -8.6620   22.0700 C   0  0  0  0  0  3  0  0  0  0  0  0
  -22.8160   -8.4550   21.2380 C   0  0  0  0  0  0  0  0  0  0  0  0
  -22.4870   -9.4240   20.2740 C   0  0  0  0  0  3  0  0  0  0  0  0
  -23.2510  -10.5960   20.1480 C   0  0  0  0  0  3  0  0  0  0  0  0
  -22.0300   -7.3280   21.2700 O   0  0  0  0  0  0  0  0  0  0  0  0
  -21.8540   -6.6050   22.4230 C   0  0  0  0  0  0  0  0  0  0  0  0
  -21.2980   -7.1830   23.5860 C   0  0  0  0  0  3  0  0  0  0  0  0
  -21.0710   -6.3870   24.7260 C   0  0  0  0  0  3  0  0  0  0  0  0
  -21.3890   -5.0160   24.7030 C   0  0  0  0  0  0  0  0  0  0  0  0
  -21.9380   -4.4390   23.5440 C   0  0  0  0  0  3  0  0  0  0  0  0
  -22.1670   -5.2310   22.4060 C   0  0  0  0  0  0  0  0  0  0  0  0
  -22.6760   -4.6660   21.2850 F   0  0  0  0  0  0  0  0  0  0  0  0
  -21.1630   -4.2490   25.7960 F   0  0  0  0  0  0  0  0  0  0  0  0
  -23.2870  -13.9390   21.0460 C   0  0  0  0  0  0  0  0  0  0  0  0
  -22.4930  -13.2700   21.8730 N   0  0  0  0  0  0  0  0  0  0  0  0
  -22.9040  -14.9670   20.4890 O   0  0  0  0  0  0  0  0  0  0  0  0
  -22.8110  -12.4400   22.3510 H   0  0  0  0  0  0  0  0  0  0  0  0
  -21.5490  -13.5960   22.0310 H   0  0  0  0  0  0  0  0  0  0  0  0
  -25.9980  -15.5470   20.4330 N   0  0  0  0  0  0  0  0  0  0  0  0
  -25.2460  -16.2200   20.5270 H   0  0  0  0  0  0  0  0  0  0  0  0
  -26.8950  -15.9770   20.2620 H   0  0  0  0  0  0  0  0  0  0  0  0
  -28.5470  -24.9560   19.9450 C   0  0  0  0  0  2  0  0  0  0  0  0
  -28.7990  -26.4750   20.1480 O   0  0  0  0  0  0  0  0  0  0  0  0
  -24.8410  -31.7990   23.3320 C   0  0  0  0  0  0  0  0  0  0  0  0
  -27.7160  -27.4210   20.0960 C   0  0  0  0  0  0  0  0  0  0  0  0
  -23.7670  -30.5010   21.5310 C   0  0  0  0  0  3  0  0  0  0  0  0
  -25.3340  -29.0860   20.0690 C   0  0  0  0  0  0  0  0  0  0  0  0
  -26.3170  -30.8540   21.5210 C   0  0  0  0  0  2  0  0  0  0  0  0
  -26.4670  -29.5200   20.7710 C   0  0  0  0  0  0  0  0  0  0  0  0
  -27.6580  -28.7060   20.7690 C   0  0  0  0  0  3  0  0  0  0  0  0
  -26.5550  -27.0890   19.3580 C   0  0  0  0  0  3  0  0  0  0  0  0
  -25.3910  -27.8850   19.3490 C   0  0  0  0  0  3  0  0  0  0  0  0
  -24.0770  -29.9390   20.1190 C   0  0  0  0  0  2  0  0  0  0  0  0
  -24.9920  -31.0690   22.1850 N   0  0  0  0  0  0  0  0  0  0  0  0
  -23.7220  -32.0090   23.8240 O   0  0  0  0  0  0  0  0  0  0  0  0
  -23.0750  -29.4050   22.3780 C   0  0  0  0  0  0  0  0  0  0  0  0
  -21.7470  -29.2540   22.2180 N   0  0  0  0  0  0  0  0  0  0  0  0
  -23.7340  -28.6960   23.1420 O   0  0  0  0  0  0  0  0  0  0  0  0
  -21.2720  -29.8760   21.5810 H   0  0  0  0  0  0  0  0  0  0  0  0
  -18.3410  -28.0960   22.6370 C   0  0  0  0  0  0  0  0  0  0  0  0
  -20.9110  -28.2490   22.8820 C   0  0  0  0  0  3  0  0  0  0  0  0
  -20.9600  -26.9000   22.1270 C   0  0  0  0  0  2  0  0  0  0  0  0
  -19.8310  -26.7400   21.1040 C   0  0  0  0  0  2  0  0  0  0  0  0
  -18.4650  -26.8400   21.7890 C   0  0  0  0  0  2  0  0  0  0  0  0
  -19.4890  -28.7660   23.1360 C   0  0  0  0  0  0  0  0  0  0  0  0
  -19.3170  -29.9460   23.8910 C   0  0  0  0  0  3  0  0  0  0  0  0
  -18.0310  -30.4550   24.1500 C   0  0  0  0  0  3  0  0  0  0  0  0
  -16.8970  -29.7800   23.6660 C   0  0  0  0  0  3  0  0  0  0  0  0
  -17.0530  -28.6010   22.9150 C   0  0  0  0  0  3  0  0  0  0  0  0
  -26.0670  -32.4180   24.0710 C   0  0  0  0  0  3  0  0  0  0  0  0
  -25.7180  -33.8000   24.4370 N   0  0  0  0  0  0  0  0  0  0  0  0
  -26.0790  -34.8880   23.7430 C   0  0  0  0  0  0  0  0  0  0  0  0
  -26.8030  -34.8350   22.7460 O   0  0  0  0  0  0  0  0  0  0  0  0
  -25.0870  -33.9160   25.2160 H   0  0  0  0  0  0  0  0  0  0  0  0
  -24.3500  -36.6780   23.3720 C   0  0  0  0  0  1  0  0  0  0  0  0
  -25.5530  -36.2520   24.2310 C   0  0  0  0  0  3  0  0  0  0  0  0
  -27.6230  -37.1320   25.2170 C   0  0  0  0  0  1  0  0  0  0  0  0
  -26.5760  -37.3200   24.2160 N   0  0  0  0  0  0  0  0  0  0  0  0
  -26.1480  -38.2300   24.3710 H   0  0  0  0  0  0  0  0  0  0  0  0
  -26.4960  -31.6020   25.3530 C   0  0  1  0  0  0  0  0  0  0  0  0
  -25.3310  -31.3220   26.3310 C   0  0  0  0  0  1  0  0  0  0  0  0
  -27.1140  -30.2420   24.9580 C   0  0  0  0  0  1  0  0  0  0  0  0
  -27.5920  -32.3750   26.1230 C   0  0  0  0  0  1  0  0  0  0  0  0
  1  7  2  0
  2  1  1  0
  3  1  1  0
  4  2  1  0
  5 54  1  0
  5  3  1  0
  6  5  1  0
  6  4  1  0
  8 11  1  0
 10  8  2  0
 10 12  1  0
 11  6  1  0
 11  9  2  0
 12 13  2  0
 13  9  1  0
 13 15  1  0
 14 10  1  0
 16 23  2  0
 17 22  1  0
 18 19  1  0
 18 17  1  0
 20 19  1  0
 20 29  1  0
 20 21  1  0
 22 16  1  0
 22 21  1  0
 24 25  1  0
 25 12  1  0
 25 16  1  0
 26 27  2  0
 27 46  1  0
 28 27  1  0
 28 31  1  0
 29 26  1  0
 29 30  1  0
 30 28  2  0
 31 32  1  0
 32 33  2  0
 34 37  1  0
 34 33  1  0
 35 34  2  0
 36 35  1  0
 36 31  2  0
 37 38  1  0
 38 39  1  0
 39 40  2  0
 41 40  1  0
 41 45  1  0
 42 41  2  0
 43 38  2  0
 43 42  1  0
 44 43  1  0
 46 47  1  0
 47 50  1  0
 47 49  1  0
 48 46  2  0
 51 52  1  0
 51 26  1  0
 53 51  1  0
 54 55  1  0
 56 67  2  0
 57 55  1  0
 57 62  1  0
 58 66  1  0
 58 68  1  0
 59 65  1  0
 59 61  1  0
 60 66  1  0
 61 60  1  0
 62 61  2  0
 63 57  2  0
 64 63  1  0
 64 59  2  0
 65 58  1  0
 66 56  1  0
 68 70  2  0
 69 68  1  0
 71 69  1  0
 72 81  2  0
 72 77  1  0
 73 69  1  0
 73 77  1  0
 74 73  1  0
 75 76  1  0
 75 74  1  0
 76 72  1  0
 77 78  2  0
 78 79  1  0
 80 79  2  0
 81 80  1  0
 82 56  1  0
 82 83  1  0
 82 92  1  0
 83 86  1  0
 84 88  1  0
 84 83  1  0
 85 84  2  0
 88 87  1  0
 90 88  1  0
 90 91  1  0
 90 89  1  0
 92 95  1  1
 92 93  1  0
 94 92  1  0
M  ISO  4  16 100  25 100  54 101  55 101
M  END
>  <TORSDO>  (91) 
F 18

>  <SCORE>  (91) 
-13.304

>  <name>  (91) 
91

>  <ligand_id>  (91) 
91

>  <original_smiles>  (91) 
[H]c1c([H])c([H])c2c(c1[H])C([H])([H])C([H])([H])C([H])([H])C2([H])N([H])C(=O)C1([H])N(C(=O)C([H])(N([H])C(=O)C([H])(N([H])C([H])([H])[H])C([H])([H])[H])C(C([H])([H])[H])(C([H])([H])[H])C([H])([H])[H])C([H])([H])c2c([H])c(OC([H])([H])C3([H])N(c4c([H])c(F)c(N(C(=O)N5C([H])([H])C([H])([H])C([H])([H])C([H])(n6nc(-c7c([H])c([H])c(Oc8c([H])c([H])c(F)c([H])c8F)c([H])c7[H])c(C(=O)N([H])[H])c6N([H])[H])C5([H])[H])C([H])([H])[H])c(C([H])([H])[H])c4[H])C([H])([H])C([H])([H])C(=O)C3([H])[H])c([H])c([H])c2C1([H])[H]

>  <smiles>  (91) 
[H]c1c([H])c([H])c2c(c1[H])C([H])([H])C([H])([H])C([H])([H])C2([H])N([H])C(=O)C1([H])N(C(=O)C([H])(N([H])C(=O)C([H])(N([H])C([H])([H])[H])C([H])([H])[H])C(C([H])([H])[H])(C([H])([H])[H])C([H])([H])[H])C([H])([H])c2c([H])c(OC([H])([H])C3([H])N(c4c([H])c(F)c(N(C(=O)N5C([H])([H])C([H])([H])C([H])([H])C([H])(n6nc(-c7c([H])c([H])c(Oc8c([H])c([H])c(F)c([H])c8F)c([H])c7[H])c(C(=O)N([H])[H])c6N([H])[H])C5([H])[H])C([H])([H])[H])c(C([H])([H])[H])c4[H])C([H])([H])C([H])([H])C(=O)C3([H])[H])c([H])c([H])c2C1([H])[H]

$$$$
92:0:0
     RDKit          3D

 94102  0  0  1  0  0  0  0  0999 V2000
  -31.7250  -19.2640   21.6690 C   0  0  0  0  0  3  0  0  0  0  0  0
  -31.0820  -20.4180   21.1840 C   0  0  0  0  0  3  0  0  0  0  0  0
  -29.5190  -18.9650   20.0540 C   0  0  0  0  0  3  0  0  0  0  0  0
  -31.2580  -17.9560   21.3940 C   0  0  0  0  0  0  0  0  0  0  0  0
  -30.1200  -17.7270   20.5620 C   0  0  0  0  0  0  0  0  0  0  0  0
  -29.9430  -20.3180   20.3630 C   0  0  0  0  0  0  0  0  0  0  0  0
  -32.0050  -16.8140   22.0710 C   0  0  0  0  0  1  0  0  0  0  0  0
  -29.2910  -22.7170   20.3360 C   0  0  0  0  0  3  0  0  0  0  0  0
  -29.3070  -21.5040   19.8120 N   0  0  0  0  0  0  0  0  0  0  0  0
  -28.8000  -24.0910   19.6980 C   0  0  0  0  0  0  0  0  0  0  0  0
  -28.5440  -24.1340   18.4840 O   0  0  0  0  0  0  0  0  0  0  0  0
  -28.6220  -25.4300   20.5670 C   0  0  0  0  0  2  0  0  0  0  0  0
  -28.5550  -26.8090   19.9730 O   0  0  0  0  0  0  0  0  0  0  0  0
  -24.6290  -31.9640   23.2480 C   0  0  0  0  0  0  0  0  0  0  0  0
  -27.3900  -27.5990   20.0420 C   0  0  0  0  0  0  0  0  0  0  0  0
  -23.4760  -30.6110   21.5330 C   0  0  0  0  0  3  0  0  0  0  0  0
  -24.9800  -29.1520   20.0610 C   0  0  0  0  0  0  0  0  0  0  0  0
  -26.0060  -31.0020   21.3880 C   0  0  0  0  0  2  0  0  0  0  0  0
  -26.1290  -29.6490   20.6900 C   0  0  0  0  0  0  0  0  0  0  0  0
  -27.3380  -28.8880   20.6650 C   0  0  0  0  0  3  0  0  0  0  0  0
  -26.2180  -27.1550   19.3960 C   0  0  0  0  0  3  0  0  0  0  0  0
  -25.0260  -27.9100   19.4060 C   0  0  0  0  0  3  0  0  0  0  0  0
  -23.7210  -29.9970   20.1290 C   0  0  0  0  0  2  0  0  0  0  0  0
  -24.7210  -31.2090   22.1140 N   0  0  0  0  0  0  0  0  0  0  0  0
  -23.5340  -32.1870   23.7860 O   0  0  0  0  0  0  0  0  0  0  0  0
  -22.8320  -29.5380   22.4440 C   0  0  0  0  0  0  0  0  0  0  0  0
  -21.5090  -29.3390   22.3060 N   0  0  0  0  0  0  0  0  0  0  0  0
  -23.5210  -28.8860   23.2330 O   0  0  0  0  0  0  0  0  0  0  0  0
  -21.0100  -29.9190   21.6450 H   0  0  0  0  0  0  0  0  0  0  0  0
  -18.1480  -28.0830   22.7690 C   0  0  0  0  0  0  0  0  0  0  0  0
  -20.7080  -28.3500   23.0280 C   0  0  0  0  0  3  0  0  0  0  0  0
  -20.8150  -26.9560   22.3660 C   0  0  0  0  0  2  0  0  0  0  0  0
  -19.7050  -26.6850   21.3460 C   0  0  0  0  0  2  0  0  0  0  0  0
  -18.3290  -26.7790   22.0110 C   0  0  0  0  0  2  0  0  0  0  0  0
  -19.2650  -28.8290   23.2330 C   0  0  0  0  0  0  0  0  0  0  0  0
  -19.0410  -30.0530   23.9000 C   0  0  0  0  0  3  0  0  0  0  0  0
  -17.7330  -30.5290   24.1100 C   0  0  0  0  0  3  0  0  0  0  0  0
  -16.6310  -29.7800   23.6620 C   0  0  0  0  0  3  0  0  0  0  0  0
  -16.8400  -28.5590   22.9960 C   0  0  0  0  0  3  0  0  0  0  0  0
  -25.8890  -32.6000   23.9120 C   0  0  0  0  0  3  0  0  0  0  0  0
  -25.5670  -34.0010   24.2250 N   0  0  0  0  0  0  0  0  0  0  0  0
  -25.9140  -35.0500   23.4700 C   0  0  0  0  0  0  0  0  0  0  0  0
  -26.6070  -34.9440   22.4550 O   0  0  0  0  0  0  0  0  0  0  0  0
  -24.9520  -34.1550   25.0110 H   0  0  0  0  0  0  0  0  0  0  0  0
  -24.1940  -36.8400   23.0650 C   0  0  0  0  0  1  0  0  0  0  0  0
  -25.4120  -36.4390   23.9110 C   0  0  0  0  0  3  0  0  0  0  0  0
  -27.5190  -37.3310   24.8030 C   0  0  0  0  0  1  0  0  0  0  0  0
  -26.4460  -37.4930   23.8240 N   0  0  0  0  0  0  0  0  0  0  0  0
  -26.0320  -38.4120   23.9550 H   0  0  0  0  0  0  0  0  0  0  0  0
  -26.3610  -31.8360   25.2080 C   0  0  1  0  0  0  0  0  0  0  0  0
  -25.2230  -31.5650   26.2180 C   0  0  0  0  0  1  0  0  0  0  0  0
  -27.0010  -30.4780   24.8380 C   0  0  0  0  0  1  0  0  0  0  0  0
  -27.4530  -32.6570   25.9310 C   0  0  0  0  0  1  0  0  0  0  0  0
  -29.4460  -16.2850   20.4430 C   0  0  0  0  0  3  0  0  0  0  0  0
  -30.2210  -15.0240   19.7460 C   0  0  0  0  0  0  0  0  0  0  0  0
  -30.1210  -12.6920   18.7690 C   0  0  0  0  0  2  0  0  0  0  0  0
  -29.0570  -12.6070   17.6470 C   0  0  0  0  0  2  0  0  0  0  0  0
  -27.6570  -12.3220   18.2270 C   0  0  0  0  0  2  0  0  0  0  0  0
  -27.3270  -13.2460   19.4220 C   0  0  0  0  0  3  0  0  0  0  0  0
  -28.4930  -13.2730   20.4430 C   0  0  0  0  0  2  0  0  0  0  0  0
  -29.6970  -13.7390   19.7340 N   0  0  0  0  0  0  0  0  0  0  0  0
  -31.2890  -15.2090   19.1500 O   0  0  0  0  0  0  0  0  0  0  0  0
  -25.0570  -13.7760   20.4950 C   0  0  0  0  0  0  0  0  0  0  0  0
  -24.0490  -12.9700   20.9510 C   0  0  0  0  0  0  0  0  0  0  0  0
  -24.5030  -11.6290   20.7570 C   0  0  0  0  0  0  0  0  0  0  0  0
  -26.0540  -12.9220   20.0520 N   0  0  0  0  0  0  0  0  0  0  0  0
  -25.7390  -11.6240   20.2760 N   0  0  0  0  0  0  0  0  0  0  0  0
  -23.8120  -10.3500   20.9410 C   0  0  0  0  0  0  0  0  0  0  0  0
  -24.2680   -9.3950   21.8760 C   0  0  0  0  0  3  0  0  0  0  0  0
  -23.5770   -8.1770   22.0470 C   0  0  0  0  0  3  0  0  0  0  0  0
  -22.4170   -7.9050   21.2840 C   0  0  0  0  0  0  0  0  0  0  0  0
  -21.9810   -8.8490   20.3390 C   0  0  0  0  0  3  0  0  0  0  0  0
  -22.6720  -10.0600   20.1650 C   0  0  0  0  0  3  0  0  0  0  0  0
  -21.6960   -6.7390   21.3660 O   0  0  0  0  0  0  0  0  0  0  0  0
  -21.5480   -6.0680   22.5530 C   0  0  0  0  0  0  0  0  0  0  0  0
  -20.9340   -6.6660   23.6760 C   0  0  0  0  0  3  0  0  0  0  0  0
  -20.7410   -5.9170   24.8530 C   0  0  0  0  0  3  0  0  0  0  0  0
  -21.1480   -4.5700   24.9070 C   0  0  0  0  0  0  0  0  0  0  0  0
  -21.7550   -3.9730   23.7890 C   0  0  0  0  0  3  0  0  0  0  0  0
  -21.9510   -4.7190   22.6140 C   0  0  0  0  0  0  0  0  0  0  0  0
  -22.5160   -4.1320   21.5310 F   0  0  0  0  0  0  0  0  0  0  0  0
  -20.9550   -3.8470   26.0360 F   0  0  0  0  0  0  0  0  0  0  0  0
  -22.6980  -13.4130   21.4300 C   0  0  0  0  0  0  0  0  0  0  0  0
  -22.0810  -12.6440   22.3210 N   0  0  0  0  0  0  0  0  0  0  0  0
  -22.2020  -14.4720   21.0480 O   0  0  0  0  0  0  0  0  0  0  0  0
  -22.5000  -11.7860   22.6480 H   0  0  0  0  0  0  0  0  0  0  0  0
  -21.1790  -12.9170   22.6820 H   0  0  0  0  0  0  0  0  0  0  0  0
  -25.2090  -15.1560   20.3890 N   0  0  0  0  0  0  0  0  0  0  0  0
  -24.3750  -15.6380   20.7130 H   0  0  0  0  0  0  0  0  0  0  0  0
  -25.3660  -15.4320   19.4260 H   0  0  0  0  0  0  0  0  0  0  0  0
  -28.0690  -16.4730   19.9670 N   0  0  0  0  0  4  0  0  0  0  0  0
  -28.0790  -16.7760   19.0100 H   0  0  0  0  0  0  0  0  0  0  0  0
  -27.6150  -17.1740   20.5250 H   0  0  0  0  0  0  0  0  0  0  0  0
  -27.5320  -15.6280   20.0460 H   0  0  0  0  0  0  0  0  0  0  0  0
  2  1  2  0
  3  6  2  0
  3  5  1  0
  4  1  1  0
  4  7  1  0
  5  4  2  0
  6  2  1  0
  9  8  2  0
  9  6  1  0
 10  8  1  0
 10 12  1  0
 11 10  2  0
 13 15  1  0
 13 12  1  0
 14 25  2  0
 15 20  1  0
 16 24  1  0
 16 26  1  0
 17 23  1  0
 17 19  1  0
 18 24  1  0
 19 18  1  0
 20 19  2  0
 21 22  1  0
 21 15  2  0
 22 17  2  0
 23 16  1  0
 24 14  1  0
 26 28  2  0
 27 26  1  0
 29 27  1  0
 30 39  2  0
 30 35  1  0
 31 27  1  0
 31 35  1  0
 32 31  1  0
 33 34  1  0
 33 32  1  0
 34 30  1  0
 35 36  2  0
 36 37  1  0
 38 37  2  0
 39 38  1  0
 40 14  1  0
 40 41  1  0
 40 50  1  0
 41 44  1  0
 42 46  1  0
 42 41  1  0
 43 42  2  0
 46 45  1  0
 48 46  1  0
 48 49  1  0
 48 47  1  0
 50 53  1  1
 50 51  1  0
 52 50  1  0
 54 55  1  0
 54  5  1  0
 56 61  1  0
 57 58  1  0
 57 56  1  0
 59 58  1  0
 59 66  1  0
 59 60  1  0
 61 55  1  0
 61 60  1  0
 62 55  2  0
 63 64  2  0
 64 83  1  0
 65 68  1  0
 65 64  1  0
 66 67  1  0
 66 63  1  0
 67 65  2  0
 68 69  1  0
 69 70  2  0
 71 74  1  0
 71 70  1  0
 72 71  2  0
 73 72  1  0
 73 68  2  0
 74 75  1  0
 75 80  2  0
 75 76  1  0
 76 77  2  0
 77 78  1  0
 78 82  1  0
 79 78  2  0
 80 79  1  0
 81 80  1  0
 83 84  1  0
 84 86  1  0
 84 87  1  0
 85 83  2  0
 88 63  1  0
 88 89  1  0
 90 88  1  0
 91 94  1  0
 91 54  1  0
 91 93  1  0
 92 91  1  0
M  ISO  4  12 101  13 101  54 100  55 100
M  END
>  <TORSDO>  (92) 
F 21

>  <SCORE>  (92) 
-12.138

>  <name>  (92) 
92

>  <ligand_id>  (92) 
92

>  <original_smiles>  (92) 
[H]C(=Nc1c([H])c([H])c(C([H])([H])[H])c(C([H])(C(=O)N2C([H])([H])C([H])([H])C([H])([H])C([H])(n3nc(-c4c([H])c([H])c(Oc5c([H])c([H])c(F)c([H])c5F)c([H])c4[H])c(C(=O)N([H])[H])c3N([H])[H])C2([H])[H])[N+]([H])([H])[H])c1[H])C(=O)C([H])([H])Oc1c([H])c([H])c2c(c1[H])C([H])([H])N(C(=O)C([H])(N([H])C(=O)C([H])(N([H])C([H])([H])[H])C([H])([H])[H])C(C([H])([H])[H])(C([H])([H])[H])C([H])([H])[H])C([H])(C(=O)N([H])C1([H])c3c([H])c([H])c([H])c([H])c3C([H])([H])C([H])([H])C1([H])[H])C2([H])[H]

>  <smiles>  (92) 
[H]C(=Nc1c([H])c([H])c(C([H])([H])[H])c(C([H])(C(=O)N2C([H])([H])C([H])([H])C([H])([H])C([H])(n3nc(-c4c([H])c([H])c(Oc5c([H])c([H])c(F)c([H])c5F)c([H])c4[H])c(C(=O)N([H])[H])c3N([H])[H])C2([H])[H])[N+]([H])([H])[H])c1[H])C(=O)C([H])([H])Oc1c([H])c([H])c2c(c1[H])C([H])([H])N(C(=O)C([H])(N([H])C(=O)C([H])(N([H])C([H])([H])[H])C([H])([H])[H])C(C([H])([H])[H])(C([H])([H])[H])C([H])([H])[H])C([H])(C(=O)N([H])C1([H])c3c([H])c([H])c([H])c([H])c3C([H])([H])C([H])([H])C1([H])[H])C2([H])[H]

$$$$
93:0:0
     RDKit          3D

 95103  0  0  1  0  0  0  0  0999 V2000
  -27.6200  -20.4560   18.9190 N   0  0  0  0  0  0  0  0  0  0  0  0
  -27.4620  -20.1140   17.9800 H   0  0  0  0  0  0  0  0  0  0  0  0
  -29.2760  -18.7180   18.9990 C   0  0  0  0  0  3  0  0  0  0  0  0
  -30.7970  -18.5070   20.8910 C   0  0  0  0  0  3  0  0  0  0  0  0
  -29.1420  -20.2970   20.8540 C   0  0  0  0  0  3  0  0  0  0  0  0
  -30.3360  -18.0460   19.6400 C   0  0  0  0  0  0  0  0  0  0  0  0
  -28.6740  -19.8390   19.6000 C   0  0  0  0  0  0  0  0  0  0  0  0
  -30.2110  -19.6370   21.4870 C   0  0  0  0  0  0  0  0  0  0  0  0
  -30.6810  -20.0830   22.6760 F   0  0  0  0  0  0  0  0  0  0  0  0
  -30.9860  -16.8400   18.9910 C   0  0  0  0  0  2  0  0  0  0  0  0
  -31.3500  -14.4830   19.5720 C   0  0  0  0  0  0  0  0  0  0  0  0
  -31.0670  -12.0880   19.1320 C   0  0  0  0  0  2  0  0  0  0  0  0
  -30.1340  -11.9510   17.9130 C   0  0  0  0  0  2  0  0  0  0  0  0
  -28.6620  -11.9250   18.3680 C   0  0  0  0  0  2  0  0  0  0  0  0
  -28.3090  -13.0810   19.3420 C   0  0  0  0  0  3  0  0  0  0  0  0
  -29.3680  -13.2080   20.4630 C   0  0  0  0  0  2  0  0  0  0  0  0
  -30.6930  -13.3250   19.8300 N   0  0  0  0  0  0  0  0  0  0  0  0
  -32.4840  -14.5300   19.0890 O   0  0  0  0  0  0  0  0  0  0  0  0
  -30.6070  -15.5910   19.6530 N   0  0  0  0  0  0  0  0  0  0  0  0
  -29.6670  -15.5040   20.0090 H   0  0  0  0  0  0  0  0  0  0  0  0
  -26.0240  -13.9100   20.1790 C   0  0  0  0  0  0  0  0  0  0  0  0
  -24.9060  -13.2440   20.6050 C   0  0  0  0  0  0  0  0  0  0  0  0
  -25.2320  -11.8550   20.5490 C   0  0  0  0  0  0  0  0  0  0  0  0
  -26.9630  -12.9340   19.8900 N   0  0  0  0  0  0  0  0  0  0  0  0
  -26.4940  -11.6930   20.1700 N   0  0  0  0  0  0  0  0  0  0  0  0
  -24.4020  -10.6640   20.7790 C   0  0  0  0  0  0  0  0  0  0  0  0
  -24.7540   -9.6950   21.7440 C   0  0  0  0  0  3  0  0  0  0  0  0
  -23.9310   -8.5690   21.9610 C   0  0  0  0  0  3  0  0  0  0  0  0
  -22.7420   -8.4060   21.2120 C   0  0  0  0  0  0  0  0  0  0  0  0
  -22.4050   -9.3650   20.2400 C   0  0  0  0  0  3  0  0  0  0  0  0
  -23.2280  -10.4820   20.0210 C   0  0  0  0  0  3  0  0  0  0  0  0
  -21.8960   -7.3300   21.3360 O   0  0  0  0  0  0  0  0  0  0  0  0
  -21.7460   -6.6630   22.5260 C   0  0  0  0  0  0  0  0  0  0  0  0
  -21.3150   -7.3210   23.6990 C   0  0  0  0  0  3  0  0  0  0  0  0
  -21.1110   -6.5850   24.8820 C   0  0  0  0  0  3  0  0  0  0  0  0
  -21.3200   -5.1930   24.8930 C   0  0  0  0  0  0  0  0  0  0  0  0
  -21.7470   -4.5370   23.7240 C   0  0  0  0  0  3  0  0  0  0  0  0
  -21.9540   -5.2690   22.5430 C   0  0  0  0  0  0  0  0  0  0  0  0
  -22.3430   -4.6290   21.4150 F   0  0  0  0  0  0  0  0  0  0  0  0
  -21.1180   -4.4860   26.0280 F   0  0  0  0  0  0  0  0  0  0  0  0
  -23.5760  -13.8510   20.9510 C   0  0  0  0  0  0  0  0  0  0  0  0
  -22.8480  -13.2390   21.8780 N   0  0  0  0  0  0  0  0  0  0  0  0
  -23.1970  -14.9030   20.4370 O   0  0  0  0  0  0  0  0  0  0  0  0
  -23.1670  -12.3830   22.3070 H   0  0  0  0  0  0  0  0  0  0  0  0
  -21.9600  -13.6300   22.1590 H   0  0  0  0  0  0  0  0  0  0  0  0
  -26.3150  -15.2590   19.9920 N   0  0  0  0  0  0  0  0  0  0  0  0
  -25.6340  -15.9920   20.1480 H   0  0  0  0  0  0  0  0  0  0  0  0
  -27.1900  -15.6050   19.6230 H   0  0  0  0  0  0  0  0  0  0  0  0
  -26.4690  -22.4360   17.8260 O   0  0  0  0  0  0  0  0  0  0  0  0
  -25.9870  -21.8840   20.2690 O   0  0  0  0  0  0  0  0  0  0  0  0
  -26.9400  -22.0120   19.1590 S   0  0  1  0  0  0  0  0  0  0  0  0
  -28.3450  -23.0730   19.6690 C   0  0  0  0  0  2  0  0  0  0  0  0
  -27.8800  -24.5250   19.5490 C   0  0  0  0  0  2  0  0  0  0  0  0
  -28.7290  -25.6250   20.2020 C   0  0  0  0  0  2  0  0  0  0  0  0
  -28.6250  -26.8820   19.5160 O   0  0  0  0  0  0  0  0  0  0  0  0
  -24.8260  -31.6280   23.1960 C   0  0  0  0  0  0  0  0  0  0  0  0
  -27.4370  -27.5630   19.6370 C   0  0  0  0  0  0  0  0  0  0  0  0
  -23.5940  -30.3840   21.4460 C   0  0  0  0  0  3  0  0  0  0  0  0
  -25.0260  -29.0170   19.8520 C   0  0  0  0  0  0  0  0  0  0  0  0
  -26.1120  -30.7930   21.2340 C   0  0  0  0  0  2  0  0  0  0  0  0
  -26.1920  -29.4900   20.4760 C   0  0  0  0  0  0  0  0  0  0  0  0
  -27.3950  -28.7610   20.3820 C   0  0  0  0  0  3  0  0  0  0  0  0
  -26.2640  -27.1300   18.9790 C   0  0  0  0  0  3  0  0  0  0  0  0
  -25.0530  -27.8270   19.1100 C   0  0  0  0  0  3  0  0  0  0  0  0
  -23.7780  -29.8540   20.0020 C   0  0  0  0  0  2  0  0  0  0  0  0
  -24.8620  -30.9460   22.0160 N   0  0  0  0  0  0  0  0  0  0  0  0
  -23.7530  -31.8310   23.7840 O   0  0  0  0  0  0  0  0  0  0  0  0
  -22.9830  -29.2600   22.3140 C   0  0  0  0  0  0  0  0  0  0  0  0
  -21.6620  -29.0540   22.1740 N   0  0  0  0  0  0  0  0  0  0  0  0
  -23.6920  -28.5770   23.0580 O   0  0  0  0  0  0  0  0  0  0  0  0
  -21.1480  -29.6660   21.5540 H   0  0  0  0  0  0  0  0  0  0  0  0
  -18.3350  -27.6910   22.5200 C   0  0  0  0  0  0  0  0  0  0  0  0
  -20.8740  -28.0280   22.8580 C   0  0  0  0  0  3  0  0  0  0  0  0
  -21.0470  -26.6480   22.1770 C   0  0  0  0  0  2  0  0  0  0  0  0
  -19.9710  -26.3560   21.1260 C   0  0  0  0  0  2  0  0  0  0  0  0
  -18.5750  -26.3990   21.7560 C   0  0  0  0  0  2  0  0  0  0  0  0
  -19.4170  -28.4640   23.0250 C   0  0  0  0  0  0  0  0  0  0  0  0
  -19.1390  -29.6750   23.6930 C   0  0  0  0  0  3  0  0  0  0  0  0
  -17.8140  -30.1110   23.8750 C   0  0  0  0  0  3  0  0  0  0  0  0
  -16.7460  -29.3360   23.3850 C   0  0  0  0  0  3  0  0  0  0  0  0
  -17.0070  -28.1310   22.7120 C   0  0  0  0  0  3  0  0  0  0  0  0
  -26.1190  -32.2050   23.8460 C   0  0  0  0  0  3  0  0  0  0  0  0
  -25.7970  -33.5490   24.3360 N   0  0  0  0  0  0  0  0  0  0  0  0
  -26.1200  -34.6880   23.7070 C   0  0  0  0  0  0  0  0  0  0  0  0
  -26.7920  -34.7130   22.6710 O   0  0  0  0  0  0  0  0  0  0  0  0
  -25.1930  -33.5980   25.1420 H   0  0  0  0  0  0  0  0  0  0  0  0
  -24.3720  -36.4890   23.5650 C   0  0  0  0  0  1  0  0  0  0  0  0
  -25.6180  -36.0060   24.3220 C   0  0  0  0  0  3  0  0  0  0  0  0
  -27.7430  -36.8110   25.2520 C   0  0  0  0  0  1  0  0  0  0  0  0
  -26.6370  -37.0760   24.3350 N   0  0  0  0  0  0  0  0  0  0  0  0
  -26.2200  -37.9650   24.5870 H   0  0  0  0  0  0  0  0  0  0  0  0
  -26.6900  -31.3020   25.0090 C   0  0  1  0  0  0  0  0  0  0  0  0
  -25.6360  -30.9400   26.0830 C   0  0  0  0  0  1  0  0  0  0  0  0
  -27.2790  -29.9890   24.4390 C   0  0  0  0  0  1  0  0  0  0  0  0
  -27.8500  -32.0390   25.7160 C   0  0  0  0  0  1  0  0  0  0  0  0
  1 51  1  0
  1  7  1  0
  2  1  1  0
  3  7  2  0
  3  6  1  0
  4  8  1  0
  5  8  2  0
  6  4  2  0
  7  5  1  0
  8  9  1  0
 10  6  1  0
 10 19  1  0
 11 19  1  0
 11 17  1  0
 12 17  1  0
 13 14  1  0
 13 12  1  0
 15 14  1  0
 15 24  1  0
 15 16  1  0
 17 16  1  0
 18 11  2  0
 19 20  1  0
 21 22  2  0
 22 41  1  0
 23 22  1  0
 23 26  1  0
 24 25  1  0
 24 21  1  0
 25 23  2  0
 26 27  1  0
 27 28  2  0
 29 32  1  0
 29 28  1  0
 30 29  2  0
 31 30  1  0
 31 26  2  0
 32 33  1  0
 33 38  2  0
 33 34  1  0
 34 35  2  0
 35 36  1  0
 36 40  1  0
 37 36  2  0
 38 37  1  0
 39 38  1  0
 41 42  1  0
 42 45  1  0
 42 44  1  0
 43 41  2  0
 46 47  1  0
 46 21  1  0
 48 46  1  0
 49 51  2  0
 51 52  1  1
 51 50  2  0
 53 52  1  0
 53 54  1  0
 55 57  1  0
 55 54  1  0
 56 67  2  0
 57 62  1  0
 58 66  1  0
 58 68  1  0
 59 65  1  0
 59 61  1  0
 60 66  1  0
 61 60  1  0
 62 61  2  0
 63 64  1  0
 63 57  2  0
 64 59  2  0
 65 58  1  0
 66 56  1  0
 68 70  2  0
 69 68  1  0
 71 69  1  0
 72 81  2  0
 72 77  1  0
 73 69  1  0
 73 77  1  0
 74 73  1  0
 75 76  1  0
 75 74  1  0
 76 72  1  0
 77 78  2  0
 78 79  1  0
 80 79  2  0
 81 80  1  0
 82 56  1  0
 82 83  1  0
 82 92  1  0
 83 86  1  0
 84 88  1  0
 84 83  1  0
 85 84  2  0
 88 87  1  0
 88 90  1  0
 90 91  1  0
 90 89  1  0
 92 95  1  1
 92 93  1  0
 94 92  1  0
M  ISO  4  11 100  19 100  54 101  55 101
M  END
>  <TORSDO>  (93) 
F 22

>  <SCORE>  (93) 
-11.443

>  <name>  (93) 
93

>  <ligand_id>  (93) 
93

>  <original_smiles>  (93) 
[H]c1c([H])c([H])c2c(c1[H])C([H])([H])C([H])([H])C([H])([H])C2([H])N([H])C(=O)C1([H])N(C(=O)C([H])(N([H])C(=O)C([H])(N([H])C([H])([H])[H])C([H])([H])[H])C(C([H])([H])[H])(C([H])([H])[H])C([H])([H])[H])C([H])([H])c2c([H])c(OC([H])([H])C([H])([H])C([H])([H])S(=O)(=O)N([H])c3c([H])c(F)c([H])c(C([H])([H])N([H])C(=O)N4C([H])([H])C([H])([H])C([H])([H])C([H])(n5nc(-c6c([H])c([H])c(Oc7c([H])c([H])c(F)c([H])c7F)c([H])c6[H])c(C(=O)N([H])[H])c5N([H])[H])C4([H])[H])c3[H])c([H])c([H])c2C1([H])[H]

>  <smiles>  (93) 
[H]c1c([H])c([H])c2c(c1[H])C([H])([H])C([H])([H])C([H])([H])C2([H])N([H])C(=O)C1([H])N(C(=O)C([H])(N([H])C(=O)C([H])(N([H])C([H])([H])[H])C([H])([H])[H])C(C([H])([H])[H])(C([H])([H])[H])C([H])([H])[H])C([H])([H])c2c([H])c(OC([H])([H])C([H])([H])C([H])([H])S(=O)(=O)N([H])c3c([H])c(F)c([H])c(C([H])([H])N([H])C(=O)N4C([H])([H])C([H])([H])C([H])([H])C([H])(n5nc(-c6c([H])c([H])c(Oc7c([H])c([H])c(F)c([H])c7F)c([H])c6[H])c(C(=O)N([H])[H])c5N([H])[H])C4([H])[H])c3[H])c([H])c([H])c2C1([H])[H]

$$$$
94:0:0
     RDKit          3D

 92101  0  0  1  0  0  0  0  0999 V2000
  -29.7960  -22.7200   22.1200 C   0  0  0  0  0  0  0  0  0  0  0  0
  -30.5580  -24.0350   22.1380 C   0  0  0  0  0  2  0  0  0  0  0  0
  -30.6480  -24.3700   20.6570 C   0  0  0  0  0  2  0  0  0  0  0  0
  -29.3560  -23.7590   20.1090 C   0  0  0  0  0  3  0  0  0  0  0  0
  -29.3070  -22.4110   20.8920 N   0  0  0  0  0  0  0  0  0  0  0  0
  -29.6860  -22.0500   23.1520 O   0  0  0  0  0  0  0  0  0  0  0  0
  -29.0920  -18.4910   21.0720 C   0  0  0  0  0  3  0  0  0  0  0  0
  -28.8860  -19.8980   21.2890 C   0  0  0  0  0  3  0  0  0  0  0  0
  -30.2150  -20.4010   19.4010 C   0  0  0  0  0  3  0  0  0  0  0  0
  -29.8650  -17.9370   20.0070 C   0  0  0  0  0  0  0  0  0  0  0  0
  -30.4140  -18.9730   19.1650 C   0  0  0  0  0  0  0  0  0  0  0  0
  -29.4440  -20.9440   20.4840 C   0  0  0  0  0  0  0  0  0  0  0  0
  -31.2070  -18.5630   17.9390 C   0  0  0  0  0  1  0  0  0  0  0  0
  -29.7240  -16.3400   19.6770 C   0  0  0  0  0  2  0  0  0  0  0  0
  -30.7600  -15.0630   19.6830 C   0  0  0  0  0  0  0  0  0  0  0  0
  -30.6860  -12.6710   18.8900 C   0  0  0  0  0  2  0  0  0  0  0  0
  -29.6840  -12.6070   17.7100 C   0  0  0  0  0  2  0  0  0  0  0  0
  -28.2330  -12.4270   18.2080 C   0  0  0  0  0  2  0  0  0  0  0  0
  -27.8860  -13.3870   19.3750 C   0  0  0  0  0  3  0  0  0  0  0  0
  -28.9980  -13.3950   20.4460 C   0  0  0  0  0  2  0  0  0  0  0  0
  -30.2580  -13.7730   19.7870 N   0  0  0  0  0  0  0  0  0  0  0  0
  -31.9450  -15.2020   19.3500 O   0  0  0  0  0  0  0  0  0  0  0  0
  -25.5700  -14.0210   20.2730 C   0  0  0  0  0  0  0  0  0  0  0  0
  -24.5080  -13.2680   20.6950 C   0  0  0  0  0  0  0  0  0  0  0  0
  -24.9310  -11.9060   20.6030 C   0  0  0  0  0  0  0  0  0  0  0  0
  -26.5710  -13.1200   19.9470 N   0  0  0  0  0  0  0  0  0  0  0  0
  -26.1980  -11.8410   20.2080 N   0  0  0  0  0  0  0  0  0  0  0  0
  -24.1830  -10.6600   20.8110 C   0  0  0  0  0  0  0  0  0  0  0  0
  -24.5980   -9.7000   21.7610 C   0  0  0  0  0  3  0  0  0  0  0  0
  -23.8510   -8.5190   21.9560 C   0  0  0  0  0  3  0  0  0  0  0  0
  -22.6750   -8.2890   21.2030 C   0  0  0  0  0  0  0  0  0  0  0  0
  -22.2790   -9.2370   20.2430 C   0  0  0  0  0  3  0  0  0  0  0  0
  -23.0260  -10.4100   20.0460 C   0  0  0  0  0  3  0  0  0  0  0  0
  -21.9000   -7.1590   21.3070 O   0  0  0  0  0  0  0  0  0  0  0  0
  -21.7590   -6.4890   22.4960 C   0  0  0  0  0  0  0  0  0  0  0  0
  -21.2500   -7.1200   23.6520 C   0  0  0  0  0  3  0  0  0  0  0  0
  -21.0580   -6.3770   24.8330 C   0  0  0  0  0  3  0  0  0  0  0  0
  -21.3640   -5.0030   24.8600 C   0  0  0  0  0  0  0  0  0  0  0  0
  -21.8670   -4.3710   23.7080 C   0  0  0  0  0  3  0  0  0  0  0  0
  -22.0610   -5.1130   22.5290 C   0  0  0  0  0  0  0  0  0  0  0  0
  -22.5270   -4.4950   21.4170 F   0  0  0  0  0  0  0  0  0  0  0  0
  -21.1720   -4.2860   25.9920 F   0  0  0  0  0  0  0  0  0  0  0  0
  -23.1460  -13.7750   21.0670 C   0  0  0  0  0  0  0  0  0  0  0  0
  -22.4590  -13.0850   21.9710 N   0  0  0  0  0  0  0  0  0  0  0  0
  -22.7000  -14.8190   20.5900 O   0  0  0  0  0  0  0  0  0  0  0  0
  -22.8330  -12.2430   22.3810 H   0  0  0  0  0  0  0  0  0  0  0  0
  -21.5460  -13.4070   22.2580 H   0  0  0  0  0  0  0  0  0  0  0  0
  -25.7580  -15.3930   20.1190 N   0  0  0  0  0  0  0  0  0  0  0  0
  -25.0160  -16.0600   20.2990 H   0  0  0  0  0  0  0  0  0  0  0  0
  -26.5950  -15.8260   19.7500 H   0  0  0  0  0  0  0  0  0  0  0  0
  -28.1960  -24.9240   20.3640 C   0  0  0  0  0  2  0  0  0  0  0  0
  -28.3970  -26.4280   20.1300 O   0  0  0  0  0  0  0  0  0  0  0  0
  -24.6050  -31.8820   23.2040 C   0  0  0  0  0  0  0  0  0  0  0  0
  -27.2870  -27.3270   20.1080 C   0  0  0  0  0  0  0  0  0  0  0  0
  -23.4290  -30.4860   21.5460 C   0  0  0  0  0  3  0  0  0  0  0  0
  -24.9070  -28.9700   20.0980 C   0  0  0  0  0  0  0  0  0  0  0  0
  -25.9690  -30.8290   21.3710 C   0  0  0  0  0  2  0  0  0  0  0  0
  -26.0740  -29.4520   20.7050 C   0  0  0  0  0  0  0  0  0  0  0  0
  -27.2660  -28.6470   20.6920 C   0  0  0  0  0  3  0  0  0  0  0  0
  -26.0970  -26.9300   19.4600 C   0  0  0  0  0  3  0  0  0  0  0  0
  -24.9270  -27.7190   19.4620 C   0  0  0  0  0  3  0  0  0  0  0  0
  -23.6570  -29.8310   20.1570 C   0  0  0  0  0  2  0  0  0  0  0  0
  -24.6870  -31.0840   22.0970 N   0  0  0  0  0  0  0  0  0  0  0  0
  -23.5160  -32.1350   23.7410 O   0  0  0  0  0  0  0  0  0  0  0  0
  -22.7790  -29.4480   22.4940 C   0  0  0  0  0  0  0  0  0  0  0  0
  -21.4550  -29.2510   22.3660 N   0  0  0  0  0  0  0  0  0  0  0  0
  -23.4670  -28.8250   23.3060 O   0  0  0  0  0  0  0  0  0  0  0  0
  -20.9570  -29.8090   21.6860 H   0  0  0  0  0  0  0  0  0  0  0  0
  -18.0960  -27.9910   22.8640 C   0  0  0  0  0  0  0  0  0  0  0  0
  -20.6520  -28.2870   23.1240 C   0  0  0  0  0  3  0  0  0  0  0  0
  -20.7720  -26.8670   22.5240 C   0  0  0  0  0  2  0  0  0  0  0  0
  -19.6700  -26.5450   21.5100 C   0  0  0  0  0  2  0  0  0  0  0  0
  -18.2900  -26.6570   22.1620 C   0  0  0  0  0  2  0  0  0  0  0  0
  -19.2060  -28.7640   23.3020 C   0  0  0  0  0  0  0  0  0  0  0  0
  -18.9680  -30.0110   23.9170 C   0  0  0  0  0  3  0  0  0  0  0  0
  -17.6570  -30.4870   24.1010 C   0  0  0  0  0  3  0  0  0  0  0  0
  -16.5630  -29.7110   23.6780 C   0  0  0  0  0  3  0  0  0  0  0  0
  -16.7840  -28.4660   23.0650 C   0  0  0  0  0  3  0  0  0  0  0  0
  -25.8730  -32.5310   23.8370 C   0  0  0  0  0  3  0  0  0  0  0  0
  -26.3890  -31.7610   25.1140 C   0  0  1  0  0  0  0  0  0  0  0  0
  -25.2910  -31.5000   26.1710 C   0  0  0  0  0  1  0  0  0  0  0  0
  -26.9980  -30.3940   24.7230 C   0  0  0  0  0  1  0  0  0  0  0  0
  -27.5190  -32.5700   25.7930 C   0  0  0  0  0  1  0  0  0  0  0  0
  -25.5410  -33.9240   24.1750 N   0  0  0  0  0  0  0  0  0  0  0  0
  -25.8560  -34.9880   23.4240 C   0  0  0  0  0  0  0  0  0  0  0  0
  -26.5260  -34.9000   22.3910 O   0  0  0  0  0  0  0  0  0  0  0  0
  -24.9420  -34.0640   24.9760 H   0  0  0  0  0  0  0  0  0  0  0  0
  -24.0970  -36.7570   23.0870 C   0  0  0  0  0  1  0  0  0  0  0  0
  -25.3500  -36.3670   23.8900 C   0  0  0  0  0  3  0  0  0  0  0  0
  -27.4720  -37.2840   24.7180 C   0  0  0  0  0  1  0  0  0  0  0  0
  -26.3660  -37.4360   23.7780 N   0  0  0  0  0  0  0  0  0  0  0  0
  -25.9450  -38.3490   23.9270 H   0  0  0  0  0  0  0  0  0  0  0  0
  1  2  1  0
  1  6  2  0
  3  2  1  0
  4 51  1  0
  4  3  1  0
  4  5  1  0
  5  1  1  0
  7  8  1  0
  9 12  1  0
 10  7  2  0
 11  9  2  0
 11 10  1  0
 12  5  1  0
 12  8  2  0
 13 11  1  0
 14 15  1  0
 14 10  1  0
 15 21  1  0
 16 21  1  0
 17 18  1  0
 17 16  1  0
 19 18  1  0
 19 26  1  0
 19 20  1  0
 21 20  1  0
 22 15  2  0
 23 24  2  0
 24 43  1  0
 25 24  1  0
 25 28  1  0
 26 27  1  0
 26 23  1  0
 27 25  2  0
 28 29  1  0
 29 30  2  0
 31 34  1  0
 31 30  1  0
 32 31  2  0
 33 32  1  0
 33 28  2  0
 34 35  1  0
 35 40  2  0
 35 36  1  0
 36 37  2  0
 37 38  1  0
 38 42  1  0
 39 38  2  0
 40 39  1  0
 41 40  1  0
 43 44  1  0
 44 47  1  0
 44 46  1  0
 45 43  2  0
 48 23  1  0
 48 49  1  0
 50 48  1  0
 52 51  1  0
 53 64  2  0
 54 52  1  0
 54 59  1  0
 55 63  1  0
 55 65  1  0
 56 62  1  0
 56 58  1  0
 57 63  1  0
 58 57  1  0
 59 58  2  0
 60 61  1  0
 60 54  2  0
 61 56  2  0
 62 55  1  0
 63 53  1  0
 65 67  2  0
 66 65  1  0
 68 66  1  0
 69 78  2  0
 69 74  1  0
 70 66  1  0
 70 74  1  0
 71 70  1  0
 72 73  1  0
 72 71  1  0
 73 69  1  0
 74 75  2  0
 75 76  1  0
 77 76  2  0
 78 77  1  0
 79 53  1  0
 79 84  1  0
 79 80  1  0
 80 83  1  1
 80 81  1  0
 82 80  1  0
 84 87  1  0
 85 89  1  0
 85 84  1  0
 86 85  2  0
 89 88  1  0
 91 89  1  0
 91 92  1  0
 91 90  1  0
M  ISO  4  14 100  15 100  51 101  52 101
M  END
>  <TORSDO>  (94) 
F 19

>  <SCORE>  (94) 
-13.433

>  <name>  (94) 
94

>  <ligand_id>  (94) 
94

>  <original_smiles>  (94) 
[H]c1c([H])c([H])c2c(c1[H])C([H])([H])C([H])([H])C([H])([H])C2([H])N([H])C(=O)C1([H])N(C(=O)C([H])(N([H])C(=O)C([H])(N([H])C([H])([H])[H])C([H])([H])[H])C(C([H])([H])[H])(C([H])([H])[H])C([H])([H])[H])C([H])([H])c2c([H])c(OC([H])([H])C3([H])N(c4c([H])c([H])c(C([H])([H])C(=O)N5C([H])([H])C([H])([H])C([H])([H])C([H])(n6nc(-c7c([H])c([H])c(Oc8c([H])c([H])c(F)c([H])c8F)c([H])c7[H])c(C(=O)N([H])[H])c6N([H])[H])C5([H])[H])c(C([H])([H])[H])c4[H])C(=O)C([H])([H])C3([H])[H])c([H])c([H])c2C1([H])[H]

>  <smiles>  (94) 
[H]c1c([H])c([H])c2c(c1[H])C([H])([H])C([H])([H])C([H])([H])C2([H])N([H])C(=O)C1([H])N(C(=O)C([H])(N([H])C(=O)C([H])(N([H])C([H])([H])[H])C([H])([H])[H])C(C([H])([H])[H])(C([H])([H])[H])C([H])([H])[H])C([H])([H])c2c([H])c(OC([H])([H])C3([H])N(c4c([H])c([H])c(C([H])([H])C(=O)N5C([H])([H])C([H])([H])C([H])([H])C([H])(n6nc(-c7c([H])c([H])c(Oc8c([H])c([H])c(F)c([H])c8F)c([H])c7[H])c(C(=O)N([H])[H])c6N([H])[H])C5([H])[H])c(C([H])([H])[H])c4[H])C(=O)C([H])([H])C3([H])[H])c([H])c([H])c2C1([H])[H]

$$$$
95:0:0
     RDKit          3D

 93102  0  0  1  0  0  0  0  0999 V2000
  -28.9800  -24.4890   18.7010 C   0  0  0  0  0  0  0  0  0  0  0  0
  -28.6070  -25.7810   18.9220 C   0  0  0  0  0  3  0  0  0  0  0  0
  -29.3230  -24.0160   17.3090 C   0  0  0  0  0  2  0  0  0  0  0  0
  -29.1240  -23.2820   19.6420 C   0  0  0  0  0  2  0  0  0  0  0  0
  -29.9750  -22.6430   17.4730 C   0  0  0  0  0  2  0  0  0  0  0  0
  -29.6210  -22.1670   18.8050 N   0  0  0  0  0  0  0  0  0  0  0  0
  -30.9590  -18.6220   18.7060 C   0  0  0  0  0  3  0  0  0  0  0  0
  -30.5080  -19.9030   18.3030 C   0  0  0  0  0  3  0  0  0  0  0  0
  -29.9630  -20.4520   20.5830 C   0  0  0  0  0  3  0  0  0  0  0  0
  -30.9470  -18.2350   20.0630 C   0  0  0  0  0  0  0  0  0  0  0  0
  -30.3990  -19.1600   21.0000 C   0  0  0  0  0  0  0  0  0  0  0  0
  -30.0280  -20.8650   19.2310 C   0  0  0  0  0  0  0  0  0  0  0  0
  -30.2880  -18.8070   22.4740 C   0  0  0  0  0  1  0  0  0  0  0  0
  -31.6680  -16.9260   20.4830 C   0  0  0  0  0  2  0  0  0  0  0  0
  -31.6430  -14.4910   19.7820 C   0  0  0  0  0  0  0  0  0  0  0  0
  -31.1960  -12.2120   18.9210 C   0  0  0  0  0  2  0  0  0  0  0  0
  -30.2150  -12.2920   17.7330 C   0  0  0  0  0  2  0  0  0  0  0  0
  -28.7550  -12.2930   18.2280 C   0  0  0  0  0  2  0  0  0  0  0  0
  -28.5100  -13.3070   19.3770 C   0  0  0  0  0  3  0  0  0  0  0  0
  -29.5960  -13.1790   20.4670 C   0  0  0  0  0  2  0  0  0  0  0  0
  -30.9030  -13.3460   19.8140 N   0  0  0  0  0  0  0  0  0  0  0  0
  -32.7750  -14.5260   19.2940 O   0  0  0  0  0  0  0  0  0  0  0  0
  -31.0270  -15.6190   20.2070 N   0  0  0  0  0  0  0  0  0  0  0  0
  -30.0750  -15.5130   20.5260 H   0  0  0  0  0  0  0  0  0  0  0  0
  -26.2440  -14.1670   20.2320 C   0  0  0  0  0  0  0  0  0  0  0  0
  -25.1150  -13.5140   20.6470 C   0  0  0  0  0  0  0  0  0  0  0  0
  -25.4140  -12.1190   20.5690 C   0  0  0  0  0  0  0  0  0  0  0  0
  -27.1640  -13.1770   19.9290 N   0  0  0  0  0  0  0  0  0  0  0  0
  -26.6730  -11.9380   20.1890 N   0  0  0  0  0  0  0  0  0  0  0  0
  -24.5570  -10.9460   20.7780 C   0  0  0  0  0  0  0  0  0  0  0  0
  -24.8980   -9.9390   21.7080 C   0  0  0  0  0  3  0  0  0  0  0  0
  -24.0490   -8.8290   21.9050 C   0  0  0  0  0  3  0  0  0  0  0  0
  -22.8430   -8.7180   21.1710 C   0  0  0  0  0  0  0  0  0  0  0  0
  -22.5200   -9.7120   20.2300 C   0  0  0  0  0  3  0  0  0  0  0  0
  -23.3700  -10.8140   20.0320 C   0  0  0  0  0  3  0  0  0  0  0  0
  -21.9690   -7.6640   21.2770 O   0  0  0  0  0  0  0  0  0  0  0  0
  -21.8130   -6.9750   22.4540 C   0  0  0  0  0  0  0  0  0  0  0  0
  -21.4210   -7.6180   23.6480 C   0  0  0  0  0  3  0  0  0  0  0  0
  -21.2050   -6.8610   24.8160 C   0  0  0  0  0  3  0  0  0  0  0  0
  -21.3700   -5.4630   24.7930 C   0  0  0  0  0  0  0  0  0  0  0  0
  -21.7540   -4.8200   23.6030 C   0  0  0  0  0  3  0  0  0  0  0  0
  -21.9720   -5.5740   22.4360 C   0  0  0  0  0  0  0  0  0  0  0  0
  -22.3220   -4.9470   21.2870 F   0  0  0  0  0  0  0  0  0  0  0  0
  -21.1540   -4.7350   25.9130 F   0  0  0  0  0  0  0  0  0  0  0  0
  -23.7990  -14.1430   21.0040 C   0  0  0  0  0  0  0  0  0  0  0  0
  -23.0520  -13.5250   21.9120 N   0  0  0  0  0  0  0  0  0  0  0  0
  -23.4490  -15.2150   20.5130 O   0  0  0  0  0  0  0  0  0  0  0  0
  -23.3490  -12.6550   22.3280 H   0  0  0  0  0  0  0  0  0  0  0  0
  -22.1710  -13.9300   22.1970 H   0  0  0  0  0  0  0  0  0  0  0  0
  -26.5570  -15.5130   20.0670 N   0  0  0  0  0  0  0  0  0  0  0  0
  -25.8780  -16.2500   20.2230 H   0  0  0  0  0  0  0  0  0  0  0  0
  -27.4310  -15.8570   19.6910 H   0  0  0  0  0  0  0  0  0  0  0  0
  -28.2600  -26.4020   20.1060 O   0  0  0  0  0  0  0  0  0  0  0  0
  -24.6810  -31.7010   23.3460 C   0  0  0  0  0  0  0  0  0  0  0  0
  -27.1600  -27.2470   20.0980 C   0  0  0  0  0  0  0  0  0  0  0  0
  -23.4270  -30.3980   21.6630 C   0  0  0  0  0  3  0  0  0  0  0  0
  -24.8250  -28.8630   20.1750 C   0  0  0  0  0  0  0  0  0  0  0  0
  -25.9670  -30.6650   21.4740 C   0  0  0  0  0  2  0  0  0  0  0  0
  -26.0060  -29.3140   20.7810 C   0  0  0  0  0  0  0  0  0  0  0  0
  -27.1760  -28.5110   20.7440 C   0  0  0  0  0  3  0  0  0  0  0  0
  -25.9560  -26.8210   19.4930 C   0  0  0  0  0  3  0  0  0  0  0  0
  -24.7970  -27.6180   19.5270 C   0  0  0  0  0  3  0  0  0  0  0  0
  -23.6110  -29.7630   20.2590 C   0  0  0  0  0  2  0  0  0  0  0  0
  -24.7110  -30.9350   22.2190 N   0  0  0  0  0  0  0  0  0  0  0  0
  -23.6100  -31.9920   23.8970 O   0  0  0  0  0  0  0  0  0  0  0  0
  -22.7420  -29.3670   22.5900 C   0  0  0  0  0  0  0  0  0  0  0  0
  -21.4220  -29.1850   22.4170 N   0  0  0  0  0  0  0  0  0  0  0  0
  -23.3980  -28.7350   23.4230 O   0  0  0  0  0  0  0  0  0  0  0  0
  -20.9540  -29.7490   21.7220 H   0  0  0  0  0  0  0  0  0  0  0  0
  -18.0540  -27.9040   22.7210 C   0  0  0  0  0  0  0  0  0  0  0  0
  -20.5820  -28.2370   23.1500 C   0  0  0  0  0  3  0  0  0  0  0  0
  -20.7580  -26.7990   22.6090 C   0  0  0  0  0  2  0  0  0  0  0  0
  -19.7340  -26.4290   21.5310 C   0  0  0  0  0  2  0  0  0  0  0  0
  -18.3090  -26.5480   22.0830 C   0  0  0  0  0  2  0  0  0  0  0  0
  -19.1240  -28.7030   23.2070 C   0  0  0  0  0  0  0  0  0  0  0  0
  -18.8350  -29.9700   23.7600 C   0  0  0  0  0  3  0  0  0  0  0  0
  -17.5110  -30.4400   23.8310 C   0  0  0  0  0  3  0  0  0  0  0  0
  -16.4560  -29.6390   23.3630 C   0  0  0  0  0  3  0  0  0  0  0  0
  -16.7270  -28.3720   22.8160 C   0  0  0  0  0  3  0  0  0  0  0  0
  -25.9870  -32.2710   23.9820 C   0  0  0  0  0  3  0  0  0  0  0  0
  -25.7450  -33.6840   24.3030 N   0  0  0  0  0  0  0  0  0  0  0  0
  -26.1290  -34.7140   23.5380 C   0  0  0  0  0  0  0  0  0  0  0  0
  -26.7950  -34.5730   22.5080 O   0  0  0  0  0  0  0  0  0  0  0  0
  -25.1570  -33.8730   25.1020 H   0  0  0  0  0  0  0  0  0  0  0  0
  -24.4840  -36.5830   23.1720 C   0  0  0  0  0  1  0  0  0  0  0  0
  -25.7050  -36.1260   23.9850 C   0  0  0  0  0  3  0  0  0  0  0  0
  -27.8790  -36.9170   24.8090 C   0  0  0  0  0  1  0  0  0  0  0  0
  -26.7840  -37.1310   23.8670 N   0  0  0  0  0  0  0  0  0  0  0  0
  -26.4190  -38.0680   24.0120 H   0  0  0  0  0  0  0  0  0  0  0  0
  -26.4510  -31.4790   25.2650 C   0  0  1  0  0  0  0  0  0  0  0  0
  -25.3350  -31.2950   26.3210 C   0  0  0  0  0  1  0  0  0  0  0  0
  -26.9740  -30.0740   24.8840 C   0  0  0  0  0  1  0  0  0  0  0  0
  -27.6280  -32.2210   25.9410 C   0  0  0  0  0  1  0  0  0  0  0  0
  1  2  2  0
  1  4  1  0
  2 53  1  0
  3  5  1  0
  3  1  1  0
  5  6  1  0
  6 12  1  0
  6  4  1  0
  7 10  1  0
  8  7  2  0
  8 12  1  0
  9 11  1  0
 10 14  1  0
 10 11  2  0
 11 13  1  0
 12  9  2  0
 15 21  1  0
 15 23  1  0
 16 21  1  0
 17 18  1  0
 17 16  1  0
 19 18  1  0
 19 28  1  0
 19 20  1  0
 21 20  1  0
 22 15  2  0
 23 14  1  0
 23 24  1  0
 25 26  2  0
 26 45  1  0
 27 26  1  0
 27 30  1  0
 28 29  1  0
 28 25  1  0
 29 27  2  0
 30 31  1  0
 31 32  2  0
 33 36  1  0
 33 32  1  0
 34 33  2  0
 35 34  1  0
 35 30  2  0
 36 37  1  0
 37 38  1  0
 38 39  2  0
 40 39  1  0
 40 44  1  0
 41 40  2  0
 42 37  2  0
 42 41  1  0
 43 42  1  0
 45 46  1  0
 46 49  1  0
 46 48  1  0
 47 45  2  0
 50 51  1  0
 50 25  1  0
 52 50  1  0
 54 65  2  0
 55 53  1  0
 55 60  1  0
 56 64  1  0
 56 66  1  0
 57 63  1  0
 57 59  1  0
 58 64  1  0
 59 58  1  0
 60 59  2  0
 61 62  1  0
 61 55  2  0
 62 57  2  0
 63 56  1  0
 64 54  1  0
 66 68  2  0
 67 66  1  0
 69 67  1  0
 70 79  2  0
 70 75  1  0
 71 67  1  0
 71 75  1  0
 72 71  1  0
 73 74  1  0
 73 72  1  0
 74 70  1  0
 75 76  2  0
 76 77  1  0
 78 77  2  0
 79 78  1  0
 80 54  1  0
 80 81  1  0
 80 90  1  0
 81 84  1  0
 82 86  1  0
 82 81  1  0
 83 82  2  0
 86 85  1  0
 88 86  1  0
 88 89  1  0
 88 87  1  0
 90 93  1  1
 90 91  1  0
 92 90  1  0
M  ISO  4   2 101  15 100  23 100  53 101
M  END
>  <TORSDO>  (95) 
F 18

>  <SCORE>  (95) 
-12.886

>  <name>  (95) 
95

>  <ligand_id>  (95) 
95

>  <original_smiles>  (95) 
[H]C(Oc1c([H])c([H])c2c(c1[H])C([H])([H])N(C(=O)C([H])(N([H])C(=O)C([H])(N([H])C([H])([H])[H])C([H])([H])[H])C(C([H])([H])[H])(C([H])([H])[H])C([H])([H])[H])C([H])(C(=O)N([H])C1([H])c3c([H])c([H])c([H])c([H])c3C([H])([H])C([H])([H])C1([H])[H])C2([H])[H])=C1C([H])([H])N(c2c([H])c([H])c(C([H])([H])N([H])C(=O)N3C([H])([H])C([H])([H])C([H])([H])C([H])(n4nc(-c5c([H])c([H])c(Oc6c([H])c([H])c(F)c([H])c6F)c([H])c5[H])c(C(=O)N([H])[H])c4N([H])[H])C3([H])[H])c(C([H])([H])[H])c2[H])C([H])([H])C1([H])[H]

>  <smiles>  (95) 
[H]C(Oc1c([H])c([H])c2c(c1[H])C([H])([H])N(C(=O)C([H])(N([H])C(=O)C([H])(N([H])C([H])([H])[H])C([H])([H])[H])C(C([H])([H])[H])(C([H])([H])[H])C([H])([H])[H])C([H])(C(=O)N([H])C1([H])c3c([H])c([H])c([H])c([H])c3C([H])([H])C([H])([H])C1([H])[H])C2([H])[H])=C1C([H])([H])N(c2c([H])c([H])c(C([H])([H])N([H])C(=O)N3C([H])([H])C([H])([H])C([H])([H])C([H])(n4nc(-c5c([H])c([H])c(Oc6c([H])c([H])c(F)c([H])c6F)c([H])c5[H])c(C(=O)N([H])[H])c4N([H])[H])C3([H])[H])c(C([H])([H])[H])c2[H])C([H])([H])C1([H])[H]

$$$$
96:0:0
     RDKit          3D

 95103  0  0  1  0  0  0  0  0999 V2000
  -30.7420  -22.2480   20.5610 C   0  0  0  0  0  0  0  0  0  0  0  0
  -29.6770  -21.0550   22.4480 C   0  0  0  0  0  1  0  0  0  0  0  0
  -30.6630  -21.1420   21.3610 N   0  0  0  0  0  0  0  0  0  0  0  0
  -31.6220  -22.3800   19.7020 O   0  0  0  0  0  0  0  0  0  0  0  0
  -31.6670  -20.0580   21.2130 C   0  0  0  0  0  2  0  0  0  0  0  0
  -31.8160  -18.6920   23.3710 C   0  0  0  0  0  3  0  0  0  0  0  0
  -31.1000  -16.3670   23.4740 C   0  0  0  0  0  3  0  0  0  0  0  0
  -30.9540  -17.6000   21.3730 C   0  0  0  0  0  3  0  0  0  0  0  0
  -31.6340  -17.4990   24.1180 C   0  0  0  0  0  0  0  0  0  0  0  0
  -31.4630  -18.7610   22.0030 C   0  0  0  0  0  0  0  0  0  0  0  0
  -30.7740  -16.4010   22.1060 C   0  0  0  0  0  0  0  0  0  0  0  0
  -30.7400  -14.4020   20.6610 C   0  0  0  0  0  0  0  0  0  0  0  0
  -30.4220  -12.2950   19.4040 C   0  0  0  0  0  2  0  0  0  0  0  0
  -29.4920  -12.5210   18.1970 C   0  0  0  0  0  2  0  0  0  0  0  0
  -28.0130  -12.3800   18.6110 C   0  0  0  0  0  2  0  0  0  0  0  0
  -27.6660  -13.2030   19.8790 C   0  0  0  0  0  3  0  0  0  0  0  0
  -28.7040  -12.9480   20.9930 C   0  0  0  0  0  2  0  0  0  0  0  0
  -30.0460  -13.2540   20.4530 N   0  0  0  0  0  0  0  0  0  0  0  0
  -31.7990  -14.6680   20.0730 O   0  0  0  0  0  0  0  0  0  0  0  0
  -30.1780  -15.2500   21.5300 N   0  0  0  0  0  0  0  0  0  0  0  0
  -29.3420  -14.8990   21.9770 H   0  0  0  0  0  0  0  0  0  0  0  0
  -25.2600  -13.8160   20.5670 C   0  0  0  0  0  0  0  0  0  0  0  0
  -24.1870  -13.0430   20.9160 C   0  0  0  0  0  0  0  0  0  0  0  0
  -24.6390  -11.6900   20.8690 C   0  0  0  0  0  0  0  0  0  0  0  0
  -26.3040  -12.9320   20.3360 N   0  0  0  0  0  0  0  0  0  0  0  0
  -25.9330  -11.6490   20.5760 N   0  0  0  0  0  0  0  0  0  0  0  0
  -23.9070  -10.4290   21.0390 C   0  0  0  0  0  0  0  0  0  0  0  0
  -24.3610   -9.4210   21.9170 C   0  0  0  0  0  3  0  0  0  0  0  0
  -23.6300   -8.2230   22.0750 C   0  0  0  0  0  3  0  0  0  0  0  0
  -22.4270   -8.0280   21.3550 C   0  0  0  0  0  0  0  0  0  0  0  0
  -21.9910   -9.0240   20.4640 C   0  0  0  0  0  3  0  0  0  0  0  0
  -22.7230  -10.2130   20.3050 C   0  0  0  0  0  3  0  0  0  0  0  0
  -21.6640   -6.8870   21.4250 O   0  0  0  0  0  0  0  0  0  0  0  0
  -21.6850   -6.0720   22.5280 C   0  0  0  0  0  0  0  0  0  0  0  0
  -21.4010   -6.5640   23.8200 C   0  0  0  0  0  3  0  0  0  0  0  0
  -21.3660   -5.6780   24.9170 C   0  0  0  0  0  3  0  0  0  0  0  0
  -21.6050   -4.3050   24.7220 C   0  0  0  0  0  0  0  0  0  0  0  0
  -21.8820   -3.8140   23.4340 C   0  0  0  0  0  3  0  0  0  0  0  0
  -21.9190   -4.6960   22.3400 C   0  0  0  0  0  0  0  0  0  0  0  0
  -22.1660   -4.2130   21.0980 F   0  0  0  0  0  0  0  0  0  0  0  0
  -21.5630   -3.4540   25.7740 F   0  0  0  0  0  0  0  0  0  0  0  0
  -22.7860  -13.5250   21.1840 C   0  0  0  0  0  0  0  0  0  0  0  0
  -22.0500  -12.8230   22.0390 N   0  0  0  0  0  0  0  0  0  0  0  0
  -22.3570  -14.5520   20.6680 O   0  0  0  0  0  0  0  0  0  0  0  0
  -22.4130  -11.9890   22.4760 H   0  0  0  0  0  0  0  0  0  0  0  0
  -21.1110  -13.1260   22.2600 H   0  0  0  0  0  0  0  0  0  0  0  0
  -25.4350  -15.1870   20.4100 N   0  0  0  0  0  0  0  0  0  0  0  0
  -24.6740  -15.8480   20.5290 H   0  0  0  0  0  0  0  0  0  0  0  0
  -26.2960  -15.6260   20.1100 H   0  0  0  0  0  0  0  0  0  0  0  0
  -32.3970  -18.3730   26.3540 C   0  0  0  0  0  2  0  0  0  0  0  0
  -31.9570  -17.3880   25.5530 C   0  0  0  0  0  3  0  0  0  0  0  0
  -29.6860  -23.3790   20.6950 C   0  0  0  0  0  2  0  0  0  0  0  0
  -29.8430  -24.6220   19.7670 C   0  0  0  0  0  2  0  0  0  0  0  0
  -28.5100  -25.4360   19.6410 C   0  0  0  0  0  2  0  0  0  0  0  0
  -28.5130  -26.7830   20.1390 O   0  0  0  0  0  0  0  0  0  0  0  0
  -24.6100  -31.8690   23.2110 C   0  0  0  0  0  0  0  0  0  0  0  0
  -27.3060  -27.4780   20.1240 C   0  0  0  0  0  0  0  0  0  0  0  0
  -23.4020  -30.4880   21.5500 C   0  0  0  0  0  3  0  0  0  0  0  0
  -24.8680  -28.9590   20.1270 C   0  0  0  0  0  0  0  0  0  0  0  0
  -25.9280  -30.8520   21.3600 C   0  0  0  0  0  2  0  0  0  0  0  0
  -26.0220  -29.4870   20.7190 C   0  0  0  0  0  0  0  0  0  0  0  0
  -27.2320  -28.7590   20.7160 C   0  0  0  0  0  3  0  0  0  0  0  0
  -26.1240  -26.9660   19.5260 C   0  0  0  0  0  3  0  0  0  0  0  0
  -24.9120  -27.6890   19.5240 C   0  0  0  0  0  3  0  0  0  0  0  0
  -23.6180  -29.8090   20.1690 C   0  0  0  0  0  2  0  0  0  0  0  0
  -24.6630  -31.0850   22.0960 N   0  0  0  0  0  0  0  0  0  0  0  0
  -23.5270  -32.1410   23.7500 O   0  0  0  0  0  0  0  0  0  0  0  0
  -22.7400  -29.4650   22.4980 C   0  0  0  0  0  0  0  0  0  0  0  0
  -21.4140  -29.3020   22.3730 N   0  0  0  0  0  0  0  0  0  0  0  0
  -23.4170  -28.8210   23.3030 O   0  0  0  0  0  0  0  0  0  0  0  0
  -20.9310  -29.8730   21.6950 H   0  0  0  0  0  0  0  0  0  0  0  0
  -18.0260  -28.1410   22.8480 C   0  0  0  0  0  0  0  0  0  0  0  0
  -20.5870  -28.3660   23.1310 C   0  0  0  0  0  3  0  0  0  0  0  0
  -20.6770  -26.9410   22.5400 C   0  0  0  0  0  2  0  0  0  0  0  0
  -19.5750  -26.6390   21.5230 C   0  0  0  0  0  2  0  0  0  0  0  0
  -18.1920  -26.7950   22.1630 C   0  0  0  0  0  2  0  0  0  0  0  0
  -19.1520  -28.8850   23.2900 C   0  0  0  0  0  0  0  0  0  0  0  0
  -18.9470  -30.1450   23.8910 C   0  0  0  0  0  3  0  0  0  0  0  0
  -17.6470  -30.6600   24.0580 C   0  0  0  0  0  3  0  0  0  0  0  0
  -16.5350  -29.9110   23.6350 C   0  0  0  0  0  3  0  0  0  0  0  0
  -16.7270  -28.6550   23.0350 C   0  0  0  0  0  3  0  0  0  0  0  0
  -25.9020  -32.4850   23.8380 C   0  0  0  0  0  3  0  0  0  0  0  0
  -25.5870  -33.8620   24.2300 N   0  0  0  0  0  0  0  0  0  0  0  0
  -25.9030  -34.9480   23.5120 C   0  0  0  0  0  0  0  0  0  0  0  0
  -26.5610  -34.8930   22.4690 O   0  0  0  0  0  0  0  0  0  0  0  0
  -25.0030  -33.9780   25.0450 H   0  0  0  0  0  0  0  0  0  0  0  0
  -24.1490  -36.7310   23.2640 C   0  0  0  0  0  1  0  0  0  0  0  0
  -25.4100  -36.3100   24.0340 C   0  0  0  0  0  3  0  0  0  0  0  0
  -27.5570  -37.1790   24.8460 C   0  0  0  0  0  1  0  0  0  0  0  0
  -26.4290  -37.3770   23.9400 N   0  0  0  0  0  0  0  0  0  0  0  0
  -26.0190  -38.2850   24.1440 H   0  0  0  0  0  0  0  0  0  0  0  0
  -26.4450  -31.6600   25.0720 C   0  0  1  0  0  0  0  0  0  0  0  0
  -25.3700  -31.3720   26.1470 C   0  0  0  0  0  1  0  0  0  0  0  0
  -27.0280  -30.3040   24.6070 C   0  0  0  0  0  1  0  0  0  0  0  0
  -27.6050  -32.4310   25.7460 C   0  0  0  0  0  1  0  0  0  0  0  0
  1 52  1  0
  1  3  1  0
  3  2  1  0
  4  1  2  0
  5  3  1  0
  5 10  1  0
  6  9  1  0
  7  9  2  0
  8 10  1  0
  8 11  2  0
  9 51  1  0
 10  6  2  0
 11  7  1  0
 12 20  1  0
 13 18  1  0
 14 15  1  0
 14 13  1  0
 16 15  1  0
 16 25  1  0
 16 17  1  0
 18 12  1  0
 18 17  1  0
 19 12  2  0
 20 21  1  0
 20 11  1  0
 22 23  2  0
 23 42  1  0
 24 23  1  0
 24 27  1  0
 25 22  1  0
 25 26  1  0
 26 24  2  0
 27 28  1  0
 28 29  2  0
 30 33  1  0
 30 29  1  0
 31 30  2  0
 32 31  1  0
 32 27  2  0
 33 34  1  0
 34 35  1  0
 35 36  2  0
 37 36  1  0
 37 41  1  0
 38 37  2  0
 39 34  2  0
 39 38  1  0
 40 39  1  0
 42 43  1  0
 43 46  1  0
 43 45  1  0
 44 42  2  0
 47 48  1  0
 47 22  1  0
 49 47  1  0
 51 50  2  0
 53 52  1  0
 54 53  1  0
 54 55  1  0
 56 67  2  0
 57 55  1  0
 57 62  1  0
 58 66  1  0
 58 68  1  0
 59 65  1  0
 59 61  1  0
 60 66  1  0
 61 60  1  0
 62 61  2  0
 63 57  2  0
 64 63  1  0
 64 59  2  0
 65 58  1  0
 66 56  1  0
 68 70  2  0
 69 68  1  0
 71 69  1  0
 72 81  2  0
 72 77  1  0
 73 69  1  0
 73 77  1  0
 74 73  1  0
 75 76  1  0
 75 74  1  0
 76 72  1  0
 77 78  2  0
 78 79  1  0
 80 79  2  0
 81 80  1  0
 82 56  1  0
 82 83  1  0
 82 92  1  0
 83 86  1  0
 84 88  1  0
 84 83  1  0
 85 84  2  0
 88 87  1  0
 90 88  1  0
 90 91  1  0
 90 89  1  0
 92 95  1  1
 92 93  1  0
 94 92  1  0
M  ISO  4  12 100  20 100  54 101  55 101
M  END
>  <TORSDO>  (96) 
F 22

>  <SCORE>  (96) 
6.834

>  <name>  (96) 
96

>  <ligand_id>  (96) 
96

>  <original_smiles>  (96) 
[H]C([H])=C([H])c1c([H])c(N([H])C(=O)N2C([H])([H])C([H])([H])C([H])([H])C([H])(n3nc(-c4c([H])c([H])c(Oc5c([H])c([H])c(F)c([H])c5F)c([H])c4[H])c(C(=O)N([H])[H])c3N([H])[H])C2([H])[H])c([H])c(C([H])([H])N(C(=O)C([H])([H])C([H])([H])C([H])([H])Oc2c([H])c([H])c3c(c2[H])C([H])([H])N(C(=O)C([H])(N([H])C(=O)C([H])(N([H])C([H])([H])[H])C([H])([H])[H])C(C([H])([H])[H])(C([H])([H])[H])C([H])([H])[H])C([H])(C(=O)N([H])C2([H])c4c([H])c([H])c([H])c([H])c4C([H])([H])C([H])([H])C2([H])[H])C3([H])[H])C([H])([H])[H])c1[H]

>  <smiles>  (96) 
[H]C([H])=C([H])c1c([H])c(N([H])C(=O)N2C([H])([H])C([H])([H])C([H])([H])C([H])(n3nc(-c4c([H])c([H])c(Oc5c([H])c([H])c(F)c([H])c5F)c([H])c4[H])c(C(=O)N([H])[H])c3N([H])[H])C2([H])[H])c([H])c(C([H])([H])N(C(=O)C([H])([H])C([H])([H])C([H])([H])Oc2c([H])c([H])c3c(c2[H])C([H])([H])N(C(=O)C([H])(N([H])C(=O)C([H])(N([H])C([H])([H])[H])C([H])([H])[H])C(C([H])([H])[H])(C([H])([H])[H])C([H])([H])[H])C([H])(C(=O)N([H])C2([H])c4c([H])c([H])c([H])c([H])c4C([H])([H])C([H])([H])C2([H])[H])C3([H])[H])C([H])([H])[H])c1[H]

$$$$
