0:0:0
     RDKit          3D

 97106  0  0  1  0  0  0  0  0999 V2000
  -30.6530  -14.8270   20.3040 C   0  0  0  0  0  0  0  0  0  0  0  0
  -30.4900  -12.5080   19.3790 C   0  0  0  0  0  2  0  0  0  0  0  0
  -29.5630  -12.5560   18.1430 C   0  0  0  0  0  2  0  0  0  0  0  0
  -28.0850  -12.4070   18.5560 C   0  0  0  0  0  2  0  0  0  0  0  0
  -27.7060  -13.3260   19.7480 C   0  0  0  0  0  3  0  0  0  0  0  0
  -28.7510  -13.2430   20.8840 C   0  0  0  0  0  2  0  0  0  0  0  0
  -30.0610  -13.5810   20.3040 N   0  0  0  0  0  0  0  0  0  0  0  0
  -31.8150  -14.9530   19.8980 O   0  0  0  0  0  0  0  0  0  0  0  0
  -29.1380  -18.2170   21.2800 C   0  0  0  0  0  3  0  0  0  0  0  0
  -28.9670  -19.6200   21.0140 C   0  0  0  0  0  0  0  0  0  0  0  0
  -29.5240  -20.1770   19.8230 C   0  0  0  0  0  0  0  0  0  0  0  0
  -29.8640  -17.3590   20.3970 C   0  0  0  0  0  0  0  0  0  0  0  0
  -28.9290  -23.9930   18.8910 C   0  0  0  0  0  0  0  0  0  0  0  0
  -28.6800  -25.3660   18.8010 C   0  0  0  0  0  3  0  0  0  0  0  0
  -29.1720  -23.2440   17.5950 C   0  0  0  0  0  3  0  0  0  0  0  0
  -29.3240  -21.7420   17.8950 C   0  0  0  0  0  3  0  0  0  0  0  0
  -29.0280  -22.8770   20.0080 C   0  0  0  0  0  3  0  0  0  0  0  0
  -30.2270  -19.2990   19.0270 N   0  0  0  0  0  0  0  0  0  0  0  0
  -30.4030  -17.9730   19.2970 N   0  0  0  0  0  0  0  0  0  0  0  0
  -29.3350  -21.5470   19.3400 N   0  0  0  0  0  0  0  0  0  0  0  0
  -29.8670  -15.9020   20.6810 N   0  0  0  0  0  0  0  0  0  0  0  0
  -29.0460  -15.6010   21.1790 H   0  0  0  0  0  0  0  0  0  0  0  0
  -25.3200  -13.9670   20.4440 C   0  0  0  0  0  0  0  0  0  0  0  0
  -24.2390  -13.2160   20.8200 C   0  0  0  0  0  0  0  0  0  0  0  0
  -24.6810  -11.8580   20.8140 C   0  0  0  0  0  0  0  0  0  0  0  0
  -26.3510  -13.0670   20.2290 N   0  0  0  0  0  0  0  0  0  0  0  0
  -25.9730  -11.7950   20.5120 N   0  0  0  0  0  0  0  0  0  0  0  0
  -23.9320  -10.6100   21.0210 C   0  0  0  0  0  0  0  0  0  0  0  0
  -24.3600   -9.6390   21.9530 C   0  0  0  0  0  3  0  0  0  0  0  0
  -23.6140   -8.4560   22.1460 C   0  0  0  0  0  3  0  0  0  0  0  0
  -22.4270   -8.2370   21.4090 C   0  0  0  0  0  0  0  0  0  0  0  0
  -22.0170   -9.1960   20.4670 C   0  0  0  0  0  3  0  0  0  0  0  0
  -22.7640  -10.3710   20.2710 C   0  0  0  0  0  3  0  0  0  0  0  0
  -21.6520   -7.1070   21.5140 O   0  0  0  0  0  0  0  0  0  0  0  0
  -21.6210   -6.3580   22.6630 C   0  0  0  0  0  0  0  0  0  0  0  0
  -21.2560   -6.9160   23.9070 C   0  0  0  0  0  3  0  0  0  0  0  0
  -21.1730   -6.0960   25.0500 C   0  0  0  0  0  3  0  0  0  0  0  0
  -21.4420   -4.7180   24.9480 C   0  0  0  0  0  0  0  0  0  0  0  0
  -21.7990   -4.1580   23.7090 C   0  0  0  0  0  3  0  0  0  0  0  0
  -21.8860   -4.9760   22.5690 C   0  0  0  0  0  0  0  0  0  0  0  0
  -22.2120   -4.4290   21.3730 F   0  0  0  0  0  0  0  0  0  0  0  0
  -21.3530   -3.9270   26.0430 F   0  0  0  0  0  0  0  0  0  0  0  0
  -22.8490  -13.7200   21.0760 C   0  0  0  0  0  0  0  0  0  0  0  0
  -22.1080  -13.0600   21.9600 N   0  0  0  0  0  0  0  0  0  0  0  0
  -22.4280  -14.7360   20.5250 O   0  0  0  0  0  0  0  0  0  0  0  0
  -22.4600  -12.2380   22.4270 H   0  0  0  0  0  0  0  0  0  0  0  0
  -21.1740  -13.3810   22.1700 H   0  0  0  0  0  0  0  0  0  0  0  0
  -25.5060  -15.3310   20.2450 N   0  0  0  0  0  0  0  0  0  0  0  0
  -24.7390  -15.9900   20.3290 H   0  0  0  0  0  0  0  0  0  0  0  0
  -26.3470  -15.7490   19.8690 H   0  0  0  0  0  0  0  0  0  0  0  0
  -30.0900  -23.2700   21.0500 C   0  0  0  0  0  0  0  0  0  0  0  0
  -29.7210  -24.3700   22.0340 C   0  0  0  0  0  1  0  0  0  0  0  0
  -31.2020  -22.7370   21.1250 O   0  0  0  0  0  0  0  0  0  0  0  0
  -28.2000  -20.3980   21.8920 N   0  0  0  0  0  0  0  0  0  0  0  0
  -27.5770  -19.9130   22.5280 H   0  0  0  0  0  0  0  0  0  0  0  0
  -27.7690  -21.2180   21.4820 H   0  0  0  0  0  0  0  0  0  0  0  0
  -28.5010  -26.4340   19.7090 O   0  0  0  0  0  0  0  0  0  0  0  0
  -24.5270  -31.5990   22.8810 C   0  0  0  0  0  0  0  0  0  0  0  0
  -27.3890  -27.3050   19.6180 C   0  0  0  0  0  0  0  0  0  0  0  0
  -23.4100  -30.2320   21.1560 C   0  0  0  0  0  3  0  0  0  0  0  0
  -24.9510  -28.8290   19.6620 C   0  0  0  0  0  0  0  0  0  0  0  0
  -25.9360  -30.6710   21.0240 C   0  0  0  0  0  2  0  0  0  0  0  0
  -26.0910  -29.3320   20.3020 C   0  0  0  0  0  0  0  0  0  0  0  0
  -27.3090  -28.5790   20.2770 C   0  0  0  0  0  3  0  0  0  0  0  0
  -26.2220  -26.8660   18.9550 C   0  0  0  0  0  3  0  0  0  0  0  0
  -25.0220  -27.6050   18.9770 C   0  0  0  0  0  3  0  0  0  0  0  0
  -23.6710  -29.6400   19.7450 C   0  0  0  0  0  2  0  0  0  0  0  0
  -24.6430  -30.8500   21.7450 N   0  0  0  0  0  0  0  0  0  0  0  0
  -23.4250  -31.7950   23.4150 O   0  0  0  0  0  0  0  0  0  0  0  0
  -22.7850  -29.1380   22.0570 C   0  0  0  0  0  0  0  0  0  0  0  0
  -21.4570  -28.9530   21.9570 N   0  0  0  0  0  0  0  0  0  0  0  0
  -23.4950  -28.4610   22.8050 O   0  0  0  0  0  0  0  0  0  0  0  0
  -20.9430  -29.5530   21.3280 H   0  0  0  0  0  0  0  0  0  0  0  0
  -18.1020  -27.7140   22.5110 C   0  0  0  0  0  0  0  0  0  0  0  0
  -20.6720  -27.9500   22.6790 C   0  0  0  0  0  3  0  0  0  0  0  0
  -20.7400  -26.5770   21.9690 C   0  0  0  0  0  2  0  0  0  0  0  0
  -19.5890  -26.3490   20.9850 C   0  0  0  0  0  2  0  0  0  0  0  0
  -18.2400  -26.4340   21.7060 C   0  0  0  0  0  2  0  0  0  0  0  0
  -19.2430  -28.4350   22.9550 C   0  0  0  0  0  0  0  0  0  0  0  0
  -19.0580  -29.6360   23.6710 C   0  0  0  0  0  3  0  0  0  0  0  0
  -17.7640  -30.1190   23.9450 C   0  0  0  0  0  3  0  0  0  0  0  0
  -16.6380  -29.3940   23.5180 C   0  0  0  0  0  3  0  0  0  0  0  0
  -16.8080  -28.1940   22.8080 C   0  0  0  0  0  3  0  0  0  0  0  0
  -25.7700  -32.2610   23.5520 C   0  0  0  0  0  3  0  0  0  0  0  0
  -25.3790  -33.6140   23.9750 N   0  0  0  0  0  0  0  0  0  0  0  0
  -25.6680  -34.7360   23.3010 C   0  0  0  0  0  0  0  0  0  0  0  0
  -26.3580  -34.7430   22.2790 O   0  0  0  0  0  0  0  0  0  0  0  0
  -24.7640  -33.6790   24.7720 H   0  0  0  0  0  0  0  0  0  0  0  0
  -23.8490  -36.4560   23.0490 C   0  0  0  0  0  1  0  0  0  0  0  0
  -25.1020  -36.0600   23.8490 C   0  0  0  0  0  3  0  0  0  0  0  0
  -27.1770  -36.9940   24.7720 C   0  0  0  0  0  1  0  0  0  0  0  0
  -26.0770  -37.1720   23.8280 N   0  0  0  0  0  0  0  0  0  0  0  0
  -25.6200  -38.0560   24.0340 H   0  0  0  0  0  0  0  0  0  0  0  0
  -26.3250  -31.4380   24.7790 C   0  0  1  0  0  0  0  0  0  0  0  0
  -25.2470  -31.0810   25.8290 C   0  0  0  0  0  1  0  0  0  0  0  0
  -26.9720  -30.1160   24.3040 C   0  0  0  0  0  1  0  0  0  0  0  0
  -27.4390  -32.2430   25.4890 C   0  0  0  0  0  1  0  0  0  0  0  0
  1  7  1  0
  1 21  1  0
  2  7  1  0
  3  4  1  0
  3  2  1  0
  5  4  1  0
  5 26  1  0
  5  6  1  0
  7  6  1  0
  8  1  2  0
 10  9  1  0
 10 54  1  0
 11 10  2  0
 12 21  1  0
 12  9  2  0
 13 17  1  0
 14 13  2  0
 14 57  1  0
 15 16  2  0
 15 13  1  0
 16 20  1  0
 17 51  1  0
 18 19  2  0
 18 11  1  0
 19 12  1  0
 20 11  1  0
 20 17  1  0
 21 22  1  0
 23 24  2  0
 24 43  1  0
 25 24  1  0
 25 28  1  0
 26 23  1  0
 26 27  1  0
 27 25  2  0
 28 29  1  0
 29 30  2  0
 31 34  1  0
 31 30  1  0
 32 31  2  0
 33 32  1  0
 33 28  2  0
 34 35  1  0
 35 36  1  0
 36 37  2  0
 38 37  1  0
 38 42  1  0
 39 38  2  0
 40 35  2  0
 40 39  1  0
 41 40  1  0
 43 44  1  0
 44 47  1  0
 44 46  1  0
 45 43  2  0
 48 49  1  0
 48 23  1  0
 50 48  1  0
 51 53  2  0
 51 52  1  0
 54 55  1  0
 56 54  1  0
 58 69  2  0
 59 57  1  0
 59 64  1  0
 60 68  1  0
 60 70  1  0
 61 67  1  0
 61 63  1  0
 62 68  1  0
 63 62  1  0
 64 63  2  0
 65 66  1  0
 65 59  2  0
 66 61  2  0
 67 60  1  0
 68 58  1  0
 70 72  2  0
 71 70  1  0
 73 71  1  0
 74 83  2  0
 74 79  1  0
 75 71  1  0
 75 79  1  0
 76 75  1  0
 77 78  1  0
 77 76  1  0
 78 74  1  0
 79 80  2  0
 80 81  1  0
 82 81  2  0
 83 82  1  0
 84 58  1  0
 84 85  1  0
 84 94  1  0
 85 88  1  0
 86 90  1  0
 86 85  1  0
 87 86  2  0
 90 89  1  0
 92 90  1  0
 92 93  1  0
 92 91  1  0
 94 97  1  1
 94 95  1  0
 96 94  1  0
M  ISO  4   1 100  14 101  21 100  57 101
M  END
>  <TORSDO>  (1) 
F 17

>  <SCORE>  (1) 
-13.399

>  <name>  (1) 
0

>  <ligand_id>  (1) 
0

>  <original_smiles>  (1) 
[H]C(Oc1c([H])c([H])c2c(c1[H])C([H])([H])N(C(=O)C([H])(N([H])C(=O)C([H])(N([H])C([H])([H])[H])C([H])([H])[H])C(C([H])([H])[H])(C([H])([H])[H])C([H])([H])[H])C([H])(C(=O)N([H])C1([H])c3c([H])c([H])c([H])c([H])c3C([H])([H])C([H])([H])C1([H])[H])C2([H])[H])=C1C([H])(C(=O)C([H])([H])[H])N(c2nnc(N([H])C(=O)N3C([H])([H])C([H])([H])C([H])([H])C([H])(n4nc(-c5c([H])c([H])c(Oc6c([H])c([H])c(F)c([H])c6F)c([H])c5[H])c(C(=O)N([H])[H])c4N([H])[H])C3([H])[H])c([H])c2N([H])[H])C([H])([H])C1([H])[H]

>  <smiles>  (1) 
[H]C(Oc1c([H])c([H])c2c(c1[H])C([H])([H])N(C(=O)C([H])(N([H])C(=O)C([H])(N([H])C([H])([H])[H])C([H])([H])[H])C(C([H])([H])[H])(C([H])([H])[H])C([H])([H])[H])C([H])(C(=O)N([H])C1([H])c3c([H])c([H])c([H])c([H])c3C([H])([H])C([H])([H])C1([H])[H])C2([H])[H])=C1C([H])(C(=O)C([H])([H])[H])N(c2nnc(N([H])C(=O)N3C([H])([H])C([H])([H])C([H])([H])C([H])(n4nc(-c5c([H])c([H])c(Oc6c([H])c([H])c(F)c([H])c6F)c([H])c5[H])c(C(=O)N([H])[H])c4N([H])[H])C3([H])[H])c([H])c2N([H])[H])C([H])([H])C1([H])[H]

$$$$
1:0:0
     RDKit          3D

 96104  0  0  1  0  0  0  0  0999 V2000
  -30.7680  -17.2790   19.3940 C   0  0  0  0  0  3  0  0  0  0  0  0
  -30.2230  -18.5400   19.0940 C   0  0  0  0  0  3  0  0  0  0  0  0
  -29.7270  -18.8730   21.4380 C   0  0  0  0  0  3  0  0  0  0  0  0
  -30.8160  -16.7640   20.7170 C   0  0  0  0  0  0  0  0  0  0  0  0
  -29.7150  -19.3630   20.1130 C   0  0  0  0  0  0  0  0  0  0  0  0
  -30.2550  -17.5940   21.7450 C   0  0  0  0  0  0  0  0  0  0  0  0
  -28.9160  -21.7330   20.4220 C   0  0  0  0  0  0  0  0  0  0  0  0
  -29.2010  -20.6300   19.7090 N   0  0  0  0  0  0  0  0  0  0  0  0
  -28.9550  -21.8020   21.6530 O   0  0  0  0  0  0  0  0  0  0  0  0
  -29.1230  -20.7590   18.7110 H   0  0  0  0  0  0  0  0  0  0  0  0
  -28.5250  -22.9560   19.5790 C   0  0  0  0  0  2  0  0  0  0  0  0
  -28.5580  -24.3090   20.3220 C   0  0  0  0  0  2  0  0  0  0  0  0
  -28.7910  -25.4920   19.3590 C   0  0  0  0  0  2  0  0  0  0  0  0
  -28.6390  -26.7540   20.0090 O   0  0  0  0  0  0  0  0  0  0  0  0
  -24.6250  -31.6850   23.1630 C   0  0  0  0  0  0  0  0  0  0  0  0
  -27.4160  -27.3960   20.0040 C   0  0  0  0  0  0  0  0  0  0  0  0
  -23.4720  -30.3040   21.4650 C   0  0  0  0  0  3  0  0  0  0  0  0
  -24.9790  -28.8360   20.0250 C   0  0  0  0  0  0  0  0  0  0  0  0
  -25.9880  -30.7250   21.3130 C   0  0  0  0  0  2  0  0  0  0  0  0
  -26.1130  -29.3720   20.6450 C   0  0  0  0  0  0  0  0  0  0  0  0
  -27.3290  -28.6570   20.6380 C   0  0  0  0  0  3  0  0  0  0  0  0
  -26.2550  -26.8640   19.3940 C   0  0  0  0  0  3  0  0  0  0  0  0
  -25.0430  -27.5790   19.4010 C   0  0  0  0  0  3  0  0  0  0  0  0
  -23.7160  -29.6650   20.0720 C   0  0  0  0  0  2  0  0  0  0  0  0
  -24.7130  -30.9180   22.0400 N   0  0  0  0  0  0  0  0  0  0  0  0
  -23.5320  -31.9200   23.6960 O   0  0  0  0  0  0  0  0  0  0  0  0
  -22.8300  -29.2430   22.3880 C   0  0  0  0  0  0  0  0  0  0  0  0
  -21.5090  -29.0450   22.2400 N   0  0  0  0  0  0  0  0  0  0  0  0
  -23.5150  -28.6020   23.1890 O   0  0  0  0  0  0  0  0  0  0  0  0
  -21.0140  -29.6200   21.5730 H   0  0  0  0  0  0  0  0  0  0  0  0
  -18.1500  -27.7950   22.6740 C   0  0  0  0  0  0  0  0  0  0  0  0
  -20.7010  -28.0690   22.9700 C   0  0  0  0  0  3  0  0  0  0  0  0
  -20.8250  -26.6620   22.3410 C   0  0  0  0  0  2  0  0  0  0  0  0
  -19.7320  -26.3680   21.3090 C   0  0  0  0  0  2  0  0  0  0  0  0
  -18.3450  -26.4730   21.9500 C   0  0  0  0  0  2  0  0  0  0  0  0
  -19.2580  -28.5520   23.1390 C   0  0  0  0  0  0  0  0  0  0  0  0
  -19.0230  -29.7900   23.7740 C   0  0  0  0  0  3  0  0  0  0  0  0
  -17.7120  -30.2740   23.9470 C   0  0  0  0  0  3  0  0  0  0  0  0
  -16.6190  -29.5130   23.4980 C   0  0  0  0  0  3  0  0  0  0  0  0
  -16.8380  -28.2760   22.8670 C   0  0  0  0  0  3  0  0  0  0  0  0
  -25.8900  -32.3220   23.8190 C   0  0  0  0  0  3  0  0  0  0  0  0
  -25.5570  -33.7120   24.1610 N   0  0  0  0  0  0  0  0  0  0  0  0
  -25.8930  -34.7760   23.4210 C   0  0  0  0  0  0  0  0  0  0  0  0
  -26.5870  -34.6930   22.4040 O   0  0  0  0  0  0  0  0  0  0  0  0
  -24.9440  -33.8500   24.9520 H   0  0  0  0  0  0  0  0  0  0  0  0
  -24.1450  -36.5460   23.0490 C   0  0  0  0  0  1  0  0  0  0  0  0
  -25.3750  -36.1520   23.8810 C   0  0  0  0  0  3  0  0  0  0  0  0
  -27.4760  -37.0650   24.7670 C   0  0  0  0  0  1  0  0  0  0  0  0
  -26.3940  -37.2220   23.7990 N   0  0  0  0  0  0  0  0  0  0  0  0
  -25.9710  -38.1350   23.9390 H   0  0  0  0  0  0  0  0  0  0  0  0
  -26.3920  -31.5400   25.0940 C   0  0  1  0  0  0  0  0  0  0  0  0
  -25.2810  -31.2730   26.1360 C   0  0  0  0  0  1  0  0  0  0  0  0
  -27.0010  -30.1750   24.6910 C   0  0  0  0  0  1  0  0  0  0  0  0
  -27.5190  -32.3380   25.7920 C   0  0  0  0  0  1  0  0  0  0  0  0
  -31.4750  -15.4210   20.9920 C   0  0  0  0  0  3  0  0  0  0  0  0
  -31.8390  -15.0620   22.1550 N   0  0  0  0  0  2  0  0  0  0  0  0
  -31.6080  -15.8060   22.8080 H   0  0  0  0  0  0  0  0  0  0  0  0
  -31.7260  -14.5020   19.7980 C   0  0  0  0  0  0  0  0  0  0  0  0
  -31.0430  -12.5350   18.4780 C   0  0  0  0  0  2  0  0  0  0  0  0
  -29.9890  -12.9160   17.4210 C   0  0  0  0  0  2  0  0  0  0  0  0
  -28.5710  -12.8520   18.0160 C   0  0  0  0  0  2  0  0  0  0  0  0
  -28.4600  -13.6040   19.3690 C   0  0  0  0  0  3  0  0  0  0  0  0
  -29.6060  -13.1990   20.3200 C   0  0  0  0  0  2  0  0  0  0  0  0
  -30.8870  -13.4400   19.6300 N   0  0  0  0  0  0  0  0  0  0  0  0
  -32.7000  -14.7090   19.0640 O   0  0  0  0  0  0  0  0  0  0  0  0
  -26.2450  -14.3370   20.4580 C   0  0  0  0  0  0  0  0  0  0  0  0
  -25.1550  -13.6270   20.8820 C   0  0  0  0  0  0  0  0  0  0  0  0
  -25.4610  -12.2530   20.6390 C   0  0  0  0  0  0  0  0  0  0  0  0
  -27.1530  -13.4000   19.9900 N   0  0  0  0  0  0  0  0  0  0  0  0
  -26.6910  -12.1340   20.1520 N   0  0  0  0  0  0  0  0  0  0  0  0
  -24.6360  -11.0480   20.7890 C   0  0  0  0  0  0  0  0  0  0  0  0
  -25.0290   -9.9820   21.6290 C   0  0  0  0  0  3  0  0  0  0  0  0
  -24.2100   -8.8420   21.7710 C   0  0  0  0  0  3  0  0  0  0  0  0
  -22.9810   -8.7590   21.0720 C   0  0  0  0  0  0  0  0  0  0  0  0
  -22.6050   -9.8120   20.2210 C   0  0  0  0  0  3  0  0  0  0  0  0
  -23.4240  -10.9440   20.0780 C   0  0  0  0  0  3  0  0  0  0  0  0
  -22.1340   -7.6780   21.1270 O   0  0  0  0  0  0  0  0  0  0  0  0
  -21.9780   -6.9440   22.2750 C   0  0  0  0  0  0  0  0  0  0  0  0
  -21.5440   -7.5340   23.4830 C   0  0  0  0  0  3  0  0  0  0  0  0
  -21.3280   -6.7310   24.6210 C   0  0  0  0  0  3  0  0  0  0  0  0
  -21.5360   -5.3400   24.5520 C   0  0  0  0  0  0  0  0  0  0  0  0
  -21.9630   -4.7510   23.3490 C   0  0  0  0  0  3  0  0  0  0  0  0
  -22.1800   -5.5510   22.2140 C   0  0  0  0  0  0  0  0  0  0  0  0
  -22.5710   -4.9760   21.0510 F   0  0  0  0  0  0  0  0  0  0  0  0
  -21.3220   -4.5670   25.6430 F   0  0  0  0  0  0  0  0  0  0  0  0
  -23.8610  -14.1920   21.3970 C   0  0  0  0  0  0  0  0  0  0  0  0
  -23.1900  -13.4750   22.2900 N   0  0  0  0  0  0  0  0  0  0  0  0
  -23.4630  -15.3000   21.0420 O   0  0  0  0  0  0  0  0  0  0  0  0
  -23.5300  -12.5770   22.6010 H   0  0  0  0  0  0  0  0  0  0  0  0
  -22.3250  -13.8310   22.6730 H   0  0  0  0  0  0  0  0  0  0  0  0
  -26.5330  -15.6980   20.4140 N   0  0  0  0  0  0  0  0  0  0  0  0
  -25.8650  -16.4020   20.7110 H   0  0  0  0  0  0  0  0  0  0  0  0
  -27.3940  -16.0940   20.0610 H   0  0  0  0  0  0  0  0  0  0  0  0
  -30.1860  -17.2080   23.0900 N   0  0  0  0  0  0  0  0  0  0  0  0
  -29.5710  -17.7410   23.6970 H   0  0  0  0  0  0  0  0  0  0  0  0
  -30.1410  -16.2150   23.2970 H   0  0  0  0  0  0  0  0  0  0  0  0
  1  4  1  0
  2  1  2  0
  2  5  1  0
  3  6  1  0
  4 55  1  0
  4  6  2  0
  5  3  2  0
  6 94  1  0
  7  9  2  0
  8  5  1  0
  8  7  1  0
 10  8  1  0
 11 12  1  0
 11  7  1  0
 13 14  1  0
 13 12  1  0
 15 26  2  0
 16 14  1  0
 16 21  1  0
 17 25  1  0
 17 27  1  0
 18 24  1  0
 18 20  1  0
 19 25  1  0
 20 19  1  0
 21 20  2  0
 22 23  1  0
 22 16  2  0
 23 18  2  0
 24 17  1  0
 25 15  1  0
 27 29  2  0
 28 27  1  0
 30 28  1  0
 31 40  2  0
 31 36  1  0
 32 28  1  0
 32 36  1  0
 33 32  1  0
 34 35  1  0
 34 33  1  0
 35 31  1  0
 36 37  2  0
 37 38  1  0
 39 38  2  0
 40 39  1  0
 41 15  1  0
 41 42  1  0
 41 51  1  0
 42 45  1  0
 43 47  1  0
 43 42  1  0
 44 43  2  0
 47 46  1  0
 49 47  1  0
 49 50  1  0
 49 48  1  0
 51 54  1  1
 51 52  1  0
 53 51  1  0
 55 58  1  0
 55 56  1  0
 56 57  1  0
 59 64  1  0
 60 61  1  0
 60 59  1  0
 62 61  1  0
 62 69  1  0
 62 63  1  0
 64 58  1  0
 64 63  1  0
 65 58  2  0
 66 67  2  0
 67 86  1  0
 68 71  1  0
 68 67  1  0
 69 70  1  0
 69 66  1  0
 70 68  2  0
 71 72  1  0
 72 73  2  0
 74 77  1  0
 74 73  1  0
 75 74  2  0
 76 75  1  0
 76 71  2  0
 77 78  1  0
 78 79  1  0
 79 80  2  0
 81 80  1  0
 81 85  1  0
 82 81  2  0
 83 78  2  0
 83 82  1  0
 84 83  1  0
 86 87  1  0
 87 89  1  0
 87 90  1  0
 88 86  2  0
 91 66  1  0
 91 92  1  0
 93 91  1  0
 94 96  1  0
 94 95  1  0
M  ISO  4  13 101  14 101  55 100  58 100
M  END
>  <TORSDO>  (2) 
F 22

>  <SCORE>  (2) 
-10.716

>  <name>  (2) 
1

>  <ligand_id>  (2) 
1

>  <original_smiles>  (2) 
[H]N=C(C(=O)N1C([H])([H])C([H])([H])C([H])([H])C([H])(n2nc(-c3c([H])c([H])c(Oc4c([H])c([H])c(F)c([H])c4F)c([H])c3[H])c(C(=O)N([H])[H])c2N([H])[H])C1([H])[H])c1c([H])c([H])c(N([H])C(=O)C([H])([H])C([H])([H])C([H])([H])Oc2c([H])c([H])c3c(c2[H])C([H])([H])N(C(=O)C([H])(N([H])C(=O)C([H])(N([H])C([H])([H])[H])C([H])([H])[H])C(C([H])([H])[H])(C([H])([H])[H])C([H])([H])[H])C([H])(C(=O)N([H])C2([H])c4c([H])c([H])c([H])c([H])c4C([H])([H])C([H])([H])C2([H])[H])C3([H])[H])c([H])c1N([H])[H]

>  <smiles>  (2) 
[H]N=C(C(=O)N1C([H])([H])C([H])([H])C([H])([H])C([H])(n2nc(-c3c([H])c([H])c(Oc4c([H])c([H])c(F)c([H])c4F)c([H])c3[H])c(C(=O)N([H])[H])c2N([H])[H])C1([H])[H])c1c([H])c([H])c(N([H])C(=O)C([H])([H])C([H])([H])C([H])([H])Oc2c([H])c([H])c3c(c2[H])C([H])([H])N(C(=O)C([H])(N([H])C(=O)C([H])(N([H])C([H])([H])[H])C([H])([H])[H])C(C([H])([H])[H])(C([H])([H])[H])C([H])([H])[H])C([H])(C(=O)N([H])C2([H])c4c([H])c([H])c([H])c([H])c4C([H])([H])C([H])([H])C2([H])[H])C3([H])[H])c([H])c1N([H])[H]

$$$$
2:0:0
     RDKit          3D

 99108  0  0  1  0  0  0  0  0999 V2000
  -31.2240  -20.1200   20.2180 C   0  0  0  0  0  3  0  0  0  0  0  0
  -31.7000  -17.7250   20.3210 C   0  0  0  0  0  3  0  0  0  0  0  0
  -29.3730  -18.4990   20.3230 C   0  0  0  0  0  0  0  0  0  0  0  0
  -29.8300  -19.9060   20.2600 C   0  0  0  0  0  0  0  0  0  0  0  0
  -32.1420  -19.0580   20.2540 C   0  0  0  0  0  0  0  0  0  0  0  0
  -30.3260  -17.3700   20.3460 C   0  0  0  0  0  0  0  0  0  0  0  0
  -30.6470  -14.7410   20.0880 C   0  0  0  0  0  0  0  0  0  0  0  0
  -30.3130  -12.5160   19.0090 C   0  0  0  0  0  2  0  0  0  0  0  0
  -29.3240  -12.6580   17.8330 C   0  0  0  0  0  2  0  0  0  0  0  0
  -27.8760  -12.4880   18.3300 C   0  0  0  0  0  2  0  0  0  0  0  0
  -27.5740  -13.3310   19.5990 C   0  0  0  0  0  3  0  0  0  0  0  0
  -28.6890  -13.2050   20.6610 C   0  0  0  0  0  2  0  0  0  0  0  0
  -29.9600  -13.5490   20.0130 N   0  0  0  0  0  0  0  0  0  0  0  0
  -31.8130  -14.7690   19.6950 O   0  0  0  0  0  0  0  0  0  0  0  0
  -29.9570  -15.9100   20.4050 N   0  0  0  0  0  0  0  0  0  0  0  0
  -28.9940  -15.7500   20.6730 H   0  0  0  0  0  0  0  0  0  0  0  0
  -25.2170  -13.8940   20.4370 C   0  0  0  0  0  0  0  0  0  0  0  0
  -24.1680  -13.1090   20.8300 C   0  0  0  0  0  0  0  0  0  0  0  0
  -24.6350  -11.7610   20.7580 C   0  0  0  0  0  0  0  0  0  0  0  0
  -26.2550  -13.0250   20.1460 N   0  0  0  0  0  0  0  0  0  0  0  0
  -25.9140  -11.7350   20.4010 N   0  0  0  0  0  0  0  0  0  0  0  0
  -23.9190  -10.4950   20.9560 C   0  0  0  0  0  0  0  0  0  0  0  0
  -24.3600   -9.5320   21.8900 C   0  0  0  0  0  3  0  0  0  0  0  0
  -23.6410   -8.3320   22.0760 C   0  0  0  0  0  3  0  0  0  0  0  0
  -22.4660   -8.0850   21.3280 C   0  0  0  0  0  0  0  0  0  0  0  0
  -22.0430   -9.0360   20.3820 C   0  0  0  0  0  3  0  0  0  0  0  0
  -22.7620  -10.2280   20.1940 C   0  0  0  0  0  3  0  0  0  0  0  0
  -21.7170   -6.9370   21.4220 O   0  0  0  0  0  0  0  0  0  0  0  0
  -21.6360   -6.2260   22.5920 C   0  0  0  0  0  0  0  0  0  0  0  0
  -21.1690   -6.8110   23.7890 C   0  0  0  0  0  3  0  0  0  0  0  0
  -21.0350   -6.0250   24.9510 C   0  0  0  0  0  3  0  0  0  0  0  0
  -21.3590   -4.6560   24.9180 C   0  0  0  0  0  0  0  0  0  0  0  0
  -21.8210   -4.0710   23.7240 C   0  0  0  0  0  3  0  0  0  0  0  0
  -21.9550   -4.8540   22.5650 C   0  0  0  0  0  0  0  0  0  0  0  0
  -22.3800   -4.2800   21.4130 F   0  0  0  0  0  0  0  0  0  0  0  0
  -21.2240   -3.8990   26.0310 F   0  0  0  0  0  0  0  0  0  0  0  0
  -22.7840  -13.5790   21.1700 C   0  0  0  0  0  0  0  0  0  0  0  0
  -22.0960  -12.8690   22.0580 N   0  0  0  0  0  0  0  0  0  0  0  0
  -22.3230  -14.6130   20.6880 O   0  0  0  0  0  0  0  0  0  0  0  0
  -22.4830  -12.0320   22.4680 H   0  0  0  0  0  0  0  0  0  0  0  0
  -21.1700  -13.1660   22.3310 H   0  0  0  0  0  0  0  0  0  0  0  0
  -25.3590  -15.2680   20.2910 N   0  0  0  0  0  0  0  0  0  0  0  0
  -24.6060  -15.8890   20.5630 H   0  0  0  0  0  0  0  0  0  0  0  0
  -26.2590  -15.7440   20.2830 H   0  0  0  0  0  0  0  0  0  0  0  0
  -28.3300  -23.1490   21.4460 C   0  0  0  0  0  2  0  0  0  0  0  0
  -28.8480  -21.7010   21.6310 C   0  0  0  0  0  2  0  0  0  0  0  0
  -29.2010  -22.3110   19.3980 C   0  0  0  0  0  2  0  0  0  0  0  0
  -29.0260  -23.6910   20.1880 C   0  0  0  0  0  3  0  0  0  0  0  0
  -29.0150  -21.1180   20.2990 N   0  0  0  0  0  0  0  0  0  0  0  0
  -28.2820  -24.9370   19.4660 C   0  0  0  0  0  2  0  0  0  0  0  0
  -28.4080  -26.3760   19.8900 O   0  0  0  0  0  0  0  0  0  0  0  0
  -24.5460  -31.6650   23.0110 C   0  0  0  0  0  0  0  0  0  0  0  0
  -27.2900  -27.2440   19.8200 C   0  0  0  0  0  0  0  0  0  0  0  0
  -23.3920  -30.2880   21.3210 C   0  0  0  0  0  3  0  0  0  0  0  0
  -24.8900  -28.8310   19.8450 C   0  0  0  0  0  0  0  0  0  0  0  0
  -25.9260  -30.6690   21.1690 C   0  0  0  0  0  2  0  0  0  0  0  0
  -26.0450  -29.3140   20.4750 C   0  0  0  0  0  0  0  0  0  0  0  0
  -27.2430  -28.5290   20.4590 C   0  0  0  0  0  3  0  0  0  0  0  0
  -26.1160  -26.8490   19.1340 C   0  0  0  0  0  3  0  0  0  0  0  0
  -24.9320  -27.6060   19.1650 C   0  0  0  0  0  3  0  0  0  0  0  0
  -23.6300  -29.6700   19.9190 C   0  0  0  0  0  2  0  0  0  0  0  0
  -24.6400  -30.8920   21.8900 N   0  0  0  0  0  0  0  0  0  0  0  0
  -23.4530  -31.8970   23.5470 O   0  0  0  0  0  0  0  0  0  0  0  0
  -22.7530  -29.2200   22.2430 C   0  0  0  0  0  0  0  0  0  0  0  0
  -21.4260  -29.0390   22.1340 N   0  0  0  0  0  0  0  0  0  0  0  0
  -23.4510  -28.5620   23.0180 O   0  0  0  0  0  0  0  0  0  0  0  0
  -20.9210  -29.6240   21.4830 H   0  0  0  0  0  0  0  0  0  0  0  0
  -18.0610  -27.8190   22.6680 C   0  0  0  0  0  0  0  0  0  0  0  0
  -20.6270  -28.0600   22.8740 C   0  0  0  0  0  3  0  0  0  0  0  0
  -20.7080  -26.6630   22.2160 C   0  0  0  0  0  2  0  0  0  0  0  0
  -19.5750  -26.3990   21.2200 C   0  0  0  0  0  2  0  0  0  0  0  0
  -18.2140  -26.5080   21.9120 C   0  0  0  0  0  2  0  0  0  0  0  0
  -19.1940  -28.5550   23.1050 C   0  0  0  0  0  0  0  0  0  0  0  0
  -18.9970  -29.7800   23.7750 C   0  0  0  0  0  3  0  0  0  0  0  0
  -17.6990  -30.2730   24.0100 C   0  0  0  0  0  3  0  0  0  0  0  0
  -16.5810  -29.5330   23.5880 C   0  0  0  0  0  3  0  0  0  0  0  0
  -16.7620  -28.3070   22.9220 C   0  0  0  0  0  3  0  0  0  0  0  0
  -25.8080  -32.3140   23.6590 C   0  0  0  0  0  3  0  0  0  0  0  0
  -26.3440  -31.5150   24.9110 C   0  0  1  0  0  0  0  0  0  0  0  0
  -25.2560  -31.2170   25.9700 C   0  0  0  0  0  1  0  0  0  0  0  0
  -26.9610  -30.1660   24.4770 C   0  0  0  0  0  1  0  0  0  0  0  0
  -27.4730  -32.3160   25.5990 C   0  0  0  0  0  1  0  0  0  0  0  0
  -25.4530  -33.6900   24.0380 N   0  0  0  0  0  0  0  0  0  0  0  0
  -25.7600  -34.7810   23.3230 C   0  0  0  0  0  0  0  0  0  0  0  0
  -26.4370  -34.7370   22.2930 O   0  0  0  0  0  0  0  0  0  0  0  0
  -24.8500  -33.7970   24.8410 H   0  0  0  0  0  0  0  0  0  0  0  0
  -23.9790  -36.5350   23.0290 C   0  0  0  0  0  1  0  0  0  0  0  0
  -25.2290  -36.1360   23.8300 C   0  0  0  0  0  3  0  0  0  0  0  0
  -27.3310  -37.0520   24.7070 C   0  0  0  0  0  1  0  0  0  0  0  0
  -26.2300  -37.2230   23.7650 N   0  0  0  0  0  0  0  0  0  0  0  0
  -25.7960  -38.1250   23.9450 H   0  0  0  0  0  0  0  0  0  0  0  0
  -27.8880  -18.1800   20.3830 C   0  0  0  0  0  0  0  0  0  0  0  0
  -27.0420  -19.0970   19.9360 N   0  0  0  0  0  0  0  0  0  0  0  0
  -27.4690  -17.0870   20.7700 O   0  0  0  0  0  0  0  0  0  0  0  0
  -27.4340  -20.0110   19.7220 H   0  0  0  0  0  0  0  0  0  0  0  0
  -26.0460  -18.9420   19.9340 H   0  0  0  0  0  0  0  0  0  0  0  0
  -33.5130  -19.3280   20.2330 N   0  0  0  0  0  0  0  0  0  0  0  0
  -33.8440  -20.2680   20.4330 H   0  0  0  0  0  0  0  0  0  0  0  0
  -34.1680  -18.6060   20.5140 H   0  0  0  0  0  0  0  0  0  0  0  0
  1  5  2  0
  1  4  1  0
  2  6  2  0
  3  6  1  0
  3 92  1  0
  4 49  1  0
  4  3  2  0
  5  2  1  0
  6 15  1  0
  7 15  1  0
  8 13  1  0
  9 10  1  0
  9  8  1  0
 11 10  1  0
 11 20  1  0
 11 12  1  0
 13  7  1  0
 13 12  1  0
 14  7  2  0
 15 16  1  0
 17 18  2  0
 18 37  1  0
 19 18  1  0
 19 22  1  0
 20 21  1  0
 20 17  1  0
 21 19  2  0
 22 23  1  0
 23 24  2  0
 25 28  1  0
 25 24  1  0
 26 25  2  0
 27 26  1  0
 27 22  2  0
 28 29  1  0
 29 30  1  0
 30 31  2  0
 32 31  1  0
 32 36  1  0
 33 32  2  0
 34 29  2  0
 34 33  1  0
 35 34  1  0
 37 38  1  0
 38 41  1  0
 38 40  1  0
 39 37  2  0
 42 17  1  0
 42 43  1  0
 44 42  1  0
 45 46  1  0
 47 48  1  0
 47 49  1  0
 48 50  1  0
 48 45  1  0
 49 46  1  0
 50 51  1  0
 52 63  2  0
 53 51  1  0
 53 58  1  0
 54 62  1  0
 54 64  1  0
 55 61  1  0
 55 57  1  0
 56 62  1  0
 57 56  1  0
 58 57  2  0
 59 60  1  0
 59 53  2  0
 60 55  2  0
 61 54  1  0
 62 52  1  0
 64 66  2  0
 65 64  1  0
 67 65  1  0
 68 77  2  0
 68 73  1  0
 69 65  1  0
 69 73  1  0
 70 69  1  0
 71 72  1  0
 71 70  1  0
 72 68  1  0
 73 74  2  0
 74 75  1  0
 76 75  2  0
 77 76  1  0
 78 52  1  0
 78 83  1  0
 78 79  1  0
 79 82  1  1
 79 80  1  0
 81 79  1  0
 83 86  1  0
 84 88  1  0
 84 83  1  0
 85 84  2  0
 88 87  1  0
 90 88  1  0
 90 91  1  0
 90 89  1  0
 92 94  2  0
 93 92  1  0
 95 93  1  0
 96 93  1  0
 97  5  1  0
 97 98  1  0
 97 99  1  0
M  ISO  4   7 100  15 100  50 101  51 101
M  END
>  <TORSDO>  (3) 
F 20

>  <SCORE>  (3) 
-14.278

>  <name>  (3) 
2

>  <ligand_id>  (3) 
2

>  <original_smiles>  (3) 
[H]c1c([H])c([H])c2c(c1[H])C([H])([H])C([H])([H])C([H])([H])C2([H])N([H])C(=O)C1([H])N(C(=O)C([H])(N([H])C(=O)C([H])(N([H])C([H])([H])[H])C([H])([H])[H])C(C([H])([H])[H])(C([H])([H])[H])C([H])([H])[H])C([H])([H])c2c([H])c(OC([H])([H])C3([H])C([H])([H])N(c4c([H])c(N([H])[H])c([H])c(N([H])C(=O)N5C([H])([H])C([H])([H])C([H])([H])C([H])(n6nc(-c7c([H])c([H])c(Oc8c([H])c([H])c(F)c([H])c8F)c([H])c7[H])c(C(=O)N([H])[H])c6N([H])[H])C5([H])[H])c4C(=O)N([H])[H])C([H])([H])C3([H])[H])c([H])c([H])c2C1([H])[H]

>  <smiles>  (3) 
[H]c1c([H])c([H])c2c(c1[H])C([H])([H])C([H])([H])C([H])([H])C2([H])N([H])C(=O)C1([H])N(C(=O)C([H])(N([H])C(=O)C([H])(N([H])C([H])([H])[H])C([H])([H])[H])C(C([H])([H])[H])(C([H])([H])[H])C([H])([H])[H])C([H])([H])c2c([H])c(OC([H])([H])C3([H])C([H])([H])N(c4c([H])c(N([H])[H])c([H])c(N([H])C(=O)N5C([H])([H])C([H])([H])C([H])([H])C([H])(n6nc(-c7c([H])c([H])c(Oc8c([H])c([H])c(F)c([H])c8F)c([H])c7[H])c(C(=O)N([H])[H])c6N([H])[H])C5([H])[H])c4C(=O)N([H])[H])C([H])([H])C3([H])[H])c([H])c([H])c2C1([H])[H]

$$$$
3:0:0
     RDKit          3D

 97105  0  0  1  0  0  0  0  0999 V2000
  -28.9230  -20.3750   19.8640 C   0  0  0  0  0  3  0  0  0  0  0  0
  -29.9730  -19.8890   22.0720 C   0  0  0  0  0  3  0  0  0  0  0  0
  -30.4990  -17.1950   22.0440 C   0  0  0  0  0  3  0  0  0  0  0  0
  -30.6870  -19.3260   23.1370 C   0  0  0  0  0  0  0  0  0  0  0  0
  -29.5260  -19.2100   20.8990 C   0  0  0  0  0  0  0  0  0  0  0  0
  -30.9710  -17.9650   23.1100 C   0  0  0  0  0  0  0  0  0  0  0  0
  -29.7610  -17.6820   20.9190 C   0  0  0  0  0  0  0  0  0  0  0  0
  -31.1360  -20.2020   24.2980 C   0  0  0  0  0  1  0  0  0  0  0  0
  -30.0350  -15.2360   19.7980 C   0  0  0  0  0  0  0  0  0  0  0  0
  -29.8570  -12.9420   18.7110 C   0  0  0  0  0  2  0  0  0  0  0  0
  -28.7730  -12.8820   17.6140 C   0  0  0  0  0  2  0  0  0  0  0  0
  -27.4030  -12.5530   18.2340 C   0  0  0  0  0  2  0  0  0  0  0  0
  -27.1040  -13.4010   19.4980 C   0  0  0  0  0  3  0  0  0  0  0  0
  -28.3010  -13.4560   20.4700 C   0  0  0  0  0  2  0  0  0  0  0  0
  -29.4390  -13.9780   19.7030 N   0  0  0  0  0  0  0  0  0  0  0  0
  -31.1970  -15.3170   19.3840 O   0  0  0  0  0  0  0  0  0  0  0  0
  -29.3140  -16.4420   20.1200 N   0  0  0  0  0  0  0  0  0  0  0  0
  -28.3140  -16.3330   20.0470 H   0  0  0  0  0  0  0  0  0  0  0  0
  -24.8390  -13.7850   20.6190 C   0  0  0  0  0  0  0  0  0  0  0  0
  -23.8710  -12.9270   21.0590 C   0  0  0  0  0  0  0  0  0  0  0  0
  -24.3800  -11.6100   20.8400 C   0  0  0  0  0  0  0  0  0  0  0  0
  -25.8700  -12.9880   20.1550 N   0  0  0  0  0  0  0  0  0  0  0  0
  -25.6140  -11.6680   20.3530 N   0  0  0  0  0  0  0  0  0  0  0  0
  -23.7360  -10.3000   21.0090 C   0  0  0  0  0  0  0  0  0  0  0  0
  -24.2680   -9.3220   21.8790 C   0  0  0  0  0  3  0  0  0  0  0  0
  -23.6180   -8.0800   22.0400 C   0  0  0  0  0  3  0  0  0  0  0  0
  -22.4230   -7.8060   21.3340 C   0  0  0  0  0  0  0  0  0  0  0  0
  -21.9110   -8.7730   20.4520 C   0  0  0  0  0  3  0  0  0  0  0  0
  -22.5610  -10.0080   20.2880 C   0  0  0  0  0  3  0  0  0  0  0  0
  -21.7370   -6.6170   21.4090 O   0  0  0  0  0  0  0  0  0  0  0  0
  -21.7140   -5.8720   22.5600 C   0  0  0  0  0  0  0  0  0  0  0  0
  -21.2080   -6.3880   23.7720 C   0  0  0  0  0  3  0  0  0  0  0  0
  -21.1380   -5.5640   24.9140 C   0  0  0  0  0  3  0  0  0  0  0  0
  -21.5670   -4.2250   24.8440 C   0  0  0  0  0  0  0  0  0  0  0  0
  -22.0670   -3.7080   23.6360 C   0  0  0  0  0  3  0  0  0  0  0  0
  -22.1380   -4.5280   22.4970 C   0  0  0  0  0  0  0  0  0  0  0  0
  -22.6010   -4.0190   21.3300 F   0  0  0  0  0  0  0  0  0  0  0  0
  -21.4930   -3.4310   25.9380 F   0  0  0  0  0  0  0  0  0  0  0  0
  -22.5080  -13.3070   21.5600 C   0  0  0  0  0  0  0  0  0  0  0  0
  -21.9420  -12.5070   22.4560 N   0  0  0  0  0  0  0  0  0  0  0  0
  -21.9600  -14.3460   21.1940 O   0  0  0  0  0  0  0  0  0  0  0  0
  -22.4020  -11.6660   22.7690 H   0  0  0  0  0  0  0  0  0  0  0  0
  -21.0350  -12.7410   22.8350 H   0  0  0  0  0  0  0  0  0  0  0  0
  -24.9190  -15.1730   20.5460 N   0  0  0  0  0  0  0  0  0  0  0  0
  -24.1430  -15.7680   20.8160 H   0  0  0  0  0  0  0  0  0  0  0  0
  -25.6760  -15.6810   20.1110 H   0  0  0  0  0  0  0  0  0  0  0  0
  -31.6850  -17.3640   24.1480 N   0  0  0  0  0  0  0  0  0  0  0  0
  -32.1310  -16.4680   23.9760 H   0  0  0  0  0  0  0  0  0  0  0  0
  -32.2340  -17.9610   24.7550 H   0  0  0  0  0  0  0  0  0  0  0  0
  -27.6180  -19.9210   19.3680 N   0  0  0  0  0  4  0  0  0  0  0  0
  -26.9500  -19.8780   20.1170 H   0  0  0  0  0  0  0  0  0  0  0  0
  -27.7060  -19.0130   18.9550 H   0  0  0  0  0  0  0  0  0  0  0  0
  -27.2780  -20.5500   18.6640 H   0  0  0  0  0  0  0  0  0  0  0  0
  -28.7880  -22.0390   20.3300 C   0  0  0  0  0  3  0  0  0  0  0  0
  -28.4130  -23.4680   19.4860 C   0  0  0  0  0  3  0  0  0  0  0  0
  -27.9310  -24.9420   20.1900 C   0  0  0  0  0  2  0  0  0  0  0  0
  -28.0100  -26.4170   19.6740 O   0  0  0  0  0  0  0  0  0  0  0  0
  -24.5400  -31.9510   23.1660 C   0  0  0  0  0  0  0  0  0  0  0  0
  -26.9380  -27.3740   19.7960 C   0  0  0  0  0  0  0  0  0  0  0  0
  -23.2460  -30.6240   21.5400 C   0  0  0  0  0  3  0  0  0  0  0  0
  -24.6090  -29.1090   19.9720 C   0  0  0  0  0  0  0  0  0  0  0  0
  -25.7840  -30.9050   21.2340 C   0  0  0  0  0  2  0  0  0  0  0  0
  -25.8220  -29.5390   20.5250 C   0  0  0  0  0  0  0  0  0  0  0  0
  -26.9890  -28.6910   20.4130 C   0  0  0  0  0  3  0  0  0  0  0  0
  -25.6950  -27.0420   19.2200 C   0  0  0  0  0  3  0  0  0  0  0  0
  -24.5570  -27.8760   19.3010 C   0  0  0  0  0  3  0  0  0  0  0  0
  -23.3860  -30.0040   20.1250 C   0  0  0  0  0  2  0  0  0  0  0  0
  -24.5470  -31.1790   22.0360 N   0  0  0  0  0  0  0  0  0  0  0  0
  -23.4860  -32.2090   23.7680 O   0  0  0  0  0  0  0  0  0  0  0  0
  -22.6240  -29.5760   22.4970 C   0  0  0  0  0  0  0  0  0  0  0  0
  -21.2970  -29.3740   22.4050 N   0  0  0  0  0  0  0  0  0  0  0  0
  -23.3350  -28.9490   23.2850 O   0  0  0  0  0  0  0  0  0  0  0  0
  -20.7750  -29.9360   21.7460 H   0  0  0  0  0  0  0  0  0  0  0  0
  -17.9710  -28.0450   22.9550 C   0  0  0  0  0  0  0  0  0  0  0  0
  -20.5240  -28.3950   23.1750 C   0  0  0  0  0  3  0  0  0  0  0  0
  -20.6650  -26.9770   22.5740 C   0  0  0  0  0  2  0  0  0  0  0  0
  -19.5540  -26.6320   21.5750 C   0  0  0  0  0  2  0  0  0  0  0  0
  -18.1820  -26.7160   22.2490 C   0  0  0  0  0  2  0  0  0  0  0  0
  -19.0710  -28.8400   23.3750 C   0  0  0  0  0  0  0  0  0  0  0  0
  -18.8190  -30.0810   23.9980 C   0  0  0  0  0  3  0  0  0  0  0  0
  -17.5010  -30.5310   24.2020 C   0  0  0  0  0  3  0  0  0  0  0  0
  -16.4160  -29.7350   23.7960 C   0  0  0  0  0  3  0  0  0  0  0  0
  -16.6530  -28.4930   23.1800 C   0  0  0  0  0  3  0  0  0  0  0  0
  -25.8530  -32.5630   23.7450 C   0  0  0  0  0  3  0  0  0  0  0  0
  -25.5750  -33.9620   24.1040 N   0  0  0  0  0  0  0  0  0  0  0  0
  -25.8990  -35.0230   23.3530 C   0  0  0  0  0  0  0  0  0  0  0  0
  -26.5310  -34.9250   22.2980 O   0  0  0  0  0  0  0  0  0  0  0  0
  -25.0080  -34.1130   24.9260 H   0  0  0  0  0  0  0  0  0  0  0  0
  -24.1910  -36.8550   23.0960 C   0  0  0  0  0  1  0  0  0  0  0  0
  -25.4550  -36.4130   23.8510 C   0  0  0  0  0  3  0  0  0  0  0  0
  -27.6330  -37.2530   24.6130 C   0  0  0  0  0  1  0  0  0  0  0  0
  -26.5010  -37.4510   23.7120 N   0  0  0  0  0  0  0  0  0  0  0  0
  -26.1170  -38.3750   23.8870 H   0  0  0  0  0  0  0  0  0  0  0  0
  -26.4040  -31.7750   24.9970 C   0  0  1  0  0  0  0  0  0  0  0  0
  -25.3460  -31.5460   26.1040 C   0  0  0  0  0  1  0  0  0  0  0  0
  -26.9520  -30.3910   24.5780 C   0  0  0  0  0  1  0  0  0  0  0  0
  -27.5890  -32.5480   25.6220 C   0  0  0  0  0  1  0  0  0  0  0  0
  1 54  1  0
  1  5  1  0
  2  4  1  0
  3  6  1  0
  4  8  1  0
  5  7  1  0
  5  2  2  0
  6  4  2  0
  6 47  1  0
  7  3  2  0
  9 17  1  0
 10 15  1  0
 11 12  1  0
 11 10  1  0
 13 12  1  0
 13 22  1  0
 13 14  1  0
 15  9  1  0
 15 14  1  0
 16  9  2  0
 17  7  1  0
 18 17  1  0
 19 20  2  0
 20 39  1  0
 21 24  1  0
 21 20  1  0
 22 23  1  0
 22 19  1  0
 23 21  2  0
 24 25  1  0
 25 26  2  0
 27 30  1  0
 27 26  1  0
 28 27  2  0
 29 28  1  0
 29 24  2  0
 30 31  1  0
 31 32  1  0
 32 33  2  0
 34 33  1  0
 34 38  1  0
 35 34  2  0
 36 31  2  0
 36 35  1  0
 37 36  1  0
 39 40  1  0
 40 42  1  0
 40 43  1  0
 41 39  2  0
 44 19  1  0
 44 45  1  0
 46 44  1  0
 47 49  1  0
 48 47  1  0
 50  1  1  0
 50 51  1  0
 52 50  1  0
 53 50  1  0
 55 56  1  0
 55 54  2  0
 57 59  1  0
 57 56  1  0
 58 69  2  0
 59 64  1  0
 60 68  1  0
 60 70  1  0
 61 67  1  0
 61 63  1  0
 62 68  1  0
 63 62  1  0
 64 63  2  0
 65 66  1  0
 65 59  2  0
 66 61  2  0
 67 60  1  0
 68 58  1  0
 70 72  2  0
 71 70  1  0
 73 71  1  0
 74 83  2  0
 74 79  1  0
 75 71  1  0
 75 79  1  0
 76 75  1  0
 77 78  1  0
 77 76  1  0
 78 74  1  0
 79 80  2  0
 80 81  1  0
 82 81  2  0
 83 82  1  0
 84 58  1  0
 84 85  1  0
 84 94  1  0
 85 88  1  0
 86 90  1  0
 86 85  1  0
 87 86  2  0
 90 89  1  0
 92 90  1  0
 92 93  1  0
 92 91  1  0
 94 97  1  1
 94 95  1  0
 96 94  1  0
M  ISO  4   9 100  17 100  56 101  57 101
M  END
>  <TORSDO>  (4) 
F 22

>  <SCORE>  (4) 
-10.967

>  <name>  (4) 
3

>  <ligand_id>  (4) 
3

>  <original_smiles>  (4) 
[H]c1c([H])c([H])c2c(c1[H])C([H])([H])C([H])([H])C([H])([H])C2([H])N([H])C(=O)C1([H])N(C(=O)C([H])(N([H])C(=O)C([H])(N([H])C([H])([H])[H])C([H])([H])[H])C(C([H])([H])[H])(C([H])([H])[H])C([H])([H])[H])C([H])([H])c2c([H])c(OC([H])([H])C([H])([H])C([H])([H])C([H])(c3c([H])c(C([H])([H])[H])c(N([H])[H])c([H])c3N([H])C(=O)N3C([H])([H])C([H])([H])C([H])([H])C([H])(n4nc(-c5c([H])c([H])c(Oc6c([H])c([H])c(F)c([H])c6F)c([H])c5[H])c(C(=O)N([H])[H])c4N([H])[H])C3([H])[H])[N+]([H])([H])[H])c([H])c([H])c2C1([H])[H]

>  <smiles>  (4) 
[H]c1c([H])c([H])c2c(c1[H])C([H])([H])C([H])([H])C([H])([H])C2([H])N([H])C(=O)C1([H])N(C(=O)C([H])(N([H])C(=O)C([H])(N([H])C([H])([H])[H])C([H])([H])[H])C(C([H])([H])[H])(C([H])([H])[H])C([H])([H])[H])C([H])([H])c2c([H])c(OC([H])([H])C([H])([H])C([H])([H])C([H])(c3c([H])c(C([H])([H])[H])c(N([H])[H])c([H])c3N([H])C(=O)N3C([H])([H])C([H])([H])C([H])([H])C([H])(n4nc(-c5c([H])c([H])c(Oc6c([H])c([H])c(F)c([H])c6F)c([H])c5[H])c(C(=O)N([H])[H])c4N([H])[H])C3([H])[H])[N+]([H])([H])[H])c([H])c([H])c2C1([H])[H]

$$$$
4:0:0
     RDKit          3D

 94102  0  0  1  0  0  0  0  0999 V2000
  -29.9770  -19.6990   21.2280 C   0  0  0  0  0  3  0  0  0  0  0  0
  -30.5770  -18.4580   21.5910 C   0  0  0  0  0  0  0  0  0  0  0  0
  -29.3860  -19.8920   19.9600 C   0  0  0  0  0  0  0  0  0  0  0  0
  -30.5930  -17.3440   20.6680 C   0  0  0  0  0  0  0  0  0  0  0  0
  -29.4360  -18.7460   19.1240 C   0  0  0  0  0  0  0  0  0  0  0  0
  -30.0000  -17.5480   19.4550 N   0  0  0  0  0  0  0  0  0  0  0  0
  -28.3160  -17.6500   17.2350 C   0  0  0  0  0  1  0  0  0  0  0  0
  -28.8690  -18.8490   17.8530 N   0  0  0  0  0  0  0  0  0  0  0  0
  -28.3860  -19.7280   17.6900 H   0  0  0  0  0  0  0  0  0  0  0  0
  -30.2520  -17.7810   24.0280 C   0  0  0  0  0  1  0  0  0  0  0  0
  -31.1890  -18.4210   22.9930 C   0  0  0  0  0  2  0  0  0  0  0  0
  -31.2370  -15.9500   21.0040 C   0  0  0  0  0  0  0  0  0  0  0  0
  -31.4950  -15.6570   22.1760 O   0  0  0  0  0  0  0  0  0  0  0  0
  -31.6960  -14.8360   19.9230 C   0  0  0  0  0  0  0  0  0  0  0  0
  -31.1810  -12.7510   18.6460 C   0  0  0  0  0  2  0  0  0  0  0  0
  -30.1610  -13.0350   17.5220 C   0  0  0  0  0  2  0  0  0  0  0  0
  -28.7160  -12.9420   18.0510 C   0  0  0  0  0  2  0  0  0  0  0  0
  -28.5210  -13.7240   19.3750 C   0  0  0  0  0  3  0  0  0  0  0  0
  -29.6350  -13.3840   20.3840 C   0  0  0  0  0  2  0  0  0  0  0  0
  -30.9280  -13.7030   19.7520 N   0  0  0  0  0  0  0  0  0  0  0  0
  -32.7580  -14.9730   19.2990 O   0  0  0  0  0  0  0  0  0  0  0  0
  -26.2290  -14.4390   20.2890 C   0  0  0  0  0  0  0  0  0  0  0  0
  -25.1430  -13.7170   20.7070 C   0  0  0  0  0  0  0  0  0  0  0  0
  -25.5140  -12.3430   20.5890 C   0  0  0  0  0  0  0  0  0  0  0  0
  -27.1940  -13.5070   19.9420 N   0  0  0  0  0  0  0  0  0  0  0  0
  -26.7730  -12.2380   20.1820 N   0  0  0  0  0  0  0  0  0  0  0  0
  -24.7240  -11.1210   20.7830 C   0  0  0  0  0  0  0  0  0  0  0  0
  -25.0790  -10.1570   21.7510 C   0  0  0  0  0  3  0  0  0  0  0  0
  -24.2930   -8.9980   21.9310 C   0  0  0  0  0  3  0  0  0  0  0  0
  -23.1350   -8.7970   21.1420 C   0  0  0  0  0  0  0  0  0  0  0  0
  -22.7990   -9.7490   20.1630 C   0  0  0  0  0  3  0  0  0  0  0  0
  -23.5850  -10.8980   19.9820 C   0  0  0  0  0  3  0  0  0  0  0  0
  -22.3250   -7.6910   21.2290 O   0  0  0  0  0  0  0  0  0  0  0  0
  -22.0620   -7.0840   22.4320 C   0  0  0  0  0  0  0  0  0  0  0  0
  -21.4710   -7.7840   23.5050 C   0  0  0  0  0  3  0  0  0  0  0  0
  -21.1540   -7.1040   24.6990 C   0  0  0  0  0  3  0  0  0  0  0  0
  -21.4190   -5.7280   24.8180 C   0  0  0  0  0  0  0  0  0  0  0  0
  -22.0030   -5.0280   23.7480 C   0  0  0  0  0  3  0  0  0  0  0  0
  -22.3210   -5.7040   22.5560 C   0  0  0  0  0  0  0  0  0  0  0  0
  -22.8650   -5.0210   21.5200 F   0  0  0  0  0  0  0  0  0  0  0  0
  -21.1080   -5.0730   25.9610 F   0  0  0  0  0  0  0  0  0  0  0  0
  -23.8030  -14.2680   21.0990 C   0  0  0  0  0  0  0  0  0  0  0  0
  -23.1140  -13.6030   22.0210 N   0  0  0  0  0  0  0  0  0  0  0  0
  -23.3800  -15.3200   20.6240 O   0  0  0  0  0  0  0  0  0  0  0  0
  -23.4710  -12.7510   22.4260 H   0  0  0  0  0  0  0  0  0  0  0  0
  -22.2150  -13.9510   22.3240 H   0  0  0  0  0  0  0  0  0  0  0  0
  -26.4690  -15.8030   20.1540 N   0  0  0  0  0  0  0  0  0  0  0  0
  -25.7540  -16.4970   20.3440 H   0  0  0  0  0  0  0  0  0  0  0  0
  -27.3110  -16.2040   19.7610 H   0  0  0  0  0  0  0  0  0  0  0  0
  -28.7910  -21.0950   19.5090 O   0  0  0  0  0  0  0  0  0  0  0  0
  -28.5550  -22.2450   20.3880 C   0  0  0  0  0  3  0  0  0  0  0  0
  -28.3450  -23.6470   19.6530 C   0  0  0  0  0  3  0  0  0  0  0  0
  -27.8800  -24.8910   20.5300 C   0  0  0  0  0  2  0  0  0  0  0  0
  -28.0660  -26.2650   20.0110 O   0  0  0  0  0  0  0  0  0  0  0  0
  -24.6120  -31.7680   23.1590 C   0  0  0  0  0  0  0  0  0  0  0  0
  -26.9660  -27.1280   20.0450 C   0  0  0  0  0  0  0  0  0  0  0  0
  -23.3000  -30.3940   21.5810 C   0  0  0  0  0  3  0  0  0  0  0  0
  -24.6460  -28.7880   20.1140 C   0  0  0  0  0  0  0  0  0  0  0  0
  -25.8360  -30.6430   21.2880 C   0  0  0  0  0  2  0  0  0  0  0  0
  -25.8510  -29.2580   20.6530 C   0  0  0  0  0  0  0  0  0  0  0  0
  -27.0170  -28.4400   20.6040 C   0  0  0  0  0  3  0  0  0  0  0  0
  -25.7430  -26.7030   19.4860 C   0  0  0  0  0  3  0  0  0  0  0  0
  -24.5920  -27.5160   19.5220 C   0  0  0  0  0  3  0  0  0  0  0  0
  -23.4370  -29.6980   20.2010 C   0  0  0  0  0  2  0  0  0  0  0  0
  -24.6040  -30.9520   22.0650 N   0  0  0  0  0  0  0  0  0  0  0  0
  -23.5610  -32.0840   23.7350 O   0  0  0  0  0  0  0  0  0  0  0  0
  -22.6470  -29.4070   22.5770 C   0  0  0  0  0  0  0  0  0  0  0  0
  -21.3190  -29.2330   22.4730 N   0  0  0  0  0  0  0  0  0  0  0  0
  -23.3350  -28.7980   23.4010 O   0  0  0  0  0  0  0  0  0  0  0  0
  -20.8250  -29.7740   21.7780 H   0  0  0  0  0  0  0  0  0  0  0  0
  -17.9530  -28.0190   22.9980 C   0  0  0  0  0  0  0  0  0  0  0  0
  -20.5050  -28.3220   23.2780 C   0  0  0  0  0  3  0  0  0  0  0  0
  -20.6300  -26.8680   22.7680 C   0  0  0  0  0  2  0  0  0  0  0  0
  -19.5420  -26.4860   21.7600 C   0  0  0  0  0  2  0  0  0  0  0  0
  -18.1520  -26.6430   22.3850 C   0  0  0  0  0  2  0  0  0  0  0  0
  -19.0580  -28.8130   23.4020 C   0  0  0  0  0  0  0  0  0  0  0  0
  -18.8200  -30.1000   23.9340 C   0  0  0  0  0  3  0  0  0  0  0  0
  -17.5080  -30.5920   24.0660 C   0  0  0  0  0  3  0  0  0  0  0  0
  -16.4160  -29.7950   23.6790 C   0  0  0  0  0  3  0  0  0  0  0  0
  -16.6400  -28.5120   23.1500 C   0  0  0  0  0  3  0  0  0  0  0  0
  -25.9400  -32.3640   23.7240 C   0  0  0  0  0  3  0  0  0  0  0  0
  -25.6670  -33.7500   24.1300 N   0  0  0  0  0  0  0  0  0  0  0  0
  -25.9570  -34.8310   23.3930 C   0  0  0  0  0  0  0  0  0  0  0  0
  -26.5550  -34.7650   22.3150 O   0  0  0  0  0  0  0  0  0  0  0  0
  -25.1280  -33.8770   24.9750 H   0  0  0  0  0  0  0  0  0  0  0  0
  -24.2210  -36.6430   23.2380 C   0  0  0  0  0  1  0  0  0  0  0  0
  -25.5160  -36.2030   23.9390 C   0  0  0  0  0  3  0  0  0  0  0  0
  -27.7110  -37.0460   24.6430 C   0  0  0  0  0  1  0  0  0  0  0  0
  -26.5460  -37.2550   23.7890 N   0  0  0  0  0  0  0  0  0  0  0  0
  -26.1570  -38.1700   23.9990 H   0  0  0  0  0  0  0  0  0  0  0  0
  -26.5270  -31.5360   24.9320 C   0  0  1  0  0  0  0  0  0  0  0  0
  -25.4940  -31.2360   26.0420 C   0  0  0  0  0  1  0  0  0  0  0  0
  -27.0990  -30.1850   24.4420 C   0  0  0  0  0  1  0  0  0  0  0  0
  -27.7070  -32.3080   25.5710 C   0  0  0  0  0  1  0  0  0  0  0  0
  1  2  1  0
  2 11  1  0
  3  1  2  0
  4 12  1  0
  4  2  2  0
  5  6  2  0
  5  3  1  0
  6  4  1  0
  7  8  1  0
  8  5  1  0
  9  8  1  0
 11 10  1  0
 12 13  2  0
 14 12  1  0
 15 20  1  0
 16 17  1  0
 16 15  1  0
 18 17  1  0
 18 25  1  0
 18 19  1  0
 20 14  1  0
 20 19  1  0
 21 14  2  0
 22 23  2  0
 23 42  1  0
 24 23  1  0
 24 27  1  0
 25 26  1  0
 25 22  1  0
 26 24  2  0
 27 28  1  0
 28 29  2  0
 30 33  1  0
 30 29  1  0
 31 30  2  0
 32 31  1  0
 32 27  2  0
 33 34  1  0
 34 39  2  0
 34 35  1  0
 35 36  2  0
 36 37  1  0
 37 41  1  0
 38 37  2  0
 39 38  1  0
 40 39  1  0
 42 43  1  0
 43 46  1  0
 43 45  1  0
 44 42  2  0
 47 22  1  0
 47 48  1  0
 49 47  1  0
 50  3  1  0
 50 51  1  0
 52 51  2  0
 52 53  1  0
 54 56  1  0
 54 53  1  0
 55 66  2  0
 56 61  1  0
 57 65  1  0
 57 67  1  0
 58 64  1  0
 58 60  1  0
 59 65  1  0
 60 59  1  0
 61 60  2  0
 62 63  1  0
 62 56  2  0
 63 58  2  0
 64 57  1  0
 65 55  1  0
 67 69  2  0
 68 67  1  0
 70 68  1  0
 71 80  2  0
 71 76  1  0
 72 68  1  0
 72 76  1  0
 73 72  1  0
 74 75  1  0
 74 73  1  0
 75 71  1  0
 76 77  2  0
 77 78  1  0
 79 78  2  0
 80 79  1  0
 81 55  1  0
 81 82  1  0
 81 91  1  0
 82 85  1  0
 83 87  1  0
 83 82  1  0
 84 83  2  0
 87 86  1  0
 89 87  1  0
 89 90  1  0
 89 88  1  0
 91 94  1  1
 91 92  1  0
 93 91  1  0
M  ISO  4  12 100  14 100  53 101  54 101
M  END
>  <TORSDO>  (5) 
F 23

>  <SCORE>  (5) 
-8.954

>  <name>  (5) 
4

>  <ligand_id>  (5) 
4

>  <original_smiles>  (5) 
[H]c1c([H])c([H])c2c(c1[H])C([H])([H])C([H])([H])C([H])([H])C2([H])N([H])C(=O)C1([H])N(C(=O)C([H])(N([H])C(=O)C([H])(N([H])C([H])([H])[H])C([H])([H])[H])C(C([H])([H])[H])(C([H])([H])[H])C([H])([H])[H])C([H])([H])c2c([H])c(OC([H])([H])C([H])([H])C([H])([H])Oc3c(N([H])C([H])([H])[H])nc(C(=O)C(=O)N4C([H])([H])C([H])([H])C([H])([H])C([H])(n5nc(-c6c([H])c([H])c(Oc7c([H])c([H])c(F)c([H])c7F)c([H])c6[H])c(C(=O)N([H])[H])c5N([H])[H])C4([H])[H])c(C([H])([H])C([H])([H])[H])c3[H])c([H])c([H])c2C1([H])[H]

>  <smiles>  (5) 
[H]c1c([H])c([H])c2c(c1[H])C([H])([H])C([H])([H])C([H])([H])C2([H])N([H])C(=O)C1([H])N(C(=O)C([H])(N([H])C(=O)C([H])(N([H])C([H])([H])[H])C([H])([H])[H])C(C([H])([H])[H])(C([H])([H])[H])C([H])([H])[H])C([H])([H])c2c([H])c(OC([H])([H])C([H])([H])C([H])([H])Oc3c(N([H])C([H])([H])[H])nc(C(=O)C(=O)N4C([H])([H])C([H])([H])C([H])([H])C([H])(n5nc(-c6c([H])c([H])c(Oc7c([H])c([H])c(F)c([H])c7F)c([H])c6[H])c(C(=O)N([H])[H])c5N([H])[H])C4([H])[H])c(C([H])([H])C([H])([H])[H])c3[H])c([H])c([H])c2C1([H])[H]

$$$$
5:0:0
     RDKit          3D

 96104  0  0  1  0  0  0  0  0999 V2000
  -29.3410  -16.9630   19.1670 C   0  0  0  0  0  3  0  0  0  0  0  0
  -29.9290  -17.9720   21.2930 C   0  0  0  0  0  3  0  0  0  0  0  0
  -28.7880  -18.1820   18.7330 C   0  0  0  0  0  0  0  0  0  0  0  0
  -28.7870  -19.3190   19.5920 C   0  0  0  0  0  0  0  0  0  0  0  0
  -29.8650  -16.8170   20.4670 C   0  0  0  0  0  0  0  0  0  0  0  0
  -29.4440  -19.2380   20.8570 C   0  0  0  0  0  0  0  0  0  0  0  0
  -28.0340  -20.5870   19.1920 C   0  0  0  0  0  1  0  0  0  0  0  0
  -30.8150  -14.5400   20.2640 C   0  0  0  0  0  0  0  0  0  0  0  0
  -30.4060  -12.5230   18.9040 C   0  0  0  0  0  2  0  0  0  0  0  0
  -29.4350  -12.9050   17.7650 C   0  0  0  0  0  2  0  0  0  0  0  0
  -27.9670  -12.7960   18.2250 C   0  0  0  0  0  2  0  0  0  0  0  0
  -27.7120  -13.4770   19.5970 C   0  0  0  0  0  3  0  0  0  0  0  0
  -28.7900  -13.0750   20.6280 C   0  0  0  0  0  2  0  0  0  0  0  0
  -30.1120  -13.3900   20.0590 N   0  0  0  0  0  0  0  0  0  0  0  0
  -31.9190  -14.7470   19.7510 O   0  0  0  0  0  0  0  0  0  0  0  0
  -30.1770  -15.5050   20.9630 N   0  0  0  0  0  0  0  0  0  0  0  0
  -29.4670  -15.1320   21.5760 H   0  0  0  0  0  0  0  0  0  0  0  0
  -25.3240  -14.0940   20.3340 C   0  0  0  0  0  0  0  0  0  0  0  0
  -24.2560  -13.3250   20.7110 C   0  0  0  0  0  0  0  0  0  0  0  0
  -24.7120  -11.9720   20.6730 C   0  0  0  0  0  0  0  0  0  0  0  0
  -26.3620  -13.2090   20.0900 N   0  0  0  0  0  0  0  0  0  0  0  0
  -25.9980  -11.9270   20.3490 N   0  0  0  0  0  0  0  0  0  0  0  0
  -23.9840  -10.7110   20.8710 C   0  0  0  0  0  0  0  0  0  0  0  0
  -24.4250   -9.7380   21.7940 C   0  0  0  0  0  3  0  0  0  0  0  0
  -23.6950   -8.5440   21.9780 C   0  0  0  0  0  3  0  0  0  0  0  0
  -22.5110   -8.3140   21.2380 C   0  0  0  0  0  0  0  0  0  0  0  0
  -22.0890   -9.2770   20.3040 C   0  0  0  0  0  3  0  0  0  0  0  0
  -22.8190  -10.4620   20.1180 C   0  0  0  0  0  3  0  0  0  0  0  0
  -21.7530   -7.1710   21.3300 O   0  0  0  0  0  0  0  0  0  0  0  0
  -21.7240   -6.4180   22.4760 C   0  0  0  0  0  0  0  0  0  0  0  0
  -21.3470   -6.9690   23.7210 C   0  0  0  0  0  3  0  0  0  0  0  0
  -21.2590   -6.1430   24.8590 C   0  0  0  0  0  3  0  0  0  0  0  0
  -21.5450   -4.7680   24.7560 C   0  0  0  0  0  0  0  0  0  0  0  0
  -21.9190   -4.2170   23.5180 C   0  0  0  0  0  3  0  0  0  0  0  0
  -22.0050   -5.0400   22.3810 C   0  0  0  0  0  0  0  0  0  0  0  0
  -22.3430   -4.5000   21.1860 F   0  0  0  0  0  0  0  0  0  0  0  0
  -21.4550   -3.9750   25.8490 F   0  0  0  0  0  0  0  0  0  0  0  0
  -22.8650  -13.8100   21.0040 C   0  0  0  0  0  0  0  0  0  0  0  0
  -22.1470  -13.1230   21.8850 N   0  0  0  0  0  0  0  0  0  0  0  0
  -22.4220  -14.8330   20.4850 O   0  0  0  0  0  0  0  0  0  0  0  0
  -22.5140  -12.2920   22.3260 H   0  0  0  0  0  0  0  0  0  0  0  0
  -21.2170  -13.4350   22.1270 H   0  0  0  0  0  0  0  0  0  0  0  0
  -25.4940  -15.4660   20.1630 N   0  0  0  0  0  0  0  0  0  0  0  0
  -24.7340  -16.1220   20.2970 H   0  0  0  0  0  0  0  0  0  0  0  0
  -26.3610  -15.9120   19.8920 H   0  0  0  0  0  0  0  0  0  0  0  0
  -28.1800  -18.2050   17.3630 C   0  0  0  0  0  0  0  0  0  0  0  0
  -26.8570  -18.1460   17.3200 N   0  0  0  0  0  0  0  0  0  0  0  0
  -28.8770  -18.2310   16.3520 O   0  0  0  0  0  0  0  0  0  0  0  0
  -26.3260  -18.1030   18.1770 H   0  0  0  0  0  0  0  0  0  0  0  0
  -26.3780  -18.1420   16.4320 H   0  0  0  0  0  0  0  0  0  0  0  0
  -29.5280  -20.3150   21.7350 O   0  0  0  0  0  0  0  0  0  0  0  0
  -30.1460  -21.5530   21.3100 C   0  0  0  0  0  2  0  0  0  0  0  0
  -29.2810  -22.7830   21.7220 C   0  0  0  0  0  2  0  0  0  0  0  0
  -29.7260  -24.1810   21.1780 C   0  0  0  0  0  2  0  0  0  0  0  0
  -28.7350  -25.3210   21.5570 C   0  0  0  0  0  2  0  0  0  0  0  0
  -28.9400  -26.5940   20.8900 O   0  0  0  0  0  0  0  0  0  0  0  0
  -24.7480  -31.8450   23.3200 C   0  0  0  0  0  0  0  0  0  0  0  0
  -27.7840  -27.3380   20.7220 C   0  0  0  0  0  0  0  0  0  0  0  0
  -23.7330  -30.3190   21.6610 C   0  0  0  0  0  3  0  0  0  0  0  0
  -25.3550  -28.7740   20.4380 C   0  0  0  0  0  0  0  0  0  0  0  0
  -26.2550  -30.7620   21.6550 C   0  0  0  0  0  2  0  0  0  0  0  0
  -26.4430  -29.3630   21.0950 C   0  0  0  0  0  0  0  0  0  0  0  0
  -27.6620  -28.6540   21.2320 C   0  0  0  0  0  3  0  0  0  0  0  0
  -26.6840  -26.7760   20.0380 C   0  0  0  0  0  3  0  0  0  0  0  0
  -25.4730  -27.4810   19.9010 C   0  0  0  0  0  3  0  0  0  0  0  0
  -24.0830  -29.5850   20.3390 C   0  0  0  0  0  2  0  0  0  0  0  0
  -24.9250  -30.9940   22.2700 N   0  0  0  0  0  0  0  0  0  0  0  0
  -23.6170  -32.1030   23.7540 O   0  0  0  0  0  0  0  0  0  0  0  0
  -23.0390  -29.3210   22.6170 C   0  0  0  0  0  0  0  0  0  0  0  0
  -21.7310  -29.1020   22.4090 N   0  0  0  0  0  0  0  0  0  0  0  0
  -23.6780  -28.7450   23.5020 O   0  0  0  0  0  0  0  0  0  0  0  0
  -21.2760  -29.6150   21.6660 H   0  0  0  0  0  0  0  0  0  0  0  0
  -18.3470  -27.8790   22.7570 C   0  0  0  0  0  0  0  0  0  0  0  0
  -20.8830  -28.1800   23.1630 C   0  0  0  0  0  3  0  0  0  0  0  0
  -21.0330  -26.7330   22.6400 C   0  0  0  0  0  2  0  0  0  0  0  0
  -19.9950  -26.3650   21.5740 C   0  0  0  0  0  2  0  0  0  0  0  0
  -18.5770  -26.5120   22.1350 C   0  0  0  0  0  2  0  0  0  0  0  0
  -19.4320  -28.6690   23.2240 C   0  0  0  0  0  0  0  0  0  0  0  0
  -19.1660  -29.9470   23.7620 C   0  0  0  0  0  3  0  0  0  0  0  0
  -17.8490  -30.4370   23.8380 C   0  0  0  0  0  3  0  0  0  0  0  0
  -16.7780  -29.6450   23.3870 C   0  0  0  0  0  3  0  0  0  0  0  0
  -17.0270  -28.3690   22.8530 C   0  0  0  0  0  3  0  0  0  0  0  0
  -25.9560  -32.5560   24.0070 C   0  0  0  0  0  3  0  0  0  0  0  0
  -25.5650  -33.9510   24.2560 N   0  0  0  0  0  0  0  0  0  0  0  0
  -25.9050  -34.9860   23.4750 C   0  0  0  0  0  0  0  0  0  0  0  0
  -26.6500  -34.8710   22.4980 O   0  0  0  0  0  0  0  0  0  0  0  0
  -24.9100  -34.1110   25.0080 H   0  0  0  0  0  0  0  0  0  0  0  0
  -24.1240  -36.6730   22.9300 C   0  0  0  0  0  1  0  0  0  0  0  0
  -25.3270  -36.3660   23.8360 C   0  0  0  0  0  3  0  0  0  0  0  0
  -27.3610  -37.3840   24.7570 C   0  0  0  0  0  1  0  0  0  0  0  0
  -26.3140  -37.4630   23.7420 N   0  0  0  0  0  0  0  0  0  0  0  0
  -25.8590  -38.3660   23.8280 H   0  0  0  0  0  0  0  0  0  0  0  0
  -26.4110  -31.8560   25.3470 C   0  0  1  0  0  0  0  0  0  0  0  0
  -25.2520  -31.6000   26.3390 C   0  0  0  0  0  1  0  0  0  0  0  0
  -27.0860  -30.4960   25.0500 C   0  0  0  0  0  1  0  0  0  0  0  0
  -27.4680  -32.7300   26.0630 C   0  0  0  0  0  1  0  0  0  0  0  0
  1  5  1  0
  3  1  2  0
  3  4  1  0
  4  6  2  0
  5 16  1  0
  5  2  2  0
  6  2  1  0
  6 51  1  0
  7  4  1  0
  8 16  1  0
  9 14  1  0
 10 11  1  0
 10  9  1  0
 12 11  1  0
 12 21  1  0
 12 13  1  0
 14  8  1  0
 14 13  1  0
 15  8  2  0
 16 17  1  0
 18 19  2  0
 19 38  1  0
 20 19  1  0
 20 23  1  0
 21 18  1  0
 21 22  1  0
 22 20  2  0
 23 24  1  0
 24 25  2  0
 26 29  1  0
 26 25  1  0
 27 26  2  0
 28 27  1  0
 28 23  2  0
 29 30  1  0
 30 31  1  0
 31 32  2  0
 33 32  1  0
 33 37  1  0
 34 33  2  0
 35 30  2  0
 35 34  1  0
 36 35  1  0
 38 39  1  0
 39 42  1  0
 39 41  1  0
 40 38  2  0
 43 44  1  0
 43 18  1  0
 45 43  1  0
 46  3  1  0
 47 46  1  0
 47 49  1  0
 48 46  2  0
 50 47  1  0
 52 53  1  0
 52 51  1  0
 54 55  1  0
 54 53  1  0
 56 55  1  0
 57 68  2  0
 58 56  1  0
 58 63  1  0
 59 67  1  0
 59 69  1  0
 60 62  1  0
 61 67  1  0
 62 63  2  0
 62 61  1  0
 64 58  2  0
 65 64  1  0
 65 60  2  0
 66 60  1  0
 66 59  1  0
 67 57  1  0
 69 71  2  0
 70 69  1  0
 72 70  1  0
 73 82  2  0
 73 78  1  0
 74 70  1  0
 74 78  1  0
 75 74  1  0
 76 77  1  0
 76 75  1  0
 77 73  1  0
 78 79  2  0
 79 80  1  0
 81 80  2  0
 82 81  1  0
 83 57  1  0
 83 84  1  0
 83 93  1  0
 84 87  1  0
 85 89  1  0
 85 84  1  0
 86 85  2  0
 89 88  1  0
 91 92  1  0
 91 89  1  0
 91 90  1  0
 93 96  1  1
 93 94  1  0
 95 93  1  0
M  ISO  4   8 100  16 100  55 101  56 101
M  END
>  <TORSDO>  (6) 
F 22

>  <SCORE>  (6) 
-11.572

>  <name>  (6) 
5

>  <ligand_id>  (6) 
5

>  <original_smiles>  (6) 
[H]c1c([H])c([H])c2c(c1[H])C([H])([H])C([H])([H])C([H])([H])C2([H])N([H])C(=O)C1([H])N(C(=O)C([H])(N([H])C(=O)C([H])(N([H])C([H])([H])[H])C([H])([H])[H])C(C([H])([H])[H])(C([H])([H])[H])C([H])([H])[H])C([H])([H])c2c([H])c(OC([H])([H])C([H])([H])C([H])([H])C([H])([H])Oc3c([H])c(N([H])C(=O)N4C([H])([H])C([H])([H])C([H])([H])C([H])(n5nc(-c6c([H])c([H])c(Oc7c([H])c([H])c(F)c([H])c7F)c([H])c6[H])c(C(=O)N([H])[H])c5N([H])[H])C4([H])[H])c([H])c(C(=O)N([H])[H])c3C([H])([H])[H])c([H])c([H])c2C1([H])[H]

>  <smiles>  (6) 
[H]c1c([H])c([H])c2c(c1[H])C([H])([H])C([H])([H])C([H])([H])C2([H])N([H])C(=O)C1([H])N(C(=O)C([H])(N([H])C(=O)C([H])(N([H])C([H])([H])[H])C([H])([H])[H])C(C([H])([H])[H])(C([H])([H])[H])C([H])([H])[H])C([H])([H])c2c([H])c(OC([H])([H])C([H])([H])C([H])([H])C([H])([H])Oc3c([H])c(N([H])C(=O)N4C([H])([H])C([H])([H])C([H])([H])C([H])(n5nc(-c6c([H])c([H])c(Oc7c([H])c([H])c(F)c([H])c7F)c([H])c6[H])c(C(=O)N([H])[H])c5N([H])[H])C4([H])[H])c([H])c(C(=O)N([H])[H])c3C([H])([H])[H])c([H])c([H])c2C1([H])[H]

$$$$
6:0:0
     RDKit          3D

 94102  0  0  1  0  0  0  0  0999 V2000
  -30.5170  -19.7270   21.2650 C   0  0  0  0  0  3  0  0  0  0  0  0
  -28.6500  -17.8720   20.4170 C   0  0  0  0  0  3  0  0  0  0  0  0
  -30.8580  -18.3340   21.2280 C   0  0  0  0  0  0  0  0  0  0  0  0
  -29.2730  -20.2510   20.8160 C   0  0  0  0  0  0  0  0  0  0  0  0
  -29.9310  -17.3440   20.7610 C   0  0  0  0  0  0  0  0  0  0  0  0
  -28.3210  -19.2750   20.4110 C   0  0  0  0  0  0  0  0  0  0  0  0
  -32.2670  -17.9640   21.6470 C   0  0  0  0  0  1  0  0  0  0  0  0
  -30.9000  -14.9090   21.0200 C   0  0  0  0  0  0  0  0  0  0  0  0
  -30.8180  -12.5580   20.2080 C   0  0  0  0  0  2  0  0  0  0  0  0
  -30.0110  -12.4390   18.8960 C   0  0  0  0  0  2  0  0  0  0  0  0
  -28.5030  -12.3180   19.1850 C   0  0  0  0  0  2  0  0  0  0  0  0
  -27.9870  -13.3230   20.2490 C   0  0  0  0  0  3  0  0  0  0  0  0
  -28.9180  -13.3910   21.4740 C   0  0  0  0  0  2  0  0  0  0  0  0
  -30.2610  -13.6940   20.9720 N   0  0  0  0  0  0  0  0  0  0  0  0
  -32.1340  -14.9190   21.0720 O   0  0  0  0  0  0  0  0  0  0  0  0
  -30.2790  -15.9580   20.3270 N   0  0  0  0  0  0  0  0  0  0  0  0
  -25.5380  -13.9330   20.7100 C   0  0  0  0  0  0  0  0  0  0  0  0
  -24.4350  -13.1680   20.9780 C   0  0  0  0  0  0  0  0  0  0  0  0
  -24.8990  -11.8180   21.0440 C   0  0  0  0  0  0  0  0  0  0  0  0
  -26.6010  -13.0500   20.6160 N   0  0  0  0  0  0  0  0  0  0  0  0
  -26.2170  -11.7760   20.8870 N   0  0  0  0  0  0  0  0  0  0  0  0
  -24.1590  -10.5580   21.1840 C   0  0  0  0  0  0  0  0  0  0  0  0
  -24.5100   -9.6000   22.1620 C   0  0  0  0  0  3  0  0  0  0  0  0
  -23.7680   -8.4070   22.2950 C   0  0  0  0  0  3  0  0  0  0  0  0
  -22.6610   -8.1630   21.4470 C   0  0  0  0  0  0  0  0  0  0  0  0
  -22.3280   -9.1090   20.4610 C   0  0  0  0  0  3  0  0  0  0  0  0
  -23.0720  -10.2940   20.3280 C   0  0  0  0  0  3  0  0  0  0  0  0
  -21.8980   -7.0210   21.4870 O   0  0  0  0  0  0  0  0  0  0  0  0
  -21.7650   -6.2830   22.6370 C   0  0  0  0  0  0  0  0  0  0  0  0
  -21.2210   -6.8350   23.8170 C   0  0  0  0  0  3  0  0  0  0  0  0
  -21.0390   -6.0240   24.9550 C   0  0  0  0  0  3  0  0  0  0  0  0
  -21.3890   -4.6600   24.9130 C   0  0  0  0  0  0  0  0  0  0  0  0
  -21.9260   -4.1080   23.7360 C   0  0  0  0  0  3  0  0  0  0  0  0
  -22.1100   -4.9170   22.6010 C   0  0  0  0  0  0  0  0  0  0  0  0
  -22.6070   -4.3750   21.4640 F   0  0  0  0  0  0  0  0  0  0  0  0
  -21.2060   -3.8780   26.0020 F   0  0  0  0  0  0  0  0  0  0  0  0
  -23.0180  -13.6500   21.0730 C   0  0  0  0  0  0  0  0  0  0  0  0
  -22.1960  -12.9880   21.8800 N   0  0  0  0  0  0  0  0  0  0  0  0
  -22.6420  -14.6520   20.4670 O   0  0  0  0  0  0  0  0  0  0  0  0
  -22.5110  -12.1840   22.4020 H   0  0  0  0  0  0  0  0  0  0  0  0
  -21.2410  -13.2960   21.9850 H   0  0  0  0  0  0  0  0  0  0  0  0
  -25.7210  -15.2990   20.5100 N   0  0  0  0  0  0  0  0  0  0  0  0
  -24.9480  -15.9550   20.5280 H   0  0  0  0  0  0  0  0  0  0  0  0
  -26.6120  -15.7260   20.3010 H   0  0  0  0  0  0  0  0  0  0  0  0
  -29.6570  -16.3750   17.8720 C   0  0  0  0  0  1  0  0  0  0  0  0
  -30.7310  -15.9910   18.9110 C   0  0  0  0  0  2  0  0  0  0  0  0
  -29.0140  -22.4180   19.7920 C   0  0  0  0  0  3  0  0  0  0  0  0
  -28.9730  -21.6710   20.8610 N   0  0  0  0  0  0  0  0  0  0  0  0
  -28.7670  -23.9490   19.4240 C   0  0  0  0  0  0  0  0  0  0  0  0
  -29.0650  -24.3120   18.2790 O   0  0  0  0  0  0  0  0  0  0  0  0
  -28.1340  -25.0600   20.3560 C   0  0  0  0  0  2  0  0  0  0  0  0
  -28.2500  -26.4700   19.8520 O   0  0  0  0  0  0  0  0  0  0  0  0
  -24.5170  -31.7570   23.0860 C   0  0  0  0  0  0  0  0  0  0  0  0
  -27.1200  -27.3050   19.8740 C   0  0  0  0  0  0  0  0  0  0  0  0
  -23.2990  -30.3950   21.4250 C   0  0  0  0  0  3  0  0  0  0  0  0
  -24.7400  -28.8930   19.9380 C   0  0  0  0  0  0  0  0  0  0  0  0
  -25.8340  -30.7470   21.2050 C   0  0  0  0  0  2  0  0  0  0  0  0
  -25.9170  -29.3880   20.5160 C   0  0  0  0  0  0  0  0  0  0  0  0
  -27.1130  -28.6110   20.4610 C   0  0  0  0  0  3  0  0  0  0  0  0
  -25.9190  -26.8600   19.2860 C   0  0  0  0  0  3  0  0  0  0  0  0
  -24.7420  -27.6350   19.3160 C   0  0  0  0  0  3  0  0  0  0  0  0
  -23.4980  -29.7560   20.0250 C   0  0  0  0  0  2  0  0  0  0  0  0
  -24.5710  -30.9830   21.9620 N   0  0  0  0  0  0  0  0  0  0  0  0
  -23.4410  -32.0040   23.6480 O   0  0  0  0  0  0  0  0  0  0  0  0
  -22.6630  -29.3460   22.3690 C   0  0  0  0  0  0  0  0  0  0  0  0
  -21.3400  -29.1430   22.2450 N   0  0  0  0  0  0  0  0  0  0  0  0
  -23.3600  -28.7160   23.1700 O   0  0  0  0  0  0  0  0  0  0  0  0
  -20.8370  -29.7010   21.5700 H   0  0  0  0  0  0  0  0  0  0  0  0
  -17.9960  -27.8520   22.7310 C   0  0  0  0  0  0  0  0  0  0  0  0
  -20.5470  -28.1730   23.0020 C   0  0  0  0  0  3  0  0  0  0  0  0
  -20.6840  -26.7530   22.4020 C   0  0  0  0  0  2  0  0  0  0  0  0
  -19.5890  -26.4200   21.3830 C   0  0  0  0  0  2  0  0  0  0  0  0
  -18.2060  -26.5200   22.0320 C   0  0  0  0  0  2  0  0  0  0  0  0
  -19.0950  -28.6340   23.1730 C   0  0  0  0  0  0  0  0  0  0  0  0
  -18.8460  -29.8800   23.7900 C   0  0  0  0  0  3  0  0  0  0  0  0
  -17.5290  -30.3440   23.9690 C   0  0  0  0  0  3  0  0  0  0  0  0
  -16.4440  -29.5590   23.5430 C   0  0  0  0  0  3  0  0  0  0  0  0
  -16.6780  -28.3150   22.9300 C   0  0  0  0  0  3  0  0  0  0  0  0
  -25.8040  -32.3860   23.7030 C   0  0  0  0  0  3  0  0  0  0  0  0
  -25.4840  -33.7730   24.0720 N   0  0  0  0  0  0  0  0  0  0  0  0
  -25.8100  -34.8510   23.3460 C   0  0  0  0  0  0  0  0  0  0  0  0
  -26.4820  -34.7820   22.3120 O   0  0  0  0  0  0  0  0  0  0  0  0
  -24.8860  -33.8980   24.8750 H   0  0  0  0  0  0  0  0  0  0  0  0
  -24.0920  -36.6600   23.0260 C   0  0  0  0  0  1  0  0  0  0  0  0
  -25.3170  -36.2240   23.8440 C   0  0  0  0  0  3  0  0  0  0  0  0
  -27.4310  -37.0800   24.7530 C   0  0  0  0  0  1  0  0  0  0  0  0
  -26.3530  -37.2770   23.7880 N   0  0  0  0  0  0  0  0  0  0  0  0
  -25.9450  -38.1950   23.9510 H   0  0  0  0  0  0  0  0  0  0  0  0
  -26.3440  -31.5910   24.9540 C   0  0  1  0  0  0  0  0  0  0  0  0
  -25.2690  -31.3290   26.0350 C   0  0  0  0  0  1  0  0  0  0  0  0
  -26.9240  -30.2220   24.5290 C   0  0  0  0  0  1  0  0  0  0  0  0
  -27.5020  -32.3760   25.6130 C   0  0  0  0  0  1  0  0  0  0  0  0
  -26.1160  -18.8560   19.5410 C   0  0  0  0  0  1  0  0  0  0  0  0
  -27.0990  -19.7700   20.0010 O   0  0  0  0  0  0  0  0  0  0  0  0
  2  5  1  0
  3  1  1  0
  3  7  1  0
  4 48  1  0
  4  1  2  0
  5  3  2  0
  6  2  2  0
  6  4  1  0
  8 15  2  0
  9 14  1  0
 10 11  1  0
 10  9  1  0
 12 11  1  0
 12 20  1  0
 12 13  1  0
 14  8  1  0
 14 13  1  0
 16  5  1  0
 16  8  1  0
 17 18  2  0
 18 19  1  0
 18 37  1  0
 19 22  1  0
 20 17  1  0
 20 21  1  0
 21 19  2  0
 22 23  1  0
 23 24  2  0
 25 28  1  0
 25 24  1  0
 26 25  2  0
 27 26  1  0
 27 22  2  0
 28 29  1  0
 29 30  1  0
 30 31  2  0
 32 31  1  0
 32 36  1  0
 33 32  2  0
 34 29  2  0
 34 33  1  0
 35 34  1  0
 37 38  1  0
 38 41  1  0
 38 40  1  0
 39 37  2  0
 42 43  1  0
 42 17  1  0
 44 42  1  0
 45 46  1  0
 46 16  1  0
 47 48  2  0
 49 47  1  0
 49 51  1  0
 50 49  2  0
 52 54  1  0
 52 51  1  0
 53 64  2  0
 54 59  1  0
 55 63  1  0
 55 65  1  0
 56 62  1  0
 56 58  1  0
 57 63  1  0
 58 57  1  0
 59 58  2  0
 60 61  1  0
 60 54  2  0
 61 56  2  0
 62 55  1  0
 63 53  1  0
 65 67  2  0
 66 65  1  0
 68 66  1  0
 69 78  2  0
 69 74  1  0
 70 66  1  0
 70 74  1  0
 71 70  1  0
 72 73  1  0
 72 71  1  0
 73 69  1  0
 74 75  2  0
 75 76  1  0
 77 76  2  0
 78 77  1  0
 79 53  1  0
 79 80  1  0
 79 89  1  0
 80 83  1  0
 81 85  1  0
 81 80  1  0
 82 81  2  0
 85 84  1  0
 87 85  1  0
 87 88  1  0
 87 86  1  0
 89 92  1  1
 89 90  1  0
 91 89  1  0
 93 94  1  0
 94  6  1  0
M  ISO  4   8 100  16 100  51 101  52 101
M  END
>  <TORSDO>  (7) 
F 21

>  <SCORE>  (7) 
-11.137

>  <name>  (7) 
6

>  <ligand_id>  (7) 
6

>  <original_smiles>  (7) 
[H]C(=Nc1c([H])c(C([H])([H])[H])c(N(C(=O)N2C([H])([H])C([H])([H])C([H])([H])C([H])(n3nc(-c4c([H])c([H])c(Oc5c([H])c([H])c(F)c([H])c5F)c([H])c4[H])c(C(=O)N([H])[H])c3N([H])[H])C2([H])[H])C([H])([H])C([H])([H])[H])c([H])c1OC([H])([H])[H])C(=O)C([H])([H])Oc1c([H])c([H])c2c(c1[H])C([H])([H])N(C(=O)C([H])(N([H])C(=O)C([H])(N([H])C([H])([H])[H])C([H])([H])[H])C(C([H])([H])[H])(C([H])([H])[H])C([H])([H])[H])C([H])(C(=O)N([H])C1([H])c3c([H])c([H])c([H])c([H])c3C([H])([H])C([H])([H])C1([H])[H])C2([H])[H]

>  <smiles>  (7) 
[H]C(=Nc1c([H])c(C([H])([H])[H])c(N(C(=O)N2C([H])([H])C([H])([H])C([H])([H])C([H])(n3nc(-c4c([H])c([H])c(Oc5c([H])c([H])c(F)c([H])c5F)c([H])c4[H])c(C(=O)N([H])[H])c3N([H])[H])C2([H])[H])C([H])([H])C([H])([H])[H])c([H])c1OC([H])([H])[H])C(=O)C([H])([H])Oc1c([H])c([H])c2c(c1[H])C([H])([H])N(C(=O)C([H])(N([H])C(=O)C([H])(N([H])C([H])([H])[H])C([H])([H])[H])C(C([H])([H])[H])(C([H])([H])[H])C([H])([H])[H])C([H])(C(=O)N([H])C1([H])c3c([H])c([H])c([H])c([H])c3C([H])([H])C([H])([H])C1([H])[H])C2([H])[H]

$$$$
7:0:0
     RDKit          3D

 97105  0  0  1  0  0  0  0  0999 V2000
  -31.0590  -17.8510   19.8540 C   0  0  0  0  0  3  0  0  0  0  0  0
  -28.6690  -19.2590   20.3160 C   0  0  0  0  0  3  0  0  0  0  0  0
  -30.9900  -19.2640   19.6670 C   0  0  0  0  0  0  0  0  0  0  0  0
  -28.7360  -17.8430   20.5070 C   0  0  0  0  0  0  0  0  0  0  0  0
  -29.9270  -17.1020   20.2750 C   0  0  0  0  0  0  0  0  0  0  0  0
  -29.7970  -20.0090   19.8960 C   0  0  0  0  0  0  0  0  0  0  0  0
  -30.6270  -14.6160   19.9800 C   0  0  0  0  0  0  0  0  0  0  0  0
  -30.3460  -12.3940   18.9050 C   0  0  0  0  0  2  0  0  0  0  0  0
  -29.3250  -12.5520   17.7550 C   0  0  0  0  0  2  0  0  0  0  0  0
  -27.8830  -12.3840   18.2760 C   0  0  0  0  0  2  0  0  0  0  0  0
  -27.6070  -13.2220   19.5540 C   0  0  0  0  0  3  0  0  0  0  0  0
  -28.7380  -13.0450   20.5930 C   0  0  0  0  0  2  0  0  0  0  0  0
  -30.0090  -13.3940   19.9360 N   0  0  0  0  0  0  0  0  0  0  0  0
  -31.7550  -14.7810   19.5050 O   0  0  0  0  0  0  0  0  0  0  0  0
  -29.8620  -15.6500   20.4380 N   0  0  0  0  0  0  0  0  0  0  0  0
  -28.9840  -15.3530   20.8330 H   0  0  0  0  0  0  0  0  0  0  0  0
  -25.2680  -13.8030   20.4470 C   0  0  0  0  0  0  0  0  0  0  0  0
  -24.2230  -13.0210   20.8590 C   0  0  0  0  0  0  0  0  0  0  0  0
  -24.6770  -11.6710   20.7600 C   0  0  0  0  0  0  0  0  0  0  0  0
  -26.2930  -12.9290   20.1200 N   0  0  0  0  0  0  0  0  0  0  0  0
  -25.9450  -11.6390   20.3660 N   0  0  0  0  0  0  0  0  0  0  0  0
  -23.9610  -10.4050   20.9640 C   0  0  0  0  0  0  0  0  0  0  0  0
  -24.4160   -9.4380   21.8880 C   0  0  0  0  0  3  0  0  0  0  0  0
  -23.7000   -8.2370   22.0790 C   0  0  0  0  0  3  0  0  0  0  0  0
  -22.5130   -7.9950   21.3490 C   0  0  0  0  0  0  0  0  0  0  0  0
  -22.0750   -8.9510   20.4150 C   0  0  0  0  0  3  0  0  0  0  0  0
  -22.7930  -10.1430   20.2200 C   0  0  0  0  0  3  0  0  0  0  0  0
  -21.7660   -6.8460   21.4490 O   0  0  0  0  0  0  0  0  0  0  0  0
  -21.6990   -6.1310   22.6180 C   0  0  0  0  0  0  0  0  0  0  0  0
  -21.2190   -6.7030   23.8150 C   0  0  0  0  0  3  0  0  0  0  0  0
  -21.1010   -5.9140   24.9770 C   0  0  0  0  0  3  0  0  0  0  0  0
  -21.4540   -4.5510   24.9400 C   0  0  0  0  0  0  0  0  0  0  0  0
  -21.9280   -3.9780   23.7480 C   0  0  0  0  0  3  0  0  0  0  0  0
  -22.0480   -4.7650   22.5890 C   0  0  0  0  0  0  0  0  0  0  0  0
  -22.4840   -4.2030   21.4360 F   0  0  0  0  0  0  0  0  0  0  0  0
  -21.3350   -3.7890   26.0520 F   0  0  0  0  0  0  0  0  0  0  0  0
  -22.8500  -13.4940   21.2410 C   0  0  0  0  0  0  0  0  0  0  0  0
  -22.1840  -12.7800   22.1430 N   0  0  0  0  0  0  0  0  0  0  0  0
  -22.3770  -14.5290   20.7740 O   0  0  0  0  0  0  0  0  0  0  0  0
  -22.5790  -11.9420   22.5430 H   0  0  0  0  0  0  0  0  0  0  0  0
  -21.2660  -13.0790   22.4400 H   0  0  0  0  0  0  0  0  0  0  0  0
  -25.4230  -15.1790   20.3090 N   0  0  0  0  0  0  0  0  0  0  0  0
  -24.6810  -15.8240   20.5530 H   0  0  0  0  0  0  0  0  0  0  0  0
  -26.3070  -15.6510   20.1500 H   0  0  0  0  0  0  0  0  0  0  0  0
  -32.1220  -19.9500   19.2180 N   0  0  0  0  0  0  0  0  0  0  0  0
  -32.8600  -19.3870   18.8090 H   0  0  0  0  0  0  0  0  0  0  0  0
  -31.9200  -20.7590   18.6420 H   0  0  0  0  0  0  0  0  0  0  0  0
  -27.5990  -17.1550   20.9410 N   0  0  0  0  0  0  0  0  0  0  0  0
  -26.8150  -17.7340   21.2220 H   0  0  0  0  0  0  0  0  0  0  0  0
  -27.7660  -16.4410   21.6410 H   0  0  0  0  0  0  0  0  0  0  0  0
  -29.8150  -21.4310   19.6980 N   0  0  0  0  0  0  0  0  0  0  0  0
  -30.7270  -21.8370   19.5120 H   0  0  0  0  0  0  0  0  0  0  0  0
  -28.7460  -22.4190   20.0490 C   0  0  0  0  0  2  0  0  0  0  0  0
  -29.0450  -23.9420   19.7330 C   0  0  0  0  0  0  0  0  0  0  0  0
  -30.1000  -24.2550   19.1690 O   0  0  0  0  0  0  0  0  0  0  0  0
  -27.9930  -25.0400   20.1520 C   0  0  0  0  0  2  0  0  0  0  0  0
  -28.2610  -26.4380   19.7380 O   0  0  0  0  0  0  0  0  0  0  0  0
  -24.5830  -31.7090   23.0260 C   0  0  0  0  0  0  0  0  0  0  0  0
  -27.1530  -27.2940   19.7510 C   0  0  0  0  0  0  0  0  0  0  0  0
  -23.3600  -30.3910   21.3340 C   0  0  0  0  0  3  0  0  0  0  0  0
  -24.7930  -28.9030   19.8300 C   0  0  0  0  0  0  0  0  0  0  0  0
  -25.8980  -30.7110   21.1450 C   0  0  0  0  0  2  0  0  0  0  0  0
  -25.9670  -29.3630   20.4390 C   0  0  0  0  0  0  0  0  0  0  0  0
  -27.1530  -28.5710   20.3900 C   0  0  0  0  0  3  0  0  0  0  0  0
  -25.9610  -26.8920   19.1090 C   0  0  0  0  0  3  0  0  0  0  0  0
  -24.7900  -27.6730   19.1560 C   0  0  0  0  0  3  0  0  0  0  0  0
  -23.5600  -29.7770   19.9240 C   0  0  0  0  0  2  0  0  0  0  0  0
  -24.6330  -30.9510   21.8940 N   0  0  0  0  0  0  0  0  0  0  0  0
  -23.5050  -31.9670   23.5810 O   0  0  0  0  0  0  0  0  0  0  0  0
  -22.6990  -29.3350   22.2520 C   0  0  0  0  0  0  0  0  0  0  0  0
  -21.3660  -29.2000   22.1580 N   0  0  0  0  0  0  0  0  0  0  0  0
  -23.3850  -28.6420   23.0100 O   0  0  0  0  0  0  0  0  0  0  0  0
  -20.8740  -29.8100   21.5200 H   0  0  0  0  0  0  0  0  0  0  0  0
  -17.9650  -28.1200   22.7490 C   0  0  0  0  0  0  0  0  0  0  0  0
  -20.5440  -28.2410   22.8970 C   0  0  0  0  0  3  0  0  0  0  0  0
  -20.5440  -26.8580   22.2060 C   0  0  0  0  0  2  0  0  0  0  0  0
  -19.3770  -26.6680   21.2320 C   0  0  0  0  0  2  0  0  0  0  0  0
  -18.0400  -26.8230   21.9620 C   0  0  0  0  0  2  0  0  0  0  0  0
  -19.1400  -28.7940   23.1740 C   0  0  0  0  0  0  0  0  0  0  0  0
  -19.0140  -30.0140   23.8740 C   0  0  0  0  0  3  0  0  0  0  0  0
  -17.7460  -30.5590   24.1500 C   0  0  0  0  0  3  0  0  0  0  0  0
  -16.5850  -29.8790   23.7400 C   0  0  0  0  0  3  0  0  0  0  0  0
  -16.6960  -28.6620   23.0450 C   0  0  0  0  0  3  0  0  0  0  0  0
  -25.8740  -32.3060   23.6680 C   0  0  0  0  0  3  0  0  0  0  0  0
  -25.5750  -33.6890   24.0620 N   0  0  0  0  0  0  0  0  0  0  0  0
  -25.8970  -34.7710   23.3420 C   0  0  0  0  0  0  0  0  0  0  0  0
  -26.5480  -34.7100   22.2950 O   0  0  0  0  0  0  0  0  0  0  0  0
  -24.9970  -33.8110   24.8800 H   0  0  0  0  0  0  0  0  0  0  0  0
  -24.1680  -36.5810   23.0990 C   0  0  0  0  0  1  0  0  0  0  0  0
  -25.4250  -36.1420   23.8670 C   0  0  0  0  0  3  0  0  0  0  0  0
  -27.5750  -36.9920   24.6930 C   0  0  0  0  0  1  0  0  0  0  0  0
  -26.4580  -37.1960   23.7750 N   0  0  0  0  0  0  0  0  0  0  0  0
  -26.0570  -38.1110   23.9610 H   0  0  0  0  0  0  0  0  0  0  0  0
  -26.3940  -31.4750   24.9040 C   0  0  1  0  0  0  0  0  0  0  0  0
  -25.3070  -31.1950   25.9690 C   0  0  0  0  0  1  0  0  0  0  0  0
  -26.9670  -30.1130   24.4470 C   0  0  0  0  0  1  0  0  0  0  0  0
  -27.5550  -32.2320   25.5940 C   0  0  0  0  0  1  0  0  0  0  0  0
  1  5  1  0
  2  4  1  0
  3  1  2  0
  3  6  1  0
  4 48  1  0
  5 15  1  0
  5  4  2  0
  6  2  2  0
  7 15  1  0
  8 13  1  0
  9 10  1  0
  9  8  1  0
 11 10  1  0
 11 20  1  0
 11 12  1  0
 13  7  1  0
 13 12  1  0
 14  7  2  0
 15 16  1  0
 17 18  2  0
 18 37  1  0
 19 18  1  0
 19 22  1  0
 20 21  1  0
 20 17  1  0
 21 19  2  0
 22 23  1  0
 23 24  2  0
 25 28  1  0
 25 24  1  0
 26 25  2  0
 27 26  1  0
 27 22  2  0
 28 29  1  0
 29 30  1  0
 30 31  2  0
 32 31  1  0
 32 36  1  0
 33 32  2  0
 34 29  2  0
 34 33  1  0
 35 34  1  0
 37 38  1  0
 38 41  1  0
 38 40  1  0
 39 37  2  0
 42 17  1  0
 42 43  1  0
 44 42  1  0
 45  3  1  0
 46 45  1  0
 47 45  1  0
 48 49  1  0
 48 50  1  0
 51  6  1  0
 51 53  1  0
 52 51  1  0
 54 53  1  0
 54 56  1  0
 55 54  2  0
 57 59  1  0
 57 56  1  0
 58 69  2  0
 59 64  1  0
 60 68  1  0
 60 70  1  0
 61 67  1  0
 61 63  1  0
 62 68  1  0
 63 62  1  0
 64 63  2  0
 65 66  1  0
 65 59  2  0
 66 61  2  0
 67 60  1  0
 68 58  1  0
 70 72  2  0
 71 70  1  0
 73 71  1  0
 74 83  2  0
 74 79  1  0
 75 71  1  0
 75 79  1  0
 76 75  1  0
 77 78  1  0
 77 76  1  0
 78 74  1  0
 79 80  2  0
 80 81  1  0
 82 81  2  0
 83 82  1  0
 84 58  1  0
 84 85  1  0
 84 94  1  0
 85 88  1  0
 86 90  1  0
 86 85  1  0
 87 86  2  0
 90 89  1  0
 92 90  1  0
 92 93  1  0
 92 91  1  0
 94 97  1  1
 94 95  1  0
 96 94  1  0
M  ISO  4   7 100  15 100  56 101  57 101
M  END
>  <TORSDO>  (8) 
F 22

>  <SCORE>  (8) 
-12.824

>  <name>  (8) 
7

>  <ligand_id>  (8) 
7

>  <original_smiles>  (8) 
[H]c1c([H])c([H])c2c(c1[H])C([H])([H])C([H])([H])C([H])([H])C2([H])N([H])C(=O)C1([H])N(C(=O)C([H])(N([H])C(=O)C([H])(N([H])C([H])([H])[H])C([H])([H])[H])C(C([H])([H])[H])(C([H])([H])[H])C([H])([H])[H])C([H])([H])c2c([H])c(OC([H])([H])C(=O)C([H])([H])N([H])c3c([H])c(N([H])[H])c(N([H])C(=O)N4C([H])([H])C([H])([H])C([H])([H])C([H])(n5nc(-c6c([H])c([H])c(Oc7c([H])c([H])c(F)c([H])c7F)c([H])c6[H])c(C(=O)N([H])[H])c5N([H])[H])C4([H])[H])c([H])c3N([H])[H])c([H])c([H])c2C1([H])[H]

>  <smiles>  (8) 
[H]c1c([H])c([H])c2c(c1[H])C([H])([H])C([H])([H])C([H])([H])C2([H])N([H])C(=O)C1([H])N(C(=O)C([H])(N([H])C(=O)C([H])(N([H])C([H])([H])[H])C([H])([H])[H])C(C([H])([H])[H])(C([H])([H])[H])C([H])([H])[H])C([H])([H])c2c([H])c(OC([H])([H])C(=O)C([H])([H])N([H])c3c([H])c(N([H])[H])c(N([H])C(=O)N4C([H])([H])C([H])([H])C([H])([H])C([H])(n5nc(-c6c([H])c([H])c(Oc7c([H])c([H])c(F)c([H])c7F)c([H])c6[H])c(C(=O)N([H])[H])c5N([H])[H])C4([H])[H])c([H])c3N([H])[H])c([H])c([H])c2C1([H])[H]

$$$$
8:0:0
     RDKit          3D

 95104  0  0  1  0  0  0  0  0999 V2000
  -34.9720  -19.8140   12.3340 C   0  0  0  0  0  0  0  0  0  0  0  0
  -34.3870  -20.1790   14.7330 C   0  0  0  0  0  2  0  0  0  0  0  0
  -34.4740  -21.6590   15.1530 C   0  0  0  0  0  2  0  0  0  0  0  0
  -35.9090  -22.0370   15.5580 C   0  0  0  0  0  2  0  0  0  0  0  0
  -36.9590  -21.5660   14.5220 C   0  0  0  0  0  3  0  0  0  0  0  0
  -36.7360  -20.0900   14.1370 C   0  0  0  0  0  2  0  0  0  0  0  0
  -35.3550  -19.9320   13.6470 N   0  0  0  0  0  0  0  0  0  0  0  0
  -33.7900  -19.9210   11.9940 O   0  0  0  0  0  0  0  0  0  0  0  0
  -35.8050  -21.1500    9.5510 C   0  0  0  0  0  3  0  0  0  0  0  0
  -37.3210  -20.9580    7.6450 C   0  0  0  0  0  3  0  0  0  0  0  0
  -37.4250  -19.3240    9.4650 C   0  0  0  0  0  0  0  0  0  0  0  0
  -36.3600  -19.9710   10.1730 C   0  0  0  0  0  0  0  0  0  0  0  0
  -36.2680  -21.6410    8.2760 C   0  0  0  0  0  0  0  0  0  0  0  0
  -37.8970  -19.8050    8.2190 C   0  0  0  0  0  0  0  0  0  0  0  0
  -38.0840  -18.0480    9.9820 C   0  0  0  0  0  2  0  0  0  0  0  0
  -37.7140  -17.6720   11.4080 C   0  0  0  0  0  2  0  0  0  0  0  0
  -36.2360  -17.9390   11.6520 C   0  0  0  0  0  2  0  0  0  0  0  0
  -35.9140  -19.3640   11.4470 N   0  0  0  0  0  0  0  0  0  0  0  0
  -39.5260  -21.5910   14.3380 C   0  0  0  0  0  0  0  0  0  0  0  0
  -40.5000  -22.0470   15.1840 C   0  0  0  0  0  0  0  0  0  0  0  0
  -39.8210  -22.5300   16.3440 C   0  0  0  0  0  0  0  0  0  0  0  0
  -38.3230  -21.8020   14.9930 N   0  0  0  0  0  0  0  0  0  0  0  0
  -38.5150  -22.3200   16.2350 N   0  0  0  0  0  0  0  0  0  0  0  0
  -40.3370  -23.2310   17.5280 C   0  0  0  0  0  0  0  0  0  0  0  0
  -40.0380  -22.7890   18.8360 C   0  0  0  0  0  3  0  0  0  0  0  0
  -40.5610  -23.4710   19.9570 C   0  0  0  0  0  3  0  0  0  0  0  0
  -41.3930  -24.6010   19.7770 C   0  0  0  0  0  0  0  0  0  0  0  0
  -41.6670  -25.0500   18.4720 C   0  0  0  0  0  3  0  0  0  0  0  0
  -41.1420  -24.3750   17.3580 C   0  0  0  0  0  3  0  0  0  0  0  0
  -41.9260  -25.3400   20.8060 O   0  0  0  0  0  0  0  0  0  0  0  0
  -41.6130  -25.0780   22.1160 C   0  0  0  0  0  0  0  0  0  0  0  0
  -42.3370  -24.1360   22.8810 C   0  0  0  0  0  3  0  0  0  0  0  0
  -42.0280  -23.9470   24.2420 C   0  0  0  0  0  3  0  0  0  0  0  0
  -41.0040  -24.7050   24.8440 C   0  0  0  0  0  0  0  0  0  0  0  0
  -40.2870  -25.6470   24.0860 C   0  0  0  0  0  3  0  0  0  0  0  0
  -40.5930  -25.8340   22.7260 C   0  0  0  0  0  0  0  0  0  0  0  0
  -39.9120  -26.7590   22.0060 F   0  0  0  0  0  0  0  0  0  0  0  0
  -40.7110  -24.5310   26.1540 F   0  0  0  0  0  0  0  0  0  0  0  0
  -41.9710  -22.1200   14.8940 C   0  0  0  0  0  0  0  0  0  0  0  0
  -42.7890  -21.4570   15.7050 N   0  0  0  0  0  0  0  0  0  0  0  0
  -42.4010  -22.7300   13.9160 O   0  0  0  0  0  0  0  0  0  0  0  0
  -42.4350  -20.9410   16.4960 H   0  0  0  0  0  0  0  0  0  0  0  0
  -43.7850  -21.4670   15.5340 H   0  0  0  0  0  0  0  0  0  0  0  0
  -39.5600  -21.0340   13.0620 N   0  0  0  0  0  0  0  0  0  0  0  0
  -40.4290  -20.9060   12.5540 H   0  0  0  0  0  0  0  0  0  0  0  0
  -38.7460  -20.7610   12.5270 H   0  0  0  0  0  0  0  0  0  0  0  0
  -38.6710  -18.4440    6.3790 C   0  0  0  0  0  1  0  0  0  0  0  0
  -38.9220  -19.1030    7.6150 O   0  0  0  0  0  0  0  0  0  0  0  0
  -35.7290  -22.7960    7.6300 N   0  0  0  0  0  0  0  0  0  0  0  0
  -36.2120  -23.0820    6.7800 H   0  0  0  0  0  0  0  0  0  0  0  0
  -35.0590  -23.9080    8.3750 C   0  0  0  0  0  2  0  0  0  0  0  0
  -33.7500  -23.5520    9.1800 C   0  0  0  0  0  2  0  0  0  0  0  0
  -32.4100  -24.2910    8.7580 C   0  0  0  0  0  2  0  0  0  0  0  0
  -32.3780  -24.8590    7.2860 C   0  0  0  0  0  2  0  0  0  0  0  0
  -31.1060  -24.9190    6.5450 O   0  0  0  0  0  0  0  0  0  0  0  0
  -30.2520  -18.0720    8.6120 C   0  0  0  0  0  0  0  0  0  0  0  0
  -30.3700  -23.7310    6.4330 C   0  0  0  0  0  0  0  0  0  0  0  0
  -29.0810  -18.7490    6.5480 C   0  0  0  0  0  3  0  0  0  0  0  0
  -28.9660  -21.2620    6.1080 C   0  0  0  0  0  0  0  0  0  0  0  0
  -29.5620  -20.4650    8.3920 C   0  0  0  0  0  2  0  0  0  0  0  0
  -29.6220  -21.5380    7.3150 C   0  0  0  0  0  0  0  0  0  0  0  0
  -30.3120  -22.7730    7.4850 C   0  0  0  0  0  3  0  0  0  0  0  0
  -29.6680  -23.4230    5.2420 C   0  0  0  0  0  3  0  0  0  0  0  0
  -28.9790  -22.2090    5.0750 C   0  0  0  0  0  3  0  0  0  0  0  0
  -28.2560  -19.9310    5.9760 C   0  0  0  0  0  2  0  0  0  0  0  0
  -29.6790  -19.0720    7.8820 N   0  0  0  0  0  0  0  0  0  0  0  0
  -30.2570  -16.9000    8.2050 O   0  0  0  0  0  0  0  0  0  0  0  0
  -30.1300  -18.3140    5.4970 C   0  0  0  0  0  0  0  0  0  0  0  0
  -31.4220  -18.4590    5.8380 N   0  0  0  0  0  0  0  0  0  0  0  0
  -29.7780  -17.8370    4.4130 O   0  0  0  0  0  0  0  0  0  0  0  0
  -31.6280  -18.8710    6.7380 H   0  0  0  0  0  0  0  0  0  0  0  0
  -32.4090  -17.0970    2.6370 C   0  0  0  0  0  0  0  0  0  0  0  0
  -32.5760  -18.0830    5.0200 C   0  0  0  0  0  3  0  0  0  0  0  0
  -33.2130  -19.3240    4.3520 C   0  0  0  0  0  2  0  0  0  0  0  0
  -32.6710  -19.5950    2.9450 C   0  0  0  0  0  2  0  0  0  0  0  0
  -32.9230  -18.3930    2.0300 C   0  0  0  0  0  2  0  0  0  0  0  0
  -32.2320  -16.9580    4.0390 C   0  0  0  0  0  0  0  0  0  0  0  0
  -31.7200  -15.7440    4.5460 C   0  0  0  0  0  3  0  0  0  0  0  0
  -31.3950  -14.6830    3.6820 C   0  0  0  0  0  3  0  0  0  0  0  0
  -31.5870  -14.8210    2.2960 C   0  0  0  0  0  3  0  0  0  0  0  0
  -32.0950  -16.0250    1.7760 C   0  0  0  0  0  3  0  0  0  0  0  0
  -30.9050  -18.3470   10.0010 C   0  0  0  0  0  3  0  0  0  0  0  0
  -30.0460  -19.3040   10.7140 N   0  0  0  0  0  0  0  0  0  0  0  0
  -30.4480  -20.5030   11.1600 C   0  0  0  0  0  0  0  0  0  0  0  0
  -31.6170  -20.8890   11.0740 O   0  0  0  0  0  0  0  0  0  0  0  0
  -29.0640  -19.0740   10.7730 H   0  0  0  0  0  0  0  0  0  0  0  0
  -29.2420  -22.7030   10.9770 C   0  0  0  0  0  1  0  0  0  0  0  0
  -29.3880  -21.4160   11.8040 C   0  0  0  0  0  3  0  0  0  0  0  0
  -30.3570  -20.6890   13.9400 C   0  0  0  0  0  1  0  0  0  0  0  0
  -29.6830  -21.7600   13.2120 N   0  0  0  0  0  0  0  0  0  0  0  0
  -28.8280  -21.9940   13.7110 H   0  0  0  0  0  0  0  0  0  0  0  0
  -31.1110  -17.0400   10.8620 C   0  0  1  0  0  0  0  0  0  0  0  0
  -30.1270  -15.8990   10.5070 C   0  0  0  0  0  1  0  0  0  0  0  0
  -32.5470  -16.4910   10.6910 C   0  0  0  0  0  1  0  0  0  0  0  0
  -30.9450  -17.3700   12.3650 C   0  0  0  0  0  1  0  0  0  0  0  0
  1  7  1  0
  2  3  1  0
  3  4  1  0
  5  6  1  0
  5 22  1  0
  5  4  1  0
  7  6  1  0
  7  2  1  0
  8  1  2  0
  9 12  1  0
 10 14  2  0
 10 13  1  0
 11 15  1  0
 11 12  2  0
 12 18  1  0
 13  9  2  0
 14 11  1  0
 15 16  1  0
 16 17  1  0
 18 17  1  0
 18  1  1  0
 19 22  1  0
 19 20  2  0
 20 21  1  0
 21 24  1  0
 22 23  1  0
 23 21  2  0
 24 25  1  0
 25 26  2  0
 27 26  1  0
 27 30  1  0
 28 27  2  0
 29 24  2  0
 29 28  1  0
 30 31  1  0
 31 36  2  0
 31 32  1  0
 32 33  2  0
 33 34  1  0
 34 38  1  0
 35 34  2  0
 36 35  1  0
 37 36  1  0
 39 20  1  0
 39 40  1  0
 40 42  1  0
 41 39  2  0
 43 40  1  0
 44 19  1  0
 45 44  1  0
 46 44  1  0
 47 48  1  0
 48 14  1  0
 49 13  1  0
 49 51  1  0
 50 49  1  0
 51 52  1  0
 53 52  1  0
 54 53  1  0
 55 54  1  0
 57 55  1  0
 57 62  1  0
 58 68  1  0
 58 66  1  0
 59 61  1  0
 61 62  2  0
 61 60  1  0
 63 57  2  0
 64 63  1  0
 64 59  2  0
 65 59  1  0
 65 58  1  0
 66 60  1  0
 66 56  1  0
 67 56  2  0
 68 69  1  0
 69 71  1  0
 70 68  2  0
 72 77  1  0
 73 69  1  0
 74 73  1  0
 75 74  1  0
 76 72  1  0
 76 75  1  0
 77 78  2  0
 77 73  1  0
 79 78  1  0
 80 79  2  0
 81 80  1  0
 81 72  2  0
 82 56  1  0
 82 83  1  0
 82 92  1  0
 83 86  1  0
 83 84  1  0
 84 88  1  0
 85 84  2  0
 88 87  1  0
 88 90  1  0
 90 91  1  0
 90 89  1  0
 92 95  1  1
 93 92  1  0
 94 92  1  0
M  ISO  4   1 100  18 100  54 101  55 101
M  END
>  <TORSDO>  (9) 
F 21

>  <SCORE>  (9) 
-1.126

>  <name>  (9) 
8

>  <ligand_id>  (9) 
8

>  <original_smiles>  (9) 
[H]c1c([H])c([H])c2c(c1[H])C([H])([H])C([H])([H])C([H])([H])C2([H])N([H])C(=O)C1([H])N(C(=O)C([H])(N([H])C(=O)C([H])(N([H])C([H])([H])[H])C([H])([H])[H])C(C([H])([H])[H])(C([H])([H])[H])C([H])([H])[H])C([H])([H])c2c([H])c(OC([H])([H])C([H])([H])C([H])([H])C([H])([H])N([H])c3c([H])c(OC([H])([H])[H])c4c(c3[H])N(C(=O)N3C([H])([H])C([H])([H])C([H])([H])C([H])(n5nc(-c6c([H])c([H])c(Oc7c([H])c([H])c(F)c([H])c7F)c([H])c6[H])c(C(=O)N([H])[H])c5N([H])[H])C3([H])[H])C([H])([H])C([H])([H])C4([H])[H])c([H])c([H])c2C1([H])[H]

>  <smiles>  (9) 
[H]c1c([H])c([H])c2c(c1[H])C([H])([H])C([H])([H])C([H])([H])C2([H])N([H])C(=O)C1([H])N(C(=O)C([H])(N([H])C(=O)C([H])(N([H])C([H])([H])[H])C([H])([H])[H])C(C([H])([H])[H])(C([H])([H])[H])C([H])([H])[H])C([H])([H])c2c([H])c(OC([H])([H])C([H])([H])C([H])([H])C([H])([H])N([H])c3c([H])c(OC([H])([H])[H])c4c(c3[H])N(C(=O)N3C([H])([H])C([H])([H])C([H])([H])C([H])(n5nc(-c6c([H])c([H])c(Oc7c([H])c([H])c(F)c([H])c7F)c([H])c6[H])c(C(=O)N([H])[H])c5N([H])[H])C3([H])[H])C([H])([H])C([H])([H])C4([H])[H])c([H])c([H])c2C1([H])[H]

$$$$
9:0:0
     RDKit          3D

 99108  0  0  1  0  0  0  0  0999 V2000
  -29.3350  -23.9300   20.0270 C   0  0  0  0  0  0  0  0  0  0  0  0
  -29.1440  -22.5520   19.9700 C   0  0  0  0  0  0  0  0  0  0  0  0
  -32.3350  -22.6440   19.7560 C   0  0  0  0  0  0  0  0  0  0  0  0
  -30.6990  -24.5850   20.2570 C   0  0  0  0  0  2  0  0  0  0  0  0
  -31.8470  -24.0410   19.3800 C   0  0  0  0  0  2  0  0  0  0  0  0
  -31.4680  -21.8170   20.7000 C   0  0  0  0  0  2  0  0  0  0  0  0
  -27.7550  -22.0050   19.6560 C   0  0  0  0  0  1  0  0  0  0  0  0
  -30.1380  -21.5240   20.1530 N   0  0  0  0  0  0  0  0  0  0  0  0
  -33.3930  -22.2020   19.3040 O   0  0  0  0  0  0  0  0  0  0  0  0
  -29.4030  -19.3130   21.0860 C   0  0  0  0  0  3  0  0  0  0  0  0
  -30.7100  -19.3420   19.0730 C   0  0  0  0  0  3  0  0  0  0  0  0
  -29.4640  -17.8840   21.1080 C   0  0  0  0  0  0  0  0  0  0  0  0
  -30.0260  -20.0880   20.0730 C   0  0  0  0  0  0  0  0  0  0  0  0
  -30.7760  -17.9140   19.0750 C   0  0  0  0  0  0  0  0  0  0  0  0
  -30.1680  -17.1410   20.1120 C   0  0  0  0  0  0  0  0  0  0  0  0
  -28.7640  -17.1520   22.2460 C   0  0  0  0  0  1  0  0  0  0  0  0
  -30.8800  -14.6600   19.6330 C   0  0  0  0  0  0  0  0  0  0  0  0
  -30.5550  -12.4650   18.5210 C   0  0  0  0  0  2  0  0  0  0  0  0
  -29.4460  -12.6260   17.4570 C   0  0  0  0  0  2  0  0  0  0  0  0
  -28.0520  -12.4150   18.0820 C   0  0  0  0  0  2  0  0  0  0  0  0
  -27.8580  -13.2260   19.3920 C   0  0  0  0  0  3  0  0  0  0  0  0
  -29.0640  -13.0470   20.3420 C   0  0  0  0  0  2  0  0  0  0  0  0
  -30.2760  -13.4310   19.6010 N   0  0  0  0  0  0  0  0  0  0  0  0
  -31.9710  -14.8480   19.0870 O   0  0  0  0  0  0  0  0  0  0  0  0
  -30.1370  -15.6720   20.1820 N   0  0  0  0  0  0  0  0  0  0  0  0
  -29.3560  -15.3120   20.7050 H   0  0  0  0  0  0  0  0  0  0  0  0
  -25.6380  -13.7510   20.5770 C   0  0  0  0  0  0  0  0  0  0  0  0
  -24.6140  -12.9480   21.0000 C   0  0  0  0  0  0  0  0  0  0  0  0
  -25.0110  -11.6100   20.6990 C   0  0  0  0  0  0  0  0  0  0  0  0
  -26.5950  -12.8980   20.0480 N   0  0  0  0  0  0  0  0  0  0  0  0
  -26.2310  -11.5960   20.1800 N   0  0  0  0  0  0  0  0  0  0  0  0
  -24.2760  -10.3450   20.8210 C   0  0  0  0  0  0  0  0  0  0  0  0
  -24.7780   -9.2690   21.5870 C   0  0  0  0  0  3  0  0  0  0  0  0
  -24.0420   -8.0700   21.7060 C   0  0  0  0  0  3  0  0  0  0  0  0
  -22.7900   -7.9380   21.0610 C   0  0  0  0  0  0  0  0  0  0  0  0
  -22.3040   -9.0040   20.2820 C   0  0  0  0  0  3  0  0  0  0  0  0
  -23.0400  -10.1940   20.1590 C   0  0  0  0  0  3  0  0  0  0  0  0
  -22.0180   -6.8020   21.0980 O   0  0  0  0  0  0  0  0  0  0  0  0
  -22.0230   -5.9630   22.1850 C   0  0  0  0  0  0  0  0  0  0  0  0
  -21.7060   -6.4230   23.4800 C   0  0  0  0  0  3  0  0  0  0  0  0
  -21.6560   -5.5140   24.5570 C   0  0  0  0  0  3  0  0  0  0  0  0
  -21.9130   -4.1480   24.3380 C   0  0  0  0  0  0  0  0  0  0  0  0
  -22.2260   -3.6880   23.0460 C   0  0  0  0  0  3  0  0  0  0  0  0
  -22.2760   -4.5930   21.9720 C   0  0  0  0  0  0  0  0  0  0  0  0
  -22.5560   -4.1410   20.7250 F   0  0  0  0  0  0  0  0  0  0  0  0
  -21.8580   -3.2740   25.3690 F   0  0  0  0  0  0  0  0  0  0  0  0
  -23.3000  -13.4020   21.5660 C   0  0  0  0  0  0  0  0  0  0  0  0
  -22.7120  -12.6120   22.4580 N   0  0  0  0  0  0  0  0  0  0  0  0
  -22.8100  -14.4880   21.2570 O   0  0  0  0  0  0  0  0  0  0  0  0
  -23.1210  -11.7290   22.7260 H   0  0  0  0  0  0  0  0  0  0  0  0
  -21.8380  -12.8920   22.8790 H   0  0  0  0  0  0  0  0  0  0  0  0
  -25.8310  -15.1290   20.5760 N   0  0  0  0  0  0  0  0  0  0  0  0
  -25.1170  -15.7730   20.9000 H   0  0  0  0  0  0  0  0  0  0  0  0
  -26.6280  -15.5990   20.1650 H   0  0  0  0  0  0  0  0  0  0  0  0
  -31.4390  -17.2920   18.0210 N   0  0  0  0  0  0  0  0  0  0  0  0
  -32.1490  -17.8330   17.5430 H   0  0  0  0  0  0  0  0  0  0  0  0
  -31.7790  -16.3490   18.2490 H   0  0  0  0  0  0  0  0  0  0  0  0
  -28.1800  -24.9910   19.8330 C   0  0  0  0  0  2  0  0  0  0  0  0
  -28.4070  -26.4300   20.1460 O   0  0  0  0  0  0  0  0  0  0  0  0
  -24.7520  -31.8280   23.2660 C   0  0  0  0  0  0  0  0  0  0  0  0
  -27.2970  -27.2960   20.1080 C   0  0  0  0  0  0  0  0  0  0  0  0
  -23.5210  -30.4670   21.6150 C   0  0  0  0  0  3  0  0  0  0  0  0
  -24.9470  -28.9360   20.1470 C   0  0  0  0  0  0  0  0  0  0  0  0
  -26.0620  -30.7700   21.4130 C   0  0  0  0  0  2  0  0  0  0  0  0
  -26.1260  -29.4010   20.7420 C   0  0  0  0  0  0  0  0  0  0  0  0
  -27.3050  -28.5940   20.7120 C   0  0  0  0  0  3  0  0  0  0  0  0
  -26.0920  -26.8930   19.4870 C   0  0  0  0  0  3  0  0  0  0  0  0
  -24.9340  -27.6890   19.5080 C   0  0  0  0  0  3  0  0  0  0  0  0
  -23.7160  -29.8170   20.2220 C   0  0  0  0  0  2  0  0  0  0  0  0
  -24.7970  -31.0380   22.1540 N   0  0  0  0  0  0  0  0  0  0  0  0
  -23.6750  -32.1050   23.8140 O   0  0  0  0  0  0  0  0  0  0  0  0
  -22.8620  -29.4360   22.5660 C   0  0  0  0  0  0  0  0  0  0  0  0
  -21.5370  -29.2580   22.4410 N   0  0  0  0  0  0  0  0  0  0  0  0
  -23.5450  -28.8030   23.3760 O   0  0  0  0  0  0  0  0  0  0  0  0
  -21.0460  -29.8270   21.7650 H   0  0  0  0  0  0  0  0  0  0  0  0
  -18.1580  -28.0540   22.9260 C   0  0  0  0  0  0  0  0  0  0  0  0
  -20.7180  -28.3130   23.2020 C   0  0  0  0  0  3  0  0  0  0  0  0
  -20.8210  -26.8870   22.6120 C   0  0  0  0  0  2  0  0  0  0  0  0
  -19.7200  -26.5730   21.5960 C   0  0  0  0  0  2  0  0  0  0  0  0
  -18.3360  -26.7110   22.2390 C   0  0  0  0  0  2  0  0  0  0  0  0
  -19.2770  -28.8150   23.3630 C   0  0  0  0  0  0  0  0  0  0  0  0
  -19.0560  -30.0750   23.9610 C   0  0  0  0  0  3  0  0  0  0  0  0
  -17.7500  -30.5730   24.1310 C   0  0  0  0  0  3  0  0  0  0  0  0
  -16.6470  -29.8090   23.7090 C   0  0  0  0  0  3  0  0  0  0  0  0
  -16.8520  -28.5540   23.1100 C   0  0  0  0  0  3  0  0  0  0  0  0
  -26.0450  -32.4420   23.8860 C   0  0  0  0  0  3  0  0  0  0  0  0
  -26.5500  -31.6640   25.1620 C   0  0  1  0  0  0  0  0  0  0  0  0
  -25.4570  -31.4340   26.2330 C   0  0  0  0  0  1  0  0  0  0  0  0
  -27.1180  -30.2820   24.7650 C   0  0  0  0  0  1  0  0  0  0  0  0
  -27.7080  -32.4460   25.8240 C   0  0  0  0  0  1  0  0  0  0  0  0
  -25.7590  -33.8450   24.2150 N   0  0  0  0  0  0  0  0  0  0  0  0
  -26.0840  -34.8900   23.4440 C   0  0  0  0  0  0  0  0  0  0  0  0
  -26.7270  -34.7760   22.3970 O   0  0  0  0  0  0  0  0  0  0  0  0
  -25.1940  -34.0120   25.0350 H   0  0  0  0  0  0  0  0  0  0  0  0
  -24.3550  -36.6860   23.1410 C   0  0  0  0  0  1  0  0  0  0  0  0
  -25.6240  -36.2840   23.9080 C   0  0  0  0  0  3  0  0  0  0  0  0
  -27.7890  -37.1680   24.6510 C   0  0  0  0  0  1  0  0  0  0  0  0
  -26.6560  -37.3310   23.7440 N   0  0  0  0  0  0  0  0  0  0  0  0
  -26.2590  -38.2540   23.9000 H   0  0  0  0  0  0  0  0  0  0  0  0
  1  4  1  0
  2  1  2  0
  2  8  1  0
  3  6  1  0
  5  3  1  0
  5  4  1  0
  7  2  1  0
  8  6  1  0
  9  3  2  0
 10 12  1  0
 11 14  2  0
 11 13  1  0
 12 16  1  0
 13  8  1  0
 13 10  2  0
 14 15  1  0
 15 25  1  0
 15 12  2  0
 17 25  1  0
 18 23  1  0
 19 20  1  0
 19 18  1  0
 21 20  1  0
 21 30  1  0
 21 22  1  0
 23 17  1  0
 23 22  1  0
 24 17  2  0
 25 26  1  0
 27 28  2  0
 28 47  1  0
 29 32  1  0
 29 28  1  0
 30 31  1  0
 30 27  1  0
 31 29  2  0
 32 33  1  0
 33 34  2  0
 35 38  1  0
 35 34  1  0
 36 35  2  0
 37 36  1  0
 37 32  2  0
 38 39  1  0
 39 40  1  0
 40 41  2  0
 42 41  1  0
 42 46  1  0
 43 42  2  0
 44 39  2  0
 44 43  1  0
 45 44  1  0
 47 48  1  0
 48 50  1  0
 48 51  1  0
 49 47  2  0
 52 27  1  0
 52 53  1  0
 54 52  1  0
 55 57  1  0
 55 14  1  0
 56 55  1  0
 58  1  1  0
 58 59  1  0
 60 71  2  0
 61 59  1  0
 61 66  1  0
 62 70  1  0
 62 72  1  0
 63 69  1  0
 63 65  1  0
 64 70  1  0
 65 64  1  0
 66 65  2  0
 67 68  1  0
 67 61  2  0
 68 63  2  0
 69 62  1  0
 70 60  1  0
 72 74  2  0
 73 72  1  0
 75 73  1  0
 76 85  2  0
 76 81  1  0
 77 73  1  0
 77 81  1  0
 78 77  1  0
 79 80  1  0
 79 78  1  0
 80 76  1  0
 81 82  2  0
 82 83  1  0
 84 83  2  0
 85 84  1  0
 86 60  1  0
 86 91  1  0
 86 87  1  0
 87 90  1  1
 87 88  1  0
 89 87  1  0
 91 94  1  0
 92 96  1  0
 92 91  1  0
 93 92  2  0
 96 95  1  0
 98 99  1  0
 98 96  1  0
 98 97  1  0
M  ISO  4  17 100  25 100  58 101  59 101
M  END
>  <TORSDO>  (10) 
F 19

>  <SCORE>  (10) 
-10.166

>  <name>  (10) 
9

>  <ligand_id>  (10) 
9

>  <original_smiles>  (10) 
[H]c1c([H])c([H])c2c(c1[H])C([H])([H])C([H])([H])C([H])([H])C2([H])N([H])C(=O)C1([H])N(C(=O)C([H])(N([H])C(=O)C([H])(N([H])C([H])([H])[H])C([H])([H])[H])C(C([H])([H])[H])(C([H])([H])[H])C([H])([H])[H])C([H])([H])c2c([H])c(OC([H])([H])C3=C(C([H])([H])[H])N(c4c([H])c(N([H])[H])c(N([H])C(=O)N5C([H])([H])C([H])([H])C([H])([H])C([H])(n6nc(-c7c([H])c([H])c(Oc8c([H])c([H])c(F)c([H])c8F)c([H])c7[H])c(C(=O)N([H])[H])c6N([H])[H])C5([H])[H])c(C([H])([H])[H])c4[H])C([H])([H])C(=O)C([H])([H])C3([H])[H])c([H])c([H])c2C1([H])[H]

>  <smiles>  (10) 
[H]c1c([H])c([H])c2c(c1[H])C([H])([H])C([H])([H])C([H])([H])C2([H])N([H])C(=O)C1([H])N(C(=O)C([H])(N([H])C(=O)C([H])(N([H])C([H])([H])[H])C([H])([H])[H])C(C([H])([H])[H])(C([H])([H])[H])C([H])([H])[H])C([H])([H])c2c([H])c(OC([H])([H])C3=C(C([H])([H])[H])N(c4c([H])c(N([H])[H])c(N([H])C(=O)N5C([H])([H])C([H])([H])C([H])([H])C([H])(n6nc(-c7c([H])c([H])c(Oc8c([H])c([H])c(F)c([H])c8F)c([H])c7[H])c(C(=O)N([H])[H])c6N([H])[H])C5([H])[H])c(C([H])([H])[H])c4[H])C([H])([H])C(=O)C([H])([H])C3([H])[H])c([H])c([H])c2C1([H])[H]

$$$$
10:0:0
     RDKit          3D

 96104  0  0  1  0  0  0  0  0999 V2000
  -31.9150  -18.5760   20.3950 C   0  0  0  0  0  3  0  0  0  0  0  0
  -29.3500  -19.7060   20.2890 C   0  0  0  0  0  3  0  0  0  0  0  0
  -30.8140  -17.7970   20.8130 C   0  0  0  0  0  0  0  0  0  0  0  0
  -29.5190  -18.3710   20.7370 C   0  0  0  0  0  0  0  0  0  0  0  0
  -30.4650  -20.5030   19.9240 C   0  0  0  0  0  0  0  0  0  0  0  0
  -31.7460  -19.9080   19.9650 C   0  0  0  0  0  0  0  0  0  0  0  0
  -32.8320  -20.6370   19.6100 F   0  0  0  0  0  0  0  0  0  0  0  0
  -28.3910  -17.6500   21.1340 N   0  0  0  0  0  0  0  0  0  0  0  0
  -27.5170  -18.1390   21.2990 H   0  0  0  0  0  0  0  0  0  0  0  0
  -28.4970  -16.8210   21.7070 H   0  0  0  0  0  0  0  0  0  0  0  0
  -30.3660  -21.8580   19.5360 N   0  0  0  0  0  0  0  0  0  0  0  0
  -31.2290  -22.3470   19.3060 H   0  0  0  0  0  0  0  0  0  0  0  0
  -29.1940  -22.6900   19.8430 C   0  0  0  0  0  2  0  0  0  0  0  0
  -29.4420  -24.2100   19.7010 C   0  0  0  0  0  0  0  0  0  0  0  0
  -30.5830  -24.6800   19.7680 O   0  0  0  0  0  0  0  0  0  0  0  0
  -28.2050  -25.0880   19.4340 C   0  0  0  0  0  2  0  0  0  0  0  0
  -28.3980  -26.4910   19.7280 O   0  0  0  0  0  0  0  0  0  0  0  0
  -24.6200  -31.5770   23.0210 C   0  0  0  0  0  0  0  0  0  0  0  0
  -27.2390  -27.2510   19.7360 C   0  0  0  0  0  0  0  0  0  0  0  0
  -23.4040  -30.2510   21.3260 C   0  0  0  0  0  3  0  0  0  0  0  0
  -24.8490  -28.7800   19.8280 C   0  0  0  0  0  0  0  0  0  0  0  0
  -25.9350  -30.6090   21.1360 C   0  0  0  0  0  2  0  0  0  0  0  0
  -26.0140  -29.2680   20.4320 C   0  0  0  0  0  0  0  0  0  0  0  0
  -27.2130  -28.5120   20.3820 C   0  0  0  0  0  3  0  0  0  0  0  0
  -26.0470  -26.7920   19.1220 C   0  0  0  0  0  3  0  0  0  0  0  0
  -24.8610  -27.5430   19.1690 C   0  0  0  0  0  3  0  0  0  0  0  0
  -23.6080  -29.6380   19.9160 C   0  0  0  0  0  2  0  0  0  0  0  0
  -24.6720  -30.8240   21.8860 N   0  0  0  0  0  0  0  0  0  0  0  0
  -23.5410  -31.8260   23.5760 O   0  0  0  0  0  0  0  0  0  0  0  0
  -22.7560  -29.1870   22.2410 C   0  0  0  0  0  0  0  0  0  0  0  0
  -21.4250  -29.0420   22.1410 N   0  0  0  0  0  0  0  0  0  0  0  0
  -23.4460  -28.4990   22.9980 O   0  0  0  0  0  0  0  0  0  0  0  0
  -20.9300  -29.6490   21.5020 H   0  0  0  0  0  0  0  0  0  0  0  0
  -18.0330  -27.9220   22.6920 C   0  0  0  0  0  0  0  0  0  0  0  0
  -20.6060  -28.0790   22.8780 C   0  0  0  0  0  3  0  0  0  0  0  0
  -20.6370  -26.6880   22.2020 C   0  0  0  0  0  2  0  0  0  0  0  0
  -19.4870  -26.4730   21.2130 C   0  0  0  0  0  2  0  0  0  0  0  0
  -18.1360  -26.6180   21.9210 C   0  0  0  0  0  2  0  0  0  0  0  0
  -19.1920  -28.6160   23.1280 C   0  0  0  0  0  0  0  0  0  0  0  0
  -19.0400  -29.8420   23.8110 C   0  0  0  0  0  3  0  0  0  0  0  0
  -17.7610  -30.3730   24.0620 C   0  0  0  0  0  3  0  0  0  0  0  0
  -16.6160  -29.6740   23.6420 C   0  0  0  0  0  3  0  0  0  0  0  0
  -16.7530  -28.4500   22.9640 C   0  0  0  0  0  3  0  0  0  0  0  0
  -25.9090  -32.1790   23.6610 C   0  0  0  0  0  3  0  0  0  0  0  0
  -25.6030  -33.5610   24.0560 N   0  0  0  0  0  0  0  0  0  0  0  0
  -25.9360  -34.6450   23.3430 C   0  0  0  0  0  0  0  0  0  0  0  0
  -26.6070  -34.5880   22.3090 O   0  0  0  0  0  0  0  0  0  0  0  0
  -25.0110  -33.6800   24.8640 H   0  0  0  0  0  0  0  0  0  0  0  0
  -24.2120  -36.4540   23.0640 C   0  0  0  0  0  1  0  0  0  0  0  0
  -25.4490  -36.0120   23.8620 C   0  0  0  0  0  3  0  0  0  0  0  0
  -27.5750  -36.8620   24.7490 C   0  0  0  0  0  1  0  0  0  0  0  0
  -26.4840  -37.0680   23.8000 N   0  0  0  0  0  0  0  0  0  0  0  0
  -26.0770  -37.9810   23.9790 H   0  0  0  0  0  0  0  0  0  0  0  0
  -26.4330  -31.3500   24.8970 C   0  0  1  0  0  0  0  0  0  0  0  0
  -25.3510  -31.0760   25.9670 C   0  0  0  0  0  1  0  0  0  0  0  0
  -26.9980  -29.9850   24.4390 C   0  0  0  0  0  1  0  0  0  0  0  0
  -27.5990  -32.1050   25.5790 C   0  0  0  0  0  1  0  0  0  0  0  0
  -31.0890  -16.4230   21.4490 C   0  0  0  0  0  2  0  0  0  0  0  0
  -30.8620  -14.3400   20.0760 C   0  0  0  0  0  0  0  0  0  0  0  0
  -30.4420  -12.1990   18.9100 C   0  0  0  0  0  2  0  0  0  0  0  0
  -29.4260  -12.3860   17.7680 C   0  0  0  0  0  2  0  0  0  0  0  0
  -27.9840  -12.2550   18.2930 C   0  0  0  0  0  2  0  0  0  0  0  0
  -27.7290  -13.1160   19.5590 C   0  0  0  0  0  3  0  0  0  0  0  0
  -28.8470  -12.9040   20.6020 C   0  0  0  0  0  2  0  0  0  0  0  0
  -30.1380  -13.1940   19.9520 N   0  0  0  0  0  0  0  0  0  0  0  0
  -31.9100  -14.5410   19.4560 O   0  0  0  0  0  0  0  0  0  0  0  0
  -30.3630  -15.2640   20.9120 N   0  0  0  0  0  0  0  0  0  0  0  0
  -29.4710  -15.0510   21.3340 H   0  0  0  0  0  0  0  0  0  0  0  0
  -25.4040  -13.7550   20.4610 C   0  0  0  0  0  0  0  0  0  0  0  0
  -24.3430  -12.9960   20.8740 C   0  0  0  0  0  0  0  0  0  0  0  0
  -24.7620  -11.6350   20.7580 C   0  0  0  0  0  0  0  0  0  0  0  0
  -26.4050  -12.8570   20.1230 N   0  0  0  0  0  0  0  0  0  0  0  0
  -26.0250  -11.5740   20.3580 N   0  0  0  0  0  0  0  0  0  0  0  0
  -24.0150  -10.3850   20.9500 C   0  0  0  0  0  0  0  0  0  0  0  0
  -24.4260   -9.4160   21.8910 C   0  0  0  0  0  3  0  0  0  0  0  0
  -23.6810   -8.2300   22.0700 C   0  0  0  0  0  3  0  0  0  0  0  0
  -22.5090   -8.0070   21.3090 C   0  0  0  0  0  0  0  0  0  0  0  0
  -22.1180   -8.9640   20.3570 C   0  0  0  0  0  3  0  0  0  0  0  0
  -22.8630  -10.1410   20.1760 C   0  0  0  0  0  3  0  0  0  0  0  0
  -21.7370   -6.8740   21.3960 O   0  0  0  0  0  0  0  0  0  0  0  0
  -21.6040   -6.1820   22.5740 C   0  0  0  0  0  0  0  0  0  0  0  0
  -21.0710   -6.7840   23.7340 C   0  0  0  0  0  3  0  0  0  0  0  0
  -20.8880   -6.0180   24.9040 C   0  0  0  0  0  3  0  0  0  0  0  0
  -21.2280   -4.6510   24.9120 C   0  0  0  0  0  0  0  0  0  0  0  0
  -21.7530   -4.0500   23.7550 C   0  0  0  0  0  3  0  0  0  0  0  0
  -21.9380   -4.8130   22.5880 C   0  0  0  0  0  0  0  0  0  0  0  0
  -22.4260   -4.2240   21.4700 F   0  0  0  0  0  0  0  0  0  0  0  0
  -21.0440   -3.9140   26.0310 F   0  0  0  0  0  0  0  0  0  0  0  0
  -22.9820  -13.4970   21.2660 C   0  0  0  0  0  0  0  0  0  0  0  0
  -22.2990  -12.7870   22.1570 N   0  0  0  0  0  0  0  0  0  0  0  0
  -22.5370  -14.5540   20.8200 O   0  0  0  0  0  0  0  0  0  0  0  0
  -22.6730  -11.9310   22.5390 H   0  0  0  0  0  0  0  0  0  0  0  0
  -21.3900  -13.1020   22.4610 H   0  0  0  0  0  0  0  0  0  0  0  0
  -25.5960  -15.1260   20.3270 N   0  0  0  0  0  0  0  0  0  0  0  0
  -24.8680  -15.8000   20.5370 H   0  0  0  0  0  0  0  0  0  0  0  0
  -26.4540  -15.5590   20.0060 H   0  0  0  0  0  0  0  0  0  0  0  0
  1  3  1  0
  2  4  1  0
  3 58  1  0
  4  3  2  0
  4  8  1  0
  5  6  1  0
  5  2  2  0
  6  1  2  0
  7  6  1  0
  8  9  1  0
  8 10  1  0
 11 13  1  0
 11  5  1  0
 12 11  1  0
 14 15  2  0
 14 13  1  0
 16 14  1  0
 16 17  1  0
 17 19  1  0
 18 29  2  0
 19 24  1  0
 20 28  1  0
 20 30  1  0
 21 27  1  0
 21 23  1  0
 22 28  1  0
 23 22  1  0
 24 23  2  0
 25 26  1  0
 25 19  2  0
 26 21  2  0
 27 20  1  0
 28 18  1  0
 30 32  2  0
 31 30  1  0
 33 31  1  0
 34 43  2  0
 34 39  1  0
 35 31  1  0
 35 39  1  0
 36 35  1  0
 37 38  1  0
 37 36  1  0
 38 34  1  0
 39 40  2  0
 40 41  1  0
 42 41  2  0
 43 42  1  0
 44 18  1  0
 44 45  1  0
 44 54  1  0
 45 48  1  0
 46 50  1  0
 46 45  1  0
 47 46  2  0
 50 49  1  0
 52 50  1  0
 52 53  1  0
 52 51  1  0
 54 57  1  1
 54 55  1  0
 56 54  1  0
 59 67  1  0
 60 65  1  0
 61 62  1  0
 61 60  1  0
 63 62  1  0
 63 72  1  0
 63 64  1  0
 65 59  1  0
 65 64  1  0
 66 59  2  0
 67 68  1  0
 67 58  1  0
 69 70  2  0
 70 89  1  0
 71 70  1  0
 71 74  1  0
 72 73  1  0
 72 69  1  0
 73 71  2  0
 74 75  1  0
 75 76  2  0
 77 80  1  0
 77 76  1  0
 78 77  2  0
 79 78  1  0
 79 74  2  0
 80 81  1  0
 81 86  2  0
 81 82  1  0
 82 83  2  0
 83 84  1  0
 84 88  1  0
 85 84  2  0
 86 85  1  0
 87 86  1  0
 89 90  1  0
 90 93  1  0
 90 92  1  0
 91 89  2  0
 94 69  1  0
 94 95  1  0
 96 94  1  0
M  ISO  4  16 101  17 101  59 100  67 100
M  END
>  <TORSDO>  (11) 
F 22

>  <SCORE>  (11) 
-12.670

>  <name>  (11) 
10

>  <ligand_id>  (11) 
10

>  <original_smiles>  (11) 
[H]c1c([H])c([H])c2c(c1[H])C([H])([H])C([H])([H])C([H])([H])C2([H])N([H])C(=O)C1([H])N(C(=O)C([H])(N([H])C(=O)C([H])(N([H])C([H])([H])[H])C([H])([H])[H])C(C([H])([H])[H])(C([H])([H])[H])C([H])([H])[H])C([H])([H])c2c([H])c(OC([H])([H])C(=O)C([H])([H])N([H])c3c([H])c(N([H])[H])c(C([H])([H])N([H])C(=O)N4C([H])([H])C([H])([H])C([H])([H])C([H])(n5nc(-c6c([H])c([H])c(Oc7c([H])c([H])c(F)c([H])c7F)c([H])c6[H])c(C(=O)N([H])[H])c5N([H])[H])C4([H])[H])c([H])c3F)c([H])c([H])c2C1([H])[H]

>  <smiles>  (11) 
[H]c1c([H])c([H])c2c(c1[H])C([H])([H])C([H])([H])C([H])([H])C2([H])N([H])C(=O)C1([H])N(C(=O)C([H])(N([H])C(=O)C([H])(N([H])C([H])([H])[H])C([H])([H])[H])C(C([H])([H])[H])(C([H])([H])[H])C([H])([H])[H])C([H])([H])c2c([H])c(OC([H])([H])C(=O)C([H])([H])N([H])c3c([H])c(N([H])[H])c(C([H])([H])N([H])C(=O)N4C([H])([H])C([H])([H])C([H])([H])C([H])(n5nc(-c6c([H])c([H])c(Oc7c([H])c([H])c(F)c([H])c7F)c([H])c6[H])c(C(=O)N([H])[H])c5N([H])[H])C4([H])[H])c([H])c3F)c([H])c([H])c2C1([H])[H]

$$$$
11:0:0
     RDKit          3D

 95104  0  0  1  0  0  0  0  0999 V2000
  -30.4360  -21.1050   21.7180 C   0  0  0  0  0  0  0  0  0  0  0  0
  -30.3050  -23.0150   18.5740 C   0  0  0  0  0  2  0  0  0  0  0  0
  -29.4080  -24.1970   18.9380 C   0  0  0  0  0  2  0  0  0  0  0  0
  -29.9300  -21.7660   19.3810 C   0  0  0  0  0  2  0  0  0  0  0  0
  -29.2630  -23.2260   21.2970 C   0  0  0  0  0  2  0  0  0  0  0  0
  -29.4610  -24.5090   20.4410 C   0  0  0  0  0  3  0  0  0  0  0  0
  -29.9800  -22.0210   20.8250 N   0  0  0  0  0  0  0  0  0  0  0  0
  -30.8110  -21.4070   22.8570 O   0  0  0  0  0  0  0  0  0  0  0  0
  -31.4910  -18.8060   21.5370 C   0  0  0  0  0  3  0  0  0  0  0  0
  -31.4000  -17.4150   21.3170 C   0  0  0  0  0  3  0  0  0  0  0  0
  -29.0570  -17.6770   20.7070 C   0  0  0  0  0  3  0  0  0  0  0  0
  -30.3680  -19.6450   21.3450 C   0  0  0  0  0  0  0  0  0  0  0  0
  -30.1730  -16.8350   20.9260 C   0  0  0  0  0  0  0  0  0  0  0  0
  -29.1520  -19.0700   20.9160 C   0  0  0  0  0  0  0  0  0  0  0  0
  -28.0420  -19.8360   20.7590 F   0  0  0  0  0  0  0  0  0  0  0  0
  -30.7140  -14.5050   20.1710 C   0  0  0  0  0  0  0  0  0  0  0  0
  -30.3820  -12.4030   18.9250 C   0  0  0  0  0  2  0  0  0  0  0  0
  -29.3960  -12.7230   17.7860 C   0  0  0  0  0  2  0  0  0  0  0  0
  -27.9230  -12.6370   18.2580 C   0  0  0  0  0  2  0  0  0  0  0  0
  -27.6700  -13.3370   19.6240 C   0  0  0  0  0  3  0  0  0  0  0  0
  -28.7750  -12.9690   20.6380 C   0  0  0  0  0  2  0  0  0  0  0  0
  -30.0760  -13.3140   20.0330 N   0  0  0  0  0  0  0  0  0  0  0  0
  -31.7930  -14.7590   19.6250 O   0  0  0  0  0  0  0  0  0  0  0  0
  -29.9900  -15.4260   20.8370 N   0  0  0  0  0  0  0  0  0  0  0  0
  -29.1120  -15.0680   21.1860 H   0  0  0  0  0  0  0  0  0  0  0  0
  -25.2980  -13.9170   20.4500 C   0  0  0  0  0  0  0  0  0  0  0  0
  -24.2520  -13.1350   20.8600 C   0  0  0  0  0  0  0  0  0  0  0  0
  -24.7150  -11.7860   20.7780 C   0  0  0  0  0  0  0  0  0  0  0  0
  -26.3360  -13.0450   20.1510 N   0  0  0  0  0  0  0  0  0  0  0  0
  -25.9890  -11.7560   20.3970 N   0  0  0  0  0  0  0  0  0  0  0  0
  -24.0000  -10.5180   20.9760 C   0  0  0  0  0  0  0  0  0  0  0  0
  -24.4560   -9.5480   21.8950 C   0  0  0  0  0  3  0  0  0  0  0  0
  -23.7400   -8.3460   22.0830 C   0  0  0  0  0  3  0  0  0  0  0  0
  -22.5540   -8.1070   21.3510 C   0  0  0  0  0  0  0  0  0  0  0  0
  -22.1160   -9.0650   20.4220 C   0  0  0  0  0  3  0  0  0  0  0  0
  -22.8340  -10.2560   20.2310 C   0  0  0  0  0  3  0  0  0  0  0  0
  -21.8080   -6.9560   21.4500 O   0  0  0  0  0  0  0  0  0  0  0  0
  -21.7490   -6.2300   22.6100 C   0  0  0  0  0  0  0  0  0  0  0  0
  -21.2890   -6.7930   23.8210 C   0  0  0  0  0  3  0  0  0  0  0  0
  -21.1780   -5.9890   24.9730 C   0  0  0  0  0  3  0  0  0  0  0  0
  -21.5230   -4.6250   24.9160 C   0  0  0  0  0  0  0  0  0  0  0  0
  -21.9770   -4.0630   23.7110 C   0  0  0  0  0  3  0  0  0  0  0  0
  -22.0860   -4.8620   22.5610 C   0  0  0  0  0  0  0  0  0  0  0  0
  -22.5010   -4.3090   21.3960 F   0  0  0  0  0  0  0  0  0  0  0  0
  -21.4110   -3.8510   26.0220 F   0  0  0  0  0  0  0  0  0  0  0  0
  -22.8690  -13.6030   21.2090 C   0  0  0  0  0  0  0  0  0  0  0  0
  -22.1820  -12.8880   22.0930 N   0  0  0  0  0  0  0  0  0  0  0  0
  -22.4070  -14.6360   20.7300 O   0  0  0  0  0  0  0  0  0  0  0  0
  -22.5700  -12.0540   22.5070 H   0  0  0  0  0  0  0  0  0  0  0  0
  -21.2560  -13.1870   22.3630 H   0  0  0  0  0  0  0  0  0  0  0  0
  -25.4480  -15.2910   20.2870 N   0  0  0  0  0  0  0  0  0  0  0  0
  -24.6620  -15.9210   20.4110 H   0  0  0  0  0  0  0  0  0  0  0  0
  -26.2490  -15.7360   19.8560 H   0  0  0  0  0  0  0  0  0  0  0  0
  -28.3830  -25.5460   20.8140 C   0  0  0  0  0  2  0  0  0  0  0  0
  -28.4770  -26.7630   20.0650 O   0  0  0  0  0  0  0  0  0  0  0  0
  -24.6020  -31.8420   23.1870 C   0  0  0  0  0  0  0  0  0  0  0  0
  -27.3080  -27.4870   20.0640 C   0  0  0  0  0  0  0  0  0  0  0  0
  -23.4110  -30.4470   21.5240 C   0  0  0  0  0  3  0  0  0  0  0  0
  -24.8880  -28.9360   20.0920 C   0  0  0  0  0  0  0  0  0  0  0  0
  -25.9270  -30.8430   21.3300 C   0  0  0  0  0  2  0  0  0  0  0  0
  -26.0340  -29.4750   20.6880 C   0  0  0  0  0  0  0  0  0  0  0  0
  -27.2480  -28.7550   20.6780 C   0  0  0  0  0  3  0  0  0  0  0  0
  -26.1510  -26.9670   19.4400 C   0  0  0  0  0  3  0  0  0  0  0  0
  -24.9380  -27.6810   19.4630 C   0  0  0  0  0  3  0  0  0  0  0  0
  -23.6340  -29.7780   20.1400 C   0  0  0  0  0  2  0  0  0  0  0  0
  -24.6640  -31.0590   22.0740 N   0  0  0  0  0  0  0  0  0  0  0  0
  -23.5190  -32.0970   23.7330 O   0  0  0  0  0  0  0  0  0  0  0  0
  -22.7700  -29.4110   22.4760 C   0  0  0  0  0  0  0  0  0  0  0  0
  -21.4440  -29.2320   22.3590 N   0  0  0  0  0  0  0  0  0  0  0  0
  -23.4600  -28.7720   23.2740 O   0  0  0  0  0  0  0  0  0  0  0  0
  -20.9470  -29.8020   21.6880 H   0  0  0  0  0  0  0  0  0  0  0  0
  -18.0670  -28.0450   22.8720 C   0  0  0  0  0  0  0  0  0  0  0  0
  -20.6300  -28.2820   23.1200 C   0  0  0  0  0  3  0  0  0  0  0  0
  -20.7170  -26.8630   22.5120 C   0  0  0  0  0  2  0  0  0  0  0  0
  -19.6010  -26.5690   21.5040 C   0  0  0  0  0  2  0  0  0  0  0  0
  -18.2280  -26.7080   22.1670 C   0  0  0  0  0  2  0  0  0  0  0  0
  -19.1960  -28.7920   23.3050 C   0  0  0  0  0  0  0  0  0  0  0  0
  -18.9910  -30.0440   23.9250 C   0  0  0  0  0  3  0  0  0  0  0  0
  -17.6920  -30.5530   24.1120 C   0  0  0  0  0  3  0  0  0  0  0  0
  -16.5780  -29.8040   23.6930 C   0  0  0  0  0  3  0  0  0  0  0  0
  -16.7660  -28.5520   23.0820 C   0  0  0  0  0  3  0  0  0  0  0  0
  -25.8830  -32.4770   23.8130 C   0  0  0  0  0  3  0  0  0  0  0  0
  -25.5690  -33.8700   24.1530 N   0  0  0  0  0  0  0  0  0  0  0  0
  -25.9080  -34.9300   23.4050 C   0  0  0  0  0  0  0  0  0  0  0  0
  -26.5880  -34.8350   22.3800 O   0  0  0  0  0  0  0  0  0  0  0  0
  -24.9590  -34.0160   24.9440 H   0  0  0  0  0  0  0  0  0  0  0  0
  -24.1820  -36.7210   23.0420 C   0  0  0  0  0  1  0  0  0  0  0  0
  -25.4140  -36.3130   23.8680 C   0  0  0  0  0  3  0  0  0  0  0  0
  -27.5330  -37.1930   24.7410 C   0  0  0  0  0  1  0  0  0  0  0  0
  -26.4480  -37.3680   23.7790 N   0  0  0  0  0  0  0  0  0  0  0  0
  -26.0370  -38.2870   23.9280 H   0  0  0  0  0  0  0  0  0  0  0  0
  -26.4090  -31.6940   25.0780 C   0  0  1  0  0  0  0  0  0  0  0  0
  -25.3190  -31.4290   26.1430 C   0  0  0  0  0  1  0  0  0  0  0  0
  -27.0040  -30.3280   24.6620 C   0  0  0  0  0  1  0  0  0  0  0  0
  -27.5530  -32.4900   25.7500 C   0  0  0  0  0  1  0  0  0  0  0  0
  1  8  2  0
  2  3  1  0
  2  4  1  0
  3  6  1  0
  4  7  1  0
  6 54  1  0
  6  5  1  0
  7  5  1  0
  7  1  1  0
 10  9  2  0
 11 14  1  0
 11 13  2  0
 12  9  1  0
 12  1  1  0
 13 10  1  0
 14 12  2  0
 15 14  1  0
 16 24  1  0
 17 22  1  0
 18 19  1  0
 18 17  1  0
 20 19  1  0
 20 29  1  0
 20 21  1  0
 22 16  1  0
 22 21  1  0
 23 16  2  0
 24 13  1  0
 24 25  1  0
 26 27  2  0
 27 46  1  0
 28 27  1  0
 28 31  1  0
 29 30  1  0
 29 26  1  0
 30 28  2  0
 31 32  1  0
 32 33  2  0
 34 37  1  0
 34 33  1  0
 35 34  2  0
 36 35  1  0
 36 31  2  0
 37 38  1  0
 38 39  1  0
 39 40  2  0
 41 40  1  0
 41 45  1  0
 42 41  2  0
 43 38  2  0
 43 42  1  0
 44 43  1  0
 46 47  1  0
 47 50  1  0
 47 49  1  0
 48 46  2  0
 51 52  1  0
 51 26  1  0
 53 51  1  0
 55 54  1  0
 56 67  2  0
 57 55  1  0
 57 62  1  0
 58 66  1  0
 58 68  1  0
 59 65  1  0
 59 61  1  0
 60 66  1  0
 61 60  1  0
 62 61  2  0
 63 64  1  0
 63 57  2  0
 64 59  2  0
 65 58  1  0
 66 56  1  0
 68 70  2  0
 69 68  1  0
 71 69  1  0
 72 81  2  0
 72 77  1  0
 73 69  1  0
 73 77  1  0
 74 73  1  0
 75 76  1  0
 75 74  1  0
 76 72  1  0
 77 78  2  0
 78 79  1  0
 80 79  2  0
 81 80  1  0
 82 56  1  0
 82 83  1  0
 82 92  1  0
 83 86  1  0
 84 88  1  0
 84 83  1  0
 85 84  2  0
 88 87  1  0
 90 88  1  0
 90 91  1  0
 90 89  1  0
 92 95  1  1
 92 93  1  0
 94 92  1  0
M  ISO  4  16 100  24 100  54 101  55 101
M  END
>  <TORSDO>  (12) 
F 18

>  <SCORE>  (12) 
-14.963

>  <name>  (12) 
11

>  <ligand_id>  (12) 
11

>  <original_smiles>  (12) 
[H]c1c([H])c([H])c2c(c1[H])C([H])([H])C([H])([H])C([H])([H])C2([H])N([H])C(=O)C1([H])N(C(=O)C([H])(N([H])C(=O)C([H])(N([H])C([H])([H])[H])C([H])([H])[H])C(C([H])([H])[H])(C([H])([H])[H])C([H])([H])[H])C([H])([H])c2c([H])c(OC([H])([H])C3([H])C([H])([H])N(C(=O)c4c([H])c([H])c(N([H])C(=O)N5C([H])([H])C([H])([H])C([H])([H])C([H])(n6nc(-c7c([H])c([H])c(Oc8c([H])c([H])c(F)c([H])c8F)c([H])c7[H])c(C(=O)N([H])[H])c6N([H])[H])C5([H])[H])c([H])c4F)C([H])([H])C([H])([H])C3([H])[H])c([H])c([H])c2C1([H])[H]

>  <smiles>  (12) 
[H]c1c([H])c([H])c2c(c1[H])C([H])([H])C([H])([H])C([H])([H])C2([H])N([H])C(=O)C1([H])N(C(=O)C([H])(N([H])C(=O)C([H])(N([H])C([H])([H])[H])C([H])([H])[H])C(C([H])([H])[H])(C([H])([H])[H])C([H])([H])[H])C([H])([H])c2c([H])c(OC([H])([H])C3([H])C([H])([H])N(C(=O)c4c([H])c([H])c(N([H])C(=O)N5C([H])([H])C([H])([H])C([H])([H])C([H])(n6nc(-c7c([H])c([H])c(Oc8c([H])c([H])c(F)c([H])c8F)c([H])c7[H])c(C(=O)N([H])[H])c6N([H])[H])C5([H])[H])c([H])c4F)C([H])([H])C([H])([H])C3([H])[H])c([H])c([H])c2C1([H])[H]

$$$$
12:0:0
     RDKit          3D

 98107  0  0  1  0  0  0  0  0999 V2000
  -29.1630  -23.9960   20.1630 C   0  0  0  0  0  0  0  0  0  0  0  0
  -29.1610  -22.6870   20.6310 C   0  0  0  0  0  0  0  0  0  0  0  0
  -30.1950  -24.3570   19.1590 C   0  0  0  0  0  0  0  0  0  0  0  0
  -31.3760  -23.4020   19.0020 C   0  0  0  0  0  2  0  0  0  0  0  0
  -30.9150  -21.9390   19.0440 C   0  0  0  0  0  2  0  0  0  0  0  0
  -28.1620  -22.2620   21.7000 C   0  0  0  0  0  1  0  0  0  0  0  0
  -30.0710  -21.6540   20.2110 N   0  0  0  0  0  0  0  0  0  0  0  0
  -30.1600  -25.3670   18.4490 O   0  0  0  0  0  0  0  0  0  0  0  0
  -28.8810  -19.4710   20.0040 C   0  0  0  0  0  3  0  0  0  0  0  0
  -31.0670  -18.0100   20.9680 C   0  0  0  0  0  3  0  0  0  0  0  0
  -28.8350  -18.0490   20.0840 C   0  0  0  0  0  0  0  0  0  0  0  0
  -30.0090  -20.2200   20.4030 C   0  0  0  0  0  0  0  0  0  0  0  0
  -29.9270  -17.2630   20.5610 C   0  0  0  0  0  0  0  0  0  0  0  0
  -31.1060  -19.4420   20.8990 C   0  0  0  0  0  0  0  0  0  0  0  0
  -27.5530  -17.3860   19.6470 C   0  0  0  0  0  1  0  0  0  0  0  0
  -30.6020  -14.7350   20.4230 C   0  0  0  0  0  0  0  0  0  0  0  0
  -30.4120  -12.4850   19.3660 C   0  0  0  0  0  2  0  0  0  0  0  0
  -29.4730  -12.5940   18.1440 C   0  0  0  0  0  2  0  0  0  0  0  0
  -28.0000  -12.4160   18.5640 C   0  0  0  0  0  2  0  0  0  0  0  0
  -27.6210  -13.2790   19.7960 C   0  0  0  0  0  3  0  0  0  0  0  0
  -28.6780  -13.1530   20.9190 C   0  0  0  0  0  2  0  0  0  0  0  0
  -29.9870  -13.5070   20.3450 N   0  0  0  0  0  0  0  0  0  0  0  0
  -31.7780  -14.8800   20.0770 O   0  0  0  0  0  0  0  0  0  0  0  0
  -29.7800  -15.8010   20.7010 N   0  0  0  0  0  0  0  0  0  0  0  0
  -28.8360  -15.5000   20.8860 H   0  0  0  0  0  0  0  0  0  0  0  0
  -25.2100  -13.8550   20.4860 C   0  0  0  0  0  0  0  0  0  0  0  0
  -24.1490  -13.0810   20.8570 C   0  0  0  0  0  0  0  0  0  0  0  0
  -24.6230  -11.7360   20.8340 C   0  0  0  0  0  0  0  0  0  0  0  0
  -26.2700  -12.9880   20.2700 N   0  0  0  0  0  0  0  0  0  0  0  0
  -25.9180  -11.7050   20.5380 N   0  0  0  0  0  0  0  0  0  0  0  0
  -23.9010  -10.4740   21.0170 C   0  0  0  0  0  0  0  0  0  0  0  0
  -24.3150   -9.5200   21.9710 C   0  0  0  0  0  3  0  0  0  0  0  0
  -23.5920   -8.3210   22.1430 C   0  0  0  0  0  3  0  0  0  0  0  0
  -22.4410   -8.0680   21.3590 C   0  0  0  0  0  0  0  0  0  0  0  0
  -22.0470   -9.0120   20.3950 C   0  0  0  0  0  3  0  0  0  0  0  0
  -22.7700  -10.2030   20.2210 C   0  0  0  0  0  3  0  0  0  0  0  0
  -21.6910   -6.9200   21.4400 O   0  0  0  0  0  0  0  0  0  0  0  0
  -21.6050   -6.1990   22.6040 C   0  0  0  0  0  0  0  0  0  0  0  0
  -21.0840   -6.7580   23.7910 C   0  0  0  0  0  3  0  0  0  0  0  0
  -20.9490   -5.9610   24.9450 C   0  0  0  0  0  3  0  0  0  0  0  0
  -21.3240   -4.6050   24.9120 C   0  0  0  0  0  0  0  0  0  0  0  0
  -21.8380   -4.0440   23.7290 C   0  0  0  0  0  3  0  0  0  0  0  0
  -21.9760   -4.8400   22.5780 C   0  0  0  0  0  0  0  0  0  0  0  0
  -22.4520   -4.2890   21.4360 F   0  0  0  0  0  0  0  0  0  0  0  0
  -21.1860   -3.8360   26.0180 F   0  0  0  0  0  0  0  0  0  0  0  0
  -22.7480  -13.5570   21.1130 C   0  0  0  0  0  0  0  0  0  0  0  0
  -22.0140  -12.8650   21.9750 N   0  0  0  0  0  0  0  0  0  0  0  0
  -22.3120  -14.5800   20.5840 O   0  0  0  0  0  0  0  0  0  0  0  0
  -22.3780  -12.0380   22.4270 H   0  0  0  0  0  0  0  0  0  0  0  0
  -21.0740  -13.1650   22.1900 H   0  0  0  0  0  0  0  0  0  0  0  0
  -25.3410  -15.2200   20.2890 N   0  0  0  0  0  0  0  0  0  0  0  0
  -24.5420  -15.8400   20.3580 H   0  0  0  0  0  0  0  0  0  0  0  0
  -26.1500  -15.6550   19.8700 H   0  0  0  0  0  0  0  0  0  0  0  0
  -32.2450  -20.1020   21.3650 N   0  0  0  0  0  0  0  0  0  0  0  0
  -32.7700  -19.6470   22.1050 H   0  0  0  0  0  0  0  0  0  0  0  0
  -32.1000  -21.0890   21.5490 H   0  0  0  0  0  0  0  0  0  0  0  0
  -28.1560  -25.1310   20.6110 C   0  0  0  0  0  2  0  0  0  0  0  0
  -28.3470  -26.5440   20.1900 O   0  0  0  0  0  0  0  0  0  0  0  0
  -24.5960  -31.9040   23.2540 C   0  0  0  0  0  0  0  0  0  0  0  0
  -27.2160  -27.3760   20.1740 C   0  0  0  0  0  0  0  0  0  0  0  0
  -23.3890  -30.5110   21.6080 C   0  0  0  0  0  3  0  0  0  0  0  0
  -24.8410  -28.9690   20.1740 C   0  0  0  0  0  0  0  0  0  0  0  0
  -25.9260  -30.8380   21.4200 C   0  0  0  0  0  2  0  0  0  0  0  0
  -26.0080  -29.4630   20.7700 C   0  0  0  0  0  0  0  0  0  0  0  0
  -27.1990  -28.6780   20.7590 C   0  0  0  0  0  3  0  0  0  0  0  0
  -26.0290  -26.9380   19.5440 C   0  0  0  0  0  3  0  0  0  0  0  0
  -24.8530  -27.7110   19.5510 C   0  0  0  0  0  3  0  0  0  0  0  0
  -23.6010  -29.8390   20.2260 C   0  0  0  0  0  2  0  0  0  0  0  0
  -24.6570  -31.1020   22.1510 N   0  0  0  0  0  0  0  0  0  0  0  0
  -23.5130  -32.1770   23.7920 O   0  0  0  0  0  0  0  0  0  0  0  0
  -22.7280  -29.4910   22.5660 C   0  0  0  0  0  0  0  0  0  0  0  0
  -21.4040  -29.3100   22.4350 N   0  0  0  0  0  0  0  0  0  0  0  0
  -23.4080  -28.8650   23.3830 O   0  0  0  0  0  0  0  0  0  0  0  0
  -20.9160  -29.8670   21.7470 H   0  0  0  0  0  0  0  0  0  0  0  0
  -18.0250  -28.1180   22.9350 C   0  0  0  0  0  0  0  0  0  0  0  0
  -20.5850  -28.3700   23.2010 C   0  0  0  0  0  3  0  0  0  0  0  0
  -20.6820  -26.9420   22.6150 C   0  0  0  0  0  2  0  0  0  0  0  0
  -19.5770  -26.6280   21.6020 C   0  0  0  0  0  2  0  0  0  0  0  0
  -18.1960  -26.7730   22.2500 C   0  0  0  0  0  2  0  0  0  0  0  0
  -19.1460  -28.8740   23.3680 C   0  0  0  0  0  0  0  0  0  0  0  0
  -18.9320  -30.1340   23.9680 C   0  0  0  0  0  3  0  0  0  0  0  0
  -17.6290  -30.6370   24.1410 C   0  0  0  0  0  3  0  0  0  0  0  0
  -16.5220  -29.8760   23.7270 C   0  0  0  0  0  3  0  0  0  0  0  0
  -16.7210  -28.6200   23.1280 C   0  0  0  0  0  3  0  0  0  0  0  0
  -25.8800  -32.5320   23.8770 C   0  0  0  0  0  3  0  0  0  0  0  0
  -26.3870  -31.7640   25.1600 C   0  0  1  0  0  0  0  0  0  0  0  0
  -25.2870  -31.5370   26.2240 C   0  0  0  0  0  1  0  0  0  0  0  0
  -26.9660  -30.3820   24.7790 C   0  0  0  0  0  1  0  0  0  0  0  0
  -27.5370  -32.5570   25.8240 C   0  0  0  0  0  1  0  0  0  0  0  0
  -25.5770  -33.9340   24.1990 N   0  0  0  0  0  0  0  0  0  0  0  0
  -25.9130  -34.9800   23.4330 C   0  0  0  0  0  0  0  0  0  0  0  0
  -26.5810  -34.8670   22.4010 O   0  0  0  0  0  0  0  0  0  0  0  0
  -24.9850  -34.0960   25.0000 H   0  0  0  0  0  0  0  0  0  0  0  0
  -24.2000  -36.7850   23.0640 C   0  0  0  0  0  1  0  0  0  0  0  0
  -25.4340  -36.3750   23.8820 C   0  0  0  0  0  3  0  0  0  0  0  0
  -27.5660  -37.2520   24.7250 C   0  0  0  0  0  1  0  0  0  0  0  0
  -26.4740  -37.4200   23.7690 N   0  0  0  0  0  0  0  0  0  0  0  0
  -26.0730  -38.3440   23.9050 H   0  0  0  0  0  0  0  0  0  0  0  0
  1 57  1  0
  1  2  2  0
  2  6  1  0
  3  1  1  0
  4  5  1  0
  4  3  1  0
  5  7  1  0
  7 12  1  0
  7  2  1  0
  8  3  2  0
  9 11  2  0
  9 12  1  0
 11 13  1  0
 12 14  2  0
 13 24  1  0
 13 10  2  0
 14 10  1  0
 14 54  1  0
 15 11  1  0
 16 24  1  0
 17 22  1  0
 18 19  1  0
 18 17  1  0
 20 19  1  0
 20 29  1  0
 20 21  1  0
 22 16  1  0
 22 21  1  0
 23 16  2  0
 24 25  1  0
 26 27  2  0
 27 46  1  0
 28 27  1  0
 28 31  1  0
 29 26  1  0
 29 30  1  0
 30 28  2  0
 31 32  1  0
 32 33  2  0
 34 37  1  0
 34 33  1  0
 35 34  2  0
 36 35  1  0
 36 31  2  0
 37 38  1  0
 38 39  1  0
 39 40  2  0
 41 40  1  0
 41 45  1  0
 42 41  2  0
 43 38  2  0
 43 42  1  0
 44 43  1  0
 46 47  1  0
 47 50  1  0
 47 49  1  0
 48 46  2  0
 51 52  1  0
 51 26  1  0
 53 51  1  0
 54 56  1  0
 54 55  1  0
 58 57  1  0
 59 70  2  0
 60 58  1  0
 60 65  1  0
 61 69  1  0
 61 71  1  0
 62 68  1  0
 62 64  1  0
 63 69  1  0
 64 63  1  0
 65 64  2  0
 66 67  1  0
 66 60  2  0
 67 62  2  0
 68 61  1  0
 69 59  1  0
 71 73  2  0
 72 71  1  0
 74 72  1  0
 75 84  2  0
 75 80  1  0
 76 72  1  0
 76 80  1  0
 77 76  1  0
 78 79  1  0
 78 77  1  0
 79 75  1  0
 80 81  2  0
 81 82  1  0
 83 82  2  0
 84 83  1  0
 85 59  1  0
 85 90  1  0
 85 86  1  0
 86 89  1  1
 86 87  1  0
 88 86  1  0
 90 93  1  0
 91 95  1  0
 91 90  1  0
 92 91  2  0
 95 94  1  0
 97 95  1  0
 97 98  1  0
 97 96  1  0
M  ISO  4  16 100  24 100  57 101  58 101
M  END
>  <TORSDO>  (13) 
F 19

>  <SCORE>  (13) 
-15.074

>  <name>  (13) 
12

>  <ligand_id>  (13) 
12

>  <original_smiles>  (13) 
[H]c1c([H])c([H])c2c(c1[H])C([H])([H])C([H])([H])C([H])([H])C2([H])N([H])C(=O)C1([H])N(C(=O)C([H])(N([H])C(=O)C([H])(N([H])C([H])([H])[H])C([H])([H])[H])C(C([H])([H])[H])(C([H])([H])[H])C([H])([H])[H])C([H])([H])c2c([H])c(OC([H])([H])C3=C(C([H])([H])[H])N(c4c([H])c(C([H])([H])[H])c(N([H])C(=O)N5C([H])([H])C([H])([H])C([H])([H])C([H])(n6nc(-c7c([H])c([H])c(Oc8c([H])c([H])c(F)c([H])c8F)c([H])c7[H])c(C(=O)N([H])[H])c6N([H])[H])C5([H])[H])c([H])c4N([H])[H])C([H])([H])C([H])([H])C3=O)c([H])c([H])c2C1([H])[H]

>  <smiles>  (13) 
[H]c1c([H])c([H])c2c(c1[H])C([H])([H])C([H])([H])C([H])([H])C2([H])N([H])C(=O)C1([H])N(C(=O)C([H])(N([H])C(=O)C([H])(N([H])C([H])([H])[H])C([H])([H])[H])C(C([H])([H])[H])(C([H])([H])[H])C([H])([H])[H])C([H])([H])c2c([H])c(OC([H])([H])C3=C(C([H])([H])[H])N(c4c([H])c(C([H])([H])[H])c(N([H])C(=O)N5C([H])([H])C([H])([H])C([H])([H])C([H])(n6nc(-c7c([H])c([H])c(Oc8c([H])c([H])c(F)c([H])c8F)c([H])c7[H])c(C(=O)N([H])[H])c6N([H])[H])C5([H])[H])c([H])c4N([H])[H])C([H])([H])C([H])([H])C3=O)c([H])c([H])c2C1([H])[H]

$$$$
13:0:0
     RDKit          3D

 94103  0  0  1  0  0  0  0  0999 V2000
  -29.4870  -22.6740   22.1770 C   0  0  0  0  0  0  0  0  0  0  0  0
  -30.2580  -23.9800   22.3020 C   0  0  0  0  0  2  0  0  0  0  0  0
  -30.5610  -24.3180   20.8490 C   0  0  0  0  0  2  0  0  0  0  0  0
  -29.3470  -23.7280   20.1330 C   0  0  0  0  0  3  0  0  0  0  0  0
  -29.1970  -22.3540   20.8910 N   0  0  0  0  0  0  0  0  0  0  0  0
  -29.1970  -22.0220   23.1840 O   0  0  0  0  0  0  0  0  0  0  0  0
  -30.2100  -20.3890   19.4020 C   0  0  0  0  0  3  0  0  0  0  0  0
  -30.4980  -18.9800   19.1660 C   0  0  0  0  0  3  0  0  0  0  0  0
  -29.0060  -19.7640   21.3260 C   0  0  0  0  0  3  0  0  0  0  0  0
  -29.4430  -20.8770   20.5100 C   0  0  0  0  0  0  0  0  0  0  0  0
  -30.0640  -17.8790   19.9970 C   0  0  0  0  0  0  0  0  0  0  0  0
  -29.2950  -18.3590   21.1000 C   0  0  0  0  0  0  0  0  0  0  0  0
  -28.7590  -17.4470   21.9470 F   0  0  0  0  0  0  0  0  0  0  0  0
  -30.9060  -15.2820   19.9180 C   0  0  0  0  0  0  0  0  0  0  0  0
  -30.8020  -12.9140   19.0160 C   0  0  0  0  0  2  0  0  0  0  0  0
  -29.7950  -12.7730   17.8500 C   0  0  0  0  0  2  0  0  0  0  0  0
  -28.3580  -12.5720   18.3710 C   0  0  0  0  0  2  0  0  0  0  0  0
  -27.9950  -13.5030   19.5580 C   0  0  0  0  0  3  0  0  0  0  0  0
  -29.1200  -13.5770   20.6110 C   0  0  0  0  0  2  0  0  0  0  0  0
  -30.3320  -14.0100   19.9040 N   0  0  0  0  0  0  0  0  0  0  0  0
  -32.1300  -15.3460   19.7660 O   0  0  0  0  0  0  0  0  0  0  0  0
  -30.1040  -16.4090   19.5540 N   0  0  0  0  0  0  0  0  0  0  0  0
  -25.6710  -14.0280   20.4920 C   0  0  0  0  0  0  0  0  0  0  0  0
  -24.6360  -13.2260   20.8870 C   0  0  0  0  0  0  0  0  0  0  0  0
  -25.1070  -11.8830   20.7580 C   0  0  0  0  0  0  0  0  0  0  0  0
  -26.7010  -13.1720   20.1420 N   0  0  0  0  0  0  0  0  0  0  0  0
  -26.3760  -11.8730   20.3690 N   0  0  0  0  0  0  0  0  0  0  0  0
  -24.4030  -10.6060   20.9270 C   0  0  0  0  0  0  0  0  0  0  0  0
  -24.8160   -9.6560   21.8860 C   0  0  0  0  0  3  0  0  0  0  0  0
  -24.1110   -8.4430   22.0420 C   0  0  0  0  0  3  0  0  0  0  0  0
  -22.9790   -8.1710   21.2380 C   0  0  0  0  0  0  0  0  0  0  0  0
  -22.5870   -9.1100   20.2680 C   0  0  0  0  0  3  0  0  0  0  0  0
  -23.2920  -10.3140   20.1090 C   0  0  0  0  0  3  0  0  0  0  0  0
  -22.2480   -7.0100   21.3030 O   0  0  0  0  0  0  0  0  0  0  0  0
  -22.0190   -6.3700   22.4940 C   0  0  0  0  0  0  0  0  0  0  0  0
  -21.3530   -7.0050   23.5650 C   0  0  0  0  0  3  0  0  0  0  0  0
  -21.0770   -6.2870   24.7470 C   0  0  0  0  0  3  0  0  0  0  0  0
  -21.4560   -4.9350   24.8560 C   0  0  0  0  0  0  0  0  0  0  0  0
  -22.1130   -4.3000   23.7880 C   0  0  0  0  0  3  0  0  0  0  0  0
  -22.3910   -5.0150   22.6090 C   0  0  0  0  0  0  0  0  0  0  0  0
  -23.0060   -4.3920   21.5750 F   0  0  0  0  0  0  0  0  0  0  0  0
  -21.1830   -4.2440   25.9860 F   0  0  0  0  0  0  0  0  0  0  0  0
  -23.2550  -13.6750   21.2670 C   0  0  0  0  0  0  0  0  0  0  0  0
  -22.5930  -12.9370   22.1500 N   0  0  0  0  0  0  0  0  0  0  0  0
  -22.7750  -14.7140   20.8170 O   0  0  0  0  0  0  0  0  0  0  0  0
  -22.9970  -12.0960   22.5370 H   0  0  0  0  0  0  0  0  0  0  0  0
  -21.6690  -13.2170   22.4470 H   0  0  0  0  0  0  0  0  0  0  0  0
  -25.8170  -15.4070   20.3770 N   0  0  0  0  0  0  0  0  0  0  0  0
  -25.0660  -16.0540   20.5900 H   0  0  0  0  0  0  0  0  0  0  0  0
  -26.6650  -15.8680   20.0720 H   0  0  0  0  0  0  0  0  0  0  0  0
  -28.4900  -16.9450   17.7890 C   0  0  0  0  0  2  0  0  0  0  0  0
  -29.5740  -16.2940   18.2530 C   0  0  0  0  0  3  0  0  0  0  0  0
  -28.1810  -24.9380   20.2310 C   0  0  0  0  0  2  0  0  0  0  0  0
  -28.4130  -26.4710   20.1180 O   0  0  0  0  0  0  0  0  0  0  0  0
  -24.6880  -31.9820   23.2690 C   0  0  0  0  0  0  0  0  0  0  0  0
  -27.3220  -27.4070   20.1070 C   0  0  0  0  0  0  0  0  0  0  0  0
  -23.4960  -30.6040   21.6110 C   0  0  0  0  0  3  0  0  0  0  0  0
  -24.9570  -29.0910   20.1380 C   0  0  0  0  0  0  0  0  0  0  0  0
  -26.0400  -30.9270   21.4230 C   0  0  0  0  0  2  0  0  0  0  0  0
  -26.1330  -29.5530   20.7410 C   0  0  0  0  0  0  0  0  0  0  0  0
  -27.3180  -28.7290   20.7060 C   0  0  0  0  0  3  0  0  0  0  0  0
  -26.1160  -27.0420   19.4700 C   0  0  0  0  0  3  0  0  0  0  0  0
  -24.9590  -27.8490   19.4870 C   0  0  0  0  0  3  0  0  0  0  0  0
  -23.7130  -29.9620   20.2160 C   0  0  0  0  0  2  0  0  0  0  0  0
  -24.7620  -31.1910   22.1570 N   0  0  0  0  0  0  0  0  0  0  0  0
  -23.6040  -32.2340   23.8150 O   0  0  0  0  0  0  0  0  0  0  0  0
  -22.8470  -29.5610   22.5560 C   0  0  0  0  0  0  0  0  0  0  0  0
  -21.5300  -29.3340   22.4040 N   0  0  0  0  0  0  0  0  0  0  0  0
  -23.5310  -28.9600   23.3870 O   0  0  0  0  0  0  0  0  0  0  0  0
  -21.0330  -29.8720   21.7080 H   0  0  0  0  0  0  0  0  0  0  0  0
  -18.1930  -27.9970   22.8450 C   0  0  0  0  0  0  0  0  0  0  0  0
  -20.7350  -28.3590   23.1560 C   0  0  0  0  0  3  0  0  0  0  0  0
  -20.9030  -26.9360   22.5730 C   0  0  0  0  0  2  0  0  0  0  0  0
  -19.8300  -26.5770   21.5390 C   0  0  0  0  0  2  0  0  0  0  0  0
  -18.4340  -26.6610   22.1620 C   0  0  0  0  0  2  0  0  0  0  0  0
  -19.2730  -28.8000   23.2970 C   0  0  0  0  0  0  0  0  0  0  0  0
  -18.9920  -30.0470   23.8970 C   0  0  0  0  0  3  0  0  0  0  0  0
  -17.6660  -30.4920   24.0490 C   0  0  0  0  0  3  0  0  0  0  0  0
  -16.6000  -29.6870   23.6120 C   0  0  0  0  0  3  0  0  0  0  0  0
  -16.8650  -28.4410   23.0160 C   0  0  0  0  0  3  0  0  0  0  0  0
  -25.9620  -32.6240   23.8990 C   0  0  0  0  0  3  0  0  0  0  0  0
  -26.4720  -31.8600   25.1830 C   0  0  1  0  0  0  0  0  0  0  0  0
  -25.3710  -31.6140   26.2400 C   0  0  0  0  0  1  0  0  0  0  0  0
  -27.0720  -30.4860   24.8020 C   0  0  0  0  0  1  0  0  0  0  0  0
  -27.6100  -32.6660   25.8540 C   0  0  0  0  0  1  0  0  0  0  0  0
  -25.6410  -34.0220   24.2290 N   0  0  0  0  0  0  0  0  0  0  0  0
  -25.9490  -35.0780   23.4630 C   0  0  0  0  0  0  0  0  0  0  0  0
  -26.6000  -34.9780   22.4190 O   0  0  0  0  0  0  0  0  0  0  0  0
  -25.0590  -34.1720   25.0400 H   0  0  0  0  0  0  0  0  0  0  0  0
  -24.1900  -36.8500   23.1530 C   0  0  0  0  0  1  0  0  0  0  0  0
  -25.4600  -36.4630   23.9280 C   0  0  0  0  0  3  0  0  0  0  0  0
  -27.6020  -37.3870   24.6960 C   0  0  0  0  0  1  0  0  0  0  0  0
  -26.4760  -37.5280   23.7780 N   0  0  0  0  0  0  0  0  0  0  0  0
  -26.0620  -38.4450   23.9220 H   0  0  0  0  0  0  0  0  0  0  0  0
  1  2  1  0
  1  6  2  0
  3  2  1  0
  4 53  1  0
  4  3  1  0
  4  5  1  0
  5  1  1  0
  7 10  1  0
  8  7  2  0
  8 11  1  0
 10  5  1  0
 10  9  2  0
 11 12  2  0
 12  9  1  0
 12 13  1  0
 15 20  1  0
 16 17  1  0
 16 15  1  0
 18 17  1  0
 18 26  1  0
 18 19  1  0
 20 14  1  0
 20 19  1  0
 21 14  2  0
 22 14  1  0
 22 11  1  0
 23 24  2  0
 24 43  1  0
 25 24  1  0
 25 28  1  0
 26 27  1  0
 26 23  1  0
 27 25  2  0
 28 29  1  0
 29 30  2  0
 31 34  1  0
 31 30  1  0
 32 31  2  0
 33 32  1  0
 33 28  2  0
 34 35  1  0
 35 40  2  0
 35 36  1  0
 36 37  2  0
 37 38  1  0
 38 42  1  0
 39 38  2  0
 40 39  1  0
 41 40  1  0
 43 44  1  0
 44 47  1  0
 44 46  1  0
 45 43  2  0
 48 23  1  0
 48 49  1  0
 50 48  1  0
 51 52  2  0
 52 22  1  0
 54 53  1  0
 55 66  2  0
 56 54  1  0
 56 61  1  0
 57 65  1  0
 57 67  1  0
 58 64  1  0
 58 60  1  0
 59 65  1  0
 60 59  1  0
 61 60  2  0
 62 63  1  0
 62 56  2  0
 63 58  2  0
 64 57  1  0
 65 55  1  0
 67 69  2  0
 68 67  1  0
 70 68  1  0
 71 80  2  0
 71 76  1  0
 72 68  1  0
 72 76  1  0
 73 72  1  0
 74 75  1  0
 74 73  1  0
 75 71  1  0
 76 77  2  0
 77 78  1  0
 79 78  2  0
 80 79  1  0
 81 55  1  0
 81 86  1  0
 81 82  1  0
 82 85  1  1
 82 83  1  0
 84 82  1  0
 86 89  1  0
 87 91  1  0
 87 86  1  0
 88 87  2  0
 91 90  1  0
 93 94  1  0
 93 91  1  0
 93 92  1  0
M  ISO  4  14 100  22 100  53 101  54 101
M  END
>  <TORSDO>  (14) 
F 19

>  <SCORE>  (14) 
-11.150

>  <name>  (14) 
13

>  <ligand_id>  (14) 
13

>  <original_smiles>  (14) 
[H]C([H])=C([H])N(C(=O)N1C([H])([H])C([H])([H])C([H])([H])C([H])(n2nc(-c3c([H])c([H])c(Oc4c([H])c([H])c(F)c([H])c4F)c([H])c3[H])c(C(=O)N([H])[H])c2N([H])[H])C1([H])[H])c1c([H])c([H])c(N2C(=O)C([H])([H])C([H])([H])C2([H])C([H])([H])Oc2c([H])c([H])c3c(c2[H])C([H])([H])N(C(=O)C([H])(N([H])C(=O)C([H])(N([H])C([H])([H])[H])C([H])([H])[H])C(C([H])([H])[H])(C([H])([H])[H])C([H])([H])[H])C([H])(C(=O)N([H])C2([H])c4c([H])c([H])c([H])c([H])c4C([H])([H])C([H])([H])C2([H])[H])C3([H])[H])c([H])c1F

>  <smiles>  (14) 
[H]C([H])=C([H])N(C(=O)N1C([H])([H])C([H])([H])C([H])([H])C([H])(n2nc(-c3c([H])c([H])c(Oc4c([H])c([H])c(F)c([H])c4F)c([H])c3[H])c(C(=O)N([H])[H])c2N([H])[H])C1([H])[H])c1c([H])c([H])c(N2C(=O)C([H])([H])C([H])([H])C2([H])C([H])([H])Oc2c([H])c([H])c3c(c2[H])C([H])([H])N(C(=O)C([H])(N([H])C(=O)C([H])(N([H])C([H])([H])[H])C([H])([H])[H])C(C([H])([H])[H])(C([H])([H])[H])C([H])([H])[H])C([H])(C(=O)N([H])C2([H])c4c([H])c([H])c([H])c([H])c4C([H])([H])C([H])([H])C2([H])[H])C3([H])[H])c([H])c1F

$$$$
14:0:0
     RDKit          3D

 96105  0  0  1  0  0  0  0  0999 V2000
  -28.5690  -24.1310   20.2330 C   0  0  0  0  0  0  0  0  0  0  0  0
  -29.1370  -22.8930   19.9440 C   0  0  0  0  0  0  0  0  0  0  0  0
  -27.9410  -24.2790   21.5690 C   0  0  0  0  0  0  0  0  0  0  0  0
  -28.3670  -23.2790   22.6420 C   0  0  0  0  0  2  0  0  0  0  0  0
  -28.3710  -21.8490   22.0840 C   0  0  0  0  0  2  0  0  0  0  0  0
  -29.8340  -22.6570   18.6090 C   0  0  0  0  0  1  0  0  0  0  0  0
  -29.0980  -21.7480   20.8160 N   0  0  0  0  0  0  0  0  0  0  0  0
  -27.1000  -25.1330   21.8560 O   0  0  0  0  0  0  0  0  0  0  0  0
  -28.4910  -19.3690   20.3600 C   0  0  0  0  0  3  0  0  0  0  0  0
  -28.8090  -17.9820   20.2700 C   0  0  0  0  0  3  0  0  0  0  0  0
  -31.1260  -18.4840   20.6440 C   0  0  0  0  0  3  0  0  0  0  0  0
  -29.4730  -20.3660   20.5970 C   0  0  0  0  0  0  0  0  0  0  0  0
  -30.1390  -17.4880   20.3910 C   0  0  0  0  0  0  0  0  0  0  0  0
  -30.8030  -19.8760   20.7540 C   0  0  0  0  0  0  0  0  0  0  0  0
  -31.8040  -20.7540   21.0210 F   0  0  0  0  0  0  0  0  0  0  0  0
  -31.0830  -15.0860   20.6320 C   0  0  0  0  0  0  0  0  0  0  0  0
  -30.9600  -12.7280   19.8410 C   0  0  0  0  0  2  0  0  0  0  0  0
  -30.1050  -12.5570   18.5620 C   0  0  0  0  0  2  0  0  0  0  0  0
  -28.5870  -12.5690   18.8530 C   0  0  0  0  0  2  0  0  0  0  0  0
  -28.1360  -13.5710   19.9550 C   0  0  0  0  0  3  0  0  0  0  0  0
  -29.1090  -13.5810   21.1500 C   0  0  0  0  0  2  0  0  0  0  0  0
  -30.4360  -13.8750   20.6070 N   0  0  0  0  0  0  0  0  0  0  0  0
  -32.3170  -15.1050   20.7050 O   0  0  0  0  0  0  0  0  0  0  0  0
  -30.4660  -16.1260   19.9280 N   0  0  0  0  0  0  0  0  0  0  0  0
  -25.7250  -14.2420   20.5410 C   0  0  0  0  0  0  0  0  0  0  0  0
  -24.6110  -13.5020   20.8290 C   0  0  0  0  0  0  0  0  0  0  0  0
  -25.0380  -12.1390   20.8420 C   0  0  0  0  0  0  0  0  0  0  0  0
  -26.7580  -13.3330   20.3760 N   0  0  0  0  0  0  0  0  0  0  0  0
  -26.3460  -12.0640   20.6320 N   0  0  0  0  0  0  0  0  0  0  0  0
  -24.2680  -10.8950   20.9800 C   0  0  0  0  0  0  0  0  0  0  0  0
  -24.6340   -9.9000   21.9120 C   0  0  0  0  0  3  0  0  0  0  0  0
  -23.8660   -8.7220   22.0420 C   0  0  0  0  0  3  0  0  0  0  0  0
  -22.7200   -8.5310   21.2330 C   0  0  0  0  0  0  0  0  0  0  0  0
  -22.3760   -9.5120   20.2880 C   0  0  0  0  0  3  0  0  0  0  0  0
  -23.1430  -10.6820   20.1580 C   0  0  0  0  0  3  0  0  0  0  0  0
  -21.9320   -7.4050   21.2670 O   0  0  0  0  0  0  0  0  0  0  0  0
  -21.7930   -6.6570   22.4090 C   0  0  0  0  0  0  0  0  0  0  0  0
  -21.2860   -7.2120   23.6030 C   0  0  0  0  0  3  0  0  0  0  0  0
  -21.0950   -6.3930   24.7350 C   0  0  0  0  0  3  0  0  0  0  0  0
  -21.4010   -5.0210   24.6690 C   0  0  0  0  0  0  0  0  0  0  0  0
  -21.9020   -4.4650   23.4790 C   0  0  0  0  0  3  0  0  0  0  0  0
  -22.0950   -5.2820   22.3510 C   0  0  0  0  0  0  0  0  0  0  0  0
  -22.5580   -4.7370   21.2000 F   0  0  0  0  0  0  0  0  0  0  0  0
  -21.2090   -4.2320   25.7530 F   0  0  0  0  0  0  0  0  0  0  0  0
  -23.2100  -14.0190   20.9810 C   0  0  0  0  0  0  0  0  0  0  0  0
  -22.3990  -13.3670   21.8120 N   0  0  0  0  0  0  0  0  0  0  0  0
  -22.8350  -15.0320   20.3970 O   0  0  0  0  0  0  0  0  0  0  0  0
  -22.7090  -12.5510   22.3170 H   0  0  0  0  0  0  0  0  0  0  0  0
  -21.4520  -13.6950   21.9390 H   0  0  0  0  0  0  0  0  0  0  0  0
  -25.9320  -15.6070   20.3830 N   0  0  0  0  0  0  0  0  0  0  0  0
  -25.1710  -16.2750   20.4440 H   0  0  0  0  0  0  0  0  0  0  0  0
  -26.8220  -16.0360   20.1720 H   0  0  0  0  0  0  0  0  0  0  0  0
  -30.3810  -17.2640   17.5840 C   0  0  0  0  0  1  0  0  0  0  0  0
  -30.9150  -16.1450   18.5070 C   0  0  0  0  0  2  0  0  0  0  0  0
  -28.5150  -25.3870   19.2660 C   0  0  0  0  0  2  0  0  0  0  0  0
  -28.4140  -26.7710   19.7930 O   0  0  0  0  0  0  0  0  0  0  0  0
  -24.5950  -31.8660   23.0980 C   0  0  0  0  0  0  0  0  0  0  0  0
  -27.2400  -27.5390   19.7690 C   0  0  0  0  0  0  0  0  0  0  0  0
  -23.3790  -30.5140   21.4230 C   0  0  0  0  0  3  0  0  0  0  0  0
  -24.8270  -29.0730   19.8810 C   0  0  0  0  0  0  0  0  0  0  0  0
  -25.8940  -30.9250   21.1700 C   0  0  0  0  0  2  0  0  0  0  0  0
  -25.9930  -29.5730   20.4740 C   0  0  0  0  0  0  0  0  0  0  0  0
  -27.1960  -28.8120   20.4110 C   0  0  0  0  0  3  0  0  0  0  0  0
  -26.0480  -27.0860   19.1580 C   0  0  0  0  0  3  0  0  0  0  0  0
  -24.8560  -27.8380   19.2120 C   0  0  0  0  0  3  0  0  0  0  0  0
  -23.5710  -29.9130   20.0030 C   0  0  0  0  0  2  0  0  0  0  0  0
  -24.6440  -31.1160   21.9570 N   0  0  0  0  0  0  0  0  0  0  0  0
  -23.5210  -32.0870   23.6750 O   0  0  0  0  0  0  0  0  0  0  0  0
  -22.7670  -29.4380   22.3540 C   0  0  0  0  0  0  0  0  0  0  0  0
  -21.4400  -29.2430   22.2700 N   0  0  0  0  0  0  0  0  0  0  0  0
  -23.4880  -28.7850   23.1120 O   0  0  0  0  0  0  0  0  0  0  0  0
  -20.9150  -29.8310   21.6380 H   0  0  0  0  0  0  0  0  0  0  0  0
  -18.1020  -27.9620   22.8160 C   0  0  0  0  0  0  0  0  0  0  0  0
  -20.6640  -28.2520   23.0190 C   0  0  0  0  0  3  0  0  0  0  0  0
  -20.7690  -26.8530   22.3690 C   0  0  0  0  0  2  0  0  0  0  0  0
  -19.6410  -26.5620   21.3740 C   0  0  0  0  0  2  0  0  0  0  0  0
  -18.2790  -26.6500   22.0690 C   0  0  0  0  0  2  0  0  0  0  0  0
  -19.2220  -28.7210   23.2490 C   0  0  0  0  0  0  0  0  0  0  0  0
  -19.0020  -29.9460   23.9150 C   0  0  0  0  0  3  0  0  0  0  0  0
  -17.6960  -30.4190   24.1400 C   0  0  0  0  0  3  0  0  0  0  0  0
  -16.5920  -29.6580   23.7210 C   0  0  0  0  0  3  0  0  0  0  0  0
  -16.7960  -28.4270   23.0700 C   0  0  0  0  0  3  0  0  0  0  0  0
  -25.8780  -32.5030   23.7160 C   0  0  0  0  0  3  0  0  0  0  0  0
  -26.4220  -31.7080   24.9660 C   0  0  1  0  0  0  0  0  0  0  0  0
  -25.3490  -31.4500   26.0470 C   0  0  0  0  0  1  0  0  0  0  0  0
  -26.9930  -30.3380   24.5290 C   0  0  0  0  0  1  0  0  0  0  0  0
  -27.5830  -32.4880   25.6240 C   0  0  0  0  0  1  0  0  0  0  0  0
  -25.5600  -33.8900   24.0800 N   0  0  0  0  0  0  0  0  0  0  0  0
  -25.8970  -34.9620   23.3500 C   0  0  0  0  0  0  0  0  0  0  0  0
  -26.5750  -34.8850   22.3220 O   0  0  0  0  0  0  0  0  0  0  0  0
  -24.9650  -34.0250   24.8840 H   0  0  0  0  0  0  0  0  0  0  0  0
  -24.1740  -36.7620   23.0100 C   0  0  0  0  0  1  0  0  0  0  0  0
  -25.4000  -36.3360   23.8360 C   0  0  0  0  0  3  0  0  0  0  0  0
  -27.5180  -37.1990   24.7360 C   0  0  0  0  0  1  0  0  0  0  0  0
  -26.4350  -37.3920   23.7740 N   0  0  0  0  0  0  0  0  0  0  0  0
  -26.0240  -38.3080   23.9350 H   0  0  0  0  0  0  0  0  0  0  0  0
  1  3  1  0
  2  1  2  0
  2  7  1  0
  3  8  2  0
  3  4  1  0
  5  4  1  0
  6  2  1  0
  7  5  1  0
  9 12  1  0
 10  9  2  0
 10 13  1  0
 11 14  1  0
 12 14  2  0
 12  7  1  0
 13 11  2  0
 14 15  1  0
 16 23  2  0
 17 22  1  0
 18 19  1  0
 18 17  1  0
 20 19  1  0
 20 28  1  0
 20 21  1  0
 22 16  1  0
 22 21  1  0
 24 13  1  0
 24 16  1  0
 25 26  2  0
 26 27  1  0
 26 45  1  0
 27 30  1  0
 28 25  1  0
 28 29  1  0
 29 27  2  0
 30 31  1  0
 31 32  2  0
 33 36  1  0
 33 32  1  0
 34 33  2  0
 35 34  1  0
 35 30  2  0
 36 37  1  0
 37 38  1  0
 38 39  2  0
 40 39  1  0
 40 44  1  0
 41 40  2  0
 42 37  2  0
 42 41  1  0
 43 42  1  0
 45 46  1  0
 46 49  1  0
 46 48  1  0
 47 45  2  0
 50 51  1  0
 50 25  1  0
 52 50  1  0
 53 54  1  0
 54 24  1  0
 55 56  1  0
 55  1  1  0
 57 68  2  0
 58 56  1  0
 58 63  1  0
 59 67  1  0
 59 69  1  0
 60 66  1  0
 60 62  1  0
 61 67  1  0
 62 61  1  0
 63 62  2  0
 64 65  1  0
 64 58  2  0
 65 60  2  0
 66 59  1  0
 67 57  1  0
 69 71  2  0
 70 69  1  0
 72 70  1  0
 73 82  2  0
 73 78  1  0
 74 70  1  0
 74 78  1  0
 75 74  1  0
 76 77  1  0
 76 75  1  0
 77 73  1  0
 78 79  2  0
 79 80  1  0
 81 80  2  0
 82 81  1  0
 83 57  1  0
 83 88  1  0
 83 84  1  0
 84 87  1  1
 84 85  1  0
 86 84  1  0
 88 91  1  0
 89 93  1  0
 89 88  1  0
 90 89  2  0
 93 92  1  0
 95 93  1  0
 95 96  1  0
 95 94  1  0
M  ISO  4  16 100  24 100  55 101  56 101
M  END
>  <TORSDO>  (15) 
F 19

>  <SCORE>  (15) 
-13.170

>  <name>  (15) 
14

>  <ligand_id>  (15) 
14

>  <original_smiles>  (15) 
[H]c1c([H])c([H])c2c(c1[H])C([H])([H])C([H])([H])C([H])([H])C2([H])N([H])C(=O)C1([H])N(C(=O)C([H])(N([H])C(=O)C([H])(N([H])C([H])([H])[H])C([H])([H])[H])C(C([H])([H])[H])(C([H])([H])[H])C([H])([H])[H])C([H])([H])c2c([H])c(OC([H])([H])C3=C(C([H])([H])[H])N(c4c([H])c([H])c(N(C(=O)N5C([H])([H])C([H])([H])C([H])([H])C([H])(n6nc(-c7c([H])c([H])c(Oc8c([H])c([H])c(F)c([H])c8F)c([H])c7[H])c(C(=O)N([H])[H])c6N([H])[H])C5([H])[H])C([H])([H])C([H])([H])[H])c([H])c4F)C([H])([H])C([H])([H])C3=O)c([H])c([H])c2C1([H])[H]

>  <smiles>  (15) 
[H]c1c([H])c([H])c2c(c1[H])C([H])([H])C([H])([H])C([H])([H])C2([H])N([H])C(=O)C1([H])N(C(=O)C([H])(N([H])C(=O)C([H])(N([H])C([H])([H])[H])C([H])([H])[H])C(C([H])([H])[H])(C([H])([H])[H])C([H])([H])[H])C([H])([H])c2c([H])c(OC([H])([H])C3=C(C([H])([H])[H])N(c4c([H])c([H])c(N(C(=O)N5C([H])([H])C([H])([H])C([H])([H])C([H])(n6nc(-c7c([H])c([H])c(Oc8c([H])c([H])c(F)c([H])c8F)c([H])c7[H])c(C(=O)N([H])[H])c6N([H])[H])C5([H])[H])C([H])([H])C([H])([H])[H])c([H])c4F)C([H])([H])C([H])([H])C3=O)c([H])c([H])c2C1([H])[H]

$$$$
15:0:0
     RDKit          3D

 93101  0  0  1  0  0  0  0  0999 V2000
  -29.2360  -22.7110   20.3950 C   0  0  0  0  0  0  0  0  0  0  0  0
  -31.5730  -22.2480   20.8430 C   0  0  0  0  0  1  0  0  0  0  0  0
  -30.2350  -21.7580   20.4670 N   0  0  0  0  0  0  0  0  0  0  0  0
  -28.0500  -22.3830   20.4480 O   0  0  0  0  0  0  0  0  0  0  0  0
  -29.7970  -19.4460   19.3980 C   0  0  0  0  0  3  0  0  0  0  0  0
  -30.5630  -18.1970   21.7230 C   0  0  0  0  0  3  0  0  0  0  0  0
  -29.8800  -18.0000   19.4350 C   0  0  0  0  0  0  0  0  0  0  0  0
  -30.4090  -19.6050   21.7170 C   0  0  0  0  0  0  0  0  0  0  0  0
  -30.0780  -20.2920   20.5260 C   0  0  0  0  0  0  0  0  0  0  0  0
  -30.2980  -17.3080   20.6290 C   0  0  0  0  0  0  0  0  0  0  0  0
  -29.5550  -17.2270   18.1500 C   0  0  0  0  0  1  0  0  0  0  0  0
  -30.6560  -20.3490   23.0290 C   0  0  0  0  0  1  0  0  0  0  0  0
  -30.7940  -14.7910   20.0170 C   0  0  0  0  0  0  0  0  0  0  0  0
  -30.3570  -12.5750   18.9100 C   0  0  0  0  0  2  0  0  0  0  0  0
  -29.3450  -12.7600   17.7610 C   0  0  0  0  0  2  0  0  0  0  0  0
  -27.9140  -12.5650   18.2860 C   0  0  0  0  0  2  0  0  0  0  0  0
  -27.6540  -13.3690   19.5880 C   0  0  0  0  0  3  0  0  0  0  0  0
  -28.8140  -13.2480   20.6130 C   0  0  0  0  0  2  0  0  0  0  0  0
  -30.0740  -13.6080   19.9380 N   0  0  0  0  0  0  0  0  0  0  0  0
  -31.8230  -14.9140   19.3550 O   0  0  0  0  0  0  0  0  0  0  0  0
  -30.6590  -15.4630   22.2700 C   0  0  0  0  0  1  0  0  0  0  0  0
  -30.4020  -15.8190   20.8670 N   0  0  0  0  0  0  0  0  0  0  0  0
  -25.3180  -13.9050   20.5050 C   0  0  0  0  0  0  0  0  0  0  0  0
  -24.2770  -13.1040   20.9110 C   0  0  0  0  0  0  0  0  0  0  0  0
  -24.7370  -11.7590   20.7780 C   0  0  0  0  0  0  0  0  0  0  0  0
  -26.3470  -13.0400   20.1610 N   0  0  0  0  0  0  0  0  0  0  0  0
  -26.0060  -11.7410   20.3830 N   0  0  0  0  0  0  0  0  0  0  0  0
  -24.0220  -10.4870   20.9680 C   0  0  0  0  0  0  0  0  0  0  0  0
  -24.4770   -9.5190   21.8890 C   0  0  0  0  0  3  0  0  0  0  0  0
  -23.7630   -8.3140   22.0760 C   0  0  0  0  0  3  0  0  0  0  0  0
  -22.5800   -8.0680   21.3370 C   0  0  0  0  0  0  0  0  0  0  0  0
  -22.1430   -9.0270   20.4050 C   0  0  0  0  0  3  0  0  0  0  0  0
  -22.8570  -10.2240   20.2190 C   0  0  0  0  0  3  0  0  0  0  0  0
  -21.8410   -6.9100   21.4250 O   0  0  0  0  0  0  0  0  0  0  0  0
  -21.7530   -6.1950   22.5930 C   0  0  0  0  0  0  0  0  0  0  0  0
  -21.2640   -6.7770   23.7840 C   0  0  0  0  0  3  0  0  0  0  0  0
  -21.1260   -5.9940   24.9460 C   0  0  0  0  0  3  0  0  0  0  0  0
  -21.4610   -4.6280   24.9190 C   0  0  0  0  0  0  0  0  0  0  0  0
  -21.9380   -4.0430   23.7330 C   0  0  0  0  0  3  0  0  0  0  0  0
  -22.0800   -4.8250   22.5730 C   0  0  0  0  0  0  0  0  0  0  0  0
  -22.5210   -4.2540   21.4270 F   0  0  0  0  0  0  0  0  0  0  0  0
  -21.3210   -3.8710   26.0350 F   0  0  0  0  0  0  0  0  0  0  0  0
  -22.9060  -13.5660   21.3040 C   0  0  0  0  0  0  0  0  0  0  0  0
  -22.2590  -12.8390   22.2160 N   0  0  0  0  0  0  0  0  0  0  0  0
  -22.4170  -14.5920   20.8420 O   0  0  0  0  0  0  0  0  0  0  0  0
  -22.6760  -12.0110   22.6040 H   0  0  0  0  0  0  0  0  0  0  0  0
  -21.3380  -13.1190   22.5200 H   0  0  0  0  0  0  0  0  0  0  0  0
  -25.4700  -15.2810   20.3800 N   0  0  0  0  0  0  0  0  0  0  0  0
  -24.7260  -15.9400   20.5820 H   0  0  0  0  0  0  0  0  0  0  0  0
  -26.3180  -15.7270   20.0490 H   0  0  0  0  0  0  0  0  0  0  0  0
  -29.5920  -24.2580   20.2980 C   0  0  0  0  0  2  0  0  0  0  0  0
  -28.4390  -25.2460   19.8000 C   0  0  0  0  0  2  0  0  0  0  0  0
  -28.4520  -26.6720   20.1930 O   0  0  0  0  0  0  0  0  0  0  0  0
  -24.6150  -31.9220   23.2370 C   0  0  0  0  0  0  0  0  0  0  0  0
  -27.2700  -27.4410   20.1430 C   0  0  0  0  0  0  0  0  0  0  0  0
  -23.4060  -30.5360   21.5860 C   0  0  0  0  0  3  0  0  0  0  0  0
  -24.8660  -29.0140   20.1380 C   0  0  0  0  0  0  0  0  0  0  0  0
  -25.9390  -30.8910   21.3880 C   0  0  0  0  0  2  0  0  0  0  0  0
  -26.0300  -29.5220   20.7280 C   0  0  0  0  0  0  0  0  0  0  0  0
  -27.2260  -28.7450   20.7230 C   0  0  0  0  0  3  0  0  0  0  0  0
  -26.0720  -26.9670   19.5520 C   0  0  0  0  0  3  0  0  0  0  0  0
  -24.8860  -27.7380   19.5530 C   0  0  0  0  0  3  0  0  0  0  0  0
  -23.6080  -29.8650   20.2030 C   0  0  0  0  0  2  0  0  0  0  0  0
  -24.6730  -31.1300   22.1250 N   0  0  0  0  0  0  0  0  0  0  0  0
  -23.5360  -32.1950   23.7820 O   0  0  0  0  0  0  0  0  0  0  0  0
  -22.7580  -29.5080   22.5420 C   0  0  0  0  0  0  0  0  0  0  0  0
  -21.4370  -29.3030   22.4080 N   0  0  0  0  0  0  0  0  0  0  0  0
  -23.4440  -28.8930   23.3630 O   0  0  0  0  0  0  0  0  0  0  0  0
  -20.9430  -29.8350   21.7050 H   0  0  0  0  0  0  0  0  0  0  0  0
  -18.0820  -28.0670   22.8970 C   0  0  0  0  0  0  0  0  0  0  0  0
  -20.6330  -28.3570   23.1800 C   0  0  0  0  0  3  0  0  0  0  0  0
  -20.7590  -26.9260   22.6070 C   0  0  0  0  0  2  0  0  0  0  0  0
  -19.6680  -26.5870   21.5880 C   0  0  0  0  0  2  0  0  0  0  0  0
  -18.2790  -26.7170   22.2220 C   0  0  0  0  0  2  0  0  0  0  0  0
  -19.1890  -28.8440   23.3300 C   0  0  0  0  0  0  0  0  0  0  0  0
  -18.9530  -30.1070   23.9180 C   0  0  0  0  0  3  0  0  0  0  0  0
  -17.6430  -30.5930   24.0740 C   0  0  0  0  0  3  0  0  0  0  0  0
  -16.5490  -29.8130   23.6610 C   0  0  0  0  0  3  0  0  0  0  0  0
  -16.7690  -28.5500   23.0800 C   0  0  0  0  0  3  0  0  0  0  0  0
  -25.9010  -32.5520   23.8580 C   0  0  0  0  0  3  0  0  0  0  0  0
  -26.4280  -31.7820   25.1310 C   0  0  1  0  0  0  0  0  0  0  0  0
  -25.3450  -31.5230   26.2050 C   0  0  0  0  0  1  0  0  0  0  0  0
  -27.0210  -30.4100   24.7420 C   0  0  0  0  0  1  0  0  0  0  0  0
  -27.5820  -32.5840   25.7800 C   0  0  0  0  0  1  0  0  0  0  0  0
  -25.5950  -33.9540   24.1820 N   0  0  0  0  0  0  0  0  0  0  0  0
  -25.9170  -35.0000   23.4060 C   0  0  0  0  0  0  0  0  0  0  0  0
  -26.5720  -34.8850   22.3650 O   0  0  0  0  0  0  0  0  0  0  0  0
  -25.0080  -34.1220   24.9880 H   0  0  0  0  0  0  0  0  0  0  0  0
  -24.1720  -36.7730   23.0760 C   0  0  0  0  0  1  0  0  0  0  0  0
  -25.4360  -36.3900   23.8590 C   0  0  0  0  0  3  0  0  0  0  0  0
  -27.5840  -37.2900   24.6260 C   0  0  0  0  0  1  0  0  0  0  0  0
  -26.4580  -37.4440   23.7090 N   0  0  0  0  0  0  0  0  0  0  0  0
  -26.0510  -38.3610   23.8620 H   0  0  0  0  0  0  0  0  0  0  0  0
  1  4  2  0
  1  3  1  0
  3  9  1  0
  3  2  1  0
  5  7  2  0
  5  9  1  0
  7 10  1  0
  8  6  1  0
  8 12  1  0
  9  8  2  0
 10 22  1  0
 10  6  2  0
 11  7  1  0
 13 22  1  0
 14 19  1  0
 15 16  1  0
 15 14  1  0
 17 16  1  0
 17 26  1  0
 17 18  1  0
 19 13  1  0
 19 18  1  0
 20 13  2  0
 22 21  1  0
 23 24  2  0
 24 43  1  0
 25 24  1  0
 25 28  1  0
 26 27  1  0
 26 23  1  0
 27 25  2  0
 28 29  1  0
 29 30  2  0
 31 34  1  0
 31 30  1  0
 32 31  2  0
 33 32  1  0
 33 28  2  0
 34 35  1  0
 35 36  1  0
 36 37  2  0
 38 37  1  0
 38 42  1  0
 39 38  2  0
 40 35  2  0
 40 39  1  0
 41 40  1  0
 43 44  1  0
 44 47  1  0
 44 46  1  0
 45 43  2  0
 48 23  1  0
 48 49  1  0
 50 48  1  0
 51  1  1  0
 52 53  1  0
 52 51  1  0
 54 65  2  0
 55 53  1  0
 55 60  1  0
 56 64  1  0
 56 66  1  0
 57 63  1  0
 57 59  1  0
 58 64  1  0
 59 58  1  0
 60 59  2  0
 61 62  1  0
 61 55  2  0
 62 57  2  0
 63 56  1  0
 64 54  1  0
 66 68  2  0
 67 66  1  0
 69 67  1  0
 70 79  2  0
 70 75  1  0
 71 67  1  0
 71 75  1  0
 72 71  1  0
 73 74  1  0
 73 72  1  0
 74 70  1  0
 75 76  2  0
 76 77  1  0
 78 77  2  0
 79 78  1  0
 80 54  1  0
 80 85  1  0
 80 81  1  0
 81 84  1  1
 81 82  1  0
 83 81  1  0
 85 88  1  0
 86 90  1  0
 86 85  1  0
 87 86  2  0
 90 89  1  0
 92 90  1  0
 92 93  1  0
 92 91  1  0
M  ISO  4  13 100  22 100  52 101  53 101
M  END
>  <TORSDO>  (16) 
F 19

>  <SCORE>  (16) 
-13.286

>  <name>  (16) 
15

>  <ligand_id>  (16) 
15

>  <original_smiles>  (16) 
[H]c1c([H])c([H])c2c(c1[H])C([H])([H])C([H])([H])C([H])([H])C2([H])N([H])C(=O)C1([H])N(C(=O)C([H])(N([H])C(=O)C([H])(N([H])C([H])([H])[H])C([H])([H])[H])C(C([H])([H])[H])(C([H])([H])[H])C([H])([H])[H])C([H])([H])c2c([H])c(OC([H])([H])C([H])([H])C(=O)N(c3c([H])c(C([H])([H])[H])c(N(C(=O)N4C([H])([H])C([H])([H])C([H])([H])C([H])(n5nc(-c6c([H])c([H])c(Oc7c([H])c([H])c(F)c([H])c7F)c([H])c6[H])c(C(=O)N([H])[H])c5N([H])[H])C4([H])[H])C([H])([H])[H])c([H])c3C([H])([H])[H])C([H])([H])[H])c([H])c([H])c2C1([H])[H]

>  <smiles>  (16) 
[H]c1c([H])c([H])c2c(c1[H])C([H])([H])C([H])([H])C([H])([H])C2([H])N([H])C(=O)C1([H])N(C(=O)C([H])(N([H])C(=O)C([H])(N([H])C([H])([H])[H])C([H])([H])[H])C(C([H])([H])[H])(C([H])([H])[H])C([H])([H])[H])C([H])([H])c2c([H])c(OC([H])([H])C([H])([H])C(=O)N(c3c([H])c(C([H])([H])[H])c(N(C(=O)N4C([H])([H])C([H])([H])C([H])([H])C([H])(n5nc(-c6c([H])c([H])c(Oc7c([H])c([H])c(F)c([H])c7F)c([H])c6[H])c(C(=O)N([H])[H])c5N([H])[H])C4([H])[H])C([H])([H])[H])c([H])c3C([H])([H])[H])C([H])([H])[H])c([H])c([H])c2C1([H])[H]

$$$$
16:0:0
     RDKit          3D

 92100  0  0  1  0  0  0  0  0999 V2000
  -30.1340  -20.6390   20.7980 C   0  0  0  0  0  0  0  0  0  0  0  0
  -29.3500  -21.6980   20.4530 N   0  0  0  0  0  0  0  0  0  0  0  0
  -31.1410  -20.7590   21.5030 O   0  0  0  0  0  0  0  0  0  0  0  0
  -28.5390  -21.4300   19.9150 H   0  0  0  0  0  0  0  0  0  0  0  0
  -28.9850  -18.0330   18.2660 C   0  0  0  0  0  3  0  0  0  0  0  0
  -29.2550  -19.2570   18.8880 C   0  0  0  0  0  3  0  0  0  0  0  0
  -29.2330  -16.8500   18.9740 C   0  0  0  0  0  3  0  0  0  0  0  0
  -29.7590  -19.2800   20.2020 C   0  0  0  0  0  0  0  0  0  0  0  0
  -29.7680  -16.8930   20.2780 C   0  0  0  0  0  0  0  0  0  0  0  0
  -30.0070  -18.1050   20.8760 N   0  0  0  0  0  0  0  0  0  0  0  0
  -30.6500  -14.5850   20.4580 C   0  0  0  0  0  0  0  0  0  0  0  0
  -30.3820  -12.3960   19.3360 C   0  0  0  0  0  2  0  0  0  0  0  0
  -29.4480  -12.5870   18.1240 C   0  0  0  0  0  2  0  0  0  0  0  0
  -27.9710  -12.4460   18.5420 C   0  0  0  0  0  2  0  0  0  0  0  0
  -27.6220  -13.2630   19.8170 C   0  0  0  0  0  3  0  0  0  0  0  0
  -28.6810  -13.0660   20.9250 C   0  0  0  0  0  2  0  0  0  0  0  0
  -30.0020  -13.3850   20.3630 N   0  0  0  0  0  0  0  0  0  0  0  0
  -31.7890  -14.7510   20.0070 O   0  0  0  0  0  0  0  0  0  0  0  0
  -29.9300  -15.6280   20.9420 N   0  0  0  0  0  0  0  0  0  0  0  0
  -29.1280  -15.3420   21.4820 H   0  0  0  0  0  0  0  0  0  0  0  0
  -25.2190  -13.8310   20.5250 C   0  0  0  0  0  0  0  0  0  0  0  0
  -24.1610  -13.0460   20.8920 C   0  0  0  0  0  0  0  0  0  0  0  0
  -24.6380  -11.6990   20.8600 C   0  0  0  0  0  0  0  0  0  0  0  0
  -26.2740  -12.9650   20.2920 N   0  0  0  0  0  0  0  0  0  0  0  0
  -25.9300  -11.6770   20.5540 N   0  0  0  0  0  0  0  0  0  0  0  0
  -23.9270  -10.4280   21.0460 C   0  0  0  0  0  0  0  0  0  0  0  0
  -24.3710   -9.4640   21.9770 C   0  0  0  0  0  3  0  0  0  0  0  0
  -23.6600   -8.2580   22.1540 C   0  0  0  0  0  3  0  0  0  0  0  0
  -22.4900   -8.0070   21.4000 C   0  0  0  0  0  0  0  0  0  0  0  0
  -22.0680   -8.9570   20.4540 C   0  0  0  0  0  3  0  0  0  0  0  0
  -22.7780  -10.1560   20.2750 C   0  0  0  0  0  3  0  0  0  0  0  0
  -21.7540   -6.8500   21.4830 O   0  0  0  0  0  0  0  0  0  0  0  0
  -21.7150   -6.1020   22.6330 C   0  0  0  0  0  0  0  0  0  0  0  0
  -21.2750   -6.6460   23.8590 C   0  0  0  0  0  3  0  0  0  0  0  0
  -21.1810   -5.8240   25.0010 C   0  0  0  0  0  3  0  0  0  0  0  0
  -21.5190   -4.4600   24.9170 C   0  0  0  0  0  0  0  0  0  0  0  0
  -21.9530   -3.9160   23.6960 C   0  0  0  0  0  3  0  0  0  0  0  0
  -22.0460   -4.7360   22.5560 C   0  0  0  0  0  0  0  0  0  0  0  0
  -22.4430   -4.2000   21.3760 F   0  0  0  0  0  0  0  0  0  0  0  0
  -21.4250   -3.6680   26.0120 F   0  0  0  0  0  0  0  0  0  0  0  0
  -22.7590  -13.5050   21.1650 C   0  0  0  0  0  0  0  0  0  0  0  0
  -22.0380  -12.7960   22.0290 N   0  0  0  0  0  0  0  0  0  0  0  0
  -22.3060  -14.5230   20.6450 O   0  0  0  0  0  0  0  0  0  0  0  0
  -22.4130  -11.9730   22.4780 H   0  0  0  0  0  0  0  0  0  0  0  0
  -21.0950  -13.0850   22.2500 H   0  0  0  0  0  0  0  0  0  0  0  0
  -25.3700  -15.2050   20.3500 N   0  0  0  0  0  0  0  0  0  0  0  0
  -24.6040  -15.8610   20.4670 H   0  0  0  0  0  0  0  0  0  0  0  0
  -26.2200  -15.6440   20.0210 H   0  0  0  0  0  0  0  0  0  0  0  0
  -29.7560  -23.1310   20.3980 C   0  0  0  0  0  2  0  0  0  0  0  0
  -28.6440  -24.2300   20.6180 C   0  0  0  0  0  2  0  0  0  0  0  0
  -28.8220  -25.5220   19.7400 C   0  0  0  0  0  2  0  0  0  0  0  0
  -28.5140  -26.8010   20.3330 O   0  0  0  0  0  0  0  0  0  0  0  0
  -24.5730  -31.9160   23.2360 C   0  0  0  0  0  0  0  0  0  0  0  0
  -27.2980  -27.4620   20.2290 C   0  0  0  0  0  0  0  0  0  0  0  0
  -23.3830  -30.4920   21.5910 C   0  0  0  0  0  3  0  0  0  0  0  0
  -24.8620  -28.9350   20.1970 C   0  0  0  0  0  0  0  0  0  0  0  0
  -25.9000  -30.8760   21.3930 C   0  0  0  0  0  2  0  0  0  0  0  0
  -26.0080  -29.4920   20.7760 C   0  0  0  0  0  0  0  0  0  0  0  0
  -27.2180  -28.7610   20.7890 C   0  0  0  0  0  3  0  0  0  0  0  0
  -26.1350  -26.9190   19.6370 C   0  0  0  0  0  3  0  0  0  0  0  0
  -24.9220  -27.6470   19.6280 C   0  0  0  0  0  3  0  0  0  0  0  0
  -23.6070  -29.7810   20.2260 C   0  0  0  0  0  2  0  0  0  0  0  0
  -24.6360  -31.1110   22.1340 N   0  0  0  0  0  0  0  0  0  0  0  0
  -23.4900  -32.1850   23.7720 O   0  0  0  0  0  0  0  0  0  0  0  0
  -22.7270  -29.4880   22.5630 C   0  0  0  0  0  0  0  0  0  0  0  0
  -21.4020  -29.3090   22.4370 N   0  0  0  0  0  0  0  0  0  0  0  0
  -23.4080  -28.8670   23.3840 O   0  0  0  0  0  0  0  0  0  0  0  0
  -20.9110  -29.8600   21.7470 H   0  0  0  0  0  0  0  0  0  0  0  0
  -18.0280  -28.1210   22.9370 C   0  0  0  0  0  0  0  0  0  0  0  0
  -20.5860  -28.3720   23.2090 C   0  0  0  0  0  3  0  0  0  0  0  0
  -20.6840  -26.9400   22.6310 C   0  0  0  0  0  2  0  0  0  0  0  0
  -19.5810  -26.6210   21.6170 C   0  0  0  0  0  2  0  0  0  0  0  0
  -18.2010  -26.7720   22.2610 C   0  0  0  0  0  2  0  0  0  0  0  0
  -19.1500  -28.8790   23.3690 C   0  0  0  0  0  0  0  0  0  0  0  0
  -18.9330  -30.1430   23.9600 C   0  0  0  0  0  3  0  0  0  0  0  0
  -17.6310  -30.6480   24.1260 C   0  0  0  0  0  3  0  0  0  0  0  0
  -16.5240  -29.8870   23.7120 C   0  0  0  0  0  3  0  0  0  0  0  0
  -16.7230  -28.6260   23.1210 C   0  0  0  0  0  3  0  0  0  0  0  0
  -25.8540  -32.5550   23.8610 C   0  0  0  0  0  3  0  0  0  0  0  0
  -26.3670  -31.7950   25.1440 C   0  0  1  0  0  0  0  0  0  0  0  0
  -25.2710  -31.5670   26.2110 C   0  0  0  0  0  1  0  0  0  0  0  0
  -26.9500  -30.4150   24.7580 C   0  0  0  0  0  1  0  0  0  0  0  0
  -27.5120  -32.5960   25.8090 C   0  0  0  0  0  1  0  0  0  0  0  0
  -25.5390  -33.9550   24.1790 N   0  0  0  0  0  0  0  0  0  0  0  0
  -25.8850  -35.0040   23.4200 C   0  0  0  0  0  0  0  0  0  0  0  0
  -26.5710  -34.8950   22.4000 O   0  0  0  0  0  0  0  0  0  0  0  0
  -24.9290  -34.1120   24.9670 H   0  0  0  0  0  0  0  0  0  0  0  0
  -24.1680  -36.8010   23.0280 C   0  0  0  0  0  1  0  0  0  0  0  0
  -25.3910  -36.3940   23.8650 C   0  0  0  0  0  3  0  0  0  0  0  0
  -27.5100  -37.2780   24.7350 C   0  0  0  0  0  1  0  0  0  0  0  0
  -26.4260  -37.4460   23.7710 N   0  0  0  0  0  0  0  0  0  0  0  0
  -26.0160  -38.3640   23.9150 H   0  0  0  0  0  0  0  0  0  0  0  0
  1  3  2  0
  2  1  1  0
  4  2  1  0
  5  6  2  0
  5  7  1  0
  6  8  1  0
  7  9  2  0
  8  1  1  0
  8 10  2  0
  9 10  1  0
  9 19  1  0
 11 19  1  0
 12 17  1  0
 13 14  1  0
 13 12  1  0
 15 14  1  0
 15 24  1  0
 15 16  1  0
 17 11  1  0
 17 16  1  0
 18 11  2  0
 19 20  1  0
 21 22  2  0
 22 41  1  0
 23 22  1  0
 23 26  1  0
 24 21  1  0
 24 25  1  0
 25 23  2  0
 26 27  1  0
 27 28  2  0
 29 32  1  0
 29 28  1  0
 30 29  2  0
 31 30  1  0
 31 26  2  0
 32 33  1  0
 33 34  1  0
 34 35  2  0
 36 35  1  0
 36 40  1  0
 37 36  2  0
 38 33  2  0
 38 37  1  0
 39 38  1  0
 41 42  1  0
 42 45  1  0
 42 44  1  0
 43 41  2  0
 46 47  1  0
 46 21  1  0
 48 46  1  0
 49  2  1  0
 49 50  1  0
 51 52  1  0
 51 50  1  0
 53 64  2  0
 54 52  1  0
 54 59  1  0
 55 63  1  0
 55 65  1  0
 56 62  1  0
 56 58  1  0
 57 63  1  0
 58 59  2  0
 58 57  1  0
 60 54  2  0
 61 60  1  0
 61 56  2  0
 62 55  1  0
 63 53  1  0
 65 67  2  0
 66 65  1  0
 68 66  1  0
 69 78  2  0
 69 74  1  0
 70 66  1  0
 70 74  1  0
 71 70  1  0
 72 73  1  0
 72 71  1  0
 73 69  1  0
 74 75  2  0
 75 76  1  0
 77 76  2  0
 78 77  1  0
 79 53  1  0
 79 84  1  0
 79 80  1  0
 80 83  1  1
 80 81  1  0
 82 80  1  0
 84 87  1  0
 85 89  1  0
 85 84  1  0
 86 85  2  0
 89 88  1  0
 91 89  1  0
 91 92  1  0
 91 90  1  0
M  ISO  4  11 100  19 100  51 101  52 101
M  END
>  <TORSDO>  (17) 
F 20

>  <SCORE>  (17) 
-14.014

>  <name>  (17) 
16

>  <ligand_id>  (17) 
16

>  <original_smiles>  (17) 
[H]c1c(C(=O)N([H])C([H])([H])C([H])([H])C([H])([H])Oc2c([H])c([H])c3c(c2[H])C([H])([H])N(C(=O)C([H])(N([H])C(=O)C([H])(N([H])C([H])([H])[H])C([H])([H])[H])C(C([H])([H])[H])(C([H])([H])[H])C([H])([H])[H])C([H])(C(=O)N([H])C2([H])c4c([H])c([H])c([H])c([H])c4C([H])([H])C([H])([H])C2([H])[H])C3([H])[H])nc(N([H])C(=O)N2C([H])([H])C([H])([H])C([H])([H])C([H])(n3nc(-c4c([H])c([H])c(Oc5c([H])c([H])c(F)c([H])c5F)c([H])c4[H])c(C(=O)N([H])[H])c3N([H])[H])C2([H])[H])c([H])c1[H]

>  <smiles>  (17) 
[H]c1c(C(=O)N([H])C([H])([H])C([H])([H])C([H])([H])Oc2c([H])c([H])c3c(c2[H])C([H])([H])N(C(=O)C([H])(N([H])C(=O)C([H])(N([H])C([H])([H])[H])C([H])([H])[H])C(C([H])([H])[H])(C([H])([H])[H])C([H])([H])[H])C([H])(C(=O)N([H])C2([H])c4c([H])c([H])c([H])c([H])c4C([H])([H])C([H])([H])C2([H])[H])C3([H])[H])nc(N([H])C(=O)N2C([H])([H])C([H])([H])C([H])([H])C([H])(n3nc(-c4c([H])c([H])c(Oc5c([H])c([H])c(F)c([H])c5F)c([H])c4[H])c(C(=O)N([H])[H])c3N([H])[H])C2([H])[H])c([H])c1[H]

$$$$
17:0:0
     RDKit          3D

 95103  0  0  1  0  0  0  0  0999 V2000
  -30.1770  -20.8920   22.4290 C   0  0  0  0  0  3  0  0  0  0  0  0
  -30.8490  -19.7770   22.9640 C   0  0  0  0  0  3  0  0  0  0  0  0
  -29.7040  -19.6030   20.4360 C   0  0  0  0  0  3  0  0  0  0  0  0
  -30.3920  -18.4570   20.9470 C   0  0  0  0  0  0  0  0  0  0  0  0
  -29.6130  -20.8330   21.1320 C   0  0  0  0  0  0  0  0  0  0  0  0
  -30.9850  -18.5800   22.2310 C   0  0  0  0  0  0  0  0  0  0  0  0
  -31.7510  -17.5600   22.7930 N   0  0  0  0  0  0  0  0  0  0  0  0
  -32.4080  -17.8010   23.5270 H   0  0  0  0  0  0  0  0  0  0  0  0
  -32.1030  -16.8390   22.1710 H   0  0  0  0  0  0  0  0  0  0  0  0
  -29.1580  -23.1450   20.8230 C   0  0  0  0  0  3  0  0  0  0  0  0
  -28.9840  -21.9210   20.4780 N   0  0  0  0  0  0  0  0  0  0  0  0
  -28.6120  -24.3490   20.0410 C   0  0  0  0  0  2  0  0  0  0  0  0
  -28.4100  -25.6240   20.9040 C   0  0  0  0  0  2  0  0  0  0  0  0
  -28.3750  -26.8410   20.1330 O   0  0  0  0  0  0  0  0  0  0  0  0
  -24.5310  -31.9710   23.2550 C   0  0  0  0  0  0  0  0  0  0  0  0
  -27.1990  -27.5580   20.1630 C   0  0  0  0  0  0  0  0  0  0  0  0
  -23.3310  -30.5730   21.6020 C   0  0  0  0  0  3  0  0  0  0  0  0
  -24.7950  -29.0480   20.1730 C   0  0  0  0  0  0  0  0  0  0  0  0
  -25.8540  -30.9500   21.4060 C   0  0  0  0  0  2  0  0  0  0  0  0
  -25.9490  -29.5810   20.7610 C   0  0  0  0  0  0  0  0  0  0  0  0
  -27.1570  -28.8450   20.7470 C   0  0  0  0  0  3  0  0  0  0  0  0
  -26.0310  -27.0350   19.5730 C   0  0  0  0  0  3  0  0  0  0  0  0
  -24.8320  -27.7740   19.5740 C   0  0  0  0  0  3  0  0  0  0  0  0
  -23.5450  -29.8980   20.2210 C   0  0  0  0  0  2  0  0  0  0  0  0
  -24.5900  -31.1790   22.1470 N   0  0  0  0  0  0  0  0  0  0  0  0
  -23.4480  -32.2350   23.7980 O   0  0  0  0  0  0  0  0  0  0  0  0
  -22.6860  -29.5430   22.5590 C   0  0  0  0  0  0  0  0  0  0  0  0
  -21.3620  -29.3580   22.4330 N   0  0  0  0  0  0  0  0  0  0  0  0
  -23.3750  -28.9160   23.3680 O   0  0  0  0  0  0  0  0  0  0  0  0
  -20.8700  -29.9180   21.7510 H   0  0  0  0  0  0  0  0  0  0  0  0
  -17.9900  -28.1520   22.9290 C   0  0  0  0  0  0  0  0  0  0  0  0
  -20.5490  -28.4110   23.1950 C   0  0  0  0  0  3  0  0  0  0  0  0
  -20.6520  -26.9860   22.6040 C   0  0  0  0  0  2  0  0  0  0  0  0
  -19.5470  -26.6720   21.5900 C   0  0  0  0  0  2  0  0  0  0  0  0
  -18.1670  -26.8090   22.2400 C   0  0  0  0  0  2  0  0  0  0  0  0
  -19.1100  -28.9110   23.3620 C   0  0  0  0  0  0  0  0  0  0  0  0
  -18.8930  -30.1690   23.9660 C   0  0  0  0  0  3  0  0  0  0  0  0
  -17.5880  -30.6680   24.1410 C   0  0  0  0  0  3  0  0  0  0  0  0
  -16.4830  -29.9060   23.7250 C   0  0  0  0  0  3  0  0  0  0  0  0
  -16.6860  -28.6500   23.1240 C   0  0  0  0  0  3  0  0  0  0  0  0
  -25.8140  -32.6050   23.8790 C   0  0  0  0  0  3  0  0  0  0  0  0
  -25.5080  -34.0070   24.1920 N   0  0  0  0  0  0  0  0  0  0  0  0
  -25.8610  -35.0510   23.4290 C   0  0  0  0  0  0  0  0  0  0  0  0
  -26.5480  -34.9320   22.4110 O   0  0  0  0  0  0  0  0  0  0  0  0
  -24.8990  -34.1720   24.9800 H   0  0  0  0  0  0  0  0  0  0  0  0
  -24.1650  -36.8590   23.0090 C   0  0  0  0  0  1  0  0  0  0  0  0
  -25.3730  -36.4450   23.8640 C   0  0  0  0  0  3  0  0  0  0  0  0
  -27.4850  -37.3160   24.7660 C   0  0  0  0  0  1  0  0  0  0  0  0
  -26.4210  -37.4860   23.7800 N   0  0  0  0  0  0  0  0  0  0  0  0
  -26.0200  -38.4120   23.9060 H   0  0  0  0  0  0  0  0  0  0  0  0
  -26.3220  -31.8440   25.1650 C   0  0  1  0  0  0  0  0  0  0  0  0
  -25.2190  -31.6120   26.2250 C   0  0  0  0  0  1  0  0  0  0  0  0
  -26.9110  -30.4650   24.7850 C   0  0  0  0  0  1  0  0  0  0  0  0
  -27.4660  -32.6430   25.8280 C   0  0  0  0  0  1  0  0  0  0  0  0
  -30.6040  -17.1900   20.0610 C   0  0  0  0  0  3  0  0  0  0  0  0
  -31.0220  -14.7540   20.6050 C   0  0  0  0  0  0  0  0  0  0  0  0
  -30.7620  -12.5250   19.5970 C   0  0  0  0  0  2  0  0  0  0  0  0
  -29.8920  -12.6480   18.3300 C   0  0  0  0  0  2  0  0  0  0  0  0
  -28.3860  -12.6260   18.6760 C   0  0  0  0  0  2  0  0  0  0  0  0
  -27.9970  -13.4940   19.9070 C   0  0  0  0  0  3  0  0  0  0  0  0
  -29.0010  -13.3180   21.0680 C   0  0  0  0  0  2  0  0  0  0  0  0
  -30.3460  -13.5760   20.5390 N   0  0  0  0  0  0  0  0  0  0  0  0
  -32.2240  -14.8400   20.3450 O   0  0  0  0  0  0  0  0  0  0  0  0
  -30.2510  -15.8680   20.6550 N   0  0  0  0  0  0  0  0  0  0  0  0
  -29.2840  -15.7320   20.9000 H   0  0  0  0  0  0  0  0  0  0  0  0
  -25.5750  -14.1310   20.4970 C   0  0  0  0  0  0  0  0  0  0  0  0
  -24.4840  -13.3760   20.8280 C   0  0  0  0  0  0  0  0  0  0  0  0
  -24.9340  -12.0210   20.8450 C   0  0  0  0  0  0  0  0  0  0  0  0
  -26.6230  -13.2390   20.3330 N   0  0  0  0  0  0  0  0  0  0  0  0
  -26.2380  -11.9670   20.6040 N   0  0  0  0  0  0  0  0  0  0  0  0
  -24.1890  -10.7670   21.0180 C   0  0  0  0  0  0  0  0  0  0  0  0
  -24.5560   -9.8210   22.0000 C   0  0  0  0  0  3  0  0  0  0  0  0
  -23.8130   -8.6310   22.1600 C   0  0  0  0  0  3  0  0  0  0  0  0
  -22.6900   -8.3800   21.3370 C   0  0  0  0  0  0  0  0  0  0  0  0
  -22.3420   -9.3150   20.3460 C   0  0  0  0  0  3  0  0  0  0  0  0
  -23.0850  -10.4950   20.1850 C   0  0  0  0  0  3  0  0  0  0  0  0
  -21.9250   -7.2400   21.4050 O   0  0  0  0  0  0  0  0  0  0  0  0
  -21.7780   -6.5380   22.5740 C   0  0  0  0  0  0  0  0  0  0  0  0
  -21.2310   -7.1290   23.7340 C   0  0  0  0  0  3  0  0  0  0  0  0
  -21.0340   -6.3520   24.8930 C   0  0  0  0  0  3  0  0  0  0  0  0
  -21.3750   -4.9860   24.8920 C   0  0  0  0  0  0  0  0  0  0  0  0
  -21.9150   -4.3960   23.7350 C   0  0  0  0  0  3  0  0  0  0  0  0
  -22.1130   -5.1690   22.5790 C   0  0  0  0  0  0  0  0  0  0  0  0
  -22.6140   -4.5910   21.4600 F   0  0  0  0  0  0  0  0  0  0  0  0
  -21.1790   -4.2360   26.0020 F   0  0  0  0  0  0  0  0  0  0  0  0
  -23.0780  -13.8680   21.0220 C   0  0  0  0  0  0  0  0  0  0  0  0
  -22.3030  -13.1930   21.8640 N   0  0  0  0  0  0  0  0  0  0  0  0
  -22.6750  -14.8870   20.4620 O   0  0  0  0  0  0  0  0  0  0  0  0
  -22.6430  -12.3680   22.3380 H   0  0  0  0  0  0  0  0  0  0  0  0
  -21.3590  -13.5060   22.0380 H   0  0  0  0  0  0  0  0  0  0  0  0
  -25.7580  -15.4980   20.3020 N   0  0  0  0  0  0  0  0  0  0  0  0
  -24.9870  -16.1530   20.3560 H   0  0  0  0  0  0  0  0  0  0  0  0
  -26.6170  -15.9280   19.9830 H   0  0  0  0  0  0  0  0  0  0  0  0
  -30.2310  -16.2070   17.6600 C   0  0  0  0  0  1  0  0  0  0  0  0
  -29.9750  -17.3430   18.6470 C   0  0  0  0  0  2  0  0  0  0  0  0
  1  2  1  0
  3  4  2  0
  3  5  1  0
  4  6  1  0
  5  1  2  0
  6  7  1  0
  6  2  2  0
  7  8  1  0
  9  7  1  0
 11 10  2  0
 11  5  1  0
 12 10  1  0
 12 13  1  0
 14 16  1  0
 14 13  1  0
 15 26  2  0
 16 21  1  0
 17 25  1  0
 17 27  1  0
 18 24  1  0
 18 20  1  0
 19 25  1  0
 20 19  1  0
 21 20  2  0
 22 23  1  0
 22 16  2  0
 23 18  2  0
 24 17  1  0
 25 15  1  0
 27 29  2  0
 28 27  1  0
 30 28  1  0
 31 40  2  0
 31 36  1  0
 32 28  1  0
 32 36  1  0
 33 32  1  0
 34 35  1  0
 34 33  1  0
 35 31  1  0
 36 37  2  0
 37 38  1  0
 39 38  2  0
 40 39  1  0
 41 15  1  0
 41 42  1  0
 41 51  1  0
 42 45  1  0
 43 47  1  0
 43 42  1  0
 44 43  2  0
 47 46  1  0
 49 47  1  0
 49 50  1  0
 49 48  1  0
 51 54  1  1
 51 52  1  0
 53 51  1  0
 55 95  1  0
 55 64  1  0
 55  4  1  0
 56 64  1  0
 57 62  1  0
 58 59  1  0
 58 57  1  0
 60 59  1  0
 60 69  1  0
 60 61  1  0
 62 56  1  0
 62 61  1  0
 63 56  2  0
 64 65  1  0
 66 67  2  0
 67 68  1  0
 67 86  1  0
 68 71  1  0
 69 66  1  0
 69 70  1  0
 70 68  2  0
 71 72  1  0
 72 73  2  0
 74 77  1  0
 74 73  1  0
 75 74  2  0
 76 75  1  0
 76 71  2  0
 77 78  1  0
 78 83  2  0
 78 79  1  0
 79 80  2  0
 81 80  1  0
 81 85  1  0
 82 81  2  0
 83 82  1  0
 84 83  1  0
 86 87  1  0
 87 90  1  0
 87 89  1  0
 88 86  2  0
 91 92  1  0
 91 66  1  0
 93 91  1  0
 94 95  1  0
M  ISO  4  13 101  14 101  56 100  64 100
M  END
>  <TORSDO>  (18) 
F 22

>  <SCORE>  (18) 
-11.151

>  <name>  (18) 
17

>  <ligand_id>  (18) 
17

>  <original_smiles>  (18) 
[H]C(=Nc1c([H])c([H])c(N([H])[H])c(C([H])(N([H])C(=O)N2C([H])([H])C([H])([H])C([H])([H])C([H])(n3nc(-c4c([H])c([H])c(Oc5c([H])c([H])c(F)c([H])c5F)c([H])c4[H])c(C(=O)N([H])[H])c3N([H])[H])C2([H])[H])C([H])([H])C([H])([H])[H])c1[H])C([H])([H])C([H])([H])Oc1c([H])c([H])c2c(c1[H])C([H])([H])N(C(=O)C([H])(N([H])C(=O)C([H])(N([H])C([H])([H])[H])C([H])([H])[H])C(C([H])([H])[H])(C([H])([H])[H])C([H])([H])[H])C([H])(C(=O)N([H])C1([H])c3c([H])c([H])c([H])c([H])c3C([H])([H])C([H])([H])C1([H])[H])C2([H])[H]

>  <smiles>  (18) 
[H]C(=Nc1c([H])c([H])c(N([H])[H])c(C([H])(N([H])C(=O)N2C([H])([H])C([H])([H])C([H])([H])C([H])(n3nc(-c4c([H])c([H])c(Oc5c([H])c([H])c(F)c([H])c5F)c([H])c4[H])c(C(=O)N([H])[H])c3N([H])[H])C2([H])[H])C([H])([H])C([H])([H])[H])c1[H])C([H])([H])C([H])([H])Oc1c([H])c([H])c2c(c1[H])C([H])([H])N(C(=O)C([H])(N([H])C(=O)C([H])(N([H])C([H])([H])[H])C([H])([H])[H])C(C([H])([H])[H])(C([H])([H])[H])C([H])([H])[H])C([H])(C(=O)N([H])C1([H])c3c([H])c([H])c([H])c([H])c3C([H])([H])C([H])([H])C1([H])[H])C2([H])[H]

$$$$
18:0:0
     RDKit          3D

 98106  0  0  1  0  0  0  0  0999 V2000
  -29.2200  -19.1200   20.7140 C   0  0  0  0  0  3  0  0  0  0  0  0
  -31.5360  -17.5190   20.6840 C   0  0  0  0  0  3  0  0  0  0  0  0
  -29.1160  -17.7140   20.8340 C   0  0  0  0  0  0  0  0  0  0  0  0
  -31.6440  -18.9240   20.5830 C   0  0  0  0  0  0  0  0  0  0  0  0
  -30.4860  -19.7370   20.5740 C   0  0  0  0  0  0  0  0  0  0  0  0
  -30.2680  -16.8960   20.7900 C   0  0  0  0  0  0  0  0  0  0  0  0
  -30.7430  -14.4960   20.2270 C   0  0  0  0  0  0  0  0  0  0  0  0
  -30.3790  -12.4060   18.9680 C   0  0  0  0  0  2  0  0  0  0  0  0
  -29.3990  -12.6860   17.8120 C   0  0  0  0  0  2  0  0  0  0  0  0
  -27.9370  -12.5460   18.2790 C   0  0  0  0  0  2  0  0  0  0  0  0
  -27.6510  -13.3140   19.5970 C   0  0  0  0  0  3  0  0  0  0  0  0
  -28.7390  -13.0150   20.6520 C   0  0  0  0  0  2  0  0  0  0  0  0
  -30.0510  -13.3350   20.0620 N   0  0  0  0  0  0  0  0  0  0  0  0
  -31.8580  -14.6750   19.7300 O   0  0  0  0  0  0  0  0  0  0  0  0
  -30.0680  -15.4770   20.8550 N   0  0  0  0  0  0  0  0  0  0  0  0
  -29.1410  -15.2100   21.1470 H   0  0  0  0  0  0  0  0  0  0  0  0
  -25.2540  -13.8850   20.3460 C   0  0  0  0  0  0  0  0  0  0  0  0
  -24.2040  -13.0970   20.7380 C   0  0  0  0  0  0  0  0  0  0  0  0
  -24.6890  -11.7530   20.7110 C   0  0  0  0  0  0  0  0  0  0  0  0
  -26.3110  -13.0200   20.1050 N   0  0  0  0  0  0  0  0  0  0  0  0
  -25.9750  -11.7340   20.3800 N   0  0  0  0  0  0  0  0  0  0  0  0
  -23.9870  -10.4810   20.9230 C   0  0  0  0  0  0  0  0  0  0  0  0
  -24.4380   -9.5370   21.8730 C   0  0  0  0  0  3  0  0  0  0  0  0
  -23.7340   -8.3290   22.0710 C   0  0  0  0  0  3  0  0  0  0  0  0
  -22.5670   -8.0560   21.3180 C   0  0  0  0  0  0  0  0  0  0  0  0
  -22.1360   -8.9880   20.3590 C   0  0  0  0  0  3  0  0  0  0  0  0
  -22.8400  -10.1880   20.1590 C   0  0  0  0  0  3  0  0  0  0  0  0
  -21.8340   -6.8990   21.4270 O   0  0  0  0  0  0  0  0  0  0  0  0
  -21.7790   -6.1880   22.5990 C   0  0  0  0  0  0  0  0  0  0  0  0
  -21.3120   -6.7650   23.8000 C   0  0  0  0  0  3  0  0  0  0  0  0
  -21.2050   -5.9800   24.9640 C   0  0  0  0  0  3  0  0  0  0  0  0
  -21.5570   -4.6170   24.9290 C   0  0  0  0  0  0  0  0  0  0  0  0
  -22.0190   -4.0390   23.7320 C   0  0  0  0  0  3  0  0  0  0  0  0
  -22.1260   -4.8220   22.5710 C   0  0  0  0  0  0  0  0  0  0  0  0
  -22.5510   -4.2560   21.4150 F   0  0  0  0  0  0  0  0  0  0  0  0
  -21.4480   -3.8590   26.0440 F   0  0  0  0  0  0  0  0  0  0  0  0
  -22.8040  -13.5520   21.0330 C   0  0  0  0  0  0  0  0  0  0  0  0
  -22.1050  -12.8520   21.9190 N   0  0  0  0  0  0  0  0  0  0  0  0
  -22.3380  -14.5660   20.5130 O   0  0  0  0  0  0  0  0  0  0  0  0
  -22.4910  -12.0320   22.3610 H   0  0  0  0  0  0  0  0  0  0  0  0
  -21.1660  -13.1390   22.1550 H   0  0  0  0  0  0  0  0  0  0  0  0
  -25.3910  -15.2570   20.1620 N   0  0  0  0  0  0  0  0  0  0  0  0
  -24.6330  -15.9050   20.3430 H   0  0  0  0  0  0  0  0  0  0  0  0
  -26.2660  -15.7360   19.9600 H   0  0  0  0  0  0  0  0  0  0  0  0
  -29.8820  -22.2020   20.5000 C   0  0  0  0  0  0  0  0  0  0  0  0
  -30.6900  -21.1340   20.3500 N   0  0  0  0  0  0  0  0  0  0  0  0
  -28.7480  -22.1580   20.9800 O   0  0  0  0  0  0  0  0  0  0  0  0
  -31.6180  -21.3400   20.0050 H   0  0  0  0  0  0  0  0  0  0  0  0
  -30.4850  -23.5410   20.0390 C   0  0  0  0  0  2  0  0  0  0  0  0
  -29.9260  -24.8410   20.6770 C   0  0  0  0  0  2  0  0  0  0  0  0
  -28.5560  -25.3420   20.1570 C   0  0  0  0  0  2  0  0  0  0  0  0
  -28.5250  -26.7660   20.3080 O   0  0  0  0  0  0  0  0  0  0  0  0
  -24.6240  -31.9070   23.2430 C   0  0  0  0  0  0  0  0  0  0  0  0
  -27.3200  -27.4370   20.2570 C   0  0  0  0  0  0  0  0  0  0  0  0
  -23.4360  -30.4760   21.6090 C   0  0  0  0  0  3  0  0  0  0  0  0
  -24.9090  -28.9250   20.2150 C   0  0  0  0  0  0  0  0  0  0  0  0
  -25.9580  -30.8500   21.4200 C   0  0  0  0  0  2  0  0  0  0  0  0
  -26.0560  -29.4700   20.8020 C   0  0  0  0  0  0  0  0  0  0  0  0
  -27.2610  -28.7340   20.8150 C   0  0  0  0  0  3  0  0  0  0  0  0
  -26.1540  -26.9000   19.6680 C   0  0  0  0  0  3  0  0  0  0  0  0
  -24.9530  -27.6380   19.6450 C   0  0  0  0  0  3  0  0  0  0  0  0
  -23.6590  -29.7770   20.2410 C   0  0  0  0  0  2  0  0  0  0  0  0
  -24.6910  -31.0930   22.1490 N   0  0  0  0  0  0  0  0  0  0  0  0
  -23.5390  -32.1810   23.7730 O   0  0  0  0  0  0  0  0  0  0  0  0
  -22.7840  -29.4670   22.5810 C   0  0  0  0  0  0  0  0  0  0  0  0
  -21.4630  -29.2710   22.4400 N   0  0  0  0  0  0  0  0  0  0  0  0
  -23.4640  -28.8630   23.4130 O   0  0  0  0  0  0  0  0  0  0  0  0
  -20.9790  -29.8120   21.7390 H   0  0  0  0  0  0  0  0  0  0  0  0
  -18.0950  -28.0540   22.9020 C   0  0  0  0  0  0  0  0  0  0  0  0
  -20.6440  -28.3410   23.2160 C   0  0  0  0  0  3  0  0  0  0  0  0
  -20.7710  -26.9010   22.6670 C   0  0  0  0  0  2  0  0  0  0  0  0
  -19.6900  -26.5500   21.6400 C   0  0  0  0  0  2  0  0  0  0  0  0
  -18.2960  -26.6930   22.2570 C   0  0  0  0  0  2  0  0  0  0  0  0
  -19.1980  -28.8340   23.3370 C   0  0  0  0  0  0  0  0  0  0  0  0
  -18.9570  -30.1070   23.8980 C   0  0  0  0  0  3  0  0  0  0  0  0
  -17.6460  -30.5990   24.0330 C   0  0  0  0  0  3  0  0  0  0  0  0
  -16.5550  -29.8150   23.6180 C   0  0  0  0  0  3  0  0  0  0  0  0
  -16.7810  -28.5460   23.0550 C   0  0  0  0  0  3  0  0  0  0  0  0
  -25.9060  -32.5490   23.8620 C   0  0  0  0  0  3  0  0  0  0  0  0
  -25.5910  -33.9470   24.1820 N   0  0  0  0  0  0  0  0  0  0  0  0
  -25.9200  -34.9950   23.4130 C   0  0  0  0  0  0  0  0  0  0  0  0
  -26.5910  -34.8860   22.3820 O   0  0  0  0  0  0  0  0  0  0  0  0
  -24.9960  -34.1040   24.9810 H   0  0  0  0  0  0  0  0  0  0  0  0
  -24.1810  -36.7710   23.0360 C   0  0  0  0  0  1  0  0  0  0  0  0
  -25.4220  -36.3840   23.8550 C   0  0  0  0  0  3  0  0  0  0  0  0
  -27.5470  -37.2900   24.6830 C   0  0  0  0  0  1  0  0  0  0  0  0
  -26.4480  -37.4440   23.7350 N   0  0  0  0  0  0  0  0  0  0  0  0
  -26.0360  -38.3630   23.8720 H   0  0  0  0  0  0  0  0  0  0  0  0
  -26.4240  -31.7890   25.1430 C   0  0  1  0  0  0  0  0  0  0  0  0
  -25.3300  -31.5520   26.2110 C   0  0  0  0  0  1  0  0  0  0  0  0
  -27.0190  -30.4150   24.7560 C   0  0  0  0  0  1  0  0  0  0  0  0
  -27.5650  -32.5950   25.8070 C   0  0  0  0  0  1  0  0  0  0  0  0
  -27.8570  -17.1260   20.9780 N   0  0  0  0  0  0  0  0  0  0  0  0
  -27.0950  -17.7750   21.1350 H   0  0  0  0  0  0  0  0  0  0  0  0
  -27.8010  -16.3760   21.6530 H   0  0  0  0  0  0  0  0  0  0  0  0
  -32.9100  -19.5110   20.4970 N   0  0  0  0  0  0  0  0  0  0  0  0
  -33.6940  -18.8830   20.6450 H   0  0  0  0  0  0  0  0  0  0  0  0
  -33.0400  -20.3510   21.0510 H   0  0  0  0  0  0  0  0  0  0  0  0
  1  3  1  0
  2  6  1  0
  3 93  1  0
  4  2  2  0
  5  4  1  0
  5  1  2  0
  6  3  2  0
  6 15  1  0
  7 15  1  0
  8 13  1  0
  9 10  1  0
  9  8  1  0
 11 10  1  0
 11 20  1  0
 11 12  1  0
 13  7  1  0
 13 12  1  0
 14  7  2  0
 15 16  1  0
 17 18  2  0
 18 37  1  0
 19 18  1  0
 19 22  1  0
 20 17  1  0
 20 21  1  0
 21 19  2  0
 22 23  1  0
 23 24  2  0
 25 28  1  0
 25 24  1  0
 26 25  2  0
 27 26  1  0
 27 22  2  0
 28 29  1  0
 29 30  1  0
 30 31  2  0
 32 31  1  0
 32 36  1  0
 33 32  2  0
 34 29  2  0
 34 33  1  0
 35 34  1  0
 37 38  1  0
 38 41  1  0
 38 40  1  0
 39 37  2  0
 42 43  1  0
 42 17  1  0
 44 42  1  0
 45 47  2  0
 46 45  1  0
 46  5  1  0
 48 46  1  0
 49 45  1  0
 49 50  1  0
 51 52  1  0
 51 50  1  0
 53 64  2  0
 54 52  1  0
 54 59  1  0
 55 63  1  0
 55 65  1  0
 56 62  1  0
 56 58  1  0
 57 63  1  0
 58 59  2  0
 58 57  1  0
 60 54  2  0
 61 60  1  0
 61 56  2  0
 62 55  1  0
 63 53  1  0
 65 67  2  0
 66 65  1  0
 68 66  1  0
 69 78  2  0
 69 74  1  0
 70 66  1  0
 70 74  1  0
 71 70  1  0
 72 73  1  0
 72 71  1  0
 73 69  1  0
 74 75  2  0
 75 76  1  0
 77 76  2  0
 78 77  1  0
 79 53  1  0
 79 80  1  0
 79 89  1  0
 80 83  1  0
 81 85  1  0
 81 80  1  0
 82 81  2  0
 85 84  1  0
 87 85  1  0
 87 88  1  0
 87 86  1  0
 89 92  1  1
 89 90  1  0
 91 89  1  0
 93 94  1  0
 93 95  1  0
 96  4  1  0
 96 97  1  0
 96 98  1  0
M  ISO  4   7 100  15 100  51 101  52 101
M  END
>  <TORSDO>  (19) 
F 22

>  <SCORE>  (19) 
-13.251

>  <name>  (19) 
18

>  <ligand_id>  (19) 
18

>  <original_smiles>  (19) 
[H]c1c([H])c([H])c2c(c1[H])C([H])([H])C([H])([H])C([H])([H])C2([H])N([H])C(=O)C1([H])N(C(=O)C([H])(N([H])C(=O)C([H])(N([H])C([H])([H])[H])C([H])([H])[H])C(C([H])([H])[H])(C([H])([H])[H])C([H])([H])[H])C([H])([H])c2c([H])c(OC([H])([H])C([H])([H])C([H])([H])C(=O)N([H])c3c([H])c(N([H])[H])c(N([H])C(=O)N4C([H])([H])C([H])([H])C([H])([H])C([H])(n5nc(-c6c([H])c([H])c(Oc7c([H])c([H])c(F)c([H])c7F)c([H])c6[H])c(C(=O)N([H])[H])c5N([H])[H])C4([H])[H])c([H])c3N([H])[H])c([H])c([H])c2C1([H])[H]

>  <smiles>  (19) 
[H]c1c([H])c([H])c2c(c1[H])C([H])([H])C([H])([H])C([H])([H])C2([H])N([H])C(=O)C1([H])N(C(=O)C([H])(N([H])C(=O)C([H])(N([H])C([H])([H])[H])C([H])([H])[H])C(C([H])([H])[H])(C([H])([H])[H])C([H])([H])[H])C([H])([H])c2c([H])c(OC([H])([H])C([H])([H])C([H])([H])C(=O)N([H])c3c([H])c(N([H])[H])c(N([H])C(=O)N4C([H])([H])C([H])([H])C([H])([H])C([H])(n5nc(-c6c([H])c([H])c(Oc7c([H])c([H])c(F)c([H])c7F)c([H])c6[H])c(C(=O)N([H])[H])c5N([H])[H])C4([H])[H])c([H])c3N([H])[H])c([H])c([H])c2C1([H])[H]

$$$$
19:0:0
     RDKit          3D

 95104  0  0  1  0  0  0  0  0999 V2000
  -30.6490  -24.2140   20.6040 C   0  0  0  0  0  2  0  0  0  0  0  0
  -31.1500  -22.8450   21.1230 C   0  0  0  0  0  2  0  0  0  0  0  0
  -28.9510  -22.6030   20.2710 C   0  0  0  0  0  2  0  0  0  0  0  0
  -29.1300  -24.1060   20.6740 C   0  0  0  0  0  3  0  0  0  0  0  0
  -30.0850  -21.8310   20.8720 N   0  0  1  0  0  4  0  0  0  0  0  0
  -29.7860  -21.5180   21.7840 H   0  0  0  0  0  0  0  0  0  0  0  0
  -30.5910  -20.5950   20.1640 C   0  0  0  0  0  2  0  0  0  0  0  0
  -30.6310  -14.5960   20.4070 C   0  0  0  0  0  0  0  0  0  0  0  0
  -30.3570  -12.4250   19.2390 C   0  0  0  0  0  2  0  0  0  0  0  0
  -29.3990  -12.6330   18.0470 C   0  0  0  0  0  2  0  0  0  0  0  0
  -27.9290  -12.4820   18.4880 C   0  0  0  0  0  2  0  0  0  0  0  0
  -27.6060  -13.2950   19.7690 C   0  0  0  0  0  3  0  0  0  0  0  0
  -28.6740  -13.0590   20.8610 C   0  0  0  0  0  2  0  0  0  0  0  0
  -29.9910  -13.3920   20.2920 N   0  0  0  0  0  0  0  0  0  0  0  0
  -31.7370  -14.7990   19.8940 O   0  0  0  0  0  0  0  0  0  0  0  0
  -30.2970  -18.0250   20.6530 C   0  0  0  0  0  3  0  0  0  0  0  0
  -28.4340  -19.2880   19.7620 C   0  0  0  0  0  3  0  0  0  0  0  0
  -29.7590  -19.2860   20.2350 C   0  0  0  0  0  0  0  0  0  0  0  0
  -29.5110  -16.8330   20.5760 C   0  0  0  0  0  0  0  0  0  0  0  0
  -27.7090  -18.0810   19.7360 C   0  0  0  0  0  0  0  0  0  0  0  0
  -28.2350  -16.9070   20.1410 N   0  0  0  0  0  0  0  0  0  0  0  0
  -29.9610  -15.5640   21.0840 N   0  0  0  0  0  0  0  0  0  0  0  0
  -29.2320  -15.1210   21.6180 H   0  0  0  0  0  0  0  0  0  0  0  0
  -25.2140  -13.9020   20.4950 C   0  0  0  0  0  0  0  0  0  0  0  0
  -24.1460  -13.1320   20.8690 C   0  0  0  0  0  0  0  0  0  0  0  0
  -24.6060  -11.7800   20.8340 C   0  0  0  0  0  0  0  0  0  0  0  0
  -26.2560  -13.0200   20.2570 N   0  0  0  0  0  0  0  0  0  0  0  0
  -25.8940  -11.7380   20.5190 N   0  0  0  0  0  0  0  0  0  0  0  0
  -23.8790  -10.5190   21.0310 C   0  0  0  0  0  0  0  0  0  0  0  0
  -24.3180   -9.5510   21.9610 C   0  0  0  0  0  3  0  0  0  0  0  0
  -23.5910   -8.3540   22.1440 C   0  0  0  0  0  3  0  0  0  0  0  0
  -22.4130   -8.1170   21.3960 C   0  0  0  0  0  0  0  0  0  0  0  0
  -21.9940   -9.0740   20.4560 C   0  0  0  0  0  3  0  0  0  0  0  0
  -22.7210  -10.2620   20.2710 C   0  0  0  0  0  3  0  0  0  0  0  0
  -21.6590   -6.9730   21.4890 O   0  0  0  0  0  0  0  0  0  0  0  0
  -21.6160   -6.2300   22.6410 C   0  0  0  0  0  0  0  0  0  0  0  0
  -21.1910   -6.7830   23.8690 C   0  0  0  0  0  3  0  0  0  0  0  0
  -21.0970   -5.9650   25.0140 C   0  0  0  0  0  3  0  0  0  0  0  0
  -21.4180   -4.5970   24.9320 C   0  0  0  0  0  0  0  0  0  0  0  0
  -21.8350   -4.0440   23.7080 C   0  0  0  0  0  3  0  0  0  0  0  0
  -21.9320   -4.8580   22.5660 C   0  0  0  0  0  0  0  0  0  0  0  0
  -22.3150   -4.3160   21.3850 F   0  0  0  0  0  0  0  0  0  0  0  0
  -21.3200   -3.8090   26.0280 F   0  0  0  0  0  0  0  0  0  0  0  0
  -22.7520  -13.6110   21.1510 C   0  0  0  0  0  0  0  0  0  0  0  0
  -22.0290  -12.9150   22.0210 N   0  0  0  0  0  0  0  0  0  0  0  0
  -22.3110  -14.6380   20.6360 O   0  0  0  0  0  0  0  0  0  0  0  0
  -22.3950  -12.0820   22.4590 H   0  0  0  0  0  0  0  0  0  0  0  0
  -21.0930  -13.2180   22.2530 H   0  0  0  0  0  0  0  0  0  0  0  0
  -25.3810  -15.2720   20.3250 N   0  0  0  0  0  0  0  0  0  0  0  0
  -24.6200  -15.9300   20.4460 H   0  0  0  0  0  0  0  0  0  0  0  0
  -26.2520  -15.7250   20.0570 H   0  0  0  0  0  0  0  0  0  0  0  0
  -25.7320  -19.1360   18.8880 C   0  0  0  0  0  1  0  0  0  0  0  0
  -26.4120  -17.9570   19.2990 O   0  0  0  0  0  0  0  0  0  0  0  0
  -28.2970  -25.1550   19.8470 C   0  0  0  0  0  2  0  0  0  0  0  0
  -28.3750  -26.5720   20.2250 O   0  0  0  0  0  0  0  0  0  0  0  0
  -24.6200  -31.9040   23.2250 C   0  0  0  0  0  0  0  0  0  0  0  0
  -27.2280  -27.3730   20.1570 C   0  0  0  0  0  0  0  0  0  0  0  0
  -23.4050  -30.5000   21.5960 C   0  0  0  0  0  3  0  0  0  0  0  0
  -24.8490  -28.9540   20.1640 C   0  0  0  0  0  0  0  0  0  0  0  0
  -25.9400  -30.8260   21.3980 C   0  0  0  0  0  2  0  0  0  0  0  0
  -26.0160  -29.4490   20.7580 C   0  0  0  0  0  0  0  0  0  0  0  0
  -27.2030  -28.6660   20.7570 C   0  0  0  0  0  3  0  0  0  0  0  0
  -26.0410  -26.9360   19.5180 C   0  0  0  0  0  3  0  0  0  0  0  0
  -24.8610  -27.7010   19.5380 C   0  0  0  0  0  3  0  0  0  0  0  0
  -23.6100  -29.8220   20.2160 C   0  0  0  0  0  2  0  0  0  0  0  0
  -24.6730  -31.0940   22.1290 N   0  0  0  0  0  0  0  0  0  0  0  0
  -23.5400  -32.1830   23.7660 O   0  0  0  0  0  0  0  0  0  0  0  0
  -22.7520  -29.4840   22.5610 C   0  0  0  0  0  0  0  0  0  0  0  0
  -21.4260  -29.3050   22.4420 N   0  0  0  0  0  0  0  0  0  0  0  0
  -23.4360  -28.8590   23.3760 O   0  0  0  0  0  0  0  0  0  0  0  0
  -20.9340  -29.8610   21.7550 H   0  0  0  0  0  0  0  0  0  0  0  0
  -18.0500  -28.1210   22.9630 C   0  0  0  0  0  0  0  0  0  0  0  0
  -20.6100  -28.3730   23.2200 C   0  0  0  0  0  3  0  0  0  0  0  0
  -20.7050  -26.9390   22.6490 C   0  0  0  0  0  2  0  0  0  0  0  0
  -19.5980  -26.6160   21.6410 C   0  0  0  0  0  2  0  0  0  0  0  0
  -18.2200  -26.7670   22.2910 C   0  0  0  0  0  2  0  0  0  0  0  0
  -19.1720  -28.8810   23.3850 C   0  0  0  0  0  0  0  0  0  0  0  0
  -18.9600  -30.1460   23.9710 C   0  0  0  0  0  3  0  0  0  0  0  0
  -17.6580  -30.6530   24.1420 C   0  0  0  0  0  3  0  0  0  0  0  0
  -16.5490  -29.8890   23.7360 C   0  0  0  0  0  3  0  0  0  0  0  0
  -16.7460  -28.6250   23.1530 C   0  0  0  0  0  3  0  0  0  0  0  0
  -25.9080  -32.5360   23.8370 C   0  0  0  0  0  3  0  0  0  0  0  0
  -26.4360  -31.7630   25.1080 C   0  0  1  0  0  0  0  0  0  0  0  0
  -25.3510  -31.5230   26.1830 C   0  0  0  0  0  1  0  0  0  0  0  0
  -27.0180  -30.3870   24.7100 C   0  0  0  0  0  1  0  0  0  0  0  0
  -27.5910  -32.5590   25.7610 C   0  0  0  0  0  1  0  0  0  0  0  0
  -25.6000  -33.9340   24.1700 N   0  0  0  0  0  0  0  0  0  0  0  0
  -25.9270  -34.9870   23.4100 C   0  0  0  0  0  0  0  0  0  0  0  0
  -26.5910  -34.8850   22.3750 O   0  0  0  0  0  0  0  0  0  0  0  0
  -25.0100  -34.0880   24.9740 H   0  0  0  0  0  0  0  0  0  0  0  0
  -24.1990  -36.7820   23.0620 C   0  0  0  0  0  1  0  0  0  0  0  0
  -25.4400  -36.3750   23.8720 C   0  0  0  0  0  3  0  0  0  0  0  0
  -27.5760  -37.2560   24.7040 C   0  0  0  0  0  1  0  0  0  0  0  0
  -26.4740  -37.4270   23.7610 N   0  0  0  0  0  0  0  0  0  0  0  0
  -26.0690  -38.3470   23.9100 H   0  0  0  0  0  0  0  0  0  0  0  0
  1  4  1  0
  1  2  1  0
  3  4  1  0
  3  5  1  0
  4 54  1  0
  5  2  1  0
  5  6  1  1
  7 18  1  0
  7  5  1  0
  8 22  1  0
  9 14  1  0
 10 11  1  0
 10  9  1  0
 12 11  1  0
 12 27  1  0
 12 13  1  0
 14  8  1  0
 14 13  1  0
 15  8  2  0
 17 18  2  0
 18 16  1  0
 19 16  2  0
 19 22  1  0
 20 17  1  0
 20 21  2  0
 21 19  1  0
 22 23  1  0
 24 25  2  0
 25 44  1  0
 26 25  1  0
 26 29  1  0
 27 24  1  0
 27 28  1  0
 28 26  2  0
 29 30  1  0
 30 31  2  0
 32 35  1  0
 32 31  1  0
 33 32  2  0
 34 33  1  0
 34 29  2  0
 35 36  1  0
 36 37  1  0
 37 38  2  0
 39 38  1  0
 39 43  1  0
 40 39  2  0
 41 36  2  0
 41 40  1  0
 42 41  1  0
 44 45  1  0
 45 48  1  0
 45 47  1  0
 46 44  2  0
 49 50  1  0
 49 24  1  0
 51 49  1  0
 52 53  1  0
 53 20  1  0
 54 55  1  0
 56 67  2  0
 57 55  1  0
 57 62  1  0
 58 66  1  0
 58 68  1  0
 59 65  1  0
 59 61  1  0
 60 66  1  0
 61 60  1  0
 62 61  2  0
 63 64  1  0
 63 57  2  0
 64 59  2  0
 65 58  1  0
 66 56  1  0
 68 70  2  0
 69 68  1  0
 71 69  1  0
 72 81  2  0
 72 77  1  0
 73 69  1  0
 73 77  1  0
 74 73  1  0
 75 76  1  0
 75 74  1  0
 76 72  1  0
 77 78  2  0
 78 79  1  0
 80 79  2  0
 81 80  1  0
 82 56  1  0
 82 87  1  0
 82 83  1  0
 83 86  1  1
 83 84  1  0
 85 83  1  0
 87 90  1  0
 88 92  1  0
 88 87  1  0
 89 88  2  0
 92 91  1  0
 94 92  1  0
 94 95  1  0
 94 93  1  0
M  ISO  4   8 100  22 100  54 101  55 101
M  END
>  <TORSDO>  (20) 
F 19

>  <SCORE>  (20) 
-14.069

>  <name>  (20) 
19

>  <ligand_id>  (20) 
19

>  <original_smiles>  (20) 
[H]c1c([H])c([H])c2c(c1[H])C([H])([H])C([H])([H])C([H])([H])C2([H])N([H])C(=O)C1([H])N(C(=O)C([H])(N([H])C(=O)C([H])(N([H])C([H])([H])[H])C([H])([H])[H])C(C([H])([H])[H])(C([H])([H])[H])C([H])([H])[H])C([H])([H])c2c([H])c(OC([H])([H])C3([H])C([H])([H])C([H])([H])[N+]([H])(C([H])([H])c4c([H])c(OC([H])([H])[H])nc(N([H])C(=O)N5C([H])([H])C([H])([H])C([H])([H])C([H])(n6nc(-c7c([H])c([H])c(Oc8c([H])c([H])c(F)c([H])c8F)c([H])c7[H])c(C(=O)N([H])[H])c6N([H])[H])C5([H])[H])c4[H])C3([H])[H])c([H])c([H])c2C1([H])[H]

>  <smiles>  (20) 
[H]c1c([H])c([H])c2c(c1[H])C([H])([H])C([H])([H])C([H])([H])C2([H])N([H])C(=O)C1([H])N(C(=O)C([H])(N([H])C(=O)C([H])(N([H])C([H])([H])[H])C([H])([H])[H])C(C([H])([H])[H])(C([H])([H])[H])C([H])([H])[H])C([H])([H])c2c([H])c(OC([H])([H])C3([H])C([H])([H])C([H])([H])[N+]([H])(C([H])([H])c4c([H])c(OC([H])([H])[H])nc(N([H])C(=O)N5C([H])([H])C([H])([H])C([H])([H])C([H])(n6nc(-c7c([H])c([H])c(Oc8c([H])c([H])c(F)c([H])c8F)c([H])c7[H])c(C(=O)N([H])[H])c6N([H])[H])C5([H])[H])c4[H])C3([H])[H])c([H])c([H])c2C1([H])[H]

$$$$
20:0:0
     RDKit          3D

100109  0  0  1  0  0  0  0  0999 V2000
  -30.7650  -18.0510   20.4750 C   0  0  0  0  0  3  0  0  0  0  0  0
  -28.4430  -17.6060   20.1960 C   0  0  0  0  0  3  0  0  0  0  0  0
  -30.5330  -19.4710   20.3300 C   0  0  0  0  0  0  0  0  0  0  0  0
  -29.2180  -19.9810   19.9900 C   0  0  0  0  0  0  0  0  0  0  0  0
  -29.7400  -17.0770   20.3890 C   0  0  0  0  0  0  0  0  0  0  0  0
  -28.1900  -18.9890   19.9990 C   0  0  0  0  0  0  0  0  0  0  0  0
  -30.7090  -14.6330   20.1620 C   0  0  0  0  0  0  0  0  0  0  0  0
  -30.5150  -12.4310   19.0130 C   0  0  0  0  0  2  0  0  0  0  0  0
  -29.5170  -12.5950   17.8400 C   0  0  0  0  0  2  0  0  0  0  0  0
  -28.0570  -12.4370   18.3120 C   0  0  0  0  0  2  0  0  0  0  0  0
  -27.7480  -13.2400   19.6060 C   0  0  0  0  0  3  0  0  0  0  0  0
  -28.8440  -13.0030   20.6710 C   0  0  0  0  0  2  0  0  0  0  0  0
  -30.1320  -13.3910   20.0700 N   0  0  0  0  0  0  0  0  0  0  0  0
  -31.8520  -14.8440   19.7410 O   0  0  0  0  0  0  0  0  0  0  0  0
  -29.8640  -15.6270   20.6090 N   0  0  0  0  0  0  0  0  0  0  0  0
  -29.0110  -15.2150   20.9530 H   0  0  0  0  0  0  0  0  0  0  0  0
  -25.3670  -13.8140   20.3940 C   0  0  0  0  0  0  0  0  0  0  0  0
  -24.3150  -13.0330   20.7930 C   0  0  0  0  0  0  0  0  0  0  0  0
  -24.7860  -11.6850   20.7370 C   0  0  0  0  0  0  0  0  0  0  0  0
  -26.4130  -12.9440   20.1260 N   0  0  0  0  0  0  0  0  0  0  0  0
  -26.0660  -11.6570   20.3910 N   0  0  0  0  0  0  0  0  0  0  0  0
  -24.0760  -10.4160   20.9350 C   0  0  0  0  0  0  0  0  0  0  0  0
  -24.5080   -9.4670   21.8870 C   0  0  0  0  0  3  0  0  0  0  0  0
  -23.7920   -8.2660   22.0730 C   0  0  0  0  0  3  0  0  0  0  0  0
  -22.6320   -8.0040   21.3070 C   0  0  0  0  0  0  0  0  0  0  0  0
  -22.2150   -8.9420   20.3470 C   0  0  0  0  0  3  0  0  0  0  0  0
  -22.9330  -10.1360   20.1580 C   0  0  0  0  0  3  0  0  0  0  0  0
  -21.8910   -6.8500   21.4000 O   0  0  0  0  0  0  0  0  0  0  0  0
  -21.8000   -6.1480   22.5740 C   0  0  0  0  0  0  0  0  0  0  0  0
  -21.2600   -6.7190   23.7470 C   0  0  0  0  0  3  0  0  0  0  0  0
  -21.1250   -5.9390   24.9130 C   0  0  0  0  0  3  0  0  0  0  0  0
  -21.5150   -4.5860   24.9030 C   0  0  0  0  0  0  0  0  0  0  0  0
  -22.0530   -4.0170   23.7340 C   0  0  0  0  0  3  0  0  0  0  0  0
  -22.1890   -4.7950   22.5730 C   0  0  0  0  0  0  0  0  0  0  0  0
  -22.6860   -4.2350   21.4430 F   0  0  0  0  0  0  0  0  0  0  0  0
  -21.3800   -3.8330   26.0200 F   0  0  0  0  0  0  0  0  0  0  0  0
  -22.9260  -13.5020   21.1000 C   0  0  0  0  0  0  0  0  0  0  0  0
  -22.2130  -12.8000   21.9740 N   0  0  0  0  0  0  0  0  0  0  0  0
  -22.4770  -14.5370   20.6050 O   0  0  0  0  0  0  0  0  0  0  0  0
  -22.5810  -11.9660   22.4080 H   0  0  0  0  0  0  0  0  0  0  0  0
  -21.2790  -13.1020   22.2130 H   0  0  0  0  0  0  0  0  0  0  0  0
  -25.4990  -15.1850   20.2220 N   0  0  0  0  0  0  0  0  0  0  0  0
  -24.7040  -15.8000   20.3540 H   0  0  0  0  0  0  0  0  0  0  0  0
  -26.2910  -15.6410   19.7930 H   0  0  0  0  0  0  0  0  0  0  0  0
  -27.3300  -22.1300   17.7760 C   0  0  0  0  0  2  0  0  0  0  0  0
  -27.6250  -23.5940   18.0910 C   0  0  0  0  0  2  0  0  0  0  0  0
  -28.5720  -21.2920   18.0670 C   0  0  0  0  0  2  0  0  0  0  0  0
  -29.0210  -22.6780   20.1110 C   0  0  0  0  0  2  0  0  0  0  0  0
  -28.0760  -23.8710   19.5580 C   0  0  0  0  0  3  0  0  0  0  0  0
  -28.8420  -21.3040   19.5050 N   0  0  0  0  0  0  0  0  0  0  0  0
  -28.6960  -25.3590   19.5490 C   0  0  0  0  0  2  0  0  0  0  0  0
  -28.4090  -26.4480   20.4920 O   0  0  0  0  0  0  0  0  0  0  0  0
  -24.5870  -31.9040   23.2190 C   0  0  0  0  0  0  0  0  0  0  0  0
  -27.2910  -27.2740   20.3550 C   0  0  0  0  0  0  0  0  0  0  0  0
  -23.4380  -30.4620   21.5750 C   0  0  0  0  0  3  0  0  0  0  0  0
  -24.9330  -28.8770   20.2370 C   0  0  0  0  0  0  0  0  0  0  0  0
  -25.9840  -30.7690   21.4800 C   0  0  0  0  0  2  0  0  0  0  0  0
  -26.0790  -29.3790   20.8680 C   0  0  0  0  0  0  0  0  0  0  0  0
  -27.2540  -28.5800   20.9320 C   0  0  0  0  0  3  0  0  0  0  0  0
  -26.1260  -26.8180   19.7040 C   0  0  0  0  0  3  0  0  0  0  0  0
  -24.9590  -27.6010   19.6510 C   0  0  0  0  0  3  0  0  0  0  0  0
  -23.6980  -29.7530   20.2190 C   0  0  0  0  0  2  0  0  0  0  0  0
  -24.6850  -31.0660   22.1450 N   0  0  0  0  0  0  0  0  0  0  0  0
  -23.4840  -32.1970   23.7050 O   0  0  0  0  0  0  0  0  0  0  0  0
  -22.7420  -29.4690   22.5370 C   0  0  0  0  0  0  0  0  0  0  0  0
  -21.4160  -29.3180   22.3890 N   0  0  0  0  0  0  0  0  0  0  0  0
  -23.3950  -28.8380   23.3710 O   0  0  0  0  0  0  0  0  0  0  0  0
  -20.9470  -29.8800   21.6930 H   0  0  0  0  0  0  0  0  0  0  0  0
  -17.9920  -28.2770   22.9160 C   0  0  0  0  0  0  0  0  0  0  0  0
  -20.5620  -28.4090   23.1590 C   0  0  0  0  0  3  0  0  0  0  0  0
  -20.5900  -26.9830   22.5620 C   0  0  0  0  0  2  0  0  0  0  0  0
  -19.4620  -26.7300   21.5570 C   0  0  0  0  0  2  0  0  0  0  0  0
  -18.0950  -26.9310   22.2190 C   0  0  0  0  0  2  0  0  0  0  0  0
  -19.1520  -28.9790   23.3400 C   0  0  0  0  0  0  0  0  0  0  0  0
  -19.0000  -30.2410   23.9530 C   0  0  0  0  0  3  0  0  0  0  0  0
  -17.7230  -30.8020   24.1410 C   0  0  0  0  0  3  0  0  0  0  0  0
  -16.5780  -30.0960   23.7330 C   0  0  0  0  0  3  0  0  0  0  0  0
  -16.7140  -28.8340   23.1260 C   0  0  0  0  0  3  0  0  0  0  0  0
  -25.8480  -32.5520   23.8700 C   0  0  0  0  0  3  0  0  0  0  0  0
  -26.3290  -31.8030   25.1750 C   0  0  1  0  0  0  0  0  0  0  0  0
  -25.2030  -31.5670   26.2040 C   0  0  0  0  0  1  0  0  0  0  0  0
  -26.9480  -30.4320   24.8240 C   0  0  0  0  0  1  0  0  0  0  0  0
  -27.4450  -32.6260   25.8660 C   0  0  0  0  0  1  0  0  0  0  0  0
  -25.5240  -33.9530   24.1690 N   0  0  0  0  0  0  0  0  0  0  0  0
  -25.8810  -34.9960   23.4090 C   0  0  0  0  0  0  0  0  0  0  0  0
  -26.5870  -34.8830   22.4020 O   0  0  0  0  0  0  0  0  0  0  0  0
  -24.9050  -34.1180   24.9490 H   0  0  0  0  0  0  0  0  0  0  0  0
  -24.1780  -36.7870   22.9530 C   0  0  0  0  0  1  0  0  0  0  0  0
  -25.3750  -36.3890   23.8310 C   0  0  0  0  0  3  0  0  0  0  0  0
  -27.4570  -37.2800   24.7770 C   0  0  0  0  0  1  0  0  0  0  0  0
  -26.4160  -37.4390   23.7650 N   0  0  0  0  0  0  0  0  0  0  0  0
  -26.0040  -38.3610   23.8770 H   0  0  0  0  0  0  0  0  0  0  0  0
  -31.7110  -20.3520   20.6420 C   0  0  0  0  0  0  0  0  0  0  0  0
  -31.9600  -21.3850   19.8590 N   0  0  0  0  0  0  0  0  0  0  0  0
  -32.4670  -20.0820   21.5760 O   0  0  0  0  0  0  0  0  0  0  0  0
  -31.3100  -21.6060   19.1180 H   0  0  0  0  0  0  0  0  0  0  0  0
  -32.7250  -22.0070   20.0750 H   0  0  0  0  0  0  0  0  0  0  0  0
  -26.8680  -19.3930   19.8160 N   0  0  0  0  0  0  0  0  0  0  0  0
  -26.3120  -18.8340   19.1790 H   0  0  0  0  0  0  0  0  0  0  0  0
  -26.8290  -20.3840   19.5860 H   0  0  0  0  0  0  0  0  0  0  0  0
  2  5  2  0
  3  1  2  0
  3 93  1  0
  4  6  2  0
  4  3  1  0
  5  1  1  0
  5 15  1  0
  6  2  1  0
  7 15  1  0
  8 13  1  0
  9 10  1  0
  9  8  1  0
 11 10  1  0
 11 20  1  0
 11 12  1  0
 13  7  1  0
 13 12  1  0
 14  7  2  0
 15 16  1  0
 17 18  2  0
 18 37  1  0
 19 18  1  0
 19 22  1  0
 20 21  1  0
 20 17  1  0
 21 19  2  0
 22 23  1  0
 23 24  2  0
 25 28  1  0
 25 24  1  0
 26 25  2  0
 27 26  1  0
 27 22  2  0
 28 29  1  0
 29 30  1  0
 30 31  2  0
 32 31  1  0
 32 36  1  0
 33 32  2  0
 34 29  2  0
 34 33  1  0
 35 34  1  0
 37 38  1  0
 38 41  1  0
 38 40  1  0
 39 37  2  0
 42 43  1  0
 42 17  1  0
 44 42  1  0
 45 47  1  0
 45 46  1  0
 46 49  1  0
 47 50  1  0
 49 51  1  0
 49 48  1  0
 50  4  1  0
 50 48  1  0
 51 52  1  0
 53 64  2  0
 54 52  1  0
 54 59  1  0
 55 63  1  0
 55 65  1  0
 56 58  1  0
 57 63  1  0
 58 59  2  0
 58 57  1  0
 60 54  2  0
 61 60  1  0
 61 56  2  0
 62 56  1  0
 62 55  1  0
 63 53  1  0
 65 67  2  0
 66 65  1  0
 68 66  1  0
 69 78  2  0
 69 74  1  0
 70 66  1  0
 70 74  1  0
 71 70  1  0
 72 73  1  0
 72 71  1  0
 73 69  1  0
 74 75  2  0
 75 76  1  0
 77 76  2  0
 78 77  1  0
 79 53  1  0
 79 84  1  0
 79 80  1  0
 80 83  1  1
 80 81  1  0
 82 80  1  0
 84 87  1  0
 85 89  1  0
 85 84  1  0
 86 85  2  0
 89 88  1  0
 91 89  1  0
 91 92  1  0
 91 90  1  0
 93 95  2  0
 94 97  1  0
 94 93  1  0
 96 94  1  0
 98  6  1  0
 99 98  1  0
100 98  1  0
M  ISO  4   7 100  15 100  51 101  52 101
M  END
>  <TORSDO>  (21) 
F 20

>  <SCORE>  (21) 
-14.321

>  <name>  (21) 
20

>  <ligand_id>  (21) 
20

>  <original_smiles>  (21) 
[H]c1c([H])c([H])c2c(c1[H])C([H])([H])C([H])([H])C([H])([H])C2([H])N([H])C(=O)C1([H])N(C(=O)C([H])(N([H])C(=O)C([H])(N([H])C([H])([H])[H])C([H])([H])[H])C(C([H])([H])[H])(C([H])([H])[H])C([H])([H])[H])C([H])([H])c2c([H])c(OC([H])([H])C3([H])C([H])([H])N(c4c(C(=O)N([H])[H])c([H])c(N([H])C(=O)N5C([H])([H])C([H])([H])C([H])([H])C([H])(n6nc(-c7c([H])c([H])c(Oc8c([H])c([H])c(F)c([H])c8F)c([H])c7[H])c(C(=O)N([H])[H])c6N([H])[H])C5([H])[H])c([H])c4N([H])[H])C([H])([H])C([H])([H])C3([H])[H])c([H])c([H])c2C1([H])[H]

>  <smiles>  (21) 
[H]c1c([H])c([H])c2c(c1[H])C([H])([H])C([H])([H])C([H])([H])C2([H])N([H])C(=O)C1([H])N(C(=O)C([H])(N([H])C(=O)C([H])(N([H])C([H])([H])[H])C([H])([H])[H])C(C([H])([H])[H])(C([H])([H])[H])C([H])([H])[H])C([H])([H])c2c([H])c(OC([H])([H])C3([H])C([H])([H])N(c4c(C(=O)N([H])[H])c([H])c(N([H])C(=O)N5C([H])([H])C([H])([H])C([H])([H])C([H])(n6nc(-c7c([H])c([H])c(Oc8c([H])c([H])c(F)c([H])c8F)c([H])c7[H])c(C(=O)N([H])[H])c6N([H])[H])C5([H])[H])c([H])c4N([H])[H])C([H])([H])C([H])([H])C3([H])[H])c([H])c([H])c2C1([H])[H]

$$$$
21:0:0
     RDKit          3D

 96104  0  0  1  0  0  0  0  0999 V2000
  -29.2550  -20.6960   21.3760 C   0  0  0  0  0  3  0  0  0  0  0  0
  -29.2750  -21.9050   22.1000 C   0  0  0  0  0  3  0  0  0  0  0  0
  -31.4340  -22.4390   21.1230 C   0  0  0  0  0  3  0  0  0  0  0  0
  -30.3100  -20.3450   20.5010 C   0  0  0  0  0  0  0  0  0  0  0  0
  -30.3590  -22.7940   21.9630 C   0  0  0  0  0  0  0  0  0  0  0  0
  -31.4150  -21.2380   20.3760 C   0  0  0  0  0  0  0  0  0  0  0  0
  -30.1980  -19.0610   19.7100 C   0  0  0  0  0  0  0  0  0  0  0  0
  -29.7620  -17.9880   20.3870 N   0  0  0  0  0  0  0  0  0  0  0  0
  -30.5170  -19.0170   18.5200 O   0  0  0  0  0  0  0  0  0  0  0  0
  -29.5310  -18.1370   21.3600 H   0  0  0  0  0  0  0  0  0  0  0  0
  -29.6020  -16.6390   19.8280 C   0  0  0  0  0  2  0  0  0  0  0  0
  -30.0420  -15.5280   20.8160 C   0  0  0  0  0  2  0  0  0  0  0  0
  -30.6300  -14.3060   20.0840 C   0  0  0  0  0  0  0  0  0  0  0  0
  -30.2220  -12.1870   18.8960 C   0  0  0  0  0  2  0  0  0  0  0  0
  -29.2040  -12.4520   17.7670 C   0  0  0  0  0  2  0  0  0  0  0  0
  -27.7590  -12.3300   18.2890 C   0  0  0  0  0  2  0  0  0  0  0  0
  -27.5280  -13.1250   19.6010 C   0  0  0  0  0  3  0  0  0  0  0  0
  -28.6510  -12.8310   20.6210 C   0  0  0  0  0  2  0  0  0  0  0  0
  -29.9370  -13.1400   19.9780 N   0  0  0  0  0  0  0  0  0  0  0  0
  -31.7100  -14.4790   19.5120 O   0  0  0  0  0  0  0  0  0  0  0  0
  -25.1940  -13.7450   20.4940 C   0  0  0  0  0  0  0  0  0  0  0  0
  -24.1390  -12.9760   20.9050 C   0  0  0  0  0  0  0  0  0  0  0  0
  -24.5710  -11.6190   20.7940 C   0  0  0  0  0  0  0  0  0  0  0  0
  -26.2050  -12.8560   20.1610 N   0  0  0  0  0  0  0  0  0  0  0  0
  -25.8360  -11.5700   20.3950 N   0  0  0  0  0  0  0  0  0  0  0  0
  -23.8360  -10.3630   20.9910 C   0  0  0  0  0  0  0  0  0  0  0  0
  -24.2900   -9.3770   21.8950 C   0  0  0  0  0  3  0  0  0  0  0  0
  -23.5580   -8.1840   22.0790 C   0  0  0  0  0  3  0  0  0  0  0  0
  -22.3580   -7.9710   21.3600 C   0  0  0  0  0  0  0  0  0  0  0  0
  -21.9230   -8.9460   20.4460 C   0  0  0  0  0  3  0  0  0  0  0  0
  -22.6550  -10.1290   20.2600 C   0  0  0  0  0  3  0  0  0  0  0  0
  -21.5940   -6.8330   21.4560 O   0  0  0  0  0  0  0  0  0  0  0  0
  -21.5370   -6.0990   22.6130 C   0  0  0  0  0  0  0  0  0  0  0  0
  -21.0600   -6.6490   23.8230 C   0  0  0  0  0  3  0  0  0  0  0  0
  -20.9540   -5.8390   24.9710 C   0  0  0  0  0  3  0  0  0  0  0  0
  -21.3150   -4.4800   24.9110 C   0  0  0  0  0  0  0  0  0  0  0  0
  -21.7850   -3.9290   23.7070 C   0  0  0  0  0  3  0  0  0  0  0  0
  -21.8940   -4.7350   22.5610 C   0  0  0  0  0  0  0  0  0  0  0  0
  -22.3280   -4.1940   21.3970 F   0  0  0  0  0  0  0  0  0  0  0  0
  -21.2050   -3.7000   26.0120 F   0  0  0  0  0  0  0  0  0  0  0  0
  -22.7720  -13.4650   21.2950 C   0  0  0  0  0  0  0  0  0  0  0  0
  -22.0930  -12.7490   22.1830 N   0  0  0  0  0  0  0  0  0  0  0  0
  -22.3190  -14.5180   20.8460 O   0  0  0  0  0  0  0  0  0  0  0  0
  -22.4770  -11.8990   22.5670 H   0  0  0  0  0  0  0  0  0  0  0  0
  -21.1790  -13.0560   22.4860 H   0  0  0  0  0  0  0  0  0  0  0  0
  -25.3730  -15.1180   20.3550 N   0  0  0  0  0  0  0  0  0  0  0  0
  -24.6220  -15.7750   20.5360 H   0  0  0  0  0  0  0  0  0  0  0  0
  -26.2100  -15.5540   19.9890 H   0  0  0  0  0  0  0  0  0  0  0  0
  -32.5220  -20.9800   19.5580 N   0  0  0  0  0  0  0  0  0  0  0  0
  -33.1270  -21.7550   19.3040 H   0  0  0  0  0  0  0  0  0  0  0  0
  -32.3960  -20.3100   18.8020 H   0  0  0  0  0  0  0  0  0  0  0  0
  -29.7640  -25.0190   22.2520 C   0  0  0  0  0  3  0  0  0  0  0  0
  -30.4060  -23.9970   22.6740 N   0  0  0  0  0  0  0  0  0  0  0  0
  -28.9220  -25.1120   20.9830 C   0  0  0  0  0  2  0  0  0  0  0  0
  -28.4610  -26.5470   20.6670 C   0  0  0  0  0  2  0  0  0  0  0  0
  -27.4680  -26.4860   19.6420 O   0  0  0  0  0  0  0  0  0  0  0  0
  -24.2570  -31.8140   23.1260 C   0  0  0  0  0  0  0  0  0  0  0  0
  -26.3780  -27.3160   19.7810 C   0  0  0  0  0  0  0  0  0  0  0  0
  -22.8300  -30.5080   21.5790 C   0  0  0  0  0  3  0  0  0  0  0  0
  -24.0670  -28.9180   20.0110 C   0  0  0  0  0  0  0  0  0  0  0  0
  -25.3370  -30.7430   21.1570 C   0  0  0  0  0  2  0  0  0  0  0  0
  -25.2930  -29.3800   20.5060 C   0  0  0  0  0  0  0  0  0  0  0  0
  -26.4510  -28.5830   20.3980 C   0  0  0  0  0  3  0  0  0  0  0  0
  -25.1440  -26.8680   19.2680 C   0  0  0  0  0  3  0  0  0  0  0  0
  -23.9840  -27.6580   19.3930 C   0  0  0  0  0  3  0  0  0  0  0  0
  -22.8770  -29.8370   20.1780 C   0  0  0  0  0  2  0  0  0  0  0  0
  -24.1650  -31.0350   22.0120 N   0  0  0  0  0  0  0  0  0  0  0  0
  -23.2460  -32.1370   23.7640 O   0  0  0  0  0  0  0  0  0  0  0  0
  -22.2100  -29.5100   22.5820 C   0  0  0  0  0  0  0  0  0  0  0  0
  -20.8890  -29.2950   22.4730 N   0  0  0  0  0  0  0  0  0  0  0  0
  -22.9130  -28.9300   23.4130 O   0  0  0  0  0  0  0  0  0  0  0  0
  -20.3800  -29.8160   21.7730 H   0  0  0  0  0  0  0  0  0  0  0  0
  -17.5690  -27.9600   22.9530 C   0  0  0  0  0  0  0  0  0  0  0  0
  -20.1000  -28.3680   23.2840 C   0  0  0  0  0  3  0  0  0  0  0  0
  -20.2940  -26.9110   22.8080 C   0  0  0  0  0  2  0  0  0  0  0  0
  -19.2430  -26.4640   21.7850 C   0  0  0  0  0  2  0  0  0  0  0  0
  -17.8360  -26.5790   22.3790 C   0  0  0  0  0  2  0  0  0  0  0  0
  -18.6330  -28.8060   23.3640 C   0  0  0  0  0  0  0  0  0  0  0  0
  -18.3330  -30.0950   23.8580 C   0  0  0  0  0  3  0  0  0  0  0  0
  -17.0000  -30.5370   23.9490 C   0  0  0  0  0  3  0  0  0  0  0  0
  -15.9500  -29.6880   23.5600 C   0  0  0  0  0  3  0  0  0  0  0  0
  -16.2350  -28.4030   23.0670 C   0  0  0  0  0  3  0  0  0  0  0  0
  -25.6270  -32.3590   23.6360 C   0  0  0  0  0  3  0  0  0  0  0  0
  -25.4290  -33.7580   24.0360 N   0  0  0  0  0  0  0  0  0  0  0  0
  -25.8300  -34.8160   23.3180 C   0  0  0  0  0  0  0  0  0  0  0  0
  -26.4790  -34.7120   22.2730 O   0  0  0  0  0  0  0  0  0  0  0  0
  -24.8580  -33.9210   24.8530 H   0  0  0  0  0  0  0  0  0  0  0  0
  -24.2710  -36.7670   23.0280 C   0  0  0  0  0  1  0  0  0  0  0  0
  -25.4490  -36.2130   23.8440 C   0  0  0  0  0  3  0  0  0  0  0  0
  -27.6210  -36.8680   24.7850 C   0  0  0  0  0  1  0  0  0  0  0  0
  -26.5710  -37.1770   23.8170 N   0  0  0  0  0  0  0  0  0  0  0  0
  -26.2400  -38.1200   24.0000 H   0  0  0  0  0  0  0  0  0  0  0  0
  -26.2290  -31.5170   24.8260 C   0  0  1  0  0  0  0  0  0  0  0  0
  -25.2370  -31.2870   25.9890 C   0  0  0  0  0  1  0  0  0  0  0  0
  -26.7030  -30.1300   24.3300 C   0  0  0  0  0  1  0  0  0  0  0  0
  -27.4760  -32.2310   25.4000 C   0  0  0  0  0  1  0  0  0  0  0  0
  1  2  1  0
  3  5  1  0
  4  1  2  0
  5  2  2  0
  5 53  1  0
  6  4  1  0
  6  3  2  0
  7  8  1  0
  7  4  1  0
  8 10  1  0
  9  7  2  0
 11  8  1  0
 11 12  1  0
 13 12  1  0
 14 19  1  0
 15 16  1  0
 15 14  1  0
 17 16  1  0
 17 24  1  0
 17 18  1  0
 19 13  1  0
 19 18  1  0
 20 13  2  0
 21 22  2  0
 22 41  1  0
 23 22  1  0
 23 26  1  0
 24 25  1  0
 24 21  1  0
 25 23  2  0
 26 27  1  0
 27 28  2  0
 29 32  1  0
 29 28  1  0
 30 29  2  0
 31 30  1  0
 31 26  2  0
 32 33  1  0
 33 34  1  0
 34 35  2  0
 36 35  1  0
 36 40  1  0
 37 36  2  0
 38 33  2  0
 38 37  1  0
 39 38  1  0
 41 42  1  0
 42 45  1  0
 42 44  1  0
 43 41  2  0
 46 21  1  0
 46 47  1  0
 48 46  1  0
 49  6  1  0
 50 49  1  0
 51 49  1  0
 52 53  2  0
 54 52  1  0
 55 54  1  0
 56 58  1  0
 56 55  1  0
 57 68  2  0
 58 63  1  0
 59 67  1  0
 59 69  1  0
 60 66  1  0
 60 62  1  0
 61 67  1  0
 62 61  1  0
 63 62  2  0
 64 65  1  0
 64 58  2  0
 65 60  2  0
 66 59  1  0
 67 57  1  0
 69 71  2  0
 70 69  1  0
 72 70  1  0
 73 82  2  0
 73 78  1  0
 74 70  1  0
 74 78  1  0
 75 74  1  0
 76 77  1  0
 76 75  1  0
 77 73  1  0
 78 79  2  0
 79 80  1  0
 81 80  2  0
 82 81  1  0
 83 57  1  0
 83 84  1  0
 83 93  1  0
 84 87  1  0
 85 89  1  0
 85 84  1  0
 86 85  2  0
 89 88  1  0
 91 89  1  0
 91 92  1  0
 91 90  1  0
 93 96  1  1
 93 94  1  0
 95 93  1  0
M  ISO  4  12 100  13 100  55 101  56 101
M  END
>  <TORSDO>  (22) 
F 23

>  <SCORE>  (22) 
-12.125

>  <name>  (22) 
21

>  <ligand_id>  (22) 
21

>  <original_smiles>  (22) 
[H]C(=Nc1c([H])c([H])c(C(=O)N([H])C([H])([H])C([H])([H])C(=O)N2C([H])([H])C([H])([H])C([H])([H])C([H])(n3nc(-c4c([H])c([H])c(Oc5c([H])c([H])c(F)c([H])c5F)c([H])c4[H])c(C(=O)N([H])[H])c3N([H])[H])C2([H])[H])c(N([H])[H])c1[H])C([H])([H])C([H])([H])Oc1c([H])c([H])c2c(c1[H])C([H])([H])N(C(=O)C([H])(N([H])C(=O)C([H])(N([H])C([H])([H])[H])C([H])([H])[H])C(C([H])([H])[H])(C([H])([H])[H])C([H])([H])[H])C([H])(C(=O)N([H])C1([H])c3c([H])c([H])c([H])c([H])c3C([H])([H])C([H])([H])C1([H])[H])C2([H])[H]

>  <smiles>  (22) 
[H]C(=Nc1c([H])c([H])c(C(=O)N([H])C([H])([H])C([H])([H])C(=O)N2C([H])([H])C([H])([H])C([H])([H])C([H])(n3nc(-c4c([H])c([H])c(Oc5c([H])c([H])c(F)c([H])c5F)c([H])c4[H])c(C(=O)N([H])[H])c3N([H])[H])C2([H])[H])c(N([H])[H])c1[H])C([H])([H])C([H])([H])Oc1c([H])c([H])c2c(c1[H])C([H])([H])N(C(=O)C([H])(N([H])C(=O)C([H])(N([H])C([H])([H])[H])C([H])([H])[H])C(C([H])([H])[H])(C([H])([H])[H])C([H])([H])[H])C([H])(C(=O)N([H])C1([H])c3c([H])c([H])c([H])c([H])c3C([H])([H])C([H])([H])C1([H])[H])C2([H])[H]

$$$$
22:0:0
     RDKit          3D

 92100  0  0  1  0  0  0  0  0999 V2000
  -30.3660  -15.5070   20.3420 C   0  0  0  0  0  0  0  0  0  0  0  0
  -30.4680  -12.9860   19.5650 C   0  0  0  0  0  2  0  0  0  0  0  0
  -29.5970  -12.6520   18.3230 C   0  0  0  0  0  2  0  0  0  0  0  0
  -28.1410  -12.3620   18.7260 C   0  0  0  0  0  2  0  0  0  0  0  0
  -27.6270  -13.3650   19.7870 C   0  0  0  0  0  3  0  0  0  0  0  0
  -28.6330  -13.6050   20.9340 C   0  0  0  0  0  2  0  0  0  0  0  0
  -29.8570  -14.1560   20.3160 N   0  0  0  0  0  0  0  0  0  0  0  0
  -31.5990  -15.5100   20.1840 O   0  0  0  0  0  0  0  0  0  0  0  0
  -27.9500  -18.8280   19.8020 C   0  0  0  0  0  0  0  0  0  0  0  0
  -27.8110  -20.2340   19.7140 C   0  0  0  0  0  0  0  0  0  0  0  0
  -29.2750  -18.4030   20.2120 C   0  0  0  0  0  0  0  0  0  0  0  0
  -29.1030  -22.6100   20.2380 C   0  0  0  0  0  0  0  0  0  0  0  0
  -26.5990  -20.9900   19.2610 C   0  0  0  0  0  1  0  0  0  0  0  0
  -29.8630  -19.7320   20.4130 N   0  0  0  0  0  0  0  0  0  0  0  0
  -30.2360  -22.9880   20.6580 N   0  0  0  0  0  0  0  0  0  0  0  0
  -28.9600  -20.9190   20.1290 N   0  0  0  0  0  0  0  0  0  0  0  0
  -29.5000  -16.7510   20.3540 N   0  0  0  0  0  0  0  0  0  0  0  0
  -30.2710  -24.0010   20.7170 H   0  0  0  0  0  0  0  0  0  0  0  0
  -28.5680  -16.3690   20.3590 H   0  0  0  0  0  0  0  0  0  0  0  0
  -25.2410  -13.9200   20.4760 C   0  0  0  0  0  0  0  0  0  0  0  0
  -24.1710  -13.1510   20.8310 C   0  0  0  0  0  0  0  0  0  0  0  0
  -24.6360  -11.7990   20.8180 C   0  0  0  0  0  0  0  0  0  0  0  0
  -26.2880  -13.0450   20.2640 N   0  0  0  0  0  0  0  0  0  0  0  0
  -25.9350  -11.7610   20.5360 N   0  0  0  0  0  0  0  0  0  0  0  0
  -23.8990  -10.5420   20.9930 C   0  0  0  0  0  0  0  0  0  0  0  0
  -24.3040   -9.5710   21.9350 C   0  0  0  0  0  3  0  0  0  0  0  0
  -23.5640   -8.3810   22.1010 C   0  0  0  0  0  3  0  0  0  0  0  0
  -22.4020   -8.1530   21.3240 C   0  0  0  0  0  0  0  0  0  0  0  0
  -22.0160   -9.1130   20.3730 C   0  0  0  0  0  3  0  0  0  0  0  0
  -22.7570  -10.2930   20.2060 C   0  0  0  0  0  3  0  0  0  0  0  0
  -21.6350   -7.0150   21.4010 O   0  0  0  0  0  0  0  0  0  0  0  0
  -21.5670   -6.2690   22.5500 C   0  0  0  0  0  0  0  0  0  0  0  0
  -21.1250   -6.8210   23.7730 C   0  0  0  0  0  3  0  0  0  0  0  0
  -21.0040   -6.0020   24.9120 C   0  0  0  0  0  3  0  0  0  0  0  0
  -21.3140   -4.6310   24.8310 C   0  0  0  0  0  0  0  0  0  0  0  0
  -21.7490   -4.0800   23.6140 C   0  0  0  0  0  3  0  0  0  0  0  0
  -21.8730   -4.8960   22.4760 C   0  0  0  0  0  0  0  0  0  0  0  0
  -22.2710   -4.3530   21.3000 F   0  0  0  0  0  0  0  0  0  0  0  0
  -21.1910   -3.8420   25.9240 F   0  0  0  0  0  0  0  0  0  0  0  0
  -22.7680  -13.6350   21.0470 C   0  0  0  0  0  0  0  0  0  0  0  0
  -22.0110  -12.9620   21.9050 N   0  0  0  0  0  0  0  0  0  0  0  0
  -22.3550  -14.6490   20.4860 O   0  0  0  0  0  0  0  0  0  0  0  0
  -22.3590  -12.1430   22.3800 H   0  0  0  0  0  0  0  0  0  0  0  0
  -21.0680  -13.2720   22.0900 H   0  0  0  0  0  0  0  0  0  0  0  0
  -25.4000  -15.2860   20.2720 N   0  0  0  0  0  0  0  0  0  0  0  0
  -24.5290  -15.8080   20.2440 H   0  0  0  0  0  0  0  0  0  0  0  0
  -26.0170  -15.5620   19.5190 H   0  0  0  0  0  0  0  0  0  0  0  0
  -26.8880  -17.9400   19.5300 N   0  0  0  0  0  0  0  0  0  0  0  0
  -26.7330  -17.1730   20.1790 H   0  0  0  0  0  0  0  0  0  0  0  0
  -25.9940  -18.3460   19.2810 H   0  0  0  0  0  0  0  0  0  0  0  0
  -28.0350  -24.0780   19.9190 C   0  0  0  0  0  2  0  0  0  0  0  0
  -28.2650  -25.7540   20.1000 O   0  0  0  0  0  0  0  0  0  0  0  0
  -24.6850  -31.8030   23.1130 C   0  0  0  0  0  0  0  0  0  0  0  0
  -27.2630  -26.8970   20.0440 C   0  0  0  0  0  0  0  0  0  0  0  0
  -23.5040  -30.4260   21.4500 C   0  0  0  0  0  3  0  0  0  0  0  0
  -24.9630  -28.8290   20.0120 C   0  0  0  0  0  0  0  0  0  0  0  0
  -26.0740  -30.6230   21.3240 C   0  0  0  0  0  2  0  0  0  0  0  0
  -26.1510  -29.2130   20.6480 C   0  0  0  0  0  0  0  0  0  0  0  0
  -27.2900  -28.2710   20.6340 C   0  0  0  0  0  3  0  0  0  0  0  0
  -26.0400  -26.6900   19.3600 C   0  0  0  0  0  3  0  0  0  0  0  0
  -24.9370  -27.5910   19.3470 C   0  0  0  0  0  3  0  0  0  0  0  0
  -23.7450  -29.7570   20.0670 C   0  0  0  0  0  2  0  0  0  0  0  0
  -24.7760  -30.9800   22.0170 N   0  0  0  0  0  0  0  0  0  0  0  0
  -23.5910  -32.0850   23.6310 O   0  0  0  0  0  0  0  0  0  0  0  0
  -22.8030  -29.4200   22.4040 C   0  0  0  0  0  0  0  0  0  0  0  0
  -21.4690  -29.2780   22.2920 N   0  0  0  0  0  0  0  0  0  0  0  0
  -23.4680  -28.7710   23.2130 O   0  0  0  0  0  0  0  0  0  0  0  0
  -20.9840  -29.8590   21.6230 H   0  0  0  0  0  0  0  0  0  0  0  0
  -18.0730  -28.1090   22.8370 C   0  0  0  0  0  0  0  0  0  0  0  0
  -20.6440  -28.3280   23.0460 C   0  0  0  0  0  3  0  0  0  0  0  0
  -20.7070  -26.9150   22.4200 C   0  0  0  0  0  2  0  0  0  0  0  0
  -19.5750  -26.6440   21.4230 C   0  0  0  0  0  2  0  0  0  0  0  0
  -18.2110  -26.7850   22.1060 C   0  0  0  0  0  2  0  0  0  0  0  0
  -19.2140  -28.8420   23.2630 C   0  0  0  0  0  0  0  0  0  0  0  0
  -19.0260  -30.0800   23.9140 C   0  0  0  0  0  3  0  0  0  0  0  0
  -17.7330  -30.5880   24.1370 C   0  0  0  0  0  3  0  0  0  0  0  0
  -16.6070  -29.8550   23.7230 C   0  0  0  0  0  3  0  0  0  0  0  0
  -16.7790  -28.6170   23.0790 C   0  0  0  0  0  3  0  0  0  0  0  0
  -25.9490  -32.4430   23.7630 C   0  0  0  0  0  3  0  0  0  0  0  0
  -25.6210  -33.8360   24.1220 N   0  0  0  0  0  0  0  0  0  0  0  0
  -25.9320  -34.9150   23.3920 C   0  0  0  0  0  0  0  0  0  0  0  0
  -26.5870  -34.8430   22.3480 O   0  0  0  0  0  0  0  0  0  0  0  0
  -25.0340  -33.9630   24.9350 H   0  0  0  0  0  0  0  0  0  0  0  0
  -24.1730  -36.7000   23.1340 C   0  0  0  0  0  1  0  0  0  0  0  0
  -25.4450  -36.2910   23.8950 C   0  0  0  0  0  3  0  0  0  0  0  0
  -27.5920  -37.1930   24.6780 C   0  0  0  0  0  1  0  0  0  0  0  0
  -26.4610  -37.3600   23.7690 N   0  0  0  0  0  0  0  0  0  0  0  0
  -26.0470  -38.2710   23.9430 H   0  0  0  0  0  0  0  0  0  0  0  0
  -26.4520  -31.6620   25.0390 C   0  0  1  0  0  0  0  0  0  0  0  0
  -25.3480  -31.4130   26.0940 C   0  0  0  0  0  1  0  0  0  0  0  0
  -27.0410  -30.2870   24.6510 C   0  0  0  0  0  1  0  0  0  0  0  0
  -27.5950  -32.4510   25.7190 C   0  0  0  0  0  1  0  0  0  0  0  0
  1 17  1  0
  2  7  1  0
  3  4  1  0
  3  2  1  0
  5  4  1  0
  5 23  1  0
  5  6  1  0
  7  1  1  0
  7  6  1  0
  8  1  2  0
  9 11  1  0
 10  9  2  0
 10 16  1  0
 11 17  1  0
 11 14  2  0
 12 15  2  0
 13 10  1  0
 15 18  1  0
 16 12  1  0
 16 14  1  0
 17 19  1  0
 20 21  2  0
 21 40  1  0
 22 21  1  0
 22 25  1  0
 23 20  1  0
 23 24  1  0
 24 22  2  0
 25 26  1  0
 26 27  2  0
 28 31  1  0
 28 27  1  0
 29 28  2  0
 30 29  1  0
 30 25  2  0
 31 32  1  0
 32 33  1  0
 33 34  2  0
 35 34  1  0
 35 39  1  0
 36 35  2  0
 37 32  2  0
 37 36  1  0
 38 37  1  0
 40 41  1  0
 41 44  1  0
 41 43  1  0
 42 40  2  0
 45 20  1  0
 46 45  1  0
 47 45  1  0
 48  9  1  0
 48 49  1  0
 50 48  1  0
 51 52  1  0
 51 12  1  0
 53 64  2  0
 54 52  1  0
 54 59  1  0
 55 63  1  0
 55 65  1  0
 56 62  1  0
 56 58  1  0
 57 63  1  0
 58 57  1  0
 59 58  2  0
 60 54  2  0
 61 60  1  0
 61 56  2  0
 62 55  1  0
 63 53  1  0
 65 67  2  0
 66 65  1  0
 68 66  1  0
 69 78  2  0
 69 74  1  0
 70 66  1  0
 70 74  1  0
 71 70  1  0
 72 73  1  0
 72 71  1  0
 73 69  1  0
 74 75  2  0
 75 76  1  0
 77 76  2  0
 78 77  1  0
 79 53  1  0
 79 80  1  0
 79 89  1  0
 80 83  1  0
 81 85  1  0
 81 80  1  0
 82 81  2  0
 85 84  1  0
 87 85  1  0
 87 88  1  0
 87 86  1  0
 89 92  1  1
 89 90  1  0
 91 89  1  0
M  ISO  4   1 100  17 100  51 101  52 101
M  END
>  <TORSDO>  (23) 
F 17

>  <SCORE>  (23) 
-16.063

>  <name>  (23) 
22

>  <ligand_id>  (23) 
22

>  <original_smiles>  (23) 
[H]N=C(n1nc(N([H])C(=O)N2C([H])([H])C([H])([H])C([H])([H])C([H])(n3nc(-c4c([H])c([H])c(Oc5c([H])c([H])c(F)c([H])c5F)c([H])c4[H])c(C(=O)N([H])[H])c3N([H])[H])C2([H])[H])c(N([H])[H])c1C([H])([H])[H])C([H])([H])Oc1c([H])c([H])c2c(c1[H])C([H])([H])N(C(=O)C([H])(N([H])C(=O)C([H])(N([H])C([H])([H])[H])C([H])([H])[H])C(C([H])([H])[H])(C([H])([H])[H])C([H])([H])[H])C([H])(C(=O)N([H])C1([H])c3c([H])c([H])c([H])c([H])c3C([H])([H])C([H])([H])C1([H])[H])C2([H])[H]

>  <smiles>  (23) 
[H]N=C(n1nc(N([H])C(=O)N2C([H])([H])C([H])([H])C([H])([H])C([H])(n3nc(-c4c([H])c([H])c(Oc5c([H])c([H])c(F)c([H])c5F)c([H])c4[H])c(C(=O)N([H])[H])c3N([H])[H])C2([H])[H])c(N([H])[H])c1C([H])([H])[H])C([H])([H])Oc1c([H])c([H])c2c(c1[H])C([H])([H])N(C(=O)C([H])(N([H])C(=O)C([H])(N([H])C([H])([H])[H])C([H])([H])[H])C(C([H])([H])[H])(C([H])([H])[H])C([H])([H])[H])C([H])(C(=O)N([H])C1([H])c3c([H])c([H])c([H])c([H])c3C([H])([H])C([H])([H])C1([H])[H])C2([H])[H]

$$$$
23:0:0
     RDKit          3D

 97106  0  0  1  0  0  0  0  0999 V2000
  -28.4950  -23.8310   19.7670 C   0  0  0  0  0  0  0  0  0  0  0  0
  -28.9070  -22.5690   20.2010 C   0  0  0  0  0  0  0  0  0  0  0  0
  -28.1970  -23.9830   18.3250 C   0  0  0  0  0  0  0  0  0  0  0  0
  -27.9240  -22.7060   17.5400 C   0  0  0  0  0  2  0  0  0  0  0  0
  -28.9230  -21.6000   17.9010 C   0  0  0  0  0  2  0  0  0  0  0  0
  -29.2560  -22.3450   21.6660 C   0  0  0  0  0  1  0  0  0  0  0  0
  -29.0910  -21.4100   19.3510 N   0  0  0  0  0  0  0  0  0  0  0  0
  -28.1480  -25.0610   17.7270 O   0  0  0  0  0  0  0  0  0  0  0  0
  -28.8320  -19.3140   20.7690 C   0  0  0  0  0  3  0  0  0  0  0  0
  -29.1030  -17.9330   21.0150 C   0  0  0  0  0  3  0  0  0  0  0  0
  -30.1450  -19.1730   18.7910 C   0  0  0  0  0  3  0  0  0  0  0  0
  -29.3710  -20.0090   19.6580 C   0  0  0  0  0  0  0  0  0  0  0  0
  -29.9330  -17.1140   20.1880 C   0  0  0  0  0  0  0  0  0  0  0  0
  -30.4050  -17.7720   19.0070 C   0  0  0  0  0  0  0  0  0  0  0  0
  -30.7180  -14.6700   19.8180 C   0  0  0  0  0  0  0  0  0  0  0  0
  -30.2780  -12.4980   18.6700 C   0  0  0  0  0  2  0  0  0  0  0  0
  -29.2450  -12.6740   17.5390 C   0  0  0  0  0  2  0  0  0  0  0  0
  -27.8150  -12.5220   18.0890 C   0  0  0  0  0  2  0  0  0  0  0  0
  -27.5790  -13.3640   19.3690 C   0  0  0  0  0  3  0  0  0  0  0  0
  -28.7220  -13.1820   20.3870 C   0  0  0  0  0  2  0  0  0  0  0  0
  -29.9870  -13.5080   19.7100 N   0  0  0  0  0  0  0  0  0  0  0  0
  -31.8140  -14.7560   19.2550 O   0  0  0  0  0  0  0  0  0  0  0  0
  -30.2480  -15.7080   20.6050 N   0  0  0  0  0  0  0  0  0  0  0  0
  -25.2810  -13.9780   20.3300 C   0  0  0  0  0  0  0  0  0  0  0  0
  -24.2330  -13.2120   20.7660 C   0  0  0  0  0  0  0  0  0  0  0  0
  -24.6610  -11.8540   20.6470 C   0  0  0  0  0  0  0  0  0  0  0  0
  -26.2770  -13.0880   19.9670 N   0  0  0  0  0  0  0  0  0  0  0  0
  -25.9170  -11.8030   20.2220 N   0  0  0  0  0  0  0  0  0  0  0  0
  -23.9260  -10.6000   20.8580 C   0  0  0  0  0  0  0  0  0  0  0  0
  -24.3880   -9.6110   21.7550 C   0  0  0  0  0  3  0  0  0  0  0  0
  -23.6530   -8.4230   21.9510 C   0  0  0  0  0  3  0  0  0  0  0  0
  -22.4400   -8.2140   21.2530 C   0  0  0  0  0  0  0  0  0  0  0  0
  -21.9960   -9.1910   20.3440 C   0  0  0  0  0  3  0  0  0  0  0  0
  -22.7320  -10.3710   20.1440 C   0  0  0  0  0  3  0  0  0  0  0  0
  -21.6720   -7.0800   21.3630 O   0  0  0  0  0  0  0  0  0  0  0  0
  -21.6350   -6.3450   22.5210 C   0  0  0  0  0  0  0  0  0  0  0  0
  -21.2520   -6.9180   23.7540 C   0  0  0  0  0  3  0  0  0  0  0  0
  -21.1600   -6.1110   24.9050 C   0  0  0  0  0  3  0  0  0  0  0  0
  -21.4390   -4.7340   24.8260 C   0  0  0  0  0  0  0  0  0  0  0  0
  -21.8130   -4.1610   23.5970 C   0  0  0  0  0  3  0  0  0  0  0  0
  -21.9070   -4.9640   22.4470 C   0  0  0  0  0  0  0  0  0  0  0  0
  -22.2480   -4.4040   21.2620 F   0  0  0  0  0  0  0  0  0  0  0  0
  -21.3430   -3.9560   25.9300 F   0  0  0  0  0  0  0  0  0  0  0  0
  -22.8760  -13.7050   21.1770 C   0  0  0  0  0  0  0  0  0  0  0  0
  -22.2210  -13.0040   22.0950 N   0  0  0  0  0  0  0  0  0  0  0  0
  -22.4100  -14.7480   20.7180 O   0  0  0  0  0  0  0  0  0  0  0  0
  -22.6130  -12.1610   22.4850 H   0  0  0  0  0  0  0  0  0  0  0  0
  -21.3140  -13.3160   22.4120 H   0  0  0  0  0  0  0  0  0  0  0  0
  -25.4620  -15.3510   20.1910 N   0  0  0  0  0  0  0  0  0  0  0  0
  -24.7330  -16.0210   20.4060 H   0  0  0  0  0  0  0  0  0  0  0  0
  -26.3050  -15.7820   19.8330 H   0  0  0  0  0  0  0  0  0  0  0  0
  -31.2100  -16.4040   22.7650 C   0  0  0  0  0  2  0  0  0  0  0  0
  -30.6080  -15.5100   21.9570 C   0  0  0  0  0  3  0  0  0  0  0  0
  -31.6200  -17.6300   16.9120 C   0  0  0  0  0  1  0  0  0  0  0  0
  -31.1150  -17.0190   18.0930 O   0  0  0  0  0  0  0  0  0  0  0  0
  -28.1860  -25.1020   20.6710 C   0  0  0  0  0  2  0  0  0  0  0  0
  -28.3650  -26.4970   20.1780 O   0  0  0  0  0  0  0  0  0  0  0  0
  -24.6120  -31.8830   23.2430 C   0  0  0  0  0  0  0  0  0  0  0  0
  -27.2450  -27.3420   20.1830 C   0  0  0  0  0  0  0  0  0  0  0  0
  -23.4180  -30.4850   21.5950 C   0  0  0  0  0  3  0  0  0  0  0  0
  -24.8760  -28.9410   20.1720 C   0  0  0  0  0  0  0  0  0  0  0  0
  -25.9550  -30.8150   21.4170 C   0  0  0  0  0  2  0  0  0  0  0  0
  -26.0420  -29.4370   20.7700 C   0  0  0  0  0  0  0  0  0  0  0  0
  -27.2340  -28.6510   20.7610 C   0  0  0  0  0  3  0  0  0  0  0  0
  -26.0570  -26.8940   19.5730 C   0  0  0  0  0  3  0  0  0  0  0  0
  -24.8840  -27.6760   19.5640 C   0  0  0  0  0  3  0  0  0  0  0  0
  -23.6350  -29.8120   20.2150 C   0  0  0  0  0  2  0  0  0  0  0  0
  -24.6800  -31.0780   22.1430 N   0  0  0  0  0  0  0  0  0  0  0  0
  -23.5260  -32.1550   23.7770 O   0  0  0  0  0  0  0  0  0  0  0  0
  -22.7550  -29.4650   22.5530 C   0  0  0  0  0  0  0  0  0  0  0  0
  -21.4310  -29.2840   22.4210 N   0  0  0  0  0  0  0  0  0  0  0  0
  -23.4340  -28.8380   23.3730 O   0  0  0  0  0  0  0  0  0  0  0  0
  -20.9430  -29.8400   21.7330 H   0  0  0  0  0  0  0  0  0  0  0  0
  -18.0540  -28.0780   22.9070 C   0  0  0  0  0  0  0  0  0  0  0  0
  -20.6110  -28.3430   23.1860 C   0  0  0  0  0  3  0  0  0  0  0  0
  -20.7190  -26.9130   22.6080 C   0  0  0  0  0  2  0  0  0  0  0  0
  -19.6220  -26.5910   21.5900 C   0  0  0  0  0  2  0  0  0  0  0  0
  -18.2370  -26.7300   22.2280 C   0  0  0  0  0  2  0  0  0  0  0  0
  -19.1700  -28.8420   23.3420 C   0  0  0  0  0  0  0  0  0  0  0  0
  -18.9450  -30.1020   23.9380 C   0  0  0  0  0  3  0  0  0  0  0  0
  -17.6380  -30.5990   24.1010 C   0  0  0  0  0  3  0  0  0  0  0  0
  -16.5370  -29.8330   23.6820 C   0  0  0  0  0  3  0  0  0  0  0  0
  -16.7460  -28.5740   23.0900 C   0  0  0  0  0  3  0  0  0  0  0  0
  -25.8910  -32.5180   23.8710 C   0  0  0  0  0  3  0  0  0  0  0  0
  -26.4140  -31.7360   25.1370 C   0  0  1  0  0  0  0  0  0  0  0  0
  -25.3230  -31.4750   26.2030 C   0  0  0  0  0  1  0  0  0  0  0  0
  -27.0070  -30.3670   24.7300 C   0  0  0  0  0  1  0  0  0  0  0  0
  -27.5610  -32.5290   25.8060 C   0  0  0  0  0  1  0  0  0  0  0  0
  -25.5700  -33.9100   24.2180 N   0  0  0  0  0  0  0  0  0  0  0  0
  -25.8990  -34.9750   23.4760 C   0  0  0  0  0  0  0  0  0  0  0  0
  -26.5730  -34.8900   22.4460 O   0  0  0  0  0  0  0  0  0  0  0  0
  -24.9690  -34.0490   25.0180 H   0  0  0  0  0  0  0  0  0  0  0  0
  -24.1670  -36.7690   23.1350 C   0  0  0  0  0  1  0  0  0  0  0  0
  -25.4030  -36.3560   23.9510 C   0  0  0  0  0  3  0  0  0  0  0  0
  -27.5280  -37.2320   24.8140 C   0  0  0  0  0  1  0  0  0  0  0  0
  -26.4330  -37.4130   23.8640 N   0  0  0  0  0  0  0  0  0  0  0  0
  -26.0230  -38.3290   24.0240 H   0  0  0  0  0  0  0  0  0  0  0  0
  1  2  2  0
  1 56  1  0
  2  6  1  0
  3  1  1  0
  4  5  1  0
  4  3  1  0
  5  7  1  0
  7 12  1  0
  7  2  1  0
  8  3  2  0
  9 10  1  0
 11 14  2  0
 11 12  1  0
 12  9  2  0
 13 23  1  0
 13 10  2  0
 14 13  1  0
 15 23  1  0
 16 21  1  0
 17 18  1  0
 17 16  1  0
 19 18  1  0
 19 27  1  0
 19 20  1  0
 21 15  1  0
 21 20  1  0
 22 15  2  0
 23 53  1  0
 24 25  2  0
 25 44  1  0
 26 25  1  0
 26 29  1  0
 27 28  1  0
 27 24  1  0
 28 26  2  0
 29 30  1  0
 30 31  2  0
 32 35  1  0
 32 31  1  0
 33 32  2  0
 34 33  1  0
 34 29  2  0
 35 36  1  0
 36 37  1  0
 37 38  2  0
 39 38  1  0
 39 43  1  0
 40 39  2  0
 41 36  2  0
 41 40  1  0
 42 41  1  0
 44 45  1  0
 45 48  1  0
 45 47  1  0
 46 44  2  0
 49 24  1  0
 49 50  1  0
 51 49  1  0
 53 52  2  0
 54 55  1  0
 55 14  1  0
 57 59  1  0
 57 56  1  0
 58 69  2  0
 59 64  1  0
 60 68  1  0
 60 70  1  0
 61 67  1  0
 61 63  1  0
 62 68  1  0
 63 62  1  0
 64 63  2  0
 65 59  2  0
 66 65  1  0
 66 61  2  0
 67 60  1  0
 68 58  1  0
 70 72  2  0
 71 70  1  0
 73 71  1  0
 74 83  2  0
 74 79  1  0
 75 71  1  0
 75 79  1  0
 76 75  1  0
 77 78  1  0
 77 76  1  0
 78 74  1  0
 79 80  2  0
 80 81  1  0
 82 81  2  0
 83 82  1  0
 84 58  1  0
 84 89  1  0
 84 85  1  0
 85 88  1  1
 85 86  1  0
 87 85  1  0
 89 92  1  0
 90 94  1  0
 90 89  1  0
 91 90  2  0
 94 93  1  0
 96 94  1  0
 96 97  1  0
 96 95  1  0
M  ISO  4  15 100  23 100  56 101  57 101
M  END
>  <TORSDO>  (24) 
F 20

>  <SCORE>  (24) 
-12.705

>  <name>  (24) 
23

>  <ligand_id>  (24) 
23

>  <original_smiles>  (24) 
[H]C([H])=C([H])N(C(=O)N1C([H])([H])C([H])([H])C([H])([H])C([H])(n2nc(-c3c([H])c([H])c(Oc4c([H])c([H])c(F)c([H])c4F)c([H])c3[H])c(C(=O)N([H])[H])c2N([H])[H])C1([H])[H])c1c([H])c([H])c(N2C(C([H])([H])[H])=C(C([H])([H])Oc3c([H])c([H])c4c(c3[H])C([H])([H])N(C(=O)C([H])(N([H])C(=O)C([H])(N([H])C([H])([H])[H])C([H])([H])[H])C(C([H])([H])[H])(C([H])([H])[H])C([H])([H])[H])C([H])(C(=O)N([H])C3([H])c5c([H])c([H])c([H])c([H])c5C([H])([H])C([H])([H])C3([H])[H])C4([H])[H])C(=O)C([H])([H])C2([H])[H])c([H])c1OC([H])([H])[H]

>  <smiles>  (24) 
[H]C([H])=C([H])N(C(=O)N1C([H])([H])C([H])([H])C([H])([H])C([H])(n2nc(-c3c([H])c([H])c(Oc4c([H])c([H])c(F)c([H])c4F)c([H])c3[H])c(C(=O)N([H])[H])c2N([H])[H])C1([H])[H])c1c([H])c([H])c(N2C(C([H])([H])[H])=C(C([H])([H])Oc3c([H])c([H])c4c(c3[H])C([H])([H])N(C(=O)C([H])(N([H])C(=O)C([H])(N([H])C([H])([H])[H])C([H])([H])[H])C(C([H])([H])[H])(C([H])([H])[H])C([H])([H])[H])C([H])(C(=O)N([H])C3([H])c5c([H])c([H])c([H])c([H])c5C([H])([H])C([H])([H])C3([H])[H])C4([H])[H])C(=O)C([H])([H])C2([H])[H])c([H])c1OC([H])([H])[H]

$$$$
24:0:0
     RDKit          3D

 94103  0  0  1  0  0  0  0  0999 V2000
  -29.5710  -22.4290   21.8250 C   0  0  0  0  0  0  0  0  0  0  0  0
  -30.4160  -23.6920   21.8950 C   0  0  0  0  0  2  0  0  0  0  0  0
  -30.6430  -24.0170   20.4240 C   0  0  0  0  0  2  0  0  0  0  0  0
  -29.3870  -23.4430   19.7700 C   0  0  0  0  0  3  0  0  0  0  0  0
  -29.2420  -22.0890   20.5550 N   0  0  0  0  0  0  0  0  0  0  0  0
  -29.2570  -21.8250   22.8560 O   0  0  0  0  0  0  0  0  0  0  0  0
  -28.5790  -19.5960   20.7630 C   0  0  0  0  0  3  0  0  0  0  0  0
  -30.5560  -19.9650   19.5430 C   0  0  0  0  0  3  0  0  0  0  0  0
  -28.7840  -18.1680   20.7050 C   0  0  0  0  0  0  0  0  0  0  0  0
  -30.7690  -18.5150   19.4540 C   0  0  0  0  0  0  0  0  0  0  0  0
  -29.4540  -20.5960   20.2260 C   0  0  0  0  0  0  0  0  0  0  0  0
  -29.8970  -17.5300   20.0600 C   0  0  0  0  0  0  0  0  0  0  0  0
  -27.7630  -17.2940   21.4140 C   0  0  0  0  0  1  0  0  0  0  0  0
  -31.9600  -18.0170   18.6590 C   0  0  0  0  0  1  0  0  0  0  0  0
  -30.7260  -14.9130   19.5790 C   0  0  0  0  0  0  0  0  0  0  0  0
  -30.5050  -12.6130   18.5430 C   0  0  0  0  0  2  0  0  0  0  0  0
  -29.4300  -12.6450   17.4290 C   0  0  0  0  0  2  0  0  0  0  0  0
  -28.0210  -12.4270   18.0180 C   0  0  0  0  0  2  0  0  0  0  0  0
  -27.7660  -13.2970   19.2770 C   0  0  0  0  0  3  0  0  0  0  0  0
  -28.9430  -13.2210   20.2740 C   0  0  0  0  0  2  0  0  0  0  0  0
  -30.1520  -13.6470   19.5530 N   0  0  0  0  0  0  0  0  0  0  0  0
  -31.8690  -15.0390   19.1220 O   0  0  0  0  0  0  0  0  0  0  0  0
  -29.9190  -15.9980   19.9870 N   0  0  0  0  0  0  0  0  0  0  0  0
  -29.0790  -15.6160   20.3920 H   0  0  0  0  0  0  0  0  0  0  0  0
  -25.5180  -13.8660   20.3710 C   0  0  0  0  0  0  0  0  0  0  0  0
  -24.4780  -13.0880   20.7960 C   0  0  0  0  0  0  0  0  0  0  0  0
  -24.8750  -11.7360   20.5640 C   0  0  0  0  0  0  0  0  0  0  0  0
  -26.4860  -12.9900   19.9070 N   0  0  0  0  0  0  0  0  0  0  0  0
  -26.1120  -11.6960   20.0840 N   0  0  0  0  0  0  0  0  0  0  0  0
  -24.1240  -10.4830   20.7120 C   0  0  0  0  0  0  0  0  0  0  0  0
  -24.5460   -9.4680   21.6010 C   0  0  0  0  0  3  0  0  0  0  0  0
  -23.7940   -8.2800   21.7400 C   0  0  0  0  0  3  0  0  0  0  0  0
  -22.6080   -8.0990   20.9900 C   0  0  0  0  0  0  0  0  0  0  0  0
  -22.2050   -9.1020   20.0910 C   0  0  0  0  0  3  0  0  0  0  0  0
  -22.9570  -10.2810   19.9490 C   0  0  0  0  0  3  0  0  0  0  0  0
  -21.8280   -6.9680   21.0410 O   0  0  0  0  0  0  0  0  0  0  0  0
  -21.6400   -6.2770   22.2110 C   0  0  0  0  0  0  0  0  0  0  0  0
  -21.1160   -6.8970   23.3670 C   0  0  0  0  0  3  0  0  0  0  0  0
  -20.8710   -6.1330   24.5260 C   0  0  0  0  0  3  0  0  0  0  0  0
  -21.1410   -4.7520   24.5300 C   0  0  0  0  0  0  0  0  0  0  0  0
  -21.6610   -4.1330   23.3800 C   0  0  0  0  0  3  0  0  0  0  0  0
  -21.9060   -4.8940   22.2230 C   0  0  0  0  0  0  0  0  0  0  0  0
  -22.3860   -4.2870   21.1090 F   0  0  0  0  0  0  0  0  0  0  0  0
  -20.9010   -4.0170   25.6420 F   0  0  0  0  0  0  0  0  0  0  0  0
  -23.1480  -13.5740   21.2950 C   0  0  0  0  0  0  0  0  0  0  0  0
  -22.5140  -12.8230   22.1900 N   0  0  0  0  0  0  0  0  0  0  0  0
  -22.6830  -14.6520   20.9260 O   0  0  0  0  0  0  0  0  0  0  0  0
  -22.9060  -11.9500   22.5100 H   0  0  0  0  0  0  0  0  0  0  0  0
  -21.6270  -13.1310   22.5630 H   0  0  0  0  0  0  0  0  0  0  0  0
  -25.7130  -15.2430   20.3120 N   0  0  0  0  0  0  0  0  0  0  0  0
  -24.9780  -15.8940   20.5720 H   0  0  0  0  0  0  0  0  0  0  0  0
  -26.4820  -15.6950   19.8340 H   0  0  0  0  0  0  0  0  0  0  0  0
  -28.2310  -24.6600   19.9150 C   0  0  0  0  0  2  0  0  0  0  0  0
  -28.4240  -26.1810   19.6670 O   0  0  0  0  0  0  0  0  0  0  0  0
  -24.7190  -31.5790   23.0310 C   0  0  0  0  0  0  0  0  0  0  0  0
  -27.3210  -27.1030   19.7090 C   0  0  0  0  0  0  0  0  0  0  0  0
  -23.5020  -30.2300   21.3660 C   0  0  0  0  0  3  0  0  0  0  0  0
  -24.9410  -28.7620   19.8290 C   0  0  0  0  0  0  0  0  0  0  0  0
  -26.0380  -30.5790   21.1310 C   0  0  0  0  0  2  0  0  0  0  0  0
  -26.1280  -29.2220   20.4150 C   0  0  0  0  0  0  0  0  0  0  0  0
  -27.3200  -28.4110   20.3330 C   0  0  0  0  0  3  0  0  0  0  0  0
  -26.1040  -26.7390   19.0920 C   0  0  0  0  0  3  0  0  0  0  0  0
  -24.9400  -27.5340   19.1530 C   0  0  0  0  0  3  0  0  0  0  0  0
  -23.6930  -29.6190   19.9530 C   0  0  0  0  0  2  0  0  0  0  0  0
  -24.7750  -30.8140   21.8980 N   0  0  0  0  0  0  0  0  0  0  0  0
  -23.6440  -31.8110   23.6050 O   0  0  0  0  0  0  0  0  0  0  0  0
  -22.8780  -29.1640   22.3010 C   0  0  0  0  0  0  0  0  0  0  0  0
  -21.5590  -28.9340   22.1750 N   0  0  0  0  0  0  0  0  0  0  0  0
  -23.5840  -28.5450   23.1000 O   0  0  0  0  0  0  0  0  0  0  0  0
  -21.0440  -29.4870   21.5040 H   0  0  0  0  0  0  0  0  0  0  0  0
  -18.2340  -27.5920   22.6810 C   0  0  0  0  0  0  0  0  0  0  0  0
  -20.7850  -27.9390   22.9200 C   0  0  0  0  0  3  0  0  0  0  0  0
  -20.9300  -26.5340   22.2880 C   0  0  0  0  0  2  0  0  0  0  0  0
  -19.8230  -26.2100   21.2780 C   0  0  0  0  0  2  0  0  0  0  0  0
  -18.4490  -26.2780   21.9490 C   0  0  0  0  0  2  0  0  0  0  0  0
  -19.3300  -28.3790   23.1220 C   0  0  0  0  0  0  0  0  0  0  0  0
  -19.0730  -29.6070   23.7700 C   0  0  0  0  0  3  0  0  0  0  0  0
  -17.7530  -30.0500   23.9780 C   0  0  0  0  0  3  0  0  0  0  0  0
  -16.6720  -29.2600   23.5510 C   0  0  0  0  0  3  0  0  0  0  0  0
  -16.9130  -28.0330   22.9080 C   0  0  0  0  0  3  0  0  0  0  0  0
  -26.0010  -32.2170   23.6480 C   0  0  0  0  0  3  0  0  0  0  0  0
  -25.6790  -33.6050   24.0120 N   0  0  0  0  0  0  0  0  0  0  0  0
  -25.9480  -34.6750   23.2510 C   0  0  0  0  0  0  0  0  0  0  0  0
  -26.5580  -34.5980   22.1820 O   0  0  0  0  0  0  0  0  0  0  0  0
  -25.1240  -33.7360   24.8440 H   0  0  0  0  0  0  0  0  0  0  0  0
  -24.1450  -36.4220   23.0600 C   0  0  0  0  0  1  0  0  0  0  0  0
  -25.4640  -36.0490   23.7560 C   0  0  0  0  0  3  0  0  0  0  0  0
  -27.6330  -36.9990   24.4090 C   0  0  0  0  0  1  0  0  0  0  0  0
  -26.4520  -37.1320   23.5580 N   0  0  0  0  0  0  0  0  0  0  0  0
  -26.0330  -38.0400   23.7390 H   0  0  0  0  0  0  0  0  0  0  0  0
  -26.5390  -31.4290   24.9060 C   0  0  1  0  0  0  0  0  0  0  0  0
  -25.4560  -31.1480   25.9750 C   0  0  0  0  0  1  0  0  0  0  0  0
  -27.1450  -30.0710   24.4860 C   0  0  0  0  0  1  0  0  0  0  0  0
  -27.6780  -32.2320   25.5780 C   0  0  0  0  0  1  0  0  0  0  0  0
  1  2  1  0
  1  6  2  0
  3  2  1  0
  4 53  1  0
  4  3  1  0
  4  5  1  0
  5  1  1  0
  8 11  1  0
  9  7  1  0
  9 13  1  0
 10  8  2  0
 10 12  1  0
 11  5  1  0
 11  7  2  0
 12  9  2  0
 14 10  1  0
 15 23  1  0
 16 21  1  0
 17 18  1  0
 17 16  1  0
 19 18  1  0
 19 28  1  0
 19 20  1  0
 21 15  1  0
 21 20  1  0
 22 15  2  0
 23 12  1  0
 23 24  1  0
 25 26  2  0
 26 45  1  0
 27 30  1  0
 27 26  1  0
 28 29  1  0
 28 25  1  0
 29 27  2  0
 30 31  1  0
 31 32  2  0
 33 36  1  0
 33 32  1  0
 34 33  2  0
 35 34  1  0
 35 30  2  0
 36 37  1  0
 37 42  2  0
 37 38  1  0
 38 39  2  0
 39 40  1  0
 40 44  1  0
 41 40  2  0
 42 41  1  0
 43 42  1  0
 45 46  1  0
 46 48  1  0
 46 49  1  0
 47 45  2  0
 50 25  1  0
 50 51  1  0
 52 50  1  0
 54 56  1  0
 54 53  1  0
 55 66  2  0
 56 61  1  0
 57 65  1  0
 57 67  1  0
 58 64  1  0
 58 60  1  0
 59 65  1  0
 60 59  1  0
 61 60  2  0
 62 63  1  0
 62 56  2  0
 63 58  2  0
 64 57  1  0
 65 55  1  0
 67 69  2  0
 68 67  1  0
 70 68  1  0
 71 80  2  0
 71 76  1  0
 72 68  1  0
 72 76  1  0
 73 72  1  0
 74 75  1  0
 74 73  1  0
 75 71  1  0
 76 77  2  0
 77 78  1  0
 79 78  2  0
 80 79  1  0
 81 55  1  0
 81 82  1  0
 81 91  1  0
 82 85  1  0
 83 87  1  0
 83 82  1  0
 84 83  2  0
 87 86  1  0
 89 90  1  0
 89 87  1  0
 89 88  1  0
 91 94  1  1
 91 92  1  0
 93 91  1  0
M  ISO  4  15 100  23 100  53 101  54 101
M  END
>  <TORSDO>  (25) 
F 18

>  <SCORE>  (25) 
-11.198

>  <name>  (25) 
24

>  <ligand_id>  (25) 
24

>  <original_smiles>  (25) 
[H]c1c([H])c([H])c2c(c1[H])C([H])([H])C([H])([H])C([H])([H])C2([H])N([H])C(=O)C1([H])N(C(=O)C([H])(N([H])C(=O)C([H])(N([H])C([H])([H])[H])C([H])([H])[H])C(C([H])([H])[H])(C([H])([H])[H])C([H])([H])[H])C([H])([H])c2c([H])c(OC([H])([H])C3([H])N(c4c([H])c(C([H])([H])[H])c(N([H])C(=O)N5C([H])([H])C([H])([H])C([H])([H])C([H])(n6nc(-c7c([H])c([H])c(Oc8c([H])c([H])c(F)c([H])c8F)c([H])c7[H])c(C(=O)N([H])[H])c6N([H])[H])C5([H])[H])c(C([H])([H])[H])c4[H])C(=O)C([H])([H])C3([H])[H])c([H])c([H])c2C1([H])[H]

>  <smiles>  (25) 
[H]c1c([H])c([H])c2c(c1[H])C([H])([H])C([H])([H])C([H])([H])C2([H])N([H])C(=O)C1([H])N(C(=O)C([H])(N([H])C(=O)C([H])(N([H])C([H])([H])[H])C([H])([H])[H])C(C([H])([H])[H])(C([H])([H])[H])C([H])([H])[H])C([H])([H])c2c([H])c(OC([H])([H])C3([H])N(c4c([H])c(C([H])([H])[H])c(N([H])C(=O)N5C([H])([H])C([H])([H])C([H])([H])C([H])(n6nc(-c7c([H])c([H])c(Oc8c([H])c([H])c(F)c([H])c8F)c([H])c7[H])c(C(=O)N([H])[H])c6N([H])[H])C5([H])[H])c(C([H])([H])[H])c4[H])C(=O)C([H])([H])C3([H])[H])c([H])c([H])c2C1([H])[H]

$$$$
25:0:0
     RDKit          3D

 88 96  0  0  1  0  0  0  0  0999 V2000
  -30.3050  -22.4320   20.2570 C   0  0  0  0  0  2  0  0  0  0  0  0
  -30.5270  -20.8700   20.5650 C   0  0  0  0  0  2  0  0  0  0  0  0
  -28.7910  -22.7850   20.1690 C   0  0  0  0  0  3  0  0  0  0  0  0
  -28.4460  -21.2120   19.5480 C   0  0  1  0  0  0  0  0  0  0  0  0
  -26.9680  -20.9070   19.8890 C   0  0  0  0  0  1  0  0  0  0  0  0
  -28.6460  -21.2350   18.0100 C   0  0  0  0  0  1  0  0  0  0  0  0
  -29.3520  -20.0240   20.1520 N   0  0  1  0  0  4  0  0  0  0  0  0
  -28.8860  -19.8150   21.0210 H   0  0  0  0  0  0  0  0  0  0  0  0
  -28.2520  -24.4130   19.6110 C   0  0  0  0  0  2  0  0  0  0  0  0
  -28.3410  -25.9740   20.1280 O   0  0  0  0  0  0  0  0  0  0  0  0
  -24.6570  -31.8310   23.1320 C   0  0  0  0  0  0  0  0  0  0  0  0
  -27.3190  -27.0550   20.0440 C   0  0  0  0  0  0  0  0  0  0  0  0
  -23.5050  -30.4530   21.4480 C   0  0  0  0  0  3  0  0  0  0  0  0
  -24.9970  -28.9000   20.0150 C   0  0  0  0  0  0  0  0  0  0  0  0
  -26.0730  -30.6970   21.3510 C   0  0  0  0  0  2  0  0  0  0  0  0
  -26.1700  -29.3050   20.6630 C   0  0  0  0  0  0  0  0  0  0  0  0
  -27.3230  -28.4030   20.6570 C   0  0  0  0  0  3  0  0  0  0  0  0
  -26.1200  -26.8060   19.3390 C   0  0  0  0  0  3  0  0  0  0  0  0
  -24.9980  -27.6730   19.3350 C   0  0  0  0  0  3  0  0  0  0  0  0
  -23.7640  -29.8000   20.0620 C   0  0  0  0  0  2  0  0  0  0  0  0
  -24.7650  -31.0200   22.0300 N   0  0  0  0  0  0  0  0  0  0  0  0
  -23.5560  -32.1010   23.6370 O   0  0  0  0  0  0  0  0  0  0  0  0
  -22.8120  -29.4300   22.3840 C   0  0  0  0  0  0  0  0  0  0  0  0
  -21.4780  -29.2830   22.2690 N   0  0  0  0  0  0  0  0  0  0  0  0
  -23.4780  -28.7690   23.1840 O   0  0  0  0  0  0  0  0  0  0  0  0
  -20.9910  -29.8760   21.6110 H   0  0  0  0  0  0  0  0  0  0  0  0
  -18.0800  -28.1310   22.8080 C   0  0  0  0  0  0  0  0  0  0  0  0
  -20.6520  -28.3270   23.0150 C   0  0  0  0  0  3  0  0  0  0  0  0
  -20.7030  -26.9220   22.3710 C   0  0  0  0  0  2  0  0  0  0  0  0
  -19.5690  -26.6750   21.3700 C   0  0  0  0  0  2  0  0  0  0  0  0
  -18.2080  -26.8150   22.0580 C   0  0  0  0  0  2  0  0  0  0  0  0
  -19.2270  -28.8480   23.2430 C   0  0  0  0  0  0  0  0  0  0  0  0
  -19.0510  -30.0800   23.9080 C   0  0  0  0  0  3  0  0  0  0  0  0
  -17.7620  -30.5960   24.1410 C   0  0  0  0  0  3  0  0  0  0  0  0
  -16.6310  -29.8760   23.7210 C   0  0  0  0  0  3  0  0  0  0  0  0
  -16.7920  -28.6460   23.0610 C   0  0  0  0  0  3  0  0  0  0  0  0
  -25.9110  -32.4760   23.7970 C   0  0  0  0  0  3  0  0  0  0  0  0
  -26.3910  -31.7090   25.0910 C   0  0  1  0  0  0  0  0  0  0  0  0
  -25.2690  -31.4660   26.1290 C   0  0  0  0  0  1  0  0  0  0  0  0
  -26.9950  -30.3300   24.7340 C   0  0  0  0  0  1  0  0  0  0  0  0
  -27.5160  -32.5160   25.7840 C   0  0  0  0  0  1  0  0  0  0  0  0
  -25.5780  -33.8740   24.1310 N   0  0  0  0  0  0  0  0  0  0  0  0
  -25.9160  -34.9390   23.3940 C   0  0  0  0  0  0  0  0  0  0  0  0
  -26.6020  -34.8520   22.3730 O   0  0  0  0  0  0  0  0  0  0  0  0
  -24.9700  -34.0180   24.9250 H   0  0  0  0  0  0  0  0  0  0  0  0
  -24.1860  -36.7370   23.0410 C   0  0  0  0  0  1  0  0  0  0  0  0
  -25.4180  -36.3230   23.8620 C   0  0  0  0  0  3  0  0  0  0  0  0
  -27.5320  -37.2220   24.7390 C   0  0  0  0  0  1  0  0  0  0  0  0
  -26.4460  -37.3840   23.7750 N   0  0  0  0  0  0  0  0  0  0  0  0
  -26.0280  -38.3010   23.9170 H   0  0  0  0  0  0  0  0  0  0  0  0
  -29.6860  -18.5120   19.5130 C   0  0  0  0  0  3  0  0  0  0  0  0
  -29.7930  -16.8880   20.2720 C   0  0  0  0  0  3  0  0  0  0  0  0
  -30.5120  -15.3460   19.8400 C   0  0  0  0  0  0  0  0  0  0  0  0
  -30.4410  -12.8950   18.9760 C   0  0  0  0  0  2  0  0  0  0  0  0
  -29.4620  -12.7440   17.7830 C   0  0  0  0  0  2  0  0  0  0  0  0
  -28.0260  -12.4960   18.2800 C   0  0  0  0  0  2  0  0  0  0  0  0
  -27.6470  -13.4470   19.4420 C   0  0  0  0  0  3  0  0  0  0  0  0
  -28.7480  -13.5490   20.5190 C   0  0  0  0  0  2  0  0  0  0  0  0
  -29.9670  -14.0300   19.8520 N   0  0  0  0  0  0  0  0  0  0  0  0
  -31.6900  -15.3460   19.4500 O   0  0  0  0  0  0  0  0  0  0  0  0
  -25.3220  -14.0240   20.3100 C   0  0  0  0  0  0  0  0  0  0  0  0
  -24.2700  -13.2520   20.7230 C   0  0  0  0  0  0  0  0  0  0  0  0
  -24.7230  -11.8990   20.6640 C   0  0  0  0  0  0  0  0  0  0  0  0
  -26.3420  -13.1400   20.0110 N   0  0  0  0  0  0  0  0  0  0  0  0
  -26.0000  -11.8560   20.2960 N   0  0  0  0  0  0  0  0  0  0  0  0
  -23.9960  -10.6410   20.8810 C   0  0  0  0  0  0  0  0  0  0  0  0
  -24.4440   -9.6770   21.8080 C   0  0  0  0  0  3  0  0  0  0  0  0
  -23.7130   -8.4870   22.0140 C   0  0  0  0  0  3  0  0  0  0  0  0
  -22.5190   -8.2540   21.2930 C   0  0  0  0  0  0  0  0  0  0  0  0
  -22.0900   -9.2060   20.3520 C   0  0  0  0  0  3  0  0  0  0  0  0
  -22.8220  -10.3860   20.1440 C   0  0  0  0  0  3  0  0  0  0  0  0
  -21.7570   -7.1160   21.4080 O   0  0  0  0  0  0  0  0  0  0  0  0
  -21.7210   -6.3890   22.5700 C   0  0  0  0  0  0  0  0  0  0  0  0
  -21.2890   -6.9550   23.7900 C   0  0  0  0  0  3  0  0  0  0  0  0
  -21.2020   -6.1540   24.9450 C   0  0  0  0  0  3  0  0  0  0  0  0
  -21.5350   -4.7880   24.8830 C   0  0  0  0  0  0  0  0  0  0  0  0
  -21.9580   -4.2210   23.6680 C   0  0  0  0  0  3  0  0  0  0  0  0
  -22.0490   -5.0200   22.5140 C   0  0  0  0  0  0  0  0  0  0  0  0
  -22.4380   -4.4640   21.3410 F   0  0  0  0  0  0  0  0  0  0  0  0
  -21.4440   -4.0150   25.9920 F   0  0  0  0  0  0  0  0  0  0  0  0
  -22.8910  -13.7400   21.0560 C   0  0  0  0  0  0  0  0  0  0  0  0
  -22.1950  -13.0470   21.9500 N   0  0  0  0  0  0  0  0  0  0  0  0
  -22.4420  -14.7710   20.5570 O   0  0  0  0  0  0  0  0  0  0  0  0
  -22.5770  -12.2140   22.3760 H   0  0  0  0  0  0  0  0  0  0  0  0
  -21.2710  -13.3570   22.2170 H   0  0  0  0  0  0  0  0  0  0  0  0
  -25.4930  -15.3930   20.1330 N   0  0  0  0  0  0  0  0  0  0  0  0
  -24.7410  -16.0590   20.2750 H   0  0  0  0  0  0  0  0  0  0  0  0
  -26.3310  -15.8170   19.7580 H   0  0  0  0  0  0  0  0  0  0  0  0
  1  2  1  0
  3  9  1  0
  3  1  1  0
  4  5  1  6
  4  7  1  0
  4  3  1  0
  6  4  1  0
  7  2  1  0
  7  8  1  1
  9 10  1  0
 11 22  2  0
 12 10  1  0
 12 17  1  0
 13 21  1  0
 13 23  1  0
 14 20  1  0
 14 16  1  0
 15 21  1  0
 16 15  1  0
 17 16  2  0
 18 12  2  0
 19 18  1  0
 19 14  2  0
 20 13  1  0
 21 11  1  0
 23 25  2  0
 24 23  1  0
 26 24  1  0
 27 36  2  0
 27 32  1  0
 28 24  1  0
 28 32  1  0
 29 28  1  0
 30 31  1  0
 30 29  1  0
 31 27  1  0
 32 33  2  0
 33 34  1  0
 35 34  2  0
 36 35  1  0
 37 11  1  0
 37 42  1  0
 37 38  1  0
 38 41  1  1
 38 39  1  0
 40 38  1  0
 42 45  1  0
 43 47  1  0
 43 42  1  0
 44 43  2  0
 47 46  1  0
 49 47  1  0
 49 50  1  0
 49 48  1  0
 51  7  1  0
 51 52  2  0
 53 59  1  0
 53 52  1  0
 54 59  1  0
 55 56  1  0
 55 54  1  0
 57 56  1  0
 57 64  1  0
 57 58  1  0
 59 58  1  0
 60 53  2  0
 61 62  2  0
 62 81  1  0
 63 62  1  0
 63 66  1  0
 64 65  1  0
 64 61  1  0
 65 63  2  0
 66 67  1  0
 67 68  2  0
 69 72  1  0
 69 68  1  0
 70 69  2  0
 71 70  1  0
 71 66  2  0
 72 73  1  0
 73 74  1  0
 74 75  2  0
 76 75  1  0
 76 80  1  0
 77 76  2  0
 78 73  2  0
 78 77  1  0
 79 78  1  0
 81 82  1  0
 82 85  1  0
 82 84  1  0
 83 81  2  0
 86 87  1  0
 86 61  1  0
 88 86  1  0
M  ISO  4   9 101  10 101  52 100  53 100
M  END
>  <TORSDO>  (26) 
F 19

>  <SCORE>  (26) 
-15.416

>  <name>  (26) 
25

>  <ligand_id>  (26) 
25

>  <original_smiles>  (26) 
[H]c1c([H])c([H])c2c(c1[H])C([H])([H])C([H])([H])C([H])([H])C2([H])N([H])C(=O)C1([H])N(C(=O)C([H])(N([H])C(=O)C([H])(N([H])C([H])([H])[H])C([H])([H])[H])C(C([H])([H])[H])(C([H])([H])[H])C([H])([H])[H])C([H])([H])c2c([H])c(OC([H])([H])C3([H])C([H])([H])C([H])([H])[N+]([H])(C([H])([H])C([H])([H])C(=O)N4C([H])([H])C([H])([H])C([H])([H])C([H])(n5nc(-c6c([H])c([H])c(Oc7c([H])c([H])c(F)c([H])c7F)c([H])c6[H])c(C(=O)N([H])[H])c5N([H])[H])C4([H])[H])C3(C([H])([H])[H])C([H])([H])[H])c([H])c([H])c2C1([H])[H]

>  <smiles>  (26) 
[H]c1c([H])c([H])c2c(c1[H])C([H])([H])C([H])([H])C([H])([H])C2([H])N([H])C(=O)C1([H])N(C(=O)C([H])(N([H])C(=O)C([H])(N([H])C([H])([H])[H])C([H])([H])[H])C(C([H])([H])[H])(C([H])([H])[H])C([H])([H])[H])C([H])([H])c2c([H])c(OC([H])([H])C3([H])C([H])([H])C([H])([H])[N+]([H])(C([H])([H])C([H])([H])C(=O)N4C([H])([H])C([H])([H])C([H])([H])C([H])(n5nc(-c6c([H])c([H])c(Oc7c([H])c([H])c(F)c([H])c7F)c([H])c6[H])c(C(=O)N([H])[H])c5N([H])[H])C4([H])[H])C3(C([H])([H])[H])C([H])([H])[H])c([H])c([H])c2C1([H])[H]

$$$$
26:0:0
     RDKit          3D

 98106  0  0  1  0  0  0  0  0999 V2000
  -27.8490  -21.1040   18.0170 C   0  0  0  0  0  3  0  0  0  0  0  0
  -27.7040  -19.8040   17.5030 C   0  0  0  0  0  3  0  0  0  0  0  0
  -29.6790  -20.3360   19.4290 C   0  0  0  0  0  3  0  0  0  0  0  0
  -29.5380  -19.0230   18.9300 C   0  0  0  0  0  0  0  0  0  0  0  0
  -28.8510  -21.3720   18.9670 C   0  0  0  0  0  0  0  0  0  0  0  0
  -28.5450  -18.7590   17.9400 C   0  0  0  0  0  0  0  0  0  0  0  0
  -29.8960  -23.5710   19.1150 C   0  0  0  0  0  0  0  0  0  0  0  0
  -28.9840  -22.6660   19.5020 N   0  0  0  0  0  0  0  0  0  0  0  0
  -30.7810  -23.3310   18.2890 O   0  0  0  0  0  0  0  0  0  0  0  0
  -28.2850  -22.9580   20.1720 H   0  0  0  0  0  0  0  0  0  0  0  0
  -29.8080  -24.9500   19.7670 C   0  0  0  0  0  2  0  0  0  0  0  0
  -28.4400  -25.6020   19.5240 C   0  0  0  0  0  2  0  0  0  0  0  0
  -28.4030  -26.8900   20.1230 O   0  0  0  0  0  0  0  0  0  0  0  0
  -24.5740  -31.9530   23.2890 C   0  0  0  0  0  0  0  0  0  0  0  0
  -27.1970  -27.5580   20.1380 C   0  0  0  0  0  0  0  0  0  0  0  0
  -23.3510  -30.5590   21.6530 C   0  0  0  0  0  3  0  0  0  0  0  0
  -24.7890  -29.0380   20.2050 C   0  0  0  0  0  0  0  0  0  0  0  0
  -25.8720  -30.9280   21.4290 C   0  0  0  0  0  2  0  0  0  0  0  0
  -25.9510  -29.5620   20.7820 C   0  0  0  0  0  0  0  0  0  0  0  0
  -27.1520  -28.8260   20.7560 C   0  0  0  0  0  3  0  0  0  0  0  0
  -26.0110  -27.0380   19.5630 C   0  0  0  0  0  3  0  0  0  0  0  0
  -24.8110  -27.7700   19.6000 C   0  0  0  0  0  3  0  0  0  0  0  0
  -23.5450  -29.8900   20.2670 C   0  0  0  0  0  2  0  0  0  0  0  0
  -24.6180  -31.1610   22.1810 N   0  0  0  0  0  0  0  0  0  0  0  0
  -23.4980  -32.2200   23.8420 O   0  0  0  0  0  0  0  0  0  0  0  0
  -22.7160  -29.5290   22.6120 C   0  0  0  0  0  0  0  0  0  0  0  0
  -21.3940  -29.3270   22.4800 N   0  0  0  0  0  0  0  0  0  0  0  0
  -23.4070  -28.9140   23.4280 O   0  0  0  0  0  0  0  0  0  0  0  0
  -20.8980  -29.8760   21.7940 H   0  0  0  0  0  0  0  0  0  0  0  0
  -18.0380  -28.0760   22.9540 C   0  0  0  0  0  0  0  0  0  0  0  0
  -20.5880  -28.3810   23.2520 C   0  0  0  0  0  3  0  0  0  0  0  0
  -20.7230  -26.9480   22.6880 C   0  0  0  0  0  2  0  0  0  0  0  0
  -19.6370  -26.5960   21.6650 C   0  0  0  0  0  2  0  0  0  0  0  0
  -18.2460  -26.7230   22.2940 C   0  0  0  0  0  2  0  0  0  0  0  0
  -19.1390  -28.8610   23.3900 C   0  0  0  0  0  0  0  0  0  0  0  0
  -18.8930  -30.1250   23.9660 C   0  0  0  0  0  3  0  0  0  0  0  0
  -17.5790  -30.6070   24.1130 C   0  0  0  0  0  3  0  0  0  0  0  0
  -16.4920  -29.8200   23.6940 C   0  0  0  0  0  3  0  0  0  0  0  0
  -16.7220  -28.5560   23.1220 C   0  0  0  0  0  3  0  0  0  0  0  0
  -25.8670  -32.5810   23.8970 C   0  0  0  0  0  3  0  0  0  0  0  0
  -25.5700  -33.9860   24.2090 N   0  0  0  0  0  0  0  0  0  0  0  0
  -25.9180  -35.0250   23.4390 C   0  0  0  0  0  0  0  0  0  0  0  0
  -26.5950  -34.9030   22.4140 O   0  0  0  0  0  0  0  0  0  0  0  0
  -24.9690  -34.1560   25.0020 H   0  0  0  0  0  0  0  0  0  0  0  0
  -24.2200  -36.8340   23.0340 C   0  0  0  0  0  1  0  0  0  0  0  0
  -25.4400  -36.4220   23.8730 C   0  0  0  0  0  3  0  0  0  0  0  0
  -27.5680  -37.2880   24.7380 C   0  0  0  0  0  1  0  0  0  0  0  0
  -26.4870  -37.4620   23.7700 N   0  0  0  0  0  0  0  0  0  0  0  0
  -26.0910  -38.3890   23.9010 H   0  0  0  0  0  0  0  0  0  0  0  0
  -26.3860  -31.8200   25.1780 C   0  0  1  0  0  0  0  0  0  0  0  0
  -25.2960  -31.5990   26.2530 C   0  0  0  0  0  1  0  0  0  0  0  0
  -26.9600  -30.4360   24.7960 C   0  0  0  0  0  1  0  0  0  0  0  0
  -27.5430  -32.6150   25.8270 C   0  0  0  0  0  1  0  0  0  0  0  0
  -30.4600  -17.9680   19.4700 C   0  0  0  0  0  0  0  0  0  0  0  0
  -30.4410  -17.8420   20.8040 N   0  0  0  0  0  0  0  0  0  0  0  0
  -31.1510  -17.2780   18.7190 O   0  0  0  0  0  0  0  0  0  0  0  0
  -29.8280  -18.4750   21.3000 H   0  0  0  0  0  0  0  0  0  0  0  0
  -31.1740  -16.8680   21.6120 C   0  0  0  0  0  2  0  0  0  0  0  0
  -30.4870  -15.4800   21.6510 C   0  0  0  0  0  2  0  0  0  0  0  0
  -30.9710  -14.4710   20.5910 C   0  0  0  0  0  0  0  0  0  0  0  0
  -30.5960  -12.4170   19.2710 C   0  0  0  0  0  2  0  0  0  0  0  0
  -29.6650  -12.6870   18.0740 C   0  0  0  0  0  2  0  0  0  0  0  0
  -28.1890  -12.5540   18.4920 C   0  0  0  0  0  2  0  0  0  0  0  0
  -27.8610  -13.3590   19.7770 C   0  0  0  0  0  3  0  0  0  0  0  0
  -28.9000  -13.0720   20.8840 C   0  0  0  0  0  2  0  0  0  0  0  0
  -30.2370  -13.3570   20.3420 N   0  0  0  0  0  0  0  0  0  0  0  0
  -32.0330  -14.6930   20.0020 O   0  0  0  0  0  0  0  0  0  0  0  0
  -25.4460  -13.9840   20.4230 C   0  0  0  0  0  0  0  0  0  0  0  0
  -24.3690  -13.2200   20.7860 C   0  0  0  0  0  0  0  0  0  0  0  0
  -24.8290  -11.8660   20.7830 C   0  0  0  0  0  0  0  0  0  0  0  0
  -26.4960  -13.0980   20.2310 N   0  0  0  0  0  0  0  0  0  0  0  0
  -26.1240  -11.8200   20.5000 N   0  0  0  0  0  0  0  0  0  0  0  0
  -24.0970  -10.6090   20.9790 C   0  0  0  0  0  0  0  0  0  0  0  0
  -24.5130   -9.6550   21.9330 C   0  0  0  0  0  3  0  0  0  0  0  0
  -23.7840   -8.4610   22.1170 C   0  0  0  0  0  3  0  0  0  0  0  0
  -22.6250   -8.2110   21.3430 C   0  0  0  0  0  0  0  0  0  0  0  0
  -22.2290   -9.1540   20.3780 C   0  0  0  0  0  3  0  0  0  0  0  0
  -22.9580  -10.3400   20.1940 C   0  0  0  0  0  3  0  0  0  0  0  0
  -21.8680   -7.0680   21.4340 O   0  0  0  0  0  0  0  0  0  0  0  0
  -21.7870   -6.3490   22.5990 C   0  0  0  0  0  0  0  0  0  0  0  0
  -21.3240   -6.9280   23.8020 C   0  0  0  0  0  3  0  0  0  0  0  0
  -21.1910   -6.1340   24.9580 C   0  0  0  0  0  3  0  0  0  0  0  0
  -21.5100   -4.7640   24.9140 C   0  0  0  0  0  0  0  0  0  0  0  0
  -21.9650   -4.1850   23.7170 C   0  0  0  0  0  3  0  0  0  0  0  0
  -22.0990   -4.9760   22.5620 C   0  0  0  0  0  0  0  0  0  0  0  0
  -22.5180   -4.4070   21.4050 F   0  0  0  0  0  0  0  0  0  0  0  0
  -21.3760   -3.9990   26.0240 F   0  0  0  0  0  0  0  0  0  0  0  0
  -22.9680  -13.7020   21.0260 C   0  0  0  0  0  0  0  0  0  0  0  0
  -22.2250  -13.0230   21.8930 N   0  0  0  0  0  0  0  0  0  0  0  0
  -22.5380  -14.7180   20.4790 O   0  0  0  0  0  0  0  0  0  0  0  0
  -22.5840  -12.2020   22.3560 H   0  0  0  0  0  0  0  0  0  0  0  0
  -21.2840  -13.3270   22.0960 H   0  0  0  0  0  0  0  0  0  0  0  0
  -25.6140  -15.3510   20.2220 N   0  0  0  0  0  0  0  0  0  0  0  0
  -24.8410  -16.0040   20.2870 H   0  0  0  0  0  0  0  0  0  0  0  0
  -26.4660  -15.7770   19.8750 H   0  0  0  0  0  0  0  0  0  0  0  0
  -28.3380  -17.4920   17.3900 N   0  0  0  0  0  0  0  0  0  0  0  0
  -27.8150  -17.4250   16.5220 H   0  0  0  0  0  0  0  0  0  0  0  0
  -29.1160  -16.8390   17.4230 H   0  0  0  0  0  0  0  0  0  0  0  0
  1  5  1  0
  2  6  1  0
  2  1  2  0
  4  3  1  0
  4 54  1  0
  5  3  2  0
  5  8  1  0
  6  4  2  0
  7  8  1  0
  7 11  1  0
  8 10  1  0
  9  7  2  0
 12 11  1  0
 12 13  1  0
 13 15  1  0
 14 25  2  0
 15 20  1  0
 16 24  1  0
 16 26  1  0
 17 23  1  0
 17 19  1  0
 18 24  1  0
 19 18  1  0
 20 19  2  0
 21 22  1  0
 21 15  2  0
 22 17  2  0
 23 16  1  0
 24 14  1  0
 26 28  2  0
 27 26  1  0
 29 27  1  0
 30 39  2  0
 30 35  1  0
 31 27  1  0
 31 35  1  0
 32 31  1  0
 33 34  1  0
 33 32  1  0
 34 30  1  0
 35 36  2  0
 36 37  1  0
 38 37  2  0
 39 38  1  0
 40 14  1  0
 40 41  1  0
 40 50  1  0
 41 44  1  0
 42 46  1  0
 42 41  1  0
 43 42  2  0
 46 45  1  0
 48 46  1  0
 48 49  1  0
 48 47  1  0
 50 53  1  1
 50 51  1  0
 52 50  1  0
 54 55  1  0
 55 57  1  0
 55 58  1  0
 56 54  2  0
 58 59  1  0
 60 59  1  0
 61 66  1  0
 62 63  1  0
 62 61  1  0
 64 63  1  0
 64 71  1  0
 64 65  1  0
 66 60  1  0
 66 65  1  0
 67 60  2  0
 68 69  2  0
 69 88  1  0
 70 69  1  0
 70 73  1  0
 71 68  1  0
 71 72  1  0
 72 70  2  0
 73 74  1  0
 74 75  2  0
 76 79  1  0
 76 75  1  0
 77 76  2  0
 78 77  1  0
 78 73  2  0
 79 80  1  0
 80 81  1  0
 81 82  2  0
 83 82  1  0
 83 87  1  0
 84 83  2  0
 85 80  2  0
 85 84  1  0
 86 85  1  0
 88 89  1  0
 89 92  1  0
 89 91  1  0
 90 88  2  0
 93 94  1  0
 93 68  1  0
 95 93  1  0
 96 98  1  0
 96  6  1  0
 97 96  1  0
M  ISO  4  12 101  13 101  59 100  60 100
M  END
>  <TORSDO>  (27) 
F 23

>  <SCORE>  (27) 
-12.869

>  <name>  (27) 
26

>  <ligand_id>  (27) 
26

>  <original_smiles>  (27) 
[H]c1c([H])c([H])c2c(c1[H])C([H])([H])C([H])([H])C([H])([H])C2([H])N([H])C(=O)C1([H])N(C(=O)C([H])(N([H])C(=O)C([H])(N([H])C([H])([H])[H])C([H])([H])[H])C(C([H])([H])[H])(C([H])([H])[H])C([H])([H])[H])C([H])([H])c2c([H])c(OC([H])([H])C([H])([H])C(=O)N([H])c3c([H])c([H])c(N([H])[H])c(C(=O)N([H])C([H])([H])C([H])([H])C(=O)N4C([H])([H])C([H])([H])C([H])([H])C([H])(n5nc(-c6c([H])c([H])c(Oc7c([H])c([H])c(F)c([H])c7F)c([H])c6[H])c(C(=O)N([H])[H])c5N([H])[H])C4([H])[H])c3[H])c([H])c([H])c2C1([H])[H]

>  <smiles>  (27) 
[H]c1c([H])c([H])c2c(c1[H])C([H])([H])C([H])([H])C([H])([H])C2([H])N([H])C(=O)C1([H])N(C(=O)C([H])(N([H])C(=O)C([H])(N([H])C([H])([H])[H])C([H])([H])[H])C(C([H])([H])[H])(C([H])([H])[H])C([H])([H])[H])C([H])([H])c2c([H])c(OC([H])([H])C([H])([H])C(=O)N([H])c3c([H])c([H])c(N([H])[H])c(C(=O)N([H])C([H])([H])C([H])([H])C(=O)N4C([H])([H])C([H])([H])C([H])([H])C([H])(n5nc(-c6c([H])c([H])c(Oc7c([H])c([H])c(F)c([H])c7F)c([H])c6[H])c(C(=O)N([H])[H])c5N([H])[H])C4([H])[H])c3[H])c([H])c([H])c2C1([H])[H]

$$$$
27:0:0
     RDKit          3D

 94103  0  0  1  0  0  0  0  0999 V2000
  -29.0800  -22.7320   19.6610 C   0  0  0  0  0  3  0  0  0  0  0  0
  -28.4760  -23.9400   19.9850 C   0  0  0  0  0  0  0  0  0  0  0  0
  -27.3850  -23.9560   21.0460 C   0  0  0  0  0  2  0  0  0  0  0  0
  -27.3590  -22.6550   21.8730 C   0  0  0  0  0  2  0  0  0  0  0  0
  -27.4840  -21.4010   20.9890 C   0  0  0  0  0  2  0  0  0  0  0  0
  -28.7050  -21.4440   20.1750 N   0  0  0  0  0  0  0  0  0  0  0  0
  -30.5810  -19.7490   20.3830 C   0  0  0  0  0  3  0  0  0  0  0  0
  -31.0210  -18.3820   20.4640 C   0  0  0  0  0  3  0  0  0  0  0  0
  -28.9090  -17.6380   19.6320 C   0  0  0  0  0  3  0  0  0  0  0  0
  -29.2610  -20.1090   19.9870 C   0  0  0  0  0  0  0  0  0  0  0  0
  -30.1880  -17.2720   20.1260 C   0  0  0  0  0  0  0  0  0  0  0  0
  -28.4570  -18.9950   19.5750 C   0  0  0  0  0  0  0  0  0  0  0  0
  -27.1860  -19.2120   19.1540 F   0  0  0  0  0  0  0  0  0  0  0  0
  -30.9710  -14.8550   19.6960 C   0  0  0  0  0  0  0  0  0  0  0  0
  -30.5650  -12.6440   18.5930 C   0  0  0  0  0  2  0  0  0  0  0  0
  -29.5000  -12.7870   17.4840 C   0  0  0  0  0  2  0  0  0  0  0  0
  -28.0860  -12.6230   18.0700 C   0  0  0  0  0  2  0  0  0  0  0  0
  -27.8710  -13.4730   19.3490 C   0  0  0  0  0  3  0  0  0  0  0  0
  -29.0420  -13.3150   20.3430 C   0  0  0  0  0  2  0  0  0  0  0  0
  -30.2840  -13.6610   19.6330 N   0  0  0  0  0  0  0  0  0  0  0  0
  -32.0150  -15.0010   19.0500 O   0  0  0  0  0  0  0  0  0  0  0  0
  -30.5030  -15.8730   20.5150 N   0  0  0  0  0  0  0  0  0  0  0  0
  -25.6290  -14.0850   20.4420 C   0  0  0  0  0  0  0  0  0  0  0  0
  -24.5760  -13.3220   20.8650 C   0  0  0  0  0  0  0  0  0  0  0  0
  -24.9500  -11.9650   20.6270 C   0  0  0  0  0  0  0  0  0  0  0  0
  -26.5820  -13.1930   19.9760 N   0  0  0  0  0  0  0  0  0  0  0  0
  -26.1860  -11.9050   20.1480 N   0  0  0  0  0  0  0  0  0  0  0  0
  -24.1790  -10.7240   20.7760 C   0  0  0  0  0  0  0  0  0  0  0  0
  -24.5890   -9.7010   21.6590 C   0  0  0  0  0  3  0  0  0  0  0  0
  -23.8210   -8.5260   21.7980 C   0  0  0  0  0  3  0  0  0  0  0  0
  -22.6290   -8.3640   21.0540 C   0  0  0  0  0  0  0  0  0  0  0  0
  -22.2380   -9.3760   20.1570 C   0  0  0  0  0  3  0  0  0  0  0  0
  -23.0050  -10.5430   20.0170 C   0  0  0  0  0  3  0  0  0  0  0  0
  -21.8330   -7.2460   21.1040 O   0  0  0  0  0  0  0  0  0  0  0  0
  -21.6600   -6.5390   22.2670 C   0  0  0  0  0  0  0  0  0  0  0  0
  -21.1540   -7.1440   23.4390 C   0  0  0  0  0  3  0  0  0  0  0  0
  -20.9240   -6.3660   24.5900 C   0  0  0  0  0  3  0  0  0  0  0  0
  -21.1930   -4.9840   24.5710 C   0  0  0  0  0  0  0  0  0  0  0  0
  -21.6910   -4.3780   23.4040 C   0  0  0  0  0  3  0  0  0  0  0  0
  -21.9210   -5.1540   22.2540 C   0  0  0  0  0  0  0  0  0  0  0  0
  -22.3820   -4.5630   21.1260 F   0  0  0  0  0  0  0  0  0  0  0  0
  -20.9660   -4.2330   25.6750 F   0  0  0  0  0  0  0  0  0  0  0  0
  -23.2540  -13.8290   21.3680 C   0  0  0  0  0  0  0  0  0  0  0  0
  -22.6170  -13.0910   22.2690 N   0  0  0  0  0  0  0  0  0  0  0  0
  -22.8010  -14.9110   20.9970 O   0  0  0  0  0  0  0  0  0  0  0  0
  -22.9920  -12.2080   22.5840 H   0  0  0  0  0  0  0  0  0  0  0  0
  -21.7330  -13.4080   22.6420 H   0  0  0  0  0  0  0  0  0  0  0  0
  -25.8440  -15.4590   20.3920 N   0  0  0  0  0  0  0  0  0  0  0  0
  -25.1260  -16.1220   20.6600 H   0  0  0  0  0  0  0  0  0  0  0  0
  -26.6490  -15.8960   19.9680 H   0  0  0  0  0  0  0  0  0  0  0  0
  -30.1400  -16.5870   22.9020 C   0  0  0  0  0  1  0  0  0  0  0  0
  -30.9390  -15.7130   21.9150 C   0  0  0  0  0  2  0  0  0  0  0  0
  -28.7070  -25.3330   19.2660 C   0  0  0  0  0  2  0  0  0  0  0  0
  -28.5220  -26.6210   19.9970 O   0  0  0  0  0  0  0  0  0  0  0  0
  -24.6690  -31.9170   23.0410 C   0  0  0  0  0  0  0  0  0  0  0  0
  -27.3610  -27.4170   19.9350 C   0  0  0  0  0  0  0  0  0  0  0  0
  -23.4790  -30.4880   21.4150 C   0  0  0  0  0  3  0  0  0  0  0  0
  -24.9490  -28.9720   19.9650 C   0  0  0  0  0  0  0  0  0  0  0  0
  -26.0060  -30.8680   21.1960 C   0  0  0  0  0  2  0  0  0  0  0  0
  -26.1110  -29.4920   20.5450 C   0  0  0  0  0  0  0  0  0  0  0  0
  -27.3150  -28.7230   20.5230 C   0  0  0  0  0  3  0  0  0  0  0  0
  -26.1680  -26.9470   19.3410 C   0  0  0  0  0  3  0  0  0  0  0  0
  -24.9790  -27.7060   19.3560 C   0  0  0  0  0  3  0  0  0  0  0  0
  -23.6900  -29.8140   20.0320 C   0  0  0  0  0  2  0  0  0  0  0  0
  -24.7370  -31.1100   21.9400 N   0  0  0  0  0  0  0  0  0  0  0  0
  -23.5860  -32.1650   23.5920 O   0  0  0  0  0  0  0  0  0  0  0  0
  -22.8560  -29.4550   22.3850 C   0  0  0  0  0  0  0  0  0  0  0  0
  -21.5360  -29.2340   22.2680 N   0  0  0  0  0  0  0  0  0  0  0  0
  -23.5600  -28.8560   23.2020 O   0  0  0  0  0  0  0  0  0  0  0  0
  -21.0260  -29.7700   21.5800 H   0  0  0  0  0  0  0  0  0  0  0  0
  -18.2070  -27.9150   22.7790 C   0  0  0  0  0  0  0  0  0  0  0  0
  -20.7530  -28.2730   23.0470 C   0  0  0  0  0  3  0  0  0  0  0  0
  -20.9090  -26.8410   22.4850 C   0  0  0  0  0  2  0  0  0  0  0  0
  -19.8210  -26.4680   21.4740 C   0  0  0  0  0  2  0  0  0  0  0  0
  -18.4350  -26.5670   22.1160 C   0  0  0  0  0  2  0  0  0  0  0  0
  -19.2950  -28.7230   23.2020 C   0  0  0  0  0  0  0  0  0  0  0  0
  -19.0270  -29.9820   23.7820 C   0  0  0  0  0  3  0  0  0  0  0  0
  -17.7040  -30.4340   23.9430 C   0  0  0  0  0  3  0  0  0  0  0  0
  -16.6300  -29.6240   23.5360 C   0  0  0  0  0  3  0  0  0  0  0  0
  -16.8820  -28.3660   22.9590 C   0  0  0  0  0  3  0  0  0  0  0  0
  -25.9440  -32.5830   23.6450 C   0  0  0  0  0  3  0  0  0  0  0  0
  -26.5340  -31.7890   24.8750 C   0  0  1  0  0  0  0  0  0  0  0  0
  -25.4840  -31.4440   25.9560 C   0  0  0  0  0  1  0  0  0  0  0  0
  -27.1840  -30.4660   24.4100 C   0  0  0  0  0  1  0  0  0  0  0  0
  -27.6540  -32.6190   25.5450 C   0  0  0  0  0  1  0  0  0  0  0  0
  -25.5850  -33.9520   24.0420 N   0  0  0  0  0  0  0  0  0  0  0  0
  -25.8360  -35.0480   23.3130 C   0  0  0  0  0  0  0  0  0  0  0  0
  -26.4650  -35.0140   22.2520 O   0  0  0  0  0  0  0  0  0  0  0  0
  -25.0210  -34.0490   24.8740 H   0  0  0  0  0  0  0  0  0  0  0  0
  -24.0150  -36.7700   23.1010 C   0  0  0  0  0  1  0  0  0  0  0  0
  -25.3060  -36.3930   23.8450 C   0  0  0  0  0  3  0  0  0  0  0  0
  -27.4320  -37.3450   24.6240 C   0  0  0  0  0  1  0  0  0  0  0  0
  -26.2850  -37.4980   23.7320 N   0  0  0  0  0  0  0  0  0  0  0  0
  -25.8440  -38.3900   23.9330 H   0  0  0  0  0  0  0  0  0  0  0  0
  1  2  2  0
  1  6  1  0
  2  3  1  0
  3  4  1  0
  5  4  1  0
  6  5  1  0
  7  8  1  0
  9 11  1  0
 10  6  1  0
 10  7  2  0
 11  8  2  0
 11 22  1  0
 12  9  2  0
 12 10  1  0
 13 12  1  0
 14 22  1  0
 15 20  1  0
 16 17  1  0
 16 15  1  0
 18 17  1  0
 18 26  1  0
 18 19  1  0
 20 14  1  0
 20 19  1  0
 21 14  2  0
 22 52  1  0
 23 24  2  0
 24 43  1  0
 25 28  1  0
 25 24  1  0
 26 27  1  0
 26 23  1  0
 27 25  2  0
 28 29  1  0
 29 30  2  0
 31 34  1  0
 31 30  1  0
 32 31  2  0
 33 32  1  0
 33 28  2  0
 34 35  1  0
 35 36  1  0
 36 37  2  0
 38 37  1  0
 38 42  1  0
 39 38  2  0
 40 35  2  0
 40 39  1  0
 41 40  1  0
 43 44  1  0
 44 46  1  0
 44 47  1  0
 45 43  2  0
 48 23  1  0
 48 49  1  0
 50 48  1  0
 52 51  1  0
 53  2  1  0
 53 54  1  0
 55 66  2  0
 56 54  1  0
 56 61  1  0
 57 65  1  0
 57 67  1  0
 58 64  1  0
 58 60  1  0
 59 65  1  0
 60 59  1  0
 61 60  2  0
 62 63  1  0
 62 56  2  0
 63 58  2  0
 64 57  1  0
 65 55  1  0
 67 69  2  0
 68 67  1  0
 70 68  1  0
 71 80  2  0
 71 76  1  0
 72 68  1  0
 72 76  1  0
 73 72  1  0
 74 75  1  0
 74 73  1  0
 75 71  1  0
 76 77  2  0
 77 78  1  0
 79 78  2  0
 80 79  1  0
 81 55  1  0
 81 86  1  0
 81 82  1  0
 82 85  1  1
 82 83  1  0
 84 82  1  0
 86 89  1  0
 87 91  1  0
 87 86  1  0
 88 87  2  0
 91 90  1  0
 93 91  1  0
 93 94  1  0
 93 92  1  0
M  ISO  4  14 100  22 100  53 101  54 101
M  END
>  <TORSDO>  (28) 
F 19

>  <SCORE>  (28) 
-11.934

>  <name>  (28) 
27

>  <ligand_id>  (28) 
27

>  <original_smiles>  (28) 
[H]C1=C(C([H])([H])Oc2c([H])c([H])c3c(c2[H])C([H])([H])N(C(=O)C([H])(N([H])C(=O)C([H])(N([H])C([H])([H])[H])C([H])([H])[H])C(C([H])([H])[H])(C([H])([H])[H])C([H])([H])[H])C([H])(C(=O)N([H])C2([H])c4c([H])c([H])c([H])c([H])c4C([H])([H])C([H])([H])C2([H])[H])C3([H])[H])C([H])([H])C([H])([H])C([H])([H])N1c1c([H])c([H])c(N(C(=O)N2C([H])([H])C([H])([H])C([H])([H])C([H])(n3nc(-c4c([H])c([H])c(Oc5c([H])c([H])c(F)c([H])c5F)c([H])c4[H])c(C(=O)N([H])[H])c3N([H])[H])C2([H])[H])C([H])([H])C([H])([H])[H])c([H])c1F

>  <smiles>  (28) 
[H]C1=C(C([H])([H])Oc2c([H])c([H])c3c(c2[H])C([H])([H])N(C(=O)C([H])(N([H])C(=O)C([H])(N([H])C([H])([H])[H])C([H])([H])[H])C(C([H])([H])[H])(C([H])([H])[H])C([H])([H])[H])C([H])(C(=O)N([H])C2([H])c4c([H])c([H])c([H])c([H])c4C([H])([H])C([H])([H])C2([H])[H])C3([H])[H])C([H])([H])C([H])([H])C([H])([H])N1c1c([H])c([H])c(N(C(=O)N2C([H])([H])C([H])([H])C([H])([H])C([H])(n3nc(-c4c([H])c([H])c(Oc5c([H])c([H])c(F)c([H])c5F)c([H])c4[H])c(C(=O)N([H])[H])c3N([H])[H])C2([H])[H])C([H])([H])C([H])([H])[H])c([H])c1F

$$$$
28:0:0
     RDKit          3D

 98107  0  0  1  0  0  0  0  0999 V2000
  -29.4940  -20.7510   21.3860 C   0  0  0  0  0  2  0  0  0  0  0  0
  -29.8660  -19.4820   19.2070 C   0  0  0  0  0  3  0  0  0  0  0  0
  -29.9150  -18.1760   21.2560 C   0  0  0  0  0  3  0  0  0  0  0  0
  -29.7870  -19.4430   20.6090 C   0  0  0  0  0  0  0  0  0  0  0  0
  -30.2360  -17.0630   19.0990 C   0  0  0  0  0  0  0  0  0  0  0  0
  -30.1150  -18.3240   18.4590 C   0  0  0  0  0  0  0  0  0  0  0  0
  -30.1330  -16.9700   20.5240 C   0  0  0  0  0  0  0  0  0  0  0  0
  -30.3940  -15.8170   18.2370 C   0  0  0  0  0  1  0  0  0  0  0  0
  -30.8940  -14.6180   21.0890 C   0  0  0  0  0  0  0  0  0  0  0  0
  -30.7740  -12.3120   20.2100 C   0  0  0  0  0  2  0  0  0  0  0  0
  -29.9760  -12.3150   18.8880 C   0  0  0  0  0  2  0  0  0  0  0  0
  -28.4540  -12.2680   19.1400 C   0  0  0  0  0  2  0  0  0  0  0  0
  -27.9690  -13.2160   20.2730 C   0  0  0  0  0  3  0  0  0  0  0  0
  -28.8940  -13.1310   21.5060 C   0  0  0  0  0  2  0  0  0  0  0  0
  -30.2690  -13.4050   21.0600 N   0  0  0  0  0  0  0  0  0  0  0  0
  -32.0950  -14.7480   20.8380 O   0  0  0  0  0  0  0  0  0  0  0  0
  -30.0780  -15.6970   21.2210 N   0  0  0  0  0  0  0  0  0  0  0  0
  -29.1820  -15.4810   21.6320 H   0  0  0  0  0  0  0  0  0  0  0  0
  -25.5190  -13.8640   20.7170 C   0  0  0  0  0  0  0  0  0  0  0  0
  -24.4100  -13.1120   20.9930 C   0  0  0  0  0  0  0  0  0  0  0  0
  -24.8550  -11.7550   21.0470 C   0  0  0  0  0  0  0  0  0  0  0  0
  -26.5720  -12.9670   20.6200 N   0  0  0  0  0  0  0  0  0  0  0  0
  -26.1700  -11.6960   20.8800 N   0  0  0  0  0  0  0  0  0  0  0  0
  -24.1000  -10.5050   21.1920 C   0  0  0  0  0  0  0  0  0  0  0  0
  -24.4420   -9.5450   22.1690 C   0  0  0  0  0  3  0  0  0  0  0  0
  -23.6900   -8.3570   22.3010 C   0  0  0  0  0  3  0  0  0  0  0  0
  -22.5800   -8.1230   21.4540 C   0  0  0  0  0  0  0  0  0  0  0  0
  -22.2570   -9.0730   20.4690 C   0  0  0  0  0  3  0  0  0  0  0  0
  -23.0100  -10.2500   20.3350 C   0  0  0  0  0  3  0  0  0  0  0  0
  -21.8060   -6.9880   21.4940 O   0  0  0  0  0  0  0  0  0  0  0  0
  -21.6680   -6.2510   22.6420 C   0  0  0  0  0  0  0  0  0  0  0  0
  -21.1530   -6.8130   23.8310 C   0  0  0  0  0  3  0  0  0  0  0  0
  -20.9630   -6.0020   24.9680 C   0  0  0  0  0  3  0  0  0  0  0  0
  -21.2770   -4.6300   24.9160 C   0  0  0  0  0  0  0  0  0  0  0  0
  -21.7840   -4.0680   23.7320 C   0  0  0  0  0  3  0  0  0  0  0  0
  -21.9760   -4.8770   22.5970 C   0  0  0  0  0  0  0  0  0  0  0  0
  -22.4460   -4.3260   21.4510 F   0  0  0  0  0  0  0  0  0  0  0  0
  -21.0870   -3.8500   26.0050 F   0  0  0  0  0  0  0  0  0  0  0  0
  -22.9960  -13.6080   21.1040 C   0  0  0  0  0  0  0  0  0  0  0  0
  -22.1760  -12.9490   21.9150 N   0  0  0  0  0  0  0  0  0  0  0  0
  -22.6240  -14.6150   20.5040 O   0  0  0  0  0  0  0  0  0  0  0  0
  -22.4870  -12.1340   22.4240 H   0  0  0  0  0  0  0  0  0  0  0  0
  -21.2230  -13.2640   22.0300 H   0  0  0  0  0  0  0  0  0  0  0  0
  -25.7170  -15.2270   20.5200 N   0  0  0  0  0  0  0  0  0  0  0  0
  -24.9490  -15.8890   20.5280 H   0  0  0  0  0  0  0  0  0  0  0  0
  -26.5990  -15.6490   20.2630 H   0  0  0  0  0  0  0  0  0  0  0  0
  -30.2050  -18.4640   17.0740 N   0  0  0  0  0  0  0  0  0  0  0  0
  -30.3570  -19.3860   16.6760 H   0  0  0  0  0  0  0  0  0  0  0  0
  -30.6370  -17.7240   16.5340 H   0  0  0  0  0  0  0  0  0  0  0  0
  -32.0410  -22.8420   19.6250 C   0  0  0  0  0  2  0  0  0  0  0  0
  -30.7070  -23.1030   18.9320 C   0  0  0  0  0  2  0  0  0  0  0  0
  -31.6990  -21.7780   20.6700 C   0  0  0  0  0  2  0  0  0  0  0  0
  -29.6680  -22.9720   20.0640 C   0  0  0  0  0  3  0  0  0  0  0  0
  -30.2740  -21.9950   21.0360 N   0  0  1  0  0  4  0  0  0  0  0  0
  -30.3010  -22.5040   21.9070 H   0  0  0  0  0  0  0  0  0  0  0  0
  -29.3880  -24.3900   20.6830 C   0  0  0  0  0  2  0  0  0  0  0  0
  -28.4130  -25.2820   19.8540 C   0  0  0  0  0  2  0  0  0  0  0  0
  -28.4490  -26.6940   20.1900 O   0  0  0  0  0  0  0  0  0  0  0  0
  -24.6000  -31.8910   23.2040 C   0  0  0  0  0  0  0  0  0  0  0  0
  -27.2790  -27.4430   20.1220 C   0  0  0  0  0  0  0  0  0  0  0  0
  -23.4110  -30.4920   21.5500 C   0  0  0  0  0  3  0  0  0  0  0  0
  -24.8800  -28.9720   20.1200 C   0  0  0  0  0  0  0  0  0  0  0  0
  -25.9400  -30.8550   21.3710 C   0  0  0  0  0  2  0  0  0  0  0  0
  -26.0340  -29.4860   20.7230 C   0  0  0  0  0  0  0  0  0  0  0  0
  -27.2320  -28.7280   20.7220 C   0  0  0  0  0  3  0  0  0  0  0  0
  -26.1050  -26.9690   19.4860 C   0  0  0  0  0  3  0  0  0  0  0  0
  -24.9120  -27.7150   19.4980 C   0  0  0  0  0  3  0  0  0  0  0  0
  -23.6320  -29.8260   20.1670 C   0  0  0  0  0  2  0  0  0  0  0  0
  -24.6690  -31.0950   22.1000 N   0  0  0  0  0  0  0  0  0  0  0  0
  -23.5150  -32.1560   23.7390 O   0  0  0  0  0  0  0  0  0  0  0  0
  -22.7600  -29.4630   22.5020 C   0  0  0  0  0  0  0  0  0  0  0  0
  -21.4340  -29.2830   22.3750 N   0  0  0  0  0  0  0  0  0  0  0  0
  -23.4440  -28.8290   23.3100 O   0  0  0  0  0  0  0  0  0  0  0  0
  -20.9440  -29.8460   21.6940 H   0  0  0  0  0  0  0  0  0  0  0  0
  -18.0570  -28.0990   22.8800 C   0  0  0  0  0  0  0  0  0  0  0  0
  -20.6180  -28.3390   23.1390 C   0  0  0  0  0  3  0  0  0  0  0  0
  -20.7090  -26.9160   22.5420 C   0  0  0  0  0  2  0  0  0  0  0  0
  -19.5990  -26.6140   21.5300 C   0  0  0  0  0  2  0  0  0  0  0  0
  -18.2210  -26.7580   22.1850 C   0  0  0  0  0  2  0  0  0  0  0  0
  -19.1830  -28.8480   23.3140 C   0  0  0  0  0  0  0  0  0  0  0  0
  -18.9750  -30.1060   23.9230 C   0  0  0  0  0  3  0  0  0  0  0  0
  -17.6750  -30.6130   24.1040 C   0  0  0  0  0  3  0  0  0  0  0  0
  -16.5640  -29.8590   23.6870 C   0  0  0  0  0  3  0  0  0  0  0  0
  -16.7550  -28.6050   23.0810 C   0  0  0  0  0  3  0  0  0  0  0  0
  -25.8800  -32.5270   23.8330 C   0  0  0  0  0  3  0  0  0  0  0  0
  -25.5620  -33.9220   24.1670 N   0  0  0  0  0  0  0  0  0  0  0  0
  -25.9050  -34.9790   23.4190 C   0  0  0  0  0  0  0  0  0  0  0  0
  -26.5920  -34.8840   22.3990 O   0  0  0  0  0  0  0  0  0  0  0  0
  -24.9530  -34.0700   24.9580 H   0  0  0  0  0  0  0  0  0  0  0  0
  -24.1870  -36.7750   23.0350 C   0  0  0  0  0  1  0  0  0  0  0  0
  -25.4060  -36.3640   23.8760 C   0  0  0  0  0  3  0  0  0  0  0  0
  -27.5160  -37.2410   24.7730 C   0  0  0  0  0  1  0  0  0  0  0  0
  -26.4420  -37.4170   23.8000 N   0  0  0  0  0  0  0  0  0  0  0  0
  -26.0320  -38.3370   23.9420 H   0  0  0  0  0  0  0  0  0  0  0  0
  -26.3970  -31.7520   25.1070 C   0  0  1  0  0  0  0  0  0  0  0  0
  -25.3020  -31.5050   26.1710 C   0  0  0  0  0  1  0  0  0  0  0  0
  -26.9880  -30.3800   24.7090 C   0  0  0  0  0  1  0  0  0  0  0  0
  -27.5420  -32.5490   25.7760 C   0  0  0  0  0  1  0  0  0  0  0  0
  2  4  1  0
  4  3  2  0
  4  1  1  0
  5  7  2  0
  6  5  1  0
  6  2  2  0
  7 17  1  0
  7  3  1  0
  8  5  1  0
  9 17  1  0
 10 15  1  0
 11 12  1  0
 11 10  1  0
 13 12  1  0
 13 22  1  0
 13 14  1  0
 15  9  1  0
 15 14  1  0
 16  9  2  0
 17 18  1  0
 19 20  2  0
 20 21  1  0
 20 39  1  0
 21 24  1  0
 22 19  1  0
 22 23  1  0
 23 21  2  0
 24 25  1  0
 25 26  2  0
 27 30  1  0
 27 26  1  0
 28 27  2  0
 29 28  1  0
 29 24  2  0
 30 31  1  0
 31 32  1  0
 32 33  2  0
 34 33  1  0
 34 38  1  0
 35 34  2  0
 36 31  2  0
 36 35  1  0
 37 36  1  0
 39 40  1  0
 40 43  1  0
 40 42  1  0
 41 39  2  0
 44 45  1  0
 44 19  1  0
 46 44  1  0
 47  6  1  0
 48 47  1  0
 49 47  1  0
 50 52  1  0
 51 50  1  0
 51 53  1  0
 52 54  1  0
 53 56  1  0
 53 54  1  0
 54  1  1  0
 54 55  1  1
 57 58  1  0
 57 56  1  0
 59 70  2  0
 60 58  1  0
 60 65  1  0
 61 69  1  0
 61 71  1  0
 62 68  1  0
 62 64  1  0
 63 69  1  0
 64 63  1  0
 65 64  2  0
 66 67  1  0
 66 60  2  0
 67 62  2  0
 68 61  1  0
 69 59  1  0
 71 73  2  0
 72 71  1  0
 74 72  1  0
 75 84  2  0
 75 80  1  0
 76 72  1  0
 76 80  1  0
 77 76  1  0
 78 79  1  0
 78 77  1  0
 79 75  1  0
 80 81  2  0
 81 82  1  0
 83 82  2  0
 84 83  1  0
 85 59  1  0
 85 86  1  0
 85 95  1  0
 86 89  1  0
 87 91  1  0
 87 86  1  0
 88 87  2  0
 91 90  1  0
 93 91  1  0
 93 94  1  0
 93 92  1  0
 95 98  1  1
 95 96  1  0
 97 95  1  0
M  ISO  4   9 100  17 100  57 101  58 101
M  END
>  <TORSDO>  (29) 
F 21

>  <SCORE>  (29) 
-13.146

>  <name>  (29) 
28

>  <ligand_id>  (29) 
28

>  <original_smiles>  (29) 
[H]c1c([H])c([H])c2c(c1[H])C([H])([H])C([H])([H])C([H])([H])C2([H])N([H])C(=O)C1([H])N(C(=O)C([H])(N([H])C(=O)C([H])(N([H])C([H])([H])[H])C([H])([H])[H])C(C([H])([H])[H])(C([H])([H])[H])C([H])([H])[H])C([H])([H])c2c([H])c(OC([H])([H])C([H])([H])C3([H])C([H])([H])C([H])([H])C([H])([H])[N+]3([H])C([H])([H])c3c([H])c(N([H])[H])c(C([H])([H])[H])c(N([H])C(=O)N4C([H])([H])C([H])([H])C([H])([H])C([H])(n5nc(-c6c([H])c([H])c(Oc7c([H])c([H])c(F)c([H])c7F)c([H])c6[H])c(C(=O)N([H])[H])c5N([H])[H])C4([H])[H])c3[H])c([H])c([H])c2C1([H])[H]

>  <smiles>  (29) 
[H]c1c([H])c([H])c2c(c1[H])C([H])([H])C([H])([H])C([H])([H])C2([H])N([H])C(=O)C1([H])N(C(=O)C([H])(N([H])C(=O)C([H])(N([H])C([H])([H])[H])C([H])([H])[H])C(C([H])([H])[H])(C([H])([H])[H])C([H])([H])[H])C([H])([H])c2c([H])c(OC([H])([H])C([H])([H])C3([H])C([H])([H])C([H])([H])C([H])([H])[N+]3([H])C([H])([H])c3c([H])c(N([H])[H])c(C([H])([H])[H])c(N([H])C(=O)N4C([H])([H])C([H])([H])C([H])([H])C([H])(n5nc(-c6c([H])c([H])c(Oc7c([H])c([H])c(F)c([H])c7F)c([H])c6[H])c(C(=O)N([H])[H])c5N([H])[H])C4([H])[H])c3[H])c([H])c([H])c2C1([H])[H]

$$$$
29:0:0
     RDKit          3D

 94102  0  0  1  0  0  0  0  0999 V2000
  -29.5770  -18.4470   20.5820 C   0  0  0  0  0  3  0  0  0  0  0  0
  -30.7770  -18.5070   18.0800 C   0  0  0  0  0  3  0  0  0  0  0  0
  -29.7220  -19.7450   19.9350 C   0  0  0  0  0  0  0  0  0  0  0  0
  -30.0330  -17.1910   20.0110 C   0  0  0  0  0  0  0  0  0  0  0  0
  -30.3710  -19.7220   18.6670 C   0  0  0  0  0  0  0  0  0  0  0  0
  -30.5980  -17.2680   18.7150 C   0  0  0  0  0  0  0  0  0  0  0  0
  -30.9350  -16.1540   18.0220 F   0  0  0  0  0  0  0  0  0  0  0  0
  -30.6150  -14.7200   20.4520 C   0  0  0  0  0  0  0  0  0  0  0  0
  -30.3980  -12.4560   19.4590 C   0  0  0  0  0  2  0  0  0  0  0  0
  -29.4930  -12.5620   18.2110 C   0  0  0  0  0  2  0  0  0  0  0  0
  -28.0120  -12.4110   18.6050 C   0  0  0  0  0  2  0  0  0  0  0  0
  -27.6190  -13.3000   19.8170 C   0  0  0  0  0  3  0  0  0  0  0  0
  -28.6500  -13.1910   20.9620 C   0  0  0  0  0  2  0  0  0  0  0  0
  -29.9700  -13.5070   20.4050 N   0  0  0  0  0  0  0  0  0  0  0  0
  -31.8160  -14.7910   20.1820 O   0  0  0  0  0  0  0  0  0  0  0  0
  -29.8570  -15.8610   20.6360 N   0  0  0  0  0  0  0  0  0  0  0  0
  -28.9640  -15.7090   21.0760 H   0  0  0  0  0  0  0  0  0  0  0  0
  -25.2100  -13.9050   20.4660 C   0  0  0  0  0  0  0  0  0  0  0  0
  -24.1340  -13.1400   20.8190 C   0  0  0  0  0  0  0  0  0  0  0  0
  -24.5960  -11.7870   20.8260 C   0  0  0  0  0  0  0  0  0  0  0  0
  -26.2600  -13.0220   20.2730 N   0  0  0  0  0  0  0  0  0  0  0  0
  -25.8950  -11.7450   20.5530 N   0  0  0  0  0  0  0  0  0  0  0  0
  -23.8640  -10.5290   21.0170 C   0  0  0  0  0  0  0  0  0  0  0  0
  -24.2750   -9.5720   21.9710 C   0  0  0  0  0  3  0  0  0  0  0  0
  -23.5430   -8.3780   22.1490 C   0  0  0  0  0  3  0  0  0  0  0  0
  -22.3850   -8.1330   21.3720 C   0  0  0  0  0  0  0  0  0  0  0  0
  -21.9940   -9.0770   20.4080 C   0  0  0  0  0  3  0  0  0  0  0  0
  -22.7270  -10.2630   20.2280 C   0  0  0  0  0  3  0  0  0  0  0  0
  -21.6260   -6.9910   21.4590 O   0  0  0  0  0  0  0  0  0  0  0  0
  -21.5560   -6.2600   22.6180 C   0  0  0  0  0  0  0  0  0  0  0  0
  -21.1180   -6.8290   23.8330 C   0  0  0  0  0  3  0  0  0  0  0  0
  -20.9940   -6.0240   24.9830 C   0  0  0  0  0  3  0  0  0  0  0  0
  -21.2990   -4.6520   24.9200 C   0  0  0  0  0  0  0  0  0  0  0  0
  -21.7310   -4.0810   23.7090 C   0  0  0  0  0  3  0  0  0  0  0  0
  -21.8560   -4.8830   22.5610 C   0  0  0  0  0  0  0  0  0  0  0  0
  -22.2520   -4.3250   21.3930 F   0  0  0  0  0  0  0  0  0  0  0  0
  -21.1730   -3.8760   26.0230 F   0  0  0  0  0  0  0  0  0  0  0  0
  -22.7290  -13.6220   21.0430 C   0  0  0  0  0  0  0  0  0  0  0  0
  -21.9750  -12.9440   21.9010 N   0  0  0  0  0  0  0  0  0  0  0  0
  -22.3090  -14.6380   20.4900 O   0  0  0  0  0  0  0  0  0  0  0  0
  -22.3280  -12.1260   22.3750 H   0  0  0  0  0  0  0  0  0  0  0  0
  -21.0310  -13.2510   22.0900 H   0  0  0  0  0  0  0  0  0  0  0  0
  -25.3800  -15.2730   20.2680 N   0  0  0  0  0  0  0  0  0  0  0  0
  -24.6080  -15.9260   20.3400 H   0  0  0  0  0  0  0  0  0  0  0  0
  -26.2310  -15.7030   19.9270 H   0  0  0  0  0  0  0  0  0  0  0  0
  -30.6390  -20.8740   17.9310 N   0  0  0  0  0  0  0  0  0  0  0  0
  -30.9150  -20.7990   16.9560 H   0  0  0  0  0  0  0  0  0  0  0  0
  -30.1350  -21.7240   18.1420 H   0  0  0  0  0  0  0  0  0  0  0  0
  -29.2170  -21.1030   20.6200 C   0  0  0  0  0  3  0  0  0  0  0  0
  -29.1360  -22.5100   19.8210 C   0  0  0  0  0  3  0  0  0  0  0  0
  -28.6650  -23.8680   20.5020 C   0  0  0  0  0  0  0  0  0  0  0  0
  -28.4400  -23.9090   21.7150 O   0  0  0  0  0  0  0  0  0  0  0  0
  -28.4970  -25.1700   19.5990 C   0  0  0  0  0  2  0  0  0  0  0  0
  -28.3890  -26.4980   20.2720 O   0  0  0  0  0  0  0  0  0  0  0  0
  -24.6080  -31.8870   23.2360 C   0  0  0  0  0  0  0  0  0  0  0  0
  -27.2480  -27.3210   20.1890 C   0  0  0  0  0  0  0  0  0  0  0  0
  -23.4130  -30.4790   21.5960 C   0  0  0  0  0  3  0  0  0  0  0  0
  -24.8730  -28.9320   20.1750 C   0  0  0  0  0  0  0  0  0  0  0  0
  -25.9530  -30.8040   21.4190 C   0  0  0  0  0  2  0  0  0  0  0  0
  -26.0380  -29.4250   20.7720 C   0  0  0  0  0  0  0  0  0  0  0  0
  -27.2230  -28.6290   20.7730 C   0  0  0  0  0  3  0  0  0  0  0  0
  -26.0520  -26.8800   19.5760 C   0  0  0  0  0  3  0  0  0  0  0  0
  -24.8840  -27.6660   19.5690 C   0  0  0  0  0  3  0  0  0  0  0  0
  -23.6310  -29.8000   20.2180 C   0  0  0  0  0  2  0  0  0  0  0  0
  -24.6770  -31.0760   22.1400 N   0  0  0  0  0  0  0  0  0  0  0  0
  -23.5230  -32.1610   23.7680 O   0  0  0  0  0  0  0  0  0  0  0  0
  -22.7550  -29.4620   22.5590 C   0  0  0  0  0  0  0  0  0  0  0  0
  -21.4290  -29.2800   22.4330 N   0  0  0  0  0  0  0  0  0  0  0  0
  -23.4360  -28.8390   23.3770 O   0  0  0  0  0  0  0  0  0  0  0  0
  -20.9400  -29.8330   21.7440 H   0  0  0  0  0  0  0  0  0  0  0  0
  -18.0560  -28.0770   22.9390 C   0  0  0  0  0  0  0  0  0  0  0  0
  -20.6140  -28.3420   23.2060 C   0  0  0  0  0  3  0  0  0  0  0  0
  -20.7180  -26.9100   22.6300 C   0  0  0  0  0  2  0  0  0  0  0  0
  -19.6150  -26.5850   21.6190 C   0  0  0  0  0  2  0  0  0  0  0  0
  -18.2340  -26.7280   22.2640 C   0  0  0  0  0  2  0  0  0  0  0  0
  -19.1730  -28.8420   23.3670 C   0  0  0  0  0  0  0  0  0  0  0  0
  -18.9530  -30.1040   23.9600 C   0  0  0  0  0  3  0  0  0  0  0  0
  -17.6480  -30.6030   24.1280 C   0  0  0  0  0  3  0  0  0  0  0  0
  -16.5440  -29.8360   23.7160 C   0  0  0  0  0  3  0  0  0  0  0  0
  -16.7490  -28.5740   23.1290 C   0  0  0  0  0  3  0  0  0  0  0  0
  -25.8870  -32.5270   23.8580 C   0  0  0  0  0  3  0  0  0  0  0  0
  -25.5710  -33.9260   24.1840 N   0  0  0  0  0  0  0  0  0  0  0  0
  -25.9020  -34.9800   23.4250 C   0  0  0  0  0  0  0  0  0  0  0  0
  -26.5750  -34.8770   22.3960 O   0  0  0  0  0  0  0  0  0  0  0  0
  -24.9740  -34.0800   24.9820 H   0  0  0  0  0  0  0  0  0  0  0  0
  -24.1710  -36.7680   23.0610 C   0  0  0  0  0  1  0  0  0  0  0  0
  -25.4090  -36.3670   23.8790 C   0  0  0  0  0  3  0  0  0  0  0  0
  -27.5360  -37.2590   24.7190 C   0  0  0  0  0  1  0  0  0  0  0  0
  -26.4400  -37.4220   23.7690 N   0  0  0  0  0  0  0  0  0  0  0  0
  -26.0300  -38.3420   23.9130 H   0  0  0  0  0  0  0  0  0  0  0  0
  -26.4040  -31.7640   25.1390 C   0  0  1  0  0  0  0  0  0  0  0  0
  -25.3090  -31.5300   26.2060 C   0  0  0  0  0  1  0  0  0  0  0  0
  -26.9920  -30.3870   24.7570 C   0  0  0  0  0  1  0  0  0  0  0  0
  -27.5510  -32.5660   25.7990 C   0  0  0  0  0  1  0  0  0  0  0  0
  2  5  2  0
  2  6  1  0
  3  1  2  0
  3 49  1  0
  4  1  1  0
  4 16  1  0
  5  3  1  0
  6  4  2  0
  7  6  1  0
  8 16  1  0
  9 14  1  0
 10 11  1  0
 10  9  1  0
 12 11  1  0
 12 21  1  0
 12 13  1  0
 14  8  1  0
 14 13  1  0
 15  8  2  0
 16 17  1  0
 18 19  2  0
 19 20  1  0
 19 38  1  0
 20 23  1  0
 21 18  1  0
 21 22  1  0
 22 20  2  0
 23 24  1  0
 24 25  2  0
 26 29  1  0
 26 25  1  0
 27 26  2  0
 28 27  1  0
 28 23  2  0
 29 30  1  0
 30 31  1  0
 31 32  2  0
 33 32  1  0
 33 37  1  0
 34 33  2  0
 35 30  2  0
 35 34  1  0
 36 35  1  0
 38 39  1  0
 39 42  1  0
 39 41  1  0
 40 38  2  0
 43 44  1  0
 43 18  1  0
 45 43  1  0
 46 48  1  0
 46  5  1  0
 47 46  1  0
 50 51  1  0
 50 49  2  0
 51 52  2  0
 53 54  1  0
 53 51  1  0
 55 66  2  0
 56 54  1  0
 56 61  1  0
 57 65  1  0
 57 67  1  0
 58 64  1  0
 58 60  1  0
 59 65  1  0
 60 61  2  0
 60 59  1  0
 62 56  2  0
 63 62  1  0
 63 58  2  0
 64 57  1  0
 65 55  1  0
 67 69  2  0
 68 67  1  0
 70 68  1  0
 71 80  2  0
 71 76  1  0
 72 68  1  0
 72 76  1  0
 73 72  1  0
 74 75  1  0
 74 73  1  0
 75 71  1  0
 76 77  2  0
 77 78  1  0
 79 78  2  0
 80 79  1  0
 81 55  1  0
 81 82  1  0
 81 91  1  0
 82 85  1  0
 83 87  1  0
 83 82  1  0
 84 83  2  0
 87 86  1  0
 89 87  1  0
 89 90  1  0
 89 88  1  0
 91 94  1  1
 91 92  1  0
 93 91  1  0
M  ISO  4   8 100  16 100  53 101  54 101
M  END
>  <TORSDO>  (30) 
F 21

>  <SCORE>  (30) 
-13.624

>  <name>  (30) 
29

>  <ligand_id>  (30) 
29

>  <original_smiles>  (30) 
[H]c1c([H])c([H])c2c(c1[H])C([H])([H])C([H])([H])C([H])([H])C2([H])N([H])C(=O)C1([H])N(C(=O)C([H])(N([H])C(=O)C([H])(N([H])C([H])([H])[H])C([H])([H])[H])C(C([H])([H])[H])(C([H])([H])[H])C([H])([H])[H])C([H])([H])c2c([H])c(OC([H])([H])C(=O)C([H])([H])C([H])([H])c3c([H])c(N([H])C(=O)N4C([H])([H])C([H])([H])C([H])([H])C([H])(n5nc(-c6c([H])c([H])c(Oc7c([H])c([H])c(F)c([H])c7F)c([H])c6[H])c(C(=O)N([H])[H])c5N([H])[H])C4([H])[H])c(F)c([H])c3N([H])[H])c([H])c([H])c2C1([H])[H]

>  <smiles>  (30) 
[H]c1c([H])c([H])c2c(c1[H])C([H])([H])C([H])([H])C([H])([H])C2([H])N([H])C(=O)C1([H])N(C(=O)C([H])(N([H])C(=O)C([H])(N([H])C([H])([H])[H])C([H])([H])[H])C(C([H])([H])[H])(C([H])([H])[H])C([H])([H])[H])C([H])([H])c2c([H])c(OC([H])([H])C(=O)C([H])([H])C([H])([H])c3c([H])c(N([H])C(=O)N4C([H])([H])C([H])([H])C([H])([H])C([H])(n5nc(-c6c([H])c([H])c(Oc7c([H])c([H])c(F)c([H])c7F)c([H])c6[H])c(C(=O)N([H])[H])c5N([H])[H])C4([H])[H])c(F)c([H])c3N([H])[H])c([H])c([H])c2C1([H])[H]

$$$$
30:0:0
     RDKit          3D

 93101  0  0  1  0  0  0  0  0999 V2000
  -29.0830  -18.8910   21.5990 C   0  0  0  0  0  3  0  0  0  0  0  0
  -29.0120  -20.2860   21.3720 C   0  0  0  0  0  3  0  0  0  0  0  0
  -29.9570  -18.5660   19.3620 C   0  0  0  0  0  3  0  0  0  0  0  0
  -29.5540  -18.0060   20.6020 C   0  0  0  0  0  0  0  0  0  0  0  0
  -29.8960  -19.9650   19.1380 C   0  0  0  0  0  0  0  0  0  0  0  0
  -29.4060  -20.8460   20.1330 C   0  0  0  0  0  0  0  0  0  0  0  0
  -30.3150  -20.4910   17.9180 N   0  0  0  0  0  0  0  0  0  0  0  0
  -30.0590  -21.4570   17.7380 H   0  0  0  0  0  0  0  0  0  0  0  0
  -30.2480  -19.9020   17.0940 H   0  0  0  0  0  0  0  0  0  0  0  0
  -29.6030  -16.4900   20.9000 C   0  0  0  0  0  2  0  0  0  0  0  0
  -30.9970  -14.5720   20.0210 C   0  0  0  0  0  0  0  0  0  0  0  0
  -30.6480  -12.3490   19.0340 C   0  0  0  0  0  2  0  0  0  0  0  0
  -29.6620  -12.4910   17.8570 C   0  0  0  0  0  2  0  0  0  0  0  0
  -28.2070  -12.3720   18.3540 C   0  0  0  0  0  2  0  0  0  0  0  0
  -27.9160  -13.2700   19.5890 C   0  0  0  0  0  3  0  0  0  0  0  0
  -29.0230  -13.1340   20.6600 C   0  0  0  0  0  2  0  0  0  0  0  0
  -30.3080  -13.4000   20.0050 N   0  0  0  0  0  0  0  0  0  0  0  0
  -32.1670  -14.6580   19.6500 O   0  0  0  0  0  0  0  0  0  0  0  0
  -30.2520  -15.6830   19.8630 N   0  0  0  0  0  0  0  0  0  0  0  0
  -30.7250  -16.2960   19.2190 H   0  0  0  0  0  0  0  0  0  0  0  0
  -25.5830  -13.9060   20.4580 C   0  0  0  0  0  0  0  0  0  0  0  0
  -24.5170  -13.1470   20.8620 C   0  0  0  0  0  0  0  0  0  0  0  0
  -24.9420  -11.7870   20.7640 C   0  0  0  0  0  0  0  0  0  0  0  0
  -26.5890  -13.0090   20.1400 N   0  0  0  0  0  0  0  0  0  0  0  0
  -26.2120  -11.7270   20.3840 N   0  0  0  0  0  0  0  0  0  0  0  0
  -24.1950  -10.5370   20.9530 C   0  0  0  0  0  0  0  0  0  0  0  0
  -24.6080   -9.5650   21.8920 C   0  0  0  0  0  3  0  0  0  0  0  0
  -23.8630   -8.3800   22.0700 C   0  0  0  0  0  3  0  0  0  0  0  0
  -22.6910   -8.1570   21.3080 C   0  0  0  0  0  0  0  0  0  0  0  0
  -22.2970   -9.1170   20.3590 C   0  0  0  0  0  3  0  0  0  0  0  0
  -23.0420  -10.2940   20.1800 C   0  0  0  0  0  3  0  0  0  0  0  0
  -21.9180   -7.0240   21.3960 O   0  0  0  0  0  0  0  0  0  0  0  0
  -21.7990   -6.3220   22.5690 C   0  0  0  0  0  0  0  0  0  0  0  0
  -21.2800   -6.9130   23.7410 C   0  0  0  0  0  3  0  0  0  0  0  0
  -21.1090   -6.1380   24.9040 C   0  0  0  0  0  3  0  0  0  0  0  0
  -21.4480   -4.7710   24.8960 C   0  0  0  0  0  0  0  0  0  0  0  0
  -21.9620   -4.1800   23.7290 C   0  0  0  0  0  3  0  0  0  0  0  0
  -22.1340   -4.9530   22.5670 C   0  0  0  0  0  0  0  0  0  0  0  0
  -22.6090   -4.3740   21.4390 F   0  0  0  0  0  0  0  0  0  0  0  0
  -21.2770   -4.0230   26.0110 F   0  0  0  0  0  0  0  0  0  0  0  0
  -23.1490  -13.6490   21.2230 C   0  0  0  0  0  0  0  0  0  0  0  0
  -22.4540  -12.9480   22.1110 N   0  0  0  0  0  0  0  0  0  0  0  0
  -22.7080  -14.6970   20.7540 O   0  0  0  0  0  0  0  0  0  0  0  0
  -22.8240  -12.1000   22.5140 H   0  0  0  0  0  0  0  0  0  0  0  0
  -21.5360  -13.2640   22.3930 H   0  0  0  0  0  0  0  0  0  0  0  0
  -25.7710  -15.2770   20.3130 N   0  0  0  0  0  0  0  0  0  0  0  0
  -25.0250  -15.9450   20.4770 H   0  0  0  0  0  0  0  0  0  0  0  0
  -26.6060  -15.7040   19.9320 H   0  0  0  0  0  0  0  0  0  0  0  0
  -29.3860  -22.2130   19.8810 O   0  0  0  0  0  0  0  0  0  0  0  0
  -28.1770  -22.9300   20.1800 C   0  0  0  0  0  2  0  0  0  0  0  0
  -28.3920  -24.4300   20.5370 C   0  0  0  0  0  2  0  0  0  0  0  0
  -28.7550  -25.3880   19.3730 C   0  0  0  0  0  2  0  0  0  0  0  0
  -28.6770  -26.7820   19.7500 O   0  0  0  0  0  0  0  0  0  0  0  0
  -24.7180  -31.6640   23.1190 C   0  0  0  0  0  0  0  0  0  0  0  0
  -27.4590  -27.4440   19.7910 C   0  0  0  0  0  0  0  0  0  0  0  0
  -23.5330  -30.3020   21.4290 C   0  0  0  0  0  3  0  0  0  0  0  0
  -25.0140  -28.8820   19.9140 C   0  0  0  0  0  0  0  0  0  0  0  0
  -26.0460  -30.7490   21.2140 C   0  0  0  0  0  2  0  0  0  0  0  0
  -26.1650  -29.4140   20.5060 C   0  0  0  0  0  0  0  0  0  0  0  0
  -27.3870  -28.7040   20.4370 C   0  0  0  0  0  3  0  0  0  0  0  0
  -26.2810  -26.9290   19.2030 C   0  0  0  0  0  3  0  0  0  0  0  0
  -25.0680  -27.6400   19.2600 C   0  0  0  0  0  3  0  0  0  0  0  0
  -23.7450  -29.6990   20.0160 C   0  0  0  0  0  2  0  0  0  0  0  0
  -24.7840  -30.9180   21.9800 N   0  0  0  0  0  0  0  0  0  0  0  0
  -23.6360  -31.8740   23.6840 O   0  0  0  0  0  0  0  0  0  0  0  0
  -22.9320  -29.2140   22.3470 C   0  0  0  0  0  0  0  0  0  0  0  0
  -21.6140  -28.9870   22.2220 N   0  0  0  0  0  0  0  0  0  0  0  0
  -23.6470  -28.5780   23.1270 O   0  0  0  0  0  0  0  0  0  0  0  0
  -21.0960  -29.5550   21.5660 H   0  0  0  0  0  0  0  0  0  0  0  0
  -18.2890  -27.6560   22.7000 C   0  0  0  0  0  0  0  0  0  0  0  0
  -20.8410  -27.9860   22.9560 C   0  0  0  0  0  3  0  0  0  0  0  0
  -20.9840  -26.5900   22.3050 C   0  0  0  0  0  2  0  0  0  0  0  0
  -19.8790  -26.2810   21.2910 C   0  0  0  0  0  2  0  0  0  0  0  0
  -18.5010  -26.3470   21.9580 C   0  0  0  0  0  2  0  0  0  0  0  0
  -19.3880  -28.4320   23.1560 C   0  0  0  0  0  0  0  0  0  0  0  0
  -19.1370  -29.6580   23.8100 C   0  0  0  0  0  3  0  0  0  0  0  0
  -17.8180  -30.1070   24.0170 C   0  0  0  0  0  3  0  0  0  0  0  0
  -16.7340  -29.3260   23.5800 C   0  0  0  0  0  3  0  0  0  0  0  0
  -16.9710  -28.1030   22.9270 C   0  0  0  0  0  3  0  0  0  0  0  0
  -25.9910  -32.3070   23.7510 C   0  0  0  0  0  3  0  0  0  0  0  0
  -25.6550  -33.6920   24.1070 N   0  0  0  0  0  0  0  0  0  0  0  0
  -25.9620  -34.7650   23.3660 C   0  0  0  0  0  0  0  0  0  0  0  0
  -26.6310  -34.6940   22.3310 O   0  0  0  0  0  0  0  0  0  0  0  0
  -25.0620  -33.8200   24.9140 H   0  0  0  0  0  0  0  0  0  0  0  0
  -24.1970  -36.5270   23.0480 C   0  0  0  0  0  1  0  0  0  0  0  0
  -25.4470  -36.1330   23.8510 C   0  0  0  0  0  3  0  0  0  0  0  0
  -27.5580  -37.0510   24.7040 C   0  0  0  0  0  1  0  0  0  0  0  0
  -26.4570  -37.2090   23.7580 N   0  0  0  0  0  0  0  0  0  0  0  0
  -26.0310  -38.1190   23.9140 H   0  0  0  0  0  0  0  0  0  0  0  0
  -26.5260  -31.5200   25.0100 C   0  0  1  0  0  0  0  0  0  0  0  0
  -25.4400  -31.2350   26.0720 C   0  0  0  0  0  1  0  0  0  0  0  0
  -27.1400  -30.1650   24.5870 C   0  0  0  0  0  1  0  0  0  0  0  0
  -27.6570  -32.3270   25.6900 C   0  0  0  0  0  1  0  0  0  0  0  0
  2  1  1  0
  3  4  1  0
  4 10  1  0
  4  1  2  0
  5  3  2  0
  5  6  1  0
  6  2  2  0
  7  5  1  0
  8  7  1  0
  9  7  1  0
 12 17  1  0
 13 14  1  0
 13 12  1  0
 15 14  1  0
 15 24  1  0
 15 16  1  0
 17 11  1  0
 17 16  1  0
 18 11  2  0
 19 11  1  0
 19 10  1  0
 20 19  1  0
 21 22  2  0
 22 41  1  0
 23 22  1  0
 23 26  1  0
 24 25  1  0
 24 21  1  0
 25 23  2  0
 26 27  1  0
 27 28  2  0
 29 32  1  0
 29 28  1  0
 30 29  2  0
 31 30  1  0
 31 26  2  0
 32 33  1  0
 33 34  1  0
 34 35  2  0
 36 35  1  0
 36 40  1  0
 37 36  2  0
 38 33  2  0
 38 37  1  0
 39 38  1  0
 41 42  1  0
 42 45  1  0
 42 44  1  0
 43 41  2  0
 46 21  1  0
 46 47  1  0
 48 46  1  0
 49  6  1  0
 49 50  1  0
 50 51  1  0
 52 53  1  0
 52 51  1  0
 53 55  1  0
 54 65  2  0
 55 60  1  0
 56 64  1  0
 56 66  1  0
 57 63  1  0
 57 59  1  0
 58 64  1  0
 59 58  1  0
 60 59  2  0
 61 62  1  0
 61 55  2  0
 62 57  2  0
 63 56  1  0
 64 54  1  0
 66 68  2  0
 67 66  1  0
 69 67  1  0
 70 79  2  0
 70 75  1  0
 71 67  1  0
 71 75  1  0
 72 71  1  0
 73 74  1  0
 73 72  1  0
 74 70  1  0
 75 76  2  0
 76 77  1  0
 78 77  2  0
 79 78  1  0
 80 54  1  0
 80 81  1  0
 80 90  1  0
 81 84  1  0
 82 86  1  0
 82 81  1  0
 83 82  2  0
 86 85  1  0
 88 86  1  0
 88 89  1  0
 88 87  1  0
 90 93  1  1
 90 91  1  0
 92 90  1  0
M  ISO  4  11 100  19 100  52 101  53 101
M  END
>  <TORSDO>  (31) 
F 22

>  <SCORE>  (31) 
-11.601

>  <name>  (31) 
30

>  <ligand_id>  (31) 
30

>  <original_smiles>  (31) 
[H]c1c([H])c([H])c2c(c1[H])C([H])([H])C([H])([H])C([H])([H])C2([H])N([H])C(=O)C1([H])N(C(=O)C([H])(N([H])C(=O)C([H])(N([H])C([H])([H])[H])C([H])([H])[H])C(C([H])([H])[H])(C([H])([H])[H])C([H])([H])[H])C([H])([H])c2c([H])c(OC([H])([H])C([H])([H])C([H])([H])Oc3c([H])c([H])c(C([H])([H])N([H])C(=O)N4C([H])([H])C([H])([H])C([H])([H])C([H])(n5nc(-c6c([H])c([H])c(Oc7c([H])c([H])c(F)c([H])c7F)c([H])c6[H])c(C(=O)N([H])[H])c5N([H])[H])C4([H])[H])c([H])c3N([H])[H])c([H])c([H])c2C1([H])[H]

>  <smiles>  (31) 
[H]c1c([H])c([H])c2c(c1[H])C([H])([H])C([H])([H])C([H])([H])C2([H])N([H])C(=O)C1([H])N(C(=O)C([H])(N([H])C(=O)C([H])(N([H])C([H])([H])[H])C([H])([H])[H])C(C([H])([H])[H])(C([H])([H])[H])C([H])([H])[H])C([H])([H])c2c([H])c(OC([H])([H])C([H])([H])C([H])([H])Oc3c([H])c([H])c(C([H])([H])N([H])C(=O)N4C([H])([H])C([H])([H])C([H])([H])C([H])(n5nc(-c6c([H])c([H])c(Oc7c([H])c([H])c(F)c([H])c7F)c([H])c6[H])c(C(=O)N([H])[H])c5N([H])[H])C4([H])[H])c([H])c3N([H])[H])c([H])c([H])c2C1([H])[H]

$$$$
31:0:0
     RDKit          3D

 97106  0  0  1  0  0  0  0  0999 V2000
  -27.6460  -23.8690   21.3130 C   0  0  0  0  0  3  0  0  0  0  0  0
  -28.6410  -24.6780   20.9160 C   0  0  0  0  0  0  0  0  0  0  0  0
  -27.6880  -22.3410   21.2730 C   0  0  0  0  0  2  0  0  0  0  0  0
  -29.9100  -24.0540   20.3680 C   0  0  0  0  0  2  0  0  0  0  0  0
  -30.1550  -22.6290   20.9300 C   0  0  0  0  0  2  0  0  0  0  0  0
  -28.9800  -21.7110   20.8370 N   0  0  1  0  0  4  0  0  0  0  0  0
  -28.8660  -21.4980   19.8570 H   0  0  0  0  0  0  0  0  0  0  0  0
  -29.1670  -20.3950   21.5400 C   0  0  0  0  0  2  0  0  0  0  0  0
  -31.5470  -19.7030   20.8850 C   0  0  0  0  0  3  0  0  0  0  0  0
  -29.7870  -18.0260   20.7320 C   0  0  0  0  0  3  0  0  0  0  0  0
  -32.0940  -17.4130   20.2440 C   0  0  0  0  0  3  0  0  0  0  0  0
  -30.1770  -19.3710   20.9860 C   0  0  0  0  0  0  0  0  0  0  0  0
  -32.4950  -18.7400   20.4970 C   0  0  0  0  0  0  0  0  0  0  0  0
  -30.7370  -17.0310   20.3740 C   0  0  0  0  0  0  0  0  0  0  0  0
  -31.0160  -14.5950   19.7950 C   0  0  0  0  0  0  0  0  0  0  0  0
  -30.7240  -12.2870   18.9620 C   0  0  0  0  0  2  0  0  0  0  0  0
  -29.7350  -12.2870   17.7780 C   0  0  0  0  0  2  0  0  0  0  0  0
  -28.2820  -12.1820   18.2800 C   0  0  0  0  0  2  0  0  0  0  0  0
  -27.9660  -13.1910   19.4170 C   0  0  0  0  0  3  0  0  0  0  0  0
  -29.0640  -13.1580   20.5050 C   0  0  0  0  0  2  0  0  0  0  0  0
  -30.3570  -13.4040   19.8460 N   0  0  0  0  0  0  0  0  0  0  0  0
  -32.1110  -14.7170   19.2410 O   0  0  0  0  0  0  0  0  0  0  0  0
  -30.3170  -15.6640   20.2430 N   0  0  0  0  0  0  0  0  0  0  0  0
  -29.3660  -15.4620   20.5130 H   0  0  0  0  0  0  0  0  0  0  0  0
  -25.6520  -13.8860   20.2990 C   0  0  0  0  0  0  0  0  0  0  0  0
  -24.5760  -13.1530   20.7250 C   0  0  0  0  0  0  0  0  0  0  0  0
  -24.9730  -11.7830   20.6330 C   0  0  0  0  0  0  0  0  0  0  0  0
  -26.6380  -12.9650   19.9810 N   0  0  0  0  0  0  0  0  0  0  0  0
  -26.2360  -11.6940   20.2380 N   0  0  0  0  0  0  0  0  0  0  0  0
  -24.2050  -10.5490   20.8450 C   0  0  0  0  0  0  0  0  0  0  0  0
  -24.5960   -9.5910   21.8060 C   0  0  0  0  0  3  0  0  0  0  0  0
  -23.8310   -8.4220   22.0030 C   0  0  0  0  0  3  0  0  0  0  0  0
  -22.6590   -8.2030   21.2400 C   0  0  0  0  0  0  0  0  0  0  0  0
  -22.2870   -9.1490   20.2690 C   0  0  0  0  0  3  0  0  0  0  0  0
  -23.0520  -10.3100   20.0700 C   0  0  0  0  0  3  0  0  0  0  0  0
  -21.8680   -7.0840   21.3440 O   0  0  0  0  0  0  0  0  0  0  0  0
  -21.7110   -6.4240   22.5360 C   0  0  0  0  0  0  0  0  0  0  0  0
  -21.2050   -7.0690   23.6860 C   0  0  0  0  0  3  0  0  0  0  0  0
  -20.9950   -6.3350   24.8690 C   0  0  0  0  0  3  0  0  0  0  0  0
  -21.2800   -4.9570   24.9040 C   0  0  0  0  0  0  0  0  0  0  0  0
  -21.7770   -4.3110   23.7590 C   0  0  0  0  0  3  0  0  0  0  0  0
  -21.9900   -5.0430   22.5770 C   0  0  0  0  0  0  0  0  0  0  0  0
  -22.4500   -4.4110   21.4710 F   0  0  0  0  0  0  0  0  0  0  0  0
  -21.0700   -4.2490   26.0400 F   0  0  0  0  0  0  0  0  0  0  0  0
  -23.2240  -13.6840   21.1010 C   0  0  0  0  0  0  0  0  0  0  0  0
  -22.5270  -13.0030   22.0050 N   0  0  0  0  0  0  0  0  0  0  0  0
  -22.7970  -14.7370   20.6300 O   0  0  0  0  0  0  0  0  0  0  0  0
  -22.8860  -12.1490   22.4060 H   0  0  0  0  0  0  0  0  0  0  0  0
  -21.6210  -13.3400   22.3000 H   0  0  0  0  0  0  0  0  0  0  0  0
  -25.8670  -15.2520   20.1370 N   0  0  0  0  0  0  0  0  0  0  0  0
  -25.1330  -15.9330   20.2940 H   0  0  0  0  0  0  0  0  0  0  0  0
  -26.6990  -15.6550   19.7270 H   0  0  0  0  0  0  0  0  0  0  0  0
  -33.8390  -19.0940   20.3940 N   0  0  0  0  0  0  0  0  0  0  0  0
  -34.1650  -19.9450   20.8430 H   0  0  0  0  0  0  0  0  0  0  0  0
  -34.5430  -18.3620   20.3760 H   0  0  0  0  0  0  0  0  0  0  0  0
  -28.5950  -26.2030   21.0900 C   0  0  0  0  0  2  0  0  0  0  0  0
  -28.2600  -26.9110   19.8900 O   0  0  0  0  0  0  0  0  0  0  0  0
  -24.5240  -32.0010   23.2430 C   0  0  0  0  0  0  0  0  0  0  0  0
  -27.1130  -27.6680   19.9690 C   0  0  0  0  0  0  0  0  0  0  0  0
  -23.2830  -30.6340   21.5960 C   0  0  0  0  0  3  0  0  0  0  0  0
  -24.7090  -29.1470   20.0880 C   0  0  0  0  0  0  0  0  0  0  0  0
  -25.7970  -31.0200   21.3370 C   0  0  0  0  0  2  0  0  0  0  0  0
  -25.8770  -29.6660   20.6630 C   0  0  0  0  0  0  0  0  0  0  0  0
  -27.0840  -28.9310   20.6080 C   0  0  0  0  0  3  0  0  0  0  0  0
  -25.9360  -27.1670   19.3840 C   0  0  0  0  0  3  0  0  0  0  0  0
  -24.7320  -27.8960   19.4480 C   0  0  0  0  0  3  0  0  0  0  0  0
  -23.4580  -29.9920   20.1930 C   0  0  0  0  0  2  0  0  0  0  0  0
  -24.5540  -31.2330   22.1170 N   0  0  0  0  0  0  0  0  0  0  0  0
  -23.4580  -32.2480   23.8230 O   0  0  0  0  0  0  0  0  0  0  0  0
  -22.6670  -29.5820   22.5470 C   0  0  0  0  0  0  0  0  0  0  0  0
  -21.3530  -29.3450   22.4080 N   0  0  0  0  0  0  0  0  0  0  0  0
  -23.3710  -28.9810   23.3640 O   0  0  0  0  0  0  0  0  0  0  0  0
  -20.8450  -29.8840   21.7210 H   0  0  0  0  0  0  0  0  0  0  0  0
  -18.0470  -27.9430   22.8060 C   0  0  0  0  0  0  0  0  0  0  0  0
  -20.5700  -28.3700   23.1670 C   0  0  0  0  0  3  0  0  0  0  0  0
  -20.7850  -26.9390   22.6220 C   0  0  0  0  0  2  0  0  0  0  0  0
  -19.7450  -26.5300   21.5750 C   0  0  0  0  0  2  0  0  0  0  0  0
  -18.3340  -26.5970   22.1640 C   0  0  0  0  0  2  0  0  0  0  0  0
  -19.0970  -28.7820   23.2620 C   0  0  0  0  0  0  0  0  0  0  0  0
  -18.7760  -30.0400   23.8200 C   0  0  0  0  0  3  0  0  0  0  0  0
  -17.4380  -30.4590   23.9270 C   0  0  0  0  0  3  0  0  0  0  0  0
  -16.4010  -29.6180   23.4890 C   0  0  0  0  0  3  0  0  0  0  0  0
  -16.7060  -28.3620   22.9340 C   0  0  0  0  0  3  0  0  0  0  0  0
  -25.8240  -32.6240   23.8430 C   0  0  0  0  0  3  0  0  0  0  0  0
  -26.3640  -31.8450   25.1040 C   0  0  1  0  0  0  0  0  0  0  0  0
  -25.2880  -31.5910   26.1850 C   0  0  0  0  0  1  0  0  0  0  0  0
  -26.9490  -30.4740   24.6880 C   0  0  0  0  0  1  0  0  0  0  0  0
  -27.5190  -32.6400   25.7570 C   0  0  0  0  0  1  0  0  0  0  0  0
  -25.5270  -34.0210   24.1840 N   0  0  0  0  0  0  0  0  0  0  0  0
  -25.8500  -35.0750   23.4220 C   0  0  0  0  0  0  0  0  0  0  0  0
  -26.5010  -34.9720   22.3780 O   0  0  0  0  0  0  0  0  0  0  0  0
  -24.9490  -34.1760   24.9960 H   0  0  0  0  0  0  0  0  0  0  0  0
  -24.1210  -36.8720   23.1040 C   0  0  0  0  0  1  0  0  0  0  0  0
  -25.3750  -36.4620   23.8910 C   0  0  0  0  0  3  0  0  0  0  0  0
  -27.5270  -37.3390   24.6840 C   0  0  0  0  0  1  0  0  0  0  0  0
  -26.4080  -37.5130   23.7630 N   0  0  0  0  0  0  0  0  0  0  0  0
  -26.0080  -38.4340   23.9200 H   0  0  0  0  0  0  0  0  0  0  0  0
  2 56  1  0
  2  1  2  0
  3  1  1  0
  4  2  1  0
  4  5  1  0
  6  5  1  0
  6  3  1  0
  6  8  1  0
  6  7  1  6
  9 12  1  0
 10 12  2  0
 11 14  2  0
 11 13  1  0
 12  8  1  0
 13  9  2  0
 14 10  1  0
 15 21  1  0
 15 23  1  0
 16 21  1  0
 17 18  1  0
 17 16  1  0
 19 18  1  0
 19 28  1  0
 19 20  1  0
 21 20  1  0
 22 15  2  0
 23 14  1  0
 23 24  1  0
 25 26  2  0
 26 45  1  0
 27 26  1  0
 27 30  1  0
 28 29  1  0
 28 25  1  0
 29 27  2  0
 30 31  1  0
 31 32  2  0
 33 36  1  0
 33 32  1  0
 34 33  2  0
 35 34  1  0
 35 30  2  0
 36 37  1  0
 37 42  2  0
 37 38  1  0
 38 39  2  0
 39 40  1  0
 40 44  1  0
 41 40  2  0
 42 41  1  0
 43 42  1  0
 45 46  1  0
 46 49  1  0
 46 48  1  0
 47 45  2  0
 50 51  1  0
 50 25  1  0
 52 50  1  0
 53 13  1  0
 53 54  1  0
 55 53  1  0
 57 59  1  0
 57 56  1  0
 58 69  2  0
 59 64  1  0
 60 68  1  0
 60 70  1  0
 61 67  1  0
 61 63  1  0
 62 68  1  0
 63 62  1  0
 64 63  2  0
 65 66  1  0
 65 59  2  0
 66 61  2  0
 67 60  1  0
 68 58  1  0
 70 72  2  0
 71 70  1  0
 73 71  1  0
 74 83  2  0
 74 79  1  0
 75 71  1  0
 75 79  1  0
 76 75  1  0
 77 78  1  0
 77 76  1  0
 78 74  1  0
 79 80  2  0
 80 81  1  0
 82 81  2  0
 83 82  1  0
 84 58  1  0
 84 89  1  0
 84 85  1  0
 85 88  1  1
 85 86  1  0
 87 85  1  0
 89 92  1  0
 90 94  1  0
 90 89  1  0
 91 90  2  0
 94 93  1  0
 96 94  1  0
 96 97  1  0
 96 95  1  0
M  ISO  4  15 100  23 100  56 101  57 101
M  END
>  <TORSDO>  (32) 
F 20

>  <SCORE>  (32) 
-13.746

>  <name>  (32) 
31

>  <ligand_id>  (32) 
31

>  <original_smiles>  (32) 
[H]C1=C(C([H])([H])Oc2c([H])c([H])c3c(c2[H])C([H])([H])N(C(=O)C([H])(N([H])C(=O)C([H])(N([H])C([H])([H])[H])C([H])([H])[H])C(C([H])([H])[H])(C([H])([H])[H])C([H])([H])[H])C([H])(C(=O)N([H])C2([H])c4c([H])c([H])c([H])c([H])c4C([H])([H])C([H])([H])C2([H])[H])C3([H])[H])C([H])([H])C([H])([H])[N+]([H])(C([H])([H])c2c([H])c(N([H])[H])c([H])c(N([H])C(=O)N3C([H])([H])C([H])([H])C([H])([H])C([H])(n4nc(-c5c([H])c([H])c(Oc6c([H])c([H])c(F)c([H])c6F)c([H])c5[H])c(C(=O)N([H])[H])c4N([H])[H])C3([H])[H])c2[H])C1([H])[H]

>  <smiles>  (32) 
[H]C1=C(C([H])([H])Oc2c([H])c([H])c3c(c2[H])C([H])([H])N(C(=O)C([H])(N([H])C(=O)C([H])(N([H])C([H])([H])[H])C([H])([H])[H])C(C([H])([H])[H])(C([H])([H])[H])C([H])([H])[H])C([H])(C(=O)N([H])C2([H])c4c([H])c([H])c([H])c([H])c4C([H])([H])C([H])([H])C2([H])[H])C3([H])[H])C([H])([H])C([H])([H])[N+]([H])(C([H])([H])c2c([H])c(N([H])[H])c([H])c(N([H])C(=O)N3C([H])([H])C([H])([H])C([H])([H])C([H])(n4nc(-c5c([H])c([H])c(Oc6c([H])c([H])c(F)c([H])c6F)c([H])c5[H])c(C(=O)N([H])[H])c4N([H])[H])C3([H])[H])c2[H])C1([H])[H]

$$$$
32:0:0
     RDKit          3D

 99107  0  0  1  0  0  0  0  0999 V2000
  -29.6920  -19.0480   19.6870 C   0  0  0  0  0  3  0  0  0  0  0  0
  -31.1790  -17.7060   21.6420 C   0  0  0  0  0  3  0  0  0  0  0  0
  -29.4200  -17.6870   19.9420 C   0  0  0  0  0  0  0  0  0  0  0  0
  -30.6940  -19.7500   20.3860 C   0  0  0  0  0  0  0  0  0  0  0  0
  -30.1830  -16.9980   20.9290 C   0  0  0  0  0  0  0  0  0  0  0  0
  -31.4390  -19.0700   21.3790 C   0  0  0  0  0  0  0  0  0  0  0  0
  -30.7300  -14.6030   20.9490 C   0  0  0  0  0  0  0  0  0  0  0  0
  -30.5620  -12.3790   19.9190 C   0  0  0  0  0  2  0  0  0  0  0  0
  -29.7110  -12.5080   18.6380 C   0  0  0  0  0  2  0  0  0  0  0  0
  -28.2070  -12.3790   18.9570 C   0  0  0  0  0  2  0  0  0  0  0  0
  -27.7630  -13.2660   20.1520 C   0  0  0  0  0  3  0  0  0  0  0  0
  -28.7340  -13.1150   21.3440 C   0  0  0  0  0  2  0  0  0  0  0  0
  -30.0960  -13.4050   20.8600 N   0  0  0  0  0  0  0  0  0  0  0  0
  -31.9030  -14.7760   20.6050 O   0  0  0  0  0  0  0  0  0  0  0  0
  -29.9340  -15.6350   21.2760 N   0  0  0  0  0  0  0  0  0  0  0  0
  -28.9770  -15.3800   21.4680 H   0  0  0  0  0  0  0  0  0  0  0  0
  -25.3200  -13.8860   20.6790 C   0  0  0  0  0  0  0  0  0  0  0  0
  -24.2270  -13.1170   20.9780 C   0  0  0  0  0  0  0  0  0  0  0  0
  -24.6910  -11.7660   20.9960 C   0  0  0  0  0  0  0  0  0  0  0  0
  -26.3780  -13.0020   20.5350 N   0  0  0  0  0  0  0  0  0  0  0  0
  -25.9990  -11.7230   20.7820 N   0  0  0  0  0  0  0  0  0  0  0  0
  -23.9550  -10.5060   21.1500 C   0  0  0  0  0  0  0  0  0  0  0  0
  -24.3240   -9.5520   22.1230 C   0  0  0  0  0  3  0  0  0  0  0  0
  -23.5920   -8.3530   22.2630 C   0  0  0  0  0  3  0  0  0  0  0  0
  -22.4770   -8.1020   21.4300 C   0  0  0  0  0  0  0  0  0  0  0  0
  -22.1280   -9.0450   20.4480 C   0  0  0  0  0  3  0  0  0  0  0  0
  -22.8610  -10.2350   20.3050 C   0  0  0  0  0  3  0  0  0  0  0  0
  -21.7210   -6.9570   21.4780 O   0  0  0  0  0  0  0  0  0  0  0  0
  -21.5900   -6.2290   22.6340 C   0  0  0  0  0  0  0  0  0  0  0  0
  -21.0370   -6.7870   23.8080 C   0  0  0  0  0  3  0  0  0  0  0  0
  -20.8570   -5.9840   24.9510 C   0  0  0  0  0  3  0  0  0  0  0  0
  -21.2190   -4.6240   24.9210 C   0  0  0  0  0  0  0  0  0  0  0  0
  -21.7640   -4.0660   23.7520 C   0  0  0  0  0  3  0  0  0  0  0  0
  -21.9460   -4.8660   22.6110 C   0  0  0  0  0  0  0  0  0  0  0  0
  -22.4520   -4.3180   21.4800 F   0  0  0  0  0  0  0  0  0  0  0  0
  -21.0390   -3.8490   26.0170 F   0  0  0  0  0  0  0  0  0  0  0  0
  -22.8150  -13.5960   21.1440 C   0  0  0  0  0  0  0  0  0  0  0  0
  -22.0250  -12.9050   21.9600 N   0  0  0  0  0  0  0  0  0  0  0  0
  -22.4140  -14.6150   20.5840 O   0  0  0  0  0  0  0  0  0  0  0  0
  -22.3580  -12.0800   22.4360 H   0  0  0  0  0  0  0  0  0  0  0  0
  -21.0730  -13.2070   22.1120 H   0  0  0  0  0  0  0  0  0  0  0  0
  -25.4960  -15.2550   20.5040 N   0  0  0  0  0  0  0  0  0  0  0  0
  -24.7250  -15.9100   20.5760 H   0  0  0  0  0  0  0  0  0  0  0  0
  -26.3650  -15.6990   20.2340 H   0  0  0  0  0  0  0  0  0  0  0  0
  -28.3770  -17.0210   19.0910 C   0  0  0  0  0  0  0  0  0  0  0  0
  -27.2140  -17.6510   19.0000 N   0  0  0  0  0  0  0  0  0  0  0  0
  -28.5950  -15.9620   18.5080 O   0  0  0  0  0  0  0  0  0  0  0  0
  -27.0770  -18.5270   19.4850 H   0  0  0  0  0  0  0  0  0  0  0  0
  -26.4750  -17.2780   18.4250 H   0  0  0  0  0  0  0  0  0  0  0  0
  -32.4350  -19.7190   22.1080 N   0  0  0  0  0  0  0  0  0  0  0  0
  -32.7390  -19.3060   22.9840 H   0  0  0  0  0  0  0  0  0  0  0  0
  -32.4250  -20.7320   22.1350 H   0  0  0  0  0  0  0  0  0  0  0  0
  -30.9470  -21.2060   19.9980 C   0  0  0  0  0  2  0  0  0  0  0  0
  -29.8210  -22.1590   20.4450 C   0  0  0  0  0  2  0  0  0  0  0  0
  -29.9510  -23.5560   19.8030 C   0  0  0  0  0  2  0  0  0  0  0  0
  -28.8660  -24.5570   20.2200 C   0  0  0  0  0  0  0  0  0  0  0  0
  -28.0800  -24.3210   21.1440 O   0  0  0  0  0  0  0  0  0  0  0  0
  -28.8150  -25.8710   19.4310 C   0  0  0  0  0  2  0  0  0  0  0  0
  -28.5390  -26.9660   20.3040 O   0  0  0  0  0  0  0  0  0  0  0  0
  -24.5700  -31.9810   23.3510 C   0  0  0  0  0  0  0  0  0  0  0  0
  -27.3150  -27.5970   20.2790 C   0  0  0  0  0  0  0  0  0  0  0  0
  -23.3960  -30.5670   21.6930 C   0  0  0  0  0  3  0  0  0  0  0  0
  -24.8830  -29.0440   20.2850 C   0  0  0  0  0  0  0  0  0  0  0  0
  -25.9150  -30.9590   21.5190 C   0  0  0  0  0  2  0  0  0  0  0  0
  -26.0220  -29.5890   20.8860 C   0  0  0  0  0  0  0  0  0  0  0  0
  -27.2340  -28.8670   20.8890 C   0  0  0  0  0  3  0  0  0  0  0  0
  -26.1490  -27.0480   19.6910 C   0  0  0  0  0  3  0  0  0  0  0  0
  -24.9380  -27.7680   19.6930 C   0  0  0  0  0  3  0  0  0  0  0  0
  -23.6260  -29.8850   20.3170 C   0  0  0  0  0  2  0  0  0  0  0  0
  -24.6450  -31.1850   22.2460 N   0  0  0  0  0  0  0  0  0  0  0  0
  -23.4820  -32.2410   23.8800 O   0  0  0  0  0  0  0  0  0  0  0  0
  -22.7460  -29.5390   22.6460 C   0  0  0  0  0  0  0  0  0  0  0  0
  -21.4270  -29.3420   22.5010 N   0  0  0  0  0  0  0  0  0  0  0  0
  -23.4280  -28.9220   23.4690 O   0  0  0  0  0  0  0  0  0  0  0  0
  -20.9400  -29.8930   21.8090 H   0  0  0  0  0  0  0  0  0  0  0  0
  -18.0580  -28.1170   22.9500 C   0  0  0  0  0  0  0  0  0  0  0  0
  -20.6090  -28.3940   23.2580 C   0  0  0  0  0  3  0  0  0  0  0  0
  -20.7310  -26.9660   22.6780 C   0  0  0  0  0  2  0  0  0  0  0  0
  -19.6460  -26.6390   21.6480 C   0  0  0  0  0  2  0  0  0  0  0  0
  -18.2540  -26.7720   22.2740 C   0  0  0  0  0  2  0  0  0  0  0  0
  -19.1640  -28.8870   23.3970 C   0  0  0  0  0  0  0  0  0  0  0  0
  -18.9290  -30.1480   23.9870 C   0  0  0  0  0  3  0  0  0  0  0  0
  -17.6180  -30.6400   24.1350 C   0  0  0  0  0  3  0  0  0  0  0  0
  -16.5260  -29.8660   23.7070 C   0  0  0  0  0  3  0  0  0  0  0  0
  -16.7470  -28.6070   23.1200 C   0  0  0  0  0  3  0  0  0  0  0  0
  -25.8450  -32.6240   23.9860 C   0  0  0  0  0  3  0  0  0  0  0  0
  -25.5360  -34.0310   24.2680 N   0  0  0  0  0  0  0  0  0  0  0  0
  -25.8940  -35.0590   23.4860 C   0  0  0  0  0  0  0  0  0  0  0  0
  -26.5890  -34.9220   22.4760 O   0  0  0  0  0  0  0  0  0  0  0  0
  -24.9210  -34.2110   25.0480 H   0  0  0  0  0  0  0  0  0  0  0  0
  -24.1910  -36.8500   23.0250 C   0  0  0  0  0  1  0  0  0  0  0  0
  -25.4010  -36.4610   23.8900 C   0  0  0  0  0  3  0  0  0  0  0  0
  -27.5100  -37.3560   24.7720 C   0  0  0  0  0  1  0  0  0  0  0  0
  -26.4430  -37.5050   23.7850 N   0  0  0  0  0  0  0  0  0  0  0  0
  -26.0380  -38.4310   23.8920 H   0  0  0  0  0  0  0  0  0  0  0  0
  -26.3280  -31.8840   25.2930 C   0  0  1  0  0  0  0  0  0  0  0  0
  -25.2090  -31.6720   26.3390 C   0  0  0  0  0  1  0  0  0  0  0  0
  -26.9190  -30.4970   24.9460 C   0  0  0  0  0  1  0  0  0  0  0  0
  -27.4630  -32.6930   25.9640 C   0  0  0  0  0  1  0  0  0  0  0  0
  1  3  2  0
  1  4  1  0
  3  5  1  0
  4  6  2  0
  5 15  1  0
  5  2  2  0
  6  2  1  0
  6 50  1  0
  7 15  1  0
  8 13  1  0
  9 10  1  0
  9  8  1  0
 11 10  1  0
 11 20  1  0
 11 12  1  0
 13  7  1  0
 13 12  1  0
 14  7  2  0
 15 16  1  0
 17 18  2  0
 18 19  1  0
 18 37  1  0
 19 22  1  0
 20 17  1  0
 20 21  1  0
 21 19  2  0
 22 23  1  0
 23 24  2  0
 25 28  1  0
 25 24  1  0
 26 25  2  0
 27 26  1  0
 27 22  2  0
 28 29  1  0
 29 30  1  0
 30 31  2  0
 32 31  1  0
 32 36  1  0
 33 32  2  0
 34 29  2  0
 34 33  1  0
 35 34  1  0
 37 38  1  0
 38 41  1  0
 38 40  1  0
 39 37  2  0
 42 43  1  0
 42 17  1  0
 44 42  1  0
 45  3  1  0
 46 45  1  0
 46 48  1  0
 47 45  2  0
 49 46  1  0
 50 52  1  0
 50 51  1  0
 53  4  1  0
 53 54  1  0
 55 56  1  0
 55 54  1  0
 56 57  2  0
 58 56  1  0
 58 59  1  0
 60 71  2  0
 61 59  1  0
 61 66  1  0
 62 70  1  0
 62 72  1  0
 63 69  1  0
 63 65  1  0
 64 70  1  0
 65 66  2  0
 65 64  1  0
 67 68  1  0
 67 61  2  0
 68 63  2  0
 69 62  1  0
 70 60  1  0
 72 74  2  0
 73 72  1  0
 75 73  1  0
 76 85  2  0
 76 81  1  0
 77 73  1  0
 77 81  1  0
 78 77  1  0
 79 80  1  0
 79 78  1  0
 80 76  1  0
 81 82  2  0
 82 83  1  0
 84 83  2  0
 85 84  1  0
 86 60  1  0
 86 87  1  0
 86 96  1  0
 87 90  1  0
 88 92  1  0
 88 87  1  0
 89 88  2  0
 92 91  1  0
 94 92  1  0
 94 95  1  0
 94 93  1  0
 96 99  1  1
 96 97  1  0
 98 96  1  0
M  ISO  4   7 100  15 100  58 101  59 101
M  END
>  <TORSDO>  (33) 
F 23

>  <SCORE>  (33) 
-12.885

>  <name>  (33) 
32

>  <ligand_id>  (33) 
32

>  <original_smiles>  (33) 
[H]c1c([H])c([H])c2c(c1[H])C([H])([H])C([H])([H])C([H])([H])C2([H])N([H])C(=O)C1([H])N(C(=O)C([H])(N([H])C(=O)C([H])(N([H])C([H])([H])[H])C([H])([H])[H])C(C([H])([H])[H])(C([H])([H])[H])C([H])([H])[H])C([H])([H])c2c([H])c(OC([H])([H])C(=O)C([H])([H])C([H])([H])C([H])([H])c3c([H])c(C(=O)N([H])[H])c(N([H])C(=O)N4C([H])([H])C([H])([H])C([H])([H])C([H])(n5nc(-c6c([H])c([H])c(Oc7c([H])c([H])c(F)c([H])c7F)c([H])c6[H])c(C(=O)N([H])[H])c5N([H])[H])C4([H])[H])c([H])c3N([H])[H])c([H])c([H])c2C1([H])[H]

>  <smiles>  (33) 
[H]c1c([H])c([H])c2c(c1[H])C([H])([H])C([H])([H])C([H])([H])C2([H])N([H])C(=O)C1([H])N(C(=O)C([H])(N([H])C(=O)C([H])(N([H])C([H])([H])[H])C([H])([H])[H])C(C([H])([H])[H])(C([H])([H])[H])C([H])([H])[H])C([H])([H])c2c([H])c(OC([H])([H])C(=O)C([H])([H])C([H])([H])C([H])([H])c3c([H])c(C(=O)N([H])[H])c(N([H])C(=O)N4C([H])([H])C([H])([H])C([H])([H])C([H])(n5nc(-c6c([H])c([H])c(Oc7c([H])c([H])c(F)c([H])c7F)c([H])c6[H])c(C(=O)N([H])[H])c5N([H])[H])C4([H])[H])c([H])c3N([H])[H])c([H])c([H])c2C1([H])[H]

$$$$
33:0:0
     RDKit          3D

 93101  0  0  1  0  0  0  0  0999 V2000
  -29.2170  -19.3970   20.6720 C   0  0  0  0  0  3  0  0  0  0  0  0
  -31.2210  -19.3420   19.3610 C   0  0  0  0  0  3  0  0  0  0  0  0
  -29.2520  -17.9700   20.7700 C   0  0  0  0  0  0  0  0  0  0  0  0
  -31.2540  -17.9180   19.4220 C   0  0  0  0  0  0  0  0  0  0  0  0
  -30.2720  -17.1780   20.1510 C   0  0  0  0  0  0  0  0  0  0  0  0
  -30.2100  -20.1260   19.9700 C   0  0  0  0  0  0  0  0  0  0  0  0
  -28.1500  -17.2900   21.5670 C   0  0  0  0  0  1  0  0  0  0  0  0
  -30.9320  -14.6460   19.8200 C   0  0  0  0  0  0  0  0  0  0  0  0
  -30.6050  -12.4460   18.7170 C   0  0  0  0  0  2  0  0  0  0  0  0
  -29.5650  -12.6210   17.5900 C   0  0  0  0  0  2  0  0  0  0  0  0
  -28.1340  -12.4510   18.1360 C   0  0  0  0  0  2  0  0  0  0  0  0
  -27.8850  -13.2710   19.4300 C   0  0  0  0  0  3  0  0  0  0  0  0
  -29.0360  -13.0860   20.4460 C   0  0  0  0  0  2  0  0  0  0  0  0
  -30.2920  -13.4360   19.7670 N   0  0  0  0  0  0  0  0  0  0  0  0
  -32.0740  -14.7670   19.3690 O   0  0  0  0  0  0  0  0  0  0  0  0
  -30.1820  -15.7090   20.2570 N   0  0  0  0  0  0  0  0  0  0  0  0
  -29.3290  -15.3970   20.6910 H   0  0  0  0  0  0  0  0  0  0  0  0
  -25.5660  -13.8410   20.3760 C   0  0  0  0  0  0  0  0  0  0  0  0
  -24.5340  -13.0560   20.8120 C   0  0  0  0  0  0  0  0  0  0  0  0
  -24.9850  -11.7060   20.6840 C   0  0  0  0  0  0  0  0  0  0  0  0
  -26.5830  -12.9710   20.0180 N   0  0  0  0  0  0  0  0  0  0  0  0
  -26.2430  -11.6790   20.2610 N   0  0  0  0  0  0  0  0  0  0  0  0
  -24.2690  -10.4400   20.8820 C   0  0  0  0  0  0  0  0  0  0  0  0
  -24.7020   -9.4850   21.8300 C   0  0  0  0  0  3  0  0  0  0  0  0
  -23.9860   -8.2830   22.0150 C   0  0  0  0  0  3  0  0  0  0  0  0
  -22.8230   -8.0260   21.2520 C   0  0  0  0  0  0  0  0  0  0  0  0
  -22.4090   -8.9680   20.2930 C   0  0  0  0  0  3  0  0  0  0  0  0
  -23.1260  -10.1610   20.1060 C   0  0  0  0  0  3  0  0  0  0  0  0
  -22.0780   -6.8750   21.3460 O   0  0  0  0  0  0  0  0  0  0  0  0
  -21.9280   -6.2110   22.5360 C   0  0  0  0  0  0  0  0  0  0  0  0
  -21.3480   -6.8280   23.6660 C   0  0  0  0  0  3  0  0  0  0  0  0
  -21.1490   -6.0870   24.8490 C   0  0  0  0  0  3  0  0  0  0  0  0
  -21.5210   -4.7310   24.9010 C   0  0  0  0  0  0  0  0  0  0  0  0
  -22.0940   -4.1130   23.7760 C   0  0  0  0  0  3  0  0  0  0  0  0
  -22.2940   -4.8500   22.5950 C   0  0  0  0  0  0  0  0  0  0  0  0
  -22.8270   -4.2450   21.5070 F   0  0  0  0  0  0  0  0  0  0  0  0
  -21.3230   -4.0160   26.0340 F   0  0  0  0  0  0  0  0  0  0  0  0
  -23.1680  -13.5250   21.2240 C   0  0  0  0  0  0  0  0  0  0  0  0
  -22.5280  -12.8120   22.1450 N   0  0  0  0  0  0  0  0  0  0  0  0
  -22.6810  -14.5580   20.7660 O   0  0  0  0  0  0  0  0  0  0  0  0
  -22.9370  -11.9760   22.5350 H   0  0  0  0  0  0  0  0  0  0  0  0
  -21.6160  -13.1070   22.4640 H   0  0  0  0  0  0  0  0  0  0  0  0
  -25.7130  -15.2160   20.2290 N   0  0  0  0  0  0  0  0  0  0  0  0
  -24.9400  -15.8520   20.3950 H   0  0  0  0  0  0  0  0  0  0  0  0
  -26.4880  -15.6550   19.7490 H   0  0  0  0  0  0  0  0  0  0  0  0
  -32.2670  -17.2790   18.7140 N   0  0  0  0  0  0  0  0  0  0  0  0
  -33.1270  -17.7940   18.5610 H   0  0  0  0  0  0  0  0  0  0  0  0
  -32.4450  -16.3140   19.0180 H   0  0  0  0  0  0  0  0  0  0  0  0
  -30.2990  -21.5290   19.8620 O   0  0  0  0  0  0  0  0  0  0  0  0
  -29.1790  -22.4330   20.1090 C   0  0  0  0  0  2  0  0  0  0  0  0
  -29.5250  -23.9790   19.9210 C   0  0  0  0  0  3  0  0  0  0  0  0
  -28.3120  -24.9920   19.8150 C   0  0  0  0  0  3  0  0  0  0  0  0
  -28.5480  -26.4560   19.8090 O   0  0  0  0  0  0  0  0  0  0  0  0
  -24.7990  -31.6460   23.1460 C   0  0  0  0  0  0  0  0  0  0  0  0
  -27.4160  -27.2880   19.8220 C   0  0  0  0  0  0  0  0  0  0  0  0
  -23.5850  -30.3160   21.4600 C   0  0  0  0  0  3  0  0  0  0  0  0
  -25.0290  -28.8630   19.9340 C   0  0  0  0  0  0  0  0  0  0  0  0
  -26.1170  -30.6790   21.2500 C   0  0  0  0  0  2  0  0  0  0  0  0
  -26.2040  -29.3380   20.5330 C   0  0  0  0  0  0  0  0  0  0  0  0
  -27.4010  -28.5640   20.4650 C   0  0  0  0  0  3  0  0  0  0  0  0
  -26.2130  -26.8700   19.2020 C   0  0  0  0  0  3  0  0  0  0  0  0
  -25.0370  -27.6340   19.2610 C   0  0  0  0  0  3  0  0  0  0  0  0
  -23.7830  -29.7160   20.0450 C   0  0  0  0  0  2  0  0  0  0  0  0
  -24.8540  -30.8940   22.0080 N   0  0  0  0  0  0  0  0  0  0  0  0
  -23.7220  -31.8830   23.7110 O   0  0  0  0  0  0  0  0  0  0  0  0
  -22.9530  -29.2410   22.3760 C   0  0  0  0  0  0  0  0  0  0  0  0
  -21.6340  -29.0250   22.2340 N   0  0  0  0  0  0  0  0  0  0  0  0
  -23.6470  -28.6080   23.1760 O   0  0  0  0  0  0  0  0  0  0  0  0
  -21.1300  -29.5910   21.5650 H   0  0  0  0  0  0  0  0  0  0  0  0
  -18.2930  -27.7100   22.6740 C   0  0  0  0  0  0  0  0  0  0  0  0
  -20.8410  -28.0350   22.9650 C   0  0  0  0  0  3  0  0  0  0  0  0
  -20.9880  -26.6290   22.3370 C   0  0  0  0  0  2  0  0  0  0  0  0
  -19.9000  -26.3130   21.3070 C   0  0  0  0  0  2  0  0  0  0  0  0
  -18.5110  -26.3930   21.9490 C   0  0  0  0  0  2  0  0  0  0  0  0
  -19.3860  -28.4880   23.1370 C   0  0  0  0  0  0  0  0  0  0  0  0
  -19.1280  -29.7220   23.7730 C   0  0  0  0  0  3  0  0  0  0  0  0
  -17.8080  -30.1780   23.9510 C   0  0  0  0  0  3  0  0  0  0  0  0
  -16.7290  -29.3960   23.5040 C   0  0  0  0  0  3  0  0  0  0  0  0
  -16.9720  -28.1640   22.8720 C   0  0  0  0  0  3  0  0  0  0  0  0
  -26.0850  -32.2630   23.7780 C   0  0  0  0  0  3  0  0  0  0  0  0
  -25.7620  -33.6370   24.1860 N   0  0  0  0  0  0  0  0  0  0  0  0
  -26.0600  -34.7330   23.4750 C   0  0  0  0  0  0  0  0  0  0  0  0
  -26.7060  -34.6940   22.4240 O   0  0  0  0  0  0  0  0  0  0  0  0
  -25.1860  -33.7420   25.0080 H   0  0  0  0  0  0  0  0  0  0  0  0
  -24.3040  -36.5200   23.2470 C   0  0  0  0  0  1  0  0  0  0  0  0
  -25.5640  -36.0890   24.0160 C   0  0  0  0  0  3  0  0  0  0  0  0
  -27.6940  -36.9620   24.8690 C   0  0  0  0  0  1  0  0  0  0  0  0
  -26.5810  -37.1590   23.9440 N   0  0  0  0  0  0  0  0  0  0  0  0
  -26.1640  -38.0650   24.1400 H   0  0  0  0  0  0  0  0  0  0  0  0
  -26.6350  -31.4340   25.0020 C   0  0  1  0  0  0  0  0  0  0  0  0
  -25.5630  -31.1150   26.0700 C   0  0  0  0  0  1  0  0  0  0  0  0
  -27.2390  -30.0920   24.5290 C   0  0  0  0  0  1  0  0  0  0  0  0
  -27.7790  -32.2140   25.6920 C   0  0  0  0  0  1  0  0  0  0  0  0
  1  3  1  0
  2  4  2  0
  2  6  1  0
  3  7  1  0
  4  5  1  0
  5 16  1  0
  5  3  2  0
  6  1  2  0
  8 16  1  0
  9 14  1  0
 10 11  1  0
 10  9  1  0
 12 11  1  0
 12 21  1  0
 12 13  1  0
 14  8  1  0
 14 13  1  0
 15  8  2  0
 16 17  1  0
 18 19  2  0
 19 38  1  0
 20 19  1  0
 20 23  1  0
 21 22  1  0
 21 18  1  0
 22 20  2  0
 23 24  1  0
 24 25  2  0
 26 29  1  0
 26 25  1  0
 27 26  2  0
 28 27  1  0
 28 23  2  0
 29 30  1  0
 30 35  2  0
 30 31  1  0
 31 32  2  0
 32 33  1  0
 33 37  1  0
 34 33  2  0
 35 34  1  0
 36 35  1  0
 38 39  1  0
 39 42  1  0
 39 41  1  0
 40 38  2  0
 43 18  1  0
 43 44  1  0
 45 43  1  0
 46 48  1  0
 46  4  1  0
 47 46  1  0
 49  6  1  0
 49 50  1  0
 51 50  1  0
 52 51  2  0
 53 52  1  0
 53 55  1  0
 54 65  2  0
 55 60  1  0
 56 64  1  0
 56 66  1  0
 57 63  1  0
 57 59  1  0
 58 64  1  0
 59 58  1  0
 60 59  2  0
 61 62  1  0
 61 55  2  0
 62 57  2  0
 63 56  1  0
 64 54  1  0
 66 68  2  0
 67 66  1  0
 69 67  1  0
 70 79  2  0
 70 75  1  0
 71 67  1  0
 71 75  1  0
 72 71  1  0
 73 74  1  0
 73 72  1  0
 74 70  1  0
 75 76  2  0
 76 77  1  0
 78 77  2  0
 79 78  1  0
 80 54  1  0
 80 81  1  0
 80 90  1  0
 81 84  1  0
 82 86  1  0
 82 81  1  0
 83 82  2  0
 86 85  1  0
 88 86  1  0
 88 89  1  0
 88 87  1  0
 90 93  1  1
 90 91  1  0
 92 90  1  0
M  ISO  4   8 100  16 100  52 101  53 101
M  END
>  <TORSDO>  (34) 
F 21

>  <SCORE>  (34) 
-10.916

>  <name>  (34) 
33

>  <ligand_id>  (34) 
33

>  <original_smiles>  (34) 
[H]c1c([H])c([H])c2c(c1[H])C([H])([H])C([H])([H])C([H])([H])C2([H])N([H])C(=O)C1([H])N(C(=O)C([H])(N([H])C(=O)C([H])(N([H])C([H])([H])[H])C([H])([H])[H])C(C([H])([H])[H])(C([H])([H])[H])C([H])([H])[H])C([H])([H])c2c([H])c(OC([H])([H])C([H])([H])C([H])([H])Oc3c([H])c(N([H])[H])c(N([H])C(=O)N4C([H])([H])C([H])([H])C([H])([H])C([H])(n5nc(-c6c([H])c([H])c(Oc7c([H])c([H])c(F)c([H])c7F)c([H])c6[H])c(C(=O)N([H])[H])c5N([H])[H])C4([H])[H])c(C([H])([H])[H])c3[H])c([H])c([H])c2C1([H])[H]

>  <smiles>  (34) 
[H]c1c([H])c([H])c2c(c1[H])C([H])([H])C([H])([H])C([H])([H])C2([H])N([H])C(=O)C1([H])N(C(=O)C([H])(N([H])C(=O)C([H])(N([H])C([H])([H])[H])C([H])([H])[H])C(C([H])([H])[H])(C([H])([H])[H])C([H])([H])[H])C([H])([H])c2c([H])c(OC([H])([H])C([H])([H])C([H])([H])Oc3c([H])c(N([H])[H])c(N([H])C(=O)N4C([H])([H])C([H])([H])C([H])([H])C([H])(n5nc(-c6c([H])c([H])c(Oc7c([H])c([H])c(F)c([H])c7F)c([H])c6[H])c(C(=O)N([H])[H])c5N([H])[H])C4([H])[H])c(C([H])([H])[H])c3[H])c([H])c([H])c2C1([H])[H]

$$$$
34:0:0
     RDKit          3D

 94102  0  0  1  0  0  0  0  0999 V2000
  -31.3880  -18.3620   22.9400 C   0  0  0  0  0  3  0  0  0  0  0  0
  -31.0710  -19.6320   22.4170 C   0  0  0  0  0  3  0  0  0  0  0  0
  -30.0080  -18.5460   20.5430 C   0  0  0  0  0  3  0  0  0  0  0  0
  -30.3000  -17.2430   21.0460 C   0  0  0  0  0  0  0  0  0  0  0  0
  -30.9960  -17.1650   22.2930 C   0  0  0  0  0  0  0  0  0  0  0  0
  -30.3530  -19.7320   21.2110 C   0  0  0  0  0  0  0  0  0  0  0  0
  -31.2990  -15.9690   22.9560 N   0  0  0  0  0  0  0  0  0  0  0  0
  -31.5980  -16.0110   23.9270 H   0  0  0  0  0  0  0  0  0  0  0  0
  -30.7900  -15.1160   22.7530 H   0  0  0  0  0  0  0  0  0  0  0  0
  -29.7710  -16.0930   20.2190 C   0  0  0  0  0  3  0  0  0  0  0  0
  -28.7130  -16.2800   19.5450 N   0  0  0  0  0  2  0  0  0  0  0  0
  -28.5460  -15.4730   18.9550 H   0  0  0  0  0  0  0  0  0  0  0  0
  -30.5920  -14.7950   20.0460 C   0  0  0  0  0  0  0  0  0  0  0  0
  -30.2310  -12.6110   18.9430 C   0  0  0  0  0  2  0  0  0  0  0  0
  -29.2300  -12.7720   17.7780 C   0  0  0  0  0  2  0  0  0  0  0  0
  -27.7940  -12.5410   18.2850 C   0  0  0  0  0  2  0  0  0  0  0  0
  -27.4690  -13.4080   19.5230 C   0  0  0  0  0  3  0  0  0  0  0  0
  -28.5920  -13.3190   20.5900 C   0  0  0  0  0  2  0  0  0  0  0  0
  -29.8880  -13.6250   19.9550 N   0  0  0  0  0  0  0  0  0  0  0  0
  -31.7590  -14.9000   19.6670 O   0  0  0  0  0  0  0  0  0  0  0  0
  -25.1310  -14.0080   20.3950 C   0  0  0  0  0  0  0  0  0  0  0  0
  -24.0930  -13.2210   20.8110 C   0  0  0  0  0  0  0  0  0  0  0  0
  -24.5700  -11.8760   20.7490 C   0  0  0  0  0  0  0  0  0  0  0  0
  -26.1640  -13.1300   20.0930 N   0  0  0  0  0  0  0  0  0  0  0  0
  -25.8400  -11.8490   20.3740 N   0  0  0  0  0  0  0  0  0  0  0  0
  -23.8780  -10.6030   20.9570 C   0  0  0  0  0  0  0  0  0  0  0  0
  -24.3510   -9.6500   21.8860 C   0  0  0  0  0  3  0  0  0  0  0  0
  -23.6590   -8.4370   22.0770 C   0  0  0  0  0  3  0  0  0  0  0  0
  -22.4820   -8.1690   21.3380 C   0  0  0  0  0  0  0  0  0  0  0  0
  -22.0300   -9.1110   20.3970 C   0  0  0  0  0  3  0  0  0  0  0  0
  -22.7230  -10.3150   20.2030 C   0  0  0  0  0  3  0  0  0  0  0  0
  -21.7570   -7.0080   21.4440 O   0  0  0  0  0  0  0  0  0  0  0  0
  -21.7230   -6.2860   22.6100 C   0  0  0  0  0  0  0  0  0  0  0  0
  -21.2660   -6.8500   23.8220 C   0  0  0  0  0  3  0  0  0  0  0  0
  -21.1840   -6.0520   24.9820 C   0  0  0  0  0  3  0  0  0  0  0  0
  -21.5460   -4.6930   24.9280 C   0  0  0  0  0  0  0  0  0  0  0  0
  -21.9960   -4.1290   23.7220 C   0  0  0  0  0  3  0  0  0  0  0  0
  -22.0810   -4.9250   22.5640 C   0  0  0  0  0  0  0  0  0  0  0  0
  -22.4960   -4.3710   21.3980 F   0  0  0  0  0  0  0  0  0  0  0  0
  -21.4570   -3.9260   26.0390 F   0  0  0  0  0  0  0  0  0  0  0  0
  -22.7020  -13.6760   21.1560 C   0  0  0  0  0  0  0  0  0  0  0  0
  -22.0240  -12.9570   22.0420 N   0  0  0  0  0  0  0  0  0  0  0  0
  -22.2280  -14.7050   20.6730 O   0  0  0  0  0  0  0  0  0  0  0  0
  -22.4180  -12.1220   22.4540 H   0  0  0  0  0  0  0  0  0  0  0  0
  -21.0940  -13.2420   22.3160 H   0  0  0  0  0  0  0  0  0  0  0  0
  -25.2800  -15.3810   20.2210 N   0  0  0  0  0  0  0  0  0  0  0  0
  -24.5160  -16.0380   20.3500 H   0  0  0  0  0  0  0  0  0  0  0  0
  -26.1400  -15.8260   19.9160 H   0  0  0  0  0  0  0  0  0  0  0  0
  -29.9530  -20.9140   20.6170 O   0  0  0  0  0  0  0  0  0  0  0  0
  -30.0600  -22.1620   21.3070 C   0  0  0  0  0  2  0  0  0  0  0  0
  -29.2900  -23.1780   20.4290 C   0  0  0  0  0  2  0  0  0  0  0  0
  -29.2230  -24.6570   20.8920 C   0  0  0  0  0  2  0  0  0  0  0  0
  -28.6260  -25.5640   19.7850 C   0  0  0  0  0  2  0  0  0  0  0  0
  -28.5560  -26.9540   20.1770 O   0  0  0  0  0  0  0  0  0  0  0  0
  -24.5910  -31.9920   23.2630 C   0  0  0  0  0  0  0  0  0  0  0  0
  -27.3530  -27.6420   20.1270 C   0  0  0  0  0  0  0  0  0  0  0  0
  -23.4310  -30.5940   21.5860 C   0  0  0  0  0  3  0  0  0  0  0  0
  -24.9270  -29.1190   20.1390 C   0  0  0  0  0  0  0  0  0  0  0  0
  -25.9510  -31.0010   21.4190 C   0  0  0  0  0  2  0  0  0  0  0  0
  -26.0650  -29.6410   20.7630 C   0  0  0  0  0  0  0  0  0  0  0  0
  -27.2750  -28.9050   20.7630 C   0  0  0  0  0  3  0  0  0  0  0  0
  -26.2000  -27.1600   19.4600 C   0  0  0  0  0  3  0  0  0  0  0  0
  -24.9930  -27.8820   19.4810 C   0  0  0  0  0  3  0  0  0  0  0  0
  -23.6630  -29.9470   20.1930 C   0  0  0  0  0  2  0  0  0  0  0  0
  -24.6750  -31.2110   22.1470 N   0  0  0  0  0  0  0  0  0  0  0  0
  -23.4980  -32.2270   23.7990 O   0  0  0  0  0  0  0  0  0  0  0  0
  -22.7980  -29.5400   22.5230 C   0  0  0  0  0  0  0  0  0  0  0  0
  -21.4810  -29.3200   22.3770 N   0  0  0  0  0  0  0  0  0  0  0  0
  -23.4890  -28.9190   23.3360 O   0  0  0  0  0  0  0  0  0  0  0  0
  -20.9800  -29.8730   21.6960 H   0  0  0  0  0  0  0  0  0  0  0  0
  -18.1390  -28.0240   22.8300 C   0  0  0  0  0  0  0  0  0  0  0  0
  -20.6850  -28.3450   23.1240 C   0  0  0  0  0  3  0  0  0  0  0  0
  -20.8280  -26.9260   22.5240 C   0  0  0  0  0  2  0  0  0  0  0  0
  -19.7440  -26.5940   21.4940 C   0  0  0  0  0  2  0  0  0  0  0  0
  -18.3540  -26.6920   22.1290 C   0  0  0  0  0  2  0  0  0  0  0  0
  -19.2330  -28.8070   23.2840 C   0  0  0  0  0  0  0  0  0  0  0  0
  -18.9790  -30.0530   23.8950 C   0  0  0  0  0  3  0  0  0  0  0  0
  -17.6600  -30.5190   24.0570 C   0  0  0  0  0  3  0  0  0  0  0  0
  -16.5790  -29.7330   23.6210 C   0  0  0  0  0  3  0  0  0  0  0  0
  -16.8190  -28.4880   23.0150 C   0  0  0  0  0  3  0  0  0  0  0  0
  -25.8540  -32.6450   23.9010 C   0  0  0  0  0  3  0  0  0  0  0  0
  -25.5210  -34.0400   24.2180 N   0  0  0  0  0  0  0  0  0  0  0  0
  -25.8400  -35.0920   23.4530 C   0  0  0  0  0  0  0  0  0  0  0  0
  -26.5230  -34.9930   22.4300 O   0  0  0  0  0  0  0  0  0  0  0  0
  -24.9180  -34.1910   25.0140 H   0  0  0  0  0  0  0  0  0  0  0  0
  -24.0790  -36.8460   23.0710 C   0  0  0  0  0  1  0  0  0  0  0  0
  -25.3220  -36.4740   23.8930 C   0  0  0  0  0  3  0  0  0  0  0  0
  -27.4330  -37.4130   24.7310 C   0  0  0  0  0  1  0  0  0  0  0  0
  -26.3340  -37.5470   23.7770 N   0  0  0  0  0  0  0  0  0  0  0  0
  -25.9060  -38.4600   23.9130 H   0  0  0  0  0  0  0  0  0  0  0  0
  -26.3600  -31.8900   25.1910 C   0  0  1  0  0  0  0  0  0  0  0  0
  -25.2530  -31.6350   26.2420 C   0  0  0  0  0  1  0  0  0  0  0  0
  -26.9770  -30.5220   24.8150 C   0  0  0  0  0  1  0  0  0  0  0  0
  -27.4810  -32.7100   25.8750 C   0  0  0  0  0  1  0  0  0  0  0  0
  2  1  1  0
  3  4  2  0
  3  6  1  0
  4  5  1  0
  5  1  2  0
  5  7  1  0
  6  2  2  0
  7  8  1  0
  9  7  1  0
 10 11  1  0
 10  4  1  0
 12 11  1  0
 13 10  1  0
 14 19  1  0
 15 16  1  0
 15 14  1  0
 17 16  1  0
 17 24  1  0
 17 18  1  0
 19 13  1  0
 19 18  1  0
 20 13  2  0
 21 22  2  0
 22 41  1  0
 23 22  1  0
 23 26  1  0
 24 25  1  0
 24 21  1  0
 25 23  2  0
 26 27  1  0
 27 28  2  0
 29 32  1  0
 29 28  1  0
 30 29  2  0
 31 30  1  0
 31 26  2  0
 32 33  1  0
 33 34  1  0
 34 35  2  0
 36 35  1  0
 36 40  1  0
 37 36  2  0
 38 33  2  0
 38 37  1  0
 39 38  1  0
 41 42  1  0
 42 45  1  0
 42 44  1  0
 43 41  2  0
 46 47  1  0
 46 21  1  0
 48 46  1  0
 49  6  1  0
 49 50  1  0
 51 52  1  0
 51 50  1  0
 53 54  1  0
 53 52  1  0
 55 66  2  0
 56 54  1  0
 56 61  1  0
 57 65  1  0
 57 67  1  0
 58 64  1  0
 58 60  1  0
 59 65  1  0
 60 61  2  0
 60 59  1  0
 62 63  1  0
 62 56  2  0
 63 58  2  0
 64 57  1  0
 65 55  1  0
 67 69  2  0
 68 67  1  0
 70 68  1  0
 71 80  2  0
 71 76  1  0
 72 68  1  0
 72 76  1  0
 73 72  1  0
 74 75  1  0
 74 73  1  0
 75 71  1  0
 76 77  2  0
 77 78  1  0
 79 78  2  0
 80 79  1  0
 81 55  1  0
 81 82  1  0
 81 91  1  0
 82 85  1  0
 83 87  1  0
 83 82  1  0
 84 83  2  0
 87 86  1  0
 89 87  1  0
 89 90  1  0
 89 88  1  0
 91 94  1  1
 91 92  1  0
 93 91  1  0
M  ISO  4  10 100  13 100  53 101  54 101
M  END
>  <TORSDO>  (35) 
F 23

>  <SCORE>  (35) 
-12.092

>  <name>  (35) 
34

>  <ligand_id>  (35) 
34

>  <original_smiles>  (35) 
[H]N=C(C(=O)N1C([H])([H])C([H])([H])C([H])([H])C([H])(n2nc(-c3c([H])c([H])c(Oc4c([H])c([H])c(F)c([H])c4F)c([H])c3[H])c(C(=O)N([H])[H])c2N([H])[H])C1([H])[H])c1c([H])c(OC([H])([H])C([H])([H])C([H])([H])C([H])([H])Oc2c([H])c([H])c3c(c2[H])C([H])([H])N(C(=O)C([H])(N([H])C(=O)C([H])(N([H])C([H])([H])[H])C([H])([H])[H])C(C([H])([H])[H])(C([H])([H])[H])C([H])([H])[H])C([H])(C(=O)N([H])C2([H])c4c([H])c([H])c([H])c([H])c4C([H])([H])C([H])([H])C2([H])[H])C3([H])[H])c([H])c([H])c1N([H])[H]

>  <smiles>  (35) 
[H]N=C(C(=O)N1C([H])([H])C([H])([H])C([H])([H])C([H])(n2nc(-c3c([H])c([H])c(Oc4c([H])c([H])c(F)c([H])c4F)c([H])c3[H])c(C(=O)N([H])[H])c2N([H])[H])C1([H])[H])c1c([H])c(OC([H])([H])C([H])([H])C([H])([H])C([H])([H])Oc2c([H])c([H])c3c(c2[H])C([H])([H])N(C(=O)C([H])(N([H])C(=O)C([H])(N([H])C([H])([H])[H])C([H])([H])[H])C(C([H])([H])[H])(C([H])([H])[H])C([H])([H])[H])C([H])(C(=O)N([H])C2([H])c4c([H])c([H])c([H])c([H])c4C([H])([H])C([H])([H])C2([H])[H])C3([H])[H])c([H])c([H])c1N([H])[H]

$$$$
35:0:0
     RDKit          3D

 97106  0  0  1  0  0  0  0  0999 V2000
  -30.4700  -24.2850   19.1790 C   0  0  0  0  0  0  0  0  0  0  0  0
  -31.3760  -23.1030   18.8430 C   0  0  0  0  0  2  0  0  0  0  0  0
  -31.4300  -22.0620   19.9720 C   0  0  0  0  0  2  0  0  0  0  0  0
  -28.9560  -22.4820   20.1930 C   0  0  0  0  0  2  0  0  0  0  0  0
  -29.3290  -24.0450   20.1840 C   0  0  0  0  0  3  0  0  0  0  0  0
  -30.1080  -21.5270   20.3160 N   0  0  0  0  0  0  0  0  0  0  0  0
  -30.6680  -25.3850   18.6520 O   0  0  0  0  0  0  0  0  0  0  0  0
  -28.8920  -19.3410   19.9910 C   0  0  0  0  0  3  0  0  0  0  0  0
  -31.0150  -17.8750   21.0980 C   0  0  0  0  0  3  0  0  0  0  0  0
  -30.0120  -20.0870   20.4540 C   0  0  0  0  0  0  0  0  0  0  0  0
  -28.8450  -17.9130   20.0570 C   0  0  0  0  0  0  0  0  0  0  0  0
  -29.9050  -17.1480   20.6100 C   0  0  0  0  0  0  0  0  0  0  0  0
  -31.0640  -19.2980   21.0310 C   0  0  0  0  0  0  0  0  0  0  0  0
  -32.1530  -19.9050   21.5660 F   0  0  0  0  0  0  0  0  0  0  0  0
  -30.5700  -14.6530   20.5100 C   0  0  0  0  0  0  0  0  0  0  0  0
  -30.3790  -12.4100   19.4620 C   0  0  0  0  0  2  0  0  0  0  0  0
  -29.4470  -12.5330   18.2360 C   0  0  0  0  0  2  0  0  0  0  0  0
  -27.9690  -12.3760   18.6480 C   0  0  0  0  0  2  0  0  0  0  0  0
  -27.5930  -13.2470   19.8770 C   0  0  0  0  0  3  0  0  0  0  0  0
  -28.6400  -13.0990   21.0040 C   0  0  0  0  0  2  0  0  0  0  0  0
  -29.9570  -13.4320   20.4370 N   0  0  0  0  0  0  0  0  0  0  0  0
  -31.7490  -14.8090   20.1800 O   0  0  0  0  0  0  0  0  0  0  0  0
  -29.7340  -15.7070   20.7450 N   0  0  0  0  0  0  0  0  0  0  0  0
  -28.7700  -15.4360   20.8590 H   0  0  0  0  0  0  0  0  0  0  0  0
  -25.1920  -13.8550   20.5650 C   0  0  0  0  0  0  0  0  0  0  0  0
  -24.1180  -13.0820   20.9160 C   0  0  0  0  0  0  0  0  0  0  0  0
  -24.5790  -11.7300   20.8940 C   0  0  0  0  0  0  0  0  0  0  0  0
  -26.2390  -12.9710   20.3460 N   0  0  0  0  0  0  0  0  0  0  0  0
  -25.8740  -11.6890   20.6040 N   0  0  0  0  0  0  0  0  0  0  0  0
  -23.8490  -10.4690   21.0770 C   0  0  0  0  0  0  0  0  0  0  0  0
  -24.2710   -9.5000   22.0130 C   0  0  0  0  0  3  0  0  0  0  0  0
  -23.5400   -8.3030   22.1820 C   0  0  0  0  0  3  0  0  0  0  0  0
  -22.3740   -8.0680   21.4170 C   0  0  0  0  0  0  0  0  0  0  0  0
  -21.9720   -9.0260   20.4700 C   0  0  0  0  0  3  0  0  0  0  0  0
  -22.7020  -10.2140   20.2980 C   0  0  0  0  0  3  0  0  0  0  0  0
  -21.6180   -6.9250   21.4950 O   0  0  0  0  0  0  0  0  0  0  0  0
  -21.5570   -6.1790   22.6450 C   0  0  0  0  0  0  0  0  0  0  0  0
  -21.1160   -6.7290   23.8670 C   0  0  0  0  0  3  0  0  0  0  0  0
  -21.0040   -5.9100   25.0090 C   0  0  0  0  0  3  0  0  0  0  0  0
  -21.3230   -4.5410   24.9280 C   0  0  0  0  0  0  0  0  0  0  0  0
  -21.7580   -3.9900   23.7100 C   0  0  0  0  0  3  0  0  0  0  0  0
  -21.8710   -4.8060   22.5700 C   0  0  0  0  0  0  0  0  0  0  0  0
  -22.2700   -4.2660   21.3940 F   0  0  0  0  0  0  0  0  0  0  0  0
  -21.2080   -3.7520   26.0210 F   0  0  0  0  0  0  0  0  0  0  0  0
  -22.7170  -13.5610   21.1690 C   0  0  0  0  0  0  0  0  0  0  0  0
  -21.9770  -12.8660   22.0250 N   0  0  0  0  0  0  0  0  0  0  0  0
  -22.2880  -14.5870   20.6440 O   0  0  0  0  0  0  0  0  0  0  0  0
  -22.3360  -12.0350   22.4710 H   0  0  0  0  0  0  0  0  0  0  0  0
  -21.0370  -13.1680   22.2370 H   0  0  0  0  0  0  0  0  0  0  0  0
  -25.3530  -15.2270   20.3980 N   0  0  0  0  0  0  0  0  0  0  0  0
  -24.5770  -15.8660   20.5270 H   0  0  0  0  0  0  0  0  0  0  0  0
  -26.2130  -15.7170   20.1600 H   0  0  0  0  0  0  0  0  0  0  0  0
  -27.7440  -17.2320   19.5340 N   0  0  0  0  0  0  0  0  0  0  0  0
  -27.0970  -17.8100   19.0080 H   0  0  0  0  0  0  0  0  0  0  0  0
  -28.0020  -16.4250   18.9780 H   0  0  0  0  0  0  0  0  0  0  0  0
  -28.1330  -25.0660   19.9310 C   0  0  0  0  0  2  0  0  0  0  0  0
  -28.3120  -26.5150   20.1820 O   0  0  0  0  0  0  0  0  0  0  0  0
  -24.5910  -31.8760   23.2550 C   0  0  0  0  0  0  0  0  0  0  0  0
  -27.1800  -27.3450   20.1490 C   0  0  0  0  0  0  0  0  0  0  0  0
  -23.3730  -30.4890   21.6160 C   0  0  0  0  0  3  0  0  0  0  0  0
  -24.8100  -28.9480   20.1710 C   0  0  0  0  0  0  0  0  0  0  0  0
  -25.9100  -30.8090   21.4140 C   0  0  0  0  0  2  0  0  0  0  0  0
  -25.9840  -29.4350   20.7590 C   0  0  0  0  0  0  0  0  0  0  0  0
  -27.1710  -28.6460   20.7380 C   0  0  0  0  0  3  0  0  0  0  0  0
  -25.9770  -26.9060   19.5440 C   0  0  0  0  0  3  0  0  0  0  0  0
  -24.8080  -27.6880   19.5570 C   0  0  0  0  0  3  0  0  0  0  0  0
  -23.5740  -29.8210   20.2310 C   0  0  0  0  0  2  0  0  0  0  0  0
  -24.6440  -31.0740   22.1520 N   0  0  0  0  0  0  0  0  0  0  0  0
  -23.5110  -32.1510   23.7990 O   0  0  0  0  0  0  0  0  0  0  0  0
  -22.7170  -29.4660   22.5750 C   0  0  0  0  0  0  0  0  0  0  0  0
  -21.3920  -29.2840   22.4480 N   0  0  0  0  0  0  0  0  0  0  0  0
  -23.3990  -28.8400   23.3900 O   0  0  0  0  0  0  0  0  0  0  0  0
  -20.9020  -29.8400   21.7630 H   0  0  0  0  0  0  0  0  0  0  0  0
  -18.0200  -28.0710   22.9400 C   0  0  0  0  0  0  0  0  0  0  0  0
  -20.5750  -28.3430   23.2180 C   0  0  0  0  0  3  0  0  0  0  0  0
  -20.6850  -26.9110   22.6440 C   0  0  0  0  0  2  0  0  0  0  0  0
  -19.5880  -26.5820   21.6270 C   0  0  0  0  0  2  0  0  0  0  0  0
  -18.2040  -26.7220   22.2670 C   0  0  0  0  0  2  0  0  0  0  0  0
  -19.1330  -28.8390   23.3720 C   0  0  0  0  0  0  0  0  0  0  0  0
  -18.9070  -30.1020   23.9620 C   0  0  0  0  0  3  0  0  0  0  0  0
  -17.5990  -30.5980   24.1230 C   0  0  0  0  0  3  0  0  0  0  0  0
  -16.4990  -29.8270   23.7070 C   0  0  0  0  0  3  0  0  0  0  0  0
  -16.7100  -28.5650   23.1220 C   0  0  0  0  0  3  0  0  0  0  0  0
  -25.8790  -32.5020   23.8720 C   0  0  0  0  0  3  0  0  0  0  0  0
  -26.3940  -31.7300   25.1490 C   0  0  1  0  0  0  0  0  0  0  0  0
  -25.3030  -31.5020   26.2200 C   0  0  0  0  0  1  0  0  0  0  0  0
  -26.9680  -30.3490   24.7580 C   0  0  0  0  0  1  0  0  0  0  0  0
  -27.5520  -32.5190   25.8050 C   0  0  0  0  0  1  0  0  0  0  0  0
  -25.5780  -33.9020   24.2010 N   0  0  0  0  0  0  0  0  0  0  0  0
  -25.8950  -34.9510   23.4300 C   0  0  0  0  0  0  0  0  0  0  0  0
  -26.5430  -34.8410   22.3850 O   0  0  0  0  0  0  0  0  0  0  0  0
  -25.0000  -34.0620   25.0140 H   0  0  0  0  0  0  0  0  0  0  0  0
  -24.1560  -36.7400   23.1100 C   0  0  0  0  0  1  0  0  0  0  0  0
  -25.4190  -36.3430   23.8890 C   0  0  0  0  0  3  0  0  0  0  0  0
  -27.5740  -37.2360   24.6540 C   0  0  0  0  0  1  0  0  0  0  0  0
  -26.4470  -37.3950   23.7400 N   0  0  0  0  0  0  0  0  0  0  0  0
  -26.0440  -38.3170   23.8900 H   0  0  0  0  0  0  0  0  0  0  0  0
  1  5  1  0
  2  1  1  0
  2  3  1  0
  3  6  1  0
  4  6  1  0
  5 56  1  0
  5  4  1  0
  6 10  1  0
  7  1  2  0
  8 11  2  0
  8 10  1  0
 10 13  2  0
 11 12  1  0
 12 23  1  0
 12  9  2  0
 13  9  1  0
 13 14  1  0
 15 23  1  0
 16 21  1  0
 17 18  1  0
 17 16  1  0
 19 18  1  0
 19 28  1  0
 19 20  1  0
 21 15  1  0
 21 20  1  0
 22 15  2  0
 23 24  1  0
 25 26  2  0
 26 45  1  0
 27 26  1  0
 27 30  1  0
 28 25  1  0
 28 29  1  0
 29 27  2  0
 30 31  1  0
 31 32  2  0
 33 36  1  0
 33 32  1  0
 34 33  2  0
 35 34  1  0
 35 30  2  0
 36 37  1  0
 37 38  1  0
 38 39  2  0
 40 39  1  0
 40 44  1  0
 41 40  2  0
 42 37  2  0
 42 41  1  0
 43 42  1  0
 45 46  1  0
 46 49  1  0
 46 48  1  0
 47 45  2  0
 50 51  1  0
 50 25  1  0
 52 50  1  0
 53 11  1  0
 54 53  1  0
 55 53  1  0
 56 57  1  0
 58 69  2  0
 59 57  1  0
 59 64  1  0
 60 68  1  0
 60 70  1  0
 61 67  1  0
 61 63  1  0
 62 68  1  0
 63 62  1  0
 64 63  2  0
 65 66  1  0
 65 59  2  0
 66 61  2  0
 67 60  1  0
 68 58  1  0
 70 72  2  0
 71 70  1  0
 73 71  1  0
 74 83  2  0
 74 79  1  0
 75 71  1  0
 75 79  1  0
 76 75  1  0
 77 78  1  0
 77 76  1  0
 78 74  1  0
 79 80  2  0
 80 81  1  0
 82 81  2  0
 83 82  1  0
 84 58  1  0
 84 89  1  0
 84 85  1  0
 85 88  1  1
 85 86  1  0
 87 85  1  0
 89 92  1  0
 90 94  1  0
 90 89  1  0
 91 90  2  0
 94 93  1  0
 96 94  1  0
 96 97  1  0
 96 95  1  0
M  ISO  4  15 100  23 100  56 101  57 101
M  END
>  <TORSDO>  (36) 
F 19

>  <SCORE>  (36) 
-14.864

>  <name>  (36) 
35

>  <ligand_id>  (36) 
35

>  <original_smiles>  (36) 
[H]c1c([H])c([H])c2c(c1[H])C([H])([H])C([H])([H])C([H])([H])C2([H])N([H])C(=O)C1([H])N(C(=O)C([H])(N([H])C(=O)C([H])(N([H])C([H])([H])[H])C([H])([H])[H])C(C([H])([H])[H])(C([H])([H])[H])C([H])([H])[H])C([H])([H])c2c([H])c(OC([H])([H])C3([H])C(=O)C([H])([H])C([H])([H])N(c4c([H])c(N([H])[H])c(N([H])C(=O)N5C([H])([H])C([H])([H])C([H])([H])C([H])(n6nc(-c7c([H])c([H])c(Oc8c([H])c([H])c(F)c([H])c8F)c([H])c7[H])c(C(=O)N([H])[H])c6N([H])[H])C5([H])[H])c([H])c4F)C3([H])[H])c([H])c([H])c2C1([H])[H]

>  <smiles>  (36) 
[H]c1c([H])c([H])c2c(c1[H])C([H])([H])C([H])([H])C([H])([H])C2([H])N([H])C(=O)C1([H])N(C(=O)C([H])(N([H])C(=O)C([H])(N([H])C([H])([H])[H])C([H])([H])[H])C(C([H])([H])[H])(C([H])([H])[H])C([H])([H])[H])C([H])([H])c2c([H])c(OC([H])([H])C3([H])C(=O)C([H])([H])C([H])([H])N(c4c([H])c(N([H])[H])c(N([H])C(=O)N5C([H])([H])C([H])([H])C([H])([H])C([H])(n6nc(-c7c([H])c([H])c(Oc8c([H])c([H])c(F)c([H])c8F)c([H])c7[H])c(C(=O)N([H])[H])c6N([H])[H])C5([H])[H])c([H])c4F)C3([H])[H])c([H])c([H])c2C1([H])[H]

$$$$
36:0:0
     RDKit          3D

 94102  0  0  1  0  0  0  0  0999 V2000
  -30.2020  -18.5200   20.1020 C   0  0  0  0  0  3  0  0  0  0  0  0
  -30.7980  -20.4630   22.0370 C   0  0  0  0  0  3  0  0  0  0  0  0
  -30.6210  -18.0940   21.3880 C   0  0  0  0  0  0  0  0  0  0  0  0
  -30.8940  -19.0910   22.3650 C   0  0  0  0  0  0  0  0  0  0  0  0
  -30.1050  -19.9020   19.7820 C   0  0  0  0  0  0  0  0  0  0  0  0
  -30.4250  -20.8880   20.7500 C   0  0  0  0  0  0  0  0  0  0  0  0
  -31.3210  -18.7230   23.7780 C   0  0  0  0  0  1  0  0  0  0  0  0
  -29.7510  -20.2980   18.4940 N   0  0  0  0  0  0  0  0  0  0  0  0
  -29.8260  -19.6230   17.7420 H   0  0  0  0  0  0  0  0  0  0  0  0
  -30.0650  -21.2230   18.2180 H   0  0  0  0  0  0  0  0  0  0  0  0
  -30.8800  -16.6100   21.7380 C   0  0  0  0  0  2  0  0  0  0  0  0
  -30.8440  -14.5550   20.3030 C   0  0  0  0  0  0  0  0  0  0  0  0
  -30.4990  -12.4150   19.1070 C   0  0  0  0  0  2  0  0  0  0  0  0
  -29.5370  -12.6160   17.9200 C   0  0  0  0  0  2  0  0  0  0  0  0
  -28.0680  -12.4890   18.3720 C   0  0  0  0  0  2  0  0  0  0  0  0
  -27.7580  -13.3310   19.6390 C   0  0  0  0  0  3  0  0  0  0  0  0
  -28.8260  -13.0960   20.7300 C   0  0  0  0  0  2  0  0  0  0  0  0
  -30.1390  -13.4000   20.1380 N   0  0  0  0  0  0  0  0  0  0  0  0
  -31.9640  -14.7280   19.8180 O   0  0  0  0  0  0  0  0  0  0  0  0
  -30.2170  -15.5330   20.9860 N   0  0  0  0  0  0  0  0  0  0  0  0
  -29.2680  -15.3300   21.2600 H   0  0  0  0  0  0  0  0  0  0  0  0
  -25.3770  -13.9670   20.3820 C   0  0  0  0  0  0  0  0  0  0  0  0
  -24.3040  -13.2090   20.7640 C   0  0  0  0  0  0  0  0  0  0  0  0
  -24.7480  -11.8510   20.7270 C   0  0  0  0  0  0  0  0  0  0  0  0
  -26.4080  -13.0740   20.1390 N   0  0  0  0  0  0  0  0  0  0  0  0
  -26.0340  -11.7950   20.4030 N   0  0  0  0  0  0  0  0  0  0  0  0
  -24.0080  -10.5980   20.9250 C   0  0  0  0  0  0  0  0  0  0  0  0
  -24.4210   -9.6380   21.8750 C   0  0  0  0  0  3  0  0  0  0  0  0
  -23.6830   -8.4490   22.0590 C   0  0  0  0  0  3  0  0  0  0  0  0
  -22.5160   -8.2130   21.2930 C   0  0  0  0  0  0  0  0  0  0  0  0
  -22.1220   -9.1610   20.3330 C   0  0  0  0  0  3  0  0  0  0  0  0
  -22.8610  -10.3410   20.1470 C   0  0  0  0  0  3  0  0  0  0  0  0
  -21.7500   -7.0760   21.3860 O   0  0  0  0  0  0  0  0  0  0  0  0
  -21.6550   -6.3650   22.5560 C   0  0  0  0  0  0  0  0  0  0  0  0
  -21.1500   -6.9450   23.7400 C   0  0  0  0  0  3  0  0  0  0  0  0
  -21.0040   -6.1600   24.9010 C   0  0  0  0  0  3  0  0  0  0  0  0
  -21.3520   -4.7970   24.8780 C   0  0  0  0  0  0  0  0  0  0  0  0
  -21.8510   -4.2170   23.6980 C   0  0  0  0  0  3  0  0  0  0  0  0
  -21.9980   -4.9980   22.5400 C   0  0  0  0  0  0  0  0  0  0  0  0
  -22.4590   -4.4300   21.4000 F   0  0  0  0  0  0  0  0  0  0  0  0
  -21.2050   -4.0400   25.9910 F   0  0  0  0  0  0  0  0  0  0  0  0
  -22.9160  -13.7030   21.0550 C   0  0  0  0  0  0  0  0  0  0  0  0
  -22.1910  -13.0150   21.9300 N   0  0  0  0  0  0  0  0  0  0  0  0
  -22.4840  -14.7340   20.5400 O   0  0  0  0  0  0  0  0  0  0  0  0
  -22.5540  -12.1820   22.3670 H   0  0  0  0  0  0  0  0  0  0  0  0
  -21.2600  -13.3280   22.1670 H   0  0  0  0  0  0  0  0  0  0  0  0
  -25.5570  -15.3350   20.2020 N   0  0  0  0  0  0  0  0  0  0  0  0
  -24.8000  -16.0000   20.3200 H   0  0  0  0  0  0  0  0  0  0  0  0
  -26.4080  -15.7620   19.8570 H   0  0  0  0  0  0  0  0  0  0  0  0
  -30.5140  -22.2400   20.4570 O   0  0  0  0  0  0  0  0  0  0  0  0
  -29.3000  -22.9560   20.2150 C   0  0  0  0  0  2  0  0  0  0  0  0
  -29.5380  -24.4880   20.3300 C   0  0  0  0  0  2  0  0  0  0  0  0
  -28.2950  -25.3280   19.9510 C   0  0  0  0  0  2  0  0  0  0  0  0
  -28.4050  -26.7350   20.2570 O   0  0  0  0  0  0  0  0  0  0  0  0
  -24.5630  -31.9130   23.3260 C   0  0  0  0  0  0  0  0  0  0  0  0
  -27.2340  -27.4800   20.2250 C   0  0  0  0  0  0  0  0  0  0  0  0
  -23.3740  -30.5270   21.6610 C   0  0  0  0  0  3  0  0  0  0  0  0
  -24.8400  -29.0050   20.2320 C   0  0  0  0  0  0  0  0  0  0  0  0
  -25.9060  -30.8800   21.4950 C   0  0  0  0  0  2  0  0  0  0  0  0
  -25.9950  -29.5150   20.8370 C   0  0  0  0  0  0  0  0  0  0  0  0
  -27.1940  -28.7620   20.8290 C   0  0  0  0  0  3  0  0  0  0  0  0
  -26.0540  -26.9960   19.6090 C   0  0  0  0  0  3  0  0  0  0  0  0
  -24.8650  -27.7460   19.6140 C   0  0  0  0  0  3  0  0  0  0  0  0
  -23.5960  -29.8630   20.2760 C   0  0  0  0  0  2  0  0  0  0  0  0
  -24.6320  -31.1210   22.2190 N   0  0  0  0  0  0  0  0  0  0  0  0
  -23.4780  -32.1830   23.8580 O   0  0  0  0  0  0  0  0  0  0  0  0
  -22.7120  -29.4970   22.6040 C   0  0  0  0  0  0  0  0  0  0  0  0
  -21.3940  -29.2970   22.4430 N   0  0  0  0  0  0  0  0  0  0  0  0
  -23.3810  -28.8810   23.4360 O   0  0  0  0  0  0  0  0  0  0  0  0
  -20.9140  -29.8430   21.7420 H   0  0  0  0  0  0  0  0  0  0  0  0
  -18.0260  -28.0560   22.8530 C   0  0  0  0  0  0  0  0  0  0  0  0
  -20.5710  -28.3490   23.1940 C   0  0  0  0  0  3  0  0  0  0  0  0
  -20.7110  -26.9190   22.6230 C   0  0  0  0  0  2  0  0  0  0  0  0
  -19.6410  -26.5810   21.5800 C   0  0  0  0  0  2  0  0  0  0  0  0
  -18.2390  -26.7070   22.1870 C   0  0  0  0  0  2  0  0  0  0  0  0
  -19.1220  -28.8330   23.3130 C   0  0  0  0  0  0  0  0  0  0  0  0
  -18.8710  -30.0940   23.8940 C   0  0  0  0  0  3  0  0  0  0  0  0
  -17.5570  -30.5780   24.0270 C   0  0  0  0  0  3  0  0  0  0  0  0
  -16.4730  -29.7980   23.5870 C   0  0  0  0  0  3  0  0  0  0  0  0
  -16.7090  -28.5390   23.0050 C   0  0  0  0  0  3  0  0  0  0  0  0
  -25.8430  -32.5370   23.9630 C   0  0  0  0  0  3  0  0  0  0  0  0
  -25.5500  -33.9470   24.2520 N   0  0  0  0  0  0  0  0  0  0  0  0
  -25.9020  -34.9740   23.4670 C   0  0  0  0  0  0  0  0  0  0  0  0
  -26.5780  -34.8340   22.4440 O   0  0  0  0  0  0  0  0  0  0  0  0
  -24.9470  -34.1300   25.0410 H   0  0  0  0  0  0  0  0  0  0  0  0
  -24.1980  -36.7760   23.0490 C   0  0  0  0  0  1  0  0  0  0  0  0
  -25.4280  -36.3800   23.8810 C   0  0  0  0  0  3  0  0  0  0  0  0
  -27.5600  -37.2700   24.7090 C   0  0  0  0  0  1  0  0  0  0  0  0
  -26.4730  -37.4170   23.7460 N   0  0  0  0  0  0  0  0  0  0  0  0
  -26.0760  -38.3460   23.8570 H   0  0  0  0  0  0  0  0  0  0  0  0
  -26.3180  -31.7880   25.2680 C   0  0  1  0  0  0  0  0  0  0  0  0
  -25.1930  -31.5870   26.3120 C   0  0  0  0  0  1  0  0  0  0  0  0
  -26.8910  -30.3940   24.9200 C   0  0  0  0  0  1  0  0  0  0  0  0
  -27.4590  -32.5820   25.9430 C   0  0  0  0  0  1  0  0  0  0  0  0
  1  3  1  0
  2  4  1  0
  3 11  1  0
  3  4  2  0
  4  7  1  0
  5  1  2  0
  5  6  1  0
  6  2  2  0
  8  5  1  0
  9  8  1  0
 10  8  1  0
 12 20  1  0
 13 18  1  0
 14 15  1  0
 14 13  1  0
 16 15  1  0
 16 25  1  0
 16 17  1  0
 18 12  1  0
 18 17  1  0
 19 12  2  0
 20 21  1  0
 20 11  1  0
 22 23  2  0
 23 42  1  0
 24 23  1  0
 24 27  1  0
 25 22  1  0
 25 26  1  0
 26 24  2  0
 27 28  1  0
 28 29  2  0
 30 33  1  0
 30 29  1  0
 31 30  2  0
 32 31  1  0
 32 27  2  0
 33 34  1  0
 34 35  1  0
 35 36  2  0
 37 36  1  0
 37 41  1  0
 38 37  2  0
 39 34  2  0
 39 38  1  0
 40 39  1  0
 42 43  1  0
 43 46  1  0
 43 45  1  0
 44 42  2  0
 47 48  1  0
 47 22  1  0
 49 47  1  0
 50  6  1  0
 51 52  1  0
 51 50  1  0
 53 54  1  0
 53 52  1  0
 55 66  2  0
 56 54  1  0
 56 61  1  0
 57 65  1  0
 57 67  1  0
 58 64  1  0
 58 60  1  0
 59 65  1  0
 60 59  1  0
 61 60  2  0
 62 63  1  0
 62 56  2  0
 63 58  2  0
 64 57  1  0
 65 55  1  0
 67 69  2  0
 68 67  1  0
 70 68  1  0
 71 80  2  0
 71 76  1  0
 72 68  1  0
 72 76  1  0
 73 72  1  0
 74 75  1  0
 74 73  1  0
 75 71  1  0
 76 77  2  0
 77 78  1  0
 79 78  2  0
 80 79  1  0
 81 55  1  0
 81 82  1  0
 81 91  1  0
 82 85  1  0
 83 87  1  0
 83 82  1  0
 84 83  2  0
 87 86  1  0
 89 90  1  0
 89 87  1  0
 89 88  1  0
 91 94  1  1
 91 92  1  0
 93 91  1  0
M  ISO  4  12 100  20 100  53 101  54 101
M  END
>  <TORSDO>  (37) 
F 22

>  <SCORE>  (37) 
-12.940

>  <name>  (37) 
36

>  <ligand_id>  (37) 
36

>  <original_smiles>  (37) 
[H]c1c([H])c([H])c2c(c1[H])C([H])([H])C([H])([H])C([H])([H])C2([H])N([H])C(=O)C1([H])N(C(=O)C([H])(N([H])C(=O)C([H])(N([H])C([H])([H])[H])C([H])([H])[H])C(C([H])([H])[H])(C([H])([H])[H])C([H])([H])[H])C([H])([H])c2c([H])c(OC([H])([H])C([H])([H])C([H])([H])Oc3c([H])c(C([H])([H])[H])c(C([H])([H])N([H])C(=O)N4C([H])([H])C([H])([H])C([H])([H])C([H])(n5nc(-c6c([H])c([H])c(Oc7c([H])c([H])c(F)c([H])c7F)c([H])c6[H])c(C(=O)N([H])[H])c5N([H])[H])C4([H])[H])c([H])c3N([H])[H])c([H])c([H])c2C1([H])[H]

>  <smiles>  (37) 
[H]c1c([H])c([H])c2c(c1[H])C([H])([H])C([H])([H])C([H])([H])C2([H])N([H])C(=O)C1([H])N(C(=O)C([H])(N([H])C(=O)C([H])(N([H])C([H])([H])[H])C([H])([H])[H])C(C([H])([H])[H])(C([H])([H])[H])C([H])([H])[H])C([H])([H])c2c([H])c(OC([H])([H])C([H])([H])C([H])([H])Oc3c([H])c(C([H])([H])[H])c(C([H])([H])N([H])C(=O)N4C([H])([H])C([H])([H])C([H])([H])C([H])(n5nc(-c6c([H])c([H])c(Oc7c([H])c([H])c(F)c([H])c7F)c([H])c6[H])c(C(=O)N([H])[H])c5N([H])[H])C4([H])[H])c([H])c3N([H])[H])c([H])c([H])c2C1([H])[H]

$$$$
37:0:0
     RDKit          3D

 92100  0  0  1  0  0  0  0  0999 V2000
  -28.2330  -19.9970   20.3870 C   0  0  0  0  0  3  0  0  0  0  0  0
  -28.7180  -18.6740   20.5780 C   0  0  0  0  0  3  0  0  0  0  0  0
  -29.1220  -21.0900   20.1790 C   0  0  0  0  0  0  0  0  0  0  0  0
  -30.1080  -18.4410   20.5650 C   0  0  0  0  0  0  0  0  0  0  0  0
  -30.4930  -20.7400   20.1700 C   0  0  0  0  0  0  0  0  0  0  0  0
  -30.9590  -19.4830   20.3640 N   0  0  0  0  0  0  0  0  0  0  0  0
  -31.4790  -21.6730   19.9110 N   0  0  0  0  0  0  0  0  0  0  0  0
  -31.2750  -22.6630   19.8890 H   0  0  0  0  0  0  0  0  0  0  0  0
  -32.4560  -21.4270   20.0050 H   0  0  0  0  0  0  0  0  0  0  0  0
  -28.5440  -22.4990   19.7900 C   0  0  0  0  0  2  0  0  0  0  0  0
  -28.9390  -23.8700   20.4940 C   0  0  0  0  0  2  0  0  0  0  0  0
  -28.0710  -25.0840   19.9570 C   0  0  0  0  0  2  0  0  0  0  0  0
  -28.3200  -26.5040   20.2950 O   0  0  0  0  0  0  0  0  0  0  0  0
  -24.5270  -31.8820   23.2090 C   0  0  0  0  0  0  0  0  0  0  0  0
  -27.2240  -27.3770   20.1770 C   0  0  0  0  0  0  0  0  0  0  0  0
  -23.3680  -30.4940   21.5330 C   0  0  0  0  0  3  0  0  0  0  0  0
  -24.8590  -28.9830   20.1160 C   0  0  0  0  0  0  0  0  0  0  0  0
  -25.9090  -30.8350   21.4060 C   0  0  0  0  0  2  0  0  0  0  0  0
  -26.0110  -29.4660   20.7490 C   0  0  0  0  0  0  0  0  0  0  0  0
  -27.1970  -28.6740   20.7770 C   0  0  0  0  0  3  0  0  0  0  0  0
  -26.0560  -26.9690   19.4850 C   0  0  0  0  0  3  0  0  0  0  0  0
  -24.8840  -27.7400   19.4730 C   0  0  0  0  0  3  0  0  0  0  0  0
  -23.6140  -29.8420   20.1490 C   0  0  0  0  0  2  0  0  0  0  0  0
  -24.6190  -31.0850   22.1070 N   0  0  0  0  0  0  0  0  0  0  0  0
  -23.4310  -32.1480   23.7220 O   0  0  0  0  0  0  0  0  0  0  0  0
  -22.6940  -29.4570   22.4650 C   0  0  0  0  0  0  0  0  0  0  0  0
  -21.3710  -29.2800   22.3160 N   0  0  0  0  0  0  0  0  0  0  0  0
  -23.3600  -28.8180   23.2840 O   0  0  0  0  0  0  0  0  0  0  0  0
  -20.8910  -29.8480   21.6290 H   0  0  0  0  0  0  0  0  0  0  0  0
  -17.9680  -28.1620   22.8200 C   0  0  0  0  0  0  0  0  0  0  0  0
  -20.5370  -28.3330   23.0580 C   0  0  0  0  0  3  0  0  0  0  0  0
  -20.5890  -26.9260   22.4190 C   0  0  0  0  0  2  0  0  0  0  0  0
  -19.4610  -26.6800   21.4120 C   0  0  0  0  0  2  0  0  0  0  0  0
  -18.0950  -26.8360   22.0850 C   0  0  0  0  0  2  0  0  0  0  0  0
  -19.1160  -28.8720   23.2630 C   0  0  0  0  0  0  0  0  0  0  0  0
  -18.9440  -30.1150   23.9080 C   0  0  0  0  0  3  0  0  0  0  0  0
  -17.6580  -30.6460   24.1190 C   0  0  0  0  0  3  0  0  0  0  0  0
  -16.5250  -29.9300   23.6950 C   0  0  0  0  0  3  0  0  0  0  0  0
  -16.6810  -28.6900   23.0490 C   0  0  0  0  0  3  0  0  0  0  0  0
  -25.7920  -32.5160   23.8650 C   0  0  0  0  0  3  0  0  0  0  0  0
  -25.4710  -33.9140   24.1870 N   0  0  0  0  0  0  0  0  0  0  0  0
  -25.8370  -34.9690   23.4480 C   0  0  0  0  0  0  0  0  0  0  0  0
  -26.5480  -34.8680   22.4440 O   0  0  0  0  0  0  0  0  0  0  0  0
  -24.8430  -34.0660   24.9630 H   0  0  0  0  0  0  0  0  0  0  0  0
  -24.1630  -36.7890   22.9930 C   0  0  0  0  0  1  0  0  0  0  0  0
  -25.3340  -36.3560   23.8890 C   0  0  0  0  0  3  0  0  0  0  0  0
  -27.3980  -37.2110   24.9090 C   0  0  0  0  0  1  0  0  0  0  0  0
  -26.3860  -37.3960   23.8730 N   0  0  0  0  0  0  0  0  0  0  0  0
  -25.9800  -38.3210   23.9900 H   0  0  0  0  0  0  0  0  0  0  0  0
  -26.2740  -31.7440   25.1540 C   0  0  1  0  0  0  0  0  0  0  0  0
  -25.1450  -31.4890   26.1790 C   0  0  0  0  0  1  0  0  0  0  0  0
  -26.8860  -30.3760   24.7750 C   0  0  0  0  0  1  0  0  0  0  0  0
  -27.3900  -32.5480   25.8600 C   0  0  0  0  0  1  0  0  0  0  0  0
  -30.7850  -17.0740   20.8830 C   0  0  0  0  0  2  0  0  0  0  0  0
  -30.7970  -14.6610   20.1430 C   0  0  0  0  0  0  0  0  0  0  0  0
  -30.4610  -12.4630   19.0450 C   0  0  0  0  0  2  0  0  0  0  0  0
  -29.4670  -12.6260   17.8780 C   0  0  0  0  0  2  0  0  0  0  0  0
  -28.0170  -12.4770   18.3760 C   0  0  0  0  0  2  0  0  0  0  0  0
  -27.7250  -13.3160   19.6510 C   0  0  0  0  0  3  0  0  0  0  0  0
  -28.8390  -13.1560   20.7080 C   0  0  0  0  0  2  0  0  0  0  0  0
  -30.1140  -13.4800   20.0570 N   0  0  0  0  0  0  0  0  0  0  0  0
  -31.9440  -14.7630   19.7060 O   0  0  0  0  0  0  0  0  0  0  0  0
  -30.1290  -15.7620   20.5870 N   0  0  0  0  0  0  0  0  0  0  0  0
  -29.1600  -15.6600   20.8440 H   0  0  0  0  0  0  0  0  0  0  0  0
  -25.3800  -13.9000   20.5190 C   0  0  0  0  0  0  0  0  0  0  0  0
  -24.3310  -13.1180   20.9220 C   0  0  0  0  0  0  0  0  0  0  0  0
  -24.7830  -11.7670   20.8260 C   0  0  0  0  0  0  0  0  0  0  0  0
  -26.4050  -13.0230   20.2010 N   0  0  0  0  0  0  0  0  0  0  0  0
  -26.0550  -11.7340   20.4460 N   0  0  0  0  0  0  0  0  0  0  0  0
  -24.0620  -10.5030   21.0160 C   0  0  0  0  0  0  0  0  0  0  0  0
  -24.5080   -9.5270   21.9330 C   0  0  0  0  0  3  0  0  0  0  0  0
  -23.7850   -8.3270   22.1120 C   0  0  0  0  0  3  0  0  0  0  0  0
  -22.6010   -8.0950   21.3710 C   0  0  0  0  0  0  0  0  0  0  0  0
  -22.1750   -9.0590   20.4410 C   0  0  0  0  0  3  0  0  0  0  0  0
  -22.8980  -10.2490   20.2620 C   0  0  0  0  0  3  0  0  0  0  0  0
  -21.8510   -6.9470   21.4590 O   0  0  0  0  0  0  0  0  0  0  0  0
  -21.7750   -6.2230   22.6210 C   0  0  0  0  0  0  0  0  0  0  0  0
  -21.2320   -6.7700   23.8060 C   0  0  0  0  0  3  0  0  0  0  0  0
  -21.1090   -5.9690   24.9590 C   0  0  0  0  0  3  0  0  0  0  0  0
  -21.5180   -4.6220   24.9290 C   0  0  0  0  0  0  0  0  0  0  0  0
  -22.0530   -4.0750   23.7490 C   0  0  0  0  0  3  0  0  0  0  0  0
  -22.1770   -4.8730   22.5990 C   0  0  0  0  0  0  0  0  0  0  0  0
  -22.6740   -4.3350   21.4580 F   0  0  0  0  0  0  0  0  0  0  0  0
  -21.3930   -3.8510   26.0330 F   0  0  0  0  0  0  0  0  0  0  0  0
  -22.9530  -13.5910   21.2820 C   0  0  0  0  0  0  0  0  0  0  0  0
  -22.2630  -12.8700   22.1590 N   0  0  0  0  0  0  0  0  0  0  0  0
  -22.4960  -14.6360   20.8210 O   0  0  0  0  0  0  0  0  0  0  0  0
  -22.6460  -12.0250   22.5570 H   0  0  0  0  0  0  0  0  0  0  0  0
  -21.3400  -13.1700   22.4380 H   0  0  0  0  0  0  0  0  0  0  0  0
  -25.5400  -15.2760   20.3740 N   0  0  0  0  0  0  0  0  0  0  0  0
  -24.7760  -15.9230   20.5420 H   0  0  0  0  0  0  0  0  0  0  0  0
  -26.3570  -15.7250   19.9800 H   0  0  0  0  0  0  0  0  0  0  0  0
  1  2  1  0
  3  1  2  0
  4  2  2  0
  4 54  1  0
  5  3  1  0
  5  6  2  0
  6  4  1  0
  7  9  1  0
  7  5  1  0
  8  7  1  0
 10  3  1  0
 10 11  1  0
 12 13  1  0
 12 11  1  0
 14 25  2  0
 15 13  1  0
 15 20  1  0
 16 24  1  0
 16 26  1  0
 17 23  1  0
 17 19  1  0
 18 24  1  0
 19 20  2  0
 19 18  1  0
 21 15  2  0
 22 21  1  0
 22 17  2  0
 23 16  1  0
 24 14  1  0
 26 28  2  0
 27 26  1  0
 29 27  1  0
 30 39  2  0
 30 35  1  0
 31 27  1  0
 31 35  1  0
 32 31  1  0
 33 34  1  0
 33 32  1  0
 34 30  1  0
 35 36  2  0
 36 37  1  0
 38 37  2  0
 39 38  1  0
 40 14  1  0
 40 41  1  0
 40 50  1  0
 41 44  1  0
 42 46  1  0
 42 41  1  0
 43 42  2  0
 46 45  1  0
 48 46  1  0
 48 49  1  0
 48 47  1  0
 50 53  1  1
 50 51  1  0
 52 50  1  0
 55 63  1  0
 56 61  1  0
 57 58  1  0
 57 56  1  0
 59 58  1  0
 59 68  1  0
 59 60  1  0
 61 55  1  0
 61 60  1  0
 62 55  2  0
 63 64  1  0
 63 54  1  0
 65 66  2  0
 66 85  1  0
 67 66  1  0
 67 70  1  0
 68 69  1  0
 68 65  1  0
 69 67  2  0
 70 71  1  0
 71 72  2  0
 73 76  1  0
 73 72  1  0
 74 73  2  0
 75 74  1  0
 75 70  2  0
 76 77  1  0
 77 78  1  0
 78 79  2  0
 80 79  1  0
 80 84  1  0
 81 80  2  0
 82 77  2  0
 82 81  1  0
 83 82  1  0
 85 86  1  0
 86 89  1  0
 86 88  1  0
 87 85  2  0
 90 65  1  0
 90 91  1  0
 92 90  1  0
M  ISO  4  12 101  13 101  55 100  63 100
M  END
>  <TORSDO>  (38) 
F 21

>  <SCORE>  (38) 
-13.634

>  <name>  (38) 
37

>  <ligand_id>  (38) 
37

>  <original_smiles>  (38) 
[H]c1c(C([H])([H])N([H])C(=O)N2C([H])([H])C([H])([H])C([H])([H])C([H])(n3nc(-c4c([H])c([H])c(Oc5c([H])c([H])c(F)c([H])c5F)c([H])c4[H])c(C(=O)N([H])[H])c3N([H])[H])C2([H])[H])nc(N([H])[H])c(C([H])([H])C([H])([H])C([H])([H])Oc2c([H])c([H])c3c(c2[H])C([H])([H])N(C(=O)C([H])(N([H])C(=O)C([H])(N([H])C([H])([H])[H])C([H])([H])[H])C(C([H])([H])[H])(C([H])([H])[H])C([H])([H])[H])C([H])(C(=O)N([H])C2([H])c4c([H])c([H])c([H])c([H])c4C([H])([H])C([H])([H])C2([H])[H])C3([H])[H])c1[H]

>  <smiles>  (38) 
[H]c1c(C([H])([H])N([H])C(=O)N2C([H])([H])C([H])([H])C([H])([H])C([H])(n3nc(-c4c([H])c([H])c(Oc5c([H])c([H])c(F)c([H])c5F)c([H])c4[H])c(C(=O)N([H])[H])c3N([H])[H])C2([H])[H])nc(N([H])[H])c(C([H])([H])C([H])([H])C([H])([H])Oc2c([H])c([H])c3c(c2[H])C([H])([H])N(C(=O)C([H])(N([H])C(=O)C([H])(N([H])C([H])([H])[H])C([H])([H])[H])C(C([H])([H])[H])(C([H])([H])[H])C([H])([H])[H])C([H])(C(=O)N([H])C2([H])c4c([H])c([H])c([H])c([H])c4C([H])([H])C([H])([H])C2([H])[H])C3([H])[H])c1[H]

$$$$
38:0:0
     RDKit          3D

 95103  0  0  1  0  0  0  0  0999 V2000
  -30.9460  -18.3470   17.8320 C   0  0  0  0  0  3  0  0  0  0  0  0
  -28.7490  -19.0670   18.5910 C   0  0  0  0  0  3  0  0  0  0  0  0
  -29.6490  -18.8170   17.5330 C   0  0  0  0  0  0  0  0  0  0  0  0
  -31.2390  -17.8620   19.1280 C   0  0  0  0  0  0  0  0  0  0  0  0
  -30.1790  -17.7680   20.0710 C   0  0  0  0  0  0  0  0  0  0  0  0
  -29.2490  -18.9530   19.9070 C   0  0  0  0  0  0  0  0  0  0  0  0
  -30.5440  -15.0280   20.3930 C   0  0  0  0  0  0  0  0  0  0  0  0
  -30.3910  -12.6480   19.5180 C   0  0  0  0  0  2  0  0  0  0  0  0
  -29.4860  -12.5640   18.2680 C   0  0  0  0  0  2  0  0  0  0  0  0
  -28.0190  -12.3580   18.6820 C   0  0  0  0  0  2  0  0  0  0  0  0
  -27.5880  -13.3090   19.8300 C   0  0  0  0  0  3  0  0  0  0  0  0
  -28.6280  -13.3830   20.9690 C   0  0  0  0  0  2  0  0  0  0  0  0
  -29.9010  -13.7850   20.3580 N   0  0  0  0  0  0  0  0  0  0  0  0
  -31.7650  -14.9680   20.2270 O   0  0  0  0  0  0  0  0  0  0  0  0
  -29.8390  -16.2870   20.4460 N   0  0  0  0  0  0  0  0  0  0  0  0
  -28.8650  -16.1570   20.6690 H   0  0  0  0  0  0  0  0  0  0  0  0
  -25.2020  -13.8850   20.5410 C   0  0  0  0  0  0  0  0  0  0  0  0
  -24.1330  -13.1110   20.8980 C   0  0  0  0  0  0  0  0  0  0  0  0
  -24.5970  -11.7600   20.8800 C   0  0  0  0  0  0  0  0  0  0  0  0
  -26.2480  -13.0070   20.3170 N   0  0  0  0  0  0  0  0  0  0  0  0
  -25.8940  -11.7230   20.5900 N   0  0  0  0  0  0  0  0  0  0  0  0
  -23.8650  -10.4990   21.0610 C   0  0  0  0  0  0  0  0  0  0  0  0
  -24.2820   -9.5300   22.0010 C   0  0  0  0  0  3  0  0  0  0  0  0
  -23.5470   -8.3370   22.1720 C   0  0  0  0  0  3  0  0  0  0  0  0
  -22.3810   -8.1030   21.4030 C   0  0  0  0  0  0  0  0  0  0  0  0
  -21.9850   -9.0600   20.4510 C   0  0  0  0  0  3  0  0  0  0  0  0
  -22.7200  -10.2450   20.2780 C   0  0  0  0  0  3  0  0  0  0  0  0
  -21.6210   -6.9620   21.4830 O   0  0  0  0  0  0  0  0  0  0  0  0
  -21.5530   -6.2190   22.6350 C   0  0  0  0  0  0  0  0  0  0  0  0
  -21.1170   -6.7790   23.8560 C   0  0  0  0  0  3  0  0  0  0  0  0
  -20.9960   -5.9640   25.0000 C   0  0  0  0  0  3  0  0  0  0  0  0
  -21.3020   -4.5920   24.9240 C   0  0  0  0  0  0  0  0  0  0  0  0
  -21.7320   -4.0320   23.7080 C   0  0  0  0  0  3  0  0  0  0  0  0
  -21.8540   -4.8440   22.5650 C   0  0  0  0  0  0  0  0  0  0  0  0
  -22.2490   -4.2950   21.3910 F   0  0  0  0  0  0  0  0  0  0  0  0
  -21.1790   -3.8090   26.0200 F   0  0  0  0  0  0  0  0  0  0  0  0
  -22.7320  -13.5900   21.1420 C   0  0  0  0  0  0  0  0  0  0  0  0
  -21.9860  -12.8960   21.9930 N   0  0  0  0  0  0  0  0  0  0  0  0
  -22.3070  -14.6170   20.6110 O   0  0  0  0  0  0  0  0  0  0  0  0
  -22.3430  -12.0650   22.4390 H   0  0  0  0  0  0  0  0  0  0  0  0
  -21.0450  -13.2000   22.2000 H   0  0  0  0  0  0  0  0  0  0  0  0
  -25.3700  -15.2550   20.3620 N   0  0  0  0  0  0  0  0  0  0  0  0
  -24.5980  -15.9050   20.4610 H   0  0  0  0  0  0  0  0  0  0  0  0
  -26.2140  -15.6890   20.0160 H   0  0  0  0  0  0  0  0  0  0  0  0
  -29.3070  -19.1640   16.2250 N   0  0  0  0  0  0  0  0  0  0  0  0
  -30.0350  -19.2760   15.5240 H   0  0  0  0  0  0  0  0  0  0  0  0
  -28.4880  -19.7390   16.0500 H   0  0  0  0  0  0  0  0  0  0  0  0
  -32.5170  -17.3770   19.3900 N   0  0  0  0  0  0  0  0  0  0  0  0
  -33.1170  -17.2590   18.5810 H   0  0  0  0  0  0  0  0  0  0  0  0
  -32.4830  -16.4960   19.9160 H   0  0  0  0  0  0  0  0  0  0  0  0
  -29.3240  -20.2880   20.5430 O   0  0  0  0  0  0  0  0  0  0  0  0
  -28.7090  -21.6250   19.9770 C   0  0  0  0  0  2  0  0  0  0  0  0
  -28.8830  -23.2330   20.5280 C   0  0  0  0  0  3  0  0  0  0  0  0
  -28.0240  -24.6050   19.9840 C   0  0  0  0  0  3  0  0  0  0  0  0
  -28.2400  -26.1330   20.2960 O   0  0  0  0  0  0  0  0  0  0  0  0
  -24.6170  -31.8650   23.2430 C   0  0  0  0  0  0  0  0  0  0  0  0
  -27.1920  -27.1320   20.2060 C   0  0  0  0  0  0  0  0  0  0  0  0
  -23.4180  -30.4690   21.6060 C   0  0  0  0  0  3  0  0  0  0  0  0
  -24.8660  -28.8940   20.1750 C   0  0  0  0  0  0  0  0  0  0  0  0
  -25.9710  -30.7290   21.4400 C   0  0  0  0  0  2  0  0  0  0  0  0
  -26.0460  -29.3350   20.7870 C   0  0  0  0  0  0  0  0  0  0  0  0
  -27.2070  -28.4700   20.7860 C   0  0  0  0  0  3  0  0  0  0  0  0
  -25.9890  -26.8070   19.5410 C   0  0  0  0  0  3  0  0  0  0  0  0
  -24.8530  -27.6470   19.5330 C   0  0  0  0  0  3  0  0  0  0  0  0
  -23.6370  -29.7900   20.2280 C   0  0  0  0  0  2  0  0  0  0  0  0
  -24.6890  -31.0430   22.1510 N   0  0  0  0  0  0  0  0  0  0  0  0
  -23.5310  -32.1500   23.7700 O   0  0  0  0  0  0  0  0  0  0  0  0
  -22.7380  -29.4630   22.5690 C   0  0  0  0  0  0  0  0  0  0  0  0
  -21.4110  -29.2870   22.4380 N   0  0  0  0  0  0  0  0  0  0  0  0
  -23.4070  -28.8430   23.4000 O   0  0  0  0  0  0  0  0  0  0  0  0
  -20.9270  -29.8370   21.7410 H   0  0  0  0  0  0  0  0  0  0  0  0
  -18.0340  -28.0610   22.9210 C   0  0  0  0  0  0  0  0  0  0  0  0
  -20.5890  -28.3510   23.2100 C   0  0  0  0  0  3  0  0  0  0  0  0
  -20.7090  -26.9150   22.6500 C   0  0  0  0  0  2  0  0  0  0  0  0
  -19.6200  -26.5730   21.6280 C   0  0  0  0  0  2  0  0  0  0  0  0
  -18.2310  -26.7090   22.2570 C   0  0  0  0  0  2  0  0  0  0  0  0
  -19.1420  -28.8400   23.3540 C   0  0  0  0  0  0  0  0  0  0  0  0
  -18.9030  -30.1030   23.9370 C   0  0  0  0  0  3  0  0  0  0  0  0
  -17.5920  -30.5900   24.0910 C   0  0  0  0  0  3  0  0  0  0  0  0
  -16.4990  -29.8100   23.6720 C   0  0  0  0  0  3  0  0  0  0  0  0
  -16.7220  -28.5480   23.0930 C   0  0  0  0  0  3  0  0  0  0  0  0
  -25.8940  -32.5020   23.8710 C   0  0  0  0  0  3  0  0  0  0  0  0
  -25.5820  -33.9030   24.1960 N   0  0  0  0  0  0  0  0  0  0  0  0
  -25.9130  -34.9570   23.4380 C   0  0  0  0  0  0  0  0  0  0  0  0
  -26.5790  -34.8520   22.4050 O   0  0  0  0  0  0  0  0  0  0  0  0
  -24.9890  -34.0580   24.9990 H   0  0  0  0  0  0  0  0  0  0  0  0
  -24.1850  -36.7560   23.1000 C   0  0  0  0  0  1  0  0  0  0  0  0
  -25.4330  -36.3490   23.8990 C   0  0  0  0  0  3  0  0  0  0  0  0
  -27.5760  -37.2350   24.7080 C   0  0  0  0  0  1  0  0  0  0  0  0
  -26.4660  -37.4000   23.7720 N   0  0  0  0  0  0  0  0  0  0  0  0
  -26.0640  -38.3210   23.9190 H   0  0  0  0  0  0  0  0  0  0  0  0
  -26.4000  -31.7380   25.1580 C   0  0  1  0  0  0  0  0  0  0  0  0
  -25.3000  -31.5140   26.2220 C   0  0  0  0  0  1  0  0  0  0  0  0
  -26.9760  -30.3540   24.7830 C   0  0  0  0  0  1  0  0  0  0  0  0
  -27.5510  -32.5340   25.8170 C   0  0  0  0  0  1  0  0  0  0  0  0
  1  4  1  0
  2  6  2  0
  3  1  2  0
  3  2  1  0
  4 48  1  0
  4  5  2  0
  5 15  1  0
  6  5  1  0
  6 51  1  0
  7 15  1  0
  8 13  1  0
  9 10  1  0
  9  8  1  0
 11 10  1  0
 11 20  1  0
 11 12  1  0
 13  7  1  0
 13 12  1  0
 14  7  2  0
 15 16  1  0
 17 18  2  0
 18 37  1  0
 19 18  1  0
 19 22  1  0
 20 17  1  0
 20 21  1  0
 21 19  2  0
 22 23  1  0
 23 24  2  0
 25 28  1  0
 25 24  1  0
 26 25  2  0
 27 26  1  0
 27 22  2  0
 28 29  1  0
 29 30  1  0
 30 31  2  0
 32 31  1  0
 32 36  1  0
 33 32  2  0
 34 29  2  0
 34 33  1  0
 35 34  1  0
 37 38  1  0
 38 41  1  0
 38 40  1  0
 39 37  2  0
 42 43  1  0
 42 17  1  0
 44 42  1  0
 45  3  1  0
 46 45  1  0
 47 45  1  0
 48 50  1  0
 49 48  1  0
 52 53  1  0
 52 51  1  0
 54 55  1  0
 54 53  2  0
 56 67  2  0
 57 55  1  0
 57 62  1  0
 58 66  1  0
 58 68  1  0
 59 65  1  0
 59 61  1  0
 60 66  1  0
 61 60  1  0
 62 61  2  0
 63 57  2  0
 64 63  1  0
 64 59  2  0
 65 58  1  0
 66 56  1  0
 68 70  2  0
 69 68  1  0
 71 69  1  0
 72 81  2  0
 72 77  1  0
 73 69  1  0
 73 77  1  0
 74 73  1  0
 75 76  1  0
 75 74  1  0
 76 72  1  0
 77 78  2  0
 78 79  1  0
 80 79  2  0
 81 80  1  0
 82 56  1  0
 82 83  1  0
 82 92  1  0
 83 86  1  0
 84 88  1  0
 84 83  1  0
 85 84  2  0
 88 87  1  0
 90 88  1  0
 90 91  1  0
 90 89  1  0
 92 95  1  1
 92 93  1  0
 94 92  1  0
M  ISO  4   7 100  15 100  54 101  55 101
M  END
>  <TORSDO>  (39) 
F 22

>  <SCORE>  (39) 
-14.687

>  <name>  (39) 
38

>  <ligand_id>  (39) 
38

>  <original_smiles>  (39) 
[H]c1c([H])c([H])c2c(c1[H])C([H])([H])C([H])([H])C([H])([H])C2([H])N([H])C(=O)C1([H])N(C(=O)C([H])(N([H])C(=O)C([H])(N([H])C([H])([H])[H])C([H])([H])[H])C(C([H])([H])[H])(C([H])([H])[H])C([H])([H])[H])C([H])([H])c2c([H])c(OC([H])([H])C([H])([H])C([H])([H])Oc3c([H])c(N([H])[H])c([H])c(N([H])[H])c3N([H])C(=O)N3C([H])([H])C([H])([H])C([H])([H])C([H])(n4nc(-c5c([H])c([H])c(Oc6c([H])c([H])c(F)c([H])c6F)c([H])c5[H])c(C(=O)N([H])[H])c4N([H])[H])C3([H])[H])c([H])c([H])c2C1([H])[H]

>  <smiles>  (39) 
[H]c1c([H])c([H])c2c(c1[H])C([H])([H])C([H])([H])C([H])([H])C2([H])N([H])C(=O)C1([H])N(C(=O)C([H])(N([H])C(=O)C([H])(N([H])C([H])([H])[H])C([H])([H])[H])C(C([H])([H])[H])(C([H])([H])[H])C([H])([H])[H])C([H])([H])c2c([H])c(OC([H])([H])C([H])([H])C([H])([H])Oc3c([H])c(N([H])[H])c([H])c(N([H])[H])c3N([H])C(=O)N3C([H])([H])C([H])([H])C([H])([H])C([H])(n4nc(-c5c([H])c([H])c(Oc6c([H])c([H])c(F)c([H])c6F)c([H])c5[H])c(C(=O)N([H])[H])c4N([H])[H])C3([H])[H])c([H])c([H])c2C1([H])[H]

$$$$
39:0:0
     RDKit          3D

 95103  0  0  1  0  0  0  0  0999 V2000
  -29.1170  -19.3440   20.8140 C   0  0  0  0  0  3  0  0  0  0  0  0
  -31.0690  -17.8740   19.4330 C   0  0  0  0  0  3  0  0  0  0  0  0
  -29.1680  -17.9180   20.9200 C   0  0  0  0  0  0  0  0  0  0  0  0
  -30.0350  -20.0710   20.0170 C   0  0  0  0  0  0  0  0  0  0  0  0
  -30.1430  -17.1410   20.2240 C   0  0  0  0  0  0  0  0  0  0  0  0
  -31.0120  -19.2980   19.3290 C   0  0  0  0  0  0  0  0  0  0  0  0
  -28.1470  -17.2260   21.8070 C   0  0  0  0  0  1  0  0  0  0  0  0
  -30.8040  -14.6740   19.7070 C   0  0  0  0  0  0  0  0  0  0  0  0
  -30.4500  -12.5270   18.5050 C   0  0  0  0  0  2  0  0  0  0  0  0
  -29.3930  -12.7620   17.4030 C   0  0  0  0  0  2  0  0  0  0  0  0
  -27.9660  -12.5900   17.9610 C   0  0  0  0  0  2  0  0  0  0  0  0
  -27.7500  -13.3580   19.2930 C   0  0  0  0  0  3  0  0  0  0  0  0
  -28.9080  -13.0960   20.2820 C   0  0  0  0  0  2  0  0  0  0  0  0
  -30.1640  -13.4650   19.6100 N   0  0  0  0  0  0  0  0  0  0  0  0
  -31.9040  -14.8600   19.1780 O   0  0  0  0  0  0  0  0  0  0  0  0
  -30.0950  -15.6770   20.3130 N   0  0  0  0  0  0  0  0  0  0  0  0
  -29.2960  -15.3230   20.8160 H   0  0  0  0  0  0  0  0  0  0  0  0
  -25.4190  -13.9240   20.2180 C   0  0  0  0  0  0  0  0  0  0  0  0
  -24.3950  -13.1370   20.6680 C   0  0  0  0  0  0  0  0  0  0  0  0
  -24.8620  -11.7910   20.5750 C   0  0  0  0  0  0  0  0  0  0  0  0
  -26.4480  -13.0570   19.8830 N   0  0  0  0  0  0  0  0  0  0  0  0
  -26.1210  -11.7680   20.1560 N   0  0  0  0  0  0  0  0  0  0  0  0
  -24.1630  -10.5200   20.8050 C   0  0  0  0  0  0  0  0  0  0  0  0
  -24.6350   -9.5770   21.7450 C   0  0  0  0  0  3  0  0  0  0  0  0
  -23.9350   -8.3700   21.9620 C   0  0  0  0  0  3  0  0  0  0  0  0
  -22.7490   -8.0980   21.2390 C   0  0  0  0  0  0  0  0  0  0  0  0
  -22.2970   -9.0290   20.2880 C   0  0  0  0  0  3  0  0  0  0  0  0
  -22.9980  -10.2270   20.0690 C   0  0  0  0  0  3  0  0  0  0  0  0
  -22.0180   -6.9410   21.3640 O   0  0  0  0  0  0  0  0  0  0  0  0
  -21.9390   -6.2660   22.5560 C   0  0  0  0  0  0  0  0  0  0  0  0
  -21.4490   -6.8800   23.7290 C   0  0  0  0  0  3  0  0  0  0  0  0
  -21.3190   -6.1290   24.9140 C   0  0  0  0  0  3  0  0  0  0  0  0
  -21.6690   -4.7660   24.9280 C   0  0  0  0  0  0  0  0  0  0  0  0
  -22.1530   -4.1520   23.7590 C   0  0  0  0  0  3  0  0  0  0  0  0
  -22.2850   -4.8990   22.5760 C   0  0  0  0  0  0  0  0  0  0  0  0
  -22.7310   -4.2980   21.4470 F   0  0  0  0  0  0  0  0  0  0  0  0
  -21.5390   -4.0420   26.0640 F   0  0  0  0  0  0  0  0  0  0  0  0
  -23.0230  -13.5990   21.0670 C   0  0  0  0  0  0  0  0  0  0  0  0
  -22.3820  -12.8890   21.9900 N   0  0  0  0  0  0  0  0  0  0  0  0
  -22.5300  -14.6230   20.5970 O   0  0  0  0  0  0  0  0  0  0  0  0
  -22.7950  -12.0610   22.3920 H   0  0  0  0  0  0  0  0  0  0  0  0
  -21.4650  -13.1800   22.3000 H   0  0  0  0  0  0  0  0  0  0  0  0
  -25.5530  -15.2980   20.0410 N   0  0  0  0  0  0  0  0  0  0  0  0
  -24.7830  -15.9360   20.2080 H   0  0  0  0  0  0  0  0  0  0  0  0
  -26.3450  -15.7420   19.5950 H   0  0  0  0  0  0  0  0  0  0  0  0
  -31.9230  -19.9620   18.5030 N   0  0  0  0  0  0  0  0  0  0  0  0
  -32.4030  -19.3950   17.8140 H   0  0  0  0  0  0  0  0  0  0  0  0
  -31.5690  -20.8170   18.0910 H   0  0  0  0  0  0  0  0  0  0  0  0
  -30.0420  -21.4990   19.8700 N   0  0  0  0  0  0  0  0  0  0  0  0
  -30.8840  -21.8990   19.4640 H   0  0  0  0  0  0  0  0  0  0  0  0
  -29.0910  -22.4940   20.4560 C   0  0  0  0  0  2  0  0  0  0  0  0
  -29.3340  -24.0150   20.0900 C   0  0  0  0  0  0  0  0  0  0  0  0
  -30.3170  -24.3300   19.4100 O   0  0  0  0  0  0  0  0  0  0  0  0
  -28.3190  -25.1120   20.5960 C   0  0  0  0  0  2  0  0  0  0  0  0
  -28.5780  -26.5150   20.1930 O   0  0  0  0  0  0  0  0  0  0  0  0
  -24.7340  -31.8450   23.1730 C   0  0  0  0  0  0  0  0  0  0  0  0
  -27.4550  -27.3480   20.1480 C   0  0  0  0  0  0  0  0  0  0  0  0
  -23.5730  -30.4350   21.5110 C   0  0  0  0  0  3  0  0  0  0  0  0
  -25.0660  -28.9110   20.1020 C   0  0  0  0  0  0  0  0  0  0  0  0
  -26.1070  -30.7950   21.3640 C   0  0  0  0  0  2  0  0  0  0  0  0
  -26.2180  -29.4200   20.7170 C   0  0  0  0  0  0  0  0  0  0  0  0
  -27.4180  -28.6510   20.7290 C   0  0  0  0  0  3  0  0  0  0  0  0
  -26.2850  -26.8910   19.5000 C   0  0  0  0  0  3  0  0  0  0  0  0
  -25.1010  -27.6520   19.4850 C   0  0  0  0  0  3  0  0  0  0  0  0
  -23.8160  -29.7650   20.1320 C   0  0  0  0  0  2  0  0  0  0  0  0
  -24.8230  -31.0420   22.0730 N   0  0  0  0  0  0  0  0  0  0  0  0
  -23.6390  -32.1060   23.6930 O   0  0  0  0  0  0  0  0  0  0  0  0
  -22.9100  -29.4070   22.4570 C   0  0  0  0  0  0  0  0  0  0  0  0
  -21.5880  -29.2140   22.3110 N   0  0  0  0  0  0  0  0  0  0  0  0
  -23.5850  -28.7850   23.2830 O   0  0  0  0  0  0  0  0  0  0  0  0
  -21.1040  -29.7690   21.6190 H   0  0  0  0  0  0  0  0  0  0  0  0
  -18.2170  -27.9850   22.7610 C   0  0  0  0  0  0  0  0  0  0  0  0
  -20.7680  -28.2660   23.0670 C   0  0  0  0  0  3  0  0  0  0  0  0
  -20.8910  -26.8380   22.4850 C   0  0  0  0  0  2  0  0  0  0  0  0
  -19.8050  -26.5110   21.4550 C   0  0  0  0  0  2  0  0  0  0  0  0
  -18.4140  -26.6410   22.0830 C   0  0  0  0  0  2  0  0  0  0  0  0
  -19.3230  -28.7550   23.2090 C   0  0  0  0  0  0  0  0  0  0  0  0
  -19.0850  -30.0130   23.8040 C   0  0  0  0  0  3  0  0  0  0  0  0
  -17.7730  -30.5030   23.9540 C   0  0  0  0  0  3  0  0  0  0  0  0
  -16.6810  -29.7300   23.5230 C   0  0  0  0  0  3  0  0  0  0  0  0
  -16.9040  -28.4720   22.9320 C   0  0  0  0  0  3  0  0  0  0  0  0
  -26.0000  -32.4900   23.8160 C   0  0  0  0  0  3  0  0  0  0  0  0
  -25.6720  -33.8880   24.1340 N   0  0  0  0  0  0  0  0  0  0  0  0
  -26.0060  -34.9400   23.3750 C   0  0  0  0  0  0  0  0  0  0  0  0
  -26.6910  -34.8370   22.3540 O   0  0  0  0  0  0  0  0  0  0  0  0
  -25.0650  -34.0400   24.9250 H   0  0  0  0  0  0  0  0  0  0  0  0
  -24.2620  -36.7120   22.9920 C   0  0  0  0  0  1  0  0  0  0  0  0
  -25.4990  -36.3260   23.8180 C   0  0  0  0  0  3  0  0  0  0  0  0
  -27.6150  -37.2400   24.6660 C   0  0  0  0  0  1  0  0  0  0  0  0
  -26.5210  -37.3890   23.7090 N   0  0  0  0  0  0  0  0  0  0  0  0
  -26.1050  -38.3060   23.8440 H   0  0  0  0  0  0  0  0  0  0  0  0
  -26.4990  -31.7290   25.1060 C   0  0  1  0  0  0  0  0  0  0  0  0
  -25.3870  -31.4830   26.1510 C   0  0  0  0  0  1  0  0  0  0  0  0
  -27.1040  -30.3570   24.7310 C   0  0  0  0  0  1  0  0  0  0  0  0
  -27.6270  -32.5380   25.7880 C   0  0  0  0  0  1  0  0  0  0  0  0
  1  3  1  0
  2  5  1  0
  3  7  1  0
  4  1  2  0
  5 16  1  0
  5  3  2  0
  6  2  2  0
  6  4  1  0
  8 16  1  0
  9 14  1  0
 10 11  1  0
 10  9  1  0
 12 11  1  0
 12 21  1  0
 12 13  1  0
 14  8  1  0
 14 13  1  0
 15  8  2  0
 16 17  1  0
 18 19  2  0
 19 38  1  0
 20 19  1  0
 20 23  1  0
 21 22  1  0
 21 18  1  0
 22 20  2  0
 23 24  1  0
 24 25  2  0
 26 29  1  0
 26 25  1  0
 27 26  2  0
 28 27  1  0
 28 23  2  0
 29 30  1  0
 30 35  2  0
 30 31  1  0
 31 32  2  0
 32 33  1  0
 33 37  1  0
 34 33  2  0
 35 34  1  0
 36 35  1  0
 38 39  1  0
 39 42  1  0
 39 41  1  0
 40 38  2  0
 43 44  1  0
 43 18  1  0
 45 43  1  0
 46  6  1  0
 47 46  1  0
 48 46  1  0
 49  4  1  0
 49 51  1  0
 50 49  1  0
 52 51  1  0
 52 54  1  0
 53 52  2  0
 55 54  1  0
 56 67  2  0
 57 55  1  0
 57 62  1  0
 58 66  1  0
 58 68  1  0
 59 65  1  0
 59 61  1  0
 60 66  1  0
 61 62  2  0
 61 60  1  0
 63 57  2  0
 64 63  1  0
 64 59  2  0
 65 58  1  0
 66 56  1  0
 68 70  2  0
 69 68  1  0
 71 69  1  0
 72 81  2  0
 72 77  1  0
 73 69  1  0
 73 77  1  0
 74 73  1  0
 75 76  1  0
 75 74  1  0
 76 72  1  0
 77 78  2  0
 78 79  1  0
 80 79  2  0
 81 80  1  0
 82 56  1  0
 82 83  1  0
 82 92  1  0
 83 86  1  0
 84 88  1  0
 84 83  1  0
 85 84  2  0
 88 87  1  0
 90 88  1  0
 90 91  1  0
 90 89  1  0
 92 95  1  1
 92 93  1  0
 94 92  1  0
M  ISO  4   8 100  16 100  54 101  55 101
M  END
>  <TORSDO>  (40) 
F 21

>  <SCORE>  (40) 
-10.217

>  <name>  (40) 
39

>  <ligand_id>  (40) 
39

>  <original_smiles>  (40) 
[H]c1c([H])c([H])c2c(c1[H])C([H])([H])C([H])([H])C([H])([H])C2([H])N([H])C(=O)C1([H])N(C(=O)C([H])(N([H])C(=O)C([H])(N([H])C([H])([H])[H])C([H])([H])[H])C(C([H])([H])[H])(C([H])([H])[H])C([H])([H])[H])C([H])([H])c2c([H])c(OC([H])([H])C(=O)C([H])([H])N([H])c3c([H])c(C([H])([H])[H])c(N([H])C(=O)N4C([H])([H])C([H])([H])C([H])([H])C([H])(n5nc(-c6c([H])c([H])c(Oc7c([H])c([H])c(F)c([H])c7F)c([H])c6[H])c(C(=O)N([H])[H])c5N([H])[H])C4([H])[H])c([H])c3N([H])[H])c([H])c([H])c2C1([H])[H]

>  <smiles>  (40) 
[H]c1c([H])c([H])c2c(c1[H])C([H])([H])C([H])([H])C([H])([H])C2([H])N([H])C(=O)C1([H])N(C(=O)C([H])(N([H])C(=O)C([H])(N([H])C([H])([H])[H])C([H])([H])[H])C(C([H])([H])[H])(C([H])([H])[H])C([H])([H])[H])C([H])([H])c2c([H])c(OC([H])([H])C(=O)C([H])([H])N([H])c3c([H])c(C([H])([H])[H])c(N([H])C(=O)N4C([H])([H])C([H])([H])C([H])([H])C([H])(n5nc(-c6c([H])c([H])c(Oc7c([H])c([H])c(F)c([H])c7F)c([H])c6[H])c(C(=O)N([H])[H])c5N([H])[H])C4([H])[H])c([H])c3N([H])[H])c([H])c([H])c2C1([H])[H]

$$$$
40:0:0
     RDKit          3D

 97105  0  0  1  0  0  0  0  0999 V2000
  -31.5980  -19.6620   21.3620 C   0  0  0  0  0  3  0  0  0  0  0  0
  -30.0880  -18.0630   20.2150 C   0  0  0  0  0  0  0  0  0  0  0  0
  -29.3840  -19.3290   19.7790 C   0  0  0  0  0  0  0  0  0  0  0  0
  -31.2440  -18.3430   21.0030 C   0  0  0  0  0  0  0  0  0  0  0  0
  -30.8680  -20.8140   21.0060 C   0  0  0  0  0  0  0  0  0  0  0  0
  -29.7250  -20.7360   20.1660 C   0  0  0  0  0  0  0  0  0  0  0  0
  -32.0930  -17.3590   21.5110 N   0  0  0  0  0  0  0  0  0  0  0  0
  -33.0430  -17.6610   21.7080 H   0  0  0  0  0  0  0  0  0  0  0  0
  -32.1090  -16.4660   21.0140 H   0  0  0  0  0  0  0  0  0  0  0  0
  -31.3500  -22.0140   21.5280 N   0  0  0  0  0  0  0  0  0  0  0  0
  -31.9990  -21.9640   22.3070 H   0  0  0  0  0  0  0  0  0  0  0  0
  -30.7060  -22.7920   21.6050 H   0  0  0  0  0  0  0  0  0  0  0  0
  -29.5930  -16.5100   20.0230 C   0  0  0  0  0  3  0  0  0  0  0  0
  -28.3350  -16.3860   20.0560 N   0  0  0  0  0  2  0  0  0  0  0  0
  -27.9120  -17.2960   20.1890 H   0  0  0  0  0  0  0  0  0  0  0  0
  -30.5170  -15.1030   19.8030 C   0  0  0  0  0  0  0  0  0  0  0  0
  -30.3930  -12.7120   18.9380 C   0  0  0  0  0  2  0  0  0  0  0  0
  -29.3810  -12.6250   17.7710 C   0  0  0  0  0  2  0  0  0  0  0  0
  -27.9590  -12.3680   18.3050 C   0  0  0  0  0  2  0  0  0  0  0  0
  -27.6040  -13.3280   19.4680 C   0  0  0  0  0  3  0  0  0  0  0  0
  -28.7300  -13.3700   20.5250 C   0  0  0  0  0  2  0  0  0  0  0  0
  -29.9530  -13.8170   19.8420 N   0  0  0  0  0  0  0  0  0  0  0  0
  -31.6940  -15.1640   19.4220 O   0  0  0  0  0  0  0  0  0  0  0  0
  -25.3000  -13.9360   20.4080 C   0  0  0  0  0  0  0  0  0  0  0  0
  -24.2520  -13.1650   20.8350 C   0  0  0  0  0  0  0  0  0  0  0  0
  -24.6910  -11.8110   20.7300 C   0  0  0  0  0  0  0  0  0  0  0  0
  -26.3040  -13.0460   20.0610 N   0  0  0  0  0  0  0  0  0  0  0  0
  -25.9530  -11.7620   20.3220 N   0  0  0  0  0  0  0  0  0  0  0  0
  -23.9630  -10.5550   20.9390 C   0  0  0  0  0  0  0  0  0  0  0  0
  -24.4240   -9.5780   21.8480 C   0  0  0  0  0  3  0  0  0  0  0  0
  -23.7000   -8.3840   22.0440 C   0  0  0  0  0  3  0  0  0  0  0  0
  -22.5000   -8.1560   21.3290 C   0  0  0  0  0  0  0  0  0  0  0  0
  -22.0560   -9.1210   20.4070 C   0  0  0  0  0  3  0  0  0  0  0  0
  -22.7820  -10.3090   20.2110 C   0  0  0  0  0  3  0  0  0  0  0  0
  -21.7440   -7.0140   21.4370 O   0  0  0  0  0  0  0  0  0  0  0  0
  -21.6920   -6.2920   22.6020 C   0  0  0  0  0  0  0  0  0  0  0  0
  -21.2410   -6.8620   23.8130 C   0  0  0  0  0  3  0  0  0  0  0  0
  -21.1420   -6.0660   24.9710 C   0  0  0  0  0  3  0  0  0  0  0  0
  -21.4790   -4.7000   24.9180 C   0  0  0  0  0  0  0  0  0  0  0  0
  -21.9210   -4.1290   23.7110 C   0  0  0  0  0  3  0  0  0  0  0  0
  -22.0260   -4.9230   22.5560 C   0  0  0  0  0  0  0  0  0  0  0  0
  -22.4330   -4.3640   21.3910 F   0  0  0  0  0  0  0  0  0  0  0  0
  -21.3760   -3.9320   26.0280 F   0  0  0  0  0  0  0  0  0  0  0  0
  -22.8880  -13.6540   21.2270 C   0  0  0  0  0  0  0  0  0  0  0  0
  -22.2170  -12.9420   22.1270 N   0  0  0  0  0  0  0  0  0  0  0  0
  -22.4260  -14.6990   20.7700 O   0  0  0  0  0  0  0  0  0  0  0  0
  -22.6010  -12.0960   22.5220 H   0  0  0  0  0  0  0  0  0  0  0  0
  -21.3030  -13.2520   22.4300 H   0  0  0  0  0  0  0  0  0  0  0  0
  -25.4810  -15.3050   20.2650 N   0  0  0  0  0  0  0  0  0  0  0  0
  -24.7860  -15.9940   20.5210 H   0  0  0  0  0  0  0  0  0  0  0  0
  -26.3990  -15.7050   20.0700 H   0  0  0  0  0  0  0  0  0  0  0  0
  -26.8370  -19.2790   19.4760 C   0  0  0  0  0  1  0  0  0  0  0  0
  -28.2130  -19.2330   18.7990 C   0  0  0  0  0  2  0  0  0  0  0  0
  -28.9810  -21.9460   19.7480 O   0  0  0  0  0  0  0  0  0  0  0  0
  -29.2040  -23.4440   20.1320 C   0  0  0  0  0  3  0  0  0  0  0  0
  -28.2110  -24.7620   19.7530 C   0  0  0  0  0  3  0  0  0  0  0  0
  -28.4160  -26.2770   20.0890 O   0  0  0  0  0  0  0  0  0  0  0  0
  -24.6650  -31.8180   23.2060 C   0  0  0  0  0  0  0  0  0  0  0  0
  -27.3410  -27.2450   20.0400 C   0  0  0  0  0  0  0  0  0  0  0  0
  -23.4980  -30.4670   21.5030 C   0  0  0  0  0  3  0  0  0  0  0  0
  -24.9810  -28.9530   20.0450 C   0  0  0  0  0  0  0  0  0  0  0  0
  -26.0500  -30.7670   21.3790 C   0  0  0  0  0  2  0  0  0  0  0  0
  -26.1500  -29.3990   20.6770 C   0  0  0  0  0  0  0  0  0  0  0  0
  -27.3290  -28.5620   20.6590 C   0  0  0  0  0  3  0  0  0  0  0  0
  -26.1480  -26.9040   19.3680 C   0  0  0  0  0  3  0  0  0  0  0  0
  -24.9920  -27.7160   19.3790 C   0  0  0  0  0  3  0  0  0  0  0  0
  -23.7450  -29.8370   20.1050 C   0  0  0  0  0  2  0  0  0  0  0  0
  -24.7550  -31.0400   22.0830 N   0  0  0  0  0  0  0  0  0  0  0  0
  -23.5710  -32.0680   23.7340 O   0  0  0  0  0  0  0  0  0  0  0  0
  -22.8190  -29.4210   22.4230 C   0  0  0  0  0  0  0  0  0  0  0  0
  -21.4920  -29.2530   22.2860 N   0  0  0  0  0  0  0  0  0  0  0  0
  -23.4900  -28.7660   23.2250 O   0  0  0  0  0  0  0  0  0  0  0  0
  -21.0100  -29.8370   21.6170 H   0  0  0  0  0  0  0  0  0  0  0  0
  -18.1040  -28.0440   22.7710 C   0  0  0  0  0  0  0  0  0  0  0  0
  -20.6700  -28.2840   23.0170 C   0  0  0  0  0  3  0  0  0  0  0  0
  -20.7570  -26.8800   22.3760 C   0  0  0  0  0  2  0  0  0  0  0  0
  -19.6440  -26.6100   21.3590 C   0  0  0  0  0  2  0  0  0  0  0  0
  -18.2690  -26.7300   22.0230 C   0  0  0  0  0  2  0  0  0  0  0  0
  -19.2340  -28.7790   23.2210 C   0  0  0  0  0  0  0  0  0  0  0  0
  -19.0310  -30.0070   23.8860 C   0  0  0  0  0  3  0  0  0  0  0  0
  -17.7320  -30.5070   24.0980 C   0  0  0  0  0  3  0  0  0  0  0  0
  -16.6180  -29.7700   23.6620 C   0  0  0  0  0  3  0  0  0  0  0  0
  -16.8040  -28.5390   23.0070 C   0  0  0  0  0  3  0  0  0  0  0  0
  -25.9290  -32.4490   23.8660 C   0  0  0  0  0  3  0  0  0  0  0  0
  -25.6100  -33.8460   24.2020 N   0  0  0  0  0  0  0  0  0  0  0  0
  -25.9240  -34.9070   23.4460 C   0  0  0  0  0  0  0  0  0  0  0  0
  -26.5830  -34.8130   22.4070 O   0  0  0  0  0  0  0  0  0  0  0  0
  -25.0290  -33.9900   25.0140 H   0  0  0  0  0  0  0  0  0  0  0  0
  -24.1610  -36.6790   23.1490 C   0  0  0  0  0  1  0  0  0  0  0  0
  -25.4360  -36.2910   23.9180 C   0  0  0  0  0  3  0  0  0  0  0  0
  -27.5810  -37.2090   24.6870 C   0  0  0  0  0  1  0  0  0  0  0  0
  -26.4510  -37.3580   23.7720 N   0  0  0  0  0  0  0  0  0  0  0  0
  -26.0370  -38.2730   23.9310 H   0  0  0  0  0  0  0  0  0  0  0  0
  -26.4110  -31.6720   25.1540 C   0  0  1  0  0  0  0  0  0  0  0  0
  -25.2910  -31.4330   26.1920 C   0  0  0  0  0  1  0  0  0  0  0  0
  -27.0030  -30.2920   24.7840 C   0  0  0  0  0  1  0  0  0  0  0  0
  -27.5410  -32.4670   25.8500 C   0  0  0  0  0  1  0  0  0  0  0  0
  2  4  1  0
  3  6  1  0
  3  2  2  0
  4  1  2  0
  4  7  1  0
  5  1  1  0
  5 10  1  0
  6  5  2  0
  7  8  1  0
  9  7  1  0
 10 12  1  0
 10 11  1  0
 13 16  1  0
 13 14  1  0
 13  2  1  0
 14 15  1  0
 16 22  1  0
 17 22  1  0
 18 19  1  0
 18 17  1  0
 20 19  1  0
 20 27  1  0
 20 21  1  0
 22 21  1  0
 23 16  2  0
 24 25  2  0
 25 44  1  0
 26 25  1  0
 26 29  1  0
 27 28  1  0
 27 24  1  0
 28 26  2  0
 29 30  1  0
 30 31  2  0
 32 35  1  0
 32 31  1  0
 33 32  2  0
 34 33  1  0
 34 29  2  0
 35 36  1  0
 36 37  1  0
 37 38  2  0
 39 38  1  0
 39 43  1  0
 40 39  2  0
 41 36  2  0
 41 40  1  0
 42 41  1  0
 44 45  1  0
 45 48  1  0
 45 47  1  0
 46 44  2  0
 49 24  1  0
 49 50  1  0
 51 49  1  0
 53 52  1  0
 53  3  1  0
 54 55  1  0
 54  6  1  0
 56 57  1  0
 56 55  2  0
 58 69  2  0
 59 57  1  0
 59 64  1  0
 60 68  1  0
 60 70  1  0
 61 67  1  0
 61 63  1  0
 62 68  1  0
 63 62  1  0
 64 63  2  0
 65 66  1  0
 65 59  2  0
 66 61  2  0
 67 60  1  0
 68 58  1  0
 70 72  2  0
 71 70  1  0
 73 71  1  0
 74 83  2  0
 74 79  1  0
 75 71  1  0
 75 79  1  0
 76 75  1  0
 77 78  1  0
 77 76  1  0
 78 74  1  0
 79 80  2  0
 80 81  1  0
 82 81  2  0
 83 82  1  0
 84 58  1  0
 84 85  1  0
 84 94  1  0
 85 88  1  0
 86 90  1  0
 86 85  1  0
 87 86  2  0
 90 89  1  0
 92 90  1  0
 92 93  1  0
 92 91  1  0
 94 97  1  1
 94 95  1  0
 96 94  1  0
M  ISO  4  13 100  16 100  56 101  57 101
M  END
>  <TORSDO>  (41) 
F 23

>  <SCORE>  (41) 
-13.229

>  <name>  (41) 
40

>  <ligand_id>  (41) 
40

>  <original_smiles>  (41) 
[H]N=C(C(=O)N1C([H])([H])C([H])([H])C([H])([H])C([H])(n2nc(-c3c([H])c([H])c(Oc4c([H])c([H])c(F)c([H])c4F)c([H])c3[H])c(C(=O)N([H])[H])c2N([H])[H])C1([H])[H])c1c(N([H])[H])c([H])c(N([H])[H])c(OC([H])([H])C([H])([H])Oc2c([H])c([H])c3c(c2[H])C([H])([H])N(C(=O)C([H])(N([H])C(=O)C([H])(N([H])C([H])([H])[H])C([H])([H])[H])C(C([H])([H])[H])(C([H])([H])[H])C([H])([H])[H])C([H])(C(=O)N([H])C2([H])c4c([H])c([H])c([H])c([H])c4C([H])([H])C([H])([H])C2([H])[H])C3([H])[H])c1C([H])([H])C([H])([H])[H]

>  <smiles>  (41) 
[H]N=C(C(=O)N1C([H])([H])C([H])([H])C([H])([H])C([H])(n2nc(-c3c([H])c([H])c(Oc4c([H])c([H])c(F)c([H])c4F)c([H])c3[H])c(C(=O)N([H])[H])c2N([H])[H])C1([H])[H])c1c(N([H])[H])c([H])c(N([H])[H])c(OC([H])([H])C([H])([H])Oc2c([H])c([H])c3c(c2[H])C([H])([H])N(C(=O)C([H])(N([H])C(=O)C([H])(N([H])C([H])([H])[H])C([H])([H])[H])C(C([H])([H])[H])(C([H])([H])[H])C([H])([H])[H])C([H])(C(=O)N([H])C2([H])c4c([H])c([H])c([H])c([H])c4C([H])([H])C([H])([H])C2([H])[H])C3([H])[H])c1C([H])([H])C([H])([H])[H]

$$$$
41:0:0
     RDKit          3D

 98106  0  0  1  0  0  0  0  0999 V2000
  -30.2610  -20.8700   19.3370 C   0  0  0  0  0  3  0  0  0  0  0  0
  -28.1510  -19.9320   19.9470 C   0  0  0  0  0  3  0  0  0  0  0  0
  -30.0540  -18.3670   19.5680 C   0  0  0  0  0  0  0  0  0  0  0  0
  -30.8180  -19.5550   19.2680 C   0  0  0  0  0  0  0  0  0  0  0  0
  -28.9130  -21.1020   19.6890 C   0  0  0  0  0  0  0  0  0  0  0  0
  -28.6790  -18.5920   19.9140 C   0  0  0  0  0  0  0  0  0  0  0  0
  -30.7920  -14.5450   19.4780 C   0  0  0  0  0  0  0  0  0  0  0  0
  -30.3600  -12.2550   18.6040 C   0  0  0  0  0  2  0  0  0  0  0  0
  -29.3120  -12.2920   17.4740 C   0  0  0  0  0  2  0  0  0  0  0  0
  -27.8960  -12.1720   18.0650 C   0  0  0  0  0  2  0  0  0  0  0  0
  -27.6580  -13.1390   19.2560 C   0  0  0  0  0  3  0  0  0  0  0  0
  -28.8270  -13.1210   20.2670 C   0  0  0  0  0  2  0  0  0  0  0  0
  -30.0610  -13.3820   19.5170 N   0  0  0  0  0  0  0  0  0  0  0  0
  -31.9390  -14.4960   19.0250 O   0  0  0  0  0  0  0  0  0  0  0  0
  -30.7910  -16.9990   19.7020 C   0  0  0  0  0  0  0  0  0  0  0  0
  -30.1720  -15.7620   19.7130 N   0  0  0  0  0  0  0  0  0  0  0  0
  -32.0230  -17.1080   19.7720 O   0  0  0  0  0  0  0  0  0  0  0  0
  -29.1720  -15.7550   19.8220 H   0  0  0  0  0  0  0  0  0  0  0  0
  -25.4160  -13.8070   20.3040 C   0  0  0  0  0  0  0  0  0  0  0  0
  -24.3600  -13.0680   20.7650 C   0  0  0  0  0  0  0  0  0  0  0  0
  -24.7390  -11.7000   20.6130 C   0  0  0  0  0  0  0  0  0  0  0  0
  -26.3720  -12.8910   19.8990 N   0  0  0  0  0  0  0  0  0  0  0  0
  -25.9800  -11.6140   20.1470 N   0  0  0  0  0  0  0  0  0  0  0  0
  -23.9700  -10.4670   20.8290 C   0  0  0  0  0  0  0  0  0  0  0  0
  -24.4290   -9.4510   21.6970 C   0  0  0  0  0  3  0  0  0  0  0  0
  -23.6610   -8.2850   21.9030 C   0  0  0  0  0  3  0  0  0  0  0  0
  -22.4180   -8.1270   21.2440 C   0  0  0  0  0  0  0  0  0  0  0  0
  -21.9760   -9.1310   20.3640 C   0  0  0  0  0  3  0  0  0  0  0  0
  -22.7450  -10.2890   20.1550 C   0  0  0  0  0  3  0  0  0  0  0  0
  -21.6170   -7.0180   21.3650 O   0  0  0  0  0  0  0  0  0  0  0  0
  -21.5940   -6.2680   22.5140 C   0  0  0  0  0  0  0  0  0  0  0  0
  -21.2500   -6.8270   23.7630 C   0  0  0  0  0  3  0  0  0  0  0  0
  -21.1730   -6.0060   24.9060 C   0  0  0  0  0  3  0  0  0  0  0  0
  -21.4300   -4.6260   24.7990 C   0  0  0  0  0  0  0  0  0  0  0  0
  -21.7650   -4.0650   23.5540 C   0  0  0  0  0  3  0  0  0  0  0  0
  -21.8450   -4.8840   22.4140 C   0  0  0  0  0  0  0  0  0  0  0  0
  -22.1490   -4.3350   21.2140 F   0  0  0  0  0  0  0  0  0  0  0  0
  -21.3470   -3.8340   25.8950 F   0  0  0  0  0  0  0  0  0  0  0  0
  -23.0360  -13.6020   21.2280 C   0  0  0  0  0  0  0  0  0  0  0  0
  -22.3930  -12.9130   22.1650 N   0  0  0  0  0  0  0  0  0  0  0  0
  -22.5870  -14.6630   20.7970 O   0  0  0  0  0  0  0  0  0  0  0  0
  -22.7720  -12.0540   22.5350 H   0  0  0  0  0  0  0  0  0  0  0  0
  -21.5090  -13.2500   22.5180 H   0  0  0  0  0  0  0  0  0  0  0  0
  -25.6330  -15.1740   20.1700 N   0  0  0  0  0  0  0  0  0  0  0  0
  -24.9270  -15.8590   20.4150 H   0  0  0  0  0  0  0  0  0  0  0  0
  -26.4620  -15.5920   19.7710 H   0  0  0  0  0  0  0  0  0  0  0  0
  -26.3970  -17.6710   20.3910 C   0  0  0  0  0  1  0  0  0  0  0  0
  -27.8410  -17.5080   20.2530 N   0  0  0  0  0  0  0  0  0  0  0  0
  -28.2310  -16.6640   20.6640 H   0  0  0  0  0  0  0  0  0  0  0  0
  -28.7720  -23.5830   19.7790 C   0  0  0  0  0  3  0  0  0  0  0  0
  -28.2660  -22.3860   19.6490 N   0  0  0  0  0  0  0  0  0  0  0  0
  -27.9280  -24.8570   19.3960 C   0  0  0  0  0  2  0  0  0  0  0  0
  -28.2370  -26.2480   19.8400 O   0  0  0  0  0  0  0  0  0  0  0  0
  -24.5080  -31.6070   22.9780 C   0  0  0  0  0  0  0  0  0  0  0  0
  -27.1490  -27.1480   19.7870 C   0  0  0  0  0  0  0  0  0  0  0  0
  -23.3190  -30.2460   21.2990 C   0  0  0  0  0  3  0  0  0  0  0  0
  -24.7810  -28.7660   19.8250 C   0  0  0  0  0  0  0  0  0  0  0  0
  -25.8590  -30.5870   21.1310 C   0  0  0  0  0  2  0  0  0  0  0  0
  -25.9500  -29.2310   20.4410 C   0  0  0  0  0  0  0  0  0  0  0  0
  -27.1380  -28.4340   20.4190 C   0  0  0  0  0  3  0  0  0  0  0  0
  -25.9550  -26.7660   19.1230 C   0  0  0  0  0  3  0  0  0  0  0  0
  -24.7880  -27.5390   19.1560 C   0  0  0  0  0  3  0  0  0  0  0  0
  -23.5400  -29.6250   19.8990 C   0  0  0  0  0  2  0  0  0  0  0  0
  -24.5810  -30.8300   21.8590 N   0  0  0  0  0  0  0  0  0  0  0  0
  -23.4210  -31.8580   23.5190 O   0  0  0  0  0  0  0  0  0  0  0  0
  -22.6680  -29.1910   22.2270 C   0  0  0  0  0  0  0  0  0  0  0  0
  -21.3380  -29.0270   22.1180 N   0  0  0  0  0  0  0  0  0  0  0  0
  -23.3560  -28.5260   23.0040 O   0  0  0  0  0  0  0  0  0  0  0  0
  -20.8410  -29.6170   21.4640 H   0  0  0  0  0  0  0  0  0  0  0  0
  -17.9550  -27.8740   22.6760 C   0  0  0  0  0  0  0  0  0  0  0  0
  -20.5270  -28.0660   22.8670 C   0  0  0  0  0  3  0  0  0  0  0  0
  -20.5750  -26.6650   22.2130 C   0  0  0  0  0  2  0  0  0  0  0  0
  -19.4320  -26.4210   21.2240 C   0  0  0  0  0  2  0  0  0  0  0  0
  -18.0780  -26.5600   21.9240 C   0  0  0  0  0  2  0  0  0  0  0  0
  -19.1050  -28.5890   23.1060 C   0  0  0  0  0  0  0  0  0  0  0  0
  -18.9360  -29.8220   23.7730 C   0  0  0  0  0  3  0  0  0  0  0  0
  -17.6490  -30.3410   24.0130 C   0  0  0  0  0  3  0  0  0  0  0  0
  -16.5140  -29.6210   23.6010 C   0  0  0  0  0  3  0  0  0  0  0  0
  -16.6680  -28.3900   22.9380 C   0  0  0  0  0  3  0  0  0  0  0  0
  -25.7840  -32.2360   23.6150 C   0  0  0  0  0  3  0  0  0  0  0  0
  -25.4410  -33.6000   24.0420 N   0  0  0  0  0  0  0  0  0  0  0  0
  -25.7220  -34.7100   23.3460 C   0  0  0  0  0  0  0  0  0  0  0  0
  -26.3720  -34.6940   22.2950 O   0  0  0  0  0  0  0  0  0  0  0  0
  -24.8620  -33.6840   24.8650 H   0  0  0  0  0  0  0  0  0  0  0  0
  -23.9280  -36.4630   23.1510 C   0  0  0  0  0  1  0  0  0  0  0  0
  -25.2050  -36.0510   23.9030 C   0  0  0  0  0  3  0  0  0  0  0  0
  -27.3270  -36.9570   24.7400 C   0  0  0  0  0  1  0  0  0  0  0  0
  -26.1990  -37.1430   23.8310 N   0  0  0  0  0  0  0  0  0  0  0  0
  -25.7660  -38.0380   24.0440 H   0  0  0  0  0  0  0  0  0  0  0  0
  -26.3460  -31.4000   24.8300 C   0  0  1  0  0  0  0  0  0  0  0  0
  -25.2810  -31.0600   25.8980 C   0  0  0  0  0  1  0  0  0  0  0  0
  -26.9640  -30.0690   24.3420 C   0  0  0  0  0  1  0  0  0  0  0  0
  -27.4850  -32.1850   25.5230 C   0  0  0  0  0  1  0  0  0  0  0  0
  -32.2900  -19.4850   18.8520 C   0  0  0  0  0  2  0  0  0  0  0  0
  -33.1780  -19.6120   20.0140 N   0  0  0  0  0  4  0  0  0  0  0  0
  -33.0040  -20.4720   20.5030 H   0  0  0  0  0  0  0  0  0  0  0  0
  -34.1370  -19.5980   19.7180 H   0  0  0  0  0  0  0  0  0  0  0  0
  -33.0180  -18.8350   20.6350 H   0  0  0  0  0  0  0  0  0  0  0  0
  1  5  1  0
  3 15  1  0
  3  6  2  0
  4  1  2  0
  4  3  1  0
  5  2  2  0
  6  2  1  0
  6 48  1  0
  7 13  1  0
  7 16  1  0
  8 13  1  0
  9 10  1  0
  9  8  1  0
 11 10  1  0
 11 22  1  0
 11 12  1  0
 13 12  1  0
 14  7  2  0
 15 16  1  0
 15 17  2  0
 16 18  1  0
 19 20  2  0
 20 39  1  0
 21 20  1  0
 21 24  1  0
 22 23  1  0
 22 19  1  0
 23 21  2  0
 24 25  1  0
 25 26  2  0
 27 30  1  0
 27 26  1  0
 28 27  2  0
 29 28  1  0
 29 24  2  0
 30 31  1  0
 31 32  1  0
 32 33  2  0
 34 33  1  0
 34 38  1  0
 35 34  2  0
 36 31  2  0
 36 35  1  0
 37 36  1  0
 39 40  1  0
 40 43  1  0
 40 42  1  0
 41 39  2  0
 44 19  1  0
 44 45  1  0
 46 44  1  0
 48 47  1  0
 48 49  1  0
 51  5  1  0
 51 50  2  0
 52 50  1  0
 52 53  1  0
 54 65  2  0
 55 53  1  0
 55 60  1  0
 56 64  1  0
 56 66  1  0
 57 63  1  0
 57 59  1  0
 58 64  1  0
 59 58  1  0
 60 59  2  0
 61 62  1  0
 61 55  2  0
 62 57  2  0
 63 56  1  0
 64 54  1  0
 66 68  2  0
 67 66  1  0
 69 67  1  0
 70 79  2  0
 70 75  1  0
 71 67  1  0
 71 75  1  0
 72 71  1  0
 73 74  1  0
 73 72  1  0
 74 70  1  0
 75 76  2  0
 76 77  1  0
 78 77  2  0
 79 78  1  0
 80 54  1  0
 80 81  1  0
 80 90  1  0
 81 84  1  0
 82 86  1  0
 82 81  1  0
 83 82  2  0
 86 85  1  0
 88 86  1  0
 88 89  1  0
 88 87  1  0
 90 93  1  1
 90 91  1  0
 92 90  1  0
 94  4  1  0
 94 95  1  0
 95 96  1  0
 95 98  1  0
 97 95  1  0
M  ISO  4   7 100  16 100  52 101  53 101
M  END
>  <TORSDO>  (42) 
F 21

>  <SCORE>  (42) 
-12.820

>  <name>  (42) 
41

>  <ligand_id>  (42) 
41

>  <original_smiles>  (42) 
[H]C(=Nc1c([H])c(N([H])C([H])([H])[H])c(C(=O)N([H])C(=O)N2C([H])([H])C([H])([H])C([H])([H])C([H])(n3nc(-c4c([H])c([H])c(Oc5c([H])c([H])c(F)c([H])c5F)c([H])c4[H])c(C(=O)N([H])[H])c3N([H])[H])C2([H])[H])c(C([H])([H])[N+]([H])([H])[H])c1[H])C([H])([H])Oc1c([H])c([H])c2c(c1[H])C([H])([H])N(C(=O)C([H])(N([H])C(=O)C([H])(N([H])C([H])([H])[H])C([H])([H])[H])C(C([H])([H])[H])(C([H])([H])[H])C([H])([H])[H])C([H])(C(=O)N([H])C1([H])c3c([H])c([H])c([H])c([H])c3C([H])([H])C([H])([H])C1([H])[H])C2([H])[H]

>  <smiles>  (42) 
[H]C(=Nc1c([H])c(N([H])C([H])([H])[H])c(C(=O)N([H])C(=O)N2C([H])([H])C([H])([H])C([H])([H])C([H])(n3nc(-c4c([H])c([H])c(Oc5c([H])c([H])c(F)c([H])c5F)c([H])c4[H])c(C(=O)N([H])[H])c3N([H])[H])C2([H])[H])c(C([H])([H])[N+]([H])([H])[H])c1[H])C([H])([H])Oc1c([H])c([H])c2c(c1[H])C([H])([H])N(C(=O)C([H])(N([H])C(=O)C([H])(N([H])C([H])([H])[H])C([H])([H])[H])C(C([H])([H])[H])(C([H])([H])[H])C([H])([H])[H])C([H])(C(=O)N([H])C1([H])c3c([H])c([H])c([H])c([H])c3C([H])([H])C([H])([H])C1([H])[H])C2([H])[H]

$$$$
42:0:0
     RDKit          3D

 99108  0  0  1  0  0  0  0  0999 V2000
  -30.0010  -19.3090   20.6600 C   0  0  0  0  0  3  0  0  0  0  0  0
  -30.8010  -16.9940   20.6860 C   0  0  0  0  0  3  0  0  0  0  0  0
  -29.7100  -17.9240   18.7070 C   0  0  0  0  0  3  0  0  0  0  0  0
  -30.6150  -18.2300   21.3170 C   0  0  0  0  0  0  0  0  0  0  0  0
  -29.5050  -19.2410   19.3400 C   0  0  0  0  0  0  0  0  0  0  0  0
  -30.3670  -16.7900   19.3680 C   0  0  0  0  0  0  0  0  0  0  0  0
  -31.2610  -14.3130   19.2330 C   0  0  0  0  0  0  0  0  0  0  0  0
  -30.9430  -11.9320   18.5720 C   0  0  0  0  0  2  0  0  0  0  0  0
  -29.8240  -11.8910   17.5090 C   0  0  0  0  0  2  0  0  0  0  0  0
  -28.4340  -11.7980   18.1720 C   0  0  0  0  0  2  0  0  0  0  0  0
  -28.2500  -12.8180   19.3300 C   0  0  0  0  0  3  0  0  0  0  0  0
  -29.4750  -12.8370   20.2680 C   0  0  0  0  0  2  0  0  0  0  0  0
  -30.6590  -13.0950   19.4350 N   0  0  0  0  0  0  0  0  0  0  0  0
  -32.4480  -14.3840   18.9000 O   0  0  0  0  0  0  0  0  0  0  0  0
  -30.3960  -15.3660   18.9690 N   0  0  0  0  0  0  0  0  0  0  0  0
  -29.4660  -14.9800   18.9270 H   0  0  0  0  0  0  0  0  0  0  0  0
  -26.1420  -13.5720   20.5920 C   0  0  0  0  0  0  0  0  0  0  0  0
  -25.0570  -12.8770   21.0550 C   0  0  0  0  0  0  0  0  0  0  0  0
  -25.3140  -11.5040   20.7650 C   0  0  0  0  0  0  0  0  0  0  0  0
  -26.9930  -12.6230   20.0420 N   0  0  0  0  0  0  0  0  0  0  0  0
  -26.5100  -11.3650   20.2090 N   0  0  0  0  0  0  0  0  0  0  0  0
  -24.4610  -10.3170   20.9260 C   0  0  0  0  0  0  0  0  0  0  0  0
  -24.7430   -9.3330   21.9010 C   0  0  0  0  0  3  0  0  0  0  0  0
  -23.9010   -8.2120   22.0560 C   0  0  0  0  0  3  0  0  0  0  0  0
  -22.7590   -8.0660   21.2320 C   0  0  0  0  0  0  0  0  0  0  0  0
  -22.4940   -9.0330   20.2470 C   0  0  0  0  0  3  0  0  0  0  0  0
  -23.3350  -10.1470   20.0940 C   0  0  0  0  0  3  0  0  0  0  0  0
  -21.8970   -6.9980   21.2930 O   0  0  0  0  0  0  0  0  0  0  0  0
  -21.4630   -6.4920   22.4920 C   0  0  0  0  0  0  0  0  0  0  0  0
  -20.7040   -7.2640   23.3960 C   0  0  0  0  0  3  0  0  0  0  0  0
  -20.2200   -6.6830   24.5860 C   0  0  0  0  0  3  0  0  0  0  0  0
  -20.4810   -5.3270   24.8650 C   0  0  0  0  0  0  0  0  0  0  0  0
  -21.2360   -4.5560   23.9620 C   0  0  0  0  0  3  0  0  0  0  0  0
  -21.7210   -5.1360   22.7770 C   0  0  0  0  0  0  0  0  0  0  0  0
  -22.4280   -4.3830   21.8990 F   0  0  0  0  0  0  0  0  0  0  0  0
  -20.0100   -4.7620   25.9990 F   0  0  0  0  0  0  0  0  0  0  0  0
  -23.8070  -13.4650   21.6420 C   0  0  0  0  0  0  0  0  0  0  0  0
  -23.1590  -12.7520   22.5560 N   0  0  0  0  0  0  0  0  0  0  0  0
  -23.4180  -14.5870   21.3250 O   0  0  0  0  0  0  0  0  0  0  0  0
  -23.4820  -11.8360   22.8360 H   0  0  0  0  0  0  0  0  0  0  0  0
  -22.3330  -13.1360   22.9940 H   0  0  0  0  0  0  0  0  0  0  0  0
  -26.4500  -14.9310   20.5700 N   0  0  0  0  0  0  0  0  0  0  0  0
  -25.8060  -15.6200   20.9410 H   0  0  0  0  0  0  0  0  0  0  0  0
  -27.2580  -15.3480   20.1210 H   0  0  0  0  0  0  0  0  0  0  0  0
  -28.6820  -21.7410   19.4720 C   0  0  0  0  0  3  0  0  0  0  0  0
  -27.9920  -22.8760   19.0750 C   0  0  0  0  0  0  0  0  0  0  0  0
  -27.3510  -22.7940   17.7490 C   0  0  0  0  0  0  0  0  0  0  0  0
  -27.6650  -21.5800   16.8490 C   0  0  0  0  0  2  0  0  0  0  0  0
  -28.0950  -20.2630   17.5690 C   0  0  0  0  0  2  0  0  0  0  0  0
  -28.8510  -20.4530   18.8150 N   0  0  0  0  0  0  0  0  0  0  0  0
  -26.6090  -23.6730   17.3010 O   0  0  0  0  0  0  0  0  0  0  0  0
  -27.8090  -24.2020   19.9670 C   0  0  0  0  0  2  0  0  0  0  0  0
  -28.0420  -25.6130   19.4770 O   0  0  0  0  0  0  0  0  0  0  0  0
  -24.7140  -31.1750   22.8490 C   0  0  0  0  0  0  0  0  0  0  0  0
  -26.9770  -26.5440   19.5580 C   0  0  0  0  0  0  0  0  0  0  0  0
  -23.3810  -29.8740   21.2300 C   0  0  0  0  0  3  0  0  0  0  0  0
  -24.6970  -28.2880   19.7080 C   0  0  0  0  0  0  0  0  0  0  0  0
  -25.9240  -30.0640   20.9530 C   0  0  0  0  0  2  0  0  0  0  0  0
  -25.9130  -28.6960   20.2640 C   0  0  0  0  0  0  0  0  0  0  0  0
  -27.0560  -27.8380   20.1820 C   0  0  0  0  0  3  0  0  0  0  0  0
  -25.7380  -26.2040   18.9720 C   0  0  0  0  0  3  0  0  0  0  0  0
  -24.6110  -27.0470   19.0550 C   0  0  0  0  0  3  0  0  0  0  0  0
  -23.5060  -29.2200   19.8310 C   0  0  0  0  0  2  0  0  0  0  0  0
  -24.6960  -30.3920   21.7320 N   0  0  0  0  0  0  0  0  0  0  0  0
  -23.6670  -31.4820   23.4380 O   0  0  0  0  0  0  0  0  0  0  0  0
  -22.7100  -28.8670   22.1940 C   0  0  0  0  0  0  0  0  0  0  0  0
  -21.3840  -28.6850   22.0560 N   0  0  0  0  0  0  0  0  0  0  0  0
  -23.3810  -28.2540   23.0280 O   0  0  0  0  0  0  0  0  0  0  0  0
  -20.8960  -29.2250   21.3530 H   0  0  0  0  0  0  0  0  0  0  0  0
  -18.0150  -27.4430   22.5270 C   0  0  0  0  0  0  0  0  0  0  0  0
  -20.5650  -27.7530   22.8340 C   0  0  0  0  0  3  0  0  0  0  0  0
  -20.6990  -26.3090   22.2980 C   0  0  0  0  0  2  0  0  0  0  0  0
  -19.6220  -25.9400   21.2730 C   0  0  0  0  0  2  0  0  0  0  0  0
  -18.2260  -26.0820   21.8860 C   0  0  0  0  0  2  0  0  0  0  0  0
  -19.1150  -28.2350   22.9570 C   0  0  0  0  0  0  0  0  0  0  0  0
  -18.8610  -29.5040   23.5260 C   0  0  0  0  0  3  0  0  0  0  0  0
  -17.5420  -29.9830   23.6600 C   0  0  0  0  0  3  0  0  0  0  0  0
  -16.4580  -29.1930   23.2380 C   0  0  0  0  0  3  0  0  0  0  0  0
  -16.6970  -27.9230   22.6790 C   0  0  0  0  0  3  0  0  0  0  0  0
  -26.0490  -31.7380   23.4310 C   0  0  0  0  0  3  0  0  0  0  0  0
  -25.7810  -33.0940   23.9330 N   0  0  0  0  0  0  0  0  0  0  0  0
  -26.0910  -34.2240   23.2790 C   0  0  0  0  0  0  0  0  0  0  0  0
  -26.7020  -34.2280   22.2070 O   0  0  0  0  0  0  0  0  0  0  0  0
  -25.2410  -33.1670   24.7820 H   0  0  0  0  0  0  0  0  0  0  0  0
  -24.3910  -36.0750   23.2120 C   0  0  0  0  0  1  0  0  0  0  0  0
  -25.6560  -35.5590   23.9160 C   0  0  0  0  0  3  0  0  0  0  0  0
  -27.8280  -36.3190   24.7620 C   0  0  0  0  0  1  0  0  0  0  0  0
  -26.7030  -36.6010   23.8770 N   0  0  0  0  0  0  0  0  0  0  0  0
  -26.3180  -37.5050   24.1340 H   0  0  0  0  0  0  0  0  0  0  0  0
  -26.6570  -30.8410   24.5800 C   0  0  1  0  0  0  0  0  0  0  0  0
  -25.6320  -30.4450   25.6690 C   0  0  0  0  0  1  0  0  0  0  0  0
  -27.2550  -29.5380   23.9980 C   0  0  0  0  0  1  0  0  0  0  0  0
  -27.8220  -31.5880   25.2690 C   0  0  0  0  0  1  0  0  0  0  0  0
  -31.0010  -18.3990   22.7640 C   0  0  0  0  0  2  0  0  0  0  0  0
  -30.0340  -17.6440   23.6880 C   0  0  0  0  0  2  0  0  0  0  0  0
  -30.4960  -17.7010   25.0760 N   0  0  0  0  0  4  0  0  0  0  0  0
  -31.4140  -17.3080   25.1670 H   0  0  0  0  0  0  0  0  0  0  0  0
  -29.8660  -17.2030   25.6750 H   0  0  0  0  0  0  0  0  0  0  0  0
  -30.5250  -18.6600   25.3820 H   0  0  0  0  0  0  0  0  0  0  0  0
  1  4  1  0
  2  4  2  0
  3  5  1  0
  3  6  2  0
  4 94  1  0
  5  1  2  0
  6  2  1  0
  7 13  1  0
  8 13  1  0
  9 10  1  0
  9  8  1  0
 11 10  1  0
 11 20  1  0
 11 12  1  0
 13 12  1  0
 14  7  2  0
 15  7  1  0
 15  6  1  0
 16 15  1  0
 17 18  2  0
 18 37  1  0
 19 22  1  0
 19 18  1  0
 20 21  1  0
 20 17  1  0
 21 19  2  0
 22 23  1  0
 23 24  2  0
 25 28  1  0
 25 24  1  0
 26 25  2  0
 27 26  1  0
 27 22  2  0
 28 29  1  0
 29 34  2  0
 29 30  1  0
 30 31  2  0
 31 32  1  0
 32 36  1  0
 33 32  2  0
 34 33  1  0
 35 34  1  0
 37 38  1  0
 38 40  1  0
 38 41  1  0
 39 37  2  0
 42 17  1  0
 42 43  1  0
 44 42  1  0
 46 45  2  0
 46 52  1  0
 47 46  1  0
 48 49  1  0
 48 47  1  0
 49 50  1  0
 50  5  1  0
 50 45  1  0
 51 47  2  0
 53 55  1  0
 53 52  1  0
 54 65  2  0
 55 60  1  0
 56 64  1  0
 56 66  1  0
 57 63  1  0
 57 59  1  0
 58 64  1  0
 59 58  1  0
 60 59  2  0
 61 62  1  0
 61 55  2  0
 62 57  2  0
 63 56  1  0
 64 54  1  0
 66 68  2  0
 67 66  1  0
 69 67  1  0
 70 79  2  0
 70 75  1  0
 71 67  1  0
 71 75  1  0
 72 71  1  0
 73 74  1  0
 73 72  1  0
 74 70  1  0
 75 76  2  0
 76 77  1  0
 78 77  2  0
 79 78  1  0
 80 54  1  0
 80 81  1  0
 80 90  1  0
 81 84  1  0
 82 86  1  0
 82 81  1  0
 83 82  2  0
 86 85  1  0
 88 86  1  0
 88 89  1  0
 88 87  1  0
 90 93  1  1
 90 91  1  0
 92 90  1  0
 94 95  1  0
 95 96  1  0
 96 97  1  0
 96 99  1  0
 96 98  1  0
M  ISO  4   7 100  15 100  52 101  53 101
M  END
>  <TORSDO>  (43) 
F 21

>  <SCORE>  (43) 
-6.940

>  <name>  (43) 
42

>  <ligand_id>  (43) 
42

>  <original_smiles>  (43) 
[H]C1=C(C([H])([H])Oc2c([H])c([H])c3c(c2[H])C([H])([H])N(C(=O)C([H])(N([H])C(=O)C([H])(N([H])C([H])([H])[H])C([H])([H])[H])C(C([H])([H])[H])(C([H])([H])[H])C([H])([H])[H])C([H])(C(=O)N([H])C2([H])c4c([H])c([H])c([H])c([H])c4C([H])([H])C([H])([H])C2([H])[H])C3([H])[H])C(=O)C([H])([H])C([H])([H])N1c1c([H])c(N([H])C(=O)N2C([H])([H])C([H])([H])C([H])([H])C([H])(n3nc(-c4c([H])c([H])c(Oc5c([H])c([H])c(F)c([H])c5F)c([H])c4[H])c(C(=O)N([H])[H])c3N([H])[H])C2([H])[H])c([H])c(C([H])([H])C([H])([H])[N+]([H])([H])[H])c1[H]

>  <smiles>  (43) 
[H]C1=C(C([H])([H])Oc2c([H])c([H])c3c(c2[H])C([H])([H])N(C(=O)C([H])(N([H])C(=O)C([H])(N([H])C([H])([H])[H])C([H])([H])[H])C(C([H])([H])[H])(C([H])([H])[H])C([H])([H])[H])C([H])(C(=O)N([H])C2([H])c4c([H])c([H])c([H])c([H])c4C([H])([H])C([H])([H])C2([H])[H])C3([H])[H])C(=O)C([H])([H])C([H])([H])N1c1c([H])c(N([H])C(=O)N2C([H])([H])C([H])([H])C([H])([H])C([H])(n3nc(-c4c([H])c([H])c(Oc5c([H])c([H])c(F)c([H])c5F)c([H])c4[H])c(C(=O)N([H])[H])c3N([H])[H])C2([H])[H])c([H])c(C([H])([H])C([H])([H])[N+]([H])([H])[H])c1[H]

$$$$
43:0:0
     RDKit          3D

 97106  0  0  1  0  0  0  0  0999 V2000
  -30.0570  -23.4590   22.7880 C   0  0  0  0  0  0  0  0  0  0  0  0
  -29.4630  -22.6180   19.7180 C   0  0  0  0  0  0  0  0  0  0  0  0
  -30.5800  -22.0390   22.5910 C   0  0  0  0  0  2  0  0  0  0  0  0
  -28.9910  -23.9670   21.8240 C   0  0  0  0  0  2  0  0  0  0  0  0
  -31.2770  -21.8340   21.2320 C   0  0  0  0  0  2  0  0  0  0  0  0
  -29.4950  -24.0520   20.3670 C   0  0  0  0  0  3  0  0  0  0  0  0
  -30.3370  -21.6350   20.1150 N   0  0  0  0  0  0  0  0  0  0  0  0
  -30.4770  -24.1700   23.7040 O   0  0  0  0  0  0  0  0  0  0  0  0
  -28.6420  -22.4120   18.8190 O   0  0  0  0  0  0  0  0  0  0  0  0
  -31.6500  -20.5450   18.3200 C   0  0  0  0  0  1  0  0  0  0  0  0
  -30.5210  -20.3530   19.3500 C   0  0  0  0  0  3  0  0  0  0  0  0
  -30.9540  -17.7010   19.6410 C   0  0  0  0  0  3  0  0  0  0  0  0
  -30.6810  -19.0300   20.1340 C   0  0  0  0  0  0  0  0  0  0  0  0
  -30.7830  -16.8820   20.7330 C   0  0  0  0  0  0  0  0  0  0  0  0
  -30.1790  -17.3510   23.1840 C   0  0  0  0  0  1  0  0  0  0  0  0
  -30.4160  -18.9990   21.4370 N   0  0  0  0  0  0  0  0  0  0  0  0
  -30.4720  -17.6950   21.8060 N   0  0  0  0  0  0  0  0  0  0  0  0
  -31.3830  -14.5520   20.0930 C   0  0  0  0  0  0  0  0  0  0  0  0
  -30.9840  -12.4050   18.9160 C   0  0  0  0  0  2  0  0  0  0  0  0
  -30.0090  -12.6750   17.7500 C   0  0  0  0  0  2  0  0  0  0  0  0
  -28.5420  -12.6010   18.2240 C   0  0  0  0  0  2  0  0  0  0  0  0
  -28.2920  -13.4190   19.5200 C   0  0  0  0  0  3  0  0  0  0  0  0
  -29.3710  -13.1060   20.5810 C   0  0  0  0  0  2  0  0  0  0  0  0
  -30.6920  -13.3790   19.9850 N   0  0  0  0  0  0  0  0  0  0  0  0
  -32.4700  -14.7310   19.5300 O   0  0  0  0  0  0  0  0  0  0  0  0
  -30.7700  -15.5110   20.8230 N   0  0  0  0  0  0  0  0  0  0  0  0
  -30.0360  -15.1470   21.4100 H   0  0  0  0  0  0  0  0  0  0  0  0
  -25.9630  -14.1430   20.3370 C   0  0  0  0  0  0  0  0  0  0  0  0
  -24.8640  -13.4230   20.7250 C   0  0  0  0  0  0  0  0  0  0  0  0
  -25.2420  -12.0480   20.6330 C   0  0  0  0  0  0  0  0  0  0  0  0
  -26.9420  -13.2090   20.0380 N   0  0  0  0  0  0  0  0  0  0  0  0
  -26.5140  -11.9420   20.2720 N   0  0  0  0  0  0  0  0  0  0  0  0
  -24.4490  -10.8250   20.8140 C   0  0  0  0  0  0  0  0  0  0  0  0
  -24.8320   -9.8270   21.7370 C   0  0  0  0  0  3  0  0  0  0  0  0
  -24.0420   -8.6700   21.9070 C   0  0  0  0  0  3  0  0  0  0  0  0
  -22.8560   -8.5020   21.1540 C   0  0  0  0  0  0  0  0  0  0  0  0
  -22.4940   -9.4880   20.2190 C   0  0  0  0  0  3  0  0  0  0  0  0
  -23.2830  -10.6360   20.0470 C   0  0  0  0  0  3  0  0  0  0  0  0
  -22.0410   -7.3990   21.2330 O   0  0  0  0  0  0  0  0  0  0  0  0
  -21.9040   -6.6880   22.3980 C   0  0  0  0  0  0  0  0  0  0  0  0
  -21.4900   -7.2990   23.6010 C   0  0  0  0  0  3  0  0  0  0  0  0
  -21.2970   -6.5180   24.7580 C   0  0  0  0  0  3  0  0  0  0  0  0
  -21.5040   -5.1260   24.7110 C   0  0  0  0  0  0  0  0  0  0  0  0
  -21.9100   -4.5150   23.5120 C   0  0  0  0  0  3  0  0  0  0  0  0
  -22.1060   -5.2940   22.3580 C   0  0  0  0  0  0  0  0  0  0  0  0
  -22.4760   -4.6960   21.2000 F   0  0  0  0  0  0  0  0  0  0  0  0
  -21.3100   -4.3740   25.8200 F   0  0  0  0  0  0  0  0  0  0  0  0
  -23.5100  -13.9730   21.0680 C   0  0  0  0  0  0  0  0  0  0  0  0
  -22.7930  -13.3140   21.9720 N   0  0  0  0  0  0  0  0  0  0  0  0
  -23.1000  -15.0190   20.5690 O   0  0  0  0  0  0  0  0  0  0  0  0
  -23.1360  -12.4650   22.3960 H   0  0  0  0  0  0  0  0  0  0  0  0
  -21.8870  -13.6650   22.2470 H   0  0  0  0  0  0  0  0  0  0  0  0
  -26.2060  -15.5060   20.2030 N   0  0  0  0  0  0  0  0  0  0  0  0
  -25.4930  -16.2050   20.3810 H   0  0  0  0  0  0  0  0  0  0  0  0
  -27.0800  -15.9080   19.8850 H   0  0  0  0  0  0  0  0  0  0  0  0
  -28.6020  -25.0850   19.5840 C   0  0  0  0  0  2  0  0  0  0  0  0
  -28.7110  -26.5130   19.9000 O   0  0  0  0  0  0  0  0  0  0  0  0
  -24.7200  -31.6000   23.0050 C   0  0  0  0  0  0  0  0  0  0  0  0
  -27.5430  -27.2780   19.8410 C   0  0  0  0  0  0  0  0  0  0  0  0
  -23.5810  -30.1900   21.3260 C   0  0  0  0  0  3  0  0  0  0  0  0
  -25.1020  -28.7500   19.8670 C   0  0  0  0  0  0  0  0  0  0  0  0
  -26.1020  -30.6320   21.1630 C   0  0  0  0  0  2  0  0  0  0  0  0
  -26.2430  -29.2810   20.4820 C   0  0  0  0  0  0  0  0  0  0  0  0
  -27.4640  -28.5530   20.4670 C   0  0  0  0  0  3  0  0  0  0  0  0
  -26.3820  -26.8020   19.1830 C   0  0  0  0  0  3  0  0  0  0  0  0
  -25.1710  -27.5130   19.2110 C   0  0  0  0  0  3  0  0  0  0  0  0
  -23.8280  -29.5610   19.9290 C   0  0  0  0  0  2  0  0  0  0  0  0
  -24.8180  -30.8220   21.8890 N   0  0  0  0  0  0  0  0  0  0  0  0
  -23.6240  -31.8180   23.5410 O   0  0  0  0  0  0  0  0  0  0  0  0
  -22.9640  -29.1200   22.2560 C   0  0  0  0  0  0  0  0  0  0  0  0
  -21.6410  -28.9140   22.1450 N   0  0  0  0  0  0  0  0  0  0  0  0
  -23.6720  -28.4800   23.0390 O   0  0  0  0  0  0  0  0  0  0  0  0
  -21.1280  -29.4860   21.4900 H   0  0  0  0  0  0  0  0  0  0  0  0
  -18.2960  -27.6460   22.6770 C   0  0  0  0  0  0  0  0  0  0  0  0
  -20.8570  -27.9300   22.8940 C   0  0  0  0  0  3  0  0  0  0  0  0
  -20.9630  -26.5270   22.2530 C   0  0  0  0  0  2  0  0  0  0  0  0
  -19.8400  -26.2310   21.2540 C   0  0  0  0  0  2  0  0  0  0  0  0
  -18.4730  -26.3290   21.9400 C   0  0  0  0  0  2  0  0  0  0  0  0
  -19.4150  -28.4050   23.1120 C   0  0  0  0  0  0  0  0  0  0  0  0
  -19.1950  -29.6380   23.7630 C   0  0  0  0  0  3  0  0  0  0  0  0
  -17.8880  -30.1130   23.9840 C   0  0  0  0  0  3  0  0  0  0  0  0
  -16.7840  -29.3500   23.5650 C   0  0  0  0  0  3  0  0  0  0  0  0
  -16.9890  -28.1190   22.9190 C   0  0  0  0  0  3  0  0  0  0  0  0
  -25.9740  -32.2710   23.6450 C   0  0  0  0  0  3  0  0  0  0  0  0
  -26.5380  -31.4740   24.8860 C   0  0  1  0  0  0  0  0  0  0  0  0
  -25.4640  -31.1380   25.9470 C   0  0  0  0  0  1  0  0  0  0  0  0
  -27.1850  -30.1440   24.4350 C   0  0  0  0  0  1  0  0  0  0  0  0
  -27.6530  -32.2960   25.5730 C   0  0  0  0  0  1  0  0  0  0  0  0
  -25.5970  -33.6350   24.0340 N   0  0  0  0  0  0  0  0  0  0  0  0
  -25.8880  -34.7360   23.3270 C   0  0  0  0  0  0  0  0  0  0  0  0
  -26.5740  -34.7100   22.3010 O   0  0  0  0  0  0  0  0  0  0  0  0
  -24.9850  -33.7270   24.8320 H   0  0  0  0  0  0  0  0  0  0  0  0
  -24.0790  -36.4580   23.0300 C   0  0  0  0  0  1  0  0  0  0  0  0
  -25.3310  -36.0790   23.8380 C   0  0  0  0  0  3  0  0  0  0  0  0
  -27.4150  -37.0230   24.7290 C   0  0  0  0  0  1  0  0  0  0  0  0
  -26.3130  -37.1820   23.7830 N   0  0  0  0  0  0  0  0  0  0  0  0
  -25.8630  -38.0750   23.9690 H   0  0  0  0  0  0  0  0  0  0  0  0
  1  8  2  0
  2  7  1  0
  2  6  1  0
  3  1  1  0
  4  1  1  0
  5  3  1  0
  6 56  1  0
  6  4  1  0
  7  5  1  0
  9  2  2  0
 11 10  1  0
 11  7  1  0
 11 13  1  0
 12 13  1  0
 12 14  2  0
 13 16  2  0
 14 26  1  0
 14 17  1  0
 16 17  1  0
 17 15  1  0
 18 26  1  0
 19 24  1  0
 20 21  1  0
 20 19  1  0
 22 21  1  0
 22 31  1  0
 22 23  1  0
 24 18  1  0
 24 23  1  0
 25 18  2  0
 26 27  1  0
 28 29  2  0
 29 48  1  0
 30 29  1  0
 30 33  1  0
 31 32  1  0
 31 28  1  0
 32 30  2  0
 33 34  1  0
 34 35  2  0
 36 39  1  0
 36 35  1  0
 37 36  2  0
 38 37  1  0
 38 33  2  0
 39 40  1  0
 40 41  1  0
 41 42  2  0
 43 42  1  0
 43 47  1  0
 44 43  2  0
 45 40  2  0
 45 44  1  0
 46 45  1  0
 48 49  1  0
 49 52  1  0
 49 51  1  0
 50 48  2  0
 53 28  1  0
 53 54  1  0
 55 53  1  0
 56 57  1  0
 58 69  2  0
 59 57  1  0
 59 64  1  0
 60 68  1  0
 60 70  1  0
 61 67  1  0
 61 63  1  0
 62 68  1  0
 63 62  1  0
 64 63  2  0
 65 66  1  0
 65 59  2  0
 66 61  2  0
 67 60  1  0
 68 58  1  0
 70 72  2  0
 71 70  1  0
 73 71  1  0
 74 83  2  0
 74 79  1  0
 75 71  1  0
 75 79  1  0
 76 75  1  0
 77 78  1  0
 77 76  1  0
 78 74  1  0
 79 80  2  0
 80 81  1  0
 82 81  2  0
 83 82  1  0
 84 58  1  0
 84 89  1  0
 84 85  1  0
 85 88  1  1
 85 86  1  0
 87 85  1  0
 89 92  1  0
 90 94  1  0
 90 89  1  0
 91 90  2  0
 94 93  1  0
 96 94  1  0
 96 97  1  0
 96 95  1  0
M  ISO  4  18 100  26 100  56 101  57 101
M  END
>  <TORSDO>  (44) 
F 19

>  <SCORE>  (44) 
-11.953

>  <name>  (44) 
43

>  <ligand_id>  (44) 
43

>  <original_smiles>  (44) 
[H]c1c([H])c([H])c2c(c1[H])C([H])([H])C([H])([H])C([H])([H])C2([H])N([H])C(=O)C1([H])N(C(=O)C([H])(N([H])C(=O)C([H])(N([H])C([H])([H])[H])C([H])([H])[H])C(C([H])([H])[H])(C([H])([H])[H])C([H])([H])[H])C([H])([H])c2c([H])c(OC([H])([H])C3([H])C(=O)N(C([H])(c4nn(C([H])([H])[H])c(N([H])C(=O)N5C([H])([H])C([H])([H])C([H])([H])C([H])(n6nc(-c7c([H])c([H])c(Oc8c([H])c([H])c(F)c([H])c8F)c([H])c7[H])c(C(=O)N([H])[H])c6N([H])[H])C5([H])[H])c4[H])C([H])([H])[H])C([H])([H])C([H])([H])C(=O)C3([H])[H])c([H])c([H])c2C1([H])[H]

>  <smiles>  (44) 
[H]c1c([H])c([H])c2c(c1[H])C([H])([H])C([H])([H])C([H])([H])C2([H])N([H])C(=O)C1([H])N(C(=O)C([H])(N([H])C(=O)C([H])(N([H])C([H])([H])[H])C([H])([H])[H])C(C([H])([H])[H])(C([H])([H])[H])C([H])([H])[H])C([H])([H])c2c([H])c(OC([H])([H])C3([H])C(=O)N(C([H])(c4nn(C([H])([H])[H])c(N([H])C(=O)N5C([H])([H])C([H])([H])C([H])([H])C([H])(n6nc(-c7c([H])c([H])c(Oc8c([H])c([H])c(F)c([H])c8F)c([H])c7[H])c(C(=O)N([H])[H])c6N([H])[H])C5([H])[H])c4[H])C([H])([H])[H])C([H])([H])C([H])([H])C(=O)C3([H])[H])c([H])c([H])c2C1([H])[H]

$$$$
44:0:0
     RDKit          3D

 96104  0  0  1  0  0  0  0  0999 V2000
  -29.7140  -19.1550   20.4480 C   0  0  0  0  0  3  0  0  0  0  0  0
  -27.8670  -17.8380   19.5810 C   0  0  0  0  0  3  0  0  0  0  0  0
  -29.1220  -17.8620   20.2320 C   0  0  0  0  0  0  0  0  0  0  0  0
  -27.7660  -20.2870   19.5050 C   0  0  0  0  0  0  0  0  0  0  0  0
  -29.0610  -20.3840   20.0800 C   0  0  0  0  0  0  0  0  0  0  0  0
  -27.2010  -19.0260   19.2230 C   0  0  0  0  0  0  0  0  0  0  0  0
  -25.9640  -18.9580   18.6700 F   0  0  0  0  0  0  0  0  0  0  0  0
  -26.9650  -21.4150   19.3120 N   0  0  0  0  0  0  0  0  0  0  0  0
  -27.0950  -22.1290   20.0220 H   0  0  0  0  0  0  0  0  0  0  0  0
  -25.9830  -21.1870   19.2070 H   0  0  0  0  0  0  0  0  0  0  0  0
  -30.6200  -16.7880   21.9830 C   0  0  0  0  0  1  0  0  0  0  0  0
  -29.6750  -16.5050   20.7960 C   0  0  0  0  0  3  0  0  0  0  0  0
  -30.9640  -14.3970   19.9680 C   0  0  0  0  0  0  0  0  0  0  0  0
  -30.6720  -12.0400   19.2320 C   0  0  0  0  0  2  0  0  0  0  0  0
  -29.7290  -11.9940   18.0110 C   0  0  0  0  0  2  0  0  0  0  0  0
  -28.2600  -11.9270   18.4690 C   0  0  0  0  0  2  0  0  0  0  0  0
  -27.9180  -12.9760   19.5640 C   0  0  0  0  0  3  0  0  0  0  0  0
  -28.9830  -12.9830   20.6850 C   0  0  0  0  0  2  0  0  0  0  0  0
  -30.2780  -13.2140   20.0440 N   0  0  0  0  0  0  0  0  0  0  0  0
  -32.1330  -14.4160   19.5820 O   0  0  0  0  0  0  0  0  0  0  0  0
  -30.2460  -15.5480   19.8050 N   0  0  0  0  0  0  0  0  0  0  0  0
  -30.6600  -16.0800   19.0530 H   0  0  0  0  0  0  0  0  0  0  0  0
  -25.5910  -13.7310   20.3450 C   0  0  0  0  0  0  0  0  0  0  0  0
  -24.4920  -13.0330   20.7590 C   0  0  0  0  0  0  0  0  0  0  0  0
  -24.8640  -11.6550   20.7250 C   0  0  0  0  0  0  0  0  0  0  0  0
  -26.5730  -12.7860   20.0930 N   0  0  0  0  0  0  0  0  0  0  0  0
  -26.1390  -11.5310   20.3770 N   0  0  0  0  0  0  0  0  0  0  0  0
  -24.0600  -10.4490   20.9450 C   0  0  0  0  0  0  0  0  0  0  0  0
  -24.4650   -9.4480   21.8570 C   0  0  0  0  0  3  0  0  0  0  0  0
  -23.6670   -8.3040   22.0640 C   0  0  0  0  0  3  0  0  0  0  0  0
  -22.4490   -8.1520   21.3590 C   0  0  0  0  0  0  0  0  0  0  0  0
  -22.0600   -9.1390   20.4370 C   0  0  0  0  0  3  0  0  0  0  0  0
  -22.8580  -10.2760   20.2270 C   0  0  0  0  0  3  0  0  0  0  0  0
  -21.6200   -7.0630   21.4800 O   0  0  0  0  0  0  0  0  0  0  0  0
  -21.5780   -6.3140   22.6290 C   0  0  0  0  0  0  0  0  0  0  0  0
  -21.2430   -6.8800   23.8780 C   0  0  0  0  0  3  0  0  0  0  0  0
  -21.1430   -6.0600   25.0180 C   0  0  0  0  0  3  0  0  0  0  0  0
  -21.3740   -4.6750   24.9120 C   0  0  0  0  0  0  0  0  0  0  0  0
  -21.7080   -4.1100   23.6700 C   0  0  0  0  0  3  0  0  0  0  0  0
  -21.8080   -4.9270   22.5300 C   0  0  0  0  0  0  0  0  0  0  0  0
  -22.1070   -4.3740   21.3300 F   0  0  0  0  0  0  0  0  0  0  0  0
  -21.2710   -3.8860   26.0060 F   0  0  0  0  0  0  0  0  0  0  0  0
  -23.1390  -13.6100   21.0690 C   0  0  0  0  0  0  0  0  0  0  0  0
  -22.3980  -12.9880   21.9790 N   0  0  0  0  0  0  0  0  0  0  0  0
  -22.7530  -14.6490   20.5360 O   0  0  0  0  0  0  0  0  0  0  0  0
  -22.7160  -12.1470   22.4380 H   0  0  0  0  0  0  0  0  0  0  0  0
  -21.4910  -13.3620   22.2190 H   0  0  0  0  0  0  0  0  0  0  0  0
  -25.8240  -15.0870   20.1410 N   0  0  0  0  0  0  0  0  0  0  0  0
  -25.0860  -15.7690   20.2660 H   0  0  0  0  0  0  0  0  0  0  0  0
  -26.6690  -15.4770   19.7430 H   0  0  0  0  0  0  0  0  0  0  0  0
  -29.6340  -21.6260   20.3940 O   0  0  0  0  0  0  0  0  0  0  0  0
  -29.4380  -22.8000   19.5310 C   0  0  0  0  0  2  0  0  0  0  0  0
  -28.9170  -24.0860   20.2720 C   0  0  0  0  0  0  0  0  0  0  0  0
  -28.5520  -24.0280   21.4510 O   0  0  0  0  0  0  0  0  0  0  0  0
  -28.8690  -25.4420   19.4870 C   0  0  0  0  0  2  0  0  0  0  0  0
  -28.6340  -26.6350   20.3120 O   0  0  0  0  0  0  0  0  0  0  0  0
  -24.6390  -31.8370   23.2340 C   0  0  0  0  0  0  0  0  0  0  0  0
  -27.4540  -27.3800   20.2330 C   0  0  0  0  0  0  0  0  0  0  0  0
  -23.5180  -30.4320   21.5380 C   0  0  0  0  0  3  0  0  0  0  0  0
  -25.0480  -28.9150   20.1630 C   0  0  0  0  0  0  0  0  0  0  0  0
  -26.0530  -30.8020   21.4490 C   0  0  0  0  0  2  0  0  0  0  0  0
  -26.1790  -29.4320   20.8010 C   0  0  0  0  0  0  0  0  0  0  0  0
  -27.3810  -28.6710   20.8350 C   0  0  0  0  0  3  0  0  0  0  0  0
  -26.2870  -26.8920   19.5960 C   0  0  0  0  0  3  0  0  0  0  0  0
  -25.0980  -27.6460   19.5610 C   0  0  0  0  0  3  0  0  0  0  0  0
  -23.7950  -29.7650   20.1640 C   0  0  0  0  0  2  0  0  0  0  0  0
  -24.7530  -31.0410   22.1300 N   0  0  0  0  0  0  0  0  0  0  0  0
  -23.5340  -32.0930   23.7330 O   0  0  0  0  0  0  0  0  0  0  0  0
  -22.8390  -29.3980   22.4670 C   0  0  0  0  0  0  0  0  0  0  0  0
  -21.5100  -29.2490   22.3340 N   0  0  0  0  0  0  0  0  0  0  0  0
  -23.5060  -28.7350   23.2660 O   0  0  0  0  0  0  0  0  0  0  0  0
  -21.0360  -29.8400   21.6670 H   0  0  0  0  0  0  0  0  0  0  0  0
  -18.1000  -28.1540   22.8370 C   0  0  0  0  0  0  0  0  0  0  0  0
  -20.6700  -28.3050   23.0720 C   0  0  0  0  0  3  0  0  0  0  0  0
  -20.7090  -26.9010   22.4240 C   0  0  0  0  0  2  0  0  0  0  0  0
  -19.5780  -26.6680   21.4160 C   0  0  0  0  0  2  0  0  0  0  0  0
  -18.2130  -26.8340   22.0910 C   0  0  0  0  0  2  0  0  0  0  0  0
  -19.2540  -28.8530   23.2820 C   0  0  0  0  0  0  0  0  0  0  0  0
  -19.0950  -30.0940   23.9360 C   0  0  0  0  0  3  0  0  0  0  0  0
  -17.8140  -30.6350   24.1510 C   0  0  0  0  0  3  0  0  0  0  0  0
  -16.6750  -29.9310   23.7210 C   0  0  0  0  0  3  0  0  0  0  0  0
  -16.8180  -28.6930   23.0710 C   0  0  0  0  0  3  0  0  0  0  0  0
  -25.8890  -32.4810   23.9110 C   0  0  0  0  0  3  0  0  0  0  0  0
  -25.5570  -33.8800   24.2180 N   0  0  0  0  0  0  0  0  0  0  0  0
  -25.9040  -34.9290   23.4610 C   0  0  0  0  0  0  0  0  0  0  0  0
  -26.6110  -34.8210   22.4540 O   0  0  0  0  0  0  0  0  0  0  0  0
  -24.9390  -34.0370   25.0000 H   0  0  0  0  0  0  0  0  0  0  0  0
  -24.1570  -36.6920   23.0460 C   0  0  0  0  0  1  0  0  0  0  0  0
  -25.3860  -36.3170   23.8880 C   0  0  0  0  0  3  0  0  0  0  0  0
  -27.4870  -37.2470   24.7550 C   0  0  0  0  0  1  0  0  0  0  0  0
  -26.4050  -37.3840   23.7840 N   0  0  0  0  0  0  0  0  0  0  0  0
  -25.9820  -38.3000   23.9090 H   0  0  0  0  0  0  0  0  0  0  0  0
  -26.3530  -31.7240   25.2160 C   0  0  1  0  0  0  0  0  0  0  0  0
  -25.2180  -31.4890   26.2390 C   0  0  0  0  0  1  0  0  0  0  0  0
  -26.9610  -30.3480   24.8590 C   0  0  0  0  0  1  0  0  0  0  0  0
  -27.4680  -32.5310   25.9230 C   0  0  0  0  0  1  0  0  0  0  0  0
  2  3  2  0
  3  1  1  0
  3 12  1  0
  4  5  1  0
  5 51  1  0
  5  1  2  0
  6  4  2  0
  6  2  1  0
  7  6  1  0
  8  4  1  0
  8  9  1  0
 10  8  1  0
 12 11  1  0
 13 19  1  0
 14 19  1  0
 15 16  1  0
 15 14  1  0
 17 16  1  0
 17 26  1  0
 17 18  1  0
 19 18  1  0
 20 13  2  0
 21 13  1  0
 21 12  1  0
 22 21  1  0
 23 24  2  0
 24 43  1  0
 25 24  1  0
 25 28  1  0
 26 23  1  0
 26 27  1  0
 27 25  2  0
 28 29  1  0
 29 30  2  0
 31 34  1  0
 31 30  1  0
 32 31  2  0
 33 32  1  0
 33 28  2  0
 34 35  1  0
 35 36  1  0
 36 37  2  0
 38 37  1  0
 38 42  1  0
 39 38  2  0
 40 35  2  0
 40 39  1  0
 41 40  1  0
 43 44  1  0
 44 47  1  0
 44 46  1  0
 45 43  2  0
 48 49  1  0
 48 23  1  0
 50 48  1  0
 52 53  1  0
 52 51  1  0
 53 54  2  0
 55 53  1  0
 55 56  1  0
 57 68  2  0
 58 56  1  0
 58 63  1  0
 59 67  1  0
 59 69  1  0
 60 66  1  0
 60 62  1  0
 61 67  1  0
 62 63  2  0
 62 61  1  0
 64 58  2  0
 65 64  1  0
 65 60  2  0
 66 59  1  0
 67 57  1  0
 69 71  2  0
 70 69  1  0
 72 70  1  0
 73 82  2  0
 73 78  1  0
 74 70  1  0
 74 78  1  0
 75 74  1  0
 76 77  1  0
 76 75  1  0
 77 73  1  0
 78 79  2  0
 79 80  1  0
 81 80  2  0
 82 81  1  0
 83 57  1  0
 83 84  1  0
 83 93  1  0
 84 87  1  0
 85 89  1  0
 85 84  1  0
 86 85  2  0
 89 88  1  0
 91 89  1  0
 91 92  1  0
 91 90  1  0
 93 96  1  1
 93 94  1  0
 95 93  1  0
M  ISO  4  13 100  21 100  55 101  56 101
M  END
>  <TORSDO>  (45) 
F 22

>  <SCORE>  (45) 
-13.587

>  <name>  (45) 
44

>  <ligand_id>  (45) 
44

>  <original_smiles>  (45) 
[H]c1c([H])c([H])c2c(c1[H])C([H])([H])C([H])([H])C([H])([H])C2([H])N([H])C(=O)C1([H])N(C(=O)C([H])(N([H])C(=O)C([H])(N([H])C([H])([H])[H])C([H])([H])[H])C(C([H])([H])[H])(C([H])([H])[H])C([H])([H])[H])C([H])([H])c2c([H])c(OC([H])([H])C(=O)C([H])([H])Oc3c([H])c(C([H])(N([H])C(=O)N4C([H])([H])C([H])([H])C([H])([H])C([H])(n5nc(-c6c([H])c([H])c(Oc7c([H])c([H])c(F)c([H])c7F)c([H])c6[H])c(C(=O)N([H])[H])c5N([H])[H])C4([H])[H])C([H])([H])[H])c([H])c(F)c3N([H])[H])c([H])c([H])c2C1([H])[H]

>  <smiles>  (45) 
[H]c1c([H])c([H])c2c(c1[H])C([H])([H])C([H])([H])C([H])([H])C2([H])N([H])C(=O)C1([H])N(C(=O)C([H])(N([H])C(=O)C([H])(N([H])C([H])([H])[H])C([H])([H])[H])C(C([H])([H])[H])(C([H])([H])[H])C([H])([H])[H])C([H])([H])c2c([H])c(OC([H])([H])C(=O)C([H])([H])Oc3c([H])c(C([H])(N([H])C(=O)N4C([H])([H])C([H])([H])C([H])([H])C([H])(n5nc(-c6c([H])c([H])c(Oc7c([H])c([H])c(F)c([H])c7F)c([H])c6[H])c(C(=O)N([H])[H])c5N([H])[H])C4([H])[H])C([H])([H])[H])c([H])c(F)c3N([H])[H])c([H])c([H])c2C1([H])[H]

$$$$
45:0:0
     RDKit          3D

 95103  0  0  1  0  0  0  0  0999 V2000
  -30.9140  -17.7320   19.1820 C   0  0  0  0  0  3  0  0  0  0  0  0
  -29.9150  -19.5110   21.0750 C   0  0  0  0  0  3  0  0  0  0  0  0
  -30.7020  -17.1890   20.4790 C   0  0  0  0  0  0  0  0  0  0  0  0
  -30.1470  -18.1420   21.4130 C   0  0  0  0  0  0  0  0  0  0  0  0
  -30.6360  -19.0870   18.8260 C   0  0  0  0  0  0  0  0  0  0  0  0
  -30.1630  -20.0370   19.7850 C   0  0  0  0  0  0  0  0  0  0  0  0
  -29.7950  -17.8010   22.7240 N   0  0  0  0  0  0  0  0  0  0  0  0
  -29.2750  -18.4940   23.2520 H   0  0  0  0  0  0  0  0  0  0  0  0
  -29.4090  -16.8730   22.8720 H   0  0  0  0  0  0  0  0  0  0  0  0
  -31.0920  -15.7220   20.8630 C   0  0  0  0  0  3  0  0  0  0  0  0
  -31.1730  -15.3970   22.0880 N   0  0  0  0  0  2  0  0  0  0  0  0
  -30.9390  -16.2130   22.6490 H   0  0  0  0  0  0  0  0  0  0  0  0
  -31.4850  -14.6350   19.7960 C   0  0  0  0  0  0  0  0  0  0  0  0
  -30.9590  -12.5290   18.5700 C   0  0  0  0  0  2  0  0  0  0  0  0
  -29.9090  -12.8080   17.4720 C   0  0  0  0  0  2  0  0  0  0  0  0
  -28.4800  -12.7010   18.0400 C   0  0  0  0  0  2  0  0  0  0  0  0
  -28.3160  -13.4830   19.3680 C   0  0  0  0  0  3  0  0  0  0  0  0
  -29.4620  -13.1600   20.3480 C   0  0  0  0  0  2  0  0  0  0  0  0
  -30.7370  -13.4820   19.6810 N   0  0  0  0  0  0  0  0  0  0  0  0
  -32.5020  -14.7960   19.1120 O   0  0  0  0  0  0  0  0  0  0  0  0
  -26.0710  -14.1810   20.4080 C   0  0  0  0  0  0  0  0  0  0  0  0
  -24.9920  -13.4540   20.8320 C   0  0  0  0  0  0  0  0  0  0  0  0
  -25.3360  -12.0820   20.6300 C   0  0  0  0  0  0  0  0  0  0  0  0
  -27.0080  -13.2550   19.9760 N   0  0  0  0  0  0  0  0  0  0  0  0
  -26.5760  -11.9810   20.1680 N   0  0  0  0  0  0  0  0  0  0  0  0
  -24.5340  -10.8610   20.7950 C   0  0  0  0  0  0  0  0  0  0  0  0
  -24.9490   -9.8160   21.6490 C   0  0  0  0  0  3  0  0  0  0  0  0
  -24.1520   -8.6610   21.8050 C   0  0  0  0  0  3  0  0  0  0  0  0
  -22.9280   -8.5440   21.1060 C   0  0  0  0  0  0  0  0  0  0  0  0
  -22.5310   -9.5780   20.2390 C   0  0  0  0  0  3  0  0  0  0  0  0
  -23.3270  -10.7240   20.0810 C   0  0  0  0  0  3  0  0  0  0  0  0
  -22.1030   -7.4470   21.1740 O   0  0  0  0  0  0  0  0  0  0  0  0
  -21.9950   -6.6980   22.3180 C   0  0  0  0  0  0  0  0  0  0  0  0
  -21.5760   -7.2630   23.5420 C   0  0  0  0  0  3  0  0  0  0  0  0
  -21.4120   -6.4420   24.6770 C   0  0  0  0  0  3  0  0  0  0  0  0
  -21.6590   -5.0590   24.5860 C   0  0  0  0  0  0  0  0  0  0  0  0
  -22.0710   -4.4940   23.3680 C   0  0  0  0  0  3  0  0  0  0  0  0
  -22.2370   -5.3110   22.2350 C   0  0  0  0  0  0  0  0  0  0  0  0
  -22.6150   -4.7580   21.0570 F   0  0  0  0  0  0  0  0  0  0  0  0
  -21.4940   -4.2690   25.6730 F   0  0  0  0  0  0  0  0  0  0  0  0
  -23.6770  -14.0020   21.3060 C   0  0  0  0  0  0  0  0  0  0  0  0
  -23.0020  -13.2890   22.2010 N   0  0  0  0  0  0  0  0  0  0  0  0
  -23.2600  -15.0930   20.9200 O   0  0  0  0  0  0  0  0  0  0  0  0
  -23.3530  -12.4030   22.5340 H   0  0  0  0  0  0  0  0  0  0  0  0
  -22.1240  -13.6350   22.5590 H   0  0  0  0  0  0  0  0  0  0  0  0
  -26.3270  -15.5470   20.3360 N   0  0  0  0  0  0  0  0  0  0  0  0
  -25.6370  -16.2430   20.5980 H   0  0  0  0  0  0  0  0  0  0  0  0
  -27.1750  -15.9540   19.9620 H   0  0  0  0  0  0  0  0  0  0  0  0
  -29.9280  -20.2270   16.8440 C   0  0  0  0  0  1  0  0  0  0  0  0
  -30.8850  -19.4090   17.5110 O   0  0  0  0  0  0  0  0  0  0  0  0
  -29.9910  -21.3950   19.4330 O   0  0  0  0  0  0  0  0  0  0  0  0
  -29.3920  -22.3960   20.3160 C   0  0  0  0  0  2  0  0  0  0  0  0
  -29.4590  -23.8940   19.7690 C   0  0  0  0  0  3  0  0  0  0  0  0
  -28.6680  -25.0150   20.5700 C   0  0  0  0  0  3  0  0  0  0  0  0
  -28.8390  -26.4350   20.1910 O   0  0  0  0  0  0  0  0  0  0  0  0
  -24.8580  -31.6170   23.2560 C   0  0  0  0  0  0  0  0  0  0  0  0
  -27.6940  -27.2390   20.1630 C   0  0  0  0  0  0  0  0  0  0  0  0
  -23.7460  -30.2350   21.5360 C   0  0  0  0  0  3  0  0  0  0  0  0
  -25.2840  -28.7670   20.1180 C   0  0  0  0  0  0  0  0  0  0  0  0
  -26.2770  -30.6330   21.4440 C   0  0  0  0  0  2  0  0  0  0  0  0
  -26.4180  -29.2760   20.7660 C   0  0  0  0  0  0  0  0  0  0  0  0
  -27.6280  -28.5250   20.7780 C   0  0  0  0  0  3  0  0  0  0  0  0
  -26.5450  -26.7800   19.4870 C   0  0  0  0  0  3  0  0  0  0  0  0
  -25.3500  -27.5230   19.4680 C   0  0  0  0  0  3  0  0  0  0  0  0
  -24.0230  -29.6030   20.1460 C   0  0  0  0  0  2  0  0  0  0  0  0
  -24.9770  -30.8440   22.1370 N   0  0  0  0  0  0  0  0  0  0  0  0
  -23.7520  -31.8520   23.7620 O   0  0  0  0  0  0  0  0  0  0  0  0
  -23.0810  -29.1750   22.4450 C   0  0  0  0  0  0  0  0  0  0  0  0
  -21.7660  -28.9620   22.2640 N   0  0  0  0  0  0  0  0  0  0  0  0
  -23.7470  -28.5470   23.2730 O   0  0  0  0  0  0  0  0  0  0  0  0
  -21.2870  -29.5260   21.5750 H   0  0  0  0  0  0  0  0  0  0  0  0
  -18.4110  -27.6620   22.6040 C   0  0  0  0  0  0  0  0  0  0  0  0
  -20.9480  -27.9810   22.9770 C   0  0  0  0  0  3  0  0  0  0  0  0
  -21.1110  -26.5710   22.3650 C   0  0  0  0  0  2  0  0  0  0  0  0
  -20.0560  -26.2490   21.3020 C   0  0  0  0  0  2  0  0  0  0  0  0
  -18.6480  -26.3380   21.8970 C   0  0  0  0  0  2  0  0  0  0  0  0
  -19.4900  -28.4410   23.0970 C   0  0  0  0  0  0  0  0  0  0  0  0
  -19.2150  -29.6790   23.7130 C   0  0  0  0  0  3  0  0  0  0  0  0
  -17.8920  -30.1410   23.8440 C   0  0  0  0  0  3  0  0  0  0  0  0
  -16.8260  -29.3590   23.3690 C   0  0  0  0  0  3  0  0  0  0  0  0
  -17.0850  -28.1210   22.7550 C   0  0  0  0  0  3  0  0  0  0  0  0
  -26.1030  -32.2620   23.9390 C   0  0  0  0  0  3  0  0  0  0  0  0
  -25.7530  -33.6470   24.2840 N   0  0  0  0  0  0  0  0  0  0  0  0
  -26.0900  -34.7220   23.5570 C   0  0  0  0  0  0  0  0  0  0  0  0
  -26.7990  -34.6510   22.5500 O   0  0  0  0  0  0  0  0  0  0  0  0
  -25.1270  -33.7740   25.0660 H   0  0  0  0  0  0  0  0  0  0  0  0
  -24.3340  -36.4820   23.1810 C   0  0  0  0  0  1  0  0  0  0  0  0
  -25.5580  -36.0910   24.0230 C   0  0  0  0  0  3  0  0  0  0  0  0
  -27.6410  -37.0130   24.9400 C   0  0  0  0  0  1  0  0  0  0  0  0
  -26.5700  -37.1680   23.9590 N   0  0  0  0  0  0  0  0  0  0  0  0
  -26.1380  -38.0760   24.1010 H   0  0  0  0  0  0  0  0  0  0  0  0
  -26.5870  -31.4760   25.2200 C   0  0  1  0  0  0  0  0  0  0  0  0
  -25.4570  -31.1930   26.2380 C   0  0  0  0  0  1  0  0  0  0  0  0
  -27.2160  -30.1200   24.8240 C   0  0  0  0  0  1  0  0  0  0  0  0
  -27.6920  -32.2820   25.9430 C   0  0  0  0  0  1  0  0  0  0  0  0
  1  3  1  0
  2  4  1  0
  3 10  1  0
  3  4  2  0
  4  7  1  0
  5  1  2  0
  5  6  1  0
  6  2  2  0
  7  9  1  0
  7  8  1  0
 10 13  1  0
 10 11  1  0
 11 12  1  0
 14 19  1  0
 15 16  1  0
 15 14  1  0
 17 16  1  0
 17 24  1  0
 17 18  1  0
 19 13  1  0
 19 18  1  0
 20 13  2  0
 21 22  2  0
 22 41  1  0
 23 26  1  0
 23 22  1  0
 24 25  1  0
 24 21  1  0
 25 23  2  0
 26 27  1  0
 27 28  2  0
 29 32  1  0
 29 28  1  0
 30 29  2  0
 31 30  1  0
 31 26  2  0
 32 33  1  0
 33 34  1  0
 34 35  2  0
 36 35  1  0
 36 40  1  0
 37 36  2  0
 38 33  2  0
 38 37  1  0
 39 38  1  0
 41 42  1  0
 42 44  1  0
 42 45  1  0
 43 41  2  0
 46 21  1  0
 46 47  1  0
 48 46  1  0
 49 50  1  0
 50  5  1  0
 51  6  1  0
 51 52  1  0
 53 52  1  0
 53 54  2  0
 55 54  1  0
 56 67  2  0
 57 55  1  0
 57 62  1  0
 58 66  1  0
 58 68  1  0
 59 65  1  0
 59 61  1  0
 60 66  1  0
 61 62  2  0
 61 60  1  0
 63 57  2  0
 64 63  1  0
 64 59  2  0
 65 58  1  0
 66 56  1  0
 68 70  2  0
 69 68  1  0
 71 69  1  0
 72 81  2  0
 72 77  1  0
 73 69  1  0
 73 77  1  0
 74 73  1  0
 75 76  1  0
 75 74  1  0
 76 72  1  0
 77 78  2  0
 78 79  1  0
 80 79  2  0
 81 80  1  0
 82 56  1  0
 82 83  1  0
 82 92  1  0
 83 86  1  0
 84 88  1  0
 84 83  1  0
 85 84  2  0
 88 87  1  0
 90 88  1  0
 90 91  1  0
 90 89  1  0
 92 95  1  1
 92 93  1  0
 94 92  1  0
M  ISO  4  10 100  13 100  54 101  55 101
M  END
>  <TORSDO>  (46) 
F 23

>  <SCORE>  (46) 
-10.689

>  <name>  (46) 
45

>  <ligand_id>  (46) 
45

>  <original_smiles>  (46) 
[H]N=C(C(=O)N1C([H])([H])C([H])([H])C([H])([H])C([H])(n2nc(-c3c([H])c([H])c(Oc4c([H])c([H])c(F)c([H])c4F)c([H])c3[H])c(C(=O)N([H])[H])c2N([H])[H])C1([H])[H])c1c([H])c(OC([H])([H])[H])c(OC([H])([H])C([H])([H])C([H])([H])Oc2c([H])c([H])c3c(c2[H])C([H])([H])N(C(=O)C([H])(N([H])C(=O)C([H])(N([H])C([H])([H])[H])C([H])([H])[H])C(C([H])([H])[H])(C([H])([H])[H])C([H])([H])[H])C([H])(C(=O)N([H])C2([H])c4c([H])c([H])c([H])c([H])c4C([H])([H])C([H])([H])C2([H])[H])C3([H])[H])c([H])c1N([H])[H]

>  <smiles>  (46) 
[H]N=C(C(=O)N1C([H])([H])C([H])([H])C([H])([H])C([H])(n2nc(-c3c([H])c([H])c(Oc4c([H])c([H])c(F)c([H])c4F)c([H])c3[H])c(C(=O)N([H])[H])c2N([H])[H])C1([H])[H])c1c([H])c(OC([H])([H])[H])c(OC([H])([H])C([H])([H])C([H])([H])Oc2c([H])c([H])c3c(c2[H])C([H])([H])N(C(=O)C([H])(N([H])C(=O)C([H])(N([H])C([H])([H])[H])C([H])([H])[H])C(C([H])([H])[H])(C([H])([H])[H])C([H])([H])[H])C([H])(C(=O)N([H])C2([H])c4c([H])c([H])c([H])c([H])c4C([H])([H])C([H])([H])C2([H])[H])C3([H])[H])c([H])c1N([H])[H]

$$$$
46:0:0
     RDKit          3D

 96104  0  0  1  0  0  0  0  0999 V2000
  -30.6830  -19.5030   19.7910 C   0  0  0  0  0  3  0  0  0  0  0  0
  -28.2340  -19.8060   21.0500 C   0  0  0  0  0  3  0  0  0  0  0  0
  -29.8610  -18.3540   19.9170 C   0  0  0  0  0  0  0  0  0  0  0  0
  -29.0810  -20.9390   20.9700 C   0  0  0  0  0  0  0  0  0  0  0  0
  -28.6080  -18.5290   20.5620 C   0  0  0  0  0  0  0  0  0  0  0  0
  -30.3400  -20.7730   20.3410 C   0  0  0  0  0  0  0  0  0  0  0  0
  -27.7260  -17.4680   20.7670 N   0  0  0  0  0  0  0  0  0  0  0  0
  -26.9190  -17.6840   21.3430 H   0  0  0  0  0  0  0  0  0  0  0  0
  -28.1650  -16.6220   21.1120 H   0  0  0  0  0  0  0  0  0  0  0  0
  -28.6000  -23.3150   21.5070 C   0  0  0  0  0  3  0  0  0  0  0  0
  -28.7230  -22.0560   21.7620 N   0  0  0  0  0  0  0  0  0  0  0  0
  -28.6560  -24.1960   20.2430 C   0  0  0  0  0  2  0  0  0  0  0  0
  -28.3950  -25.7010   20.6240 C   0  0  0  0  0  2  0  0  0  0  0  0
  -28.2540  -26.6690   19.5560 O   0  0  0  0  0  0  0  0  0  0  0  0
  -24.5750  -31.7640   22.9980 C   0  0  0  0  0  0  0  0  0  0  0  0
  -27.1220  -27.4590   19.6360 C   0  0  0  0  0  0  0  0  0  0  0  0
  -23.3210  -30.4450   21.3210 C   0  0  0  0  0  3  0  0  0  0  0  0
  -24.7340  -28.9790   19.7790 C   0  0  0  0  0  0  0  0  0  0  0  0
  -25.8410  -30.8120   21.0680 C   0  0  0  0  0  2  0  0  0  0  0  0
  -25.9110  -29.4710   20.3620 C   0  0  0  0  0  0  0  0  0  0  0  0
  -27.1100  -28.7190   20.2880 C   0  0  0  0  0  3  0  0  0  0  0  0
  -25.9320  -26.9890   19.0460 C   0  0  0  0  0  3  0  0  0  0  0  0
  -24.7420  -27.7380   19.1190 C   0  0  0  0  0  3  0  0  0  0  0  0
  -23.4920  -29.8360   19.9030 C   0  0  0  0  0  2  0  0  0  0  0  0
  -24.5990  -31.0190   21.8550 N   0  0  0  0  0  0  0  0  0  0  0  0
  -23.5110  -32.0070   23.5830 O   0  0  0  0  0  0  0  0  0  0  0  0
  -22.6980  -29.3770   22.2480 C   0  0  0  0  0  0  0  0  0  0  0  0
  -21.3670  -29.2140   22.1690 N   0  0  0  0  0  0  0  0  0  0  0  0
  -23.4070  -28.7000   22.9980 O   0  0  0  0  0  0  0  0  0  0  0  0
  -20.8540  -29.8150   21.5380 H   0  0  0  0  0  0  0  0  0  0  0  0
  -18.0000  -28.0370   22.7640 C   0  0  0  0  0  0  0  0  0  0  0  0
  -20.5740  -28.2400   22.9190 C   0  0  0  0  0  3  0  0  0  0  0  0
  -20.6210  -26.8470   22.2470 C   0  0  0  0  0  2  0  0  0  0  0  0
  -19.4620  -26.6070   21.2730 C   0  0  0  0  0  2  0  0  0  0  0  0
  -18.1170  -26.7320   21.9940 C   0  0  0  0  0  2  0  0  0  0  0  0
  -19.1530  -28.7530   23.1830 C   0  0  0  0  0  0  0  0  0  0  0  0
  -18.9880  -29.9780   23.8650 C   0  0  0  0  0  3  0  0  0  0  0  0
  -17.7030  -30.4880   24.1300 C   0  0  0  0  0  3  0  0  0  0  0  0
  -16.5650  -29.7690   23.7210 C   0  0  0  0  0  3  0  0  0  0  0  0
  -16.7140  -28.5450   23.0450 C   0  0  0  0  0  3  0  0  0  0  0  0
  -25.8780  -32.3650   23.6090 C   0  0  0  0  0  3  0  0  0  0  0  0
  -25.5770  -33.7410   24.0300 N   0  0  0  0  0  0  0  0  0  0  0  0
  -25.8950  -34.8360   23.3280 C   0  0  0  0  0  0  0  0  0  0  0  0
  -26.5430  -34.7960   22.2790 O   0  0  0  0  0  0  0  0  0  0  0  0
  -25.0010  -33.8460   24.8530 H   0  0  0  0  0  0  0  0  0  0  0  0
  -24.1630  -36.6480   23.1070 C   0  0  0  0  0  1  0  0  0  0  0  0
  -25.4150  -36.1940   23.8750 C   0  0  0  0  0  3  0  0  0  0  0  0
  -27.5580  -37.0270   24.7340 C   0  0  0  0  0  1  0  0  0  0  0  0
  -26.4470  -37.2510   23.8130 N   0  0  0  0  0  0  0  0  0  0  0  0
  -26.0440  -38.1620   24.0200 H   0  0  0  0  0  0  0  0  0  0  0  0
  -26.4420  -31.5250   24.8210 C   0  0  1  0  0  0  0  0  0  0  0  0
  -25.3880  -31.2240   25.9130 C   0  0  0  0  0  1  0  0  0  0  0  0
  -27.0110  -30.1740   24.3290 C   0  0  0  0  0  1  0  0  0  0  0  0
  -27.6150  -32.2840   25.4860 C   0  0  0  0  0  1  0  0  0  0  0  0
  -29.8340  -16.9090   17.8420 C   0  0  0  0  0  1  0  0  0  0  0  0
  -30.3890  -17.0370   19.2730 C   0  0  0  0  0  3  0  0  0  0  0  0
  -30.9790  -14.6390   19.7540 C   0  0  0  0  0  0  0  0  0  0  0  0
  -30.6060  -12.4450   18.7190 C   0  0  0  0  0  2  0  0  0  0  0  0
  -29.5810  -12.6510   17.5840 C   0  0  0  0  0  2  0  0  0  0  0  0
  -28.1410  -12.5280   18.1240 C   0  0  0  0  0  2  0  0  0  0  0  0
  -27.9040  -13.3720   19.4060 C   0  0  0  0  0  3  0  0  0  0  0  0
  -29.0440  -13.1740   20.4330 C   0  0  0  0  0  2  0  0  0  0  0  0
  -30.3160  -13.4510   19.7530 N   0  0  0  0  0  0  0  0  0  0  0  0
  -32.1240  -14.7520   19.3100 O   0  0  0  0  0  0  0  0  0  0  0  0
  -30.2040  -15.7320   19.9640 N   0  0  0  0  0  0  0  0  0  0  0  0
  -29.2700  -15.5510   20.2980 H   0  0  0  0  0  0  0  0  0  0  0  0
  -25.5960  -14.0000   20.3520 C   0  0  0  0  0  0  0  0  0  0  0  0
  -24.5440  -13.2360   20.7810 C   0  0  0  0  0  0  0  0  0  0  0  0
  -24.9690  -11.8760   20.6600 C   0  0  0  0  0  0  0  0  0  0  0  0
  -26.5930  -13.1060   19.9960 N   0  0  0  0  0  0  0  0  0  0  0  0
  -26.2260  -11.8210   20.2400 N   0  0  0  0  0  0  0  0  0  0  0  0
  -24.2290  -10.6240   20.8650 C   0  0  0  0  0  0  0  0  0  0  0  0
  -24.6690   -9.6500   21.7880 C   0  0  0  0  0  3  0  0  0  0  0  0
  -23.9320   -8.4620   21.9810 C   0  0  0  0  0  3  0  0  0  0  0  0
  -22.7400   -8.2400   21.2510 C   0  0  0  0  0  0  0  0  0  0  0  0
  -22.3190   -9.2020   20.3170 C   0  0  0  0  0  3  0  0  0  0  0  0
  -23.0570  -10.3820   20.1230 C   0  0  0  0  0  3  0  0  0  0  0  0
  -21.9730   -7.1040   21.3540 O   0  0  0  0  0  0  0  0  0  0  0  0
  -21.8690   -6.4100   22.5320 C   0  0  0  0  0  0  0  0  0  0  0  0
  -21.3930   -7.0180   23.7160 C   0  0  0  0  0  3  0  0  0  0  0  0
  -21.2370   -6.2500   24.8870 C   0  0  0  0  0  3  0  0  0  0  0  0
  -21.5440   -4.8750   24.8750 C   0  0  0  0  0  0  0  0  0  0  0  0
  -22.0140   -4.2690   23.6960 C   0  0  0  0  0  3  0  0  0  0  0  0
  -22.1720   -5.0340   22.5290 C   0  0  0  0  0  0  0  0  0  0  0  0
  -22.6050   -4.4400   21.3890 F   0  0  0  0  0  0  0  0  0  0  0  0
  -21.3870   -4.1350   25.9970 F   0  0  0  0  0  0  0  0  0  0  0  0
  -23.1890  -13.7330   21.1930 C   0  0  0  0  0  0  0  0  0  0  0  0
  -22.5240  -13.0260   22.0990 N   0  0  0  0  0  0  0  0  0  0  0  0
  -22.7310  -14.7840   20.7460 O   0  0  0  0  0  0  0  0  0  0  0  0
  -22.9070  -12.1770   22.4870 H   0  0  0  0  0  0  0  0  0  0  0  0
  -21.6160  -13.3400   22.4110 H   0  0  0  0  0  0  0  0  0  0  0  0
  -25.7800  -15.3730   20.2240 N   0  0  0  0  0  0  0  0  0  0  0  0
  -25.0520  -16.0340   20.4760 H   0  0  0  0  0  0  0  0  0  0  0  0
  -26.6560  -15.8290   19.9950 H   0  0  0  0  0  0  0  0  0  0  0  0
  -32.6030  -21.5370   20.2670 C   0  0  0  0  0  1  0  0  0  0  0  0
  -31.2130  -21.8360   20.3430 O   0  0  0  0  0  0  0  0  0  0  0  0
  1  3  2  0
  1  6  1  0
  3  5  1  0
  4  2  1  0
  4 11  1  0
  5  7  1  0
  5  2  2  0
  6 96  1  0
  6  4  2  0
  7  9  1  0
  7  8  1  0
 10 11  2  0
 12 13  1  0
 12 10  1  0
 14 16  1  0
 14 13  1  0
 15 26  2  0
 16 21  1  0
 17 25  1  0
 17 27  1  0
 18 24  1  0
 18 20  1  0
 19 25  1  0
 20 19  1  0
 21 20  2  0
 22 23  1  0
 22 16  2  0
 23 18  2  0
 24 17  1  0
 25 15  1  0
 27 29  2  0
 28 27  1  0
 30 28  1  0
 31 40  2  0
 31 36  1  0
 32 28  1  0
 32 36  1  0
 33 32  1  0
 34 35  1  0
 34 33  1  0
 35 31  1  0
 36 37  2  0
 37 38  1  0
 39 38  2  0
 40 39  1  0
 41 15  1  0
 41 42  1  0
 41 51  1  0
 42 45  1  0
 43 47  1  0
 43 42  1  0
 44 43  2  0
 47 46  1  0
 49 47  1  0
 49 50  1  0
 49 48  1  0
 51 54  1  1
 51 52  1  0
 53 51  1  0
 56 55  1  0
 56  3  1  0
 56 65  1  0
 57 65  1  0
 58 63  1  0
 59 60  1  0
 59 58  1  0
 61 60  1  0
 61 70  1  0
 61 62  1  0
 63 57  1  0
 63 62  1  0
 64 57  2  0
 65 66  1  0
 67 68  2  0
 68 87  1  0
 69 68  1  0
 69 72  1  0
 70 71  1  0
 70 67  1  0
 71 69  2  0
 72 73  1  0
 73 74  2  0
 75 78  1  0
 75 74  1  0
 76 75  2  0
 77 76  1  0
 77 72  2  0
 78 79  1  0
 79 80  1  0
 80 81  2  0
 82 81  1  0
 82 86  1  0
 83 82  2  0
 84 79  2  0
 84 83  1  0
 85 84  1  0
 87 88  1  0
 88 91  1  0
 88 90  1  0
 89 87  2  0
 92 67  1  0
 92 93  1  0
 94 92  1  0
 95 96  1  0
M  ISO  4  13 101  14 101  57 100  65 100
M  END
>  <TORSDO>  (47) 
F 22

>  <SCORE>  (47) 
-11.758

>  <name>  (47) 
46

>  <ligand_id>  (47) 
46

>  <original_smiles>  (47) 
[H]C(=Nc1c([H])c(N([H])[H])c(C([H])(N([H])C(=O)N2C([H])([H])C([H])([H])C([H])([H])C([H])(n3nc(-c4c([H])c([H])c(Oc5c([H])c([H])c(F)c([H])c5F)c([H])c4[H])c(C(=O)N([H])[H])c3N([H])[H])C2([H])[H])C([H])([H])[H])c([H])c1OC([H])([H])[H])C([H])([H])C([H])([H])Oc1c([H])c([H])c2c(c1[H])C([H])([H])N(C(=O)C([H])(N([H])C(=O)C([H])(N([H])C([H])([H])[H])C([H])([H])[H])C(C([H])([H])[H])(C([H])([H])[H])C([H])([H])[H])C([H])(C(=O)N([H])C1([H])c3c([H])c([H])c([H])c([H])c3C([H])([H])C([H])([H])C1([H])[H])C2([H])[H]

>  <smiles>  (47) 
[H]C(=Nc1c([H])c(N([H])[H])c(C([H])(N([H])C(=O)N2C([H])([H])C([H])([H])C([H])([H])C([H])(n3nc(-c4c([H])c([H])c(Oc5c([H])c([H])c(F)c([H])c5F)c([H])c4[H])c(C(=O)N([H])[H])c3N([H])[H])C2([H])[H])C([H])([H])[H])c([H])c1OC([H])([H])[H])C([H])([H])C([H])([H])Oc1c([H])c([H])c2c(c1[H])C([H])([H])N(C(=O)C([H])(N([H])C(=O)C([H])(N([H])C([H])([H])[H])C([H])([H])[H])C(C([H])([H])[H])(C([H])([H])[H])C([H])([H])[H])C([H])(C(=O)N([H])C1([H])c3c([H])c([H])c([H])c([H])c3C([H])([H])C([H])([H])C1([H])[H])C2([H])[H]

$$$$
47:0:0
     RDKit          3D

 93101  0  0  1  0  0  0  0  0999 V2000
  -29.1010  -19.4170   19.7350 C   0  0  0  0  0  3  0  0  0  0  0  0
  -30.5990  -17.8950   21.5570 C   0  0  0  0  0  3  0  0  0  0  0  0
  -29.1240  -17.9850   19.6490 C   0  0  0  0  0  0  0  0  0  0  0  0
  -29.8770  -17.1870   20.5650 C   0  0  0  0  0  0  0  0  0  0  0  0
  -30.5580  -19.3180   21.6500 C   0  0  0  0  0  0  0  0  0  0  0  0
  -29.8110  -20.1230   20.7440 C   0  0  0  0  0  0  0  0  0  0  0  0
  -28.3230  -17.3120   18.5460 C   0  0  0  0  0  1  0  0  0  0  0  0
  -30.5840  -14.6860   20.4020 C   0  0  0  0  0  0  0  0  0  0  0  0
  -30.4010  -12.4340   19.3650 C   0  0  0  0  0  2  0  0  0  0  0  0
  -29.4620  -12.5420   18.1430 C   0  0  0  0  0  2  0  0  0  0  0  0
  -27.9840  -12.3870   18.5600 C   0  0  0  0  0  2  0  0  0  0  0  0
  -27.6150  -13.2700   19.7810 C   0  0  0  0  0  3  0  0  0  0  0  0
  -28.6630  -13.1270   20.9070 C   0  0  0  0  0  2  0  0  0  0  0  0
  -29.9790  -13.4600   20.3360 N   0  0  0  0  0  0  0  0  0  0  0  0
  -31.7640  -14.8440   20.0760 O   0  0  0  0  0  0  0  0  0  0  0  0
  -29.7260  -15.7340   20.6170 N   0  0  0  0  0  0  0  0  0  0  0  0
  -28.7730  -15.4250   20.7290 H   0  0  0  0  0  0  0  0  0  0  0  0
  -25.2260  -13.8990   20.4910 C   0  0  0  0  0  0  0  0  0  0  0  0
  -24.1510  -13.1380   20.8630 C   0  0  0  0  0  0  0  0  0  0  0  0
  -24.6010  -11.7820   20.8360 C   0  0  0  0  0  0  0  0  0  0  0  0
  -26.2630  -13.0070   20.2600 N   0  0  0  0  0  0  0  0  0  0  0  0
  -25.8910  -11.7300   20.5310 N   0  0  0  0  0  0  0  0  0  0  0  0
  -23.8620  -10.5280   21.0260 C   0  0  0  0  0  0  0  0  0  0  0  0
  -24.2800   -9.5600   21.9660 C   0  0  0  0  0  3  0  0  0  0  0  0
  -23.5440   -8.3690   22.1420 C   0  0  0  0  0  3  0  0  0  0  0  0
  -22.3760   -8.1370   21.3780 C   0  0  0  0  0  0  0  0  0  0  0  0
  -21.9770   -9.0940   20.4280 C   0  0  0  0  0  3  0  0  0  0  0  0
  -22.7130  -10.2760   20.2490 C   0  0  0  0  0  3  0  0  0  0  0  0
  -21.6120   -6.9990   21.4640 O   0  0  0  0  0  0  0  0  0  0  0  0
  -21.5400   -6.2670   22.6230 C   0  0  0  0  0  0  0  0  0  0  0  0
  -21.0880   -6.8320   23.8350 C   0  0  0  0  0  3  0  0  0  0  0  0
  -20.9630   -6.0250   24.9840 C   0  0  0  0  0  3  0  0  0  0  0  0
  -21.2790   -4.6550   24.9210 C   0  0  0  0  0  0  0  0  0  0  0  0
  -21.7240   -4.0900   23.7130 C   0  0  0  0  0  3  0  0  0  0  0  0
  -21.8510   -4.8930   22.5670 C   0  0  0  0  0  0  0  0  0  0  0  0
  -22.2590   -4.3390   21.3990 F   0  0  0  0  0  0  0  0  0  0  0  0
  -21.1520   -3.8780   26.0220 F   0  0  0  0  0  0  0  0  0  0  0  0
  -22.7580  -13.6290   21.1300 C   0  0  0  0  0  0  0  0  0  0  0  0
  -22.0180  -12.9430   21.9930 N   0  0  0  0  0  0  0  0  0  0  0  0
  -22.3320  -14.6560   20.6030 O   0  0  0  0  0  0  0  0  0  0  0  0
  -22.3730  -12.1110   22.4420 H   0  0  0  0  0  0  0  0  0  0  0  0
  -21.0810  -13.2540   22.2100 H   0  0  0  0  0  0  0  0  0  0  0  0
  -25.3990  -15.2670   20.3050 N   0  0  0  0  0  0  0  0  0  0  0  0
  -24.6190  -15.9120   20.3770 H   0  0  0  0  0  0  0  0  0  0  0  0
  -26.2310  -15.6970   19.9280 H   0  0  0  0  0  0  0  0  0  0  0  0
  -31.2420  -19.9520   22.6870 N   0  0  0  0  0  0  0  0  0  0  0  0
  -30.9220  -20.8950   22.8920 H   0  0  0  0  0  0  0  0  0  0  0  0
  -31.4120  -19.4180   23.5340 H   0  0  0  0  0  0  0  0  0  0  0  0
  -29.8490  -21.5270   20.9210 O   0  0  0  0  0  0  0  0  0  0  0  0
  -28.9980  -22.4760   20.2030 C   0  0  0  0  0  2  0  0  0  0  0  0
  -29.2350  -24.0110   20.5860 C   0  0  0  0  0  3  0  0  0  0  0  0
  -28.2270  -25.0790   19.9840 C   0  0  0  0  0  3  0  0  0  0  0  0
  -28.3900  -26.5160   20.3090 O   0  0  0  0  0  0  0  0  0  0  0  0
  -24.6300  -31.9010   23.2790 C   0  0  0  0  0  0  0  0  0  0  0  0
  -27.2680  -27.3590   20.2260 C   0  0  0  0  0  0  0  0  0  0  0  0
  -23.4410  -30.5140   21.6190 C   0  0  0  0  0  3  0  0  0  0  0  0
  -24.9030  -28.9720   20.1970 C   0  0  0  0  0  0  0  0  0  0  0  0
  -25.9830  -30.8260   21.4670 C   0  0  0  0  0  2  0  0  0  0  0  0
  -26.0640  -29.4530   20.8130 C   0  0  0  0  0  0  0  0  0  0  0  0
  -27.2470  -28.6580   20.8210 C   0  0  0  0  0  3  0  0  0  0  0  0
  -26.0860  -26.9380   19.5700 C   0  0  0  0  0  3  0  0  0  0  0  0
  -24.9170  -27.7200   19.5670 C   0  0  0  0  0  3  0  0  0  0  0  0
  -23.6680  -29.8470   20.2370 C   0  0  0  0  0  2  0  0  0  0  0  0
  -24.7030  -31.0980   22.1780 N   0  0  0  0  0  0  0  0  0  0  0  0
  -23.5410  -32.1800   23.8020 O   0  0  0  0  0  0  0  0  0  0  0  0
  -22.7670  -29.4930   22.5650 C   0  0  0  0  0  0  0  0  0  0  0  0
  -21.4430  -29.3170   22.4170 N   0  0  0  0  0  0  0  0  0  0  0  0
  -23.4330  -28.8640   23.3920 O   0  0  0  0  0  0  0  0  0  0  0  0
  -20.9670  -29.8720   21.7200 H   0  0  0  0  0  0  0  0  0  0  0  0
  -18.0570  -28.1300   22.8720 C   0  0  0  0  0  0  0  0  0  0  0  0
  -20.6120  -28.3790   23.1750 C   0  0  0  0  0  3  0  0  0  0  0  0
  -20.7180  -26.9510   22.5940 C   0  0  0  0  0  2  0  0  0  0  0  0
  -19.6270  -26.6360   21.5660 C   0  0  0  0  0  2  0  0  0  0  0  0
  -18.2380  -26.7820   22.1940 C   0  0  0  0  0  2  0  0  0  0  0  0
  -19.1730  -28.8860   23.3190 C   0  0  0  0  0  0  0  0  0  0  0  0
  -18.9500  -30.1470   23.9120 C   0  0  0  0  0  3  0  0  0  0  0  0
  -17.6450  -30.6510   24.0670 C   0  0  0  0  0  3  0  0  0  0  0  0
  -16.5430  -29.8930   23.6350 C   0  0  0  0  0  3  0  0  0  0  0  0
  -16.7510  -28.6340   23.0440 C   0  0  0  0  0  3  0  0  0  0  0  0
  -25.9070  -32.5290   23.9190 C   0  0  0  0  0  3  0  0  0  0  0  0
  -25.6020  -33.9310   24.2360 N   0  0  0  0  0  0  0  0  0  0  0  0
  -25.9340  -34.9760   23.4670 C   0  0  0  0  0  0  0  0  0  0  0  0
  -26.6020  -34.8610   22.4360 O   0  0  0  0  0  0  0  0  0  0  0  0
  -25.0140  -34.0950   25.0410 H   0  0  0  0  0  0  0  0  0  0  0  0
  -24.2050  -36.7640   23.1050 C   0  0  0  0  0  1  0  0  0  0  0  0
  -25.4520  -36.3680   23.9130 C   0  0  0  0  0  3  0  0  0  0  0  0
  -27.5910  -37.2640   24.7210 C   0  0  0  0  0  1  0  0  0  0  0  0
  -26.4850  -37.4200   23.7790 N   0  0  0  0  0  0  0  0  0  0  0  0
  -26.0800  -38.3420   23.9140 H   0  0  0  0  0  0  0  0  0  0  0  0
  -26.3950  -31.7600   25.2090 C   0  0  1  0  0  0  0  0  0  0  0  0
  -25.2810  -31.5350   26.2570 C   0  0  0  0  0  1  0  0  0  0  0  0
  -26.9750  -30.3780   24.8340 C   0  0  0  0  0  1  0  0  0  0  0  0
  -27.5400  -32.5510   25.8860 C   0  0  0  0  0  1  0  0  0  0  0  0
  1  6  1  0
  2  5  1  0
  3  1  2  0
  3  4  1  0
  4 16  1  0
  4  2  2  0
  5 46  1  0
  6 49  1  0
  6  5  2  0
  7  3  1  0
  8 16  1  0
  9 14  1  0
 10 11  1  0
 10  9  1  0
 12 11  1  0
 12 21  1  0
 12 13  1  0
 14  8  1  0
 14 13  1  0
 15  8  2  0
 16 17  1  0
 18 19  2  0
 19 38  1  0
 20 19  1  0
 20 23  1  0
 21 18  1  0
 21 22  1  0
 22 20  2  0
 23 24  1  0
 24 25  2  0
 26 29  1  0
 26 25  1  0
 27 26  2  0
 28 27  1  0
 28 23  2  0
 29 30  1  0
 30 31  1  0
 31 32  2  0
 33 32  1  0
 33 37  1  0
 34 33  2  0
 35 30  2  0
 35 34  1  0
 36 35  1  0
 38 39  1  0
 39 42  1  0
 39 41  1  0
 40 38  2  0
 43 44  1  0
 43 18  1  0
 45 43  1  0
 46 47  1  0
 46 48  1  0
 50 51  1  0
 50 49  1  0
 52 53  1  0
 52 51  2  0
 54 65  2  0
 55 53  1  0
 55 60  1  0
 56 64  1  0
 56 66  1  0
 57 63  1  0
 57 59  1  0
 58 64  1  0
 59 60  2  0
 59 58  1  0
 61 55  2  0
 62 61  1  0
 62 57  2  0
 63 56  1  0
 64 54  1  0
 66 68  2  0
 67 66  1  0
 69 67  1  0
 70 79  2  0
 70 75  1  0
 71 67  1  0
 71 75  1  0
 72 71  1  0
 73 74  1  0
 73 72  1  0
 74 70  1  0
 75 76  2  0
 76 77  1  0
 78 77  2  0
 79 78  1  0
 80 54  1  0
 80 81  1  0
 80 90  1  0
 81 84  1  0
 82 86  1  0
 82 81  1  0
 83 82  2  0
 86 85  1  0
 88 86  1  0
 88 89  1  0
 88 87  1  0
 90 93  1  1
 90 91  1  0
 92 90  1  0
M  ISO  4   8 100  16 100  52 101  53 101
M  END
>  <TORSDO>  (48) 
F 21

>  <SCORE>  (48) 
-13.945

>  <name>  (48) 
47

>  <ligand_id>  (48) 
47

>  <original_smiles>  (48) 
[H]c1c([H])c([H])c2c(c1[H])C([H])([H])C([H])([H])C([H])([H])C2([H])N([H])C(=O)C1([H])N(C(=O)C([H])(N([H])C(=O)C([H])(N([H])C([H])([H])[H])C([H])([H])[H])C(C([H])([H])[H])(C([H])([H])[H])C([H])([H])[H])C([H])([H])c2c([H])c(OC([H])([H])C([H])([H])C([H])([H])Oc3c([H])c(C([H])([H])[H])c(N([H])C(=O)N4C([H])([H])C([H])([H])C([H])([H])C([H])(n5nc(-c6c([H])c([H])c(Oc7c([H])c([H])c(F)c([H])c7F)c([H])c6[H])c(C(=O)N([H])[H])c5N([H])[H])C4([H])[H])c([H])c3N([H])[H])c([H])c([H])c2C1([H])[H]

>  <smiles>  (48) 
[H]c1c([H])c([H])c2c(c1[H])C([H])([H])C([H])([H])C([H])([H])C2([H])N([H])C(=O)C1([H])N(C(=O)C([H])(N([H])C(=O)C([H])(N([H])C([H])([H])[H])C([H])([H])[H])C(C([H])([H])[H])(C([H])([H])[H])C([H])([H])[H])C([H])([H])c2c([H])c(OC([H])([H])C([H])([H])C([H])([H])Oc3c([H])c(C([H])([H])[H])c(N([H])C(=O)N4C([H])([H])C([H])([H])C([H])([H])C([H])(n5nc(-c6c([H])c([H])c(Oc7c([H])c([H])c(F)c([H])c7F)c([H])c6[H])c(C(=O)N([H])[H])c5N([H])[H])C4([H])[H])c([H])c3N([H])[H])c([H])c([H])c2C1([H])[H]

$$$$
48:0:0
     RDKit          3D

100108  0  0  1  0  0  0  0  0999 V2000
  -28.1730  -16.1140   20.9130 C   0  0  0  0  0  3  0  0  0  0  0  0
  -28.6140  -18.0990   19.0190 C   0  0  0  0  0  3  0  0  0  0  0  0
  -27.0720  -16.7420   20.2940 C   0  0  0  0  0  0  0  0  0  0  0  0
  -29.5130  -16.4330   20.5860 C   0  0  0  0  0  0  0  0  0  0  0  0
  -27.3170  -17.5860   19.1850 C   0  0  0  0  0  0  0  0  0  0  0  0
  -29.7070  -17.6400   19.8060 C   0  0  0  0  0  0  0  0  0  0  0  0
  -31.0930  -14.4360   20.8690 C   0  0  0  0  0  0  0  0  0  0  0  0
  -31.0180  -11.9810   20.4300 C   0  0  0  0  0  2  0  0  0  0  0  0
  -30.4070  -11.6980   19.0380 C   0  0  0  0  0  2  0  0  0  0  0  0
  -28.8770  -11.5680   19.1450 C   0  0  0  0  0  2  0  0  0  0  0  0
  -28.2480  -12.7450   19.9330 C   0  0  0  0  0  3  0  0  0  0  0  0
  -29.0050  -13.0180   21.2580 C   0  0  0  0  0  2  0  0  0  0  0  0
  -30.4300  -13.2310   20.9610 N   0  0  0  0  0  0  0  0  0  0  0  0
  -32.2690  -14.4670   20.4950 O   0  0  0  0  0  0  0  0  0  0  0  0
  -30.4920  -15.5980   21.2710 N   0  0  0  0  0  0  0  0  0  0  0  0
  -30.2900  -15.5240   22.2580 H   0  0  0  0  0  0  0  0  0  0  0  0
  -25.7590  -13.3870   19.8800 C   0  0  0  0  0  0  0  0  0  0  0  0
  -24.6210  -12.7130   20.1880 C   0  0  0  0  0  0  0  0  0  0  0  0
  -25.0400  -11.4080   20.5870 C   0  0  0  0  0  0  0  0  0  0  0  0
  -26.8160  -12.5340   20.1470 N   0  0  0  0  0  0  0  0  0  0  0  0
  -26.3690  -11.3400   20.6160 N   0  0  0  0  0  0  0  0  0  0  0  0
  -24.2520  -10.2090   20.8850 C   0  0  0  0  0  0  0  0  0  0  0  0
  -24.6040   -9.3370   21.9350 C   0  0  0  0  0  3  0  0  0  0  0  0
  -23.8110   -8.2040   22.2150 C   0  0  0  0  0  3  0  0  0  0  0  0
  -22.6560   -7.9350   21.4440 C   0  0  0  0  0  0  0  0  0  0  0  0
  -22.3250   -8.7960   20.3860 C   0  0  0  0  0  3  0  0  0  0  0  0
  -23.1170   -9.9220   20.1030 C   0  0  0  0  0  3  0  0  0  0  0  0
  -21.8500   -6.8390   21.6200 O   0  0  0  0  0  0  0  0  0  0  0  0
  -21.7830   -6.1870   22.8250 C   0  0  0  0  0  0  0  0  0  0  0  0
  -21.3900   -6.8540   24.0060 C   0  0  0  0  0  3  0  0  0  0  0  0
  -21.2550   -6.1310   25.2090 C   0  0  0  0  0  3  0  0  0  0  0  0
  -21.5160   -4.7490   25.2330 C   0  0  0  0  0  0  0  0  0  0  0  0
  -21.9130   -4.0850   24.0580 C   0  0  0  0  0  3  0  0  0  0  0  0
  -22.0400   -4.8010   22.8560 C   0  0  0  0  0  0  0  0  0  0  0  0
  -22.3960   -4.1550   21.7210 F   0  0  0  0  0  0  0  0  0  0  0  0
  -21.3860   -4.0540   26.3870 F   0  0  0  0  0  0  0  0  0  0  0  0
  -23.2140  -13.2110   20.0120 C   0  0  0  0  0  0  0  0  0  0  0  0
  -22.3000  -12.7910   20.8790 N   0  0  0  0  0  0  0  0  0  0  0  0
  -22.9350  -14.0290   19.1370 O   0  0  0  0  0  0  0  0  0  0  0  0
  -22.5310  -12.1390   21.6140 H   0  0  0  0  0  0  0  0  0  0  0  0
  -21.3510  -13.1300   20.8070 H   0  0  0  0  0  0  0  0  0  0  0  0
  -25.9790  -14.6470   19.3490 N   0  0  0  0  0  4  0  0  0  0  0  0
  -25.2390  -14.9730   18.7360 H   0  0  0  0  0  0  0  0  0  0  0  0
  -26.8890  -14.8510   18.9570 H   0  0  0  0  0  0  0  0  0  0  0  0
  -25.7020  -16.5450   20.8780 C   0  0  0  0  0  0  0  0  0  0  0  0
  -24.9980  -15.5230   20.4250 N   0  0  0  0  0  2  0  0  0  0  0  0
  -25.2620  -17.3080   21.7370 O   0  0  0  0  0  0  0  0  0  0  0  0
  -25.4320  -14.9060   19.7340 H   0  0  0  0  0  0  0  0  0  0  0  0
  -24.0360  -15.4130   20.7050 H   0  0  0  0  0  0  0  0  0  0  0  0
  -26.3370  -17.9680   18.2590 N   0  0  0  0  0  0  0  0  0  0  0  0
  -25.4680  -17.4420   18.3020 H   0  0  0  0  0  0  0  0  0  0  0  0
  -26.6630  -17.9980   17.2940 H   0  0  0  0  0  0  0  0  0  0  0  0
  -30.8480  -18.4380   19.8770 O   0  0  0  0  0  0  0  0  0  0  0  0
  -30.8340  -19.8320   19.3880 C   0  0  0  0  0  2  0  0  0  0  0  0
  -30.1850  -20.9140   20.3440 C   0  0  0  0  0  0  0  0  0  0  0  0
  -30.3060  -20.7930   21.5660 O   0  0  0  0  0  0  0  0  0  0  0  0
  -29.3060  -22.1040   19.7800 C   0  0  0  0  0  2  0  0  0  0  0  0
  -29.6250  -23.6320   20.1810 C   0  0  0  0  0  3  0  0  0  0  0  0
  -28.4270  -24.7120   20.1310 C   0  0  0  0  0  3  0  0  0  0  0  0
  -28.6190  -26.2020   20.1660 O   0  0  0  0  0  0  0  0  0  0  0  0
  -24.6880  -31.5850   23.0770 C   0  0  0  0  0  0  0  0  0  0  0  0
  -27.4790  -27.0470   20.1010 C   0  0  0  0  0  0  0  0  0  0  0  0
  -23.5600  -30.1610   21.4040 C   0  0  0  0  0  3  0  0  0  0  0  0
  -25.0790  -28.6400   20.0160 C   0  0  0  0  0  0  0  0  0  0  0  0
  -26.0980  -30.5250   21.2930 C   0  0  0  0  0  2  0  0  0  0  0  0
  -26.2240  -29.1470   20.6440 C   0  0  0  0  0  0  0  0  0  0  0  0
  -27.4260  -28.3670   20.6650 C   0  0  0  0  0  3  0  0  0  0  0  0
  -26.2970  -26.6040   19.4600 C   0  0  0  0  0  3  0  0  0  0  0  0
  -25.1190  -27.3750   19.4150 C   0  0  0  0  0  3  0  0  0  0  0  0
  -23.8270  -29.4970   20.0270 C   0  0  0  0  0  2  0  0  0  0  0  0
  -24.7990  -30.7750   21.9820 N   0  0  0  0  0  0  0  0  0  0  0  0
  -23.5860  -31.8400   23.5780 O   0  0  0  0  0  0  0  0  0  0  0  0
  -22.8880  -29.1310   22.3470 C   0  0  0  0  0  0  0  0  0  0  0  0
  -21.5610  -28.9620   22.2160 N   0  0  0  0  0  0  0  0  0  0  0  0
  -23.5630  -28.4910   23.1570 O   0  0  0  0  0  0  0  0  0  0  0  0
  -21.0770  -29.5330   21.5360 H   0  0  0  0  0  0  0  0  0  0  0  0
  -18.1680  -27.8360   22.7580 C   0  0  0  0  0  0  0  0  0  0  0  0
  -20.7380  -28.0120   22.9680 C   0  0  0  0  0  3  0  0  0  0  0  0
  -20.7830  -26.6070   22.3260 C   0  0  0  0  0  2  0  0  0  0  0  0
  -19.6440  -26.3610   21.3310 C   0  0  0  0  0  2  0  0  0  0  0  0
  -18.2850  -26.5160   22.0190 C   0  0  0  0  0  2  0  0  0  0  0  0
  -19.3190  -28.5460   23.1900 C   0  0  0  0  0  0  0  0  0  0  0  0
  -19.1500  -29.7880   23.8430 C   0  0  0  0  0  3  0  0  0  0  0  0
  -17.8630  -30.3170   24.0640 C   0  0  0  0  0  3  0  0  0  0  0  0
  -16.7280  -29.6020   23.6450 C   0  0  0  0  0  3  0  0  0  0  0  0
  -16.8810  -28.3620   23.0010 C   0  0  0  0  0  3  0  0  0  0  0  0
  -25.9370  -32.2430   23.7370 C   0  0  0  0  0  3  0  0  0  0  0  0
  -25.5790  -33.6240   24.0910 N   0  0  0  0  0  0  0  0  0  0  0  0
  -25.8870  -34.7000   23.3580 C   0  0  0  0  0  0  0  0  0  0  0  0
  -26.5700  -34.6380   22.3330 O   0  0  0  0  0  0  0  0  0  0  0  0
  -24.9740  -33.7440   24.8890 H   0  0  0  0  0  0  0  0  0  0  0  0
  -24.0990  -36.4360   23.0230 C   0  0  0  0  0  1  0  0  0  0  0  0
  -25.3480  -36.0620   23.8380 C   0  0  0  0  0  3  0  0  0  0  0  0
  -27.4400  -37.0070   24.7070 C   0  0  0  0  0  1  0  0  0  0  0  0
  -26.3450  -37.1520   23.7530 N   0  0  0  0  0  0  0  0  0  0  0  0
  -25.9080  -38.0570   23.9050 H   0  0  0  0  0  0  0  0  0  0  0  0
  -26.4460  -31.4630   25.0120 C   0  0  1  0  0  0  0  0  0  0  0  0
  -25.3340  -31.1740   26.0490 C   0  0  0  0  0  1  0  0  0  0  0  0
  -27.0760  -30.1110   24.6040 C   0  0  0  0  0  1  0  0  0  0  0  0
  -27.5550  -32.2790   25.7150 C   0  0  0  0  0  1  0  0  0  0  0  0
  2  5  2  0
  2  6  1  0
  3 45  1  0
  3  1  2  0
  4  1  1  0
  4 15  1  0
  5  3  1  0
  6 53  1  0
  6  4  2  0
  7 13  1  0
  7 15  1  0
  8 13  1  0
  9 10  1  0
  9  8  1  0
 11 10  1  0
 11 20  1  0
 11 12  1  0
 13 12  1  0
 14  7  2  0
 15 16  1  0
 17 20  1  0
 17 18  2  0
 18 19  1  0
 19 21  2  0
 19 22  1  0
 20 21  1  0
 22 23  1  0
 23 24  2  0
 25 28  1  0
 25 24  1  0
 26 25  2  0
 27 26  1  0
 27 22  2  0
 28 29  1  0
 29 34  2  0
 29 30  1  0
 30 31  2  0
 31 32  1  0
 32 36  1  0
 33 32  2  0
 34 33  1  0
 35 34  1  0
 37 18  1  0
 37 38  1  0
 38 40  1  0
 39 37  2  0
 41 38  1  0
 42 48  1  0
 42 17  1  0
 43 42  1  0
 44 42  1  0
 45 47  2  0
 46 49  1  0
 46 45  1  0
 50 51  1  0
 50  5  1  0
 52 50  1  0
 54 53  1  0
 54 55  1  0
 55 56  2  0
 57 58  1  0
 57 55  1  0
 59 60  1  0
 59 58  2  0
 61 72  2  0
 62 60  1  0
 62 67  1  0
 63 71  1  0
 63 73  1  0
 64 70  1  0
 64 66  1  0
 65 71  1  0
 66 67  2  0
 66 65  1  0
 68 62  2  0
 69 68  1  0
 69 64  2  0
 70 63  1  0
 71 61  1  0
 73 75  2  0
 74 73  1  0
 76 74  1  0
 77 86  2  0
 77 82  1  0
 78 74  1  0
 78 82  1  0
 79 78  1  0
 80 81  1  0
 80 79  1  0
 81 77  1  0
 82 83  2  0
 83 84  1  0
 85 84  2  0
 86 85  1  0
 87 61  1  0
 87 88  1  0
 87 97  1  0
 88 91  1  0
 89 93  1  0
 89 88  1  0
 90 89  2  0
 93 92  1  0
 95 93  1  0
 95 96  1  0
 95 94  1  0
 97100  1  1
 97 98  1  0
 99 97  1  0
M  ISO  4   7 100  15 100  59 101  60 101
M  END
>  <TORSDO>  (49) 
F 24

>  <SCORE>  (49) 
-6.954

>  <name>  (49) 
48

>  <ligand_id>  (49) 
48

>  <original_smiles>  (49) 
[H]c1c([H])c([H])c2c(c1[H])C([H])([H])C([H])([H])C([H])([H])C2([H])N([H])C(=O)C1([H])N(C(=O)C([H])(N([H])C(=O)C([H])(N([H])C([H])([H])[H])C([H])([H])[H])C(C([H])([H])[H])(C([H])([H])[H])C([H])([H])[H])C([H])([H])c2c([H])c(OC([H])([H])C([H])([H])C([H])([H])C(=O)C([H])([H])Oc3c([H])c(N([H])[H])c(C(=O)N([H])[H])c([H])c3N([H])C(=O)N3C([H])([H])C([H])([H])C([H])([H])C([H])(n4nc(-c5c([H])c([H])c(Oc6c([H])c([H])c(F)c([H])c6F)c([H])c5[H])c(C(=O)N([H])[H])c4N([H])[H])C3([H])[H])c([H])c([H])c2C1([H])[H]

>  <smiles>  (49) 
[H]c1c([H])c([H])c2c(c1[H])C([H])([H])C([H])([H])C([H])([H])C2([H])N([H])C(=O)C1([H])N(C(=O)C([H])(N([H])C(=O)C([H])(N([H])C([H])([H])[H])C([H])([H])[H])C(C([H])([H])[H])(C([H])([H])[H])C([H])([H])[H])C([H])([H])c2c([H])c(OC([H])([H])C([H])([H])C([H])([H])C(=O)C([H])([H])Oc3c([H])c(N([H])[H])c(C(=O)N([H])[H])c([H])c3N([H])C(=O)N3C([H])([H])C([H])([H])C([H])([H])C([H])(n4nc(-c5c([H])c([H])c(Oc6c([H])c([H])c(F)c([H])c6F)c([H])c5[H])c(C(=O)N([H])[H])c4N([H])[H])C3([H])[H])c([H])c([H])c2C1([H])[H]

$$$$
49:0:0
     RDKit          3D

 98106  0  0  1  0  0  0  0  0999 V2000
  -32.8480  -22.5750   18.9250 C   0  0  0  0  0  0  0  0  0  0  0  0
  -32.1880  -24.9060   18.8080 C   0  0  0  0  0  0  0  0  0  0  0  0
  -31.9610  -23.5820   18.8850 N   0  0  0  0  0  0  0  0  0  0  0  0
  -34.0680  -22.6830   18.7580 O   0  0  0  0  0  0  0  0  0  0  0  0
  -33.2930  -25.4340   18.6410 O   0  0  0  0  0  0  0  0  0  0  0  0
  -30.9990  -23.3050   18.9850 H   0  0  0  0  0  0  0  0  0  0  0  0
  -32.8930  -20.0590   18.6720 C   0  0  0  0  0  3  0  0  0  0  0  0
  -31.0690  -21.0610   19.9290 C   0  0  0  0  0  3  0  0  0  0  0  0
  -32.2480  -21.2130   19.1650 C   0  0  0  0  0  0  0  0  0  0  0  0
  -32.3700  -18.7730   18.9350 C   0  0  0  0  0  0  0  0  0  0  0  0
  -30.5150  -19.7880   20.1690 C   0  0  0  0  0  0  0  0  0  0  0  0
  -31.1820  -18.6290   19.6890 C   0  0  0  0  0  0  0  0  0  0  0  0
  -33.0990  -17.5480   18.4190 C   0  0  0  0  0  1  0  0  0  0  0  0
  -28.2580  -19.0860   20.2130 C   0  0  0  0  0  1  0  0  0  0  0  0
  -29.3340  -19.7420   20.8690 O   0  0  0  0  0  0  0  0  0  0  0  0
  -30.6850  -17.3640   19.8990 O   0  0  0  0  0  0  0  0  0  0  0  0
  -30.8590  -16.8400   21.2150 C   0  0  0  0  0  2  0  0  0  0  0  0
  -30.1540  -15.4690   21.3220 C   0  0  0  0  0  2  0  0  0  0  0  0
  -30.7240  -14.3770   20.3960 C   0  0  0  0  0  0  0  0  0  0  0  0
  -30.3410  -12.3080   19.1000 C   0  0  0  0  0  2  0  0  0  0  0  0
  -29.3820  -12.5960   17.9270 C   0  0  0  0  0  2  0  0  0  0  0  0
  -27.9160  -12.4510   18.3780 C   0  0  0  0  0  2  0  0  0  0  0  0
  -27.6190  -13.2540   19.6720 C   0  0  0  0  0  3  0  0  0  0  0  0
  -28.6820  -12.9530   20.7570 C   0  0  0  0  0  2  0  0  0  0  0  0
  -30.0080  -13.2400   20.1860 N   0  0  0  0  0  0  0  0  0  0  0  0
  -31.8000  -14.5840   19.8240 O   0  0  0  0  0  0  0  0  0  0  0  0
  -25.2290  -13.9020   20.3800 C   0  0  0  0  0  0  0  0  0  0  0  0
  -24.1530  -13.1460   20.7620 C   0  0  0  0  0  0  0  0  0  0  0  0
  -24.5970  -11.7890   20.7400 C   0  0  0  0  0  0  0  0  0  0  0  0
  -26.2630  -13.0060   20.1550 N   0  0  0  0  0  0  0  0  0  0  0  0
  -25.8840  -11.7300   20.4230 N   0  0  0  0  0  0  0  0  0  0  0  0
  -23.8570  -10.5370   20.9480 C   0  0  0  0  0  0  0  0  0  0  0  0
  -24.2820   -9.5770   21.8930 C   0  0  0  0  0  3  0  0  0  0  0  0
  -23.5430   -8.3890   22.0880 C   0  0  0  0  0  3  0  0  0  0  0  0
  -22.3660   -8.1550   21.3390 C   0  0  0  0  0  0  0  0  0  0  0  0
  -21.9600   -9.1030   20.3840 C   0  0  0  0  0  3  0  0  0  0  0  0
  -22.7000  -10.2820   20.1870 C   0  0  0  0  0  3  0  0  0  0  0  0
  -21.6010   -7.0180   21.4400 O   0  0  0  0  0  0  0  0  0  0  0  0
  -21.5480   -6.2880   22.6000 C   0  0  0  0  0  0  0  0  0  0  0  0
  -21.1290   -6.8600   23.8210 C   0  0  0  0  0  3  0  0  0  0  0  0
  -21.0230   -6.0580   24.9750 C   0  0  0  0  0  3  0  0  0  0  0  0
  -21.3260   -4.6840   24.9070 C   0  0  0  0  0  0  0  0  0  0  0  0
  -21.7390   -4.1120   23.6910 C   0  0  0  0  0  3  0  0  0  0  0  0
  -21.8450   -4.9110   22.5390 C   0  0  0  0  0  0  0  0  0  0  0  0
  -22.2240   -4.3520   21.3640 F   0  0  0  0  0  0  0  0  0  0  0  0
  -21.2170   -3.9120   26.0130 F   0  0  0  0  0  0  0  0  0  0  0  0
  -22.7650  -13.6420   21.0440 C   0  0  0  0  0  0  0  0  0  0  0  0
  -22.0390  -12.9580   21.9220 N   0  0  0  0  0  0  0  0  0  0  0  0
  -22.3340  -14.6690   20.5240 O   0  0  0  0  0  0  0  0  0  0  0  0
  -22.4030  -12.1250   22.3620 H   0  0  0  0  0  0  0  0  0  0  0  0
  -21.1070  -13.2690   22.1590 H   0  0  0  0  0  0  0  0  0  0  0  0
  -25.4100  -15.2690   20.1890 N   0  0  0  0  0  0  0  0  0  0  0  0
  -24.6470  -15.9310   20.2810 H   0  0  0  0  0  0  0  0  0  0  0  0
  -26.2690  -15.6970   19.8720 H   0  0  0  0  0  0  0  0  0  0  0  0
  -30.9610  -25.8030   18.9750 C   0  0  0  0  0  2  0  0  0  0  0  0
  -30.7160  -26.1270   20.4630 C   0  0  0  0  0  2  0  0  0  0  0  0
  -29.5670  -27.1180   20.7120 C   0  0  0  0  0  2  0  0  0  0  0  0
  -28.3700  -26.6430   20.1070 O   0  0  0  0  0  0  0  0  0  0  0  0
  -24.5750  -31.8540   23.2400 C   0  0  0  0  0  0  0  0  0  0  0  0
  -27.2340  -27.4220   20.1780 C   0  0  0  0  0  0  0  0  0  0  0  0
  -23.3660  -30.4430   21.6070 C   0  0  0  0  0  3  0  0  0  0  0  0
  -24.8180  -28.8970   20.1900 C   0  0  0  0  0  0  0  0  0  0  0  0
  -25.8840  -30.8110   21.3970 C   0  0  0  0  0  2  0  0  0  0  0  0
  -25.9710  -29.4350   20.7750 C   0  0  0  0  0  0  0  0  0  0  0  0
  -27.1760  -28.7050   20.7780 C   0  0  0  0  0  3  0  0  0  0  0  0
  -26.0610  -26.8910   19.6020 C   0  0  0  0  0  3  0  0  0  0  0  0
  -24.8540  -27.6180   19.6060 C   0  0  0  0  0  3  0  0  0  0  0  0
  -23.5730  -29.7540   20.2300 C   0  0  0  0  0  2  0  0  0  0  0  0
  -24.6260  -31.0510   22.1410 N   0  0  0  0  0  0  0  0  0  0  0  0
  -23.4960  -32.1270   23.7830 O   0  0  0  0  0  0  0  0  0  0  0  0
  -22.7170  -29.4270   22.5740 C   0  0  0  0  0  0  0  0  0  0  0  0
  -21.3910  -29.2460   22.4470 N   0  0  0  0  0  0  0  0  0  0  0  0
  -23.4000  -28.8040   23.3890 O   0  0  0  0  0  0  0  0  0  0  0  0
  -20.9030  -29.8030   21.7620 H   0  0  0  0  0  0  0  0  0  0  0  0
  -18.0150  -28.0660   22.9520 C   0  0  0  0  0  0  0  0  0  0  0  0
  -20.5730  -28.3130   23.2200 C   0  0  0  0  0  3  0  0  0  0  0  0
  -20.6710  -26.8800   22.6480 C   0  0  0  0  0  2  0  0  0  0  0  0
  -19.5660  -26.5580   21.6370 C   0  0  0  0  0  2  0  0  0  0  0  0
  -18.1830  -26.7160   22.2760 C   0  0  0  0  0  2  0  0  0  0  0  0
  -19.1370  -28.8230   23.3790 C   0  0  0  0  0  0  0  0  0  0  0  0
  -18.9250  -30.0900   23.9640 C   0  0  0  0  0  3  0  0  0  0  0  0
  -17.6220  -30.5970   24.1320 C   0  0  0  0  0  3  0  0  0  0  0  0
  -16.5160  -29.8350   23.7230 C   0  0  0  0  0  3  0  0  0  0  0  0
  -16.7120  -28.5720   23.1370 C   0  0  0  0  0  3  0  0  0  0  0  0
  -25.8660  -32.4850   23.8550 C   0  0  0  0  0  3  0  0  0  0  0  0
  -25.5620  -33.8850   24.1810 N   0  0  0  0  0  0  0  0  0  0  0  0
  -25.9030  -34.9320   23.4150 C   0  0  0  0  0  0  0  0  0  0  0  0
  -26.5740  -34.8190   22.3860 O   0  0  0  0  0  0  0  0  0  0  0  0
  -24.9690  -34.0490   24.9820 H   0  0  0  0  0  0  0  0  0  0  0  0
  -24.1860  -36.7280   23.0340 C   0  0  0  0  0  1  0  0  0  0  0  0
  -25.4160  -36.3250   23.8620 C   0  0  0  0  0  3  0  0  0  0  0  0
  -27.5480  -37.1960   24.7150 C   0  0  0  0  0  1  0  0  0  0  0  0
  -26.4570  -37.3710   23.7590 N   0  0  0  0  0  0  0  0  0  0  0  0
  -26.0560  -38.2930   23.9000 H   0  0  0  0  0  0  0  0  0  0  0  0
  -26.3880  -31.7130   25.1280 C   0  0  1  0  0  0  0  0  0  0  0  0
  -25.2980  -31.4640   26.1940 C   0  0  0  0  0  1  0  0  0  0  0  0
  -26.9770  -30.3390   24.7300 C   0  0  0  0  0  1  0  0  0  0  0  0
  -27.5370  -32.5080   25.7920 C   0  0  0  0  0  1  0  0  0  0  0  0
  1  9  1  0
  2  3  1  0
  2 55  1  0
  3  1  1  0
  3  6  1  0
  4  1  2  0
  5  2  2  0
  7 10  2  0
  7  9  1  0
  8 11  1  0
  9  8  2  0
 10 12  1  0
 11 15  1  0
 12 16  1  0
 12 11  2  0
 13 10  1  0
 14 15  1  0
 16 17  1  0
 17 18  1  0
 19 18  1  0
 20 25  1  0
 21 22  1  0
 21 20  1  0
 23 22  1  0
 23 30  1  0
 23 24  1  0
 25 19  1  0
 25 24  1  0
 26 19  2  0
 27 28  2  0
 28 47  1  0
 29 28  1  0
 29 32  1  0
 30 27  1  0
 30 31  1  0
 31 29  2  0
 32 33  1  0
 33 34  2  0
 35 38  1  0
 35 34  1  0
 36 35  2  0
 37 36  1  0
 37 32  2  0
 38 39  1  0
 39 40  1  0
 40 41  2  0
 42 41  1  0
 42 46  1  0
 43 42  2  0
 44 39  2  0
 44 43  1  0
 45 44  1  0
 47 48  1  0
 48 51  1  0
 48 50  1  0
 49 47  2  0
 52 53  1  0
 52 27  1  0
 54 52  1  0
 55 56  1  0
 56 57  1  0
 58 60  1  0
 58 57  1  0
 59 70  2  0
 60 65  1  0
 61 69  1  0
 61 71  1  0
 62 68  1  0
 62 64  1  0
 63 69  1  0
 64 65  2  0
 64 63  1  0
 66 67  1  0
 66 60  2  0
 67 62  2  0
 68 61  1  0
 69 59  1  0
 71 73  2  0
 72 71  1  0
 74 72  1  0
 75 84  2  0
 75 80  1  0
 76 72  1  0
 76 80  1  0
 77 76  1  0
 78 79  1  0
 78 77  1  0
 79 75  1  0
 80 81  2  0
 81 82  1  0
 83 82  2  0
 84 83  1  0
 85 59  1  0
 85 86  1  0
 85 95  1  0
 86 89  1  0
 87 91  1  0
 87 86  1  0
 88 87  2  0
 91 90  1  0
 93 91  1  0
 93 94  1  0
 93 92  1  0
 95 98  1  1
 95 96  1  0
 97 95  1  0
M  ISO  4  18 100  19 100  57 101  58 101
M  END
>  <TORSDO>  (50) 
F 24

>  <SCORE>  (50) 
-12.626

>  <name>  (50) 
49

>  <ligand_id>  (50) 
49

>  <original_smiles>  (50) 
[H]c1c([H])c([H])c2c(c1[H])C([H])([H])C([H])([H])C([H])([H])C2([H])N([H])C(=O)C1([H])N(C(=O)C([H])(N([H])C(=O)C([H])(N([H])C([H])([H])[H])C([H])([H])[H])C(C([H])([H])[H])(C([H])([H])[H])C([H])([H])[H])C([H])([H])c2c([H])c(OC([H])([H])C([H])([H])C([H])([H])C(=O)N([H])C(=O)c3c([H])c(OC([H])([H])[H])c(OC([H])([H])C([H])([H])C(=O)N4C([H])([H])C([H])([H])C([H])([H])C([H])(n5nc(-c6c([H])c([H])c(Oc7c([H])c([H])c(F)c([H])c7F)c([H])c6[H])c(C(=O)N([H])[H])c5N([H])[H])C4([H])[H])c(C([H])([H])[H])c3[H])c([H])c([H])c2C1([H])[H]

>  <smiles>  (50) 
[H]c1c([H])c([H])c2c(c1[H])C([H])([H])C([H])([H])C([H])([H])C2([H])N([H])C(=O)C1([H])N(C(=O)C([H])(N([H])C(=O)C([H])(N([H])C([H])([H])[H])C([H])([H])[H])C(C([H])([H])[H])(C([H])([H])[H])C([H])([H])[H])C([H])([H])c2c([H])c(OC([H])([H])C([H])([H])C([H])([H])C(=O)N([H])C(=O)c3c([H])c(OC([H])([H])[H])c(OC([H])([H])C([H])([H])C(=O)N4C([H])([H])C([H])([H])C([H])([H])C([H])(n5nc(-c6c([H])c([H])c(Oc7c([H])c([H])c(F)c([H])c7F)c([H])c6[H])c(C(=O)N([H])[H])c5N([H])[H])C4([H])[H])c(C([H])([H])[H])c3[H])c([H])c([H])c2C1([H])[H]

$$$$
50:0:0
     RDKit          3D

 93 99  0  0  1  0  0  0  0  0999 V2000
  -23.3030  -26.9560   20.3950 C   0  0  0  0  0  0  0  0  0  0  0  0
  -24.5670  -26.8220   21.0750 N   0  0  0  0  0  0  0  0  0  0  0  0
  -22.3190  -27.6050   20.8090 O   0  0  0  0  0  0  0  0  0  0  0  0
  -24.7060  -27.4770   21.7970 H   0  0  0  0  0  0  0  0  0  0  0  0
  -24.9250  -24.3170   21.7910 C   0  0  0  0  0  3  0  0  0  0  0  0
  -25.6240  -22.9660   21.7610 C   0  0  0  0  0  3  0  0  0  0  0  0
  -26.9550  -22.5420   21.2090 C   0  0  0  0  0  2  0  0  0  0  0  0
  -25.3750  -25.5270   21.2020 C   0  0  0  0  0  0  0  0  0  0  0  0
  -24.5030  -22.2620   22.2760 C   0  0  0  0  0  1  0  0  0  0  0  0
  -27.1110  -24.5640   20.9910 S   0  0  0  0  0  0  0  0  0  0  0  0
  -28.2930  -21.0100   20.8240 C   0  0  0  0  0 15  0  0  0  0  0  0
  -29.8570  -17.4860   20.3400 C   0  0  0  0  0  0  0  0  0  0  0  0
  -30.5680  -14.8360   19.4180 C   0  0  0  0  0  2  0  0  0  0  0  0
  -29.9690  -13.8340   18.3390 C   0  0  0  0  0  2  0  0  0  0  0  0
  -28.7070  -13.1160   18.8100 C   0  0  0  0  0  2  0  0  0  0  0  0
  -27.9220  -14.1200   19.6550 C   0  0  0  0  0  3  0  0  0  0  0  0
  -28.7010  -14.9030   20.7640 C   0  0  0  0  0  2  0  0  0  0  0  0
  -29.6110  -15.9360   20.1090 N   0  0  0  0  0  0  0  0  0  0  0  0
  -31.1100  -17.4210   20.1910 O   0  0  0  0  0  0  0  0  0  0  0  0
  -28.8930  -18.9930   20.5670 N   0  0  0  0  0  2  0  0  0  0  0  0
  -29.7140  -19.5520   20.5520 H   0  0  0  0  0  0  0  0  0  0  0  0
  -25.5800  -14.5050   20.3770 C   0  0  0  0  0  0  0  0  0  0  0  0
  -24.5530  -13.6780   20.7100 C   0  0  0  0  0  0  0  0  0  0  0  0
  -25.0630  -12.3420   20.6450 C   0  0  0  0  0  0  0  0  0  0  0  0
  -26.6480  -13.6630   20.1430 N   0  0  0  0  0  0  0  0  0  0  0  0
  -26.3510  -12.3430   20.3480 N   0  0  0  0  0  0  0  0  0  0  0  0
  -24.3430  -11.0700   20.8290 C   0  0  0  0  0  0  0  0  0  0  0  0
  -24.7320  -10.1130   21.7850 C   0  0  0  0  0  3  0  0  0  0  0  0
  -24.0050   -8.9190   21.9390 C   0  0  0  0  0  3  0  0  0  0  0  0
  -22.8630   -8.6660   21.1400 C   0  0  0  0  0  0  0  0  0  0  0  0
  -22.4950   -9.6100   20.1610 C   0  0  0  0  0  3  0  0  0  0  0  0
  -23.2290  -10.8010   20.0050 C   0  0  0  0  0  3  0  0  0  0  0  0
  -22.1070   -7.5160   21.1970 O   0  0  0  0  0  0  0  0  0  0  0  0
  -21.9380   -6.8390   22.3740 C   0  0  0  0  0  0  0  0  0  0  0  0
  -21.3900   -7.4580   23.5160 C   0  0  0  0  0  3  0  0  0  0  0  0
  -21.1560   -6.7090   24.6830 C   0  0  0  0  0  3  0  0  0  0  0  0
  -21.4620   -5.3330   24.7120 C   0  0  0  0  0  0  0  0  0  0  0  0
  -22.0060   -4.7080   23.5710 C   0  0  0  0  0  3  0  0  0  0  0  0
  -22.2350   -5.4620   22.4020 C   0  0  0  0  0  0  0  0  0  0  0  0
  -22.7360   -4.8480   21.3010 F   0  0  0  0  0  0  0  0  0  0  0  0
  -21.2360   -4.5990   25.8310 F   0  0  0  0  0  0  0  0  0  0  0  0
  -23.1540  -14.1360   20.9770 C   0  0  0  0  0  0  0  0  0  0  0  0
  -22.4370  -13.4290   21.8440 N   0  0  0  0  0  0  0  0  0  0  0  0
  -22.7000  -15.1640   20.4660 O   0  0  0  0  0  0  0  0  0  0  0  0
  -22.8160  -12.6160   22.3010 H   0  0  0  0  0  0  0  0  0  0  0  0
  -21.4980  -13.7190   22.0940 H   0  0  0  0  0  0  0  0  0  0  0  0
  -25.7040  -15.8830   20.2160 N   0  0  0  0  0  0  0  0  0  0  0  0
  -24.9190  -16.5080   20.3260 H   0  0  0  0  0  0  0  0  0  0  0  0
  -26.5440  -16.3500   19.9020 H   0  0  0  0  0  0  0  0  0  0  0  0
  -22.6230  -26.4770   19.0890 C   0  0  0  0  0  2  0  0  0  0  0  0
  -23.7110  -25.6380   18.5780 C   0  0  0  0  0  2  0  0  0  0  0  0
  -25.3350  -26.2300   18.4930 C   0  0  0  0  0  2  0  0  0  0  0  0
  -26.5900  -26.7910   19.5480 O   0  0  0  0  0  0  0  0  0  0  0  0
  -24.7870  -32.1900   23.3570 C   0  0  0  0  0  0  0  0  0  0  0  0
  -27.1610  -27.9860   19.4810 C   0  0  0  0  0  3  0  0  0  0  0  0
  -23.8410  -30.6220   21.6690 C   0  0  0  0  0  3  0  0  0  0  0  0
  -25.2240  -29.9240   19.6960 C   0  0  0  0  0  0  0  0  0  0  0  0
  -26.3490  -31.3090   21.5670 C   0  0  0  0  0  2  0  0  0  0  0  0
  -26.3420  -30.1120   20.5680 C   0  0  0  0  0  3  0  0  0  0  0  0
  -27.2310  -28.8890   20.5750 C   0  0  0  0  0  2  0  0  0  0  0  0
  -26.4170  -28.4470   18.4190 C   0  0  0  0  0  2  0  0  0  0  0  0
  -25.3150  -29.1780   18.5850 C   0  0  0  0  0  2  0  0  0  0  0  0
  -23.9560  -30.1580   20.2620 C   0  0  0  0  0  3  0  0  0  0  0  0
  -24.9680  -31.5810   22.1800 N   0  0  0  0  0  0  0  0  0  0  0  0
  -23.6750  -32.3190   23.9450 O   0  0  0  0  0  0  0  0  0  0  0  0
  -22.9510  -29.7590   22.8130 C   0  0  0  0  0  0  0  0  0  0  0  0
  -21.6110  -29.6310   22.6590 N   0  0  0  0  0  0  0  0  0  0  0  0
  -23.5320  -28.8860   23.5070 O   0  0  0  0  0  0  0  0  0  0  0  0
  -21.3380  -29.7150   21.6190 H   0  0  0  0  0  0  0  0  0  0  0  0
  -18.2630  -28.2320   23.0280 C   0  0  0  0  0  0  0  0  0  0  0  0
  -20.7800  -28.5830   23.3220 C   0  0  0  0  0  3  0  0  0  0  0  0
  -20.7850  -27.0530   22.9370 C   0  0  0  0  0  2  0  0  0  0  0  0
  -19.8600  -26.7640   21.7790 C   0  0  0  0  0  2  0  0  0  0  0  0
  -18.4350  -26.8800   22.3030 C   0  0  0  0  0  2  0  0  0  0  0  0
  -19.3220  -29.0330   23.4280 C   0  0  0  0  0  0  0  0  0  0  0  0
  -19.0140  -30.1990   24.0710 C   0  0  0  0  0  3  0  0  0  0  0  0
  -17.6690  -30.6510   24.2240 C   0  0  0  0  0  3  0  0  0  0  0  0
  -16.5820  -29.8420   23.7790 C   0  0  0  0  0  3  0  0  0  0  0  0
  -16.9210  -28.6220   23.1570 C   0  0  0  0  0  3  0  0  0  0  0  0
  -26.0680  -32.7620   24.0190 C   0  0  0  0  0  3  0  0  0  0  0  0
  -25.7060  -34.1440   24.3670 N   0  0  0  0  0  0  0  0  0  0  0  0
  -26.0330  -35.1940   23.6510 C   0  0  0  0  0  0  0  0  0  0  0  0
  -26.7400  -35.1570   22.6370 O   0  0  0  0  0  0  0  0  0  0  0  0
  -24.9610  -34.1710   25.0160 H   0  0  0  0  0  0  0  0  0  0  0  0
  -24.3340  -36.9830   23.4270 C   0  0  0  0  0  1  0  0  0  0  0  0
  -25.5720  -36.5500   24.2020 C   0  0  0  0  0  3  0  0  0  0  0  0
  -27.6840  -37.3690   25.0400 C   0  0  0  0  0  1  0  0  0  0  0  0
  -26.5840  -37.5900   24.1140 N   0  0  0  0  0  0  0  0  0  0  0  0
  -26.2070  -38.5110   24.2920 H   0  0  0  0  0  0  0  0  0  0  0  0
  -26.5800  -31.9510   25.2820 C   0  0  1  0  0  0  0  0  0  0  0  0
  -25.5170  -31.6990   26.3500 C   0  0  0  0  0  1  0  0  0  0  0  0
  -27.2500  -30.5900   24.9460 C   0  0  0  0  0  1  0  0  0  0  0  0
  -27.7090  -32.8140   25.8890 C   0  0  0  0  0  1  0  0  0  0  0  0
  1  3  2  0
  1  2  1  0
  2  8  1  0
  2  4  1  0
  6  5  1  0
  6  9  1  0
  7  6  1  0
  8  5  2  0
 10  8  1  0
 10  7  1  0
 12 20  1  0
 13 18  1  0
 14 15  1  0
 14 13  1  0
 16 15  1  0
 16 25  1  0
 16 17  1  0
 18 12  1  0
 18 17  1  0
 19 12  2  0
 21 20  1  0
 22 23  2  0
 23 42  1  0
 24 23  1  0
 24 27  1  0
 25 26  1  0
 25 22  1  0
 26 24  2  0
 27 28  1  0
 28 29  2  0
 30 33  1  0
 30 29  1  0
 31 30  2  0
 32 31  1  0
 32 27  2  0
 33 34  1  0
 34 39  2  0
 34 35  1  0
 35 36  2  0
 36 37  1  0
 37 41  1  0
 38 37  2  0
 39 38  1  0
 40 39  1  0
 42 43  1  0
 43 46  1  0
 43 45  1  0
 44 42  2  0
 47 48  1  0
 47 22  1  0
 49 47  1  0
 50  1  1  0
 51 50  1  0
 52 51  1  0
 52 53  1  0
 54 65  2  0
 55 53  1  0
 55 60  1  0
 56 64  1  0
 56 66  1  0
 57 63  2  0
 57 59  1  0
 58 64  1  0
 59 60  1  0
 59 58  1  0
 61 62  1  0
 61 55  1  0
 62 57  1  0
 63 56  1  0
 64 54  1  0
 66 68  2  0
 67 66  1  0
 69 67  1  0
 70 79  2  0
 70 75  1  0
 71 67  1  0
 71 75  1  0
 72 71  1  0
 73 74  1  0
 73 72  1  0
 74 70  1  0
 75 76  2  0
 76 77  1  0
 78 77  2  0
 79 78  1  0
 80 54  1  0
 80 81  1  0
 80 90  1  0
 81 84  1  0
 82 86  1  0
 82 81  1  0
 83 82  2  0
 86 85  1  0
 88 86  1  0
 88 89  1  0
 88 87  1  0
 90 93  1  1
 90 91  1  0
 92 90  1  0
M  ISO  4  12 100  20 100  52 101  53 101
M  END
>  <TORSDO>  (51) 
F 21

>  <SCORE>  (51) 
-9.711

>  <name>  (51) 
50

>  <ligand_id>  (51) 
50

>  <original_smiles>  (51) 
[H]c1c([H])c([H])c2c(c1[H])C([H])([H])C([H])([H])C([H])([H])C2([H])N([H])C(=O)C1([H])N(C(=O)C([H])(N([H])C(=O)C([H])(N([H])C([H])([H])[H])C([H])([H])[H])C(C([H])([H])[H])(C([H])([H])[H])C([H])([H])[H])C([H])([H])c2c([H])c(OC([H])([H])C([H])([H])C([H])([H])C(=O)N([H])c3sc(C([H])([H])N([H])C(=O)N4C([H])([H])C([H])([H])C([H])([H])C([H])(n5nc(-c6c([H])c([H])c(Oc7c([H])c([H])c(F)c([H])c7F)c([H])c6[H])c(C(=O)N([H])[H])c5N([H])[H])C4([H])[H])c(C([H])([H])[H])c3[H])c([H])c([H])c2C1([H])[H]

>  <smiles>  (51) 
[H]c1c([H])c([H])c2c(c1[H])C([H])([H])C([H])([H])C([H])([H])C2([H])N([H])C(=O)C1([H])N(C(=O)C([H])(N([H])C(=O)C([H])(N([H])C([H])([H])[H])C([H])([H])[H])C(C([H])([H])[H])(C([H])([H])[H])C([H])([H])[H])C([H])([H])c2c([H])c(OC([H])([H])C([H])([H])C([H])([H])C(=O)N([H])c3sc(C([H])([H])N([H])C(=O)N4C([H])([H])C([H])([H])C([H])([H])C([H])(n5nc(-c6c([H])c([H])c(Oc7c([H])c([H])c(F)c([H])c7F)c([H])c6[H])c(C(=O)N([H])[H])c5N([H])[H])C4([H])[H])c(C([H])([H])[H])c3[H])c([H])c([H])c2C1([H])[H]

$$$$
51:0:0
     RDKit          3D

 96105  0  0  1  0  0  0  0  0999 V2000
  -30.8780  -21.2530   21.2020 C   0  0  0  0  0  0  0  0  0  0  0  0
  -30.3400  -24.2380   19.1760 C   0  0  0  0  0  2  0  0  0  0  0  0
  -31.1460  -22.9720   19.4900 C   0  0  0  0  0  2  0  0  0  0  0  0
  -29.1130  -22.8940   20.7050 C   0  0  0  0  0  2  0  0  0  0  0  0
  -29.4020  -24.3770   20.3650 C   0  0  0  0  0  3  0  0  0  0  0  0
  -30.2990  -22.1060   20.3240 N   0  0  0  0  0  0  0  0  0  0  0  0
  -31.6930  -21.6470   22.0420 O   0  0  0  0  0  0  0  0  0  0  0  0
  -31.6100  -18.8420   21.4940 C   0  0  0  0  0  3  0  0  0  0  0  0
  -31.3940  -17.4470   21.4350 C   0  0  0  0  0  3  0  0  0  0  0  0
  -29.4200  -19.2450   20.5270 C   0  0  0  0  0  3  0  0  0  0  0  0
  -30.6290  -19.7640   21.0490 C   0  0  0  0  0  0  0  0  0  0  0  0
  -30.1790  -16.9350   20.9260 C   0  0  0  0  0  0  0  0  0  0  0  0
  -29.2000  -17.8470   20.4640 C   0  0  0  0  0  0  0  0  0  0  0  0
  -30.6060  -14.5090   20.4990 C   0  0  0  0  0  0  0  0  0  0  0  0
  -30.3160  -12.3430   19.3530 C   0  0  0  0  0  2  0  0  0  0  0  0
  -29.3790  -12.5440   18.1440 C   0  0  0  0  0  2  0  0  0  0  0  0
  -27.9030  -12.4040   18.5710 C   0  0  0  0  0  2  0  0  0  0  0  0
  -27.5590  -13.2430   19.8290 C   0  0  0  0  0  3  0  0  0  0  0  0
  -28.6100  -13.0280   20.9410 C   0  0  0  0  0  2  0  0  0  0  0  0
  -29.9350  -13.3300   20.3740 N   0  0  0  0  0  0  0  0  0  0  0  0
  -31.7550  -14.6710   20.0770 O   0  0  0  0  0  0  0  0  0  0  0  0
  -29.8630  -15.5410   20.9430 N   0  0  0  0  0  0  0  0  0  0  0  0
  -28.8920  -15.3340   21.1170 H   0  0  0  0  0  0  0  0  0  0  0  0
  -25.1580  -13.8580   20.5280 C   0  0  0  0  0  0  0  0  0  0  0  0
  -24.0850  -13.0870   20.8870 C   0  0  0  0  0  0  0  0  0  0  0  0
  -24.5440  -11.7350   20.8610 C   0  0  0  0  0  0  0  0  0  0  0  0
  -26.2030  -12.9740   20.3020 N   0  0  0  0  0  0  0  0  0  0  0  0
  -25.8360  -11.6920   20.5610 N   0  0  0  0  0  0  0  0  0  0  0  0
  -23.8150  -10.4740   21.0510 C   0  0  0  0  0  0  0  0  0  0  0  0
  -24.2440   -9.5060   21.9860 C   0  0  0  0  0  3  0  0  0  0  0  0
  -23.5150   -8.3110   22.1630 C   0  0  0  0  0  3  0  0  0  0  0  0
  -22.3440   -8.0740   21.4060 C   0  0  0  0  0  0  0  0  0  0  0  0
  -21.9350   -9.0310   20.4600 C   0  0  0  0  0  3  0  0  0  0  0  0
  -22.6630  -10.2180   20.2800 C   0  0  0  0  0  3  0  0  0  0  0  0
  -21.5880   -6.9300   21.4900 O   0  0  0  0  0  0  0  0  0  0  0  0
  -21.5360   -6.1850   22.6410 C   0  0  0  0  0  0  0  0  0  0  0  0
  -21.1080   -6.7370   23.8690 C   0  0  0  0  0  3  0  0  0  0  0  0
  -21.0040   -5.9180   25.0110 C   0  0  0  0  0  3  0  0  0  0  0  0
  -21.3190   -4.5490   24.9270 C   0  0  0  0  0  0  0  0  0  0  0  0
  -21.7410   -3.9960   23.7050 C   0  0  0  0  0  3  0  0  0  0  0  0
  -21.8460   -4.8120   22.5660 C   0  0  0  0  0  0  0  0  0  0  0  0
  -22.2330   -4.2700   21.3850 F   0  0  0  0  0  0  0  0  0  0  0  0
  -21.2110   -3.7600   26.0220 F   0  0  0  0  0  0  0  0  0  0  0  0
  -22.6860  -13.5660   21.1490 C   0  0  0  0  0  0  0  0  0  0  0  0
  -21.9530  -12.8740   22.0130 N   0  0  0  0  0  0  0  0  0  0  0  0
  -22.2540  -14.5920   20.6250 O   0  0  0  0  0  0  0  0  0  0  0  0
  -22.3160  -12.0470   22.4630 H   0  0  0  0  0  0  0  0  0  0  0  0
  -21.0120  -13.1760   22.2280 H   0  0  0  0  0  0  0  0  0  0  0  0
  -25.3230  -15.2300   20.3650 N   0  0  0  0  0  0  0  0  0  0  0  0
  -24.5590  -15.8760   20.5280 H   0  0  0  0  0  0  0  0  0  0  0  0
  -26.1970  -15.7100   20.1720 H   0  0  0  0  0  0  0  0  0  0  0  0
  -28.0140  -17.3550   19.9220 N   0  0  0  0  0  0  0  0  0  0  0  0
  -27.4520  -18.0400   19.4280 H   0  0  0  0  0  0  0  0  0  0  0  0
  -28.1460  -16.5330   19.3450 H   0  0  0  0  0  0  0  0  0  0  0  0
  -28.1400  -25.2360   20.0960 C   0  0  0  0  0  2  0  0  0  0  0  0
  -28.3300  -26.6660   20.1920 O   0  0  0  0  0  0  0  0  0  0  0  0
  -24.5860  -31.9170   23.2720 C   0  0  0  0  0  0  0  0  0  0  0  0
  -27.1750  -27.4350   20.1730 C   0  0  0  0  0  0  0  0  0  0  0  0
  -23.3640  -30.5330   21.6310 C   0  0  0  0  0  3  0  0  0  0  0  0
  -24.7990  -28.9900   20.1970 C   0  0  0  0  0  0  0  0  0  0  0  0
  -25.8970  -30.8600   21.4310 C   0  0  0  0  0  2  0  0  0  0  0  0
  -25.9680  -29.4910   20.7830 C   0  0  0  0  0  0  0  0  0  0  0  0
  -27.1590  -28.7240   20.7650 C   0  0  0  0  0  3  0  0  0  0  0  0
  -25.9790  -26.9610   19.5810 C   0  0  0  0  0  3  0  0  0  0  0  0
  -24.8010  -27.7250   19.5920 C   0  0  0  0  0  3  0  0  0  0  0  0
  -23.5650  -29.8600   20.2480 C   0  0  0  0  0  2  0  0  0  0  0  0
  -24.6350  -31.1180   22.1690 N   0  0  0  0  0  0  0  0  0  0  0  0
  -23.5070  -32.1980   23.8140 O   0  0  0  0  0  0  0  0  0  0  0  0
  -22.7040  -29.5130   22.5870 C   0  0  0  0  0  0  0  0  0  0  0  0
  -21.3780  -29.3410   22.4590 N   0  0  0  0  0  0  0  0  0  0  0  0
  -23.3810  -28.8800   23.4010 O   0  0  0  0  0  0  0  0  0  0  0  0
  -20.8920  -29.9030   21.7730 H   0  0  0  0  0  0  0  0  0  0  0  0
  -17.9940  -28.1770   22.9560 C   0  0  0  0  0  0  0  0  0  0  0  0
  -20.5530  -28.4080   23.2270 C   0  0  0  0  0  3  0  0  0  0  0  0
  -20.6420  -26.9780   22.6470 C   0  0  0  0  0  2  0  0  0  0  0  0
  -19.5360  -26.6690   21.6330 C   0  0  0  0  0  2  0  0  0  0  0  0
  -18.1570  -26.8260   22.2780 C   0  0  0  0  0  2  0  0  0  0  0  0
  -19.1200  -28.9260   23.3880 C   0  0  0  0  0  0  0  0  0  0  0  0
  -18.9140  -30.1910   23.9810 C   0  0  0  0  0  3  0  0  0  0  0  0
  -17.6140  -30.7060   24.1480 C   0  0  0  0  0  3  0  0  0  0  0  0
  -16.5020  -29.9520   23.7330 C   0  0  0  0  0  3  0  0  0  0  0  0
  -16.6920  -28.6890   23.1420 C   0  0  0  0  0  3  0  0  0  0  0  0
  -25.8770  -32.5350   23.8920 C   0  0  0  0  0  3  0  0  0  0  0  0
  -26.3940  -31.7530   25.1610 C   0  0  1  0  0  0  0  0  0  0  0  0
  -25.3050  -31.5130   26.2320 C   0  0  0  0  0  1  0  0  0  0  0  0
  -26.9650  -30.3740   24.7550 C   0  0  0  0  0  1  0  0  0  0  0  0
  -27.5530  -32.5350   25.8220 C   0  0  0  0  0  1  0  0  0  0  0  0
  -25.5790  -33.9340   24.2280 N   0  0  0  0  0  0  0  0  0  0  0  0
  -25.8970  -34.9850   23.4590 C   0  0  0  0  0  0  0  0  0  0  0  0
  -26.5430  -34.8780   22.4140 O   0  0  0  0  0  0  0  0  0  0  0  0
  -25.0070  -34.0910   25.0440 H   0  0  0  0  0  0  0  0  0  0  0  0
  -24.1560  -36.7720   23.1530 C   0  0  0  0  0  1  0  0  0  0  0  0
  -25.4240  -36.3740   23.9250 C   0  0  0  0  0  3  0  0  0  0  0  0
  -27.5840  -37.2650   24.6800 C   0  0  0  0  0  1  0  0  0  0  0  0
  -26.4510  -37.4280   23.7730 N   0  0  0  0  0  0  0  0  0  0  0  0
  -26.0500  -38.3480   23.9290 H   0  0  0  0  0  0  0  0  0  0  0  0
  1  7  2  0
  2  3  1  0
  2  5  1  0
  3  6  1  0
  5 55  1  0
  5  4  1  0
  6  4  1  0
  6  1  1  0
  9  8  1  0
 10 11  1  0
 11  1  1  0
 11  8  2  0
 12 22  1  0
 12  9  2  0
 13 10  2  0
 13 12  1  0
 14 22  1  0
 15 20  1  0
 16 17  1  0
 16 15  1  0
 18 17  1  0
 18 27  1  0
 18 19  1  0
 20 14  1  0
 20 19  1  0
 21 14  2  0
 22 23  1  0
 24 25  2  0
 25 44  1  0
 26 25  1  0
 26 29  1  0
 27 24  1  0
 27 28  1  0
 28 26  2  0
 29 30  1  0
 30 31  2  0
 32 35  1  0
 32 31  1  0
 33 32  2  0
 34 33  1  0
 34 29  2  0
 35 36  1  0
 36 37  1  0
 37 38  2  0
 39 38  1  0
 39 43  1  0
 40 39  2  0
 41 36  2  0
 41 40  1  0
 42 41  1  0
 44 45  1  0
 45 48  1  0
 45 47  1  0
 46 44  2  0
 49 24  1  0
 49 50  1  0
 51 49  1  0
 52 13  1  0
 53 52  1  0
 54 52  1  0
 55 56  1  0
 57 68  2  0
 58 56  1  0
 58 63  1  0
 59 67  1  0
 59 69  1  0
 60 66  1  0
 60 62  1  0
 61 67  1  0
 62 61  1  0
 63 62  2  0
 64 65  1  0
 64 58  2  0
 65 60  2  0
 66 59  1  0
 67 57  1  0
 69 71  2  0
 70 69  1  0
 72 70  1  0
 73 82  2  0
 73 78  1  0
 74 70  1  0
 74 78  1  0
 75 74  1  0
 76 77  1  0
 76 75  1  0
 77 73  1  0
 78 79  2  0
 79 80  1  0
 81 80  2  0
 82 81  1  0
 83 57  1  0
 83 88  1  0
 83 84  1  0
 84 87  1  1
 84 85  1  0
 86 84  1  0
 88 91  1  0
 89 93  1  0
 89 88  1  0
 90 89  2  0
 93 92  1  0
 95 93  1  0
 95 96  1  0
 95 94  1  0
M  ISO  4  14 100  22 100  55 101  56 101
M  END
>  <TORSDO>  (52) 
F 19

>  <SCORE>  (52) 
-14.909

>  <name>  (52) 
51

>  <ligand_id>  (52) 
51

>  <original_smiles>  (52) 
[H]c1c([H])c([H])c2c(c1[H])C([H])([H])C([H])([H])C([H])([H])C2([H])N([H])C(=O)C1([H])N(C(=O)C([H])(N([H])C(=O)C([H])(N([H])C([H])([H])[H])C([H])([H])[H])C(C([H])([H])[H])(C([H])([H])[H])C([H])([H])[H])C([H])([H])c2c([H])c(OC([H])([H])C3([H])C([H])([H])N(C(=O)c4c([H])c([H])c(N([H])C(=O)N5C([H])([H])C([H])([H])C([H])([H])C([H])(n6nc(-c7c([H])c([H])c(Oc8c([H])c([H])c(F)c([H])c8F)c([H])c7[H])c(C(=O)N([H])[H])c6N([H])[H])C5([H])[H])c(N([H])[H])c4[H])C([H])([H])C3([H])[H])c([H])c([H])c2C1([H])[H]

>  <smiles>  (52) 
[H]c1c([H])c([H])c2c(c1[H])C([H])([H])C([H])([H])C([H])([H])C2([H])N([H])C(=O)C1([H])N(C(=O)C([H])(N([H])C(=O)C([H])(N([H])C([H])([H])[H])C([H])([H])[H])C(C([H])([H])[H])(C([H])([H])[H])C([H])([H])[H])C([H])([H])c2c([H])c(OC([H])([H])C3([H])C([H])([H])N(C(=O)c4c([H])c([H])c(N([H])C(=O)N5C([H])([H])C([H])([H])C([H])([H])C([H])(n6nc(-c7c([H])c([H])c(Oc8c([H])c([H])c(F)c([H])c8F)c([H])c7[H])c(C(=O)N([H])[H])c6N([H])[H])C5([H])[H])c(N([H])[H])c4[H])C([H])([H])C3([H])[H])c([H])c([H])c2C1([H])[H]

$$$$
52:0:0
     RDKit          3D

 95103  0  0  1  0  0  0  0  0999 V2000
  -31.4430  -18.1800   20.1440 C   0  0  0  0  0  3  0  0  0  0  0  0
  -29.1440  -18.1190   20.8340 C   0  0  0  0  0  3  0  0  0  0  0  0
  -31.3890  -19.6040   20.0910 C   0  0  0  0  0  0  0  0  0  0  0  0
  -30.3110  -17.3880   20.4670 C   0  0  0  0  0  0  0  0  0  0  0  0
  -29.0750  -19.5480   20.7710 C   0  0  0  0  0  0  0  0  0  0  0  0
  -30.1940  -20.3350   20.3490 C   0  0  0  0  0  0  0  0  0  0  0  0
  -32.6450  -20.3590   19.6930 C   0  0  0  0  0  1  0  0  0  0  0  0
  -30.9480  -14.9280   20.7890 C   0  0  0  0  0  0  0  0  0  0  0  0
  -30.8960  -12.5080   20.1860 C   0  0  0  0  0  2  0  0  0  0  0  0
  -30.0730  -12.2310   18.9050 C   0  0  0  0  0  2  0  0  0  0  0  0
  -28.5640  -12.1450   19.2020 C   0  0  0  0  0  2  0  0  0  0  0  0
  -28.0410  -13.2350   20.1740 C   0  0  0  0  0  3  0  0  0  0  0  0
  -28.9860  -13.4250   21.3790 C   0  0  0  0  0  2  0  0  0  0  0  0
  -30.3290  -13.6990   20.8420 N   0  0  0  0  0  0  0  0  0  0  0  0
  -32.1770  -14.9970   20.8760 O   0  0  0  0  0  0  0  0  0  0  0  0
  -30.0350  -15.7930   18.7960 C   0  0  0  0  0  0  0  0  0  0  0  0
  -28.8270  -16.4860   18.1650 C   0  0  0  0  0  1  0  0  0  0  0  0
  -30.2730  -15.9540   20.1290 N   0  0  0  0  0  0  0  0  0  0  0  0
  -30.8260  -15.2410   18.0210 O   0  0  0  0  0  0  0  0  0  0  0  0
  -25.6050  -13.8850   20.6630 C   0  0  0  0  0  0  0  0  0  0  0  0
  -24.5000  -13.1320   20.9510 C   0  0  0  0  0  0  0  0  0  0  0  0
  -24.9520  -11.7780   21.0230 C   0  0  0  0  0  0  0  0  0  0  0  0
  -26.6580  -12.9890   20.5660 N   0  0  0  0  0  0  0  0  0  0  0  0
  -26.2660  -11.7230   20.8510 N   0  0  0  0  0  0  0  0  0  0  0  0
  -24.2050  -10.5260   21.1850 C   0  0  0  0  0  0  0  0  0  0  0  0
  -24.5700   -9.5710   22.1580 C   0  0  0  0  0  3  0  0  0  0  0  0
  -23.8240   -8.3830   22.3100 C   0  0  0  0  0  3  0  0  0  0  0  0
  -22.6970   -8.1430   21.4870 C   0  0  0  0  0  0  0  0  0  0  0  0
  -22.3530   -9.0870   20.5030 C   0  0  0  0  0  3  0  0  0  0  0  0
  -23.1000  -10.2670   20.3500 C   0  0  0  0  0  3  0  0  0  0  0  0
  -21.9280   -7.0080   21.5450 O   0  0  0  0  0  0  0  0  0  0  0  0
  -21.8310   -6.2610   22.6920 C   0  0  0  0  0  0  0  0  0  0  0  0
  -21.3520   -6.8110   23.9010 C   0  0  0  0  0  3  0  0  0  0  0  0
  -21.2090   -5.9920   25.0390 C   0  0  0  0  0  3  0  0  0  0  0  0
  -21.5320   -4.6240   24.9660 C   0  0  0  0  0  0  0  0  0  0  0  0
  -22.0010   -4.0730   23.7610 C   0  0  0  0  0  3  0  0  0  0  0  0
  -22.1480   -4.8900   22.6260 C   0  0  0  0  0  0  0  0  0  0  0  0
  -22.5810   -4.3500   21.4620 F   0  0  0  0  0  0  0  0  0  0  0  0
  -21.3860   -3.8350   26.0570 F   0  0  0  0  0  0  0  0  0  0  0  0
  -23.0860  -13.6260   21.0620 C   0  0  0  0  0  0  0  0  0  0  0  0
  -22.2720  -12.9720   21.8830 N   0  0  0  0  0  0  0  0  0  0  0  0
  -22.7100  -14.6270   20.4550 O   0  0  0  0  0  0  0  0  0  0  0  0
  -22.5890  -12.1630   22.3970 H   0  0  0  0  0  0  0  0  0  0  0  0
  -21.3190  -13.2880   22.0040 H   0  0  0  0  0  0  0  0  0  0  0  0
  -25.8030  -15.2460   20.4540 N   0  0  0  0  0  0  0  0  0  0  0  0
  -25.0400  -15.9160   20.4830 H   0  0  0  0  0  0  0  0  0  0  0  0
  -26.6980  -15.6730   20.2640 H   0  0  0  0  0  0  0  0  0  0  0  0
  -27.8730  -20.1550   21.1310 N   0  0  0  0  0  0  0  0  0  0  0  0
  -27.2260  -19.6290   21.7070 H   0  0  0  0  0  0  0  0  0  0  0  0
  -27.9180  -21.1340   21.3920 H   0  0  0  0  0  0  0  0  0  0  0  0
  -30.2450  -21.7450   20.2000 O   0  0  0  0  0  0  0  0  0  0  0  0
  -29.0800  -22.6290   20.0910 C   0  0  0  0  0  3  0  0  0  0  0  0
  -29.3900  -24.1780   19.8550 C   0  0  0  0  0  3  0  0  0  0  0  0
  -28.1480  -25.1430   19.6120 C   0  0  0  0  0  2  0  0  0  0  0  0
  -28.3290  -26.6130   19.6560 O   0  0  0  0  0  0  0  0  0  0  0  0
  -24.4920  -31.6360   23.1080 C   0  0  0  0  0  0  0  0  0  0  0  0
  -27.1770  -27.4160   19.6750 C   0  0  0  0  0  0  0  0  0  0  0  0
  -23.2940  -30.3350   21.3840 C   0  0  0  0  0  3  0  0  0  0  0  0
  -24.7600  -28.9430   19.8170 C   0  0  0  0  0  0  0  0  0  0  0  0
  -25.8170  -30.7480   21.1780 C   0  0  0  0  0  2  0  0  0  0  0  0
  -25.9250  -29.4270   20.4260 C   0  0  0  0  0  0  0  0  0  0  0  0
  -27.1350  -28.6780   20.3420 C   0  0  0  0  0  3  0  0  0  0  0  0
  -25.9840  -26.9820   19.0460 C   0  0  0  0  0  3  0  0  0  0  0  0
  -24.7920  -27.7280   19.1190 C   0  0  0  0  0  3  0  0  0  0  0  0
  -23.4990  -29.7710   19.9540 C   0  0  0  0  0  2  0  0  0  0  0  0
  -24.5540  -30.9190   21.9470 N   0  0  0  0  0  0  0  0  0  0  0  0
  -23.4140  -31.8390   23.6830 O   0  0  0  0  0  0  0  0  0  0  0  0
  -22.6790  -29.2280   22.2740 C   0  0  0  0  0  0  0  0  0  0  0  0
  -21.3560  -29.0260   22.1590 N   0  0  0  0  0  0  0  0  0  0  0  0
  -23.3910  -28.5600   23.0280 O   0  0  0  0  0  0  0  0  0  0  0  0
  -20.8400  -29.6190   21.5240 H   0  0  0  0  0  0  0  0  0  0  0  0
  -18.0220  -27.6980   22.6120 C   0  0  0  0  0  0  0  0  0  0  0  0
  -20.5760  -28.0100   22.8680 C   0  0  0  0  0  3  0  0  0  0  0  0
  -20.7100  -26.6300   22.1830 C   0  0  0  0  0  2  0  0  0  0  0  0
  -19.6020  -26.3510   21.1630 C   0  0  0  0  0  2  0  0  0  0  0  0
  -18.2260  -26.4080   21.8340 C   0  0  0  0  0  2  0  0  0  0  0  0
  -19.1250  -28.4580   23.0830 C   0  0  0  0  0  0  0  0  0  0  0  0
  -18.8790  -29.6670   23.7690 C   0  0  0  0  0  3  0  0  0  0  0  0
  -17.5630  -30.1160   23.9890 C   0  0  0  0  0  3  0  0  0  0  0  0
  -16.4740  -29.3500   23.5360 C   0  0  0  0  0  3  0  0  0  0  0  0
  -16.7060  -28.1430   22.8520 C   0  0  0  0  0  3  0  0  0  0  0  0
  -25.7710  -32.2530   23.7540 C   0  0  0  0  0  3  0  0  0  0  0  0
  -25.4570  -33.6380   24.1290 N   0  0  0  0  0  0  0  0  0  0  0  0
  -25.7690  -34.7150   23.3940 C   0  0  0  0  0  0  0  0  0  0  0  0
  -26.4210  -34.6460   22.3490 O   0  0  0  0  0  0  0  0  0  0  0  0
  -24.8770  -33.7680   24.9450 H   0  0  0  0  0  0  0  0  0  0  0  0
  -24.0060  -36.4900   23.1380 C   0  0  0  0  0  1  0  0  0  0  0  0
  -25.2780  -36.0860   23.8990 C   0  0  0  0  0  3  0  0  0  0  0  0
  -27.4240  -36.9860   24.6840 C   0  0  0  0  0  1  0  0  0  0  0  0
  -26.2920  -37.1560   23.7770 N   0  0  0  0  0  0  0  0  0  0  0  0
  -25.8770  -38.0670   23.9550 H   0  0  0  0  0  0  0  0  0  0  0  0
  -26.2870  -31.4430   25.0070 C   0  0  1  0  0  0  0  0  0  0  0  0
  -25.1950  -31.1800   26.0710 C   0  0  0  0  0  1  0  0  0  0  0  0
  -26.8630  -30.0730   24.5760 C   0  0  0  0  0  1  0  0  0  0  0  0
  -27.4440  -32.2110   25.6900 C   0  0  0  0  0  1  0  0  0  0  0  0
  1  4  1  0
  3  1  2  0
  3  6  1  0
  4  2  2  0
  5  2  1  0
  5 48  1  0
  6  5  2  0
  7  3  1  0
  8 14  1  0
  8 15  2  0
  9 14  1  0
 10 11  1  0
 10  9  1  0
 12 11  1  0
 12 23  1  0
 12 13  1  0
 14 13  1  0
 16 18  1  0
 17 16  1  0
 18  4  1  0
 18  8  1  0
 19 16  2  0
 20 21  2  0
 21 22  1  0
 21 40  1  0
 22 25  1  0
 23 20  1  0
 23 24  1  0
 24 22  2  0
 25 26  1  0
 26 27  2  0
 28 31  1  0
 28 27  1  0
 29 28  2  0
 30 29  1  0
 30 25  2  0
 31 32  1  0
 32 33  1  0
 33 34  2  0
 35 34  1  0
 35 39  1  0
 36 35  2  0
 37 32  2  0
 37 36  1  0
 38 37  1  0
 40 41  1  0
 41 44  1  0
 41 43  1  0
 42 40  2  0
 45 46  1  0
 45 20  1  0
 47 45  1  0
 48 50  1  0
 48 49  1  0
 51  6  1  0
 52 51  1  0
 53 52  2  0
 54 55  1  0
 54 53  1  0
 55 57  1  0
 56 67  2  0
 57 62  1  0
 58 66  1  0
 58 68  1  0
 59 65  1  0
 59 61  1  0
 60 66  1  0
 61 60  1  0
 62 61  2  0
 63 64  1  0
 63 57  2  0
 64 59  2  0
 65 58  1  0
 66 56  1  0
 68 70  2  0
 69 68  1  0
 71 69  1  0
 72 81  2  0
 72 77  1  0
 73 69  1  0
 73 77  1  0
 74 73  1  0
 75 76  1  0
 75 74  1  0
 76 72  1  0
 77 78  2  0
 78 79  1  0
 80 79  2  0
 81 80  1  0
 82 56  1  0
 82 83  1  0
 82 92  1  0
 83 86  1  0
 84 88  1  0
 84 83  1  0
 85 84  2  0
 88 87  1  0
 90 88  1  0
 90 91  1  0
 90 89  1  0
 92 95  1  1
 92 93  1  0
 94 92  1  0
M  ISO  4   8 100  18 100  54 101  55 101
M  END
>  <TORSDO>  (53) 
F 21

>  <SCORE>  (53) 
-11.809

>  <name>  (53) 
52

>  <ligand_id>  (53) 
52

>  <original_smiles>  (53) 
[H]c1c([H])c([H])c2c(c1[H])C([H])([H])C([H])([H])C([H])([H])C2([H])N([H])C(=O)C1([H])N(C(=O)C([H])(N([H])C(=O)C([H])(N([H])C([H])([H])[H])C([H])([H])[H])C(C([H])([H])[H])(C([H])([H])[H])C([H])([H])[H])C([H])([H])c2c([H])c(OC([H])([H])C([H])([H])C([H])([H])Oc3c(N([H])[H])c([H])c(N(C(=O)N4C([H])([H])C([H])([H])C([H])([H])C([H])(n5nc(-c6c([H])c([H])c(Oc7c([H])c([H])c(F)c([H])c7F)c([H])c6[H])c(C(=O)N([H])[H])c5N([H])[H])C4([H])[H])C(=O)C([H])([H])[H])c([H])c3C([H])([H])[H])c([H])c([H])c2C1([H])[H]

>  <smiles>  (53) 
[H]c1c([H])c([H])c2c(c1[H])C([H])([H])C([H])([H])C([H])([H])C2([H])N([H])C(=O)C1([H])N(C(=O)C([H])(N([H])C(=O)C([H])(N([H])C([H])([H])[H])C([H])([H])[H])C(C([H])([H])[H])(C([H])([H])[H])C([H])([H])[H])C([H])([H])c2c([H])c(OC([H])([H])C([H])([H])C([H])([H])Oc3c(N([H])[H])c([H])c(N(C(=O)N4C([H])([H])C([H])([H])C([H])([H])C([H])(n5nc(-c6c([H])c([H])c(Oc7c([H])c([H])c(F)c([H])c7F)c([H])c6[H])c(C(=O)N([H])[H])c5N([H])[H])C4([H])[H])C(=O)C([H])([H])[H])c([H])c3C([H])([H])[H])c([H])c([H])c2C1([H])[H]

$$$$
53:0:0
     RDKit          3D

 97106  0  0  1  0  0  0  0  0999 V2000
  -28.8570  -24.3430   18.2630 C   0  0  0  0  0  3  0  0  0  0  0  0
  -29.1000  -24.1070   19.5630 C   0  0  0  0  0  0  0  0  0  0  0  0
  -29.2020  -23.3660   17.2270 C   0  0  0  0  0  0  0  0  0  0  0  0
  -29.9280  -22.0670   17.6180 C   0  0  0  0  0  2  0  0  0  0  0  0
  -29.7700  -22.7430   20.0240 C   0  0  0  0  0  3  0  0  0  0  0  0
  -31.2340  -23.0370   20.3990 C   0  0  0  0  0  1  0  0  0  0  0  0
  -29.7360  -21.6220   19.0130 N   0  0  0  0  0  0  0  0  0  0  0  0
  -28.9380  -23.5660   16.0400 O   0  0  0  0  0  0  0  0  0  0  0  0
  -30.7060  -19.7310   20.4110 C   0  0  0  0  0  3  0  0  0  0  0  0
  -30.9720  -18.3440   20.6270 C   0  0  0  0  0  3  0  0  0  0  0  0
  -29.6800  -19.1740   18.3350 C   0  0  0  0  0  3  0  0  0  0  0  0
  -30.0360  -20.2150   19.2580 C   0  0  0  0  0  0  0  0  0  0  0  0
  -30.5070  -17.3100   19.7610 C   0  0  0  0  0  0  0  0  0  0  0  0
  -29.8930  -17.7780   18.5700 C   0  0  0  0  0  0  0  0  0  0  0  0
  -31.0800  -14.8340   19.4260 C   0  0  0  0  0  0  0  0  0  0  0  0
  -30.7240  -12.7020   18.1480 C   0  0  0  0  0  2  0  0  0  0  0  0
  -29.5510  -12.8780   17.1490 C   0  0  0  0  0  2  0  0  0  0  0  0
  -28.1720  -12.6690   17.8140 C   0  0  0  0  0  2  0  0  0  0  0  0
  -28.0670  -13.3910   19.1810 C   0  0  0  0  0  3  0  0  0  0  0  0
  -29.3050  -13.0120   20.0140 C   0  0  0  0  0  2  0  0  0  0  0  0
  -30.4750  -13.5840   19.3170 N   0  0  0  0  0  0  0  0  0  0  0  0
  -32.1100  -15.0420   18.7700 O   0  0  0  0  0  0  0  0  0  0  0  0
  -30.4860  -15.8780   20.1540 N   0  0  0  0  0  0  0  0  0  0  0  0
  -25.8780  -13.9620   20.4100 C   0  0  0  0  0  0  0  0  0  0  0  0
  -24.8670  -13.1710   20.8890 C   0  0  0  0  0  0  0  0  0  0  0  0
  -25.2560  -11.8240   20.6130 C   0  0  0  0  0  0  0  0  0  0  0  0
  -26.8200  -13.0920   19.8790 N   0  0  0  0  0  0  0  0  0  0  0  0
  -26.4580  -11.7950   20.0530 N   0  0  0  0  0  0  0  0  0  0  0  0
  -24.5300  -10.5630   20.7940 C   0  0  0  0  0  0  0  0  0  0  0  0
  -24.9610   -9.5900   21.7240 C   0  0  0  0  0  3  0  0  0  0  0  0
  -24.2360   -8.3920   21.8910 C   0  0  0  0  0  3  0  0  0  0  0  0
  -23.0660   -8.1580   21.1310 C   0  0  0  0  0  0  0  0  0  0  0  0
  -22.6540   -9.1200   20.1910 C   0  0  0  0  0  3  0  0  0  0  0  0
  -23.3790  -10.3100   20.0210 C   0  0  0  0  0  3  0  0  0  0  0  0
  -22.3140   -7.0100   21.2060 O   0  0  0  0  0  0  0  0  0  0  0  0
  -22.0620   -6.3950   22.4060 C   0  0  0  0  0  0  0  0  0  0  0  0
  -21.4100   -7.0620   23.4640 C   0  0  0  0  0  3  0  0  0  0  0  0
  -21.1060   -6.3700   24.6540 C   0  0  0  0  0  3  0  0  0  0  0  0
  -21.4430   -5.0090   24.7830 C   0  0  0  0  0  0  0  0  0  0  0  0
  -22.0880   -4.3400   23.7280 C   0  0  0  0  0  3  0  0  0  0  0  0
  -22.3930   -5.0310   22.5410 C   0  0  0  0  0  0  0  0  0  0  0  0
  -22.9940   -4.3760   21.5190 F   0  0  0  0  0  0  0  0  0  0  0  0
  -21.1450   -4.3410   25.9230 F   0  0  0  0  0  0  0  0  0  0  0  0
  -23.5720  -13.6390   21.4850 C   0  0  0  0  0  0  0  0  0  0  0  0
  -23.0190  -12.8820   22.4250 N   0  0  0  0  0  0  0  0  0  0  0  0
  -23.0650  -14.7100   21.1550 O   0  0  0  0  0  0  0  0  0  0  0  0
  -23.4510  -12.0150   22.7120 H   0  0  0  0  0  0  0  0  0  0  0  0
  -22.1600  -13.1760   22.8690 H   0  0  0  0  0  0  0  0  0  0  0  0
  -26.0620  -15.3400   20.3640 N   0  0  0  0  0  0  0  0  0  0  0  0
  -25.3590  -15.9920   20.6970 H   0  0  0  0  0  0  0  0  0  0  0  0
  -26.8660  -15.7970   19.9500 H   0  0  0  0  0  0  0  0  0  0  0  0
  -29.5900  -16.6150   22.5360 C   0  0  0  0  0  1  0  0  0  0  0  0
  -29.7840  -15.5610   21.4270 C   0  0  0  0  0  2  0  0  0  0  0  0
  -29.4370  -16.8760   17.6500 O   0  0  0  0  0  0  0  0  0  0  0  0
  -29.1200  -17.2990   16.8590 H   0  0  0  0  0  0  0  0  0  0  0  0
  -28.6650  -25.2070   20.5980 C   0  0  0  0  0  2  0  0  0  0  0  0
  -28.7060  -26.6260   20.1650 O   0  0  0  0  0  0  0  0  0  0  0  0
  -24.5380  -31.8230   22.9650 C   0  0  0  0  0  0  0  0  0  0  0  0
  -27.5170  -27.3660   20.1260 C   0  0  0  0  0  0  0  0  0  0  0  0
  -23.4770  -30.3350   21.3000 C   0  0  0  0  0  3  0  0  0  0  0  0
  -25.0670  -28.8270   19.9770 C   0  0  0  0  0  0  0  0  0  0  0  0
  -26.0010  -30.7800   21.2230 C   0  0  0  0  0  2  0  0  0  0  0  0
  -26.1790  -29.3990   20.6100 C   0  0  0  0  0  0  0  0  0  0  0  0
  -27.4080  -28.6820   20.6670 C   0  0  0  0  0  3  0  0  0  0  0  0
  -26.3810  -26.8260   19.4840 C   0  0  0  0  0  3  0  0  0  0  0  0
  -25.1690  -27.5440   19.4060 C   0  0  0  0  0  3  0  0  0  0  0  0
  -23.7860  -29.6380   19.9480 C   0  0  0  0  0  2  0  0  0  0  0  0
  -24.6870  -30.9990   21.8850 N   0  0  0  0  0  0  0  0  0  0  0  0
  -23.4210  -32.0550   23.4460 O   0  0  0  0  0  0  0  0  0  0  0  0
  -22.8210  -29.3090   22.2540 C   0  0  0  0  0  0  0  0  0  0  0  0
  -21.4940  -29.1340   22.1330 N   0  0  0  0  0  0  0  0  0  0  0  0
  -23.5050  -28.6750   23.0630 O   0  0  0  0  0  0  0  0  0  0  0  0
  -21.0040  -29.6970   21.4510 H   0  0  0  0  0  0  0  0  0  0  0  0
  -18.1040  -28.0250   22.7310 C   0  0  0  0  0  0  0  0  0  0  0  0
  -20.6790  -28.1880   22.8950 C   0  0  0  0  0  3  0  0  0  0  0  0
  -20.7070  -26.7840   22.2480 C   0  0  0  0  0  2  0  0  0  0  0  0
  -19.5510  -26.5460   21.2720 C   0  0  0  0  0  2  0  0  0  0  0  0
  -18.2040  -26.7050   21.9850 C   0  0  0  0  0  2  0  0  0  0  0  0
  -19.2660  -28.7280   23.1440 C   0  0  0  0  0  0  0  0  0  0  0  0
  -19.1150  -29.9680   23.8020 C   0  0  0  0  0  3  0  0  0  0  0  0
  -17.8370  -30.5000   24.0530 C   0  0  0  0  0  3  0  0  0  0  0  0
  -16.6900  -29.7910   23.6580 C   0  0  0  0  0  3  0  0  0  0  0  0
  -16.8240  -28.5560   23.0000 C   0  0  0  0  0  3  0  0  0  0  0  0
  -25.7630  -32.5270   23.6300 C   0  0  0  0  0  3  0  0  0  0  0  0
  -26.2910  -31.7760   24.9140 C   0  0  1  0  0  0  0  0  0  0  0  0
  -25.1850  -31.4560   25.9480 C   0  0  0  0  0  1  0  0  0  0  0  0
  -26.9740  -30.4430   24.5300 C   0  0  0  0  0  1  0  0  0  0  0  0
  -27.3660  -32.6380   25.6190 C   0  0  0  0  0  1  0  0  0  0  0  0
  -25.3570  -33.8980   23.9670 N   0  0  0  0  0  0  0  0  0  0  0  0
  -25.6290  -34.9780   23.2230 C   0  0  0  0  0  0  0  0  0  0  0  0
  -26.3160  -34.9290   22.1980 O   0  0  0  0  0  0  0  0  0  0  0  0
  -24.7460  -34.0070   24.7630 H   0  0  0  0  0  0  0  0  0  0  0  0
  -23.7960  -36.6630   22.8600 C   0  0  0  0  0  1  0  0  0  0  0  0
  -25.0490  -36.3280   23.6860 C   0  0  0  0  0  3  0  0  0  0  0  0
  -27.1030  -37.3430   24.5690 C   0  0  0  0  0  1  0  0  0  0  0  0
  -26.0140  -37.4450   23.6020 N   0  0  0  0  0  0  0  0  0  0  0  0
  -25.5480  -38.3360   23.7420 H   0  0  0  0  0  0  0  0  0  0  0  0
  1  2  2  0
  2  5  1  0
  2 56  1  0
  3  4  1  0
  3  1  1  0
  4  7  1  0
  5  6  1  0
  7 12  1  0
  7  5  1  0
  8  3  2  0
  9 10  1  0
 11 14  2  0
 11 12  1  0
 12  9  2  0
 13 23  1  0
 13 10  2  0
 14 13  1  0
 15 23  1  0
 16 21  1  0
 17 18  1  0
 17 16  1  0
 19 18  1  0
 19 27  1  0
 19 20  1  0
 21 15  1  0
 21 20  1  0
 22 15  2  0
 23 53  1  0
 24 25  2  0
 25 44  1  0
 26 29  1  0
 26 25  1  0
 27 28  1  0
 27 24  1  0
 28 26  2  0
 29 30  1  0
 30 31  2  0
 32 35  1  0
 32 31  1  0
 33 32  2  0
 34 33  1  0
 34 29  2  0
 35 36  1  0
 36 41  2  0
 36 37  1  0
 37 38  2  0
 38 39  1  0
 39 43  1  0
 40 39  2  0
 41 40  1  0
 42 41  1  0
 44 45  1  0
 45 47  1  0
 45 48  1  0
 46 44  2  0
 49 24  1  0
 49 50  1  0
 51 49  1  0
 53 52  1  0
 54 14  1  0
 55 54  1  0
 57 56  1  0
 58 69  2  0
 59 57  1  0
 59 64  1  0
 60 68  1  0
 60 70  1  0
 61 63  1  0
 62 68  1  0
 63 64  2  0
 63 62  1  0
 65 59  2  0
 66 65  1  0
 66 61  2  0
 67 61  1  0
 67 60  1  0
 68 58  1  0
 70 72  2  0
 71 70  1  0
 73 71  1  0
 74 83  2  0
 74 79  1  0
 75 71  1  0
 75 79  1  0
 76 75  1  0
 77 78  1  0
 77 76  1  0
 78 74  1  0
 79 80  2  0
 80 81  1  0
 82 81  2  0
 83 82  1  0
 84 58  1  0
 84 89  1  0
 84 85  1  0
 85 88  1  1
 85 86  1  0
 87 85  1  0
 89 92  1  0
 90 94  1  0
 90 89  1  0
 91 90  2  0
 94 93  1  0
 96 94  1  0
 96 97  1  0
 96 95  1  0
M  ISO  4  15 100  23 100  56 101  57 101
M  END
>  <TORSDO>  (54) 
F 20

>  <SCORE>  (54) 
-10.118

>  <name>  (54) 
53

>  <ligand_id>  (54) 
53

>  <original_smiles>  (54) 
[H]Oc1c([H])c(N2C([H])([H])C(=O)C([H])=C(C([H])([H])Oc3c([H])c([H])c4c(c3[H])C([H])([H])N(C(=O)C([H])(N([H])C(=O)C([H])(N([H])C([H])([H])[H])C([H])([H])[H])C(C([H])([H])[H])(C([H])([H])[H])C([H])([H])[H])C([H])(C(=O)N([H])C3([H])c5c([H])c([H])c([H])c([H])c5C([H])([H])C([H])([H])C3([H])[H])C4([H])[H])C2([H])C([H])([H])[H])c([H])c([H])c1N(C(=O)N1C([H])([H])C([H])([H])C([H])([H])C([H])(n2nc(-c3c([H])c([H])c(Oc4c([H])c([H])c(F)c([H])c4F)c([H])c3[H])c(C(=O)N([H])[H])c2N([H])[H])C1([H])[H])C([H])([H])C([H])([H])[H]

>  <smiles>  (54) 
[H]Oc1c([H])c(N2C([H])([H])C(=O)C([H])=C(C([H])([H])Oc3c([H])c([H])c4c(c3[H])C([H])([H])N(C(=O)C([H])(N([H])C(=O)C([H])(N([H])C([H])([H])[H])C([H])([H])[H])C(C([H])([H])[H])(C([H])([H])[H])C([H])([H])[H])C([H])(C(=O)N([H])C3([H])c5c([H])c([H])c([H])c([H])c5C([H])([H])C([H])([H])C3([H])[H])C4([H])[H])C2([H])C([H])([H])[H])c([H])c([H])c1N(C(=O)N1C([H])([H])C([H])([H])C([H])([H])C([H])(n2nc(-c3c([H])c([H])c(Oc4c([H])c([H])c(F)c([H])c4F)c([H])c3[H])c(C(=O)N([H])[H])c2N([H])[H])C1([H])[H])C([H])([H])C([H])([H])[H]

$$$$
54:0:0
     RDKit          3D

 93101  0  0  1  0  0  0  0  0999 V2000
  -29.7230  -17.2780   20.4310 C   0  0  0  0  0  0  0  0  0  0  0  0
  -30.6790  -18.0530   21.1520 C   0  0  0  0  0  3  0  0  0  0  0  0
  -28.5880  -18.0580   20.0620 C   0  0  0  0  0  0  0  0  0  0  0  0
  -29.4790  -20.0350   20.8270 C   0  0  0  0  0  0  0  0  0  0  0  0
  -31.9590  -17.4860   21.7360 C   0  0  0  0  0  1  0  0  0  0  0  0
  -30.5450  -19.4000   21.3200 N   0  0  0  0  0  0  0  0  0  0  0  0
  -28.4630  -19.4000   20.2440 N   0  0  0  0  0  0  0  0  0  0  0  0
  -27.5020  -17.4580   19.4440 N   0  0  0  0  0  0  0  0  0  0  0  0
  -26.8870  -18.0740   18.9300 H   0  0  0  0  0  0  0  0  0  0  0  0
  -27.7440  -16.6220   18.9350 H   0  0  0  0  0  0  0  0  0  0  0  0
  -30.6110  -14.8130   20.3980 C   0  0  0  0  0  0  0  0  0  0  0  0
  -30.4050  -12.5250   19.4450 C   0  0  0  0  0  2  0  0  0  0  0  0
  -29.4820  -12.5440   18.2080 C   0  0  0  0  0  2  0  0  0  0  0  0
  -28.0000  -12.4350   18.6190 C   0  0  0  0  0  2  0  0  0  0  0  0
  -27.6100  -13.3430   19.8200 C   0  0  0  0  0  3  0  0  0  0  0  0
  -28.6620  -13.2860   20.9470 C   0  0  0  0  0  2  0  0  0  0  0  0
  -29.9580  -13.6050   20.3450 N   0  0  0  0  0  0  0  0  0  0  0  0
  -31.8380  -14.8520   20.2900 O   0  0  0  0  0  0  0  0  0  0  0  0
  -29.9810  -15.9410   18.4120 C   0  0  0  0  0  1  0  0  0  0  0  0
  -29.9090  -15.9020   19.8920 N   0  0  0  0  0  0  0  0  0  0  0  0
  -25.2110  -13.9210   20.5260 C   0  0  0  0  0  0  0  0  0  0  0  0
  -24.1470  -13.1420   20.8820 C   0  0  0  0  0  0  0  0  0  0  0  0
  -24.6210  -11.7930   20.8690 C   0  0  0  0  0  0  0  0  0  0  0  0
  -26.2660  -13.0510   20.3060 N   0  0  0  0  0  0  0  0  0  0  0  0
  -25.9160  -11.7650   20.5780 N   0  0  0  0  0  0  0  0  0  0  0  0
  -23.8970  -10.5300   21.0560 C   0  0  0  0  0  0  0  0  0  0  0  0
  -24.3200   -9.5720   22.0030 C   0  0  0  0  0  3  0  0  0  0  0  0
  -23.5970   -8.3720   22.1810 C   0  0  0  0  0  3  0  0  0  0  0  0
  -22.4390   -8.1190   21.4070 C   0  0  0  0  0  0  0  0  0  0  0  0
  -22.0340   -9.0660   20.4510 C   0  0  0  0  0  3  0  0  0  0  0  0
  -22.7570  -10.2580   20.2720 C   0  0  0  0  0  3  0  0  0  0  0  0
  -21.6900   -6.9710   21.4930 O   0  0  0  0  0  0  0  0  0  0  0  0
  -21.6240   -6.2390   22.6490 C   0  0  0  0  0  0  0  0  0  0  0  0
  -21.1630   -6.8000   23.8610 C   0  0  0  0  0  3  0  0  0  0  0  0
  -21.0430   -5.9920   25.0090 C   0  0  0  0  0  3  0  0  0  0  0  0
  -21.3760   -4.6260   24.9500 C   0  0  0  0  0  0  0  0  0  0  0  0
  -21.8290   -4.0640   23.7430 C   0  0  0  0  0  3  0  0  0  0  0  0
  -21.9520   -4.8680   22.5960 C   0  0  0  0  0  0  0  0  0  0  0  0
  -22.3690   -4.3180   21.4290 F   0  0  0  0  0  0  0  0  0  0  0  0
  -21.2520   -3.8490   26.0520 F   0  0  0  0  0  0  0  0  0  0  0  0
  -22.7430  -13.6090   21.1290 C   0  0  0  0  0  0  0  0  0  0  0  0
  -22.0070  -12.9110   21.9860 N   0  0  0  0  0  0  0  0  0  0  0  0
  -22.3070  -14.6290   20.5970 O   0  0  0  0  0  0  0  0  0  0  0  0
  -22.3740  -12.0860   22.4370 H   0  0  0  0  0  0  0  0  0  0  0  0
  -21.0620  -13.2010   22.1920 H   0  0  0  0  0  0  0  0  0  0  0  0
  -25.3580  -15.2930   20.3460 N   0  0  0  0  0  0  0  0  0  0  0  0
  -24.5710  -15.9230   20.4400 H   0  0  0  0  0  0  0  0  0  0  0  0
  -26.2050  -15.7810   20.0650 H   0  0  0  0  0  0  0  0  0  0  0  0
  -29.5160  -21.4150   20.9510 O   0  0  0  0  0  0  0  0  0  0  0  0
  -28.5070  -22.3390   20.4120 C   0  0  0  0  0  2  0  0  0  0  0  0
  -28.8900  -23.8970   20.5680 C   0  0  0  0  0  3  0  0  0  0  0  0
  -27.8870  -25.0250   20.0470 C   0  0  0  0  0  3  0  0  0  0  0  0
  -28.1750  -26.4790   20.2430 O   0  0  0  0  0  0  0  0  0  0  0  0
  -24.5450  -31.9650   23.2660 C   0  0  0  0  0  0  0  0  0  0  0  0
  -27.0910  -27.3750   20.1790 C   0  0  0  0  0  0  0  0  0  0  0  0
  -23.3200  -30.5690   21.6410 C   0  0  0  0  0  3  0  0  0  0  0  0
  -24.7470  -29.0220   20.1920 C   0  0  0  0  0  0  0  0  0  0  0  0
  -25.8620  -30.8690   21.4390 C   0  0  0  0  0  2  0  0  0  0  0  0
  -25.9260  -29.4910   20.7860 C   0  0  0  0  0  0  0  0  0  0  0  0
  -27.1010  -28.6770   20.7750 C   0  0  0  0  0  3  0  0  0  0  0  0
  -25.8950  -26.9820   19.5330 C   0  0  0  0  0  3  0  0  0  0  0  0
  -24.7380  -27.7760   19.5520 C   0  0  0  0  0  3  0  0  0  0  0  0
  -23.5190  -29.9050   20.2540 C   0  0  0  0  0  2  0  0  0  0  0  0
  -24.5940  -31.1530   22.1710 N   0  0  0  0  0  0  0  0  0  0  0  0
  -23.4670  -32.2490   23.8070 O   0  0  0  0  0  0  0  0  0  0  0  0
  -22.6660  -29.5520   22.6080 C   0  0  0  0  0  0  0  0  0  0  0  0
  -21.3420  -29.3600   22.4810 N   0  0  0  0  0  0  0  0  0  0  0  0
  -23.3480  -28.9390   23.4330 O   0  0  0  0  0  0  0  0  0  0  0  0
  -20.8540  -29.9060   21.7850 H   0  0  0  0  0  0  0  0  0  0  0  0
  -17.9730  -28.1300   22.9730 C   0  0  0  0  0  0  0  0  0  0  0  0
  -20.5260  -28.4240   23.2560 C   0  0  0  0  0  3  0  0  0  0  0  0
  -20.6500  -26.9880   22.6980 C   0  0  0  0  0  2  0  0  0  0  0  0
  -19.5560  -26.6370   21.6830 C   0  0  0  0  0  2  0  0  0  0  0  0
  -18.1690  -26.7750   22.3140 C   0  0  0  0  0  2  0  0  0  0  0  0
  -19.0800  -28.9120   23.3980 C   0  0  0  0  0  0  0  0  0  0  0  0
  -18.8420  -30.1800   23.9720 C   0  0  0  0  0  3  0  0  0  0  0  0
  -17.5310  -30.6680   24.1220 C   0  0  0  0  0  3  0  0  0  0  0  0
  -16.4380  -29.8840   23.7100 C   0  0  0  0  0  3  0  0  0  0  0  0
  -16.6600  -28.6150   23.1440 C   0  0  0  0  0  3  0  0  0  0  0  0
  -25.8360  -32.5940   23.8760 C   0  0  0  0  0  3  0  0  0  0  0  0
  -26.3500  -31.8300   25.1550 C   0  0  1  0  0  0  0  0  0  0  0  0
  -25.2600  -31.6060   26.2290 C   0  0  0  0  0  1  0  0  0  0  0  0
  -26.9240  -30.4470   24.7710 C   0  0  0  0  0  1  0  0  0  0  0  0
  -27.5130  -32.6190   25.8010 C   0  0  0  0  0  1  0  0  0  0  0  0
  -25.5380  -33.9990   24.1950 N   0  0  0  0  0  0  0  0  0  0  0  0
  -25.8770  -35.0430   23.4260 C   0  0  0  0  0  0  0  0  0  0  0  0
  -26.5430  -34.9240   22.3950 O   0  0  0  0  0  0  0  0  0  0  0  0
  -24.9560  -34.1650   25.0010 H   0  0  0  0  0  0  0  0  0  0  0  0
  -24.1730  -36.8510   23.0400 C   0  0  0  0  0  1  0  0  0  0  0  0
  -25.3990  -36.4390   23.8720 C   0  0  0  0  0  3  0  0  0  0  0  0
  -27.5320  -37.3020   24.7280 C   0  0  0  0  0  1  0  0  0  0  0  0
  -26.4470  -37.4790   23.7660 N   0  0  0  0  0  0  0  0  0  0  0  0
  -26.0520  -38.4070   23.8970 H   0  0  0  0  0  0  0  0  0  0  0  0
  1  2  1  0
  2  6  1  0
  2  5  1  0
  3  7  1  0
  3  1  2  0
  4 49  1  0
  4  6  2  0
  7  4  2  0
  8  3  1  0
  9  8  1  0
 10  8  1  0
 12 17  1  0
 13 14  1  0
 13 12  1  0
 15 14  1  0
 15 24  1  0
 15 16  1  0
 17 11  1  0
 17 16  1  0
 18 11  2  0
 19 20  1  0
 20 11  1  0
 20  1  1  0
 21 22  2  0
 22 41  1  0
 23 22  1  0
 23 26  1  0
 24 21  1  0
 24 25  1  0
 25 23  2  0
 26 27  1  0
 27 28  2  0
 29 32  1  0
 29 28  1  0
 30 29  2  0
 31 30  1  0
 31 26  2  0
 32 33  1  0
 33 34  1  0
 34 35  2  0
 36 35  1  0
 36 40  1  0
 37 36  2  0
 38 33  2  0
 38 37  1  0
 39 38  1  0
 41 42  1  0
 42 45  1  0
 42 44  1  0
 43 41  2  0
 46 47  1  0
 46 21  1  0
 48 46  1  0
 50 51  1  0
 50 49  1  0
 52 53  1  0
 52 51  2  0
 54 65  2  0
 55 53  1  0
 55 60  1  0
 56 64  1  0
 56 66  1  0
 57 63  1  0
 57 59  1  0
 58 64  1  0
 59 58  1  0
 60 59  2  0
 61 62  1  0
 61 55  2  0
 62 57  2  0
 63 56  1  0
 64 54  1  0
 66 68  2  0
 67 66  1  0
 69 67  1  0
 70 79  2  0
 70 75  1  0
 71 67  1  0
 71 75  1  0
 72 71  1  0
 73 74  1  0
 73 72  1  0
 74 70  1  0
 75 76  2  0
 76 77  1  0
 78 77  2  0
 79 78  1  0
 80 54  1  0
 80 85  1  0
 80 81  1  0
 81 84  1  1
 81 82  1  0
 83 81  1  0
 85 88  1  0
 86 90  1  0
 86 85  1  0
 87 86  2  0
 90 89  1  0
 92 90  1  0
 92 93  1  0
 92 91  1  0
M  ISO  4  11 100  20 100  52 101  53 101
M  END
>  <TORSDO>  (55) 
F 20

>  <SCORE>  (55) 
-13.272

>  <name>  (55) 
54

>  <ligand_id>  (55) 
54

>  <original_smiles>  (55) 
[H]c1c([H])c([H])c2c(c1[H])C([H])([H])C([H])([H])C([H])([H])C2([H])N([H])C(=O)C1([H])N(C(=O)C([H])(N([H])C(=O)C([H])(N([H])C([H])([H])[H])C([H])([H])[H])C(C([H])([H])[H])(C([H])([H])[H])C([H])([H])[H])C([H])([H])c2c([H])c(OC([H])([H])C([H])([H])C([H])([H])Oc3nc(N([H])[H])c(N(C(=O)N4C([H])([H])C([H])([H])C([H])([H])C([H])(n5nc(-c6c([H])c([H])c(Oc7c([H])c([H])c(F)c([H])c7F)c([H])c6[H])c(C(=O)N([H])[H])c5N([H])[H])C4([H])[H])C([H])([H])[H])c(C([H])([H])[H])n3)c([H])c([H])c2C1([H])[H]

>  <smiles>  (55) 
[H]c1c([H])c([H])c2c(c1[H])C([H])([H])C([H])([H])C([H])([H])C2([H])N([H])C(=O)C1([H])N(C(=O)C([H])(N([H])C(=O)C([H])(N([H])C([H])([H])[H])C([H])([H])[H])C(C([H])([H])[H])(C([H])([H])[H])C([H])([H])[H])C([H])([H])c2c([H])c(OC([H])([H])C([H])([H])C([H])([H])Oc3nc(N([H])[H])c(N(C(=O)N4C([H])([H])C([H])([H])C([H])([H])C([H])(n5nc(-c6c([H])c([H])c(Oc7c([H])c([H])c(F)c([H])c7F)c([H])c6[H])c(C(=O)N([H])[H])c5N([H])[H])C4([H])[H])C([H])([H])[H])c(C([H])([H])[H])n3)c([H])c([H])c2C1([H])[H]

$$$$
55:0:0
     RDKit          3D

 97106  0  0  1  0  0  0  0  0999 V2000
  -29.2090  -24.1060   20.2630 C   0  0  0  0  0  0  0  0  0  0  0  0
  -29.0150  -22.7330   20.1360 C   0  0  0  0  0  0  0  0  0  0  0  0
  -30.5450  -24.5660   20.7120 C   0  0  0  0  0  0  0  0  0  0  0  0
  -31.6840  -23.5600   20.5940 C   0  0  0  0  0  2  0  0  0  0  0  0
  -31.2410  -22.1810   21.1050 C   0  0  0  0  0  2  0  0  0  0  0  0
  -27.6730  -22.1840   19.6600 C   0  0  0  0  0  1  0  0  0  0  0  0
  -29.9910  -21.7330   20.4800 N   0  0  0  0  0  0  0  0  0  0  0  0
  -30.7920  -25.6850   21.1680 O   0  0  0  0  0  0  0  0  0  0  0  0
  -30.3660  -19.5240   21.5860 C   0  0  0  0  0  3  0  0  0  0  0  0
  -29.5920  -19.5180   19.3180 C   0  0  0  0  0  3  0  0  0  0  0  0
  -30.4390  -18.0990   21.5790 C   0  0  0  0  0  0  0  0  0  0  0  0
  -29.9340  -20.2850   20.4660 C   0  0  0  0  0  0  0  0  0  0  0  0
  -30.0910  -17.3420   20.4250 C   0  0  0  0  0  0  0  0  0  0  0  0
  -29.6400  -18.0770   19.2870 C   0  0  0  0  0  0  0  0  0  0  0  0
  -30.9020  -17.3840   22.8400 C   0  0  0  0  0  1  0  0  0  0  0  0
  -30.8170  -14.8770   20.0260 C   0  0  0  0  0  0  0  0  0  0  0  0
  -30.6300  -12.6200   18.9870 C   0  0  0  0  0  2  0  0  0  0  0  0
  -29.6200  -12.7260   17.8220 C   0  0  0  0  0  2  0  0  0  0  0  0
  -28.1760  -12.5230   18.3290 C   0  0  0  0  0  2  0  0  0  0  0  0
  -27.8620  -13.3810   19.5840 C   0  0  0  0  0  3  0  0  0  0  0  0
  -28.9820  -13.2450   20.6410 C   0  0  0  0  0  2  0  0  0  0  0  0
  -30.2490  -13.6280   19.9970 N   0  0  0  0  0  0  0  0  0  0  0  0
  -31.9370  -15.0840   19.5480 O   0  0  0  0  0  0  0  0  0  0  0  0
  -30.0160  -15.8810   20.5070 N   0  0  0  0  0  0  0  0  0  0  0  0
  -29.1770  -15.5350   20.9450 H   0  0  0  0  0  0  0  0  0  0  0  0
  -25.5140  -13.9340   20.4760 C   0  0  0  0  0  0  0  0  0  0  0  0
  -24.4760  -13.1380   20.8790 C   0  0  0  0  0  0  0  0  0  0  0  0
  -24.9400  -11.7920   20.7610 C   0  0  0  0  0  0  0  0  0  0  0  0
  -26.5460  -13.0710   20.1400 N   0  0  0  0  0  0  0  0  0  0  0  0
  -26.2100  -11.7760   20.3700 N   0  0  0  0  0  0  0  0  0  0  0  0
  -24.2340  -10.5180   20.9420 C   0  0  0  0  0  0  0  0  0  0  0  0
  -24.6500   -9.5730   21.9070 C   0  0  0  0  0  3  0  0  0  0  0  0
  -23.9420   -8.3630   22.0750 C   0  0  0  0  0  3  0  0  0  0  0  0
  -22.8040   -8.0910   21.2800 C   0  0  0  0  0  0  0  0  0  0  0  0
  -22.4070   -9.0250   20.3050 C   0  0  0  0  0  3  0  0  0  0  0  0
  -23.1160  -10.2250   20.1360 C   0  0  0  0  0  3  0  0  0  0  0  0
  -22.0690   -6.9330   21.3550 O   0  0  0  0  0  0  0  0  0  0  0  0
  -21.8720   -6.2830   22.5470 C   0  0  0  0  0  0  0  0  0  0  0  0
  -21.2380   -6.9090   23.6410 C   0  0  0  0  0  3  0  0  0  0  0  0
  -20.9930   -6.1820   24.8230 C   0  0  0  0  0  3  0  0  0  0  0  0
  -21.3720   -4.8300   24.9100 C   0  0  0  0  0  0  0  0  0  0  0  0
  -21.9980   -4.2020   23.8190 C   0  0  0  0  0  3  0  0  0  0  0  0
  -22.2440   -4.9270   22.6400 C   0  0  0  0  0  0  0  0  0  0  0  0
  -22.8290   -4.3120   21.5830 F   0  0  0  0  0  0  0  0  0  0  0  0
  -21.1300   -4.1290   26.0420 F   0  0  0  0  0  0  0  0  0  0  0  0
  -23.0970  -13.5940   21.2620 C   0  0  0  0  0  0  0  0  0  0  0  0
  -22.4440  -12.8810   22.1720 N   0  0  0  0  0  0  0  0  0  0  0  0
  -22.6090  -14.6200   20.7880 O   0  0  0  0  0  0  0  0  0  0  0  0
  -22.8510  -12.0500   22.5780 H   0  0  0  0  0  0  0  0  0  0  0  0
  -21.5240  -13.1710   22.4710 H   0  0  0  0  0  0  0  0  0  0  0  0
  -25.6550  -15.3120   20.3460 N   0  0  0  0  0  0  0  0  0  0  0  0
  -24.8780  -15.9450   20.5120 H   0  0  0  0  0  0  0  0  0  0  0  0
  -26.4730  -15.7850   19.9810 H   0  0  0  0  0  0  0  0  0  0  0  0
  -28.7660  -18.0170   17.0360 C   0  0  0  0  0  1  0  0  0  0  0  0
  -29.2260  -17.3340   18.1990 O   0  0  0  0  0  0  0  0  0  0  0  0
  -28.1270  -25.2140   19.9570 C   0  0  0  0  0  2  0  0  0  0  0  0
  -28.3610  -26.6500   20.2660 O   0  0  0  0  0  0  0  0  0  0  0  0
  -24.6700  -31.9960   23.4160 C   0  0  0  0  0  0  0  0  0  0  0  0
  -27.2520  -27.5150   20.2240 C   0  0  0  0  0  0  0  0  0  0  0  0
  -23.4590  -30.6580   21.7320 C   0  0  0  0  0  3  0  0  0  0  0  0
  -24.9010  -29.1450   20.2600 C   0  0  0  0  0  0  0  0  0  0  0  0
  -26.0010  -30.9610   21.5650 C   0  0  0  0  0  2  0  0  0  0  0  0
  -26.0710  -29.6030   20.8770 C   0  0  0  0  0  0  0  0  0  0  0  0
  -27.2500  -28.7990   20.8540 C   0  0  0  0  0  3  0  0  0  0  0  0
  -26.0590  -27.1200   19.5720 C   0  0  0  0  0  3  0  0  0  0  0  0
  -24.8970  -27.9110   19.5960 C   0  0  0  0  0  3  0  0  0  0  0  0
  -23.6690  -30.0240   20.3330 C   0  0  0  0  0  2  0  0  0  0  0  0
  -24.7290  -31.2190   22.2960 N   0  0  0  0  0  0  0  0  0  0  0  0
  -23.5870  -32.2660   23.9570 O   0  0  0  0  0  0  0  0  0  0  0  0
  -22.7860  -29.6170   22.6590 C   0  0  0  0  0  0  0  0  0  0  0  0
  -21.4680  -29.4170   22.4870 N   0  0  0  0  0  0  0  0  0  0  0  0
  -23.4490  -28.9950   23.4930 O   0  0  0  0  0  0  0  0  0  0  0  0
  -20.9890  -29.9760   21.7940 H   0  0  0  0  0  0  0  0  0  0  0  0
  -18.1010  -28.1470   22.8540 C   0  0  0  0  0  0  0  0  0  0  0  0
  -20.6420  -28.4550   23.2200 C   0  0  0  0  0  3  0  0  0  0  0  0
  -20.7960  -27.0300   22.6380 C   0  0  0  0  0  2  0  0  0  0  0  0
  -19.7360  -26.6910   21.5840 C   0  0  0  0  0  2  0  0  0  0  0  0
  -18.3290  -26.8080   22.1760 C   0  0  0  0  0  2  0  0  0  0  0  0
  -19.1880  -28.9270   23.3300 C   0  0  0  0  0  0  0  0  0  0  0  0
  -18.9230  -30.1830   23.9200 C   0  0  0  0  0  3  0  0  0  0  0  0
  -17.6030  -30.6560   24.0410 C   0  0  0  0  0  3  0  0  0  0  0  0
  -16.5300  -29.8730   23.5840 C   0  0  0  0  0  3  0  0  0  0  0  0
  -16.7790  -28.6200   22.9940 C   0  0  0  0  0  3  0  0  0  0  0  0
  -25.9560  -32.6000   24.0600 C   0  0  0  0  0  3  0  0  0  0  0  0
  -26.4220  -31.8240   25.3530 C   0  0  1  0  0  0  0  0  0  0  0  0
  -25.2960  -31.6150   26.3910 C   0  0  0  0  0  1  0  0  0  0  0  0
  -26.9870  -30.4340   24.9770 C   0  0  0  0  0  1  0  0  0  0  0  0
  -27.5700  -32.5980   26.0430 C   0  0  0  0  0  1  0  0  0  0  0  0
  -25.6750  -34.0070   24.3780 N   0  0  0  0  0  0  0  0  0  0  0  0
  -26.0220  -35.0460   23.6060 C   0  0  0  0  0  0  0  0  0  0  0  0
  -26.6810  -34.9200   22.5710 O   0  0  0  0  0  0  0  0  0  0  0  0
  -25.0900  -34.1830   25.1810 H   0  0  0  0  0  0  0  0  0  0  0  0
  -24.3070  -36.8540   23.2670 C   0  0  0  0  0  1  0  0  0  0  0  0
  -25.5640  -36.4480   24.0530 C   0  0  0  0  0  3  0  0  0  0  0  0
  -27.7230  -37.3210   24.8280 C   0  0  0  0  0  1  0  0  0  0  0  0
  -26.6070  -37.4850   23.8990 N   0  0  0  0  0  0  0  0  0  0  0  0
  -26.2160  -38.4130   24.0350 H   0  0  0  0  0  0  0  0  0  0  0  0
  1  3  1  0
  2  1  2  0
  2  7  1  0
  3  8  2  0
  4  3  1  0
  4  5  1  0
  6  2  1  0
  7  5  1  0
 10 12  1  0
 11  9  1  0
 11 15  1  0
 12  7  1  0
 12  9  2  0
 13 24  1  0
 13 11  2  0
 14 10  2  0
 14 13  1  0
 16 24  1  0
 17 22  1  0
 18 19  1  0
 18 17  1  0
 20 19  1  0
 20 29  1  0
 20 21  1  0
 22 16  1  0
 22 21  1  0
 23 16  2  0
 24 25  1  0
 26 27  2  0
 27 46  1  0
 28 27  1  0
 28 31  1  0
 29 30  1  0
 29 26  1  0
 30 28  2  0
 31 32  1  0
 32 33  2  0
 34 37  1  0
 34 33  1  0
 35 34  2  0
 36 35  1  0
 36 31  2  0
 37 38  1  0
 38 43  2  0
 38 39  1  0
 39 40  2  0
 40 41  1  0
 41 45  1  0
 42 41  2  0
 43 42  1  0
 44 43  1  0
 46 47  1  0
 47 50  1  0
 47 49  1  0
 48 46  2  0
 51 26  1  0
 51 52  1  0
 53 51  1  0
 54 55  1  0
 55 14  1  0
 56  1  1  0
 56 57  1  0
 58 69  2  0
 59 57  1  0
 59 64  1  0
 60 68  1  0
 60 70  1  0
 61 67  1  0
 61 63  1  0
 62 68  1  0
 63 62  1  0
 64 63  2  0
 65 66  1  0
 65 59  2  0
 66 61  2  0
 67 60  1  0
 68 58  1  0
 70 72  2  0
 71 70  1  0
 73 71  1  0
 74 83  2  0
 74 79  1  0
 75 71  1  0
 75 79  1  0
 76 75  1  0
 77 78  1  0
 77 76  1  0
 78 74  1  0
 79 80  2  0
 80 81  1  0
 82 81  2  0
 83 82  1  0
 84 58  1  0
 84 89  1  0
 84 85  1  0
 85 88  1  1
 85 86  1  0
 87 85  1  0
 89 92  1  0
 90 94  1  0
 90 89  1  0
 91 90  2  0
 94 93  1  0
 96 97  1  0
 96 94  1  0
 96 95  1  0
M  ISO  4  16 100  24 100  56 101  57 101
M  END
>  <TORSDO>  (56) 
F 19

>  <SCORE>  (56) 
-13.409

>  <name>  (56) 
55

>  <ligand_id>  (56) 
55

>  <original_smiles>  (56) 
[H]c1c([H])c([H])c2c(c1[H])C([H])([H])C([H])([H])C([H])([H])C2([H])N([H])C(=O)C1([H])N(C(=O)C([H])(N([H])C(=O)C([H])(N([H])C([H])([H])[H])C([H])([H])[H])C(C([H])([H])[H])(C([H])([H])[H])C([H])([H])[H])C([H])([H])c2c([H])c(OC([H])([H])C3=C(C([H])([H])[H])N(c4c([H])c(OC([H])([H])[H])c(N([H])C(=O)N5C([H])([H])C([H])([H])C([H])([H])C([H])(n6nc(-c7c([H])c([H])c(Oc8c([H])c([H])c(F)c([H])c8F)c([H])c7[H])c(C(=O)N([H])[H])c6N([H])[H])C5([H])[H])c(C([H])([H])[H])c4[H])C([H])([H])C([H])([H])C3=O)c([H])c([H])c2C1([H])[H]

>  <smiles>  (56) 
[H]c1c([H])c([H])c2c(c1[H])C([H])([H])C([H])([H])C([H])([H])C2([H])N([H])C(=O)C1([H])N(C(=O)C([H])(N([H])C(=O)C([H])(N([H])C([H])([H])[H])C([H])([H])[H])C(C([H])([H])[H])(C([H])([H])[H])C([H])([H])[H])C([H])([H])c2c([H])c(OC([H])([H])C3=C(C([H])([H])[H])N(c4c([H])c(OC([H])([H])[H])c(N([H])C(=O)N5C([H])([H])C([H])([H])C([H])([H])C([H])(n6nc(-c7c([H])c([H])c(Oc8c([H])c([H])c(F)c([H])c8F)c([H])c7[H])c(C(=O)N([H])[H])c6N([H])[H])C5([H])[H])c(C([H])([H])[H])c4[H])C([H])([H])C([H])([H])C3=O)c([H])c([H])c2C1([H])[H]

$$$$
56:0:0
     RDKit          3D

 93102  0  0  1  0  0  0  0  0999 V2000
  -29.4760  -22.3840   21.9910 C   0  0  0  0  0  0  0  0  0  0  0  0
  -30.1980  -23.6970   22.2440 C   0  0  0  0  0  2  0  0  0  0  0  0
  -30.6070  -24.1280   20.8400 C   0  0  0  0  0  2  0  0  0  0  0  0
  -29.5060  -23.5230   19.9720 C   0  0  0  0  0  3  0  0  0  0  0  0
  -29.2950  -22.1310   20.6780 N   0  0  0  0  0  0  0  0  0  0  0  0
  -29.1370  -21.6470   22.9230 O   0  0  0  0  0  0  0  0  0  0  0  0
  -30.8460  -19.9920   20.5440 C   0  0  0  0  0  3  0  0  0  0  0  0
  -31.0300  -18.5420   20.5400 C   0  0  0  0  0  3  0  0  0  0  0  0
  -28.7490  -18.2870   19.9980 C   0  0  0  0  0  3  0  0  0  0  0  0
  -28.5490  -19.7240   20.0200 C   0  0  0  0  0  0  0  0  0  0  0  0
  -29.5910  -20.6690   20.3140 C   0  0  0  0  0  0  0  0  0  0  0  0
  -29.9770  -17.6000   20.2890 C   0  0  0  0  0  0  0  0  0  0  0  0
  -27.1360  -20.2420   19.8100 C   0  0  0  0  0  1  0  0  0  0  0  0
  -30.8520  -14.9780   20.0810 C   0  0  0  0  0  0  0  0  0  0  0  0
  -30.6930  -12.6680   19.0630 C   0  0  0  0  0  2  0  0  0  0  0  0
  -29.7040  -12.7030   17.8720 C   0  0  0  0  0  2  0  0  0  0  0  0
  -28.2460  -12.5300   18.3480 C   0  0  0  0  0  2  0  0  0  0  0  0
  -27.9160  -13.4070   19.5830 C   0  0  0  0  0  3  0  0  0  0  0  0
  -29.0140  -13.3060   20.6630 C   0  0  0  0  0  2  0  0  0  0  0  0
  -30.2780  -13.7140   20.0320 N   0  0  0  0  0  0  0  0  0  0  0  0
  -32.0350  -15.0990   19.7440 O   0  0  0  0  0  0  0  0  0  0  0  0
  -29.9910  -16.0720   20.3250 N   0  0  0  0  0  0  0  0  0  0  0  0
  -29.0820  -15.7040   20.5550 H   0  0  0  0  0  0  0  0  0  0  0  0
  -25.5690  -14.0270   20.4080 C   0  0  0  0  0  0  0  0  0  0  0  0
  -24.5030  -13.2660   20.8040 C   0  0  0  0  0  0  0  0  0  0  0  0
  -24.9390  -11.9080   20.7330 C   0  0  0  0  0  0  0  0  0  0  0  0
  -26.5860  -13.1320   20.1160 N   0  0  0  0  0  0  0  0  0  0  0  0
  -26.2180  -11.8520   20.3780 N   0  0  0  0  0  0  0  0  0  0  0  0
  -24.1950  -10.6570   20.9250 C   0  0  0  0  0  0  0  0  0  0  0  0
  -24.6030   -9.6940   21.8750 C   0  0  0  0  0  3  0  0  0  0  0  0
  -23.8630   -8.5060   22.0530 C   0  0  0  0  0  3  0  0  0  0  0  0
  -22.6990   -8.2730   21.2820 C   0  0  0  0  0  0  0  0  0  0  0  0
  -22.3120   -9.2210   20.3200 C   0  0  0  0  0  3  0  0  0  0  0  0
  -23.0530  -10.4020   20.1400 C   0  0  0  0  0  3  0  0  0  0  0  0
  -21.9290   -7.1370   21.3700 O   0  0  0  0  0  0  0  0  0  0  0  0
  -21.7880   -6.4530   22.5510 C   0  0  0  0  0  0  0  0  0  0  0  0
  -21.2740   -7.0690   23.7120 C   0  0  0  0  0  3  0  0  0  0  0  0
  -21.0810   -6.3110   24.8850 C   0  0  0  0  0  3  0  0  0  0  0  0
  -21.3930   -4.9380   24.8950 C   0  0  0  0  0  0  0  0  0  0  0  0
  -21.9020   -4.3220   23.7380 C   0  0  0  0  0  3  0  0  0  0  0  0
  -22.0960   -5.0780   22.5690 C   0  0  0  0  0  0  0  0  0  0  0  0
  -22.5660   -4.4750   21.4500 F   0  0  0  0  0  0  0  0  0  0  0  0
  -21.2020   -4.2070   26.0180 F   0  0  0  0  0  0  0  0  0  0  0  0
  -23.1240  -13.7630   21.1270 C   0  0  0  0  0  0  0  0  0  0  0  0
  -22.4190  -13.0790   22.0220 N   0  0  0  0  0  0  0  0  0  0  0  0
  -22.6800  -14.7920   20.6170 O   0  0  0  0  0  0  0  0  0  0  0  0
  -22.7910  -12.2480   22.4580 H   0  0  0  0  0  0  0  0  0  0  0  0
  -21.4930  -13.3930   22.2790 H   0  0  0  0  0  0  0  0  0  0  0  0
  -25.7500  -15.3970   20.2420 N   0  0  0  0  0  0  0  0  0  0  0  0
  -24.9880  -16.0510   20.3830 H   0  0  0  0  0  0  0  0  0  0  0  0
  -26.5330  -15.8060   19.7510 H   0  0  0  0  0  0  0  0  0  0  0  0
  -28.3030  -24.6990   19.9350 C   0  0  0  0  0  2  0  0  0  0  0  0
  -28.5010  -26.2410   19.9280 O   0  0  0  0  0  0  0  0  0  0  0  0
  -24.5580  -31.6340   23.0610 C   0  0  0  0  0  0  0  0  0  0  0  0
  -27.3890  -27.1560   19.9110 C   0  0  0  0  0  0  0  0  0  0  0  0
  -23.4460  -30.2470   21.3530 C   0  0  0  0  0  3  0  0  0  0  0  0
  -24.9840  -28.7870   19.9060 C   0  0  0  0  0  0  0  0  0  0  0  0
  -25.9880  -30.6270   21.2460 C   0  0  0  0  0  2  0  0  0  0  0  0
  -26.1320  -29.2650   20.5480 C   0  0  0  0  0  0  0  0  0  0  0  0
  -27.3360  -28.4660   20.5340 C   0  0  0  0  0  3  0  0  0  0  0  0
  -26.2100  -26.7780   19.2350 C   0  0  0  0  0  3  0  0  0  0  0  0
  -25.0330  -27.5570   19.2360 C   0  0  0  0  0  3  0  0  0  0  0  0
  -23.7200  -29.6290   19.9560 C   0  0  0  0  0  2  0  0  0  0  0  0
  -24.6820  -30.8560   21.9430 N   0  0  0  0  0  0  0  0  0  0  0  0
  -23.4520  -31.8550   23.5760 O   0  0  0  0  0  0  0  0  0  0  0  0
  -22.7940  -29.1790   22.2650 C   0  0  0  0  0  0  0  0  0  0  0  0
  -21.4710  -28.9810   22.1300 N   0  0  0  0  0  0  0  0  0  0  0  0
  -23.4820  -28.5300   23.0580 O   0  0  0  0  0  0  0  0  0  0  0  0
  -20.9710  -29.5590   21.4690 H   0  0  0  0  0  0  0  0  0  0  0  0
  -18.1080  -27.7300   22.6370 C   0  0  0  0  0  0  0  0  0  0  0  0
  -20.6720  -27.9910   22.8580 C   0  0  0  0  0  3  0  0  0  0  0  0
  -20.7650  -26.6000   22.1900 C   0  0  0  0  0  2  0  0  0  0  0  0
  -19.6410  -26.3380   21.1820 C   0  0  0  0  0  2  0  0  0  0  0  0
  -18.2750  -26.4300   21.8680 C   0  0  0  0  0  2  0  0  0  0  0  0
  -19.2340  -28.4710   23.0870 C   0  0  0  0  0  0  0  0  0  0  0  0
  -19.0220  -29.6880   23.7700 C   0  0  0  0  0  3  0  0  0  0  0  0
  -17.7190  -30.1690   23.9990 C   0  0  0  0  0  3  0  0  0  0  0  0
  -16.6090  -29.4260   23.5600 C   0  0  0  0  0  3  0  0  0  0  0  0
  -16.8050  -28.2060   22.8880 C   0  0  0  0  0  3  0  0  0  0  0  0
  -25.7980  -32.2970   23.7340 C   0  0  0  0  0  3  0  0  0  0  0  0
  -25.4270  -33.6720   24.1010 N   0  0  0  0  0  0  0  0  0  0  0  0
  -25.7150  -34.7610   23.3740 C   0  0  0  0  0  0  0  0  0  0  0  0
  -26.3920  -34.7150   22.3430 O   0  0  0  0  0  0  0  0  0  0  0  0
  -24.8280  -33.7790   24.9060 H   0  0  0  0  0  0  0  0  0  0  0  0
  -23.9090  -36.4850   23.0670 C   0  0  0  0  0  1  0  0  0  0  0  0
  -25.1670  -36.1150   23.8670 C   0  0  0  0  0  3  0  0  0  0  0  0
  -27.2600  -37.0760   24.7230 C   0  0  0  0  0  1  0  0  0  0  0  0
  -26.1540  -37.2160   23.7790 N   0  0  0  0  0  0  0  0  0  0  0  0
  -25.7070  -38.1150   23.9430 H   0  0  0  0  0  0  0  0  0  0  0  0
  -26.3120  -31.5070   25.0010 C   0  0  1  0  0  0  0  0  0  0  0  0
  -25.2040  -31.2010   26.0350 C   0  0  0  0  0  1  0  0  0  0  0  0
  -26.9560  -30.1620   24.5920 C   0  0  0  0  0  1  0  0  0  0  0  0
  -27.4190  -32.3220   25.7110 C   0  0  0  0  0  1  0  0  0  0  0  0
  1  2  1  0
  1  6  2  0
  3  2  1  0
  4 52  1  0
  4  5  1  0
  4  3  1  0
  5  1  1  0
  8  7  1  0
  9 10  2  0
  9 12  1  0
 10 11  1  0
 11  7  2  0
 11  5  1  0
 12 22  1  0
 12  8  2  0
 13 10  1  0
 14 22  1  0
 15 20  1  0
 16 17  1  0
 16 15  1  0
 18 17  1  0
 18 27  1  0
 18 19  1  0
 20 14  1  0
 20 19  1  0
 21 14  2  0
 22 23  1  0
 24 25  2  0
 25 44  1  0
 26 25  1  0
 26 29  1  0
 27 28  1  0
 27 24  1  0
 28 26  2  0
 29 30  1  0
 30 31  2  0
 32 35  1  0
 32 31  1  0
 33 32  2  0
 34 33  1  0
 34 29  2  0
 35 36  1  0
 36 41  2  0
 36 37  1  0
 37 38  2  0
 38 39  1  0
 39 43  1  0
 40 39  2  0
 41 40  1  0
 42 41  1  0
 44 45  1  0
 45 48  1  0
 45 47  1  0
 46 44  2  0
 49 50  1  0
 49 24  1  0
 51 49  1  0
 53 52  1  0
 54 65  2  0
 55 53  1  0
 55 60  1  0
 56 64  1  0
 56 66  1  0
 57 63  1  0
 57 59  1  0
 58 64  1  0
 59 58  1  0
 60 59  2  0
 61 62  1  0
 61 55  2  0
 62 57  2  0
 63 56  1  0
 64 54  1  0
 66 68  2  0
 67 66  1  0
 69 67  1  0
 70 79  2  0
 70 75  1  0
 71 67  1  0
 71 75  1  0
 72 71  1  0
 73 74  1  0
 73 72  1  0
 74 70  1  0
 75 76  2  0
 76 77  1  0
 78 77  2  0
 79 78  1  0
 80 54  1  0
 80 81  1  0
 80 90  1  0
 81 84  1  0
 82 86  1  0
 82 81  1  0
 83 82  2  0
 86 85  1  0
 88 86  1  0
 88 89  1  0
 88 87  1  0
 90 93  1  1
 90 91  1  0
 92 90  1  0
M  ISO  4  14 100  22 100  52 101  53 101
M  END
>  <TORSDO>  (57) 
F 18

>  <SCORE>  (57) 
-14.088

>  <name>  (57) 
56

>  <ligand_id>  (57) 
56

>  <original_smiles>  (57) 
[H]c1c([H])c([H])c2c(c1[H])C([H])([H])C([H])([H])C([H])([H])C2([H])N([H])C(=O)C1([H])N(C(=O)C([H])(N([H])C(=O)C([H])(N([H])C([H])([H])[H])C([H])([H])[H])C(C([H])([H])[H])(C([H])([H])[H])C([H])([H])[H])C([H])([H])c2c([H])c(OC([H])([H])C3([H])N(c4c([H])c([H])c(N([H])C(=O)N5C([H])([H])C([H])([H])C([H])([H])C([H])(n6nc(-c7c([H])c([H])c(Oc8c([H])c([H])c(F)c([H])c8F)c([H])c7[H])c(C(=O)N([H])[H])c6N([H])[H])C5([H])[H])c([H])c4C([H])([H])[H])C(=O)C([H])([H])C3([H])[H])c([H])c([H])c2C1([H])[H]

>  <smiles>  (57) 
[H]c1c([H])c([H])c2c(c1[H])C([H])([H])C([H])([H])C([H])([H])C2([H])N([H])C(=O)C1([H])N(C(=O)C([H])(N([H])C(=O)C([H])(N([H])C([H])([H])[H])C([H])([H])[H])C(C([H])([H])[H])(C([H])([H])[H])C([H])([H])[H])C([H])([H])c2c([H])c(OC([H])([H])C3([H])N(c4c([H])c([H])c(N([H])C(=O)N5C([H])([H])C([H])([H])C([H])([H])C([H])(n6nc(-c7c([H])c([H])c(Oc8c([H])c([H])c(F)c([H])c8F)c([H])c7[H])c(C(=O)N([H])[H])c6N([H])[H])C5([H])[H])c([H])c4C([H])([H])[H])C(=O)C([H])([H])C3([H])[H])c([H])c([H])c2C1([H])[H]

$$$$
57:0:0
     RDKit          3D

 98107  0  0  1  0  0  0  0  0999 V2000
  -29.3850  -24.0260   20.5580 C   0  0  0  0  0  0  0  0  0  0  0  0
  -29.2550  -22.6430   20.6100 C   0  0  0  0  0  0  0  0  0  0  0  0
  -30.6740  -24.6160   21.0020 C   0  0  0  0  0  0  0  0  0  0  0  0
  -31.8430  -23.6590   21.2450 C   0  0  0  0  0  2  0  0  0  0  0  0
  -31.3840  -22.3280   21.8590 C   0  0  0  0  0  2  0  0  0  0  0  0
  -30.2560  -21.7580   21.1220 N   0  0  0  0  0  0  0  0  0  0  0  0
  -30.8740  -25.8230   21.1670 O   0  0  0  0  0  0  0  0  0  0  0  0
  -30.1660  -19.7480   19.6880 C   0  0  0  0  0  3  0  0  0  0  0  0
  -30.3170  -18.3610   19.4580 C   0  0  0  0  0  3  0  0  0  0  0  0
  -30.9000  -17.9900   21.7460 C   0  0  0  0  0  3  0  0  0  0  0  0
  -30.3670  -20.3240   20.9550 C   0  0  0  0  0  0  0  0  0  0  0  0
  -30.6610  -17.4050   20.4710 C   0  0  0  0  0  0  0  0  0  0  0  0
  -30.7650  -19.4000   21.9800 C   0  0  0  0  0  0  0  0  0  0  0  0
  -31.0050  -19.8610   23.2330 F   0  0  0  0  0  0  0  0  0  0  0  0
  -31.2240  -14.9040   20.9140 C   0  0  0  0  0  0  0  0  0  0  0  0
  -31.1070  -12.4980   20.2770 C   0  0  0  0  0  2  0  0  0  0  0  0
  -30.3700  -12.2780   18.9380 C   0  0  0  0  0  2  0  0  0  0  0  0
  -28.8280  -12.3470   19.0940 C   0  0  0  0  0  2  0  0  0  0  0  0
  -28.2900  -13.3830   20.1310 C   0  0  0  0  0  3  0  0  0  0  0  0
  -29.1800  -13.4620   21.3870 C   0  0  0  0  0  2  0  0  0  0  0  0
  -30.5530  -13.7010   20.9260 N   0  0  0  0  0  0  0  0  0  0  0  0
  -32.4440  -14.9290   21.0890 O   0  0  0  0  0  0  0  0  0  0  0  0
  -30.6540  -15.9440   20.1750 N   0  0  0  0  0  0  0  0  0  0  0  0
  -25.8460  -14.0900   20.4490 C   0  0  0  0  0  0  0  0  0  0  0  0
  -24.7090  -13.3690   20.6880 C   0  0  0  0  0  0  0  0  0  0  0  0
  -25.1260  -12.0090   20.8210 C   0  0  0  0  0  0  0  0  0  0  0  0
  -26.8830  -13.1680   20.4410 N   0  0  0  0  0  0  0  0  0  0  0  0
  -26.4460  -11.9180   20.7330 N   0  0  0  0  0  0  0  0  0  0  0  0
  -24.3400  -10.7800   20.9690 C   0  0  0  0  0  0  0  0  0  0  0  0
  -24.6620   -9.8140   21.9480 C   0  0  0  0  0  3  0  0  0  0  0  0
  -23.8810   -8.6460   22.0840 C   0  0  0  0  0  3  0  0  0  0  0  0
  -22.7640   -8.4380   21.2410 C   0  0  0  0  0  0  0  0  0  0  0  0
  -22.4620   -9.3910   20.2520 C   0  0  0  0  0  3  0  0  0  0  0  0
  -23.2440  -10.5490   20.1140 C   0  0  0  0  0  3  0  0  0  0  0  0
  -21.9630   -7.3230   21.2860 O   0  0  0  0  0  0  0  0  0  0  0  0
  -21.8030   -6.5990   22.4400 C   0  0  0  0  0  0  0  0  0  0  0  0
  -21.2960   -7.1820   23.6220 C   0  0  0  0  0  3  0  0  0  0  0  0
  -21.0820   -6.3850   24.7640 C   0  0  0  0  0  3  0  0  0  0  0  0
  -21.3640   -5.0070   24.7250 C   0  0  0  0  0  0  0  0  0  0  0  0
  -21.8650   -4.4240   23.5480 C   0  0  0  0  0  3  0  0  0  0  0  0
  -22.0790   -5.2170   22.4080 C   0  0  0  0  0  0  0  0  0  0  0  0
  -22.5420   -4.6460   21.2700 F   0  0  0  0  0  0  0  0  0  0  0  0
  -21.1510   -4.2400   25.8200 F   0  0  0  0  0  0  0  0  0  0  0  0
  -23.3040  -13.8950   20.6980 C   0  0  0  0  0  0  0  0  0  0  0  0
  -22.4320  -13.2960   21.5020 N   0  0  0  0  0  0  0  0  0  0  0  0
  -22.9820  -14.8750   20.0270 O   0  0  0  0  0  0  0  0  0  0  0  0
  -22.7020  -12.5050   22.0690 H   0  0  0  0  0  0  0  0  0  0  0  0
  -21.4800  -13.6340   21.5530 H   0  0  0  0  0  0  0  0  0  0  0  0
  -26.0840  -15.4420   20.2120 N   0  0  0  0  0  0  0  0  0  0  0  0
  -25.3360  -16.1260   20.1620 H   0  0  0  0  0  0  0  0  0  0  0  0
  -26.9950  -15.8360   20.0180 H   0  0  0  0  0  0  0  0  0  0  0  0
  -30.4870  -15.6570   18.7270 C   0  0  0  0  0  2  0  0  0  0  0  0
  -31.5940  -15.5200   16.4360 C   0  0  0  0  0  1  0  0  0  0  0  0
  -31.8180  -15.5420   17.9510 C   0  0  0  0  0  2  0  0  0  0  0  0
  -27.5910  -22.0590   18.8820 C   0  0  0  0  0  2  0  0  0  0  0  0
  -28.0090  -22.0430   20.1590 C   0  0  0  0  0  3  0  0  0  0  0  0
  -28.2440  -25.0160   20.0940 C   0  0  0  0  0  2  0  0  0  0  0  0
  -28.4720  -26.4720   19.9310 O   0  0  0  0  0  0  0  0  0  0  0  0
  -24.7030  -31.6800   23.1600 C   0  0  0  0  0  0  0  0  0  0  0  0
  -27.3420  -27.3060   19.8900 C   0  0  0  0  0  0  0  0  0  0  0  0
  -23.4970  -30.3370   21.4740 C   0  0  0  0  0  3  0  0  0  0  0  0
  -24.9520  -28.8780   19.9630 C   0  0  0  0  0  0  0  0  0  0  0  0
  -26.0290  -30.7040   21.2770 C   0  0  0  0  0  2  0  0  0  0  0  0
  -26.1200  -29.3570   20.5700 C   0  0  0  0  0  0  0  0  0  0  0  0
  -27.3150  -28.5830   20.5260 C   0  0  0  0  0  3  0  0  0  0  0  0
  -26.1540  -26.8880   19.2430 C   0  0  0  0  0  3  0  0  0  0  0  0
  -24.9720  -27.6490   19.2890 C   0  0  0  0  0  3  0  0  0  0  0  0
  -23.7030  -29.7270   20.0630 C   0  0  0  0  0  2  0  0  0  0  0  0
  -24.7620  -30.9220   22.0270 N   0  0  0  0  0  0  0  0  0  0  0  0
  -23.6230  -31.9190   23.7180 O   0  0  0  0  0  0  0  0  0  0  0  0
  -22.8620  -29.2690   22.3960 C   0  0  0  0  0  0  0  0  0  0  0  0
  -21.5400  -29.0690   22.2670 N   0  0  0  0  0  0  0  0  0  0  0  0
  -23.5560  -28.6260   23.1880 O   0  0  0  0  0  0  0  0  0  0  0  0
  -21.0370  -29.6410   21.6020 H   0  0  0  0  0  0  0  0  0  0  0  0
  -18.1990  -27.7440   22.6810 C   0  0  0  0  0  0  0  0  0  0  0  0
  -20.7410  -28.0880   23.0040 C   0  0  0  0  0  3  0  0  0  0  0  0
  -20.9040  -26.6730   22.4020 C   0  0  0  0  0  2  0  0  0  0  0  0
  -19.8330  -26.3320   21.3620 C   0  0  0  0  0  2  0  0  0  0  0  0
  -18.4350  -26.4160   21.9830 C   0  0  0  0  0  2  0  0  0  0  0  0
  -19.2820  -28.5360   23.1460 C   0  0  0  0  0  0  0  0  0  0  0  0
  -19.0080  -29.7780   23.7590 C   0  0  0  0  0  3  0  0  0  0  0  0
  -17.6840  -30.2310   23.9100 C   0  0  0  0  0  3  0  0  0  0  0  0
  -16.6150  -29.4350   23.4620 C   0  0  0  0  0  3  0  0  0  0  0  0
  -16.8730  -28.1940   22.8530 C   0  0  0  0  0  3  0  0  0  0  0  0
  -25.9860  -32.3020   23.7940 C   0  0  0  0  0  3  0  0  0  0  0  0
  -25.6450  -33.6600   24.2400 N   0  0  0  0  0  0  0  0  0  0  0  0
  -26.0360  -34.7840   23.6240 C   0  0  0  0  0  0  0  0  0  0  0  0
  -26.7890  -34.7850   22.6480 O   0  0  0  0  0  0  0  0  0  0  0  0
  -24.9850  -33.7320   25.0000 H   0  0  0  0  0  0  0  0  0  0  0  0
  -24.3520  -36.6260   23.3040 C   0  0  0  0  0  1  0  0  0  0  0  0
  -25.5070  -36.1200   24.1830 C   0  0  0  0  0  3  0  0  0  0  0  0
  -27.5550  -36.8810   25.3040 C   0  0  0  0  0  1  0  0  0  0  0  0
  -26.5470  -37.1660   24.2870 N   0  0  0  0  0  0  0  0  0  0  0  0
  -26.1290  -38.0690   24.4990 H   0  0  0  0  0  0  0  0  0  0  0  0
  -26.5610  -31.4510   24.9910 C   0  0  1  0  0  0  0  0  0  0  0  0
  -25.5110  -31.1120   26.0750 C   0  0  0  0  0  1  0  0  0  0  0  0
  -27.1570  -30.1180   24.4800 C   0  0  0  0  0  1  0  0  0  0  0  0
  -27.7180  -32.2200   25.6710 C   0  0  0  0  0  1  0  0  0  0  0  0
  1  2  2  0
  1  3  1  0
  2  6  1  0
  3  7  2  0
  3  4  1  0
  4  5  1  0
  6  5  1  0
  8 11  1  0
  9  8  2  0
  9 12  1  0
 10 13  1  0
 11  6  1  0
 11 13  2  0
 12 10  2  0
 13 14  1  0
 15 21  1  0
 15 22  2  0
 16 21  1  0
 17 18  1  0
 17 16  1  0
 19 18  1  0
 19 27  1  0
 19 20  1  0
 21 20  1  0
 23 12  1  0
 23 15  1  0
 24 25  2  0
 25 44  1  0
 25 26  1  0
 26 29  1  0
 27 24  1  0
 27 28  1  0
 28 26  2  0
 29 30  1  0
 30 31  2  0
 32 35  1  0
 32 31  1  0
 33 32  2  0
 34 33  1  0
 34 29  2  0
 35 36  1  0
 36 37  1  0
 37 38  2  0
 39 38  1  0
 39 43  1  0
 40 39  2  0
 41 36  2  0
 41 40  1  0
 42 41  1  0
 44 45  1  0
 45 48  1  0
 45 47  1  0
 46 44  2  0
 49 24  1  0
 50 49  1  0
 51 49  1  0
 52 23  1  0
 53 54  1  0
 54 52  1  0
 55 56  2  0
 56  2  1  0
 57  1  1  0
 58 57  1  0
 59 70  2  0
 60 58  1  0
 60 65  1  0
 61 69  1  0
 61 71  1  0
 62 68  1  0
 62 64  1  0
 63 69  1  0
 64 63  1  0
 65 64  2  0
 66 67  1  0
 66 60  2  0
 67 62  2  0
 68 61  1  0
 69 59  1  0
 71 73  2  0
 72 71  1  0
 74 72  1  0
 75 84  2  0
 75 80  1  0
 76 72  1  0
 76 80  1  0
 77 76  1  0
 78 79  1  0
 78 77  1  0
 79 75  1  0
 80 81  2  0
 81 82  1  0
 83 82  2  0
 84 83  1  0
 85 59  1  0
 85 86  1  0
 85 95  1  0
 86 89  1  0
 87 91  1  0
 87 86  1  0
 88 87  2  0
 91 90  1  0
 91 93  1  0
 93 94  1  0
 93 92  1  0
 95 98  1  1
 95 96  1  0
 97 95  1  0
M  ISO  4  15 100  23 100  57 101  58 101
M  END
>  <TORSDO>  (58) 
F 21

>  <SCORE>  (58) 
-11.486

>  <name>  (58) 
57

>  <ligand_id>  (58) 
57

>  <original_smiles>  (58) 
[H]C([H])=C([H])C1=C(C([H])([H])Oc2c([H])c([H])c3c(c2[H])C([H])([H])N(C(=O)C([H])(N([H])C(=O)C([H])(N([H])C([H])([H])[H])C([H])([H])[H])C(C([H])([H])[H])(C([H])([H])[H])C([H])([H])[H])C([H])(C(=O)N([H])C2([H])c4c([H])c([H])c([H])c([H])c4C([H])([H])C([H])([H])C2([H])[H])C3([H])[H])C(=O)C([H])([H])C([H])([H])N1c1c([H])c([H])c(N(C(=O)N2C([H])([H])C([H])([H])C([H])([H])C([H])(n3nc(-c4c([H])c([H])c(Oc5c([H])c([H])c(F)c([H])c5F)c([H])c4[H])c(C(=O)N([H])[H])c3N([H])[H])C2([H])[H])C([H])([H])C([H])([H])C([H])([H])[H])c([H])c1F

>  <smiles>  (58) 
[H]C([H])=C([H])C1=C(C([H])([H])Oc2c([H])c([H])c3c(c2[H])C([H])([H])N(C(=O)C([H])(N([H])C(=O)C([H])(N([H])C([H])([H])[H])C([H])([H])[H])C(C([H])([H])[H])(C([H])([H])[H])C([H])([H])[H])C([H])(C(=O)N([H])C2([H])c4c([H])c([H])c([H])c([H])c4C([H])([H])C([H])([H])C2([H])[H])C3([H])[H])C(=O)C([H])([H])C([H])([H])N1c1c([H])c([H])c(N(C(=O)N2C([H])([H])C([H])([H])C([H])([H])C([H])(n3nc(-c4c([H])c([H])c(Oc5c([H])c([H])c(F)c([H])c5F)c([H])c4[H])c(C(=O)N([H])[H])c3N([H])[H])C2([H])[H])C([H])([H])C([H])([H])C([H])([H])[H])c([H])c1F

$$$$
58:0:0
     RDKit          3D

 94102  0  0  1  0  0  0  0  0999 V2000
  -28.5360  -19.3960   20.0690 C   0  0  0  0  0  3  0  0  0  0  0  0
  -28.6470  -17.9950   19.8440 C   0  0  0  0  0  0  0  0  0  0  0  0
  -29.7680  -17.2420   20.3430 C   0  0  0  0  0  0  0  0  0  0  0  0
  -29.5250  -20.0820   20.7960 C   0  0  0  0  0  0  0  0  0  0  0  0
  -30.6990  -18.0360   21.0760 C   0  0  0  0  0  0  0  0  0  0  0  0
  -27.5570  -17.3790   18.9880 C   0  0  0  0  0  1  0  0  0  0  0  0
  -30.5690  -19.3770   21.3040 N   0  0  0  0  0  0  0  0  0  0  0  0
  -29.5060  -21.4880   21.0420 N   0  0  0  0  0  0  0  0  0  0  0  0
  -30.2400  -21.8300   21.6540 H   0  0  0  0  0  0  0  0  0  0  0  0
  -30.6680  -14.8090   20.5640 C   0  0  0  0  0  0  0  0  0  0  0  0
  -30.5190  -12.4810   19.7200 C   0  0  0  0  0  2  0  0  0  0  0  0
  -29.6270  -12.4160   18.4590 C   0  0  0  0  0  2  0  0  0  0  0  0
  -28.1380  -12.3180   18.8320 C   0  0  0  0  0  2  0  0  0  0  0  0
  -27.7070  -13.2850   19.9680 C   0  0  0  0  0  3  0  0  0  0  0  0
  -28.7180  -13.2820   21.1330 C   0  0  0  0  0  2  0  0  0  0  0  0
  -30.0330  -13.5930   20.5590 N   0  0  0  0  0  0  0  0  0  0  0  0
  -31.9010  -14.8560   20.5580 O   0  0  0  0  0  0  0  0  0  0  0  0
  -30.1280  -15.7610   18.4430 C   0  0  0  0  0  1  0  0  0  0  0  0
  -29.9980  -15.8420   19.9160 N   0  0  0  0  0  0  0  0  0  0  0  0
  -25.2810  -13.9030   20.5750 C   0  0  0  0  0  0  0  0  0  0  0  0
  -24.1950  -13.1310   20.8850 C   0  0  0  0  0  0  0  0  0  0  0  0
  -24.6650  -11.7830   20.9130 C   0  0  0  0  0  0  0  0  0  0  0  0
  -26.3410  -13.0220   20.4110 N   0  0  0  0  0  0  0  0  0  0  0  0
  -25.9710  -11.7450   20.6820 N   0  0  0  0  0  0  0  0  0  0  0  0
  -23.9370  -10.5230   21.0870 C   0  0  0  0  0  0  0  0  0  0  0  0
  -24.3290   -9.5700   22.0530 C   0  0  0  0  0  3  0  0  0  0  0  0
  -23.6010   -8.3720   22.2110 C   0  0  0  0  0  3  0  0  0  0  0  0
  -22.4650   -8.1200   21.4050 C   0  0  0  0  0  0  0  0  0  0  0  0
  -22.0940   -9.0610   20.4280 C   0  0  0  0  0  3  0  0  0  0  0  0
  -22.8230  -10.2510   20.2680 C   0  0  0  0  0  3  0  0  0  0  0  0
  -21.7100   -6.9740   21.4740 O   0  0  0  0  0  0  0  0  0  0  0  0
  -21.6130   -6.2440   22.6300 C   0  0  0  0  0  0  0  0  0  0  0  0
  -21.1290   -6.8120   23.8290 C   0  0  0  0  0  3  0  0  0  0  0  0
  -20.9810   -6.0080   24.9770 C   0  0  0  0  0  3  0  0  0  0  0  0
  -21.3060   -4.6380   24.9250 C   0  0  0  0  0  0  0  0  0  0  0  0
  -21.7860   -4.0720   23.7310 C   0  0  0  0  0  3  0  0  0  0  0  0
  -21.9360   -4.8720   22.5850 C   0  0  0  0  0  0  0  0  0  0  0  0
  -22.3780   -4.3190   21.4300 F   0  0  0  0  0  0  0  0  0  0  0  0
  -21.1560   -3.8620   26.0250 F   0  0  0  0  0  0  0  0  0  0  0  0
  -22.7830  -13.6100   21.0530 C   0  0  0  0  0  0  0  0  0  0  0  0
  -22.0010  -12.9430   21.8920 N   0  0  0  0  0  0  0  0  0  0  0  0
  -22.3780  -14.6190   20.4760 O   0  0  0  0  0  0  0  0  0  0  0  0
  -22.3360  -12.1340   22.3920 H   0  0  0  0  0  0  0  0  0  0  0  0
  -21.0550  -13.2640   22.0450 H   0  0  0  0  0  0  0  0  0  0  0  0
  -25.4420  -15.2730   20.4030 N   0  0  0  0  0  0  0  0  0  0  0  0
  -24.6690  -15.9170   20.5490 H   0  0  0  0  0  0  0  0  0  0  0  0
  -26.3330  -15.7350   20.3000 H   0  0  0  0  0  0  0  0  0  0  0  0
  -31.8950  -17.5170   21.5500 N   0  0  0  0  0  0  0  0  0  0  0  0
  -32.2090  -16.6310   21.1480 H   0  0  0  0  0  0  0  0  0  0  0  0
  -32.6520  -18.1600   21.7540 H   0  0  0  0  0  0  0  0  0  0  0  0
  -28.8710  -22.5130   20.1570 C   0  0  0  0  0  2  0  0  0  0  0  0
  -28.9830  -24.0410   20.6180 C   0  0  0  0  0  3  0  0  0  0  0  0
  -28.2560  -25.1230   19.7120 C   0  0  0  0  0  3  0  0  0  0  0  0
  -28.3070  -26.5570   20.1010 O   0  0  0  0  0  0  0  0  0  0  0  0
  -24.5400  -31.8960   23.1640 C   0  0  0  0  0  0  0  0  0  0  0  0
  -27.1640  -27.3770   20.0390 C   0  0  0  0  0  0  0  0  0  0  0  0
  -23.3340  -30.5030   21.5240 C   0  0  0  0  0  3  0  0  0  0  0  0
  -24.7830  -28.9740   20.0700 C   0  0  0  0  0  0  0  0  0  0  0  0
  -25.8730  -30.8260   21.3340 C   0  0  0  0  0  2  0  0  0  0  0  0
  -25.9520  -29.4560   20.6730 C   0  0  0  0  0  0  0  0  0  0  0  0
  -27.1380  -28.6660   20.6580 C   0  0  0  0  0  3  0  0  0  0  0  0
  -25.9780  -26.9610   19.3890 C   0  0  0  0  0  3  0  0  0  0  0  0
  -24.7990  -27.7330   19.4180 C   0  0  0  0  0  3  0  0  0  0  0  0
  -23.5380  -29.8350   20.1390 C   0  0  0  0  0  2  0  0  0  0  0  0
  -24.6000  -31.0960   22.0580 N   0  0  0  0  0  0  0  0  0  0  0  0
  -23.4570  -32.1640   23.7060 O   0  0  0  0  0  0  0  0  0  0  0  0
  -22.6870  -29.4710   22.4800 C   0  0  0  0  0  0  0  0  0  0  0  0
  -21.3610  -29.2940   22.3670 N   0  0  0  0  0  0  0  0  0  0  0  0
  -23.3780  -28.8320   23.2800 O   0  0  0  0  0  0  0  0  0  0  0  0
  -20.8630  -29.8650   21.7020 H   0  0  0  0  0  0  0  0  0  0  0  0
  -17.9880  -28.1060   22.9070 C   0  0  0  0  0  0  0  0  0  0  0  0
  -20.5520  -28.3450   23.1340 C   0  0  0  0  0  3  0  0  0  0  0  0
  -20.6350  -26.9230   22.5310 C   0  0  0  0  0  2  0  0  0  0  0  0
  -19.5120  -26.6260   21.5330 C   0  0  0  0  0  2  0  0  0  0  0  0
  -18.1430  -26.7720   22.2050 C   0  0  0  0  0  2  0  0  0  0  0  0
  -19.1200  -28.8540   23.3310 C   0  0  0  0  0  0  0  0  0  0  0  0
  -18.9190  -30.1090   23.9450 C   0  0  0  0  0  3  0  0  0  0  0  0
  -17.6210  -30.6150   24.1440 C   0  0  0  0  0  3  0  0  0  0  0  0
  -16.5050  -29.8650   23.7380 C   0  0  0  0  0  3  0  0  0  0  0  0
  -16.6890  -28.6130   23.1250 C   0  0  0  0  0  3  0  0  0  0  0  0
  -25.8200  -32.5310   23.7850 C   0  0  0  0  0  3  0  0  0  0  0  0
  -26.3420  -31.7600   25.0600 C   0  0  1  0  0  0  0  0  0  0  0  0
  -25.2500  -31.5150   26.1290 C   0  0  0  0  0  1  0  0  0  0  0  0
  -26.9300  -30.3860   24.6660 C   0  0  0  0  0  1  0  0  0  0  0  0
  -27.4930  -32.5600   25.7170 C   0  0  0  0  0  1  0  0  0  0  0  0
  -25.5030  -33.9270   24.1210 N   0  0  0  0  0  0  0  0  0  0  0  0
  -25.8460  -34.9860   23.3780 C   0  0  0  0  0  0  0  0  0  0  0  0
  -26.5300  -34.8930   22.3550 O   0  0  0  0  0  0  0  0  0  0  0  0
  -24.8920  -34.0740   24.9110 H   0  0  0  0  0  0  0  0  0  0  0  0
  -24.1320  -36.7890   23.0030 C   0  0  0  0  0  1  0  0  0  0  0  0
  -25.3510  -36.3710   23.8400 C   0  0  0  0  0  3  0  0  0  0  0  0
  -27.4650  -37.2360   24.7390 C   0  0  0  0  0  1  0  0  0  0  0  0
  -26.3900  -37.4210   23.7680 N   0  0  0  0  0  0  0  0  0  0  0  0
  -25.9830  -38.3410   23.9140 H   0  0  0  0  0  0  0  0  0  0  0  0
  1  4  1  0
  2  1  2  0
  2  3  1  0
  3  5  2  0
  4  8  1  0
  4  7  2  0
  5  7  1  0
  5 48  1  0
  6  2  1  0
  8  9  1  0
 11 16  1  0
 12 13  1  0
 12 11  1  0
 14 13  1  0
 14 23  1  0
 14 15  1  0
 16 10  1  0
 16 15  1  0
 17 10  2  0
 18 19  1  0
 19  3  1  0
 19 10  1  0
 20 21  2  0
 21 22  1  0
 21 40  1  0
 22 25  1  0
 23 20  1  0
 23 24  1  0
 24 22  2  0
 25 26  1  0
 26 27  2  0
 28 31  1  0
 28 27  1  0
 29 28  2  0
 30 29  1  0
 30 25  2  0
 31 32  1  0
 32 33  1  0
 33 34  2  0
 35 34  1  0
 35 39  1  0
 36 35  2  0
 37 32  2  0
 37 36  1  0
 38 37  1  0
 40 41  1  0
 41 44  1  0
 41 43  1  0
 42 40  2  0
 45 46  1  0
 45 20  1  0
 47 45  1  0
 48 50  1  0
 49 48  1  0
 51 52  1  0
 51  8  1  0
 53 54  1  0
 53 52  2  0
 55 66  2  0
 56 54  1  0
 56 61  1  0
 57 65  1  0
 57 67  1  0
 58 64  1  0
 58 60  1  0
 59 65  1  0
 60 59  1  0
 61 60  2  0
 62 63  1  0
 62 56  2  0
 63 58  2  0
 64 57  1  0
 65 55  1  0
 67 69  2  0
 68 67  1  0
 70 68  1  0
 71 80  2  0
 71 76  1  0
 72 68  1  0
 72 76  1  0
 73 72  1  0
 74 75  1  0
 74 73  1  0
 75 71  1  0
 76 77  2  0
 77 78  1  0
 79 78  2  0
 80 79  1  0
 81 55  1  0
 81 86  1  0
 81 82  1  0
 82 85  1  1
 82 83  1  0
 84 82  1  0
 86 89  1  0
 87 91  1  0
 87 86  1  0
 88 87  2  0
 91 90  1  0
 93 91  1  0
 93 94  1  0
 93 92  1  0
M  ISO  4  10 100  19 100  53 101  54 101
M  END
>  <TORSDO>  (59) 
F 20

>  <SCORE>  (59) 
-13.730

>  <name>  (59) 
58

>  <ligand_id>  (59) 
58

>  <original_smiles>  (59) 
[H]c1c([H])c([H])c2c(c1[H])C([H])([H])C([H])([H])C([H])([H])C2([H])N([H])C(=O)C1([H])N(C(=O)C([H])(N([H])C(=O)C([H])(N([H])C([H])([H])[H])C([H])([H])[H])C(C([H])([H])[H])(C([H])([H])[H])C([H])([H])[H])C([H])([H])c2c([H])c(OC([H])([H])C([H])([H])C([H])([H])N([H])c3nc(N([H])[H])c(N(C(=O)N4C([H])([H])C([H])([H])C([H])([H])C([H])(n5nc(-c6c([H])c([H])c(Oc7c([H])c([H])c(F)c([H])c7F)c([H])c6[H])c(C(=O)N([H])[H])c5N([H])[H])C4([H])[H])C([H])([H])[H])c(C([H])([H])[H])c3[H])c([H])c([H])c2C1([H])[H]

>  <smiles>  (59) 
[H]c1c([H])c([H])c2c(c1[H])C([H])([H])C([H])([H])C([H])([H])C2([H])N([H])C(=O)C1([H])N(C(=O)C([H])(N([H])C(=O)C([H])(N([H])C([H])([H])[H])C([H])([H])[H])C(C([H])([H])[H])(C([H])([H])[H])C([H])([H])[H])C([H])([H])c2c([H])c(OC([H])([H])C([H])([H])C([H])([H])N([H])c3nc(N([H])[H])c(N(C(=O)N4C([H])([H])C([H])([H])C([H])([H])C([H])(n5nc(-c6c([H])c([H])c(Oc7c([H])c([H])c(F)c([H])c7F)c([H])c6[H])c(C(=O)N([H])[H])c5N([H])[H])C4([H])[H])C([H])([H])[H])c(C([H])([H])[H])c3[H])c([H])c([H])c2C1([H])[H]

$$$$
59:0:0
     RDKit          3D

101109  0  0  1  0  0  0  0  0999 V2000
  -30.3060  -19.7570   21.4760 C   0  0  0  0  0  3  0  0  0  0  0  0
  -30.4140  -17.3720   21.9840 C   0  0  0  0  0  3  0  0  0  0  0  0
  -30.6850  -18.7090   22.3390 C   0  0  0  0  0  0  0  0  0  0  0  0
  -29.6430  -19.4930   20.2540 C   0  0  0  0  0  0  0  0  0  0  0  0
  -29.7370  -17.0740   20.7820 C   0  0  0  0  0  0  0  0  0  0  0  0
  -29.3450  -18.1400   19.9220 C   0  0  0  0  0  0  0  0  0  0  0  0
  -30.1260  -14.7430   19.9950 C   0  0  0  0  0  0  0  0  0  0  0  0
  -29.9450  -12.5150   18.9360 C   0  0  0  0  0  2  0  0  0  0  0  0
  -28.9100  -12.5640   17.7940 C   0  0  0  0  0  2  0  0  0  0  0  0
  -27.4860  -12.3200   18.3330 C   0  0  0  0  0  2  0  0  0  0  0  0
  -27.1570  -13.1900   19.5770 C   0  0  0  0  0  3  0  0  0  0  0  0
  -28.2990  -13.1200   20.6160 C   0  0  0  0  0  2  0  0  0  0  0  0
  -29.5450  -13.5140   19.9390 N   0  0  0  0  0  0  0  0  0  0  0  0
  -31.2110  -14.9930   19.4610 O   0  0  0  0  0  0  0  0  0  0  0  0
  -29.3540  -15.7240   20.5060 N   0  0  0  0  0  0  0  0  0  0  0  0
  -28.3960  -15.4810   20.7040 H   0  0  0  0  0  0  0  0  0  0  0  0
  -24.8330  -13.6500   20.5790 C   0  0  0  0  0  0  0  0  0  0  0  0
  -23.8260  -12.8120   20.9750 C   0  0  0  0  0  0  0  0  0  0  0  0
  -24.3110  -11.4850   20.7680 C   0  0  0  0  0  0  0  0  0  0  0  0
  -25.8680  -12.8290   20.1590 N   0  0  0  0  0  0  0  0  0  0  0  0
  -25.5640  -11.5160   20.3300 N   0  0  0  0  0  0  0  0  0  0  0  0
  -23.6380  -10.1880   20.9060 C   0  0  0  0  0  0  0  0  0  0  0  0
  -24.2040   -9.1380   21.6640 C   0  0  0  0  0  3  0  0  0  0  0  0
  -23.5270   -7.9060   21.7970 C   0  0  0  0  0  3  0  0  0  0  0  0
  -22.2720   -7.7150   21.1740 C   0  0  0  0  0  0  0  0  0  0  0  0
  -21.7240   -8.7560   20.4030 C   0  0  0  0  0  3  0  0  0  0  0  0
  -22.3990   -9.9790   20.2660 C   0  0  0  0  0  3  0  0  0  0  0  0
  -21.5550   -6.5440   21.2260 O   0  0  0  0  0  0  0  0  0  0  0  0
  -21.7040   -5.6550   22.2600 C   0  0  0  0  0  0  0  0  0  0  0  0
  -21.5070   -6.0360   23.6050 C   0  0  0  0  0  3  0  0  0  0  0  0
  -21.6030   -5.0730   24.6300 C   0  0  0  0  0  3  0  0  0  0  0  0
  -21.8870   -3.7310   24.3130 C   0  0  0  0  0  0  0  0  0  0  0  0
  -22.0780   -3.3500   22.9740 C   0  0  0  0  0  3  0  0  0  0  0  0
  -21.9840   -4.3090   21.9500 C   0  0  0  0  0  0  0  0  0  0  0  0
  -22.1490   -3.9310   20.6600 F   0  0  0  0  0  0  0  0  0  0  0  0
  -21.9710   -2.8060   25.2970 F   0  0  0  0  0  0  0  0  0  0  0  0
  -22.4540  -13.2170   21.4320 C   0  0  0  0  0  0  0  0  0  0  0  0
  -21.8500  -12.4380   22.3210 N   0  0  0  0  0  0  0  0  0  0  0  0
  -21.9290  -14.2570   21.0350 O   0  0  0  0  0  0  0  0  0  0  0  0
  -22.2890  -11.5940   22.6590 H   0  0  0  0  0  0  0  0  0  0  0  0
  -20.9370  -12.6890   22.6710 H   0  0  0  0  0  0  0  0  0  0  0  0
  -24.9480  -15.0360   20.5180 N   0  0  0  0  0  0  0  0  0  0  0  0
  -24.1840  -15.6530   20.7720 H   0  0  0  0  0  0  0  0  0  0  0  0
  -25.7480  -15.5340   20.1460 H   0  0  0  0  0  0  0  0  0  0  0  0
  -29.6280  -21.8230   19.2540 C   0  0  0  0  0  0  0  0  0  0  0  0
  -29.2070  -20.5390   19.3680 N   0  0  0  0  0  0  0  0  0  0  0  0
  -30.5790  -22.2920   19.8840 O   0  0  0  0  0  0  0  0  0  0  0  0
  -28.4860  -20.2610   18.7160 H   0  0  0  0  0  0  0  0  0  0  0  0
  -28.8770  -22.7210   18.2480 C   0  0  0  0  0  2  0  0  0  0  0  0
  -29.2150  -24.2460   18.2940 C   0  0  0  0  0  2  0  0  0  0  0  0
  -28.0060  -25.1220   17.8860 C   0  0  0  0  0  2  0  0  0  0  0  0
  -28.1390  -26.5480   18.0950 O   0  0  0  0  0  0  0  0  0  0  0  0
  -24.5410  -30.8820   22.4940 C   0  0  0  0  0  0  0  0  0  0  0  0
  -26.9590  -27.2440   18.3280 C   0  0  0  0  0  0  0  0  0  0  0  0
  -23.2020  -29.7410   20.7590 C   0  0  0  0  0  3  0  0  0  0  0  0
  -24.5300  -28.6010   18.9060 C   0  0  0  0  0  0  0  0  0  0  0  0
  -25.6740  -30.2800   20.3540 C   0  0  0  0  0  2  0  0  0  0  0  0
  -25.7350  -29.0630   19.4500 C   0  0  0  0  0  0  0  0  0  0  0  0
  -26.9510  -28.3950   19.1590 C   0  0  0  0  0  3  0  0  0  0  0  0
  -25.7270  -26.8220   17.7710 C   0  0  0  0  0  3  0  0  0  0  0  0
  -24.5230  -27.4800   18.0630 C   0  0  0  0  0  3  0  0  0  0  0  0
  -23.2690  -29.3550   19.2590 C   0  0  0  0  0  2  0  0  0  0  0  0
  -24.4980  -30.3060   21.2590 N   0  0  0  0  0  0  0  0  0  0  0  0
  -23.5210  -30.9790   23.1920 O   0  0  0  0  0  0  0  0  0  0  0  0
  -22.7140  -28.5170   21.5660 C   0  0  0  0  0  0  0  0  0  0  0  0
  -21.3930  -28.2740   21.5460 N   0  0  0  0  0  0  0  0  0  0  0  0
  -23.5150  -27.7970   22.1690 O   0  0  0  0  0  0  0  0  0  0  0  0
  -20.8030  -28.9150   21.0350 H   0  0  0  0  0  0  0  0  0  0  0  0
  -18.1650  -26.7440   22.0980 C   0  0  0  0  0  0  0  0  0  0  0  0
  -20.7150  -27.1570   22.2040 C   0  0  0  0  0  3  0  0  0  0  0  0
  -20.8560  -25.8550   21.3810 C   0  0  0  0  0  2  0  0  0  0  0  0
  -19.6880  -25.6200   20.4190 C   0  0  0  0  0  2  0  0  0  0  0  0
  -18.3660  -25.5440   21.1860 C   0  0  0  0  0  2  0  0  0  0  0  0
  -19.2660  -27.5100   22.5630 C   0  0  0  0  0  0  0  0  0  0  0  0
  -19.0210  -28.6360   23.3780 C   0  0  0  0  0  3  0  0  0  0  0  0
  -17.7080  -28.9960   23.7330 C   0  0  0  0  0  3  0  0  0  0  0  0
  -16.6220  -28.2260   23.2820 C   0  0  0  0  0  3  0  0  0  0  0  0
  -16.8520  -27.1000   22.4720 C   0  0  0  0  0  3  0  0  0  0  0  0
  -25.8640  -31.4660   23.0770 C   0  0  0  0  0  3  0  0  0  0  0  0
  -26.5880  -30.4840   24.0780 C   0  0  1  0  0  0  0  0  0  0  0  0
  -25.6650  -29.9430   25.1950 C   0  0  0  0  0  1  0  0  0  0  0  0
  -27.1750  -29.2700   23.3240 C   0  0  0  0  0  1  0  0  0  0  0  0
  -27.7810  -31.2060   24.7480 C   0  0  0  0  0  1  0  0  0  0  0  0
  -25.5330  -32.7340   23.7400 N   0  0  0  0  0  0  0  0  0  0  0  0
  -25.8130  -33.9460   23.2440 C   0  0  0  0  0  0  0  0  0  0  0  0
  -26.4510  -34.1120   22.1990 O   0  0  0  0  0  0  0  0  0  0  0  0
  -24.9640  -32.6750   24.5710 H   0  0  0  0  0  0  0  0  0  0  0  0
  -24.0510  -35.7380   23.3510 C   0  0  0  0  0  1  0  0  0  0  0  0
  -25.3070  -35.1700   24.0320 C   0  0  0  0  0  3  0  0  0  0  0  0
  -27.4340  -35.8620   25.0440 C   0  0  0  0  0  1  0  0  0  0  0  0
  -26.3210  -36.2370   24.1750 N   0  0  0  0  0  0  0  0  0  0  0  0
  -25.9020  -37.0860   24.5480 H   0  0  0  0  0  0  0  0  0  0  0  0
  -29.5020  -17.5190   17.6790 C   0  0  0  0  0  1  0  0  0  0  0  0
  -28.6580  -17.8760   18.7650 O   0  0  0  0  0  0  0  0  0  0  0  0
  -31.3440  -19.0300   23.6720 C   0  0  0  0  0  2  0  0  0  0  0  0
  -30.8990  -21.4360   24.0640 C   0  0  0  0  0  0  0  0  0  0  0  0
  -29.7200  -19.7250   25.4100 C   0  0  0  0  0  1  0  0  0  0  0  0
  -30.6750  -20.1370   24.3740 N   0  0  0  0  0  0  0  0  0  0  0  0
  -31.7110  -21.7790   23.2000 O   0  0  0  0  0  0  0  0  0  0  0  0
  -30.1450  -23.9030   24.1350 C   0  0  0  0  0  1  0  0  0  0  0  0
  -30.1040  -22.5220   24.8120 C   0  0  0  0  0  2  0  0  0  0  0  0
  1  3  1  0
  2  3  2  0
  3 95  1  0
  4  1  2  0
  5  2  1  0
  6  4  1  0
  6  5  2  0
  7 15  1  0
  8 13  1  0
  9 10  1  0
  9  8  1  0
 11 10  1  0
 11 20  1  0
 11 12  1  0
 13  7  1  0
 13 12  1  0
 14  7  2  0
 15 16  1  0
 15  5  1  0
 17 18  2  0
 18 37  1  0
 19 22  1  0
 19 18  1  0
 20 21  1  0
 20 17  1  0
 21 19  2  0
 22 23  1  0
 23 24  2  0
 25 28  1  0
 25 24  1  0
 26 25  2  0
 27 26  1  0
 27 22  2  0
 28 29  1  0
 29 30  1  0
 30 31  2  0
 32 31  1  0
 32 36  1  0
 33 32  2  0
 34 29  2  0
 34 33  1  0
 35 34  1  0
 37 38  1  0
 38 40  1  0
 38 41  1  0
 39 37  2  0
 42 17  1  0
 42 43  1  0
 44 42  1  0
 45 46  1  0
 45 47  2  0
 46  4  1  0
 48 46  1  0
 49 50  1  0
 49 45  1  0
 51 52  1  0
 51 50  1  0
 52 54  1  0
 53 64  2  0
 54 59  1  0
 55 63  1  0
 55 65  1  0
 56 62  1  0
 56 58  1  0
 57 63  1  0
 58 57  1  0
 59 58  2  0
 60 61  1  0
 60 54  2  0
 61 56  2  0
 62 55  1  0
 63 53  1  0
 65 67  2  0
 66 65  1  0
 68 66  1  0
 69 78  2  0
 69 74  1  0
 70 66  1  0
 70 74  1  0
 71 70  1  0
 72 73  1  0
 72 71  1  0
 73 69  1  0
 74 75  2  0
 75 76  1  0
 77 76  2  0
 78 77  1  0
 79 53  1  0
 79 84  1  0
 79 80  1  0
 80 83  1  1
 80 81  1  0
 82 80  1  0
 84 87  1  0
 85 84  1  0
 85 89  1  0
 86 85  2  0
 89 88  1  0
 89 91  1  0
 91 92  1  0
 91 90  1  0
 93 94  1  0
 94  6  1  0
 95 98  1  0
 96 98  1  0
 96101  1  0
 98 97  1  0
 99 96  2  0
100101  1  0
M  ISO  4   7 100  15 100  51 101  52 101
M  END
>  <TORSDO>  (60) 
F 24

>  <SCORE>  (60) 
-6.789

>  <name>  (60) 
59

>  <ligand_id>  (60) 
59

>  <original_smiles>  (60) 
[H]c1c([H])c([H])c2c(c1[H])C([H])([H])C([H])([H])C([H])([H])C2([H])N([H])C(=O)C1([H])N(C(=O)C([H])(N([H])C(=O)C([H])(N([H])C([H])([H])[H])C([H])([H])[H])C(C([H])([H])[H])(C([H])([H])[H])C([H])([H])[H])C([H])([H])c2c([H])c(OC([H])([H])C([H])([H])C([H])([H])C(=O)N([H])c3c([H])c(C([H])([H])N(C(=O)C([H])([H])C([H])([H])[H])C([H])([H])[H])c([H])c(N([H])C(=O)N4C([H])([H])C([H])([H])C([H])([H])C([H])(n5nc(-c6c([H])c([H])c(Oc7c([H])c([H])c(F)c([H])c7F)c([H])c6[H])c(C(=O)N([H])[H])c5N([H])[H])C4([H])[H])c3OC([H])([H])[H])c([H])c([H])c2C1([H])[H]

>  <smiles>  (60) 
[H]c1c([H])c([H])c2c(c1[H])C([H])([H])C([H])([H])C([H])([H])C2([H])N([H])C(=O)C1([H])N(C(=O)C([H])(N([H])C(=O)C([H])(N([H])C([H])([H])[H])C([H])([H])[H])C(C([H])([H])[H])(C([H])([H])[H])C([H])([H])[H])C([H])([H])c2c([H])c(OC([H])([H])C([H])([H])C([H])([H])C(=O)N([H])c3c([H])c(C([H])([H])N(C(=O)C([H])([H])C([H])([H])[H])C([H])([H])[H])c([H])c(N([H])C(=O)N4C([H])([H])C([H])([H])C([H])([H])C([H])(n5nc(-c6c([H])c([H])c(Oc7c([H])c([H])c(F)c([H])c7F)c([H])c6[H])c(C(=O)N([H])[H])c5N([H])[H])C4([H])[H])c3OC([H])([H])[H])c([H])c([H])c2C1([H])[H]

$$$$
60:0:0
     RDKit          3D

 96104  0  0  1  0  0  0  0  0999 V2000
  -30.6820  -19.5980   20.3440 C   0  0  0  0  0  3  0  0  0  0  0  0
  -28.4570  -19.0470   19.6540 C   0  0  0  0  0  3  0  0  0  0  0  0
  -29.9880  -17.1840   20.3290 C   0  0  0  0  0  0  0  0  0  0  0  0
  -30.9700  -18.2090   20.5600 C   0  0  0  0  0  0  0  0  0  0  0  0
  -29.4200  -20.0540   19.8810 C   0  0  0  0  0  0  0  0  0  0  0  0
  -28.7090  -17.6650   19.9140 C   0  0  0  0  0  0  0  0  0  0  0  0
  -29.2860  -22.6100   20.2210 C   0  0  0  0  0  0  0  0  0  0  0  0
  -29.1110  -21.4420   19.5300 N   0  0  0  0  0  0  0  0  0  0  0  0
  -29.7510  -22.6110   21.3620 O   0  0  0  0  0  0  0  0  0  0  0  0
  -28.6180  -21.5570   18.6540 H   0  0  0  0  0  0  0  0  0  0  0  0
  -28.9230  -23.9930   19.5370 C   0  0  0  0  0  2  0  0  0  0  0  0
  -28.3280  -25.1740   20.4240 C   0  0  0  0  0  2  0  0  0  0  0  0
  -28.4150  -26.5630   19.9250 O   0  0  0  0  0  0  0  0  0  0  0  0
  -24.6190  -31.8240   23.0740 C   0  0  0  0  0  0  0  0  0  0  0  0
  -27.2670  -27.3610   19.9480 C   0  0  0  0  0  0  0  0  0  0  0  0
  -23.4190  -30.4450   21.4100 C   0  0  0  0  0  3  0  0  0  0  0  0
  -24.8790  -28.9230   19.9620 C   0  0  0  0  0  0  0  0  0  0  0  0
  -25.9490  -30.7980   21.2190 C   0  0  0  0  0  2  0  0  0  0  0  0
  -26.0430  -29.4280   20.5580 C   0  0  0  0  0  0  0  0  0  0  0  0
  -27.2420  -28.6600   20.5350 C   0  0  0  0  0  3  0  0  0  0  0  0
  -26.0840  -26.8940   19.3400 C   0  0  0  0  0  3  0  0  0  0  0  0
  -24.9010  -27.6610   19.3430 C   0  0  0  0  0  3  0  0  0  0  0  0
  -23.6350  -29.7860   20.0200 C   0  0  0  0  0  2  0  0  0  0  0  0
  -24.6810  -31.0380   21.9600 N   0  0  0  0  0  0  0  0  0  0  0  0
  -23.5350  -32.0850   23.6180 O   0  0  0  0  0  0  0  0  0  0  0  0
  -22.7660  -29.4100   22.3570 C   0  0  0  0  0  0  0  0  0  0  0  0
  -21.4350  -29.2560   22.2560 N   0  0  0  0  0  0  0  0  0  0  0  0
  -23.4550  -28.7490   23.1390 O   0  0  0  0  0  0  0  0  0  0  0  0
  -20.9400  -29.8420   21.5970 H   0  0  0  0  0  0  0  0  0  0  0  0
  -18.0450  -28.1340   22.8350 C   0  0  0  0  0  0  0  0  0  0  0  0
  -20.6190  -28.3070   23.0140 C   0  0  0  0  0  3  0  0  0  0  0  0
  -20.6560  -26.9020   22.3690 C   0  0  0  0  0  2  0  0  0  0  0  0
  -19.5060  -26.6590   21.3870 C   0  0  0  0  0  2  0  0  0  0  0  0
  -18.1550  -26.8120   22.0920 C   0  0  0  0  0  2  0  0  0  0  0  0
  -19.2020  -28.8420   23.2540 C   0  0  0  0  0  0  0  0  0  0  0  0
  -19.0470  -30.0830   23.9110 C   0  0  0  0  0  3  0  0  0  0  0  0
  -17.7650  -30.6120   24.1540 C   0  0  0  0  0  3  0  0  0  0  0  0
  -16.6230  -29.9000   23.7510 C   0  0  0  0  0  3  0  0  0  0  0  0
  -16.7640  -28.6620   23.0980 C   0  0  0  0  0  3  0  0  0  0  0  0
  -25.8990  -32.4530   23.7050 C   0  0  0  0  0  3  0  0  0  0  0  0
  -25.5780  -33.8360   24.0800 N   0  0  0  0  0  0  0  0  0  0  0  0
  -25.8980  -34.9160   23.3550 C   0  0  0  0  0  0  0  0  0  0  0  0
  -26.5660  -34.8520   22.3190 O   0  0  0  0  0  0  0  0  0  0  0  0
  -24.9840  -33.9580   24.8870 H   0  0  0  0  0  0  0  0  0  0  0  0
  -24.1570  -36.7080   23.0540 C   0  0  0  0  0  1  0  0  0  0  0  0
  -25.3980  -36.2850   23.8570 C   0  0  0  0  0  3  0  0  0  0  0  0
  -27.5220  -37.1570   24.7250 C   0  0  0  0  0  1  0  0  0  0  0  0
  -26.4220  -37.3490   23.7830 N   0  0  0  0  0  0  0  0  0  0  0  0
  -26.0090  -38.2600   23.9610 H   0  0  0  0  0  0  0  0  0  0  0  0
  -26.4350  -31.6490   24.9540 C   0  0  1  0  0  0  0  0  0  0  0  0
  -25.3530  -31.3660   26.0220 C   0  0  0  0  0  1  0  0  0  0  0  0
  -27.0310  -30.2910   24.5140 C   0  0  0  0  0  1  0  0  0  0  0  0
  -27.5810  -32.4350   25.6320 C   0  0  0  0  0  1  0  0  0  0  0  0
  -30.1380  -15.6850   20.6950 C   0  0  0  0  0  0  0  0  0  0  0  0
  -29.9700  -15.3490   21.9080 N   0  0  0  0  0  0  0  0  0  0  0  0
  -29.7400  -16.1570   22.4740 H   0  0  0  0  0  0  0  0  0  0  0  0
  -30.5300  -14.6030   19.6270 C   0  0  0  0  0  0  0  0  0  0  0  0
  -30.1070  -12.4280   18.4790 C   0  0  0  0  0  2  0  0  0  0  0  0
  -29.0120  -12.5970   17.4030 C   0  0  0  0  0  2  0  0  0  0  0  0
  -27.6130  -12.4020   18.0150 C   0  0  0  0  0  2  0  0  0  0  0  0
  -27.4250  -13.2090   19.3270 C   0  0  0  0  0  3  0  0  0  0  0  0
  -28.6220  -13.0170   20.2840 C   0  0  0  0  0  2  0  0  0  0  0  0
  -29.8530  -13.4010   19.5680 N   0  0  0  0  0  0  0  0  0  0  0  0
  -31.4930  -14.8170   18.8850 O   0  0  0  0  0  0  0  0  0  0  0  0
  -25.1460  -13.7470   20.3860 C   0  0  0  0  0  0  0  0  0  0  0  0
  -24.1440  -12.9520   20.8670 C   0  0  0  0  0  0  0  0  0  0  0  0
  -24.5950  -11.6080   20.6970 C   0  0  0  0  0  0  0  0  0  0  0  0
  -26.1540  -12.8920   19.9760 N   0  0  0  0  0  0  0  0  0  0  0  0
  -25.8310  -11.5930   20.2120 N   0  0  0  0  0  0  0  0  0  0  0  0
  -23.8940  -10.3360   20.9130 C   0  0  0  0  0  0  0  0  0  0  0  0
  -24.3980   -9.3550   21.7930 C   0  0  0  0  0  3  0  0  0  0  0  0
  -23.6950   -8.1480   21.9970 C   0  0  0  0  0  3  0  0  0  0  0  0
  -22.4730   -7.9160   21.3210 C   0  0  0  0  0  0  0  0  0  0  0  0
  -21.9870   -8.8870   20.4290 C   0  0  0  0  0  3  0  0  0  0  0  0
  -22.6910  -10.0850   20.2230 C   0  0  0  0  0  3  0  0  0  0  0  0
  -21.7360   -6.7620   21.4370 O   0  0  0  0  0  0  0  0  0  0  0  0
  -21.7120   -6.0380   22.6020 C   0  0  0  0  0  0  0  0  0  0  0  0
  -21.2950   -6.6090   23.8250 C   0  0  0  0  0  3  0  0  0  0  0  0
  -21.2190   -5.8120   24.9840 C   0  0  0  0  0  3  0  0  0  0  0  0
  -21.5490   -4.4440   24.9220 C   0  0  0  0  0  0  0  0  0  0  0  0
  -21.9590   -3.8730   23.7040 C   0  0  0  0  0  3  0  0  0  0  0  0
  -22.0370   -4.6680   22.5470 C   0  0  0  0  0  0  0  0  0  0  0  0
  -22.4120   -4.1090   21.3710 F   0  0  0  0  0  0  0  0  0  0  0  0
  -21.4680   -3.6760   26.0330 F   0  0  0  0  0  0  0  0  0  0  0  0
  -22.8050  -13.4110   21.3690 C   0  0  0  0  0  0  0  0  0  0  0  0
  -22.2160  -12.6740   22.3040 N   0  0  0  0  0  0  0  0  0  0  0  0
  -22.2980  -14.4600   20.9730 O   0  0  0  0  0  0  0  0  0  0  0  0
  -22.6430  -11.8240   22.6430 H   0  0  0  0  0  0  0  0  0  0  0  0
  -21.3280  -12.9640   22.6860 H   0  0  0  0  0  0  0  0  0  0  0  0
  -25.2660  -15.1220   20.2420 N   0  0  0  0  0  0  0  0  0  0  0  0
  -24.5190  -15.7540   20.5020 H   0  0  0  0  0  0  0  0  0  0  0  0
  -26.1270  -15.6010   20.0030 H   0  0  0  0  0  0  0  0  0  0  0  0
  -33.4480  -18.0650   20.0340 C   0  0  0  0  0  1  0  0  0  0  0  0
  -32.3590  -17.8780   21.0960 C   0  0  0  0  0  2  0  0  0  0  0  0
  -26.4390  -17.2140   20.3530 C   0  0  0  0  0  1  0  0  0  0  0  0
  -27.6800  -16.7630   19.8110 O   0  0  0  0  0  0  0  0  0  0  0  0
  1  4  1  0
  2  5  1  0
  2  6  2  0
  3  4  2  0
  3 54  1  0
  4 94  1  0
  5  1  2  0
  6  3  1  0
  7  9  2  0
  8  5  1  0
  8  7  1  0
 10  8  1  0
 11  7  1  0
 11 12  1  0
 13 15  1  0
 13 12  1  0
 14 25  2  0
 15 20  1  0
 16 24  1  0
 16 26  1  0
 17 23  1  0
 17 19  1  0
 18 24  1  0
 19 18  1  0
 20 19  2  0
 21 22  1  0
 21 15  2  0
 22 17  2  0
 23 16  1  0
 24 14  1  0
 26 28  2  0
 27 26  1  0
 29 27  1  0
 30 39  2  0
 30 35  1  0
 31 27  1  0
 31 35  1  0
 32 31  1  0
 33 34  1  0
 33 32  1  0
 34 30  1  0
 35 36  2  0
 36 37  1  0
 38 37  2  0
 39 38  1  0
 40 14  1  0
 40 41  1  0
 40 50  1  0
 41 44  1  0
 42 46  1  0
 42 41  1  0
 43 42  2  0
 46 45  1  0
 48 46  1  0
 48 49  1  0
 48 47  1  0
 50 53  1  1
 50 51  1  0
 52 50  1  0
 54 55  2  0
 55 56  1  0
 57 54  1  0
 58 63  1  0
 59 60  1  0
 59 58  1  0
 61 60  1  0
 61 68  1  0
 61 62  1  0
 63 57  1  0
 63 62  1  0
 64 57  2  0
 65 66  2  0
 66 85  1  0
 67 66  1  0
 67 70  1  0
 68 69  1  0
 68 65  1  0
 69 67  2  0
 70 71  1  0
 71 72  2  0
 73 76  1  0
 73 72  1  0
 74 73  2  0
 75 74  1  0
 75 70  2  0
 76 77  1  0
 77 78  1  0
 78 79  2  0
 80 79  1  0
 80 84  1  0
 81 80  2  0
 82 77  2  0
 82 81  1  0
 83 82  1  0
 85 86  1  0
 86 88  1  0
 86 89  1  0
 87 85  2  0
 90 65  1  0
 90 91  1  0
 92 90  1  0
 93 94  1  0
 96  6  1  0
 96 95  1  0
M  ISO  4  12 101  13 101  54 100  57 100
M  END
>  <TORSDO>  (61) 
F 22

>  <SCORE>  (61) 
-12.348

>  <name>  (61) 
60

>  <ligand_id>  (61) 
60

>  <original_smiles>  (61) 
[H]N=C(C(=O)N1C([H])([H])C([H])([H])C([H])([H])C([H])(n2nc(-c3c([H])c([H])c(Oc4c([H])c([H])c(F)c([H])c4F)c([H])c3[H])c(C(=O)N([H])[H])c2N([H])[H])C1([H])[H])c1c(OC([H])([H])[H])c([H])c(N([H])C(=O)C([H])([H])C([H])([H])Oc2c([H])c([H])c3c(c2[H])C([H])([H])N(C(=O)C([H])(N([H])C(=O)C([H])(N([H])C([H])([H])[H])C([H])([H])[H])C(C([H])([H])[H])(C([H])([H])[H])C([H])([H])[H])C([H])(C(=O)N([H])C2([H])c4c([H])c([H])c([H])c([H])c4C([H])([H])C([H])([H])C2([H])[H])C3([H])[H])c([H])c1C([H])([H])C([H])([H])[H]

>  <smiles>  (61) 
[H]N=C(C(=O)N1C([H])([H])C([H])([H])C([H])([H])C([H])(n2nc(-c3c([H])c([H])c(Oc4c([H])c([H])c(F)c([H])c4F)c([H])c3[H])c(C(=O)N([H])[H])c2N([H])[H])C1([H])[H])c1c(OC([H])([H])[H])c([H])c(N([H])C(=O)C([H])([H])C([H])([H])Oc2c([H])c([H])c3c(c2[H])C([H])([H])N(C(=O)C([H])(N([H])C(=O)C([H])(N([H])C([H])([H])[H])C([H])([H])[H])C(C([H])([H])[H])(C([H])([H])[H])C([H])([H])[H])C([H])(C(=O)N([H])C2([H])c4c([H])c([H])c([H])c([H])c4C([H])([H])C([H])([H])C2([H])[H])C3([H])[H])c([H])c1C([H])([H])C([H])([H])[H]

$$$$
61:0:0
     RDKit          3D

 96105  0  0  1  0  0  0  0  0999 V2000
  -29.9590  -22.0260   21.2780 C   0  0  0  0  0  2  0  0  0  0  0  0
  -30.9580  -25.2390   19.7470 C   0  0  0  0  0  2  0  0  0  0  0  0
  -31.2660  -23.7520   19.9930 C   0  0  0  0  0  2  0  0  0  0  0  0
  -29.7210  -24.4960   21.6640 C   0  0  0  0  0  2  0  0  0  0  0  0
  -30.3950  -25.7440   21.0820 C   0  0  0  0  0  3  0  0  0  0  0  0
  -30.5870  -23.3700   21.2560 N   0  0  1  0  0  4  0  0  0  0  0  0
  -31.3220  -23.2840   21.9500 H   0  0  0  0  0  0  0  0  0  0  0  0
  -29.4810  -26.9800   20.9880 C   0  0  0  0  0  2  0  0  0  0  0  0
  -28.4430  -26.7240   20.0480 O   0  0  0  0  0  0  0  0  0  0  0  0
  -24.6220  -31.8640   23.2120 C   0  0  0  0  0  0  0  0  0  0  0  0
  -27.3090  -27.5000   20.0990 C   0  0  0  0  0  0  0  0  0  0  0  0
  -23.4220  -30.4730   21.5500 C   0  0  0  0  0  3  0  0  0  0  0  0
  -24.8900  -28.9600   20.1160 C   0  0  0  0  0  0  0  0  0  0  0  0
  -25.9400  -30.8610   21.3560 C   0  0  0  0  0  2  0  0  0  0  0  0
  -26.0360  -29.4960   20.7150 C   0  0  0  0  0  0  0  0  0  0  0  0
  -27.2470  -28.7750   20.7110 C   0  0  0  0  0  3  0  0  0  0  0  0
  -26.1520  -26.9760   19.4910 C   0  0  0  0  0  3  0  0  0  0  0  0
  -24.9400  -27.6950   19.5030 C   0  0  0  0  0  3  0  0  0  0  0  0
  -23.6380  -29.8040   20.1640 C   0  0  0  0  0  2  0  0  0  0  0  0
  -24.6790  -31.0810   22.0970 N   0  0  0  0  0  0  0  0  0  0  0  0
  -23.5410  -32.1220   23.7570 O   0  0  0  0  0  0  0  0  0  0  0  0
  -22.7800  -29.4390   22.4990 C   0  0  0  0  0  0  0  0  0  0  0  0
  -21.4560  -29.2520   22.3700 N   0  0  0  0  0  0  0  0  0  0  0  0
  -23.4670  -28.8060   23.3050 O   0  0  0  0  0  0  0  0  0  0  0  0
  -20.9630  -29.8150   21.6890 H   0  0  0  0  0  0  0  0  0  0  0  0
  -18.0850  -28.0510   22.8510 C   0  0  0  0  0  0  0  0  0  0  0  0
  -20.6420  -28.3040   23.1300 C   0  0  0  0  0  3  0  0  0  0  0  0
  -20.7460  -26.8800   22.5370 C   0  0  0  0  0  2  0  0  0  0  0  0
  -19.6470  -26.5710   21.5180 C   0  0  0  0  0  2  0  0  0  0  0  0
  -18.2630  -26.7090   22.1610 C   0  0  0  0  0  2  0  0  0  0  0  0
  -19.2030  -28.8060   23.2920 C   0  0  0  0  0  0  0  0  0  0  0  0
  -18.9840  -30.0640   23.8960 C   0  0  0  0  0  3  0  0  0  0  0  0
  -17.6790  -30.5640   24.0650 C   0  0  0  0  0  3  0  0  0  0  0  0
  -16.5750  -29.8040   23.6400 C   0  0  0  0  0  3  0  0  0  0  0  0
  -16.7790  -28.5490   23.0370 C   0  0  0  0  0  3  0  0  0  0  0  0
  -25.9080  -32.4910   23.8400 C   0  0  0  0  0  3  0  0  0  0  0  0
  -26.4340  -31.7020   25.1000 C   0  0  1  0  0  0  0  0  0  0  0  0
  -25.3450  -31.4400   26.1670 C   0  0  0  0  0  1  0  0  0  0  0  0
  -27.0220  -30.3350   24.6790 C   0  0  0  0  0  1  0  0  0  0  0  0
  -27.5800  -32.4910   25.7730 C   0  0  0  0  0  1  0  0  0  0  0  0
  -25.5950  -33.8830   24.1880 N   0  0  0  0  0  0  0  0  0  0  0  0
  -25.9080  -34.9430   23.4290 C   0  0  0  0  0  0  0  0  0  0  0  0
  -26.5630  -34.8520   22.3870 O   0  0  0  0  0  0  0  0  0  0  0  0
  -25.0140  -34.0280   25.0000 H   0  0  0  0  0  0  0  0  0  0  0  0
  -24.1540  -36.7150   23.1180 C   0  0  0  0  0  1  0  0  0  0  0  0
  -25.4150  -36.3230   23.9030 C   0  0  0  0  0  3  0  0  0  0  0  0
  -27.5560  -37.2300   24.6900 C   0  0  0  0  0  1  0  0  0  0  0  0
  -26.4330  -37.3890   23.7710 N   0  0  0  0  0  0  0  0  0  0  0  0
  -26.0200  -38.3040   23.9290 H   0  0  0  0  0  0  0  0  0  0  0  0
  -31.0360  -21.0270   21.7250 C   0  0  0  0  0  0  0  0  0  0  0  0
  -32.0590  -21.4610   22.2700 O   0  0  0  0  0  0  0  0  0  0  0  0
  -29.4920  -19.0340   21.4990 C   0  0  0  0  0  3  0  0  0  0  0  0
  -29.2830  -17.6500   21.3250 C   0  0  0  0  0  3  0  0  0  0  0  0
  -31.6760  -17.3220   21.0540 C   0  0  0  0  0  3  0  0  0  0  0  0
  -30.7970  -19.5780   21.4600 C   0  0  0  0  0  0  0  0  0  0  0  0
  -30.3700  -16.7780   21.0940 C   0  0  0  0  0  0  0  0  0  0  0  0
  -31.8890  -18.7050   21.2360 C   0  0  0  0  0  0  0  0  0  0  0  0
  -33.1580  -19.1800   21.1780 F   0  0  0  0  0  0  0  0  0  0  0  0
  -30.6840  -14.4710   20.1730 C   0  0  0  0  0  0  0  0  0  0  0  0
  -30.2890  -12.3860   18.9150 C   0  0  0  0  0  2  0  0  0  0  0  0
  -29.2910  -12.6560   17.7710 C   0  0  0  0  0  2  0  0  0  0  0  0
  -27.8370  -12.5210   18.2650 C   0  0  0  0  0  2  0  0  0  0  0  0
  -27.5730  -13.3090   19.5780 C   0  0  0  0  0  3  0  0  0  0  0  0
  -28.6740  -13.0060   20.6200 C   0  0  0  0  0  2  0  0  0  0  0  0
  -29.9810  -13.3180   20.0110 N   0  0  0  0  0  0  0  0  0  0  0  0
  -31.7470  -14.6910   19.5860 O   0  0  0  0  0  0  0  0  0  0  0  0
  -30.0830  -15.3870   20.9550 N   0  0  0  0  0  0  0  0  0  0  0  0
  -29.2070  -15.0770   21.3450 H   0  0  0  0  0  0  0  0  0  0  0  0
  -25.2050  -13.9150   20.3940 C   0  0  0  0  0  0  0  0  0  0  0  0
  -24.1520  -13.1410   20.8020 C   0  0  0  0  0  0  0  0  0  0  0  0
  -24.6060  -11.7890   20.7330 C   0  0  0  0  0  0  0  0  0  0  0  0
  -26.2380  -13.0340   20.1080 N   0  0  0  0  0  0  0  0  0  0  0  0
  -25.8820  -11.7510   20.3670 N   0  0  0  0  0  0  0  0  0  0  0  0
  -23.8850  -10.5260   20.9380 C   0  0  0  0  0  0  0  0  0  0  0  0
  -24.3310   -9.5660   21.8730 C   0  0  0  0  0  3  0  0  0  0  0  0
  -23.6110   -8.3670   22.0660 C   0  0  0  0  0  3  0  0  0  0  0  0
  -22.4320   -8.1200   21.3220 C   0  0  0  0  0  0  0  0  0  0  0  0
  -22.0070   -9.0690   20.3760 C   0  0  0  0  0  3  0  0  0  0  0  0
  -22.7280  -10.2590   20.1810 C   0  0  0  0  0  3  0  0  0  0  0  0
  -21.6820   -6.9730   21.4230 O   0  0  0  0  0  0  0  0  0  0  0  0
  -21.6070   -6.2630   22.5940 C   0  0  0  0  0  0  0  0  0  0  0  0
  -21.1470   -6.8490   23.7940 C   0  0  0  0  0  3  0  0  0  0  0  0
  -21.0210   -6.0640   24.9580 C   0  0  0  0  0  3  0  0  0  0  0  0
  -21.3450   -4.6960   24.9230 C   0  0  0  0  0  0  0  0  0  0  0  0
  -21.7980   -4.1090   23.7280 C   0  0  0  0  0  3  0  0  0  0  0  0
  -21.9270   -4.8900   22.5670 C   0  0  0  0  0  0  0  0  0  0  0  0
  -22.3440   -4.3150   21.4140 F   0  0  0  0  0  0  0  0  0  0  0  0
  -21.2150   -3.9410   26.0390 F   0  0  0  0  0  0  0  0  0  0  0  0
  -22.7690  -13.6190   21.1410 C   0  0  0  0  0  0  0  0  0  0  0  0
  -22.0770  -12.9150   22.0310 N   0  0  0  0  0  0  0  0  0  0  0  0
  -22.3110  -14.6500   20.6510 O   0  0  0  0  0  0  0  0  0  0  0  0
  -22.4580  -12.0800   22.4520 H   0  0  0  0  0  0  0  0  0  0  0  0
  -21.1510  -13.2160   22.2960 H   0  0  0  0  0  0  0  0  0  0  0  0
  -25.3630  -15.2870   20.2240 N   0  0  0  0  0  0  0  0  0  0  0  0
  -24.5900  -15.9330   20.3520 H   0  0  0  0  0  0  0  0  0  0  0  0
  -26.1840  -15.7290   19.8300 H   0  0  0  0  0  0  0  0  0  0  0  0
  1 50  1  0
  2  3  1  0
  2  5  1  0
  3  6  1  0
  5  8  1  0
  5  4  1  0
  6  1  1  0
  6  4  1  0
  6  7  1  1
  9 11  1  0
  9  8  1  0
 10 21  2  0
 11 16  1  0
 12 20  1  0
 12 22  1  0
 13 19  1  0
 13 15  1  0
 14 20  1  0
 15 14  1  0
 16 15  2  0
 17 18  1  0
 17 11  2  0
 18 13  2  0
 19 12  1  0
 20 10  1  0
 22 24  2  0
 23 22  1  0
 25 23  1  0
 26 35  2  0
 26 31  1  0
 27 23  1  0
 27 31  1  0
 28 27  1  0
 29 30  1  0
 29 28  1  0
 30 26  1  0
 31 32  2  0
 32 33  1  0
 34 33  2  0
 35 34  1  0
 36 10  1  0
 36 41  1  0
 36 37  1  0
 37 40  1  1
 37 38  1  0
 39 37  1  0
 41 44  1  0
 42 46  1  0
 42 41  1  0
 43 42  2  0
 46 45  1  0
 48 46  1  0
 48 49  1  0
 48 47  1  0
 50 51  2  0
 53 52  2  0
 54 56  2  0
 54 57  1  0
 55 52  1  0
 55 50  1  0
 56 53  1  0
 57 55  2  0
 58 57  1  0
 59 67  1  0
 60 65  1  0
 61 62  1  0
 61 60  1  0
 63 62  1  0
 63 72  1  0
 63 64  1  0
 65 59  1  0
 65 64  1  0
 66 59  2  0
 67 56  1  0
 67 68  1  0
 69 70  2  0
 70 89  1  0
 71 70  1  0
 71 74  1  0
 72 73  1  0
 72 69  1  0
 73 71  2  0
 74 75  1  0
 75 76  2  0
 77 80  1  0
 77 76  1  0
 78 77  2  0
 79 78  1  0
 79 74  2  0
 80 81  1  0
 81 82  1  0
 82 83  2  0
 84 83  1  0
 84 88  1  0
 85 84  2  0
 86 81  2  0
 86 85  1  0
 87 86  1  0
 89 90  1  0
 90 93  1  0
 90 92  1  0
 91 89  2  0
 94 95  1  0
 94 69  1  0
 96 94  1  0
M  ISO  4   8 101   9 101  59 100  67 100
M  END
>  <TORSDO>  (62) 
F 20

>  <SCORE>  (62) 
-13.550

>  <name>  (62) 
61

>  <ligand_id>  (62) 
61

>  <original_smiles>  (62) 
[H]c1c([H])c([H])c2c(c1[H])C([H])([H])C([H])([H])C([H])([H])C2([H])N([H])C(=O)C1([H])N(C(=O)C([H])(N([H])C(=O)C([H])(N([H])C([H])([H])[H])C([H])([H])[H])C(C([H])([H])[H])(C([H])([H])[H])C([H])([H])[H])C([H])([H])c2c([H])c(OC([H])([H])C3([H])C([H])([H])C([H])([H])[N+]([H])(C([H])([H])C(=O)c4c([H])c([H])c(N([H])C(=O)N5C([H])([H])C([H])([H])C([H])([H])C([H])(n6nc(-c7c([H])c([H])c(Oc8c([H])c([H])c(F)c([H])c8F)c([H])c7[H])c(C(=O)N([H])[H])c6N([H])[H])C5([H])[H])c([H])c4F)C3([H])[H])c([H])c([H])c2C1([H])[H]

>  <smiles>  (62) 
[H]c1c([H])c([H])c2c(c1[H])C([H])([H])C([H])([H])C([H])([H])C2([H])N([H])C(=O)C1([H])N(C(=O)C([H])(N([H])C(=O)C([H])(N([H])C([H])([H])[H])C([H])([H])[H])C(C([H])([H])[H])(C([H])([H])[H])C([H])([H])[H])C([H])([H])c2c([H])c(OC([H])([H])C3([H])C([H])([H])C([H])([H])[N+]([H])(C([H])([H])C(=O)c4c([H])c([H])c(N([H])C(=O)N5C([H])([H])C([H])([H])C([H])([H])C([H])(n6nc(-c7c([H])c([H])c(Oc8c([H])c([H])c(F)c([H])c8F)c([H])c7[H])c(C(=O)N([H])[H])c6N([H])[H])C5([H])[H])c([H])c4F)C3([H])[H])c([H])c([H])c2C1([H])[H]

$$$$
62:0:0
     RDKit          3D

 92100  0  0  1  0  0  0  0  0999 V2000
  -28.2920  -16.9650   20.4970 C   0  0  0  0  0  3  0  0  0  0  0  0
  -29.9820  -18.6820   20.3140 C   0  0  0  0  0  3  0  0  0  0  0  0
  -27.6740  -19.2070   19.7120 C   0  0  0  0  0  3  0  0  0  0  0  0
  -29.6500  -17.3040   20.6830 C   0  0  0  0  0  0  0  0  0  0  0  0
  -27.3130  -17.8740   20.0390 C   0  0  0  0  0  0  0  0  0  0  0  0
  -29.0060  -19.6660   19.8260 C   0  0  0  0  0  0  0  0  0  0  0  0
  -30.4490  -16.2450   21.5320 C   0  0  0  0  0  0  0  0  0  0  0  0
  -30.5100  -16.4690   22.7810 N   0  0  0  0  0  0  0  0  0  0  0  0
  -30.0270  -17.3250   23.0240 H   0  0  0  0  0  0  0  0  0  0  0  0
  -31.1720  -14.9090   21.0230 C   0  0  0  0  0  0  0  0  0  0  0  0
  -31.2240  -12.4330   20.6130 C   0  0  0  0  0  2  0  0  0  0  0  0
  -30.5280  -12.0970   19.2760 C   0  0  0  0  0  2  0  0  0  0  0  0
  -29.0170  -11.9090   19.4950 C   0  0  0  0  0  2  0  0  0  0  0  0
  -28.3970  -13.0550   20.3370 C   0  0  0  0  0  3  0  0  0  0  0  0
  -29.2280  -13.3450   21.6080 C   0  0  0  0  0  2  0  0  0  0  0  0
  -30.5980  -13.6580   21.1780 N   0  0  0  0  0  0  0  0  0  0  0  0
  -32.3350  -14.9930   20.6110 O   0  0  0  0  0  0  0  0  0  0  0  0
  -25.9350  -13.6850   20.6800 C   0  0  0  0  0  0  0  0  0  0  0  0
  -24.8250  -12.9360   20.9560 C   0  0  0  0  0  0  0  0  0  0  0  0
  -25.2780  -11.5860   21.0660 C   0  0  0  0  0  0  0  0  0  0  0  0
  -26.9960  -12.7950   20.6470 N   0  0  0  0  0  0  0  0  0  0  0  0
  -26.5980  -11.5300   20.9370 N   0  0  0  0  0  0  0  0  0  0  0  0
  -24.5230  -10.3370   21.2270 C   0  0  0  0  0  0  0  0  0  0  0  0
  -24.8360   -9.4090   22.2440 C   0  0  0  0  0  3  0  0  0  0  0  0
  -24.0810   -8.2250   22.3900 C   0  0  0  0  0  3  0  0  0  0  0  0
  -22.9980   -7.9610   21.5190 C   0  0  0  0  0  0  0  0  0  0  0  0
  -22.7040   -8.8780   20.4930 C   0  0  0  0  0  3  0  0  0  0  0  0
  -23.4600  -10.0530   20.3450 C   0  0  0  0  0  3  0  0  0  0  0  0
  -22.2260   -6.8250   21.5700 O   0  0  0  0  0  0  0  0  0  0  0  0
  -22.0300   -6.1410   22.7430 C   0  0  0  0  0  0  0  0  0  0  0  0
  -21.4750   -6.7610   23.8840 C   0  0  0  0  0  3  0  0  0  0  0  0
  -21.2280   -6.0050   25.0460 C   0  0  0  0  0  3  0  0  0  0  0  0
  -21.5260   -4.6290   25.0680 C   0  0  0  0  0  0  0  0  0  0  0  0
  -22.0740   -4.0080   23.9310 C   0  0  0  0  0  3  0  0  0  0  0  0
  -22.3230   -4.7630   22.7720 C   0  0  0  0  0  0  0  0  0  0  0  0
  -22.8320   -4.1560   21.6720 F   0  0  0  0  0  0  0  0  0  0  0  0
  -21.2810   -3.8980   26.1820 F   0  0  0  0  0  0  0  0  0  0  0  0
  -23.4080  -13.4310   21.0130 C   0  0  0  0  0  0  0  0  0  0  0  0
  -22.5720  -12.8000   21.8300 N   0  0  0  0  0  0  0  0  0  0  0  0
  -23.0480  -14.4130   20.3670 O   0  0  0  0  0  0  0  0  0  0  0  0
  -22.8730  -12.0060   22.3750 H   0  0  0  0  0  0  0  0  0  0  0  0
  -21.6150  -13.1170   21.9130 H   0  0  0  0  0  0  0  0  0  0  0  0
  -26.1270  -15.0370   20.4280 N   0  0  0  0  0  0  0  0  0  0  0  0
  -25.3670  -15.7070   20.4470 H   0  0  0  0  0  0  0  0  0  0  0  0
  -27.0090  -15.4570   20.1640 H   0  0  0  0  0  0  0  0  0  0  0  0
  -24.9850  -18.2530   19.5450 C   0  0  0  0  0  1  0  0  0  0  0  0
  -26.0290  -17.3780   19.9520 O   0  0  0  0  0  0  0  0  0  0  0  0
  -29.2980  -21.0040   19.3900 O   0  0  0  0  0  0  0  0  0  0  0  0
  -28.7580  -22.2540   20.0400 C   0  0  0  0  0  2  0  0  0  0  0  0
  -27.7800  -23.4130   19.4080 C   0  0  0  0  0  2  0  0  0  0  0  0
  -28.2450  -24.8220   18.7230 C   0  0  0  0  0  2  0  0  0  0  0  0
  -28.1760  -26.2050   19.3360 O   0  0  0  0  0  0  0  0  0  0  0  0
  -24.5470  -31.3440   22.9170 C   0  0  0  0  0  0  0  0  0  0  0  0
  -27.0550  -27.0690   19.3430 C   0  0  0  0  0  0  0  0  0  0  0  0
  -23.2920  -30.1020   21.1900 C   0  0  0  0  0  3  0  0  0  0  0  0
  -24.6970  -28.7060   19.5590 C   0  0  0  0  0  0  0  0  0  0  0  0
  -25.8260  -30.4410   20.9560 C   0  0  0  0  0  2  0  0  0  0  0  0
  -25.8850  -29.1300   20.1680 C   0  0  0  0  0  0  0  0  0  0  0  0
  -27.0610  -28.3230   20.0500 C   0  0  0  0  0  3  0  0  0  0  0  0
  -25.8480  -26.7180   18.7050 C   0  0  0  0  0  3  0  0  0  0  0  0
  -24.6870  -27.5140   18.8150 C   0  0  0  0  0  3  0  0  0  0  0  0
  -23.4580  -29.5640   19.7420 C   0  0  0  0  0  2  0  0  0  0  0  0
  -24.5750  -30.6440   21.7430 N   0  0  0  0  0  0  0  0  0  0  0  0
  -23.4830  -31.5660   23.5150 O   0  0  0  0  0  0  0  0  0  0  0  0
  -22.6660  -28.9960   22.0710 C   0  0  0  0  0  0  0  0  0  0  0  0
  -21.3400  -28.8110   21.9600 N   0  0  0  0  0  0  0  0  0  0  0  0
  -23.3720  -28.3100   22.8140 O   0  0  0  0  0  0  0  0  0  0  0  0
  -20.8290  -29.4140   21.3300 H   0  0  0  0  0  0  0  0  0  0  0  0
  -17.9950  -27.5060   22.4110 C   0  0  0  0  0  0  0  0  0  0  0  0
  -20.5530  -27.7940   22.6610 C   0  0  0  0  0  3  0  0  0  0  0  0
  -20.6740  -26.4210   21.9590 C   0  0  0  0  0  2  0  0  0  0  0  0
  -19.5580  -26.1680   20.9390 C   0  0  0  0  0  2  0  0  0  0  0  0
  -18.1850  -26.2250   21.6150 C   0  0  0  0  0  2  0  0  0  0  0  0
  -19.1070  -28.2510   22.8850 C   0  0  0  0  0  0  0  0  0  0  0  0
  -18.8750  -29.4540   23.5880 C   0  0  0  0  0  3  0  0  0  0  0  0
  -17.5660  -29.9090   23.8250 C   0  0  0  0  0  3  0  0  0  0  0  0
  -16.4670  -29.1610   23.3670 C   0  0  0  0  0  3  0  0  0  0  0  0
  -16.6830  -27.9610   22.6650 C   0  0  0  0  0  3  0  0  0  0  0  0
  -25.8490  -31.9210   23.5530 C   0  0  0  0  0  3  0  0  0  0  0  0
  -25.5530  -33.2850   24.0200 N   0  0  0  0  0  0  0  0  0  0  0  0
  -25.9140  -34.4050   23.3800 C   0  0  0  0  0  0  0  0  0  0  0  0
  -26.6020  -34.3960   22.3550 O   0  0  0  0  0  0  0  0  0  0  0  0
  -24.9430  -33.3680   24.8190 H   0  0  0  0  0  0  0  0  0  0  0  0
  -24.2350  -36.2670   23.1700 C   0  0  0  0  0  1  0  0  0  0  0  0
  -25.4390  -35.7480   23.9700 C   0  0  0  0  0  3  0  0  0  0  0  0
  -27.5580  -36.4900   24.9670 C   0  0  0  0  0  1  0  0  0  0  0  0
  -26.4950  -36.7830   24.0070 N   0  0  0  0  0  0  0  0  0  0  0  0
  -26.1010  -37.6890   24.2420 H   0  0  0  0  0  0  0  0  0  0  0  0
  -26.4050  -31.0370   24.7350 C   0  0  1  0  0  0  0  0  0  0  0  0
  -25.3460  -30.7110   25.8130 C   0  0  0  0  0  1  0  0  0  0  0  0
  -26.9660  -29.6960   24.2060 C   0  0  0  0  0  1  0  0  0  0  0  0
  -27.5840  -31.7700   25.4200 C   0  0  0  0  0  1  0  0  0  0  0  0
  1  4  1  0
  2  4  2  0
  3  6  2  0
  3  5  1  0
  4  7  1  0
  5  1  2  0
  6  2  1  0
  7  8  2  0
  8  9  1  0
 10 16  1  0
 10  7  1  0
 11 16  1  0
 12 13  1  0
 12 11  1  0
 14 13  1  0
 14 21  1  0
 14 15  1  0
 16 15  1  0
 17 10  2  0
 18 19  2  0
 19 38  1  0
 19 20  1  0
 20 23  1  0
 21 18  1  0
 21 22  1  0
 22 20  2  0
 23 24  1  0
 24 25  2  0
 26 29  1  0
 26 25  1  0
 27 26  2  0
 28 27  1  0
 28 23  2  0
 29 30  1  0
 30 35  2  0
 30 31  1  0
 31 32  2  0
 32 33  1  0
 33 37  1  0
 34 33  2  0
 35 34  1  0
 36 35  1  0
 38 39  1  0
 39 42  1  0
 39 41  1  0
 40 38  2  0
 43 44  1  0
 43 18  1  0
 45 43  1  0
 46 47  1  0
 47  5  1  0
 48  6  1  0
 48 49  1  0
 50 49  1  0
 51 52  1  0
 51 50  1  0
 52 54  1  0
 53 64  2  0
 54 59  1  0
 55 63  1  0
 55 65  1  0
 56 62  1  0
 56 58  1  0
 57 63  1  0
 58 57  1  0
 59 58  2  0
 60 61  1  0
 60 54  2  0
 61 56  2  0
 62 55  1  0
 63 53  1  0
 65 67  2  0
 66 65  1  0
 68 66  1  0
 69 78  2  0
 69 74  1  0
 70 66  1  0
 70 74  1  0
 71 70  1  0
 72 73  1  0
 72 71  1  0
 73 69  1  0
 74 75  2  0
 75 76  1  0
 77 76  2  0
 78 77  1  0
 79 53  1  0
 79 80  1  0
 79 89  1  0
 80 83  1  0
 81 85  1  0
 81 80  1  0
 82 81  2  0
 85 84  1  0
 85 87  1  0
 87 88  1  0
 87 86  1  0
 89 92  1  1
 89 90  1  0
 91 89  1  0
M  ISO  4   7 100  10 100  51 101  52 101
M  END
>  <TORSDO>  (63) 
F 22

>  <SCORE>  (63) 
-11.183

>  <name>  (63) 
62

>  <ligand_id>  (63) 
62

>  <original_smiles>  (63) 
[H]N=C(C(=O)N1C([H])([H])C([H])([H])C([H])([H])C([H])(n2nc(-c3c([H])c([H])c(Oc4c([H])c([H])c(F)c([H])c4F)c([H])c3[H])c(C(=O)N([H])[H])c2N([H])[H])C1([H])[H])c1c([H])c(OC([H])([H])[H])c([H])c(OC([H])([H])C([H])([H])C([H])([H])Oc2c([H])c([H])c3c(c2[H])C([H])([H])N(C(=O)C([H])(N([H])C(=O)C([H])(N([H])C([H])([H])[H])C([H])([H])[H])C(C([H])([H])[H])(C([H])([H])[H])C([H])([H])[H])C([H])(C(=O)N([H])C2([H])c4c([H])c([H])c([H])c([H])c4C([H])([H])C([H])([H])C2([H])[H])C3([H])[H])c1[H]

>  <smiles>  (63) 
[H]N=C(C(=O)N1C([H])([H])C([H])([H])C([H])([H])C([H])(n2nc(-c3c([H])c([H])c(Oc4c([H])c([H])c(F)c([H])c4F)c([H])c3[H])c(C(=O)N([H])[H])c2N([H])[H])C1([H])[H])c1c([H])c(OC([H])([H])[H])c([H])c(OC([H])([H])C([H])([H])C([H])([H])Oc2c([H])c([H])c3c(c2[H])C([H])([H])N(C(=O)C([H])(N([H])C(=O)C([H])(N([H])C([H])([H])[H])C([H])([H])[H])C(C([H])([H])[H])(C([H])([H])[H])C([H])([H])[H])C([H])(C(=O)N([H])C2([H])c4c([H])c([H])c([H])c([H])c4C([H])([H])C([H])([H])C2([H])[H])C3([H])[H])c1[H]

$$$$
63:0:0
     RDKit          3D

 95103  0  0  1  0  0  0  0  0999 V2000
  -28.5590  -17.7870   19.9330 C   0  0  0  0  0  3  0  0  0  0  0  0
  -28.0480  -20.1630   19.8240 C   0  0  0  0  0  3  0  0  0  0  0  0
  -29.6810  -18.0270   20.7610 C   0  0  0  0  0  0  0  0  0  0  0  0
  -29.9640  -19.3910   21.1240 C   0  0  0  0  0  0  0  0  0  0  0  0
  -29.1720  -20.4660   20.6300 C   0  0  0  0  0  0  0  0  0  0  0  0
  -27.7450  -18.8370   19.4840 C   0  0  0  0  0  0  0  0  0  0  0  0
  -26.3910  -18.4950   18.4700 Cl  0  0  0  0  0  0  0  0  0  0  0  0
  -30.7490  -14.5050   20.5320 C   0  0  0  0  0  0  0  0  0  0  0  0
  -30.3820  -12.3630   19.3700 C   0  0  0  0  0  2  0  0  0  0  0  0
  -29.4670  -12.5810   18.1510 C   0  0  0  0  0  2  0  0  0  0  0  0
  -27.9860  -12.4580   18.5590 C   0  0  0  0  0  2  0  0  0  0  0  0
  -27.6390  -13.2980   19.8190 C   0  0  0  0  0  3  0  0  0  0  0  0
  -28.6810  -13.0960   20.9430 C   0  0  0  0  0  2  0  0  0  0  0  0
  -30.0140  -13.3680   20.3820 N   0  0  0  0  0  0  0  0  0  0  0  0
  -31.9060  -14.5760   20.1070 O   0  0  0  0  0  0  0  0  0  0  0  0
  -30.5980  -16.8490   21.0750 C   0  0  0  0  0  0  0  0  0  0  0  0
  -30.0790  -15.6010   20.9560 N   0  0  0  0  0  0  0  0  0  0  0  0
  -31.7770  -17.0580   21.3930 O   0  0  0  0  0  0  0  0  0  0  0  0
  -29.0800  -15.5170   21.0230 H   0  0  0  0  0  0  0  0  0  0  0  0
  -25.2340  -13.9130   20.4900 C   0  0  0  0  0  0  0  0  0  0  0  0
  -24.1600  -13.1460   20.8510 C   0  0  0  0  0  0  0  0  0  0  0  0
  -24.6200  -11.7940   20.8410 C   0  0  0  0  0  0  0  0  0  0  0  0
  -26.2800  -13.0270   20.2820 N   0  0  0  0  0  0  0  0  0  0  0  0
  -25.9150  -11.7490   20.5530 N   0  0  0  0  0  0  0  0  0  0  0  0
  -23.8870  -10.5350   21.0310 C   0  0  0  0  0  0  0  0  0  0  0  0
  -24.3060   -9.5700   21.9740 C   0  0  0  0  0  3  0  0  0  0  0  0
  -23.5730   -8.3770   22.1510 C   0  0  0  0  0  3  0  0  0  0  0  0
  -22.4070   -8.1410   21.3860 C   0  0  0  0  0  0  0  0  0  0  0  0
  -22.0080   -9.0930   20.4310 C   0  0  0  0  0  3  0  0  0  0  0  0
  -22.7410  -10.2780   20.2520 C   0  0  0  0  0  3  0  0  0  0  0  0
  -21.6450   -6.9990   21.4730 O   0  0  0  0  0  0  0  0  0  0  0  0
  -21.5850   -6.2610   22.6280 C   0  0  0  0  0  0  0  0  0  0  0  0
  -21.1370   -6.8180   23.8460 C   0  0  0  0  0  3  0  0  0  0  0  0
  -21.0240   -6.0050   24.9920 C   0  0  0  0  0  3  0  0  0  0  0  0
  -21.3490   -4.6380   24.9220 C   0  0  0  0  0  0  0  0  0  0  0  0
  -21.7900   -4.0800   23.7090 C   0  0  0  0  0  3  0  0  0  0  0  0
  -21.9050   -4.8900   22.5640 C   0  0  0  0  0  0  0  0  0  0  0  0
  -22.3110   -4.3420   21.3930 F   0  0  0  0  0  0  0  0  0  0  0  0
  -21.2340   -3.8560   26.0210 F   0  0  0  0  0  0  0  0  0  0  0  0
  -22.7600  -13.6300   21.0960 C   0  0  0  0  0  0  0  0  0  0  0  0
  -22.0170  -12.9450   21.9590 N   0  0  0  0  0  0  0  0  0  0  0  0
  -22.3320  -14.6500   20.5580 O   0  0  0  0  0  0  0  0  0  0  0  0
  -22.3740  -12.1200   22.4180 H   0  0  0  0  0  0  0  0  0  0  0  0
  -21.0760  -13.2510   22.1640 H   0  0  0  0  0  0  0  0  0  0  0  0
  -25.4020  -15.2810   20.2980 N   0  0  0  0  0  0  0  0  0  0  0  0
  -24.6230  -15.9260   20.3710 H   0  0  0  0  0  0  0  0  0  0  0  0
  -26.2320  -15.7140   19.9220 H   0  0  0  0  0  0  0  0  0  0  0  0
  -31.0280  -19.7610   21.9540 N   0  0  0  0  0  0  0  0  0  0  0  0
  -31.3000  -20.7400   21.9270 H   0  0  0  0  0  0  0  0  0  0  0  0
  -31.8190  -19.1240   22.0120 H   0  0  0  0  0  0  0  0  0  0  0  0
  -29.5520  -21.7730   20.9370 O   0  0  0  0  0  0  0  0  0  0  0  0
  -28.7850  -22.8380   20.3570 C   0  0  0  0  0  2  0  0  0  0  0  0
  -29.2410  -24.2770   20.7120 C   0  0  0  0  0  2  0  0  0  0  0  0
  -28.2510  -25.2850   20.0850 C   0  0  0  0  0  2  0  0  0  0  0  0
  -28.4420  -26.6900   20.3560 O   0  0  0  0  0  0  0  0  0  0  0  0
  -24.6320  -31.9520   23.2820 C   0  0  0  0  0  0  0  0  0  0  0  0
  -27.2970  -27.4700   20.2650 C   0  0  0  0  0  0  0  0  0  0  0  0
  -23.4450  -30.5460   21.6330 C   0  0  0  0  0  3  0  0  0  0  0  0
  -24.9130  -29.0080   20.2300 C   0  0  0  0  0  0  0  0  0  0  0  0
  -25.9780  -30.8930   21.4700 C   0  0  0  0  0  2  0  0  0  0  0  0
  -26.0680  -29.5200   20.8360 C   0  0  0  0  0  0  0  0  0  0  0  0
  -27.2620  -28.7590   20.8520 C   0  0  0  0  0  3  0  0  0  0  0  0
  -26.1250  -27.0020   19.6170 C   0  0  0  0  0  3  0  0  0  0  0  0
  -24.9390  -27.7490   19.6160 C   0  0  0  0  0  3  0  0  0  0  0  0
  -23.6710  -29.8670   20.2590 C   0  0  0  0  0  2  0  0  0  0  0  0
  -24.7020  -31.1450   22.1850 N   0  0  0  0  0  0  0  0  0  0  0  0
  -23.5450  -32.2300   23.8050 O   0  0  0  0  0  0  0  0  0  0  0  0
  -22.7800  -29.5270   22.5890 C   0  0  0  0  0  0  0  0  0  0  0  0
  -21.4550  -29.3510   22.4490 N   0  0  0  0  0  0  0  0  0  0  0  0
  -23.4520  -28.9010   23.4120 O   0  0  0  0  0  0  0  0  0  0  0  0
  -20.9750  -29.9040   21.7520 H   0  0  0  0  0  0  0  0  0  0  0  0
  -18.0680  -28.1890   22.9360 C   0  0  0  0  0  0  0  0  0  0  0  0
  -20.6270  -28.4190   23.2160 C   0  0  0  0  0  3  0  0  0  0  0  0
  -20.7170  -26.9880   22.6390 C   0  0  0  0  0  2  0  0  0  0  0  0
  -19.6150  -26.6780   21.6200 C   0  0  0  0  0  2  0  0  0  0  0  0
  -18.2330  -26.8390   22.2590 C   0  0  0  0  0  2  0  0  0  0  0  0
  -19.1930  -28.9380   23.3720 C   0  0  0  0  0  0  0  0  0  0  0  0
  -18.9860  -30.2030   23.9620 C   0  0  0  0  0  3  0  0  0  0  0  0
  -17.6860  -30.7180   24.1240 C   0  0  0  0  0  3  0  0  0  0  0  0
  -16.5760  -29.9650   23.7050 C   0  0  0  0  0  3  0  0  0  0  0  0
  -16.7670  -28.7020   23.1180 C   0  0  0  0  0  3  0  0  0  0  0  0
  -25.9110  -32.5850   23.9120 C   0  0  0  0  0  3  0  0  0  0  0  0
  -25.6050  -33.9890   24.2180 N   0  0  0  0  0  0  0  0  0  0  0  0
  -25.9280  -35.0250   23.4330 C   0  0  0  0  0  0  0  0  0  0  0  0
  -26.5870  -34.9010   22.3970 O   0  0  0  0  0  0  0  0  0  0  0  0
  -25.0200  -34.1600   25.0240 H   0  0  0  0  0  0  0  0  0  0  0  0
  -24.1790  -36.7970   23.0740 C   0  0  0  0  0  1  0  0  0  0  0  0
  -25.4420  -36.4220   23.8660 C   0  0  0  0  0  3  0  0  0  0  0  0
  -27.5870  -37.3430   24.6270 C   0  0  0  0  0  1  0  0  0  0  0  0
  -26.4650  -37.4770   23.7020 N   0  0  0  0  0  0  0  0  0  0  0  0
  -26.0570  -38.4000   23.8290 H   0  0  0  0  0  0  0  0  0  0  0  0
  -26.4060  -31.8270   25.2050 C   0  0  1  0  0  0  0  0  0  0  0  0
  -25.2960  -31.6030   26.2580 C   0  0  0  0  0  1  0  0  0  0  0  0
  -26.9930  -30.4450   24.8360 C   0  0  0  0  0  1  0  0  0  0  0  0
  -27.5480  -32.6270   25.8750 C   0  0  0  0  0  1  0  0  0  0  0  0
  1  3  1  0
  2  5  2  0
  3 16  1  0
  3  4  2  0
  4 48  1  0
  5 51  1  0
  5  4  1  0
  6  2  1  0
  6  1  2  0
  7  6  1  0
  8 17  1  0
  9 14  1  0
 10 11  1  0
 10  9  1  0
 12 11  1  0
 12 23  1  0
 12 13  1  0
 14  8  1  0
 14 13  1  0
 15  8  2  0
 16 18  2  0
 17 19  1  0
 17 16  1  0
 20 21  2  0
 21 40  1  0
 22 21  1  0
 22 25  1  0
 23 20  1  0
 23 24  1  0
 24 22  2  0
 25 26  1  0
 26 27  2  0
 28 31  1  0
 28 27  1  0
 29 28  2  0
 30 29  1  0
 30 25  2  0
 31 32  1  0
 32 33  1  0
 33 34  2  0
 35 34  1  0
 35 39  1  0
 36 35  2  0
 37 32  2  0
 37 36  1  0
 38 37  1  0
 40 41  1  0
 41 44  1  0
 41 43  1  0
 42 40  2  0
 45 46  1  0
 45 20  1  0
 47 45  1  0
 48 50  1  0
 49 48  1  0
 52 53  1  0
 52 51  1  0
 54 55  1  0
 54 53  1  0
 56 67  2  0
 57 55  1  0
 57 62  1  0
 58 66  1  0
 58 68  1  0
 59 65  1  0
 59 61  1  0
 60 66  1  0
 61 62  2  0
 61 60  1  0
 63 57  2  0
 64 63  1  0
 64 59  2  0
 65 58  1  0
 66 56  1  0
 68 70  2  0
 69 68  1  0
 71 69  1  0
 72 81  2  0
 72 77  1  0
 73 69  1  0
 73 77  1  0
 74 73  1  0
 75 76  1  0
 75 74  1  0
 76 72  1  0
 77 78  2  0
 78 79  1  0
 80 79  2  0
 81 80  1  0
 82 56  1  0
 82 83  1  0
 82 92  1  0
 83 86  1  0
 84 88  1  0
 84 83  1  0
 85 84  2  0
 88 87  1  0
 90 91  1  0
 90 88  1  0
 90 89  1  0
 92 95  1  1
 92 93  1  0
 94 92  1  0
M  ISO  4   8 100  17 100  54 101  55 101
M  END
>  <TORSDO>  (64) 
F 21

>  <SCORE>  (64) 
-13.642

>  <name>  (64) 
63

>  <ligand_id>  (64) 
63

>  <original_smiles>  (64) 
[H]c1c([H])c([H])c2c(c1[H])C([H])([H])C([H])([H])C([H])([H])C2([H])N([H])C(=O)C1([H])N(C(=O)C([H])(N([H])C(=O)C([H])(N([H])C([H])([H])[H])C([H])([H])[H])C(C([H])([H])[H])(C([H])([H])[H])C([H])([H])[H])C([H])([H])c2c([H])c(OC([H])([H])C([H])([H])C([H])([H])Oc3c([H])c(Cl)c([H])c(C(=O)N([H])C(=O)N4C([H])([H])C([H])([H])C([H])([H])C([H])(n5nc(-c6c([H])c([H])c(Oc7c([H])c([H])c(F)c([H])c7F)c([H])c6[H])c(C(=O)N([H])[H])c5N([H])[H])C4([H])[H])c3N([H])[H])c([H])c([H])c2C1([H])[H]

>  <smiles>  (64) 
[H]c1c([H])c([H])c2c(c1[H])C([H])([H])C([H])([H])C([H])([H])C2([H])N([H])C(=O)C1([H])N(C(=O)C([H])(N([H])C(=O)C([H])(N([H])C([H])([H])[H])C([H])([H])[H])C(C([H])([H])[H])(C([H])([H])[H])C([H])([H])[H])C([H])([H])c2c([H])c(OC([H])([H])C([H])([H])C([H])([H])Oc3c([H])c(Cl)c([H])c(C(=O)N([H])C(=O)N4C([H])([H])C([H])([H])C([H])([H])C([H])(n5nc(-c6c([H])c([H])c(Oc7c([H])c([H])c(F)c([H])c7F)c([H])c6[H])c(C(=O)N([H])[H])c5N([H])[H])C4([H])[H])c3N([H])[H])c([H])c([H])c2C1([H])[H]

$$$$
64:0:0
     RDKit          3D

 97106  0  0  1  0  0  0  0  0999 V2000
  -29.8170  -21.9830   22.3740 C   0  0  0  0  0  0  0  0  0  0  0  0
  -28.7040  -22.5010   20.3460 C   0  0  0  0  0  0  0  0  0  0  0  0
  -30.1750  -23.4580   22.5580 C   0  0  0  0  0  2  0  0  0  0  0  0
  -29.0140  -24.3680   22.1640 C   0  0  0  0  0  2  0  0  0  0  0  0
  -28.3450  -23.9910   20.8230 C   0  0  0  0  0  3  0  0  0  0  0  0
  -29.3030  -21.5650   21.1840 N   0  0  0  0  0  0  0  0  0  0  0  0
  -30.0180  -21.2220   23.3280 O   0  0  0  0  0  0  0  0  0  0  0  0
  -28.3980  -22.1970   19.1860 O   0  0  0  0  0  0  0  0  0  0  0  0
  -28.3700  -19.2600   20.5810 C   0  0  0  0  0  3  0  0  0  0  0  0
  -28.5530  -17.8590   20.3700 C   0  0  0  0  0  3  0  0  0  0  0  0
  -30.7350  -19.4780   20.9350 C   0  0  0  0  0  3  0  0  0  0  0  0
  -29.4610  -20.1210   20.8730 C   0  0  0  0  0  0  0  0  0  0  0  0
  -29.8240  -17.2170   20.4300 C   0  0  0  0  0  0  0  0  0  0  0  0
  -30.9230  -18.0780   20.7190 C   0  0  0  0  0  0  0  0  0  0  0  0
  -30.6840  -14.7650   20.3490 C   0  0  0  0  0  0  0  0  0  0  0  0
  -30.4780  -12.4690   19.4180 C   0  0  0  0  0  2  0  0  0  0  0  0
  -29.5550  -12.4800   18.1790 C   0  0  0  0  0  2  0  0  0  0  0  0
  -28.0750  -12.3630   18.5960 C   0  0  0  0  0  2  0  0  0  0  0  0
  -27.6850  -13.2800   19.7880 C   0  0  0  0  0  3  0  0  0  0  0  0
  -28.7350  -13.2410   20.9190 C   0  0  0  0  0  2  0  0  0  0  0  0
  -30.0350  -13.5550   20.3140 N   0  0  0  0  0  0  0  0  0  0  0  0
  -31.9110  -14.8030   20.2170 O   0  0  0  0  0  0  0  0  0  0  0  0
  -29.8340  -15.9010   18.4200 C   0  0  0  0  0  1  0  0  0  0  0  0
  -29.9500  -15.8530   19.8890 N   0  0  0  0  0  0  0  0  0  0  0  0
  -25.2850  -13.8780   20.4620 C   0  0  0  0  0  0  0  0  0  0  0  0
  -24.2140  -13.1060   20.8210 C   0  0  0  0  0  0  0  0  0  0  0  0
  -24.6860  -11.7570   20.8250 C   0  0  0  0  0  0  0  0  0  0  0  0
  -26.3380  -12.9990   20.2660 N   0  0  0  0  0  0  0  0  0  0  0  0
  -25.9820  -11.7200   20.5490 N   0  0  0  0  0  0  0  0  0  0  0  0
  -23.9640  -10.4940   21.0170 C   0  0  0  0  0  0  0  0  0  0  0  0
  -24.3910   -9.5410   21.9680 C   0  0  0  0  0  3  0  0  0  0  0  0
  -23.6720   -8.3410   22.1500 C   0  0  0  0  0  3  0  0  0  0  0  0
  -22.5130   -8.0860   21.3790 C   0  0  0  0  0  0  0  0  0  0  0  0
  -22.1060   -9.0260   20.4170 C   0  0  0  0  0  3  0  0  0  0  0  0
  -22.8260  -10.2190   20.2330 C   0  0  0  0  0  3  0  0  0  0  0  0
  -21.7660   -6.9350   21.4670 O   0  0  0  0  0  0  0  0  0  0  0  0
  -21.7080   -6.2030   22.6260 C   0  0  0  0  0  0  0  0  0  0  0  0
  -21.2570   -6.7650   23.8410 C   0  0  0  0  0  3  0  0  0  0  0  0
  -21.1450   -5.9580   24.9900 C   0  0  0  0  0  3  0  0  0  0  0  0
  -21.4750   -4.5900   24.9260 C   0  0  0  0  0  0  0  0  0  0  0  0
  -21.9180   -4.0290   23.7150 C   0  0  0  0  0  3  0  0  0  0  0  0
  -22.0300   -4.8330   22.5670 C   0  0  0  0  0  0  0  0  0  0  0  0
  -22.4360   -4.2820   21.3990 F   0  0  0  0  0  0  0  0  0  0  0  0
  -21.3600   -3.8130   26.0270 F   0  0  0  0  0  0  0  0  0  0  0  0
  -22.8080  -13.5780   21.0500 C   0  0  0  0  0  0  0  0  0  0  0  0
  -22.0640  -12.8910   21.9080 N   0  0  0  0  0  0  0  0  0  0  0  0
  -22.3760  -14.5910   20.5010 O   0  0  0  0  0  0  0  0  0  0  0  0
  -22.4280  -12.0750   22.3770 H   0  0  0  0  0  0  0  0  0  0  0  0
  -21.1170  -13.1850   22.1000 H   0  0  0  0  0  0  0  0  0  0  0  0
  -25.4460  -15.2450   20.2580 N   0  0  0  0  0  0  0  0  0  0  0  0
  -24.6710  -15.8960   20.3230 H   0  0  0  0  0  0  0  0  0  0  0  0
  -26.3000  -15.6710   19.9250 H   0  0  0  0  0  0  0  0  0  0  0  0
  -32.2290  -17.5940   20.7280 N   0  0  0  0  0  0  0  0  0  0  0  0
  -32.9730  -18.2440   20.4950 H   0  0  0  0  0  0  0  0  0  0  0  0
  -32.3740  -16.6670   20.3210 H   0  0  0  0  0  0  0  0  0  0  0  0
  -28.4680  -25.1700   19.7490 C   0  0  0  0  0  2  0  0  0  0  0  0
  -28.3800  -26.5860   20.1850 O   0  0  0  0  0  0  0  0  0  0  0  0
  -24.5990  -31.8950   23.2170 C   0  0  0  0  0  0  0  0  0  0  0  0
  -27.2150  -27.3640   20.1330 C   0  0  0  0  0  0  0  0  0  0  0  0
  -23.3910  -30.5000   21.5730 C   0  0  0  0  0  3  0  0  0  0  0  0
  -24.8390  -28.9570   20.1360 C   0  0  0  0  0  0  0  0  0  0  0  0
  -25.9270  -30.8290   21.3800 C   0  0  0  0  0  2  0  0  0  0  0  0
  -26.0050  -29.4540   20.7280 C   0  0  0  0  0  0  0  0  0  0  0  0
  -27.1920  -28.6690   20.7150 C   0  0  0  0  0  3  0  0  0  0  0  0
  -26.0220  -26.9080   19.5280 C   0  0  0  0  0  3  0  0  0  0  0  0
  -24.8500  -27.6920   19.5270 C   0  0  0  0  0  3  0  0  0  0  0  0
  -23.5970  -29.8230   20.1910 C   0  0  0  0  0  2  0  0  0  0  0  0
  -24.6590  -31.0930   22.1130 N   0  0  0  0  0  0  0  0  0  0  0  0
  -23.5180  -32.1680   23.7560 O   0  0  0  0  0  0  0  0  0  0  0  0
  -22.7370  -29.4780   22.5340 C   0  0  0  0  0  0  0  0  0  0  0  0
  -21.4120  -29.2960   22.4080 N   0  0  0  0  0  0  0  0  0  0  0  0
  -23.4200  -28.8550   23.3510 O   0  0  0  0  0  0  0  0  0  0  0  0
  -20.9220  -29.8530   21.7220 H   0  0  0  0  0  0  0  0  0  0  0  0
  -18.0410  -28.0810   22.8980 C   0  0  0  0  0  0  0  0  0  0  0  0
  -20.5970  -28.3530   23.1750 C   0  0  0  0  0  3  0  0  0  0  0  0
  -20.7060  -26.9220   22.5970 C   0  0  0  0  0  2  0  0  0  0  0  0
  -19.6090  -26.5950   21.5800 C   0  0  0  0  0  2  0  0  0  0  0  0
  -18.2250  -26.7320   22.2210 C   0  0  0  0  0  2  0  0  0  0  0  0
  -19.1540  -28.8480   23.3300 C   0  0  0  0  0  0  0  0  0  0  0  0
  -18.9260  -30.1110   23.9220 C   0  0  0  0  0  3  0  0  0  0  0  0
  -17.6180  -30.6030   24.0840 C   0  0  0  0  0  3  0  0  0  0  0  0
  -16.5190  -29.8320   23.6670 C   0  0  0  0  0  3  0  0  0  0  0  0
  -16.7320  -28.5720   23.0810 C   0  0  0  0  0  3  0  0  0  0  0  0
  -25.8830  -32.5270   23.8390 C   0  0  0  0  0  3  0  0  0  0  0  0
  -26.4010  -31.7550   25.1140 C   0  0  1  0  0  0  0  0  0  0  0  0
  -25.3080  -31.5180   26.1840 C   0  0  0  0  0  1  0  0  0  0  0  0
  -26.9830  -30.3770   24.7220 C   0  0  0  0  0  1  0  0  0  0  0  0
  -27.5530  -32.5490   25.7750 C   0  0  0  0  0  1  0  0  0  0  0  0
  -25.5730  -33.9240   24.1730 N   0  0  0  0  0  0  0  0  0  0  0  0
  -25.9060  -34.9800   23.4180 C   0  0  0  0  0  0  0  0  0  0  0  0
  -26.5750  -34.8800   22.3860 O   0  0  0  0  0  0  0  0  0  0  0  0
  -24.9800  -34.0760   24.9750 H   0  0  0  0  0  0  0  0  0  0  0  0
  -24.1810  -36.7790   23.0650 C   0  0  0  0  0  1  0  0  0  0  0  0
  -25.4190  -36.3670   23.8800 C   0  0  0  0  0  3  0  0  0  0  0  0
  -27.5510  -37.2460   24.7260 C   0  0  0  0  0  1  0  0  0  0  0  0
  -26.4550  -37.4190   23.7760 N   0  0  0  0  0  0  0  0  0  0  0  0
  -26.0510  -38.3400   23.9230 H   0  0  0  0  0  0  0  0  0  0  0  0
  1  3  1  0
  1  7  2  0
  2  5  1  0
  2  6  1  0
  4  3  1  0
  5 56  1  0
  5  4  1  0
  6  1  1  0
  8  2  2  0
  9 12  1  0
 10 13  1  0
 10  9  2  0
 12 11  2  0
 12  6  1  0
 13 14  2  0
 14 53  1  0
 14 11  1  0
 16 21  1  0
 17 18  1  0
 17 16  1  0
 19 18  1  0
 19 28  1  0
 19 20  1  0
 21 15  1  0
 21 20  1  0
 22 15  2  0
 23 24  1  0
 24 15  1  0
 24 13  1  0
 25 26  2  0
 26 27  1  0
 26 45  1  0
 27 30  1  0
 28 25  1  0
 28 29  1  0
 29 27  2  0
 30 31  1  0
 31 32  2  0
 33 36  1  0
 33 32  1  0
 34 33  2  0
 35 34  1  0
 35 30  2  0
 36 37  1  0
 37 38  1  0
 38 39  2  0
 40 39  1  0
 40 44  1  0
 41 40  2  0
 42 37  2  0
 42 41  1  0
 43 42  1  0
 45 46  1  0
 46 49  1  0
 46 48  1  0
 47 45  2  0
 50 51  1  0
 50 25  1  0
 52 50  1  0
 54 53  1  0
 55 53  1  0
 56 57  1  0
 58 69  2  0
 59 57  1  0
 59 64  1  0
 60 68  1  0
 60 70  1  0
 61 67  1  0
 61 63  1  0
 62 68  1  0
 63 62  1  0
 64 63  2  0
 65 59  2  0
 66 65  1  0
 66 61  2  0
 67 60  1  0
 68 58  1  0
 70 72  2  0
 71 70  1  0
 73 71  1  0
 74 83  2  0
 74 79  1  0
 75 71  1  0
 75 79  1  0
 76 75  1  0
 77 78  1  0
 77 76  1  0
 78 74  1  0
 79 80  2  0
 80 81  1  0
 82 81  2  0
 83 82  1  0
 84 58  1  0
 84 89  1  0
 84 85  1  0
 85 88  1  1
 85 86  1  0
 87 85  1  0
 89 92  1  0
 90 94  1  0
 90 89  1  0
 91 90  2  0
 94 93  1  0
 96 94  1  0
 96 97  1  0
 96 95  1  0
M  ISO  4  15 100  24 100  56 101  57 101
M  END
>  <TORSDO>  (65) 
F 19

>  <SCORE>  (65) 
-14.495

>  <name>  (65) 
64

>  <ligand_id>  (65) 
64

>  <original_smiles>  (65) 
[H]c1c([H])c([H])c2c(c1[H])C([H])([H])C([H])([H])C([H])([H])C2([H])N([H])C(=O)C1([H])N(C(=O)C([H])(N([H])C(=O)C([H])(N([H])C([H])([H])[H])C([H])([H])[H])C(C([H])([H])[H])(C([H])([H])[H])C([H])([H])[H])C([H])([H])c2c([H])c(OC([H])([H])C3([H])C(=O)N(c4c([H])c([H])c(N(C(=O)N5C([H])([H])C([H])([H])C([H])([H])C([H])(n6nc(-c7c([H])c([H])c(Oc8c([H])c([H])c(F)c([H])c8F)c([H])c7[H])c(C(=O)N([H])[H])c6N([H])[H])C5([H])[H])C([H])([H])[H])c(N([H])[H])c4[H])C(=O)C([H])([H])C3([H])[H])c([H])c([H])c2C1([H])[H]

>  <smiles>  (65) 
[H]c1c([H])c([H])c2c(c1[H])C([H])([H])C([H])([H])C([H])([H])C2([H])N([H])C(=O)C1([H])N(C(=O)C([H])(N([H])C(=O)C([H])(N([H])C([H])([H])[H])C([H])([H])[H])C(C([H])([H])[H])(C([H])([H])[H])C([H])([H])[H])C([H])([H])c2c([H])c(OC([H])([H])C3([H])C(=O)N(c4c([H])c([H])c(N(C(=O)N5C([H])([H])C([H])([H])C([H])([H])C([H])(n6nc(-c7c([H])c([H])c(Oc8c([H])c([H])c(F)c([H])c8F)c([H])c7[H])c(C(=O)N([H])[H])c6N([H])[H])C5([H])[H])C([H])([H])[H])c(N([H])[H])c4[H])C(=O)C([H])([H])C3([H])[H])c([H])c([H])c2C1([H])[H]

$$$$
65:0:0
     RDKit          3D

 96104  0  0  1  0  0  0  0  0999 V2000
  -29.6780  -20.0470   19.0570 C   0  0  0  0  0  3  0  0  0  0  0  0
  -29.9500  -18.6480   19.0180 C   0  0  0  0  0  0  0  0  0  0  0  0
  -30.2300  -18.2410   20.3070 C   0  0  0  0  0  0  0  0  0  0  0  0
  -29.8110  -20.4630   20.3470 C   0  0  0  0  0  0  0  0  0  0  0  0
  -29.9920  -17.8490   17.7400 C   0  0  0  0  0  1  0  0  0  0  0  0
  -30.0960  -19.3630   21.1450 N   0  0  0  0  0  0  0  0  0  0  0  0
  -30.9920  -14.6450   20.0880 C   0  0  0  0  0  0  0  0  0  0  0  0
  -30.5970  -12.5010   18.9180 C   0  0  0  0  0  2  0  0  0  0  0  0
  -29.5940  -12.7120   17.7700 C   0  0  0  0  0  2  0  0  0  0  0  0
  -28.1490  -12.5550   18.2820 C   0  0  0  0  0  2  0  0  0  0  0  0
  -27.8740  -13.3840   19.5690 C   0  0  0  0  0  3  0  0  0  0  0  0
  -28.9970  -13.1990   20.6100 C   0  0  0  0  0  2  0  0  0  0  0  0
  -30.2710  -13.4990   19.9470 N   0  0  0  0  0  0  0  0  0  0  0  0
  -32.1710  -14.7060   19.7360 O   0  0  0  0  0  0  0  0  0  0  0  0
  -30.7810  -16.9350   20.8080 C   0  0  0  0  0  0  0  0  0  0  0  0
  -30.2790  -15.7730   20.3330 N   0  0  0  0  0  0  0  0  0  0  0  0
  -31.6820  -16.9730   21.6540 O   0  0  0  0  0  0  0  0  0  0  0  0
  -29.3230  -15.7880   20.0240 H   0  0  0  0  0  0  0  0  0  0  0  0
  -25.5430  -13.9810   20.4650 C   0  0  0  0  0  0  0  0  0  0  0  0
  -24.4940  -13.2020   20.8720 C   0  0  0  0  0  0  0  0  0  0  0  0
  -24.9420  -11.8510   20.7700 C   0  0  0  0  0  0  0  0  0  0  0  0
  -26.5600  -13.0990   20.1320 N   0  0  0  0  0  0  0  0  0  0  0  0
  -26.2120  -11.8120   20.3840 N   0  0  0  0  0  0  0  0  0  0  0  0
  -24.2170  -10.5880   20.9590 C   0  0  0  0  0  0  0  0  0  0  0  0
  -24.6540   -9.6210   21.8880 C   0  0  0  0  0  3  0  0  0  0  0  0
  -23.9290   -8.4220   22.0650 C   0  0  0  0  0  3  0  0  0  0  0  0
  -22.7510   -8.1870   21.3130 C   0  0  0  0  0  0  0  0  0  0  0  0
  -22.3370   -9.1440   20.3720 C   0  0  0  0  0  3  0  0  0  0  0  0
  -23.0620  -10.3330   20.1930 C   0  0  0  0  0  3  0  0  0  0  0  0
  -21.9950   -7.0440   21.4000 O   0  0  0  0  0  0  0  0  0  0  0  0
  -21.8820   -6.3460   22.5750 C   0  0  0  0  0  0  0  0  0  0  0  0
  -21.3920   -6.9440   23.7550 C   0  0  0  0  0  3  0  0  0  0  0  0
  -21.2240   -6.1680   24.9200 C   0  0  0  0  0  3  0  0  0  0  0  0
  -21.5360   -4.7950   24.9050 C   0  0  0  0  0  0  0  0  0  0  0  0
  -22.0190   -4.1980   23.7280 C   0  0  0  0  0  3  0  0  0  0  0  0
  -22.1870   -4.9700   22.5660 C   0  0  0  0  0  0  0  0  0  0  0  0
  -22.6300   -4.3840   21.4280 F   0  0  0  0  0  0  0  0  0  0  0  0
  -21.3720   -4.0490   26.0220 F   0  0  0  0  0  0  0  0  0  0  0  0
  -23.1180  -13.6800   21.2370 C   0  0  0  0  0  0  0  0  0  0  0  0
  -22.4480  -12.9720   22.1390 N   0  0  0  0  0  0  0  0  0  0  0  0
  -22.6490  -14.7120   20.7590 O   0  0  0  0  0  0  0  0  0  0  0  0
  -22.8470  -12.1410   22.5510 H   0  0  0  0  0  0  0  0  0  0  0  0
  -21.5270  -13.2640   22.4250 H   0  0  0  0  0  0  0  0  0  0  0  0
  -25.7070  -15.3560   20.3250 N   0  0  0  0  0  0  0  0  0  0  0  0
  -24.9450  -16.0070   20.4840 H   0  0  0  0  0  0  0  0  0  0  0  0
  -26.5310  -15.8020   19.9420 H   0  0  0  0  0  0  0  0  0  0  0  0
  -29.7010  -21.7880   20.8100 N   0  0  0  0  0  0  0  0  0  0  0  0
  -29.8120  -22.0050   21.7980 H   0  0  0  0  0  0  0  0  0  0  0  0
  -29.3290  -22.8800   19.9080 C   0  0  0  0  0  2  0  0  0  0  0  0
  -29.4950  -24.3270   20.4640 C   0  0  0  0  0  2  0  0  0  0  0  0
  -29.5790  -25.4340   18.1290 C   0  0  0  0  0  1  0  0  0  0  0  0
  -28.8840  -25.3840   19.4960 C   0  0  0  0  0  3  0  0  0  0  0  0
  -28.8160  -26.7480   20.0050 O   0  0  0  0  0  0  0  0  0  0  0  0
  -24.6250  -31.6590   23.0980 C   0  0  0  0  0  0  0  0  0  0  0  0
  -27.6150  -27.4530   19.9450 C   0  0  0  0  0  0  0  0  0  0  0  0
  -23.5550  -30.2160   21.4090 C   0  0  0  0  0  3  0  0  0  0  0  0
  -25.1340  -28.8450   19.9640 C   0  0  0  0  0  0  0  0  0  0  0  0
  -26.0610  -30.7480   21.2730 C   0  0  0  0  0  2  0  0  0  0  0  0
  -26.2520  -29.4040   20.5940 C   0  0  0  0  0  0  0  0  0  0  0  0
  -27.4910  -28.7120   20.5940 C   0  0  0  0  0  3  0  0  0  0  0  0
  -26.4730  -26.9560   19.2680 C   0  0  0  0  0  3  0  0  0  0  0  0
  -25.2410  -27.6200   19.3010 C   0  0  0  0  0  3  0  0  0  0  0  0
  -23.8330  -29.6090   20.0120 C   0  0  0  0  0  2  0  0  0  0  0  0
  -24.7630  -30.8880   21.9830 N   0  0  0  0  0  0  0  0  0  0  0  0
  -23.5170  -31.8340   23.6250 O   0  0  0  0  0  0  0  0  0  0  0  0
  -22.9750  -29.1120   22.3260 C   0  0  0  0  0  0  0  0  0  0  0  0
  -21.6760  -28.8140   22.1600 N   0  0  0  0  0  0  0  0  0  0  0  0
  -23.6930  -28.5340   23.1460 O   0  0  0  0  0  0  0  0  0  0  0  0
  -21.1540  -29.3380   21.4710 H   0  0  0  0  0  0  0  0  0  0  0  0
  -18.4160  -27.3010   22.5330 C   0  0  0  0  0  0  0  0  0  0  0  0
  -20.9290  -27.7930   22.8930 C   0  0  0  0  0  3  0  0  0  0  0  0
  -21.1850  -26.3860   22.3060 C   0  0  0  0  0  2  0  0  0  0  0  0
  -20.1510  -25.9760   21.2530 C   0  0  0  0  0  2  0  0  0  0  0  0
  -18.7410  -25.9830   21.8510 C   0  0  0  0  0  2  0  0  0  0  0  0
  -19.4440  -28.1590   23.0090 C   0  0  0  0  0  0  0  0  0  0  0  0
  -19.0900  -29.3890   23.6020 C   0  0  0  0  0  3  0  0  0  0  0  0
  -17.7410  -29.7670   23.7280 C   0  0  0  0  0  3  0  0  0  0  0  0
  -16.7260  -28.9080   23.2690 C   0  0  0  0  0  3  0  0  0  0  0  0
  -17.0640  -27.6780   22.6790 C   0  0  0  0  0  3  0  0  0  0  0  0
  -25.8470  -32.3740   23.7500 C   0  0  0  0  0  3  0  0  0  0  0  0
  -25.4270  -33.7400   24.0890 N   0  0  0  0  0  0  0  0  0  0  0  0
  -25.6840  -34.8230   23.3430 C   0  0  0  0  0  0  0  0  0  0  0  0
  -26.3730  -34.7830   22.3200 O   0  0  0  0  0  0  0  0  0  0  0  0
  -24.8110  -33.8390   24.8840 H   0  0  0  0  0  0  0  0  0  0  0  0
  -23.8170  -36.4700   22.9880 C   0  0  0  0  0  1  0  0  0  0  0  0
  -25.0800  -36.1600   23.8070 C   0  0  0  0  0  3  0  0  0  0  0  0
  -27.1320  -37.2080   24.6610 C   0  0  0  0  0  1  0  0  0  0  0  0
  -26.0250  -37.2960   23.7120 N   0  0  0  0  0  0  0  0  0  0  0  0
  -25.5420  -38.1770   23.8690 H   0  0  0  0  0  0  0  0  0  0  0  0
  -26.3960  -31.6270   25.0270 C   0  0  1  0  0  0  0  0  0  0  0  0
  -25.3050  -31.2970   26.0720 C   0  0  0  0  0  1  0  0  0  0  0  0
  -27.0910  -30.3020   24.6360 C   0  0  0  0  0  1  0  0  0  0  0  0
  -27.4680  -32.4980   25.7230 C   0  0  0  0  0  1  0  0  0  0  0  0
  -30.1800  -19.4170   22.5980 C   0  0  0  0  0  2  0  0  0  0  0  0
  -31.3280  -20.4670   24.5830 C   0  0  0  0  0  1  0  0  0  0  0  0
  -31.4760  -20.0620   23.1120 C   0  0  0  0  0  2  0  0  0  0  0  0
  1  4  2  0
  2  1  1  0
  2  3  2  0
  3 15  1  0
  3  6  1  0
  4 47  1  0
  4  6  1  0
  5  2  1  0
  6 94  1  0
  7 16  1  0
  8 13  1  0
  9 10  1  0
  9  8  1  0
 11 10  1  0
 11 22  1  0
 11 12  1  0
 13  7  1  0
 13 12  1  0
 14  7  2  0
 15 17  2  0
 16 15  1  0
 18 16  1  0
 19 20  2  0
 20 39  1  0
 21 20  1  0
 21 24  1  0
 22 23  1  0
 22 19  1  0
 23 21  2  0
 24 25  1  0
 25 26  2  0
 27 30  1  0
 27 26  1  0
 28 27  2  0
 29 28  1  0
 29 24  2  0
 30 31  1  0
 31 32  1  0
 32 33  2  0
 34 33  1  0
 34 38  1  0
 35 34  2  0
 36 31  2  0
 36 35  1  0
 37 36  1  0
 39 40  1  0
 40 43  1  0
 40 42  1  0
 41 39  2  0
 44 19  1  0
 44 45  1  0
 46 44  1  0
 47 48  1  0
 49 50  1  0
 49 47  1  0
 52 51  1  0
 52 53  1  0
 52 50  1  0
 54 65  2  0
 55 53  1  0
 55 60  1  0
 56 64  1  0
 56 66  1  0
 57 63  1  0
 57 59  1  0
 58 64  1  0
 59 60  2  0
 59 58  1  0
 61 62  1  0
 61 55  2  0
 62 57  2  0
 63 56  1  0
 64 54  1  0
 66 68  2  0
 67 66  1  0
 69 67  1  0
 70 79  2  0
 70 75  1  0
 71 67  1  0
 71 75  1  0
 72 71  1  0
 73 74  1  0
 73 72  1  0
 74 70  1  0
 75 76  2  0
 76 77  1  0
 78 77  2  0
 79 78  1  0
 80 54  1  0
 80 81  1  0
 80 90  1  0
 81 84  1  0
 82 86  1  0
 82 81  1  0
 83 82  2  0
 86 85  1  0
 88 86  1  0
 88 89  1  0
 88 87  1  0
 90 93  1  1
 90 91  1  0
 92 90  1  0
 94 96  1  0
 96 95  1  0
M  ISO  4   7 100  16 100  52 101  53 101
M  END
>  <TORSDO>  (66) 
F 22

>  <SCORE>  (66) 
-11.643

>  <name>  (66) 
65

>  <ligand_id>  (66) 
65

>  <original_smiles>  (66) 
[H]c1c([H])c([H])c2c(c1[H])C([H])([H])C([H])([H])C([H])([H])C2([H])N([H])C(=O)C1([H])N(C(=O)C([H])(N([H])C(=O)C([H])(N([H])C([H])([H])[H])C([H])([H])[H])C(C([H])([H])[H])(C([H])([H])[H])C([H])([H])[H])C([H])([H])c2c([H])c(OC([H])(C([H])([H])[H])C([H])([H])C([H])([H])N([H])c3c([H])c(C([H])([H])[H])c(C(=O)N([H])C(=O)N4C([H])([H])C([H])([H])C([H])([H])C([H])(n5nc(-c6c([H])c([H])c(Oc7c([H])c([H])c(F)c([H])c7F)c([H])c6[H])c(C(=O)N([H])[H])c5N([H])[H])C4([H])[H])n3C([H])([H])C([H])([H])C([H])([H])[H])c([H])c([H])c2C1([H])[H]

>  <smiles>  (66) 
[H]c1c([H])c([H])c2c(c1[H])C([H])([H])C([H])([H])C([H])([H])C2([H])N([H])C(=O)C1([H])N(C(=O)C([H])(N([H])C(=O)C([H])(N([H])C([H])([H])[H])C([H])([H])[H])C(C([H])([H])[H])(C([H])([H])[H])C([H])([H])[H])C([H])([H])c2c([H])c(OC([H])(C([H])([H])[H])C([H])([H])C([H])([H])N([H])c3c([H])c(C([H])([H])[H])c(C(=O)N([H])C(=O)N4C([H])([H])C([H])([H])C([H])([H])C([H])(n5nc(-c6c([H])c([H])c(Oc7c([H])c([H])c(F)c([H])c7F)c([H])c6[H])c(C(=O)N([H])[H])c5N([H])[H])C4([H])[H])n3C([H])([H])C([H])([H])C([H])([H])[H])c([H])c([H])c2C1([H])[H]

$$$$
66:0:0
     RDKit          3D

 94102  0  0  1  0  0  0  0  0999 V2000
  -29.2760  -21.0210   19.9110 C   0  0  0  0  0  0  0  0  0  0  0  0
  -29.2750  -19.6960   20.3740 N   0  0  0  0  0  0  0  0  0  0  0  0
  -30.0180  -21.3210   18.9700 O   0  0  0  0  0  0  0  0  0  0  0  0
  -28.4590  -19.4520   20.9240 H   0  0  0  0  0  0  0  0  0  0  0  0
  -32.8350  -17.7060   21.7400 C   0  0  0  0  0  3  0  0  0  0  0  0
  -31.6380  -19.5630   20.8120 C   0  0  0  0  0  3  0  0  0  0  0  0
  -32.8280  -19.0400   21.3240 C   0  0  0  0  0  0  0  0  0  0  0  0
  -31.7130  -16.8760   21.5250 C   0  0  0  0  0  0  0  0  0  0  0  0
  -30.4530  -18.7920   20.5800 C   0  0  0  0  0  0  0  0  0  0  0  0
  -30.5610  -17.3000   20.7610 C   0  0  0  0  0  0  0  0  0  0  0  0
  -34.0490  -19.9390   21.5120 C   0  0  0  0  0  1  0  0  0  0  0  0
  -31.7880  -15.5260   22.2400 C   0  0  0  0  0  1  0  0  0  0  0  0
  -30.1060  -14.9950   19.6240 C   0  0  0  0  0  0  0  0  0  0  0  0
  -29.6550  -12.8330   18.3870 C   0  0  0  0  0  2  0  0  0  0  0  0
  -28.5240  -12.9840   17.3460 C   0  0  0  0  0  2  0  0  0  0  0  0
  -27.1490  -12.7130   17.9850 C   0  0  0  0  0  2  0  0  0  0  0  0
  -26.9860  -13.4250   19.3490 C   0  0  0  0  0  3  0  0  0  0  0  0
  -28.2390  -13.2780   20.2650 C   0  0  0  0  0  2  0  0  0  0  0  0
  -29.3970  -13.7900   19.5120 N   0  0  0  0  0  0  0  0  0  0  0  0
  -31.1730  -15.0580   19.0080 O   0  0  0  0  0  0  0  0  0  0  0  0
  -28.2560  -16.5680   20.1390 C   0  0  0  0  0  1  0  0  0  0  0  0
  -29.6510  -16.1800   20.2900 N   0  0  0  0  0  0  0  0  0  0  0  0
  -24.6810  -13.8600   20.3890 C   0  0  0  0  0  0  0  0  0  0  0  0
  -23.7220  -13.0190   20.8810 C   0  0  0  0  0  0  0  0  0  0  0  0
  -24.2600  -11.7010   20.7750 C   0  0  0  0  0  0  0  0  0  0  0  0
  -25.7410  -13.0500   20.0110 N   0  0  0  0  0  0  0  0  0  0  0  0
  -25.5000  -11.7440   20.3040 N   0  0  0  0  0  0  0  0  0  0  0  0
  -23.6410  -10.3970   21.0420 C   0  0  0  0  0  0  0  0  0  0  0  0
  -24.1720   -9.5030   21.9980 C   0  0  0  0  0  3  0  0  0  0  0  0
  -23.5440   -8.2650   22.2470 C   0  0  0  0  0  3  0  0  0  0  0  0
  -22.3690   -7.9090   21.5440 C   0  0  0  0  0  0  0  0  0  0  0  0
  -21.8600   -8.7910   20.5800 C   0  0  0  0  0  3  0  0  0  0  0  0
  -22.4870  -10.0220   20.3250 C   0  0  0  0  0  3  0  0  0  0  0  0
  -21.7090   -6.7140   21.7010 O   0  0  0  0  0  0  0  0  0  0  0  0
  -21.6930   -6.0580   22.9040 C   0  0  0  0  0  0  0  0  0  0  0  0
  -21.1800   -6.6580   24.0750 C   0  0  0  0  0  3  0  0  0  0  0  0
  -21.1190   -5.9250   25.2750 C   0  0  0  0  0  3  0  0  0  0  0  0
  -21.5670   -4.5900   25.3090 C   0  0  0  0  0  0  0  0  0  0  0  0
  -22.0800   -3.9910   24.1440 C   0  0  0  0  0  3  0  0  0  0  0  0
  -22.1400   -4.7240   22.9470 C   0  0  0  0  0  0  0  0  0  0  0  0
  -22.6140   -4.1360   21.8220 F   0  0  0  0  0  0  0  0  0  0  0  0
  -21.5040   -3.8780   26.4580 F   0  0  0  0  0  0  0  0  0  0  0  0
  -22.3500  -13.4090   21.3470 C   0  0  0  0  0  0  0  0  0  0  0  0
  -21.8010  -12.6780   22.3110 N   0  0  0  0  0  0  0  0  0  0  0  0
  -21.7800  -14.4030   20.8980 O   0  0  0  0  0  0  0  0  0  0  0  0
  -22.2810  -11.8680   22.6780 H   0  0  0  0  0  0  0  0  0  0  0  0
  -20.8990  -12.9330   22.6820 H   0  0  0  0  0  0  0  0  0  0  0  0
  -24.7400  -15.2400   20.2270 N   0  0  0  0  0  0  0  0  0  0  0  0
  -23.9910  -15.8440   20.5420 H   0  0  0  0  0  0  0  0  0  0  0  0
  -25.5560  -15.7480   19.9150 H   0  0  0  0  0  0  0  0  0  0  0  0
  -28.3490  -22.2110   20.4740 C   0  0  0  0  0  2  0  0  0  0  0  0
  -28.6840  -23.7700   20.0730 C   0  0  0  0  0  3  0  0  0  0  0  0
  -27.7440  -25.0250   20.5260 C   0  0  0  0  0  3  0  0  0  0  0  0
  -28.0280  -26.4730   20.1680 O   0  0  0  0  0  0  0  0  0  0  0  0
  -24.5060  -32.0290   23.2900 C   0  0  0  0  0  0  0  0  0  0  0  0
  -26.9610  -27.4050   20.1500 C   0  0  0  0  0  0  0  0  0  0  0  0
  -23.2470  -30.6640   21.6650 C   0  0  0  0  0  3  0  0  0  0  0  0
  -24.6440  -29.1090   20.1840 C   0  0  0  0  0  0  0  0  0  0  0  0
  -25.7920  -30.9370   21.4290 C   0  0  0  0  0  2  0  0  0  0  0  0
  -25.8370  -29.5590   20.7620 C   0  0  0  0  0  0  0  0  0  0  0  0
  -27.0020  -28.7210   20.7270 C   0  0  0  0  0  3  0  0  0  0  0  0
  -25.7500  -27.0330   19.5270 C   0  0  0  0  0  3  0  0  0  0  0  0
  -24.6060  -27.8560   19.5510 C   0  0  0  0  0  3  0  0  0  0  0  0
  -23.4220  -30.0050   20.2720 C   0  0  0  0  0  2  0  0  0  0  0  0
  -24.5350  -31.2290   22.1830 N   0  0  0  0  0  0  0  0  0  0  0  0
  -23.4360  -32.3160   23.8490 O   0  0  0  0  0  0  0  0  0  0  0  0
  -22.5900  -29.6450   22.6290 C   0  0  0  0  0  0  0  0  0  0  0  0
  -21.2660  -29.4540   22.5000 N   0  0  0  0  0  0  0  0  0  0  0  0
  -23.2720  -29.0330   23.4550 O   0  0  0  0  0  0  0  0  0  0  0  0
  -20.7760  -29.9930   21.8000 H   0  0  0  0  0  0  0  0  0  0  0  0
  -17.9040  -28.1950   22.9720 C   0  0  0  0  0  0  0  0  0  0  0  0
  -20.4520  -28.5140   23.2750 C   0  0  0  0  0  3  0  0  0  0  0  0
  -20.5940  -27.0760   22.7230 C   0  0  0  0  0  2  0  0  0  0  0  0
  -19.5120  -26.7130   21.7000 C   0  0  0  0  0  2  0  0  0  0  0  0
  -18.1180  -26.8380   22.3220 C   0  0  0  0  0  2  0  0  0  0  0  0
  -18.9990  -28.9880   23.4050 C   0  0  0  0  0  0  0  0  0  0  0  0
  -18.7430  -30.2550   23.9720 C   0  0  0  0  0  3  0  0  0  0  0  0
  -17.4240  -30.7280   24.1120 C   0  0  0  0  0  3  0  0  0  0  0  0
  -16.3420  -29.9320   23.6960 C   0  0  0  0  0  3  0  0  0  0  0  0
  -16.5840  -28.6670   23.1310 C   0  0  0  0  0  3  0  0  0  0  0  0
  -25.8070  -32.6390   23.8910 C   0  0  0  0  0  3  0  0  0  0  0  0
  -26.3260  -31.8630   25.1620 C   0  0  1  0  0  0  0  0  0  0  0  0
  -25.2340  -31.6180   26.2340 C   0  0  0  0  0  1  0  0  0  0  0  0
  -26.9040  -30.4860   24.7640 C   0  0  0  0  0  1  0  0  0  0  0  0
  -27.4820  -32.6520   25.8210 C   0  0  0  0  0  1  0  0  0  0  0  0
  -25.5290  -34.0430   24.2240 N   0  0  0  0  0  0  0  0  0  0  0  0
  -25.8770  -35.0890   23.4640 C   0  0  0  0  0  0  0  0  0  0  0  0
  -26.5320  -34.9720   22.4250 O   0  0  0  0  0  0  0  0  0  0  0  0
  -24.9470  -34.2100   25.0320 H   0  0  0  0  0  0  0  0  0  0  0  0
  -24.1810  -36.9190   23.1300 C   0  0  0  0  0  1  0  0  0  0  0  0
  -25.4230  -36.4890   23.9280 C   0  0  0  0  0  3  0  0  0  0  0  0
  -27.5850  -37.3260   24.7350 C   0  0  0  0  0  1  0  0  0  0  0  0
  -26.4760  -37.5220   23.8060 N   0  0  0  0  0  0  0  0  0  0  0  0
  -26.0890  -38.4490   23.9600 H   0  0  0  0  0  0  0  0  0  0  0  0
  1  2  1  0
  1 51  1  0
  2  9  1  0
  2  4  1  0
  3  1  2  0
  6  7  1  0
  7 11  1  0
  7  5  2  0
  8  5  1  0
  8 12  1  0
  9 10  1  0
  9  6  2  0
 10  8  2  0
 13 22  1  0
 14 19  1  0
 15 16  1  0
 15 14  1  0
 17 16  1  0
 17 26  1  0
 17 18  1  0
 19 13  1  0
 19 18  1  0
 20 13  2  0
 21 22  1  0
 22 10  1  0
 23 24  2  0
 24 43  1  0
 25 24  1  0
 25 28  1  0
 26 27  1  0
 26 23  1  0
 27 25  2  0
 28 29  1  0
 29 30  2  0
 31 34  1  0
 31 30  1  0
 32 31  2  0
 33 32  1  0
 33 28  2  0
 34 35  1  0
 35 40  2  0
 35 36  1  0
 36 37  2  0
 37 38  1  0
 38 42  1  0
 39 38  2  0
 40 39  1  0
 41 40  1  0
 43 44  1  0
 44 46  1  0
 44 47  1  0
 45 43  2  0
 48 23  1  0
 48 49  1  0
 50 48  1  0
 52 51  1  0
 52 53  2  0
 54 53  1  0
 55 66  2  0
 56 54  1  0
 56 61  1  0
 57 65  1  0
 57 67  1  0
 58 64  1  0
 58 60  1  0
 59 65  1  0
 60 59  1  0
 61 60  2  0
 62 63  1  0
 62 56  2  0
 63 58  2  0
 64 57  1  0
 65 55  1  0
 67 69  2  0
 68 67  1  0
 70 68  1  0
 71 80  2  0
 71 76  1  0
 72 68  1  0
 72 76  1  0
 73 72  1  0
 74 75  1  0
 74 73  1  0
 75 71  1  0
 76 77  2  0
 77 78  1  0
 79 78  2  0
 80 79  1  0
 81 55  1  0
 81 86  1  0
 81 82  1  0
 82 85  1  1
 82 83  1  0
 84 82  1  0
 86 89  1  0
 87 91  1  0
 87 86  1  0
 88 87  2  0
 91 90  1  0
 93 91  1  0
 93 94  1  0
 93 92  1  0
M  ISO  4  13 100  22 100  53 101  54 101
M  END
>  <TORSDO>  (67) 
F 20

>  <SCORE>  (67) 
-9.523

>  <name>  (67) 
66

>  <ligand_id>  (67) 
66

>  <original_smiles>  (67) 
[H]c1c([H])c([H])c2c(c1[H])C([H])([H])C([H])([H])C([H])([H])C2([H])N([H])C(=O)C1([H])N(C(=O)C([H])(N([H])C(=O)C([H])(N([H])C([H])([H])[H])C([H])([H])[H])C(C([H])([H])[H])(C([H])([H])[H])C([H])([H])[H])C([H])([H])c2c([H])c(OC([H])([H])C([H])([H])C([H])([H])C(=O)N([H])c3c([H])c(C([H])([H])[H])c([H])c(C([H])([H])[H])c3N(C(=O)N3C([H])([H])C([H])([H])C([H])([H])C([H])(n4nc(-c5c([H])c([H])c(Oc6c([H])c([H])c(F)c([H])c6F)c([H])c5[H])c(C(=O)N([H])[H])c4N([H])[H])C3([H])[H])C([H])([H])[H])c([H])c([H])c2C1([H])[H]

>  <smiles>  (67) 
[H]c1c([H])c([H])c2c(c1[H])C([H])([H])C([H])([H])C([H])([H])C2([H])N([H])C(=O)C1([H])N(C(=O)C([H])(N([H])C(=O)C([H])(N([H])C([H])([H])[H])C([H])([H])[H])C(C([H])([H])[H])(C([H])([H])[H])C([H])([H])[H])C([H])([H])c2c([H])c(OC([H])([H])C([H])([H])C([H])([H])C(=O)N([H])c3c([H])c(C([H])([H])[H])c([H])c(C([H])([H])[H])c3N(C(=O)N3C([H])([H])C([H])([H])C([H])([H])C([H])(n4nc(-c5c([H])c([H])c(Oc6c([H])c([H])c(F)c([H])c6F)c([H])c5[H])c(C(=O)N([H])[H])c4N([H])[H])C3([H])[H])C([H])([H])[H])c([H])c([H])c2C1([H])[H]

$$$$
67:0:0
     RDKit          3D

 98107  0  0  1  0  0  0  0  0999 V2000
  -28.1010  -24.3780   20.8100 C   0  0  0  0  0  0  0  0  0  0  0  0
  -28.8290  -23.3640   20.2600 C   0  0  0  0  0  0  0  0  0  0  0  0
  -26.6870  -24.1030   21.1310 C   0  0  0  0  0  0  0  0  0  0  0  0
  -25.9840  -23.1260   20.2000 C   0  0  0  0  0  2  0  0  0  0  0  0
  -26.8350  -21.8810   19.8980 C   0  0  0  0  0  2  0  0  0  0  0  0
  -30.2750  -23.5750   19.8290 C   0  0  0  0  0  1  0  0  0  0  0  0
  -28.2900  -22.0860   19.9770 N   0  0  0  0  0  0  0  0  0  0  0  0
  -26.0650  -24.6200   22.0630 O   0  0  0  0  0  0  0  0  0  0  0  0
  -30.5560  -19.3910   21.3100 C   0  0  0  0  0  3  0  0  0  0  0  0
  -29.9530  -20.6520   21.1110 C   0  0  0  0  0  3  0  0  0  0  0  0
  -28.5890  -19.6990   19.3570 C   0  0  0  0  0  3  0  0  0  0  0  0
  -30.2030  -18.2630   20.5320 C   0  0  0  0  0  0  0  0  0  0  0  0
  -28.9510  -20.8360   20.1310 C   0  0  0  0  0  0  0  0  0  0  0  0
  -29.2090  -18.4370   19.5340 C   0  0  0  0  0  0  0  0  0  0  0  0
  -28.8470  -17.3830   18.6940 N   0  0  0  0  0  0  0  0  0  0  0  0
  -27.9760  -17.3870   18.1770 H   0  0  0  0  0  0  0  0  0  0  0  0
  -29.3060  -16.4840   18.7680 H   0  0  0  0  0  0  0  0  0  0  0  0
  -30.9990  -16.9600   20.7580 C   0  0  0  0  0  2  0  0  0  0  0  0
  -30.8770  -14.5580   20.1560 C   0  0  0  0  0  0  0  0  0  0  0  0
  -30.4400  -12.3980   19.0600 C   0  0  0  0  0  2  0  0  0  0  0  0
  -29.4730  -12.6060   17.8800 C   0  0  0  0  0  2  0  0  0  0  0  0
  -28.0150  -12.4830   18.3600 C   0  0  0  0  0  2  0  0  0  0  0  0
  -27.7250  -13.3440   19.6220 C   0  0  0  0  0  3  0  0  0  0  0  0
  -28.8250  -13.1720   20.6980 C   0  0  0  0  0  2  0  0  0  0  0  0
  -30.1300  -13.4240   20.0680 N   0  0  0  0  0  0  0  0  0  0  0  0
  -31.9920  -14.6440   19.6400 O   0  0  0  0  0  0  0  0  0  0  0  0
  -30.3080  -15.6510   20.6990 N   0  0  0  0  0  0  0  0  0  0  0  0
  -29.3800  -15.5820   21.0880 H   0  0  0  0  0  0  0  0  0  0  0  0
  -25.3710  -13.9580   20.4500 C   0  0  0  0  0  0  0  0  0  0  0  0
  -24.3090  -13.1930   20.8510 C   0  0  0  0  0  0  0  0  0  0  0  0
  -24.7470  -11.8360   20.7710 C   0  0  0  0  0  0  0  0  0  0  0  0
  -26.3940  -13.0690   20.1580 N   0  0  0  0  0  0  0  0  0  0  0  0
  -26.0240  -11.7850   20.4070 N   0  0  0  0  0  0  0  0  0  0  0  0
  -24.0070  -10.5800   20.9610 C   0  0  0  0  0  0  0  0  0  0  0  0
  -24.4280   -9.6060   21.8920 C   0  0  0  0  0  3  0  0  0  0  0  0
  -23.6900   -8.4170   22.0720 C   0  0  0  0  0  3  0  0  0  0  0  0
  -22.5140   -8.1930   21.3180 C   0  0  0  0  0  0  0  0  0  0  0  0
  -22.1080   -9.1550   20.3770 C   0  0  0  0  0  3  0  0  0  0  0  0
  -22.8470  -10.3360   20.1960 C   0  0  0  0  0  3  0  0  0  0  0  0
  -21.7450   -7.0580   21.4030 O   0  0  0  0  0  0  0  0  0  0  0  0
  -21.6590   -6.3350   22.5670 C   0  0  0  0  0  0  0  0  0  0  0  0
  -21.1740   -6.9070   23.7630 C   0  0  0  0  0  3  0  0  0  0  0  0
  -21.0390   -6.1130   24.9190 C   0  0  0  0  0  3  0  0  0  0  0  0
  -21.3790   -4.7490   24.8790 C   0  0  0  0  0  0  0  0  0  0  0  0
  -21.8580   -4.1760   23.6880 C   0  0  0  0  0  3  0  0  0  0  0  0
  -21.9970   -4.9680   22.5350 C   0  0  0  0  0  0  0  0  0  0  0  0
  -22.4410   -4.4070   21.3840 F   0  0  0  0  0  0  0  0  0  0  0  0
  -21.2380   -3.9830   25.9870 F   0  0  0  0  0  0  0  0  0  0  0  0
  -22.9320  -13.6860   21.1870 C   0  0  0  0  0  0  0  0  0  0  0  0
  -22.2270  -12.9850   22.0690 N   0  0  0  0  0  0  0  0  0  0  0  0
  -22.4900  -14.7270   20.7030 O   0  0  0  0  0  0  0  0  0  0  0  0
  -22.5980  -12.1390   22.4750 H   0  0  0  0  0  0  0  0  0  0  0  0
  -21.3060  -13.2970   22.3400 H   0  0  0  0  0  0  0  0  0  0  0  0
  -25.5380  -15.3290   20.2830 N   0  0  0  0  0  0  0  0  0  0  0  0
  -24.7400  -15.9520   20.3420 H   0  0  0  0  0  0  0  0  0  0  0  0
  -26.3270  -15.7370   19.7950 H   0  0  0  0  0  0  0  0  0  0  0  0
  -28.6180  -25.7830   21.1800 C   0  0  0  0  0  2  0  0  0  0  0  0
  -28.4800  -26.7790   20.1480 O   0  0  0  0  0  0  0  0  0  0  0  0
  -24.5930  -31.9110   23.2690 C   0  0  0  0  0  0  0  0  0  0  0  0
  -27.3220  -27.5240   20.1830 C   0  0  0  0  0  0  0  0  0  0  0  0
  -23.4270  -30.5220   21.5870 C   0  0  0  0  0  3  0  0  0  0  0  0
  -24.9180  -29.0160   20.1690 C   0  0  0  0  0  0  0  0  0  0  0  0
  -25.9520  -30.9050   21.4350 C   0  0  0  0  0  2  0  0  0  0  0  0
  -26.0610  -29.5390   20.7860 C   0  0  0  0  0  0  0  0  0  0  0  0
  -27.2690  -28.7990   20.7980 C   0  0  0  0  0  3  0  0  0  0  0  0
  -26.1700  -27.0230   19.5480 C   0  0  0  0  0  3  0  0  0  0  0  0
  -24.9660  -27.7520   19.5540 C   0  0  0  0  0  3  0  0  0  0  0  0
  -23.6640  -29.8610   20.2020 C   0  0  0  0  0  2  0  0  0  0  0  0
  -24.6740  -31.1260   22.1570 N   0  0  0  0  0  0  0  0  0  0  0  0
  -23.5020  -32.1680   23.7980 O   0  0  0  0  0  0  0  0  0  0  0  0
  -22.7730  -29.4820   22.5230 C   0  0  0  0  0  0  0  0  0  0  0  0
  -21.4490  -29.3020   22.3810 N   0  0  0  0  0  0  0  0  0  0  0  0
  -23.4520  -28.8440   23.3320 O   0  0  0  0  0  0  0  0  0  0  0  0
  -20.9630  -29.8720   21.7040 H   0  0  0  0  0  0  0  0  0  0  0  0
  -18.0690  -28.1310   22.8660 C   0  0  0  0  0  0  0  0  0  0  0  0
  -20.6290  -28.3540   23.1330 C   0  0  0  0  0  3  0  0  0  0  0  0
  -20.7160  -26.9360   22.5200 C   0  0  0  0  0  2  0  0  0  0  0  0
  -19.6050  -26.6490   21.5040 C   0  0  0  0  0  2  0  0  0  0  0  0
  -18.2250  -26.7970   22.1520 C   0  0  0  0  0  2  0  0  0  0  0  0
  -19.1980  -28.8670   23.3110 C   0  0  0  0  0  0  0  0  0  0  0  0
  -18.9990  -30.1140   23.9430 C   0  0  0  0  0  3  0  0  0  0  0  0
  -17.7030  -30.6230   24.1350 C   0  0  0  0  0  3  0  0  0  0  0  0
  -16.5870  -29.8860   23.7060 C   0  0  0  0  0  3  0  0  0  0  0  0
  -16.7710  -28.6410   23.0760 C   0  0  0  0  0  3  0  0  0  0  0  0
  -25.8650  -32.5440   23.9170 C   0  0  0  0  0  3  0  0  0  0  0  0
  -26.3480  -31.7850   25.2130 C   0  0  1  0  0  0  0  0  0  0  0  0
  -25.2280  -31.5550   26.2520 C   0  0  0  0  0  1  0  0  0  0  0  0
  -26.9430  -30.4050   24.8480 C   0  0  0  0  0  1  0  0  0  0  0  0
  -27.4790  -32.5880   25.8990 C   0  0  0  0  0  1  0  0  0  0  0  0
  -25.5520  -33.9460   24.2190 N   0  0  0  0  0  0  0  0  0  0  0  0
  -25.9160  -34.9880   23.4580 C   0  0  0  0  0  0  0  0  0  0  0  0
  -26.6190  -34.8690   22.4500 O   0  0  0  0  0  0  0  0  0  0  0  0
  -24.9280  -34.1140   24.9940 H   0  0  0  0  0  0  0  0  0  0  0  0
  -24.2140  -36.7890   23.0200 C   0  0  0  0  0  1  0  0  0  0  0  0
  -25.4220  -36.3850   23.8800 C   0  0  0  0  0  3  0  0  0  0  0  0
  -27.5230  -37.2670   24.7910 C   0  0  0  0  0  1  0  0  0  0  0  0
  -26.4650  -37.4290   23.7980 N   0  0  0  0  0  0  0  0  0  0  0  0
  -26.0590  -38.3530   23.9180 H   0  0  0  0  0  0  0  0  0  0  0  0
  1  3  1  0
  1 57  1  0
  2  1  2  0
  3  8  2  0
  4  3  1  0
  5  7  1  0
  5  4  1  0
  6  2  1  0
  7 13  1  0
  7  2  1  0
 10  9  1  0
 11 14  2  0
 11 13  1  0
 12 18  1  0
 12  9  2  0
 13 10  2  0
 14 12  1  0
 15 17  1  0
 15 14  1  0
 16 15  1  0
 19 27  1  0
 20 25  1  0
 21 22  1  0
 21 20  1  0
 23 22  1  0
 23 32  1  0
 23 24  1  0
 25 19  1  0
 25 24  1  0
 26 19  2  0
 27 18  1  0
 27 28  1  0
 29 30  2  0
 30 49  1  0
 31 30  1  0
 31 34  1  0
 32 33  1  0
 32 29  1  0
 33 31  2  0
 34 35  1  0
 35 36  2  0
 37 40  1  0
 37 36  1  0
 38 37  2  0
 39 38  1  0
 39 34  2  0
 40 41  1  0
 41 42  1  0
 42 43  2  0
 44 43  1  0
 44 48  1  0
 45 44  2  0
 46 41  2  0
 46 45  1  0
 47 46  1  0
 49 50  1  0
 50 53  1  0
 50 52  1  0
 51 49  2  0
 54 55  1  0
 54 29  1  0
 56 54  1  0
 58 60  1  0
 58 57  1  0
 59 70  2  0
 60 65  1  0
 61 69  1  0
 61 71  1  0
 62 68  1  0
 62 64  1  0
 63 69  1  0
 64 65  2  0
 64 63  1  0
 66 67  1  0
 66 60  2  0
 67 62  2  0
 68 61  1  0
 69 59  1  0
 71 73  2  0
 72 71  1  0
 74 72  1  0
 75 84  2  0
 75 80  1  0
 76 72  1  0
 76 80  1  0
 77 76  1  0
 78 79  1  0
 78 77  1  0
 79 75  1  0
 80 81  2  0
 81 82  1  0
 83 82  2  0
 84 83  1  0
 85 59  1  0
 85 90  1  0
 85 86  1  0
 86 89  1  1
 86 87  1  0
 88 86  1  0
 90 93  1  0
 91 95  1  0
 91 90  1  0
 92 91  2  0
 95 94  1  0
 97 95  1  0
 97 98  1  0
 97 96  1  0
M  ISO  4  19 100  27 100  57 101  58 101
M  END
>  <TORSDO>  (68) 
F 20

>  <SCORE>  (68) 
-14.380

>  <name>  (68) 
67

>  <ligand_id>  (68) 
67

>  <original_smiles>  (68) 
[H]c1c([H])c([H])c2c(c1[H])C([H])([H])C([H])([H])C([H])([H])C2([H])N([H])C(=O)C1([H])N(C(=O)C([H])(N([H])C(=O)C([H])(N([H])C([H])([H])[H])C([H])([H])[H])C(C([H])([H])[H])(C([H])([H])[H])C([H])([H])[H])C([H])([H])c2c([H])c(OC([H])([H])C3=C(C([H])([H])[H])N(c4c([H])c([H])c(C([H])([H])N([H])C(=O)N5C([H])([H])C([H])([H])C([H])([H])C([H])(n6nc(-c7c([H])c([H])c(Oc8c([H])c([H])c(F)c([H])c8F)c([H])c7[H])c(C(=O)N([H])[H])c6N([H])[H])C5([H])[H])c(N([H])[H])c4[H])C([H])([H])C([H])([H])C3=O)c([H])c([H])c2C1([H])[H]

>  <smiles>  (68) 
[H]c1c([H])c([H])c2c(c1[H])C([H])([H])C([H])([H])C([H])([H])C2([H])N([H])C(=O)C1([H])N(C(=O)C([H])(N([H])C(=O)C([H])(N([H])C([H])([H])[H])C([H])([H])[H])C(C([H])([H])[H])(C([H])([H])[H])C([H])([H])[H])C([H])([H])c2c([H])c(OC([H])([H])C3=C(C([H])([H])[H])N(c4c([H])c([H])c(C([H])([H])N([H])C(=O)N5C([H])([H])C([H])([H])C([H])([H])C([H])(n6nc(-c7c([H])c([H])c(Oc8c([H])c([H])c(F)c([H])c8F)c([H])c7[H])c(C(=O)N([H])[H])c6N([H])[H])C5([H])[H])c(N([H])[H])c4[H])C([H])([H])C([H])([H])C3=O)c([H])c([H])c2C1([H])[H]

$$$$
68:0:0
     RDKit          3D

 97105  0  0  1  0  0  0  0  0999 V2000
  -30.4090  -19.7120   20.7180 C   0  0  0  0  0  3  0  0  0  0  0  0
  -29.3330  -17.6750   19.1400 C   0  0  0  0  0  3  0  0  0  0  0  0
  -30.7300  -18.3360   20.9820 C   0  0  0  0  0  0  0  0  0  0  0  0
  -29.5250  -20.1130   19.6800 C   0  0  0  0  0  0  0  0  0  0  0  0
  -30.2090  -17.2650   20.1780 C   0  0  0  0  0  0  0  0  0  0  0  0
  -28.9760  -19.0420   18.9110 C   0  0  0  0  0  0  0  0  0  0  0  0
  -31.6590  -18.0340   22.1490 C   0  0  0  0  0  1  0  0  0  0  0  0
  -30.9180  -14.8420   19.6680 C   0  0  0  0  0  0  0  0  0  0  0  0
  -30.4900  -12.6860   18.4530 C   0  0  0  0  0  2  0  0  0  0  0  0
  -29.3980  -12.8680   17.3750 C   0  0  0  0  0  2  0  0  0  0  0  0
  -27.9980  -12.6770   17.9860 C   0  0  0  0  0  2  0  0  0  0  0  0
  -27.8150  -13.4850   19.2980 C   0  0  0  0  0  3  0  0  0  0  0  0
  -29.0020  -13.2630   20.2630 C   0  0  0  0  0  2  0  0  0  0  0  0
  -30.2340  -13.6470   19.5570 N   0  0  0  0  0  0  0  0  0  0  0  0
  -31.9390  -15.0290   18.9890 O   0  0  0  0  0  0  0  0  0  0  0  0
  -30.2050  -15.4670   21.8360 C   0  0  0  0  0  2  0  0  0  0  0  0
  -30.3930  -15.8280   20.4940 N   0  0  0  0  0  0  0  0  0  0  0  0
  -29.4490  -16.1460   22.7310 N   0  0  0  0  0  0  0  0  0  0  0  0
  -29.3930  -15.8290   23.6890 H   0  0  0  0  0  0  0  0  0  0  0  0
  -28.9790  -17.0090   22.4970 H   0  0  0  0  0  0  0  0  0  0  0  0
  -25.5620  -14.0830   20.3770 C   0  0  0  0  0  0  0  0  0  0  0  0
  -24.5320  -13.3050   20.8330 C   0  0  0  0  0  0  0  0  0  0  0  0
  -24.9420  -11.9510   20.6380 C   0  0  0  0  0  0  0  0  0  0  0  0
  -26.5350  -13.2000   19.9400 N   0  0  0  0  0  0  0  0  0  0  0  0
  -26.1790  -11.9090   20.1560 N   0  0  0  0  0  0  0  0  0  0  0  0
  -24.2090  -10.6930   20.8250 C   0  0  0  0  0  0  0  0  0  0  0  0
  -24.6630   -9.7010   21.7190 C   0  0  0  0  0  3  0  0  0  0  0  0
  -23.9300   -8.5090   21.8950 C   0  0  0  0  0  3  0  0  0  0  0  0
  -22.7290   -8.2990   21.1760 C   0  0  0  0  0  0  0  0  0  0  0  0
  -22.2940   -9.2820   20.2690 C   0  0  0  0  0  3  0  0  0  0  0  0
  -23.0290  -10.4660   20.0900 C   0  0  0  0  0  3  0  0  0  0  0  0
  -21.9660   -7.1590   21.2640 O   0  0  0  0  0  0  0  0  0  0  0  0
  -21.8410   -6.4650   22.4420 C   0  0  0  0  0  0  0  0  0  0  0  0
  -21.3320   -7.0710   23.6110 C   0  0  0  0  0  3  0  0  0  0  0  0
  -21.1480   -6.3050   24.7790 C   0  0  0  0  0  3  0  0  0  0  0  0
  -21.4680   -4.9340   24.7810 C   0  0  0  0  0  0  0  0  0  0  0  0
  -21.9690   -4.3270   23.6150 C   0  0  0  0  0  3  0  0  0  0  0  0
  -22.1500   -5.0900   22.4490 C   0  0  0  0  0  0  0  0  0  0  0  0
  -22.6130   -4.4940   21.3240 F   0  0  0  0  0  0  0  0  0  0  0  0
  -21.2850   -4.1960   25.9010 F   0  0  0  0  0  0  0  0  0  0  0  0
  -23.1990  -13.7870   21.3290 C   0  0  0  0  0  0  0  0  0  0  0  0
  -22.5910  -13.0530   22.2530 N   0  0  0  0  0  0  0  0  0  0  0  0
  -22.7160  -14.8460   20.9310 O   0  0  0  0  0  0  0  0  0  0  0  0
  -23.0000  -12.1900   22.5810 H   0  0  0  0  0  0  0  0  0  0  0  0
  -21.7050  -13.3520   22.6310 H   0  0  0  0  0  0  0  0  0  0  0  0
  -25.7440  -15.4590   20.2790 N   0  0  0  0  0  0  0  0  0  0  0  0
  -24.9960  -16.1130   20.4910 H   0  0  0  0  0  0  0  0  0  0  0  0
  -26.5420  -15.8980   19.8460 H   0  0  0  0  0  0  0  0  0  0  0  0
  -26.8420  -18.6720   17.9610 C   0  0  0  0  0  1  0  0  0  0  0  0
  -28.0920  -19.3520   17.9040 O   0  0  0  0  0  0  0  0  0  0  0  0
  -29.2560  -21.6220   19.2470 C   0  0  0  0  0  2  0  0  0  0  0  0
  -28.8430  -24.0940   19.7510 C   0  0  0  0  0  0  0  0  0  0  0  0
  -29.0770  -22.8020   20.1750 N   0  0  0  0  0  0  0  0  0  0  0  0
  -28.8600  -24.3620   18.5460 O   0  0  0  0  0  0  0  0  0  0  0  0
  -29.0730  -22.6240   21.1700 H   0  0  0  0  0  0  0  0  0  0  0  0
  -28.5230  -25.2680   20.7650 C   0  0  0  0  0  2  0  0  0  0  0  0
  -28.6100  -26.6530   20.2370 O   0  0  0  0  0  0  0  0  0  0  0  0
  -24.5400  -31.8600   23.1550 C   0  0  0  0  0  0  0  0  0  0  0  0
  -27.4460  -27.4290   20.1990 C   0  0  0  0  0  0  0  0  0  0  0  0
  -23.4500  -30.4160   21.4730 C   0  0  0  0  0  3  0  0  0  0  0  0
  -25.0120  -28.9230   20.1000 C   0  0  0  0  0  0  0  0  0  0  0  0
  -25.9760  -30.8440   21.3700 C   0  0  0  0  0  2  0  0  0  0  0  0
  -26.1370  -29.4690   20.7300 C   0  0  0  0  0  0  0  0  0  0  0  0
  -27.3590  -28.7370   20.7650 C   0  0  0  0  0  3  0  0  0  0  0  0
  -26.2990  -26.9220   19.5530 C   0  0  0  0  0  3  0  0  0  0  0  0
  -25.0930  -27.6530   19.5010 C   0  0  0  0  0  3  0  0  0  0  0  0
  -23.7390  -29.7440   20.1030 C   0  0  0  0  0  2  0  0  0  0  0  0
  -24.6720  -31.0570   22.0570 N   0  0  0  0  0  0  0  0  0  0  0  0
  -23.4310  -32.0920   23.6550 O   0  0  0  0  0  0  0  0  0  0  0  0
  -22.8000  -29.3730   22.4120 C   0  0  0  0  0  0  0  0  0  0  0  0
  -21.4860  -29.1470   22.2420 N   0  0  0  0  0  0  0  0  0  0  0  0
  -23.4750  -28.7660   23.2470 O   0  0  0  0  0  0  0  0  0  0  0  0
  -20.9980  -29.6920   21.5440 H   0  0  0  0  0  0  0  0  0  0  0  0
  -18.1370  -27.8550   22.6610 C   0  0  0  0  0  0  0  0  0  0  0  0
  -20.6800  -28.1770   22.9810 C   0  0  0  0  0  3  0  0  0  0  0  0
  -20.8320  -26.7540   22.3930 C   0  0  0  0  0  2  0  0  0  0  0  0
  -19.7580  -26.4160   21.3540 C   0  0  0  0  0  2  0  0  0  0  0  0
  -18.3600  -26.5170   21.9740 C   0  0  0  0  0  2  0  0  0  0  0  0
  -19.2270  -28.6400   23.1210 C   0  0  0  0  0  0  0  0  0  0  0  0
  -18.9670  -29.8870   23.7290 C   0  0  0  0  0  3  0  0  0  0  0  0
  -17.6480  -30.3480   23.8860 C   0  0  0  0  0  3  0  0  0  0  0  0
  -16.5710  -29.5610   23.4440 C   0  0  0  0  0  3  0  0  0  0  0  0
  -16.8160  -28.3170   22.8360 C   0  0  0  0  0  3  0  0  0  0  0  0
  -25.7750  -32.5410   23.8200 C   0  0  0  0  0  3  0  0  0  0  0  0
  -26.3110  -31.7620   25.0830 C   0  0  1  0  0  0  0  0  0  0  0  0
  -25.2070  -31.3920   26.0990 C   0  0  0  0  0  1  0  0  0  0  0  0
  -27.0180  -30.4550   24.6580 C   0  0  0  0  0  1  0  0  0  0  0  0
  -27.3710  -32.6180   25.8170 C   0  0  0  0  0  1  0  0  0  0  0  0
  -25.3840  -33.9100   24.1850 N   0  0  0  0  0  0  0  0  0  0  0  0
  -25.6670  -35.0010   23.4600 C   0  0  0  0  0  0  0  0  0  0  0  0
  -26.3520  -34.9630   22.4340 O   0  0  0  0  0  0  0  0  0  0  0  0
  -24.7730  -34.0090   24.9810 H   0  0  0  0  0  0  0  0  0  0  0  0
  -23.8400  -36.7000   23.1430 C   0  0  0  0  0  1  0  0  0  0  0  0
  -25.0990  -36.3480   23.9500 C   0  0  0  0  0  3  0  0  0  0  0  0
  -27.1770  -37.3310   24.8140 C   0  0  0  0  0  1  0  0  0  0  0  0
  -26.0710  -37.4610   23.8670 N   0  0  0  0  0  0  0  0  0  0  0  0
  -25.6150  -38.3540   24.0330 H   0  0  0  0  0  0  0  0  0  0  0  0
  1  3  1  0
  2  5  1  0
  3  7  1  0
  4  1  2  0
  5 17  1  0
  5  3  2  0
  6  2  2  0
  6  4  1  0
  8 17  1  0
  9 14  1  0
 10 11  1  0
 10  9  1  0
 12 11  1  0
 12 24  1  0
 12 13  1  0
 14  8  1  0
 14 13  1  0
 15  8  2  0
 16 18  1  0
 17 16  1  0
 18 19  1  0
 20 18  1  0
 21 22  2  0
 22 41  1  0
 23 26  1  0
 23 22  1  0
 24 25  1  0
 24 21  1  0
 25 23  2  0
 26 27  1  0
 27 28  2  0
 29 32  1  0
 29 28  1  0
 30 29  2  0
 31 30  1  0
 31 26  2  0
 32 33  1  0
 33 38  2  0
 33 34  1  0
 34 35  2  0
 35 36  1  0
 36 40  1  0
 37 36  2  0
 38 37  1  0
 39 38  1  0
 41 42  1  0
 42 44  1  0
 42 45  1  0
 43 41  2  0
 46 21  1  0
 46 47  1  0
 48 46  1  0
 50 49  1  0
 50  6  1  0
 51  4  1  0
 51 53  1  0
 52 53  1  0
 52 56  1  0
 53 55  1  0
 54 52  2  0
 57 56  1  0
 58 69  2  0
 59 57  1  0
 59 64  1  0
 60 68  1  0
 60 70  1  0
 61 67  1  0
 61 63  1  0
 62 68  1  0
 63 64  2  0
 63 62  1  0
 65 59  2  0
 66 65  1  0
 66 61  2  0
 67 60  1  0
 68 58  1  0
 70 72  2  0
 71 70  1  0
 73 71  1  0
 74 83  2  0
 74 79  1  0
 75 71  1  0
 75 79  1  0
 76 75  1  0
 77 78  1  0
 77 76  1  0
 78 74  1  0
 79 80  2  0
 80 81  1  0
 82 81  2  0
 83 82  1  0
 84 58  1  0
 84 89  1  0
 84 85  1  0
 85 88  1  1
 85 86  1  0
 87 85  1  0
 89 92  1  0
 90 94  1  0
 90 89  1  0
 91 90  2  0
 94 93  1  0
 96 94  1  0
 96 97  1  0
 96 95  1  0
M  ISO  4   8 100  17 100  56 101  57 101
M  END
>  <TORSDO>  (69) 
F 20

>  <SCORE>  (69) 
-10.295

>  <name>  (69) 
68

>  <ligand_id>  (69) 
68

>  <original_smiles>  (69) 
[H]C(N(C(=O)N1C([H])([H])C([H])([H])C([H])([H])C([H])(n2nc(-c3c([H])c([H])c(Oc4c([H])c([H])c(F)c([H])c4F)c([H])c3[H])c(C(=O)N([H])[H])c2N([H])[H])C1([H])[H])c1c([H])c(OC([H])([H])[H])c(C([H])([H])N([H])C(=O)C([H])([H])Oc2c([H])c([H])c3c(c2[H])C([H])([H])N(C(=O)C([H])(N([H])C(=O)C([H])(N([H])C([H])([H])[H])C([H])([H])[H])C(C([H])([H])[H])(C([H])([H])[H])C([H])([H])[H])C([H])(C(=O)N([H])C2([H])c4c([H])c([H])c([H])c([H])c4C([H])([H])C([H])([H])C2([H])[H])C3([H])[H])c([H])c1C([H])([H])[H])=[N+]([H])[H]

>  <smiles>  (69) 
[H]C(N(C(=O)N1C([H])([H])C([H])([H])C([H])([H])C([H])(n2nc(-c3c([H])c([H])c(Oc4c([H])c([H])c(F)c([H])c4F)c([H])c3[H])c(C(=O)N([H])[H])c2N([H])[H])C1([H])[H])c1c([H])c(OC([H])([H])[H])c(C([H])([H])N([H])C(=O)C([H])([H])Oc2c([H])c([H])c3c(c2[H])C([H])([H])N(C(=O)C([H])(N([H])C(=O)C([H])(N([H])C([H])([H])[H])C([H])([H])[H])C(C([H])([H])[H])(C([H])([H])[H])C([H])([H])[H])C([H])(C(=O)N([H])C2([H])c4c([H])c([H])c([H])c([H])c4C([H])([H])C([H])([H])C2([H])[H])C3([H])[H])c([H])c1C([H])([H])[H])=[N+]([H])[H]

$$$$
69:0:0
     RDKit          3D

 95103  0  0  1  0  0  0  0  0999 V2000
  -29.5540  -18.3240   19.1280 C   0  0  0  0  0  3  0  0  0  0  0  0
  -29.6010  -19.7420   19.1630 C   0  0  0  0  0  3  0  0  0  0  0  0
  -31.8820  -18.2030   19.7180 C   0  0  0  0  0  3  0  0  0  0  0  0
  -30.6620  -17.5030   19.4980 C   0  0  0  0  0  0  0  0  0  0  0  0
  -31.9490  -19.6330   19.7360 C   0  0  0  0  0  0  0  0  0  0  0  0
  -30.7780  -20.4450   19.5220 C   0  0  0  0  0  0  0  0  0  0  0  0
  -31.1880  -14.9890   19.5270 C   0  0  0  0  0  0  0  0  0  0  0  0
  -30.9670  -12.7280   18.4350 C   0  0  0  0  0  2  0  0  0  0  0  0
  -29.8020  -12.7030   17.4130 C   0  0  0  0  0  2  0  0  0  0  0  0
  -28.4130  -12.5520   18.0760 C   0  0  0  0  0  2  0  0  0  0  0  0
  -28.2740  -13.3500   19.4010 C   0  0  0  0  0  3  0  0  0  0  0  0
  -29.5320  -13.1440   20.2770 C   0  0  0  0  0  2  0  0  0  0  0  0
  -30.6420  -13.7090   19.5030 N   0  0  0  0  0  0  0  0  0  0  0  0
  -32.2570  -15.1550   18.9220 O   0  0  0  0  0  0  0  0  0  0  0  0
  -30.4300  -16.1120   19.9370 N   0  0  0  0  0  0  0  0  0  0  0  0
  -26.1250  -13.8970   20.6930 C   0  0  0  0  0  0  0  0  0  0  0  0
  -25.1130  -13.1090   21.1510 C   0  0  0  0  0  0  0  0  0  0  0  0
  -25.4530  -11.7700   20.7810 C   0  0  0  0  0  0  0  0  0  0  0  0
  -27.0350  -13.0360   20.0960 N   0  0  0  0  0  0  0  0  0  0  0  0
  -26.6480  -11.7410   20.2040 N   0  0  0  0  0  0  0  0  0  0  0  0
  -24.6880  -10.5240   20.8910 C   0  0  0  0  0  0  0  0  0  0  0  0
  -25.0880   -9.4880   21.7660 C   0  0  0  0  0  3  0  0  0  0  0  0
  -24.3230   -8.3070   21.8700 C   0  0  0  0  0  3  0  0  0  0  0  0
  -23.1470   -8.1520   21.0990 C   0  0  0  0  0  0  0  0  0  0  0  0
  -22.7650   -9.1760   20.2160 C   0  0  0  0  0  3  0  0  0  0  0  0
  -23.5280  -10.3500   20.1070 C   0  0  0  0  0  3  0  0  0  0  0  0
  -22.3510   -7.0290   21.1210 O   0  0  0  0  0  0  0  0  0  0  0  0
  -22.0570   -6.3750   22.2890 C   0  0  0  0  0  0  0  0  0  0  0  0
  -21.4060   -7.0240   23.3610 C   0  0  0  0  0  3  0  0  0  0  0  0
  -21.0650   -6.2960   24.5200 C   0  0  0  0  0  3  0  0  0  0  0  0
  -21.3630   -4.9230   24.6030 C   0  0  0  0  0  0  0  0  0  0  0  0
  -22.0010   -4.2750   23.5340 C   0  0  0  0  0  3  0  0  0  0  0  0
  -22.3470   -4.9990   22.3780 C   0  0  0  0  0  0  0  0  0  0  0  0
  -22.9440   -4.3630   21.3430 F   0  0  0  0  0  0  0  0  0  0  0  0
  -21.0320   -4.2240   25.7170 F   0  0  0  0  0  0  0  0  0  0  0  0
  -23.8400  -13.5770   21.8040 C   0  0  0  0  0  0  0  0  0  0  0  0
  -23.2680  -12.7800   22.7000 N   0  0  0  0  0  0  0  0  0  0  0  0
  -23.3730  -14.6890   21.5550 O   0  0  0  0  0  0  0  0  0  0  0  0
  -23.6590  -11.8820   22.9340 H   0  0  0  0  0  0  0  0  0  0  0  0
  -22.4240  -13.0820   23.1680 H   0  0  0  0  0  0  0  0  0  0  0  0
  -26.3400  -15.2750   20.7090 N   0  0  0  0  0  0  0  0  0  0  0  0
  -25.6220  -15.9010   21.0540 H   0  0  0  0  0  0  0  0  0  0  0  0
  -27.0380  -15.7520   20.1570 H   0  0  0  0  0  0  0  0  0  0  0  0
  -29.4410  -16.1780   21.0690 C   0  0  0  0  0  2  0  0  0  0  0  0
  -29.9770  -16.9990   22.2610 C   0  0  0  0  0  0  0  0  0  0  0  0
  -29.0610  -18.0460   22.9140 C   0  0  0  0  0  1  0  0  0  0  0  0
  -31.1310  -16.8460   22.6650 O   0  0  0  0  0  0  0  0  0  0  0  0
  -33.1980  -20.2130   19.9960 N   0  0  0  0  0  0  0  0  0  0  0  0
  -33.4050  -21.1410   19.6380 H   0  0  0  0  0  0  0  0  0  0  0  0
  -34.0200  -19.6130   20.0230 H   0  0  0  0  0  0  0  0  0  0  0  0
  -30.8030  -21.8480   19.6760 O   0  0  0  0  0  0  0  0  0  0  0  0
  -29.6770  -22.7210   19.2920 C   0  0  0  0  0  2  0  0  0  0  0  0
  -29.9200  -24.2650   19.5960 C   0  0  0  0  0  3  0  0  0  0  0  0
  -28.8300  -25.3030   19.0730 C   0  0  0  0  0  3  0  0  0  0  0  0
  -28.7570  -26.6650   19.6540 O   0  0  0  0  0  0  0  0  0  0  0  0
  -24.6610  -31.5070   23.0990 C   0  0  0  0  0  0  0  0  0  0  0  0
  -27.5390  -27.3800   19.6900 C   0  0  0  0  0  0  0  0  0  0  0  0
  -23.5150  -30.1370   21.3930 C   0  0  0  0  0  3  0  0  0  0  0  0
  -25.0350  -28.7750   19.8460 C   0  0  0  0  0  0  0  0  0  0  0  0
  -26.0090  -30.6640   21.1500 C   0  0  0  0  0  2  0  0  0  0  0  0
  -26.1810  -29.3280   20.4350 C   0  0  0  0  0  0  0  0  0  0  0  0
  -27.4260  -28.6380   20.3590 C   0  0  0  0  0  3  0  0  0  0  0  0
  -26.3590  -26.8720   19.0930 C   0  0  0  0  0  3  0  0  0  0  0  0
  -25.1270  -27.5460   19.1700 C   0  0  0  0  0  3  0  0  0  0  0  0
  -23.7310  -29.5350   19.9770 C   0  0  0  0  0  2  0  0  0  0  0  0
  -24.7510  -30.7870   21.9400 N   0  0  0  0  0  0  0  0  0  0  0  0
  -23.5790  -31.6700   23.6740 O   0  0  0  0  0  0  0  0  0  0  0  0
  -22.9390  -29.0320   22.3080 C   0  0  0  0  0  0  0  0  0  0  0  0
  -21.6430  -28.7150   22.1320 N   0  0  0  0  0  0  0  0  0  0  0  0
  -23.6600  -28.4550   23.1280 O   0  0  0  0  0  0  0  0  0  0  0  0
  -21.1200  -29.2260   21.4320 H   0  0  0  0  0  0  0  0  0  0  0  0
  -18.4200  -27.1190   22.4690 C   0  0  0  0  0  0  0  0  0  0  0  0
  -20.9180  -27.6660   22.8450 C   0  0  0  0  0  3  0  0  0  0  0  0
  -21.2110  -26.2790   22.2270 C   0  0  0  0  0  2  0  0  0  0  0  0
  -20.1880  -25.8680   21.1640 C   0  0  0  0  0  2  0  0  0  0  0  0
  -18.7770  -25.8260   21.7590 C   0  0  0  0  0  2  0  0  0  0  0  0
  -19.4230  -27.9910   22.9660 C   0  0  0  0  0  0  0  0  0  0  0  0
  -19.0370  -29.2000   23.5830 C   0  0  0  0  0  3  0  0  0  0  0  0
  -17.6760  -29.5350   23.7170 C   0  0  0  0  0  3  0  0  0  0  0  0
  -16.6850  -28.6620   23.2360 C   0  0  0  0  0  3  0  0  0  0  0  0
  -17.0590  -27.4580   22.6130 C   0  0  0  0  0  3  0  0  0  0  0  0
  -25.9120  -32.1820   23.7390 C   0  0  0  0  0  3  0  0  0  0  0  0
  -25.5410  -33.5600   24.0940 N   0  0  0  0  0  0  0  0  0  0  0  0
  -25.8110  -34.6400   23.3480 C   0  0  0  0  0  0  0  0  0  0  0  0
  -26.4680  -34.5860   22.3050 O   0  0  0  0  0  0  0  0  0  0  0  0
  -24.9570  -33.6770   24.9080 H   0  0  0  0  0  0  0  0  0  0  0  0
  -23.9910  -36.3490   23.0550 C   0  0  0  0  0  1  0  0  0  0  0  0
  -25.2690  -36.0000   23.8350 C   0  0  0  0  0  3  0  0  0  0  0  0
  -27.3760  -36.9770   24.6280 C   0  0  0  0  0  1  0  0  0  0  0  0
  -26.2430  -37.1030   23.7120 N   0  0  0  0  0  0  0  0  0  0  0  0
  -25.7980  -38.0020   23.8800 H   0  0  0  0  0  0  0  0  0  0  0  0
  -26.4510  -31.4080   25.0030 C   0  0  1  0  0  0  0  0  0  0  0  0
  -25.3630  -31.0900   26.0560 C   0  0  0  0  0  1  0  0  0  0  0  0
  -27.0990  -30.0690   24.5730 C   0  0  0  0  0  1  0  0  0  0  0  0
  -27.5520  -32.2480   25.6930 C   0  0  0  0  0  1  0  0  0  0  0  0
  1  2  2  0
  1  4  1  0
  2  6  1  0
  3  5  1  0
  4  3  2  0
  4 15  1  0
  5 48  1  0
  6 51  1  0
  6  5  2  0
  7 15  1  0
  8 13  1  0
  9 10  1  0
  9  8  1  0
 11 10  1  0
 11 19  1  0
 11 12  1  0
 13  7  1  0
 13 12  1  0
 14  7  2  0
 15 44  1  0
 16 41  1  0
 16 17  2  0
 17 36  1  0
 18 21  1  0
 18 17  1  0
 19 20  1  0
 19 16  1  0
 20 18  2  0
 21 22  1  0
 22 23  2  0
 24 27  1  0
 24 23  1  0
 25 24  2  0
 26 25  1  0
 26 21  2  0
 27 28  1  0
 28 33  2  0
 28 29  1  0
 29 30  2  0
 30 31  1  0
 31 35  1  0
 32 31  2  0
 33 32  1  0
 34 33  1  0
 36 37  1  0
 37 39  1  0
 37 40  1  0
 38 36  2  0
 41 42  1  0
 43 41  1  0
 44 45  1  0
 45 47  2  0
 45 46  1  0
 48 50  1  0
 49 48  1  0
 52 53  1  0
 52 51  1  0
 54 53  2  0
 54 55  1  0
 55 57  1  0
 56 67  2  0
 57 62  1  0
 58 66  1  0
 58 68  1  0
 59 65  1  0
 59 61  1  0
 60 66  1  0
 61 60  1  0
 62 61  2  0
 63 64  1  0
 63 57  2  0
 64 59  2  0
 65 58  1  0
 66 56  1  0
 68 70  2  0
 69 68  1  0
 71 69  1  0
 72 81  2  0
 72 77  1  0
 73 69  1  0
 73 77  1  0
 74 73  1  0
 75 76  1  0
 75 74  1  0
 76 72  1  0
 77 78  2  0
 78 79  1  0
 80 79  2  0
 81 80  1  0
 82 56  1  0
 82 83  1  0
 82 92  1  0
 83 86  1  0
 84 88  1  0
 84 83  1  0
 85 84  2  0
 88 87  1  0
 90 88  1  0
 90 91  1  0
 90 89  1  0
 92 95  1  1
 92 93  1  0
 94 92  1  0
M  ISO  4   7 100  15 100  54 101  55 101
M  END
>  <TORSDO>  (70) 
F 23

>  <SCORE>  (70) 
-6.303

>  <name>  (70) 
69

>  <ligand_id>  (70) 
69

>  <original_smiles>  (70) 
[H]c1c([H])c([H])c2c(c1[H])C([H])([H])C([H])([H])C([H])([H])C2([H])N([H])C(=O)C1([H])N(C(=O)C([H])(N([H])C(=O)C([H])(N([H])C([H])([H])[H])C([H])([H])[H])C(C([H])([H])[H])(C([H])([H])[H])C([H])([H])[H])C([H])([H])c2c([H])c(OC([H])([H])C([H])([H])C([H])([H])Oc3c([H])c([H])c(N(C(=O)N4C([H])([H])C([H])([H])C([H])([H])C([H])(n5nc(-c6c([H])c([H])c(Oc7c([H])c([H])c(F)c([H])c7F)c([H])c6[H])c(C(=O)N([H])[H])c5N([H])[H])C4([H])[H])C([H])([H])C(=O)C([H])([H])[H])c([H])c3N([H])[H])c([H])c([H])c2C1([H])[H]

>  <smiles>  (70) 
[H]c1c([H])c([H])c2c(c1[H])C([H])([H])C([H])([H])C([H])([H])C2([H])N([H])C(=O)C1([H])N(C(=O)C([H])(N([H])C(=O)C([H])(N([H])C([H])([H])[H])C([H])([H])[H])C(C([H])([H])[H])(C([H])([H])[H])C([H])([H])[H])C([H])([H])c2c([H])c(OC([H])([H])C([H])([H])C([H])([H])Oc3c([H])c([H])c(N(C(=O)N4C([H])([H])C([H])([H])C([H])([H])C([H])(n5nc(-c6c([H])c([H])c(Oc7c([H])c([H])c(F)c([H])c7F)c([H])c6[H])c(C(=O)N([H])[H])c5N([H])[H])C4([H])[H])C([H])([H])C(=O)C([H])([H])[H])c([H])c3N([H])[H])c([H])c([H])c2C1([H])[H]

$$$$
70:0:0
     RDKit          3D

 99108  0  0  1  0  0  0  0  0999 V2000
  -27.1920  -21.0180   18.6610 C   0  0  0  0  0  0  0  0  0  0  0  0
  -28.7760  -22.3550   19.8700 C   0  0  0  0  0  0  0  0  0  0  0  0
  -26.2330  -22.1990   18.5570 C   0  0  0  0  0  2  0  0  0  0  0  0
  -27.0070  -23.4970   18.4280 C   0  0  0  0  0  2  0  0  0  0  0  0
  -27.9410  -23.7260   19.6340 C   0  0  0  0  0  3  0  0  0  0  0  0
  -28.3240  -21.1030   19.4190 N   0  0  0  0  0  0  0  0  0  0  0  0
  -26.8840  -20.0090   18.0140 O   0  0  0  0  0  0  0  0  0  0  0  0
  -29.8420  -22.4420   20.4840 O   0  0  0  0  0  0  0  0  0  0  0  0
  -30.1500  -19.2660   19.2240 C   0  0  0  0  0  3  0  0  0  0  0  0
  -30.5400  -17.8880   19.3660 C   0  0  0  0  0  3  0  0  0  0  0  0
  -28.1230  -18.7910   20.4090 C   0  0  0  0  0  3  0  0  0  0  0  0
  -28.9160  -19.7680   19.7390 C   0  0  0  0  0  0  0  0  0  0  0  0
  -29.7290  -16.9130   20.0230 C   0  0  0  0  0  0  0  0  0  0  0  0
  -28.4940  -17.4190   20.5260 C   0  0  0  0  0  0  0  0  0  0  0  0
  -30.5110  -14.5560   19.3540 C   0  0  0  0  0  0  0  0  0  0  0  0
  -29.9920  -12.4120   18.1640 C   0  0  0  0  0  2  0  0  0  0  0  0
  -28.8790  -12.6330   17.1170 C   0  0  0  0  0  2  0  0  0  0  0  0
  -27.4890  -12.4880   17.7630 C   0  0  0  0  0  2  0  0  0  0  0  0
  -27.3590  -13.2840   19.0880 C   0  0  0  0  0  3  0  0  0  0  0  0
  -28.5700  -13.0400   20.0130 C   0  0  0  0  0  2  0  0  0  0  0  0
  -29.7910  -13.3830   19.2650 N   0  0  0  0  0  0  0  0  0  0  0  0
  -31.5010  -14.7290   18.6340 O   0  0  0  0  0  0  0  0  0  0  0  0
  -30.1400  -15.5070   20.2870 N   0  0  0  0  0  0  0  0  0  0  0  0
  -25.1130  -13.8940   20.1710 C   0  0  0  0  0  0  0  0  0  0  0  0
  -24.0930  -13.1290   20.6700 C   0  0  0  0  0  0  0  0  0  0  0  0
  -24.5190  -11.7720   20.5380 C   0  0  0  0  0  0  0  0  0  0  0  0
  -26.0940  -13.0060   19.7650 N   0  0  0  0  0  0  0  0  0  0  0  0
  -25.7510  -11.7210   20.0410 N   0  0  0  0  0  0  0  0  0  0  0  0
  -23.8010  -10.5190   20.8030 C   0  0  0  0  0  0  0  0  0  0  0  0
  -24.3060   -9.5540   21.7020 C   0  0  0  0  0  3  0  0  0  0  0  0
  -23.5880   -8.3660   21.9560 C   0  0  0  0  0  3  0  0  0  0  0  0
  -22.3490   -8.1330   21.3110 C   0  0  0  0  0  0  0  0  0  0  0  0
  -21.8620   -9.0870   20.4000 C   0  0  0  0  0  3  0  0  0  0  0  0
  -22.5820  -10.2660   20.1450 C   0  0  0  0  0  3  0  0  0  0  0  0
  -21.5960   -6.9960   21.4750 O   0  0  0  0  0  0  0  0  0  0  0  0
  -21.5960   -6.2970   22.6550 C   0  0  0  0  0  0  0  0  0  0  0  0
  -21.2360   -6.9010   23.8800 C   0  0  0  0  0  3  0  0  0  0  0  0
  -21.1800   -6.1290   25.0570 C   0  0  0  0  0  3  0  0  0  0  0  0
  -21.4760   -4.7530   25.0120 C   0  0  0  0  0  0  0  0  0  0  0  0
  -21.8280   -4.1480   23.7930 C   0  0  0  0  0  3  0  0  0  0  0  0
  -21.8870   -4.9180   22.6180 C   0  0  0  0  0  0  0  0  0  0  0  0
  -22.2060   -4.3250   21.4410 F   0  0  0  0  0  0  0  0  0  0  0  0
  -21.4140   -4.0090   26.1400 F   0  0  0  0  0  0  0  0  0  0  0  0
  -22.7650  -13.6250   21.1630 C   0  0  0  0  0  0  0  0  0  0  0  0
  -22.1770  -12.9380   22.1350 N   0  0  0  0  0  0  0  0  0  0  0  0
  -22.2670  -14.6600   20.7240 O   0  0  0  0  0  0  0  0  0  0  0  0
  -22.6020  -12.1050   22.5170 H   0  0  0  0  0  0  0  0  0  0  0  0
  -21.2950  -13.2540   22.5090 H   0  0  0  0  0  0  0  0  0  0  0  0
  -25.2710  -15.2660   20.0200 N   0  0  0  0  0  0  0  0  0  0  0  0
  -24.5580  -15.8820   20.3940 H   0  0  0  0  0  0  0  0  0  0  0  0
  -26.1920  -15.7010   20.0570 H   0  0  0  0  0  0  0  0  0  0  0  0
  -30.5300  -15.1610   21.6790 C   0  0  0  0  0  2  0  0  0  0  0  0
  -30.9240  -17.3560   23.0090 C   0  0  0  0  0  1  0  0  0  0  0  0
  -31.5480  -16.1330   22.3180 C   0  0  0  0  0  2  0  0  0  0  0  0
  -27.5840  -16.5610   21.1410 N   0  0  0  0  0  0  0  0  0  0  0  0
  -26.9190  -16.9960   21.7680 H   0  0  0  0  0  0  0  0  0  0  0  0
  -27.9840  -15.7240   21.5430 H   0  0  0  0  0  0  0  0  0  0  0  0
  -28.6760  -25.1580   19.4240 C   0  0  0  0  0  2  0  0  0  0  0  0
  -28.4180  -26.4450   20.1390 O   0  0  0  0  0  0  0  0  0  0  0  0
  -24.5260  -31.7330   23.1080 C   0  0  0  0  0  0  0  0  0  0  0  0
  -27.2750  -27.2570   20.0250 C   0  0  0  0  0  0  0  0  0  0  0  0
  -23.3680  -30.3230   21.4430 C   0  0  0  0  0  3  0  0  0  0  0  0
  -24.8690  -28.8230   20.0100 C   0  0  0  0  0  0  0  0  0  0  0  0
  -25.9030  -30.6990   21.2910 C   0  0  0  0  0  2  0  0  0  0  0  0
  -26.0190  -29.3300   20.6250 C   0  0  0  0  0  0  0  0  0  0  0  0
  -27.2190  -28.5570   20.6270 C   0  0  0  0  0  3  0  0  0  0  0  0
  -26.1010  -26.8100   19.3920 C   0  0  0  0  0  3  0  0  0  0  0  0
  -24.9130  -27.5660   19.3870 C   0  0  0  0  0  3  0  0  0  0  0  0
  -23.6110  -29.6680   20.0570 C   0  0  0  0  0  2  0  0  0  0  0  0
  -24.6160  -30.9370   22.0030 N   0  0  0  0  0  0  0  0  0  0  0  0
  -23.4320  -31.9810   23.6350 O   0  0  0  0  0  0  0  0  0  0  0  0
  -22.7220  -29.2810   22.3880 C   0  0  0  0  0  0  0  0  0  0  0  0
  -21.4010  -29.0760   22.2480 N   0  0  0  0  0  0  0  0  0  0  0  0
  -23.4070  -28.6610   23.2050 O   0  0  0  0  0  0  0  0  0  0  0  0
  -20.9090  -29.6310   21.5620 H   0  0  0  0  0  0  0  0  0  0  0  0
  -18.0410  -27.8130   22.7110 C   0  0  0  0  0  0  0  0  0  0  0  0
  -20.5940  -28.1140   23.0000 C   0  0  0  0  0  3  0  0  0  0  0  0
  -20.7240  -26.6920   22.4060 C   0  0  0  0  0  2  0  0  0  0  0  0
  -19.6330  -26.3620   21.3820 C   0  0  0  0  0  2  0  0  0  0  0  0
  -18.2450  -26.4760   22.0190 C   0  0  0  0  0  2  0  0  0  0  0  0
  -19.1450  -28.5890   23.1570 C   0  0  0  0  0  0  0  0  0  0  0  0
  -18.9000  -29.8400   23.7660 C   0  0  0  0  0  3  0  0  0  0  0  0
  -17.5850  -30.3150   23.9320 C   0  0  0  0  0  3  0  0  0  0  0  0
  -16.4970  -29.5350   23.5060 C   0  0  0  0  0  3  0  0  0  0  0  0
  -16.7260  -28.2870   22.8990 C   0  0  0  0  0  3  0  0  0  0  0  0
  -25.7890  -32.3870   23.7490 C   0  0  0  0  0  3  0  0  0  0  0  0
  -25.4360  -33.7650   24.1160 N   0  0  0  0  0  0  0  0  0  0  0  0
  -25.7240  -34.8480   23.3810 C   0  0  0  0  0  0  0  0  0  0  0  0
  -26.3860  -34.7920   22.3410 O   0  0  0  0  0  0  0  0  0  0  0  0
  -24.8470  -33.8800   24.9280 H   0  0  0  0  0  0  0  0  0  0  0  0
  -23.9310  -36.5890   23.0970 C   0  0  0  0  0  1  0  0  0  0  0  0
  -25.1960  -36.2070   23.8800 C   0  0  0  0  0  3  0  0  0  0  0  0
  -27.3110  -37.1440   24.7040 C   0  0  0  0  0  1  0  0  0  0  0  0
  -26.1900  -37.2980   23.7820 N   0  0  0  0  0  0  0  0  0  0  0  0
  -25.7560  -38.2000   23.9570 H   0  0  0  0  0  0  0  0  0  0  0  0
  -26.3270  -31.6010   25.0080 C   0  0  1  0  0  0  0  0  0  0  0  0
  -25.2410  -31.3060   26.0700 C   0  0  0  0  0  1  0  0  0  0  0  0
  -26.9530  -30.2520   24.5860 C   0  0  0  0  0  1  0  0  0  0  0  0
  -27.4530  -32.4160   25.6900 C   0  0  0  0  0  1  0  0  0  0  0  0
  1  6  1  0
  2  8  2  0
  3  1  1  0
  4  3  1  0
  4  5  1  0
  5 58  1  0
  5  2  1  0
  6 12  1  0
  6  2  1  0
  7  1  2  0
  9 10  2  0
  9 12  1  0
 10 13  1  0
 11 14  1  0
 12 11  2  0
 13 23  1  0
 13 14  2  0
 14 55  1  0
 15 23  1  0
 16 21  1  0
 17 18  1  0
 17 16  1  0
 19 18  1  0
 19 27  1  0
 19 20  1  0
 21 15  1  0
 21 20  1  0
 22 15  2  0
 23 52  1  0
 24 25  2  0
 25 44  1  0
 26 25  1  0
 26 29  1  0
 27 28  1  0
 27 24  1  0
 28 26  2  0
 29 30  1  0
 30 31  2  0
 32 35  1  0
 32 31  1  0
 33 32  2  0
 34 33  1  0
 34 29  2  0
 35 36  1  0
 36 37  1  0
 37 38  2  0
 39 38  1  0
 39 43  1  0
 40 39  2  0
 41 36  2  0
 41 40  1  0
 42 41  1  0
 44 45  1  0
 45 48  1  0
 45 47  1  0
 46 44  2  0
 49 51  1  0
 49 24  1  0
 49 50  1  0
 52 54  1  0
 54 53  1  0
 55 57  1  0
 55 56  1  0
 58 59  1  0
 60 71  2  0
 61 59  1  0
 61 66  1  0
 62 70  1  0
 62 72  1  0
 63 69  1  0
 63 65  1  0
 64 70  1  0
 65 66  2  0
 65 64  1  0
 67 61  2  0
 68 67  1  0
 68 63  2  0
 69 62  1  0
 70 60  1  0
 72 74  2  0
 73 72  1  0
 75 73  1  0
 76 85  2  0
 76 81  1  0
 77 73  1  0
 77 81  1  0
 78 77  1  0
 79 80  1  0
 79 78  1  0
 80 76  1  0
 81 82  2  0
 82 83  1  0
 84 83  2  0
 85 84  1  0
 86 60  1  0
 86 87  1  0
 86 96  1  0
 87 90  1  0
 88 92  1  0
 88 87  1  0
 89 88  2  0
 92 91  1  0
 94 92  1  0
 94 95  1  0
 94 93  1  0
 96 99  1  1
 96 97  1  0
 98 96  1  0
M  ISO  4  15 100  23 100  58 101  59 101
M  END
>  <TORSDO>  (71) 
F 21

>  <SCORE>  (71) 
-10.740

>  <name>  (71) 
70

>  <ligand_id>  (71) 
70

>  <original_smiles>  (71) 
[H]c1c([H])c([H])c2c(c1[H])C([H])([H])C([H])([H])C([H])([H])C2([H])N([H])C(=O)C1([H])N(C(=O)C([H])(N([H])C(=O)C([H])(N([H])C([H])([H])[H])C([H])([H])[H])C(C([H])([H])[H])(C([H])([H])[H])C([H])([H])[H])C([H])([H])c2c([H])c(OC([H])([H])C3([H])C(=O)N(c4c([H])c([H])c(N(C(=O)N5C([H])([H])C([H])([H])C([H])([H])C([H])(n6nc(-c7c([H])c([H])c(Oc8c([H])c([H])c(F)c([H])c8F)c([H])c7[H])c(C(=O)N([H])[H])c6N([H])[H])C5([H])[H])C([H])([H])C([H])([H])C([H])([H])[H])c(N([H])[H])c4[H])C(=O)C([H])([H])C3([H])[H])c([H])c([H])c2C1([H])[H]

>  <smiles>  (71) 
[H]c1c([H])c([H])c2c(c1[H])C([H])([H])C([H])([H])C([H])([H])C2([H])N([H])C(=O)C1([H])N(C(=O)C([H])(N([H])C(=O)C([H])(N([H])C([H])([H])[H])C([H])([H])[H])C(C([H])([H])[H])(C([H])([H])[H])C([H])([H])[H])C([H])([H])c2c([H])c(OC([H])([H])C3([H])C(=O)N(c4c([H])c([H])c(N(C(=O)N5C([H])([H])C([H])([H])C([H])([H])C([H])(n6nc(-c7c([H])c([H])c(Oc8c([H])c([H])c(F)c([H])c8F)c([H])c7[H])c(C(=O)N([H])[H])c6N([H])[H])C5([H])[H])C([H])([H])C([H])([H])C([H])([H])[H])c(N([H])[H])c4[H])C(=O)C([H])([H])C3([H])[H])c([H])c([H])c2C1([H])[H]

$$$$
71:0:0
     RDKit          3D

 94100  0  0  1  0  0  0  0  0999 V2000
  -25.8350  -15.1670   21.3880 C   0  0  0  0  0  0  0  0  0  0  0  0
  -26.1530  -16.4010   20.2780 N   0  0  0  0  0  2  0  0  0  0  0  0
  -25.0860  -15.6450   22.2400 O   0  0  0  0  0  0  0  0  0  0  0  0
  -26.6800  -15.9000   19.5640 H   0  0  0  0  0  0  0  0  0  0  0  0
  -24.7220  -12.1190   21.5190 C   0  0  0  0  0  2  0  0  0  0  0  0
  -24.9120  -10.3070   20.6260 C   0  0  0  0  0  3  0  0  0  0  0  0
  -27.8810  -10.6310   21.8400 C   0  0  0  0  0  2  0  0  0  0  0  0
  -26.0580  -13.2970   21.8820 C   0  0  0  0  0  3  0  0  0  0  0  0
  -26.6200   -9.5080   20.8800 C   0  0  2  0  0  0  0  0  0  0  0  0
  -27.6250  -12.4690   22.2090 C   0  0  0  0  0  3  0  0  0  0  0  0
  -28.2460   -7.8440   20.6270 C   0  0  0  0  0  1  0  0  0  0  0  0
  -26.9060   -8.2510   20.4080 O   0  0  0  0  0  0  0  0  0  0  0  0
  -28.7930  -13.5980   22.2310 O   0  0  0  0  0  0  0  0  0  0  0  0
  -30.5780  -13.9120   21.7870 C   0  0  0  0  0  0  0  0  0  0  0  0
  -32.2810  -12.4550   20.4680 C   0  0  0  0  0  2  0  0  0  0  0  0
  -31.8660  -12.1460   18.9700 C   0  0  0  0  0  2  0  0  0  0  0  0
  -30.3530  -11.9170   18.6450 C   0  0  0  0  0  2  0  0  0  0  0  0
  -29.5370  -12.7210   19.6320 C   0  0  0  0  0  3  0  0  0  0  0  0
  -30.1150  -11.9620   20.9200 C   0  0  0  0  0  2  0  0  0  0  0  0
  -31.1190  -12.7590   21.2990 N   0  0  0  0  0  0  0  0  0  0  0  0
  -31.3900  -14.8960   21.7130 O   0  0  0  0  0  0  0  0  0  0  0  0
  -27.0560  -13.5670   19.0350 C   0  0  0  0  0  3  0  0  0  0  0  0
  -25.9290  -12.8060   18.9880 C   0  0  0  0  0  3  0  0  0  0  0  0
  -26.6130  -11.9760   19.9540 C   0  0  0  0  0  2  0  0  0  0  0  0
  -28.1300  -12.7360   19.3670 N   0  0  0  0  0  0  0  0  0  0  0  0
  -27.6460  -11.6240   19.1880 N   0  0  0  0  0  2  0  0  0  0  0  0
  -25.5860  -10.5400   22.2250 C   0  0  1  0  0  0  0  0  0  0  0  0
  -25.7100   -9.0610   22.5510 C   0  0  0  0  0  3  0  0  0  0  0  0
  -24.8410   -7.9030   22.2320 C   0  0  0  0  0  3  0  0  0  0  0  0
  -23.5400   -8.0200   21.6670 C   0  0  0  0  0  0  0  0  0  0  0  0
  -23.1770   -9.3400   21.6050 C   0  0  0  0  0  2  0  0  0  0  0  0
  -24.0460  -10.2630   22.3810 C   0  0  0  0  0  3  0  0  0  0  0  0
  -22.5860   -7.0190   21.4960 O   0  0  0  0  0  0  0  0  0  0  0  0
  -22.1400   -6.3620   22.6290 C   0  0  0  0  0  0  0  0  0  0  0  0
  -21.6820   -7.0750   23.7640 C   0  0  0  0  0  3  0  0  0  0  0  0
  -21.3460   -6.3940   24.9500 C   0  0  0  0  0  3  0  0  0  0  0  0
  -21.4530   -4.9940   25.0140 C   0  0  0  0  0  0  0  0  0  0  0  0
  -21.8470   -4.2720   23.8740 C   0  0  0  0  0  3  0  0  0  0  0  0
  -22.1760   -4.9500   22.6850 C   0  0  0  0  0  0  0  0  0  0  0  0
  -22.5480   -4.2350   21.5950 F   0  0  0  0  0  0  0  0  0  0  0  0
  -21.1730   -4.3450   26.1700 F   0  0  0  0  0  0  0  0  0  0  0  0
  -24.3860  -13.1820   18.7550 C   0  0  0  0  0  0  0  0  0  0  0  0
  -23.2930  -12.3710   18.8760 N   0  0  0  0  0  0  0  0  0  0  0  0
  -24.0530  -14.3240   18.6720 O   0  0  0  0  0  0  0  0  0  0  0  0
  -23.4130  -11.3950   19.0950 H   0  0  0  0  0  0  0  0  0  0  0  0
  -22.3650  -12.7570   18.7860 H   0  0  0  0  0  0  0  0  0  0  0  0
  -27.2700  -14.8720   18.8050 N   0  0  0  0  0  0  0  0  0  0  0  0
  -26.5600  -15.3340   18.2480 H   0  0  0  0  0  0  0  0  0  0  0  0
  -28.2040  -15.1040   18.4840 H   0  0  0  0  0  0  0  0  0  0  0  0
  -25.7480  -18.1900   19.5450 C   0  0  0  0  0 15  0  0  0  0  0  0
  -26.3890  -19.8340   18.4600 C   0  0  0  0  0  2  0  0  0  0  0  0
  -27.2640  -19.4410   17.6810 O   0  0  0  0  0  0  0  0  0  0  0  0
  -26.1400  -21.8710   18.1640 C   0  0  0  0  0 15  0  0  0  0  0  0
  -27.0230  -23.5800   17.7560 O   0  0  0  0  0  1  0  0  0  0  0  0
  -25.8360  -29.5310   22.7570 C   0  0  0  0  0  0  0  0  0  0  0  0
  -26.8100  -25.1640   18.1020 C   0  0  0  0  0  0  0  0  0  0  0  0
  -24.4030  -29.0800   20.8200 C   0  0  0  0  0  3  0  0  0  0  0  0
  -25.4530  -27.8360   18.7790 C   0  0  0  0  0  0  0  0  0  0  0  0
  -26.9350  -28.6580   20.5730 C   0  0  0  0  0  2  0  0  0  0  0  0
  -26.6370  -27.5480   19.4610 C   0  0  0  0  0  0  0  0  0  0  0  0
  -27.3250  -26.2460   19.0960 C   0  0  0  0  0  3  0  0  0  0  0  0
  -25.8290  -25.8350   17.3330 C   0  0  0  0  0  3  0  0  0  0  0  0
  -25.1430  -27.0370   17.6710 C   0  0  0  0  0  3  0  0  0  0  0  0
  -24.5160  -28.9500   19.2700 C   0  0  0  0  0  2  0  0  0  0  0  0
  -25.7640  -29.1140   21.4420 N   0  0  0  0  0  0  0  0  0  0  0  0
  -24.8180  -29.8130   23.4150 O   0  0  0  0  0  0  0  0  0  0  0  0
  -23.5270  -27.9380   21.4040 C   0  0  0  0  0  0  0  0  0  0  0  0
  -22.1880  -28.0680   21.3490 N   0  0  0  0  0  0  0  0  0  0  0  0
  -24.0650  -26.9390   21.8900 O   0  0  0  0  0  0  0  0  0  0  0  0
  -21.8070  -28.9190   20.9580 H   0  0  0  0  0  0  0  0  0  0  0  0
  -18.6460  -27.3450   21.7250 C   0  0  0  0  0  0  0  0  0  0  0  0
  -21.2170  -27.0560   21.7860 C   0  0  0  0  0  3  0  0  0  0  0  0
  -21.0130  -25.9780   20.6950 C   0  0  0  0  0  2  0  0  0  0  0  0
  -19.8370  -26.2830   19.7610 C   0  0  0  0  0  2  0  0  0  0  0  0
  -18.5320  -26.3820   20.5560 C   0  0  0  0  0  2  0  0  0  0  0  0
  -19.9070  -27.6740   22.2920 C   0  0  0  0  0  0  0  0  0  0  0  0
  -19.9560  -28.5960   23.3600 C   0  0  0  0  0  3  0  0  0  0  0  0
  -18.7780  -29.1860   23.8570 C   0  0  0  0  0  3  0  0  0  0  0  0
  -17.5330  -28.8490   23.2990 C   0  0  0  0  0  3  0  0  0  0  0  0
  -17.4680  -27.9270   22.2390 C   0  0  0  0  0  3  0  0  0  0  0  0
  -27.1950  -29.6890   23.5010 C   0  0  0  0  0  3  0  0  0  0  0  0
  -27.0220  -30.6900   24.5790 N   0  0  0  0  0  0  0  0  0  0  0  0
  -27.4820  -31.9480   24.5590 C   0  0  0  0  0  0  0  0  0  0  0  0
  -28.1540  -32.3900   23.6230 O   0  0  0  0  0  0  0  0  0  0  0  0
  -26.4320  -30.4150   25.3500 H   0  0  0  0  0  0  0  0  0  0  0  0
  -26.0090  -33.8220   25.3870 C   0  0  0  0  0  1  0  0  0  0  0  0
  -27.1520  -32.8630   25.7600 C   0  0  0  0  0  3  0  0  0  0  0  0
  -29.3290  -32.8330   26.9010 C   0  0  0  0  0  1  0  0  0  0  0  0
  -28.3100  -33.6480   26.2450 N   0  0  0  0  0  0  0  0  0  0  0  0
  -28.0110  -34.3670   26.8980 H   0  0  0  0  0  0  0  0  0  0  0  0
  -27.7190  -28.3350   24.1250 C   0  0  1  0  0  0  0  0  0  0  0  0
  -26.6760  -27.6080   25.0070 C   0  0  0  0  0  1  0  0  0  0  0  0
  -28.1620  -27.3430   23.0290 C   0  0  0  0  0  1  0  0  0  0  0  0
  -28.9730  -28.6080   24.9900 C   0  0  0  0  0  1  0  0  0  0  0  0
  1  8  1  0
  1  3  2  0
  2  1  1  0
  4  2  1  0
  5  8  1  0
 27  5  1  6
  6  9  1  0
  6 27  1  0
  6 32  1  0
  7 10  1  0
  8 10  1  0
  9  7  1  0
  9 28  1  0
 10 13  1  0
 12 11  1  0
  9 12  1  6
 14 13  1  0
 15 20  1  0
 16 15  1  0
 17 16  1  0
 17 18  1  0
 18 19  1  0
 19 20  1  0
 20 14  1  0
 21 14  2  0
 22 25  1  0
 23 22  1  0
 23 24  1  0
 25 18  1  0
 26 25  1  0
 26 24  1  0
 27 32  1  0
 27 28  1  0
 29 28  1  0
 30 29  2  0
 31 30  1  0
 31 32  1  0
 33 30  1  0
 33 34  1  0
 34 39  2  0
 34 35  1  0
 35 36  2  0
 36 37  1  0
 37 41  1  0
 38 37  2  0
 39 38  1  0
 40 39  1  0
 42 43  1  0
 42 23  1  0
 43 45  1  0
 44 42  2  0
 46 43  1  0
 47 22  1  0
 48 47  1  0
 49 47  1  0
 52 51  2  0
 54 56  1  0
 55 66  2  0
 55 81  1  0
 56 61  1  0
 57 67  1  0
 57 65  1  0
 58 64  1  0
 58 60  1  0
 59 65  1  0
 60 59  1  0
 61 60  2  0
 62 63  1  0
 62 56  2  0
 63 58  2  0
 64 57  1  0
 65 55  1  0
 67 69  2  0
 68 67  1  0
 68 72  1  0
 70 68  1  0
 71 80  2  0
 71 76  1  0
 72 76  1  0
 73 72  1  0
 74 75  1  0
 74 73  1  0
 75 71  1  0
 76 77  2  0
 77 78  1  0
 79 78  2  0
 80 79  1  0
 81 91  1  0
 81 82  1  0
 82 85  1  0
 83 82  1  0
 83 87  1  0
 84 83  2  0
 86 87  1  0
 87 89  1  0
 89 90  1  0
 89 88  1  0
 91 94  1  1
 91 92  1  0
 93 91  1  0
M  ISO  4  13 100  14 100  53 101  54 101
M  END
>  <TORSDO>  (72) 
F 22

>  <SCORE>  (72) 
0.040

>  <name>  (72) 
71

>  <ligand_id>  (72) 
71

>  <original_smiles>  (72) 
[H]c1c([H])c([H])c2c(c1[H])C([H])([H])C([H])([H])C([H])([H])C2([H])N([H])C(=O)C1([H])N(C(=O)C([H])(N([H])C(=O)C([H])(N([H])C([H])([H])[H])C([H])([H])[H])C(C([H])([H])[H])(C([H])([H])[H])C([H])([H])[H])C([H])([H])c2c([H])c(OC([H])([H])C(=O)C([H])([H])N([H])C(=O)c3c([H])c([H])c(OC([H])([H])[H])c([H])c3OC(=O)N3C([H])([H])C([H])([H])C([H])([H])C([H])(n4nc(-c5c([H])c([H])c(Oc6c([H])c([H])c(F)c([H])c6F)c([H])c5[H])c(C(=O)N([H])[H])c4N([H])[H])C3([H])[H])c([H])c([H])c2C1([H])[H]

>  <smiles>  (72) 
[H]c1c([H])c([H])c2c(c1[H])C([H])([H])C([H])([H])C([H])([H])C2([H])N([H])C(=O)C1([H])N(C(=O)C([H])(N([H])C(=O)C([H])(N([H])C([H])([H])[H])C([H])([H])[H])C(C([H])([H])[H])(C([H])([H])[H])C([H])([H])[H])C([H])([H])c2c([H])c(OC([H])([H])C(=O)C([H])([H])N([H])C(=O)c3c([H])c([H])c(OC([H])([H])[H])c([H])c3OC(=O)N3C([H])([H])C([H])([H])C([H])([H])C([H])(n4nc(-c5c([H])c([H])c(Oc6c([H])c([H])c(F)c([H])c6F)c([H])c5[H])c(C(=O)N([H])[H])c4N([H])[H])C3([H])[H])c([H])c([H])c2C1([H])[H]

$$$$
72:0:0
     RDKit          3D

100108  0  0  1  0  0  0  0  0999 V2000
  -30.6630  -19.6290   19.0970 C   0  0  0  0  0  3  0  0  0  0  0  0
  -29.6460  -18.2410   20.8090 C   0  0  0  0  0  3  0  0  0  0  0  0
  -31.0910  -17.2120   19.1000 C   0  0  0  0  0  0  0  0  0  0  0  0
  -29.7710  -19.5080   20.1800 C   0  0  0  0  0  0  0  0  0  0  0  0
  -31.3080  -18.5110   18.5480 C   0  0  0  0  0  0  0  0  0  0  0  0
  -30.3100  -17.0830   20.3060 C   0  0  0  0  0  0  0  0  0  0  0  0
  -30.8690  -14.7680   21.1450 C   0  0  0  0  0  0  0  0  0  0  0  0
  -30.7670  -12.4790   20.2730 C   0  0  0  0  0  2  0  0  0  0  0  0
  -29.9840  -12.5160   18.9440 C   0  0  0  0  0  2  0  0  0  0  0  0
  -28.4650  -12.4240   19.1810 C   0  0  0  0  0  2  0  0  0  0  0  0
  -27.9550  -13.3690   20.3030 C   0  0  0  0  0  3  0  0  0  0  0  0
  -28.8650  -13.2970   21.5500 C   0  0  0  0  0  2  0  0  0  0  0  0
  -30.2470  -13.5600   21.1210 N   0  0  0  0  0  0  0  0  0  0  0  0
  -32.0910  -14.8960   21.0610 O   0  0  0  0  0  0  0  0  0  0  0  0
  -30.0440  -15.8310   20.9880 N   0  0  0  0  0  0  0  0  0  0  0  0
  -29.0860  -15.6630   21.2480 H   0  0  0  0  0  0  0  0  0  0  0  0
  -25.5010  -13.9850   20.7780 C   0  0  0  0  0  0  0  0  0  0  0  0
  -24.3950  -13.2130   21.0090 C   0  0  0  0  0  0  0  0  0  0  0  0
  -24.8470  -11.8580   20.9920 C   0  0  0  0  0  0  0  0  0  0  0  0
  -26.5580  -13.1000   20.6360 N   0  0  0  0  0  0  0  0  0  0  0  0
  -26.1630  -11.8150   20.8290 N   0  0  0  0  0  0  0  0  0  0  0  0
  -24.0990  -10.5970   21.0640 C   0  0  0  0  0  0  0  0  0  0  0  0
  -24.3990   -9.6150   22.0340 C   0  0  0  0  0  3  0  0  0  0  0  0
  -23.6520   -8.4190   22.0950 C   0  0  0  0  0  3  0  0  0  0  0  0
  -22.5920   -8.1960   21.1850 C   0  0  0  0  0  0  0  0  0  0  0  0
  -22.3130   -9.1660   20.2070 C   0  0  0  0  0  3  0  0  0  0  0  0
  -23.0600  -10.3550   20.1440 C   0  0  0  0  0  3  0  0  0  0  0  0
  -21.8290   -7.0540   21.1540 O   0  0  0  0  0  0  0  0  0  0  0  0
  -21.5550   -6.3420   22.2940 C   0  0  0  0  0  0  0  0  0  0  0  0
  -20.8770   -6.9180   23.3900 C   0  0  0  0  0  3  0  0  0  0  0  0
  -20.5550   -6.1290   24.5120 C   0  0  0  0  0  3  0  0  0  0  0  0
  -20.9010   -4.7650   24.5380 C   0  0  0  0  0  0  0  0  0  0  0  0
  -21.5710   -4.1880   23.4450 C   0  0  0  0  0  3  0  0  0  0  0  0
  -21.8940   -4.9740   22.3250 C   0  0  0  0  0  0  0  0  0  0  0  0
  -22.5200   -4.4080   21.2660 F   0  0  0  0  0  0  0  0  0  0  0  0
  -20.5850   -4.0050   25.6120 F   0  0  0  0  0  0  0  0  0  0  0  0
  -22.9780  -13.6950   21.1360 C   0  0  0  0  0  0  0  0  0  0  0  0
  -22.1590  -12.9890   21.9090 N   0  0  0  0  0  0  0  0  0  0  0  0
  -22.6020  -14.7290   20.5880 O   0  0  0  0  0  0  0  0  0  0  0  0
  -22.4720  -12.1510   22.3770 H   0  0  0  0  0  0  0  0  0  0  0  0
  -21.2050  -13.2930   22.0370 H   0  0  0  0  0  0  0  0  0  0  0  0
  -25.6940  -15.3580   20.6560 N   0  0  0  0  0  0  0  0  0  0  0  0
  -24.9230  -16.0160   20.7060 H   0  0  0  0  0  0  0  0  0  0  0  0
  -26.5730  -15.8000   20.4200 H   0  0  0  0  0  0  0  0  0  0  0  0
  -31.5980  -16.0200   18.3240 C   0  0  0  0  0  0  0  0  0  0  0  0
  -30.7390  -15.5190   17.4420 N   0  0  0  0  0  0  0  0  0  0  0  0
  -32.7420  -15.5810   18.4400 O   0  0  0  0  0  0  0  0  0  0  0  0
  -31.0110  -14.7520   16.8450 H   0  0  0  0  0  0  0  0  0  0  0  0
  -29.8240  -15.9330   17.3390 H   0  0  0  0  0  0  0  0  0  0  0  0
  -28.6310  -21.7050   19.8790 C   0  0  0  0  0  0  0  0  0  0  0  0
  -29.0510  -20.6650   20.6420 N   0  0  0  0  0  0  0  0  0  0  0  0
  -28.6190  -21.6600   18.6450 O   0  0  0  0  0  0  0  0  0  0  0  0
  -28.8410  -20.7130   21.6300 H   0  0  0  0  0  0  0  0  0  0  0  0
  -28.1090  -22.9790   20.5700 C   0  0  0  0  0  2  0  0  0  0  0  0
  -28.1640  -24.2420   19.6580 C   0  0  0  0  0  2  0  0  0  0  0  0
  -27.8700  -25.5730   20.3830 C   0  0  0  0  0  2  0  0  0  0  0  0
  -27.8480  -26.6940   19.4790 O   0  0  0  0  0  0  0  0  0  0  0  0
  -24.5570  -31.8000   23.1680 C   0  0  0  0  0  0  0  0  0  0  0  0
  -26.7370  -27.4970   19.5930 C   0  0  0  0  0  0  0  0  0  0  0  0
  -23.1620  -30.5780   21.5290 C   0  0  0  0  0  3  0  0  0  0  0  0
  -24.4290  -29.0960   19.8830 C   0  0  0  0  0  0  0  0  0  0  0  0
  -25.6780  -30.8500   21.1540 C   0  0  0  0  0  2  0  0  0  0  0  0
  -25.6500  -29.5290   20.4130 C   0  0  0  0  0  0  0  0  0  0  0  0
  -26.8110  -28.7390   20.2610 C   0  0  0  0  0  3  0  0  0  0  0  0
  -25.5040  -27.0770   19.0510 C   0  0  0  0  0  3  0  0  0  0  0  0
  -24.3500  -27.8710   19.1940 C   0  0  0  0  0  3  0  0  0  0  0  0
  -23.2310  -29.9960   20.0910 C   0  0  0  0  0  2  0  0  0  0  0  0
  -24.4890  -31.0850   22.0090 N   0  0  0  0  0  0  0  0  0  0  0  0
  -23.5350  -32.0740   23.8120 O   0  0  0  0  0  0  0  0  0  0  0  0
  -22.5400  -29.5140   22.4630 C   0  0  0  0  0  0  0  0  0  0  0  0
  -21.2110  -29.3440   22.3740 N   0  0  0  0  0  0  0  0  0  0  0  0
  -23.2480  -28.8480   23.2230 O   0  0  0  0  0  0  0  0  0  0  0  0
  -20.7010  -29.9350   21.7330 H   0  0  0  0  0  0  0  0  0  0  0  0
  -17.8590  -28.0910   22.8720 C   0  0  0  0  0  0  0  0  0  0  0  0
  -20.4160  -28.3750   23.1260 C   0  0  0  0  0  3  0  0  0  0  0  0
  -20.5310  -26.9610   22.5090 C   0  0  0  0  0  2  0  0  0  0  0  0
  -19.4240  -26.6540   21.4970 C   0  0  0  0  0  2  0  0  0  0  0  0
  -18.0460  -26.7630   22.1570 C   0  0  0  0  0  2  0  0  0  0  0  0
  -18.9720  -28.8550   23.3120 C   0  0  0  0  0  0  0  0  0  0  0  0
  -18.7440  -30.1000   23.9380 C   0  0  0  0  0  3  0  0  0  0  0  0
  -17.4340  -30.5810   24.1280 C   0  0  0  0  0  3  0  0  0  0  0  0
  -16.3360  -29.8140   23.7050 C   0  0  0  0  0  3  0  0  0  0  0  0
  -16.5490  -28.5700   23.0820 C   0  0  0  0  0  3  0  0  0  0  0  0
  -25.9170  -32.3260   23.7270 C   0  0  0  0  0  3  0  0  0  0  0  0
  -25.6990  -33.7010   24.1970 N   0  0  0  0  0  0  0  0  0  0  0  0
  -26.0510  -34.8020   23.5180 C   0  0  0  0  0  0  0  0  0  0  0  0
  -26.6660  -34.7600   22.4490 O   0  0  0  0  0  0  0  0  0  0  0  0
  -25.1520  -33.8110   25.0390 H   0  0  0  0  0  0  0  0  0  0  0  0
  -24.4180  -36.7080   23.3970 C   0  0  0  0  0  1  0  0  0  0  0  0
  -25.6580  -36.1630   24.1210 C   0  0  0  0  0  3  0  0  0  0  0  0
  -27.8640  -36.8490   24.9540 C   0  0  0  0  0  1  0  0  0  0  0  0
  -26.7450  -37.1660   24.0700 N   0  0  0  0  0  0  0  0  0  0  0  0
  -26.3970  -38.0870   24.3170 H   0  0  0  0  0  0  0  0  0  0  0  0
  -26.5050  -31.4270   24.8820 C   0  0  1  0  0  0  0  0  0  0  0  0
  -25.4970  -31.1320   26.0160 C   0  0  0  0  0  1  0  0  0  0  0  0
  -26.9930  -30.0710   24.3200 C   0  0  0  0  0  1  0  0  0  0  0  0
  -27.7400  -32.1180   25.5070 C   0  0  0  0  0  1  0  0  0  0  0  0
  -32.1270  -18.7570   17.4360 N   0  0  0  0  0  0  0  0  0  0  0  0
  -32.0950  -19.6540   16.9600 H   0  0  0  0  0  0  0  0  0  0  0  0
  -32.4600  -17.9950   16.8550 H   0  0  0  0  0  0  0  0  0  0  0  0
  1  4  1  0
  3  6  2  0
  4 51  1  0
  4  2  2  0
  5  1  2  0
  5  3  1  0
  6  2  1  0
  6 15  1  0
  8 13  1  0
  9 10  1  0
  9  8  1  0
 11 10  1  0
 11 20  1  0
 11 12  1  0
 13  7  1  0
 13 12  1  0
 14  7  2  0
 15  7  1  0
 15 16  1  0
 17 18  2  0
 18 37  1  0
 19 18  1  0
 19 22  1  0
 20 17  1  0
 20 21  1  0
 21 19  2  0
 22 23  1  0
 23 24  2  0
 25 24  1  0
 26 25  2  0
 27 26  1  0
 27 22  2  0
 28 25  1  0
 28 29  1  0
 29 34  2  0
 29 30  1  0
 30 31  2  0
 31 32  1  0
 32 36  1  0
 33 32  2  0
 34 33  1  0
 35 34  1  0
 37 38  1  0
 38 41  1  0
 38 40  1  0
 39 37  2  0
 42 43  1  0
 42 17  1  0
 44 42  1  0
 45 47  2  0
 45  3  1  0
 46 45  1  0
 48 46  1  0
 49 46  1  0
 50 54  1  0
 50 51  1  0
 51 53  1  0
 52 50  2  0
 55 56  1  0
 55 54  1  0
 57 59  1  0
 57 56  1  0
 58 69  2  0
 59 64  1  0
 60 68  1  0
 60 70  1  0
 61 67  1  0
 61 63  1  0
 62 68  1  0
 63 62  1  0
 64 63  2  0
 65 66  1  0
 65 59  2  0
 66 61  2  0
 67 60  1  0
 68 58  1  0
 70 72  2  0
 71 70  1  0
 73 71  1  0
 74 83  2  0
 74 79  1  0
 75 71  1  0
 75 79  1  0
 76 75  1  0
 77 78  1  0
 77 76  1  0
 78 74  1  0
 79 80  2  0
 80 81  1  0
 82 81  2  0
 83 82  1  0
 84 58  1  0
 84 85  1  0
 84 94  1  0
 85 88  1  0
 86 90  1  0
 86 85  1  0
 87 86  2  0
 90 89  1  0
 92 90  1  0
 92 93  1  0
 92 91  1  0
 94 97  1  1
 94 95  1  0
 96 94  1  0
 98  5  1  0
 99 98  1  0
100 98  1  0
M  ISO  4   7 100  15 100  56 101  57 101
M  END
>  <TORSDO>  (73) 
F 22

>  <SCORE>  (73) 
-11.988

>  <name>  (73) 
72

>  <ligand_id>  (73) 
72

>  <original_smiles>  (73) 
[H]c1c([H])c([H])c2c(c1[H])C([H])([H])C([H])([H])C([H])([H])C2([H])N([H])C(=O)C1([H])N(C(=O)C([H])(N([H])C(=O)C([H])(N([H])C([H])([H])[H])C([H])([H])[H])C(C([H])([H])[H])(C([H])([H])[H])C([H])([H])[H])C([H])([H])c2c([H])c(OC([H])([H])C([H])([H])C([H])([H])C(=O)N([H])c3c([H])c(N([H])[H])c(C(=O)N([H])[H])c(N([H])C(=O)N4C([H])([H])C([H])([H])C([H])([H])C([H])(n5nc(-c6c([H])c([H])c(Oc7c([H])c([H])c(F)c([H])c7F)c([H])c6[H])c(C(=O)N([H])[H])c5N([H])[H])C4([H])[H])c3[H])c([H])c([H])c2C1([H])[H]

>  <smiles>  (73) 
[H]c1c([H])c([H])c2c(c1[H])C([H])([H])C([H])([H])C([H])([H])C2([H])N([H])C(=O)C1([H])N(C(=O)C([H])(N([H])C(=O)C([H])(N([H])C([H])([H])[H])C([H])([H])[H])C(C([H])([H])[H])(C([H])([H])[H])C([H])([H])[H])C([H])([H])c2c([H])c(OC([H])([H])C([H])([H])C([H])([H])C(=O)N([H])c3c([H])c(N([H])[H])c(C(=O)N([H])[H])c(N([H])C(=O)N4C([H])([H])C([H])([H])C([H])([H])C([H])(n5nc(-c6c([H])c([H])c(Oc7c([H])c([H])c(F)c([H])c7F)c([H])c6[H])c(C(=O)N([H])[H])c5N([H])[H])C4([H])[H])c3[H])c([H])c([H])c2C1([H])[H]

$$$$
73:0:0
     RDKit          3D

 99107  0  0  1  0  0  0  0  0999 V2000
  -29.3410  -20.7670   21.2720 C   0  0  0  0  0  0  0  0  0  0  0  0
  -28.6020  -23.0480   20.8410 C   0  0  0  0  0  0  0  0  0  0  0  0
  -29.4980  -22.0250   20.7700 N   0  0  0  0  0  0  0  0  0  0  0  0
  -28.6110  -20.4990   22.2370 O   0  0  0  0  0  0  0  0  0  0  0  0
  -27.4280  -22.8530   21.1910 O   0  0  0  0  0  0  0  0  0  0  0  0
  -30.3080  -22.1350   20.1870 H   0  0  0  0  0  0  0  0  0  0  0  0
  -30.7600  -19.8310   19.3800 C   0  0  0  0  0  3  0  0  0  0  0  0
  -31.3240  -18.7520   18.6900 C   0  0  0  0  0  3  0  0  0  0  0  0
  -30.0820  -18.3030   21.1500 C   0  0  0  0  0  3  0  0  0  0  0  0
  -30.1060  -19.6270   20.6140 C   0  0  0  0  0  0  0  0  0  0  0  0
  -30.6620  -17.1960   20.4600 C   0  0  0  0  0  0  0  0  0  0  0  0
  -31.2290  -17.4280   19.1770 C   0  0  0  0  0  0  0  0  0  0  0  0
  -31.2830  -14.7760   20.6600 C   0  0  0  0  0  0  0  0  0  0  0  0
  -30.9780  -12.5990   19.5470 C   0  0  0  0  0  2  0  0  0  0  0  0
  -30.1140  -12.8550   18.2940 C   0  0  0  0  0  2  0  0  0  0  0  0
  -28.6150  -12.7720   18.6450 C   0  0  0  0  0  2  0  0  0  0  0  0
  -28.2410  -13.6260   19.8850 C   0  0  0  0  0  3  0  0  0  0  0  0
  -29.2250  -13.3670   21.0500 C   0  0  0  0  0  2  0  0  0  0  0  0
  -30.5920  -13.6040   20.5540 N   0  0  0  0  0  0  0  0  0  0  0  0
  -32.4710  -14.8800   20.3390 O   0  0  0  0  0  0  0  0  0  0  0  0
  -30.5430  -15.8600   20.9930 N   0  0  0  0  0  0  0  0  0  0  0  0
  -29.6620  -15.6410   21.4320 H   0  0  0  0  0  0  0  0  0  0  0  0
  -25.8280  -14.3310   20.4500 C   0  0  0  0  0  0  0  0  0  0  0  0
  -24.7070  -13.6060   20.7550 C   0  0  0  0  0  0  0  0  0  0  0  0
  -25.1090  -12.2370   20.7440 C   0  0  0  0  0  0  0  0  0  0  0  0
  -26.8490  -13.4080   20.2830 N   0  0  0  0  0  0  0  0  0  0  0  0
  -26.4150  -12.1430   20.5200 N   0  0  0  0  0  0  0  0  0  0  0  0
  -24.3200  -11.0060   20.8840 C   0  0  0  0  0  0  0  0  0  0  0  0
  -24.6990   -9.9820   21.7820 C   0  0  0  0  0  3  0  0  0  0  0  0
  -23.9140   -8.8170   21.9130 C   0  0  0  0  0  3  0  0  0  0  0  0
  -22.7350   -8.6670   21.1460 C   0  0  0  0  0  0  0  0  0  0  0  0
  -22.3700   -9.6790   20.2380 C   0  0  0  0  0  3  0  0  0  0  0  0
  -23.1560  -10.8370   20.1060 C   0  0  0  0  0  3  0  0  0  0  0  0
  -21.9230   -7.5590   21.1900 O   0  0  0  0  0  0  0  0  0  0  0  0
  -21.8400   -6.7700   22.3090 C   0  0  0  0  0  0  0  0  0  0  0  0
  -21.4530   -7.2950   23.5610 C   0  0  0  0  0  3  0  0  0  0  0  0
  -21.3240   -6.4410   24.6730 C   0  0  0  0  0  3  0  0  0  0  0  0
  -21.5600   -5.0590   24.5310 C   0  0  0  0  0  0  0  0  0  0  0  0
  -21.9370   -4.5320   23.2840 C   0  0  0  0  0  3  0  0  0  0  0  0
  -22.0750   -5.3860   22.1750 C   0  0  0  0  0  0  0  0  0  0  0  0
  -22.4230   -4.8710   20.9700 F   0  0  0  0  0  0  0  0  0  0  0  0
  -21.4220   -4.2370   25.5960 F   0  0  0  0  0  0  0  0  0  0  0  0
  -23.3170  -14.1440   20.9470 C   0  0  0  0  0  0  0  0  0  0  0  0
  -22.5200  -13.5020   21.7900 N   0  0  0  0  0  0  0  0  0  0  0  0
  -22.9510  -15.1770   20.3870 O   0  0  0  0  0  0  0  0  0  0  0  0
  -22.8390  -12.6790   22.2830 H   0  0  0  0  0  0  0  0  0  0  0  0
  -21.5830  -13.8400   21.9640 H   0  0  0  0  0  0  0  0  0  0  0  0
  -26.0560  -15.6920   20.2870 N   0  0  0  0  0  0  0  0  0  0  0  0
  -25.2930  -16.3590   20.3600 H   0  0  0  0  0  0  0  0  0  0  0  0
  -26.9270  -16.1000   19.9670 H   0  0  0  0  0  0  0  0  0  0  0  0
  -31.5090  -16.5530   16.9840 C   0  0  0  0  0  1  0  0  0  0  0  0
  -31.6330  -16.3680   18.3940 O   0  0  0  0  0  0  0  0  0  0  0  0
  -28.1480  -25.3760   20.2670 C   0  0  0  0  0  3  0  0  0  0  0  0
  -29.0760  -24.3980   20.4600 C   0  0  0  0  0  0  0  0  0  0  0  0
  -30.5100  -24.7570   20.3420 N   0  0  0  0  0  4  0  0  0  0  0  0
  -30.6300  -25.5430   19.7320 H   0  0  0  0  0  0  0  0  0  0  0  0
  -31.0580  -23.9990   19.9850 H   0  0  0  0  0  0  0  0  0  0  0  0
  -30.8850  -25.0100   21.2380 H   0  0  0  0  0  0  0  0  0  0  0  0
  -28.3740  -26.7190   19.9650 O   0  0  0  0  0  0  0  0  0  0  0  0
  -24.5780  -31.8690   23.1910 C   0  0  0  0  0  0  0  0  0  0  0  0
  -27.2460  -27.5340   19.9460 C   0  0  0  0  0  0  0  0  0  0  0  0
  -23.3820  -30.5150   21.5090 C   0  0  0  0  0  3  0  0  0  0  0  0
  -24.8460  -29.0500   20.0160 C   0  0  0  0  0  0  0  0  0  0  0  0
  -25.9060  -30.9000   21.3120 C   0  0  0  0  0  2  0  0  0  0  0  0
  -26.0060  -29.5510   20.6230 C   0  0  0  0  0  0  0  0  0  0  0  0
  -27.2100  -28.7970   20.5940 C   0  0  0  0  0  3  0  0  0  0  0  0
  -26.0780  -27.0870   19.2890 C   0  0  0  0  0  3  0  0  0  0  0  0
  -24.8800  -27.8180   19.3440 C   0  0  0  0  0  3  0  0  0  0  0  0
  -23.5900  -29.8900   20.1060 C   0  0  0  0  0  2  0  0  0  0  0  0
  -24.6400  -31.1050   22.0640 N   0  0  0  0  0  0  0  0  0  0  0  0
  -23.4940  -32.1100   23.7440 O   0  0  0  0  0  0  0  0  0  0  0  0
  -22.7480  -29.4490   22.4340 C   0  0  0  0  0  0  0  0  0  0  0  0
  -21.4230  -29.2620   22.3140 N   0  0  0  0  0  0  0  0  0  0  0  0
  -23.4450  -28.7920   23.2110 O   0  0  0  0  0  0  0  0  0  0  0  0
  -20.9180  -29.8400   21.6580 H   0  0  0  0  0  0  0  0  0  0  0  0
  -18.0630  -28.0410   22.8330 C   0  0  0  0  0  0  0  0  0  0  0  0
  -20.6260  -28.2880   23.0590 C   0  0  0  0  0  3  0  0  0  0  0  0
  -20.7160  -26.8880   22.4130 C   0  0  0  0  0  2  0  0  0  0  0  0
  -19.5930  -26.6120   21.4080 C   0  0  0  0  0  2  0  0  0  0  0  0
  -18.2260  -26.7260   22.0880 C   0  0  0  0  0  2  0  0  0  0  0  0
  -19.1920  -28.7810   23.2750 C   0  0  0  0  0  0  0  0  0  0  0  0
  -18.9890  -30.0140   23.9310 C   0  0  0  0  0  3  0  0  0  0  0  0
  -17.6900  -30.5090   24.1480 C   0  0  0  0  0  3  0  0  0  0  0  0
  -16.5750  -29.7660   23.7230 C   0  0  0  0  0  3  0  0  0  0  0  0
  -16.7620  -28.5340   23.0700 C   0  0  0  0  0  3  0  0  0  0  0  0
  -25.8570  -32.4960   23.8260 C   0  0  0  0  0  3  0  0  0  0  0  0
  -26.3610  -31.7160   25.1030 C   0  0  1  0  0  0  0  0  0  0  0  0
  -25.2580  -31.4830   26.1620 C   0  0  0  0  0  1  0  0  0  0  0  0
  -26.9380  -30.3370   24.7080 C   0  0  0  0  0  1  0  0  0  0  0  0
  -27.5120  -32.5000   25.7770 C   0  0  0  0  0  1  0  0  0  0  0  0
  -25.5430  -33.8910   24.1620 N   0  0  0  0  0  0  0  0  0  0  0  0
  -25.8880  -34.9510   23.4160 C   0  0  0  0  0  0  0  0  0  0  0  0
  -26.5750  -34.8540   22.3950 O   0  0  0  0  0  0  0  0  0  0  0  0
  -24.9260  -34.0360   24.9470 H   0  0  0  0  0  0  0  0  0  0  0  0
  -24.1620  -36.7440   23.0530 C   0  0  0  0  0  1  0  0  0  0  0  0
  -25.3940  -36.3350   23.8760 C   0  0  0  0  0  3  0  0  0  0  0  0
  -27.5120  -37.2230   24.7440 C   0  0  0  0  0  1  0  0  0  0  0  0
  -26.4260  -37.3900   23.7820 N   0  0  0  0  0  0  0  0  0  0  0  0
  -26.0180  -38.3100   23.9220 H   0  0  0  0  0  0  0  0  0  0  0  0
  1  4  2  0
  2  5  2  0
  3  2  1  0
  3  1  1  0
  6  3  1  0
  7 10  1  0
  8 12  1  0
  8  7  2  0
 10  9  2  0
 10  1  1  0
 11 21  1  0
 11  9  1  0
 12 11  2  0
 13 21  1  0
 14 19  1  0
 15 16  1  0
 15 14  1  0
 17 16  1  0
 17 26  1  0
 17 18  1  0
 19 13  1  0
 19 18  1  0
 20 13  2  0
 21 22  1  0
 23 24  2  0
 24 43  1  0
 25 24  1  0
 25 28  1  0
 26 23  1  0
 26 27  1  0
 27 25  2  0
 28 29  1  0
 29 30  2  0
 31 34  1  0
 31 30  1  0
 32 31  2  0
 33 32  1  0
 33 28  2  0
 34 35  1  0
 35 36  1  0
 36 37  2  0
 38 37  1  0
 38 42  1  0
 39 38  2  0
 40 35  2  0
 40 39  1  0
 41 40  1  0
 43 44  1  0
 44 47  1  0
 44 46  1  0
 45 43  2  0
 48 49  1  0
 48 23  1  0
 50 48  1  0
 51 52  1  0
 52 12  1  0
 53 54  2  0
 54  2  1  0
 55 54  1  0
 55 58  1  0
 56 55  1  0
 57 55  1  0
 59 53  1  0
 60 71  2  0
 61 59  1  0
 61 66  1  0
 62 70  1  0
 62 72  1  0
 63 69  1  0
 63 65  1  0
 64 70  1  0
 65 64  1  0
 66 65  2  0
 67 68  1  0
 67 61  2  0
 68 63  2  0
 69 62  1  0
 70 60  1  0
 72 74  2  0
 73 72  1  0
 75 73  1  0
 76 85  2  0
 76 81  1  0
 77 73  1  0
 77 81  1  0
 78 77  1  0
 79 80  1  0
 79 78  1  0
 80 76  1  0
 81 82  2  0
 82 83  1  0
 84 83  2  0
 85 84  1  0
 86 60  1  0
 86 91  1  0
 86 87  1  0
 87 90  1  1
 87 88  1  0
 89 87  1  0
 91 94  1  0
 92 96  1  0
 92 91  1  0
 93 92  2  0
 96 95  1  0
 98 96  1  0
 98 99  1  0
 98 97  1  0
M  ISO  4  13 100  21 100  53 101  59 101
M  END
>  <TORSDO>  (74) 
F 20

>  <SCORE>  (74) 
-12.490

>  <name>  (74) 
73

>  <ligand_id>  (74) 
73

>  <original_smiles>  (74) 
[H]C(Oc1c([H])c([H])c2c(c1[H])C([H])([H])N(C(=O)C([H])(N([H])C(=O)C([H])(N([H])C([H])([H])[H])C([H])([H])[H])C(C([H])([H])[H])(C([H])([H])[H])C([H])([H])[H])C([H])(C(=O)N([H])C1([H])c3c([H])c([H])c([H])c([H])c3C([H])([H])C([H])([H])C1([H])[H])C2([H])[H])=C(C(=O)N([H])C(=O)c1c([H])c([H])c(OC([H])([H])[H])c(N([H])C(=O)N2C([H])([H])C([H])([H])C([H])([H])C([H])(n3nc(-c4c([H])c([H])c(Oc5c([H])c([H])c(F)c([H])c5F)c([H])c4[H])c(C(=O)N([H])[H])c3N([H])[H])C2([H])[H])c1[H])[N+]([H])([H])[H]

>  <smiles>  (74) 
[H]C(Oc1c([H])c([H])c2c(c1[H])C([H])([H])N(C(=O)C([H])(N([H])C(=O)C([H])(N([H])C([H])([H])[H])C([H])([H])[H])C(C([H])([H])[H])(C([H])([H])[H])C([H])([H])[H])C([H])(C(=O)N([H])C1([H])c3c([H])c([H])c([H])c([H])c3C([H])([H])C([H])([H])C1([H])[H])C2([H])[H])=C(C(=O)N([H])C(=O)c1c([H])c([H])c(OC([H])([H])[H])c(N([H])C(=O)N2C([H])([H])C([H])([H])C([H])([H])C([H])(n3nc(-c4c([H])c([H])c(Oc5c([H])c([H])c(F)c([H])c5F)c([H])c4[H])c(C(=O)N([H])[H])c3N([H])[H])C2([H])[H])c1[H])[N+]([H])([H])[H]

$$$$
74:0:0
     RDKit          3D

 95104  0  0  1  0  0  0  0  0999 V2000
  -30.2470  -22.3320   19.1730 C   0  0  0  0  0  3  0  0  0  0  0  0
  -28.7320  -23.7560   20.1120 C   0  0  0  0  0  0  0  0  0  0  0  0
  -29.9030  -23.6550   19.3030 C   0  0  0  0  0  0  0  0  0  0  0  0
  -28.4260  -22.4290   20.4330 C   0  0  0  0  0  0  0  0  0  0  0  0
  -27.2740  -21.9630   21.2700 C   0  0  0  0  0  1  0  0  0  0  0  0
  -29.3700  -21.5140   19.8800 N   0  0  0  0  0  0  0  0  0  0  0  0
  -30.7630  -19.4010   19.6950 C   0  0  0  0  0  3  0  0  0  0  0  0
  -28.4810  -19.1340   20.3530 C   0  0  0  0  0  3  0  0  0  0  0  0
  -30.9720  -17.9890   19.8020 C   0  0  0  0  0  3  0  0  0  0  0  0
  -28.6960  -17.7240   20.4930 C   0  0  0  0  0  3  0  0  0  0  0  0
  -29.5180  -20.0410   19.9800 C   0  0  0  0  0  0  0  0  0  0  0  0
  -29.9490  -17.1000   20.2280 C   0  0  0  0  0  0  0  0  0  0  0  0
  -30.7290  -14.6900   19.7590 C   0  0  0  0  0  0  0  0  0  0  0  0
  -30.3430  -12.5270   18.5480 C   0  0  0  0  0  2  0  0  0  0  0  0
  -29.2820  -12.7010   17.4400 C   0  0  0  0  0  2  0  0  0  0  0  0
  -27.8560  -12.5360   18.0030 C   0  0  0  0  0  2  0  0  0  0  0  0
  -27.6400  -13.3400   19.3110 C   0  0  0  0  0  3  0  0  0  0  0  0
  -28.7940  -13.1120   20.3020 C   0  0  0  0  0  2  0  0  0  0  0  0
  -30.0490  -13.4960   19.6320 N   0  0  0  0  0  0  0  0  0  0  0  0
  -31.7720  -14.8760   19.1200 O   0  0  0  0  0  0  0  0  0  0  0  0
  -30.1910  -15.6820   20.5730 N   0  0  0  0  0  0  0  0  0  0  0  0
  -25.3520  -13.9390   20.3100 C   0  0  0  0  0  0  0  0  0  0  0  0
  -24.3200  -13.1660   20.7680 C   0  0  0  0  0  0  0  0  0  0  0  0
  -24.7490  -11.8100   20.6280 C   0  0  0  0  0  0  0  0  0  0  0  0
  -26.3460  -13.0540   19.9240 N   0  0  0  0  0  0  0  0  0  0  0  0
  -25.9960  -11.7650   20.1760 N   0  0  0  0  0  0  0  0  0  0  0  0
  -24.0250  -10.5520   20.8450 C   0  0  0  0  0  0  0  0  0  0  0  0
  -24.4850   -9.5840   21.7650 C   0  0  0  0  0  3  0  0  0  0  0  0
  -23.7610   -8.3900   21.9700 C   0  0  0  0  0  3  0  0  0  0  0  0
  -22.5640   -8.1550   21.2560 C   0  0  0  0  0  0  0  0  0  0  0  0
  -22.1220   -9.1110   20.3260 C   0  0  0  0  0  3  0  0  0  0  0  0
  -22.8450  -10.2970   20.1190 C   0  0  0  0  0  3  0  0  0  0  0  0
  -21.8100   -7.0120   21.3690 O   0  0  0  0  0  0  0  0  0  0  0  0
  -21.7310   -6.3150   22.5470 C   0  0  0  0  0  0  0  0  0  0  0  0
  -21.2780   -6.9180   23.7410 C   0  0  0  0  0  3  0  0  0  0  0  0
  -21.1470   -6.1480   24.9140 C   0  0  0  0  0  3  0  0  0  0  0  0
  -21.4570   -4.7750   24.8940 C   0  0  0  0  0  0  0  0  0  0  0  0
  -21.9010   -4.1710   23.7050 C   0  0  0  0  0  3  0  0  0  0  0  0
  -22.0340   -4.9380   22.5340 C   0  0  0  0  0  0  0  0  0  0  0  0
  -22.4440   -4.3480   21.3860 F   0  0  0  0  0  0  0  0  0  0  0  0
  -21.3220   -4.0320   26.0180 F   0  0  0  0  0  0  0  0  0  0  0  0
  -22.9710  -13.6520   21.2080 C   0  0  0  0  0  0  0  0  0  0  0  0
  -22.3290  -12.9420   22.1290 N   0  0  0  0  0  0  0  0  0  0  0  0
  -22.4950  -14.6970   20.7690 O   0  0  0  0  0  0  0  0  0  0  0  0
  -22.7240  -12.0980   22.5190 H   0  0  0  0  0  0  0  0  0  0  0  0
  -21.4240  -13.2520   22.4540 H   0  0  0  0  0  0  0  0  0  0  0  0
  -25.5210  -15.3120   20.1670 N   0  0  0  0  0  0  0  0  0  0  0  0
  -24.7760  -15.9700   20.3730 H   0  0  0  0  0  0  0  0  0  0  0  0
  -26.3240  -15.7460   19.7310 H   0  0  0  0  0  0  0  0  0  0  0  0
  -31.3300  -16.2560   22.7310 C   0  0  0  0  0  1  0  0  0  0  0  0
  -30.2440  -15.4250   22.0280 C   0  0  0  0  0  2  0  0  0  0  0  0
  -30.5820  -24.7020   18.7550 O   0  0  0  0  0  0  0  0  0  0  0  0
  -31.3580  -24.4400   18.2680 H   0  0  0  0  0  0  0  0  0  0  0  0
  -27.9520  -25.0490   20.5830 C   0  0  0  0  0  2  0  0  0  0  0  0
  -28.3120  -26.4240   20.1310 O   0  0  0  0  0  0  0  0  0  0  0  0
  -24.6200  -31.8670   23.1520 C   0  0  0  0  0  0  0  0  0  0  0  0
  -27.2390  -27.3260   20.0800 C   0  0  0  0  0  0  0  0  0  0  0  0
  -23.4260  -30.4740   21.5010 C   0  0  0  0  0  3  0  0  0  0  0  0
  -24.8850  -28.9430   20.0640 C   0  0  0  0  0  0  0  0  0  0  0  0
  -25.9660  -30.7980   21.3300 C   0  0  0  0  0  2  0  0  0  0  0  0
  -26.0510  -29.4240   20.6730 C   0  0  0  0  0  0  0  0  0  0  0  0
  -27.2350  -28.6260   20.6760 C   0  0  0  0  0  3  0  0  0  0  0  0
  -26.0620  -26.9160   19.4170 C   0  0  0  0  0  3  0  0  0  0  0  0
  -24.8920  -27.6940   19.4240 C   0  0  0  0  0  3  0  0  0  0  0  0
  -23.6450  -29.8110   20.1170 C   0  0  0  0  0  2  0  0  0  0  0  0
  -24.6900  -31.0640   22.0510 N   0  0  0  0  0  0  0  0  0  0  0  0
  -23.5340  -32.1400   23.6830 O   0  0  0  0  0  0  0  0  0  0  0  0
  -22.7620  -29.4490   22.4520 C   0  0  0  0  0  0  0  0  0  0  0  0
  -21.4350  -29.2810   22.3320 N   0  0  0  0  0  0  0  0  0  0  0  0
  -23.4420  -28.8080   23.2580 O   0  0  0  0  0  0  0  0  0  0  0  0
  -20.9450  -29.8510   21.6570 H   0  0  0  0  0  0  0  0  0  0  0  0
  -18.0540  -28.1000   22.8370 C   0  0  0  0  0  0  0  0  0  0  0  0
  -20.6150  -28.3400   23.0970 C   0  0  0  0  0  3  0  0  0  0  0  0
  -20.7050  -26.9140   22.5070 C   0  0  0  0  0  2  0  0  0  0  0  0
  -19.5960  -26.6100   21.4940 C   0  0  0  0  0  2  0  0  0  0  0  0
  -18.2190  -26.7560   22.1460 C   0  0  0  0  0  2  0  0  0  0  0  0
  -19.1790  -28.8500   23.2680 C   0  0  0  0  0  0  0  0  0  0  0  0
  -18.9720  -30.1090   23.8750 C   0  0  0  0  0  3  0  0  0  0  0  0
  -17.6710  -30.6150   24.0540 C   0  0  0  0  0  3  0  0  0  0  0  0
  -16.5600  -29.8610   23.6390 C   0  0  0  0  0  3  0  0  0  0  0  0
  -16.7520  -28.6060   23.0350 C   0  0  0  0  0  3  0  0  0  0  0  0
  -25.8980  -32.5000   23.7820 C   0  0  0  0  0  3  0  0  0  0  0  0
  -26.4310  -31.7040   25.0370 C   0  0  1  0  0  0  0  0  0  0  0  0
  -25.3480  -31.4270   26.1040 C   0  0  0  0  0  1  0  0  0  0  0  0
  -27.0300  -30.3440   24.6100 C   0  0  0  0  0  1  0  0  0  0  0  0
  -27.5740  -32.4990   25.7120 C   0  0  0  0  0  1  0  0  0  0  0  0
  -25.5750  -33.8870   24.1470 N   0  0  0  0  0  0  0  0  0  0  0  0
  -25.8910  -34.9620   23.4110 C   0  0  0  0  0  0  0  0  0  0  0  0
  -26.5560  -34.8910   22.3730 O   0  0  0  0  0  0  0  0  0  0  0  0
  -24.9870  -34.0170   24.9560 H   0  0  0  0  0  0  0  0  0  0  0  0
  -24.1470  -36.7480   23.1040 C   0  0  0  0  0  1  0  0  0  0  0  0
  -25.3910  -36.3330   23.9050 C   0  0  0  0  0  3  0  0  0  0  0  0
  -27.5190  -37.2150   24.7560 C   0  0  0  0  0  1  0  0  0  0  0  0
  -26.4140  -37.3980   23.8210 N   0  0  0  0  0  0  0  0  0  0  0  0
  -25.9990  -38.3090   23.9950 H   0  0  0  0  0  0  0  0  0  0  0  0
  1  3  2  0
  1  6  1  0
  2  4  2  0
  2 54  1  0
  3  2  1  0
  4  5  1  0
  6 11  1  0
  6  4  1  0
  7  9  2  0
  7 11  1  0
  8 10  1  0
  9 12  1  0
 11  8  2  0
 12 10  2  0
 12 21  1  0
 13 21  1  0
 14 19  1  0
 15 16  1  0
 15 14  1  0
 17 16  1  0
 17 25  1  0
 17 18  1  0
 19 13  1  0
 19 18  1  0
 20 13  2  0
 21 51  1  0
 22 23  2  0
 23 42  1  0
 24 23  1  0
 24 27  1  0
 25 26  1  0
 25 22  1  0
 26 24  2  0
 27 28  1  0
 28 29  2  0
 30 33  1  0
 30 29  1  0
 31 30  2  0
 32 31  1  0
 32 27  2  0
 33 34  1  0
 34 35  1  0
 35 36  2  0
 37 36  1  0
 37 41  1  0
 38 37  2  0
 39 34  2  0
 39 38  1  0
 40 39  1  0
 42 43  1  0
 43 46  1  0
 43 45  1  0
 44 42  2  0
 47 22  1  0
 47 48  1  0
 49 47  1  0
 51 50  1  0
 52  3  1  0
 53 52  1  0
 55 54  1  0
 56 67  2  0
 57 55  1  0
 57 62  1  0
 58 66  1  0
 58 68  1  0
 59 65  1  0
 59 61  1  0
 60 66  1  0
 61 62  2  0
 61 60  1  0
 63 64  1  0
 63 57  2  0
 64 59  2  0
 65 58  1  0
 66 56  1  0
 68 70  2  0
 69 68  1  0
 71 69  1  0
 72 81  2  0
 72 77  1  0
 73 69  1  0
 73 77  1  0
 74 73  1  0
 75 76  1  0
 75 74  1  0
 76 72  1  0
 77 78  2  0
 78 79  1  0
 80 79  2  0
 81 80  1  0
 82 56  1  0
 82 87  1  0
 82 83  1  0
 83 86  1  1
 83 84  1  0
 85 83  1  0
 87 90  1  0
 88 92  1  0
 88 87  1  0
 89 88  2  0
 92 91  1  0
 94 92  1  0
 94 95  1  0
 94 93  1  0
M  ISO  4  13 100  21 100  54 101  55 101
M  END
>  <TORSDO>  (75) 
F 20

>  <SCORE>  (75) 
-12.203

>  <name>  (75) 
74

>  <ligand_id>  (75) 
74

>  <original_smiles>  (75) 
[H]Oc1c(C([H])([H])Oc2c([H])c([H])c3c(c2[H])C([H])([H])N(C(=O)C([H])(N([H])C(=O)C([H])(N([H])C([H])([H])[H])C([H])([H])[H])C(C([H])([H])[H])(C([H])([H])[H])C([H])([H])[H])C([H])(C(=O)N([H])C2([H])c4c([H])c([H])c([H])c([H])c4C([H])([H])C([H])([H])C2([H])[H])C3([H])[H])c(C([H])([H])[H])n(-c2c([H])c([H])c(N(C(=O)N3C([H])([H])C([H])([H])C([H])([H])C([H])(n4nc(-c5c([H])c([H])c(Oc6c([H])c([H])c(F)c([H])c6F)c([H])c5[H])c(C(=O)N([H])[H])c4N([H])[H])C3([H])[H])C([H])([H])C([H])([H])[H])c([H])c2[H])c1[H]

>  <smiles>  (75) 
[H]Oc1c(C([H])([H])Oc2c([H])c([H])c3c(c2[H])C([H])([H])N(C(=O)C([H])(N([H])C(=O)C([H])(N([H])C([H])([H])[H])C([H])([H])[H])C(C([H])([H])[H])(C([H])([H])[H])C([H])([H])[H])C([H])(C(=O)N([H])C2([H])c4c([H])c([H])c([H])c([H])c4C([H])([H])C([H])([H])C2([H])[H])C3([H])[H])c(C([H])([H])[H])n(-c2c([H])c([H])c(N(C(=O)N3C([H])([H])C([H])([H])C([H])([H])C([H])(n4nc(-c5c([H])c([H])c(Oc6c([H])c([H])c(F)c([H])c6F)c([H])c5[H])c(C(=O)N([H])[H])c4N([H])[H])C3([H])[H])C([H])([H])C([H])([H])[H])c([H])c2[H])c1[H]

$$$$
75:0:0
     RDKit          3D

 95104  0  0  1  0  0  0  0  0999 V2000
  -29.2920  -22.5460   21.8930 C   0  0  0  0  0  0  0  0  0  0  0  0
  -30.0540  -23.8510   22.0670 C   0  0  0  0  0  2  0  0  0  0  0  0
  -30.4520  -24.1880   20.6370 C   0  0  0  0  0  2  0  0  0  0  0  0
  -29.2920  -23.5930   19.8400 C   0  0  0  0  0  3  0  0  0  0  0  0
  -29.0890  -22.2220   20.5920 N   0  0  0  0  0  0  0  0  0  0  0  0
  -28.9370  -21.8950   22.8800 O   0  0  0  0  0  0  0  0  0  0  0  0
  -30.4060  -20.2300   19.3990 C   0  0  0  0  0  3  0  0  0  0  0  0
  -30.6870  -18.8110   19.2190 C   0  0  0  0  0  3  0  0  0  0  0  0
  -28.6540  -19.6450   20.8610 C   0  0  0  0  0  3  0  0  0  0  0  0
  -29.3670  -20.7420   20.2440 C   0  0  0  0  0  0  0  0  0  0  0  0
  -29.9800  -17.7240   19.8560 C   0  0  0  0  0  0  0  0  0  0  0  0
  -28.9340  -18.2300   20.6920 C   0  0  0  0  0  0  0  0  0  0  0  0
  -30.8510  -15.1380   19.8220 C   0  0  0  0  0  0  0  0  0  0  0  0
  -30.7450  -12.7620   18.9510 C   0  0  0  0  0  2  0  0  0  0  0  0
  -29.7540  -12.6270   17.7730 C   0  0  0  0  0  2  0  0  0  0  0  0
  -28.3060  -12.4460   18.2770 C   0  0  0  0  0  2  0  0  0  0  0  0
  -27.9370  -13.3730   19.4690 C   0  0  0  0  0  3  0  0  0  0  0  0
  -29.0550  -13.4450   20.5260 C   0  0  0  0  0  2  0  0  0  0  0  0
  -30.2700  -13.8720   19.8190 N   0  0  0  0  0  0  0  0  0  0  0  0
  -32.0780  -15.1880   19.6720 O   0  0  0  0  0  0  0  0  0  0  0  0
  -29.8080  -16.1860   17.9590 C   0  0  0  0  0  1  0  0  0  0  0  0
  -30.0710  -16.2610   19.4080 N   0  0  0  0  0  0  0  0  0  0  0  0
  -25.5990  -13.9040   20.3610 C   0  0  0  0  0  0  0  0  0  0  0  0
  -24.5630  -13.1050   20.7580 C   0  0  0  0  0  0  0  0  0  0  0  0
  -25.0430  -11.7620   20.6670 C   0  0  0  0  0  0  0  0  0  0  0  0
  -26.6380  -13.0450   20.0430 N   0  0  0  0  0  0  0  0  0  0  0  0
  -26.3170  -11.7510   20.2930 N   0  0  0  0  0  0  0  0  0  0  0  0
  -24.3430  -10.4850   20.8570 C   0  0  0  0  0  0  0  0  0  0  0  0
  -24.7330   -9.5730   21.8620 C   0  0  0  0  0  3  0  0  0  0  0  0
  -24.0320   -8.3610   22.0390 C   0  0  0  0  0  3  0  0  0  0  0  0
  -22.9260   -8.0530   21.2100 C   0  0  0  0  0  0  0  0  0  0  0  0
  -22.5570   -8.9560   20.1970 C   0  0  0  0  0  3  0  0  0  0  0  0
  -23.2590  -10.1590   20.0190 C   0  0  0  0  0  3  0  0  0  0  0  0
  -22.2010   -6.8890   21.2930 O   0  0  0  0  0  0  0  0  0  0  0  0
  -21.9190   -6.3010   22.5000 C   0  0  0  0  0  0  0  0  0  0  0  0
  -21.1940   -6.9760   23.5060 C   0  0  0  0  0  3  0  0  0  0  0  0
  -20.8660   -6.3100   24.7040 C   0  0  0  0  0  3  0  0  0  0  0  0
  -21.2530   -4.9700   24.8940 C   0  0  0  0  0  0  0  0  0  0  0  0
  -21.9710   -4.2950   23.8920 C   0  0  0  0  0  3  0  0  0  0  0  0
  -22.3000   -4.9590   22.6960 C   0  0  0  0  0  0  0  0  0  0  0  0
  -22.9740   -4.2980   21.7240 F   0  0  0  0  0  0  0  0  0  0  0  0
  -20.9320   -4.3270   26.0410 F   0  0  0  0  0  0  0  0  0  0  0  0
  -23.1770  -13.5560   21.1140 C   0  0  0  0  0  0  0  0  0  0  0  0
  -22.5160  -12.8450   22.0220 N   0  0  0  0  0  0  0  0  0  0  0  0
  -22.6900  -14.5740   20.6250 O   0  0  0  0  0  0  0  0  0  0  0  0
  -22.9240  -12.0230   22.4390 H   0  0  0  0  0  0  0  0  0  0  0  0
  -21.5880  -13.1300   22.3020 H   0  0  0  0  0  0  0  0  0  0  0  0
  -25.7370  -15.2820   20.2240 N   0  0  0  0  0  0  0  0  0  0  0  0
  -24.9870  -15.9220   20.4600 H   0  0  0  0  0  0  0  0  0  0  0  0
  -26.6160  -15.7590   20.0550 H   0  0  0  0  0  0  0  0  0  0  0  0
  -28.1060  -17.3120   21.3350 N   0  0  0  0  0  0  0  0  0  0  0  0
  -27.5210  -17.6380   22.0970 H   0  0  0  0  0  0  0  0  0  0  0  0
  -28.4440  -16.3680   21.4730 H   0  0  0  0  0  0  0  0  0  0  0  0
  -28.1200  -24.8030   19.8520 C   0  0  0  0  0  2  0  0  0  0  0  0
  -28.3590  -26.3390   19.8400 O   0  0  0  0  0  0  0  0  0  0  0  0
  -24.6340  -31.7220   23.2100 C   0  0  0  0  0  0  0  0  0  0  0  0
  -27.2680  -27.2770   19.8640 C   0  0  0  0  0  0  0  0  0  0  0  0
  -23.4390  -30.4050   21.5030 C   0  0  0  0  0  3  0  0  0  0  0  0
  -24.8990  -28.9550   19.9690 C   0  0  0  0  0  0  0  0  0  0  0  0
  -25.9830  -30.7410   21.3210 C   0  0  0  0  0  2  0  0  0  0  0  0
  -26.0780  -29.3940   20.5860 C   0  0  0  0  0  0  0  0  0  0  0  0
  -27.2630  -28.5740   20.5140 C   0  0  0  0  0  3  0  0  0  0  0  0
  -26.0590  -26.9330   19.2200 C   0  0  0  0  0  3  0  0  0  0  0  0
  -24.9010  -27.7370   19.2720 C   0  0  0  0  0  3  0  0  0  0  0  0
  -23.6540  -29.8180   20.0840 C   0  0  0  0  0  2  0  0  0  0  0  0
  -24.7060  -30.9740   22.0670 N   0  0  0  0  0  0  0  0  0  0  0  0
  -23.5500  -31.9510   23.7690 O   0  0  0  0  0  0  0  0  0  0  0  0
  -22.7960  -29.3260   22.4090 C   0  0  0  0  0  0  0  0  0  0  0  0
  -21.4800  -29.0990   22.2530 N   0  0  0  0  0  0  0  0  0  0  0  0
  -23.4840  -28.6950   23.2180 O   0  0  0  0  0  0  0  0  0  0  0  0
  -20.9790  -29.6610   21.5790 H   0  0  0  0  0  0  0  0  0  0  0  0
  -18.1500  -27.7270   22.6450 C   0  0  0  0  0  0  0  0  0  0  0  0
  -20.6900  -28.0940   22.9690 C   0  0  0  0  0  3  0  0  0  0  0  0
  -20.8670  -26.6930   22.3370 C   0  0  0  0  0  2  0  0  0  0  0  0
  -19.7970  -26.3630   21.2910 C   0  0  0  0  0  2  0  0  0  0  0  0
  -18.4000  -26.4170   21.9150 C   0  0  0  0  0  2  0  0  0  0  0  0
  -19.2260  -28.5220   23.1250 C   0  0  0  0  0  0  0  0  0  0  0  0
  -18.9380  -29.7450   23.7670 C   0  0  0  0  0  3  0  0  0  0  0  0
  -17.6080  -30.1760   23.9340 C   0  0  0  0  0  3  0  0  0  0  0  0
  -16.5470  -29.3800   23.4690 C   0  0  0  0  0  3  0  0  0  0  0  0
  -16.8200  -28.1570   22.8290 C   0  0  0  0  0  3  0  0  0  0  0  0
  -25.9080  -32.3450   23.8590 C   0  0  0  0  0  3  0  0  0  0  0  0
  -26.3990  -31.5590   25.1370 C   0  0  1  0  0  0  0  0  0  0  0  0
  -25.2860  -31.3120   26.1820 C   0  0  0  0  0  1  0  0  0  0  0  0
  -26.9880  -30.1840   24.7440 C   0  0  0  0  0  1  0  0  0  0  0  0
  -27.5390  -32.3440   25.8280 C   0  0  0  0  0  1  0  0  0  0  0  0
  -25.5980  -33.7410   24.2030 N   0  0  0  0  0  0  0  0  0  0  0  0
  -25.9130  -34.8020   23.4480 C   0  0  0  0  0  0  0  0  0  0  0  0
  -26.5610  -34.7080   22.4030 O   0  0  0  0  0  0  0  0  0  0  0  0
  -25.0190  -33.8870   25.0170 H   0  0  0  0  0  0  0  0  0  0  0  0
  -24.1600  -36.5860   23.1650 C   0  0  0  0  0  1  0  0  0  0  0  0
  -25.4340  -36.1870   23.9280 C   0  0  0  0  0  3  0  0  0  0  0  0
  -27.5840  -37.0950   24.6930 C   0  0  0  0  0  1  0  0  0  0  0  0
  -26.4550  -37.2470   23.7790 N   0  0  0  0  0  0  0  0  0  0  0  0
  -26.0460  -38.1650   23.9310 H   0  0  0  0  0  0  0  0  0  0  0  0
  1  2  1  0
  1  6  2  0
  3  2  1  0
  4 54  1  0
  4  5  1  0
  4  3  1  0
  5  1  1  0
  7 10  1  0
  8  7  2  0
  8 11  1  0
 10  5  1  0
 10  9  2  0
 11 12  2  0
 12  9  1  0
 12 51  1  0
 14 19  1  0
 15 16  1  0
 15 14  1  0
 17 16  1  0
 17 26  1  0
 17 18  1  0
 19 13  1  0
 19 18  1  0
 20 13  2  0
 21 22  1  0
 22 13  1  0
 22 11  1  0
 23 24  2  0
 24 43  1  0
 25 24  1  0
 25 28  1  0
 26 27  1  0
 26 23  1  0
 27 25  2  0
 28 29  1  0
 29 30  2  0
 31 34  1  0
 31 30  1  0
 32 31  2  0
 33 32  1  0
 33 28  2  0
 34 35  1  0
 35 40  2  0
 35 36  1  0
 36 37  2  0
 37 38  1  0
 38 42  1  0
 39 38  2  0
 40 39  1  0
 41 40  1  0
 43 44  1  0
 44 47  1  0
 44 46  1  0
 45 43  2  0
 48 23  1  0
 48 49  1  0
 50 48  1  0
 51 53  1  0
 51 52  1  0
 55 54  1  0
 55 57  1  0
 56 67  2  0
 57 62  1  0
 58 66  1  0
 58 68  1  0
 59 65  1  0
 59 61  1  0
 60 66  1  0
 61 60  1  0
 62 61  2  0
 63 64  1  0
 63 57  2  0
 64 59  2  0
 65 58  1  0
 66 56  1  0
 68 70  2  0
 69 68  1  0
 71 69  1  0
 72 81  2  0
 72 77  1  0
 73 69  1  0
 73 77  1  0
 74 73  1  0
 75 76  1  0
 75 74  1  0
 76 72  1  0
 77 78  2  0
 78 79  1  0
 80 79  2  0
 81 80  1  0
 82 56  1  0
 82 87  1  0
 82 83  1  0
 83 86  1  1
 83 84  1  0
 85 83  1  0
 87 90  1  0
 88 92  1  0
 88 87  1  0
 89 88  2  0
 92 91  1  0
 94 92  1  0
 94 95  1  0
 94 93  1  0
M  ISO  4  13 100  22 100  54 101  55 101
M  END
>  <TORSDO>  (76) 
F 19

>  <SCORE>  (76) 
-11.958

>  <name>  (76) 
75

>  <ligand_id>  (76) 
75

>  <original_smiles>  (76) 
[H]c1c([H])c([H])c2c(c1[H])C([H])([H])C([H])([H])C([H])([H])C2([H])N([H])C(=O)C1([H])N(C(=O)C([H])(N([H])C(=O)C([H])(N([H])C([H])([H])[H])C([H])([H])[H])C(C([H])([H])[H])(C([H])([H])[H])C([H])([H])[H])C([H])([H])c2c([H])c(OC([H])([H])C3([H])N(c4c([H])c([H])c(N(C(=O)N5C([H])([H])C([H])([H])C([H])([H])C([H])(n6nc(-c7c([H])c([H])c(Oc8c([H])c([H])c(F)c([H])c8F)c([H])c7[H])c(C(=O)N([H])[H])c6N([H])[H])C5([H])[H])C([H])([H])[H])c(N([H])[H])c4[H])C(=O)C([H])([H])C3([H])[H])c([H])c([H])c2C1([H])[H]

>  <smiles>  (76) 
[H]c1c([H])c([H])c2c(c1[H])C([H])([H])C([H])([H])C([H])([H])C2([H])N([H])C(=O)C1([H])N(C(=O)C([H])(N([H])C(=O)C([H])(N([H])C([H])([H])[H])C([H])([H])[H])C(C([H])([H])[H])(C([H])([H])[H])C([H])([H])[H])C([H])([H])c2c([H])c(OC([H])([H])C3([H])N(c4c([H])c([H])c(N(C(=O)N5C([H])([H])C([H])([H])C([H])([H])C([H])(n6nc(-c7c([H])c([H])c(Oc8c([H])c([H])c(F)c([H])c8F)c([H])c7[H])c(C(=O)N([H])[H])c6N([H])[H])C5([H])[H])C([H])([H])[H])c(N([H])[H])c4[H])C(=O)C([H])([H])C3([H])[H])c([H])c([H])c2C1([H])[H]

$$$$
76:0:0
     RDKit          3D

 94102  0  0  1  0  0  0  0  0999 V2000
  -30.9680  -18.0010   20.8160 C   0  0  0  0  0  3  0  0  0  0  0  0
  -28.7880  -19.6320   20.1740 C   0  0  0  0  0  3  0  0  0  0  0  0
  -29.8420  -17.3540   20.2390 C   0  0  0  0  0  0  0  0  0  0  0  0
  -28.7280  -18.2280   19.9550 C   0  0  0  0  0  0  0  0  0  0  0  0
  -31.0170  -19.4120   21.0270 C   0  0  0  0  0  0  0  0  0  0  0  0
  -29.9360  -20.2720   20.6840 C   0  0  0  0  0  0  0  0  0  0  0  0
  -27.4160  -17.7370   19.3620 C   0  0  0  0  0  1  0  0  0  0  0  0
  -29.8740  -15.8850   19.7530 C   0  0  0  0  0  0  0  0  0  0  0  0
  -29.3760  -15.6630   18.6090 N   0  0  0  0  0  0  0  0  0  0  0  0
  -28.9950  -16.5150   18.2200 H   0  0  0  0  0  0  0  0  0  0  0  0
  -30.6170  -14.6960   20.4810 C   0  0  0  0  0  0  0  0  0  0  0  0
  -30.4070  -12.4050   19.5600 C   0  0  0  0  0  2  0  0  0  0  0  0
  -29.4920  -12.4250   18.3160 C   0  0  0  0  0  2  0  0  0  0  0  0
  -28.0030  -12.3140   18.7110 C   0  0  0  0  0  2  0  0  0  0  0  0
  -27.5980  -13.2330   19.8970 C   0  0  0  0  0  3  0  0  0  0  0  0
  -28.6430  -13.1960   21.0340 C   0  0  0  0  0  2  0  0  0  0  0  0
  -29.9660  -13.4860   20.4580 N   0  0  0  0  0  0  0  0  0  0  0  0
  -31.8480  -14.7590   20.4790 O   0  0  0  0  0  0  0  0  0  0  0  0
  -25.1920  -13.8280   20.5770 C   0  0  0  0  0  0  0  0  0  0  0  0
  -24.1190  -13.0540   20.9170 C   0  0  0  0  0  0  0  0  0  0  0  0
  -24.5900  -11.7080   20.9120 C   0  0  0  0  0  0  0  0  0  0  0  0
  -26.2470  -12.9510   20.3730 N   0  0  0  0  0  0  0  0  0  0  0  0
  -25.8890  -11.6710   20.6450 N   0  0  0  0  0  0  0  0  0  0  0  0
  -23.8660  -10.4440   21.0880 C   0  0  0  0  0  0  0  0  0  0  0  0
  -24.2840   -9.4810   22.0310 C   0  0  0  0  0  3  0  0  0  0  0  0
  -23.5590   -8.2830   22.1970 C   0  0  0  0  0  3  0  0  0  0  0  0
  -22.4030   -8.0380   21.4180 C   0  0  0  0  0  0  0  0  0  0  0  0
  -22.0060   -8.9900   20.4630 C   0  0  0  0  0  3  0  0  0  0  0  0
  -22.7310  -10.1820   20.2960 C   0  0  0  0  0  3  0  0  0  0  0  0
  -21.6520   -6.8920   21.4940 O   0  0  0  0  0  0  0  0  0  0  0  0
  -21.5910   -6.1470   22.6430 C   0  0  0  0  0  0  0  0  0  0  0  0
  -21.1460   -6.6970   23.8660 C   0  0  0  0  0  3  0  0  0  0  0  0
  -21.0340   -5.8770   25.0070 C   0  0  0  0  0  3  0  0  0  0  0  0
  -21.3570   -4.5080   24.9250 C   0  0  0  0  0  0  0  0  0  0  0  0
  -21.7950   -3.9590   23.7070 C   0  0  0  0  0  3  0  0  0  0  0  0
  -21.9100   -4.7760   22.5690 C   0  0  0  0  0  0  0  0  0  0  0  0
  -22.3130   -4.2380   21.3940 F   0  0  0  0  0  0  0  0  0  0  0  0
  -21.2400   -3.7190   26.0170 F   0  0  0  0  0  0  0  0  0  0  0  0
  -22.7130  -13.5290   21.1380 C   0  0  0  0  0  0  0  0  0  0  0  0
  -21.9620  -12.8410   21.9890 N   0  0  0  0  0  0  0  0  0  0  0  0
  -22.2880  -14.5470   20.5910 O   0  0  0  0  0  0  0  0  0  0  0  0
  -22.3170  -12.0170   22.4530 H   0  0  0  0  0  0  0  0  0  0  0  0
  -21.0160  -13.1390   22.1780 H   0  0  0  0  0  0  0  0  0  0  0  0
  -25.3470  -15.1960   20.3990 N   0  0  0  0  0  0  0  0  0  0  0  0
  -24.5760  -15.8490   20.4900 H   0  0  0  0  0  0  0  0  0  0  0  0
  -26.2090  -15.6350   20.1110 H   0  0  0  0  0  0  0  0  0  0  0  0
  -32.1700  -19.9850   21.5600 N   0  0  0  0  0  0  0  0  0  0  0  0
  -32.0790  -20.9340   21.9110 H   0  0  0  0  0  0  0  0  0  0  0  0
  -32.7850  -19.4090   22.1260 H   0  0  0  0  0  0  0  0  0  0  0  0
  -30.0560  -21.6660   20.8550 O   0  0  0  0  0  0  0  0  0  0  0  0
  -29.0210  -22.5770   20.3760 C   0  0  0  0  0  3  0  0  0  0  0  0
  -29.3130  -24.1220   20.5760 C   0  0  0  0  0  3  0  0  0  0  0  0
  -28.1560  -25.1060   20.1420 C   0  0  0  0  0  2  0  0  0  0  0  0
  -28.3380  -26.5520   20.3390 O   0  0  0  0  0  0  0  0  0  0  0  0
  -24.5620  -31.9150   23.2900 C   0  0  0  0  0  0  0  0  0  0  0  0
  -27.2000  -27.3680   20.2720 C   0  0  0  0  0  0  0  0  0  0  0  0
  -23.3670  -30.5130   21.6440 C   0  0  0  0  0  3  0  0  0  0  0  0
  -24.8270  -28.9580   20.2400 C   0  0  0  0  0  0  0  0  0  0  0  0
  -25.9060  -30.8330   21.4800 C   0  0  0  0  0  2  0  0  0  0  0  0
  -25.9880  -29.4550   20.8420 C   0  0  0  0  0  0  0  0  0  0  0  0
  -27.1770  -28.6710   20.8500 C   0  0  0  0  0  3  0  0  0  0  0  0
  -26.0110  -26.9160   19.6480 C   0  0  0  0  0  3  0  0  0  0  0  0
  -24.8380  -27.6920   19.6380 C   0  0  0  0  0  3  0  0  0  0  0  0
  -23.5900  -29.8300   20.2690 C   0  0  0  0  0  2  0  0  0  0  0  0
  -24.6290  -31.1030   22.1960 N   0  0  0  0  0  0  0  0  0  0  0  0
  -23.4750  -32.1990   23.8150 O   0  0  0  0  0  0  0  0  0  0  0  0
  -22.6940  -29.5030   22.6020 C   0  0  0  0  0  0  0  0  0  0  0  0
  -21.3710  -29.3170   22.4520 N   0  0  0  0  0  0  0  0  0  0  0  0
  -23.3590  -28.8880   23.4400 O   0  0  0  0  0  0  0  0  0  0  0  0
  -20.8940  -29.8640   21.7500 H   0  0  0  0  0  0  0  0  0  0  0  0
  -17.9930  -28.1040   22.8830 C   0  0  0  0  0  0  0  0  0  0  0  0
  -20.5420  -28.3840   23.2160 C   0  0  0  0  0  3  0  0  0  0  0  0
  -20.6690  -26.9470   22.6620 C   0  0  0  0  0  2  0  0  0  0  0  0
  -19.5950  -26.6020   21.6250 C   0  0  0  0  0  2  0  0  0  0  0  0
  -18.1970  -26.7460   22.2320 C   0  0  0  0  0  2  0  0  0  0  0  0
  -19.0950  -28.8800   23.3310 C   0  0  0  0  0  0  0  0  0  0  0  0
  -18.8530  -30.1510   23.8960 C   0  0  0  0  0  3  0  0  0  0  0  0
  -17.5420  -30.6450   24.0200 C   0  0  0  0  0  3  0  0  0  0  0  0
  -16.4530  -29.8660   23.5900 C   0  0  0  0  0  3  0  0  0  0  0  0
  -16.6790  -28.5980   23.0260 C   0  0  0  0  0  3  0  0  0  0  0  0
  -25.8420  -32.5430   23.9210 C   0  0  0  0  0  3  0  0  0  0  0  0
  -25.5430  -33.9500   24.2260 N   0  0  0  0  0  0  0  0  0  0  0  0
  -25.8940  -34.9870   23.4530 C   0  0  0  0  0  0  0  0  0  0  0  0
  -26.5750  -34.8600   22.4310 O   0  0  0  0  0  0  0  0  0  0  0  0
  -24.9400  -34.1240   25.0170 H   0  0  0  0  0  0  0  0  0  0  0  0
  -24.1870  -36.7890   23.0510 C   0  0  0  0  0  1  0  0  0  0  0  0
  -25.4160  -36.3880   23.8830 C   0  0  0  0  0  3  0  0  0  0  0  0
  -27.5480  -37.2650   24.7230 C   0  0  0  0  0  1  0  0  0  0  0  0
  -26.4600  -37.4280   23.7630 N   0  0  0  0  0  0  0  0  0  0  0  0
  -26.0610  -38.3540   23.8900 H   0  0  0  0  0  0  0  0  0  0  0  0
  -26.3310  -31.7860   25.2160 C   0  0  1  0  0  0  0  0  0  0  0  0
  -25.2190  -31.5770   26.2710 C   0  0  0  0  0  1  0  0  0  0  0  0
  -26.9050  -30.3960   24.8540 C   0  0  0  0  0  1  0  0  0  0  0  0
  -27.4800  -32.5790   25.8830 C   0  0  0  0  0  1  0  0  0  0  0  0
  1  5  1  0
  2  6  1  0
  3  1  2  0
  4  2  2  0
  4  3  1  0
  5 47  1  0
  6 50  1  0
  6  5  2  0
  7  4  1  0
  8  3  1  0
  8 11  1  0
  9  8  2  0
 10  9  1  0
 12 17  1  0
 13 14  1  0
 13 12  1  0
 15 14  1  0
 15 22  1  0
 15 16  1  0
 17 11  1  0
 17 16  1  0
 18 11  2  0
 19 20  2  0
 20 39  1  0
 21 20  1  0
 21 24  1  0
 22 19  1  0
 22 23  1  0
 23 21  2  0
 24 25  1  0
 25 26  2  0
 27 30  1  0
 27 26  1  0
 28 27  2  0
 29 28  1  0
 29 24  2  0
 30 31  1  0
 31 32  1  0
 32 33  2  0
 34 33  1  0
 34 38  1  0
 35 34  2  0
 36 31  2  0
 36 35  1  0
 37 36  1  0
 39 40  1  0
 40 43  1  0
 40 42  1  0
 41 39  2  0
 44 45  1  0
 44 19  1  0
 46 44  1  0
 47 48  1  0
 47 49  1  0
 51 52  2  0
 51 50  1  0
 53 54  1  0
 53 52  1  0
 55 66  2  0
 56 54  1  0
 56 61  1  0
 57 65  1  0
 57 67  1  0
 58 64  1  0
 58 60  1  0
 59 65  1  0
 60 61  2  0
 60 59  1  0
 62 56  2  0
 63 62  1  0
 63 58  2  0
 64 57  1  0
 65 55  1  0
 67 69  2  0
 68 67  1  0
 70 68  1  0
 71 80  2  0
 71 76  1  0
 72 68  1  0
 72 76  1  0
 73 72  1  0
 74 75  1  0
 74 73  1  0
 75 71  1  0
 76 77  2  0
 77 78  1  0
 79 78  2  0
 80 79  1  0
 81 55  1  0
 81 82  1  0
 81 91  1  0
 82 85  1  0
 83 87  1  0
 83 82  1  0
 84 83  2  0
 87 86  1  0
 89 87  1  0
 89 90  1  0
 89 88  1  0
 91 94  1  1
 91 92  1  0
 93 91  1  0
M  ISO  4   8 100  11 100  53 101  54 101
M  END
>  <TORSDO>  (77) 
F 22

>  <SCORE>  (77) 
-13.602

>  <name>  (77) 
76

>  <ligand_id>  (77) 
76

>  <original_smiles>  (77) 
[H]N=C(C(=O)N1C([H])([H])C([H])([H])C([H])([H])C([H])(n2nc(-c3c([H])c([H])c(Oc4c([H])c([H])c(F)c([H])c4F)c([H])c3[H])c(C(=O)N([H])[H])c2N([H])[H])C1([H])[H])c1c([H])c(N([H])[H])c(OC([H])([H])C([H])([H])C([H])([H])Oc2c([H])c([H])c3c(c2[H])C([H])([H])N(C(=O)C([H])(N([H])C(=O)C([H])(N([H])C([H])([H])[H])C([H])([H])[H])C(C([H])([H])[H])(C([H])([H])[H])C([H])([H])[H])C([H])(C(=O)N([H])C2([H])c4c([H])c([H])c([H])c([H])c4C([H])([H])C([H])([H])C2([H])[H])C3([H])[H])c([H])c1C([H])([H])[H]

>  <smiles>  (77) 
[H]N=C(C(=O)N1C([H])([H])C([H])([H])C([H])([H])C([H])(n2nc(-c3c([H])c([H])c(Oc4c([H])c([H])c(F)c([H])c4F)c([H])c3[H])c(C(=O)N([H])[H])c2N([H])[H])C1([H])[H])c1c([H])c(N([H])[H])c(OC([H])([H])C([H])([H])C([H])([H])Oc2c([H])c([H])c3c(c2[H])C([H])([H])N(C(=O)C([H])(N([H])C(=O)C([H])(N([H])C([H])([H])[H])C([H])([H])[H])C(C([H])([H])[H])(C([H])([H])[H])C([H])([H])[H])C([H])(C(=O)N([H])C2([H])c4c([H])c([H])c([H])c([H])c4C([H])([H])C([H])([H])C2([H])[H])C3([H])[H])c([H])c1C([H])([H])[H]

$$$$
77:0:0
     RDKit          3D

 91 99  0  0  1  0  0  0  0  0999 V2000
  -29.2780  -21.4880   21.5000 O   0  0  0  0  0  0  0  0  0  0  0  0
  -30.5600  -19.4090   21.3080 C   0  0  0  0  0  3  0  0  0  0  0  0
  -29.4990  -20.2820   20.9210 C   0  0  0  0  0  0  0  0  0  0  0  0
  -30.5510  -18.1950   20.6660 C   0  0  0  0  0  0  0  0  0  0  0  0
  -28.6760  -19.7140   19.9770 C   0  0  0  0  0  0  0  0  0  0  0  0
  -27.4270  -20.2820   19.3810 C   0  0  0  0  0  1  0  0  0  0  0  0
  -29.2220  -18.1120   19.5350 S   0  0  0  0  0  0  0  0  0  0  0  0
  -31.5300  -17.0770   20.8990 C   0  0  0  0  0  2  0  0  0  0  0  0
  -31.6040  -14.6510   20.4800 C   0  0  0  0  0  0  0  0  0  0  0  0
  -31.2380  -12.4580   19.4290 C   0  0  0  0  0  2  0  0  0  0  0  0
  -30.3600  -12.6390   18.1750 C   0  0  0  0  0  2  0  0  0  0  0  0
  -28.8680  -12.5820   18.5480 C   0  0  0  0  0  2  0  0  0  0  0  0
  -28.5120  -13.5030   19.7470 C   0  0  0  0  0  3  0  0  0  0  0  0
  -29.5100  -13.3120   20.9120 C   0  0  0  0  0  2  0  0  0  0  0  0
  -30.8700  -13.5120   20.3850 N   0  0  0  0  0  0  0  0  0  0  0  0
  -32.7460  -14.7540   20.0260 O   0  0  0  0  0  0  0  0  0  0  0  0
  -30.9640  -15.7260   20.9630 N   0  0  0  0  0  0  0  0  0  0  0  0
  -30.0220  -15.6090   21.3030 H   0  0  0  0  0  0  0  0  0  0  0  0
  -26.1290  -14.2410   20.3750 C   0  0  0  0  0  0  0  0  0  0  0  0
  -25.0090  -13.5280   20.7080 C   0  0  0  0  0  0  0  0  0  0  0  0
  -25.3960  -12.1540   20.6940 C   0  0  0  0  0  0  0  0  0  0  0  0
  -27.1310  -13.3030   20.1810 N   0  0  0  0  0  0  0  0  0  0  0  0
  -26.6910  -12.0440   20.4310 N   0  0  0  0  0  0  0  0  0  0  0  0
  -24.5970  -10.9310   20.8610 C   0  0  0  0  0  0  0  0  0  0  0  0
  -24.9280   -9.9580   21.8290 C   0  0  0  0  0  3  0  0  0  0  0  0
  -24.1330   -8.8020   21.9820 C   0  0  0  0  0  3  0  0  0  0  0  0
  -22.9940   -8.6110   21.1650 C   0  0  0  0  0  0  0  0  0  0  0  0
  -22.6830   -9.5710   20.1870 C   0  0  0  0  0  3  0  0  0  0  0  0
  -23.4770  -10.7190   20.0320 C   0  0  0  0  0  3  0  0  0  0  0  0
  -22.1820   -7.5050   21.2220 O   0  0  0  0  0  0  0  0  0  0  0  0
  -21.9760   -6.8240   22.3950 C   0  0  0  0  0  0  0  0  0  0  0  0
  -21.4700   -7.4630   23.5480 C   0  0  0  0  0  3  0  0  0  0  0  0
  -21.2070   -6.7120   24.7100 C   0  0  0  0  0  3  0  0  0  0  0  0
  -21.4410   -5.3240   24.7210 C   0  0  0  0  0  0  0  0  0  0  0  0
  -21.9410   -4.6850   23.5730 C   0  0  0  0  0  3  0  0  0  0  0  0
  -22.2040   -5.4330   22.4110 C   0  0  0  0  0  0  0  0  0  0  0  0
  -22.6650   -4.8110   21.3000 F   0  0  0  0  0  0  0  0  0  0  0  0
  -21.1830   -4.5990   25.8350 F   0  0  0  0  0  0  0  0  0  0  0  0
  -23.6310  -14.0810   20.9340 C   0  0  0  0  0  0  0  0  0  0  0  0
  -22.8490  -13.4380   21.7930 N   0  0  0  0  0  0  0  0  0  0  0  0
  -23.2610  -15.1180   20.3850 O   0  0  0  0  0  0  0  0  0  0  0  0
  -23.1630  -12.5960   22.2530 H   0  0  0  0  0  0  0  0  0  0  0  0
  -21.9240  -13.7930   21.9930 H   0  0  0  0  0  0  0  0  0  0  0  0
  -26.3760  -15.5990   20.2020 N   0  0  0  0  0  0  0  0  0  0  0  0
  -25.6460  -16.2980   20.2840 H   0  0  0  0  0  0  0  0  0  0  0  0
  -27.2600  -15.9850   19.8930 H   0  0  0  0  0  0  0  0  0  0  0  0
  -28.8710  -22.5620   20.6510 C   0  0  0  0  0  2  0  0  0  0  0  0
  -30.0760  -23.4750   20.3520 C   0  0  0  0  0  2  0  0  0  0  0  0
  -29.7280  -24.8780   19.7950 C   0  0  0  0  0  2  0  0  0  0  0  0
  -29.2130  -25.8610   20.8680 C   0  0  0  0  0  2  0  0  0  0  0  0
  -29.1870  -27.2120   20.3990 O   0  0  0  0  0  0  0  0  0  0  0  0
  -24.7220  -31.8930   23.3570 C   0  0  0  0  0  0  0  0  0  0  0  0
  -27.9540  -27.8140   20.3560 C   0  0  0  0  0  0  0  0  0  0  0  0
  -23.7620  -30.4640   21.5790 C   0  0  0  0  0  3  0  0  0  0  0  0
  -25.4440  -29.1000   20.2290 C   0  0  0  0  0  0  0  0  0  0  0  0
  -26.2530  -31.0410   21.5870 C   0  0  0  0  0  2  0  0  0  0  0  0
  -26.5030  -29.7050   20.9140 C   0  0  0  0  0  0  0  0  0  0  0  0
  -27.7630  -29.0700   20.9710 C   0  0  0  0  0  3  0  0  0  0  0  0
  -26.8780  -27.2110   19.6710 C   0  0  0  0  0  3  0  0  0  0  0  0
  -25.6240  -27.8510   19.6060 C   0  0  0  0  0  3  0  0  0  0  0  0
  -24.1320  -29.8520   20.2020 C   0  0  0  0  0  2  0  0  0  0  0  0
  -24.9250  -31.1450   22.2350 N   0  0  0  0  0  0  0  0  0  0  0  0
  -23.5830  -32.0560   23.8210 O   0  0  0  0  0  0  0  0  0  0  0  0
  -23.1270  -29.3590   22.4530 C   0  0  0  0  0  0  0  0  0  0  0  0
  -21.8240  -29.1080   22.2450 N   0  0  0  0  0  0  0  0  0  0  0  0
  -23.8040  -28.7340   23.2740 O   0  0  0  0  0  0  0  0  0  0  0  0
  -21.3380  -29.6620   21.5520 H   0  0  0  0  0  0  0  0  0  0  0  0
  -18.4950  -27.7410   22.5430 C   0  0  0  0  0  0  0  0  0  0  0  0
  -21.0280  -28.0840   22.9210 C   0  0  0  0  0  3  0  0  0  0  0  0
  -21.2140  -26.7030   22.2530 C   0  0  0  0  0  2  0  0  0  0  0  0
  -20.1610  -26.4040   21.1810 C   0  0  0  0  0  2  0  0  0  0  0  0
  -18.7530  -26.4490   21.7840 C   0  0  0  0  0  2  0  0  0  0  0  0
  -19.5650  -28.5150   23.0630 C   0  0  0  0  0  0  0  0  0  0  0  0
  -19.2730  -29.7260   23.7290 C   0  0  0  0  0  3  0  0  0  0  0  0
  -17.9440  -30.1620   23.8820 C   0  0  0  0  0  3  0  0  0  0  0  0
  -16.8880  -29.3810   23.3820 C   0  0  0  0  0  3  0  0  0  0  0  0
  -17.1640  -28.1720   22.7170 C   0  0  0  0  0  3  0  0  0  0  0  0
  -25.9000  -32.6020   24.0960 C   0  0  0  0  0  3  0  0  0  0  0  0
  -25.4910  -33.9890   24.3540 N   0  0  0  0  0  0  0  0  0  0  0  0
  -25.8500  -35.0380   23.6040 C   0  0  0  0  0  0  0  0  0  0  0  0
  -26.6290  -34.9440   22.6500 O   0  0  0  0  0  0  0  0  0  0  0  0
  -24.8060  -34.1310   25.0830 H   0  0  0  0  0  0  0  0  0  0  0  0
  -24.0850  -36.7300   23.0190 C   0  0  0  0  0  1  0  0  0  0  0  0
  -25.2510  -36.4090   23.9690 C   0  0  0  0  0  3  0  0  0  0  0  0
  -27.2440  -37.4150   24.9900 C   0  0  0  0  0  1  0  0  0  0  0  0
  -26.2390  -37.5100   23.9350 N   0  0  0  0  0  0  0  0  0  0  0  0
  -25.7770  -38.4110   24.0170 H   0  0  0  0  0  0  0  0  0  0  0  0
  -26.3140  -31.8810   25.4380 C   0  0  1  0  0  0  0  0  0  0  0  0
  -25.1210  -31.5820   26.3750 C   0  0  0  0  0  1  0  0  0  0  0  0
  -27.0280  -30.5420   25.1390 C   0  0  0  0  0  1  0  0  0  0  0  0
  -27.3250  -32.7580   26.2140 C   0  0  0  0  0  1  0  0  0  0  0  0
  3  2  1  0
  3  1  1  0
  4  8  1  0
  4  2  2  0
  5  3  2  0
  6  5  1  0
  7  5  1  0
  7  4  1  0
  8 17  1  0
  9 17  1  0
 10 15  1  0
 11 12  1  0
 11 10  1  0
 13 12  1  0
 13 22  1  0
 13 14  1  0
 15  9  1  0
 15 14  1  0
 16  9  2  0
 17 18  1  0
 19 20  2  0
 20 39  1  0
 21 20  1  0
 21 24  1  0
 22 19  1  0
 22 23  1  0
 23 21  2  0
 24 25  1  0
 25 26  2  0
 27 30  1  0
 27 26  1  0
 28 27  2  0
 29 28  1  0
 29 24  2  0
 30 31  1  0
 31 36  2  0
 31 32  1  0
 32 33  2  0
 33 34  1  0
 34 38  1  0
 35 34  2  0
 36 35  1  0
 37 36  1  0
 39 40  1  0
 40 43  1  0
 40 42  1  0
 41 39  2  0
 44 45  1  0
 44 19  1  0
 46 44  1  0
 47  1  1  0
 48 47  1  0
 49 48  1  0
 49 50  1  0
 51 50  1  0
 52 63  2  0
 53 51  1  0
 53 58  1  0
 54 62  1  0
 54 64  1  0
 55 57  1  0
 56 62  1  0
 57 58  2  0
 57 56  1  0
 59 53  2  0
 60 59  1  0
 60 55  2  0
 61 55  1  0
 61 54  1  0
 62 52  1  0
 64 66  2  0
 65 64  1  0
 67 65  1  0
 68 77  2  0
 68 73  1  0
 69 65  1  0
 69 73  1  0
 70 69  1  0
 71 72  1  0
 71 70  1  0
 72 68  1  0
 73 74  2  0
 74 75  1  0
 76 75  2  0
 77 76  1  0
 78 52  1  0
 78 79  1  0
 78 88  1  0
 79 82  1  0
 80 84  1  0
 80 79  1  0
 81 80  2  0
 84 83  1  0
 86 84  1  0
 86 87  1  0
 86 85  1  0
 88 91  1  1
 88 89  1  0
 90 88  1  0
M  ISO  4   9 100  17 100  50 101  51 101
M  END
>  <TORSDO>  (78) 
F 22

>  <SCORE>  (78) 
-11.936

>  <name>  (78) 
77

>  <ligand_id>  (78) 
77

>  <original_smiles>  (78) 
[H]c1c([H])c([H])c2c(c1[H])C([H])([H])C([H])([H])C([H])([H])C2([H])N([H])C(=O)C1([H])N(C(=O)C([H])(N([H])C(=O)C([H])(N([H])C([H])([H])[H])C([H])([H])[H])C(C([H])([H])[H])(C([H])([H])[H])C([H])([H])[H])C([H])([H])c2c([H])c(OC([H])([H])C([H])([H])C([H])([H])C([H])([H])Oc3c(C([H])([H])[H])sc(C([H])([H])N([H])C(=O)N4C([H])([H])C([H])([H])C([H])([H])C([H])(n5nc(-c6c([H])c([H])c(Oc7c([H])c([H])c(F)c([H])c7F)c([H])c6[H])c(C(=O)N([H])[H])c5N([H])[H])C4([H])[H])c3[H])c([H])c([H])c2C1([H])[H]

>  <smiles>  (78) 
[H]c1c([H])c([H])c2c(c1[H])C([H])([H])C([H])([H])C([H])([H])C2([H])N([H])C(=O)C1([H])N(C(=O)C([H])(N([H])C(=O)C([H])(N([H])C([H])([H])[H])C([H])([H])[H])C(C([H])([H])[H])(C([H])([H])[H])C([H])([H])[H])C([H])([H])c2c([H])c(OC([H])([H])C([H])([H])C([H])([H])C([H])([H])Oc3c(C([H])([H])[H])sc(C([H])([H])N([H])C(=O)N4C([H])([H])C([H])([H])C([H])([H])C([H])(n5nc(-c6c([H])c([H])c(Oc7c([H])c([H])c(F)c([H])c7F)c([H])c6[H])c(C(=O)N([H])[H])c5N([H])[H])C4([H])[H])c3[H])c([H])c([H])c2C1([H])[H]

$$$$
78:0:0
     RDKit          3D

 96104  0  0  1  0  0  0  0  0999 V2000
  -29.8280  -21.0520   22.8420 C   0  0  0  0  0  3  0  0  0  0  0  0
  -29.4580  -20.7530   20.4550 C   0  0  0  0  0  3  0  0  0  0  0  0
  -30.1610  -19.6880   22.9850 C   0  0  0  0  0  0  0  0  0  0  0  0
  -30.1180  -18.8480   21.8360 C   0  0  0  0  0  0  0  0  0  0  0  0
  -29.4360  -21.5780   21.5970 C   0  0  0  0  0  0  0  0  0  0  0  0
  -29.7880  -19.3960   20.5770 C   0  0  0  0  0  0  0  0  0  0  0  0
  -29.7490  -18.6080   19.4770 F   0  0  0  0  0  0  0  0  0  0  0  0
  -28.1250  -23.4500   20.6990 C   0  0  0  0  0  0  0  0  0  0  0  0
  -29.0450  -22.9360   21.5280 N   0  0  0  0  0  0  0  0  0  0  0  0
  -27.4690  -22.7780   19.8990 O   0  0  0  0  0  0  0  0  0  0  0  0
  -29.4190  -23.5580   22.2330 H   0  0  0  0  0  0  0  0  0  0  0  0
  -27.8900  -24.9510   20.7960 C   0  0  0  0  0  2  0  0  0  0  0  0
  -28.1660  -25.6470   19.4540 C   0  0  0  0  0  2  0  0  0  0  0  0
  -28.1530  -27.0560   19.6320 O   0  0  0  0  0  0  0  0  0  0  0  0
  -24.5820  -31.9500   23.2870 C   0  0  0  0  0  0  0  0  0  0  0  0
  -26.9480  -27.7080   19.7600 C   0  0  0  0  0  0  0  0  0  0  0  0
  -23.2430  -30.6720   21.6450 C   0  0  0  0  0  3  0  0  0  0  0  0
  -24.5700  -29.2050   20.0390 C   0  0  0  0  0  0  0  0  0  0  0  0
  -25.7520  -31.0150   21.2980 C   0  0  0  0  0  2  0  0  0  0  0  0
  -25.7700  -29.6860   20.5770 C   0  0  0  0  0  0  0  0  0  0  0  0
  -26.9570  -28.9440   20.4370 C   0  0  0  0  0  3  0  0  0  0  0  0
  -25.7280  -27.2250   19.2300 C   0  0  0  0  0  3  0  0  0  0  0  0
  -24.5430  -27.9710   19.3670 C   0  0  0  0  0  3  0  0  0  0  0  0
  -23.3460  -30.0730   20.2170 C   0  0  0  0  0  2  0  0  0  0  0  0
  -24.5480  -31.2220   22.1360 N   0  0  0  0  0  0  0  0  0  0  0  0
  -23.5440  -32.2040   23.9130 O   0  0  0  0  0  0  0  0  0  0  0  0
  -22.6380  -29.6020   22.5810 C   0  0  0  0  0  0  0  0  0  0  0  0
  -21.3240  -29.3650   22.4430 N   0  0  0  0  0  0  0  0  0  0  0  0
  -23.3470  -28.9900   23.3840 O   0  0  0  0  0  0  0  0  0  0  0  0
  -20.8120  -29.9140   21.7670 H   0  0  0  0  0  0  0  0  0  0  0  0
  -18.0320  -27.9270   22.7960 C   0  0  0  0  0  0  0  0  0  0  0  0
  -20.5450  -28.3780   23.1900 C   0  0  0  0  0  3  0  0  0  0  0  0
  -20.7830  -26.9520   22.6400 C   0  0  0  0  0  2  0  0  0  0  0  0
  -19.7590  -26.5360   21.5790 C   0  0  0  0  0  2  0  0  0  0  0  0
  -18.3410  -26.5860   22.1540 C   0  0  0  0  0  2  0  0  0  0  0  0
  -19.0670  -28.7760   23.2690 C   0  0  0  0  0  0  0  0  0  0  0  0
  -18.7270  -30.0280   23.8240 C   0  0  0  0  0  3  0  0  0  0  0  0
  -17.3820  -30.4330   23.9170 C   0  0  0  0  0  3  0  0  0  0  0  0
  -16.3600  -29.5830   23.4630 C   0  0  0  0  0  3  0  0  0  0  0  0
  -16.6850  -28.3320   22.9080 C   0  0  0  0  0  3  0  0  0  0  0  0
  -25.9190  -32.5180   23.8570 C   0  0  0  0  0  3  0  0  0  0  0  0
  -25.6710  -33.9070   24.2650 N   0  0  0  0  0  0  0  0  0  0  0  0
  -26.0090  -34.9820   23.5430 C   0  0  0  0  0  0  0  0  0  0  0  0
  -26.6370  -34.9080   22.4830 O   0  0  0  0  0  0  0  0  0  0  0  0
  -25.1120  -34.0420   25.0960 H   0  0  0  0  0  0  0  0  0  0  0  0
  -24.3270  -36.8400   23.3390 C   0  0  0  0  0  1  0  0  0  0  0  0
  -25.5850  -36.3610   24.0830 C   0  0  0  0  0  3  0  0  0  0  0  0
  -27.7730  -37.1410   24.8760 C   0  0  0  0  0  1  0  0  0  0  0  0
  -26.6460  -37.3860   23.9790 N   0  0  0  0  0  0  0  0  0  0  0  0
  -26.2750  -38.3100   24.1830 H   0  0  0  0  0  0  0  0  0  0  0  0
  -26.4900  -31.6740   25.0620 C   0  0  1  0  0  0  0  0  0  0  0  0
  -25.4530  -31.4020   26.1760 C   0  0  0  0  0  1  0  0  0  0  0  0
  -27.0180  -30.3080   24.5630 C   0  0  0  0  0  1  0  0  0  0  0  0
  -27.6910  -32.4110   25.6960 C   0  0  0  0  0  1  0  0  0  0  0  0
  -31.6770  -18.6410   24.7090 C   0  0  0  0  0  2  0  0  0  0  0  0
  -30.5410  -19.2580   24.3440 C   0  0  0  0  0  3  0  0  0  0  0  0
  -30.2800  -17.3400   21.9010 C   0  0  0  0  0  2  0  0  0  0  0  0
  -31.6020  -16.8150   21.3150 C   0  0  0  0  0  2  0  0  0  0  0  0
  -31.7300  -14.6880   20.0510 C   0  0  0  0  0  0  0  0  0  0  0  0
  -31.3200  -12.5340   18.9270 C   0  0  0  0  0  2  0  0  0  0  0  0
  -30.3420  -12.6600   17.7460 C   0  0  0  0  0  2  0  0  0  0  0  0
  -28.8820  -12.5610   18.2270 C   0  0  0  0  0  2  0  0  0  0  0  0
  -28.5830  -13.5110   19.4150 C   0  0  0  0  0  3  0  0  0  0  0  0
  -29.6550  -13.3480   20.5180 C   0  0  0  0  0  2  0  0  0  0  0  0
  -30.9950  -13.5570   19.9290 N   0  0  0  0  0  0  0  0  0  0  0  0
  -32.6240  -15.0250   19.2680 O   0  0  0  0  0  0  0  0  0  0  0  0
  -31.4610  -15.3760   21.1630 N   0  0  0  0  0  0  0  0  0  0  0  0
  -30.8390  -14.9160   21.8120 H   0  0  0  0  0  0  0  0  0  0  0  0
  -26.2400  -14.2250   20.2300 C   0  0  0  0  0  0  0  0  0  0  0  0
  -25.1510  -13.4970   20.6310 C   0  0  0  0  0  0  0  0  0  0  0  0
  -25.5430  -12.1270   20.5530 C   0  0  0  0  0  0  0  0  0  0  0  0
  -27.2330  -13.2990   19.9400 N   0  0  0  0  0  0  0  0  0  0  0  0
  -26.8160  -12.0310   20.1880 N   0  0  0  0  0  0  0  0  0  0  0  0
  -24.7640  -10.8970   20.7500 C   0  0  0  0  0  0  0  0  0  0  0  0
  -25.0990   -9.9660   21.7580 C   0  0  0  0  0  3  0  0  0  0  0  0
  -24.3250   -8.7990   21.9410 C   0  0  0  0  0  3  0  0  0  0  0  0
  -23.2020   -8.5570   21.1140 C   0  0  0  0  0  0  0  0  0  0  0  0
  -22.8870   -9.4770   20.0980 C   0  0  0  0  0  3  0  0  0  0  0  0
  -23.6610  -10.6340   19.9140 C   0  0  0  0  0  3  0  0  0  0  0  0
  -22.4070   -7.4400   21.2010 O   0  0  0  0  0  0  0  0  0  0  0  0
  -22.0870   -6.8760   22.4110 C   0  0  0  0  0  0  0  0  0  0  0  0
  -21.4320   -7.6100   23.4240 C   0  0  0  0  0  3  0  0  0  0  0  0
  -21.0570   -6.9730   24.6240 C   0  0  0  0  0  3  0  0  0  0  0  0
  -21.3310   -5.6040   24.8100 C   0  0  0  0  0  0  0  0  0  0  0  0
  -21.9790   -4.8720   23.8010 C   0  0  0  0  0  3  0  0  0  0  0  0
  -22.3540   -5.5060   22.6030 C   0  0  0  0  0  0  0  0  0  0  0  0
  -22.9600   -4.7900   21.6250 F   0  0  0  0  0  0  0  0  0  0  0  0
  -20.9640   -4.9910   25.9590 F   0  0  0  0  0  0  0  0  0  0  0  0
  -23.7920  -14.0360   20.9730 C   0  0  0  0  0  0  0  0  0  0  0  0
  -23.0750  -13.3720   21.8750 N   0  0  0  0  0  0  0  0  0  0  0  0
  -23.3740  -15.0820   20.4780 O   0  0  0  0  0  0  0  0  0  0  0  0
  -23.4200  -12.5240   22.3000 H   0  0  0  0  0  0  0  0  0  0  0  0
  -22.1650  -13.7180   22.1430 H   0  0  0  0  0  0  0  0  0  0  0  0
  -26.4600  -15.5900   20.0710 N   0  0  0  0  0  0  0  0  0  0  0  0
  -25.7240  -16.2700   20.2270 H   0  0  0  0  0  0  0  0  0  0  0  0
  -27.3110  -16.0000   19.7080 H   0  0  0  0  0  0  0  0  0  0  0  0
  1  3  1  0
  2  6  2  0
  2  5  1  0
  3 56  1  0
  4 57  1  0
  4  3  2  0
  5  1  2  0
  6  4  1  0
  7  6  1  0
  8 12  1  0
  8  9  1  0
  9  5  1  0
  9 11  1  0
 10  8  2  0
 13 14  1  0
 13 12  1  0
 14 16  1  0
 15 26  2  0
 16 21  1  0
 17 25  1  0
 17 27  1  0
 18 24  1  0
 18 20  1  0
 19 25  1  0
 20 19  1  0
 21 20  2  0
 22 23  1  0
 22 16  2  0
 23 18  2  0
 24 17  1  0
 25 15  1  0
 27 29  2  0
 28 27  1  0
 30 28  1  0
 31 40  2  0
 31 36  1  0
 32 28  1  0
 32 36  1  0
 33 32  1  0
 34 35  1  0
 34 33  1  0
 35 31  1  0
 36 37  2  0
 37 38  1  0
 39 38  2  0
 40 39  1  0
 41 15  1  0
 41 42  1  0
 41 51  1  0
 42 45  1  0
 43 47  1  0
 43 42  1  0
 44 43  2  0
 47 46  1  0
 49 47  1  0
 49 50  1  0
 49 48  1  0
 51 54  1  1
 51 52  1  0
 53 51  1  0
 56 55  2  0
 58 57  1  0
 59 67  1  0
 60 65  1  0
 61 62  1  0
 61 60  1  0
 63 62  1  0
 63 72  1  0
 63 64  1  0
 65 59  1  0
 65 64  1  0
 66 59  2  0
 67 58  1  0
 67 68  1  0
 69 70  2  0
 70 89  1  0
 71 70  1  0
 71 74  1  0
 72 73  1  0
 72 69  1  0
 73 71  2  0
 74 75  1  0
 75 76  2  0
 77 80  1  0
 77 76  1  0
 78 77  2  0
 79 78  1  0
 79 74  2  0
 80 81  1  0
 81 86  2  0
 81 82  1  0
 82 83  2  0
 83 84  1  0
 84 88  1  0
 85 84  2  0
 86 85  1  0
 87 86  1  0
 89 90  1  0
 90 93  1  0
 90 92  1  0
 91 89  2  0
 94 95  1  0
 94 69  1  0
 96 94  1  0
M  ISO  4  13 101  14 101  59 100  67 100
M  END
>  <TORSDO>  (79) 
F 22

>  <SCORE>  (79) 
-7.899

>  <name>  (79) 
78

>  <ligand_id>  (79) 
78

>  <original_smiles>  (79) 
[H]C([H])=C([H])c1c([H])c(N([H])C(=O)C([H])([H])C([H])([H])Oc2c([H])c([H])c3c(c2[H])C([H])([H])N(C(=O)C([H])(N([H])C(=O)C([H])(N([H])C([H])([H])[H])C([H])([H])[H])C(C([H])([H])[H])(C([H])([H])[H])C([H])([H])[H])C([H])(C(=O)N([H])C2([H])c4c([H])c([H])c([H])c([H])c4C([H])([H])C([H])([H])C2([H])[H])C3([H])[H])c([H])c(F)c1C([H])([H])C([H])([H])N([H])C(=O)N1C([H])([H])C([H])([H])C([H])([H])C([H])(n2nc(-c3c([H])c([H])c(Oc4c([H])c([H])c(F)c([H])c4F)c([H])c3[H])c(C(=O)N([H])[H])c2N([H])[H])C1([H])[H]

>  <smiles>  (79) 
[H]C([H])=C([H])c1c([H])c(N([H])C(=O)C([H])([H])C([H])([H])Oc2c([H])c([H])c3c(c2[H])C([H])([H])N(C(=O)C([H])(N([H])C(=O)C([H])(N([H])C([H])([H])[H])C([H])([H])[H])C(C([H])([H])[H])(C([H])([H])[H])C([H])([H])[H])C([H])(C(=O)N([H])C2([H])c4c([H])c([H])c([H])c([H])c4C([H])([H])C([H])([H])C2([H])[H])C3([H])[H])c([H])c(F)c1C([H])([H])C([H])([H])N([H])C(=O)N1C([H])([H])C([H])([H])C([H])([H])C([H])(n2nc(-c3c([H])c([H])c(Oc4c([H])c([H])c(F)c([H])c4F)c([H])c3[H])c(C(=O)N([H])[H])c2N([H])[H])C1([H])[H]

$$$$
79:0:0
     RDKit          3D

 97105  0  0  1  0  0  0  0  0999 V2000
  -32.2890  -17.8510   20.3430 C   0  0  0  0  0  3  0  0  0  0  0  0
  -30.2730  -19.2050   20.5410 C   0  0  0  0  0  3  0  0  0  0  0  0
  -32.4730  -20.2560   20.6460 C   0  0  0  0  0  3  0  0  0  0  0  0
  -30.8770  -17.9320   20.3740 C   0  0  0  0  0  0  0  0  0  0  0  0
  -33.0840  -19.0050   20.4610 C   0  0  0  0  0  0  0  0  0  0  0  0
  -31.0690  -20.3700   20.6900 C   0  0  0  0  0  0  0  0  0  0  0  0
  -29.3900  -22.2400   20.6150 C   0  0  0  0  0  0  0  0  0  0  0  0
  -30.5630  -21.6750   20.9410 N   0  0  0  0  0  0  0  0  0  0  0  0
  -28.4570  -21.6540   20.0610 O   0  0  0  0  0  0  0  0  0  0  0  0
  -31.2270  -22.3270   21.3360 H   0  0  0  0  0  0  0  0  0  0  0  0
  -29.2710  -23.7280   20.9680 C   0  0  0  0  0  2  0  0  0  0  0  0
  -29.4850  -24.6500   19.7420 C   0  0  0  0  0  2  0  0  0  0  0  0
  -28.2420  -25.4520   19.3350 C   0  0  0  0  0  2  0  0  0  0  0  0
  -28.2540  -26.7410   19.9580 O   0  0  0  0  0  0  0  0  0  0  0  0
  -24.5460  -31.8510   23.2280 C   0  0  0  0  0  0  0  0  0  0  0  0
  -27.0810  -27.4730   19.9660 C   0  0  0  0  0  0  0  0  0  0  0  0
  -23.2970  -30.5130   21.5670 C   0  0  0  0  0  3  0  0  0  0  0  0
  -24.7070  -29.0100   20.0690 C   0  0  0  0  0  0  0  0  0  0  0  0
  -25.8240  -30.8470   21.3390 C   0  0  0  0  0  2  0  0  0  0  0  0
  -25.8800  -29.4960   20.6580 C   0  0  0  0  0  0  0  0  0  0  0  0
  -27.0680  -28.7310   20.6120 C   0  0  0  0  0  3  0  0  0  0  0  0
  -25.8870  -27.0090   19.3620 C   0  0  0  0  0  3  0  0  0  0  0  0
  -24.7050  -27.7660   19.4210 C   0  0  0  0  0  3  0  0  0  0  0  0
  -23.4730  -29.8760   20.1640 C   0  0  0  0  0  2  0  0  0  0  0  0
  -24.5760  -31.0840   22.1020 N   0  0  0  0  0  0  0  0  0  0  0  0
  -23.4760  -32.1200   23.7930 O   0  0  0  0  0  0  0  0  0  0  0  0
  -22.6530  -29.4680   22.5060 C   0  0  0  0  0  0  0  0  0  0  0  0
  -21.3260  -29.2940   22.3880 N   0  0  0  0  0  0  0  0  0  0  0  0
  -23.3420  -28.8160   23.2960 O   0  0  0  0  0  0  0  0  0  0  0  0
  -20.8320  -29.8730   21.7240 H   0  0  0  0  0  0  0  0  0  0  0  0
  -17.9520  -28.1010   22.8790 C   0  0  0  0  0  0  0  0  0  0  0  0
  -20.5120  -28.3410   23.1410 C   0  0  0  0  0  3  0  0  0  0  0  0
  -20.6040  -26.9230   22.5300 C   0  0  0  0  0  2  0  0  0  0  0  0
  -19.4950  -26.6300   21.5160 C   0  0  0  0  0  2  0  0  0  0  0  0
  -18.1180  -26.7660   22.1720 C   0  0  0  0  0  2  0  0  0  0  0  0
  -19.0760  -28.8480   23.3200 C   0  0  0  0  0  0  0  0  0  0  0  0
  -18.8680  -30.1000   23.9380 C   0  0  0  0  0  3  0  0  0  0  0  0
  -17.5670  -30.6040   24.1220 C   0  0  0  0  0  3  0  0  0  0  0  0
  -16.4560  -29.8540   23.6980 C   0  0  0  0  0  3  0  0  0  0  0  0
  -16.6500  -28.6040   23.0830 C   0  0  0  0  0  3  0  0  0  0  0  0
  -25.8500  -32.4490   23.8430 C   0  0  0  0  0  3  0  0  0  0  0  0
  -25.5630  -33.8410   24.2190 N   0  0  0  0  0  0  0  0  0  0  0  0
  -25.9020  -34.9110   23.4870 C   0  0  0  0  0  0  0  0  0  0  0  0
  -26.5610  -34.8290   22.4470 O   0  0  0  0  0  0  0  0  0  0  0  0
  -24.9770  -33.9790   25.0300 H   0  0  0  0  0  0  0  0  0  0  0  0
  -24.1910  -36.7330   23.2010 C   0  0  0  0  0  1  0  0  0  0  0  0
  -25.4340  -36.2900   23.9900 C   0  0  0  0  0  3  0  0  0  0  0  0
  -27.5850  -37.1220   24.8310 C   0  0  0  0  0  1  0  0  0  0  0  0
  -26.4780  -37.3330   23.9010 N   0  0  0  0  0  0  0  0  0  0  0  0
  -26.0850  -38.2520   24.0790 H   0  0  0  0  0  0  0  0  0  0  0  0
  -26.3830  -31.6330   25.0850 C   0  0  1  0  0  0  0  0  0  0  0  0
  -25.3090  -31.3720   26.1650 C   0  0  0  0  0  1  0  0  0  0  0  0
  -26.9450  -30.2650   24.6360 C   0  0  0  0  0  1  0  0  0  0  0  0
  -27.5510  -32.3980   25.7510 C   0  0  0  0  0  1  0  0  0  0  0  0
  -34.4710  -18.9080   20.3860 N   0  0  0  0  0  0  0  0  0  0  0  0
  -34.8640  -18.0720   19.9610 H   0  0  0  0  0  0  0  0  0  0  0  0
  -34.9900  -19.7460   20.1410 H   0  0  0  0  0  0  0  0  0  0  0  0
  -29.9940  -16.6850   20.1750 C   0  0  0  0  0  2  0  0  0  0  0  0
  -30.8790  -14.4030   19.9390 C   0  0  0  0  0  0  0  0  0  0  0  0
  -30.3590  -12.3060   18.7550 C   0  0  0  0  0  2  0  0  0  0  0  0
  -29.3570  -12.5780   17.6200 C   0  0  0  0  0  2  0  0  0  0  0  0
  -27.9130  -12.4800   18.1420 C   0  0  0  0  0  2  0  0  0  0  0  0
  -27.6900  -13.2990   19.4420 C   0  0  0  0  0  3  0  0  0  0  0  0
  -28.8100  -13.0350   20.4750 C   0  0  0  0  0  2  0  0  0  0  0  0
  -30.1110  -13.2830   19.8280 N   0  0  0  0  0  0  0  0  0  0  0  0
  -31.8850  -14.5690   19.2450 O   0  0  0  0  0  0  0  0  0  0  0  0
  -30.4420  -15.3910   20.7540 N   0  0  0  0  0  0  0  0  0  0  0  0
  -25.3510  -13.9510   20.2990 C   0  0  0  0  0  0  0  0  0  0  0  0
  -24.2900  -13.2000   20.7290 C   0  0  0  0  0  0  0  0  0  0  0  0
  -24.7180  -11.8390   20.6590 C   0  0  0  0  0  0  0  0  0  0  0  0
  -26.3610  -13.0490   20.0020 N   0  0  0  0  0  0  0  0  0  0  0  0
  -25.9850  -11.7730   20.2720 N   0  0  0  0  0  0  0  0  0  0  0  0
  -23.9740  -10.5930   20.8800 C   0  0  0  0  0  0  0  0  0  0  0  0
  -24.4030   -9.6330   21.8230 C   0  0  0  0  0  3  0  0  0  0  0  0
  -23.6620   -8.4500   22.0320 C   0  0  0  0  0  3  0  0  0  0  0  0
  -22.4720   -8.2200   21.2990 C   0  0  0  0  0  0  0  0  0  0  0  0
  -22.0630   -9.1660   20.3420 C   0  0  0  0  0  3  0  0  0  0  0  0
  -22.8070  -10.3400   20.1320 C   0  0  0  0  0  3  0  0  0  0  0  0
  -21.6990   -7.0900   21.4200 O   0  0  0  0  0  0  0  0  0  0  0  0
  -21.6070   -6.4030   22.6040 C   0  0  0  0  0  0  0  0  0  0  0  0
  -21.1540   -7.0210   23.7910 C   0  0  0  0  0  3  0  0  0  0  0  0
  -21.0130   -6.2590   24.9690 C   0  0  0  0  0  3  0  0  0  0  0  0
  -21.3100   -4.8830   24.9570 C   0  0  0  0  0  0  0  0  0  0  0  0
  -21.7540   -4.2660   23.7750 C   0  0  0  0  0  3  0  0  0  0  0  0
  -21.8990   -5.0250   22.6010 C   0  0  0  0  0  0  0  0  0  0  0  0
  -22.3070   -4.4210   21.4580 F   0  0  0  0  0  0  0  0  0  0  0  0
  -21.1650   -4.1490   26.0860 F   0  0  0  0  0  0  0  0  0  0  0  0
  -22.9250  -13.7070   21.0940 C   0  0  0  0  0  0  0  0  0  0  0  0
  -22.2390  -13.0290   22.0090 N   0  0  0  0  0  0  0  0  0  0  0  0
  -22.4760  -14.7430   20.6030 O   0  0  0  0  0  0  0  0  0  0  0  0
  -22.6160  -12.1950   22.4310 H   0  0  0  0  0  0  0  0  0  0  0  0
  -21.3250  -13.3530   22.2930 H   0  0  0  0  0  0  0  0  0  0  0  0
  -25.5350  -15.3180   20.1170 N   0  0  0  0  0  0  0  0  0  0  0  0
  -24.7870  -15.9870   20.2670 H   0  0  0  0  0  0  0  0  0  0  0  0
  -26.3780  -15.7450   19.7570 H   0  0  0  0  0  0  0  0  0  0  0  0
  -30.7280  -16.3160   23.0060 C   0  0  0  0  0  2  0  0  0  0  0  0
  -30.7570  -15.3030   22.1210 C   0  0  0  0  0  3  0  0  0  0  0  0
  1  4  2  0
  1  5  1  0
  2  6  2  0
  3  6  1  0
  4  2  1  0
  5  3  2  0
  6  8  1  0
  7  8  1  0
  7 11  1  0
  8 10  1  0
  9  7  2  0
 12 11  1  0
 13 12  1  0
 13 14  1  0
 14 16  1  0
 15 26  2  0
 16 21  1  0
 17 25  1  0
 17 27  1  0
 18 24  1  0
 18 20  1  0
 19 25  1  0
 20 19  1  0
 21 20  2  0
 22 23  1  0
 22 16  2  0
 23 18  2  0
 24 17  1  0
 25 15  1  0
 27 29  2  0
 28 27  1  0
 30 28  1  0
 31 40  2  0
 31 36  1  0
 32 28  1  0
 32 36  1  0
 33 32  1  0
 34 35  1  0
 34 33  1  0
 35 31  1  0
 36 37  2  0
 37 38  1  0
 39 38  2  0
 40 39  1  0
 41 15  1  0
 41 42  1  0
 41 51  1  0
 42 45  1  0
 43 47  1  0
 43 42  1  0
 44 43  2  0
 47 46  1  0
 49 47  1  0
 49 50  1  0
 49 48  1  0
 51 54  1  1
 51 52  1  0
 53 51  1  0
 55  5  1  0
 56 55  1  0
 57 55  1  0
 58  4  1  0
 58 67  1  0
 59 67  1  0
 60 65  1  0
 61 62  1  0
 61 60  1  0
 63 62  1  0
 63 71  1  0
 63 64  1  0
 65 59  1  0
 65 64  1  0
 66 59  2  0
 67 97  1  0
 68 69  2  0
 69 88  1  0
 70 69  1  0
 70 73  1  0
 71 72  1  0
 71 68  1  0
 72 70  2  0
 73 74  1  0
 74 75  2  0
 76 79  1  0
 76 75  1  0
 77 76  2  0
 78 77  1  0
 78 73  2  0
 79 80  1  0
 80 81  1  0
 81 82  2  0
 83 82  1  0
 83 87  1  0
 84 83  2  0
 85 80  2  0
 85 84  1  0
 86 85  1  0
 88 89  1  0
 89 92  1  0
 89 91  1  0
 90 88  2  0
 93 94  1  0
 93 68  1  0
 95 93  1  0
 97 96  2  0
M  ISO  4  13 101  14 101  59 100  67 100
M  END
>  <TORSDO>  (80) 
F 23

>  <SCORE>  (80) 
-11.830

>  <name>  (80) 
79

>  <ligand_id>  (80) 
79

>  <original_smiles>  (80) 
[H]C([H])=C([H])N(C(=O)N1C([H])([H])C([H])([H])C([H])([H])C([H])(n2nc(-c3c([H])c([H])c(Oc4c([H])c([H])c(F)c([H])c4F)c([H])c3[H])c(C(=O)N([H])[H])c2N([H])[H])C1([H])[H])C([H])([H])c1c([H])c(N([H])[H])c([H])c(N([H])C(=O)C([H])([H])C([H])([H])C([H])([H])Oc2c([H])c([H])c3c(c2[H])C([H])([H])N(C(=O)C([H])(N([H])C(=O)C([H])(N([H])C([H])([H])[H])C([H])([H])[H])C(C([H])([H])[H])(C([H])([H])[H])C([H])([H])[H])C([H])(C(=O)N([H])C2([H])c4c([H])c([H])c([H])c([H])c4C([H])([H])C([H])([H])C2([H])[H])C3([H])[H])c1[H]

>  <smiles>  (80) 
[H]C([H])=C([H])N(C(=O)N1C([H])([H])C([H])([H])C([H])([H])C([H])(n2nc(-c3c([H])c([H])c(Oc4c([H])c([H])c(F)c([H])c4F)c([H])c3[H])c(C(=O)N([H])[H])c2N([H])[H])C1([H])[H])C([H])([H])c1c([H])c(N([H])[H])c([H])c(N([H])C(=O)C([H])([H])C([H])([H])C([H])([H])Oc2c([H])c([H])c3c(c2[H])C([H])([H])N(C(=O)C([H])(N([H])C(=O)C([H])(N([H])C([H])([H])[H])C([H])([H])[H])C(C([H])([H])[H])(C([H])([H])[H])C([H])([H])[H])C([H])(C(=O)N([H])C2([H])c4c([H])c([H])c([H])c([H])c4C([H])([H])C([H])([H])C2([H])[H])C3([H])[H])c1[H]

$$$$
80:0:0
     RDKit          3D

 96104  0  0  1  0  0  0  0  0999 V2000
  -31.2890  -17.9320   19.6160 C   0  0  0  0  0  3  0  0  0  0  0  0
  -28.9910  -19.3460   20.2840 C   0  0  0  0  0  3  0  0  0  0  0  0
  -30.2560  -17.1660   20.2260 C   0  0  0  0  0  0  0  0  0  0  0  0
  -29.0860  -17.9440   20.5460 C   0  0  0  0  0  0  0  0  0  0  0  0
  -31.2110  -19.3360   19.3560 C   0  0  0  0  0  0  0  0  0  0  0  0
  -30.0390  -20.0950   19.6930 C   0  0  0  0  0  0  0  0  0  0  0  0
  -27.9590  -17.3790   21.1540 N   0  0  0  0  0  0  0  0  0  0  0  0
  -27.0970  -17.9120   21.2200 H   0  0  0  0  0  0  0  0  0  0  0  0
  -27.8070  -16.3770   21.1060 H   0  0  0  0  0  0  0  0  0  0  0  0
  -30.4250  -15.6640   20.6260 C   0  0  0  0  0  3  0  0  0  0  0  0
  -30.2900  -15.3390   21.8460 N   0  0  0  0  0  2  0  0  0  0  0  0
  -30.0460  -16.1640   22.3860 H   0  0  0  0  0  0  0  0  0  0  0  0
  -30.8340  -14.5400   19.5980 C   0  0  0  0  0  0  0  0  0  0  0  0
  -30.4170  -12.3280   18.5150 C   0  0  0  0  0  2  0  0  0  0  0  0
  -29.3390  -12.4660   17.4150 C   0  0  0  0  0  2  0  0  0  0  0  0
  -27.9290  -12.2920   18.0100 C   0  0  0  0  0  2  0  0  0  0  0  0
  -27.7220  -13.1540   19.2820 C   0  0  0  0  0  3  0  0  0  0  0  0
  -28.8980  -12.9860   20.2680 C   0  0  0  0  0  2  0  0  0  0  0  0
  -30.1480  -13.3400   19.5660 N   0  0  0  0  0  0  0  0  0  0  0  0
  -31.8170  -14.7190   18.8710 O   0  0  0  0  0  0  0  0  0  0  0  0
  -25.4670  -13.7670   20.3480 C   0  0  0  0  0  0  0  0  0  0  0  0
  -24.4310  -13.0010   20.8080 C   0  0  0  0  0  0  0  0  0  0  0  0
  -24.8360  -11.6430   20.6310 C   0  0  0  0  0  0  0  0  0  0  0  0
  -26.4380  -12.8760   19.9200 N   0  0  0  0  0  0  0  0  0  0  0  0
  -26.0700  -11.5880   20.1470 N   0  0  0  0  0  0  0  0  0  0  0  0
  -24.0950  -10.3920   20.8400 C   0  0  0  0  0  0  0  0  0  0  0  0
  -24.5520   -9.4060   21.7440 C   0  0  0  0  0  3  0  0  0  0  0  0
  -23.8150   -8.2190   21.9410 C   0  0  0  0  0  3  0  0  0  0  0  0
  -22.6070   -8.0080   21.2360 C   0  0  0  0  0  0  0  0  0  0  0  0
  -22.1680   -8.9810   20.3220 C   0  0  0  0  0  3  0  0  0  0  0  0
  -22.9060  -10.1610   20.1220 C   0  0  0  0  0  3  0  0  0  0  0  0
  -21.8370   -6.8750   21.3440 O   0  0  0  0  0  0  0  0  0  0  0  0
  -21.7400   -6.1810   22.5240 C   0  0  0  0  0  0  0  0  0  0  0  0
  -21.2550   -6.7840   23.7050 C   0  0  0  0  0  3  0  0  0  0  0  0
  -21.1050   -6.0170   24.8780 C   0  0  0  0  0  3  0  0  0  0  0  0
  -21.4300   -4.6480   24.8690 C   0  0  0  0  0  0  0  0  0  0  0  0
  -21.9060   -4.0430   23.6920 C   0  0  0  0  0  3  0  0  0  0  0  0
  -22.0580   -4.8070   22.5230 C   0  0  0  0  0  0  0  0  0  0  0  0
  -22.4990   -4.2170   21.3850 F   0  0  0  0  0  0  0  0  0  0  0  0
  -21.2780   -3.9070   25.9920 F   0  0  0  0  0  0  0  0  0  0  0  0
  -23.1010  -13.4970   21.2960 C   0  0  0  0  0  0  0  0  0  0  0  0
  -22.4790  -12.7740   22.2220 N   0  0  0  0  0  0  0  0  0  0  0  0
  -22.6270  -14.5590   20.8930 O   0  0  0  0  0  0  0  0  0  0  0  0
  -22.8770  -11.9130   22.5670 H   0  0  0  0  0  0  0  0  0  0  0  0
  -21.5930  -13.0880   22.5910 H   0  0  0  0  0  0  0  0  0  0  0  0
  -25.6570  -15.1420   20.2400 N   0  0  0  0  0  0  0  0  0  0  0  0
  -24.9440  -15.8110   20.5080 H   0  0  0  0  0  0  0  0  0  0  0  0
  -26.4870  -15.5800   19.8610 H   0  0  0  0  0  0  0  0  0  0  0  0
  -32.5750  -21.2610   18.7400 C   0  0  0  0  0  1  0  0  0  0  0  0
  -32.3470  -19.8550   18.7630 O   0  0  0  0  0  0  0  0  0  0  0  0
  -29.9580  -21.4820   19.4320 O   0  0  0  0  0  0  0  0  0  0  0  0
  -28.8920  -22.3550   19.9280 C   0  0  0  0  0  2  0  0  0  0  0  0
  -29.1200  -23.8850   19.5890 C   0  0  0  0  0  0  0  0  0  0  0  0
  -30.1700  -24.2580   19.0510 O   0  0  0  0  0  0  0  0  0  0  0  0
  -27.9970  -24.9310   19.9450 C   0  0  0  0  0  2  0  0  0  0  0  0
  -28.2700  -26.3540   19.6220 O   0  0  0  0  0  0  0  0  0  0  0  0
  -24.5560  -31.5250   23.0050 C   0  0  0  0  0  0  0  0  0  0  0  0
  -27.1560  -27.2010   19.6450 C   0  0  0  0  0  0  0  0  0  0  0  0
  -23.3370  -30.2270   21.2930 C   0  0  0  0  0  3  0  0  0  0  0  0
  -24.7810  -28.7830   19.7540 C   0  0  0  0  0  0  0  0  0  0  0  0
  -25.8690  -30.5810   21.0950 C   0  0  0  0  0  2  0  0  0  0  0  0
  -25.9530  -29.2450   20.3680 C   0  0  0  0  0  0  0  0  0  0  0  0
  -27.1450  -28.4680   20.3040 C   0  0  0  0  0  3  0  0  0  0  0  0
  -25.9650  -26.7960   19.0000 C   0  0  0  0  0  3  0  0  0  0  0  0
  -24.7880  -27.5650   19.0600 C   0  0  0  0  0  3  0  0  0  0  0  0
  -23.5380  -29.6430   19.8710 C   0  0  0  0  0  2  0  0  0  0  0  0
  -24.6070  -30.7900   21.8550 N   0  0  0  0  0  0  0  0  0  0  0  0
  -23.4780  -31.7620   23.5690 O   0  0  0  0  0  0  0  0  0  0  0  0
  -22.6950  -29.1450   22.1930 C   0  0  0  0  0  0  0  0  0  0  0  0
  -21.3650  -28.9810   22.0830 N   0  0  0  0  0  0  0  0  0  0  0  0
  -23.3880  -28.4620   22.9510 O   0  0  0  0  0  0  0  0  0  0  0  0
  -20.8640  -29.5880   21.4470 H   0  0  0  0  0  0  0  0  0  0  0  0
  -17.9870  -27.7980   22.6050 C   0  0  0  0  0  0  0  0  0  0  0  0
  -20.5570  -27.9970   22.8060 C   0  0  0  0  0  3  0  0  0  0  0  0
  -20.6150  -26.6160   22.1130 C   0  0  0  0  0  2  0  0  0  0  0  0
  -19.4740  -26.3920   21.1160 C   0  0  0  0  0  2  0  0  0  0  0  0
  -18.1170  -26.5050   21.8180 C   0  0  0  0  0  2  0  0  0  0  0  0
  -19.1330  -28.5070   23.0550 C   0  0  0  0  0  0  0  0  0  0  0  0
  -18.9570  -29.7210   23.7530 C   0  0  0  0  0  3  0  0  0  0  0  0
  -17.6670  -30.2270   24.0040 C   0  0  0  0  0  3  0  0  0  0  0  0
  -16.5370  -29.5150   23.5690 C   0  0  0  0  0  3  0  0  0  0  0  0
  -16.6980  -28.3000   22.8780 C   0  0  0  0  0  3  0  0  0  0  0  0
  -25.8440  -32.1230   23.6490 C   0  0  0  0  0  3  0  0  0  0  0  0
  -25.5370  -33.5010   24.0570 N   0  0  0  0  0  0  0  0  0  0  0  0
  -25.8590  -34.5920   23.3480 C   0  0  0  0  0  0  0  0  0  0  0  0
  -26.5160  -34.5430   22.3040 O   0  0  0  0  0  0  0  0  0  0  0  0
  -24.9480  -33.6130   24.8680 H   0  0  0  0  0  0  0  0  0  0  0  0
  -24.1170  -36.3930   23.1220 C   0  0  0  0  0  1  0  0  0  0  0  0
  -25.3770  -35.9540   23.8830 C   0  0  0  0  0  3  0  0  0  0  0  0
  -27.5220  -36.8110   24.7150 C   0  0  0  0  0  1  0  0  0  0  0  0
  -26.4030  -37.0160   23.8000 N   0  0  0  0  0  0  0  0  0  0  0  0
  -25.9940  -37.9250   23.9990 H   0  0  0  0  0  0  0  0  0  0  0  0
  -26.3720  -31.2820   24.8760 C   0  0  1  0  0  0  0  0  0  0  0  0
  -25.2890  -30.9820   25.9380 C   0  0  0  0  0  1  0  0  0  0  0  0
  -26.9550  -29.9320   24.4030 C   0  0  0  0  0  1  0  0  0  0  0  0
  -27.5290  -32.0410   25.5710 C   0  0  0  0  0  1  0  0  0  0  0  0
  1  3  1  0
  2  4  1  0
  3  4  2  0
  3 10  1  0
  4  7  1  0
  5  1  2  0
  5  6  1  0
  6  2  2  0
  7  8  1  0
  9  7  1  0
 10 13  1  0
 10 11  1  0
 11 12  1  0
 14 19  1  0
 15 16  1  0
 15 14  1  0
 17 16  1  0
 17 24  1  0
 17 18  1  0
 19 13  1  0
 19 18  1  0
 20 13  2  0
 21 22  2  0
 22 41  1  0
 23 22  1  0
 23 26  1  0
 24 25  1  0
 24 21  1  0
 25 23  2  0
 26 27  1  0
 27 28  2  0
 29 32  1  0
 29 28  1  0
 30 29  2  0
 31 30  1  0
 31 26  2  0
 32 33  1  0
 33 34  1  0
 34 35  2  0
 36 35  1  0
 36 40  1  0
 37 36  2  0
 38 33  2  0
 38 37  1  0
 39 38  1  0
 41 42  1  0
 42 44  1  0
 42 45  1  0
 43 41  2  0
 46 21  1  0
 46 47  1  0
 48 46  1  0
 49 50  1  0
 50  5  1  0
 51  6  1  0
 51 52  1  0
 53 52  1  0
 53 55  1  0
 54 53  2  0
 56 58  1  0
 56 55  1  0
 57 68  2  0
 58 63  1  0
 59 67  1  0
 59 69  1  0
 60 66  1  0
 60 62  1  0
 61 67  1  0
 62 61  1  0
 63 62  2  0
 64 65  1  0
 64 58  2  0
 65 60  2  0
 66 59  1  0
 67 57  1  0
 69 71  2  0
 70 69  1  0
 72 70  1  0
 73 82  2  0
 73 78  1  0
 74 70  1  0
 74 78  1  0
 75 74  1  0
 76 77  1  0
 76 75  1  0
 77 73  1  0
 78 79  2  0
 79 80  1  0
 81 80  2  0
 82 81  1  0
 83 57  1  0
 83 84  1  0
 83 93  1  0
 84 87  1  0
 85 89  1  0
 85 84  1  0
 86 85  2  0
 89 88  1  0
 91 89  1  0
 91 92  1  0
 91 90  1  0
 93 96  1  1
 93 94  1  0
 95 93  1  0
M  ISO  4  10 100  13 100  55 101  56 101
M  END
>  <TORSDO>  (81) 
F 23

>  <SCORE>  (81) 
-11.565

>  <name>  (81) 
80

>  <ligand_id>  (81) 
80

>  <original_smiles>  (81) 
[H]N=C(C(=O)N1C([H])([H])C([H])([H])C([H])([H])C([H])(n2nc(-c3c([H])c([H])c(Oc4c([H])c([H])c(F)c([H])c4F)c([H])c3[H])c(C(=O)N([H])[H])c2N([H])[H])C1([H])[H])c1c([H])c(OC([H])([H])[H])c(OC([H])([H])C(=O)C([H])([H])Oc2c([H])c([H])c3c(c2[H])C([H])([H])N(C(=O)C([H])(N([H])C(=O)C([H])(N([H])C([H])([H])[H])C([H])([H])[H])C(C([H])([H])[H])(C([H])([H])[H])C([H])([H])[H])C([H])(C(=O)N([H])C2([H])c4c([H])c([H])c([H])c([H])c4C([H])([H])C([H])([H])C2([H])[H])C3([H])[H])c([H])c1N([H])[H]

>  <smiles>  (81) 
[H]N=C(C(=O)N1C([H])([H])C([H])([H])C([H])([H])C([H])(n2nc(-c3c([H])c([H])c(Oc4c([H])c([H])c(F)c([H])c4F)c([H])c3[H])c(C(=O)N([H])[H])c2N([H])[H])C1([H])[H])c1c([H])c(OC([H])([H])[H])c(OC([H])([H])C(=O)C([H])([H])Oc2c([H])c([H])c3c(c2[H])C([H])([H])N(C(=O)C([H])(N([H])C(=O)C([H])(N([H])C([H])([H])[H])C([H])([H])[H])C(C([H])([H])[H])(C([H])([H])[H])C([H])([H])[H])C([H])(C(=O)N([H])C2([H])c4c([H])c([H])c([H])c([H])c4C([H])([H])C([H])([H])C2([H])[H])C3([H])[H])c([H])c1N([H])[H]

$$$$
81:0:0
     RDKit          3D

 95103  0  0  1  0  0  0  0  0999 V2000
  -30.8210  -19.4090   21.5040 C   0  0  0  0  0  3  0  0  0  0  0  0
  -30.9610  -17.9940   21.4950 C   0  0  0  0  0  3  0  0  0  0  0  0
  -29.4790  -19.2980   19.5180 C   0  0  0  0  0  3  0  0  0  0  0  0
  -30.0640  -20.1110   20.5350 C   0  0  0  0  0  0  0  0  0  0  0  0
  -30.3740  -17.1720   20.4970 C   0  0  0  0  0  0  0  0  0  0  0  0
  -29.6340  -17.8650   19.4910 C   0  0  0  0  0  0  0  0  0  0  0  0
  -30.8230  -14.7940   19.7230 C   0  0  0  0  0  0  0  0  0  0  0  0
  -30.3710  -12.6980   18.4320 C   0  0  0  0  0  2  0  0  0  0  0  0
  -29.2600  -12.9290   17.3850 C   0  0  0  0  0  2  0  0  0  0  0  0
  -27.8660  -12.7150   18.0050 C   0  0  0  0  0  2  0  0  0  0  0  0
  -27.7040  -13.4550   19.3570 C   0  0  0  0  0  3  0  0  0  0  0  0
  -28.9070  -13.1930   20.2840 C   0  0  0  0  0  2  0  0  0  0  0  0
  -30.1320  -13.6090   19.5760 N   0  0  0  0  0  0  0  0  0  0  0  0
  -31.8010  -15.0360   19.0090 O   0  0  0  0  0  0  0  0  0  0  0  0
  -30.3940  -15.7090   20.6570 N   0  0  0  0  0  0  0  0  0  0  0  0
  -25.4700  -13.9860   20.5080 C   0  0  0  0  0  0  0  0  0  0  0  0
  -24.4510  -13.1820   20.9450 C   0  0  0  0  0  0  0  0  0  0  0  0
  -24.8660  -11.8410   20.6840 C   0  0  0  0  0  0  0  0  0  0  0  0
  -26.4390  -13.1290   20.0080 N   0  0  0  0  0  0  0  0  0  0  0  0
  -26.0910  -11.8280   20.1740 N   0  0  0  0  0  0  0  0  0  0  0  0
  -24.1450  -10.5700   20.8380 C   0  0  0  0  0  0  0  0  0  0  0  0
  -24.6660   -9.5140   21.6160 C   0  0  0  0  0  3  0  0  0  0  0  0
  -23.9450   -8.3080   21.7630 C   0  0  0  0  0  3  0  0  0  0  0  0
  -22.6880   -8.1530   21.1330 C   0  0  0  0  0  0  0  0  0  0  0  0
  -22.1850   -9.1990   20.3400 C   0  0  0  0  0  3  0  0  0  0  0  0
  -22.9050  -10.3950   20.1900 C   0  0  0  0  0  3  0  0  0  0  0  0
  -21.9280   -7.0100   21.1970 O   0  0  0  0  0  0  0  0  0  0  0  0
  -21.9630   -6.1840   22.2930 C   0  0  0  0  0  0  0  0  0  0  0  0
  -21.6700   -6.6560   23.5920 C   0  0  0  0  0  3  0  0  0  0  0  0
  -21.6500   -5.7600   24.6780 C   0  0  0  0  0  3  0  0  0  0  0  0
  -21.9120   -4.3920   24.4690 C   0  0  0  0  0  0  0  0  0  0  0  0
  -22.1980   -3.9200   23.1750 C   0  0  0  0  0  3  0  0  0  0  0  0
  -22.2200   -4.8140   22.0900 C   0  0  0  0  0  0  0  0  0  0  0  0
  -22.4760   -4.3500   20.8430 F   0  0  0  0  0  0  0  0  0  0  0  0
  -21.8850   -3.5280   25.5110 F   0  0  0  0  0  0  0  0  0  0  0  0
  -23.1250  -13.6340   21.4860 C   0  0  0  0  0  0  0  0  0  0  0  0
  -22.5340  -12.8590   22.3880 N   0  0  0  0  0  0  0  0  0  0  0  0
  -22.6270  -14.7070   21.1460 O   0  0  0  0  0  0  0  0  0  0  0  0
  -22.9530  -11.9880   22.6810 H   0  0  0  0  0  0  0  0  0  0  0  0
  -21.6510  -13.1380   22.7900 H   0  0  0  0  0  0  0  0  0  0  0  0
  -25.6480  -15.3660   20.4730 N   0  0  0  0  0  0  0  0  0  0  0  0
  -24.9470  -16.0150   20.8110 H   0  0  0  0  0  0  0  0  0  0  0  0
  -26.4660  -15.8320   20.0940 H   0  0  0  0  0  0  0  0  0  0  0  0
  -30.4680  -15.2820   21.9350 C   0  0  0  0  0  0  0  0  0  0  0  0
  -30.5280  -14.9450   23.0420 N   0  0  0  0  0  0  0  0  0  0  0  0
  -28.9990  -17.1330   18.4860 N   0  0  0  0  0  0  0  0  0  0  0  0
  -28.6810  -17.6440   17.6690 H   0  0  0  0  0  0  0  0  0  0  0  0
  -29.3970  -16.2370   18.2380 H   0  0  0  0  0  0  0  0  0  0  0  0
  -29.9680  -21.5420   20.6650 N   0  0  0  0  0  0  0  0  0  0  0  0
  -30.4750  -21.9710   21.4370 H   0  0  0  0  0  0  0  0  0  0  0  0
  -29.0930  -22.5250   19.9470 C   0  0  0  0  0  2  0  0  0  0  0  0
  -29.2320  -24.0480   20.3910 C   0  0  0  0  0  0  0  0  0  0  0  0
  -30.1190  -24.3640   21.1920 O   0  0  0  0  0  0  0  0  0  0  0  0
  -28.2330  -25.1360   19.8260 C   0  0  0  0  0  2  0  0  0  0  0  0
  -28.4350  -26.5570   20.2290 O   0  0  0  0  0  0  0  0  0  0  0  0
  -24.6330  -31.9150   23.2450 C   0  0  0  0  0  0  0  0  0  0  0  0
  -27.3170  -27.4090   20.1630 C   0  0  0  0  0  0  0  0  0  0  0  0
  -23.4580  -30.5220   21.5810 C   0  0  0  0  0  3  0  0  0  0  0  0
  -24.9360  -29.0050   20.1500 C   0  0  0  0  0  0  0  0  0  0  0  0
  -25.9970  -30.8640   21.4270 C   0  0  0  0  0  2  0  0  0  0  0  0
  -26.0950  -29.4950   20.7650 C   0  0  0  0  0  0  0  0  0  0  0  0
  -27.2880  -28.7080   20.7630 C   0  0  0  0  0  3  0  0  0  0  0  0
  -26.1320  -26.9830   19.5130 C   0  0  0  0  0  3  0  0  0  0  0  0
  -24.9570  -27.7550   19.5170 C   0  0  0  0  0  3  0  0  0  0  0  0
  -23.6900  -29.8670   20.1950 C   0  0  0  0  0  2  0  0  0  0  0  0
  -24.7140  -31.1170   22.1410 N   0  0  0  0  0  0  0  0  0  0  0  0
  -23.5420  -32.1770   23.7730 O   0  0  0  0  0  0  0  0  0  0  0  0
  -22.7960  -29.4890   22.5230 C   0  0  0  0  0  0  0  0  0  0  0  0
  -21.4810  -29.2700   22.3520 N   0  0  0  0  0  0  0  0  0  0  0  0
  -23.4650  -28.8880   23.3670 O   0  0  0  0  0  0  0  0  0  0  0  0
  -20.9990  -29.8070   21.6450 H   0  0  0  0  0  0  0  0  0  0  0  0
  -18.1300  -27.9570   22.7260 C   0  0  0  0  0  0  0  0  0  0  0  0
  -20.6650  -28.3130   23.1000 C   0  0  0  0  0  3  0  0  0  0  0  0
  -20.8430  -26.8790   22.5490 C   0  0  0  0  0  2  0  0  0  0  0  0
  -19.7970  -26.5040   21.4940 C   0  0  0  0  0  2  0  0  0  0  0  0
  -18.3850  -26.6060   22.0780 C   0  0  0  0  0  2  0  0  0  0  0  0
  -19.2020  -28.7640   23.1920 C   0  0  0  0  0  0  0  0  0  0  0  0
  -18.9120  -30.0260   23.7560 C   0  0  0  0  0  3  0  0  0  0  0  0
  -17.5840  -30.4800   23.8600 C   0  0  0  0  0  3  0  0  0  0  0  0
  -16.5270  -29.6700   23.4110 C   0  0  0  0  0  3  0  0  0  0  0  0
  -16.8010  -28.4100   22.8490 C   0  0  0  0  0  3  0  0  0  0  0  0
  -25.9030  -32.5520   23.8860 C   0  0  0  0  0  3  0  0  0  0  0  0
  -25.5880  -33.9530   24.2000 N   0  0  0  0  0  0  0  0  0  0  0  0
  -25.9170  -34.9990   23.4280 C   0  0  0  0  0  0  0  0  0  0  0  0
  -26.5880  -34.8850   22.3980 O   0  0  0  0  0  0  0  0  0  0  0  0
  -24.9930  -34.1150   24.9980 H   0  0  0  0  0  0  0  0  0  0  0  0
  -24.1730  -36.7730   23.0630 C   0  0  0  0  0  1  0  0  0  0  0  0
  -25.4250  -36.3910   23.8690 C   0  0  0  0  0  3  0  0  0  0  0  0
  -27.5610  -37.3020   24.6640 C   0  0  0  0  0  1  0  0  0  0  0  0
  -26.4500  -37.4490   23.7300 N   0  0  0  0  0  0  0  0  0  0  0  0
  -26.0390  -38.3690   23.8670 H   0  0  0  0  0  0  0  0  0  0  0  0
  -26.3940  -31.7920   25.1790 C   0  0  1  0  0  0  0  0  0  0  0  0
  -25.2770  -31.5480   26.2200 C   0  0  0  0  0  1  0  0  0  0  0  0
  -27.0010  -30.4180   24.8110 C   0  0  0  0  0  1  0  0  0  0  0  0
  -27.5200  -32.6010   25.8660 C   0  0  0  0  0  1  0  0  0  0  0  0
  2  1  1  0
  3  4  1  0
  4 49  1  0
  4  1  2  0
  5 15  1  0
  5  2  2  0
  6  3  2  0
  6  5  1  0
  7 15  1  0
  8 13  1  0
  9 10  1  0
  9  8  1  0
 11 10  1  0
 11 19  1  0
 11 12  1  0
 13  7  1  0
 13 12  1  0
 14  7  2  0
 15 44  1  0
 16 17  2  0
 17 36  1  0
 18 21  1  0
 18 17  1  0
 19 20  1  0
 19 16  1  0
 20 18  2  0
 21 22  1  0
 22 23  2  0
 24 27  1  0
 24 23  1  0
 25 24  2  0
 26 25  1  0
 26 21  2  0
 27 28  1  0
 28 29  1  0
 29 30  2  0
 31 30  1  0
 31 35  1  0
 32 31  2  0
 33 28  2  0
 33 32  1  0
 34 33  1  0
 36 37  1  0
 37 39  1  0
 37 40  1  0
 38 36  2  0
 41 16  1  0
 41 42  1  0
 43 41  1  0
 44 45  3  0
 46  6  1  0
 47 46  1  0
 48 46  1  0
 49 50  1  0
 51 52  1  0
 51 49  1  0
 52 53  2  0
 54 55  1  0
 54 52  1  0
 56 67  2  0
 57 55  1  0
 57 62  1  0
 58 66  1  0
 58 68  1  0
 59 65  1  0
 59 61  1  0
 60 66  1  0
 61 60  1  0
 62 61  2  0
 63 64  1  0
 63 57  2  0
 64 59  2  0
 65 58  1  0
 66 56  1  0
 68 70  2  0
 69 68  1  0
 71 69  1  0
 72 81  2  0
 72 77  1  0
 73 69  1  0
 73 77  1  0
 74 73  1  0
 75 76  1  0
 75 74  1  0
 76 72  1  0
 77 78  2  0
 78 79  1  0
 80 79  2  0
 81 80  1  0
 82 56  1  0
 82 83  1  0
 82 92  1  0
 83 86  1  0
 84 88  1  0
 84 83  1  0
 85 84  2  0
 88 87  1  0
 90 91  1  0
 90 88  1  0
 90 89  1  0
 92 95  1  1
 92 93  1  0
 94 92  1  0
M  ISO  4   7 100  15 100  54 101  55 101
M  END
>  <TORSDO>  (82) 
F 22

>  <SCORE>  (82) 
-10.102

>  <name>  (82) 
81

>  <ligand_id>  (82) 
81

>  <original_smiles>  (82) 
[H]c1c([H])c([H])c2c(c1[H])C([H])([H])C([H])([H])C([H])([H])C2([H])N([H])C(=O)C1([H])N(C(=O)C([H])(N([H])C(=O)C([H])(N([H])C([H])([H])[H])C([H])([H])[H])C(C([H])([H])[H])(C([H])([H])[H])C([H])([H])[H])C([H])([H])c2c([H])c(OC([H])([H])C(=O)C([H])([H])N([H])c3c([H])c([H])c(N(C#N)C(=O)N4C([H])([H])C([H])([H])C([H])([H])C([H])(n5nc(-c6c([H])c([H])c(Oc7c([H])c([H])c(F)c([H])c7F)c([H])c6[H])c(C(=O)N([H])[H])c5N([H])[H])C4([H])[H])c(N([H])[H])c3[H])c([H])c([H])c2C1([H])[H]

>  <smiles>  (82) 
[H]c1c([H])c([H])c2c(c1[H])C([H])([H])C([H])([H])C([H])([H])C2([H])N([H])C(=O)C1([H])N(C(=O)C([H])(N([H])C(=O)C([H])(N([H])C([H])([H])[H])C([H])([H])[H])C(C([H])([H])[H])(C([H])([H])[H])C([H])([H])[H])C([H])([H])c2c([H])c(OC([H])([H])C(=O)C([H])([H])N([H])c3c([H])c([H])c(N(C#N)C(=O)N4C([H])([H])C([H])([H])C([H])([H])C([H])(n5nc(-c6c([H])c([H])c(Oc7c([H])c([H])c(F)c([H])c7F)c([H])c6[H])c(C(=O)N([H])[H])c5N([H])[H])C4([H])[H])c(N([H])[H])c3[H])c([H])c([H])c2C1([H])[H]

$$$$
82:0:0
     RDKit          3D

 98106  0  0  1  0  0  0  0  0999 V2000
  -30.2170  -20.1800   22.7290 C   0  0  0  0  0  3  0  0  0  0  0  0
  -29.6630  -20.1360   20.3780 C   0  0  0  0  0  3  0  0  0  0  0  0
  -30.3820  -18.0480   21.4910 C   0  0  0  0  0  0  0  0  0  0  0  0
  -29.8410  -20.8850   21.5630 C   0  0  0  0  0  0  0  0  0  0  0  0
  -30.4960  -18.7890   22.7110 C   0  0  0  0  0  0  0  0  0  0  0  0
  -29.9160  -18.7420   20.3420 C   0  0  0  0  0  0  0  0  0  0  0  0
  -29.7590  -18.0870   19.1660 F   0  0  0  0  0  0  0  0  0  0  0  0
  -30.7310  -14.5840   20.1430 C   0  0  0  0  0  0  0  0  0  0  0  0
  -30.2560  -12.4880   18.9200 C   0  0  0  0  0  2  0  0  0  0  0  0
  -29.2590  -12.7190   17.7700 C   0  0  0  0  0  2  0  0  0  0  0  0
  -27.8160  -12.5730   18.2860 C   0  0  0  0  0  2  0  0  0  0  0  0
  -27.5530  -13.3900   19.5780 C   0  0  0  0  0  3  0  0  0  0  0  0
  -28.6710  -13.1780   20.6240 C   0  0  0  0  0  2  0  0  0  0  0  0
  -29.9550  -13.4750   19.9750 N   0  0  0  0  0  0  0  0  0  0  0  0
  -31.8160  -14.6810   19.5650 O   0  0  0  0  0  0  0  0  0  0  0  0
  -30.9620  -16.6480   21.3380 C   0  0  0  0  0  0  0  0  0  0  0  0
  -30.2140  -15.6280   20.8400 N   0  0  0  0  0  0  0  0  0  0  0  0
  -32.1400  -16.4880   21.6920 O   0  0  0  0  0  0  0  0  0  0  0  0
  -29.2150  -15.6830   20.9330 H   0  0  0  0  0  0  0  0  0  0  0  0
  -25.2010  -13.9770   20.4330 C   0  0  0  0  0  0  0  0  0  0  0  0
  -24.1560  -13.1970   20.8480 C   0  0  0  0  0  0  0  0  0  0  0  0
  -24.6140  -11.8460   20.7710 C   0  0  0  0  0  0  0  0  0  0  0  0
  -26.2310  -13.1010   20.1290 N   0  0  0  0  0  0  0  0  0  0  0  0
  -25.8860  -11.8140   20.3920 N   0  0  0  0  0  0  0  0  0  0  0  0
  -23.8990  -10.5810   20.9790 C   0  0  0  0  0  0  0  0  0  0  0  0
  -24.3470   -9.6240   21.9150 C   0  0  0  0  0  3  0  0  0  0  0  0
  -23.6290   -8.4230   22.1100 C   0  0  0  0  0  3  0  0  0  0  0  0
  -22.4500   -8.1720   21.3700 C   0  0  0  0  0  0  0  0  0  0  0  0
  -22.0210   -9.1180   20.4230 C   0  0  0  0  0  3  0  0  0  0  0  0
  -22.7390  -10.3100   20.2250 C   0  0  0  0  0  3  0  0  0  0  0  0
  -21.7040   -7.0240   21.4750 O   0  0  0  0  0  0  0  0  0  0  0  0
  -21.6370   -6.3140   22.6470 C   0  0  0  0  0  0  0  0  0  0  0  0
  -21.1770   -6.8980   23.8470 C   0  0  0  0  0  3  0  0  0  0  0  0
  -21.0590   -6.1130   25.0120 C   0  0  0  0  0  3  0  0  0  0  0  0
  -21.3900   -4.7450   24.9770 C   0  0  0  0  0  0  0  0  0  0  0  0
  -21.8410   -4.1600   23.7810 C   0  0  0  0  0  3  0  0  0  0  0  0
  -21.9620   -4.9420   22.6180 C   0  0  0  0  0  0  0  0  0  0  0  0
  -22.3780   -4.3690   21.4630 F   0  0  0  0  0  0  0  0  0  0  0  0
  -21.2680   -3.9890   26.0930 F   0  0  0  0  0  0  0  0  0  0  0  0
  -22.7750  -13.6700   21.2020 C   0  0  0  0  0  0  0  0  0  0  0  0
  -22.0920  -12.9570   22.0890 N   0  0  0  0  0  0  0  0  0  0  0  0
  -22.3130  -14.7080   20.7290 O   0  0  0  0  0  0  0  0  0  0  0  0
  -22.4780  -12.1160   22.4940 H   0  0  0  0  0  0  0  0  0  0  0  0
  -21.1680  -13.2560   22.3690 H   0  0  0  0  0  0  0  0  0  0  0  0
  -25.3570  -15.3500   20.2680 N   0  0  0  0  0  0  0  0  0  0  0  0
  -24.5950  -16.0020   20.4220 H   0  0  0  0  0  0  0  0  0  0  0  0
  -26.1800  -15.7920   19.8790 H   0  0  0  0  0  0  0  0  0  0  0  0
  -30.8940  -18.2090   23.9260 N   0  0  0  0  0  0  0  0  0  0  0  0
  -31.1810  -18.8150   24.6890 H   0  0  0  0  0  0  0  0  0  0  0  0
  -31.4230  -17.3390   23.9060 H   0  0  0  0  0  0  0  0  0  0  0  0
  -29.6530  -22.2860   21.6420 N   0  0  0  0  0  0  0  0  0  0  0  0
  -29.7690  -22.6930   22.5670 H   0  0  0  0  0  0  0  0  0  0  0  0
  -30.0470  -23.1570   20.5200 C   0  0  0  0  0  2  0  0  0  0  0  0
  -29.7330  -24.6870   20.7060 C   0  0  0  0  0  2  0  0  0  0  0  0
  -27.2610  -24.5610   20.8770 C   0  0  0  0  0  1  0  0  0  0  0  0
  -28.4170  -24.9090   18.5660 C   0  0  0  0  0  1  0  0  0  0  0  0
  -28.4080  -25.2430   20.0800 C   0  0  2  0  0  0  0  0  0  0  0  0
  -28.4250  -26.7010   20.2300 O   0  0  0  0  0  0  0  0  0  0  0  0
  -24.6280  -31.9240   23.2740 C   0  0  0  0  0  0  0  0  0  0  0  0
  -27.2630  -27.4730   20.1570 C   0  0  0  0  0  0  0  0  0  0  0  0
  -23.4270  -30.5360   21.6230 C   0  0  0  0  0  3  0  0  0  0  0  0
  -24.8800  -29.0310   20.1710 C   0  0  0  0  0  0  0  0  0  0  0  0
  -25.9590  -30.8920   21.4320 C   0  0  0  0  0  2  0  0  0  0  0  0
  -26.0430  -29.5290   20.7710 C   0  0  0  0  0  0  0  0  0  0  0  0
  -27.2350  -28.7600   20.7600 C   0  0  0  0  0  3  0  0  0  0  0  0
  -26.0790  -27.0310   19.5210 C   0  0  0  0  0  3  0  0  0  0  0  0
  -24.8970  -27.7820   19.5400 C   0  0  0  0  0  3  0  0  0  0  0  0
  -23.6350  -29.8860   20.2330 C   0  0  0  0  0  2  0  0  0  0  0  0
  -24.6900  -31.1320   22.1670 N   0  0  0  0  0  0  0  0  0  0  0  0
  -23.5450  -32.1880   23.8160 O   0  0  0  0  0  0  0  0  0  0  0  0
  -22.7820  -29.4970   22.5700 C   0  0  0  0  0  0  0  0  0  0  0  0
  -21.4590  -29.3040   22.4390 N   0  0  0  0  0  0  0  0  0  0  0  0
  -23.4690  -28.8710   23.3810 O   0  0  0  0  0  0  0  0  0  0  0  0
  -20.9650  -29.8630   21.7590 H   0  0  0  0  0  0  0  0  0  0  0  0
  -18.0940  -28.0780   22.9270 C   0  0  0  0  0  0  0  0  0  0  0  0
  -20.6490  -28.3550   23.2030 C   0  0  0  0  0  3  0  0  0  0  0  0
  -20.7640  -26.9280   22.6170 C   0  0  0  0  0  2  0  0  0  0  0  0
  -19.6660  -26.6030   21.6010 C   0  0  0  0  0  2  0  0  0  0  0  0
  -18.2810  -26.7350   22.2420 C   0  0  0  0  0  2  0  0  0  0  0  0
  -19.2060  -28.8450   23.3630 C   0  0  0  0  0  0  0  0  0  0  0  0
  -18.9760  -30.1040   23.9620 C   0  0  0  0  0  3  0  0  0  0  0  0
  -17.6670  -30.5930   24.1310 C   0  0  0  0  0  3  0  0  0  0  0  0
  -16.5700  -29.8220   23.7090 C   0  0  0  0  0  3  0  0  0  0  0  0
  -16.7840  -28.5660   23.1140 C   0  0  0  0  0  3  0  0  0  0  0  0
  -25.9100  -32.5560   23.8970 C   0  0  0  0  0  3  0  0  0  0  0  0
  -25.6010  -33.9540   24.2260 N   0  0  0  0  0  0  0  0  0  0  0  0
  -25.9310  -35.0070   23.4650 C   0  0  0  0  0  0  0  0  0  0  0  0
  -26.6030  -34.9040   22.4350 O   0  0  0  0  0  0  0  0  0  0  0  0
  -25.0110  -34.1110   25.0310 H   0  0  0  0  0  0  0  0  0  0  0  0
  -24.2010  -36.7950   23.1020 C   0  0  0  0  0  1  0  0  0  0  0  0
  -25.4390  -36.3930   23.9200 C   0  0  0  0  0  3  0  0  0  0  0  0
  -27.5660  -37.2820   24.7640 C   0  0  0  0  0  1  0  0  0  0  0  0
  -26.4690  -37.4480   23.8120 N   0  0  0  0  0  0  0  0  0  0  0  0
  -26.0610  -38.3660   23.9600 H   0  0  0  0  0  0  0  0  0  0  0  0
  -26.4280  -31.7830   25.1720 C   0  0  1  0  0  0  0  0  0  0  0  0
  -25.3290  -31.5280   26.2290 C   0  0  0  0  0  1  0  0  0  0  0  0
  -27.0280  -30.4140   24.7750 C   0  0  0  0  0  1  0  0  0  0  0  0
  -27.5650  -32.5870   25.8430 C   0  0  0  0  0  1  0  0  0  0  0  0
  2  4  1  0
  3  5  2  0
  4 51  1  0
  4  1  2  0
  5  1  1  0
  5 48  1  0
  6  2  2  0
  6  3  1  0
  7  6  1  0
  8 17  1  0
  9 14  1  0
 10 11  1  0
 10  9  1  0
 12 11  1  0
 12 23  1  0
 12 13  1  0
 14  8  1  0
 14 13  1  0
 15  8  2  0
 16  3  1  0
 16 18  2  0
 17 19  1  0
 17 16  1  0
 20 21  2  0
 21 40  1  0
 22 21  1  0
 22 25  1  0
 23 24  1  0
 23 20  1  0
 24 22  2  0
 25 26  1  0
 26 27  2  0
 28 31  1  0
 28 27  1  0
 29 28  2  0
 30 29  1  0
 30 25  2  0
 31 32  1  0
 32 33  1  0
 33 34  2  0
 35 34  1  0
 35 39  1  0
 36 35  2  0
 37 32  2  0
 37 36  1  0
 38 37  1  0
 40 41  1  0
 41 44  1  0
 41 43  1  0
 42 40  2  0
 45 46  1  0
 45 20  1  0
 47 45  1  0
 48 49  1  0
 50 48  1  0
 51 52  1  0
 53 54  1  0
 53 51  1  0
 57 56  1  6
 57 58  1  0
 57 54  1  0
 57 55  1  0
 59 70  2  0
 60 58  1  0
 60 65  1  0
 61 69  1  0
 61 71  1  0
 62 68  1  0
 62 64  1  0
 63 69  1  0
 64 63  1  0
 65 64  2  0
 66 67  1  0
 66 60  2  0
 67 62  2  0
 68 61  1  0
 69 59  1  0
 71 73  2  0
 72 71  1  0
 74 72  1  0
 75 84  2  0
 75 80  1  0
 76 72  1  0
 76 80  1  0
 77 76  1  0
 78 79  1  0
 78 77  1  0
 79 75  1  0
 80 81  2  0
 81 82  1  0
 83 82  2  0
 84 83  1  0
 85 59  1  0
 85 86  1  0
 85 95  1  0
 86 89  1  0
 87 91  1  0
 87 86  1  0
 88 87  2  0
 91 90  1  0
 93 91  1  0
 93 94  1  0
 93 92  1  0
 95 98  1  1
 95 96  1  0
 97 95  1  0
M  ISO  4   8 100  17 100  57 101  58 101
M  END
>  <TORSDO>  (83) 
F 21

>  <SCORE>  (83) 
-12.747

>  <name>  (83) 
82

>  <ligand_id>  (83) 
82

>  <original_smiles>  (83) 
[H]c1c([H])c([H])c2c(c1[H])C([H])([H])C([H])([H])C([H])([H])C2([H])N([H])C(=O)C1([H])N(C(=O)C([H])(N([H])C(=O)C([H])(N([H])C([H])([H])[H])C([H])([H])[H])C(C([H])([H])[H])(C([H])([H])[H])C([H])([H])[H])C([H])([H])c2c([H])c(OC(C([H])([H])[H])(C([H])([H])[H])C([H])([H])C([H])([H])N([H])c3c([H])c(F)c(C(=O)N([H])C(=O)N4C([H])([H])C([H])([H])C([H])([H])C([H])(n5nc(-c6c([H])c([H])c(Oc7c([H])c([H])c(F)c([H])c7F)c([H])c6[H])c(C(=O)N([H])[H])c5N([H])[H])C4([H])[H])c(N([H])[H])c3[H])c([H])c([H])c2C1([H])[H]

>  <smiles>  (83) 
[H]c1c([H])c([H])c2c(c1[H])C([H])([H])C([H])([H])C([H])([H])C2([H])N([H])C(=O)C1([H])N(C(=O)C([H])(N([H])C(=O)C([H])(N([H])C([H])([H])[H])C([H])([H])[H])C(C([H])([H])[H])(C([H])([H])[H])C([H])([H])[H])C([H])([H])c2c([H])c(OC(C([H])([H])[H])(C([H])([H])[H])C([H])([H])C([H])([H])N([H])c3c([H])c(F)c(C(=O)N([H])C(=O)N4C([H])([H])C([H])([H])C([H])([H])C([H])(n5nc(-c6c([H])c([H])c(Oc7c([H])c([H])c(F)c([H])c7F)c([H])c6[H])c(C(=O)N([H])[H])c5N([H])[H])C4([H])[H])c(N([H])[H])c3[H])c([H])c([H])c2C1([H])[H]

$$$$
83:0:0
     RDKit          3D

 93102  0  0  1  0  0  0  0  0999 V2000
  -29.5840  -22.9170   21.0550 C   0  0  0  0  0  0  0  0  0  0  0  0
  -29.8450  -23.8810   18.8970 C   0  0  0  0  0  2  0  0  0  0  0  0
  -30.5250  -22.4980   18.9900 C   0  0  0  0  0  2  0  0  0  0  0  0
  -29.5510  -24.2990   20.3440 C   0  0  0  0  0  3  0  0  0  0  0  0
  -30.1630  -21.9540   20.2950 N   0  0  0  0  0  0  0  0  0  0  0  0
  -29.1910  -22.7590   22.2130 O   0  0  0  0  0  0  0  0  0  0  0  0
  -30.7600  -20.6540   20.7460 C   0  0  0  0  0  2  0  0  0  0  0  0
  -27.8680  -18.1940   20.0850 C   0  0  0  0  0  3  0  0  0  0  0  0
  -28.6300  -19.3720   20.1540 C   0  0  0  0  0  3  0  0  0  0  0  0
  -28.4510  -16.9510   20.3900 C   0  0  0  0  0  3  0  0  0  0  0  0
  -30.5800  -18.0400   20.8020 C   0  0  0  0  0  3  0  0  0  0  0  0
  -29.9850  -19.3240   20.5390 C   0  0  0  0  0  0  0  0  0  0  0  0
  -29.8120  -16.8320   20.7210 C   0  0  0  0  0  0  0  0  0  0  0  0
  -30.8170  -14.5410   20.3550 C   0  0  0  0  0  0  0  0  0  0  0  0
  -30.5210  -12.3130   19.2890 C   0  0  0  0  0  2  0  0  0  0  0  0
  -29.5820  -12.4440   18.0700 C   0  0  0  0  0  2  0  0  0  0  0  0
  -28.1060  -12.3230   18.4970 C   0  0  0  0  0  2  0  0  0  0  0  0
  -27.7650  -13.2270   19.7090 C   0  0  0  0  0  3  0  0  0  0  0  0
  -28.8130  -13.0610   20.8370 C   0  0  0  0  0  2  0  0  0  0  0  0
  -30.1500  -13.3450   20.2770 N   0  0  0  0  0  0  0  0  0  0  0  0
  -31.8950  -14.7310   19.7830 O   0  0  0  0  0  0  0  0  0  0  0  0
  -30.2330  -15.5030   21.1120 N   0  0  0  0  0  0  0  0  0  0  0  0
  -29.5430  -15.0580   21.6980 H   0  0  0  0  0  0  0  0  0  0  0  0
  -25.3760  -13.9000   20.4030 C   0  0  0  0  0  0  0  0  0  0  0  0
  -24.2920  -13.1630   20.7940 C   0  0  0  0  0  0  0  0  0  0  0  0
  -24.7160  -11.8000   20.7710 C   0  0  0  0  0  0  0  0  0  0  0  0
  -26.4020  -12.9920   20.1880 N   0  0  0  0  0  0  0  0  0  0  0  0
  -26.0060  -11.7220   20.4620 N   0  0  0  0  0  0  0  0  0  0  0  0
  -23.9510  -10.5620   20.9660 C   0  0  0  0  0  0  0  0  0  0  0  0
  -24.3550   -9.5850   21.9020 C   0  0  0  0  0  3  0  0  0  0  0  0
  -23.5930   -8.4110   22.0840 C   0  0  0  0  0  3  0  0  0  0  0  0
  -22.4120   -8.2080   21.3320 C   0  0  0  0  0  0  0  0  0  0  0  0
  -22.0250   -9.1730   20.3860 C   0  0  0  0  0  3  0  0  0  0  0  0
  -22.7890  -10.3390   20.2020 C   0  0  0  0  0  3  0  0  0  0  0  0
  -21.6210   -7.0880   21.4250 O   0  0  0  0  0  0  0  0  0  0  0  0
  -21.5520   -6.3520   22.5810 C   0  0  0  0  0  0  0  0  0  0  0  0
  -21.1430   -6.9210   23.8060 C   0  0  0  0  0  3  0  0  0  0  0  0
  -21.0200   -6.1120   24.9520 C   0  0  0  0  0  3  0  0  0  0  0  0
  -21.2960   -4.7340   24.8750 C   0  0  0  0  0  0  0  0  0  0  0  0
  -21.6980   -4.1630   23.6550 C   0  0  0  0  0  3  0  0  0  0  0  0
  -21.8230   -4.9700   22.5110 C   0  0  0  0  0  0  0  0  0  0  0  0
  -22.1920   -4.4110   21.3310 F   0  0  0  0  0  0  0  0  0  0  0  0
  -21.1700   -3.9540   25.9740 F   0  0  0  0  0  0  0  0  0  0  0  0
  -22.9110  -13.6850   21.0670 C   0  0  0  0  0  0  0  0  0  0  0  0
  -22.1640  -13.0170   21.9410 N   0  0  0  0  0  0  0  0  0  0  0  0
  -22.5030  -14.7200   20.5410 O   0  0  0  0  0  0  0  0  0  0  0  0
  -22.5070  -12.1800   22.3890 H   0  0  0  0  0  0  0  0  0  0  0  0
  -21.2370  -13.3490   22.1650 H   0  0  0  0  0  0  0  0  0  0  0  0
  -25.5530  -15.2590   20.1840 N   0  0  0  0  0  0  0  0  0  0  0  0
  -24.7640  -15.8960   20.2200 H   0  0  0  0  0  0  0  0  0  0  0  0
  -26.3480  -15.6440   19.6930 H   0  0  0  0  0  0  0  0  0  0  0  0
  -28.2760  -25.2000   20.5410 C   0  0  0  0  0  2  0  0  0  0  0  0
  -28.4200  -26.6080   20.1690 O   0  0  0  0  0  0  0  0  0  0  0  0
  -24.5870  -31.8620   23.2110 C   0  0  0  0  0  0  0  0  0  0  0  0
  -27.2620  -27.3820   20.1550 C   0  0  0  0  0  0  0  0  0  0  0  0
  -23.3960  -30.4550   21.5650 C   0  0  0  0  0  3  0  0  0  0  0  0
  -24.8640  -28.9220   20.1440 C   0  0  0  0  0  0  0  0  0  0  0  0
  -25.9270  -30.8140   21.3810 C   0  0  0  0  0  2  0  0  0  0  0  0
  -26.0230  -29.4400   20.7370 C   0  0  0  0  0  0  0  0  0  0  0  0
  -27.2240  -28.6820   20.7320 C   0  0  0  0  0  3  0  0  0  0  0  0
  -26.0830  -26.9010   19.5400 C   0  0  0  0  0  3  0  0  0  0  0  0
  -24.8930  -27.6560   19.5370 C   0  0  0  0  0  3  0  0  0  0  0  0
  -23.6160  -29.7780   20.1870 C   0  0  0  0  0  2  0  0  0  0  0  0
  -24.6540  -31.0600   22.1100 N   0  0  0  0  0  0  0  0  0  0  0  0
  -23.5010  -32.1290   23.7460 O   0  0  0  0  0  0  0  0  0  0  0  0
  -22.7430  -29.4330   22.5230 C   0  0  0  0  0  0  0  0  0  0  0  0
  -21.4160  -29.2580   22.4040 N   0  0  0  0  0  0  0  0  0  0  0  0
  -23.4270  -28.7980   23.3300 O   0  0  0  0  0  0  0  0  0  0  0  0
  -20.9240  -29.8220   21.7250 H   0  0  0  0  0  0  0  0  0  0  0  0
  -18.0350  -28.0860   22.9270 C   0  0  0  0  0  0  0  0  0  0  0  0
  -20.5990  -28.3190   23.1730 C   0  0  0  0  0  3  0  0  0  0  0  0
  -20.6820  -26.8940   22.5780 C   0  0  0  0  0  2  0  0  0  0  0  0
  -19.5670  -26.5940   21.5720 C   0  0  0  0  0  2  0  0  0  0  0  0
  -18.1930  -26.7430   22.2340 C   0  0  0  0  0  2  0  0  0  0  0  0
  -19.1650  -28.8330   23.3530 C   0  0  0  0  0  0  0  0  0  0  0  0
  -18.9640  -30.0910   23.9610 C   0  0  0  0  0  3  0  0  0  0  0  0
  -17.6660  -30.6020   24.1470 C   0  0  0  0  0  3  0  0  0  0  0  0
  -16.5500  -29.8520   23.7380 C   0  0  0  0  0  3  0  0  0  0  0  0
  -16.7360  -28.5960   23.1340 C   0  0  0  0  0  3  0  0  0  0  0  0
  -25.8660  -32.5010   23.8360 C   0  0  0  0  0  3  0  0  0  0  0  0
  -26.3800  -31.7350   25.1170 C   0  0  1  0  0  0  0  0  0  0  0  0
  -25.2830  -31.4940   26.1790 C   0  0  0  0  0  1  0  0  0  0  0  0
  -26.9720  -30.3610   24.7300 C   0  0  0  0  0  1  0  0  0  0  0  0
  -27.5230  -32.5370   25.7830 C   0  0  0  0  0  1  0  0  0  0  0  0
  -25.5500  -33.8990   24.1610 N   0  0  0  0  0  0  0  0  0  0  0  0
  -25.8930  -34.9510   23.4060 C   0  0  0  0  0  0  0  0  0  0  0  0
  -26.5780  -34.8480   22.3830 O   0  0  0  0  0  0  0  0  0  0  0  0
  -24.9420  -34.0540   24.9510 H   0  0  0  0  0  0  0  0  0  0  0  0
  -24.1780  -36.7480   23.0150 C   0  0  0  0  0  1  0  0  0  0  0  0
  -25.3980  -36.3390   23.8540 C   0  0  0  0  0  3  0  0  0  0  0  0
  -27.5140  -37.2170   24.7390 C   0  0  0  0  0  1  0  0  0  0  0  0
  -26.4350  -37.3900   23.7700 N   0  0  0  0  0  0  0  0  0  0  0  0
  -26.0280  -38.3110   23.9110 H   0  0  0  0  0  0  0  0  0  0  0  0
  1  6  2  0
  2  3  1  0
  2  4  1  0
  3  5  1  0
  4 52  1  0
  4  1  1  0
  5  7  1  0
  5  1  1  0
  8  9  2  0
  8 10  1  0
  9 12  1  0
 10 13  2  0
 12  7  1  0
 12 11  2  0
 13 11  1  0
 13 22  1  0
 14 22  1  0
 15 20  1  0
 16 17  1  0
 16 15  1  0
 18 17  1  0
 18 27  1  0
 18 19  1  0
 20 14  1  0
 20 19  1  0
 21 14  2  0
 22 23  1  0
 24 25  2  0
 25 44  1  0
 26 25  1  0
 26 29  1  0
 27 24  1  0
 27 28  1  0
 28 26  2  0
 29 30  1  0
 30 31  2  0
 32 35  1  0
 32 31  1  0
 33 32  2  0
 34 33  1  0
 34 29  2  0
 35 36  1  0
 36 37  1  0
 37 38  2  0
 39 38  1  0
 39 43  1  0
 40 39  2  0
 41 36  2  0
 41 40  1  0
 42 41  1  0
 44 45  1  0
 45 48  1  0
 45 47  1  0
 46 44  2  0
 49 50  1  0
 49 24  1  0
 51 49  1  0
 53 52  1  0
 54 65  2  0
 55 53  1  0
 55 60  1  0
 56 64  1  0
 56 66  1  0
 57 63  1  0
 57 59  1  0
 58 64  1  0
 59 58  1  0
 60 59  2  0
 61 55  2  0
 62 61  1  0
 62 57  2  0
 63 56  1  0
 64 54  1  0
 66 68  2  0
 67 66  1  0
 69 67  1  0
 70 79  2  0
 70 75  1  0
 71 67  1  0
 71 75  1  0
 72 71  1  0
 73 74  1  0
 73 72  1  0
 74 70  1  0
 75 76  2  0
 76 77  1  0
 78 77  2  0
 79 78  1  0
 80 54  1  0
 80 85  1  0
 80 81  1  0
 81 84  1  1
 81 82  1  0
 83 81  1  0
 85 88  1  0
 86 90  1  0
 86 85  1  0
 87 86  2  0
 90 89  1  0
 92 90  1  0
 92 93  1  0
 92 91  1  0
M  ISO  4  14 100  22 100  52 101  53 101
M  END
>  <TORSDO>  (84) 
F 19

>  <SCORE>  (84) 
-14.651

>  <name>  (84) 
83

>  <ligand_id>  (84) 
83

>  <original_smiles>  (84) 
[H]c1c([H])c(N([H])C(=O)N2C([H])([H])C([H])([H])C([H])([H])C([H])(n3nc(-c4c([H])c([H])c(Oc5c([H])c([H])c(F)c([H])c5F)c([H])c4[H])c(C(=O)N([H])[H])c3N([H])[H])C2([H])[H])c([H])c(C([H])([H])N2C(=O)C([H])(C([H])([H])Oc3c([H])c([H])c4c(c3[H])C([H])([H])N(C(=O)C([H])(N([H])C(=O)C([H])(N([H])C([H])([H])[H])C([H])([H])[H])C(C([H])([H])[H])(C([H])([H])[H])C([H])([H])[H])C([H])(C(=O)N([H])C3([H])c5c([H])c([H])c([H])c([H])c5C([H])([H])C([H])([H])C3([H])[H])C4([H])[H])C([H])([H])C2([H])[H])c1[H]

>  <smiles>  (84) 
[H]c1c([H])c(N([H])C(=O)N2C([H])([H])C([H])([H])C([H])([H])C([H])(n3nc(-c4c([H])c([H])c(Oc5c([H])c([H])c(F)c([H])c5F)c([H])c4[H])c(C(=O)N([H])[H])c3N([H])[H])C2([H])[H])c([H])c(C([H])([H])N2C(=O)C([H])(C([H])([H])Oc3c([H])c([H])c4c(c3[H])C([H])([H])N(C(=O)C([H])(N([H])C(=O)C([H])(N([H])C([H])([H])[H])C([H])([H])[H])C(C([H])([H])[H])(C([H])([H])[H])C([H])([H])[H])C([H])(C(=O)N([H])C3([H])c5c([H])c([H])c([H])c([H])c5C([H])([H])C([H])([H])C3([H])[H])C4([H])[H])C([H])([H])C2([H])[H])c1[H]

$$$$
84:0:0
     RDKit          3D

 95103  0  0  1  0  0  0  0  0999 V2000
  -30.3830  -18.0520   21.3560 C   0  0  0  0  0  3  0  0  0  0  0  0
  -30.0280  -18.3940   19.0060 C   0  0  0  0  0  3  0  0  0  0  0  0
  -30.1480  -17.4690   20.0830 C   0  0  0  0  0  0  0  0  0  0  0  0
  -30.4100  -19.4700   21.5310 C   0  0  0  0  0  0  0  0  0  0  0  0
  -30.0270  -19.8140   19.1630 C   0  0  0  0  0  0  0  0  0  0  0  0
  -30.1870  -20.3800   20.4540 C   0  0  0  0  0  0  0  0  0  0  0  0
  -30.6370  -19.9960   22.8040 N   0  0  0  0  0  0  0  0  0  0  0  0
  -30.7720  -19.4250   23.6310 H   0  0  0  0  0  0  0  0  0  0  0  0
  -30.6870  -21.0000   22.9460 H   0  0  0  0  0  0  0  0  0  0  0  0
  -29.8190  -15.9970   19.7990 C   0  0  0  0  0  0  0  0  0  0  0  0
  -28.9380  -15.8350   18.9040 N   0  0  0  0  0  0  0  0  0  0  0  0
  -28.5660  -16.7230   18.5950 H   0  0  0  0  0  0  0  0  0  0  0  0
  -30.6060  -14.7520   20.3760 C   0  0  0  0  0  0  0  0  0  0  0  0
  -30.3680  -12.4650   19.4530 C   0  0  0  0  0  2  0  0  0  0  0  0
  -29.4410  -12.5250   18.2200 C   0  0  0  0  0  2  0  0  0  0  0  0
  -27.9630  -12.3500   18.6350 C   0  0  0  0  0  2  0  0  0  0  0  0
  -27.5560  -13.2330   19.8430 C   0  0  0  0  0  3  0  0  0  0  0  0
  -28.6290  -13.2440   20.9580 C   0  0  0  0  0  2  0  0  0  0  0  0
  -29.9450  -13.5420   20.3630 N   0  0  0  0  0  0  0  0  0  0  0  0
  -31.8350  -14.8090   20.3310 O   0  0  0  0  0  0  0  0  0  0  0  0
  -25.1750  -13.8320   20.5600 C   0  0  0  0  0  0  0  0  0  0  0  0
  -24.1060  -13.0570   20.9150 C   0  0  0  0  0  0  0  0  0  0  0  0
  -24.5800  -11.7100   20.8970 C   0  0  0  0  0  0  0  0  0  0  0  0
  -26.2230  -12.9480   20.3400 N   0  0  0  0  0  0  0  0  0  0  0  0
  -25.8720  -11.6700   20.6080 N   0  0  0  0  0  0  0  0  0  0  0  0
  -23.8610  -10.4450   21.0770 C   0  0  0  0  0  0  0  0  0  0  0  0
  -24.2890   -9.4820   22.0170 C   0  0  0  0  0  3  0  0  0  0  0  0
  -23.5700   -8.2800   22.1840 C   0  0  0  0  0  3  0  0  0  0  0  0
  -22.4100   -8.0340   21.4120 C   0  0  0  0  0  0  0  0  0  0  0  0
  -22.0030   -8.9860   20.4600 C   0  0  0  0  0  3  0  0  0  0  0  0
  -22.7220  -10.1790   20.2910 C   0  0  0  0  0  3  0  0  0  0  0  0
  -21.6620   -6.8840   21.4910 O   0  0  0  0  0  0  0  0  0  0  0  0
  -21.6070   -6.1440   22.6450 C   0  0  0  0  0  0  0  0  0  0  0  0
  -21.1350   -6.6880   23.8590 C   0  0  0  0  0  3  0  0  0  0  0  0
  -21.0340   -5.8730   25.0040 C   0  0  0  0  0  3  0  0  0  0  0  0
  -21.3860   -4.5120   24.9330 C   0  0  0  0  0  0  0  0  0  0  0  0
  -21.8500   -3.9670   23.7240 C   0  0  0  0  0  3  0  0  0  0  0  0
  -21.9580   -4.7800   22.5820 C   0  0  0  0  0  0  0  0  0  0  0  0
  -22.3860   -4.2440   21.4120 F   0  0  0  0  0  0  0  0  0  0  0  0
  -21.2780   -3.7260   26.0300 F   0  0  0  0  0  0  0  0  0  0  0  0
  -22.7030  -13.5290   21.1590 C   0  0  0  0  0  0  0  0  0  0  0  0
  -21.9640  -12.8320   22.0150 N   0  0  0  0  0  0  0  0  0  0  0  0
  -22.2690  -14.5510   20.6260 O   0  0  0  0  0  0  0  0  0  0  0  0
  -22.3260  -12.0060   22.4670 H   0  0  0  0  0  0  0  0  0  0  0  0
  -21.0220  -13.1300   22.2220 H   0  0  0  0  0  0  0  0  0  0  0  0
  -25.3370  -15.2030   20.3800 N   0  0  0  0  0  0  0  0  0  0  0  0
  -24.5730  -15.8620   20.4680 H   0  0  0  0  0  0  0  0  0  0  0  0
  -26.1980  -15.6290   20.0560 H   0  0  0  0  0  0  0  0  0  0  0  0
  -29.3410  -20.1670   16.8860 C   0  0  0  0  0  1  0  0  0  0  0  0
  -29.9150  -20.6710   18.0870 O   0  0  0  0  0  0  0  0  0  0  0  0
  -30.2310  -21.7690   20.6870 O   0  0  0  0  0  0  0  0  0  0  0  0
  -29.1480  -22.6530   20.2620 C   0  0  0  0  0  3  0  0  0  0  0  0
  -29.4190  -24.1980   20.4740 C   0  0  0  0  0  3  0  0  0  0  0  0
  -28.2440  -25.1750   20.0810 C   0  0  0  0  0  2  0  0  0  0  0  0
  -28.4070  -26.6130   20.3320 O   0  0  0  0  0  0  0  0  0  0  0  0
  -24.6330  -31.9420   23.3420 C   0  0  0  0  0  0  0  0  0  0  0  0
  -27.2650  -27.4220   20.2790 C   0  0  0  0  0  0  0  0  0  0  0  0
  -23.4310  -30.5510   21.6890 C   0  0  0  0  0  3  0  0  0  0  0  0
  -24.8860  -29.0010   20.2740 C   0  0  0  0  0  0  0  0  0  0  0  0
  -25.9690  -30.8750   21.5180 C   0  0  0  0  0  2  0  0  0  0  0  0
  -26.0510  -29.5020   20.8680 C   0  0  0  0  0  0  0  0  0  0  0  0
  -27.2440  -28.7240   20.8600 C   0  0  0  0  0  3  0  0  0  0  0  0
  -26.0730  -26.9680   19.6650 C   0  0  0  0  0  3  0  0  0  0  0  0
  -24.8970  -27.7370   19.6640 C   0  0  0  0  0  3  0  0  0  0  0  0
  -23.6520  -29.8760   20.3100 C   0  0  0  0  0  2  0  0  0  0  0  0
  -24.6950  -31.1390   22.2390 N   0  0  0  0  0  0  0  0  0  0  0  0
  -23.5480  -32.2210   23.8710 O   0  0  0  0  0  0  0  0  0  0  0  0
  -22.7580  -29.5360   22.6430 C   0  0  0  0  0  0  0  0  0  0  0  0
  -21.4340  -29.3570   22.4990 N   0  0  0  0  0  0  0  0  0  0  0  0
  -23.4260  -28.9130   23.4730 O   0  0  0  0  0  0  0  0  0  0  0  0
  -20.9560  -29.9140   21.8060 H   0  0  0  0  0  0  0  0  0  0  0  0
  -18.0480  -28.1670   22.9540 C   0  0  0  0  0  0  0  0  0  0  0  0
  -20.6030  -28.4240   23.2610 C   0  0  0  0  0  3  0  0  0  0  0  0
  -20.7110  -26.9900   22.6900 C   0  0  0  0  0  2  0  0  0  0  0  0
  -19.6220  -26.6660   21.6610 C   0  0  0  0  0  2  0  0  0  0  0  0
  -18.2310  -26.8150   22.2860 C   0  0  0  0  0  2  0  0  0  0  0  0
  -19.1620  -28.9280   23.3970 C   0  0  0  0  0  0  0  0  0  0  0  0
  -18.9350  -30.1940   23.9820 C   0  0  0  0  0  3  0  0  0  0  0  0
  -17.6290  -30.6960   24.1280 C   0  0  0  0  0  3  0  0  0  0  0  0
  -16.5290  -29.9310   23.7000 C   0  0  0  0  0  3  0  0  0  0  0  0
  -16.7410  -28.6680   23.1190 C   0  0  0  0  0  3  0  0  0  0  0  0
  -25.9150  -32.5630   23.9720 C   0  0  0  0  0  3  0  0  0  0  0  0
  -25.6250  -33.9710   24.2750 N   0  0  0  0  0  0  0  0  0  0  0  0
  -25.9680  -35.0030   23.4930 C   0  0  0  0  0  0  0  0  0  0  0  0
  -26.6320  -34.8710   22.4620 O   0  0  0  0  0  0  0  0  0  0  0  0
  -25.0400  -34.1500   25.0780 H   0  0  0  0  0  0  0  0  0  0  0  0
  -24.2540  -36.8020   23.1150 C   0  0  0  0  0  1  0  0  0  0  0  0
  -25.4990  -36.4060   23.9240 C   0  0  0  0  0  3  0  0  0  0  0  0
  -27.6460  -37.2910   24.7190 C   0  0  0  0  0  1  0  0  0  0  0  0
  -26.5400  -37.4470   23.7780 N   0  0  0  0  0  0  0  0  0  0  0  0
  -26.1440  -38.3740   23.9050 H   0  0  0  0  0  0  0  0  0  0  0  0
  -26.4000  -31.8050   25.2690 C   0  0  1  0  0  0  0  0  0  0  0  0
  -25.2880  -31.6020   26.3240 C   0  0  0  0  0  1  0  0  0  0  0  0
  -26.9660  -30.4110   24.9070 C   0  0  0  0  0  1  0  0  0  0  0  0
  -27.5540  -32.5920   25.9350 C   0  0  0  0  0  1  0  0  0  0  0  0
  1  4  1  0
  2  5  2  0
  2  3  1  0
  3  1  2  0
  4  7  1  0
  5  6  1  0
  6 51  1  0
  6  4  2  0
  7  9  1  0
  7  8  1  0
 10  3  1  0
 10 13  1  0
 11 10  2  0
 12 11  1  0
 14 19  1  0
 15 16  1  0
 15 14  1  0
 17 16  1  0
 17 24  1  0
 17 18  1  0
 19 13  1  0
 19 18  1  0
 20 13  2  0
 21 22  2  0
 22 41  1  0
 23 22  1  0
 23 26  1  0
 24 21  1  0
 24 25  1  0
 25 23  2  0
 26 27  1  0
 27 28  2  0
 29 32  1  0
 29 28  1  0
 30 29  2  0
 31 30  1  0
 31 26  2  0
 32 33  1  0
 33 34  1  0
 34 35  2  0
 36 35  1  0
 36 40  1  0
 37 36  2  0
 38 33  2  0
 38 37  1  0
 39 38  1  0
 41 42  1  0
 42 45  1  0
 42 44  1  0
 43 41  2  0
 46 47  1  0
 46 21  1  0
 48 46  1  0
 49 50  1  0
 50  5  1  0
 52 53  2  0
 52 51  1  0
 54 55  1  0
 54 53  1  0
 56 67  2  0
 57 55  1  0
 57 62  1  0
 58 66  1  0
 58 68  1  0
 59 65  1  0
 59 61  1  0
 60 66  1  0
 61 60  1  0
 62 61  2  0
 63 57  2  0
 64 63  1  0
 64 59  2  0
 65 58  1  0
 66 56  1  0
 68 70  2  0
 69 68  1  0
 71 69  1  0
 72 81  2  0
 72 77  1  0
 73 69  1  0
 73 77  1  0
 74 73  1  0
 75 76  1  0
 75 74  1  0
 76 72  1  0
 77 78  2  0
 78 79  1  0
 80 79  2  0
 81 80  1  0
 82 56  1  0
 82 83  1  0
 82 92  1  0
 83 86  1  0
 84 88  1  0
 84 83  1  0
 85 84  2  0
 88 87  1  0
 90 91  1  0
 90 88  1  0
 90 89  1  0
 92 95  1  1
 92 93  1  0
 94 92  1  0
M  ISO  4  10 100  13 100  54 101  55 101
M  END
>  <TORSDO>  (85) 
F 23

>  <SCORE>  (85) 
-13.250

>  <name>  (85) 
84

>  <ligand_id>  (85) 
84

>  <original_smiles>  (85) 
[H]N=C(C(=O)N1C([H])([H])C([H])([H])C([H])([H])C([H])(n2nc(-c3c([H])c([H])c(Oc4c([H])c([H])c(F)c([H])c4F)c([H])c3[H])c(C(=O)N([H])[H])c2N([H])[H])C1([H])[H])c1c([H])c(OC([H])([H])[H])c(OC([H])([H])C([H])([H])C([H])([H])Oc2c([H])c([H])c3c(c2[H])C([H])([H])N(C(=O)C([H])(N([H])C(=O)C([H])(N([H])C([H])([H])[H])C([H])([H])[H])C(C([H])([H])[H])(C([H])([H])[H])C([H])([H])[H])C([H])(C(=O)N([H])C2([H])c4c([H])c([H])c([H])c([H])c4C([H])([H])C([H])([H])C2([H])[H])C3([H])[H])c(N([H])[H])c1[H]

>  <smiles>  (85) 
[H]N=C(C(=O)N1C([H])([H])C([H])([H])C([H])([H])C([H])(n2nc(-c3c([H])c([H])c(Oc4c([H])c([H])c(F)c([H])c4F)c([H])c3[H])c(C(=O)N([H])[H])c2N([H])[H])C1([H])[H])c1c([H])c(OC([H])([H])[H])c(OC([H])([H])C([H])([H])C([H])([H])Oc2c([H])c([H])c3c(c2[H])C([H])([H])N(C(=O)C([H])(N([H])C(=O)C([H])(N([H])C([H])([H])[H])C([H])([H])[H])C(C([H])([H])[H])(C([H])([H])[H])C([H])([H])[H])C([H])(C(=O)N([H])C2([H])c4c([H])c([H])c([H])c([H])c4C([H])([H])C([H])([H])C2([H])[H])C3([H])[H])c(N([H])[H])c1[H]

$$$$
85:0:0
     RDKit          3D

 95103  0  0  1  0  0  0  0  0999 V2000
  -28.9230  -22.1670   19.9130 C   0  0  0  0  0  0  0  0  0  0  0  0
  -29.2000  -21.0430   19.2400 N   0  0  0  0  0  0  0  0  0  0  0  0
  -29.4340  -22.4410   21.0010 O   0  0  0  0  0  0  0  0  0  0  0  0
  -28.7410  -20.9110   18.3460 H   0  0  0  0  0  0  0  0  0  0  0  0
  -32.5330  -19.4170   19.3330 C   0  0  0  0  0  3  0  0  0  0  0  0
  -31.5260  -20.3660   19.1060 C   0  0  0  0  0  3  0  0  0  0  0  0
  -29.9230  -18.9260   20.2490 C   0  0  0  0  0  3  0  0  0  0  0  0
  -30.9180  -17.9360   20.4370 C   0  0  0  0  0  0  0  0  0  0  0  0
  -32.2480  -18.2000   19.9860 C   0  0  0  0  0  0  0  0  0  0  0  0
  -30.2210  -20.1280   19.5650 C   0  0  0  0  0  0  0  0  0  0  0  0
  -33.3980  -17.2100   20.1060 C   0  0  0  0  0  1  0  0  0  0  0  0
  -30.6950  -14.4770   20.1000 C   0  0  0  0  0  0  0  0  0  0  0  0
  -30.2740  -12.2810   19.0710 C   0  0  0  0  0  2  0  0  0  0  0  0
  -29.3140  -12.4240   17.8710 C   0  0  0  0  0  2  0  0  0  0  0  0
  -27.8400  -12.3860   18.3330 C   0  0  0  0  0  2  0  0  0  0  0  0
  -27.5450  -13.2360   19.6030 C   0  0  0  0  0  3  0  0  0  0  0  0
  -28.6500  -13.1040   20.6780 C   0  0  0  0  0  2  0  0  0  0  0  0
  -29.9480  -13.3390   20.0370 N   0  0  0  0  0  0  0  0  0  0  0  0
  -31.8700  -14.5060   19.7330 O   0  0  0  0  0  0  0  0  0  0  0  0
  -30.5230  -16.5960   21.0340 C   0  0  0  0  0  0  0  0  0  0  0  0
  -29.4440  -16.0880   18.9000 C   0  0  0  0  0  1  0  0  0  0  0  0
  -30.0230  -15.6500   20.1890 N   0  0  0  0  0  0  0  0  0  0  0  0
  -30.7450  -16.3930   22.2360 O   0  0  0  0  0  0  0  0  0  0  0  0
  -25.1920  -13.8370   20.4390 C   0  0  0  0  0  0  0  0  0  0  0  0
  -24.1360  -13.0640   20.8360 C   0  0  0  0  0  0  0  0  0  0  0  0
  -24.5860  -11.7100   20.7640 C   0  0  0  0  0  0  0  0  0  0  0  0
  -26.2190  -12.9520   20.1480 N   0  0  0  0  0  0  0  0  0  0  0  0
  -25.8630  -11.6670   20.4040 N   0  0  0  0  0  0  0  0  0  0  0  0
  -23.8580  -10.4510   20.9630 C   0  0  0  0  0  0  0  0  0  0  0  0
  -24.2950   -9.4880   21.9010 C   0  0  0  0  0  3  0  0  0  0  0  0
  -23.5720   -8.2920   22.0880 C   0  0  0  0  0  3  0  0  0  0  0  0
  -22.3960   -8.0490   21.3380 C   0  0  0  0  0  0  0  0  0  0  0  0
  -21.9780   -8.9990   20.3880 C   0  0  0  0  0  3  0  0  0  0  0  0
  -22.7040  -10.1870   20.1980 C   0  0  0  0  0  3  0  0  0  0  0  0
  -21.6440   -6.9040   21.4320 O   0  0  0  0  0  0  0  0  0  0  0  0
  -21.5680   -6.1820   22.5970 C   0  0  0  0  0  0  0  0  0  0  0  0
  -21.0920   -6.7540   23.7980 C   0  0  0  0  0  3  0  0  0  0  0  0
  -20.9690   -5.9610   24.9550 C   0  0  0  0  0  3  0  0  0  0  0  0
  -21.3070   -4.5940   24.9130 C   0  0  0  0  0  0  0  0  0  0  0  0
  -21.7720   -4.0220   23.7170 C   0  0  0  0  0  3  0  0  0  0  0  0
  -21.8990   -4.8130   22.5620 C   0  0  0  0  0  0  0  0  0  0  0  0
  -22.3290   -4.2510   21.4070 F   0  0  0  0  0  0  0  0  0  0  0  0
  -21.1790   -3.8290   26.0220 F   0  0  0  0  0  0  0  0  0  0  0  0
  -22.7540  -13.5410   21.1780 C   0  0  0  0  0  0  0  0  0  0  0  0
  -22.0610  -12.8230   22.0530 N   0  0  0  0  0  0  0  0  0  0  0  0
  -22.2980  -14.5810   20.7020 O   0  0  0  0  0  0  0  0  0  0  0  0
  -22.4510  -11.9830   22.4570 H   0  0  0  0  0  0  0  0  0  0  0  0
  -21.1290  -13.1100   22.3180 H   0  0  0  0  0  0  0  0  0  0  0  0
  -25.3670  -15.2080   20.2760 N   0  0  0  0  0  0  0  0  0  0  0  0
  -24.6230  -15.8850   20.3970 H   0  0  0  0  0  0  0  0  0  0  0  0
  -26.2300  -15.6250   19.9530 H   0  0  0  0  0  0  0  0  0  0  0  0
  -27.8970  -23.1090   19.2670 C   0  0  0  0  0  2  0  0  0  0  0  0
  -28.3710  -24.5810   19.1570 C   0  0  0  0  0  2  0  0  0  0  0  0
  -28.2520  -25.3930   20.4610 C   0  0  0  0  0  2  0  0  0  0  0  0
  -28.3950  -26.8000   20.2190 O   0  0  0  0  0  0  0  0  0  0  0  0
  -24.5850  -31.9640   23.2630 C   0  0  0  0  0  0  0  0  0  0  0  0
  -27.2250  -27.5240   20.1950 C   0  0  0  0  0  0  0  0  0  0  0  0
  -23.3730  -30.5410   21.6440 C   0  0  0  0  0  3  0  0  0  0  0  0
  -24.8210  -29.0050   20.2140 C   0  0  0  0  0  0  0  0  0  0  0  0
  -25.8930  -30.9150   21.4180 C   0  0  0  0  0  2  0  0  0  0  0  0
  -25.9790  -29.5430   20.7880 C   0  0  0  0  0  0  0  0  0  0  0  0
  -27.1860  -28.8100   20.7760 C   0  0  0  0  0  3  0  0  0  0  0  0
  -26.0500  -27.0030   19.6120 C   0  0  0  0  0  3  0  0  0  0  0  0
  -24.8510  -27.7360   19.6180 C   0  0  0  0  0  3  0  0  0  0  0  0
  -23.5680  -29.8460   20.2720 C   0  0  0  0  0  2  0  0  0  0  0  0
  -24.6370  -31.1540   22.1690 N   0  0  0  0  0  0  0  0  0  0  0  0
  -23.5070  -32.2320   23.8100 O   0  0  0  0  0  0  0  0  0  0  0  0
  -22.7360  -29.5230   22.6200 C   0  0  0  0  0  0  0  0  0  0  0  0
  -21.4140  -29.3150   22.4900 N   0  0  0  0  0  0  0  0  0  0  0  0
  -23.4260  -28.9260   23.4490 O   0  0  0  0  0  0  0  0  0  0  0  0
  -20.9160  -29.8570   21.7990 H   0  0  0  0  0  0  0  0  0  0  0  0
  -18.0650  -28.0530   22.9700 C   0  0  0  0  0  0  0  0  0  0  0  0
  -20.6110  -28.3740   23.2670 C   0  0  0  0  0  3  0  0  0  0  0  0
  -20.7560  -26.9360   22.7180 C   0  0  0  0  0  2  0  0  0  0  0  0
  -19.6750  -26.5650   21.6990 C   0  0  0  0  0  2  0  0  0  0  0  0
  -18.2800  -26.6960   22.3230 C   0  0  0  0  0  2  0  0  0  0  0  0
  -19.1610  -28.8500   23.3970 C   0  0  0  0  0  0  0  0  0  0  0  0
  -18.9070  -30.1190   23.9580 C   0  0  0  0  0  3  0  0  0  0  0  0
  -17.5910  -30.5960   24.0960 C   0  0  0  0  0  3  0  0  0  0  0  0
  -16.5070  -29.7990   23.6880 C   0  0  0  0  0  3  0  0  0  0  0  0
  -16.7460  -28.5290   23.1310 C   0  0  0  0  0  3  0  0  0  0  0  0
  -25.8730  -32.6090   23.8670 C   0  0  0  0  0  3  0  0  0  0  0  0
  -26.4090  -31.8570   25.1460 C   0  0  1  0  0  0  0  0  0  0  0  0
  -25.3230  -31.6070   26.2210 C   0  0  0  0  0  1  0  0  0  0  0  0
  -27.0020  -30.4850   24.7490 C   0  0  0  0  0  1  0  0  0  0  0  0
  -27.5500  -32.6740   25.7970 C   0  0  0  0  0  1  0  0  0  0  0  0
  -25.5550  -34.0070   24.1890 N   0  0  0  0  0  0  0  0  0  0  0  0
  -25.8840  -35.0620   23.4290 C   0  0  0  0  0  0  0  0  0  0  0  0
  -26.5580  -34.9600   22.4010 O   0  0  0  0  0  0  0  0  0  0  0  0
  -24.9600  -34.1650   24.9890 H   0  0  0  0  0  0  0  0  0  0  0  0
  -24.1520  -36.8520   23.0610 C   0  0  0  0  0  1  0  0  0  0  0  0
  -25.3880  -36.4500   23.8830 C   0  0  0  0  0  3  0  0  0  0  0  0
  -27.5070  -37.3390   24.7450 C   0  0  0  0  0  1  0  0  0  0  0  0
  -26.4190  -37.5080   23.7830 N   0  0  0  0  0  0  0  0  0  0  0  0
  -26.0070  -38.4260   23.9300 H   0  0  0  0  0  0  0  0  0  0  0  0
  1  3  2  0
  2 10  1  0
  2  1  1  0
  4  2  1  0
  5  9  1  0
  6  5  2  0
  6 10  1  0
  7  8  1  0
  8 20  1  0
  9 11  1  0
  9  8  2  0
 10  7  2  0
 12 22  1  0
 13 18  1  0
 14 15  1  0
 14 13  1  0
 16 15  1  0
 16 27  1  0
 16 17  1  0
 18 12  1  0
 18 17  1  0
 19 12  2  0
 20 23  2  0
 21 22  1  0
 22 20  1  0
 24 25  2  0
 25 44  1  0
 26 25  1  0
 26 29  1  0
 27 28  1  0
 27 24  1  0
 28 26  2  0
 29 30  1  0
 30 31  2  0
 32 35  1  0
 32 31  1  0
 33 32  2  0
 34 33  1  0
 34 29  2  0
 35 36  1  0
 36 37  1  0
 37 38  2  0
 39 38  1  0
 39 43  1  0
 40 39  2  0
 41 36  2  0
 41 40  1  0
 42 41  1  0
 44 45  1  0
 45 48  1  0
 45 47  1  0
 46 44  2  0
 49 50  1  0
 49 24  1  0
 51 49  1  0
 52  1  1  0
 53 52  1  0
 53 54  1  0
 55 54  1  0
 56 67  2  0
 57 55  1  0
 57 62  1  0
 58 66  1  0
 58 68  1  0
 59 65  1  0
 59 61  1  0
 60 66  1  0
 61 60  1  0
 62 61  2  0
 63 64  1  0
 63 57  2  0
 64 59  2  0
 65 58  1  0
 66 56  1  0
 68 70  2  0
 69 68  1  0
 71 69  1  0
 72 81  2  0
 72 77  1  0
 73 69  1  0
 73 77  1  0
 74 73  1  0
 75 76  1  0
 75 74  1  0
 76 72  1  0
 77 78  2  0
 78 79  1  0
 80 79  2  0
 81 80  1  0
 82 56  1  0
 82 87  1  0
 82 83  1  0
 83 86  1  1
 83 84  1  0
 85 83  1  0
 87 90  1  0
 88 92  1  0
 88 87  1  0
 89 88  2  0
 92 91  1  0
 94 92  1  0
 94 95  1  0
 94 93  1  0
M  ISO  4  12 100  22 100  54 101  55 101
M  END
>  <TORSDO>  (86) 
F 20

>  <SCORE>  (86) 
-13.706

>  <name>  (86) 
85

>  <ligand_id>  (86) 
85

>  <original_smiles>  (86) 
[H]c1c([H])c([H])c2c(c1[H])C([H])([H])C([H])([H])C([H])([H])C2([H])N([H])C(=O)C1([H])N(C(=O)C([H])(N([H])C(=O)C([H])(N([H])C([H])([H])[H])C([H])([H])[H])C(C([H])([H])[H])(C([H])([H])[H])C([H])([H])[H])C([H])([H])c2c([H])c(OC([H])([H])C([H])([H])C([H])([H])C(=O)N([H])c3c([H])c([H])c(C([H])([H])[H])c(C(=O)N(C(=O)N4C([H])([H])C([H])([H])C([H])([H])C([H])(n5nc(-c6c([H])c([H])c(Oc7c([H])c([H])c(F)c([H])c7F)c([H])c6[H])c(C(=O)N([H])[H])c5N([H])[H])C4([H])[H])C([H])([H])[H])c3[H])c([H])c([H])c2C1([H])[H]

>  <smiles>  (86) 
[H]c1c([H])c([H])c2c(c1[H])C([H])([H])C([H])([H])C([H])([H])C2([H])N([H])C(=O)C1([H])N(C(=O)C([H])(N([H])C(=O)C([H])(N([H])C([H])([H])[H])C([H])([H])[H])C(C([H])([H])[H])(C([H])([H])[H])C([H])([H])[H])C([H])([H])c2c([H])c(OC([H])([H])C([H])([H])C([H])([H])C(=O)N([H])c3c([H])c([H])c(C([H])([H])[H])c(C(=O)N(C(=O)N4C([H])([H])C([H])([H])C([H])([H])C([H])(n5nc(-c6c([H])c([H])c(Oc7c([H])c([H])c(F)c([H])c7F)c([H])c6[H])c(C(=O)N([H])[H])c5N([H])[H])C4([H])[H])C([H])([H])[H])c3[H])c([H])c([H])c2C1([H])[H]

$$$$
86:0:0
     RDKit          3D

 94102  0  0  1  0  0  0  0  0999 V2000
  -28.4570  -17.7100   19.9030 C   0  0  0  0  0  3  0  0  0  0  0  0
  -30.4410  -18.1520   21.1430 C   0  0  0  0  0  3  0  0  0  0  0  0
  -29.6470  -17.1880   20.4640 C   0  0  0  0  0  0  0  0  0  0  0  0
  -28.1600  -19.1080   19.9270 C   0  0  0  0  0  0  0  0  0  0  0  0
  -29.0610  -20.0100   20.5540 C   0  0  0  0  0  0  0  0  0  0  0  0
  -30.1620  -19.4990   21.1860 N   0  0  0  0  0  0  0  0  0  0  0  0
  -30.7400  -14.8450   20.7240 C   0  0  0  0  0  0  0  0  0  0  0  0
  -30.5990  -12.5380   19.8060 C   0  0  0  0  0  2  0  0  0  0  0  0
  -29.7210  -12.5000   18.5320 C   0  0  0  0  0  2  0  0  0  0  0  0
  -28.2250  -12.4070   18.8800 C   0  0  0  0  0  2  0  0  0  0  0  0
  -27.7830  -13.3480   20.0320 C   0  0  0  0  0  3  0  0  0  0  0  0
  -28.7780  -13.3180   21.2100 C   0  0  0  0  0  2  0  0  0  0  0  0
  -30.1030  -13.6310   20.6650 N   0  0  0  0  0  0  0  0  0  0  0  0
  -31.9710  -14.8980   20.7670 O   0  0  0  0  0  0  0  0  0  0  0  0
  -30.1030  -15.8600   20.0210 N   0  0  0  0  0  0  0  0  0  0  0  0
  -25.3490  -13.9410   20.5970 C   0  0  0  0  0  0  0  0  0  0  0  0
  -24.2650  -13.1670   20.9040 C   0  0  0  0  0  0  0  0  0  0  0  0
  -24.7390  -11.8190   20.9390 C   0  0  0  0  0  0  0  0  0  0  0  0
  -26.4130  -13.0660   20.4540 N   0  0  0  0  0  0  0  0  0  0  0  0
  -26.0480  -11.7880   20.7310 N   0  0  0  0  0  0  0  0  0  0  0  0
  -24.0120  -10.5540   21.1040 C   0  0  0  0  0  0  0  0  0  0  0  0
  -24.3910   -9.6070   22.0800 C   0  0  0  0  0  3  0  0  0  0  0  0
  -23.6640   -8.4070   22.2320 C   0  0  0  0  0  3  0  0  0  0  0  0
  -22.5450   -8.1460   21.4070 C   0  0  0  0  0  0  0  0  0  0  0  0
  -22.1870   -9.0810   20.4200 C   0  0  0  0  0  3  0  0  0  0  0  0
  -22.9140  -10.2730   20.2670 C   0  0  0  0  0  3  0  0  0  0  0  0
  -21.7950   -6.9960   21.4660 O   0  0  0  0  0  0  0  0  0  0  0  0
  -21.6810   -6.2690   22.6240 C   0  0  0  0  0  0  0  0  0  0  0  0
  -21.1500   -6.8310   23.8060 C   0  0  0  0  0  3  0  0  0  0  0  0
  -20.9870   -6.0290   24.9550 C   0  0  0  0  0  3  0  0  0  0  0  0
  -21.3440   -4.6690   24.9200 C   0  0  0  0  0  0  0  0  0  0  0  0
  -21.8680   -4.1070   23.7430 C   0  0  0  0  0  3  0  0  0  0  0  0
  -22.0330   -4.9050   22.5970 C   0  0  0  0  0  0  0  0  0  0  0  0
  -22.5180   -4.3540   21.4580 F   0  0  0  0  0  0  0  0  0  0  0  0
  -21.1800   -3.8960   26.0200 F   0  0  0  0  0  0  0  0  0  0  0  0
  -22.8470  -13.6370   21.0590 C   0  0  0  0  0  0  0  0  0  0  0  0
  -22.0680  -12.9630   21.8980 N   0  0  0  0  0  0  0  0  0  0  0  0
  -22.4370  -14.6380   20.4730 O   0  0  0  0  0  0  0  0  0  0  0  0
  -22.4110  -12.1550   22.3950 H   0  0  0  0  0  0  0  0  0  0  0  0
  -21.1150  -13.2610   22.0460 H   0  0  0  0  0  0  0  0  0  0  0  0
  -25.5180  -15.3080   20.4060 N   0  0  0  0  0  0  0  0  0  0  0  0
  -24.7480  -15.9630   20.4840 H   0  0  0  0  0  0  0  0  0  0  0  0
  -26.4060  -15.7450   20.2150 H   0  0  0  0  0  0  0  0  0  0  0  0
  -31.1950  -17.0640   18.0350 C   0  0  0  0  0  1  0  0  0  0  0  0
  -30.4080  -15.8440   18.5650 C   0  0  0  0  0  2  0  0  0  0  0  0
  -29.1440  -22.6170   20.8640 C   0  0  0  0  0  0  0  0  0  0  0  0
  -28.7290  -21.4220   20.3360 N   0  0  0  0  0  0  0  0  0  0  0  0
  -29.8610  -22.6740   21.8660 O   0  0  0  0  0  0  0  0  0  0  0  0
  -28.0350  -21.5210   19.6080 H   0  0  0  0  0  0  0  0  0  0  0  0
  -28.7050  -23.9750   20.1610 C   0  0  0  0  0  2  0  0  0  0  0  0
  -28.3860  -25.2710   21.0380 C   0  0  0  0  0  2  0  0  0  0  0  0
  -28.4880  -26.6230   20.4360 O   0  0  0  0  0  0  0  0  0  0  0  0
  -24.5960  -31.9780   23.3150 C   0  0  0  0  0  0  0  0  0  0  0  0
  -27.3490  -27.4320   20.3970 C   0  0  0  0  0  0  0  0  0  0  0  0
  -23.4550  -30.5460   21.6570 C   0  0  0  0  0  3  0  0  0  0  0  0
  -24.9630  -28.9940   20.2930 C   0  0  0  0  0  0  0  0  0  0  0  0
  -25.9900  -30.9020   21.5350 C   0  0  0  0  0  2  0  0  0  0  0  0
  -26.1070  -29.5170   20.9110 C   0  0  0  0  0  0  0  0  0  0  0  0
  -27.3060  -28.7490   20.9460 C   0  0  0  0  0  3  0  0  0  0  0  0
  -26.1860  -26.9490   19.7630 C   0  0  0  0  0  3  0  0  0  0  0  0
  -25.0030  -27.7160   19.7090 C   0  0  0  0  0  3  0  0  0  0  0  0
  -23.7140  -29.8530   20.2920 C   0  0  0  0  0  2  0  0  0  0  0  0
  -24.6970  -31.1600   22.2260 N   0  0  0  0  0  0  0  0  0  0  0  0
  -23.4960  -32.2480   23.8180 O   0  0  0  0  0  0  0  0  0  0  0  0
  -22.7780  -29.5350   22.6110 C   0  0  0  0  0  0  0  0  0  0  0  0
  -21.4560  -29.3530   22.4610 N   0  0  0  0  0  0  0  0  0  0  0  0
  -23.4430  -28.9140   23.4450 O   0  0  0  0  0  0  0  0  0  0  0  0
  -20.9790  -29.9060   21.7620 H   0  0  0  0  0  0  0  0  0  0  0  0
  -18.0640  -28.1870   22.9370 C   0  0  0  0  0  0  0  0  0  0  0  0
  -20.6240  -28.4180   23.2210 C   0  0  0  0  0  3  0  0  0  0  0  0
  -20.7140  -26.9900   22.6330 C   0  0  0  0  0  2  0  0  0  0  0  0
  -19.6130  -26.6880   21.6110 C   0  0  0  0  0  2  0  0  0  0  0  0
  -18.2300  -26.8420   22.2500 C   0  0  0  0  0  2  0  0  0  0  0  0
  -19.1890  -28.9340   23.3780 C   0  0  0  0  0  0  0  0  0  0  0  0
  -18.9810  -30.1940   23.9800 C   0  0  0  0  0  3  0  0  0  0  0  0
  -17.6800  -30.7080   24.1440 C   0  0  0  0  0  3  0  0  0  0  0  0
  -16.5700  -29.9580   23.7200 C   0  0  0  0  0  3  0  0  0  0  0  0
  -16.7630  -28.6990   23.1220 C   0  0  0  0  0  3  0  0  0  0  0  0
  -25.8550  -32.6310   23.9660 C   0  0  0  0  0  3  0  0  0  0  0  0
  -25.5330  -34.0390   24.2410 N   0  0  0  0  0  0  0  0  0  0  0  0
  -25.8970  -35.0700   23.4660 C   0  0  0  0  0  0  0  0  0  0  0  0
  -26.6090  -34.9360   22.4670 O   0  0  0  0  0  0  0  0  0  0  0  0
  -24.9060  -34.2170   25.0130 H   0  0  0  0  0  0  0  0  0  0  0  0
  -24.1950  -36.8570   22.9800 C   0  0  0  0  0  1  0  0  0  0  0  0
  -25.3930  -36.4710   23.8630 C   0  0  0  0  0  3  0  0  0  0  0  0
  -27.4830  -37.3780   24.7810 C   0  0  0  0  0  1  0  0  0  0  0  0
  -26.4340  -37.5190   23.7730 N   0  0  0  0  0  0  0  0  0  0  0  0
  -26.0230  -38.4430   23.8690 H   0  0  0  0  0  0  0  0  0  0  0  0
  -26.3230  -31.9020   25.2840 C   0  0  1  0  0  0  0  0  0  0  0  0
  -25.1890  -31.6880   26.3130 C   0  0  0  0  0  1  0  0  0  0  0  0
  -26.9290  -30.5170   24.9560 C   0  0  0  0  0  1  0  0  0  0  0  0
  -27.4420  -32.7210   25.9690 C   0  0  0  0  0  1  0  0  0  0  0  0
  -26.0670  -18.7830   18.7700 C   0  0  0  0  0  1  0  0  0  0  0  0
  -27.0500  -19.6600   19.3110 O   0  0  0  0  0  0  0  0  0  0  0  0
  1  4  2  0
  1  3  1  0
  2  6  1  0
  3  2  2  0
  4  5  1  0
  5  6  2  0
  7 14  2  0
  8 13  1  0
  9 10  1  0
  9  8  1  0
 11 10  1  0
 11 19  1  0
 11 12  1  0
 13  7  1  0
 13 12  1  0
 15  3  1  0
 15  7  1  0
 16 17  2  0
 17 18  1  0
 17 36  1  0
 18 21  1  0
 19 16  1  0
 19 20  1  0
 20 18  2  0
 21 22  1  0
 22 23  2  0
 24 27  1  0
 24 23  1  0
 25 24  2  0
 26 25  1  0
 26 21  2  0
 27 28  1  0
 28 29  1  0
 29 30  2  0
 31 30  1  0
 31 35  1  0
 32 31  2  0
 33 28  2  0
 33 32  1  0
 34 33  1  0
 36 37  1  0
 37 40  1  0
 37 39  1  0
 38 36  2  0
 41 42  1  0
 41 16  1  0
 43 41  1  0
 44 45  1  0
 45 15  1  0
 46 48  2  0
 47  5  1  0
 47 46  1  0
 49 47  1  0
 50 46  1  0
 50 51  1  0
 52 51  1  0
 53 64  2  0
 54 52  1  0
 54 59  1  0
 55 63  1  0
 55 65  1  0
 56 58  1  0
 57 63  1  0
 58 59  2  0
 58 57  1  0
 60 54  2  0
 61 60  1  0
 61 56  2  0
 62 56  1  0
 62 55  1  0
 63 53  1  0
 65 67  2  0
 66 65  1  0
 68 66  1  0
 69 78  2  0
 69 74  1  0
 70 66  1  0
 70 74  1  0
 71 70  1  0
 72 73  1  0
 72 71  1  0
 73 69  1  0
 74 75  2  0
 75 76  1  0
 77 76  2  0
 78 77  1  0
 79 53  1  0
 79 80  1  0
 79 89  1  0
 80 83  1  0
 81 85  1  0
 81 80  1  0
 82 81  2  0
 85 84  1  0
 87 85  1  0
 87 88  1  0
 87 86  1  0
 89 92  1  1
 89 90  1  0
 91 89  1  0
 93 94  1  0
 94  4  1  0
M  ISO  4   7 100  15 100  51 101  52 101
M  END
>  <TORSDO>  (87) 
F 21

>  <SCORE>  (87) 
-12.875

>  <name>  (87) 
86

>  <ligand_id>  (87) 
86

>  <original_smiles>  (87) 
[H]c1nc(N([H])C(=O)C([H])([H])C([H])([H])Oc2c([H])c([H])c3c(c2[H])C([H])([H])N(C(=O)C([H])(N([H])C(=O)C([H])(N([H])C([H])([H])[H])C([H])([H])[H])C(C([H])([H])[H])(C([H])([H])[H])C([H])([H])[H])C([H])(C(=O)N([H])C2([H])c4c([H])c([H])c([H])c([H])c4C([H])([H])C([H])([H])C2([H])[H])C3([H])[H])c(OC([H])([H])[H])c([H])c1N(C(=O)N1C([H])([H])C([H])([H])C([H])([H])C([H])(n2nc(-c3c([H])c([H])c(Oc4c([H])c([H])c(F)c([H])c4F)c([H])c3[H])c(C(=O)N([H])[H])c2N([H])[H])C1([H])[H])C([H])([H])C([H])([H])[H]

>  <smiles>  (87) 
[H]c1nc(N([H])C(=O)C([H])([H])C([H])([H])Oc2c([H])c([H])c3c(c2[H])C([H])([H])N(C(=O)C([H])(N([H])C(=O)C([H])(N([H])C([H])([H])[H])C([H])([H])[H])C(C([H])([H])[H])(C([H])([H])[H])C([H])([H])[H])C([H])(C(=O)N([H])C2([H])c4c([H])c([H])c([H])c([H])c4C([H])([H])C([H])([H])C2([H])[H])C3([H])[H])c(OC([H])([H])[H])c([H])c1N(C(=O)N1C([H])([H])C([H])([H])C([H])([H])C([H])(n2nc(-c3c([H])c([H])c(Oc4c([H])c([H])c(F)c([H])c4F)c([H])c3[H])c(C(=O)N([H])[H])c2N([H])[H])C1([H])[H])C([H])([H])C([H])([H])[H]

$$$$
87:0:0
     RDKit          3D

 97105  0  0  1  0  0  0  0  0999 V2000
  -31.1480  -17.9400   19.8090 C   0  0  0  0  0  3  0  0  0  0  0  0
  -28.7470  -19.3390   20.0940 C   0  0  0  0  0  3  0  0  0  0  0  0
  -30.0310  -17.1730   20.2420 C   0  0  0  0  0  0  0  0  0  0  0  0
  -31.0770  -19.3420   19.5490 C   0  0  0  0  0  0  0  0  0  0  0  0
  -28.8090  -17.9340   20.3510 C   0  0  0  0  0  0  0  0  0  0  0  0
  -29.8810  -20.0920   19.7030 C   0  0  0  0  0  0  0  0  0  0  0  0
  -32.2270  -20.0200   19.1490 N   0  0  0  0  0  0  0  0  0  0  0  0
  -32.9770  -19.5040   18.6980 H   0  0  0  0  0  0  0  0  0  0  0  0
  -32.1010  -20.9560   18.7730 H   0  0  0  0  0  0  0  0  0  0  0  0
  -27.6020  -17.3430   20.7410 N   0  0  0  0  0  0  0  0  0  0  0  0
  -26.7270  -17.8360   20.5900 H   0  0  0  0  0  0  0  0  0  0  0  0
  -27.4980  -16.3320   20.7070 H   0  0  0  0  0  0  0  0  0  0  0  0
  -30.1560  -15.6870   20.6950 C   0  0  0  0  0  3  0  0  0  0  0  0
  -29.9000  -15.4000   21.9050 N   0  0  0  0  0  2  0  0  0  0  0  0
  -29.6010  -16.2370   22.3950 H   0  0  0  0  0  0  0  0  0  0  0  0
  -30.6520  -14.5450   19.7300 C   0  0  0  0  0  0  0  0  0  0  0  0
  -30.3090  -12.3070   18.6790 C   0  0  0  0  0  2  0  0  0  0  0  0
  -29.2490  -12.4130   17.5570 C   0  0  0  0  0  2  0  0  0  0  0  0
  -27.8280  -12.2440   18.1270 C   0  0  0  0  0  2  0  0  0  0  0  0
  -27.5900  -13.1190   19.3840 C   0  0  0  0  0  3  0  0  0  0  0  0
  -28.7470  -12.9570   20.3920 C   0  0  0  0  0  2  0  0  0  0  0  0
  -30.0010  -13.3280   19.7100 N   0  0  0  0  0  0  0  0  0  0  0  0
  -31.6580  -14.7300   19.0370 O   0  0  0  0  0  0  0  0  0  0  0  0
  -25.3040  -13.7290   20.3870 C   0  0  0  0  0  0  0  0  0  0  0  0
  -24.2710  -12.9610   20.8470 C   0  0  0  0  0  0  0  0  0  0  0  0
  -24.6980  -11.6030   20.7140 C   0  0  0  0  0  0  0  0  0  0  0  0
  -26.2960  -12.8420   20.0010 N   0  0  0  0  0  0  0  0  0  0  0  0
  -25.9430  -11.5550   20.2570 N   0  0  0  0  0  0  0  0  0  0  0  0
  -23.9740  -10.3470   20.9440 C   0  0  0  0  0  0  0  0  0  0  0  0
  -24.4370   -9.3840   21.8680 C   0  0  0  0  0  3  0  0  0  0  0  0
  -23.7140   -8.1920   22.0830 C   0  0  0  0  0  3  0  0  0  0  0  0
  -22.5120   -7.9530   21.3750 C   0  0  0  0  0  0  0  0  0  0  0  0
  -22.0680   -8.9040   20.4390 C   0  0  0  0  0  3  0  0  0  0  0  0
  -22.7920  -10.0880   20.2220 C   0  0  0  0  0  3  0  0  0  0  0  0
  -21.7570   -6.8120   21.4990 O   0  0  0  0  0  0  0  0  0  0  0  0
  -21.6880   -6.1200   22.6820 C   0  0  0  0  0  0  0  0  0  0  0  0
  -21.2120   -6.7190   23.8690 C   0  0  0  0  0  3  0  0  0  0  0  0
  -21.0930   -5.9510   25.0450 C   0  0  0  0  0  3  0  0  0  0  0  0
  -21.4390   -4.5860   25.0340 C   0  0  0  0  0  0  0  0  0  0  0  0
  -21.9090   -3.9880   23.8510 C   0  0  0  0  0  3  0  0  0  0  0  0
  -22.0310   -4.7530   22.6780 C   0  0  0  0  0  0  0  0  0  0  0  0
  -22.4630   -4.1660   21.5360 F   0  0  0  0  0  0  0  0  0  0  0  0
  -21.3180   -3.8460   26.1620 F   0  0  0  0  0  0  0  0  0  0  0  0
  -22.9240  -13.4490   21.2950 C   0  0  0  0  0  0  0  0  0  0  0  0
  -22.2880  -12.7350   22.2170 N   0  0  0  0  0  0  0  0  0  0  0  0
  -22.4470  -14.4980   20.8630 O   0  0  0  0  0  0  0  0  0  0  0  0
  -22.6880  -11.8840   22.5850 H   0  0  0  0  0  0  0  0  0  0  0  0
  -21.3900  -13.0420   22.5580 H   0  0  0  0  0  0  0  0  0  0  0  0
  -25.4770  -15.1020   20.2450 N   0  0  0  0  0  0  0  0  0  0  0  0
  -24.7450  -15.7660   20.4740 H   0  0  0  0  0  0  0  0  0  0  0  0
  -26.3020  -15.5440   19.8570 H   0  0  0  0  0  0  0  0  0  0  0  0
  -29.9060  -21.4860   19.4610 O   0  0  0  0  0  0  0  0  0  0  0  0
  -28.8070  -22.3770   19.8480 C   0  0  0  0  0  2  0  0  0  0  0  0
  -29.0830  -23.9120   19.5640 C   0  0  0  0  0  0  0  0  0  0  0  0
  -30.1250  -24.2670   18.9960 O   0  0  0  0  0  0  0  0  0  0  0  0
  -28.0180  -24.9860   20.0080 C   0  0  0  0  0  2  0  0  0  0  0  0
  -28.2960  -26.4060   19.6690 O   0  0  0  0  0  0  0  0  0  0  0  0
  -24.6740  -31.6390   23.0770 C   0  0  0  0  0  0  0  0  0  0  0  0
  -27.1900  -27.2660   19.7070 C   0  0  0  0  0  0  0  0  0  0  0  0
  -23.4270  -30.3520   21.3780 C   0  0  0  0  0  3  0  0  0  0  0  0
  -24.8400  -28.8820   19.8340 C   0  0  0  0  0  0  0  0  0  0  0  0
  -25.9640  -30.6660   21.1670 C   0  0  0  0  0  2  0  0  0  0  0  0
  -26.0220  -29.3300   20.4370 C   0  0  0  0  0  0  0  0  0  0  0  0
  -27.2040  -28.5340   20.3640 C   0  0  0  0  0  3  0  0  0  0  0  0
  -25.9910  -26.8760   19.0730 C   0  0  0  0  0  3  0  0  0  0  0  0
  -24.8240  -27.6610   19.1420 C   0  0  0  0  0  3  0  0  0  0  0  0
  -23.6100  -29.7590   19.9570 C   0  0  0  0  0  2  0  0  0  0  0  0
  -24.7090  -30.8990   21.9310 N   0  0  0  0  0  0  0  0  0  0  0  0
  -23.6020  -31.8930   23.6470 O   0  0  0  0  0  0  0  0  0  0  0  0
  -22.7730  -29.2830   22.2860 C   0  0  0  0  0  0  0  0  0  0  0  0
  -21.4410  -29.1420   22.1890 N   0  0  0  0  0  0  0  0  0  0  0  0
  -23.4630  -28.5870   23.0350 O   0  0  0  0  0  0  0  0  0  0  0  0
  -20.9440  -29.7560   21.5590 H   0  0  0  0  0  0  0  0  0  0  0  0
  -18.0500  -28.0150   22.7520 C   0  0  0  0  0  0  0  0  0  0  0  0
  -20.6250  -28.1720   22.9200 C   0  0  0  0  0  3  0  0  0  0  0  0
  -20.6520  -26.7890   22.2290 C   0  0  0  0  0  2  0  0  0  0  0  0
  -19.4960  -26.5840   21.2450 C   0  0  0  0  0  2  0  0  0  0  0  0
  -18.1490  -26.7200   21.9620 C   0  0  0  0  0  2  0  0  0  0  0  0
  -19.2120  -28.7050   23.1870 C   0  0  0  0  0  0  0  0  0  0  0  0
  -19.0630  -29.9220   23.8860 C   0  0  0  0  0  3  0  0  0  0  0  0
  -17.7840  -30.4490   24.1500 C   0  0  0  0  0  3  0  0  0  0  0  0
  -16.6370  -29.7530   23.7310 C   0  0  0  0  0  3  0  0  0  0  0  0
  -16.7710  -28.5360   23.0380 C   0  0  0  0  0  3  0  0  0  0  0  0
  -25.9740  -32.2220   23.7120 C   0  0  0  0  0  3  0  0  0  0  0  0
  -25.6850  -33.6010   24.1270 N   0  0  0  0  0  0  0  0  0  0  0  0
  -26.0070  -34.6920   23.4180 C   0  0  0  0  0  0  0  0  0  0  0  0
  -26.6490  -34.6420   22.3660 O   0  0  0  0  0  0  0  0  0  0  0  0
  -25.1090  -33.7140   24.9470 H   0  0  0  0  0  0  0  0  0  0  0  0
  -24.2800  -36.5120   23.2160 C   0  0  0  0  0  1  0  0  0  0  0  0
  -25.5430  -36.0560   23.9650 C   0  0  0  0  0  3  0  0  0  0  0  0
  -27.7050  -36.8840   24.7850 C   0  0  0  0  0  1  0  0  0  0  0  0
  -26.5790  -37.1090   23.8810 N   0  0  0  0  0  0  0  0  0  0  0  0
  -26.1830  -38.0200   24.0920 H   0  0  0  0  0  0  0  0  0  0  0  0
  -26.5060  -31.3730   24.9330 C   0  0  1  0  0  0  0  0  0  0  0  0
  -25.4270  -31.0820   26.0030 C   0  0  0  0  0  1  0  0  0  0  0  0
  -27.0720  -30.0160   24.4550 C   0  0  0  0  0  1  0  0  0  0  0  0
  -27.6760  -32.1200   25.6190 C   0  0  0  0  0  1  0  0  0  0  0  0
  1  3  1  0
  2  5  1  0
  3  5  2  0
  3 13  1  0
  4  6  1  0
  4  1  2  0
  5 10  1  0
  6  2  2  0
  7  4  1  0
  8  7  1  0
  9  7  1  0
 11 10  1  0
 12 10  1  0
 13 16  1  0
 13 14  1  0
 14 15  1  0
 17 22  1  0
 18 19  1  0
 18 17  1  0
 20 19  1  0
 20 27  1  0
 20 21  1  0
 22 16  1  0
 22 21  1  0
 23 16  2  0
 24 25  2  0
 25 44  1  0
 26 25  1  0
 26 29  1  0
 27 28  1  0
 27 24  1  0
 28 26  2  0
 29 30  1  0
 30 31  2  0
 32 35  1  0
 32 31  1  0
 33 32  2  0
 34 33  1  0
 34 29  2  0
 35 36  1  0
 36 37  1  0
 37 38  2  0
 39 38  1  0
 39 43  1  0
 40 39  2  0
 41 36  2  0
 41 40  1  0
 42 41  1  0
 44 45  1  0
 45 48  1  0
 45 47  1  0
 46 44  2  0
 49 24  1  0
 49 50  1  0
 51 49  1  0
 52  6  1  0
 52 53  1  0
 54 53  1  0
 54 56  1  0
 55 54  2  0
 57 59  1  0
 57 56  1  0
 58 69  2  0
 59 64  1  0
 60 68  1  0
 60 70  1  0
 61 67  1  0
 61 63  1  0
 62 68  1  0
 63 62  1  0
 64 63  2  0
 65 66  1  0
 65 59  2  0
 66 61  2  0
 67 60  1  0
 68 58  1  0
 70 72  2  0
 71 70  1  0
 73 71  1  0
 74 83  2  0
 74 79  1  0
 75 71  1  0
 75 79  1  0
 76 75  1  0
 77 78  1  0
 77 76  1  0
 78 74  1  0
 79 80  2  0
 80 81  1  0
 82 81  2  0
 83 82  1  0
 84 58  1  0
 84 85  1  0
 84 94  1  0
 85 88  1  0
 86 90  1  0
 86 85  1  0
 87 86  2  0
 90 89  1  0
 92 90  1  0
 92 93  1  0
 92 91  1  0
 94 97  1  1
 94 95  1  0
 96 94  1  0
M  ISO  4  13 100  16 100  56 101  57 101
M  END
>  <TORSDO>  (88) 
F 23

>  <SCORE>  (88) 
-12.285

>  <name>  (88) 
87

>  <ligand_id>  (88) 
87

>  <original_smiles>  (88) 
[H]N=C(C(=O)N1C([H])([H])C([H])([H])C([H])([H])C([H])(n2nc(-c3c([H])c([H])c(Oc4c([H])c([H])c(F)c([H])c4F)c([H])c3[H])c(C(=O)N([H])[H])c2N([H])[H])C1([H])[H])c1c([H])c(N([H])[H])c(OC([H])([H])C(=O)C([H])([H])Oc2c([H])c([H])c3c(c2[H])C([H])([H])N(C(=O)C([H])(N([H])C(=O)C([H])(N([H])C([H])([H])[H])C([H])([H])[H])C(C([H])([H])[H])(C([H])([H])[H])C([H])([H])[H])C([H])(C(=O)N([H])C2([H])c4c([H])c([H])c([H])c([H])c4C([H])([H])C([H])([H])C2([H])[H])C3([H])[H])c([H])c1N([H])[H]

>  <smiles>  (88) 
[H]N=C(C(=O)N1C([H])([H])C([H])([H])C([H])([H])C([H])(n2nc(-c3c([H])c([H])c(Oc4c([H])c([H])c(F)c([H])c4F)c([H])c3[H])c(C(=O)N([H])[H])c2N([H])[H])C1([H])[H])c1c([H])c(N([H])[H])c(OC([H])([H])C(=O)C([H])([H])Oc2c([H])c([H])c3c(c2[H])C([H])([H])N(C(=O)C([H])(N([H])C(=O)C([H])(N([H])C([H])([H])[H])C([H])([H])[H])C(C([H])([H])[H])(C([H])([H])[H])C([H])([H])[H])C([H])(C(=O)N([H])C2([H])c4c([H])c([H])c([H])c([H])c4C([H])([H])C([H])([H])C2([H])[H])C3([H])[H])c([H])c1N([H])[H]

$$$$
88:0:0
     RDKit          3D

 96104  0  0  1  0  0  0  0  0999 V2000
  -28.3870  -19.8490   20.3000 C   0  0  0  0  0  3  0  0  0  0  0  0
  -29.3550  -20.0110   18.0860 C   0  0  0  0  0  3  0  0  0  0  0  0
  -29.4960  -17.8750   19.3090 C   0  0  0  0  0  0  0  0  0  0  0  0
  -28.6570  -20.6130   19.1440 C   0  0  0  0  0  0  0  0  0  0  0  0
  -28.7890  -18.4910   20.3880 C   0  0  0  0  0  0  0  0  0  0  0  0
  -29.7980  -18.6670   18.1590 C   0  0  0  0  0  0  0  0  0  0  0  0
  -28.4610  -17.7980   21.5600 N   0  0  0  0  0  0  0  0  0  0  0  0
  -28.2800  -18.3230   22.4090 H   0  0  0  0  0  0  0  0  0  0  0  0
  -28.9520  -16.9230   21.7270 H   0  0  0  0  0  0  0  0  0  0  0  0
  -31.1530  -18.9510   16.1750 C   0  0  0  0  0  1  0  0  0  0  0  0
  -30.5350  -18.0980   17.1330 O   0  0  0  0  0  0  0  0  0  0  0  0
  -28.2450  -21.9480   18.9900 N   0  0  0  0  0  0  0  0  0  0  0  0
  -28.4990  -22.4050   18.1140 H   0  0  0  0  0  0  0  0  0  0  0  0
  -28.3450  -22.8690   20.1250 C   0  0  0  0  0  2  0  0  0  0  0  0
  -28.4960  -24.3360   19.6730 C   0  0  0  0  0  0  0  0  0  0  0  0
  -28.6830  -24.6150   18.4820 O   0  0  0  0  0  0  0  0  0  0  0  0
  -28.4130  -25.4170   20.7640 C   0  0  0  0  0  2  0  0  0  0  0  0
  -28.5360  -26.7480   20.2330 O   0  0  0  0  0  0  0  0  0  0  0  0
  -24.6630  -31.8830   23.2710 C   0  0  0  0  0  0  0  0  0  0  0  0
  -27.3650  -27.4700   20.2160 C   0  0  0  0  0  0  0  0  0  0  0  0
  -23.4810  -30.4710   21.6200 C   0  0  0  0  0  3  0  0  0  0  0  0
  -24.9580  -28.9470   20.2070 C   0  0  0  0  0  0  0  0  0  0  0  0
  -26.0040  -30.8560   21.4390 C   0  0  0  0  0  2  0  0  0  0  0  0
  -26.1070  -29.4860   20.8000 C   0  0  0  0  0  0  0  0  0  0  0  0
  -27.3170  -28.7570   20.7960 C   0  0  0  0  0  3  0  0  0  0  0  0
  -26.2010  -26.9400   19.6200 C   0  0  0  0  0  3  0  0  0  0  0  0
  -24.9990  -27.6730   19.6130 C   0  0  0  0  0  3  0  0  0  0  0  0
  -23.7050  -29.7920   20.2430 C   0  0  0  0  0  2  0  0  0  0  0  0
  -24.7340  -31.0840   22.1700 N   0  0  0  0  0  0  0  0  0  0  0  0
  -23.5740  -32.1470   23.8020 O   0  0  0  0  0  0  0  0  0  0  0  0
  -22.8310  -29.4450   22.5760 C   0  0  0  0  0  0  0  0  0  0  0  0
  -21.5100  -29.2490   22.4330 N   0  0  0  0  0  0  0  0  0  0  0  0
  -23.5120  -28.8270   23.3980 O   0  0  0  0  0  0  0  0  0  0  0  0
  -21.0220  -29.8000   21.7410 H   0  0  0  0  0  0  0  0  0  0  0  0
  -18.1430  -28.0240   22.8930 C   0  0  0  0  0  0  0  0  0  0  0  0
  -20.6950  -28.3050   23.1940 C   0  0  0  0  0  3  0  0  0  0  0  0
  -20.8160  -26.8750   22.6190 C   0  0  0  0  0  2  0  0  0  0  0  0
  -19.7280  -26.5420   21.5930 C   0  0  0  0  0  2  0  0  0  0  0  0
  -18.3380  -26.6770   22.2210 C   0  0  0  0  0  2  0  0  0  0  0  0
  -19.2490  -28.7950   23.3360 C   0  0  0  0  0  0  0  0  0  0  0  0
  -19.0150  -30.0580   23.9230 C   0  0  0  0  0  3  0  0  0  0  0  0
  -17.7040  -30.5510   24.0720 C   0  0  0  0  0  3  0  0  0  0  0  0
  -16.6110  -29.7760   23.6470 C   0  0  0  0  0  3  0  0  0  0  0  0
  -16.8310  -28.5150   23.0640 C   0  0  0  0  0  3  0  0  0  0  0  0
  -25.9390  -32.5240   23.9030 C   0  0  0  0  0  3  0  0  0  0  0  0
  -25.6200  -33.9210   24.2220 N   0  0  0  0  0  0  0  0  0  0  0  0
  -25.9540  -34.9690   23.4580 C   0  0  0  0  0  0  0  0  0  0  0  0
  -26.6340  -34.8640   22.4330 O   0  0  0  0  0  0  0  0  0  0  0  0
  -25.0180  -34.0770   25.0170 H   0  0  0  0  0  0  0  0  0  0  0  0
  -24.2180  -36.7490   23.0710 C   0  0  0  0  0  1  0  0  0  0  0  0
  -25.4520  -36.3580   23.9000 C   0  0  0  0  0  3  0  0  0  0  0  0
  -27.5680  -37.2640   24.7560 C   0  0  0  0  0  1  0  0  0  0  0  0
  -26.4810  -37.4160   23.7920 N   0  0  0  0  0  0  0  0  0  0  0  0
  -26.0670  -38.3360   23.9230 H   0  0  0  0  0  0  0  0  0  0  0  0
  -26.4490  -31.7590   25.1850 C   0  0  1  0  0  0  0  0  0  0  0  0
  -25.3460  -31.5090   26.2390 C   0  0  0  0  0  1  0  0  0  0  0  0
  -27.0520  -30.3880   24.7980 C   0  0  0  0  0  1  0  0  0  0  0  0
  -27.5840  -32.5670   25.8600 C   0  0  0  0  0  1  0  0  0  0  0  0
  -29.9820  -16.4480   19.2980 C   0  0  0  0  0  2  0  0  0  0  0  0
  -30.1830  -15.6300   20.2720 N   0  0  0  0  0  2  0  0  0  0  0  0
  -30.9030  -14.5050   19.8730 C   0  0  0  0  0  0  0  0  0  0  0  0
  -30.4770  -12.3700   18.7280 C   0  0  0  0  0  2  0  0  0  0  0  0
  -29.4530  -12.6270   17.6050 C   0  0  0  0  0  2  0  0  0  0  0  0
  -28.0150  -12.4840   18.1430 C   0  0  0  0  0  2  0  0  0  0  0  0
  -27.7820  -13.2920   19.4470 C   0  0  0  0  0  3  0  0  0  0  0  0
  -28.9210  -13.0640   20.4630 C   0  0  0  0  0  2  0  0  0  0  0  0
  -30.2010  -13.3420   19.7980 N   0  0  0  0  0  0  0  0  0  0  0  0
  -32.0310  -14.6030   19.3850 O   0  0  0  0  0  0  0  0  0  0  0  0
  -25.4570  -13.8800   20.3760 C   0  0  0  0  0  0  0  0  0  0  0  0
  -24.4160  -13.1000   20.8020 C   0  0  0  0  0  0  0  0  0  0  0  0
  -24.8650  -11.7480   20.6900 C   0  0  0  0  0  0  0  0  0  0  0  0
  -26.4730  -13.0030   20.0300 N   0  0  0  0  0  0  0  0  0  0  0  0
  -26.1260  -11.7130   20.2770 N   0  0  0  0  0  0  0  0  0  0  0  0
  -24.1490  -10.4830   20.8990 C   0  0  0  0  0  0  0  0  0  0  0  0
  -24.5970   -9.5270   21.8380 C   0  0  0  0  0  3  0  0  0  0  0  0
  -23.8820   -8.3250   22.0320 C   0  0  0  0  0  3  0  0  0  0  0  0
  -22.7050   -8.0720   21.2900 C   0  0  0  0  0  0  0  0  0  0  0  0
  -22.2760   -9.0170   20.3410 C   0  0  0  0  0  3  0  0  0  0  0  0
  -22.9910  -10.2100   20.1440 C   0  0  0  0  0  3  0  0  0  0  0  0
  -21.9600   -6.9220   21.3930 O   0  0  0  0  0  0  0  0  0  0  0  0
  -21.8520   -6.2380   22.5760 C   0  0  0  0  0  0  0  0  0  0  0  0
  -21.3200   -6.8390   23.7390 C   0  0  0  0  0  3  0  0  0  0  0  0
  -21.1640   -6.0790   24.9150 C   0  0  0  0  0  3  0  0  0  0  0  0
  -21.5290   -4.7200   24.9310 C   0  0  0  0  0  0  0  0  0  0  0  0
  -22.0530   -4.1180   23.7730 C   0  0  0  0  0  3  0  0  0  0  0  0
  -22.2130   -4.8760   22.5990 C   0  0  0  0  0  0  0  0  0  0  0  0
  -22.6980   -4.2860   21.4800 F   0  0  0  0  0  0  0  0  0  0  0  0
  -21.3710   -3.9880   26.0580 F   0  0  0  0  0  0  0  0  0  0  0  0
  -23.0490  -13.5730   21.2050 C   0  0  0  0  0  0  0  0  0  0  0  0
  -22.3920  -12.8490   22.1040 N   0  0  0  0  0  0  0  0  0  0  0  0
  -22.5760  -14.6160   20.7570 O   0  0  0  0  0  0  0  0  0  0  0  0
  -22.7890  -12.0020   22.4840 H   0  0  0  0  0  0  0  0  0  0  0  0
  -21.4780  -13.1450   22.4160 H   0  0  0  0  0  0  0  0  0  0  0  0
  -25.6200  -15.2540   20.2370 N   0  0  0  0  0  0  0  0  0  0  0  0
  -24.8930  -15.9180   20.4800 H   0  0  0  0  0  0  0  0  0  0  0  0
  -26.4960  -15.7000   19.9890 H   0  0  0  0  0  0  0  0  0  0  0  0
  1  5  1  0
  2  6  2  0
  2  4  1  0
  3  5  2  0
  4  1  2  0
  5  7  1  0
  6  3  1  0
  7  9  1  0
  7  8  1  0
 10 11  1  0
 11  6  1  0
 12  4  1  0
 12 14  1  0
 13 12  1  0
 15 14  1  0
 15 17  1  0
 16 15  2  0
 18 17  1  0
 19 30  2  0
 20 18  1  0
 20 25  1  0
 21 29  1  0
 21 31  1  0
 22 28  1  0
 22 24  1  0
 23 29  1  0
 24 23  1  0
 25 24  2  0
 26 20  2  0
 27 26  1  0
 27 22  2  0
 28 21  1  0
 29 19  1  0
 31 33  2  0
 32 31  1  0
 34 32  1  0
 35 44  2  0
 35 40  1  0
 36 32  1  0
 36 40  1  0
 37 36  1  0
 38 39  1  0
 38 37  1  0
 39 35  1  0
 40 41  2  0
 41 42  1  0
 43 42  2  0
 44 43  1  0
 45 19  1  0
 45 46  1  0
 45 55  1  0
 46 49  1  0
 47 51  1  0
 47 46  1  0
 48 47  2  0
 51 50  1  0
 53 51  1  0
 53 54  1  0
 53 52  1  0
 55 58  1  1
 55 56  1  0
 57 55  1  0
 59  3  1  0
 59 60  1  0
 61 60  1  0
 62 67  1  0
 63 64  1  0
 63 62  1  0
 65 64  1  0
 65 72  1  0
 65 66  1  0
 67 61  1  0
 67 66  1  0
 68 61  2  0
 69 70  2  0
 70 89  1  0
 71 70  1  0
 71 74  1  0
 72 73  1  0
 72 69  1  0
 73 71  2  0
 74 75  1  0
 75 76  2  0
 77 80  1  0
 77 76  1  0
 78 77  2  0
 79 78  1  0
 79 74  2  0
 80 81  1  0
 81 86  2  0
 81 82  1  0
 82 83  2  0
 83 84  1  0
 84 88  1  0
 85 84  2  0
 86 85  1  0
 87 86  1  0
 89 90  1  0
 90 93  1  0
 90 92  1  0
 91 89  2  0
 94 69  1  0
 94 95  1  0
 96 94  1  0
M  ISO  4  17 101  18 101  60 100  61 100
M  END
>  <TORSDO>  (89) 
F 23

>  <SCORE>  (89) 
-12.033

>  <name>  (89) 
88

>  <ligand_id>  (89) 
88

>  <original_smiles>  (89) 
[H]C(=NC(=O)N1C([H])([H])C([H])([H])C([H])([H])C([H])(n2nc(-c3c([H])c([H])c(Oc4c([H])c([H])c(F)c([H])c4F)c([H])c3[H])c(C(=O)N([H])[H])c2N([H])[H])C1([H])[H])c1c(OC([H])([H])[H])c([H])c(N([H])C([H])([H])C(=O)C([H])([H])Oc2c([H])c([H])c3c(c2[H])C([H])([H])N(C(=O)C([H])(N([H])C(=O)C([H])(N([H])C([H])([H])[H])C([H])([H])[H])C(C([H])([H])[H])(C([H])([H])[H])C([H])([H])[H])C([H])(C(=O)N([H])C2([H])c4c([H])c([H])c([H])c([H])c4C([H])([H])C([H])([H])C2([H])[H])C3([H])[H])c([H])c1N([H])[H]

>  <smiles>  (89) 
[H]C(=NC(=O)N1C([H])([H])C([H])([H])C([H])([H])C([H])(n2nc(-c3c([H])c([H])c(Oc4c([H])c([H])c(F)c([H])c4F)c([H])c3[H])c(C(=O)N([H])[H])c2N([H])[H])C1([H])[H])c1c(OC([H])([H])[H])c([H])c(N([H])C([H])([H])C(=O)C([H])([H])Oc2c([H])c([H])c3c(c2[H])C([H])([H])N(C(=O)C([H])(N([H])C(=O)C([H])(N([H])C([H])([H])[H])C([H])([H])[H])C(C([H])([H])[H])(C([H])([H])[H])C([H])([H])[H])C([H])(C(=O)N([H])C2([H])c4c([H])c([H])c([H])c([H])c4C([H])([H])C([H])([H])C2([H])[H])C3([H])[H])c([H])c1N([H])[H]

$$$$
89:0:0
     RDKit          3D

 98106  0  0  1  0  0  0  0  0999 V2000
  -28.8090  -18.0560   20.2230 C   0  0  0  0  0  3  0  0  0  0  0  0
  -29.6590  -20.5140   21.2760 C   0  0  0  0  0  3  0  0  0  0  0  0
  -27.9260  -19.1580   20.2320 C   0  0  0  0  0  0  0  0  0  0  0  0
  -30.1330  -18.1740   20.7050 C   0  0  0  0  0  0  0  0  0  0  0  0
  -28.3500  -20.4020   20.7560 C   0  0  0  0  0  0  0  0  0  0  0  0
  -30.5330  -19.4110   21.2630 C   0  0  0  0  0  0  0  0  0  0  0  0
  -26.5260  -18.9800   19.6670 C   0  0  0  0  0  1  0  0  0  0  0  0
  -31.7770  -19.5520   21.7860 F   0  0  0  0  0  0  0  0  0  0  0  0
  -27.4440  -21.4760   20.7690 N   0  0  0  0  0  0  0  0  0  0  0  0
  -26.6140  -21.3710   20.1910 H   0  0  0  0  0  0  0  0  0  0  0  0
  -27.8910  -22.8470   20.9850 C   0  0  0  0  0  2  0  0  0  0  0  0
  -28.0640  -23.6110   19.6590 C   0  0  0  0  0  2  0  0  0  0  0  0
  -27.4330  -25.7630   20.8770 C   0  0  0  0  0  1  0  0  0  0  0  0
  -28.3290  -25.1310   19.7920 C   0  0  0  0  0  3  0  0  0  0  0  0
  -28.2030  -25.8010   18.3900 C   0  0  0  0  0  2  0  0  0  0  0  0
  -28.1180  -27.2350   18.3960 O   0  0  0  0  0  0  0  0  0  0  0  0
  -24.3710  -31.3060   22.8260 C   0  0  0  0  0  0  0  0  0  0  0  0
  -26.8890  -27.8220   18.6230 C   0  0  0  0  0  0  0  0  0  0  0  0
  -23.0570  -30.1090   21.1090 C   0  0  0  0  0  3  0  0  0  0  0  0
  -24.4050  -29.0300   19.2350 C   0  0  0  0  0  0  0  0  0  0  0  0
  -25.4880  -30.7670   20.6680 C   0  0  0  0  0  2  0  0  0  0  0  0
  -25.5890  -29.5570   19.7630 C   0  0  0  0  0  0  0  0  0  0  0  0
  -26.8310  -28.9620   19.4550 C   0  0  0  0  0  3  0  0  0  0  0  0
  -25.6820  -27.3160   18.0800 C   0  0  0  0  0  3  0  0  0  0  0  0
  -24.4470  -27.9070   18.3920 C   0  0  0  0  0  3  0  0  0  0  0  0
  -23.1140  -29.7220   19.6080 C   0  0  0  0  0  2  0  0  0  0  0  0
  -24.3300  -30.7320   21.5920 N   0  0  0  0  0  0  0  0  0  0  0  0
  -23.3610  -31.3580   23.5410 O   0  0  0  0  0  0  0  0  0  0  0  0
  -22.6360  -28.8660   21.9250 C   0  0  0  0  0  0  0  0  0  0  0  0
  -21.3430  -28.5090   21.8460 N   0  0  0  0  0  0  0  0  0  0  0  0
  -23.4620  -28.2320   22.5850 O   0  0  0  0  0  0  0  0  0  0  0  0
  -20.7270  -29.0860   21.2910 H   0  0  0  0  0  0  0  0  0  0  0  0
  -18.2690  -26.6350   22.1690 C   0  0  0  0  0  0  0  0  0  0  0  0
  -20.7320  -27.3490   22.4900 C   0  0  0  0  0  3  0  0  0  0  0  0
  -21.1080  -26.0440   21.7490 C   0  0  0  0  0  2  0  0  0  0  0  0
  -20.0660  -25.6180   20.7100 C   0  0  0  0  0  2  0  0  0  0  0  0
  -18.6970  -25.4200   21.3680 C   0  0  0  0  0  2  0  0  0  0  0  0
  -19.2250  -27.5490   22.6870 C   0  0  0  0  0  0  0  0  0  0  0  0
  -18.7750  -28.6790   23.4040 C   0  0  0  0  0  3  0  0  0  0  0  0
  -17.4010  -28.9010   23.6120 C   0  0  0  0  0  3  0  0  0  0  0  0
  -16.4590  -27.9850   23.1110 C   0  0  0  0  0  3  0  0  0  0  0  0
  -16.8940  -26.8560   22.3930 C   0  0  0  0  0  3  0  0  0  0  0  0
  -25.6800  -31.9460   23.3870 C   0  0  0  0  0  3  0  0  0  0  0  0
  -25.3370  -33.2800   23.8920 N   0  0  0  0  0  0  0  0  0  0  0  0
  -25.6490  -34.4300   23.2780 C   0  0  0  0  0  0  0  0  0  0  0  0
  -26.3310  -34.4770   22.2500 O   0  0  0  0  0  0  0  0  0  0  0  0
  -24.7330  -33.3160   24.7010 H   0  0  0  0  0  0  0  0  0  0  0  0
  -23.9300  -36.2540   23.0890 C   0  0  0  0  0  1  0  0  0  0  0  0
  -25.1240  -35.7350   23.9050 C   0  0  0  0  0  3  0  0  0  0  0  0
  -27.1990  -36.4850   24.9820 C   0  0  0  0  0  1  0  0  0  0  0  0
  -26.1530  -36.7930   24.0100 N   0  0  0  0  0  0  0  0  0  0  0  0
  -25.7310  -37.6800   24.2710 H   0  0  0  0  0  0  0  0  0  0  0  0
  -26.3610  -31.0780   24.5150 C   0  0  1  0  0  0  0  0  0  0  0  0
  -25.3950  -30.6730   25.6530 C   0  0  0  0  0  1  0  0  0  0  0  0
  -26.9610  -29.7820   23.9210 C   0  0  0  0  0  1  0  0  0  0  0  0
  -27.5380  -31.8620   25.1400 C   0  0  0  0  0  1  0  0  0  0  0  0
  -31.1490  -17.0160   20.6380 C   0  0  0  0  0  3  0  0  0  0  0  0
  -31.2840  -14.5580   20.5960 C   0  0  0  0  0  0  0  0  0  0  0  0
  -30.9810  -12.2100   19.9890 C   0  0  0  0  0  2  0  0  0  0  0  0
  -30.1490  -12.1380   18.6940 C   0  0  0  0  0  2  0  0  0  0  0  0
  -28.6420  -12.1250   19.0250 C   0  0  0  0  0  2  0  0  0  0  0  0
  -28.2040  -13.1830   20.0790 C   0  0  0  0  0  3  0  0  0  0  0  0
  -29.1970  -13.2800   21.2580 C   0  0  0  0  0  2  0  0  0  0  0  0
  -30.5480  -13.4180   20.7000 N   0  0  0  0  0  0  0  0  0  0  0  0
  -32.5130  -14.5330   20.5630 O   0  0  0  0  0  0  0  0  0  0  0  0
  -30.3550  -15.7150   18.7210 C   0  0  0  0  0  1  0  0  0  0  0  0
  -30.6470  -15.6860   20.1690 N   0  0  0  0  0  0  0  0  0  0  0  0
  -25.8360  -13.9160   20.7410 C   0  0  0  0  0  0  0  0  0  0  0  0
  -24.7050  -13.2030   21.0390 C   0  0  0  0  0  0  0  0  0  0  0  0
  -25.0810  -11.8270   20.9780 C   0  0  0  0  0  0  0  0  0  0  0  0
  -26.8280  -12.9740   20.5180 N   0  0  0  0  0  0  0  0  0  0  0  0
  -26.3780  -11.7090   20.7210 N   0  0  0  0  0  0  0  0  0  0  0  0
  -24.2670  -10.6100   21.0920 C   0  0  0  0  0  0  0  0  0  0  0  0
  -24.6180   -9.5700   21.9790 C   0  0  0  0  0  3  0  0  0  0  0  0
  -23.8090   -8.4180   22.0850 C   0  0  0  0  0  3  0  0  0  0  0  0
  -22.6370   -8.3000   21.3020 C   0  0  0  0  0  0  0  0  0  0  0  0
  -22.3030   -9.3290   20.4040 C   0  0  0  0  0  3  0  0  0  0  0  0
  -23.1130  -10.4730   20.2950 C   0  0  0  0  0  3  0  0  0  0  0  0
  -21.8040   -7.2080   21.3230 O   0  0  0  0  0  0  0  0  0  0  0  0
  -21.7040   -6.4000   22.4280 C   0  0  0  0  0  0  0  0  0  0  0  0
  -21.2970   -6.8990   23.6850 C   0  0  0  0  0  3  0  0  0  0  0  0
  -21.1460   -6.0200   24.7770 C   0  0  0  0  0  3  0  0  0  0  0  0
  -21.3880   -4.6430   24.6110 C   0  0  0  0  0  0  0  0  0  0  0  0
  -21.7880   -4.1430   23.3580 C   0  0  0  0  0  3  0  0  0  0  0  0
  -21.9430   -5.0200   22.2710 C   0  0  0  0  0  0  0  0  0  0  0  0
  -22.3070   -4.5310   21.0600 F   0  0  0  0  0  0  0  0  0  0  0  0
  -21.2360   -3.7970   25.6550 F   0  0  0  0  0  0  0  0  0  0  0  0
  -23.3330  -13.7660   21.2680 C   0  0  0  0  0  0  0  0  0  0  0  0
  -22.5290  -13.1050   22.0950 N   0  0  0  0  0  0  0  0  0  0  0  0
  -22.9790  -14.8240   20.7480 O   0  0  0  0  0  0  0  0  0  0  0  0
  -22.8240  -12.2460   22.5360 H   0  0  0  0  0  0  0  0  0  0  0  0
  -21.6040  -13.4610   22.2870 H   0  0  0  0  0  0  0  0  0  0  0  0
  -26.0920  -15.2770   20.6160 N   0  0  0  0  0  0  0  0  0  0  0  0
  -25.3650  -15.9750   20.7300 H   0  0  0  0  0  0  0  0  0  0  0  0
  -26.9870  -15.6680   20.3550 H   0  0  0  0  0  0  0  0  0  0  0  0
  -32.5300  -17.4090   19.9880 C   0  0  0  0  0  2  0  0  0  0  0  0
  -31.9330  -18.4960   17.6730 C   0  0  0  0  0  1  0  0  0  0  0  0
  -32.6490  -18.6200   19.0250 C   0  0  0  0  0  2  0  0  0  0  0  0
  1  3  2  0
  1  4  1  0
  3  5  1  0
  4  6  2  0
  5  9  1  0
  5  2  2  0
  6  2  1  0
  6  8  1  0
  7  3  1  0
  9 11  1  0
 10  9  1  0
 12 14  1  0
 12 11  1  0
 14 13  1  0
 15 16  1  0
 15 14  1  0
 16 18  1  0
 17 28  2  0
 18 23  1  0
 19 27  1  0
 19 29  1  0
 20 26  1  0
 20 22  1  0
 21 27  1  0
 22 21  1  0
 23 22  2  0
 24 25  1  0
 24 18  2  0
 25 20  2  0
 26 19  1  0
 27 17  1  0
 29 31  2  0
 30 29  1  0
 32 30  1  0
 33 42  2  0
 33 38  1  0
 34 30  1  0
 34 38  1  0
 35 34  1  0
 36 37  1  0
 36 35  1  0
 37 33  1  0
 38 39  2  0
 39 40  1  0
 41 40  2  0
 42 41  1  0
 43 17  1  0
 43 44  1  0
 43 53  1  0
 44 47  1  0
 45 44  1  0
 45 49  1  0
 46 45  2  0
 49 48  1  0
 49 51  1  0
 51 52  1  0
 51 50  1  0
 53 56  1  1
 53 54  1  0
 55 53  1  0
 57 96  1  0
 57  4  1  0
 58 64  1  0
 59 64  1  0
 60 61  1  0
 60 59  1  0
 62 61  1  0
 62 71  1  0
 62 63  1  0
 64 63  1  0
 65 58  2  0
 66 67  1  0
 67 58  1  0
 67 57  1  0
 68 69  2  0
 69 88  1  0
 70 69  1  0
 70 73  1  0
 71 72  1  0
 71 68  1  0
 72 70  2  0
 73 74  1  0
 74 75  2  0
 76 79  1  0
 76 75  1  0
 77 76  2  0
 78 77  1  0
 78 73  2  0
 79 80  1  0
 80 81  1  0
 81 82  2  0
 83 82  1  0
 83 87  1  0
 84 83  2  0
 85 80  2  0
 85 84  1  0
 86 85  1  0
 88 89  1  0
 89 92  1  0
 89 91  1  0
 90 88  2  0
 93 94  1  0
 93 68  1  0
 95 93  1  0
 97 98  1  0
 98 96  1  0
M  ISO  4  15 101  16 101  58 100  67 100
M  END
>  <TORSDO>  (90) 
F 24

>  <SCORE>  (90) 
-10.092

>  <name>  (90) 
89

>  <ligand_id>  (90) 
89

>  <original_smiles>  (90) 
[H]c1c([H])c([H])c2c(c1[H])C([H])([H])C([H])([H])C([H])([H])C2([H])N([H])C(=O)C1([H])N(C(=O)C([H])(N([H])C(=O)C([H])(N([H])C([H])([H])[H])C([H])([H])[H])C(C([H])([H])[H])(C([H])([H])[H])C([H])([H])[H])C([H])([H])c2c([H])c(OC([H])([H])C([H])(C([H])([H])[H])C([H])([H])C([H])([H])N([H])c3c([H])c(F)c(C([H])(N(C(=O)N4C([H])([H])C([H])([H])C([H])([H])C([H])(n5nc(-c6c([H])c([H])c(Oc7c([H])c([H])c(F)c([H])c7F)c([H])c6[H])c(C(=O)N([H])[H])c5N([H])[H])C4([H])[H])C([H])([H])[H])C([H])([H])C([H])([H])C([H])([H])[H])c([H])c3C([H])([H])[H])c([H])c([H])c2C1([H])[H]

>  <smiles>  (90) 
[H]c1c([H])c([H])c2c(c1[H])C([H])([H])C([H])([H])C([H])([H])C2([H])N([H])C(=O)C1([H])N(C(=O)C([H])(N([H])C(=O)C([H])(N([H])C([H])([H])[H])C([H])([H])[H])C(C([H])([H])[H])(C([H])([H])[H])C([H])([H])[H])C([H])([H])c2c([H])c(OC([H])([H])C([H])(C([H])([H])[H])C([H])([H])C([H])([H])N([H])c3c([H])c(F)c(C([H])(N(C(=O)N4C([H])([H])C([H])([H])C([H])([H])C([H])(n5nc(-c6c([H])c([H])c(Oc7c([H])c([H])c(F)c([H])c7F)c([H])c6[H])c(C(=O)N([H])[H])c5N([H])[H])C4([H])[H])C([H])([H])[H])C([H])([H])C([H])([H])C([H])([H])[H])c([H])c3C([H])([H])[H])c([H])c([H])c2C1([H])[H]

$$$$
90:0:0
     RDKit          3D

 97106  0  0  1  0  0  0  0  0999 V2000
  -26.4610  -20.3040   20.1410 C   0  0  0  0  0  3  0  0  0  0  0  0
  -28.4110  -20.9340   18.8290 C   0  0  0  0  0  3  0  0  0  0  0  0
  -26.1110  -21.6620   20.2740 C   0  0  0  0  0  3  0  0  0  0  0  0
  -28.0680  -22.2800   18.9710 C   0  0  0  0  0  3  0  0  0  0  0  0
  -27.6500  -19.9350   19.4730 C   0  0  0  0  0  0  0  0  0  0  0  0
  -26.9550  -22.6590   19.7470 C   0  0  0  0  0  0  0  0  0  0  0  0
  -28.4770  -18.1600   21.0300 C   0  0  0  0  0  2  0  0  0  0  0  0
  -29.3660  -18.2210   18.6560 C   0  0  0  0  0  2  0  0  0  0  0  0
  -29.0950  -16.7680   21.2110 C   0  0  0  0  0  2  0  0  0  0  0  0
  -29.9170  -16.8170   18.8430 C   0  0  0  0  0  2  0  0  0  0  0  0
  -28.1420  -18.4950   19.5580 C   0  0  0  0  0  3  0  0  0  0  0  0
  -30.3380  -16.5840   20.3200 C   0  0  0  0  0  3  0  0  0  0  0  0
  -31.2740  -14.4220   19.6030 C   0  0  0  0  0  0  0  0  0  0  0  0
  -30.7190  -12.3000   18.4890 C   0  0  0  0  0  2  0  0  0  0  0  0
  -29.6590  -12.4960   17.3920 C   0  0  0  0  0  2  0  0  0  0  0  0
  -28.2390  -12.4160   17.9840 C   0  0  0  0  0  2  0  0  0  0  0  0
  -28.0600  -13.3230   19.2300 C   0  0  0  0  0  3  0  0  0  0  0  0
  -29.2170  -13.0980   20.2290 C   0  0  0  0  0  2  0  0  0  0  0  0
  -30.4960  -13.3140   19.5250 N   0  0  0  0  0  0  0  0  0  0  0  0
  -32.2240  -14.6550   18.8470 O   0  0  0  0  0  0  0  0  0  0  0  0
  -31.7750  -15.2240   21.7970 C   0  0  0  0  0  1  0  0  0  0  0  0
  -30.9460  -15.2710   20.5910 N   0  0  0  0  0  0  0  0  0  0  0  0
  -25.8070  -14.0530   20.2510 C   0  0  0  0  0  0  0  0  0  0  0  0
  -24.7390  -13.3300   20.7130 C   0  0  0  0  0  0  0  0  0  0  0  0
  -25.0960  -11.9560   20.5550 C   0  0  0  0  0  0  0  0  0  0  0  0
  -26.7560  -13.1210   19.8570 N   0  0  0  0  0  0  0  0  0  0  0  0
  -26.3350  -11.8520   20.0910 N   0  0  0  0  0  0  0  0  0  0  0  0
  -24.3100  -10.7340   20.7660 C   0  0  0  0  0  0  0  0  0  0  0  0
  -24.6920   -9.7650   21.7200 C   0  0  0  0  0  3  0  0  0  0  0  0
  -23.9080   -8.6090   21.9170 C   0  0  0  0  0  3  0  0  0  0  0  0
  -22.7290   -8.4120   21.1590 C   0  0  0  0  0  0  0  0  0  0  0  0
  -22.3660   -9.3690   20.1930 C   0  0  0  0  0  3  0  0  0  0  0  0
  -23.1490  -10.5180   19.9970 C   0  0  0  0  0  3  0  0  0  0  0  0
  -21.9220   -7.3030   21.2620 O   0  0  0  0  0  0  0  0  0  0  0  0
  -21.7320   -6.6620   22.4580 C   0  0  0  0  0  0  0  0  0  0  0  0
  -21.2070   -7.3290   23.5860 C   0  0  0  0  0  3  0  0  0  0  0  0
  -20.9630   -6.6160   24.7770 C   0  0  0  0  0  3  0  0  0  0  0  0
  -21.2360   -5.2370   24.8380 C   0  0  0  0  0  0  0  0  0  0  0  0
  -21.7560   -4.5690   23.7150 C   0  0  0  0  0  3  0  0  0  0  0  0
  -22.0000   -5.2800   22.5280 C   0  0  0  0  0  0  0  0  0  0  0  0
  -22.4810   -4.6280   21.4420 F   0  0  0  0  0  0  0  0  0  0  0  0
  -20.9960   -4.5470   25.9780 F   0  0  0  0  0  0  0  0  0  0  0  0
  -23.4240  -13.8790   21.1830 C   0  0  0  0  0  0  0  0  0  0  0  0
  -22.7800  -13.2040   22.1310 N   0  0  0  0  0  0  0  0  0  0  0  0
  -22.9800  -14.9410   20.7490 O   0  0  0  0  0  0  0  0  0  0  0  0
  -23.1520  -12.3450   22.5070 H   0  0  0  0  0  0  0  0  0  0  0  0
  -21.9000  -13.5520   22.4850 H   0  0  0  0  0  0  0  0  0  0  0  0
  -26.0350  -15.4180   20.1140 N   0  0  0  0  0  0  0  0  0  0  0  0
  -25.3310  -16.1100   20.3450 H   0  0  0  0  0  0  0  0  0  0  0  0
  -26.8690  -15.8190   19.7080 H   0  0  0  0  0  0  0  0  0  0  0  0
  -26.7440  -24.0000   20.0720 N   0  0  0  0  0  0  0  0  0  0  0  0
  -25.8310  -24.1830   20.4770 H   0  0  0  0  0  0  0  0  0  0  0  0
  -27.8320  -24.5260   20.9040 C   0  0  0  0  0  2  0  0  0  0  0  0
  -28.4950  -25.8150   20.3980 C   0  0  0  0  0  0  0  0  0  0  0  0
  -28.9710  -26.6200   21.2030 O   0  0  0  0  0  0  0  0  0  0  0  0
  -28.5940  -26.0550   18.8780 C   0  0  0  0  0  2  0  0  0  0  0  0
  -28.4900  -27.4410   18.5640 O   0  0  0  0  0  0  0  0  0  0  0  0
  -24.4530  -31.4680   22.7270 C   0  0  0  0  0  0  0  0  0  0  0  0
  -27.2390  -27.9820   18.7330 C   0  0  0  0  0  0  0  0  0  0  0  0
  -23.2440  -30.2170   20.9680 C   0  0  0  0  0  3  0  0  0  0  0  0
  -24.7050  -29.1130   19.1960 C   0  0  0  0  0  0  0  0  0  0  0  0
  -25.6790  -30.9170   20.6320 C   0  0  0  0  0  2  0  0  0  0  0  0
  -25.8450  -29.6910   19.7660 C   0  0  0  0  0  0  0  0  0  0  0  0
  -27.1160  -29.1340   19.5300 C   0  0  0  0  0  3  0  0  0  0  0  0
  -26.0840  -27.4010   18.1610 C   0  0  0  0  0  3  0  0  0  0  0  0
  -24.8160  -27.9650   18.3930 C   0  0  0  0  0  3  0  0  0  0  0  0
  -23.3860  -29.7910   19.4810 C   0  0  0  0  0  2  0  0  0  0  0  0
  -24.4810  -30.8730   21.5020 N   0  0  0  0  0  0  0  0  0  0  0  0
  -23.4080  -31.5210   23.3890 O   0  0  0  0  0  0  0  0  0  0  0  0
  -22.8000  -28.9850   21.7890 C   0  0  0  0  0  0  0  0  0  0  0  0
  -21.5010  -28.6540   21.7090 N   0  0  0  0  0  0  0  0  0  0  0  0
  -23.6160  -28.3370   22.4500 O   0  0  0  0  0  0  0  0  0  0  0  0
  -20.8990  -29.2430   21.1500 H   0  0  0  0  0  0  0  0  0  0  0  0
  -18.3490  -26.9440   22.1470 C   0  0  0  0  0  0  0  0  0  0  0  0
  -20.8620  -27.5130   22.3620 C   0  0  0  0  0  3  0  0  0  0  0  0
  -21.1190  -26.2070   21.5760 C   0  0  0  0  0  2  0  0  0  0  0  0
  -20.0130  -25.8830   20.5660 C   0  0  0  0  0  2  0  0  0  0  0  0
  -18.6640  -25.7400   21.2740 C   0  0  0  0  0  2  0  0  0  0  0  0
  -19.3800  -27.7860   22.6440 C   0  0  0  0  0  0  0  0  0  0  0  0
  -19.0310  -28.9110   23.4190 C   0  0  0  0  0  3  0  0  0  0  0  0
  -17.6840  -29.2020   23.7020 C   0  0  0  0  0  3  0  0  0  0  0  0
  -16.6670  -28.3580   23.2210 C   0  0  0  0  0  3  0  0  0  0  0  0
  -17.0010  -27.2290   22.4500 C   0  0  0  0  0  3  0  0  0  0  0  0
  -25.7240  -32.1350   23.3440 C   0  0  0  0  0  3  0  0  0  0  0  0
  -25.3100  -33.4140   23.9330 N   0  0  0  0  0  0  0  0  0  0  0  0
  -25.4750  -34.6090   23.3480 C   0  0  0  0  0  0  0  0  0  0  0  0
  -26.0660  -34.7530   22.2740 O   0  0  0  0  0  0  0  0  0  0  0  0
  -24.7690  -33.3670   24.7840 H   0  0  0  0  0  0  0  0  0  0  0  0
  -23.5510  -36.2270   23.4220 C   0  0  0  0  0  1  0  0  0  0  0  0
  -24.8900  -35.8380   24.0680 C   0  0  0  0  0  3  0  0  0  0  0  0
  -26.9880  -36.8080   24.8960 C   0  0  0  0  0  1  0  0  0  0  0  0
  -25.8000  -37.0050   24.0710 N   0  0  0  0  0  0  0  0  0  0  0  0
  -25.3170  -37.8370   24.4000 H   0  0  0  0  0  0  0  0  0  0  0  0
  -26.4430  -31.2290   24.4180 C   0  0  1  0  0  0  0  0  0  0  0  0
  -25.4960  -30.7050   25.5230 C   0  0  0  0  0  1  0  0  0  0  0  0
  -27.1050  -30.0050   23.7410 C   0  0  0  0  0  1  0  0  0  0  0  0
  -27.5790  -32.0270   25.1000 C   0  0  0  0  0  1  0  0  0  0  0  0
  1  3  1  0
  2  4  2  0
  2  5  1  0
  4  6  1  0
  5  1  2  0
  6 51  1  0
  6  3  2  0
  7  9  1  0
  8 10  1  0
  8 11  1  0
 10 12  1  0
 11  5  1  0
 11  7  1  0
 12 22  1  0
 12  9  1  0
 13 22  1  0
 14 19  1  0
 15 16  1  0
 15 14  1  0
 17 16  1  0
 17 26  1  0
 17 18  1  0
 19 13  1  0
 19 18  1  0
 20 13  2  0
 22 21  1  0
 23 24  2  0
 24 43  1  0
 25 24  1  0
 25 28  1  0
 26 27  1  0
 26 23  1  0
 27 25  2  0
 28 29  1  0
 29 30  2  0
 31 34  1  0
 31 30  1  0
 32 31  2  0
 33 32  1  0
 33 28  2  0
 34 35  1  0
 35 40  2  0
 35 36  1  0
 36 37  2  0
 37 38  1  0
 38 42  1  0
 39 38  2  0
 40 39  1  0
 41 40  1  0
 43 44  1  0
 44 47  1  0
 44 46  1  0
 45 43  2  0
 48 23  1  0
 48 49  1  0
 50 48  1  0
 51 52  1  0
 51 53  1  0
 54 53  1  0
 54 55  2  0
 56 54  1  0
 57 59  1  0
 57 56  1  0
 58 69  2  0
 59 64  1  0
 60 68  1  0
 60 70  1  0
 61 67  1  0
 61 63  1  0
 62 68  1  0
 63 62  1  0
 64 63  2  0
 65 66  1  0
 65 59  2  0
 66 61  2  0
 67 60  1  0
 68 58  1  0
 70 72  2  0
 71 70  1  0
 73 71  1  0
 74 83  2  0
 74 79  1  0
 75 71  1  0
 75 79  1  0
 76 75  1  0
 77 78  1  0
 77 76  1  0
 78 74  1  0
 79 80  2  0
 80 81  1  0
 82 81  2  0
 83 82  1  0
 84 58  1  0
 84 85  1  0
 84 94  1  0
 85 88  1  0
 86 85  1  0
 86 90  1  0
 87 86  2  0
 90 89  1  0
 90 92  1  0
 92 93  1  0
 92 91  1  0
 94 97  1  1
 94 95  1  0
 96 94  1  0
M  ISO  4  13 100  22 100  56 101  57 101
M  END
>  <TORSDO>  (91) 
F 21

>  <SCORE>  (91) 
-6.643

>  <name>  (91) 
90

>  <ligand_id>  (91) 
90

>  <original_smiles>  (91) 
[H]c1c([H])c([H])c2c(c1[H])C([H])([H])C([H])([H])C([H])([H])C2([H])N([H])C(=O)C1([H])N(C(=O)C([H])(N([H])C(=O)C([H])(N([H])C([H])([H])[H])C([H])([H])[H])C(C([H])([H])[H])(C([H])([H])[H])C([H])([H])[H])C([H])([H])c2c([H])c(OC([H])([H])C(=O)C([H])([H])N([H])c3c([H])c([H])c(C4([H])C([H])([H])C([H])([H])C([H])(N(C(=O)N5C([H])([H])C([H])([H])C([H])([H])C([H])(n6nc(-c7c([H])c([H])c(Oc8c([H])c([H])c(F)c([H])c8F)c([H])c7[H])c(C(=O)N([H])[H])c6N([H])[H])C5([H])[H])C([H])([H])[H])C([H])([H])C4([H])[H])c([H])c3[H])c([H])c([H])c2C1([H])[H]

>  <smiles>  (91) 
[H]c1c([H])c([H])c2c(c1[H])C([H])([H])C([H])([H])C([H])([H])C2([H])N([H])C(=O)C1([H])N(C(=O)C([H])(N([H])C(=O)C([H])(N([H])C([H])([H])[H])C([H])([H])[H])C(C([H])([H])[H])(C([H])([H])[H])C([H])([H])[H])C([H])([H])c2c([H])c(OC([H])([H])C(=O)C([H])([H])N([H])c3c([H])c([H])c(C4([H])C([H])([H])C([H])([H])C([H])(N(C(=O)N5C([H])([H])C([H])([H])C([H])([H])C([H])(n6nc(-c7c([H])c([H])c(Oc8c([H])c([H])c(F)c([H])c8F)c([H])c7[H])c(C(=O)N([H])[H])c6N([H])[H])C5([H])[H])C([H])([H])[H])C([H])([H])C4([H])[H])c([H])c3[H])c([H])c([H])c2C1([H])[H]

$$$$
91:0:0
     RDKit          3D

 93101  0  0  1  0  0  0  0  0999 V2000
  -29.0540  -18.5610   20.3840 C   0  0  0  0  0  3  0  0  0  0  0  0
  -30.7130  -20.7310   19.7520 C   0  0  0  0  0  3  0  0  0  0  0  0
  -30.3980  -18.3160   20.0140 C   0  0  0  0  0  0  0  0  0  0  0  0
  -31.2290  -19.4260   19.7050 C   0  0  0  0  0  0  0  0  0  0  0  0
  -28.5420  -19.8790   20.4270 C   0  0  0  0  0  0  0  0  0  0  0  0
  -29.3680  -20.9820   20.1150 C   0  0  0  0  0  0  0  0  0  0  0  0
  -32.6900  -19.2670   19.2990 C   0  0  0  0  0  1  0  0  0  0  0  0
  -27.2090  -20.1070   20.7660 N   0  0  0  0  0  0  0  0  0  0  0  0
  -26.6790  -19.3970   21.2600 H   0  0  0  0  0  0  0  0  0  0  0  0
  -26.9420  -21.0620   20.9910 H   0  0  0  0  0  0  0  0  0  0  0  0
  -30.9490  -16.9490   19.9120 C   0  0  0  0  0  3  0  0  0  0  0  0
  -30.4770  -15.7800   20.4010 C   0  0  0  0  0  3  0  0  0  0  0  0
  -31.2340  -14.5670   20.0840 C   0  0  0  0  0  0  0  0  0  0  0  0
  -30.8880  -12.3370   19.1290 C   0  0  0  0  0  2  0  0  0  0  0  0
  -29.9430  -12.4870   17.9190 C   0  0  0  0  0  2  0  0  0  0  0  0
  -28.4690  -12.4060   18.3670 C   0  0  0  0  0  2  0  0  0  0  0  0
  -28.1550  -13.3250   19.5780 C   0  0  0  0  0  3  0  0  0  0  0  0
  -29.2190  -13.1570   20.6850 C   0  0  0  0  0  2  0  0  0  0  0  0
  -30.5420  -13.3960   20.0890 N   0  0  0  0  0  0  0  0  0  0  0  0
  -32.3880  -14.6270   19.6490 O   0  0  0  0  0  0  0  0  0  0  0  0
  -25.8110  -14.0130   20.3890 C   0  0  0  0  0  0  0  0  0  0  0  0
  -24.7200  -13.2770   20.7630 C   0  0  0  0  0  0  0  0  0  0  0  0
  -25.1140  -11.9080   20.6630 C   0  0  0  0  0  0  0  0  0  0  0  0
  -26.8050  -13.0960   20.0880 N   0  0  0  0  0  0  0  0  0  0  0  0
  -26.3900  -11.8210   20.3100 N   0  0  0  0  0  0  0  0  0  0  0  0
  -24.3350  -10.6740   20.8290 C   0  0  0  0  0  0  0  0  0  0  0  0
  -24.7380   -9.6630   21.7290 C   0  0  0  0  0  3  0  0  0  0  0  0
  -23.9630   -8.4930   21.8840 C   0  0  0  0  0  3  0  0  0  0  0  0
  -22.7720   -8.3260   21.1380 C   0  0  0  0  0  0  0  0  0  0  0  0
  -22.3890   -9.3260   20.2260 C   0  0  0  0  0  3  0  0  0  0  0  0
  -23.1630  -10.4880   20.0690 C   0  0  0  0  0  3  0  0  0  0  0  0
  -21.9690   -7.2130   21.2040 O   0  0  0  0  0  0  0  0  0  0  0  0
  -21.8750   -6.4610   22.3470 C   0  0  0  0  0  0  0  0  0  0  0  0
  -21.3920   -7.0030   23.5580 C   0  0  0  0  0  3  0  0  0  0  0  0
  -21.2460   -6.1760   24.6910 C   0  0  0  0  0  3  0  0  0  0  0  0
  -21.5730   -4.8090   24.6120 C   0  0  0  0  0  0  0  0  0  0  0  0
  -22.0490   -4.2670   23.4040 C   0  0  0  0  0  3  0  0  0  0  0  0
  -22.1970   -5.0910   22.2760 C   0  0  0  0  0  0  0  0  0  0  0  0
  -22.6350   -4.5590   21.1090 F   0  0  0  0  0  0  0  0  0  0  0  0
  -21.4260   -4.0130   25.6960 F   0  0  0  0  0  0  0  0  0  0  0  0
  -23.3560  -13.8060   21.1030 C   0  0  0  0  0  0  0  0  0  0  0  0
  -22.6250  -13.1120   21.9680 N   0  0  0  0  0  0  0  0  0  0  0  0
  -22.9510  -14.8710   20.6390 O   0  0  0  0  0  0  0  0  0  0  0  0
  -22.9650  -12.2500   22.3660 H   0  0  0  0  0  0  0  0  0  0  0  0
  -21.7110  -13.4490   22.2360 H   0  0  0  0  0  0  0  0  0  0  0  0
  -26.0330  -15.3810   20.2590 N   0  0  0  0  0  0  0  0  0  0  0  0
  -25.3020  -16.0640   20.4260 H   0  0  0  0  0  0  0  0  0  0  0  0
  -26.8930  -15.7970   19.9220 H   0  0  0  0  0  0  0  0  0  0  0  0
  -28.8270  -22.2530   20.1780 O   0  0  0  0  0  0  0  0  0  0  0  0
  -29.6680  -23.3320   19.7810 C   0  0  0  0  0  2  0  0  0  0  0  0
  -29.0170  -24.6900   20.0350 C   0  0  0  0  0  2  0  0  0  0  0  0
  -29.8490  -25.8130   19.3870 C   0  0  0  0  0  2  0  0  0  0  0  0
  -29.5590  -27.0770   19.9680 O   0  0  0  0  0  0  0  0  0  0  0  0
  -24.8810  -31.3530   23.1180 C   0  0  0  0  0  0  0  0  0  0  0  0
  -28.2800  -27.5800   19.9140 C   0  0  0  0  0  0  0  0  0  0  0  0
  -23.9860  -29.9840   21.2620 C   0  0  0  0  0  3  0  0  0  0  0  0
  -25.7200  -28.7660   19.8510 C   0  0  0  0  0  0  0  0  0  0  0  0
  -26.4530  -30.6520   21.3230 C   0  0  0  0  0  2  0  0  0  0  0  0
  -26.7510  -29.3650   20.5840 C   0  0  0  0  0  0  0  0  0  0  0  0
  -28.0290  -28.7730   20.6220 C   0  0  0  0  0  3  0  0  0  0  0  0
  -27.2280  -26.9820   19.1810 C   0  0  0  0  0  3  0  0  0  0  0  0
  -25.9500  -27.5700   19.1530 C   0  0  0  0  0  3  0  0  0  0  0  0
  -24.3830  -29.4670   19.8540 C   0  0  0  0  0  2  0  0  0  0  0  0
  -25.1180  -30.6730   21.9620 N   0  0  0  0  0  0  0  0  0  0  0  0
  -23.7350  -31.4490   23.5800 O   0  0  0  0  0  0  0  0  0  0  0  0
  -23.3950  -28.8070   22.0700 C   0  0  0  0  0  0  0  0  0  0  0  0
  -22.1060  -28.5120   21.8390 N   0  0  0  0  0  0  0  0  0  0  0  0
  -24.0950  -28.1680   22.8610 O   0  0  0  0  0  0  0  0  0  0  0  0
  -21.5980  -29.0880   21.1820 H   0  0  0  0  0  0  0  0  0  0  0  0
  -18.8260  -27.0220   22.0730 C   0  0  0  0  0  0  0  0  0  0  0  0
  -21.3500  -27.4250   22.4590 C   0  0  0  0  0  3  0  0  0  0  0  0
  -21.5750  -26.0930   21.7060 C   0  0  0  0  0  2  0  0  0  0  0  0
  -20.5230  -25.8250   20.6260 C   0  0  0  0  0  2  0  0  0  0  0  0
  -19.1200  -25.7870   21.2380 C   0  0  0  0  0  2  0  0  0  0  0  0
  -19.8740  -27.7990   22.6350 C   0  0  0  0  0  0  0  0  0  0  0  0
  -19.5460  -28.9570   23.3720 C   0  0  0  0  0  3  0  0  0  0  0  0
  -18.2040  -29.3400   23.5550 C   0  0  0  0  0  3  0  0  0  0  0  0
  -17.1710  -28.5570   23.0110 C   0  0  0  0  0  3  0  0  0  0  0  0
  -17.4820  -27.4000   22.2760 C   0  0  0  0  0  3  0  0  0  0  0  0
  -26.0310  -32.0650   23.8990 C   0  0  0  0  0  3  0  0  0  0  0  0
  -25.5810  -33.4290   24.2010 N   0  0  0  0  0  0  0  0  0  0  0  0
  -25.9190  -34.5150   23.4930 C   0  0  0  0  0  0  0  0  0  0  0  0
  -26.7120  -34.4790   22.5490 O   0  0  0  0  0  0  0  0  0  0  0  0
  -24.8870  -33.5260   24.9290 H   0  0  0  0  0  0  0  0  0  0  0  0
  -24.1090  -36.1710   22.9470 C   0  0  0  0  0  1  0  0  0  0  0  0
  -25.2740  -35.8540   23.8980 C   0  0  0  0  0  3  0  0  0  0  0  0
  -27.2120  -36.8950   24.9880 C   0  0  0  0  0  1  0  0  0  0  0  0
  -26.2270  -36.9850   23.9140 N   0  0  0  0  0  0  0  0  0  0  0  0
  -25.7350  -37.8690   24.0080 H   0  0  0  0  0  0  0  0  0  0  0  0
  -26.4460  -31.3080   25.2190 C   0  0  1  0  0  0  0  0  0  0  0  0
  -25.2520  -30.9800   26.1450 C   0  0  0  0  0  1  0  0  0  0  0  0
  -27.1650  -29.9800   24.8840 C   0  0  0  0  0  1  0  0  0  0  0  0
  -27.4520  -32.1650   26.0220 C   0  0  0  0  0  1  0  0  0  0  0  0
  1  5  1  0
  2  6  1  0
  3  1  2  0
  4  2  2  0
  4  3  1  0
  5  8  1  0
  6 49  1  0
  6  5  2  0
  7  4  1  0
  8 10  1  0
  8  9  1  0
 11  3  1  0
 11 12  2  0
 13 19  1  0
 13 12  1  0
 14 19  1  0
 15 16  1  0
 15 14  1  0
 17 16  1  0
 17 24  1  0
 17 18  1  0
 19 18  1  0
 20 13  2  0
 21 22  2  0
 22 41  1  0
 23 22  1  0
 23 26  1  0
 24 25  1  0
 24 21  1  0
 25 23  2  0
 26 27  1  0
 27 28  2  0
 29 32  1  0
 29 28  1  0
 30 29  2  0
 31 30  1  0
 31 26  2  0
 32 33  1  0
 33 34  1  0
 34 35  2  0
 36 35  1  0
 36 40  1  0
 37 36  2  0
 38 33  2  0
 38 37  1  0
 39 38  1  0
 41 42  1  0
 42 45  1  0
 42 44  1  0
 43 41  2  0
 46 21  1  0
 46 47  1  0
 48 46  1  0
 50 51  1  0
 50 49  1  0
 52 53  1  0
 52 51  1  0
 54 65  2  0
 55 53  1  0
 55 60  1  0
 56 64  1  0
 56 66  1  0
 57 63  1  0
 57 59  1  0
 58 64  1  0
 59 60  2  0
 59 58  1  0
 61 55  2  0
 62 61  1  0
 62 57  2  0
 63 56  1  0
 64 54  1  0
 66 68  2  0
 67 66  1  0
 69 67  1  0
 70 79  2  0
 70 75  1  0
 71 67  1  0
 71 75  1  0
 72 71  1  0
 73 74  1  0
 73 72  1  0
 74 70  1  0
 75 76  2  0
 76 77  1  0
 78 77  2  0
 79 78  1  0
 80 54  1  0
 80 81  1  0
 80 90  1  0
 81 84  1  0
 82 86  1  0
 82 81  1  0
 83 82  2  0
 86 85  1  0
 86 88  1  0
 88 89  1  0
 88 87  1  0
 90 93  1  1
 90 91  1  0
 92 90  1  0
M  ISO  4  12 100  13 100  52 101  53 101
M  END
>  <TORSDO>  (92) 
F 22

>  <SCORE>  (92) 
-10.715

>  <name>  (92) 
91

>  <ligand_id>  (92) 
91

>  <original_smiles>  (92) 
[H]C(C(=O)N1C([H])([H])C([H])([H])C([H])([H])C([H])(n2nc(-c3c([H])c([H])c(Oc4c([H])c([H])c(F)c([H])c4F)c([H])c3[H])c(C(=O)N([H])[H])c2N([H])[H])C1([H])[H])=C([H])c1c([H])c(N([H])[H])c(OC([H])([H])C([H])([H])C([H])([H])Oc2c([H])c([H])c3c(c2[H])C([H])([H])N(C(=O)C([H])(N([H])C(=O)C([H])(N([H])C([H])([H])[H])C([H])([H])[H])C(C([H])([H])[H])(C([H])([H])[H])C([H])([H])[H])C([H])(C(=O)N([H])C2([H])c4c([H])c([H])c([H])c([H])c4C([H])([H])C([H])([H])C2([H])[H])C3([H])[H])c([H])c1C([H])([H])[H]

>  <smiles>  (92) 
[H]C(C(=O)N1C([H])([H])C([H])([H])C([H])([H])C([H])(n2nc(-c3c([H])c([H])c(Oc4c([H])c([H])c(F)c([H])c4F)c([H])c3[H])c(C(=O)N([H])[H])c2N([H])[H])C1([H])[H])=C([H])c1c([H])c(N([H])[H])c(OC([H])([H])C([H])([H])C([H])([H])Oc2c([H])c([H])c3c(c2[H])C([H])([H])N(C(=O)C([H])(N([H])C(=O)C([H])(N([H])C([H])([H])[H])C([H])([H])[H])C(C([H])([H])[H])(C([H])([H])[H])C([H])([H])[H])C([H])(C(=O)N([H])C2([H])c4c([H])c([H])c([H])c([H])c4C([H])([H])C([H])([H])C2([H])[H])C3([H])[H])c([H])c1C([H])([H])[H]

$$$$
92:0:0
     RDKit          3D

 94102  0  0  1  0  0  0  0  0999 V2000
  -29.9410  -22.4990   19.0330 C   0  0  0  0  0  0  0  0  0  0  0  0
  -29.9620  -21.1820   18.7690 N   0  0  0  0  0  0  0  0  0  0  0  0
  -29.5450  -23.2490   18.1420 O   0  0  0  0  0  0  0  0  0  0  0  0
  -29.7100  -20.9930   17.8090 H   0  0  0  0  0  0  0  0  0  0  0  0
  -31.6150  -17.8970   19.2440 C   0  0  0  0  0  3  0  0  0  0  0  0
  -31.1760  -19.1070   18.6780 C   0  0  0  0  0  3  0  0  0  0  0  0
  -30.2470  -19.7770   20.8200 C   0  0  0  0  0  3  0  0  0  0  0  0
  -31.3760  -17.6010   20.6020 C   0  0  0  0  0  0  0  0  0  0  0  0
  -30.6650  -18.5450   21.3920 C   0  0  0  0  0  0  0  0  0  0  0  0
  -30.5080  -20.0660   19.4610 C   0  0  0  0  0  0  0  0  0  0  0  0
  -30.3030  -18.2410   22.8380 C   0  0  0  0  0  1  0  0  0  0  0  0
  -31.9020  -16.2740   21.1670 C   0  0  0  0  0  2  0  0  0  0  0  0
  -31.3070  -14.1980   19.9430 C   0  0  0  0  0  0  0  0  0  0  0  0
  -30.7070  -12.0590   18.8790 C   0  0  0  0  0  2  0  0  0  0  0  0
  -29.7460  -12.2850   17.6980 C   0  0  0  0  0  2  0  0  0  0  0  0
  -28.2910  -12.2420   18.1920 C   0  0  0  0  0  2  0  0  0  0  0  0
  -28.0580  -13.1730   19.4100 C   0  0  0  0  0  3  0  0  0  0  0  0
  -29.1470  -12.9800   20.4950 C   0  0  0  0  0  2  0  0  0  0  0  0
  -30.4750  -13.1210   19.8700 N   0  0  0  0  0  0  0  0  0  0  0  0
  -32.2920  -14.3230   19.2150 O   0  0  0  0  0  0  0  0  0  0  0  0
  -31.0480  -15.1110   20.8890 N   0  0  0  0  0  0  0  0  0  0  0  0
  -30.2800  -14.9300   21.5160 H   0  0  0  0  0  0  0  0  0  0  0  0
  -25.7500  -13.9640   20.2320 C   0  0  0  0  0  0  0  0  0  0  0  0
  -24.6450  -13.2770   20.6530 C   0  0  0  0  0  0  0  0  0  0  0  0
  -24.9970  -11.8920   20.6040 C   0  0  0  0  0  0  0  0  0  0  0  0
  -26.7120  -13.0050   19.9540 N   0  0  0  0  0  0  0  0  0  0  0  0
  -26.2640  -11.7530   20.2350 N   0  0  0  0  0  0  0  0  0  0  0  0
  -24.1840  -10.6920   20.8360 C   0  0  0  0  0  0  0  0  0  0  0  0
  -24.5740   -9.7040   21.7670 C   0  0  0  0  0  3  0  0  0  0  0  0
  -23.7660   -8.5670   21.9840 C   0  0  0  0  0  3  0  0  0  0  0  0
  -22.5540   -8.4090   21.2720 C   0  0  0  0  0  0  0  0  0  0  0  0
  -22.1840   -9.3830   20.3260 C   0  0  0  0  0  3  0  0  0  0  0  0
  -22.9920  -10.5120   20.1080 C   0  0  0  0  0  3  0  0  0  0  0  0
  -21.7190   -7.3270   21.3990 O   0  0  0  0  0  0  0  0  0  0  0  0
  -21.6310   -6.6190   22.5710 C   0  0  0  0  0  0  0  0  0  0  0  0
  -21.2730   -7.2350   23.7910 C   0  0  0  0  0  3  0  0  0  0  0  0
  -21.1280   -6.4570   24.9570 C   0  0  0  0  0  3  0  0  0  0  0  0
  -21.3300   -5.0640   24.9050 C   0  0  0  0  0  0  0  0  0  0  0  0
  -21.6780   -4.4480   23.6890 C   0  0  0  0  0  3  0  0  0  0  0  0
  -21.8270   -5.2240   22.5260 C   0  0  0  0  0  0  0  0  0  0  0  0
  -22.1450   -4.6220   21.3540 F   0  0  0  0  0  0  0  0  0  0  0  0
  -21.1810   -4.3150   26.0210 F   0  0  0  0  0  0  0  0  0  0  0  0
  -23.3040  -13.8600   20.9930 C   0  0  0  0  0  0  0  0  0  0  0  0
  -22.5750  -13.2290   21.9040 N   0  0  0  0  0  0  0  0  0  0  0  0
  -22.9170  -14.9120   20.4840 O   0  0  0  0  0  0  0  0  0  0  0  0
  -22.9010  -12.3760   22.3360 H   0  0  0  0  0  0  0  0  0  0  0  0
  -21.6740  -13.5980   22.1700 H   0  0  0  0  0  0  0  0  0  0  0  0
  -26.0120  -15.3200   20.0410 N   0  0  0  0  0  0  0  0  0  0  0  0
  -25.3080  -16.0340   20.1910 H   0  0  0  0  0  0  0  0  0  0  0  0
  -26.8890  -15.6940   19.6990 H   0  0  0  0  0  0  0  0  0  0  0  0
  -30.4400  -23.1160   20.3640 C   0  0  0  0  0  3  0  0  0  0  0  0
  -29.7200  -24.4400   20.8440 C   0  0  0  0  0  3  0  0  0  0  0  0
  -28.3810  -25.1250   20.3770 C   0  0  0  0  0  2  0  0  0  0  0  0
  -28.4750  -26.5570   20.3900 O   0  0  0  0  0  0  0  0  0  0  0  0
  -24.5440  -31.7580   23.2430 C   0  0  0  0  0  0  0  0  0  0  0  0
  -27.2880  -27.2690   20.3120 C   0  0  0  0  0  0  0  0  0  0  0  0
  -23.3830  -30.3320   21.5840 C   0  0  0  0  0  3  0  0  0  0  0  0
  -24.8800  -28.7710   20.2270 C   0  0  0  0  0  0  0  0  0  0  0  0
  -25.9150  -30.6810   21.4600 C   0  0  0  0  0  2  0  0  0  0  0  0
  -26.0200  -29.3040   20.8400 C   0  0  0  0  0  0  0  0  0  0  0  0
  -27.2230  -28.5610   20.8780 C   0  0  0  0  0  3  0  0  0  0  0  0
  -26.1270  -26.7470   19.6900 C   0  0  0  0  0  3  0  0  0  0  0  0
  -24.9290  -27.4890   19.6500 C   0  0  0  0  0  3  0  0  0  0  0  0
  -23.6310  -29.6290   20.2220 C   0  0  0  0  0  2  0  0  0  0  0  0
  -24.6300  -30.9400   22.1540 N   0  0  0  0  0  0  0  0  0  0  0  0
  -23.4460  -32.0430   23.7440 O   0  0  0  0  0  0  0  0  0  0  0  0
  -22.7010  -29.3270   22.5420 C   0  0  0  0  0  0  0  0  0  0  0  0
  -21.3830  -29.1370   22.3700 N   0  0  0  0  0  0  0  0  0  0  0  0
  -23.3560  -28.7230   23.3960 O   0  0  0  0  0  0  0  0  0  0  0  0
  -20.9150  -29.6840   21.6600 H   0  0  0  0  0  0  0  0  0  0  0  0
  -18.0050  -27.9180   22.7490 C   0  0  0  0  0  0  0  0  0  0  0  0
  -20.5440  -28.2070   23.1270 C   0  0  0  0  0  3  0  0  0  0  0  0
  -20.6860  -26.7660   22.5920 C   0  0  0  0  0  2  0  0  0  0  0  0
  -19.6340  -26.4060   21.5370 C   0  0  0  0  0  2  0  0  0  0  0  0
  -18.2240  -26.5540   22.1160 C   0  0  0  0  0  2  0  0  0  0  0  0
  -19.0970  -28.7000   23.2100 C   0  0  0  0  0  0  0  0  0  0  0  0
  -18.8430  -29.9750   23.7580 C   0  0  0  0  0  3  0  0  0  0  0  0
  -17.5300  -30.4700   23.8550 C   0  0  0  0  0  3  0  0  0  0  0  0
  -16.4510  -29.6860   23.4130 C   0  0  0  0  0  3  0  0  0  0  0  0
  -16.6880  -28.4120   22.8670 C   0  0  0  0  0  3  0  0  0  0  0  0
  -25.8120  -32.3960   23.8950 C   0  0  0  0  0  3  0  0  0  0  0  0
  -25.4920  -33.7950   24.2110 N   0  0  0  0  0  0  0  0  0  0  0  0
  -25.8260  -34.8430   23.4480 C   0  0  0  0  0  0  0  0  0  0  0  0
  -26.5090  -34.7390   22.4260 O   0  0  0  0  0  0  0  0  0  0  0  0
  -24.8950  -33.9550   25.0080 H   0  0  0  0  0  0  0  0  0  0  0  0
  -24.0840  -36.6200   23.0640 C   0  0  0  0  0  1  0  0  0  0  0  0
  -25.3190  -36.2310   23.8910 C   0  0  0  0  0  3  0  0  0  0  0  0
  -27.4360  -37.1400   24.7370 C   0  0  0  0  0  1  0  0  0  0  0  0
  -26.3430  -37.2930   23.7840 N   0  0  0  0  0  0  0  0  0  0  0  0
  -25.9240  -38.2080   23.9260 H   0  0  0  0  0  0  0  0  0  0  0  0
  -26.3020  -31.6320   25.1860 C   0  0  1  0  0  0  0  0  0  0  0  0
  -25.1920  -31.3940   26.2340 C   0  0  0  0  0  1  0  0  0  0  0  0
  -26.9000  -30.2550   24.8070 C   0  0  0  0  0  1  0  0  0  0  0  0
  -27.4260  -32.4380   25.8790 C   0  0  0  0  0  1  0  0  0  0  0  0
  1 51  1  0
  2  1  1  0
  2 10  1  0
  3  1  2  0
  4  2  1  0
  5  8  1  0
  6  5  2  0
  6 10  1  0
  7  9  1  0
  8 12  1  0
  8  9  2  0
  9 11  1  0
 10  7  2  0
 13 21  1  0
 14 19  1  0
 15 16  1  0
 15 14  1  0
 17 16  1  0
 17 26  1  0
 17 18  1  0
 19 13  1  0
 19 18  1  0
 20 13  2  0
 21 12  1  0
 21 22  1  0
 23 24  2  0
 24 43  1  0
 25 24  1  0
 25 28  1  0
 26 23  1  0
 26 27  1  0
 27 25  2  0
 28 29  1  0
 29 30  2  0
 31 34  1  0
 31 30  1  0
 32 31  2  0
 33 32  1  0
 33 28  2  0
 34 35  1  0
 35 36  1  0
 36 37  2  0
 38 37  1  0
 38 42  1  0
 39 38  2  0
 40 35  2  0
 40 39  1  0
 41 40  1  0
 43 44  1  0
 44 47  1  0
 44 46  1  0
 45 43  2  0
 48 49  1  0
 48 23  1  0
 50 48  1  0
 51 52  2  0
 53 54  1  0
 53 52  1  0
 55 66  2  0
 56 54  1  0
 56 61  1  0
 57 65  1  0
 57 67  1  0
 58 60  1  0
 59 65  1  0
 60 61  2  0
 60 59  1  0
 62 56  2  0
 63 62  1  0
 63 58  2  0
 64 58  1  0
 64 57  1  0
 65 55  1  0
 67 69  2  0
 68 67  1  0
 70 68  1  0
 71 80  2  0
 71 76  1  0
 72 68  1  0
 72 76  1  0
 73 72  1  0
 74 75  1  0
 74 73  1  0
 75 71  1  0
 76 77  2  0
 77 78  1  0
 79 78  2  0
 80 79  1  0
 81 55  1  0
 81 82  1  0
 81 91  1  0
 82 85  1  0
 83 87  1  0
 83 82  1  0
 84 83  2  0
 87 86  1  0
 89 87  1  0
 89 90  1  0
 89 88  1  0
 91 94  1  1
 91 92  1  0
 93 91  1  0
M  ISO  4  13 100  21 100  53 101  54 101
M  END
>  <TORSDO>  (93) 
F 21

>  <SCORE>  (93) 
-12.426

>  <name>  (93) 
92

>  <ligand_id>  (93) 
92

>  <original_smiles>  (93) 
[H]c1c([H])c([H])c2c(c1[H])C([H])([H])C([H])([H])C([H])([H])C2([H])N([H])C(=O)C1([H])N(C(=O)C([H])(N([H])C(=O)C([H])(N([H])C([H])([H])[H])C([H])([H])[H])C(C([H])([H])[H])(C([H])([H])[H])C([H])([H])[H])C([H])([H])c2c([H])c(OC([H])([H])C([H])([H])C([H])([H])C(=O)N([H])c3c([H])c([H])c(C([H])([H])N([H])C(=O)N4C([H])([H])C([H])([H])C([H])([H])C([H])(n5nc(-c6c([H])c([H])c(Oc7c([H])c([H])c(F)c([H])c7F)c([H])c6[H])c(C(=O)N([H])[H])c5N([H])[H])C4([H])[H])c(C([H])([H])[H])c3[H])c([H])c([H])c2C1([H])[H]

>  <smiles>  (93) 
[H]c1c([H])c([H])c2c(c1[H])C([H])([H])C([H])([H])C([H])([H])C2([H])N([H])C(=O)C1([H])N(C(=O)C([H])(N([H])C(=O)C([H])(N([H])C([H])([H])[H])C([H])([H])[H])C(C([H])([H])[H])(C([H])([H])[H])C([H])([H])[H])C([H])([H])c2c([H])c(OC([H])([H])C([H])([H])C([H])([H])C(=O)N([H])c3c([H])c([H])c(C([H])([H])N([H])C(=O)N4C([H])([H])C([H])([H])C([H])([H])C([H])(n5nc(-c6c([H])c([H])c(Oc7c([H])c([H])c(F)c([H])c7F)c([H])c6[H])c(C(=O)N([H])[H])c5N([H])[H])C4([H])[H])c(C([H])([H])[H])c3[H])c([H])c([H])c2C1([H])[H]

$$$$
93:0:0
     RDKit          3D

 97105  0  0  1  0  0  0  0  0999 V2000
  -30.9900  -17.4580   18.4010 C   0  0  0  0  0  3  0  0  0  0  0  0
  -32.1470  -17.8370   20.5050 C   0  0  0  0  0  3  0  0  0  0  0  0
  -31.3790  -16.9830   19.6710 C   0  0  0  0  0  0  0  0  0  0  0  0
  -31.2390  -18.7950   18.0360 C   0  0  0  0  0  0  0  0  0  0  0  0
  -32.3700  -19.2000   20.1660 C   0  0  0  0  0  0  0  0  0  0  0  0
  -31.8420  -19.7010   18.9440 C   0  0  0  0  0  0  0  0  0  0  0  0
  -31.5070  -14.5520   19.8600 C   0  0  0  0  0  0  0  0  0  0  0  0
  -31.2120  -12.2760   18.9110 C   0  0  0  0  0  2  0  0  0  0  0  0
  -30.2380  -12.3300   17.7090 C   0  0  0  0  0  2  0  0  0  0  0  0
  -28.7620  -12.2540   18.1660 C   0  0  0  0  0  2  0  0  0  0  0  0
  -28.4670  -13.2140   19.3480 C   0  0  0  0  0  3  0  0  0  0  0  0
  -29.5370  -12.9880   20.4430 C   0  0  0  0  0  2  0  0  0  0  0  0
  -30.8310  -13.3540   19.8490 N   0  0  0  0  0  0  0  0  0  0  0  0
  -32.6450  -14.6010   19.3700 O   0  0  0  0  0  0  0  0  0  0  0  0
  -30.8590  -15.7370   20.1770 N   0  0  0  0  0  0  0  0  0  0  0  0
  -26.1300  -14.0160   20.0880 C   0  0  0  0  0  0  0  0  0  0  0  0
  -25.0220  -13.3290   20.5020 C   0  0  0  0  0  0  0  0  0  0  0  0
  -25.3860  -11.9490   20.4810 C   0  0  0  0  0  0  0  0  0  0  0  0
  -27.1080  -13.0570   19.8570 N   0  0  0  0  0  0  0  0  0  0  0  0
  -26.6610  -11.8080   20.1420 N   0  0  0  0  0  0  0  0  0  0  0  0
  -24.5780  -10.7460   20.7020 C   0  0  0  0  0  0  0  0  0  0  0  0
  -24.9400   -9.7900   21.6760 C   0  0  0  0  0  3  0  0  0  0  0  0
  -24.1440   -8.6440   21.8840 C   0  0  0  0  0  3  0  0  0  0  0  0
  -22.9660   -8.4530   21.1200 C   0  0  0  0  0  0  0  0  0  0  0  0
  -22.6250   -9.3960   20.1350 C   0  0  0  0  0  3  0  0  0  0  0  0
  -23.4220  -10.5320   19.9270 C   0  0  0  0  0  3  0  0  0  0  0  0
  -22.1420   -7.3590   21.2380 O   0  0  0  0  0  0  0  0  0  0  0  0
  -21.9540   -6.7260   22.4410 C   0  0  0  0  0  0  0  0  0  0  0  0
  -21.4390   -7.4030   23.5690 C   0  0  0  0  0  3  0  0  0  0  0  0
  -21.2000   -6.6980   24.7640 C   0  0  0  0  0  3  0  0  0  0  0  0
  -21.4630   -5.3170   24.8310 C   0  0  0  0  0  0  0  0  0  0  0  0
  -21.9650   -4.6400   23.7070 C   0  0  0  0  0  3  0  0  0  0  0  0
  -22.2070   -5.3420   22.5140 C   0  0  0  0  0  0  0  0  0  0  0  0
  -22.6740   -4.6800   21.4270 F   0  0  0  0  0  0  0  0  0  0  0  0
  -21.2250   -4.6370   25.9760 F   0  0  0  0  0  0  0  0  0  0  0  0
  -23.6710  -13.9080   20.8030 C   0  0  0  0  0  0  0  0  0  0  0  0
  -22.9320  -13.2980   21.7250 N   0  0  0  0  0  0  0  0  0  0  0  0
  -23.2790  -14.9320   20.2490 O   0  0  0  0  0  0  0  0  0  0  0  0
  -23.2660  -12.4690   22.1960 H   0  0  0  0  0  0  0  0  0  0  0  0
  -22.0220  -13.6660   21.9590 H   0  0  0  0  0  0  0  0  0  0  0  0
  -26.3750  -15.3680   19.8730 N   0  0  0  0  0  0  0  0  0  0  0  0
  -25.6550  -16.0680   20.0050 H   0  0  0  0  0  0  0  0  0  0  0  0
  -27.2360  -15.7450   19.5040 H   0  0  0  0  0  0  0  0  0  0  0  0
  -29.7280  -15.8960   21.1370 C   0  0  0  0  0  2  0  0  0  0  0  0
  -28.1630  -17.9080   21.2400 C   0  0  0  0  0  2  0  0  0  0  0  0
  -28.5440  -16.7470   20.6840 C   0  0  0  0  0  3  0  0  0  0  0  0
  -30.8540  -19.2480   16.7750 N   0  0  0  0  0  0  0  0  0  0  0  0
  -30.9110  -18.5710   16.0200 H   0  0  0  0  0  0  0  0  0  0  0  0
  -31.2790  -20.1300   16.5080 H   0  0  0  0  0  0  0  0  0  0  0  0
  -33.8040  -19.5310   22.0720 C   0  0  0  0  0  1  0  0  0  0  0  0
  -33.0710  -20.0660   20.9790 O   0  0  0  0  0  0  0  0  0  0  0  0
  -31.9200  -21.0280   18.5540 O   0  0  0  0  0  0  0  0  0  0  0  0
  -31.6630  -22.0640   19.5160 C   0  0  0  0  0  2  0  0  0  0  0  0
  -30.9390  -23.2230   18.7990 C   0  0  0  0  0  2  0  0  0  0  0  0
  -30.5810  -24.4440   19.6820 C   0  0  0  0  0  2  0  0  0  0  0  0
  -29.9790  -25.5990   18.8510 C   0  0  0  0  0  2  0  0  0  0  0  0
  -29.6960  -26.7400   19.6750 O   0  0  0  0  0  0  0  0  0  0  0  0
  -25.4200  -30.8830   23.5330 C   0  0  0  0  0  0  0  0  0  0  0  0
  -28.4440  -27.3300   19.7300 C   0  0  0  0  0  0  0  0  0  0  0  0
  -24.3570  -29.7940   21.5810 C   0  0  0  0  0  3  0  0  0  0  0  0
  -25.9490  -28.6650   19.9440 C   0  0  0  0  0  0  0  0  0  0  0  0
  -26.8590  -30.3230   21.5810 C   0  0  0  0  0  2  0  0  0  0  0  0
  -27.0510  -29.1210   20.6750 C   0  0  0  0  0  0  0  0  0  0  0  0
  -28.2930  -28.4580   20.5710 C   0  0  0  0  0  3  0  0  0  0  0  0
  -27.3120  -26.8760   19.0090 C   0  0  0  0  0  3  0  0  0  0  0  0
  -26.0740  -27.5390   19.1130 C   0  0  0  0  0  3  0  0  0  0  0  0
  -24.6550  -29.4280   20.1040 C   0  0  0  0  0  2  0  0  0  0  0  0
  -25.5600  -30.3370   22.2940 N   0  0  0  0  0  0  0  0  0  0  0  0
  -24.3070  -30.9800   24.0700 O   0  0  0  0  0  0  0  0  0  0  0  0
  -23.7390  -28.5640   22.2810 C   0  0  0  0  0  0  0  0  0  0  0  0
  -22.4500  -28.3040   22.0070 N   0  0  0  0  0  0  0  0  0  0  0  0
  -24.4200  -27.8530   23.0230 O   0  0  0  0  0  0  0  0  0  0  0  0
  -21.9570  -28.9410   21.3960 H   0  0  0  0  0  0  0  0  0  0  0  0
  -19.1910  -26.7490   21.9450 C   0  0  0  0  0  0  0  0  0  0  0  0
  -21.6730  -27.1780   22.5200 C   0  0  0  0  0  3  0  0  0  0  0  0
  -21.9760  -25.8870   21.7280 C   0  0  0  0  0  2  0  0  0  0  0  0
  -21.0070  -25.6540   20.5630 C   0  0  0  0  0  2  0  0  0  0  0  0
  -19.5660  -25.5620   21.0730 C   0  0  0  0  0  2  0  0  0  0  0  0
  -20.1820  -27.5170   22.6120 C   0  0  0  0  0  0  0  0  0  0  0  0
  -19.7840  -28.6310   23.3820 C   0  0  0  0  0  3  0  0  0  0  0  0
  -18.4260  -28.9820   23.4900 C   0  0  0  0  0  3  0  0  0  0  0  0
  -17.4460  -28.2100   22.8370 C   0  0  0  0  0  3  0  0  0  0  0  0
  -17.8300  -27.0950   22.0720 C   0  0  0  0  0  3  0  0  0  0  0  0
  -26.6440  -31.4370   24.3280 C   0  0  0  0  0  3  0  0  0  0  0  0
  -27.1060  -30.4870   25.5010 C   0  0  1  0  0  0  0  0  0  0  0  0
  -25.9590  -30.0630   26.4470 C   0  0  0  0  0  1  0  0  0  0  0  0
  -27.7540  -29.1980   24.9420 C   0  0  0  0  0  1  0  0  0  0  0  0
  -28.1890  -31.1920   26.3530 C   0  0  0  0  0  1  0  0  0  0  0  0
  -26.2680  -32.7590   24.8460 N   0  0  0  0  0  0  0  0  0  0  0  0
  -26.6400  -33.9230   24.2980 C   0  0  0  0  0  0  0  0  0  0  0  0
  -27.4050  -33.9950   23.3310 O   0  0  0  0  0  0  0  0  0  0  0  0
  -25.5870  -32.7740   25.5900 H   0  0  0  0  0  0  0  0  0  0  0  0
  -24.9110  -35.7360   24.0650 C   0  0  0  0  0  1  0  0  0  0  0  0
  -26.0740  -35.2120   24.9220 C   0  0  0  0  0  3  0  0  0  0  0  0
  -28.0850  -35.9700   26.1100 C   0  0  0  0  0  1  0  0  0  0  0  0
  -27.0850  -36.2790   25.0900 N   0  0  0  0  0  0  0  0  0  0  0  0
  -26.6420  -37.1590   25.3380 H   0  0  0  0  0  0  0  0  0  0  0  0
  1  3  1  0
  3 15  1  0
  3  2  2  0
  4  1  2  0
  4  6  1  0
  5  2  1  0
  5 51  1  0
  6  5  2  0
  7 15  1  0
  8 13  1  0
  9 10  1  0
  9  8  1  0
 11 10  1  0
 11 19  1  0
 11 12  1  0
 13  7  1  0
 13 12  1  0
 14  7  2  0
 15 44  1  0
 16 17  2  0
 17 36  1  0
 18 17  1  0
 18 21  1  0
 19 16  1  0
 19 20  1  0
 20 18  2  0
 21 22  1  0
 22 23  2  0
 24 27  1  0
 24 23  1  0
 25 24  2  0
 26 25  1  0
 26 21  2  0
 27 28  1  0
 28 33  2  0
 28 29  1  0
 29 30  2  0
 30 31  1  0
 31 35  1  0
 32 31  2  0
 33 32  1  0
 34 33  1  0
 36 37  1  0
 37 40  1  0
 37 39  1  0
 38 36  2  0
 41 42  1  0
 41 16  1  0
 43 41  1  0
 46 44  1  0
 46 45  2  0
 47  4  1  0
 48 47  1  0
 49 47  1  0
 51 50  1  0
 52  6  1  0
 52 53  1  0
 54 53  1  0
 54 55  1  0
 56 57  1  0
 56 55  1  0
 57 59  1  0
 58 69  2  0
 59 64  1  0
 60 70  1  0
 60 68  1  0
 61 67  1  0
 61 63  1  0
 62 68  1  0
 63 62  1  0
 64 63  2  0
 65 66  1  0
 65 59  2  0
 66 61  2  0
 67 60  1  0
 68 58  1  0
 70 72  2  0
 71 70  1  0
 73 71  1  0
 74 83  2  0
 74 79  1  0
 75 71  1  0
 75 79  1  0
 76 75  1  0
 77 78  1  0
 77 76  1  0
 78 74  1  0
 79 80  2  0
 80 81  1  0
 82 81  2  0
 83 82  1  0
 84 58  1  0
 84 89  1  0
 84 85  1  0
 85 88  1  1
 85 86  1  0
 87 85  1  0
 89 92  1  0
 90 89  1  0
 90 94  1  0
 91 90  2  0
 94 93  1  0
 94 96  1  0
 96 97  1  0
 96 95  1  0
M  ISO  4   7 100  15 100  56 101  57 101
M  END
>  <TORSDO>  (94) 
F 25

>  <SCORE>  (94) 
-8.313

>  <name>  (94) 
93

>  <ligand_id>  (94) 
93

>  <original_smiles>  (94) 
[H]C([H])=C([H])C([H])([H])N(C(=O)N1C([H])([H])C([H])([H])C([H])([H])C([H])(n2nc(-c3c([H])c([H])c(Oc4c([H])c([H])c(F)c([H])c4F)c([H])c3[H])c(C(=O)N([H])[H])c2N([H])[H])C1([H])[H])c1c([H])c(OC([H])([H])[H])c(OC([H])([H])C([H])([H])C([H])([H])C([H])([H])Oc2c([H])c([H])c3c(c2[H])C([H])([H])N(C(=O)C([H])(N([H])C(=O)C([H])(N([H])C([H])([H])[H])C([H])([H])[H])C(C([H])([H])[H])(C([H])([H])[H])C([H])([H])[H])C([H])(C(=O)N([H])C2([H])c4c([H])c([H])c([H])c([H])c4C([H])([H])C([H])([H])C2([H])[H])C3([H])[H])c(N([H])[H])c1[H]

>  <smiles>  (94) 
[H]C([H])=C([H])C([H])([H])N(C(=O)N1C([H])([H])C([H])([H])C([H])([H])C([H])(n2nc(-c3c([H])c([H])c(Oc4c([H])c([H])c(F)c([H])c4F)c([H])c3[H])c(C(=O)N([H])[H])c2N([H])[H])C1([H])[H])c1c([H])c(OC([H])([H])[H])c(OC([H])([H])C([H])([H])C([H])([H])C([H])([H])Oc2c([H])c([H])c3c(c2[H])C([H])([H])N(C(=O)C([H])(N([H])C(=O)C([H])(N([H])C([H])([H])[H])C([H])([H])[H])C(C([H])([H])[H])(C([H])([H])[H])C([H])([H])[H])C([H])(C(=O)N([H])C2([H])c4c([H])c([H])c([H])c([H])c4C([H])([H])C([H])([H])C2([H])[H])C3([H])[H])c(N([H])[H])c1[H]

$$$$
94:0:0
     RDKit          3D

 99108  0  0  1  0  0  0  0  0999 V2000
  -31.2240  -20.1200   20.2180 C   0  0  0  0  0  3  0  0  0  0  0  0
  -31.7000  -17.7250   20.3210 C   0  0  0  0  0  3  0  0  0  0  0  0
  -29.3730  -18.4990   20.3230 C   0  0  0  0  0  0  0  0  0  0  0  0
  -29.8300  -19.9060   20.2600 C   0  0  0  0  0  0  0  0  0  0  0  0
  -32.1420  -19.0580   20.2540 C   0  0  0  0  0  0  0  0  0  0  0  0
  -30.3260  -17.3700   20.3460 C   0  0  0  0  0  0  0  0  0  0  0  0
  -30.6470  -14.7410   20.0880 C   0  0  0  0  0  0  0  0  0  0  0  0
  -30.3130  -12.5160   19.0090 C   0  0  0  0  0  2  0  0  0  0  0  0
  -29.3240  -12.6580   17.8330 C   0  0  0  0  0  2  0  0  0  0  0  0
  -27.8760  -12.4880   18.3300 C   0  0  0  0  0  2  0  0  0  0  0  0
  -27.5740  -13.3310   19.5990 C   0  0  0  0  0  3  0  0  0  0  0  0
  -28.6890  -13.2050   20.6610 C   0  0  0  0  0  2  0  0  0  0  0  0
  -29.9600  -13.5490   20.0130 N   0  0  0  0  0  0  0  0  0  0  0  0
  -31.8130  -14.7690   19.6950 O   0  0  0  0  0  0  0  0  0  0  0  0
  -29.9570  -15.9100   20.4050 N   0  0  0  0  0  0  0  0  0  0  0  0
  -28.9940  -15.7500   20.6730 H   0  0  0  0  0  0  0  0  0  0  0  0
  -25.2170  -13.8940   20.4370 C   0  0  0  0  0  0  0  0  0  0  0  0
  -24.1680  -13.1090   20.8300 C   0  0  0  0  0  0  0  0  0  0  0  0
  -24.6350  -11.7610   20.7580 C   0  0  0  0  0  0  0  0  0  0  0  0
  -26.2550  -13.0250   20.1460 N   0  0  0  0  0  0  0  0  0  0  0  0
  -25.9140  -11.7350   20.4010 N   0  0  0  0  0  0  0  0  0  0  0  0
  -23.9190  -10.4950   20.9560 C   0  0  0  0  0  0  0  0  0  0  0  0
  -24.3600   -9.5320   21.8900 C   0  0  0  0  0  3  0  0  0  0  0  0
  -23.6410   -8.3320   22.0760 C   0  0  0  0  0  3  0  0  0  0  0  0
  -22.4660   -8.0850   21.3280 C   0  0  0  0  0  0  0  0  0  0  0  0
  -22.0430   -9.0360   20.3820 C   0  0  0  0  0  3  0  0  0  0  0  0
  -22.7620  -10.2280   20.1940 C   0  0  0  0  0  3  0  0  0  0  0  0
  -21.7170   -6.9370   21.4220 O   0  0  0  0  0  0  0  0  0  0  0  0
  -21.6360   -6.2260   22.5920 C   0  0  0  0  0  0  0  0  0  0  0  0
  -21.1690   -6.8110   23.7890 C   0  0  0  0  0  3  0  0  0  0  0  0
  -21.0350   -6.0250   24.9510 C   0  0  0  0  0  3  0  0  0  0  0  0
  -21.3590   -4.6560   24.9180 C   0  0  0  0  0  0  0  0  0  0  0  0
  -21.8210   -4.0710   23.7240 C   0  0  0  0  0  3  0  0  0  0  0  0
  -21.9550   -4.8540   22.5650 C   0  0  0  0  0  0  0  0  0  0  0  0
  -22.3800   -4.2800   21.4130 F   0  0  0  0  0  0  0  0  0  0  0  0
  -21.2240   -3.8990   26.0310 F   0  0  0  0  0  0  0  0  0  0  0  0
  -22.7840  -13.5790   21.1700 C   0  0  0  0  0  0  0  0  0  0  0  0
  -22.0960  -12.8690   22.0580 N   0  0  0  0  0  0  0  0  0  0  0  0
  -22.3230  -14.6130   20.6880 O   0  0  0  0  0  0  0  0  0  0  0  0
  -22.4830  -12.0320   22.4680 H   0  0  0  0  0  0  0  0  0  0  0  0
  -21.1700  -13.1660   22.3310 H   0  0  0  0  0  0  0  0  0  0  0  0
  -25.3590  -15.2680   20.2910 N   0  0  0  0  0  0  0  0  0  0  0  0
  -24.6060  -15.8890   20.5630 H   0  0  0  0  0  0  0  0  0  0  0  0
  -26.2590  -15.7440   20.2830 H   0  0  0  0  0  0  0  0  0  0  0  0
  -28.3300  -23.1490   21.4460 C   0  0  0  0  0  2  0  0  0  0  0  0
  -28.8480  -21.7010   21.6310 C   0  0  0  0  0  2  0  0  0  0  0  0
  -29.2010  -22.3110   19.3980 C   0  0  0  0  0  2  0  0  0  0  0  0
  -29.0260  -23.6910   20.1880 C   0  0  0  0  0  3  0  0  0  0  0  0
  -29.0150  -21.1180   20.2990 N   0  0  0  0  0  0  0  0  0  0  0  0
  -28.2820  -24.9370   19.4660 C   0  0  0  0  0  2  0  0  0  0  0  0
  -28.4080  -26.3760   19.8900 O   0  0  0  0  0  0  0  0  0  0  0  0
  -24.5460  -31.6650   23.0110 C   0  0  0  0  0  0  0  0  0  0  0  0
  -27.2900  -27.2440   19.8200 C   0  0  0  0  0  0  0  0  0  0  0  0
  -23.3920  -30.2880   21.3210 C   0  0  0  0  0  3  0  0  0  0  0  0
  -24.8900  -28.8310   19.8450 C   0  0  0  0  0  0  0  0  0  0  0  0
  -25.9260  -30.6690   21.1690 C   0  0  0  0  0  2  0  0  0  0  0  0
  -26.0450  -29.3140   20.4750 C   0  0  0  0  0  0  0  0  0  0  0  0
  -27.2430  -28.5290   20.4590 C   0  0  0  0  0  3  0  0  0  0  0  0
  -26.1160  -26.8490   19.1340 C   0  0  0  0  0  3  0  0  0  0  0  0
  -24.9320  -27.6060   19.1650 C   0  0  0  0  0  3  0  0  0  0  0  0
  -23.6300  -29.6700   19.9190 C   0  0  0  0  0  2  0  0  0  0  0  0
  -24.6400  -30.8920   21.8900 N   0  0  0  0  0  0  0  0  0  0  0  0
  -23.4530  -31.8970   23.5470 O   0  0  0  0  0  0  0  0  0  0  0  0
  -22.7530  -29.2200   22.2430 C   0  0  0  0  0  0  0  0  0  0  0  0
  -21.4260  -29.0390   22.1340 N   0  0  0  0  0  0  0  0  0  0  0  0
  -23.4510  -28.5620   23.0180 O   0  0  0  0  0  0  0  0  0  0  0  0
  -20.9210  -29.6240   21.4830 H   0  0  0  0  0  0  0  0  0  0  0  0
  -18.0610  -27.8190   22.6680 C   0  0  0  0  0  0  0  0  0  0  0  0
  -20.6270  -28.0600   22.8740 C   0  0  0  0  0  3  0  0  0  0  0  0
  -20.7080  -26.6630   22.2160 C   0  0  0  0  0  2  0  0  0  0  0  0
  -19.5750  -26.3990   21.2200 C   0  0  0  0  0  2  0  0  0  0  0  0
  -18.2140  -26.5080   21.9120 C   0  0  0  0  0  2  0  0  0  0  0  0
  -19.1940  -28.5550   23.1050 C   0  0  0  0  0  0  0  0  0  0  0  0
  -18.9970  -29.7800   23.7750 C   0  0  0  0  0  3  0  0  0  0  0  0
  -17.6990  -30.2730   24.0100 C   0  0  0  0  0  3  0  0  0  0  0  0
  -16.5810  -29.5330   23.5880 C   0  0  0  0  0  3  0  0  0  0  0  0
  -16.7620  -28.3070   22.9220 C   0  0  0  0  0  3  0  0  0  0  0  0
  -25.8080  -32.3140   23.6590 C   0  0  0  0  0  3  0  0  0  0  0  0
  -26.3440  -31.5150   24.9110 C   0  0  1  0  0  0  0  0  0  0  0  0
  -25.2560  -31.2170   25.9700 C   0  0  0  0  0  1  0  0  0  0  0  0
  -26.9610  -30.1660   24.4770 C   0  0  0  0  0  1  0  0  0  0  0  0
  -27.4730  -32.3160   25.5990 C   0  0  0  0  0  1  0  0  0  0  0  0
  -25.4530  -33.6900   24.0380 N   0  0  0  0  0  0  0  0  0  0  0  0
  -25.7600  -34.7810   23.3230 C   0  0  0  0  0  0  0  0  0  0  0  0
  -26.4370  -34.7370   22.2930 O   0  0  0  0  0  0  0  0  0  0  0  0
  -24.8500  -33.7970   24.8410 H   0  0  0  0  0  0  0  0  0  0  0  0
  -23.9790  -36.5350   23.0290 C   0  0  0  0  0  1  0  0  0  0  0  0
  -25.2290  -36.1360   23.8300 C   0  0  0  0  0  3  0  0  0  0  0  0
  -27.3310  -37.0520   24.7070 C   0  0  0  0  0  1  0  0  0  0  0  0
  -26.2300  -37.2230   23.7650 N   0  0  0  0  0  0  0  0  0  0  0  0
  -25.7960  -38.1250   23.9450 H   0  0  0  0  0  0  0  0  0  0  0  0
  -27.8880  -18.1800   20.3830 C   0  0  0  0  0  0  0  0  0  0  0  0
  -27.0420  -19.0970   19.9360 N   0  0  0  0  0  0  0  0  0  0  0  0
  -27.4690  -17.0870   20.7700 O   0  0  0  0  0  0  0  0  0  0  0  0
  -27.4340  -20.0110   19.7220 H   0  0  0  0  0  0  0  0  0  0  0  0
  -26.0460  -18.9420   19.9340 H   0  0  0  0  0  0  0  0  0  0  0  0
  -33.5130  -19.3280   20.2330 N   0  0  0  0  0  0  0  0  0  0  0  0
  -33.8440  -20.2680   20.4330 H   0  0  0  0  0  0  0  0  0  0  0  0
  -34.1680  -18.6060   20.5140 H   0  0  0  0  0  0  0  0  0  0  0  0
  1  5  2  0
  1  4  1  0
  2  6  2  0
  3  6  1  0
  3 92  1  0
  4 49  1  0
  4  3  2  0
  5  2  1  0
  6 15  1  0
  7 15  1  0
  8 13  1  0
  9 10  1  0
  9  8  1  0
 11 10  1  0
 11 20  1  0
 11 12  1  0
 13  7  1  0
 13 12  1  0
 14  7  2  0
 15 16  1  0
 17 18  2  0
 18 37  1  0
 19 18  1  0
 19 22  1  0
 20 21  1  0
 20 17  1  0
 21 19  2  0
 22 23  1  0
 23 24  2  0
 25 28  1  0
 25 24  1  0
 26 25  2  0
 27 26  1  0
 27 22  2  0
 28 29  1  0
 29 30  1  0
 30 31  2  0
 32 31  1  0
 32 36  1  0
 33 32  2  0
 34 29  2  0
 34 33  1  0
 35 34  1  0
 37 38  1  0
 38 41  1  0
 38 40  1  0
 39 37  2  0
 42 17  1  0
 42 43  1  0
 44 42  1  0
 45 46  1  0
 47 48  1  0
 47 49  1  0
 48 50  1  0
 48 45  1  0
 49 46  1  0
 50 51  1  0
 52 63  2  0
 53 51  1  0
 53 58  1  0
 54 62  1  0
 54 64  1  0
 55 61  1  0
 55 57  1  0
 56 62  1  0
 57 56  1  0
 58 57  2  0
 59 60  1  0
 59 53  2  0
 60 55  2  0
 61 54  1  0
 62 52  1  0
 64 66  2  0
 65 64  1  0
 67 65  1  0
 68 77  2  0
 68 73  1  0
 69 65  1  0
 69 73  1  0
 70 69  1  0
 71 72  1  0
 71 70  1  0
 72 68  1  0
 73 74  2  0
 74 75  1  0
 76 75  2  0
 77 76  1  0
 78 52  1  0
 78 83  1  0
 78 79  1  0
 79 82  1  1
 79 80  1  0
 81 79  1  0
 83 86  1  0
 84 88  1  0
 84 83  1  0
 85 84  2  0
 88 87  1  0
 90 88  1  0
 90 91  1  0
 90 89  1  0
 92 94  2  0
 93 92  1  0
 95 93  1  0
 96 93  1  0
 97  5  1  0
 97 98  1  0
 97 99  1  0
M  ISO  4   7 100  15 100  50 101  51 101
M  END
>  <TORSDO>  (95) 
F 20

>  <SCORE>  (95) 
-14.278

>  <name>  (95) 
94

>  <ligand_id>  (95) 
94

>  <original_smiles>  (95) 
[H]c1c([H])c([H])c2c(c1[H])C([H])([H])C([H])([H])C([H])([H])C2([H])N([H])C(=O)C1([H])N(C(=O)C([H])(N([H])C(=O)C([H])(N([H])C([H])([H])[H])C([H])([H])[H])C(C([H])([H])[H])(C([H])([H])[H])C([H])([H])[H])C([H])([H])c2c([H])c(OC([H])([H])C3([H])C([H])([H])N(c4c([H])c(N([H])[H])c([H])c(N([H])C(=O)N5C([H])([H])C([H])([H])C([H])([H])C([H])(n6nc(-c7c([H])c([H])c(Oc8c([H])c([H])c(F)c([H])c8F)c([H])c7[H])c(C(=O)N([H])[H])c6N([H])[H])C5([H])[H])c4C(=O)N([H])[H])C([H])([H])C3([H])[H])c([H])c([H])c2C1([H])[H]

>  <smiles>  (95) 
[H]c1c([H])c([H])c2c(c1[H])C([H])([H])C([H])([H])C([H])([H])C2([H])N([H])C(=O)C1([H])N(C(=O)C([H])(N([H])C(=O)C([H])(N([H])C([H])([H])[H])C([H])([H])[H])C(C([H])([H])[H])(C([H])([H])[H])C([H])([H])[H])C([H])([H])c2c([H])c(OC([H])([H])C3([H])C([H])([H])N(c4c([H])c(N([H])[H])c([H])c(N([H])C(=O)N5C([H])([H])C([H])([H])C([H])([H])C([H])(n6nc(-c7c([H])c([H])c(Oc8c([H])c([H])c(F)c([H])c8F)c([H])c7[H])c(C(=O)N([H])[H])c6N([H])[H])C5([H])[H])c4C(=O)N([H])[H])C([H])([H])C3([H])[H])c([H])c([H])c2C1([H])[H]

$$$$
95:0:0
     RDKit          3D

 96104  0  0  1  0  0  0  0  0999 V2000
  -29.9020  -17.1670   20.0070 C   0  0  0  0  0  3  0  0  0  0  0  0
  -31.0030  -17.7570   22.0860 C   0  0  0  0  0  3  0  0  0  0  0  0
  -30.6530  -16.7610   21.1380 C   0  0  0  0  0  0  0  0  0  0  0  0
  -29.4890  -18.5040   19.8380 C   0  0  0  0  0  0  0  0  0  0  0  0
  -30.5770  -19.0920   21.9390 C   0  0  0  0  0  0  0  0  0  0  0  0
  -29.8120  -19.4760   20.8120 C   0  0  0  0  0  0  0  0  0  0  0  0
  -30.8590  -20.0070   22.9530 N   0  0  0  0  0  0  0  0  0  0  0  0
  -31.0760  -19.6440   23.8750 H   0  0  0  0  0  0  0  0  0  0  0  0
  -30.2650  -20.8270   22.9890 H   0  0  0  0  0  0  0  0  0  0  0  0
  -31.0140  -15.3270   21.3920 C   0  0  0  0  0  0  0  0  0  0  0  0
  -31.1060  -14.8560   22.5690 N   0  0  0  0  0  0  0  0  0  0  0  0
  -30.8860  -15.5600   23.2620 H   0  0  0  0  0  0  0  0  0  0  0  0
  -31.3080  -14.4760   20.1610 C   0  0  0  0  0  0  0  0  0  0  0  0
  -30.7520  -12.4960   18.7970 C   0  0  0  0  0  2  0  0  0  0  0  0
  -29.7640  -12.8450   17.6670 C   0  0  0  0  0  2  0  0  0  0  0  0
  -28.3100  -12.7440   18.1640 C   0  0  0  0  0  2  0  0  0  0  0  0
  -28.0880  -13.5090   19.4940 C   0  0  0  0  0  3  0  0  0  0  0  0
  -29.1740  -13.1360   20.5270 C   0  0  0  0  0  2  0  0  0  0  0  0
  -30.5020  -13.3970   19.9340 N   0  0  0  0  0  0  0  0  0  0  0  0
  -32.2770  -14.7600   19.4480 O   0  0  0  0  0  0  0  0  0  0  0  0
  -25.7460  -14.1960   20.3190 C   0  0  0  0  0  0  0  0  0  0  0  0
  -24.6650  -13.4580   20.7170 C   0  0  0  0  0  0  0  0  0  0  0  0
  -25.0680  -12.0890   20.6330 C   0  0  0  0  0  0  0  0  0  0  0  0
  -26.7440  -13.2800   20.0220 N   0  0  0  0  0  0  0  0  0  0  0  0
  -26.3390  -12.0070   20.2650 N   0  0  0  0  0  0  0  0  0  0  0  0
  -24.3000  -10.8520   20.8280 C   0  0  0  0  0  0  0  0  0  0  0  0
  -24.7230   -9.8550   21.7350 C   0  0  0  0  0  3  0  0  0  0  0  0
  -23.9590   -8.6830   21.9180 C   0  0  0  0  0  3  0  0  0  0  0  0
  -22.7570   -8.4990   21.1940 C   0  0  0  0  0  0  0  0  0  0  0  0
  -22.3520   -9.4840   20.2760 C   0  0  0  0  0  3  0  0  0  0  0  0
  -23.1160  -10.6490   20.0910 C   0  0  0  0  0  3  0  0  0  0  0  0
  -21.9650   -7.3810   21.2860 O   0  0  0  0  0  0  0  0  0  0  0  0
  -21.8980   -6.6390   22.4380 C   0  0  0  0  0  0  0  0  0  0  0  0
  -21.5160   -7.2110   23.6710 C   0  0  0  0  0  3  0  0  0  0  0  0
  -21.3940   -6.3990   24.8160 C   0  0  0  0  0  3  0  0  0  0  0  0
  -21.6420   -5.0150   24.7280 C   0  0  0  0  0  0  0  0  0  0  0  0
  -22.0170   -4.4430   23.5000 C   0  0  0  0  0  3  0  0  0  0  0  0
  -22.1410   -5.2530   22.3580 C   0  0  0  0  0  0  0  0  0  0  0  0
  -22.4810   -4.6940   21.1720 F   0  0  0  0  0  0  0  0  0  0  0  0
  -21.5170   -4.2330   25.8260 F   0  0  0  0  0  0  0  0  0  0  0  0
  -23.3010  -13.9830   21.0670 C   0  0  0  0  0  0  0  0  0  0  0  0
  -22.5890  -13.2960   21.9530 N   0  0  0  0  0  0  0  0  0  0  0  0
  -22.8790  -15.0350   20.5900 O   0  0  0  0  0  0  0  0  0  0  0  0
  -22.9430  -12.4440   22.3600 H   0  0  0  0  0  0  0  0  0  0  0  0
  -21.6750  -13.6310   22.2300 H   0  0  0  0  0  0  0  0  0  0  0  0
  -25.9590  -15.5630   20.1660 N   0  0  0  0  0  0  0  0  0  0  0  0
  -25.2260  -16.2450   20.3290 H   0  0  0  0  0  0  0  0  0  0  0  0
  -26.8200  -15.9770   19.8330 H   0  0  0  0  0  0  0  0  0  0  0  0
  -27.1860  -18.4980   18.7810 C   0  0  0  0  0  1  0  0  0  0  0  0
  -28.6640  -18.8670   18.6130 C   0  0  0  0  0  2  0  0  0  0  0  0
  -29.2430  -20.7230   20.7070 O   0  0  0  0  0  0  0  0  0  0  0  0
  -30.0920  -21.8610   20.5830 C   0  0  0  0  0  2  0  0  0  0  0  0
  -29.1590  -22.9510   20.0330 C   0  0  0  0  0  2  0  0  0  0  0  0
  -29.5940  -24.4230   20.2070 C   0  0  0  0  0  2  0  0  0  0  0  0
  -28.4360  -25.3270   19.7480 C   0  0  0  0  0  2  0  0  0  0  0  0
  -28.5650  -26.7230   20.0490 O   0  0  0  0  0  0  0  0  0  0  0  0
  -24.6860  -31.8140   23.1700 C   0  0  0  0  0  0  0  0  0  0  0  0
  -27.3880  -27.4520   20.0190 C   0  0  0  0  0  0  0  0  0  0  0  0
  -23.5010  -30.4250   21.5040 C   0  0  0  0  0  3  0  0  0  0  0  0
  -24.9740  -28.9380   20.0570 C   0  0  0  0  0  0  0  0  0  0  0  0
  -26.0250  -30.8140   21.3230 C   0  0  0  0  0  2  0  0  0  0  0  0
  -26.1260  -29.4570   20.6590 C   0  0  0  0  0  0  0  0  0  0  0  0
  -27.3350  -28.7210   20.6410 C   0  0  0  0  0  3  0  0  0  0  0  0
  -26.2120  -26.9640   19.3940 C   0  0  0  0  0  3  0  0  0  0  0  0
  -25.0110  -27.6890   19.4230 C   0  0  0  0  0  3  0  0  0  0  0  0
  -23.7210  -29.7780   20.1140 C   0  0  0  0  0  2  0  0  0  0  0  0
  -24.7550  -31.0310   22.0570 N   0  0  0  0  0  0  0  0  0  0  0  0
  -23.5990  -32.0660   23.7100 O   0  0  0  0  0  0  0  0  0  0  0  0
  -22.8600  -29.3790   22.4430 C   0  0  0  0  0  0  0  0  0  0  0  0
  -21.5400  -29.1730   22.3000 N   0  0  0  0  0  0  0  0  0  0  0  0
  -23.5460  -28.7550   23.2580 O   0  0  0  0  0  0  0  0  0  0  0  0
  -21.0470  -29.7300   21.6160 H   0  0  0  0  0  0  0  0  0  0  0  0
  -18.1860  -27.9000   22.7300 C   0  0  0  0  0  0  0  0  0  0  0  0
  -20.7320  -28.2130   23.0500 C   0  0  0  0  0  3  0  0  0  0  0  0
  -20.8770  -26.7860   22.4690 C   0  0  0  0  0  2  0  0  0  0  0  0
  -19.8010  -26.4450   21.4340 C   0  0  0  0  0  2  0  0  0  0  0  0
  -18.4050  -26.5580   22.0520 C   0  0  0  0  0  2  0  0  0  0  0  0
  -19.2800  -28.6850   23.1840 C   0  0  0  0  0  0  0  0  0  0  0  0
  -19.0230  -29.9410   23.7740 C   0  0  0  0  0  3  0  0  0  0  0  0
  -17.7040  -30.4130   23.9170 C   0  0  0  0  0  3  0  0  0  0  0  0
  -16.6250  -29.6250   23.4810 C   0  0  0  0  0  3  0  0  0  0  0  0
  -16.8670  -28.3710   22.8930 C   0  0  0  0  0  3  0  0  0  0  0  0
  -25.9630  -32.4500   23.8020 C   0  0  0  0  0  3  0  0  0  0  0  0
  -25.6360  -33.8370   24.1580 N   0  0  0  0  0  0  0  0  0  0  0  0
  -25.9460  -34.9060   23.4110 C   0  0  0  0  0  0  0  0  0  0  0  0
  -26.6090  -34.8300   22.3730 O   0  0  0  0  0  0  0  0  0  0  0  0
  -25.0480  -33.9710   24.9670 H   0  0  0  0  0  0  0  0  0  0  0  0
  -24.1770  -36.6670   23.1030 C   0  0  0  0  0  1  0  0  0  0  0  0
  -25.4380  -36.2780   23.8920 C   0  0  0  0  0  3  0  0  0  0  0  0
  -27.5680  -37.1900   24.7040 C   0  0  0  0  0  1  0  0  0  0  0  0
  -26.4480  -37.3520   23.7800 N   0  0  0  0  0  0  0  0  0  0  0  0
  -26.0270  -38.2610   23.9500 H   0  0  0  0  0  0  0  0  0  0  0  0
  -26.4930  -31.6600   25.0610 C   0  0  1  0  0  0  0  0  0  0  0  0
  -25.4050  -31.3850   26.1250 C   0  0  0  0  0  1  0  0  0  0  0  0
  -27.0930  -30.3000   24.6380 C   0  0  0  0  0  1  0  0  0  0  0  0
  -27.6340  -32.4560   25.7370 C   0  0  0  0  0  1  0  0  0  0  0  0
  1  3  1  0
  3 10  1  0
  3  2  2  0
  4  1  2  0
  4  6  1  0
  5  2  1  0
  5  7  1  0
  6  5  2  0
  7  9  1  0
  7  8  1  0
 10 11  2  0
 11 12  1  0
 13 10  1  0
 14 19  1  0
 15 16  1  0
 15 14  1  0
 17 16  1  0
 17 24  1  0
 17 18  1  0
 19 13  1  0
 19 18  1  0
 20 13  2  0
 21 22  2  0
 22 41  1  0
 23 22  1  0
 23 26  1  0
 24 25  1  0
 24 21  1  0
 25 23  2  0
 26 27  1  0
 27 28  2  0
 29 32  1  0
 29 28  1  0
 30 29  2  0
 31 30  1  0
 31 26  2  0
 32 33  1  0
 33 34  1  0
 34 35  2  0
 36 35  1  0
 36 40  1  0
 37 36  2  0
 38 33  2  0
 38 37  1  0
 39 38  1  0
 41 42  1  0
 42 45  1  0
 42 44  1  0
 43 41  2  0
 46 21  1  0
 46 47  1  0
 48 46  1  0
 50 49  1  0
 50  4  1  0
 51  6  1  0
 52 51  1  0
 53 54  1  0
 53 52  1  0
 55 56  1  0
 55 54  1  0
 57 68  2  0
 58 56  1  0
 58 63  1  0
 59 67  1  0
 59 69  1  0
 60 66  1  0
 60 62  1  0
 61 67  1  0
 62 61  1  0
 63 62  2  0
 64 65  1  0
 64 58  2  0
 65 60  2  0
 66 59  1  0
 67 57  1  0
 69 71  2  0
 70 69  1  0
 72 70  1  0
 73 82  2  0
 73 78  1  0
 74 70  1  0
 74 78  1  0
 75 74  1  0
 76 77  1  0
 76 75  1  0
 77 73  1  0
 78 79  2  0
 79 80  1  0
 81 80  2  0
 82 81  1  0
 83 57  1  0
 83 84  1  0
 83 93  1  0
 84 87  1  0
 85 89  1  0
 85 84  1  0
 86 85  2  0
 89 88  1  0
 91 89  1  0
 91 92  1  0
 91 90  1  0
 93 96  1  1
 93 94  1  0
 95 93  1  0
M  ISO  4  10 100  13 100  55 101  56 101
M  END
>  <TORSDO>  (96) 
F 24

>  <SCORE>  (96) 
-11.871

>  <name>  (96) 
95

>  <ligand_id>  (96) 
95

>  <original_smiles>  (96) 
[H]N=C(C(=O)N1C([H])([H])C([H])([H])C([H])([H])C([H])(n2nc(-c3c([H])c([H])c(Oc4c([H])c([H])c(F)c([H])c4F)c([H])c3[H])c(C(=O)N([H])[H])c2N([H])[H])C1([H])[H])c1c([H])c(N([H])[H])c(OC([H])([H])C([H])([H])C([H])([H])C([H])([H])Oc2c([H])c([H])c3c(c2[H])C([H])([H])N(C(=O)C([H])(N([H])C(=O)C([H])(N([H])C([H])([H])[H])C([H])([H])[H])C(C([H])([H])[H])(C([H])([H])[H])C([H])([H])[H])C([H])(C(=O)N([H])C2([H])c4c([H])c([H])c([H])c([H])c4C([H])([H])C([H])([H])C2([H])[H])C3([H])[H])c(C([H])([H])C([H])([H])[H])c1[H]

>  <smiles>  (96) 
[H]N=C(C(=O)N1C([H])([H])C([H])([H])C([H])([H])C([H])(n2nc(-c3c([H])c([H])c(Oc4c([H])c([H])c(F)c([H])c4F)c([H])c3[H])c(C(=O)N([H])[H])c2N([H])[H])C1([H])[H])c1c([H])c(N([H])[H])c(OC([H])([H])C([H])([H])C([H])([H])C([H])([H])Oc2c([H])c([H])c3c(c2[H])C([H])([H])N(C(=O)C([H])(N([H])C(=O)C([H])(N([H])C([H])([H])[H])C([H])([H])[H])C(C([H])([H])[H])(C([H])([H])[H])C([H])([H])[H])C([H])(C(=O)N([H])C2([H])c4c([H])c([H])c([H])c([H])c4C([H])([H])C([H])([H])C2([H])[H])C3([H])[H])c(C([H])([H])C([H])([H])[H])c1[H]

$$$$
96:0:0
     RDKit          3D

101110  0  0  1  0  0  0  0  0999 V2000
  -29.2120  -18.4330   21.1220 C   0  0  0  0  0  3  0  0  0  0  0  0
  -30.9950  -20.1360   19.7790 C   0  0  0  0  0  3  0  0  0  0  0  0
  -30.5390  -18.0040   20.9140 C   0  0  0  0  0  0  0  0  0  0  0  0
  -29.6870  -20.5900   20.0550 C   0  0  0  0  0  0  0  0  0  0  0  0
  -28.7820  -19.7060   20.6930 C   0  0  0  0  0  0  0  0  0  0  0  0
  -31.4190  -18.8510   20.1900 C   0  0  0  0  0  0  0  0  0  0  0  0
  -29.0100  -24.2750   19.8540 C   0  0  0  0  0  0  0  0  0  0  0  0
  -29.1280  -23.0320   20.4080 C   0  0  0  0  0  0  0  0  0  0  0  0
  -29.1890  -24.4130   18.3730 C   0  0  0  0  0  0  0  0  0  0  0  0
  -29.2700  -23.1420   17.5150 C   0  0  0  0  0  2  0  0  0  0  0  0
  -28.8030  -21.8850   18.2560 C   0  0  0  0  0  2  0  0  0  0  0  0
  -29.0310  -22.8130   21.9170 C   0  0  0  0  0  1  0  0  0  0  0  0
  -29.2920  -21.8780   19.6290 N   0  0  0  0  0  0  0  0  0  0  0  0
  -29.3410  -25.4870   17.7850 O   0  0  0  0  0  0  0  0  0  0  0  0
  -28.6720  -25.5200   20.7090 C   0  0  0  0  0  2  0  0  0  0  0  0
  -28.6950  -26.8160   20.0810 O   0  0  0  0  0  0  0  0  0  0  0  0
  -24.5700  -31.7210   23.2200 C   0  0  0  0  0  0  0  0  0  0  0  0
  -27.5010  -27.5030   20.0940 C   0  0  0  0  0  0  0  0  0  0  0  0
  -23.4850  -30.3320   21.4860 C   0  0  0  0  0  3  0  0  0  0  0  0
  -25.0490  -28.9080   20.0710 C   0  0  0  0  0  0  0  0  0  0  0  0
  -25.9980  -30.8060   21.3910 C   0  0  0  0  0  2  0  0  0  0  0  0
  -26.1670  -29.4630   20.7080 C   0  0  0  0  0  0  0  0  0  0  0  0
  -27.4010  -28.7720   20.7080 C   0  0  0  0  0  3  0  0  0  0  0  0
  -26.3590  -26.9530   19.4760 C   0  0  0  0  0  3  0  0  0  0  0  0
  -25.1390  -27.6510   19.4540 C   0  0  0  0  0  3  0  0  0  0  0  0
  -23.7720  -29.7140   20.0940 C   0  0  0  0  0  2  0  0  0  0  0  0
  -24.7010  -30.9660   22.0930 N   0  0  0  0  0  0  0  0  0  0  0  0
  -23.4600  -31.9260   23.7290 O   0  0  0  0  0  0  0  0  0  0  0  0
  -22.8420  -29.2500   22.3840 C   0  0  0  0  0  0  0  0  0  0  0  0
  -21.5260  -29.0400   22.2230 N   0  0  0  0  0  0  0  0  0  0  0  0
  -23.5270  -28.6030   23.1820 O   0  0  0  0  0  0  0  0  0  0  0  0
  -21.0320  -29.6220   21.5580 H   0  0  0  0  0  0  0  0  0  0  0  0
  -18.1730  -27.7510   22.6250 C   0  0  0  0  0  0  0  0  0  0  0  0
  -20.7230  -28.0420   22.9300 C   0  0  0  0  0  3  0  0  0  0  0  0
  -20.8550  -26.6470   22.2750 C   0  0  0  0  0  2  0  0  0  0  0  0
  -19.7670  -26.3620   21.2350 C   0  0  0  0  0  2  0  0  0  0  0  0
  -18.3800  -26.4460   21.8760 C   0  0  0  0  0  2  0  0  0  0  0  0
  -19.2740  -28.5080   23.1050 C   0  0  0  0  0  0  0  0  0  0  0  0
  -19.0270  -29.7320   23.7640 C   0  0  0  0  0  3  0  0  0  0  0  0
  -17.7120  -30.2000   23.9460 C   0  0  0  0  0  3  0  0  0  0  0  0
  -16.6250  -29.4410   23.4790 C   0  0  0  0  0  3  0  0  0  0  0  0
  -16.8570  -28.2160   22.8270 C   0  0  0  0  0  3  0  0  0  0  0  0
  -25.8050  -32.3830   23.9090 C   0  0  0  0  0  3  0  0  0  0  0  0
  -25.4530  -33.7800   24.1930 N   0  0  0  0  0  0  0  0  0  0  0  0
  -25.8280  -34.8270   23.4450 C   0  0  0  0  0  0  0  0  0  0  0  0
  -26.5730  -34.7170   22.4680 O   0  0  0  0  0  0  0  0  0  0  0  0
  -24.8020  -33.9400   24.9490 H   0  0  0  0  0  0  0  0  0  0  0  0
  -24.0980  -36.5810   22.9460 C   0  0  0  0  0  1  0  0  0  0  0  0
  -25.2900  -36.2150   23.8440 C   0  0  0  0  0  3  0  0  0  0  0  0
  -27.3470  -37.1540   24.8010 C   0  0  0  0  0  1  0  0  0  0  0  0
  -26.3120  -37.2820   23.7780 N   0  0  0  0  0  0  0  0  0  0  0  0
  -25.8830  -38.1970   23.8740 H   0  0  0  0  0  0  0  0  0  0  0  0
  -26.2550  -31.6390   25.2250 C   0  0  1  0  0  0  0  0  0  0  0  0
  -25.0990  -31.3720   26.2190 C   0  0  0  0  0  1  0  0  0  0  0  0
  -26.9040  -30.2790   24.8830 C   0  0  0  0  0  1  0  0  0  0  0  0
  -27.3300  -32.4750   25.9590 C   0  0  0  0  0  1  0  0  0  0  0  0
  -27.4680  -20.1030   20.9360 N   0  0  0  0  0  0  0  0  0  0  0  0
  -26.9610  -19.6310   21.6760 H   0  0  0  0  0  0  0  0  0  0  0  0
  -27.3450  -21.1100   20.9540 H   0  0  0  0  0  0  0  0  0  0  0  0
  -32.7090  -18.4460   19.8550 N   0  0  0  0  0  0  0  0  0  0  0  0
  -33.1210  -18.9190   19.0560 H   0  0  0  0  0  0  0  0  0  0  0  0
  -32.8690  -17.4430   19.8120 H   0  0  0  0  0  0  0  0  0  0  0  0
  -30.9950  -16.6880   21.5600 C   0  0  0  0  0  2  0  0  0  0  0  0
  -30.8980  -14.5800   20.2410 C   0  0  0  0  0  0  0  0  0  0  0  0
  -30.4770  -12.5600   18.8920 C   0  0  0  0  0  2  0  0  0  0  0  0
  -29.4620  -12.8900   17.7790 C   0  0  0  0  0  2  0  0  0  0  0  0
  -28.0150  -12.7410   18.2860 C   0  0  0  0  0  2  0  0  0  0  0  0
  -27.7770  -13.4600   19.6410 C   0  0  0  0  0  3  0  0  0  0  0  0
  -28.8920  -13.1020   20.6510 C   0  0  0  0  0  2  0  0  0  0  0  0
  -30.1850  -13.4420   20.0310 N   0  0  0  0  0  0  0  0  0  0  0  0
  -31.9580  -14.8280   19.6620 O   0  0  0  0  0  0  0  0  0  0  0  0
  -30.3420  -15.4660   21.0780 N   0  0  0  0  0  0  0  0  0  0  0  0
  -29.4550  -15.2140   21.4890 H   0  0  0  0  0  0  0  0  0  0  0  0
  -25.4180  -14.0350   20.5020 C   0  0  0  0  0  0  0  0  0  0  0  0
  -24.3660  -13.2430   20.8760 C   0  0  0  0  0  0  0  0  0  0  0  0
  -24.8190  -11.8940   20.7450 C   0  0  0  0  0  0  0  0  0  0  0  0
  -26.4470  -13.1660   20.1710 N   0  0  0  0  0  0  0  0  0  0  0  0
  -26.0920  -11.8720   20.3720 N   0  0  0  0  0  0  0  0  0  0  0  0
  -24.1010  -10.6230   20.8970 C   0  0  0  0  0  0  0  0  0  0  0  0
  -24.5410   -9.6320   21.8010 C   0  0  0  0  0  3  0  0  0  0  0  0
  -23.8240   -8.4250   21.9460 C   0  0  0  0  0  3  0  0  0  0  0  0
  -22.6530   -8.2000   21.1840 C   0  0  0  0  0  0  0  0  0  0  0  0
  -22.2330   -9.1800   20.2660 C   0  0  0  0  0  3  0  0  0  0  0  0
  -22.9510  -10.3780   20.1210 C   0  0  0  0  0  3  0  0  0  0  0  0
  -21.9060   -7.0480   21.2400 O   0  0  0  0  0  0  0  0  0  0  0  0
  -21.8080   -6.3090   22.3910 C   0  0  0  0  0  0  0  0  0  0  0  0
  -21.2810   -6.8530   23.5830 C   0  0  0  0  0  3  0  0  0  0  0  0
  -21.1350   -6.0380   24.7230 C   0  0  0  0  0  3  0  0  0  0  0  0
  -21.5040   -4.6810   24.6720 C   0  0  0  0  0  0  0  0  0  0  0  0
  -22.0210   -4.1360   23.4830 C   0  0  0  0  0  3  0  0  0  0  0  0
  -22.1700   -4.9470   22.3450 C   0  0  0  0  0  0  0  0  0  0  0  0
  -22.6510   -4.4130   21.1970 F   0  0  0  0  0  0  0  0  0  0  0  0
  -21.3550   -3.8950   25.7640 F   0  0  0  0  0  0  0  0  0  0  0  0
  -22.9840  -13.7010   21.2450 C   0  0  0  0  0  0  0  0  0  0  0  0
  -22.3060  -12.9600   22.1160 N   0  0  0  0  0  0  0  0  0  0  0  0
  -22.5150  -14.7470   20.7980 O   0  0  0  0  0  0  0  0  0  0  0  0
  -22.7000  -12.1100   22.4920 H   0  0  0  0  0  0  0  0  0  0  0  0
  -21.3840  -13.2430   22.4120 H   0  0  0  0  0  0  0  0  0  0  0  0
  -25.5840  -15.4140   20.3940 N   0  0  0  0  0  0  0  0  0  0  0  0
  -24.8510  -16.0750   20.6240 H   0  0  0  0  0  0  0  0  0  0  0  0
  -26.4200  -15.8610   20.0360 H   0  0  0  0  0  0  0  0  0  0  0  0
  2  4  2  0
  2  6  1  0
  3  1  1  0
  3 63  1  0
  4  5  1  0
  5 57  1  0
  5  1  2  0
  6  3  2  0
  7  8  2  0
  7 15  1  0
  8 12  1  0
  9  7  1  0
 10 11  1  0
 10  9  1  0
 11 13  1  0
 13  4  1  0
 13  8  1  0
 14  9  2  0
 16 18  1  0
 16 15  1  0
 17 28  2  0
 18 23  1  0
 19 27  1  0
 19 29  1  0
 20 26  1  0
 20 22  1  0
 21 27  1  0
 22 21  1  0
 23 22  2  0
 24 18  2  0
 25 24  1  0
 25 20  2  0
 26 19  1  0
 27 17  1  0
 29 31  2  0
 30 29  1  0
 32 30  1  0
 33 42  2  0
 33 38  1  0
 34 30  1  0
 34 38  1  0
 35 34  1  0
 36 37  1  0
 36 35  1  0
 37 33  1  0
 38 39  2  0
 39 40  1  0
 41 40  2  0
 42 41  1  0
 43 17  1  0
 43 44  1  0
 43 53  1  0
 44 47  1  0
 45 49  1  0
 45 44  1  0
 46 45  2  0
 49 48  1  0
 51 49  1  0
 51 52  1  0
 51 50  1  0
 53 56  1  1
 53 54  1  0
 55 53  1  0
 57 59  1  0
 57 58  1  0
 60  6  1  0
 61 60  1  0
 62 60  1  0
 64 72  1  0
 65 70  1  0
 66 67  1  0
 66 65  1  0
 68 67  1  0
 68 77  1  0
 68 69  1  0
 70 64  1  0
 70 69  1  0
 71 64  2  0
 72 73  1  0
 72 63  1  0
 74 75  2  0
 75 94  1  0
 76 75  1  0
 76 79  1  0
 77 78  1  0
 77 74  1  0
 78 76  2  0
 79 80  1  0
 80 81  2  0
 82 85  1  0
 82 81  1  0
 83 82  2  0
 84 83  1  0
 84 79  2  0
 85 86  1  0
 86 87  1  0
 87 88  2  0
 89 88  1  0
 89 93  1  0
 90 89  2  0
 91 86  2  0
 91 90  1  0
 92 91  1  0
 94 95  1  0
 95 98  1  0
 95 97  1  0
 96 94  2  0
 99 74  1  0
 99100  1  0
101 99  1  0
M  ISO  4  15 101  16 101  64 100  72 100
M  END
>  <TORSDO>  (97) 
F 21

>  <SCORE>  (97) 
-13.253

>  <name>  (97) 
96

>  <ligand_id>  (97) 
96

>  <original_smiles>  (97) 
[H]c1c([H])c([H])c2c(c1[H])C([H])([H])C([H])([H])C([H])([H])C2([H])N([H])C(=O)C1([H])N(C(=O)C([H])(N([H])C(=O)C([H])(N([H])C([H])([H])[H])C([H])([H])[H])C(C([H])([H])[H])(C([H])([H])[H])C([H])([H])[H])C([H])([H])c2c([H])c(OC([H])([H])C3=C(C([H])([H])[H])N(c4c([H])c(N([H])[H])c(C([H])([H])N([H])C(=O)N5C([H])([H])C([H])([H])C([H])([H])C([H])(n6nc(-c7c([H])c([H])c(Oc8c([H])c([H])c(F)c([H])c8F)c([H])c7[H])c(C(=O)N([H])[H])c6N([H])[H])C5([H])[H])c([H])c4N([H])[H])C([H])([H])C([H])([H])C3=O)c([H])c([H])c2C1([H])[H]

>  <smiles>  (97) 
[H]c1c([H])c([H])c2c(c1[H])C([H])([H])C([H])([H])C([H])([H])C2([H])N([H])C(=O)C1([H])N(C(=O)C([H])(N([H])C(=O)C([H])(N([H])C([H])([H])[H])C([H])([H])[H])C(C([H])([H])[H])(C([H])([H])[H])C([H])([H])[H])C([H])([H])c2c([H])c(OC([H])([H])C3=C(C([H])([H])[H])N(c4c([H])c(N([H])[H])c(C([H])([H])N([H])C(=O)N5C([H])([H])C([H])([H])C([H])([H])C([H])(n6nc(-c7c([H])c([H])c(Oc8c([H])c([H])c(F)c([H])c8F)c([H])c7[H])c(C(=O)N([H])[H])c6N([H])[H])C5([H])[H])c([H])c4N([H])[H])C([H])([H])C([H])([H])C3=O)c([H])c([H])c2C1([H])[H]

$$$$
97:0:0
     RDKit          3D

 97106  0  0  1  0  0  0  0  0999 V2000
  -29.8500  -22.9650   20.0650 C   0  0  0  0  0  0  0  0  0  0  0  0
  -30.6680  -20.6610   20.0030 C   0  0  0  0  0  0  0  0  0  0  0  0
  -27.4970  -22.6460   20.0870 C   0  0  0  0  0  2  0  0  0  0  0  0
  -28.2570  -21.3080   20.2790 C   0  0  0  0  0  2  0  0  0  0  0  0
  -28.5370  -23.7550   20.3110 C   0  0  0  0  0  3  0  0  0  0  0  0
  -29.6860  -21.6150   20.1520 N   0  0  0  0  0  0  0  0  0  0  0  0
  -30.9220  -23.5540   19.8830 O   0  0  0  0  0  0  0  0  0  0  0  0
  -31.6290  -20.8040   19.2390 O   0  0  0  0  0  0  0  0  0  0  0  0
  -30.5680  -19.4790   22.2490 C   0  0  0  0  0  3  0  0  0  0  0  0
  -30.7770  -18.0770   20.2450 C   0  0  0  0  0  3  0  0  0  0  0  0
  -30.7380  -17.0570   22.4600 C   0  0  0  0  0  3  0  0  0  0  0  0
  -30.6240  -19.3810   20.8370 C   0  0  0  0  0  0  0  0  0  0  0  0
  -30.6300  -18.3240   23.0550 C   0  0  0  0  0  0  0  0  0  0  0  0
  -30.8260  -16.9040   21.0610 C   0  0  0  0  0  0  0  0  0  0  0  0
  -31.4920  -14.5560   20.1430 C   0  0  0  0  0  0  0  0  0  0  0  0
  -31.1090  -12.4050   18.9580 C   0  0  0  0  0  2  0  0  0  0  0  0
  -30.1370  -12.6710   17.7860 C   0  0  0  0  0  2  0  0  0  0  0  0
  -28.6620  -12.6540   18.2470 C   0  0  0  0  0  2  0  0  0  0  0  0
  -28.4210  -13.4710   19.5410 C   0  0  0  0  0  3  0  0  0  0  0  0
  -29.4800  -13.1190   20.6110 C   0  0  0  0  0  2  0  0  0  0  0  0
  -30.8080  -13.3790   20.0180 N   0  0  0  0  0  0  0  0  0  0  0  0
  -32.6390  -14.7200   19.7070 O   0  0  0  0  0  0  0  0  0  0  0  0
  -30.6900  -15.5460   20.6150 N   0  0  0  0  0  0  0  0  0  0  0  0
  -29.8270  -15.1260   20.9220 H   0  0  0  0  0  0  0  0  0  0  0  0
  -26.1090  -14.2840   20.3200 C   0  0  0  0  0  0  0  0  0  0  0  0
  -24.9760  -13.6070   20.6870 C   0  0  0  0  0  0  0  0  0  0  0  0
  -25.3050  -12.2190   20.6080 C   0  0  0  0  0  0  0  0  0  0  0  0
  -27.0600  -13.3120   20.0430 N   0  0  0  0  0  0  0  0  0  0  0  0
  -26.5800  -12.0630   20.2720 N   0  0  0  0  0  0  0  0  0  0  0  0
  -24.4650  -11.0280   20.7820 C   0  0  0  0  0  0  0  0  0  0  0  0
  -24.8160  -10.0080   21.6940 C   0  0  0  0  0  3  0  0  0  0  0  0
  -23.9880   -8.8770   21.8540 C   0  0  0  0  0  3  0  0  0  0  0  0
  -22.7930   -8.7620   21.1070 C   0  0  0  0  0  0  0  0  0  0  0  0
  -22.4590   -9.7700   20.1860 C   0  0  0  0  0  3  0  0  0  0  0  0
  -23.2860  -10.8950   20.0220 C   0  0  0  0  0  3  0  0  0  0  0  0
  -21.9370   -7.6900   21.1810 O   0  0  0  0  0  0  0  0  0  0  0  0
  -21.7990   -6.9600   22.3340 C   0  0  0  0  0  0  0  0  0  0  0  0
  -21.4240   -7.5590   23.5570 C   0  0  0  0  0  3  0  0  0  0  0  0
  -21.2230   -6.7610   24.7000 C   0  0  0  0  0  3  0  0  0  0  0  0
  -21.3870   -5.3630   24.6210 C   0  0  0  0  0  0  0  0  0  0  0  0
  -21.7560   -4.7650   23.4020 C   0  0  0  0  0  3  0  0  0  0  0  0
  -21.9580   -5.5610   22.2620 C   0  0  0  0  0  0  0  0  0  0  0  0
  -22.2920   -4.9780   21.0850 F   0  0  0  0  0  0  0  0  0  0  0  0
  -21.1850   -4.5940   25.7150 F   0  0  0  0  0  0  0  0  0  0  0  0
  -23.6370  -14.2130   20.9960 C   0  0  0  0  0  0  0  0  0  0  0  0
  -22.8710  -13.5980   21.8870 N   0  0  0  0  0  0  0  0  0  0  0  0
  -23.2820  -15.2720   20.4770 O   0  0  0  0  0  0  0  0  0  0  0  0
  -23.1600  -12.7430   22.3410 H   0  0  0  0  0  0  0  0  0  0  0  0
  -21.9710  -13.9950   22.1180 H   0  0  0  0  0  0  0  0  0  0  0  0
  -26.4010  -15.6380   20.1720 N   0  0  0  0  0  0  0  0  0  0  0  0
  -25.6980  -16.3520   20.3120 H   0  0  0  0  0  0  0  0  0  0  0  0
  -27.2730  -16.0130   19.8210 H   0  0  0  0  0  0  0  0  0  0  0  0
  -30.5710  -18.4200   24.4480 N   0  0  0  0  0  0  0  0  0  0  0  0
  -30.2590  -19.2710   24.9040 H   0  0  0  0  0  0  0  0  0  0  0  0
  -30.4730  -17.5830   25.0220 H   0  0  0  0  0  0  0  0  0  0  0  0
  -28.3020  -25.1040   19.5060 C   0  0  0  0  0  2  0  0  0  0  0  0
  -28.1670  -26.3530   20.2610 O   0  0  0  0  0  0  0  0  0  0  0  0
  -24.5080  -31.7570   23.2440 C   0  0  0  0  0  0  0  0  0  0  0  0
  -27.0110  -27.1370   20.2240 C   0  0  0  0  0  0  0  0  0  0  0  0
  -23.2610  -30.3660   21.6300 C   0  0  0  0  0  3  0  0  0  0  0  0
  -24.6640  -28.7660   20.2170 C   0  0  0  0  0  0  0  0  0  0  0  0
  -25.8020  -30.6330   21.4230 C   0  0  0  0  0  2  0  0  0  0  0  0
  -25.8420  -29.2470   20.7980 C   0  0  0  0  0  0  0  0  0  0  0  0
  -27.0130  -28.4400   20.7980 C   0  0  0  0  0  3  0  0  0  0  0  0
  -25.7980  -26.6810   19.6540 C   0  0  0  0  0  3  0  0  0  0  0  0
  -24.6420  -27.4870   19.6400 C   0  0  0  0  0  3  0  0  0  0  0  0
  -23.4490  -29.6710   20.2560 C   0  0  0  0  0  2  0  0  0  0  0  0
  -24.5430  -30.9330   22.1570 N   0  0  0  0  0  0  0  0  0  0  0  0
  -23.4350  -32.0670   23.7840 O   0  0  0  0  0  0  0  0  0  0  0  0
  -22.5820  -29.3770   22.6040 C   0  0  0  0  0  0  0  0  0  0  0  0
  -21.2550  -29.2140   22.4750 N   0  0  0  0  0  0  0  0  0  0  0  0
  -23.2480  -28.7590   23.4400 O   0  0  0  0  0  0  0  0  0  0  0  0
  -20.7740  -29.7730   21.7800 H   0  0  0  0  0  0  0  0  0  0  0  0
  -17.8680  -28.0460   22.9490 C   0  0  0  0  0  0  0  0  0  0  0  0
  -20.4200  -28.3060   23.2640 C   0  0  0  0  0  3  0  0  0  0  0  0
  -20.5290  -26.8540   22.7410 C   0  0  0  0  0  2  0  0  0  0  0  0
  -19.4440  -26.5000   21.7170 C   0  0  0  0  0  2  0  0  0  0  0  0
  -18.0530  -26.6680   22.3330 C   0  0  0  0  0  2  0  0  0  0  0  0
  -18.9810  -28.8180   23.3740 C   0  0  0  0  0  0  0  0  0  0  0  0
  -18.7530  -30.1030   23.9130 C   0  0  0  0  0  3  0  0  0  0  0  0
  -17.4490  -30.6160   24.0350 C   0  0  0  0  0  3  0  0  0  0  0  0
  -16.3500  -29.8430   23.6230 C   0  0  0  0  0  3  0  0  0  0  0  0
  -16.5610  -28.5590   23.0860 C   0  0  0  0  0  3  0  0  0  0  0  0
  -25.8100  -32.3680   23.8460 C   0  0  0  0  0  3  0  0  0  0  0  0
  -26.3300  -31.5890   25.1170 C   0  0  1  0  0  0  0  0  0  0  0  0
  -25.2460  -31.3590   26.1940 C   0  0  0  0  0  1  0  0  0  0  0  0
  -26.8890  -30.2040   24.7160 C   0  0  0  0  0  1  0  0  0  0  0  0
  -27.5040  -32.3620   25.7610 C   0  0  0  0  0  1  0  0  0  0  0  0
  -25.5320  -33.7730   24.1790 N   0  0  0  0  0  0  0  0  0  0  0  0
  -25.8800  -34.8200   23.4180 C   0  0  0  0  0  0  0  0  0  0  0  0
  -26.5430  -34.7040   22.3850 O   0  0  0  0  0  0  0  0  0  0  0  0
  -24.9470  -33.9420   24.9850 H   0  0  0  0  0  0  0  0  0  0  0  0
  -24.1800  -36.6400   23.0740 C   0  0  0  0  0  1  0  0  0  0  0  0
  -25.4210  -36.2160   23.8770 C   0  0  0  0  0  3  0  0  0  0  0  0
  -27.5790  -37.0610   24.6850 C   0  0  0  0  0  1  0  0  0  0  0  0
  -26.4700  -37.2520   23.7530 N   0  0  0  0  0  0  0  0  0  0  0  0
  -26.0810  -38.1790   23.9110 H   0  0  0  0  0  0  0  0  0  0  0  0
  1  6  1  0
  1  5  1  0
  2  6  1  0
  2 12  1  0
  3  4  1  0
  3  5  1  0
  5 56  1  0
  6  4  1  0
  7  1  2  0
  8  2  2  0
  9 13  1  0
 10 12  1  0
 10 14  2  0
 11 13  2  0
 12  9  2  0
 13 53  1  0
 14 11  1  0
 15 23  1  0
 16 21  1  0
 17 18  1  0
 17 16  1  0
 19 18  1  0
 19 28  1  0
 19 20  1  0
 21 15  1  0
 21 20  1  0
 22 15  2  0
 23 24  1  0
 23 14  1  0
 25 26  2  0
 26 45  1  0
 27 26  1  0
 27 30  1  0
 28 29  1  0
 28 25  1  0
 29 27  2  0
 30 31  1  0
 31 32  2  0
 33 36  1  0
 33 32  1  0
 34 33  2  0
 35 34  1  0
 35 30  2  0
 36 37  1  0
 37 38  1  0
 38 39  2  0
 40 39  1  0
 40 44  1  0
 41 40  2  0
 42 37  2  0
 42 41  1  0
 43 42  1  0
 45 46  1  0
 46 49  1  0
 46 48  1  0
 47 45  2  0
 50 51  1  0
 50 25  1  0
 52 50  1  0
 53 54  1  0
 53 55  1  0
 56 57  1  0
 58 69  2  0
 59 57  1  0
 59 64  1  0
 60 68  1  0
 60 70  1  0
 61 67  1  0
 61 63  1  0
 62 68  1  0
 63 62  1  0
 64 63  2  0
 65 59  2  0
 66 65  1  0
 66 61  2  0
 67 60  1  0
 68 58  1  0
 70 72  2  0
 71 70  1  0
 73 71  1  0
 74 83  2  0
 74 79  1  0
 75 71  1  0
 75 79  1  0
 76 75  1  0
 77 78  1  0
 77 76  1  0
 78 74  1  0
 79 80  2  0
 80 81  1  0
 82 81  2  0
 83 82  1  0
 84 58  1  0
 84 89  1  0
 84 85  1  0
 85 88  1  1
 85 86  1  0
 87 85  1  0
 89 92  1  0
 90 94  1  0
 90 89  1  0
 91 90  2  0
 94 93  1  0
 96 94  1  0
 96 97  1  0
 96 95  1  0
M  ISO  4  15 100  23 100  56 101  57 101
M  END
>  <TORSDO>  (98) 
F 19

>  <SCORE>  (98) 
-13.063

>  <name>  (98) 
97

>  <ligand_id>  (98) 
97

>  <original_smiles>  (98) 
[H]c1c([H])c([H])c2c(c1[H])C([H])([H])C([H])([H])C([H])([H])C2([H])N([H])C(=O)C1([H])N(C(=O)C([H])(N([H])C(=O)C([H])(N([H])C([H])([H])[H])C([H])([H])[H])C(C([H])([H])[H])(C([H])([H])[H])C([H])([H])[H])C([H])([H])c2c([H])c(OC([H])([H])C3([H])C(=O)N(C(=O)c4c([H])c(N([H])[H])c([H])c(N([H])C(=O)N5C([H])([H])C([H])([H])C([H])([H])C([H])(n6nc(-c7c([H])c([H])c(Oc8c([H])c([H])c(F)c([H])c8F)c([H])c7[H])c(C(=O)N([H])[H])c6N([H])[H])C5([H])[H])c4[H])C([H])([H])C3([H])[H])c([H])c([H])c2C1([H])[H]

>  <smiles>  (98) 
[H]c1c([H])c([H])c2c(c1[H])C([H])([H])C([H])([H])C([H])([H])C2([H])N([H])C(=O)C1([H])N(C(=O)C([H])(N([H])C(=O)C([H])(N([H])C([H])([H])[H])C([H])([H])[H])C(C([H])([H])[H])(C([H])([H])[H])C([H])([H])[H])C([H])([H])c2c([H])c(OC([H])([H])C3([H])C(=O)N(C(=O)c4c([H])c(N([H])[H])c([H])c(N([H])C(=O)N5C([H])([H])C([H])([H])C([H])([H])C([H])(n6nc(-c7c([H])c([H])c(Oc8c([H])c([H])c(F)c([H])c8F)c([H])c7[H])c(C(=O)N([H])[H])c6N([H])[H])C5([H])[H])c4[H])C([H])([H])C3([H])[H])c([H])c([H])c2C1([H])[H]

$$$$
98:0:0
     RDKit          3D

 94102  0  0  1  0  0  0  0  0999 V2000
  -30.4660  -18.2630   21.6160 C   0  0  0  0  0  3  0  0  0  0  0  0
  -30.4010  -19.6810   21.4800 C   0  0  0  0  0  3  0  0  0  0  0  0
  -30.6670  -18.0210   19.2310 C   0  0  0  0  0  3  0  0  0  0  0  0
  -30.5080  -17.3830   20.4930 C   0  0  0  0  0  0  0  0  0  0  0  0
  -30.4230  -20.3080   20.2090 C   0  0  0  0  0  0  0  0  0  0  0  0
  -30.6310  -19.4440   19.0970 C   0  0  0  0  0  0  0  0  0  0  0  0
  -30.7290  -19.9880   17.8590 F   0  0  0  0  0  0  0  0  0  0  0  0
  -30.6410  -14.8150   20.3200 C   0  0  0  0  0  0  0  0  0  0  0  0
  -30.4510  -12.5750   19.1980 C   0  0  0  0  0  2  0  0  0  0  0  0
  -29.4810  -12.6380   17.9960 C   0  0  0  0  0  2  0  0  0  0  0  0
  -28.0140  -12.4330   18.4340 C   0  0  0  0  0  2  0  0  0  0  0  0
  -27.6560  -13.2760   19.6840 C   0  0  0  0  0  3  0  0  0  0  0  0
  -28.7460  -13.0840   20.7750 C   0  0  0  0  0  2  0  0  0  0  0  0
  -30.0040  -13.5830   20.1930 N   0  0  0  0  0  0  0  0  0  0  0  0
  -31.8270  -14.8800   19.9720 O   0  0  0  0  0  0  0  0  0  0  0  0
  -29.9580  -16.0150   20.6120 N   0  0  0  0  0  0  0  0  0  0  0  0
  -25.2480  -13.8830   20.3880 C   0  0  0  0  0  0  0  0  0  0  0  0
  -24.1880  -13.1130   20.7660 C   0  0  0  0  0  0  0  0  0  0  0  0
  -24.6580  -11.7670   20.7460 C   0  0  0  0  0  0  0  0  0  0  0  0
  -26.3060  -13.0080   20.1730 N   0  0  0  0  0  0  0  0  0  0  0  0
  -25.9510  -11.7290   20.4450 N   0  0  0  0  0  0  0  0  0  0  0  0
  -23.9370  -10.5080   20.9400 C   0  0  0  0  0  0  0  0  0  0  0  0
  -24.3630   -9.5550   21.8900 C   0  0  0  0  0  3  0  0  0  0  0  0
  -23.6410   -8.3570   22.0710 C   0  0  0  0  0  3  0  0  0  0  0  0
  -22.4780   -8.1070   21.3040 C   0  0  0  0  0  0  0  0  0  0  0  0
  -22.0720   -9.0500   20.3440 C   0  0  0  0  0  3  0  0  0  0  0  0
  -22.7960  -10.2400   20.1600 C   0  0  0  0  0  3  0  0  0  0  0  0
  -21.7290   -6.9600   21.3940 O   0  0  0  0  0  0  0  0  0  0  0  0
  -21.6500   -6.2450   22.5620 C   0  0  0  0  0  0  0  0  0  0  0  0
  -21.1410   -6.8120   23.7500 C   0  0  0  0  0  3  0  0  0  0  0  0
  -21.0140   -6.0200   24.9090 C   0  0  0  0  0  3  0  0  0  0  0  0
  -21.3830   -4.6620   24.8790 C   0  0  0  0  0  0  0  0  0  0  0  0
  -21.8860   -4.0950   23.6940 C   0  0  0  0  0  3  0  0  0  0  0  0
  -22.0170   -4.8840   22.5390 C   0  0  0  0  0  0  0  0  0  0  0  0
  -22.4820   -4.3280   21.3940 F   0  0  0  0  0  0  0  0  0  0  0  0
  -21.2530   -3.8990   25.9890 F   0  0  0  0  0  0  0  0  0  0  0  0
  -22.7900  -13.5940   21.0340 C   0  0  0  0  0  0  0  0  0  0  0  0
  -22.0680  -12.9170   21.9200 N   0  0  0  0  0  0  0  0  0  0  0  0
  -22.3460  -14.6060   20.4940 O   0  0  0  0  0  0  0  0  0  0  0  0
  -22.4390  -12.1000   22.3820 H   0  0  0  0  0  0  0  0  0  0  0  0
  -21.1320  -13.2230   22.1420 H   0  0  0  0  0  0  0  0  0  0  0  0
  -25.3690  -15.2500   20.1930 N   0  0  0  0  0  0  0  0  0  0  0  0
  -24.5780  -15.8740   20.3070 H   0  0  0  0  0  0  0  0  0  0  0  0
  -26.2230  -15.7440   19.9600 H   0  0  0  0  0  0  0  0  0  0  0  0
  -28.5370  -16.1830   21.0070 C   0  0  0  0  0  2  0  0  0  0  0  0
  -27.0620  -18.0130   20.0400 C   0  0  0  0  0  2  0  0  0  0  0  0
  -27.7400  -16.8630   19.8970 C   0  0  0  0  0  3  0  0  0  0  0  0
  -29.4880  -22.6780   20.6080 C   0  0  0  0  0  0  0  0  0  0  0  0
  -30.3070  -21.7550   20.0070 N   0  0  0  0  0  0  0  0  0  0  0  0
  -28.6460  -22.3340   21.4410 O   0  0  0  0  0  0  0  0  0  0  0  0
  -30.8630  -22.1130   19.2420 H   0  0  0  0  0  0  0  0  0  0  0  0
  -29.6210  -24.2180   20.2640 C   0  0  0  0  0  3  0  0  0  0  0  0
  -28.3030  -25.1160   20.2160 C   0  0  0  0  0  3  0  0  0  0  0  0
  -28.4400  -26.5920   20.2340 O   0  0  0  0  0  0  0  0  0  0  0  0
  -24.6290  -31.9200   23.2790 C   0  0  0  0  0  0  0  0  0  0  0  0
  -27.2830  -27.3910   20.2140 C   0  0  0  0  0  0  0  0  0  0  0  0
  -23.4330  -30.5200   21.6330 C   0  0  0  0  0  3  0  0  0  0  0  0
  -24.8920  -28.9740   20.2130 C   0  0  0  0  0  0  0  0  0  0  0  0
  -25.9700  -30.8510   21.4530 C   0  0  0  0  0  2  0  0  0  0  0  0
  -26.0590  -29.4750   20.8060 C   0  0  0  0  0  0  0  0  0  0  0  0
  -27.2540  -28.6970   20.7930 C   0  0  0  0  0  3  0  0  0  0  0  0
  -26.0860  -26.9340   19.6110 C   0  0  0  0  0  3  0  0  0  0  0  0
  -24.9080  -27.7070   19.6100 C   0  0  0  0  0  3  0  0  0  0  0  0
  -23.6520  -29.8420   20.2550 C   0  0  0  0  0  2  0  0  0  0  0  0
  -24.6960  -31.1140   22.1790 N   0  0  0  0  0  0  0  0  0  0  0  0
  -23.5430  -32.1950   23.8110 O   0  0  0  0  0  0  0  0  0  0  0  0
  -22.7700  -29.5020   22.5910 C   0  0  0  0  0  0  0  0  0  0  0  0
  -21.4450  -29.3160   22.4540 N   0  0  0  0  0  0  0  0  0  0  0  0
  -23.4450  -28.8820   23.4150 O   0  0  0  0  0  0  0  0  0  0  0  0
  -20.9600  -29.8690   21.7610 H   0  0  0  0  0  0  0  0  0  0  0  0
  -18.0660  -28.1250   22.9470 C   0  0  0  0  0  0  0  0  0  0  0  0
  -20.6240  -28.3780   23.2190 C   0  0  0  0  0  3  0  0  0  0  0  0
  -20.7240  -26.9490   22.6360 C   0  0  0  0  0  2  0  0  0  0  0  0
  -19.6210  -26.6340   21.6200 C   0  0  0  0  0  2  0  0  0  0  0  0
  -18.2390  -26.7790   22.2640 C   0  0  0  0  0  2  0  0  0  0  0  0
  -19.1860  -28.8820   23.3810 C   0  0  0  0  0  0  0  0  0  0  0  0
  -18.9700  -30.1430   23.9790 C   0  0  0  0  0  3  0  0  0  0  0  0
  -17.6660  -30.6450   24.1480 C   0  0  0  0  0  3  0  0  0  0  0  0
  -16.5600  -29.8840   23.7310 C   0  0  0  0  0  3  0  0  0  0  0  0
  -16.7610  -28.6270   23.1360 C   0  0  0  0  0  3  0  0  0  0  0  0
  -25.9100  -32.5520   23.9060 C   0  0  0  0  0  3  0  0  0  0  0  0
  -25.6020  -33.9530   24.2250 N   0  0  0  0  0  0  0  0  0  0  0  0
  -25.9280  -35.0000   23.4540 C   0  0  0  0  0  0  0  0  0  0  0  0
  -26.5890  -34.8860   22.4180 O   0  0  0  0  0  0  0  0  0  0  0  0
  -25.0130  -34.1150   25.0290 H   0  0  0  0  0  0  0  0  0  0  0  0
  -24.1960  -36.7880   23.1000 C   0  0  0  0  0  1  0  0  0  0  0  0
  -25.4450  -36.3920   23.9020 C   0  0  0  0  0  3  0  0  0  0  0  0
  -27.5820  -37.2900   24.7100 C   0  0  0  0  0  1  0  0  0  0  0  0
  -26.4760  -37.4440   23.7700 N   0  0  0  0  0  0  0  0  0  0  0  0
  -26.0700  -38.3660   23.9050 H   0  0  0  0  0  0  0  0  0  0  0  0
  -26.4140  -31.7890   25.1920 C   0  0  1  0  0  0  0  0  0  0  0  0
  -25.3100  -31.5540   26.2490 C   0  0  0  0  0  1  0  0  0  0  0  0
  -27.0040  -30.4100   24.8120 C   0  0  0  0  0  1  0  0  0  0  0  0
  -27.5570  -32.5870   25.8600 C   0  0  0  0  0  1  0  0  0  0  0  0
  2  1  1  0
  3  4  1  0
  4 16  1  0
  4  1  2  0
  5  2  2  0
  6  3  2  0
  6  5  1  0
  7  6  1  0
  8 16  1  0
  9 14  1  0
 10 11  1  0
 10  9  1  0
 12 11  1  0
 12 20  1  0
 12 13  1  0
 14  8  1  0
 14 13  1  0
 15  8  2  0
 16 45  1  0
 17 18  2  0
 18 37  1  0
 19 18  1  0
 19 22  1  0
 20 17  1  0
 20 21  1  0
 21 19  2  0
 22 23  1  0
 23 24  2  0
 25 28  1  0
 25 24  1  0
 26 25  2  0
 27 26  1  0
 27 22  2  0
 28 29  1  0
 29 30  1  0
 30 31  2  0
 32 31  1  0
 32 36  1  0
 33 32  2  0
 34 29  2  0
 34 33  1  0
 35 34  1  0
 37 38  1  0
 38 41  1  0
 38 40  1  0
 39 37  2  0
 42 43  1  0
 42 17  1  0
 44 42  1  0
 47 46  2  0
 47 45  1  0
 48 50  2  0
 49  5  1  0
 49 48  1  0
 51 49  1  0
 52 48  1  0
 53 54  1  0
 53 52  2  0
 55 66  2  0
 56 54  1  0
 56 61  1  0
 57 65  1  0
 57 67  1  0
 58 64  1  0
 58 60  1  0
 59 65  1  0
 60 59  1  0
 61 60  2  0
 62 56  2  0
 63 62  1  0
 63 58  2  0
 64 57  1  0
 65 55  1  0
 67 69  2  0
 68 67  1  0
 70 68  1  0
 71 80  2  0
 71 76  1  0
 72 68  1  0
 72 76  1  0
 73 72  1  0
 74 75  1  0
 74 73  1  0
 75 71  1  0
 76 77  2  0
 77 78  1  0
 79 78  2  0
 80 79  1  0
 81 55  1  0
 81 82  1  0
 81 91  1  0
 82 85  1  0
 83 87  1  0
 83 82  1  0
 84 83  2  0
 87 86  1  0
 89 87  1  0
 89 90  1  0
 89 88  1  0
 91 94  1  1
 91 92  1  0
 93 91  1  0
M  ISO  4   8 100  16 100  53 101  54 101
M  END
>  <TORSDO>  (99) 
F 21

>  <SCORE>  (99) 
-13.672

>  <name>  (99) 
98

>  <ligand_id>  (99) 
98

>  <original_smiles>  (99) 
[H]C([H])=C([H])C([H])([H])N(C(=O)N1C([H])([H])C([H])([H])C([H])([H])C([H])(n2nc(-c3c([H])c([H])c(Oc4c([H])c([H])c(F)c([H])c4F)c([H])c3[H])c(C(=O)N([H])[H])c2N([H])[H])C1([H])[H])c1c([H])c([H])c(N([H])C(=O)C([H])([H])C([H])([H])Oc2c([H])c([H])c3c(c2[H])C([H])([H])N(C(=O)C([H])(N([H])C(=O)C([H])(N([H])C([H])([H])[H])C([H])([H])[H])C(C([H])([H])[H])(C([H])([H])[H])C([H])([H])[H])C([H])(C(=O)N([H])C2([H])c4c([H])c([H])c([H])c([H])c4C([H])([H])C([H])([H])C2([H])[H])C3([H])[H])c(F)c1[H]

>  <smiles>  (99) 
[H]C([H])=C([H])C([H])([H])N(C(=O)N1C([H])([H])C([H])([H])C([H])([H])C([H])(n2nc(-c3c([H])c([H])c(Oc4c([H])c([H])c(F)c([H])c4F)c([H])c3[H])c(C(=O)N([H])[H])c2N([H])[H])C1([H])[H])c1c([H])c([H])c(N([H])C(=O)C([H])([H])C([H])([H])Oc2c([H])c([H])c3c(c2[H])C([H])([H])N(C(=O)C([H])(N([H])C(=O)C([H])(N([H])C([H])([H])[H])C([H])([H])[H])C(C([H])([H])[H])(C([H])([H])[H])C([H])([H])[H])C([H])(C(=O)N([H])C2([H])c4c([H])c([H])c([H])c([H])c4C([H])([H])C([H])([H])C2([H])[H])C3([H])[H])c(F)c1[H]

$$$$
99:0:0
     RDKit          3D

 92100  0  0  1  0  0  0  0  0999 V2000
  -29.6980  -18.7210   20.5490 C   0  0  0  0  0  0  0  0  0  0  0  0
  -29.8340  -19.9440   21.2150 C   0  0  0  0  0  0  0  0  0  0  0  0
  -28.8060  -19.0040   19.5050 N   0  0  0  0  0  0  0  0  0  0  0  0
  -28.4060  -20.2650   19.5410 N   0  0  0  0  0  0  0  0  0  0  0  0
  -29.0230  -20.9120   20.5720 N   0  0  0  0  0  0  0  0  0  0  0  0
  -30.5900  -20.2870   22.3310 N   0  0  0  0  0  0  0  0  0  0  0  0
  -31.1830  -19.6310   22.8320 H   0  0  0  0  0  0  0  0  0  0  0  0
  -30.6210  -21.2160   22.7400 H   0  0  0  0  0  0  0  0  0  0  0  0
  -30.4860  -17.3520   20.7340 C   0  0  0  0  0  2  0  0  0  0  0  0
  -30.6160  -14.7850   20.3570 C   0  0  0  0  0  0  0  0  0  0  0  0
  -30.3860  -12.5240   19.3170 C   0  0  0  0  0  2  0  0  0  0  0  0
  -29.4430  -12.5990   18.0970 C   0  0  0  0  0  2  0  0  0  0  0  0
  -27.9780  -12.4200   18.5370 C   0  0  0  0  0  2  0  0  0  0  0  0
  -27.6080  -13.3030   19.7600 C   0  0  0  0  0  3  0  0  0  0  0  0
  -28.6720  -13.2220   20.8740 C   0  0  0  0  0  2  0  0  0  0  0  0
  -29.9610  -13.5760   20.2690 N   0  0  0  0  0  0  0  0  0  0  0  0
  -31.8070  -14.8500   20.0470 O   0  0  0  0  0  0  0  0  0  0  0  0
  -29.8990  -15.9460   20.6000 N   0  0  0  0  0  0  0  0  0  0  0  0
  -28.9080  -15.8560   20.7600 H   0  0  0  0  0  0  0  0  0  0  0  0
  -25.2210  -13.8780   20.5010 C   0  0  0  0  0  0  0  0  0  0  0  0
  -24.1610  -13.0960   20.8730 C   0  0  0  0  0  0  0  0  0  0  0  0
  -24.6320  -11.7480   20.8380 C   0  0  0  0  0  0  0  0  0  0  0  0
  -26.2690  -13.0050   20.2580 N   0  0  0  0  0  0  0  0  0  0  0  0
  -25.9230  -11.7190   20.5260 N   0  0  0  0  0  0  0  0  0  0  0  0
  -23.9130  -10.4820   21.0270 C   0  0  0  0  0  0  0  0  0  0  0  0
  -24.3490   -9.5160   21.9630 C   0  0  0  0  0  3  0  0  0  0  0  0
  -23.6280   -8.3150   22.1390 C   0  0  0  0  0  3  0  0  0  0  0  0
  -22.4590   -8.0710   21.3810 C   0  0  0  0  0  0  0  0  0  0  0  0
  -22.0440   -9.0250   20.4350 C   0  0  0  0  0  3  0  0  0  0  0  0
  -22.7650  -10.2170   20.2560 C   0  0  0  0  0  3  0  0  0  0  0  0
  -21.7090   -6.9220   21.4670 O   0  0  0  0  0  0  0  0  0  0  0  0
  -21.6550   -6.1830   22.6220 C   0  0  0  0  0  0  0  0  0  0  0  0
  -21.2050   -6.7360   23.8420 C   0  0  0  0  0  3  0  0  0  0  0  0
  -21.1010   -5.9230   24.9870 C   0  0  0  0  0  3  0  0  0  0  0  0
  -21.4350   -4.5570   24.9150 C   0  0  0  0  0  0  0  0  0  0  0  0
  -21.8780   -4.0040   23.7010 C   0  0  0  0  0  3  0  0  0  0  0  0
  -21.9850   -4.8130   22.5570 C   0  0  0  0  0  0  0  0  0  0  0  0
  -22.3920   -4.2710   21.3850 F   0  0  0  0  0  0  0  0  0  0  0  0
  -21.3270   -3.7740   26.0140 F   0  0  0  0  0  0  0  0  0  0  0  0
  -22.7620  -13.5660   21.1460 C   0  0  0  0  0  0  0  0  0  0  0  0
  -22.0360  -12.8610   22.0080 N   0  0  0  0  0  0  0  0  0  0  0  0
  -22.3200  -14.5920   20.6310 O   0  0  0  0  0  0  0  0  0  0  0  0
  -22.4060  -12.0320   22.4480 H   0  0  0  0  0  0  0  0  0  0  0  0
  -21.0970  -13.1580   22.2330 H   0  0  0  0  0  0  0  0  0  0  0  0
  -25.3740  -15.2490   20.3230 N   0  0  0  0  0  0  0  0  0  0  0  0
  -24.6000  -15.8950   20.4320 H   0  0  0  0  0  0  0  0  0  0  0  0
  -26.2090  -15.6950   19.9660 H   0  0  0  0  0  0  0  0  0  0  0  0
  -28.5990  -22.3210   21.0060 C   0  0  0  0  0  2  0  0  0  0  0  0
  -28.7850  -23.7200   20.2490 C   0  0  0  0  0  0  0  0  0  0  0  0
  -29.5080  -23.8010   19.2500 O   0  0  0  0  0  0  0  0  0  0  0  0
  -28.0170  -25.0150   20.8080 C   0  0  0  0  0  2  0  0  0  0  0  0
  -28.3230  -26.3940   20.2770 O   0  0  0  0  0  0  0  0  0  0  0  0
  -24.6210  -31.9150   23.2410 C   0  0  0  0  0  0  0  0  0  0  0  0
  -27.2420  -27.3030   20.2340 C   0  0  0  0  0  0  0  0  0  0  0  0
  -23.4290  -30.5050   21.6040 C   0  0  0  0  0  3  0  0  0  0  0  0
  -24.8880  -28.9460   20.1910 C   0  0  0  0  0  0  0  0  0  0  0  0
  -25.9720  -30.8160   21.4330 C   0  0  0  0  0  2  0  0  0  0  0  0
  -26.0570  -29.4300   20.7930 C   0  0  0  0  0  0  0  0  0  0  0  0
  -27.2410  -28.6230   20.8010 C   0  0  0  0  0  3  0  0  0  0  0  0
  -26.0550  -26.8890   19.5950 C   0  0  0  0  0  3  0  0  0  0  0  0
  -24.8930  -27.6830   19.5800 C   0  0  0  0  0  3  0  0  0  0  0  0
  -23.6510  -29.8230   20.2280 C   0  0  0  0  0  2  0  0  0  0  0  0
  -24.6930  -31.0970   22.1490 N   0  0  0  0  0  0  0  0  0  0  0  0
  -23.5350  -32.1940   23.7680 O   0  0  0  0  0  0  0  0  0  0  0  0
  -22.7600  -29.4940   22.5670 C   0  0  0  0  0  0  0  0  0  0  0  0
  -21.4350  -29.3160   22.4370 N   0  0  0  0  0  0  0  0  0  0  0  0
  -23.4360  -28.8740   23.3930 O   0  0  0  0  0  0  0  0  0  0  0  0
  -20.9480  -29.8670   21.7450 H   0  0  0  0  0  0  0  0  0  0  0  0
  -18.0550  -28.1220   22.9390 C   0  0  0  0  0  0  0  0  0  0  0  0
  -20.6140  -28.3810   23.2110 C   0  0  0  0  0  3  0  0  0  0  0  0
  -20.7150  -26.9480   22.6410 C   0  0  0  0  0  2  0  0  0  0  0  0
  -19.6150  -26.6220   21.6270 C   0  0  0  0  0  2  0  0  0  0  0  0
  -18.2320  -26.7700   22.2680 C   0  0  0  0  0  2  0  0  0  0  0  0
  -19.1740  -28.8850   23.3680 C   0  0  0  0  0  0  0  0  0  0  0  0
  -18.9550  -30.1500   23.9560 C   0  0  0  0  0  3  0  0  0  0  0  0
  -17.6500  -30.6520   24.1190 C   0  0  0  0  0  3  0  0  0  0  0  0
  -16.5460  -29.8860   23.7070 C   0  0  0  0  0  3  0  0  0  0  0  0
  -16.7490  -28.6220   23.1230 C   0  0  0  0  0  3  0  0  0  0  0  0
  -25.8990  -32.5550   23.8640 C   0  0  0  0  0  3  0  0  0  0  0  0
  -25.5820  -33.9530   24.1910 N   0  0  0  0  0  0  0  0  0  0  0  0
  -25.9160  -35.0070   23.4340 C   0  0  0  0  0  0  0  0  0  0  0  0
  -26.5910  -34.9040   22.4070 O   0  0  0  0  0  0  0  0  0  0  0  0
  -24.9820  -34.1050   24.9880 H   0  0  0  0  0  0  0  0  0  0  0  0
  -24.1920  -36.8020   23.0640 C   0  0  0  0  0  1  0  0  0  0  0  0
  -25.4240  -36.3940   23.8880 C   0  0  0  0  0  3  0  0  0  0  0  0
  -27.5470  -37.2800   24.7470 C   0  0  0  0  0  1  0  0  0  0  0  0
  -26.4570  -37.4480   23.7900 N   0  0  0  0  0  0  0  0  0  0  0  0
  -26.0490  -38.3680   23.9320 H   0  0  0  0  0  0  0  0  0  0  0  0
  -26.4130  -31.7910   25.1470 C   0  0  1  0  0  0  0  0  0  0  0  0
  -25.3160  -31.5540   26.2120 C   0  0  0  0  0  1  0  0  0  0  0  0
  -27.0010  -30.4130   24.7650 C   0  0  0  0  0  1  0  0  0  0  0  0
  -27.5570  -32.5920   25.8110 C   0  0  0  0  0  1  0  0  0  0  0  0
  1  9  1  0
  1  2  2  0
  2  6  1  0
  3  4  2  0
  3  1  1  0
  4  5  1  0
  5 48  1  0
  5  2  1  0
  6  8  1  0
  6  7  1  0
 10 18  1  0
 11 16  1  0
 12 13  1  0
 12 11  1  0
 14 13  1  0
 14 23  1  0
 14 15  1  0
 16 10  1  0
 16 15  1  0
 17 10  2  0
 18  9  1  0
 18 19  1  0
 20 21  2  0
 21 40  1  0
 22 21  1  0
 22 25  1  0
 23 20  1  0
 23 24  1  0
 24 22  2  0
 25 26  1  0
 26 27  2  0
 28 31  1  0
 28 27  1  0
 29 28  2  0
 30 29  1  0
 30 25  2  0
 31 32  1  0
 32 33  1  0
 33 34  2  0
 35 34  1  0
 35 39  1  0
 36 35  2  0
 37 32  2  0
 37 36  1  0
 38 37  1  0
 40 41  1  0
 41 44  1  0
 41 43  1  0
 42 40  2  0
 45 46  1  0
 45 20  1  0
 47 45  1  0
 49 51  1  0
 49 48  1  0
 50 49  2  0
 52 51  1  0
 53 64  2  0
 54 52  1  0
 54 59  1  0
 55 63  1  0
 55 65  1  0
 56 62  1  0
 56 58  1  0
 57 63  1  0
 58 59  2  0
 58 57  1  0
 60 54  2  0
 61 60  1  0
 61 56  2  0
 62 55  1  0
 63 53  1  0
 65 67  2  0
 66 65  1  0
 68 66  1  0
 69 78  2  0
 69 74  1  0
 70 66  1  0
 70 74  1  0
 71 70  1  0
 72 73  1  0
 72 71  1  0
 73 69  1  0
 74 75  2  0
 75 76  1  0
 77 76  2  0
 78 77  1  0
 79 53  1  0
 79 80  1  0
 79 89  1  0
 80 83  1  0
 81 85  1  0
 81 80  1  0
 82 81  2  0
 85 84  1  0
 87 85  1  0
 87 88  1  0
 87 86  1  0
 89 92  1  1
 89 90  1  0
 91 89  1  0
M  ISO  4  10 100  18 100  51 101  52 101
M  END
>  <TORSDO>  (100) 
F 21

>  <SCORE>  (100) 
-13.879

>  <name>  (100) 
99

>  <ligand_id>  (100) 
99

>  <original_smiles>  (100) 
[H]c1c([H])c([H])c2c(c1[H])C([H])([H])C([H])([H])C([H])([H])C2([H])N([H])C(=O)C1([H])N(C(=O)C([H])(N([H])C(=O)C([H])(N([H])C([H])([H])[H])C([H])([H])[H])C(C([H])([H])[H])(C([H])([H])[H])C([H])([H])[H])C([H])([H])c2c([H])c(OC([H])([H])C(=O)C([H])([H])n3nnc(C([H])([H])N([H])C(=O)N4C([H])([H])C([H])([H])C([H])([H])C([H])(n5nc(-c6c([H])c([H])c(Oc7c([H])c([H])c(F)c([H])c7F)c([H])c6[H])c(C(=O)N([H])[H])c5N([H])[H])C4([H])[H])c3N([H])[H])c([H])c([H])c2C1([H])[H]

>  <smiles>  (100) 
[H]c1c([H])c([H])c2c(c1[H])C([H])([H])C([H])([H])C([H])([H])C2([H])N([H])C(=O)C1([H])N(C(=O)C([H])(N([H])C(=O)C([H])(N([H])C([H])([H])[H])C([H])([H])[H])C(C([H])([H])[H])(C([H])([H])[H])C([H])([H])[H])C([H])([H])c2c([H])c(OC([H])([H])C(=O)C([H])([H])n3nnc(C([H])([H])N([H])C(=O)N4C([H])([H])C([H])([H])C([H])([H])C([H])(n5nc(-c6c([H])c([H])c(Oc7c([H])c([H])c(F)c([H])c7F)c([H])c6[H])c(C(=O)N([H])[H])c5N([H])[H])C4([H])[H])c3N([H])[H])c([H])c([H])c2C1([H])[H]

$$$$
