0:0:0
     RDKit          3D

 90 99  0  0  1  0  0  0  0  0999 V2000
  -28.7980  -23.7490   20.3930 C   0  0  0  0  0  0  0  0  0  0  0  0
  -27.9910  -24.8680   20.1690 C   0  0  0  0  0  3  0  0  0  0  0  0
  -30.2310  -23.7300   20.8610 C   0  0  0  0  0  2  0  0  0  0  0  0
  -28.4380  -22.2150   20.2350 C   0  0  0  0  0  2  0  0  0  0  0  0
  -30.7280  -22.2630   20.6930 C   0  0  0  0  0  2  0  0  0  0  0  0
  -29.5840  -21.3330   20.6610 N   0  0  0  0  0  0  0  0  0  0  0  0
  -29.3840  -18.6620   20.7830 C   0  0  0  0  0  3  0  0  0  0  0  0
  -31.0260  -17.8360   19.3400 C   0  0  0  0  0  3  0  0  0  0  0  0
  -30.0830  -17.4510   20.2600 C   0  0  0  0  0  0  0  0  0  0  0  0
  -29.8270  -19.9220   20.2950 C   0  0  0  0  0  0  0  0  0  0  0  0
  -31.0880  -19.5790   19.1170 S   0  0  0  0  0  0  0  0  0  0  0  0
  -30.5730  -14.8400   20.3030 C   0  0  0  0  0  0  0  0  0  0  0  0
  -30.3570  -12.5490   19.3090 C   0  0  0  0  0  2  0  0  0  0  0  0
  -29.4170  -12.6130   18.0860 C   0  0  0  0  0  2  0  0  0  0  0  0
  -27.9500  -12.4380   18.5220 C   0  0  0  0  0  2  0  0  0  0  0  0
  -27.5820  -13.3260   19.7400 C   0  0  0  0  0  3  0  0  0  0  0  0
  -28.6450  -13.2540   20.8580 C   0  0  0  0  0  2  0  0  0  0  0  0
  -29.9380  -13.6120   20.2590 N   0  0  0  0  0  0  0  0  0  0  0  0
  -31.7540  -14.9040   19.9460 O   0  0  0  0  0  0  0  0  0  0  0  0
  -29.8370  -16.0000   20.5880 N   0  0  0  0  0  0  0  0  0  0  0  0
  -28.9350  -15.8080   20.9970 H   0  0  0  0  0  0  0  0  0  0  0  0
  -25.2010  -13.9180   20.4840 C   0  0  0  0  0  0  0  0  0  0  0  0
  -24.1350  -13.1470   20.8580 C   0  0  0  0  0  0  0  0  0  0  0  0
  -24.5930  -11.7950   20.8210 C   0  0  0  0  0  0  0  0  0  0  0  0
  -26.2410  -13.0370   20.2370 N   0  0  0  0  0  0  0  0  0  0  0  0
  -25.8820  -11.7540   20.5040 N   0  0  0  0  0  0  0  0  0  0  0  0
  -23.8630  -10.5340   21.0100 C   0  0  0  0  0  0  0  0  0  0  0  0
  -24.2880   -9.5650   21.9460 C   0  0  0  0  0  3  0  0  0  0  0  0
  -23.5560   -8.3710   22.1230 C   0  0  0  0  0  3  0  0  0  0  0  0
  -22.3840   -8.1380   21.3640 C   0  0  0  0  0  0  0  0  0  0  0  0
  -21.9770   -9.0960   20.4190 C   0  0  0  0  0  3  0  0  0  0  0  0
  -22.7100  -10.2800   20.2390 C   0  0  0  0  0  3  0  0  0  0  0  0
  -21.6240   -6.9950   21.4500 O   0  0  0  0  0  0  0  0  0  0  0  0
  -21.5590   -6.2600   22.6070 C   0  0  0  0  0  0  0  0  0  0  0  0
  -21.1090   -6.8190   23.8220 C   0  0  0  0  0  3  0  0  0  0  0  0
  -20.9910   -6.0100   24.9690 C   0  0  0  0  0  3  0  0  0  0  0  0
  -21.3150   -4.6410   24.9020 C   0  0  0  0  0  0  0  0  0  0  0  0
  -21.7590   -4.0810   23.6920 C   0  0  0  0  0  3  0  0  0  0  0  0
  -21.8790   -4.8880   22.5460 C   0  0  0  0  0  0  0  0  0  0  0  0
  -22.2870   -4.3380   21.3770 F   0  0  0  0  0  0  0  0  0  0  0  0
  -21.1960   -3.8620   26.0020 F   0  0  0  0  0  0  0  0  0  0  0  0
  -22.7410  -13.6300   21.1370 C   0  0  0  0  0  0  0  0  0  0  0  0
  -22.0130  -12.9370   22.0040 N   0  0  0  0  0  0  0  0  0  0  0  0
  -22.3070  -14.6600   20.6200 O   0  0  0  0  0  0  0  0  0  0  0  0
  -22.3780  -12.1040   22.4450 H   0  0  0  0  0  0  0  0  0  0  0  0
  -21.0790  -13.2450   22.2340 H   0  0  0  0  0  0  0  0  0  0  0  0
  -25.3690  -15.2890   20.3090 N   0  0  0  0  0  0  0  0  0  0  0  0
  -24.6050  -15.9450   20.4240 H   0  0  0  0  0  0  0  0  0  0  0  0
  -26.2030  -15.7190   19.9280 H   0  0  0  0  0  0  0  0  0  0  0  0
  -28.2440  -26.2930   20.2340 O   0  0  0  0  0  0  0  0  0  0  0  0
  -24.6210  -31.8910   23.2360 C   0  0  0  0  0  0  0  0  0  0  0  0
  -27.1770  -27.2430   20.1670 C   0  0  0  0  0  0  0  0  0  0  0  0
  -23.4070  -30.5040   21.5990 C   0  0  0  0  0  3  0  0  0  0  0  0
  -24.8440  -28.9500   20.1570 C   0  0  0  0  0  0  0  0  0  0  0  0
  -25.9560  -30.7790   21.4230 C   0  0  0  0  0  2  0  0  0  0  0  0
  -26.0210  -29.3960   20.7710 C   0  0  0  0  0  0  0  0  0  0  0  0
  -27.1860  -28.5520   20.7760 C   0  0  0  0  0  3  0  0  0  0  0  0
  -25.9870  -26.9080   19.4780 C   0  0  0  0  0  3  0  0  0  0  0  0
  -24.8350  -27.7140   19.4980 C   0  0  0  0  0  3  0  0  0  0  0  0
  -23.6160  -29.8390   20.2140 C   0  0  0  0  0  2  0  0  0  0  0  0
  -24.6800  -31.0780   22.1400 N   0  0  0  0  0  0  0  0  0  0  0  0
  -23.5390  -32.1750   23.7730 O   0  0  0  0  0  0  0  0  0  0  0  0
  -22.7390  -29.4870   22.5570 C   0  0  0  0  0  0  0  0  0  0  0  0
  -21.4110  -29.3170   22.4380 N   0  0  0  0  0  0  0  0  0  0  0  0
  -23.4160  -28.8550   23.3730 O   0  0  0  0  0  0  0  0  0  0  0  0
  -20.9210  -29.8770   21.7530 H   0  0  0  0  0  0  0  0  0  0  0  0
  -18.0310  -28.1250   22.9520 C   0  0  0  0  0  0  0  0  0  0  0  0
  -20.5910  -28.3810   23.2110 C   0  0  0  0  0  3  0  0  0  0  0  0
  -20.6890  -26.9480   22.6350 C   0  0  0  0  0  2  0  0  0  0  0  0
  -19.5820  -26.6280   21.6250 C   0  0  0  0  0  2  0  0  0  0  0  0
  -18.2040  -26.7760   22.2750 C   0  0  0  0  0  2  0  0  0  0  0  0
  -19.1530  -28.8850   23.3770 C   0  0  0  0  0  0  0  0  0  0  0  0
  -18.9380  -30.1460   23.9740 C   0  0  0  0  0  3  0  0  0  0  0  0
  -17.6350  -30.6490   24.1460 C   0  0  0  0  0  3  0  0  0  0  0  0
  -16.5270  -29.8860   23.7360 C   0  0  0  0  0  3  0  0  0  0  0  0
  -16.7260  -28.6260   23.1450 C   0  0  0  0  0  3  0  0  0  0  0  0
  -25.9060  -32.5200   23.8540 C   0  0  0  0  0  3  0  0  0  0  0  0
  -25.5970  -33.9160   24.2000 N   0  0  0  0  0  0  0  0  0  0  0  0
  -25.9010  -34.9760   23.4400 C   0  0  0  0  0  0  0  0  0  0  0  0
  -26.5410  -34.8820   22.3880 O   0  0  0  0  0  0  0  0  0  0  0  0
  -25.0240  -34.0620   25.0180 H   0  0  0  0  0  0  0  0  0  0  0  0
  -24.1490  -36.7590   23.1570 C   0  0  0  0  0  1  0  0  0  0  0  0
  -25.4210  -36.3590   23.9200 C   0  0  0  0  0  3  0  0  0  0  0  0
  -27.5770  -37.2600   24.6770 C   0  0  0  0  0  1  0  0  0  0  0  0
  -26.4420  -37.4200   23.7730 N   0  0  0  0  0  0  0  0  0  0  0  0
  -26.0350  -38.3380   23.9350 H   0  0  0  0  0  0  0  0  0  0  0  0
  -26.4300  -31.7390   25.1220 C   0  0  1  0  0  0  0  0  0  0  0  0
  -25.3440  -31.4950   26.1950 C   0  0  0  0  0  1  0  0  0  0  0  0
  -27.0110  -30.3630   24.7210 C   0  0  0  0  0  1  0  0  0  0  0  0
  -27.5850  -32.5280   25.7820 C   0  0  0  0  0  1  0  0  0  0  0  0
  1  3  1  0
  2 50  1  0
  2  1  2  0
  4  1  1  0
  4  6  1  0
  5  3  1  0
  6  5  1  0
  8  9  2  0
  9 20  1  0
  9  7  1  0
 10  6  1  0
 10  7  2  0
 11  8  1  0
 11 10  1  0
 12 20  1  0
 13 18  1  0
 14 15  1  0
 14 13  1  0
 16 15  1  0
 16 25  1  0
 16 17  1  0
 18 12  1  0
 18 17  1  0
 19 12  2  0
 20 21  1  0
 22 23  2  0
 23 42  1  0
 24 23  1  0
 24 27  1  0
 25 22  1  0
 25 26  1  0
 26 24  2  0
 27 28  1  0
 28 29  2  0
 30 33  1  0
 30 29  1  0
 31 30  2  0
 32 31  1  0
 32 27  2  0
 33 34  1  0
 34 35  1  0
 35 36  2  0
 37 36  1  0
 37 41  1  0
 38 37  2  0
 39 34  2  0
 39 38  1  0
 40 39  1  0
 42 43  1  0
 43 46  1  0
 43 45  1  0
 44 42  2  0
 47 48  1  0
 47 22  1  0
 49 47  1  0
 51 62  2  0
 52 50  1  0
 52 57  1  0
 53 61  1  0
 53 63  1  0
 54 60  1  0
 54 56  1  0
 55 61  1  0
 56 57  2  0
 56 55  1  0
 58 59  1  0
 58 52  2  0
 59 54  2  0
 60 53  1  0
 61 51  1  0
 63 65  2  0
 64 63  1  0
 66 64  1  0
 67 76  2  0
 67 72  1  0
 68 64  1  0
 68 72  1  0
 69 68  1  0
 70 71  1  0
 70 69  1  0
 71 67  1  0
 72 73  2  0
 73 74  1  0
 75 74  2  0
 76 75  1  0
 77 51  1  0
 77 78  1  0
 77 87  1  0
 78 81  1  0
 79 83  1  0
 79 78  1  0
 80 79  2  0
 83 82  1  0
 85 83  1  0
 85 86  1  0
 85 84  1  0
 87 90  1  1
 87 88  1  0
 89 87  1  0
M  ISO  4   2 101  12 100  20 100  50 101
M  END
>  <TORSDO>  (1) 
F 17

>  <SCORE>  (1) 
-15.057

>  <name>  (1) 
0

>  <ligand_id>  (1) 
0

>  <original_smiles>  (1) 
[H]C(Oc1c([H])c([H])c2c(c1[H])C([H])([H])N(C(=O)C([H])(N([H])C(=O)C([H])(N([H])C([H])([H])[H])C([H])([H])[H])C(C([H])([H])[H])(C([H])([H])[H])C([H])([H])[H])C([H])(C(=O)N([H])C1([H])c3c([H])c([H])c([H])c([H])c3C([H])([H])C([H])([H])C1([H])[H])C2([H])[H])=C1C([H])([H])N(c2sc([H])c(N([H])C(=O)N3C([H])([H])C([H])([H])C([H])([H])C([H])(n4nc(-c5c([H])c([H])c(Oc6c([H])c([H])c(F)c([H])c6F)c([H])c5[H])c(C(=O)N([H])[H])c4N([H])[H])C3([H])[H])c2[H])C([H])([H])C1([H])[H]

>  <smiles>  (1) 
[H]C(Oc1c([H])c([H])c2c(c1[H])C([H])([H])N(C(=O)C([H])(N([H])C(=O)C([H])(N([H])C([H])([H])[H])C([H])([H])[H])C(C([H])([H])[H])(C([H])([H])[H])C([H])([H])[H])C([H])(C(=O)N([H])C1([H])c3c([H])c([H])c([H])c([H])c3C([H])([H])C([H])([H])C1([H])[H])C2([H])[H])=C1C([H])([H])N(c2sc([H])c(N([H])C(=O)N3C([H])([H])C([H])([H])C([H])([H])C([H])(n4nc(-c5c([H])c([H])c(Oc6c([H])c([H])c(F)c([H])c6F)c([H])c5[H])c(C(=O)N([H])[H])c4N([H])[H])C3([H])[H])c2[H])C([H])([H])C1([H])[H]

$$$$
1:0:0
     RDKit          3D

 96104  0  0  1  0  0  0  0  0999 V2000
  -31.1720  -17.9030   21.1790 C   0  0  0  0  0  3  0  0  0  0  0  0
  -30.8750  -20.3220   21.3340 C   0  0  0  0  0  3  0  0  0  0  0  0
  -31.3310  -18.0030   19.7820 C   0  0  0  0  0  0  0  0  0  0  0  0
  -30.9360  -19.0550   21.9490 C   0  0  0  0  0  0  0  0  0  0  0  0
  -31.0310  -20.4520   19.9310 C   0  0  0  0  0  0  0  0  0  0  0  0
  -31.2400  -19.2760   19.1580 C   0  0  0  0  0  0  0  0  0  0  0  0
  -30.7820  -18.9250   23.3270 N   0  0  0  0  0  0  0  0  0  0  0  0
  -30.5400  -18.0130   23.7050 H   0  0  0  0  0  0  0  0  0  0  0  0
  -30.3850  -19.6900   23.8600 H   0  0  0  0  0  0  0  0  0  0  0  0
  -30.2360  -19.7650   17.0780 C   0  0  0  0  0  1  0  0  0  0  0  0
  -31.3910  -19.3400   17.7950 O   0  0  0  0  0  0  0  0  0  0  0  0
  -31.6460  -16.7520   18.9600 C   0  0  0  0  0  2  0  0  0  0  0  0
  -31.9230  -14.3160   19.3150 C   0  0  0  0  0  0  0  0  0  0  0  0
  -31.3610  -12.0110   18.6620 C   0  0  0  0  0  2  0  0  0  0  0  0
  -30.3310  -12.0740   17.5140 C   0  0  0  0  0  2  0  0  0  0  0  0
  -28.8980  -12.1750   18.0710 C   0  0  0  0  0  2  0  0  0  0  0  0
  -28.7520  -13.2640   19.1680 C   0  0  0  0  0  3  0  0  0  0  0  0
  -29.8810  -13.1530   20.2170 C   0  0  0  0  0  2  0  0  0  0  0  0
  -31.1700  -13.2010   19.5060 N   0  0  0  0  0  0  0  0  0  0  0  0
  -33.0100  -14.3040   18.7310 O   0  0  0  0  0  0  0  0  0  0  0  0
  -31.3060  -15.4740   19.5940 N   0  0  0  0  0  0  0  0  0  0  0  0
  -30.4150  -15.4110   20.0580 H   0  0  0  0  0  0  0  0  0  0  0  0
  -26.6180  -14.2630   20.1990 C   0  0  0  0  0  0  0  0  0  0  0  0
  -25.4590  -13.6870   20.6460 C   0  0  0  0  0  0  0  0  0  0  0  0
  -25.6280  -12.2780   20.4720 C   0  0  0  0  0  0  0  0  0  0  0  0
  -27.4300  -13.2190   19.7860 N   0  0  0  0  0  0  0  0  0  0  0  0
  -26.8420  -12.0140   20.0040 N   0  0  0  0  0  0  0  0  0  0  0  0
  -24.6860  -11.1690   20.6710 C   0  0  0  0  0  0  0  0  0  0  0  0
  -25.0110  -10.0610   21.4810 C   0  0  0  0  0  3  0  0  0  0  0  0
  -24.0800   -9.0170   21.6730 C   0  0  0  0  0  3  0  0  0  0  0  0
  -22.8090   -9.0760   21.0520 C   0  0  0  0  0  0  0  0  0  0  0  0
  -22.5000  -10.1740   20.2300 C   0  0  0  0  0  3  0  0  0  0  0  0
  -23.4300  -11.2080   20.0360 C   0  0  0  0  0  3  0  0  0  0  0  0
  -21.8500   -8.0960   21.1600 O   0  0  0  0  0  0  0  0  0  0  0  0
  -21.8170   -7.2370   22.2310 C   0  0  0  0  0  0  0  0  0  0  0  0
  -21.6330   -7.7010   23.5520 C   0  0  0  0  0  3  0  0  0  0  0  0
  -21.5320   -6.7800   24.6130 C   0  0  0  0  0  3  0  0  0  0  0  0
  -21.6070   -5.3980   24.3560 C   0  0  0  0  0  0  0  0  0  0  0  0
  -21.7840   -4.9340   23.0410 C   0  0  0  0  0  3  0  0  0  0  0  0
  -21.8860   -5.8510   21.9810 C   0  0  0  0  0  0  0  0  0  0  0  0
  -22.0360   -5.3990   20.7120 F   0  0  0  0  0  0  0  0  0  0  0  0
  -21.5030   -4.5130   25.3740 F   0  0  0  0  0  0  0  0  0  0  0  0
  -24.2260  -14.4020   21.1160 C   0  0  0  0  0  0  0  0  0  0  0  0
  -23.4690  -13.7880   22.0200 N   0  0  0  0  0  0  0  0  0  0  0  0
  -23.9520  -15.5350   20.7200 O   0  0  0  0  0  0  0  0  0  0  0  0
  -23.6990  -12.8640   22.3550 H   0  0  0  0  0  0  0  0  0  0  0  0
  -22.6430  -14.2460   22.3750 H   0  0  0  0  0  0  0  0  0  0  0  0
  -27.0370  -15.5850   20.0880 N   0  0  0  0  0  0  0  0  0  0  0  0
  -26.4500  -16.3660   20.3530 H   0  0  0  0  0  0  0  0  0  0  0  0
  -27.9170  -15.8770   19.6780 H   0  0  0  0  0  0  0  0  0  0  0  0
  -31.0190  -21.6720   19.2710 O   0  0  0  0  0  0  0  0  0  0  0  0
  -30.5670  -22.8450   19.9520 C   0  0  0  0  0  2  0  0  0  0  0  0
  -30.5680  -24.0440   18.9780 C   0  0  0  0  0  2  0  0  0  0  0  0
  -31.9280  -24.7620   18.9070 C   0  0  0  0  0  2  0  0  0  0  0  0
  -31.8770  -26.2220   18.4140 C   0  0  0  0  0  2  0  0  0  0  0  0
  -31.4210  -27.1190   19.4300 O   0  0  0  0  0  0  0  0  0  0  0  0
  -26.4390  -29.7120   23.7720 C   0  0  0  0  0  0  0  0  0  0  0  0
  -30.0960  -27.4900   19.5340 C   0  0  0  0  0  0  0  0  0  0  0  0
  -25.6240  -28.9050   21.5810 C   0  0  0  0  0  3  0  0  0  0  0  0
  -27.4250  -28.3730   19.8560 C   0  0  0  0  0  0  0  0  0  0  0  0
  -28.0150  -29.7750   21.8390 C   0  0  0  0  0  2  0  0  0  0  0  0
  -28.4170  -28.8190   20.7340 C   0  0  0  0  0  0  0  0  0  0  0  0
  -29.7510  -28.3780   20.5780 C   0  0  0  0  0  3  0  0  0  0  0  0
  -29.0780  -27.0370   18.6620 C   0  0  0  0  0  3  0  0  0  0  0  0
  -27.7500  -27.4780   18.8210 C   0  0  0  0  0  3  0  0  0  0  0  0
  -26.0220  -28.8920   20.0800 C   0  0  0  0  0  2  0  0  0  0  0  0
  -26.7070  -29.4560   22.4600 N   0  0  0  0  0  0  0  0  0  0  0  0
  -25.3060  -29.5380   24.2420 O   0  0  0  0  0  0  0  0  0  0  0  0
  -25.1770  -27.4820   21.9810 C   0  0  0  0  0  0  0  0  0  0  0  0
  -23.9480  -27.1100   21.5880 N   0  0  0  0  0  0  0  0  0  0  0  0
  -25.9340  -26.7320   22.6050 O   0  0  0  0  0  0  0  0  0  0  0  0
  -23.3830  -27.7890   21.0940 H   0  0  0  0  0  0  0  0  0  0  0  0
  -20.9430  -25.1760   21.0610 C   0  0  0  0  0  0  0  0  0  0  0  0
  -23.3340  -25.8030   21.8160 C   0  0  0  0  0  3  0  0  0  0  0  0
  -23.8220  -24.7670   20.7770 C   0  0  0  0  0  2  0  0  0  0  0  0
  -22.9090  -24.6670   19.5500 C   0  0  0  0  0  2  0  0  0  0  0  0
  -21.4920  -24.2690   19.9720 C   0  0  0  0  0  2  0  0  0  0  0  0
  -21.8080  -25.9080   21.9160 C   0  0  0  0  0  0  0  0  0  0  0  0
  -21.2500  -26.7640   22.8900 C   0  0  0  0  0  3  0  0  0  0  0  0
  -19.8530  -26.8960   23.0150 C   0  0  0  0  0  3  0  0  0  0  0  0
  -19.0010  -26.1580   22.1770 C   0  0  0  0  0  3  0  0  0  0  0  0
  -19.5460  -25.2950   21.2080 C   0  0  0  0  0  3  0  0  0  0  0  0
  -27.5370  -30.2610   24.7390 C   0  0  0  0  0  3  0  0  0  0  0  0
  -26.9970  -31.4650   25.3830 N   0  0  0  0  0  0  0  0  0  0  0  0
  -27.3100  -32.7200   25.0300 C   0  0  0  0  0  0  0  0  0  0  0  0
  -28.1490  -32.9820   24.1650 O   0  0  0  0  0  0  0  0  0  0  0  0
  -26.2600  -31.3260   26.0610 H   0  0  0  0  0  0  0  0  0  0  0  0
  -25.4460  -34.3990   24.8560 C   0  0  0  0  0  1  0  0  0  0  0  0
  -26.5730  -33.8640   25.7520 C   0  0  0  0  0  3  0  0  0  0  0  0
  -28.3900  -34.6200   27.2210 C   0  0  0  0  0  1  0  0  0  0  0  0
  -27.4640  -34.9760   26.1490 N   0  0  0  0  0  0  0  0  0  0  0  0
  -26.9220  -35.7820   26.4510 H   0  0  0  0  0  0  0  0  0  0  0  0
  -27.9930  -29.2060   25.8210 C   0  0  1  0  0  0  0  0  0  0  0  0
  -26.8180  -28.5720   26.6000 C   0  0  0  0  0  1  0  0  0  0  0  0
  -28.7990  -28.0620   25.1600 C   0  0  0  0  0  1  0  0  0  0  0  0
  -28.9390  -29.8800   26.8440 C   0  0  0  0  0  1  0  0  0  0  0  0
  1  4  1  0
  2  4  2  0
  3  1  2  0
  4  7  1  0
  5  2  1  0
  6  3  1  0
  6  5  2  0
  7  8  1  0
  7  9  1  0
 10 11  1  0
 11  6  1  0
 12 21  1  0
 12  3  1  0
 13 19  1  0
 13 21  1  0
 14 19  1  0
 15 16  1  0
 15 14  1  0
 17 16  1  0
 17 26  1  0
 17 18  1  0
 19 18  1  0
 20 13  2  0
 21 22  1  0
 23 24  2  0
 24 43  1  0
 25 24  1  0
 25 28  1  0
 26 27  1  0
 26 23  1  0
 27 25  2  0
 28 29  1  0
 29 30  2  0
 31 34  1  0
 31 30  1  0
 32 31  2  0
 33 32  1  0
 33 28  2  0
 34 35  1  0
 35 36  1  0
 36 37  2  0
 38 37  1  0
 38 42  1  0
 39 38  2  0
 40 35  2  0
 40 39  1  0
 41 40  1  0
 43 44  1  0
 44 46  1  0
 44 47  1  0
 45 43  2  0
 48 23  1  0
 48 49  1  0
 50 48  1  0
 51  5  1  0
 51 52  1  0
 53 52  1  0
 54 53  1  0
 55 54  1  0
 55 56  1  0
 56 58  1  0
 57 68  2  0
 58 63  1  0
 59 69  1  0
 59 67  1  0
 60 66  1  0
 60 62  1  0
 61 67  1  0
 62 61  1  0
 63 62  2  0
 64 65  1  0
 64 58  2  0
 65 60  2  0
 66 59  1  0
 67 57  1  0
 69 71  2  0
 70 69  1  0
 72 70  1  0
 73 82  2  0
 73 78  1  0
 74 70  1  0
 74 78  1  0
 75 74  1  0
 76 77  1  0
 76 75  1  0
 77 73  1  0
 78 79  2  0
 79 80  1  0
 81 80  2  0
 82 81  1  0
 83 57  1  0
 83 84  1  0
 83 93  1  0
 84 87  1  0
 85 84  1  0
 85 89  1  0
 86 85  2  0
 89 88  1  0
 89 91  1  0
 91 92  1  0
 91 90  1  0
 93 94  1  1
 93 96  1  0
 95 93  1  0
M  ISO  4  13 100  21 100  55 101  56 101
M  END
>  <TORSDO>  (2) 
F 24

>  <SCORE>  (2) 
-7.805

>  <name>  (2) 
1

>  <ligand_id>  (2) 
1

>  <original_smiles>  (2) 
[H]c1c([H])c([H])c2c(c1[H])C([H])([H])C([H])([H])C([H])([H])C2([H])N([H])C(=O)C1([H])N(C(=O)C([H])(N([H])C(=O)C([H])(N([H])C([H])([H])[H])C([H])([H])[H])C(C([H])([H])[H])(C([H])([H])[H])C([H])([H])[H])C([H])([H])c2c([H])c(OC([H])([H])C([H])([H])C([H])([H])C([H])([H])Oc3c([H])c(N([H])[H])c([H])c(C([H])([H])N([H])C(=O)N4C([H])([H])C([H])([H])C([H])([H])C([H])(n5nc(-c6c([H])c([H])c(Oc7c([H])c([H])c(F)c([H])c7F)c([H])c6[H])c(C(=O)N([H])[H])c5N([H])[H])C4([H])[H])c3OC([H])([H])[H])c([H])c([H])c2C1([H])[H]

>  <smiles>  (2) 
[H]c1c([H])c([H])c2c(c1[H])C([H])([H])C([H])([H])C([H])([H])C2([H])N([H])C(=O)C1([H])N(C(=O)C([H])(N([H])C(=O)C([H])(N([H])C([H])([H])[H])C([H])([H])[H])C(C([H])([H])[H])(C([H])([H])[H])C([H])([H])[H])C([H])([H])c2c([H])c(OC([H])([H])C([H])([H])C([H])([H])C([H])([H])Oc3c([H])c(N([H])[H])c([H])c(C([H])([H])N([H])C(=O)N4C([H])([H])C([H])([H])C([H])([H])C([H])(n5nc(-c6c([H])c([H])c(Oc7c([H])c([H])c(F)c([H])c7F)c([H])c6[H])c(C(=O)N([H])[H])c5N([H])[H])C4([H])[H])c3OC([H])([H])[H])c([H])c([H])c2C1([H])[H]

$$$$
2:0:0
     RDKit          3D

 93102  0  0  1  0  0  0  0  0999 V2000
  -27.5470  -23.6820   21.4050 C   0  0  0  0  0  2  0  0  0  0  0  0
  -28.2210  -23.5380   20.2530 C   0  0  0  0  0  3  0  0  0  0  0  0
  -28.2830  -23.5210   22.7230 C   0  0  0  0  0  2  0  0  0  0  0  0
  -29.8110  -23.4190   22.5320 C   0  0  0  0  0  2  0  0  0  0  0  0
  -30.2980  -22.7140   21.2290 C   0  0  0  0  0  2  0  0  0  0  0  0
  -29.2420  -22.4650   20.2260 N   0  0  0  0  0  0  0  0  0  0  0  0
  -28.3090  -20.0160   20.5330 C   0  0  0  0  0  3  0  0  0  0  0  0
  -28.5640  -18.5730   20.5780 C   0  0  0  0  0  3  0  0  0  0  0  0
  -30.3700  -20.2750   19.4750 C   0  0  0  0  0  3  0  0  0  0  0  0
  -30.5930  -18.8230   19.4450 C   0  0  0  0  0  0  0  0  0  0  0  0
  -29.2460  -20.9760   20.0410 C   0  0  0  0  0  0  0  0  0  0  0  0
  -29.7480  -17.8630   20.1160 C   0  0  0  0  0  0  0  0  0  0  0  0
  -31.7700  -18.3400   18.6300 C   0  0  0  0  0  1  0  0  0  0  0  0
  -30.7030  -15.1840   19.9190 C   0  0  0  0  0  0  0  0  0  0  0  0
  -30.6410  -12.8260   18.9290 C   0  0  0  0  0  2  0  0  0  0  0  0
  -29.6200  -12.7360   17.7680 C   0  0  0  0  0  2  0  0  0  0  0  0
  -28.1770  -12.5120   18.2670 C   0  0  0  0  0  2  0  0  0  0  0  0
  -27.8560  -13.3820   19.5070 C   0  0  0  0  0  3  0  0  0  0  0  0
  -28.9790  -13.3100   20.5540 C   0  0  0  0  0  2  0  0  0  0  0  0
  -30.1770  -13.8730   19.8950 N   0  0  0  0  0  0  0  0  0  0  0  0
  -31.8310  -15.2850   19.4030 O   0  0  0  0  0  0  0  0  0  0  0  0
  -29.4410  -16.0730   21.7760 C   0  0  0  0  0  1  0  0  0  0  0  0
  -29.9650  -16.3340   20.4330 N   0  0  0  0  0  0  0  0  0  0  0  0
  -25.5610  -13.9800   20.4600 C   0  0  0  0  0  0  0  0  0  0  0  0
  -24.5000  -13.2190   20.8520 C   0  0  0  0  0  0  0  0  0  0  0  0
  -24.9000  -11.8580   20.6750 C   0  0  0  0  0  0  0  0  0  0  0  0
  -26.5470  -13.0870   20.0690 N   0  0  0  0  0  0  0  0  0  0  0  0
  -26.1590  -11.8010   20.2550 N   0  0  0  0  0  0  0  0  0  0  0  0
  -24.1410  -10.6140   20.8290 C   0  0  0  0  0  0  0  0  0  0  0  0
  -24.5360   -9.6100   21.7390 C   0  0  0  0  0  3  0  0  0  0  0  0
  -23.7700   -8.4340   21.8780 C   0  0  0  0  0  3  0  0  0  0  0  0
  -22.5980   -8.2510   21.1080 C   0  0  0  0  0  0  0  0  0  0  0  0
  -22.2250   -9.2450   20.1860 C   0  0  0  0  0  3  0  0  0  0  0  0
  -22.9880  -10.4120   20.0440 C   0  0  0  0  0  3  0  0  0  0  0  0
  -21.8080   -7.1270   21.1560 O   0  0  0  0  0  0  0  0  0  0  0  0
  -21.6430   -6.4120   22.3160 C   0  0  0  0  0  0  0  0  0  0  0  0
  -21.1230   -7.0040   23.4860 C   0  0  0  0  0  3  0  0  0  0  0  0
  -20.9020   -6.2170   24.6360 C   0  0  0  0  0  3  0  0  0  0  0  0
  -21.1930   -4.8400   24.6130 C   0  0  0  0  0  0  0  0  0  0  0  0
  -21.7050   -4.2470   23.4470 C   0  0  0  0  0  3  0  0  0  0  0  0
  -21.9260   -5.0320   22.2980 C   0  0  0  0  0  0  0  0  0  0  0  0
  -22.4030   -4.4490   21.1720 F   0  0  0  0  0  0  0  0  0  0  0  0
  -20.9740   -4.0840   25.7150 F   0  0  0  0  0  0  0  0  0  0  0  0
  -23.1550  -13.7280   21.2800 C   0  0  0  0  0  0  0  0  0  0  0  0
  -22.4840  -13.0000   22.1650 N   0  0  0  0  0  0  0  0  0  0  0  0
  -22.7200  -14.8060   20.8720 O   0  0  0  0  0  0  0  0  0  0  0  0
  -22.8600  -12.1360   22.5220 H   0  0  0  0  0  0  0  0  0  0  0  0
  -21.5880  -13.3200   22.5010 H   0  0  0  0  0  0  0  0  0  0  0  0
  -25.7640  -15.3540   20.3870 N   0  0  0  0  0  0  0  0  0  0  0  0
  -25.0300  -16.0070   20.6370 H   0  0  0  0  0  0  0  0  0  0  0  0
  -26.5910  -15.7970   20.0110 H   0  0  0  0  0  0  0  0  0  0  0  0
  -28.3660  -24.9060   19.3640 C   0  0  0  0  0  2  0  0  0  0  0  0
  -28.2350  -26.3450   19.9050 O   0  0  0  0  0  0  0  0  0  0  0  0
  -24.4770  -31.7080   23.0840 C   0  0  0  0  0  0  0  0  0  0  0  0
  -27.1150  -27.2360   19.8250 C   0  0  0  0  0  0  0  0  0  0  0  0
  -23.2530  -30.3160   21.4510 C   0  0  0  0  0  3  0  0  0  0  0  0
  -24.7070  -28.8560   19.9070 C   0  0  0  0  0  0  0  0  0  0  0  0
  -25.7770  -30.7080   21.1820 C   0  0  0  0  0  2  0  0  0  0  0  0
  -25.8830  -29.3470   20.4840 C   0  0  0  0  0  0  0  0  0  0  0  0
  -27.0830  -28.5540   20.4300 C   0  0  0  0  0  3  0  0  0  0  0  0
  -25.9140  -26.8310   19.2020 C   0  0  0  0  0  3  0  0  0  0  0  0
  -24.7320  -27.6090   19.2540 C   0  0  0  0  0  3  0  0  0  0  0  0
  -23.4380  -29.6940   20.0390 C   0  0  0  0  0  2  0  0  0  0  0  0
  -24.5210  -30.9300   21.9590 N   0  0  0  0  0  0  0  0  0  0  0  0
  -23.4090  -31.9310   23.6730 O   0  0  0  0  0  0  0  0  0  0  0  0
  -22.6620  -29.2460   22.4010 C   0  0  0  0  0  0  0  0  0  0  0  0
  -21.3520  -28.9720   22.2690 N   0  0  0  0  0  0  0  0  0  0  0  0
  -23.3820  -28.6690   23.2220 O   0  0  0  0  0  0  0  0  0  0  0  0
  -20.8330  -29.4680   21.5560 H   0  0  0  0  0  0  0  0  0  0  0  0
  -18.0700  -27.5320   22.7600 C   0  0  0  0  0  0  0  0  0  0  0  0
  -20.5990  -27.9830   23.0420 C   0  0  0  0  0  3  0  0  0  0  0  0
  -20.8120  -26.5590   22.4800 C   0  0  0  0  0  2  0  0  0  0  0  0
  -19.7410  -26.1430   21.4640 C   0  0  0  0  0  2  0  0  0  0  0  0
  -18.3470  -26.1970   22.0920 C   0  0  0  0  0  2  0  0  0  0  0  0
  -19.1260  -28.3780   23.1900 C   0  0  0  0  0  0  0  0  0  0  0  0
  -18.8050  -29.6240   23.7720 C   0  0  0  0  0  3  0  0  0  0  0  0
  -17.4650  -30.0230   23.9290 C   0  0  0  0  0  3  0  0  0  0  0  0
  -16.4230  -29.1720   23.5170 C   0  0  0  0  0  3  0  0  0  0  0  0
  -16.7280  -27.9290   22.9370 C   0  0  0  0  0  3  0  0  0  0  0  0
  -25.7620  -32.3650   23.6780 C   0  0  0  0  0  3  0  0  0  0  0  0
  -25.4190  -33.7370   24.0730 N   0  0  0  0  0  0  0  0  0  0  0  0
  -25.6990  -34.8300   23.3500 C   0  0  0  0  0  0  0  0  0  0  0  0
  -26.3430  -34.7910   22.3000 O   0  0  0  0  0  0  0  0  0  0  0  0
  -24.8510  -33.8440   24.9010 H   0  0  0  0  0  0  0  0  0  0  0  0
  -23.9190  -36.5880   23.1070 C   0  0  0  0  0  1  0  0  0  0  0  0
  -25.1820  -36.1820   23.8810 C   0  0  0  0  0  3  0  0  0  0  0  0
  -27.3040  -37.0840   24.7250 C   0  0  0  0  0  1  0  0  0  0  0  0
  -26.1850  -37.2660   23.8040 N   0  0  0  0  0  0  0  0  0  0  0  0
  -25.7550  -38.1680   23.9970 H   0  0  0  0  0  0  0  0  0  0  0  0
  -26.3570  -31.5720   24.9040 C   0  0  1  0  0  0  0  0  0  0  0  0
  -25.3160  -31.2580   26.0030 C   0  0  0  0  0  1  0  0  0  0  0  0
  -26.9780  -30.2330   24.4410 C   0  0  0  0  0  1  0  0  0  0  0  0
  -27.4990  -32.3910   25.5520 C   0  0  0  0  0  1  0  0  0  0  0  0
  1  3  1  0
  2 52  1  0
  2  1  1  0
  4  3  1  0
  5  4  1  0
  6  2  1  0
  6  5  1  0
  7  8  1  0
  9 11  1  0
 10  9  2  0
 10 12  1  0
 11  6  1  0
 11  7  2  0
 12 23  1  0
 12  8  2  0
 13 10  1  0
 14 23  1  0
 15 20  1  0
 16 17  1  0
 16 15  1  0
 18 17  1  0
 18 27  1  0
 18 19  1  0
 20 14  1  0
 20 19  1  0
 21 14  2  0
 23 22  1  0
 24 25  2  0
 25 44  1  0
 26 29  1  0
 26 25  1  0
 27 28  1  0
 27 24  1  0
 28 26  2  0
 29 30  1  0
 30 31  2  0
 32 35  1  0
 32 31  1  0
 33 32  2  0
 34 33  1  0
 34 29  2  0
 35 36  1  0
 36 37  1  0
 37 38  2  0
 39 38  1  0
 39 43  1  0
 40 39  2  0
 41 36  2  0
 41 40  1  0
 42 41  1  0
 44 45  1  0
 45 48  1  0
 45 47  1  0
 46 44  2  0
 49 24  1  0
 49 50  1  0
 51 49  1  0
 52 53  1  0
 54 65  2  0
 55 53  1  0
 55 60  1  0
 56 64  1  0
 56 66  1  0
 57 63  1  0
 57 59  1  0
 58 64  1  0
 59 58  1  0
 60 59  2  0
 61 62  1  0
 61 55  2  0
 62 57  2  0
 63 56  1  0
 64 54  1  0
 66 68  2  0
 67 66  1  0
 69 67  1  0
 70 79  2  0
 70 75  1  0
 71 67  1  0
 71 75  1  0
 72 71  1  0
 73 74  1  0
 73 72  1  0
 74 70  1  0
 75 76  2  0
 76 77  1  0
 78 77  2  0
 79 78  1  0
 80 54  1  0
 80 81  1  0
 80 90  1  0
 81 84  1  0
 82 86  1  0
 82 81  1  0
 83 82  2  0
 86 85  1  0
 88 86  1  0
 88 89  1  0
 88 87  1  0
 90 93  1  1
 90 91  1  0
 92 90  1  0
M  ISO  4  14 100  23 100  52 101  53 101
M  END
>  <TORSDO>  (3) 
F 18

>  <SCORE>  (3) 
-13.162

>  <name>  (3) 
2

>  <ligand_id>  (3) 
2

>  <original_smiles>  (3) 
[H]C1=C(C([H])([H])Oc2c([H])c([H])c3c(c2[H])C([H])([H])N(C(=O)C([H])(N([H])C(=O)C([H])(N([H])C([H])([H])[H])C([H])([H])[H])C(C([H])([H])[H])(C([H])([H])[H])C([H])([H])[H])C([H])(C(=O)N([H])C2([H])c4c([H])c([H])c([H])c([H])c4C([H])([H])C([H])([H])C2([H])[H])C3([H])[H])N(c2c([H])c([H])c(N(C(=O)N3C([H])([H])C([H])([H])C([H])([H])C([H])(n4nc(-c5c([H])c([H])c(Oc6c([H])c([H])c(F)c([H])c6F)c([H])c5[H])c(C(=O)N([H])[H])c4N([H])[H])C3([H])[H])C([H])([H])[H])c(C([H])([H])[H])c2[H])C([H])([H])C([H])([H])C1([H])[H]

>  <smiles>  (3) 
[H]C1=C(C([H])([H])Oc2c([H])c([H])c3c(c2[H])C([H])([H])N(C(=O)C([H])(N([H])C(=O)C([H])(N([H])C([H])([H])[H])C([H])([H])[H])C(C([H])([H])[H])(C([H])([H])[H])C([H])([H])[H])C([H])(C(=O)N([H])C2([H])c4c([H])c([H])c([H])c([H])c4C([H])([H])C([H])([H])C2([H])[H])C3([H])[H])N(c2c([H])c([H])c(N(C(=O)N3C([H])([H])C([H])([H])C([H])([H])C([H])(n4nc(-c5c([H])c([H])c(Oc6c([H])c([H])c(F)c([H])c6F)c([H])c5[H])c(C(=O)N([H])[H])c4N([H])[H])C3([H])[H])C([H])([H])[H])c(C([H])([H])[H])c2[H])C([H])([H])C([H])([H])C1([H])[H]

$$$$
3:0:0
     RDKit          3D

 94102  0  0  1  0  0  0  0  0999 V2000
  -31.3880  -18.3620   22.9400 C   0  0  0  0  0  3  0  0  0  0  0  0
  -31.0710  -19.6320   22.4170 C   0  0  0  0  0  3  0  0  0  0  0  0
  -30.0080  -18.5460   20.5430 C   0  0  0  0  0  3  0  0  0  0  0  0
  -30.3000  -17.2430   21.0460 C   0  0  0  0  0  0  0  0  0  0  0  0
  -30.9960  -17.1650   22.2930 C   0  0  0  0  0  0  0  0  0  0  0  0
  -30.3530  -19.7320   21.2110 C   0  0  0  0  0  0  0  0  0  0  0  0
  -31.2990  -15.9690   22.9560 N   0  0  0  0  0  0  0  0  0  0  0  0
  -31.5980  -16.0110   23.9270 H   0  0  0  0  0  0  0  0  0  0  0  0
  -30.7900  -15.1160   22.7530 H   0  0  0  0  0  0  0  0  0  0  0  0
  -29.7710  -16.0930   20.2190 C   0  0  0  0  0  3  0  0  0  0  0  0
  -28.7130  -16.2800   19.5450 N   0  0  0  0  0  2  0  0  0  0  0  0
  -28.5460  -15.4730   18.9550 H   0  0  0  0  0  0  0  0  0  0  0  0
  -30.5920  -14.7950   20.0460 C   0  0  0  0  0  0  0  0  0  0  0  0
  -30.2310  -12.6110   18.9430 C   0  0  0  0  0  2  0  0  0  0  0  0
  -29.2300  -12.7720   17.7780 C   0  0  0  0  0  2  0  0  0  0  0  0
  -27.7940  -12.5410   18.2850 C   0  0  0  0  0  2  0  0  0  0  0  0
  -27.4690  -13.4080   19.5230 C   0  0  0  0  0  3  0  0  0  0  0  0
  -28.5920  -13.3190   20.5900 C   0  0  0  0  0  2  0  0  0  0  0  0
  -29.8880  -13.6250   19.9550 N   0  0  0  0  0  0  0  0  0  0  0  0
  -31.7590  -14.9000   19.6670 O   0  0  0  0  0  0  0  0  0  0  0  0
  -25.1310  -14.0080   20.3950 C   0  0  0  0  0  0  0  0  0  0  0  0
  -24.0930  -13.2210   20.8110 C   0  0  0  0  0  0  0  0  0  0  0  0
  -24.5700  -11.8760   20.7490 C   0  0  0  0  0  0  0  0  0  0  0  0
  -26.1640  -13.1300   20.0930 N   0  0  0  0  0  0  0  0  0  0  0  0
  -25.8400  -11.8490   20.3740 N   0  0  0  0  0  0  0  0  0  0  0  0
  -23.8780  -10.6030   20.9570 C   0  0  0  0  0  0  0  0  0  0  0  0
  -24.3510   -9.6500   21.8860 C   0  0  0  0  0  3  0  0  0  0  0  0
  -23.6590   -8.4370   22.0770 C   0  0  0  0  0  3  0  0  0  0  0  0
  -22.4820   -8.1690   21.3380 C   0  0  0  0  0  0  0  0  0  0  0  0
  -22.0300   -9.1110   20.3970 C   0  0  0  0  0  3  0  0  0  0  0  0
  -22.7230  -10.3150   20.2030 C   0  0  0  0  0  3  0  0  0  0  0  0
  -21.7570   -7.0080   21.4440 O   0  0  0  0  0  0  0  0  0  0  0  0
  -21.7230   -6.2860   22.6100 C   0  0  0  0  0  0  0  0  0  0  0  0
  -21.2660   -6.8500   23.8220 C   0  0  0  0  0  3  0  0  0  0  0  0
  -21.1840   -6.0520   24.9820 C   0  0  0  0  0  3  0  0  0  0  0  0
  -21.5460   -4.6930   24.9280 C   0  0  0  0  0  0  0  0  0  0  0  0
  -21.9960   -4.1290   23.7220 C   0  0  0  0  0  3  0  0  0  0  0  0
  -22.0810   -4.9250   22.5640 C   0  0  0  0  0  0  0  0  0  0  0  0
  -22.4960   -4.3710   21.3980 F   0  0  0  0  0  0  0  0  0  0  0  0
  -21.4570   -3.9260   26.0390 F   0  0  0  0  0  0  0  0  0  0  0  0
  -22.7020  -13.6760   21.1560 C   0  0  0  0  0  0  0  0  0  0  0  0
  -22.0240  -12.9570   22.0420 N   0  0  0  0  0  0  0  0  0  0  0  0
  -22.2280  -14.7050   20.6730 O   0  0  0  0  0  0  0  0  0  0  0  0
  -22.4180  -12.1220   22.4540 H   0  0  0  0  0  0  0  0  0  0  0  0
  -21.0940  -13.2420   22.3160 H   0  0  0  0  0  0  0  0  0  0  0  0
  -25.2800  -15.3810   20.2210 N   0  0  0  0  0  0  0  0  0  0  0  0
  -24.5160  -16.0380   20.3500 H   0  0  0  0  0  0  0  0  0  0  0  0
  -26.1400  -15.8260   19.9160 H   0  0  0  0  0  0  0  0  0  0  0  0
  -29.9530  -20.9140   20.6170 O   0  0  0  0  0  0  0  0  0  0  0  0
  -30.0600  -22.1620   21.3070 C   0  0  0  0  0  2  0  0  0  0  0  0
  -29.2900  -23.1780   20.4290 C   0  0  0  0  0  2  0  0  0  0  0  0
  -29.2230  -24.6570   20.8920 C   0  0  0  0  0  2  0  0  0  0  0  0
  -28.6260  -25.5640   19.7850 C   0  0  0  0  0  2  0  0  0  0  0  0
  -28.5560  -26.9540   20.1770 O   0  0  0  0  0  0  0  0  0  0  0  0
  -24.5910  -31.9920   23.2630 C   0  0  0  0  0  0  0  0  0  0  0  0
  -27.3530  -27.6420   20.1270 C   0  0  0  0  0  0  0  0  0  0  0  0
  -23.4310  -30.5940   21.5860 C   0  0  0  0  0  3  0  0  0  0  0  0
  -24.9270  -29.1190   20.1390 C   0  0  0  0  0  0  0  0  0  0  0  0
  -25.9510  -31.0010   21.4190 C   0  0  0  0  0  2  0  0  0  0  0  0
  -26.0650  -29.6410   20.7630 C   0  0  0  0  0  0  0  0  0  0  0  0
  -27.2750  -28.9050   20.7630 C   0  0  0  0  0  3  0  0  0  0  0  0
  -26.2000  -27.1600   19.4600 C   0  0  0  0  0  3  0  0  0  0  0  0
  -24.9930  -27.8820   19.4810 C   0  0  0  0  0  3  0  0  0  0  0  0
  -23.6630  -29.9470   20.1930 C   0  0  0  0  0  2  0  0  0  0  0  0
  -24.6750  -31.2110   22.1470 N   0  0  0  0  0  0  0  0  0  0  0  0
  -23.4980  -32.2270   23.7990 O   0  0  0  0  0  0  0  0  0  0  0  0
  -22.7980  -29.5400   22.5230 C   0  0  0  0  0  0  0  0  0  0  0  0
  -21.4810  -29.3200   22.3770 N   0  0  0  0  0  0  0  0  0  0  0  0
  -23.4890  -28.9190   23.3360 O   0  0  0  0  0  0  0  0  0  0  0  0
  -20.9800  -29.8730   21.6960 H   0  0  0  0  0  0  0  0  0  0  0  0
  -18.1390  -28.0240   22.8300 C   0  0  0  0  0  0  0  0  0  0  0  0
  -20.6850  -28.3450   23.1240 C   0  0  0  0  0  3  0  0  0  0  0  0
  -20.8280  -26.9260   22.5240 C   0  0  0  0  0  2  0  0  0  0  0  0
  -19.7440  -26.5940   21.4940 C   0  0  0  0  0  2  0  0  0  0  0  0
  -18.3540  -26.6920   22.1290 C   0  0  0  0  0  2  0  0  0  0  0  0
  -19.2330  -28.8070   23.2840 C   0  0  0  0  0  0  0  0  0  0  0  0
  -18.9790  -30.0530   23.8950 C   0  0  0  0  0  3  0  0  0  0  0  0
  -17.6600  -30.5190   24.0570 C   0  0  0  0  0  3  0  0  0  0  0  0
  -16.5790  -29.7330   23.6210 C   0  0  0  0  0  3  0  0  0  0  0  0
  -16.8190  -28.4880   23.0150 C   0  0  0  0  0  3  0  0  0  0  0  0
  -25.8540  -32.6450   23.9010 C   0  0  0  0  0  3  0  0  0  0  0  0
  -25.5210  -34.0400   24.2180 N   0  0  0  0  0  0  0  0  0  0  0  0
  -25.8400  -35.0920   23.4530 C   0  0  0  0  0  0  0  0  0  0  0  0
  -26.5230  -34.9930   22.4300 O   0  0  0  0  0  0  0  0  0  0  0  0
  -24.9180  -34.1910   25.0140 H   0  0  0  0  0  0  0  0  0  0  0  0
  -24.0790  -36.8460   23.0710 C   0  0  0  0  0  1  0  0  0  0  0  0
  -25.3220  -36.4740   23.8930 C   0  0  0  0  0  3  0  0  0  0  0  0
  -27.4330  -37.4130   24.7310 C   0  0  0  0  0  1  0  0  0  0  0  0
  -26.3340  -37.5470   23.7770 N   0  0  0  0  0  0  0  0  0  0  0  0
  -25.9060  -38.4600   23.9130 H   0  0  0  0  0  0  0  0  0  0  0  0
  -26.3600  -31.8900   25.1910 C   0  0  1  0  0  0  0  0  0  0  0  0
  -25.2530  -31.6350   26.2420 C   0  0  0  0  0  1  0  0  0  0  0  0
  -26.9770  -30.5220   24.8150 C   0  0  0  0  0  1  0  0  0  0  0  0
  -27.4810  -32.7100   25.8750 C   0  0  0  0  0  1  0  0  0  0  0  0
  2  1  1  0
  3  4  2  0
  3  6  1  0
  4  5  1  0
  5  1  2  0
  5  7  1  0
  6  2  2  0
  7  8  1  0
  9  7  1  0
 10 11  1  0
 10  4  1  0
 12 11  1  0
 13 10  1  0
 14 19  1  0
 15 16  1  0
 15 14  1  0
 17 16  1  0
 17 24  1  0
 17 18  1  0
 19 13  1  0
 19 18  1  0
 20 13  2  0
 21 22  2  0
 22 41  1  0
 23 22  1  0
 23 26  1  0
 24 25  1  0
 24 21  1  0
 25 23  2  0
 26 27  1  0
 27 28  2  0
 29 32  1  0
 29 28  1  0
 30 29  2  0
 31 30  1  0
 31 26  2  0
 32 33  1  0
 33 34  1  0
 34 35  2  0
 36 35  1  0
 36 40  1  0
 37 36  2  0
 38 33  2  0
 38 37  1  0
 39 38  1  0
 41 42  1  0
 42 45  1  0
 42 44  1  0
 43 41  2  0
 46 47  1  0
 46 21  1  0
 48 46  1  0
 49  6  1  0
 49 50  1  0
 51 52  1  0
 51 50  1  0
 53 54  1  0
 53 52  1  0
 55 66  2  0
 56 54  1  0
 56 61  1  0
 57 65  1  0
 57 67  1  0
 58 64  1  0
 58 60  1  0
 59 65  1  0
 60 61  2  0
 60 59  1  0
 62 63  1  0
 62 56  2  0
 63 58  2  0
 64 57  1  0
 65 55  1  0
 67 69  2  0
 68 67  1  0
 70 68  1  0
 71 80  2  0
 71 76  1  0
 72 68  1  0
 72 76  1  0
 73 72  1  0
 74 75  1  0
 74 73  1  0
 75 71  1  0
 76 77  2  0
 77 78  1  0
 79 78  2  0
 80 79  1  0
 81 55  1  0
 81 82  1  0
 81 91  1  0
 82 85  1  0
 83 87  1  0
 83 82  1  0
 84 83  2  0
 87 86  1  0
 89 87  1  0
 89 90  1  0
 89 88  1  0
 91 94  1  1
 91 92  1  0
 93 91  1  0
M  ISO  4  10 100  13 100  53 101  54 101
M  END
>  <TORSDO>  (4) 
F 23

>  <SCORE>  (4) 
-12.092

>  <name>  (4) 
3

>  <ligand_id>  (4) 
3

>  <original_smiles>  (4) 
[H]N=C(C(=O)N1C([H])([H])C([H])([H])C([H])([H])C([H])(n2nc(-c3c([H])c([H])c(Oc4c([H])c([H])c(F)c([H])c4F)c([H])c3[H])c(C(=O)N([H])[H])c2N([H])[H])C1([H])[H])c1c([H])c(OC([H])([H])C([H])([H])C([H])([H])C([H])([H])Oc2c([H])c([H])c3c(c2[H])C([H])([H])N(C(=O)C([H])(N([H])C(=O)C([H])(N([H])C([H])([H])[H])C([H])([H])[H])C(C([H])([H])[H])(C([H])([H])[H])C([H])([H])[H])C([H])(C(=O)N([H])C2([H])c4c([H])c([H])c([H])c([H])c4C([H])([H])C([H])([H])C2([H])[H])C3([H])[H])c([H])c([H])c1N([H])[H]

>  <smiles>  (4) 
[H]N=C(C(=O)N1C([H])([H])C([H])([H])C([H])([H])C([H])(n2nc(-c3c([H])c([H])c(Oc4c([H])c([H])c(F)c([H])c4F)c([H])c3[H])c(C(=O)N([H])[H])c2N([H])[H])C1([H])[H])c1c([H])c(OC([H])([H])C([H])([H])C([H])([H])C([H])([H])Oc2c([H])c([H])c3c(c2[H])C([H])([H])N(C(=O)C([H])(N([H])C(=O)C([H])(N([H])C([H])([H])[H])C([H])([H])[H])C(C([H])([H])[H])(C([H])([H])[H])C([H])([H])[H])C([H])(C(=O)N([H])C2([H])c4c([H])c([H])c([H])c([H])c4C([H])([H])C([H])([H])C2([H])[H])C3([H])[H])c([H])c([H])c1N([H])[H]

$$$$
4:0:0
     RDKit          3D

 97106  0  0  1  0  0  0  0  0999 V2000
  -27.9930  -24.9550   21.6660 C   0  0  0  0  0  0  0  0  0  0  0  0
  -28.2220  -23.6950   21.2060 C   0  0  0  0  0  0  0  0  0  0  0  0
  -26.8590  -25.2060   22.6000 C   0  0  0  0  0  0  0  0  0  0  0  0
  -25.9210  -24.0400   22.9100 C   0  0  0  0  0  2  0  0  0  0  0  0
  -25.9630  -22.9860   21.7990 C   0  0  0  0  0  2  0  0  0  0  0  0
  -29.3770  -23.3970   20.2570 C   0  0  0  0  0  1  0  0  0  0  0  0
  -27.3500  -22.6260   21.4720 N   0  0  0  0  0  0  0  0  0  0  0  0
  -26.6580  -26.2850   23.1650 O   0  0  0  0  0  0  0  0  0  0  0  0
  -27.0930  -18.8630   21.5490 C   0  0  0  0  0  3  0  0  0  0  0  0
  -29.3220  -19.5150   22.2530 C   0  0  0  0  0  3  0  0  0  0  0  0
  -26.7630  -20.2180   21.3440 C   0  0  0  0  0  3  0  0  0  0  0  0
  -28.9800  -20.8720   22.0700 C   0  0  0  0  0  3  0  0  0  0  0  0
  -28.3720  -18.4990   22.0190 C   0  0  0  0  0  0  0  0  0  0  0  0
  -27.6940  -21.2540   21.6190 C   0  0  0  0  0  0  0  0  0  0  0  0
  -28.6810  -17.0430   22.3740 C   0  0  0  0  0  2  0  0  0  0  0  0
  -30.7620  -14.4150   20.6440 C   0  0  0  0  0  0  0  0  0  0  0  0
  -30.4090  -12.3070   19.3970 C   0  0  0  0  0  2  0  0  0  0  0  0
  -29.4830  -12.5200   18.1880 C   0  0  0  0  0  2  0  0  0  0  0  0
  -28.0070  -12.3730   18.6050 C   0  0  0  0  0  2  0  0  0  0  0  0
  -27.6590  -13.1980   19.8720 C   0  0  0  0  0  3  0  0  0  0  0  0
  -28.7030  -12.9730   20.9900 C   0  0  0  0  0  2  0  0  0  0  0  0
  -30.0340  -13.2800   20.4350 N   0  0  0  0  0  0  0  0  0  0  0  0
  -31.8450  -14.6190   20.0820 O   0  0  0  0  0  0  0  0  0  0  0  0
  -29.3420  -16.2210   21.2420 C   0  0  0  0  0  0  0  0  0  0  0  0
  -31.1000  -15.4320   22.7840 C   0  0  0  0  0  1  0  0  0  0  0  0
  -30.2940  -15.2940   21.5590 N   0  0  0  0  0  0  0  0  0  0  0  0
  -28.9210  -16.3940   20.0900 O   0  0  0  0  0  0  0  0  0  0  0  0
  -25.2610  -13.8130   20.5660 C   0  0  0  0  0  0  0  0  0  0  0  0
  -24.1840  -13.0430   20.9160 C   0  0  0  0  0  0  0  0  0  0  0  0
  -24.6370  -11.6870   20.8720 C   0  0  0  0  0  0  0  0  0  0  0  0
  -26.3020  -12.9260   20.3350 N   0  0  0  0  0  0  0  0  0  0  0  0
  -25.9290  -11.6430   20.5770 N   0  0  0  0  0  0  0  0  0  0  0  0
  -23.9010  -10.4270   21.0370 C   0  0  0  0  0  0  0  0  0  0  0  0
  -24.3570   -9.4190   21.9160 C   0  0  0  0  0  3  0  0  0  0  0  0
  -23.6250   -8.2230   22.0740 C   0  0  0  0  0  3  0  0  0  0  0  0
  -22.4220   -8.0260   21.3550 C   0  0  0  0  0  0  0  0  0  0  0  0
  -21.9860   -9.0220   20.4650 C   0  0  0  0  0  3  0  0  0  0  0  0
  -22.7160  -10.2100   20.3030 C   0  0  0  0  0  3  0  0  0  0  0  0
  -21.6620   -6.8840   21.4220 O   0  0  0  0  0  0  0  0  0  0  0  0
  -21.6840   -6.0710   22.5260 C   0  0  0  0  0  0  0  0  0  0  0  0
  -21.4010   -6.5630   23.8200 C   0  0  0  0  0  3  0  0  0  0  0  0
  -21.3650   -5.6780   24.9170 C   0  0  0  0  0  3  0  0  0  0  0  0
  -21.6030   -4.3050   24.7210 C   0  0  0  0  0  0  0  0  0  0  0  0
  -21.8810   -3.8120   23.4330 C   0  0  0  0  0  3  0  0  0  0  0  0
  -21.9170   -4.6950   22.3390 C   0  0  0  0  0  0  0  0  0  0  0  0
  -22.1660   -4.2130   21.0960 F   0  0  0  0  0  0  0  0  0  0  0  0
  -21.5640   -3.4530   25.7730 F   0  0  0  0  0  0  0  0  0  0  0  0
  -22.7870  -13.5260   21.1810 C   0  0  0  0  0  0  0  0  0  0  0  0
  -22.0500  -12.8280   22.0370 N   0  0  0  0  0  0  0  0  0  0  0  0
  -22.3570  -14.5560   20.6620 O   0  0  0  0  0  0  0  0  0  0  0  0
  -22.4110  -11.9960   22.4780 H   0  0  0  0  0  0  0  0  0  0  0  0
  -21.1120  -13.1320   22.2580 H   0  0  0  0  0  0  0  0  0  0  0  0
  -25.4420  -15.1830   20.4060 N   0  0  0  0  0  0  0  0  0  0  0  0
  -24.6640  -15.8300   20.4720 H   0  0  0  0  0  0  0  0  0  0  0  0
  -26.2880  -15.6070   20.0450 H   0  0  0  0  0  0  0  0  0  0  0  0
  -28.8320  -26.1770   21.2760 C   0  0  0  0  0  2  0  0  0  0  0  0
  -28.4000  -26.7380   20.0330 O   0  0  0  0  0  0  0  0  0  0  0  0
  -24.6120  -31.8720   23.2150 C   0  0  0  0  0  0  0  0  0  0  0  0
  -27.2420  -27.4750   20.0900 C   0  0  0  0  0  0  0  0  0  0  0  0
  -23.4000  -30.4990   21.5530 C   0  0  0  0  0  3  0  0  0  0  0  0
  -24.8490  -28.9670   20.1190 C   0  0  0  0  0  0  0  0  0  0  0  0
  -25.9260  -30.8490   21.3650 C   0  0  0  0  0  2  0  0  0  0  0  0
  -26.0050  -29.4840   20.7170 C   0  0  0  0  0  0  0  0  0  0  0  0
  -27.2060  -28.7430   20.7080 C   0  0  0  0  0  3  0  0  0  0  0  0
  -26.0770  -26.9640   19.4840 C   0  0  0  0  0  3  0  0  0  0  0  0
  -24.8750  -27.7000   19.5060 C   0  0  0  0  0  3  0  0  0  0  0  0
  -23.6130  -29.8370   20.1650 C   0  0  0  0  0  2  0  0  0  0  0  0
  -24.6650  -31.0860   22.1040 N   0  0  0  0  0  0  0  0  0  0  0  0
  -23.5320  -32.1470   23.7550 O   0  0  0  0  0  0  0  0  0  0  0  0
  -22.7380  -29.4720   22.4990 C   0  0  0  0  0  0  0  0  0  0  0  0
  -21.4100  -29.3140   22.3760 N   0  0  0  0  0  0  0  0  0  0  0  0
  -23.4150  -28.8190   23.2970 O   0  0  0  0  0  0  0  0  0  0  0  0
  -20.9220  -29.9010   21.7140 H   0  0  0  0  0  0  0  0  0  0  0  0
  -18.0280  -28.1300   22.8570 C   0  0  0  0  0  0  0  0  0  0  0  0
  -20.5870  -28.3690   23.1270 C   0  0  0  0  0  3  0  0  0  0  0  0
  -20.6870  -26.9470   22.5240 C   0  0  0  0  0  2  0  0  0  0  0  0
  -19.5700  -26.6320   21.5230 C   0  0  0  0  0  2  0  0  0  0  0  0
  -18.1960  -26.7770   22.1860 C   0  0  0  0  0  2  0  0  0  0  0  0
  -19.1520  -28.8820   23.2880 C   0  0  0  0  0  0  0  0  0  0  0  0
  -18.9440  -30.1460   23.8800 C   0  0  0  0  0  3  0  0  0  0  0  0
  -17.6430  -30.6590   24.0450 C   0  0  0  0  0  3  0  0  0  0  0  0
  -16.5340  -29.9040   23.6260 C   0  0  0  0  0  3  0  0  0  0  0  0
  -16.7260  -28.6410   23.0400 C   0  0  0  0  0  3  0  0  0  0  0  0
  -25.9030  -32.4840   23.8430 C   0  0  0  0  0  3  0  0  0  0  0  0
  -26.4490  -31.6570   25.0720 C   0  0  1  0  0  0  0  0  0  0  0  0
  -25.3790  -31.3620   26.1480 C   0  0  0  0  0  1  0  0  0  0  0  0
  -27.0320  -30.3030   24.6020 C   0  0  0  0  0  1  0  0  0  0  0  0
  -27.6100  -32.4260   25.7450 C   0  0  0  0  0  1  0  0  0  0  0  0
  -25.5900  -33.8630   24.2370 N   0  0  0  0  0  0  0  0  0  0  0  0
  -25.9030  -34.9480   23.5160 C   0  0  0  0  0  0  0  0  0  0  0  0
  -26.5590  -34.8920   22.4720 O   0  0  0  0  0  0  0  0  0  0  0  0
  -25.0050  -33.9800   25.0510 H   0  0  0  0  0  0  0  0  0  0  0  0
  -24.1490  -36.7310   23.2640 C   0  0  0  0  0  1  0  0  0  0  0  0
  -25.4110  -36.3120   24.0350 C   0  0  0  0  0  3  0  0  0  0  0  0
  -27.5590  -37.1820   24.8480 C   0  0  0  0  0  1  0  0  0  0  0  0
  -26.4300  -37.3810   23.9410 N   0  0  0  0  0  0  0  0  0  0  0  0
  -26.0190  -38.2880   24.1410 H   0  0  0  0  0  0  0  0  0  0  0  0
  1  3  1  0
  2  7  1  0
  2  1  2  0
  3  4  1  0
  3  8  2  0
  5  4  1  0
  6  2  1  0
  7 14  1  0
  7  5  1  0
  9 13  1  0
 11  9  2  0
 11 14  1  0
 12 10  1  0
 13 10  2  0
 13 15  1  0
 14 12  2  0
 16 26  1  0
 17 22  1  0
 18 19  1  0
 18 17  1  0
 20 19  1  0
 20 31  1  0
 20 21  1  0
 22 16  1  0
 22 21  1  0
 23 16  2  0
 24 26  1  0
 24 15  1  0
 26 25  1  0
 27 24  2  0
 28 29  2  0
 29 48  1  0
 30 29  1  0
 30 33  1  0
 31 28  1  0
 31 32  1  0
 32 30  2  0
 33 34  1  0
 34 35  2  0
 36 39  1  0
 36 35  1  0
 37 36  2  0
 38 37  1  0
 38 33  2  0
 39 40  1  0
 40 41  1  0
 41 42  2  0
 43 42  1  0
 43 47  1  0
 44 43  2  0
 45 40  2  0
 45 44  1  0
 46 45  1  0
 48 49  1  0
 49 52  1  0
 49 51  1  0
 50 48  2  0
 53 54  1  0
 53 28  1  0
 55 53  1  0
 56  1  1  0
 57 59  1  0
 57 56  1  0
 58 69  2  0
 59 64  1  0
 60 68  1  0
 60 70  1  0
 61 67  1  0
 61 63  1  0
 62 68  1  0
 63 62  1  0
 64 63  2  0
 65 66  1  0
 65 59  2  0
 66 61  2  0
 67 60  1  0
 68 58  1  0
 70 72  2  0
 71 70  1  0
 73 71  1  0
 74 83  2  0
 74 79  1  0
 75 71  1  0
 75 79  1  0
 76 75  1  0
 77 78  1  0
 77 76  1  0
 78 74  1  0
 79 80  2  0
 80 81  1  0
 82 81  2  0
 83 82  1  0
 84 58  1  0
 84 89  1  0
 84 85  1  0
 85 88  1  1
 85 86  1  0
 87 85  1  0
 89 92  1  0
 90 94  1  0
 90 89  1  0
 91 90  2  0
 94 93  1  0
 96 94  1  0
 96 97  1  0
 96 95  1  0
M  ISO  4  16 100  26 100  56 101  57 101
M  END
>  <TORSDO>  (5) 
F 19

>  <SCORE>  (5) 
3.431

>  <name>  (5) 
4

>  <ligand_id>  (5) 
4

>  <original_smiles>  (5) 
[H]c1c([H])c([H])c2c(c1[H])C([H])([H])C([H])([H])C([H])([H])C2([H])N([H])C(=O)C1([H])N(C(=O)C([H])(N([H])C(=O)C([H])(N([H])C([H])([H])[H])C([H])([H])[H])C(C([H])([H])[H])(C([H])([H])[H])C([H])([H])[H])C([H])([H])c2c([H])c(OC([H])([H])C3=C(C([H])([H])[H])N(c4c([H])c([H])c(C([H])([H])C(=O)N(C(=O)N5C([H])([H])C([H])([H])C([H])([H])C([H])(n6nc(-c7c([H])c([H])c(Oc8c([H])c([H])c(F)c([H])c8F)c([H])c7[H])c(C(=O)N([H])[H])c6N([H])[H])C5([H])[H])C([H])([H])[H])c([H])c4[H])C([H])([H])C([H])([H])C3=O)c([H])c([H])c2C1([H])[H]

>  <smiles>  (5) 
[H]c1c([H])c([H])c2c(c1[H])C([H])([H])C([H])([H])C([H])([H])C2([H])N([H])C(=O)C1([H])N(C(=O)C([H])(N([H])C(=O)C([H])(N([H])C([H])([H])[H])C([H])([H])[H])C(C([H])([H])[H])(C([H])([H])[H])C([H])([H])[H])C([H])([H])c2c([H])c(OC([H])([H])C3=C(C([H])([H])[H])N(c4c([H])c([H])c(C([H])([H])C(=O)N(C(=O)N5C([H])([H])C([H])([H])C([H])([H])C([H])(n6nc(-c7c([H])c([H])c(Oc8c([H])c([H])c(F)c([H])c8F)c([H])c7[H])c(C(=O)N([H])[H])c6N([H])[H])C5([H])[H])C([H])([H])[H])c([H])c4[H])C([H])([H])C([H])([H])C3=O)c([H])c([H])c2C1([H])[H]

$$$$
5:0:0
     RDKit          3D

 96106  0  0  1  0  0  0  0  0999 V2000
  -30.9130  -17.7960   20.2980 C   0  0  0  0  0  3  0  0  0  0  0  0
  -30.6950  -19.1990   20.1940 C   0  0  0  0  0  3  0  0  0  0  0  0
  -28.3210  -18.8180   20.2630 C   0  0  0  0  0  3  0  0  0  0  0  0
  -29.8430  -16.8670   20.4180 C   0  0  0  0  0  0  0  0  0  0  0  0
  -29.3890  -19.7470   20.2140 C   0  0  0  0  0  0  0  0  0  0  0  0
  -28.5250  -17.4090   20.3720 C   0  0  0  0  0  0  0  0  0  0  0  0
  -28.4010  -24.0410   20.4500 C   0  0  0  0  0  0  0  0  0  0  0  0
  -28.1460  -25.3540   20.7260 C   0  0  0  0  0  3  0  0  0  0  0  0
  -27.8780  -22.9640   21.4030 C   0  0  0  0  0  2  0  0  0  0  0  0
  -29.0450  -23.4730   19.1800 C   0  0  0  0  0  2  0  0  0  0  0  0
  -28.7810  -21.7190   21.5290 C   0  0  0  0  0  2  0  0  0  0  0  0
  -29.8170  -22.1110   19.3590 C   0  0  0  0  0  2  0  0  0  0  0  0
  -29.1090  -21.1510   20.2230 N   0  0  0  0  0  0  0  0  0  0  0  0
  -28.3450  -26.4770   19.9320 O   0  0  0  0  0  0  0  0  0  0  0  0
  -24.7230  -31.7060   23.2340 C   0  0  0  0  0  0  0  0  0  0  0  0
  -27.2620  -27.3440   19.9220 C   0  0  0  0  0  0  0  0  0  0  0  0
  -23.4880  -30.4170   21.5240 C   0  0  0  0  0  3  0  0  0  0  0  0
  -24.9100  -28.9300   20.0110 C   0  0  0  0  0  0  0  0  0  0  0  0
  -26.0260  -30.7230   21.3440 C   0  0  0  0  0  2  0  0  0  0  0  0
  -26.0840  -29.3880   20.6230 C   0  0  0  0  0  0  0  0  0  0  0  0
  -27.2680  -28.6060   20.5720 C   0  0  0  0  0  3  0  0  0  0  0  0
  -26.0720  -26.9130   19.3010 C   0  0  0  0  0  3  0  0  0  0  0  0
  -24.9000  -27.6930   19.3430 C   0  0  0  0  0  3  0  0  0  0  0  0
  -23.6820  -29.8100   20.1100 C   0  0  0  0  0  2  0  0  0  0  0  0
  -24.7630  -30.9610   22.0920 N   0  0  0  0  0  0  0  0  0  0  0  0
  -23.6480  -31.9720   23.7900 O   0  0  0  0  0  0  0  0  0  0  0  0
  -22.8130  -29.3620   22.4310 C   0  0  0  0  0  0  0  0  0  0  0  0
  -21.4910  -29.1880   22.2710 N   0  0  0  0  0  0  0  0  0  0  0  0
  -23.4780  -28.7050   23.2360 O   0  0  0  0  0  0  0  0  0  0  0  0
  -21.0150  -29.7690   21.5950 H   0  0  0  0  0  0  0  0  0  0  0  0
  -18.1020  -27.9940   22.6820 C   0  0  0  0  0  0  0  0  0  0  0  0
  -20.6580  -28.2230   22.9900 C   0  0  0  0  0  3  0  0  0  0  0  0
  -20.7580  -26.8180   22.3510 C   0  0  0  0  0  2  0  0  0  0  0  0
  -19.6650  -26.5500   21.3130 C   0  0  0  0  0  2  0  0  0  0  0  0
  -18.2760  -26.6770   21.9450 C   0  0  0  0  0  2  0  0  0  0  0  0
  -19.2210  -28.7280   23.1560 C   0  0  0  0  0  0  0  0  0  0  0  0
  -19.0040  -29.9670   23.8000 C   0  0  0  0  0  3  0  0  0  0  0  0
  -17.7010  -30.4670   23.9770 C   0  0  0  0  0  3  0  0  0  0  0  0
  -16.5960  -29.7300   23.5170 C   0  0  0  0  0  3  0  0  0  0  0  0
  -16.7980  -28.4950   22.8750 C   0  0  0  0  0  3  0  0  0  0  0  0
  -26.0230  -32.2780   23.8820 C   0  0  0  0  0  3  0  0  0  0  0  0
  -26.5440  -31.4200   25.0990 C   0  0  1  0  0  0  0  0  0  0  0  0
  -25.4600  -31.1290   26.1640 C   0  0  0  0  0  1  0  0  0  0  0  0
  -27.1050  -30.0640   24.6150 C   0  0  0  0  0  1  0  0  0  0  0  0
  -27.7120  -32.1580   25.7960 C   0  0  0  0  0  1  0  0  0  0  0  0
  -25.7350  -33.6550   24.3040 N   0  0  0  0  0  0  0  0  0  0  0  0
  -26.0570  -34.7500   23.6010 C   0  0  0  0  0  0  0  0  0  0  0  0
  -26.6950  -34.7060   22.5460 O   0  0  0  0  0  0  0  0  0  0  0  0
  -25.1670  -33.7660   25.1310 H   0  0  0  0  0  0  0  0  0  0  0  0
  -24.3250  -36.5650   23.4200 C   0  0  0  0  0  1  0  0  0  0  0  0
  -25.5940  -36.1100   24.1580 C   0  0  0  0  0  3  0  0  0  0  0  0
  -27.7620  -36.9380   24.9600 C   0  0  0  0  0  1  0  0  0  0  0  0
  -26.6270  -37.1650   24.0680 N   0  0  0  0  0  0  0  0  0  0  0  0
  -26.2310  -38.0750   24.2890 H   0  0  0  0  0  0  0  0  0  0  0  0
  -30.0470  -15.3870   20.7470 C   0  0  0  0  0  0  0  0  0  0  0  0
  -29.8940  -14.9830   21.9420 N   0  0  0  0  0  0  0  0  0  0  0  0
  -29.6080  -15.7510   22.5380 H   0  0  0  0  0  0  0  0  0  0  0  0
  -30.4650  -14.3880   19.6420 C   0  0  0  0  0  0  0  0  0  0  0  0
  -30.1210  -12.2160   18.4860 C   0  0  0  0  0  2  0  0  0  0  0  0
  -29.0750  -12.3700   17.3630 C   0  0  0  0  0  2  0  0  0  0  0  0
  -27.6550  -12.1460   17.9140 C   0  0  0  0  0  2  0  0  0  0  0  0
  -27.3890  -12.9750   19.1990 C   0  0  0  0  0  3  0  0  0  0  0  0
  -28.5400  -12.8080   20.2150 C   0  0  0  0  0  2  0  0  0  0  0  0
  -29.8050  -13.1860   19.5540 N   0  0  0  0  0  0  0  0  0  0  0  0
  -31.4290  -14.6590   18.9180 O   0  0  0  0  0  0  0  0  0  0  0  0
  -25.0300  -13.4810   20.0900 C   0  0  0  0  0  0  0  0  0  0  0  0
  -24.0380  -12.6670   20.5700 C   0  0  0  0  0  0  0  0  0  0  0  0
  -24.5680  -11.3410   20.5400 C   0  0  0  0  0  0  0  0  0  0  0  0
  -26.0970  -12.6470   19.7980 N   0  0  0  0  0  0  0  0  0  0  0  0
  -25.8270  -11.3560   20.1260 N   0  0  0  0  0  0  0  0  0  0  0  0
  -23.9260  -10.0520   20.8270 C   0  0  0  0  0  0  0  0  0  0  0  0
  -24.4190   -9.1880   21.8310 C   0  0  0  0  0  3  0  0  0  0  0  0
  -23.7730   -7.9620   22.1000 C   0  0  0  0  0  3  0  0  0  0  0  0
  -22.6230   -7.5890   21.3650 C   0  0  0  0  0  0  0  0  0  0  0  0
  -22.1520   -8.4400   20.3500 C   0  0  0  0  0  3  0  0  0  0  0  0
  -22.7980   -9.6580   20.0810 C   0  0  0  0  0  3  0  0  0  0  0  0
  -21.9460   -6.4050   21.5390 O   0  0  0  0  0  0  0  0  0  0  0  0
  -21.8510   -5.8050   22.7680 C   0  0  0  0  0  0  0  0  0  0  0  0
  -21.2630   -6.4570   23.8730 C   0  0  0  0  0  3  0  0  0  0  0  0
  -21.1220   -5.7790   25.1000 C   0  0  0  0  0  3  0  0  0  0  0  0
  -21.5590   -4.4460   25.2220 C   0  0  0  0  0  0  0  0  0  0  0  0
  -22.1400   -3.7920   24.1210 C   0  0  0  0  0  3  0  0  0  0  0  0
  -22.2830   -4.4690   22.8970 C   0  0  0  0  0  0  0  0  0  0  0  0
  -22.8240   -3.8260   21.8340 F   0  0  0  0  0  0  0  0  0  0  0  0
  -21.4160   -3.7910   26.3970 F   0  0  0  0  0  0  0  0  0  0  0  0
  -22.6460  -13.0850   20.9500 C   0  0  0  0  0  0  0  0  0  0  0  0
  -22.0310  -12.3790   21.8920 N   0  0  0  0  0  0  0  0  0  0  0  0
  -22.1140  -14.0710   20.4440 O   0  0  0  0  0  0  0  0  0  0  0  0
  -22.4740  -11.5810   22.3220 H   0  0  0  0  0  0  0  0  0  0  0  0
  -21.1010  -12.6420   22.1870 H   0  0  0  0  0  0  0  0  0  0  0  0
  -25.1030  -14.8500   19.8600 N   0  0  0  0  0  4  0  0  0  0  0  0
  -24.3210  -15.4700   20.0320 H   0  0  0  0  0  0  0  0  0  0  0  0
  -25.9470  -15.3400   19.5880 H   0  0  0  0  0  0  0  0  0  0  0  0
  -27.4720  -16.5190   20.4600 O   0  0  0  0  0  0  0  0  0  0  0  0
  -25.2560  -15.8930   21.0950 C   0  0  0  0  0  2  0  0  0  0  0  0
  -26.1480  -17.0240   20.5750 C   0  0  0  0  0  2  0  0  0  0  0  0
  1  4  1  0
  2  5  1  0
  2  1  2  0
  3  6  1  0
  4 55  1  0
  5 13  1  0
  5  3  2  0
  6  4  2  0
  6 94  1  0
  7  8  2  0
  7  9  1  0
  9 11  1  0
 10 12  1  0
 10  7  1  0
 12 13  1  0
 13 11  1  0
 14  8  1  0
 15 26  2  0
 16 14  1  0
 16 21  1  0
 17 25  1  0
 17 27  1  0
 18 24  1  0
 18 20  1  0
 19 25  1  0
 20 19  1  0
 21 20  2  0
 22 23  1  0
 22 16  2  0
 23 18  2  0
 24 17  1  0
 25 15  1  0
 27 29  2  0
 28 27  1  0
 30 28  1  0
 31 40  2  0
 31 36  1  0
 32 28  1  0
 32 36  1  0
 33 32  1  0
 34 35  1  0
 34 33  1  0
 35 31  1  0
 36 37  2  0
 37 38  1  0
 39 38  2  0
 40 39  1  0
 41 15  1  0
 41 46  1  0
 41 42  1  0
 42 45  1  1
 42 43  1  0
 44 42  1  0
 46 49  1  0
 47 51  1  0
 47 46  1  0
 48 47  2  0
 51 50  1  0
 53 51  1  0
 53 54  1  0
 53 52  1  0
 55 56  2  0
 56 57  1  0
 58 55  1  0
 59 64  1  0
 60 61  1  0
 60 59  1  0
 62 61  1  0
 62 69  1  0
 62 63  1  0
 64 58  1  0
 64 63  1  0
 65 58  2  0
 66 67  2  0
 67 86  1  0
 68 67  1  0
 68 71  1  0
 69 66  1  0
 69 70  1  0
 70 68  2  0
 71 72  1  0
 72 73  2  0
 74 77  1  0
 74 73  1  0
 75 74  2  0
 76 75  1  0
 76 71  2  0
 77 78  1  0
 78 83  2  0
 78 79  1  0
 79 80  2  0
 80 81  1  0
 81 85  1  0
 82 81  2  0
 83 82  1  0
 84 83  1  0
 86 87  1  0
 87 90  1  0
 87 89  1  0
 88 86  2  0
 91 92  1  0
 91 66  1  0
 91 95  1  0
 93 91  1  0
 94 96  1  0
 96 95  1  0
M  ISO  4   8 101  14 101  55 100  58 100
M  END
>  <TORSDO>  (6) 
F 20

>  <SCORE>  (6) 
-11.072

>  <name>  (6) 
5

>  <ligand_id>  (6) 
5

>  <original_smiles>  (6) 
[H]N=C(C(=O)N1C([H])([H])C([H])([H])C([H])([H])C([H])(n2nc(-c3c([H])c([H])c(Oc4c([H])c([H])c(F)c([H])c4F)c([H])c3[H])c(C(=O)N([H])[H])c2N([H])[H])C1([H])[H])c1c([H])c([H])c(N2C([H])([H])C([H])([H])C(=C([H])Oc3c([H])c([H])c4c(c3[H])C([H])([H])N(C(=O)C([H])(N([H])C(=O)C([H])(N([H])C([H])([H])[H])C([H])([H])[H])C(C([H])([H])[H])(C([H])([H])[H])C([H])([H])[H])C([H])(C(=O)N([H])C3([H])c5c([H])c([H])c([H])c([H])c5C([H])([H])C([H])([H])C3([H])[H])C4([H])[H])C([H])([H])C2([H])[H])c([H])c1OC([H])([H])C([H])([H])[H]

>  <smiles>  (6) 
[H]N=C(C(=O)N1C([H])([H])C([H])([H])C([H])([H])C([H])(n2nc(-c3c([H])c([H])c(Oc4c([H])c([H])c(F)c([H])c4F)c([H])c3[H])c(C(=O)N([H])[H])c2N([H])[H])C1([H])[H])c1c([H])c([H])c(N2C([H])([H])C([H])([H])C(=C([H])Oc3c([H])c([H])c4c(c3[H])C([H])([H])N(C(=O)C([H])(N([H])C(=O)C([H])(N([H])C([H])([H])[H])C([H])([H])[H])C(C([H])([H])[H])(C([H])([H])[H])C([H])([H])[H])C([H])(C(=O)N([H])C3([H])c5c([H])c([H])c([H])c([H])c5C([H])([H])C([H])([H])C3([H])[H])C4([H])[H])C([H])([H])C2([H])[H])c([H])c1OC([H])([H])C([H])([H])[H]

$$$$
6:0:0
     RDKit          3D

 95103  0  0  1  0  0  0  0  0999 V2000
  -29.9440  -19.9800   19.2380 C   0  0  0  0  0  3  0  0  0  0  0  0
  -29.6170  -19.2400   21.4960 C   0  0  0  0  0  3  0  0  0  0  0  0
  -30.1820  -17.5330   19.7690 C   0  0  0  0  0  0  0  0  0  0  0  0
  -30.2220  -18.6350   18.8150 C   0  0  0  0  0  0  0  0  0  0  0  0
  -29.5990  -20.3150   20.5720 C   0  0  0  0  0  0  0  0  0  0  0  0
  -29.9090  -17.9000   21.1140 C   0  0  0  0  0  0  0  0  0  0  0  0
  -29.8340  -16.9350   22.0640 F   0  0  0  0  0  0  0  0  0  0  0  0
  -29.1620  -22.8810   20.4250 C   0  0  0  0  0  0  0  0  0  0  0  0
  -29.1350  -21.6340   21.0050 N   0  0  0  0  0  0  0  0  0  0  0  0
  -29.8760  -23.1480   19.4560 O   0  0  0  0  0  0  0  0  0  0  0  0
  -28.6350  -21.6230   21.8820 H   0  0  0  0  0  0  0  0  0  0  0  0
  -28.2480  -24.0190   21.0250 C   0  0  0  0  0  2  0  0  0  0  0  0
  -28.7830  -25.5090   21.2040 C   0  0  0  0  0  2  0  0  0  0  0  0
  -28.5680  -26.5730   20.2160 O   0  0  0  0  0  0  0  0  0  0  0  0
  -24.6580  -31.8810   23.2010 C   0  0  0  0  0  0  0  0  0  0  0  0
  -27.4160  -27.3590   20.2670 C   0  0  0  0  0  0  0  0  0  0  0  0
  -23.5180  -30.4620   21.5340 C   0  0  0  0  0  3  0  0  0  0  0  0
  -25.0230  -28.9100   20.1740 C   0  0  0  0  0  0  0  0  0  0  0  0
  -26.0550  -30.8160   21.4210 C   0  0  0  0  0  2  0  0  0  0  0  0
  -26.1690  -29.4340   20.7920 C   0  0  0  0  0  0  0  0  0  0  0  0
  -27.3710  -28.6670   20.8300 C   0  0  0  0  0  3  0  0  0  0  0  0
  -26.2490  -26.8730   19.6450 C   0  0  0  0  0  3  0  0  0  0  0  0
  -25.0610  -27.6280   19.6010 C   0  0  0  0  0  3  0  0  0  0  0  0
  -23.7790  -29.7730   20.1690 C   0  0  0  0  0  2  0  0  0  0  0  0
  -24.7610  -31.0740   22.1080 N   0  0  0  0  0  0  0  0  0  0  0  0
  -23.5560  -32.1470   23.7060 O   0  0  0  0  0  0  0  0  0  0  0  0
  -22.8420  -29.4420   22.4820 C   0  0  0  0  0  0  0  0  0  0  0  0
  -21.5180  -29.2680   22.3340 N   0  0  0  0  0  0  0  0  0  0  0  0
  -23.5070  -28.8110   23.3080 O   0  0  0  0  0  0  0  0  0  0  0  0
  -21.0420  -29.8200   21.6350 H   0  0  0  0  0  0  0  0  0  0  0  0
  -18.1250  -28.1100   22.8240 C   0  0  0  0  0  0  0  0  0  0  0  0
  -20.6890  -28.3290   23.0910 C   0  0  0  0  0  3  0  0  0  0  0  0
  -20.7680  -26.9070   22.4880 C   0  0  0  0  0  2  0  0  0  0  0  0
  -19.6580  -26.6150   21.4740 C   0  0  0  0  0  2  0  0  0  0  0  0
  -18.2790  -26.7700   22.1230 C   0  0  0  0  0  2  0  0  0  0  0  0
  -19.2570  -28.8480   23.2640 C   0  0  0  0  0  0  0  0  0  0  0  0
  -19.0570  -30.1010   23.8810 C   0  0  0  0  0  3  0  0  0  0  0  0
  -17.7600  -30.6180   24.0580 C   0  0  0  0  0  3  0  0  0  0  0  0
  -16.6440  -29.8730   23.6380 C   0  0  0  0  0  3  0  0  0  0  0  0
  -16.8270  -28.6210   23.0250 C   0  0  0  0  0  3  0  0  0  0  0  0
  -25.9120  -32.5330   23.8590 C   0  0  0  0  0  3  0  0  0  0  0  0
  -25.5720  -33.9300   24.1650 N   0  0  0  0  0  0  0  0  0  0  0  0
  -25.9150  -34.9800   23.4100 C   0  0  0  0  0  0  0  0  0  0  0  0
  -26.6160  -34.8810   22.3990 O   0  0  0  0  0  0  0  0  0  0  0  0
  -24.9460  -34.0780   24.9400 H   0  0  0  0  0  0  0  0  0  0  0  0
  -24.1850  -36.7600   22.9900 C   0  0  0  0  0  1  0  0  0  0  0  0
  -25.3970  -36.3640   23.8480 C   0  0  0  0  0  3  0  0  0  0  0  0
  -27.4840  -37.2770   24.7650 C   0  0  0  0  0  1  0  0  0  0  0  0
  -26.4240  -37.4260   23.7720 N   0  0  0  0  0  0  0  0  0  0  0  0
  -26.0010  -38.3420   23.8980 H   0  0  0  0  0  0  0  0  0  0  0  0
  -26.4000  -31.7790   25.1570 C   0  0  1  0  0  0  0  0  0  0  0  0
  -25.2740  -31.5280   26.1890 C   0  0  0  0  0  1  0  0  0  0  0  0
  -27.0230  -30.4110   24.7960 C   0  0  0  0  0  1  0  0  0  0  0  0
  -27.5180  -32.5970   25.8440 C   0  0  0  0  0  1  0  0  0  0  0  0
  -30.1530  -16.0330   19.3800 C   0  0  0  0  0  0  0  0  0  0  0  0
  -29.5100  -15.7740   18.3180 N   0  0  0  0  0  0  0  0  0  0  0  0
  -29.0920  -16.6100   17.9280 H   0  0  0  0  0  0  0  0  0  0  0  0
  -30.9280  -14.8670   20.1620 C   0  0  0  0  0  0  0  0  0  0  0  0
  -30.7220  -12.5130   19.3840 C   0  0  0  0  0  2  0  0  0  0  0  0
  -29.7900  -12.5140   18.1530 C   0  0  0  0  0  2  0  0  0  0  0  0
  -28.3120  -12.3980   18.5850 C   0  0  0  0  0  2  0  0  0  0  0  0
  -27.9310  -13.3240   19.7740 C   0  0  0  0  0  3  0  0  0  0  0  0
  -29.0070  -13.3590   20.8770 C   0  0  0  0  0  2  0  0  0  0  0  0
  -30.3070  -13.6380   20.2410 N   0  0  0  0  0  0  0  0  0  0  0  0
  -32.1580  -14.9470   20.1910 O   0  0  0  0  0  0  0  0  0  0  0  0
  -25.5720  -13.9300   20.5550 C   0  0  0  0  0  0  0  0  0  0  0  0
  -24.5030  -13.1550   20.9170 C   0  0  0  0  0  0  0  0  0  0  0  0
  -24.9630  -11.8030   20.8670 C   0  0  0  0  0  0  0  0  0  0  0  0
  -26.6050  -13.0420   20.2960 N   0  0  0  0  0  0  0  0  0  0  0  0
  -26.2510  -11.7600   20.5540 N   0  0  0  0  0  0  0  0  0  0  0  0
  -24.2320  -10.5430   21.0440 C   0  0  0  0  0  0  0  0  0  0  0  0
  -24.6400   -9.5830   21.9950 C   0  0  0  0  0  3  0  0  0  0  0  0
  -23.9130   -8.3850   22.1610 C   0  0  0  0  0  3  0  0  0  0  0  0
  -22.7620   -8.1420   21.3740 C   0  0  0  0  0  0  0  0  0  0  0  0
  -22.3760   -9.0910   20.4110 C   0  0  0  0  0  3  0  0  0  0  0  0
  -23.1030  -10.2820   20.2450 C   0  0  0  0  0  3  0  0  0  0  0  0
  -22.0050   -6.9970   21.4450 O   0  0  0  0  0  0  0  0  0  0  0  0
  -21.8860   -6.2850   22.6100 C   0  0  0  0  0  0  0  0  0  0  0  0
  -21.3320   -6.8560   23.7770 C   0  0  0  0  0  3  0  0  0  0  0  0
  -21.1590   -6.0680   24.9340 C   0  0  0  0  0  3  0  0  0  0  0  0
  -21.5310   -4.7100   24.9210 C   0  0  0  0  0  0  0  0  0  0  0  0
  -22.0760   -4.1380   23.7580 C   0  0  0  0  0  3  0  0  0  0  0  0
  -22.2500   -4.9220   22.6060 C   0  0  0  0  0  0  0  0  0  0  0  0
  -22.7520   -4.3600   21.4790 F   0  0  0  0  0  0  0  0  0  0  0  0
  -21.3600   -3.9500   26.0300 F   0  0  0  0  0  0  0  0  0  0  0  0
  -23.1070  -13.6370   21.1890 C   0  0  0  0  0  0  0  0  0  0  0  0
  -22.3730  -12.9300   22.0430 N   0  0  0  0  0  0  0  0  0  0  0  0
  -22.6740  -14.6710   20.6840 O   0  0  0  0  0  0  0  0  0  0  0  0
  -22.7380  -12.0970   22.4750 H   0  0  0  0  0  0  0  0  0  0  0  0
  -21.4370  -13.2350   22.2710 H   0  0  0  0  0  0  0  0  0  0  0  0
  -25.7430  -15.3010   20.4040 N   0  0  0  0  0  0  0  0  0  0  0  0
  -24.9900  -15.9680   20.5350 H   0  0  0  0  0  0  0  0  0  0  0  0
  -26.6220  -15.7290   20.1400 H   0  0  0  0  0  0  0  0  0  0  0  0
  -30.8190  -19.6600   16.4480 C   0  0  0  0  0  1  0  0  0  0  0  0
  -30.4890  -18.4110   17.3080 C   0  0  0  0  0  2  0  0  0  0  0  0
  1  5  1  0
  3  6  2  0
  4  1  2  0
  4  3  1  0
  5  9  1  0
  5  2  2  0
  6  2  1  0
  6  7  1  0
  8  9  1  0
  8 12  1  0
  9 11  1  0
 10  8  2  0
 12 13  1  0
 14 16  1  0
 14 13  1  0
 15 26  2  0
 16 21  1  0
 17 25  1  0
 17 27  1  0
 18 20  1  0
 19 25  1  0
 20 21  2  0
 20 19  1  0
 22 16  2  0
 23 22  1  0
 23 18  2  0
 24 18  1  0
 24 17  1  0
 25 15  1  0
 27 29  2  0
 28 27  1  0
 30 28  1  0
 31 40  2  0
 31 36  1  0
 32 28  1  0
 32 36  1  0
 33 32  1  0
 34 35  1  0
 34 33  1  0
 35 31  1  0
 36 37  2  0
 37 38  1  0
 39 38  2  0
 40 39  1  0
 41 15  1  0
 41 42  1  0
 41 51  1  0
 42 45  1  0
 43 47  1  0
 43 42  1  0
 44 43  2  0
 47 46  1  0
 49 47  1  0
 49 50  1  0
 49 48  1  0
 51 54  1  1
 51 52  1  0
 53 51  1  0
 55  3  1  0
 55 58  1  0
 56 55  2  0
 57 56  1  0
 58 65  2  0
 58 64  1  0
 59 64  1  0
 60 61  1  0
 60 59  1  0
 62 61  1  0
 62 69  1  0
 62 63  1  0
 64 63  1  0
 66 67  2  0
 67 86  1  0
 68 67  1  0
 68 71  1  0
 69 70  1  0
 69 66  1  0
 70 68  2  0
 71 72  1  0
 72 73  2  0
 74 77  1  0
 74 73  1  0
 75 74  2  0
 76 75  1  0
 76 71  2  0
 77 78  1  0
 78 79  1  0
 79 80  2  0
 81 80  1  0
 81 85  1  0
 82 81  2  0
 83 78  2  0
 83 82  1  0
 84 83  1  0
 86 87  1  0
 87 90  1  0
 87 89  1  0
 88 86  2  0
 91 92  1  0
 91 66  1  0
 93 91  1  0
 94 95  1  0
 95  4  1  0
M  ISO  4  13 101  14 101  55 100  58 100
M  END
>  <TORSDO>  (7) 
F 21

>  <SCORE>  (7) 
-12.898

>  <name>  (7) 
6

>  <ligand_id>  (7) 
6

>  <original_smiles>  (7) 
[H]N=C(C(=O)N1C([H])([H])C([H])([H])C([H])([H])C([H])(n2nc(-c3c([H])c([H])c(Oc4c([H])c([H])c(F)c([H])c4F)c([H])c3[H])c(C(=O)N([H])[H])c2N([H])[H])C1([H])[H])c1c(F)c([H])c(N([H])C(=O)C([H])([H])C([H])([H])Oc2c([H])c([H])c3c(c2[H])C([H])([H])N(C(=O)C([H])(N([H])C(=O)C([H])(N([H])C([H])([H])[H])C([H])([H])[H])C(C([H])([H])[H])(C([H])([H])[H])C([H])([H])[H])C([H])(C(=O)N([H])C2([H])c4c([H])c([H])c([H])c([H])c4C([H])([H])C([H])([H])C2([H])[H])C3([H])[H])c([H])c1C([H])([H])C([H])([H])[H]

>  <smiles>  (7) 
[H]N=C(C(=O)N1C([H])([H])C([H])([H])C([H])([H])C([H])(n2nc(-c3c([H])c([H])c(Oc4c([H])c([H])c(F)c([H])c4F)c([H])c3[H])c(C(=O)N([H])[H])c2N([H])[H])C1([H])[H])c1c(F)c([H])c(N([H])C(=O)C([H])([H])C([H])([H])Oc2c([H])c([H])c3c(c2[H])C([H])([H])N(C(=O)C([H])(N([H])C(=O)C([H])(N([H])C([H])([H])[H])C([H])([H])[H])C(C([H])([H])[H])(C([H])([H])[H])C([H])([H])[H])C([H])(C(=O)N([H])C2([H])c4c([H])c([H])c([H])c([H])c4C([H])([H])C([H])([H])C2([H])[H])C3([H])[H])c([H])c1C([H])([H])C([H])([H])[H]

$$$$
7:0:0
     RDKit          3D

 95103  0  0  1  0  0  0  0  0999 V2000
  -30.0450  -19.0210   19.5160 C   0  0  0  0  0  3  0  0  0  0  0  0
  -30.7450  -17.6900   21.8830 C   0  0  0  0  0  3  0  0  0  0  0  0
  -29.9830  -17.6050   19.5720 C   0  0  0  0  0  0  0  0  0  0  0  0
  -30.3440  -16.9220   20.7660 C   0  0  0  0  0  0  0  0  0  0  0  0
  -30.8120  -19.1000   21.8130 C   0  0  0  0  0  0  0  0  0  0  0  0
  -30.4470  -19.7930   20.6360 C   0  0  0  0  0  0  0  0  0  0  0  0
  -29.4990  -16.8570   18.3390 C   0  0  0  0  0  1  0  0  0  0  0  0
  -30.9110  -14.5140   20.3590 C   0  0  0  0  0  0  0  0  0  0  0  0
  -30.6060  -12.3640   19.1900 C   0  0  0  0  0  2  0  0  0  0  0  0
  -29.6560  -12.5980   17.9930 C   0  0  0  0  0  2  0  0  0  0  0  0
  -28.1810  -12.4750   18.4280 C   0  0  0  0  0  2  0  0  0  0  0  0
  -27.8640  -13.2960   19.7070 C   0  0  0  0  0  3  0  0  0  0  0  0
  -28.9190  -13.0300   20.8050 C   0  0  0  0  0  2  0  0  0  0  0  0
  -30.2480  -13.3300   20.2410 N   0  0  0  0  0  0  0  0  0  0  0  0
  -32.0340  -14.7050   19.8810 O   0  0  0  0  0  0  0  0  0  0  0  0
  -30.1990  -15.5050   20.9320 N   0  0  0  0  0  0  0  0  0  0  0  0
  -29.3670  -15.2030   21.4180 H   0  0  0  0  0  0  0  0  0  0  0  0
  -25.4710  -13.9390   20.4050 C   0  0  0  0  0  0  0  0  0  0  0  0
  -24.3930  -13.1820   20.7790 C   0  0  0  0  0  0  0  0  0  0  0  0
  -24.8380  -11.8260   20.7580 C   0  0  0  0  0  0  0  0  0  0  0  0
  -26.5060  -13.0430   20.1830 N   0  0  0  0  0  0  0  0  0  0  0  0
  -26.1280  -11.7680   20.4510 N   0  0  0  0  0  0  0  0  0  0  0  0
  -24.0980  -10.5730   20.9570 C   0  0  0  0  0  0  0  0  0  0  0  0
  -24.5040   -9.6190   21.9160 C   0  0  0  0  0  3  0  0  0  0  0  0
  -23.7650   -8.4310   22.1000 C   0  0  0  0  0  3  0  0  0  0  0  0
  -22.6070   -8.1880   21.3260 C   0  0  0  0  0  0  0  0  0  0  0  0
  -22.2200   -9.1300   20.3560 C   0  0  0  0  0  3  0  0  0  0  0  0
  -22.9590  -10.3100   20.1700 C   0  0  0  0  0  3  0  0  0  0  0  0
  -21.8420   -7.0510   21.4180 O   0  0  0  0  0  0  0  0  0  0  0  0
  -21.7410   -6.3440   22.5900 C   0  0  0  0  0  0  0  0  0  0  0  0
  -21.2400   -6.9320   23.7730 C   0  0  0  0  0  3  0  0  0  0  0  0
  -21.0870   -6.1520   24.9360 C   0  0  0  0  0  3  0  0  0  0  0  0
  -21.4240   -4.7850   24.9180 C   0  0  0  0  0  0  0  0  0  0  0  0
  -21.9180   -4.1970   23.7400 C   0  0  0  0  0  3  0  0  0  0  0  0
  -22.0730   -4.9740   22.5780 C   0  0  0  0  0  0  0  0  0  0  0  0
  -22.5280   -4.3990   21.4400 F   0  0  0  0  0  0  0  0  0  0  0  0
  -21.2710   -4.0330   26.0320 F   0  0  0  0  0  0  0  0  0  0  0  0
  -23.0010  -13.6780   21.0490 C   0  0  0  0  0  0  0  0  0  0  0  0
  -22.2660  -12.9980   21.9220 N   0  0  0  0  0  0  0  0  0  0  0  0
  -22.5740  -14.7040   20.5220 O   0  0  0  0  0  0  0  0  0  0  0  0
  -22.6240  -12.1690   22.3740 H   0  0  0  0  0  0  0  0  0  0  0  0
  -21.3320  -13.3140   22.1450 H   0  0  0  0  0  0  0  0  0  0  0  0
  -25.6500  -15.3060   20.2170 N   0  0  0  0  0  0  0  0  0  0  0  0
  -24.8890  -15.9690   20.3190 H   0  0  0  0  0  0  0  0  0  0  0  0
  -26.5080  -15.7340   19.8930 H   0  0  0  0  0  0  0  0  0  0  0  0
  -31.2300  -19.8330   22.9230 N   0  0  0  0  0  0  0  0  0  0  0  0
  -31.1030  -19.4290   23.8450 H   0  0  0  0  0  0  0  0  0  0  0  0
  -31.0360  -20.8290   22.8950 H   0  0  0  0  0  0  0  0  0  0  0  0
  -30.5440  -21.1820   20.6470 O   0  0  0  0  0  0  0  0  0  0  0  0
  -29.6750  -21.9740   19.8190 C   0  0  0  0  0  2  0  0  0  0  0  0
  -30.2680  -23.3770   19.5200 C   0  0  0  0  0  2  0  0  0  0  0  0
  -29.7860  -24.5370   20.4100 C   0  0  0  0  0  0  0  0  0  0  0  0
  -30.3700  -24.8130   21.4630 O   0  0  0  0  0  0  0  0  0  0  0  0
  -28.5650  -25.3480   19.9320 C   0  0  0  0  0  2  0  0  0  0  0  0
  -28.5960  -26.7130   20.4000 O   0  0  0  0  0  0  0  0  0  0  0  0
  -24.6750  -31.9100   23.3110 C   0  0  0  0  0  0  0  0  0  0  0  0
  -27.4160  -27.4390   20.3340 C   0  0  0  0  0  0  0  0  0  0  0  0
  -23.5180  -30.4870   21.6530 C   0  0  0  0  0  3  0  0  0  0  0  0
  -25.0140  -28.9490   20.2760 C   0  0  0  0  0  0  0  0  0  0  0  0
  -26.0480  -30.8530   21.5170 C   0  0  0  0  0  2  0  0  0  0  0  0
  -26.1550  -29.4750   20.8910 C   0  0  0  0  0  0  0  0  0  0  0  0
  -27.3570  -28.7280   20.9190 C   0  0  0  0  0  3  0  0  0  0  0  0
  -26.2510  -26.9350   19.7060 C   0  0  0  0  0  3  0  0  0  0  0  0
  -25.0570  -27.6770   19.6830 C   0  0  0  0  0  3  0  0  0  0  0  0
  -23.7660  -29.8020   20.2840 C   0  0  0  0  0  2  0  0  0  0  0  0
  -24.7630  -31.0990   22.2190 N   0  0  0  0  0  0  0  0  0  0  0  0
  -23.5770  -32.1810   23.8200 O   0  0  0  0  0  0  0  0  0  0  0  0
  -22.8490  -29.4690   22.6040 C   0  0  0  0  0  0  0  0  0  0  0  0
  -21.5290  -29.2750   22.4430 N   0  0  0  0  0  0  0  0  0  0  0  0
  -23.5150  -28.8580   23.4440 O   0  0  0  0  0  0  0  0  0  0  0  0
  -21.0540  -29.8210   21.7380 H   0  0  0  0  0  0  0  0  0  0  0  0
  -18.1510  -28.0600   22.8580 C   0  0  0  0  0  0  0  0  0  0  0  0
  -20.6990  -28.3400   23.2010 C   0  0  0  0  0  3  0  0  0  0  0  0
  -20.8290  -26.9040   22.6420 C   0  0  0  0  0  2  0  0  0  0  0  0
  -19.7570  -26.5620   21.6010 C   0  0  0  0  0  2  0  0  0  0  0  0
  -18.3570  -26.7040   22.2040 C   0  0  0  0  0  2  0  0  0  0  0  0
  -19.2520  -28.8340   23.3120 C   0  0  0  0  0  0  0  0  0  0  0  0
  -19.0080  -30.1030   23.8820 C   0  0  0  0  0  3  0  0  0  0  0  0
  -17.6970  -30.5980   24.0040 C   0  0  0  0  0  3  0  0  0  0  0  0
  -16.6100  -29.8210   23.5680 C   0  0  0  0  0  3  0  0  0  0  0  0
  -16.8390  -28.5540   23.0010 C   0  0  0  0  0  3  0  0  0  0  0  0
  -25.9410  -32.5550   23.9560 C   0  0  0  0  0  3  0  0  0  0  0  0
  -25.6190  -33.9570   24.2510 N   0  0  0  0  0  0  0  0  0  0  0  0
  -25.9610  -34.9950   23.4750 C   0  0  0  0  0  0  0  0  0  0  0  0
  -26.6500  -34.8720   22.4570 O   0  0  0  0  0  0  0  0  0  0  0  0
  -25.0100  -34.1270   25.0370 H   0  0  0  0  0  0  0  0  0  0  0  0
  -24.2290  -36.7690   23.0510 C   0  0  0  0  0  1  0  0  0  0  0  0
  -25.4580  -36.3890   23.8930 C   0  0  0  0  0  3  0  0  0  0  0  0
  -27.5710  -37.3070   24.7430 C   0  0  0  0  0  1  0  0  0  0  0  0
  -26.4870  -37.4460   23.7740 N   0  0  0  0  0  0  0  0  0  0  0  0
  -26.0740  -38.3670   23.8900 H   0  0  0  0  0  0  0  0  0  0  0  0
  -26.4230  -31.8070   25.2590 C   0  0  1  0  0  0  0  0  0  0  0  0
  -25.3010  -31.5830   26.2990 C   0  0  0  0  0  1  0  0  0  0  0  0
  -27.0220  -30.4260   24.9060 C   0  0  0  0  0  1  0  0  0  0  0  0
  -27.5510  -32.6180   25.9410 C   0  0  0  0  0  1  0  0  0  0  0  0
  1  3  2  0
  1  6  1  0
  3  4  1  0
  4 16  1  0
  4  2  2  0
  5  2  1  0
  5 46  1  0
  6 49  1  0
  6  5  2  0
  7  3  1  0
  8 16  1  0
  9 14  1  0
 10 11  1  0
 10  9  1  0
 12 11  1  0
 12 21  1  0
 12 13  1  0
 14  8  1  0
 14 13  1  0
 15  8  2  0
 16 17  1  0
 18 19  2  0
 19 38  1  0
 20 19  1  0
 20 23  1  0
 21 18  1  0
 21 22  1  0
 22 20  2  0
 23 24  1  0
 24 25  2  0
 26 29  1  0
 26 25  1  0
 27 26  2  0
 28 27  1  0
 28 23  2  0
 29 30  1  0
 30 31  1  0
 31 32  2  0
 33 32  1  0
 33 37  1  0
 34 33  2  0
 35 30  2  0
 35 34  1  0
 36 35  1  0
 38 39  1  0
 39 42  1  0
 39 41  1  0
 40 38  2  0
 43 44  1  0
 43 18  1  0
 45 43  1  0
 46 47  1  0
 48 46  1  0
 50 49  1  0
 51 50  1  0
 51 52  1  0
 52 53  2  0
 54 55  1  0
 54 52  1  0
 56 67  2  0
 57 55  1  0
 57 62  1  0
 58 66  1  0
 58 68  1  0
 59 65  1  0
 59 61  1  0
 60 66  1  0
 61 62  2  0
 61 60  1  0
 63 57  2  0
 64 63  1  0
 64 59  2  0
 65 58  1  0
 66 56  1  0
 68 70  2  0
 69 68  1  0
 71 69  1  0
 72 81  2  0
 72 77  1  0
 73 69  1  0
 73 77  1  0
 74 73  1  0
 75 76  1  0
 75 74  1  0
 76 72  1  0
 77 78  2  0
 78 79  1  0
 80 79  2  0
 81 80  1  0
 82 56  1  0
 82 83  1  0
 82 92  1  0
 83 86  1  0
 84 88  1  0
 84 83  1  0
 85 84  2  0
 88 87  1  0
 90 91  1  0
 90 88  1  0
 90 89  1  0
 92 95  1  1
 92 93  1  0
 94 92  1  0
M  ISO  4   8 100  16 100  54 101  55 101
M  END
>  <TORSDO>  (8) 
F 22

>  <SCORE>  (8) 
-13.330

>  <name>  (8) 
7

>  <ligand_id>  (8) 
7

>  <original_smiles>  (8) 
[H]c1c([H])c([H])c2c(c1[H])C([H])([H])C([H])([H])C([H])([H])C2([H])N([H])C(=O)C1([H])N(C(=O)C([H])(N([H])C(=O)C([H])(N([H])C([H])([H])[H])C([H])([H])[H])C(C([H])([H])[H])(C([H])([H])[H])C([H])([H])[H])C([H])([H])c2c([H])c(OC([H])([H])C(=O)C([H])([H])C([H])([H])Oc3c([H])c(C([H])([H])[H])c(N([H])C(=O)N4C([H])([H])C([H])([H])C([H])([H])C([H])(n5nc(-c6c([H])c([H])c(Oc7c([H])c([H])c(F)c([H])c7F)c([H])c6[H])c(C(=O)N([H])[H])c5N([H])[H])C4([H])[H])c([H])c3N([H])[H])c([H])c([H])c2C1([H])[H]

>  <smiles>  (8) 
[H]c1c([H])c([H])c2c(c1[H])C([H])([H])C([H])([H])C([H])([H])C2([H])N([H])C(=O)C1([H])N(C(=O)C([H])(N([H])C(=O)C([H])(N([H])C([H])([H])[H])C([H])([H])[H])C(C([H])([H])[H])(C([H])([H])[H])C([H])([H])[H])C([H])([H])c2c([H])c(OC([H])([H])C(=O)C([H])([H])C([H])([H])Oc3c([H])c(C([H])([H])[H])c(N([H])C(=O)N4C([H])([H])C([H])([H])C([H])([H])C([H])(n5nc(-c6c([H])c([H])c(Oc7c([H])c([H])c(F)c([H])c7F)c([H])c6[H])c(C(=O)N([H])[H])c5N([H])[H])C4([H])[H])c([H])c3N([H])[H])c([H])c([H])c2C1([H])[H]

$$$$
8:0:0
     RDKit          3D

 96105  0  0  1  0  0  0  0  0999 V2000
  -28.5080  -23.7590   19.6400 C   0  0  0  0  0  0  0  0  0  0  0  0
  -28.7900  -22.4720   20.0860 C   0  0  0  0  0  0  0  0  0  0  0  0
  -28.5510  -23.9980   18.1780 C   0  0  0  0  0  0  0  0  0  0  0  0
  -28.5240  -22.7860   17.2450 C   0  0  0  0  0  2  0  0  0  0  0  0
  -29.2430  -21.5440   17.7900 C   0  0  0  0  0  2  0  0  0  0  0  0
  -28.8030  -22.1580   21.5770 C   0  0  0  0  0  1  0  0  0  0  0  0
  -29.1270  -21.3510   19.2420 N   0  0  0  0  0  0  0  0  0  0  0  0
  -28.5820  -25.1170   17.6570 O   0  0  0  0  0  0  0  0  0  0  0  0
  -30.7400  -19.4360   19.2880 C   0  0  0  0  0  3  0  0  0  0  0  0
  -28.5380  -19.0210   20.0720 C   0  0  0  0  0  3  0  0  0  0  0  0
  -31.1260  -18.0830   19.5470 C   0  0  0  0  0  0  0  0  0  0  0  0
  -28.8730  -17.6400   20.2750 C   0  0  0  0  0  0  0  0  0  0  0  0
  -29.4600  -19.9750   19.5680 C   0  0  0  0  0  0  0  0  0  0  0  0
  -30.1880  -17.1040   20.0410 C   0  0  0  0  0  0  0  0  0  0  0  0
  -32.6050  -17.7970   19.3390 C   0  0  0  0  0  1  0  0  0  0  0  0
  -27.7340  -16.7610   20.7670 C   0  0  0  0  0  1  0  0  0  0  0  0
  -30.9370  -14.6320   19.6350 C   0  0  0  0  0  0  0  0  0  0  0  0
  -30.4360  -12.4670   18.5040 C   0  0  0  0  0  2  0  0  0  0  0  0
  -29.3820  -12.6840   17.3990 C   0  0  0  0  0  2  0  0  0  0  0  0
  -27.9640  -12.5500   17.9870 C   0  0  0  0  0  2  0  0  0  0  0  0
  -27.7800  -13.3720   19.2930 C   0  0  0  0  0  3  0  0  0  0  0  0
  -28.9490  -13.1530   20.2740 C   0  0  0  0  0  2  0  0  0  0  0  0
  -30.1940  -13.4740   19.5620 N   0  0  0  0  0  0  0  0  0  0  0  0
  -32.0010  -14.6920   19.0190 O   0  0  0  0  0  0  0  0  0  0  0  0
  -30.8120  -15.4810   21.8530 C   0  0  0  0  0  1  0  0  0  0  0  0
  -30.5040  -15.6880   20.4240 N   0  0  0  0  0  0  0  0  0  0  0  0
  -25.5340  -13.9970   20.3600 C   0  0  0  0  0  0  0  0  0  0  0  0
  -24.4830  -13.2400   20.7990 C   0  0  0  0  0  0  0  0  0  0  0  0
  -24.8640  -11.8790   20.5940 C   0  0  0  0  0  0  0  0  0  0  0  0
  -26.4920  -13.1000   19.9230 N   0  0  0  0  0  0  0  0  0  0  0  0
  -26.1010  -11.8140   20.1180 N   0  0  0  0  0  0  0  0  0  0  0  0
  -24.1000  -10.6380   20.7630 C   0  0  0  0  0  0  0  0  0  0  0  0
  -24.5260   -9.6170   21.6410 C   0  0  0  0  0  3  0  0  0  0  0  0
  -23.7580   -8.4440   21.8010 C   0  0  0  0  0  3  0  0  0  0  0  0
  -22.5500   -8.2830   21.0810 C   0  0  0  0  0  0  0  0  0  0  0  0
  -22.1440   -9.2920   20.1920 C   0  0  0  0  0  3  0  0  0  0  0  0
  -22.9110  -10.4550   20.0290 C   0  0  0  0  0  3  0  0  0  0  0  0
  -21.7540   -7.1650   21.1530 O   0  0  0  0  0  0  0  0  0  0  0  0
  -21.6480   -6.4300   22.3070 C   0  0  0  0  0  0  0  0  0  0  0  0
  -21.1990   -7.0040   23.5170 C   0  0  0  0  0  3  0  0  0  0  0  0
  -21.0380   -6.1990   24.6610 C   0  0  0  0  0  3  0  0  0  0  0  0
  -21.3120   -4.8200   24.5970 C   0  0  0  0  0  0  0  0  0  0  0  0
  -21.7510   -4.2440   23.3910 C   0  0  0  0  0  3  0  0  0  0  0  0
  -21.9140   -5.0470   22.2500 C   0  0  0  0  0  0  0  0  0  0  0  0
  -22.3170   -4.4860   21.0840 F   0  0  0  0  0  0  0  0  0  0  0  0
  -21.1500   -4.0430   25.6940 F   0  0  0  0  0  0  0  0  0  0  0  0
  -23.1590  -13.7540   21.2880 C   0  0  0  0  0  0  0  0  0  0  0  0
  -22.5160  -13.0240   22.1930 N   0  0  0  0  0  0  0  0  0  0  0  0
  -22.7120  -14.8340   20.9070 O   0  0  0  0  0  0  0  0  0  0  0  0
  -22.8920  -12.1460   22.5210 H   0  0  0  0  0  0  0  0  0  0  0  0
  -21.6300  -13.3440   22.5590 H   0  0  0  0  0  0  0  0  0  0  0  0
  -25.7390  -15.3690   20.2660 N   0  0  0  0  0  0  0  0  0  0  0  0
  -25.0240  -16.0370   20.5290 H   0  0  0  0  0  0  0  0  0  0  0  0
  -26.5540  -15.8020   19.8550 H   0  0  0  0  0  0  0  0  0  0  0  0
  -28.0650  -24.9880   20.5470 C   0  0  0  0  0  2  0  0  0  0  0  0
  -28.2970  -26.4100   20.1710 O   0  0  0  0  0  0  0  0  0  0  0  0
  -24.4630  -31.8190   23.0930 C   0  0  0  0  0  0  0  0  0  0  0  0
  -27.1830  -27.2600   20.1460 C   0  0  0  0  0  0  0  0  0  0  0  0
  -23.3030  -30.3810   21.4530 C   0  0  0  0  0  3  0  0  0  0  0  0
  -24.8000  -28.8360   20.0660 C   0  0  0  0  0  0  0  0  0  0  0  0
  -25.8360  -30.7360   21.2970 C   0  0  0  0  0  2  0  0  0  0  0  0
  -25.9480  -29.3480   20.6860 C   0  0  0  0  0  0  0  0  0  0  0  0
  -27.1450  -28.5720   20.7190 C   0  0  0  0  0  3  0  0  0  0  0  0
  -26.0200  -26.8020   19.4960 C   0  0  0  0  0  3  0  0  0  0  0  0
  -24.8470  -27.5750   19.4510 C   0  0  0  0  0  3  0  0  0  0  0  0
  -23.5450  -29.6840   20.0870 C   0  0  0  0  0  2  0  0  0  0  0  0
  -24.5530  -30.9950   22.0060 N   0  0  0  0  0  0  0  0  0  0  0  0
  -23.3660  -32.0900   23.6020 O   0  0  0  0  0  0  0  0  0  0  0  0
  -22.6430  -29.3680   22.4190 C   0  0  0  0  0  0  0  0  0  0  0  0
  -21.3120  -29.2070   22.3070 N   0  0  0  0  0  0  0  0  0  0  0  0
  -23.3220  -28.7330   23.2310 O   0  0  0  0  0  0  0  0  0  0  0  0
  -20.8240  -29.7600   21.6160 H   0  0  0  0  0  0  0  0  0  0  0  0
  -17.9220  -28.0880   22.8700 C   0  0  0  0  0  0  0  0  0  0  0  0
  -20.4930  -28.2760   23.0850 C   0  0  0  0  0  3  0  0  0  0  0  0
  -20.5450  -26.8530   22.4840 C   0  0  0  0  0  2  0  0  0  0  0  0
  -19.4110  -26.5740   21.4930 C   0  0  0  0  0  2  0  0  0  0  0  0
  -18.0470  -26.7440   22.1690 C   0  0  0  0  0  2  0  0  0  0  0  0
  -19.0700  -28.8120   23.2860 C   0  0  0  0  0  0  0  0  0  0  0  0
  -18.9000  -30.0690   23.9040 C   0  0  0  0  0  3  0  0  0  0  0  0
  -17.6130  -30.6020   24.1100 C   0  0  0  0  0  3  0  0  0  0  0  0
  -16.4800  -29.8710   23.7110 C   0  0  0  0  0  3  0  0  0  0  0  0
  -16.6350  -28.6150   23.0960 C   0  0  0  0  0  3  0  0  0  0  0  0
  -25.7260  -32.4820   23.7250 C   0  0  0  0  0  3  0  0  0  0  0  0
  -25.3780  -33.8660   24.0740 N   0  0  0  0  0  0  0  0  0  0  0  0
  -25.6680  -34.9360   23.3190 C   0  0  0  0  0  0  0  0  0  0  0  0
  -26.3320  -34.8590   22.2810 O   0  0  0  0  0  0  0  0  0  0  0  0
  -24.7860  -33.9970   24.8820 H   0  0  0  0  0  0  0  0  0  0  0  0
  -23.8820  -36.6770   22.9920 C   0  0  0  0  0  1  0  0  0  0  0  0
  -25.1440  -36.3050   23.7900 C   0  0  0  0  0  3  0  0  0  0  0  0
  -27.2570  -37.2520   24.6060 C   0  0  0  0  0  1  0  0  0  0  0  0
  -26.1410  -37.3920   23.6740 N   0  0  0  0  0  0  0  0  0  0  0  0
  -25.7090  -38.2970   23.8340 H   0  0  0  0  0  0  0  0  0  0  0  0
  -26.2540  -31.7060   24.9940 C   0  0  1  0  0  0  0  0  0  0  0  0
  -25.1590  -31.4240   26.0480 C   0  0  0  0  0  1  0  0  0  0  0  0
  -26.8780  -30.3510   24.5850 C   0  0  0  0  0  1  0  0  0  0  0  0
  -27.3820  -32.5210   25.6740 C   0  0  0  0  0  1  0  0  0  0  0  0
  1  2  2  0
  1 55  1  0
  2  6  1  0
  3  1  1  0
  4  5  1  0
  4  3  1  0
  5  7  1  0
  7 13  1  0
  7  2  1  0
  8  3  2  0
  9 11  2  0
  9 13  1  0
 10 12  1  0
 11 14  1  0
 12 16  1  0
 13 10  2  0
 14 12  2  0
 14 26  1  0
 15 11  1  0
 17 26  1  0
 18 23  1  0
 19 20  1  0
 19 18  1  0
 21 20  1  0
 21 30  1  0
 21 22  1  0
 23 17  1  0
 23 22  1  0
 24 17  2  0
 26 25  1  0
 27 28  2  0
 28 47  1  0
 29 32  1  0
 29 28  1  0
 30 31  1  0
 30 27  1  0
 31 29  2  0
 32 33  1  0
 33 34  2  0
 35 38  1  0
 35 34  1  0
 36 35  2  0
 37 36  1  0
 37 32  2  0
 38 39  1  0
 39 40  1  0
 40 41  2  0
 42 41  1  0
 42 46  1  0
 43 42  2  0
 44 39  2  0
 44 43  1  0
 45 44  1  0
 47 48  1  0
 48 50  1  0
 48 51  1  0
 49 47  2  0
 52 27  1  0
 52 53  1  0
 54 52  1  0
 56 55  1  0
 57 68  2  0
 58 56  1  0
 58 63  1  0
 59 67  1  0
 59 69  1  0
 60 66  1  0
 60 62  1  0
 61 67  1  0
 62 63  2  0
 62 61  1  0
 64 58  2  0
 65 64  1  0
 65 60  2  0
 66 59  1  0
 67 57  1  0
 69 71  2  0
 70 69  1  0
 72 70  1  0
 73 82  2  0
 73 78  1  0
 74 70  1  0
 74 78  1  0
 75 74  1  0
 76 77  1  0
 76 75  1  0
 77 73  1  0
 78 79  2  0
 79 80  1  0
 81 80  2  0
 82 81  1  0
 83 57  1  0
 83 84  1  0
 83 93  1  0
 84 87  1  0
 85 89  1  0
 85 84  1  0
 86 85  2  0
 89 88  1  0
 91 89  1  0
 91 92  1  0
 91 90  1  0
 93 96  1  1
 93 94  1  0
 95 93  1  0
M  ISO  4  17 100  26 100  55 101  56 101
M  END
>  <TORSDO>  (9) 
F 18

>  <SCORE>  (9) 
-13.622

>  <name>  (9) 
8

>  <ligand_id>  (9) 
8

>  <original_smiles>  (9) 
[H]c1c([H])c([H])c2c(c1[H])C([H])([H])C([H])([H])C([H])([H])C2([H])N([H])C(=O)C1([H])N(C(=O)C([H])(N([H])C(=O)C([H])(N([H])C([H])([H])[H])C([H])([H])[H])C(C([H])([H])[H])(C([H])([H])[H])C([H])([H])[H])C([H])([H])c2c([H])c(OC([H])([H])C3=C(C([H])([H])[H])N(c4c([H])c(C([H])([H])[H])c(N(C(=O)N5C([H])([H])C([H])([H])C([H])([H])C([H])(n6nc(-c7c([H])c([H])c(Oc8c([H])c([H])c(F)c([H])c8F)c([H])c7[H])c(C(=O)N([H])[H])c6N([H])[H])C5([H])[H])C([H])([H])[H])c(C([H])([H])[H])c4[H])C([H])([H])C([H])([H])C3=O)c([H])c([H])c2C1([H])[H]

>  <smiles>  (9) 
[H]c1c([H])c([H])c2c(c1[H])C([H])([H])C([H])([H])C([H])([H])C2([H])N([H])C(=O)C1([H])N(C(=O)C([H])(N([H])C(=O)C([H])(N([H])C([H])([H])[H])C([H])([H])[H])C(C([H])([H])[H])(C([H])([H])[H])C([H])([H])[H])C([H])([H])c2c([H])c(OC([H])([H])C3=C(C([H])([H])[H])N(c4c([H])c(C([H])([H])[H])c(N(C(=O)N5C([H])([H])C([H])([H])C([H])([H])C([H])(n6nc(-c7c([H])c([H])c(Oc8c([H])c([H])c(F)c([H])c8F)c([H])c7[H])c(C(=O)N([H])[H])c6N([H])[H])C5([H])[H])C([H])([H])[H])c(C([H])([H])[H])c4[H])C([H])([H])C([H])([H])C3=O)c([H])c([H])c2C1([H])[H]

$$$$
9:0:0
     RDKit          3D

 94102  0  0  1  0  0  0  0  0999 V2000
  -29.8160  -18.9380   21.5280 C   0  0  0  0  0  3  0  0  0  0  0  0
  -29.4510  -20.4780   19.2120 C   0  0  0  0  0  3  0  0  0  0  0  0
  -30.2730  -18.4320   20.2920 C   0  0  0  0  0  0  0  0  0  0  0  0
  -29.2320  -20.2260   21.6160 C   0  0  0  0  0  0  0  0  0  0  0  0
  -30.0340  -19.1920   19.1140 C   0  0  0  0  0  0  0  0  0  0  0  0
  -29.0980  -21.0390   20.4630 C   0  0  0  0  0  0  0  0  0  0  0  0
  -28.8020  -20.7600   22.9710 C   0  0  0  0  0  1  0  0  0  0  0  0
  -31.2960  -14.8760   19.7950 C   0  0  0  0  0  0  0  0  0  0  0  0
  -30.8250  -12.7140   18.7130 C   0  0  0  0  0  2  0  0  0  0  0  0
  -29.8090  -12.9320   17.5760 C   0  0  0  0  0  2  0  0  0  0  0  0
  -28.3720  -12.8310   18.1160 C   0  0  0  0  0  2  0  0  0  0  0  0
  -28.1460  -13.6880   19.3940 C   0  0  0  0  0  3  0  0  0  0  0  0
  -29.2790  -13.4870   20.4250 C   0  0  0  0  0  2  0  0  0  0  0  0
  -30.5550  -13.7350   19.7400 N   0  0  0  0  0  0  0  0  0  0  0  0
  -32.4270  -14.9160   19.3000 O   0  0  0  0  0  0  0  0  0  0  0  0
  -31.1910  -17.2320   20.2700 C   0  0  0  0  0  0  0  0  0  0  0  0
  -30.6510  -15.9930   20.2120 N   0  0  0  0  0  0  0  0  0  0  0  0
  -32.4030  -17.4720   20.2850 O   0  0  0  0  0  0  0  0  0  0  0  0
  -29.6650  -15.9150   20.3870 H   0  0  0  0  0  0  0  0  0  0  0  0
  -25.8580  -14.3430   20.3620 C   0  0  0  0  0  0  0  0  0  0  0  0
  -24.7900  -13.5950   20.7740 C   0  0  0  0  0  0  0  0  0  0  0  0
  -25.1760  -12.2290   20.6090 C   0  0  0  0  0  0  0  0  0  0  0  0
  -26.8310  -13.4360   19.9770 N   0  0  0  0  0  0  0  0  0  0  0  0
  -26.4310  -12.1550   20.1830 N   0  0  0  0  0  0  0  0  0  0  0  0
  -24.4050  -10.9920   20.7770 C   0  0  0  0  0  0  0  0  0  0  0  0
  -24.8280   -9.9700   21.6570 C   0  0  0  0  0  3  0  0  0  0  0  0
  -24.0600   -8.7970   21.8150 C   0  0  0  0  0  3  0  0  0  0  0  0
  -22.8530   -8.6370   21.0950 C   0  0  0  0  0  0  0  0  0  0  0  0
  -22.4460   -9.6450   20.2040 C   0  0  0  0  0  3  0  0  0  0  0  0
  -23.2150  -10.8110   20.0440 C   0  0  0  0  0  3  0  0  0  0  0  0
  -22.0540   -7.5220   21.1660 O   0  0  0  0  0  0  0  0  0  0  0  0
  -21.9780   -6.7630   22.3070 C   0  0  0  0  0  0  0  0  0  0  0  0
  -21.5500   -7.3080   23.5380 C   0  0  0  0  0  3  0  0  0  0  0  0
  -21.4200   -6.4770   24.6670 C   0  0  0  0  0  3  0  0  0  0  0  0
  -21.7050   -5.1030   24.5690 C   0  0  0  0  0  0  0  0  0  0  0  0
  -22.1250   -4.5580   23.3430 C   0  0  0  0  0  3  0  0  0  0  0  0
  -22.2570   -5.3850   22.2140 C   0  0  0  0  0  0  0  0  0  0  0  0
  -22.6400   -4.8500   21.0300 F   0  0  0  0  0  0  0  0  0  0  0  0
  -21.5730   -4.3030   25.6520 F   0  0  0  0  0  0  0  0  0  0  0  0
  -23.4480  -14.1150   21.2030 C   0  0  0  0  0  0  0  0  0  0  0  0
  -22.7630  -13.3910   22.0810 N   0  0  0  0  0  0  0  0  0  0  0  0
  -23.0200  -15.1950   20.7960 O   0  0  0  0  0  0  0  0  0  0  0  0
  -23.1250  -12.5160   22.4280 H   0  0  0  0  0  0  0  0  0  0  0  0
  -21.8650  -13.7170   22.4110 H   0  0  0  0  0  0  0  0  0  0  0  0
  -26.0760  -15.7140   20.2630 N   0  0  0  0  0  0  0  0  0  0  0  0
  -25.3490  -16.3870   20.4810 H   0  0  0  0  0  0  0  0  0  0  0  0
  -26.9020  -16.1440   19.8690 H   0  0  0  0  0  0  0  0  0  0  0  0
  -29.3700  -17.7030   17.1670 C   0  0  0  0  0  1  0  0  0  0  0  0
  -30.4110  -18.6810   17.7270 C   0  0  0  0  0  2  0  0  0  0  0  0
  -28.6480  -22.3460   20.6130 O   0  0  0  0  0  0  0  0  0  0  0  0
  -29.0450  -23.3090   19.6270 C   0  0  0  0  0  2  0  0  0  0  0  0
  -28.7060  -24.7660   20.0320 C   0  0  0  0  0  2  0  0  0  0  0  0
  -29.0990  -25.7900   18.9340 C   0  0  0  0  0  2  0  0  0  0  0  0
  -28.9260  -27.1650   19.3140 O   0  0  0  0  0  0  0  0  0  0  0  0
  -24.6370  -31.5630   22.8890 C   0  0  0  0  0  0  0  0  0  0  0  0
  -27.6650  -27.7290   19.3700 C   0  0  0  0  0  0  0  0  0  0  0  0
  -23.5480  -30.2030   21.1300 C   0  0  0  0  0  3  0  0  0  0  0  0
  -25.1250  -28.9700   19.5500 C   0  0  0  0  0  0  0  0  0  0  0  0
  -26.0180  -30.8450   20.9410 C   0  0  0  0  0  2  0  0  0  0  0  0
  -26.2330  -29.5570   20.1720 C   0  0  0  0  0  0  0  0  0  0  0  0
  -27.5040  -28.9440   20.0760 C   0  0  0  0  0  3  0  0  0  0  0  0
  -26.5320  -27.1530   18.7520 C   0  0  0  0  0  3  0  0  0  0  0  0
  -25.2700  -27.7690   18.8370 C   0  0  0  0  0  3  0  0  0  0  0  0
  -23.7970  -29.6800   19.6890 C   0  0  0  0  0  2  0  0  0  0  0  0
  -24.7530  -30.8810   21.7140 N   0  0  0  0  0  0  0  0  0  0  0  0
  -23.5440  -31.6680   23.4600 O   0  0  0  0  0  0  0  0  0  0  0  0
  -23.0290  -29.0310   21.9940 C   0  0  0  0  0  0  0  0  0  0  0  0
  -21.7350  -28.7070   21.8470 N   0  0  0  0  0  0  0  0  0  0  0  0
  -23.7870  -28.4210   22.7520 O   0  0  0  0  0  0  0  0  0  0  0  0
  -21.1770  -29.2620   21.2120 H   0  0  0  0  0  0  0  0  0  0  0  0
  -18.5350  -27.0690   22.2100 C   0  0  0  0  0  0  0  0  0  0  0  0
  -21.0410  -27.6160   22.5280 C   0  0  0  0  0  3  0  0  0  0  0  0
  -21.3190  -26.2610   21.8360 C   0  0  0  0  0  2  0  0  0  0  0  0
  -20.2660  -25.8900   20.7860 C   0  0  0  0  0  2  0  0  0  0  0  0
  -18.8760  -25.8110   21.4240 C   0  0  0  0  0  2  0  0  0  0  0  0
  -19.5520  -27.9220   22.7140 C   0  0  0  0  0  0  0  0  0  0  0  0
  -19.1820  -29.0960   23.4070 C   0  0  0  0  0  3  0  0  0  0  0  0
  -17.8270  -29.4220   23.5950 C   0  0  0  0  0  3  0  0  0  0  0  0
  -16.8240  -28.5670   23.1080 C   0  0  0  0  0  3  0  0  0  0  0  0
  -17.1780  -27.3890   22.4250 C   0  0  0  0  0  3  0  0  0  0  0  0
  -25.8620  -32.2640   23.5540 C   0  0  0  0  0  3  0  0  0  0  0  0
  -25.4340  -33.6060   23.9720 N   0  0  0  0  0  0  0  0  0  0  0  0
  -25.6870  -34.7320   23.2920 C   0  0  0  0  0  0  0  0  0  0  0  0
  -26.3790  -34.7560   22.2690 O   0  0  0  0  0  0  0  0  0  0  0  0
  -24.8230  -33.6580   24.7730 H   0  0  0  0  0  0  0  0  0  0  0  0
  -23.8090  -36.3810   23.0300 C   0  0  0  0  0  1  0  0  0  0  0  0
  -25.0750  -36.0390   23.8310 C   0  0  0  0  0  3  0  0  0  0  0  0
  -27.1130  -37.0540   24.7470 C   0  0  0  0  0  1  0  0  0  0  0  0
  -26.0110  -37.1840   23.7980 N   0  0  0  0  0  0  0  0  0  0  0  0
  -25.5240  -38.0540   23.9970 H   0  0  0  0  0  0  0  0  0  0  0  0
  -26.4550  -31.4610   24.7750 C   0  0  1  0  0  0  0  0  0  0  0  0
  -25.3920  -31.0620   25.8260 C   0  0  0  0  0  1  0  0  0  0  0  0
  -27.1510  -30.1670   24.2930 C   0  0  0  0  0  1  0  0  0  0  0  0
  -27.5390  -32.3070   25.4850 C   0  0  0  0  0  1  0  0  0  0  0  0
  1  4  1  0
  2  6  1  0
  3  1  2  0
  4  7  1  0
  5  2  2  0
  5  3  1  0
  6 50  1  0
  6  4  2  0
  8 17  1  0
  9 14  1  0
 10 11  1  0
 10  9  1  0
 12 11  1  0
 12 23  1  0
 12 13  1  0
 14  8  1  0
 14 13  1  0
 15  8  2  0
 16 18  2  0
 16  3  1  0
 17 16  1  0
 17 19  1  0
 20 21  2  0
 21 40  1  0
 22 21  1  0
 22 25  1  0
 23 24  1  0
 23 20  1  0
 24 22  2  0
 25 26  1  0
 26 27  2  0
 28 31  1  0
 28 27  1  0
 29 28  2  0
 30 29  1  0
 30 25  2  0
 31 32  1  0
 32 33  1  0
 33 34  2  0
 35 34  1  0
 35 39  1  0
 36 35  2  0
 37 32  2  0
 37 36  1  0
 38 37  1  0
 40 41  1  0
 41 44  1  0
 41 43  1  0
 42 40  2  0
 45 20  1  0
 45 46  1  0
 47 45  1  0
 48 49  1  0
 49  5  1  0
 51 52  1  0
 51 50  1  0
 53 54  1  0
 53 52  1  0
 54 56  1  0
 55 66  2  0
 56 61  1  0
 57 65  1  0
 57 67  1  0
 58 64  1  0
 58 60  1  0
 59 65  1  0
 60 59  1  0
 61 60  2  0
 62 63  1  0
 62 56  2  0
 63 58  2  0
 64 57  1  0
 65 55  1  0
 67 69  2  0
 68 67  1  0
 70 68  1  0
 71 80  2  0
 71 76  1  0
 72 68  1  0
 72 76  1  0
 73 72  1  0
 74 75  1  0
 74 73  1  0
 75 71  1  0
 76 77  2  0
 77 78  1  0
 79 78  2  0
 80 79  1  0
 81 55  1  0
 81 82  1  0
 81 91  1  0
 82 85  1  0
 83 87  1  0
 83 82  1  0
 84 83  2  0
 87 86  1  0
 89 87  1  0
 89 90  1  0
 89 88  1  0
 91 94  1  1
 91 92  1  0
 93 91  1  0
M  ISO  4   8 100  17 100  53 101  54 101
M  END
>  <TORSDO>  (10) 
F 21

>  <SCORE>  (10) 
-7.967

>  <name>  (10) 
9

>  <ligand_id>  (10) 
9

>  <original_smiles>  (10) 
[H]c1c([H])c([H])c2c(c1[H])C([H])([H])C([H])([H])C([H])([H])C2([H])N([H])C(=O)C1([H])N(C(=O)C([H])(N([H])C(=O)C([H])(N([H])C([H])([H])[H])C([H])([H])[H])C(C([H])([H])[H])(C([H])([H])[H])C([H])([H])[H])C([H])([H])c2c([H])c(OC([H])([H])C([H])([H])C([H])([H])Oc3c([H])c(C([H])([H])C([H])([H])[H])c(C(=O)N([H])C(=O)N4C([H])([H])C([H])([H])C([H])([H])C([H])(n5nc(-c6c([H])c([H])c(Oc7c([H])c([H])c(F)c([H])c7F)c([H])c6[H])c(C(=O)N([H])[H])c5N([H])[H])C4([H])[H])c([H])c3C([H])([H])[H])c([H])c([H])c2C1([H])[H]

>  <smiles>  (10) 
[H]c1c([H])c([H])c2c(c1[H])C([H])([H])C([H])([H])C([H])([H])C2([H])N([H])C(=O)C1([H])N(C(=O)C([H])(N([H])C(=O)C([H])(N([H])C([H])([H])[H])C([H])([H])[H])C(C([H])([H])[H])(C([H])([H])[H])C([H])([H])[H])C([H])([H])c2c([H])c(OC([H])([H])C([H])([H])C([H])([H])Oc3c([H])c(C([H])([H])C([H])([H])[H])c(C(=O)N([H])C(=O)N4C([H])([H])C([H])([H])C([H])([H])C([H])(n5nc(-c6c([H])c([H])c(Oc7c([H])c([H])c(F)c([H])c7F)c([H])c6[H])c(C(=O)N([H])[H])c5N([H])[H])C4([H])[H])c([H])c3C([H])([H])[H])c([H])c([H])c2C1([H])[H]

$$$$
10:0:0
     RDKit          3D

 95104  0  0  1  0  0  0  0  0999 V2000
  -30.5150  -19.7020   20.5640 C   0  0  0  0  0  3  0  0  0  0  0  0
  -29.1760  -20.3890   18.6500 C   0  0  0  0  0  3  0  0  0  0  0  0
  -29.8670  -20.6660   21.3630 C   0  0  0  0  0  0  0  0  0  0  0  0
  -28.4910  -21.3340   19.4370 C   0  0  0  0  0  0  0  0  0  0  0  0
  -30.1480  -19.5400   19.2070 C   0  0  0  0  0  0  0  0  0  0  0  0
  -28.8470  -21.4730   20.8010 C   0  0  0  0  0  0  0  0  0  0  0  0
  -30.2730  -20.8250   22.8220 C   0  0  0  0  0  1  0  0  0  0  0  0
  -26.2280  -21.4430   18.1720 C   0  0  0  0  0  1  0  0  0  0  0  0
  -27.4210  -22.2090   18.7770 C   0  0  0  0  0  2  0  0  0  0  0  0
  -30.6630  -18.5560   18.3970 O   0  0  0  0  0  0  0  0  0  0  0  0
  -30.0830  -16.2300   18.2990 C   0  0  0  0  0  2  0  0  0  0  0  0
  -29.7440  -16.6230   19.7330 C   0  0  0  0  0  3  0  0  0  0  0  0
  -30.9050  -17.2870   18.9960 C   0  0  0  0  0  3  0  0  0  0  0  0
  -29.9940  -15.7630   20.9830 C   0  0  0  0  0  2  0  0  0  0  0  0
  -30.7590  -14.4640   20.6990 C   0  0  0  0  0  0  0  0  0  0  0  0
  -30.4380  -12.4120   19.4230 C   0  0  0  0  0  2  0  0  0  0  0  0
  -29.5130  -12.7520   18.2300 C   0  0  0  0  0  2  0  0  0  0  0  0
  -28.0330  -12.5970   18.6310 C   0  0  0  0  0  2  0  0  0  0  0  0
  -27.6940  -13.3470   19.9490 C   0  0  0  0  0  3  0  0  0  0  0  0
  -28.7340  -13.0100   21.0440 C   0  0  0  0  0  2  0  0  0  0  0  0
  -30.0770  -13.3050   20.5250 N   0  0  0  0  0  0  0  0  0  0  0  0
  -31.9500  -14.5840   20.4080 O   0  0  0  0  0  0  0  0  0  0  0  0
  -25.2690  -13.9330   20.5970 C   0  0  0  0  0  0  0  0  0  0  0  0
  -24.2010  -13.1420   20.9350 C   0  0  0  0  0  0  0  0  0  0  0  0
  -24.6810  -11.7990   20.9150 C   0  0  0  0  0  0  0  0  0  0  0  0
  -26.3310  -13.0640   20.3930 N   0  0  0  0  0  0  0  0  0  0  0  0
  -25.9810  -11.7790   20.6460 N   0  0  0  0  0  0  0  0  0  0  0  0
  -23.9690  -10.5270   21.0870 C   0  0  0  0  0  0  0  0  0  0  0  0
  -24.3700   -9.5780   22.0560 C   0  0  0  0  0  3  0  0  0  0  0  0
  -23.6570   -8.3700   22.2130 C   0  0  0  0  0  3  0  0  0  0  0  0
  -22.5280   -8.1010   21.4040 C   0  0  0  0  0  0  0  0  0  0  0  0
  -22.1460   -9.0340   20.4240 C   0  0  0  0  0  3  0  0  0  0  0  0
  -22.8600  -10.2360   20.2660 C   0  0  0  0  0  3  0  0  0  0  0  0
  -21.7900   -6.9400   21.4690 O   0  0  0  0  0  0  0  0  0  0  0  0
  -21.6810   -6.2220   22.6320 C   0  0  0  0  0  0  0  0  0  0  0  0
  -21.1320   -6.7820   23.8070 C   0  0  0  0  0  3  0  0  0  0  0  0
  -20.9920   -5.9890   24.9630 C   0  0  0  0  0  3  0  0  0  0  0  0
  -21.3720   -4.6320   24.9380 C   0  0  0  0  0  0  0  0  0  0  0  0
  -21.9070   -4.0710   23.7650 C   0  0  0  0  0  3  0  0  0  0  0  0
  -22.0630   -4.8660   22.6160 C   0  0  0  0  0  0  0  0  0  0  0  0
  -22.5620   -4.3170   21.4820 F   0  0  0  0  0  0  0  0  0  0  0  0
  -21.2240   -3.8660   26.0450 F   0  0  0  0  0  0  0  0  0  0  0  0
  -22.7890  -13.5960   21.1750 C   0  0  0  0  0  0  0  0  0  0  0  0
  -22.0580  -12.8790   22.0290 N   0  0  0  0  0  0  0  0  0  0  0  0
  -22.3420  -14.6100   20.6450 O   0  0  0  0  0  0  0  0  0  0  0  0
  -22.4340  -12.0500   22.4680 H   0  0  0  0  0  0  0  0  0  0  0  0
  -21.1120  -13.1560   22.2490 H   0  0  0  0  0  0  0  0  0  0  0  0
  -25.4180  -15.3020   20.4210 N   0  0  0  0  0  0  0  0  0  0  0  0
  -24.6450  -15.9500   20.5140 H   0  0  0  0  0  0  0  0  0  0  0  0
  -26.2800  -15.7410   20.1220 H   0  0  0  0  0  0  0  0  0  0  0  0
  -28.2110  -22.3920   21.5910 O   0  0  0  0  0  0  0  0  0  0  0  0
  -29.0080  -23.5330   21.8930 C   0  0  0  0  0  2  0  0  0  0  0  0
  -28.6520  -24.6410   20.9090 C   0  0  0  0  0  2  0  0  0  0  0  0
  -29.1440  -26.0150   21.3550 C   0  0  0  0  0  2  0  0  0  0  0  0
  -28.8560  -26.9370   20.3300 O   0  0  0  0  0  0  0  0  0  0  0  0
  -24.7400  -31.8800   23.3660 C   0  0  0  0  0  0  0  0  0  0  0  0
  -27.6270  -27.5340   20.4050 C   0  0  0  0  0  0  0  0  0  0  0  0
  -23.6280  -30.4210   21.7060 C   0  0  0  0  0  3  0  0  0  0  0  0
  -25.1700  -28.9040   20.3590 C   0  0  0  0  0  0  0  0  0  0  0  0
  -26.1380  -30.8660   21.5740 C   0  0  0  0  0  2  0  0  0  0  0  0
  -26.2870  -29.4860   20.9740 C   0  0  0  0  0  0  0  0  0  0  0  0
  -27.5170  -28.8040   21.0030 C   0  0  0  0  0  3  0  0  0  0  0  0
  -26.4980  -26.9520   19.7890 C   0  0  0  0  0  3  0  0  0  0  0  0
  -25.2610  -27.6250   19.7820 C   0  0  0  0  0  3  0  0  0  0  0  0
  -23.8990  -29.7210   20.3470 C   0  0  0  0  0  2  0  0  0  0  0  0
  -24.8530  -31.0680   22.2790 N   0  0  0  0  0  0  0  0  0  0  0  0
  -23.6350  -32.1280   23.8680 O   0  0  0  0  0  0  0  0  0  0  0  0
  -22.9760  -29.3920   22.6550 C   0  0  0  0  0  0  0  0  0  0  0  0
  -21.6710  -29.1450   22.4600 N   0  0  0  0  0  0  0  0  0  0  0  0
  -23.6420  -28.8210   23.5220 O   0  0  0  0  0  0  0  0  0  0  0  0
  -21.1960  -29.6630   21.7330 H   0  0  0  0  0  0  0  0  0  0  0  0
  -18.3370  -27.8020   22.7760 C   0  0  0  0  0  0  0  0  0  0  0  0
  -20.8540  -28.1910   23.2080 C   0  0  0  0  0  3  0  0  0  0  0  0
  -21.0620  -26.7510   22.6900 C   0  0  0  0  0  2  0  0  0  0  0  0
  -20.0480  -26.3450   21.6170 C   0  0  0  0  0  2  0  0  0  0  0  0
  -18.6200  -26.4430   22.1630 C   0  0  0  0  0  2  0  0  0  0  0  0
  -19.3870  -28.6310   23.2530 C   0  0  0  0  0  0  0  0  0  0  0  0
  -19.0730  -29.9020   23.7820 C   0  0  0  0  0  3  0  0  0  0  0  0
  -17.7370  -30.3450   23.8420 C   0  0  0  0  0  3  0  0  0  0  0  0
  -16.7000  -29.5150   23.3840 C   0  0  0  0  0  3  0  0  0  0  0  0
  -17.0000  -28.2450   22.8590 C   0  0  0  0  0  3  0  0  0  0  0  0
  -25.9880  -32.5530   24.0160 C   0  0  0  0  0  3  0  0  0  0  0  0
  -25.6450  -33.9530   24.2840 N   0  0  0  0  0  0  0  0  0  0  0  0
  -25.9960  -34.9850   23.5020 C   0  0  0  0  0  0  0  0  0  0  0  0
  -26.7190  -34.8580   22.5080 O   0  0  0  0  0  0  0  0  0  0  0  0
  -25.0050  -34.1230   25.0470 H   0  0  0  0  0  0  0  0  0  0  0  0
  -24.2610  -36.7330   22.9930 C   0  0  0  0  0  1  0  0  0  0  0  0
  -25.4610  -36.3780   23.8850 C   0  0  0  0  0  3  0  0  0  0  0  0
  -27.5340  -37.3230   24.8010 C   0  0  0  0  0  1  0  0  0  0  0  0
  -26.4810  -37.4450   23.7960 N   0  0  0  0  0  0  0  0  0  0  0  0
  -26.0500  -38.3600   23.9010 H   0  0  0  0  0  0  0  0  0  0  0  0
  -26.4660  -31.8300   25.3330 C   0  0  1  0  0  0  0  0  0  0  0  0
  -25.3380  -31.6000   26.3650 C   0  0  0  0  0  1  0  0  0  0  0  0
  -27.0900  -30.4540   25.0020 C   0  0  0  0  0  1  0  0  0  0  0  0
  -27.5700  -32.6670   26.0200 C   0  0  0  0  0  1  0  0  0  0  0  0
  1  3  1  0
  2  5  1  0
  2  4  2  0
  3  7  1  0
  4  6  1  0
  5  1  2  0
  6  3  2  0
  6 51  1  0
  8  9  1  0
  9  4  1  0
 10  5  1  0
 11 13  1  0
 11 12  1  0
 12 14  1  0
 13 10  1  0
 13 12  1  0
 15 14  1  0
 16 21  1  0
 17 18  1  0
 17 16  1  0
 19 18  1  0
 19 26  1  0
 19 20  1  0
 21 15  1  0
 21 20  1  0
 22 15  2  0
 23 24  2  0
 24 43  1  0
 25 24  1  0
 25 28  1  0
 26 23  1  0
 26 27  1  0
 27 25  2  0
 28 29  1  0
 29 30  2  0
 31 34  1  0
 31 30  1  0
 32 31  2  0
 33 32  1  0
 33 28  2  0
 34 35  1  0
 35 36  1  0
 36 37  2  0
 38 37  1  0
 38 42  1  0
 39 38  2  0
 40 35  2  0
 40 39  1  0
 41 40  1  0
 43 44  1  0
 44 47  1  0
 44 46  1  0
 45 43  2  0
 48 49  1  0
 48 23  1  0
 50 48  1  0
 51 52  1  0
 53 54  1  0
 53 52  1  0
 55 57  1  0
 55 54  1  0
 56 67  2  0
 57 62  1  0
 58 66  1  0
 58 68  1  0
 59 61  1  0
 60 66  1  0
 61 62  2  0
 61 60  1  0
 63 57  2  0
 64 63  1  0
 64 59  2  0
 65 59  1  0
 65 58  1  0
 66 56  1  0
 68 70  2  0
 69 68  1  0
 71 69  1  0
 72 81  2  0
 72 77  1  0
 73 69  1  0
 73 77  1  0
 74 73  1  0
 75 76  1  0
 75 74  1  0
 76 72  1  0
 77 78  2  0
 78 79  1  0
 80 79  2  0
 81 80  1  0
 82 56  1  0
 82 83  1  0
 82 92  1  0
 83 86  1  0
 84 88  1  0
 84 83  1  0
 85 84  2  0
 88 87  1  0
 90 88  1  0
 90 91  1  0
 90 89  1  0
 92 95  1  1
 92 93  1  0
 94 92  1  0
M  ISO  4  14 100  15 100  54 101  55 101
M  END
>  <TORSDO>  (11) 
F 24

>  <SCORE>  (11) 
-12.399

>  <name>  (11) 
10

>  <ligand_id>  (11) 
10

>  <original_smiles>  (11) 
[H]c1c([H])c([H])c2c(c1[H])C([H])([H])C([H])([H])C([H])([H])C2([H])N([H])C(=O)C1([H])N(C(=O)C([H])(N([H])C(=O)C([H])(N([H])C([H])([H])[H])C([H])([H])[H])C(C([H])([H])[H])(C([H])([H])[H])C([H])([H])[H])C([H])([H])c2c([H])c(OC([H])([H])C([H])([H])C([H])([H])Oc3c(C([H])([H])[H])c([H])c(OC4([H])C([H])([H])C4([H])C([H])([H])C(=O)N4C([H])([H])C([H])([H])C([H])([H])C([H])(n5nc(-c6c([H])c([H])c(Oc7c([H])c([H])c(F)c([H])c7F)c([H])c6[H])c(C(=O)N([H])[H])c5N([H])[H])C4([H])[H])c([H])c3C([H])([H])C([H])([H])[H])c([H])c([H])c2C1([H])[H]

>  <smiles>  (11) 
[H]c1c([H])c([H])c2c(c1[H])C([H])([H])C([H])([H])C([H])([H])C2([H])N([H])C(=O)C1([H])N(C(=O)C([H])(N([H])C(=O)C([H])(N([H])C([H])([H])[H])C([H])([H])[H])C(C([H])([H])[H])(C([H])([H])[H])C([H])([H])[H])C([H])([H])c2c([H])c(OC([H])([H])C([H])([H])C([H])([H])Oc3c(C([H])([H])[H])c([H])c(OC4([H])C([H])([H])C4([H])C([H])([H])C(=O)N4C([H])([H])C([H])([H])C([H])([H])C([H])(n5nc(-c6c([H])c([H])c(Oc7c([H])c([H])c(F)c([H])c7F)c([H])c6[H])c(C(=O)N([H])[H])c5N([H])[H])C4([H])[H])c([H])c3C([H])([H])C([H])([H])[H])c([H])c([H])c2C1([H])[H]

$$$$
11:0:0
     RDKit          3D

 91 99  0  0  1  0  0  0  0  0999 V2000
  -28.9740  -20.4600   19.0630 C   0  0  0  0  0  3  0  0  0  0  0  0
  -29.3700  -19.1360   19.0480 C   0  0  0  0  0  0  0  0  0  0  0  0
  -29.7140  -18.7590   20.3850 C   0  0  0  0  0  0  0  0  0  0  0  0
  -29.5210  -19.8830   21.1480 N   0  0  0  0  0  0  0  0  0  0  0  0
  -29.0890  -20.9520   20.3530 N   0  0  0  0  0  0  0  0  0  0  0  0
  -29.4470  -18.2780   17.8400 C   0  0  0  0  0  0  0  0  0  0  0  0
  -29.1930  -18.9570   16.5000 C   0  0  0  0  0  1  0  0  0  0  0  0
  -29.7130  -17.0750   17.8620 O   0  0  0  0  0  0  0  0  0  0  0  0
  -30.3890  -17.4310   20.9580 C   0  0  0  0  0  2  0  0  0  0  0  0
  -30.6460  -14.8620   20.4740 C   0  0  0  0  0  0  0  0  0  0  0  0
  -30.4750  -12.5870   19.4450 C   0  0  0  0  0  2  0  0  0  0  0  0
  -29.5570  -12.6430   18.2050 C   0  0  0  0  0  2  0  0  0  0  0  0
  -28.0850  -12.4470   18.6140 C   0  0  0  0  0  2  0  0  0  0  0  0
  -27.6780  -13.3330   19.8200 C   0  0  0  0  0  3  0  0  0  0  0  0
  -28.7190  -13.2700   20.9580 C   0  0  0  0  0  2  0  0  0  0  0  0
  -30.0160  -13.6410   20.3790 N   0  0  0  0  0  0  0  0  0  0  0  0
  -31.8430  -14.9500   20.1920 O   0  0  0  0  0  0  0  0  0  0  0  0
  -29.8940  -16.0030   20.7160 N   0  0  0  0  0  0  0  0  0  0  0  0
  -28.9050  -15.8620   20.8450 H   0  0  0  0  0  0  0  0  0  0  0  0
  -25.2680  -13.8910   20.4990 C   0  0  0  0  0  0  0  0  0  0  0  0
  -24.2070  -13.1020   20.8550 C   0  0  0  0  0  0  0  0  0  0  0  0
  -24.6940  -11.7590   20.8460 C   0  0  0  0  0  0  0  0  0  0  0  0
  -26.3310  -13.0260   20.2910 N   0  0  0  0  0  0  0  0  0  0  0  0
  -25.9910  -11.7390   20.5640 N   0  0  0  0  0  0  0  0  0  0  0  0
  -23.9830  -10.4870   21.0340 C   0  0  0  0  0  0  0  0  0  0  0  0
  -24.4110   -9.5340   21.9840 C   0  0  0  0  0  3  0  0  0  0  0  0
  -23.6990   -8.3280   22.1590 C   0  0  0  0  0  3  0  0  0  0  0  0
  -22.5450   -8.0660   21.3820 C   0  0  0  0  0  0  0  0  0  0  0  0
  -22.1380   -9.0060   20.4210 C   0  0  0  0  0  3  0  0  0  0  0  0
  -22.8500  -10.2040   20.2440 C   0  0  0  0  0  3  0  0  0  0  0  0
  -21.8070   -6.9110   21.4650 O   0  0  0  0  0  0  0  0  0  0  0  0
  -21.7420   -6.1790   22.6240 C   0  0  0  0  0  0  0  0  0  0  0  0
  -21.2730   -6.7370   23.8340 C   0  0  0  0  0  3  0  0  0  0  0  0
  -21.1580   -5.9300   24.9840 C   0  0  0  0  0  3  0  0  0  0  0  0
  -21.5010   -4.5670   24.9250 C   0  0  0  0  0  0  0  0  0  0  0  0
  -21.9620   -4.0080   23.7200 C   0  0  0  0  0  3  0  0  0  0  0  0
  -22.0790   -4.8110   22.5720 C   0  0  0  0  0  0  0  0  0  0  0  0
  -22.5040   -4.2620   21.4090 F   0  0  0  0  0  0  0  0  0  0  0  0
  -21.3830   -3.7900   26.0270 F   0  0  0  0  0  0  0  0  0  0  0  0
  -22.7970  -13.5600   21.0910 C   0  0  0  0  0  0  0  0  0  0  0  0
  -22.0610  -12.8590   21.9460 N   0  0  0  0  0  0  0  0  0  0  0  0
  -22.3550  -14.5740   20.5520 O   0  0  0  0  0  0  0  0  0  0  0  0
  -22.4320  -12.0410   22.4060 H   0  0  0  0  0  0  0  0  0  0  0  0
  -21.1150  -13.1480   22.1470 H   0  0  0  0  0  0  0  0  0  0  0  0
  -25.4130  -15.2620   20.3110 N   0  0  0  0  0  0  0  0  0  0  0  0
  -24.6330  -15.9030   20.4030 H   0  0  0  0  0  0  0  0  0  0  0  0
  -26.2560  -15.7120   19.9760 H   0  0  0  0  0  0  0  0  0  0  0  0
  -28.6570  -22.3070   20.9310 C   0  0  0  0  0  2  0  0  0  0  0  0
  -28.7880  -23.7190   20.1270 C   0  0  0  0  0  3  0  0  0  0  0  0
  -28.0890  -25.0500   20.7590 C   0  0  0  0  0  3  0  0  0  0  0  0
  -28.2900  -26.4580   20.2530 O   0  0  0  0  0  0  0  0  0  0  0  0
  -24.5790  -31.9520   23.2700 C   0  0  0  0  0  0  0  0  0  0  0  0
  -27.1900  -27.3470   20.2390 C   0  0  0  0  0  0  0  0  0  0  0  0
  -23.3790  -30.5500   21.6330 C   0  0  0  0  0  3  0  0  0  0  0  0
  -24.8320  -28.9900   20.2120 C   0  0  0  0  0  0  0  0  0  0  0  0
  -25.9210  -30.8590   21.4510 C   0  0  0  0  0  2  0  0  0  0  0  0
  -26.0040  -29.4740   20.8090 C   0  0  0  0  0  0  0  0  0  0  0  0
  -27.1880  -28.6680   20.8060 C   0  0  0  0  0  3  0  0  0  0  0  0
  -25.9970  -26.9290   19.6120 C   0  0  0  0  0  3  0  0  0  0  0  0
  -24.8340  -27.7250   19.6010 C   0  0  0  0  0  3  0  0  0  0  0  0
  -23.5940  -29.8670   20.2550 C   0  0  0  0  0  2  0  0  0  0  0  0
  -24.6450  -31.1390   22.1750 N   0  0  0  0  0  0  0  0  0  0  0  0
  -23.4950  -32.2300   23.8030 O   0  0  0  0  0  0  0  0  0  0  0  0
  -22.7120  -29.5370   22.5960 C   0  0  0  0  0  0  0  0  0  0  0  0
  -21.3860  -29.3560   22.4660 N   0  0  0  0  0  0  0  0  0  0  0  0
  -23.3890  -28.9160   23.4200 O   0  0  0  0  0  0  0  0  0  0  0  0
  -20.9000  -29.9090   21.7750 H   0  0  0  0  0  0  0  0  0  0  0  0
  -18.0120  -28.1450   22.9580 C   0  0  0  0  0  0  0  0  0  0  0  0
  -20.5680  -28.4200   23.2380 C   0  0  0  0  0  3  0  0  0  0  0  0
  -20.6790  -26.9850   22.6720 C   0  0  0  0  0  2  0  0  0  0  0  0
  -19.5840  -26.6510   21.6540 C   0  0  0  0  0  2  0  0  0  0  0  0
  -18.1980  -26.7930   22.2900 C   0  0  0  0  0  2  0  0  0  0  0  0
  -19.1250  -28.9160   23.3890 C   0  0  0  0  0  0  0  0  0  0  0  0
  -18.8970  -30.1800   23.9740 C   0  0  0  0  0  3  0  0  0  0  0  0
  -17.5880  -30.6750   24.1330 C   0  0  0  0  0  3  0  0  0  0  0  0
  -16.4890  -29.9030   23.7170 C   0  0  0  0  0  3  0  0  0  0  0  0
  -16.7030  -28.6390   23.1360 C   0  0  0  0  0  3  0  0  0  0  0  0
  -25.8600  -32.5880   23.8940 C   0  0  0  0  0  3  0  0  0  0  0  0
  -25.5530  -33.9910   24.2080 N   0  0  0  0  0  0  0  0  0  0  0  0
  -25.8930  -35.0360   23.4410 C   0  0  0  0  0  0  0  0  0  0  0  0
  -26.5660  -34.9190   22.4140 O   0  0  0  0  0  0  0  0  0  0  0  0
  -24.9550  -34.1550   25.0040 H   0  0  0  0  0  0  0  0  0  0  0  0
  -24.1770  -36.8380   23.0600 C   0  0  0  0  0  1  0  0  0  0  0  0
  -25.4100  -36.4320   23.8840 C   0  0  0  0  0  3  0  0  0  0  0  0
  -27.5440  -37.3110   24.7240 C   0  0  0  0  0  1  0  0  0  0  0  0
  -26.4480  -37.4780   23.7700 N   0  0  0  0  0  0  0  0  0  0  0  0
  -26.0470  -38.4020   23.9090 H   0  0  0  0  0  0  0  0  0  0  0  0
  -26.3650  -31.8300   25.1830 C   0  0  1  0  0  0  0  0  0  0  0  0
  -25.2650  -31.6090   26.2470 C   0  0  0  0  0  1  0  0  0  0  0  0
  -26.9460  -30.4450   24.8140 C   0  0  0  0  0  1  0  0  0  0  0  0
  -27.5160  -32.6280   25.8410 C   0  0  0  0  0  1  0  0  0  0  0  0
  1  5  1  0
  2  1  2  0
  2  3  1  0
  3  9  1  0
  3  4  2  0
  5 48  1  0
  5  4  1  0
  6  8  2  0
  6  2  1  0
  7  6  1  0
 10 18  1  0
 11 16  1  0
 12 13  1  0
 12 11  1  0
 14 13  1  0
 14 23  1  0
 14 15  1  0
 16 10  1  0
 16 15  1  0
 17 10  2  0
 18 19  1  0
 18  9  1  0
 20 21  2  0
 21 40  1  0
 22 21  1  0
 22 25  1  0
 23 20  1  0
 23 24  1  0
 24 22  2  0
 25 26  1  0
 26 27  2  0
 28 31  1  0
 28 27  1  0
 29 28  2  0
 30 29  1  0
 30 25  2  0
 31 32  1  0
 32 33  1  0
 33 34  2  0
 35 34  1  0
 35 39  1  0
 36 35  2  0
 37 32  2  0
 37 36  1  0
 38 37  1  0
 40 41  1  0
 41 44  1  0
 41 43  1  0
 42 40  2  0
 45 46  1  0
 45 20  1  0
 47 45  1  0
 49 50  2  0
 49 48  1  0
 51 50  1  0
 52 63  2  0
 53 51  1  0
 53 58  1  0
 54 62  1  0
 54 64  1  0
 55 61  1  0
 55 57  1  0
 56 62  1  0
 57 56  1  0
 58 57  2  0
 59 53  2  0
 60 59  1  0
 60 55  2  0
 61 54  1  0
 62 52  1  0
 64 66  2  0
 65 64  1  0
 67 65  1  0
 68 77  2  0
 68 73  1  0
 69 65  1  0
 69 73  1  0
 70 69  1  0
 71 72  1  0
 71 70  1  0
 72 68  1  0
 73 74  2  0
 74 75  1  0
 76 75  2  0
 77 76  1  0
 78 52  1  0
 78 79  1  0
 78 88  1  0
 79 82  1  0
 80 84  1  0
 80 79  1  0
 81 80  2  0
 84 83  1  0
 86 84  1  0
 86 87  1  0
 86 85  1  0
 88 91  1  1
 88 89  1  0
 90 88  1  0
M  ISO  4  10 100  18 100  50 101  51 101
M  END
>  <TORSDO>  (12) 
F 21

>  <SCORE>  (12) 
-13.211

>  <name>  (12) 
11

>  <ligand_id>  (12) 
11

>  <original_smiles>  (12) 
[H]c1c([H])c([H])c2c(c1[H])C([H])([H])C([H])([H])C([H])([H])C2([H])N([H])C(=O)C1([H])N(C(=O)C([H])(N([H])C(=O)C([H])(N([H])C([H])([H])[H])C([H])([H])[H])C(C([H])([H])[H])(C([H])([H])[H])C([H])([H])[H])C([H])([H])c2c([H])c(OC([H])([H])C([H])([H])C([H])([H])n3nc(C([H])([H])N([H])C(=O)N4C([H])([H])C([H])([H])C([H])([H])C([H])(n5nc(-c6c([H])c([H])c(Oc7c([H])c([H])c(F)c([H])c7F)c([H])c6[H])c(C(=O)N([H])[H])c5N([H])[H])C4([H])[H])c(C(=O)C([H])([H])[H])c3[H])c([H])c([H])c2C1([H])[H]

>  <smiles>  (12) 
[H]c1c([H])c([H])c2c(c1[H])C([H])([H])C([H])([H])C([H])([H])C2([H])N([H])C(=O)C1([H])N(C(=O)C([H])(N([H])C(=O)C([H])(N([H])C([H])([H])[H])C([H])([H])[H])C(C([H])([H])[H])(C([H])([H])[H])C([H])([H])[H])C([H])([H])c2c([H])c(OC([H])([H])C([H])([H])C([H])([H])n3nc(C([H])([H])N([H])C(=O)N4C([H])([H])C([H])([H])C([H])([H])C([H])(n5nc(-c6c([H])c([H])c(Oc7c([H])c([H])c(F)c([H])c7F)c([H])c6[H])c(C(=O)N([H])[H])c5N([H])[H])C4([H])[H])c(C(=O)C([H])([H])[H])c3[H])c([H])c([H])c2C1([H])[H]

$$$$
12:0:0
     RDKit          3D

 99107  0  0  1  0  0  0  0  0999 V2000
  -29.8650  -18.2640   21.2870 C   0  0  0  0  0  3  0  0  0  0  0  0
  -30.5260  -17.0890   19.2470 C   0  0  0  0  0  0  0  0  0  0  0  0
  -30.5560  -18.3380   18.5590 C   0  0  0  0  0  0  0  0  0  0  0  0
  -30.2160  -17.0350   20.6490 C   0  0  0  0  0  0  0  0  0  0  0  0
  -30.2570  -19.5320   19.2480 C   0  0  0  0  0  0  0  0  0  0  0  0
  -29.8600  -19.5160   20.6080 C   0  0  0  0  0  0  0  0  0  0  0  0
  -30.9270  -18.3970   17.0660 C   0  0  0  0  0  1  0  0  0  0  0  0
  -30.9370  -14.7180   21.4290 C   0  0  0  0  0  0  0  0  0  0  0  0
  -30.8870  -12.3670   20.6710 C   0  0  0  0  0  2  0  0  0  0  0  0
  -30.1740  -12.3040   19.3020 C   0  0  0  0  0  2  0  0  0  0  0  0
  -28.6390  -12.2670   19.4530 C   0  0  0  0  0  2  0  0  0  0  0  0
  -28.0860  -13.2640   20.5070 C   0  0  0  0  0  3  0  0  0  0  0  0
  -28.9280  -13.2340   21.8010 C   0  0  0  0  0  2  0  0  0  0  0  0
  -30.3270  -13.4980   21.4300 N   0  0  0  0  0  0  0  0  0  0  0  0
  -32.1550  -14.8410   21.2730 O   0  0  0  0  0  0  0  0  0  0  0  0
  -30.1020  -15.7940   21.4070 N   0  0  0  0  0  0  0  0  0  0  0  0
  -29.1780  -15.5990   21.7630 H   0  0  0  0  0  0  0  0  0  0  0  0
  -25.6260  -13.9410   20.8400 C   0  0  0  0  0  0  0  0  0  0  0  0
  -24.4920  -13.1990   21.0400 C   0  0  0  0  0  0  0  0  0  0  0  0
  -24.9150  -11.8350   21.0820 C   0  0  0  0  0  0  0  0  0  0  0  0
  -26.6690  -13.0300   20.7760 N   0  0  0  0  0  0  0  0  0  0  0  0
  -26.2350  -11.7600   20.9800 N   0  0  0  0  0  0  0  0  0  0  0  0
  -24.1340  -10.5930   21.1540 C   0  0  0  0  0  0  0  0  0  0  0  0
  -24.4170   -9.5970   22.1160 C   0  0  0  0  0  3  0  0  0  0  0  0
  -23.6420   -8.4200   22.1790 C   0  0  0  0  0  3  0  0  0  0  0  0
  -22.5680   -8.2300   21.2770 C   0  0  0  0  0  0  0  0  0  0  0  0
  -22.3030   -9.2130   20.3080 C   0  0  0  0  0  3  0  0  0  0  0  0
  -23.0820  -10.3820   20.2420 C   0  0  0  0  0  3  0  0  0  0  0  0
  -21.7760   -7.1070   21.2450 O   0  0  0  0  0  0  0  0  0  0  0  0
  -21.5720   -6.3400   22.3630 C   0  0  0  0  0  0  0  0  0  0  0  0
  -21.0160   -6.8780   23.5440 C   0  0  0  0  0  3  0  0  0  0  0  0
  -20.7570   -6.0390   24.6460 C   0  0  0  0  0  3  0  0  0  0  0  0
  -21.0420   -4.6630   24.5670 C   0  0  0  0  0  0  0  0  0  0  0  0
  -21.5920   -4.1240   23.3910 C   0  0  0  0  0  3  0  0  0  0  0  0
  -21.8530   -4.9610   22.2910 C   0  0  0  0  0  0  0  0  0  0  0  0
  -22.3600   -4.4320   21.1520 F   0  0  0  0  0  0  0  0  0  0  0  0
  -20.7880   -3.8550   25.6240 F   0  0  0  0  0  0  0  0  0  0  0  0
  -23.0820  -13.7140   21.0980 C   0  0  0  0  0  0  0  0  0  0  0  0
  -22.2170  -13.0500   21.8550 N   0  0  0  0  0  0  0  0  0  0  0  0
  -22.7530  -14.7430   20.5070 O   0  0  0  0  0  0  0  0  0  0  0  0
  -22.4910  -12.2160   22.3540 H   0  0  0  0  0  0  0  0  0  0  0  0
  -21.2660  -13.3810   21.9390 H   0  0  0  0  0  0  0  0  0  0  0  0
  -25.8560  -15.3050   20.6860 N   0  0  0  0  0  0  0  0  0  0  0  0
  -25.1000  -15.9740   20.5950 H   0  0  0  0  0  0  0  0  0  0  0  0
  -26.7670  -15.7190   20.5390 H   0  0  0  0  0  0  0  0  0  0  0  0
  -30.7780  -15.8530   18.4370 C   0  0  0  0  0  0  0  0  0  0  0  0
  -29.6870  -15.2430   17.9920 N   0  0  0  0  0  0  0  0  0  0  0  0
  -31.9160  -15.4850   18.1490 O   0  0  0  0  0  0  0  0  0  0  0  0
  -28.7770  -15.6290   18.1930 H   0  0  0  0  0  0  0  0  0  0  0  0
  -29.7640  -14.4330   17.3960 H   0  0  0  0  0  0  0  0  0  0  0  0
  -30.4060  -20.7450   18.5840 N   0  0  0  0  0  0  0  0  0  0  0  0
  -31.0440  -20.7670   17.7990 H   0  0  0  0  0  0  0  0  0  0  0  0
  -30.5130  -21.5520   19.1840 H   0  0  0  0  0  0  0  0  0  0  0  0
  -29.5530  -20.6850   21.3090 O   0  0  0  0  0  0  0  0  0  0  0  0
  -28.5770  -21.6350   20.7980 C   0  0  0  0  0  2  0  0  0  0  0  0
  -29.1360  -23.0730   20.5290 C   0  0  0  0  0  2  0  0  0  0  0  0
  -28.0960  -24.2400   20.4260 C   0  0  0  0  0  2  0  0  0  0  0  0
  -28.5170  -25.3980   19.4670 C   0  0  0  0  0  2  0  0  0  0  0  0
  -28.3710  -26.7350   19.9840 O   0  0  0  0  0  0  0  0  0  0  0  0
  -24.5140  -31.7740   23.1630 C   0  0  0  0  0  0  0  0  0  0  0  0
  -27.1680  -27.4200   19.9570 C   0  0  0  0  0  0  0  0  0  0  0  0
  -23.3070  -30.4210   21.4780 C   0  0  0  0  0  3  0  0  0  0  0  0
  -24.7640  -28.9280   20.0010 C   0  0  0  0  0  0  0  0  0  0  0  0
  -25.8300  -30.7930   21.2850 C   0  0  0  0  0  2  0  0  0  0  0  0
  -25.9190  -29.4390   20.6060 C   0  0  0  0  0  0  0  0  0  0  0  0
  -27.1180  -28.6920   20.5790 C   0  0  0  0  0  3  0  0  0  0  0  0
  -25.9930  -26.9230   19.3500 C   0  0  0  0  0  3  0  0  0  0  0  0
  -24.7980  -27.6730   19.3670 C   0  0  0  0  0  3  0  0  0  0  0  0
  -23.5170  -29.7840   20.0760 C   0  0  0  0  0  2  0  0  0  0  0  0
  -24.5690  -31.0100   22.0340 N   0  0  0  0  0  0  0  0  0  0  0  0
  -23.4330  -32.0240   23.7150 O   0  0  0  0  0  0  0  0  0  0  0  0
  -22.6610  -29.3700   22.4080 C   0  0  0  0  0  0  0  0  0  0  0  0
  -21.3380  -29.1790   22.2700 N   0  0  0  0  0  0  0  0  0  0  0  0
  -23.3470  -28.7290   23.2090 O   0  0  0  0  0  0  0  0  0  0  0  0
  -20.8470  -29.7520   21.5990 H   0  0  0  0  0  0  0  0  0  0  0  0
  -17.9750  -27.9330   22.7040 C   0  0  0  0  0  0  0  0  0  0  0  0
  -20.5260  -28.2120   23.0090 C   0  0  0  0  0  3  0  0  0  0  0  0
  -20.6500  -26.7970   22.3970 C   0  0  0  0  0  2  0  0  0  0  0  0
  -19.5620  -26.4890   21.3640 C   0  0  0  0  0  2  0  0  0  0  0  0
  -18.1730  -26.6030   21.9980 C   0  0  0  0  0  2  0  0  0  0  0  0
  -19.0800  -28.6970   23.1650 C   0  0  0  0  0  0  0  0  0  0  0  0
  -18.8420  -29.9420   23.7840 C   0  0  0  0  0  3  0  0  0  0  0  0
  -17.5300  -30.4260   23.9480 C   0  0  0  0  0  3  0  0  0  0  0  0
  -16.4380  -29.6580   23.5040 C   0  0  0  0  0  3  0  0  0  0  0  0
  -16.6630  -28.4140   22.8890 C   0  0  0  0  0  3  0  0  0  0  0  0
  -25.7990  -32.3890   23.8020 C   0  0  0  0  0  3  0  0  0  0  0  0
  -25.5000  -33.7880   24.1360 N   0  0  0  0  0  0  0  0  0  0  0  0
  -25.8640  -34.8420   23.3930 C   0  0  0  0  0  0  0  0  0  0  0  0
  -26.5550  -34.7380   22.3750 O   0  0  0  0  0  0  0  0  0  0  0  0
  -24.8930  -33.9420   24.9270 H   0  0  0  0  0  0  0  0  0  0  0  0
  -24.1670  -36.6590   23.0110 C   0  0  0  0  0  1  0  0  0  0  0  0
  -25.3830  -36.2330   23.8490 C   0  0  0  0  0  3  0  0  0  0  0  0
  -27.5080  -37.0870   24.7360 C   0  0  0  0  0  1  0  0  0  0  0  0
  -26.4310  -37.2740   23.7680 N   0  0  0  0  0  0  0  0  0  0  0  0
  -26.0320  -38.1980   23.9100 H   0  0  0  0  0  0  0  0  0  0  0  0
  -26.2970  -31.6050   25.0770 C   0  0  1  0  0  0  0  0  0  0  0  0
  -25.1940  -31.3770   26.1380 C   0  0  0  0  0  1  0  0  0  0  0  0
  -26.8620  -30.2220   24.6790 C   0  0  0  0  0  1  0  0  0  0  0  0
  -27.4510  -32.3800   25.7540 C   0  0  0  0  0  1  0  0  0  0  0  0
  2  4  2  0
  3  2  1  0
  3  5  2  0
  4  1  1  0
  4 16  1  0
  5  6  1  0
  6  1  2  0
  6 54  1  0
  7  3  1  0
  8 14  1  0
  9 14  1  0
 10 11  1  0
 10  9  1  0
 12 11  1  0
 12 21  1  0
 12 13  1  0
 14 13  1  0
 15  8  2  0
 16  8  1  0
 16 17  1  0
 18 19  2  0
 19 20  1  0
 19 38  1  0
 20 23  1  0
 21 18  1  0
 21 22  1  0
 22 20  2  0
 23 24  1  0
 24 25  2  0
 26 25  1  0
 27 26  2  0
 28 27  1  0
 28 23  2  0
 29 26  1  0
 29 30  1  0
 30 31  1  0
 31 32  2  0
 33 32  1  0
 33 37  1  0
 34 33  2  0
 35 30  2  0
 35 34  1  0
 36 35  1  0
 38 39  1  0
 39 42  1  0
 39 41  1  0
 40 38  2  0
 43 18  1  0
 44 43  1  0
 45 43  1  0
 46  2  1  0
 47 49  1  0
 47 46  1  0
 48 46  2  0
 50 47  1  0
 51 53  1  0
 51  5  1  0
 52 51  1  0
 55 54  1  0
 56 55  1  0
 57 56  1  0
 58 59  1  0
 58 57  1  0
 60 71  2  0
 61 59  1  0
 61 66  1  0
 62 70  1  0
 62 72  1  0
 63 69  1  0
 63 65  1  0
 64 70  1  0
 65 64  1  0
 66 65  2  0
 67 68  1  0
 67 61  2  0
 68 63  2  0
 69 62  1  0
 70 60  1  0
 72 74  2  0
 73 72  1  0
 75 73  1  0
 76 85  2  0
 76 81  1  0
 77 73  1  0
 77 81  1  0
 78 77  1  0
 79 80  1  0
 79 78  1  0
 80 76  1  0
 81 82  2  0
 82 83  1  0
 84 83  2  0
 85 84  1  0
 86 60  1  0
 86 87  1  0
 86 96  1  0
 87 90  1  0
 88 92  1  0
 88 87  1  0
 89 88  2  0
 92 91  1  0
 94 92  1  0
 94 95  1  0
 94 93  1  0
 96 99  1  1
 96 97  1  0
 98 96  1  0
M  ISO  4   8 100  16 100  58 101  59 101
M  END
>  <TORSDO>  (13) 
F 23

>  <SCORE>  (13) 
-11.224

>  <name>  (13) 
12

>  <ligand_id>  (13) 
12

>  <original_smiles>  (13) 
[H]c1c([H])c([H])c2c(c1[H])C([H])([H])C([H])([H])C([H])([H])C2([H])N([H])C(=O)C1([H])N(C(=O)C([H])(N([H])C(=O)C([H])(N([H])C([H])([H])[H])C([H])([H])[H])C(C([H])([H])[H])(C([H])([H])[H])C([H])([H])[H])C([H])([H])c2c([H])c(OC([H])([H])C([H])([H])C([H])([H])C([H])([H])Oc3c([H])c(N([H])C(=O)N4C([H])([H])C([H])([H])C([H])([H])C([H])(n5nc(-c6c([H])c([H])c(Oc7c([H])c([H])c(F)c([H])c7F)c([H])c6[H])c(C(=O)N([H])[H])c5N([H])[H])C4([H])[H])c(C(=O)N([H])[H])c(C([H])([H])[H])c3N([H])[H])c([H])c([H])c2C1([H])[H]

>  <smiles>  (13) 
[H]c1c([H])c([H])c2c(c1[H])C([H])([H])C([H])([H])C([H])([H])C2([H])N([H])C(=O)C1([H])N(C(=O)C([H])(N([H])C(=O)C([H])(N([H])C([H])([H])[H])C([H])([H])[H])C(C([H])([H])[H])(C([H])([H])[H])C([H])([H])[H])C([H])([H])c2c([H])c(OC([H])([H])C([H])([H])C([H])([H])C([H])([H])Oc3c([H])c(N([H])C(=O)N4C([H])([H])C([H])([H])C([H])([H])C([H])(n5nc(-c6c([H])c([H])c(Oc7c([H])c([H])c(F)c([H])c7F)c([H])c6[H])c(C(=O)N([H])[H])c5N([H])[H])C4([H])[H])c(C(=O)N([H])[H])c(C([H])([H])[H])c3N([H])[H])c([H])c([H])c2C1([H])[H]

$$$$
13:0:0
     RDKit          3D

 94103  0  0  1  0  0  0  0  0999 V2000
  -26.8220  -22.3910   18.9190 C   0  0  0  0  0  2  0  0  0  0  0  0
  -26.7220  -23.2550   20.1970 C   0  0  0  0  0  2  0  0  0  0  0  0
  -28.3240  -22.0830   18.7530 C   0  0  0  0  0  2  0  0  0  0  0  0
  -28.1720  -23.6730   20.4940 C   0  0  0  0  0  3  0  0  0  0  0  0
  -28.9260  -22.3830   20.0660 N   0  0  1  0  0  4  0  0  0  0  0  0
  -29.9190  -22.5570   19.9690 H   0  0  0  0  0  0  0  0  0  0  0  0
  -28.8150  -21.1290   20.9640 C   0  0  0  0  0  2  0  0  0  0  0  0
  -31.6710  -17.8020   20.8730 C   0  0  0  0  0  3  0  0  0  0  0  0
  -29.3740  -18.4760   20.7290 C   0  0  0  0  0  3  0  0  0  0  0  0
  -30.3280  -17.3790   20.7470 C   0  0  0  0  0  0  0  0  0  0  0  0
  -32.0040  -19.1730   20.9230 C   0  0  0  0  0  0  0  0  0  0  0  0
  -29.7810  -19.8730   20.7850 C   0  0  0  0  0  0  0  0  0  0  0  0
  -33.4410  -19.5970   21.1560 C   0  0  0  0  0  1  0  0  0  0  0  0
  -31.0960  -20.1750   20.8480 N   0  0  0  0  0  0  0  0  0  0  0  0
  -30.6980  -14.7970   20.3910 C   0  0  0  0  0  0  0  0  0  0  0  0
  -30.4730  -12.5310   19.3540 C   0  0  0  0  0  2  0  0  0  0  0  0
  -29.5530  -12.6120   18.1200 C   0  0  0  0  0  2  0  0  0  0  0  0
  -28.0780  -12.4430   18.5340 C   0  0  0  0  0  2  0  0  0  0  0  0
  -27.6920  -13.3200   19.7580 C   0  0  0  0  0  3  0  0  0  0  0  0
  -28.7420  -13.2310   20.8870 C   0  0  0  0  0  2  0  0  0  0  0  0
  -30.0450  -13.5840   20.3070 N   0  0  0  0  0  0  0  0  0  0  0  0
  -31.8660  -14.8690   20.0050 O   0  0  0  0  0  0  0  0  0  0  0  0
  -29.9620  -15.9320   20.7110 N   0  0  0  0  0  0  0  0  0  0  0  0
  -28.9970  -15.7250   20.9070 H   0  0  0  0  0  0  0  0  0  0  0  0
  -25.2910  -13.9020   20.4520 C   0  0  0  0  0  0  0  0  0  0  0  0
  -24.2250  -13.1260   20.8160 C   0  0  0  0  0  0  0  0  0  0  0  0
  -24.6930  -11.7760   20.7950 C   0  0  0  0  0  0  0  0  0  0  0  0
  -26.3440  -13.0270   20.2350 N   0  0  0  0  0  0  0  0  0  0  0  0
  -25.9890  -11.7430   20.5000 N   0  0  0  0  0  0  0  0  0  0  0  0
  -23.9680  -10.5140   20.9860 C   0  0  0  0  0  0  0  0  0  0  0  0
  -24.3860   -9.5640   21.9420 C   0  0  0  0  0  3  0  0  0  0  0  0
  -23.6670   -8.3620   22.1230 C   0  0  0  0  0  3  0  0  0  0  0  0
  -22.5130   -8.1010   21.3460 C   0  0  0  0  0  0  0  0  0  0  0  0
  -22.1100   -9.0420   20.3840 C   0  0  0  0  0  3  0  0  0  0  0  0
  -22.8300  -10.2350   20.2010 C   0  0  0  0  0  3  0  0  0  0  0  0
  -21.7650   -6.9510   21.4370 O   0  0  0  0  0  0  0  0  0  0  0  0
  -21.6870   -6.2320   22.6020 C   0  0  0  0  0  0  0  0  0  0  0  0
  -21.2110   -6.8060   23.8020 C   0  0  0  0  0  3  0  0  0  0  0  0
  -21.0750   -6.0100   24.9580 C   0  0  0  0  0  3  0  0  0  0  0  0
  -21.4100   -4.6430   24.9160 C   0  0  0  0  0  0  0  0  0  0  0  0
  -21.8830   -4.0710   23.7230 C   0  0  0  0  0  3  0  0  0  0  0  0
  -22.0170   -4.8620   22.5700 C   0  0  0  0  0  0  0  0  0  0  0  0
  -22.4490   -4.3010   21.4160 F   0  0  0  0  0  0  0  0  0  0  0  0
  -21.2780   -3.8770   26.0240 F   0  0  0  0  0  0  0  0  0  0  0  0
  -22.8230  -13.5980   21.0670 C   0  0  0  0  0  0  0  0  0  0  0  0
  -22.0780  -12.9120   21.9250 N   0  0  0  0  0  0  0  0  0  0  0  0
  -22.3900  -14.6170   20.5280 O   0  0  0  0  0  0  0  0  0  0  0  0
  -22.4350  -12.0940   22.3950 H   0  0  0  0  0  0  0  0  0  0  0  0
  -21.1350  -13.2200   22.1210 H   0  0  0  0  0  0  0  0  0  0  0  0
  -25.4470  -15.2710   20.2570 N   0  0  0  0  0  0  0  0  0  0  0  0
  -24.6540  -15.9030   20.3150 H   0  0  0  0  0  0  0  0  0  0  0  0
  -26.2710  -15.7060   19.8660 H   0  0  0  0  0  0  0  0  0  0  0  0
  -28.4960  -25.0690   19.6890 C   0  0  0  0  0  2  0  0  0  0  0  0
  -28.3460  -26.4750   20.2150 O   0  0  0  0  0  0  0  0  0  0  0  0
  -24.6150  -31.8970   23.2060 C   0  0  0  0  0  0  0  0  0  0  0  0
  -27.2100  -27.3110   20.1180 C   0  0  0  0  0  0  0  0  0  0  0  0
  -23.3960  -30.5000   21.5720 C   0  0  0  0  0  3  0  0  0  0  0  0
  -24.8380  -28.9430   20.1230 C   0  0  0  0  0  0  0  0  0  0  0  0
  -25.9370  -30.8030   21.3760 C   0  0  0  0  0  2  0  0  0  0  0  0
  -26.0080  -29.4240   20.7240 C   0  0  0  0  0  0  0  0  0  0  0  0
  -27.1880  -28.6180   20.7170 C   0  0  0  0  0  3  0  0  0  0  0  0
  -26.0240  -26.8990   19.4720 C   0  0  0  0  0  3  0  0  0  0  0  0
  -24.8480  -27.6850   19.4970 C   0  0  0  0  0  3  0  0  0  0  0  0
  -23.6020  -29.8230   20.1880 C   0  0  0  0  0  2  0  0  0  0  0  0
  -24.6690  -31.0860   22.1080 N   0  0  0  0  0  0  0  0  0  0  0  0
  -23.5380  -32.1740   23.7510 O   0  0  0  0  0  0  0  0  0  0  0  0
  -22.7470  -29.4810   22.5390 C   0  0  0  0  0  0  0  0  0  0  0  0
  -21.4200  -29.3010   22.4270 N   0  0  0  0  0  0  0  0  0  0  0  0
  -23.4350  -28.8520   23.3480 O   0  0  0  0  0  0  0  0  0  0  0  0
  -20.9170  -29.8640   21.7550 H   0  0  0  0  0  0  0  0  0  0  0  0
  -18.0510  -28.0850   22.9440 C   0  0  0  0  0  0  0  0  0  0  0  0
  -20.6110  -28.3560   23.1980 C   0  0  0  0  0  3  0  0  0  0  0  0
  -20.7190  -26.9290   22.6160 C   0  0  0  0  0  2  0  0  0  0  0  0
  -19.6110  -26.6050   21.6100 C   0  0  0  0  0  2  0  0  0  0  0  0
  -18.2310  -26.7380   22.2630 C   0  0  0  0  0  2  0  0  0  0  0  0
  -19.1700  -28.8520   23.3690 C   0  0  0  0  0  0  0  0  0  0  0  0
  -18.9480  -30.1110   23.9670 C   0  0  0  0  0  3  0  0  0  0  0  0
  -17.6410  -30.6030   24.1450 C   0  0  0  0  0  3  0  0  0  0  0  0
  -16.5390  -29.8340   23.7350 C   0  0  0  0  0  3  0  0  0  0  0  0
  -16.7440  -28.5780   23.1400 C   0  0  0  0  0  3  0  0  0  0  0  0
  -25.9070  -32.5290   23.8190 C   0  0  0  0  0  3  0  0  0  0  0  0
  -26.4400  -31.7540   25.0880 C   0  0  1  0  0  0  0  0  0  0  0  0
  -25.3610  -31.5120   26.1670 C   0  0  0  0  0  1  0  0  0  0  0  0
  -27.0170  -30.3750   24.6910 C   0  0  0  0  0  1  0  0  0  0  0  0
  -27.5950  -32.5500   25.7420 C   0  0  0  0  0  1  0  0  0  0  0  0
  -25.6010  -33.9260   24.1610 N   0  0  0  0  0  0  0  0  0  0  0  0
  -25.9260  -34.9840   23.4060 C   0  0  0  0  0  0  0  0  0  0  0  0
  -26.5850  -34.8880   22.3680 O   0  0  0  0  0  0  0  0  0  0  0  0
  -25.0230  -34.0800   24.9720 H   0  0  0  0  0  0  0  0  0  0  0  0
  -24.1990  -36.7840   23.0790 C   0  0  0  0  0  1  0  0  0  0  0  0
  -25.4440  -36.3690   23.8790 C   0  0  0  0  0  3  0  0  0  0  0  0
  -27.5810  -37.2450   24.7130 C   0  0  0  0  0  1  0  0  0  0  0  0
  -26.4750  -37.4220   23.7740 N   0  0  0  0  0  0  0  0  0  0  0  0
  -26.0680  -38.3400   23.9350 H   0  0  0  0  0  0  0  0  0  0  0  0
  1  2  1  0
  2  4  1  0
  3  1  1  0
  3  5  1  0
  4 53  1  0
  5  4  1  0
  5  7  1  0
  5  6  1  6
  8 11  1  0
  9 10  1  0
  9 12  2  0
 10  8  2  0
 11 13  1  0
 12 14  1  0
 12  7  1  0
 14 11  2  0
 15 23  1  0
 16 21  1  0
 17 18  1  0
 17 16  1  0
 19 18  1  0
 19 28  1  0
 19 20  1  0
 21 15  1  0
 21 20  1  0
 22 15  2  0
 23 10  1  0
 23 24  1  0
 25 26  2  0
 26 45  1  0
 27 26  1  0
 27 30  1  0
 28 25  1  0
 28 29  1  0
 29 27  2  0
 30 31  1  0
 31 32  2  0
 33 36  1  0
 33 32  1  0
 34 33  2  0
 35 34  1  0
 35 30  2  0
 36 37  1  0
 37 38  1  0
 38 39  2  0
 40 39  1  0
 40 44  1  0
 41 40  2  0
 42 37  2  0
 42 41  1  0
 43 42  1  0
 45 46  1  0
 46 49  1  0
 46 48  1  0
 47 45  2  0
 50 51  1  0
 50 25  1  0
 52 50  1  0
 53 54  1  0
 55 66  2  0
 56 54  1  0
 56 61  1  0
 57 65  1  0
 57 67  1  0
 58 64  1  0
 58 60  1  0
 59 65  1  0
 60 59  1  0
 61 60  2  0
 62 63  1  0
 62 56  2  0
 63 58  2  0
 64 57  1  0
 65 55  1  0
 67 69  2  0
 68 67  1  0
 70 68  1  0
 71 80  2  0
 71 76  1  0
 72 68  1  0
 72 76  1  0
 73 72  1  0
 74 75  1  0
 74 73  1  0
 75 71  1  0
 76 77  2  0
 77 78  1  0
 79 78  2  0
 80 79  1  0
 81 55  1  0
 81 86  1  0
 81 82  1  0
 82 85  1  1
 82 83  1  0
 84 82  1  0
 86 89  1  0
 87 91  1  0
 87 86  1  0
 88 87  2  0
 91 90  1  0
 93 91  1  0
 93 94  1  0
 93 92  1  0
M  ISO  4  15 100  23 100  53 101  54 101
M  END
>  <TORSDO>  (14) 
F 19

>  <SCORE>  (14) 
-14.640

>  <name>  (14) 
13

>  <ligand_id>  (14) 
13

>  <original_smiles>  (14) 
[H]c1c([H])c([H])c2c(c1[H])C([H])([H])C([H])([H])C([H])([H])C2([H])N([H])C(=O)C1([H])N(C(=O)C([H])(N([H])C(=O)C([H])(N([H])C([H])([H])[H])C([H])([H])[H])C(C([H])([H])[H])(C([H])([H])[H])C([H])([H])[H])C([H])([H])c2c([H])c(OC([H])([H])C3([H])C([H])([H])C([H])([H])C([H])([H])[N+]3([H])C([H])([H])c3nc(C([H])([H])[H])c([H])c(N([H])C(=O)N4C([H])([H])C([H])([H])C([H])([H])C([H])(n5nc(-c6c([H])c([H])c(Oc7c([H])c([H])c(F)c([H])c7F)c([H])c6[H])c(C(=O)N([H])[H])c5N([H])[H])C4([H])[H])c3[H])c([H])c([H])c2C1([H])[H]

>  <smiles>  (14) 
[H]c1c([H])c([H])c2c(c1[H])C([H])([H])C([H])([H])C([H])([H])C2([H])N([H])C(=O)C1([H])N(C(=O)C([H])(N([H])C(=O)C([H])(N([H])C([H])([H])[H])C([H])([H])[H])C(C([H])([H])[H])(C([H])([H])[H])C([H])([H])[H])C([H])([H])c2c([H])c(OC([H])([H])C3([H])C([H])([H])C([H])([H])C([H])([H])[N+]3([H])C([H])([H])c3nc(C([H])([H])[H])c([H])c(N([H])C(=O)N4C([H])([H])C([H])([H])C([H])([H])C([H])(n5nc(-c6c([H])c([H])c(Oc7c([H])c([H])c(F)c([H])c7F)c([H])c6[H])c(C(=O)N([H])[H])c5N([H])[H])C4([H])[H])c3[H])c([H])c([H])c2C1([H])[H]

$$$$
14:0:0
     RDKit          3D

 94102  0  0  1  0  0  0  0  0999 V2000
  -28.7940  -21.6280   19.6160 N   0  0  0  0  0  0  0  0  0  0  0  0
  -28.2250  -21.2860   18.8480 H   0  0  0  0  0  0  0  0  0  0  0  0
  -30.8790  -18.6280   21.7690 C   0  0  0  0  0  3  0  0  0  0  0  0
  -30.3090  -20.9830   21.4140 C   0  0  0  0  0  3  0  0  0  0  0  0
  -29.5480  -19.2800   19.8510 C   0  0  0  0  0  3  0  0  0  0  0  0
  -30.9460  -19.9800   22.1710 C   0  0  0  0  0  0  0  0  0  0  0  0
  -30.2340  -18.2530   20.5670 C   0  0  0  0  0  0  0  0  0  0  0  0
  -29.5620  -20.6420   20.2710 C   0  0  0  0  0  0  0  0  0  0  0  0
  -31.6890  -20.3650   23.4340 C   0  0  0  0  0  1  0  0  0  0  0  0
  -30.1880  -16.7930   20.0160 C   0  0  0  0  0  2  0  0  0  0  0  0
  -31.1200  -14.5360   20.0650 C   0  0  0  0  0  0  0  0  0  0  0  0
  -30.6780  -12.3910   18.9200 C   0  0  0  0  0  2  0  0  0  0  0  0
  -29.7060  -12.6190   17.7450 C   0  0  0  0  0  2  0  0  0  0  0  0
  -28.2450  -12.5330   18.2260 C   0  0  0  0  0  2  0  0  0  0  0  0
  -27.9850  -13.3790   19.5010 C   0  0  0  0  0  3  0  0  0  0  0  0
  -29.0690  -13.1420   20.5750 C   0  0  0  0  0  2  0  0  0  0  0  0
  -30.3780  -13.3950   19.9570 N   0  0  0  0  0  0  0  0  0  0  0  0
  -32.2020  -14.6690   19.4810 O   0  0  0  0  0  0  0  0  0  0  0  0
  -31.2450  -15.7350   22.0990 C   0  0  0  0  0  1  0  0  0  0  0  0
  -30.6040  -15.5690   20.7870 N   0  0  0  0  0  0  0  0  0  0  0  0
  -25.6400  -14.0710   20.2990 C   0  0  0  0  0  0  0  0  0  0  0  0
  -24.5560  -13.3360   20.6950 C   0  0  0  0  0  0  0  0  0  0  0  0
  -24.9610  -11.9670   20.6310 C   0  0  0  0  0  0  0  0  0  0  0  0
  -26.6410  -13.1510   20.0240 N   0  0  0  0  0  0  0  0  0  0  0  0
  -26.2370  -11.8800   20.2800 N   0  0  0  0  0  0  0  0  0  0  0  0
  -24.1920  -10.7320   20.8290 C   0  0  0  0  0  0  0  0  0  0  0  0
  -24.5770   -9.7650   21.7830 C   0  0  0  0  0  3  0  0  0  0  0  0
  -23.8090   -8.5960   21.9680 C   0  0  0  0  0  3  0  0  0  0  0  0
  -22.6400   -8.3850   21.1980 C   0  0  0  0  0  0  0  0  0  0  0  0
  -22.2730   -9.3410   20.2340 C   0  0  0  0  0  3  0  0  0  0  0  0
  -23.0410  -10.5020   20.0480 C   0  0  0  0  0  3  0  0  0  0  0  0
  -21.8480   -7.2660   21.2900 O   0  0  0  0  0  0  0  0  0  0  0  0
  -21.7070   -6.5790   22.4690 C   0  0  0  0  0  0  0  0  0  0  0  0
  -21.2290   -7.2040   23.6430 C   0  0  0  0  0  3  0  0  0  0  0  0
  -21.0350   -6.4470   24.8140 C   0  0  0  0  0  3  0  0  0  0  0  0
  -21.3060   -5.0650   24.8140 C   0  0  0  0  0  0  0  0  0  0  0  0
  -21.7740   -4.4400   23.6450 C   0  0  0  0  0  3  0  0  0  0  0  0
  -21.9710   -5.1950   22.4750 C   0  0  0  0  0  0  0  0  0  0  0  0
  -22.4020   -4.5840   21.3460 F   0  0  0  0  0  0  0  0  0  0  0  0
  -21.1130   -4.3340   25.9370 F   0  0  0  0  0  0  0  0  0  0  0  0
  -23.1910  -13.8670   21.0230 C   0  0  0  0  0  0  0  0  0  0  0  0
  -22.4770  -13.2000   21.9240 N   0  0  0  0  0  0  0  0  0  0  0  0
  -22.7680  -14.9040   20.5170 O   0  0  0  0  0  0  0  0  0  0  0  0
  -22.8330  -12.3590   22.3520 H   0  0  0  0  0  0  0  0  0  0  0  0
  -21.5610  -13.5340   22.1890 H   0  0  0  0  0  0  0  0  0  0  0  0
  -25.8540  -15.4360   20.1360 N   0  0  0  0  0  0  0  0  0  0  0  0
  -25.1210  -16.1200   20.2930 H   0  0  0  0  0  0  0  0  0  0  0  0
  -26.7210  -15.8520   19.8200 H   0  0  0  0  0  0  0  0  0  0  0  0
  -29.8390  -23.0870   17.9550 C   0  0  0  0  0  1  0  0  0  0  0  0
  -29.3370  -22.9890   19.4090 C   0  0  0  0  0  3  0  0  0  0  0  0
  -28.3580  -24.1690   19.8100 C   0  0  0  0  0  0  0  0  0  0  0  0
  -27.6380  -24.0750   20.8090 O   0  0  0  0  0  0  0  0  0  0  0  0
  -28.2890  -25.4770   18.9560 C   0  0  0  0  0  2  0  0  0  0  0  0
  -28.1940  -26.6970   19.7370 O   0  0  0  0  0  0  0  0  0  0  0  0
  -24.5950  -31.8060   23.1770 C   0  0  0  0  0  0  0  0  0  0  0  0
  -27.0290  -27.4440   19.7790 C   0  0  0  0  0  0  0  0  0  0  0  0
  -23.3030  -30.5110   21.5130 C   0  0  0  0  0  3  0  0  0  0  0  0
  -24.6700  -29.0130   19.9610 C   0  0  0  0  0  0  0  0  0  0  0  0
  -25.8290  -30.8180   21.2460 C   0  0  0  0  0  2  0  0  0  0  0  0
  -25.8600  -29.4790   20.5320 C   0  0  0  0  0  0  0  0  0  0  0  0
  -27.0370  -28.6980   20.4440 C   0  0  0  0  0  3  0  0  0  0  0  0
  -25.8140  -26.9990   19.2090 C   0  0  0  0  0  3  0  0  0  0  0  0
  -24.6430  -27.7730   19.3000 C   0  0  0  0  0  3  0  0  0  0  0  0
  -23.4490  -29.8970   20.0950 C   0  0  0  0  0  2  0  0  0  0  0  0
  -24.5960  -31.0590   22.0370 N   0  0  0  0  0  0  0  0  0  0  0  0
  -23.5370  -32.0700   23.7680 O   0  0  0  0  0  0  0  0  0  0  0  0
  -22.6660  -29.4560   22.4440 C   0  0  0  0  0  0  0  0  0  0  0  0
  -21.3410  -29.2680   22.3200 N   0  0  0  0  0  0  0  0  0  0  0  0
  -23.3590  -28.8120   23.2340 O   0  0  0  0  0  0  0  0  0  0  0  0
  -20.8380  -29.8450   21.6590 H   0  0  0  0  0  0  0  0  0  0  0  0
  -17.9990  -27.9680   22.7470 C   0  0  0  0  0  0  0  0  0  0  0  0
  -20.5420  -28.2990   23.0670 C   0  0  0  0  0  3  0  0  0  0  0  0
  -20.6950  -26.8760   22.4830 C   0  0  0  0  0  2  0  0  0  0  0  0
  -19.6230  -26.5300   21.4430 C   0  0  0  0  0  2  0  0  0  0  0  0
  -18.2260  -26.6310   22.0620 C   0  0  0  0  0  2  0  0  0  0  0  0
  -19.0860  -28.7570   23.2050 C   0  0  0  0  0  0  0  0  0  0  0  0
  -18.8210  -30.0080   23.8050 C   0  0  0  0  0  3  0  0  0  0  0  0
  -17.5000  -30.4740   23.9440 C   0  0  0  0  0  3  0  0  0  0  0  0
  -16.4270  -29.6830   23.5010 C   0  0  0  0  0  3  0  0  0  0  0  0
  -16.6760  -28.4300   22.9110 C   0  0  0  0  0  3  0  0  0  0  0  0
  -25.9130  -32.3860   23.7780 C   0  0  0  0  0  3  0  0  0  0  0  0
  -25.6400  -33.7680   24.1950 N   0  0  0  0  0  0  0  0  0  0  0  0
  -25.9800  -34.8570   23.4940 C   0  0  0  0  0  0  0  0  0  0  0  0
  -26.6270  -34.8020   22.4440 O   0  0  0  0  0  0  0  0  0  0  0  0
  -25.0760  -33.8870   25.0230 H   0  0  0  0  0  0  0  0  0  0  0  0
  -24.2770  -36.6940   23.2830 C   0  0  0  0  0  1  0  0  0  0  0  0
  -25.5260  -36.2230   24.0440 C   0  0  0  0  0  3  0  0  0  0  0  0
  -27.6950  -37.0110   24.8800 C   0  0  0  0  0  1  0  0  0  0  0  0
  -26.5750  -37.2630   23.9760 N   0  0  0  0  0  0  0  0  0  0  0  0
  -26.1890  -38.1770   24.1950 H   0  0  0  0  0  0  0  0  0  0  0  0
  -26.4700  -31.5400   24.9890 C   0  0  1  0  0  0  0  0  0  0  0  0
  -25.4200  -31.2550   26.0870 C   0  0  0  0  0  1  0  0  0  0  0  0
  -27.0130  -30.1800   24.4920 C   0  0  0  0  0  1  0  0  0  0  0  0
  -27.6580  -32.2800   25.6490 C   0  0  0  0  0  1  0  0  0  0  0  0
  1  8  1  0
  2  1  1  0
  3  6  1  0
  4  6  2  0
  5  8  2  0
  5  7  1  0
  6  9  1  0
  7  3  2  0
  8  4  1  0
 10  7  1  0
 10 20  1  0
 11 20  1  0
 12 17  1  0
 13 14  1  0
 13 12  1  0
 15 14  1  0
 15 24  1  0
 15 16  1  0
 17 11  1  0
 17 16  1  0
 18 11  2  0
 20 19  1  0
 21 22  2  0
 22 41  1  0
 23 22  1  0
 23 26  1  0
 24 25  1  0
 24 21  1  0
 25 23  2  0
 26 27  1  0
 27 28  2  0
 29 32  1  0
 29 28  1  0
 30 29  2  0
 31 30  1  0
 31 26  2  0
 32 33  1  0
 33 38  2  0
 33 34  1  0
 34 35  2  0
 36 35  1  0
 36 40  1  0
 37 36  2  0
 38 37  1  0
 39 38  1  0
 41 42  1  0
 42 45  1  0
 42 44  1  0
 43 41  2  0
 46 47  1  0
 46 21  1  0
 48 46  1  0
 50 49  1  0
 50  1  1  0
 50 51  1  0
 51 52  2  0
 53 54  1  0
 53 51  1  0
 54 56  1  0
 55 66  2  0
 56 61  1  0
 57 65  1  0
 57 67  1  0
 58 64  1  0
 58 60  1  0
 59 65  1  0
 60 59  1  0
 61 60  2  0
 62 63  1  0
 62 56  2  0
 63 58  2  0
 64 57  1  0
 65 55  1  0
 67 69  2  0
 68 67  1  0
 70 68  1  0
 71 80  2  0
 71 76  1  0
 72 68  1  0
 72 76  1  0
 73 72  1  0
 74 75  1  0
 74 73  1  0
 75 71  1  0
 76 77  2  0
 77 78  1  0
 79 78  2  0
 80 79  1  0
 81 55  1  0
 81 82  1  0
 81 91  1  0
 82 85  1  0
 83 87  1  0
 83 82  1  0
 84 83  2  0
 87 86  1  0
 89 87  1  0
 89 90  1  0
 89 88  1  0
 91 94  1  1
 91 92  1  0
 93 91  1  0
M  ISO  4  11 100  20 100  53 101  54 101
M  END
>  <TORSDO>  (15) 
F 21

>  <SCORE>  (15) 
-13.200

>  <name>  (15) 
14

>  <ligand_id>  (15) 
14

>  <original_smiles>  (15) 
[H]c1c([H])c([H])c2c(c1[H])C([H])([H])C([H])([H])C([H])([H])C2([H])N([H])C(=O)C1([H])N(C(=O)C([H])(N([H])C(=O)C([H])(N([H])C([H])([H])[H])C([H])([H])[H])C(C([H])([H])[H])(C([H])([H])[H])C([H])([H])[H])C([H])([H])c2c([H])c(OC([H])([H])C(=O)C([H])(N([H])c3c([H])c(C([H])([H])[H])c([H])c(C([H])([H])N(C(=O)N4C([H])([H])C([H])([H])C([H])([H])C([H])(n5nc(-c6c([H])c([H])c(Oc7c([H])c([H])c(F)c([H])c7F)c([H])c6[H])c(C(=O)N([H])[H])c5N([H])[H])C4([H])[H])C([H])([H])[H])c3[H])C([H])([H])[H])c([H])c([H])c2C1([H])[H]

>  <smiles>  (15) 
[H]c1c([H])c([H])c2c(c1[H])C([H])([H])C([H])([H])C([H])([H])C2([H])N([H])C(=O)C1([H])N(C(=O)C([H])(N([H])C(=O)C([H])(N([H])C([H])([H])[H])C([H])([H])[H])C(C([H])([H])[H])(C([H])([H])[H])C([H])([H])[H])C([H])([H])c2c([H])c(OC([H])([H])C(=O)C([H])(N([H])c3c([H])c(C([H])([H])[H])c([H])c(C([H])([H])N(C(=O)N4C([H])([H])C([H])([H])C([H])([H])C([H])(n5nc(-c6c([H])c([H])c(Oc7c([H])c([H])c(F)c([H])c7F)c([H])c6[H])c(C(=O)N([H])[H])c5N([H])[H])C4([H])[H])C([H])([H])[H])c3[H])C([H])([H])[H])c([H])c([H])c2C1([H])[H]

$$$$
15:0:0
     RDKit          3D

 95103  0  0  1  0  0  0  0  0999 V2000
  -30.0740  -18.1760   20.7090 C   0  0  0  0  0  3  0  0  0  0  0  0
  -28.0490  -19.5160   20.6150 C   0  0  0  0  0  3  0  0  0  0  0  0
  -29.4240  -17.0420   20.1270 C   0  0  0  0  0  0  0  0  0  0  0  0
  -28.0810  -17.2460   19.6720 C   0  0  0  0  0  0  0  0  0  0  0  0
  -27.3880  -18.4370   20.0050 C   0  0  0  0  0  0  0  0  0  0  0  0
  -29.4240  -19.4370   20.8940 C   0  0  0  0  0  0  0  0  0  0  0  0
  -27.3810  -16.3010   18.6850 C   0  0  0  0  0  1  0  0  0  0  0  0
  -26.0460  -18.6080   19.6630 N   0  0  0  0  0  0  0  0  0  0  0  0
  -25.5100  -19.3090   20.1640 H   0  0  0  0  0  0  0  0  0  0  0  0
  -25.5010  -17.7800   19.4550 H   0  0  0  0  0  0  0  0  0  0  0  0
  -30.2330  -15.8210   19.7030 C   0  0  0  0  0  0  0  0  0  0  0  0
  -30.6570  -15.8210   18.5050 N   0  0  0  0  0  0  0  0  0  0  0  0
  -30.3330  -16.6500   18.0230 H   0  0  0  0  0  0  0  0  0  0  0  0
  -30.7000  -14.6710   20.6650 C   0  0  0  0  0  0  0  0  0  0  0  0
  -30.4490  -12.4390   19.6570 C   0  0  0  0  0  2  0  0  0  0  0  0
  -29.5490  -12.5400   18.4090 C   0  0  0  0  0  2  0  0  0  0  0  0
  -28.0550  -12.4460   18.7840 C   0  0  0  0  0  2  0  0  0  0  0  0
  -27.6590  -13.2920   20.0280 C   0  0  0  0  0  3  0  0  0  0  0  0
  -28.6940  -13.1940   21.1630 C   0  0  0  0  0  2  0  0  0  0  0  0
  -30.0110  -13.4920   20.5850 N   0  0  0  0  0  0  0  0  0  0  0  0
  -31.9220  -14.6710   20.8190 O   0  0  0  0  0  0  0  0  0  0  0  0
  -25.2320  -13.8810   20.6510 C   0  0  0  0  0  0  0  0  0  0  0  0
  -24.1520  -13.1010   20.9470 C   0  0  0  0  0  0  0  0  0  0  0  0
  -24.6250  -11.7540   20.9480 C   0  0  0  0  0  0  0  0  0  0  0  0
  -26.2950  -13.0080   20.4660 N   0  0  0  0  0  0  0  0  0  0  0  0
  -25.9320  -11.7240   20.7130 N   0  0  0  0  0  0  0  0  0  0  0  0
  -23.9000  -10.4880   21.1030 C   0  0  0  0  0  0  0  0  0  0  0  0
  -24.2750   -9.5400   22.0790 C   0  0  0  0  0  3  0  0  0  0  0  0
  -23.5480   -8.3390   22.2260 C   0  0  0  0  0  3  0  0  0  0  0  0
  -22.4340   -8.0780   21.3960 C   0  0  0  0  0  0  0  0  0  0  0  0
  -22.0790   -9.0150   20.4090 C   0  0  0  0  0  3  0  0  0  0  0  0
  -22.8070  -10.2060   20.2610 C   0  0  0  0  0  3  0  0  0  0  0  0
  -21.6860   -6.9280   21.4480 O   0  0  0  0  0  0  0  0  0  0  0  0
  -21.5550   -6.2090   22.6100 C   0  0  0  0  0  0  0  0  0  0  0  0
  -21.0060   -6.7770   23.7800 C   0  0  0  0  0  3  0  0  0  0  0  0
  -20.8230   -5.9820   24.9290 C   0  0  0  0  0  3  0  0  0  0  0  0
  -21.1800   -4.6200   24.9080 C   0  0  0  0  0  0  0  0  0  0  0  0
  -21.7230   -4.0520   23.7430 C   0  0  0  0  0  3  0  0  0  0  0  0
  -21.9080   -4.8440   22.5960 C   0  0  0  0  0  0  0  0  0  0  0  0
  -22.4110   -4.2870   21.4690 F   0  0  0  0  0  0  0  0  0  0  0  0
  -20.9980   -3.8540   26.0090 F   0  0  0  0  0  0  0  0  0  0  0  0
  -22.7370  -13.5700   21.1340 C   0  0  0  0  0  0  0  0  0  0  0  0
  -21.9650  -12.8740   21.9600 N   0  0  0  0  0  0  0  0  0  0  0  0
  -22.3250  -14.5900   20.5840 O   0  0  0  0  0  0  0  0  0  0  0  0
  -22.3130  -12.0520   22.4300 H   0  0  0  0  0  0  0  0  0  0  0  0
  -21.0150  -13.1700   22.1290 H   0  0  0  0  0  0  0  0  0  0  0  0
  -25.3870  -15.2570   20.5140 N   0  0  0  0  0  0  0  0  0  0  0  0
  -24.6070  -15.8900   20.6480 H   0  0  0  0  0  0  0  0  0  0  0  0
  -26.2610  -15.7340   20.3340 H   0  0  0  0  0  0  0  0  0  0  0  0
  -30.1570  -20.5530   21.2980 O   0  0  0  0  0  0  0  0  0  0  0  0
  -29.5280  -21.8220   21.6410 C   0  0  0  0  0  3  0  0  0  0  0  0
  -29.3010  -22.8710   20.4930 C   0  0  0  0  0  3  0  0  0  0  0  0
  -28.9230  -24.3320   20.9620 C   0  0  0  0  0  3  0  0  0  0  0  0
  -28.7360  -25.4070   19.8330 C   0  0  0  0  0  3  0  0  0  0  0  0
  -28.5890  -26.7830   20.3000 O   0  0  0  0  0  0  0  0  0  0  0  0
  -24.6360  -31.9630   23.2590 C   0  0  0  0  0  0  0  0  0  0  0  0
  -27.3900  -27.4940   20.2450 C   0  0  0  0  0  0  0  0  0  0  0  0
  -23.4770  -30.5310   21.6120 C   0  0  0  0  0  3  0  0  0  0  0  0
  -24.9720  -29.0060   20.2130 C   0  0  0  0  0  0  0  0  0  0  0  0
  -26.0020  -30.9180   21.4460 C   0  0  0  0  0  2  0  0  0  0  0  0
  -26.1180  -29.5400   20.8140 C   0  0  0  0  0  0  0  0  0  0  0  0
  -27.3260  -28.7950   20.8210 C   0  0  0  0  0  3  0  0  0  0  0  0
  -26.2150  -26.9880   19.6420 C   0  0  0  0  0  3  0  0  0  0  0  0
  -25.0190  -27.7320   19.6230 C   0  0  0  0  0  3  0  0  0  0  0  0
  -23.7160  -29.8500   20.2390 C   0  0  0  0  0  2  0  0  0  0  0  0
  -24.7220  -31.1560   22.1650 N   0  0  0  0  0  0  0  0  0  0  0  0
  -23.5420  -32.2220   23.7820 O   0  0  0  0  0  0  0  0  0  0  0  0
  -22.8270  -29.5040   22.5680 C   0  0  0  0  0  0  0  0  0  0  0  0
  -21.5050  -29.3070   22.4300 N   0  0  0  0  0  0  0  0  0  0  0  0
  -23.5100  -28.8910   23.3910 O   0  0  0  0  0  0  0  0  0  0  0  0
  -21.0090  -29.8600   21.7470 H   0  0  0  0  0  0  0  0  0  0  0  0
  -18.1390  -28.0710   22.9000 C   0  0  0  0  0  0  0  0  0  0  0  0
  -20.6920  -28.3570   23.1910 C   0  0  0  0  0  3  0  0  0  0  0  0
  -20.8160  -26.9280   22.6150 C   0  0  0  0  0  2  0  0  0  0  0  0
  -19.7240  -26.5980   21.5910 C   0  0  0  0  0  2  0  0  0  0  0  0
  -18.3390  -26.7210   22.2290 C   0  0  0  0  0  2  0  0  0  0  0  0
  -19.2460  -28.8460   23.3370 C   0  0  0  0  0  0  0  0  0  0  0  0
  -19.0080  -30.1070   23.9240 C   0  0  0  0  0  3  0  0  0  0  0  0
  -17.6960  -30.5930   24.0780 C   0  0  0  0  0  3  0  0  0  0  0  0
  -16.6040  -29.8140   23.6570 C   0  0  0  0  0  3  0  0  0  0  0  0
  -16.8260  -28.5540   23.0750 C   0  0  0  0  0  3  0  0  0  0  0  0
  -25.9000  -32.6230   23.8930 C   0  0  0  0  0  3  0  0  0  0  0  0
  -25.5670  -34.0200   24.1990 N   0  0  0  0  0  0  0  0  0  0  0  0
  -25.9030  -35.0670   23.4350 C   0  0  0  0  0  0  0  0  0  0  0  0
  -26.5980  -34.9610   22.4200 O   0  0  0  0  0  0  0  0  0  0  0  0
  -24.9540  -34.1770   24.9850 H   0  0  0  0  0  0  0  0  0  0  0  0
  -24.1700  -36.8400   23.0100 C   0  0  0  0  0  1  0  0  0  0  0  0
  -25.3890  -36.4550   23.8640 C   0  0  0  0  0  3  0  0  0  0  0  0
  -27.4860  -37.3720   24.7540 C   0  0  0  0  0  1  0  0  0  0  0  0
  -26.4160  -37.5180   23.7710 N   0  0  0  0  0  0  0  0  0  0  0  0
  -25.9950  -38.4360   23.8950 H   0  0  0  0  0  0  0  0  0  0  0  0
  -26.4050  -31.8750   25.1880 C   0  0  1  0  0  0  0  0  0  0  0  0
  -25.2970  -31.6320   26.2390 C   0  0  0  0  0  1  0  0  0  0  0  0
  -27.0160  -30.5040   24.8190 C   0  0  0  0  0  1  0  0  0  0  0  0
  -27.5320  -32.6940   25.8590 C   0  0  0  0  0  1  0  0  0  0  0  0
  1  6  1  0
  2  6  2  0
  3  1  2  0
  4  5  2  0
  4  3  1  0
  5  2  1  0
  6 50  1  0
  7  4  1  0
  8  5  1  0
  8  9  1  0
 10  8  1  0
 11  3  1  0
 11 14  1  0
 12 11  2  0
 13 12  1  0
 14 21  2  0
 15 20  1  0
 16 17  1  0
 16 15  1  0
 18 17  1  0
 18 25  1  0
 18 19  1  0
 20 14  1  0
 20 19  1  0
 22 23  2  0
 23 24  1  0
 23 42  1  0
 24 27  1  0
 25 22  1  0
 25 26  1  0
 26 24  2  0
 27 28  1  0
 28 29  2  0
 30 33  1  0
 30 29  1  0
 31 30  2  0
 32 31  1  0
 32 27  2  0
 33 34  1  0
 34 35  1  0
 35 36  2  0
 37 36  1  0
 37 41  1  0
 38 37  2  0
 39 34  2  0
 39 38  1  0
 40 39  1  0
 42 43  1  0
 43 46  1  0
 43 45  1  0
 44 42  2  0
 47 48  1  0
 47 22  1  0
 49 47  1  0
 50 51  1  0
 52 53  1  0
 52 51  2  0
 54 55  1  0
 54 53  2  0
 56 67  2  0
 57 55  1  0
 57 62  1  0
 58 66  1  0
 58 68  1  0
 59 65  1  0
 59 61  1  0
 60 66  1  0
 61 62  2  0
 61 60  1  0
 63 57  2  0
 64 63  1  0
 64 59  2  0
 65 58  1  0
 66 56  1  0
 68 70  2  0
 69 68  1  0
 71 69  1  0
 72 81  2  0
 72 77  1  0
 73 69  1  0
 73 77  1  0
 74 73  1  0
 75 76  1  0
 75 74  1  0
 76 72  1  0
 77 78  2  0
 78 79  1  0
 80 79  2  0
 81 80  1  0
 82 56  1  0
 82 83  1  0
 82 92  1  0
 83 86  1  0
 84 88  1  0
 84 83  1  0
 85 84  2  0
 88 87  1  0
 90 88  1  0
 90 91  1  0
 90 89  1  0
 92 95  1  1
 92 93  1  0
 94 92  1  0
M  ISO  4  11 100  14 100  54 101  55 101
M  END
>  <TORSDO>  (16) 
F 23

>  <SCORE>  (16) 
-12.731

>  <name>  (16) 
15

>  <ligand_id>  (16) 
15

>  <original_smiles>  (16) 
[H]N=C(C(=O)N1C([H])([H])C([H])([H])C([H])([H])C([H])(n2nc(-c3c([H])c([H])c(Oc4c([H])c([H])c(F)c([H])c4F)c([H])c3[H])c(C(=O)N([H])[H])c2N([H])[H])C1([H])[H])c1c([H])c(OC([H])([H])C([H])([H])C([H])([H])C([H])([H])Oc2c([H])c([H])c3c(c2[H])C([H])([H])N(C(=O)C([H])(N([H])C(=O)C([H])(N([H])C([H])([H])[H])C([H])([H])[H])C(C([H])([H])[H])(C([H])([H])[H])C([H])([H])[H])C([H])(C(=O)N([H])C2([H])c4c([H])c([H])c([H])c([H])c4C([H])([H])C([H])([H])C2([H])[H])C3([H])[H])c([H])c(N([H])[H])c1C([H])([H])[H]

>  <smiles>  (16) 
[H]N=C(C(=O)N1C([H])([H])C([H])([H])C([H])([H])C([H])(n2nc(-c3c([H])c([H])c(Oc4c([H])c([H])c(F)c([H])c4F)c([H])c3[H])c(C(=O)N([H])[H])c2N([H])[H])C1([H])[H])c1c([H])c(OC([H])([H])C([H])([H])C([H])([H])C([H])([H])Oc2c([H])c([H])c3c(c2[H])C([H])([H])N(C(=O)C([H])(N([H])C(=O)C([H])(N([H])C([H])([H])[H])C([H])([H])[H])C(C([H])([H])[H])(C([H])([H])[H])C([H])([H])[H])C([H])(C(=O)N([H])C2([H])c4c([H])c([H])c([H])c([H])c4C([H])([H])C([H])([H])C2([H])[H])C3([H])[H])c([H])c(N([H])[H])c1C([H])([H])[H]

$$$$
16:0:0
     RDKit          3D

 96104  0  0  1  0  0  0  0  0999 V2000
  -29.4750  -18.3500   20.4520 C   0  0  0  0  0  3  0  0  0  0  0  0
  -28.6740  -19.3770   18.3890 C   0  0  0  0  0  3  0  0  0  0  0  0
  -29.5310  -17.1060   18.3670 C   0  0  0  0  0  3  0  0  0  0  0  0
  -28.9150  -19.4710   19.7730 C   0  0  0  0  0  0  0  0  0  0  0  0
  -29.7800  -17.1260   19.7650 C   0  0  0  0  0  0  0  0  0  0  0  0
  -28.9780  -18.2090   17.6740 C   0  0  0  0  0  0  0  0  0  0  0  0
  -30.8210  -14.8740   19.6920 C   0  0  0  0  0  0  0  0  0  0  0  0
  -30.2380  -12.8930   18.3070 C   0  0  0  0  0  2  0  0  0  0  0  0
  -29.1760  -13.2530   17.2470 C   0  0  0  0  0  2  0  0  0  0  0  0
  -27.7520  -13.1630   17.8390 C   0  0  0  0  0  2  0  0  0  0  0  0
  -27.6200  -13.8430   19.2290 C   0  0  0  0  0  3  0  0  0  0  0  0
  -28.7830  -13.4350   20.1570 C   0  0  0  0  0  2  0  0  0  0  0  0
  -30.0390  -13.7730   19.4720 N   0  0  0  0  0  0  0  0  0  0  0  0
  -31.8980  -15.0290   19.1030 O   0  0  0  0  0  0  0  0  0  0  0  0
  -30.2760  -15.9070   20.4200 N   0  0  0  0  0  0  0  0  0  0  0  0
  -25.3420  -14.4730   20.2440 C   0  0  0  0  0  0  0  0  0  0  0  0
  -24.2910  -13.7110   20.6790 C   0  0  0  0  0  0  0  0  0  0  0  0
  -24.6940  -12.3510   20.5100 C   0  0  0  0  0  0  0  0  0  0  0  0
  -26.3200  -13.5770   19.8420 N   0  0  0  0  0  0  0  0  0  0  0  0
  -25.9420  -12.2920   20.0610 N   0  0  0  0  0  0  0  0  0  0  0  0
  -23.9460  -11.1020   20.6960 C   0  0  0  0  0  0  0  0  0  0  0  0
  -24.4200  -10.0750   21.5390 C   0  0  0  0  0  3  0  0  0  0  0  0
  -23.6730   -8.8900   21.7160 C   0  0  0  0  0  3  0  0  0  0  0  0
  -22.4350   -8.7260   21.0500 C   0  0  0  0  0  0  0  0  0  0  0  0
  -21.9770   -9.7440   20.1960 C   0  0  0  0  0  3  0  0  0  0  0  0
  -22.7250  -10.9190   20.0160 C   0  0  0  0  0  3  0  0  0  0  0  0
  -21.6530   -7.5990   21.1420 O   0  0  0  0  0  0  0  0  0  0  0  0
  -21.6450   -6.8200   22.2700 C   0  0  0  0  0  0  0  0  0  0  0  0
  -21.3210   -7.3490   23.5380 C   0  0  0  0  0  3  0  0  0  0  0  0
  -21.2550   -6.4980   24.6590 C   0  0  0  0  0  3  0  0  0  0  0  0
  -21.5030   -5.1200   24.5150 C   0  0  0  0  0  0  0  0  0  0  0  0
  -21.8210   -4.5910   23.2510 C   0  0  0  0  0  3  0  0  0  0  0  0
  -21.8890   -5.4390   22.1320 C   0  0  0  0  0  0  0  0  0  0  0  0
  -22.1740   -4.9210   20.9130 F   0  0  0  0  0  0  0  0  0  0  0  0
  -21.4340   -4.3000   25.5890 F   0  0  0  0  0  0  0  0  0  0  0  0
  -22.9520  -14.2130   21.1370 C   0  0  0  0  0  0  0  0  0  0  0  0
  -22.3030  -13.4910   22.0460 N   0  0  0  0  0  0  0  0  0  0  0  0
  -22.4930  -15.2770   20.7260 O   0  0  0  0  0  0  0  0  0  0  0  0
  -22.6890  -12.6290   22.4000 H   0  0  0  0  0  0  0  0  0  0  0  0
  -21.4080  -13.8080   22.3900 H   0  0  0  0  0  0  0  0  0  0  0  0
  -25.5410  -15.8460   20.1390 N   0  0  0  0  0  0  0  0  0  0  0  0
  -24.8230  -16.5180   20.3880 H   0  0  0  0  0  0  0  0  0  0  0  0
  -26.3830  -16.2800   19.7850 H   0  0  0  0  0  0  0  0  0  0  0  0
  -31.6860  -16.5470   22.4290 C   0  0  0  0  0  1  0  0  0  0  0  0
  -29.1600  -16.1770   22.6840 C   0  0  0  0  0  1  0  0  0  0  0  0
  -30.4370  -15.8120   21.8970 C   0  0  0  0  0  3  0  0  0  0  0  0
  -29.0740  -21.8060   20.6470 C   0  0  0  0  0  0  0  0  0  0  0  0
  -28.4160  -20.6490   20.4200 N   0  0  0  0  0  0  0  0  0  0  0  0
  -30.2670  -21.8480   20.9530 O   0  0  0  0  0  0  0  0  0  0  0  0
  -27.4270  -20.7980   20.2760 H   0  0  0  0  0  0  0  0  0  0  0  0
  -28.2380  -23.1110   20.5120 C   0  0  0  0  0  2  0  0  0  0  0  0
  -28.7290  -24.4280   21.2080 C   0  0  0  0  0  2  0  0  0  0  0  0
  -28.6760  -25.6900   20.2850 C   0  0  0  0  0  2  0  0  0  0  0  0
  -28.4940  -26.9620   20.9620 O   0  0  0  0  0  0  0  0  0  0  0  0
  -24.5750  -32.3520   23.5740 C   0  0  0  0  0  0  0  0  0  0  0  0
  -27.3130  -27.6900   20.8570 C   0  0  0  0  0  0  0  0  0  0  0  0
  -23.4320  -30.8620   21.9690 C   0  0  0  0  0  3  0  0  0  0  0  0
  -24.9300  -29.2410   20.6950 C   0  0  0  0  0  0  0  0  0  0  0  0
  -25.9710  -31.1890   21.8590 C   0  0  0  0  0  2  0  0  0  0  0  0
  -26.0720  -29.7810   21.2980 C   0  0  0  0  0  0  0  0  0  0  0  0
  -27.2630  -29.0150   21.3720 C   0  0  0  0  0  3  0  0  0  0  0  0
  -26.1350  -27.1720   20.2650 C   0  0  0  0  0  3  0  0  0  0  0  0
  -24.9600  -27.9370   20.1780 C   0  0  0  0  0  3  0  0  0  0  0  0
  -23.6940  -30.1070   20.6400 C   0  0  0  0  0  2  0  0  0  0  0  0
  -24.6760  -31.4870   22.5240 N   0  0  0  0  0  0  0  0  0  0  0  0
  -23.4730  -32.6580   24.0500 O   0  0  0  0  0  0  0  0  0  0  0  0
  -22.7360  -29.8970   22.9580 C   0  0  0  0  0  0  0  0  0  0  0  0
  -21.4420  -29.6280   22.7240 N   0  0  0  0  0  0  0  0  0  0  0  0
  -23.3620  -29.3900   23.8930 O   0  0  0  0  0  0  0  0  0  0  0  0
  -20.9970  -30.0910   21.9450 H   0  0  0  0  0  0  0  0  0  0  0  0
  -18.1200  -28.2180   22.9540 C   0  0  0  0  0  0  0  0  0  0  0  0
  -20.5970  -28.7200   23.5000 C   0  0  0  0  0  3  0  0  0  0  0  0
  -20.8710  -27.2450   23.1250 C   0  0  0  0  0  2  0  0  0  0  0  0
  -19.9360  -26.7150   22.0330 C   0  0  0  0  0  2  0  0  0  0  0  0
  -18.4760  -26.8180   22.4800 C   0  0  0  0  0  2  0  0  0  0  0  0
  -19.1180  -29.1160   23.4170 C   0  0  0  0  0  0  0  0  0  0  0  0
  -18.7380  -30.4170   23.8150 C   0  0  0  0  0  3  0  0  0  0  0  0
  -17.3910  -30.8240   23.7550 C   0  0  0  0  0  3  0  0  0  0  0  0
  -16.4070  -29.9260   23.3100 C   0  0  0  0  0  3  0  0  0  0  0  0
  -16.7700  -28.6260   22.9160 C   0  0  0  0  0  3  0  0  0  0  0  0
  -25.8380  -33.0170   24.2080 C   0  0  0  0  0  3  0  0  0  0  0  0
  -25.5300  -34.4380   24.4130 N   0  0  0  0  0  0  0  0  0  0  0  0
  -25.9020  -35.4250   23.5870 C   0  0  0  0  0  0  0  0  0  0  0  0
  -26.6110  -35.2340   22.5950 O   0  0  0  0  0  0  0  0  0  0  0  0
  -24.9070  -34.6610   25.1750 H   0  0  0  0  0  0  0  0  0  0  0  0
  -24.2030  -37.1940   23.0300 C   0  0  0  0  0  1  0  0  0  0  0  0
  -25.4120  -36.8490   23.9130 C   0  0  0  0  0  3  0  0  0  0  0  0
  -27.5280  -37.7820   24.7400 C   0  0  0  0  0  1  0  0  0  0  0  0
  -26.4570  -37.8830   23.7530 N   0  0  0  0  0  0  0  0  0  0  0  0
  -26.0540  -38.8140   23.8180 H   0  0  0  0  0  0  0  0  0  0  0  0
  -26.2810  -32.3390   25.5630 C   0  0  1  0  0  0  0  0  0  0  0  0
  -25.1290  -32.1650   26.5800 C   0  0  0  0  0  1  0  0  0  0  0  0
  -26.8900  -30.9420   25.3010 C   0  0  0  0  0  1  0  0  0  0  0  0
  -27.3890  -33.1870   26.2320 C   0  0  0  0  0  1  0  0  0  0  0  0
  -28.7460  -16.9770   15.6200 C   0  0  0  0  0  1  0  0  0  0  0  0
  -28.6870  -18.2110   16.3260 O   0  0  0  0  0  0  0  0  0  0  0  0
  2  4  2  0
  3  5  1  0
  4 48  1  0
  4  1  1  0
  5 15  1  0
  5  1  2  0
  6  3  2  0
  6  2  1  0
  7 15  1  0
  8 13  1  0
  9 10  1  0
  9  8  1  0
 11 10  1  0
 11 19  1  0
 11 12  1  0
 13  7  1  0
 13 12  1  0
 14  7  2  0
 15 46  1  0
 16 17  2  0
 17 36  1  0
 18 17  1  0
 18 21  1  0
 19 20  1  0
 19 16  1  0
 20 18  2  0
 21 22  1  0
 22 23  2  0
 24 27  1  0
 24 23  1  0
 25 24  2  0
 26 25  1  0
 26 21  2  0
 27 28  1  0
 28 29  1  0
 29 30  2  0
 31 30  1  0
 31 35  1  0
 32 31  2  0
 33 28  2  0
 33 32  1  0
 34 33  1  0
 36 37  1  0
 37 40  1  0
 37 39  1  0
 38 36  2  0
 41 16  1  0
 41 42  1  0
 43 41  1  0
 46 44  1  0
 46 45  1  0
 47 49  2  0
 48 47  1  0
 50 48  1  0
 51 47  1  0
 51 52  1  0
 53 54  1  0
 53 52  1  0
 55 66  2  0
 56 54  1  0
 56 61  1  0
 57 65  1  0
 57 67  1  0
 58 60  1  0
 59 65  1  0
 60 61  2  0
 60 59  1  0
 62 56  2  0
 63 62  1  0
 63 58  2  0
 64 58  1  0
 64 57  1  0
 65 55  1  0
 67 69  2  0
 68 67  1  0
 70 68  1  0
 71 76  1  0
 72 68  1  0
 73 72  1  0
 74 75  1  0
 74 73  1  0
 75 71  1  0
 76 72  1  0
 76 77  2  0
 78 77  1  0
 79 78  2  0
 80 71  2  0
 80 79  1  0
 81 55  1  0
 81 82  1  0
 81 91  1  0
 82 85  1  0
 83 87  1  0
 83 82  1  0
 84 83  2  0
 87 86  1  0
 89 90  1  0
 89 87  1  0
 89 88  1  0
 91 94  1  1
 91 92  1  0
 93 91  1  0
 95 96  1  0
 96  6  1  0
M  ISO  4   7 100  15 100  53 101  54 101
M  END
>  <TORSDO>  (17) 
F 22

>  <SCORE>  (17) 
-1.948

>  <name>  (17) 
16

>  <ligand_id>  (17) 
16

>  <original_smiles>  (17) 
[H]c1c([H])c([H])c2c(c1[H])C([H])([H])C([H])([H])C([H])([H])C2([H])N([H])C(=O)C1([H])N(C(=O)C([H])(N([H])C(=O)C([H])(N([H])C([H])([H])[H])C([H])([H])[H])C(C([H])([H])[H])(C([H])([H])[H])C([H])([H])[H])C([H])([H])c2c([H])c(OC([H])([H])C([H])([H])C([H])([H])C(=O)N([H])c3c([H])c(OC([H])([H])[H])c([H])c(N(C(=O)N4C([H])([H])C([H])([H])C([H])([H])C([H])(n5nc(-c6c([H])c([H])c(Oc7c([H])c([H])c(F)c([H])c7F)c([H])c6[H])c(C(=O)N([H])[H])c5N([H])[H])C4([H])[H])C([H])(C([H])([H])[H])C([H])([H])[H])c3[H])c([H])c([H])c2C1([H])[H]

>  <smiles>  (17) 
[H]c1c([H])c([H])c2c(c1[H])C([H])([H])C([H])([H])C([H])([H])C2([H])N([H])C(=O)C1([H])N(C(=O)C([H])(N([H])C(=O)C([H])(N([H])C([H])([H])[H])C([H])([H])[H])C(C([H])([H])[H])(C([H])([H])[H])C([H])([H])[H])C([H])([H])c2c([H])c(OC([H])([H])C([H])([H])C([H])([H])C(=O)N([H])c3c([H])c(OC([H])([H])[H])c([H])c(N(C(=O)N4C([H])([H])C([H])([H])C([H])([H])C([H])(n5nc(-c6c([H])c([H])c(Oc7c([H])c([H])c(F)c([H])c7F)c([H])c6[H])c(C(=O)N([H])[H])c5N([H])[H])C4([H])[H])C([H])(C([H])([H])[H])C([H])([H])[H])c3[H])c([H])c([H])c2C1([H])[H]

$$$$
17:0:0
     RDKit          3D

 94103  0  0  1  0  0  0  0  0999 V2000
  -29.4360  -22.3380   22.0120 C   0  0  0  0  0  0  0  0  0  0  0  0
  -30.1030  -23.6900   22.2120 C   0  0  0  0  0  2  0  0  0  0  0  0
  -30.6160  -24.0060   20.8130 C   0  0  0  0  0  2  0  0  0  0  0  0
  -29.5700  -23.3290   19.9290 C   0  0  0  0  0  3  0  0  0  0  0  0
  -29.3480  -21.9780   20.7080 N   0  0  0  0  0  0  0  0  0  0  0  0
  -29.0490  -21.6800   22.9820 O   0  0  0  0  0  0  0  0  0  0  0  0
  -30.9130  -19.7990   20.4530 C   0  0  0  0  0  3  0  0  0  0  0  0
  -31.0690  -18.3420   20.4530 C   0  0  0  0  0  3  0  0  0  0  0  0
  -28.5790  -19.5320   20.4120 C   0  0  0  0  0  3  0  0  0  0  0  0
  -28.7090  -18.0890   20.3990 C   0  0  0  0  0  0  0  0  0  0  0  0
  -29.6460  -20.4850   20.4530 C   0  0  0  0  0  0  0  0  0  0  0  0
  -29.9770  -17.3990   20.4390 C   0  0  0  0  0  0  0  0  0  0  0  0
  -30.8180  -14.7810   19.9870 C   0  0  0  0  0  0  0  0  0  0  0  0
  -30.6090  -12.4800   18.9420 C   0  0  0  0  0  2  0  0  0  0  0  0
  -29.5780  -12.5340   17.7890 C   0  0  0  0  0  2  0  0  0  0  0  0
  -28.1420  -12.3400   18.3180 C   0  0  0  0  0  2  0  0  0  0  0  0
  -27.8570  -13.2090   19.5720 C   0  0  0  0  0  3  0  0  0  0  0  0
  -28.9930  -13.1000   20.6120 C   0  0  0  0  0  2  0  0  0  0  0  0
  -30.2350  -13.5170   19.9430 N   0  0  0  0  0  0  0  0  0  0  0  0
  -31.9680  -14.9100   19.5500 O   0  0  0  0  0  0  0  0  0  0  0  0
  -30.0090  -15.8640   20.3980 N   0  0  0  0  0  0  0  0  0  0  0  0
  -29.1600  -15.4780   20.7780 H   0  0  0  0  0  0  0  0  0  0  0  0
  -25.5470  -13.8140   20.5000 C   0  0  0  0  0  0  0  0  0  0  0  0
  -24.4930  -13.0530   20.9260 C   0  0  0  0  0  0  0  0  0  0  0  0
  -24.9170  -11.6940   20.8020 C   0  0  0  0  0  0  0  0  0  0  0  0
  -26.5470  -12.9230   20.1500 N   0  0  0  0  0  0  0  0  0  0  0  0
  -26.1790  -11.6390   20.3920 N   0  0  0  0  0  0  0  0  0  0  0  0
  -24.1700  -10.4440   20.9900 C   0  0  0  0  0  0  0  0  0  0  0  0
  -24.6070   -9.4520   21.8950 C   0  0  0  0  0  3  0  0  0  0  0  0
  -23.8600   -8.2670   22.0710 C   0  0  0  0  0  3  0  0  0  0  0  0
  -22.6630   -8.0660   21.3430 C   0  0  0  0  0  0  0  0  0  0  0  0
  -22.2460   -9.0460   20.4260 C   0  0  0  0  0  3  0  0  0  0  0  0
  -22.9930  -10.2220   20.2470 C   0  0  0  0  0  3  0  0  0  0  0  0
  -21.8870   -6.9360   21.4340 O   0  0  0  0  0  0  0  0  0  0  0  0
  -21.7860   -6.2230   22.6020 C   0  0  0  0  0  0  0  0  0  0  0  0
  -21.3700   -6.8260   23.8090 C   0  0  0  0  0  3  0  0  0  0  0  0
  -21.2120   -6.0430   24.9700 C   0  0  0  0  0  3  0  0  0  0  0  0
  -21.4590   -4.6570   24.9240 C   0  0  0  0  0  0  0  0  0  0  0  0
  -21.8680   -4.0540   23.7220 C   0  0  0  0  0  3  0  0  0  0  0  0
  -22.0280   -4.8340   22.5630 C   0  0  0  0  0  0  0  0  0  0  0  0
  -22.4010   -4.2450   21.4030 F   0  0  0  0  0  0  0  0  0  0  0  0
  -21.3000   -3.9030   26.0360 F   0  0  0  0  0  0  0  0  0  0  0  0
  -23.1350  -13.5560   21.3220 C   0  0  0  0  0  0  0  0  0  0  0  0
  -22.4620  -12.8560   22.2290 N   0  0  0  0  0  0  0  0  0  0  0  0
  -22.6810  -14.6030   20.8640 O   0  0  0  0  0  0  0  0  0  0  0  0
  -22.8430  -12.0090   22.6260 H   0  0  0  0  0  0  0  0  0  0  0  0
  -21.5540  -13.1740   22.5340 H   0  0  0  0  0  0  0  0  0  0  0  0
  -25.7260  -15.1830   20.3520 N   0  0  0  0  0  0  0  0  0  0  0  0
  -24.9770  -15.8400   20.5420 H   0  0  0  0  0  0  0  0  0  0  0  0
  -26.5290  -15.6150   19.9140 H   0  0  0  0  0  0  0  0  0  0  0  0
  -26.4280  -17.6120   19.2710 C   0  0  0  0  0  1  0  0  0  0  0  0
  -27.4060  -17.2810   20.4120 C   0  0  0  0  0  2  0  0  0  0  0  0
  -28.3510  -24.4830   19.7860 C   0  0  0  0  0  2  0  0  0  0  0  0
  -28.5350  -26.0220   19.6740 O   0  0  0  0  0  0  0  0  0  0  0  0
  -24.6180  -31.3390   22.9310 C   0  0  0  0  0  0  0  0  0  0  0  0
  -27.4190  -26.9280   19.6790 C   0  0  0  0  0  0  0  0  0  0  0  0
  -23.4890  -29.9840   21.2090 C   0  0  0  0  0  3  0  0  0  0  0  0
  -25.0110  -28.5530   19.7190 C   0  0  0  0  0  0  0  0  0  0  0  0
  -26.0280  -30.3750   21.0760 C   0  0  0  0  0  2  0  0  0  0  0  0
  -26.1650  -29.0240   20.3560 C   0  0  0  0  0  0  0  0  0  0  0  0
  -27.3700  -28.2300   20.3170 C   0  0  0  0  0  3  0  0  0  0  0  0
  -26.2320  -26.5530   19.0110 C   0  0  0  0  0  3  0  0  0  0  0  0
  -25.0550  -27.3310   19.0320 C   0  0  0  0  0  3  0  0  0  0  0  0
  -23.7460  -29.3920   19.7990 C   0  0  0  0  0  2  0  0  0  0  0  0
  -24.7300  -30.5850   21.7950 N   0  0  0  0  0  0  0  0  0  0  0  0
  -23.5180  -31.5480   23.4650 O   0  0  0  0  0  0  0  0  0  0  0  0
  -22.8490  -28.8980   22.1100 C   0  0  0  0  0  0  0  0  0  0  0  0
  -21.5250  -28.6950   21.9780 N   0  0  0  0  0  0  0  0  0  0  0  0
  -23.5450  -28.2440   22.8900 O   0  0  0  0  0  0  0  0  0  0  0  0
  -21.0190  -29.2780   21.3260 H   0  0  0  0  0  0  0  0  0  0  0  0
  -18.1770  -27.4000   22.4540 C   0  0  0  0  0  0  0  0  0  0  0  0
  -20.7360  -27.6880   22.6930 C   0  0  0  0  0  3  0  0  0  0  0  0
  -20.8500  -26.3050   22.0120 C   0  0  0  0  0  2  0  0  0  0  0  0
  -19.7330  -26.0370   20.9980 C   0  0  0  0  0  2  0  0  0  0  0  0
  -18.3630  -26.1080   21.6760 C   0  0  0  0  0  2  0  0  0  0  0  0
  -19.2900  -28.1500   22.9180 C   0  0  0  0  0  0  0  0  0  0  0  0
  -19.0600  -29.3600   23.6070 C   0  0  0  0  0  3  0  0  0  0  0  0
  -17.7500  -29.8210   23.8360 C   0  0  0  0  0  3  0  0  0  0  0  0
  -16.6510  -29.0680   23.3880 C   0  0  0  0  0  3  0  0  0  0  0  0
  -16.8660  -27.8590   22.7030 C   0  0  0  0  0  3  0  0  0  0  0  0
  -25.8650  -31.9920   23.6030 C   0  0  0  0  0  3  0  0  0  0  0  0
  -26.3950  -31.1780   24.8460 C   0  0  1  0  0  0  0  0  0  0  0  0
  -25.2970  -30.8400   25.8830 C   0  0  0  0  0  1  0  0  0  0  0  0
  -27.0400  -29.8460   24.3970 C   0  0  0  0  0  1  0  0  0  0  0  0
  -27.5020  -31.9830   25.5660 C   0  0  0  0  0  1  0  0  0  0  0  0
  -25.4920  -33.3580   24.0030 N   0  0  0  0  0  0  0  0  0  0  0  0
  -25.7820  -34.4640   23.3050 C   0  0  0  0  0  0  0  0  0  0  0  0
  -26.4560  -34.4450   22.2720 O   0  0  0  0  0  0  0  0  0  0  0  0
  -24.8870  -33.4430   24.8060 H   0  0  0  0  0  0  0  0  0  0  0  0
  -23.9770  -36.2010   23.0520 C   0  0  0  0  0  1  0  0  0  0  0  0
  -25.2390  -35.8060   23.8360 C   0  0  0  0  0  3  0  0  0  0  0  0
  -27.3400  -36.7390   24.7020 C   0  0  0  0  0  1  0  0  0  0  0  0
  -26.2250  -36.9070   23.7730 N   0  0  0  0  0  0  0  0  0  0  0  0
  -25.7810  -37.8000   23.9690 H   0  0  0  0  0  0  0  0  0  0  0  0
  1  2  1  0
  1  6  2  0
  3  2  1  0
  4 53  1  0
  4  5  1  0
  4  3  1  0
  5  1  1  0
  7  8  2  0
  7 11  1  0
  9 11  2  0
 10  9  1  0
 10 52  1  0
 10 12  2  0
 11  5  1  0
 12  8  1  0
 13 21  1  0
 14 19  1  0
 15 16  1  0
 15 14  1  0
 17 16  1  0
 17 26  1  0
 17 18  1  0
 19 13  1  0
 19 18  1  0
 20 13  2  0
 21 12  1  0
 21 22  1  0
 23 24  2  0
 24 43  1  0
 25 24  1  0
 25 28  1  0
 26 27  1  0
 26 23  1  0
 27 25  2  0
 28 29  1  0
 29 30  2  0
 31 34  1  0
 31 30  1  0
 32 31  2  0
 33 32  1  0
 33 28  2  0
 34 35  1  0
 35 36  1  0
 36 37  2  0
 38 37  1  0
 38 42  1  0
 39 38  2  0
 40 35  2  0
 40 39  1  0
 41 40  1  0
 43 44  1  0
 44 47  1  0
 44 46  1  0
 45 43  2  0
 48 23  1  0
 48 49  1  0
 50 48  1  0
 51 52  1  0
 54 56  1  0
 54 53  1  0
 55 66  2  0
 56 61  1  0
 57 65  1  0
 57 67  1  0
 58 64  1  0
 58 60  1  0
 59 65  1  0
 60 59  1  0
 61 60  2  0
 62 63  1  0
 62 56  2  0
 63 58  2  0
 64 57  1  0
 65 55  1  0
 67 69  2  0
 68 67  1  0
 70 68  1  0
 71 80  2  0
 71 76  1  0
 72 68  1  0
 72 76  1  0
 73 72  1  0
 74 75  1  0
 74 73  1  0
 75 71  1  0
 76 77  2  0
 77 78  1  0
 79 78  2  0
 80 79  1  0
 81 55  1  0
 81 86  1  0
 81 82  1  0
 82 85  1  1
 82 83  1  0
 84 82  1  0
 86 89  1  0
 87 91  1  0
 87 86  1  0
 88 87  2  0
 91 90  1  0
 93 91  1  0
 93 94  1  0
 93 92  1  0
M  ISO  4  13 100  21 100  53 101  54 101
M  END
>  <TORSDO>  (18) 
F 19

>  <SCORE>  (18) 
-13.051

>  <name>  (18) 
17

>  <ligand_id>  (18) 
17

>  <original_smiles>  (18) 
[H]c1c([H])c([H])c2c(c1[H])C([H])([H])C([H])([H])C([H])([H])C2([H])N([H])C(=O)C1([H])N(C(=O)C([H])(N([H])C(=O)C([H])(N([H])C([H])([H])[H])C([H])([H])[H])C(C([H])([H])[H])(C([H])([H])[H])C([H])([H])[H])C([H])([H])c2c([H])c(OC([H])([H])C3([H])N(c4c([H])c([H])c(N([H])C(=O)N5C([H])([H])C([H])([H])C([H])([H])C([H])(n6nc(-c7c([H])c([H])c(Oc8c([H])c([H])c(F)c([H])c8F)c([H])c7[H])c(C(=O)N([H])[H])c6N([H])[H])C5([H])[H])c(C([H])([H])C([H])([H])[H])c4[H])C(=O)C([H])([H])C3([H])[H])c([H])c([H])c2C1([H])[H]

>  <smiles>  (18) 
[H]c1c([H])c([H])c2c(c1[H])C([H])([H])C([H])([H])C([H])([H])C2([H])N([H])C(=O)C1([H])N(C(=O)C([H])(N([H])C(=O)C([H])(N([H])C([H])([H])[H])C([H])([H])[H])C(C([H])([H])[H])(C([H])([H])[H])C([H])([H])[H])C([H])([H])c2c([H])c(OC([H])([H])C3([H])N(c4c([H])c([H])c(N([H])C(=O)N5C([H])([H])C([H])([H])C([H])([H])C([H])(n6nc(-c7c([H])c([H])c(Oc8c([H])c([H])c(F)c([H])c8F)c([H])c7[H])c(C(=O)N([H])[H])c6N([H])[H])C5([H])[H])c(C([H])([H])C([H])([H])[H])c4[H])C(=O)C([H])([H])C3([H])[H])c([H])c([H])c2C1([H])[H]

$$$$
18:0:0
     RDKit          3D

 99107  0  0  1  0  0  0  0  0999 V2000
  -29.7420  -20.1270   22.7620 C   0  0  0  0  0  3  0  0  0  0  0  0
  -29.4480  -22.1440   20.8390 C   0  0  0  0  0  3  0  0  0  0  0  0
  -29.5950  -19.7620   21.4040 C   0  0  0  0  0  0  0  0  0  0  0  0
  -29.4250  -20.7880   20.4390 C   0  0  0  0  0  0  0  0  0  0  0  0
  -29.7770  -21.4770   23.1510 C   0  0  0  0  0  0  0  0  0  0  0  0
  -29.6500  -22.5050   22.1940 C   0  0  0  0  0  0  0  0  0  0  0  0
  -29.2050  -20.4720   18.9690 C   0  0  0  0  0  1  0  0  0  0  0  0
  -29.9290  -21.7990   24.4980 N   0  0  0  0  0  0  0  0  0  0  0  0
  -29.6450  -21.1080   25.1850 H   0  0  0  0  0  0  0  0  0  0  0  0
  -29.6590  -22.7430   24.7590 H   0  0  0  0  0  0  0  0  0  0  0  0
  -29.5690  -18.2810   21.0020 C   0  0  0  0  0  2  0  0  0  0  0  0
  -30.8480  -17.4830   21.3220 C   0  0  0  0  0  0  0  0  0  0  0  0
  -31.1940  -17.3110   22.4940 O   0  0  0  0  0  0  0  0  0  0  0  0
  -31.5340  -17.7150   18.8960 C   0  0  0  0  0  1  0  0  0  0  0  0
  -33.1150  -16.6440   20.5510 C   0  0  0  0  0  1  0  0  0  0  0  0
  -31.6250  -16.8200   20.1590 C   0  0  1  0  0  0  0  0  0  0  0  0
  -31.4310  -14.4720   19.2040 C   0  0  0  0  0  0  0  0  0  0  0  0
  -31.0070  -12.1410   18.5190 C   0  0  0  0  0  2  0  0  0  0  0  0
  -29.9090  -12.0710   17.4420 C   0  0  0  0  0  2  0  0  0  0  0  0
  -28.5150  -12.0050   18.0940 C   0  0  0  0  0  2  0  0  0  0  0  0
  -28.3140  -13.0950   19.1810 C   0  0  0  0  0  3  0  0  0  0  0  0
  -29.5110  -13.1310   20.1560 C   0  0  0  0  0  2  0  0  0  0  0  0
  -30.7440  -13.3120   19.3680 N   0  0  0  0  0  0  0  0  0  0  0  0
  -32.3710  -14.5900   18.4130 O   0  0  0  0  0  0  0  0  0  0  0  0
  -31.0260  -15.4890   19.9760 N   0  0  0  0  0  0  0  0  0  0  0  0
  -30.2450  -15.2800   20.5790 H   0  0  0  0  0  0  0  0  0  0  0  0
  -26.1930  -13.8650   20.4190 C   0  0  0  0  0  0  0  0  0  0  0  0
  -25.1150  -13.1740   20.9050 C   0  0  0  0  0  0  0  0  0  0  0  0
  -25.3730  -11.7970   20.6290 C   0  0  0  0  0  0  0  0  0  0  0  0
  -27.0460  -12.9120   19.8860 N   0  0  0  0  0  0  0  0  0  0  0  0
  -26.5660  -11.6560   20.0640 N   0  0  0  0  0  0  0  0  0  0  0  0
  -24.5290  -10.6090   20.8190 C   0  0  0  0  0  0  0  0  0  0  0  0
  -24.9450   -9.5280   21.6250 C   0  0  0  0  0  3  0  0  0  0  0  0
  -24.1090   -8.4060   21.8070 C   0  0  0  0  0  3  0  0  0  0  0  0
  -22.8400   -8.3580   21.1810 C   0  0  0  0  0  0  0  0  0  0  0  0
  -22.4410   -9.4270   20.3600 C   0  0  0  0  0  3  0  0  0  0  0  0
  -23.2770  -10.5420   20.1770 C   0  0  0  0  0  3  0  0  0  0  0  0
  -21.9720   -7.2980   21.2770 O   0  0  0  0  0  0  0  0  0  0  0  0
  -21.8810   -6.5450   22.4200 C   0  0  0  0  0  0  0  0  0  0  0  0
  -21.5310   -7.1170   23.6620 C   0  0  0  0  0  3  0  0  0  0  0  0
  -21.3790   -6.2950   24.7970 C   0  0  0  0  0  3  0  0  0  0  0  0
  -21.5690   -4.9050   24.6910 C   0  0  0  0  0  0  0  0  0  0  0  0
  -21.9120   -4.3330   23.4530 C   0  0  0  0  0  3  0  0  0  0  0  0
  -22.0640   -5.1510   22.3200 C   0  0  0  0  0  0  0  0  0  0  0  0
  -22.3740   -4.5930   21.1250 F   0  0  0  0  0  0  0  0  0  0  0  0
  -21.4150   -4.1140   25.7790 F   0  0  0  0  0  0  0  0  0  0  0  0
  -23.8720  -13.7640   21.5050 C   0  0  0  0  0  0  0  0  0  0  0  0
  -23.2540  -13.0570   22.4480 N   0  0  0  0  0  0  0  0  0  0  0  0
  -23.4680  -14.8790   21.1780 O   0  0  0  0  0  0  0  0  0  0  0  0
  -23.5990  -12.1520   22.7290 H   0  0  0  0  0  0  0  0  0  0  0  0
  -22.4270  -13.4290   22.8900 H   0  0  0  0  0  0  0  0  0  0  0  0
  -26.5070  -15.2190   20.3670 N   0  0  0  0  0  0  0  0  0  0  0  0
  -25.8620  -15.9320   20.6870 H   0  0  0  0  0  0  0  0  0  0  0  0
  -27.3180  -15.6020   19.8980 H   0  0  0  0  0  0  0  0  0  0  0  0
  -29.7340  -23.8070   22.6560 O   0  0  0  0  0  0  0  0  0  0  0  0
  -29.3910  -24.8890   21.7950 C   0  0  0  0  0  2  0  0  0  0  0  0
  -30.5140  -25.2490   20.8040 C   0  0  0  0  0  2  0  0  0  0  0  0
  -30.0370  -26.1830   19.6790 C   0  0  0  0  0  2  0  0  0  0  0  0
  -29.6110  -27.4310   20.2260 O   0  0  0  0  0  0  0  0  0  0  0  0
  -24.8330  -31.7430   23.1890 C   0  0  0  0  0  0  0  0  0  0  0  0
  -28.3050  -27.8760   20.1530 C   0  0  0  0  0  0  0  0  0  0  0  0
  -23.9500  -30.2470   21.4240 C   0  0  0  0  0  3  0  0  0  0  0  0
  -25.7000  -28.9940   20.0570 C   0  0  0  0  0  0  0  0  0  0  0  0
  -26.3970  -30.9840   21.4050 C   0  0  0  0  0  2  0  0  0  0  0  0
  -26.7250  -29.6650   20.7360 C   0  0  0  0  0  0  0  0  0  0  0  0
  -28.0200  -29.1080   20.7850 C   0  0  0  0  0  3  0  0  0  0  0  0
  -27.2530  -27.2050   19.4810 C   0  0  0  0  0  3  0  0  0  0  0  0
  -25.9580  -27.7620   19.4320 C   0  0  0  0  0  3  0  0  0  0  0  0
  -24.3420  -29.6600   20.0420 C   0  0  0  0  0  2  0  0  0  0  0  0
  -25.0720  -31.0060   22.0670 N   0  0  0  0  0  0  0  0  0  0  0  0
  -23.6920  -31.8320   23.6650 O   0  0  0  0  0  0  0  0  0  0  0  0
  -23.3990  -29.1060   22.3080 C   0  0  0  0  0  0  0  0  0  0  0  0
  -22.1290  -28.7360   22.0820 N   0  0  0  0  0  0  0  0  0  0  0  0
  -24.1150  -28.5570   23.1500 O   0  0  0  0  0  0  0  0  0  0  0  0
  -21.6110  -29.2440   21.3780 H   0  0  0  0  0  0  0  0  0  0  0  0
  -18.9430  -27.0420   22.2940 C   0  0  0  0  0  0  0  0  0  0  0  0
  -21.4090  -27.6600   22.7630 C   0  0  0  0  0  3  0  0  0  0  0  0
  -21.7630  -26.2840   22.1550 C   0  0  0  0  0  2  0  0  0  0  0  0
  -20.7930  -25.8440   21.0550 C   0  0  0  0  0  2  0  0  0  0  0  0
  -19.3630  -25.7580   21.5990 C   0  0  0  0  0  2  0  0  0  0  0  0
  -19.9040  -27.9420   22.8250 C   0  0  0  0  0  0  0  0  0  0  0  0
  -19.4600  -29.1370   23.4300 C   0  0  0  0  0  3  0  0  0  0  0  0
  -18.0870  -29.4340   23.5170 C   0  0  0  0  0  3  0  0  0  0  0  0
  -17.1390  -28.5320   23.0010 C   0  0  0  0  0  3  0  0  0  0  0  0
  -17.5690  -27.3400   22.3920 C   0  0  0  0  0  3  0  0  0  0  0  0
  -25.9720  -32.5270   23.9140 C   0  0  0  0  0  3  0  0  0  0  0  0
  -25.5030  -33.9030   24.1120 N   0  0  0  0  0  0  0  0  0  0  0  0
  -25.8290  -34.9390   23.3270 C   0  0  0  0  0  0  0  0  0  0  0  0
  -26.6240  -34.8430   22.3880 O   0  0  0  0  0  0  0  0  0  0  0  0
  -24.8010  -34.0420   24.8250 H   0  0  0  0  0  0  0  0  0  0  0  0
  -23.9930  -36.5270   22.6610 C   0  0  0  0  0  1  0  0  0  0  0  0
  -25.1650  -36.2970   23.6290 C   0  0  0  0  0  3  0  0  0  0  0  0
  -27.1130  -37.4240   24.6100 C   0  0  0  0  0  1  0  0  0  0  0  0
  -26.1040  -37.4380   23.5540 N   0  0  0  0  0  0  0  0  0  0  0  0
  -25.6030  -38.3220   23.6050 H   0  0  0  0  0  0  0  0  0  0  0  0
  -26.3950  -31.8750   25.2860 C   0  0  1  0  0  0  0  0  0  0  0  0
  -25.2020  -31.5660   26.2220 C   0  0  0  0  0  1  0  0  0  0  0  0
  -27.1660  -30.5540   25.0490 C   0  0  0  0  0  1  0  0  0  0  0  0
  -27.3620  -32.8200   26.0390 C   0  0  0  0  0  1  0  0  0  0  0  0
  1  5  1  0
  2  6  1  0
  3  1  2  0
  4  2  2  0
  4  3  1  0
  5  8  1  0
  6 55  1  0
  6  5  2  0
  7  4  1  0
  8 10  1  0
  8  9  1  0
 11 12  1  0
 11  3  1  0
 12 13  2  0
 16 14  1  6
 16 15  1  0
 16 12  1  0
 17 23  1  0
 17 25  1  0
 18 23  1  0
 19 20  1  0
 19 18  1  0
 21 20  1  0
 21 30  1  0
 21 22  1  0
 23 22  1  0
 24 17  2  0
 25 16  1  0
 25 26  1  0
 27 28  2  0
 28 47  1  0
 29 32  1  0
 29 28  1  0
 30 31  1  0
 30 27  1  0
 31 29  2  0
 32 33  1  0
 33 34  2  0
 35 38  1  0
 35 34  1  0
 36 35  2  0
 37 36  1  0
 37 32  2  0
 38 39  1  0
 39 40  1  0
 40 41  2  0
 42 41  1  0
 42 46  1  0
 43 42  2  0
 44 39  2  0
 44 43  1  0
 45 44  1  0
 47 48  1  0
 48 50  1  0
 48 51  1  0
 49 47  2  0
 52 27  1  0
 52 53  1  0
 54 52  1  0
 56 55  1  0
 57 56  1  0
 58 59  1  0
 58 57  1  0
 60 71  2  0
 61 59  1  0
 61 66  1  0
 62 70  1  0
 62 72  1  0
 63 65  1  0
 64 70  1  0
 65 66  2  0
 65 64  1  0
 67 61  2  0
 68 67  1  0
 68 63  2  0
 69 63  1  0
 69 62  1  0
 70 60  1  0
 72 74  2  0
 73 72  1  0
 75 73  1  0
 76 85  2  0
 76 81  1  0
 77 73  1  0
 77 81  1  0
 78 77  1  0
 79 80  1  0
 79 78  1  0
 80 76  1  0
 81 82  2  0
 82 83  1  0
 84 83  2  0
 85 84  1  0
 86 60  1  0
 86 87  1  0
 86 96  1  0
 87 90  1  0
 88 92  1  0
 88 87  1  0
 89 88  2  0
 92 91  1  0
 94 95  1  0
 94 92  1  0
 94 93  1  0
 96 99  1  1
 96 97  1  0
 98 96  1  0
M  ISO  4  17 100  25 100  58 101  59 101
M  END
>  <TORSDO>  (19) 
F 24

>  <SCORE>  (19) 
-8.787

>  <name>  (19) 
18

>  <ligand_id>  (19) 
18

>  <original_smiles>  (19) 
[H]c1c([H])c([H])c2c(c1[H])C([H])([H])C([H])([H])C([H])([H])C2([H])N([H])C(=O)C1([H])N(C(=O)C([H])(N([H])C(=O)C([H])(N([H])C([H])([H])[H])C([H])([H])[H])C(C([H])([H])[H])(C([H])([H])[H])C([H])([H])[H])C([H])([H])c2c([H])c(OC([H])([H])C([H])([H])C([H])([H])Oc3c([H])c(C([H])([H])[H])c(C([H])([H])C(=O)C(N([H])C(=O)N4C([H])([H])C([H])([H])C([H])([H])C([H])(n5nc(-c6c([H])c([H])c(Oc7c([H])c([H])c(F)c([H])c7F)c([H])c6[H])c(C(=O)N([H])[H])c5N([H])[H])C4([H])[H])(C([H])([H])[H])C([H])([H])[H])c([H])c3N([H])[H])c([H])c([H])c2C1([H])[H]

>  <smiles>  (19) 
[H]c1c([H])c([H])c2c(c1[H])C([H])([H])C([H])([H])C([H])([H])C2([H])N([H])C(=O)C1([H])N(C(=O)C([H])(N([H])C(=O)C([H])(N([H])C([H])([H])[H])C([H])([H])[H])C(C([H])([H])[H])(C([H])([H])[H])C([H])([H])[H])C([H])([H])c2c([H])c(OC([H])([H])C([H])([H])C([H])([H])Oc3c([H])c(C([H])([H])[H])c(C([H])([H])C(=O)C(N([H])C(=O)N4C([H])([H])C([H])([H])C([H])([H])C([H])(n5nc(-c6c([H])c([H])c(Oc7c([H])c([H])c(F)c([H])c7F)c([H])c6[H])c(C(=O)N([H])[H])c5N([H])[H])C4([H])[H])(C([H])([H])[H])C([H])([H])[H])c([H])c3N([H])[H])c([H])c([H])c2C1([H])[H]

$$$$
19:0:0
     RDKit          3D

 91 99  0  0  1  0  0  0  0  0999 V2000
  -30.0590  -20.2600   19.5600 O   0  0  0  0  0  0  0  0  0  0  0  0
  -30.7650  -17.9530   20.2400 C   0  0  0  0  0  3  0  0  0  0  0  0
  -29.7810  -18.9980   20.0210 C   0  0  0  0  0  0  0  0  0  0  0  0
  -30.2420  -16.7410   20.6620 C   0  0  0  0  0  0  0  0  0  0  0  0
  -28.5040  -18.5290   20.2350 C   0  0  0  0  0  0  0  0  0  0  0  0
  -27.2030  -19.2370   20.0450 C   0  0  0  0  0  1  0  0  0  0  0  0
  -28.5030  -16.8630   20.7610 S   0  0  0  0  0  0  0  0  0  0  0  0
  -30.8520  -15.4620   21.1120 C   0  0  0  0  0  0  0  0  0  0  0  0
  -31.0000  -15.2230   22.3510 N   0  0  0  0  0  0  0  0  0  0  0  0
  -30.6710  -15.9980   22.9150 H   0  0  0  0  0  0  0  0  0  0  0  0
  -31.2780  -14.4130   20.0660 C   0  0  0  0  0  0  0  0  0  0  0  0
  -30.9010  -12.1880   19.0270 C   0  0  0  0  0  2  0  0  0  0  0  0
  -29.9430  -12.2960   17.8230 C   0  0  0  0  0  2  0  0  0  0  0  0
  -28.4770  -12.2010   18.2810 C   0  0  0  0  0  2  0  0  0  0  0  0
  -28.1690  -13.1470   19.4710 C   0  0  0  0  0  3  0  0  0  0  0  0
  -29.2290  -12.9880   20.5840 C   0  0  0  0  0  2  0  0  0  0  0  0
  -30.5580  -13.2470   19.9960 N   0  0  0  0  0  0  0  0  0  0  0  0
  -32.2950  -14.6050   19.3900 O   0  0  0  0  0  0  0  0  0  0  0  0
  -25.8220  -13.8780   20.2280 C   0  0  0  0  0  0  0  0  0  0  0  0
  -24.7270  -13.1630   20.6330 C   0  0  0  0  0  0  0  0  0  0  0  0
  -25.1220  -11.7910   20.6080 C   0  0  0  0  0  0  0  0  0  0  0  0
  -26.8170  -12.9450   19.9830 N   0  0  0  0  0  0  0  0  0  0  0  0
  -26.3990  -11.6840   20.2670 N   0  0  0  0  0  0  0  0  0  0  0  0
  -24.3390  -10.5680   20.8340 C   0  0  0  0  0  0  0  0  0  0  0  0
  -24.7150   -9.6210   21.8120 C   0  0  0  0  0  3  0  0  0  0  0  0
  -23.9370   -8.4620   22.0220 C   0  0  0  0  0  3  0  0  0  0  0  0
  -22.7700   -8.2420   21.2520 C   0  0  0  0  0  0  0  0  0  0  0  0
  -22.4140   -9.1760   20.2630 C   0  0  0  0  0  3  0  0  0  0  0  0
  -23.1920  -10.3260   20.0530 C   0  0  0  0  0  3  0  0  0  0  0  0
  -21.9670   -7.1330   21.3690 O   0  0  0  0  0  0  0  0  0  0  0  0
  -21.8150   -6.4760   22.5640 C   0  0  0  0  0  0  0  0  0  0  0  0
  -21.3400   -7.1330   23.7190 C   0  0  0  0  0  3  0  0  0  0  0  0
  -21.1320   -6.4040   24.9070 C   0  0  0  0  0  3  0  0  0  0  0  0
  -21.3910   -5.0210   24.9420 C   0  0  0  0  0  0  0  0  0  0  0  0
  -21.8610   -4.3640   23.7900 C   0  0  0  0  0  3  0  0  0  0  0  0
  -22.0690   -5.0900   22.6040 C   0  0  0  0  0  0  0  0  0  0  0  0
  -22.5020   -4.4490   21.4910 F   0  0  0  0  0  0  0  0  0  0  0  0
  -21.1840   -4.3190   26.0790 F   0  0  0  0  0  0  0  0  0  0  0  0
  -23.3620  -13.7110   20.9360 C   0  0  0  0  0  0  0  0  0  0  0  0
  -22.6360  -13.0770   21.8490 N   0  0  0  0  0  0  0  0  0  0  0  0
  -22.9520  -14.7380   20.3970 O   0  0  0  0  0  0  0  0  0  0  0  0
  -22.9810  -12.2450   22.3070 H   0  0  0  0  0  0  0  0  0  0  0  0
  -21.7220  -13.4260   22.0970 H   0  0  0  0  0  0  0  0  0  0  0  0
  -26.0490  -15.2370   20.0280 N   0  0  0  0  0  0  0  0  0  0  0  0
  -25.3190  -15.9300   20.1500 H   0  0  0  0  0  0  0  0  0  0  0  0
  -26.9140  -15.6300   19.6780 H   0  0  0  0  0  0  0  0  0  0  0  0
  -29.8300  -21.4130   20.4130 C   0  0  0  0  0  2  0  0  0  0  0  0
  -29.1270  -22.5970   19.6640 C   0  0  0  0  0  2  0  0  0  0  0  0
  -29.2430  -24.0410   20.2800 C   0  0  0  0  0  2  0  0  0  0  0  0
  -28.2520  -25.0750   19.6490 C   0  0  0  0  0  2  0  0  0  0  0  0
  -28.4110  -26.4870   19.9910 O   0  0  0  0  0  0  0  0  0  0  0  0
  -24.7360  -31.8100   23.0860 C   0  0  0  0  0  0  0  0  0  0  0  0
  -27.2690  -27.2910   19.9590 C   0  0  0  0  0  0  0  0  0  0  0  0
  -23.4820  -30.4020   21.4910 C   0  0  0  0  0  3  0  0  0  0  0  0
  -24.8890  -28.8590   20.0260 C   0  0  0  0  0  0  0  0  0  0  0  0
  -26.0090  -30.7370   21.2250 C   0  0  0  0  0  2  0  0  0  0  0  0
  -26.0710  -29.3610   20.5840 C   0  0  0  0  0  0  0  0  0  0  0  0
  -27.2610  -28.5850   20.5480 C   0  0  0  0  0  3  0  0  0  0  0  0
  -26.0650  -26.8380   19.3670 C   0  0  0  0  0  3  0  0  0  0  0  0
  -24.8840  -27.5980   19.4130 C   0  0  0  0  0  3  0  0  0  0  0  0
  -23.6500  -29.7230   20.1070 C   0  0  0  0  0  2  0  0  0  0  0  0
  -24.7620  -31.0000   21.9900 N   0  0  0  0  0  0  0  0  0  0  0  0
  -23.6700  -32.0870   23.6550 O   0  0  0  0  0  0  0  0  0  0  0  0
  -22.8570  -29.3860   22.4750 C   0  0  0  0  0  0  0  0  0  0  0  0
  -21.5310  -29.1910   22.3790 N   0  0  0  0  0  0  0  0  0  0  0  0
  -23.5620  -28.7740   23.2820 O   0  0  0  0  0  0  0  0  0  0  0  0
  -21.0200  -29.7380   21.7000 H   0  0  0  0  0  0  0  0  0  0  0  0
  -18.1790  -27.9710   22.9690 C   0  0  0  0  0  0  0  0  0  0  0  0
  -20.7400  -28.2560   23.1800 C   0  0  0  0  0  3  0  0  0  0  0  0
  -20.8420  -26.8180   22.6190 C   0  0  0  0  0  2  0  0  0  0  0  0
  -19.7210  -26.4740   21.6340 C   0  0  0  0  0  2  0  0  0  0  0  0
  -18.3520  -26.6160   22.3070 C   0  0  0  0  0  2  0  0  0  0  0  0
  -19.3010  -28.7470   23.3660 C   0  0  0  0  0  0  0  0  0  0  0  0
  -19.0840  -30.0160   23.9450 C   0  0  0  0  0  3  0  0  0  0  0  0
  -17.7780  -30.5080   24.1360 C   0  0  0  0  0  3  0  0  0  0  0  0
  -16.6720  -29.7300   23.7540 C   0  0  0  0  0  3  0  0  0  0  0  0
  -16.8730  -28.4640   23.1760 C   0  0  0  0  0  3  0  0  0  0  0  0
  -26.0380  -32.4450   23.6640 C   0  0  0  0  0  3  0  0  0  0  0  0
  -25.7320  -33.8370   24.0190 N   0  0  0  0  0  0  0  0  0  0  0  0
  -26.0350  -34.9000   23.2620 C   0  0  0  0  0  0  0  0  0  0  0  0
  -26.6750  -34.8120   22.2100 O   0  0  0  0  0  0  0  0  0  0  0  0
  -25.1570  -33.9800   24.8360 H   0  0  0  0  0  0  0  0  0  0  0  0
  -24.2920  -36.6910   22.9690 C   0  0  0  0  0  1  0  0  0  0  0  0
  -25.5540  -36.2810   23.7480 C   0  0  0  0  0  3  0  0  0  0  0  0
  -27.7030  -37.1610   24.5430 C   0  0  0  0  0  1  0  0  0  0  0  0
  -26.5800  -37.3390   23.6260 N   0  0  0  0  0  0  0  0  0  0  0  0
  -26.1730  -38.2560   23.7980 H   0  0  0  0  0  0  0  0  0  0  0  0
  -26.6110  -31.6650   24.9100 C   0  0  1  0  0  0  0  0  0  0  0  0
  -25.5580  -31.3970   26.0120 C   0  0  0  0  0  1  0  0  0  0  0  0
  -27.2000  -30.3000   24.4810 C   0  0  0  0  0  1  0  0  0  0  0  0
  -27.7720  -32.4690   25.5410 C   0  0  0  0  0  1  0  0  0  0  0  0
  1  3  1  0
  1 47  1  0
  2  4  2  0
  3  5  2  0
  3  2  1  0
  4  7  1  0
  4  8  1  0
  5  7  1  0
  6  5  1  0
  8  9  2  0
  9 10  1  0
 11  8  1  0
 12 17  1  0
 13 14  1  0
 13 12  1  0
 15 14  1  0
 15 22  1  0
 15 16  1  0
 17 11  1  0
 17 16  1  0
 18 11  2  0
 19 20  2  0
 20 39  1  0
 21 20  1  0
 21 24  1  0
 22 19  1  0
 22 23  1  0
 23 21  2  0
 24 25  1  0
 25 26  2  0
 27 30  1  0
 27 26  1  0
 28 27  2  0
 29 28  1  0
 29 24  2  0
 30 31  1  0
 31 36  2  0
 31 32  1  0
 32 33  2  0
 33 34  1  0
 34 38  1  0
 35 34  2  0
 36 35  1  0
 37 36  1  0
 39 40  1  0
 40 43  1  0
 40 42  1  0
 41 39  2  0
 44 45  1  0
 44 19  1  0
 46 44  1  0
 48 49  1  0
 48 47  1  0
 50 51  1  0
 50 49  1  0
 52 63  2  0
 53 51  1  0
 53 58  1  0
 54 62  1  0
 54 64  1  0
 55 61  1  0
 55 57  1  0
 56 62  1  0
 57 56  1  0
 58 57  2  0
 59 60  1  0
 59 53  2  0
 60 55  2  0
 61 54  1  0
 62 52  1  0
 64 66  2  0
 65 64  1  0
 67 65  1  0
 68 77  2  0
 68 73  1  0
 69 65  1  0
 69 73  1  0
 70 69  1  0
 71 72  1  0
 71 70  1  0
 72 68  1  0
 73 74  2  0
 74 75  1  0
 76 75  2  0
 77 76  1  0
 78 52  1  0
 78 79  1  0
 78 88  1  0
 79 82  1  0
 80 84  1  0
 80 79  1  0
 81 80  2  0
 84 83  1  0
 86 84  1  0
 86 87  1  0
 86 85  1  0
 88 91  1  1
 88 89  1  0
 90 88  1  0
M  ISO  4   8 100  11 100  50 101  51 101
M  END
>  <TORSDO>  (20) 
F 22

>  <SCORE>  (20) 
-12.094

>  <name>  (20) 
19

>  <ligand_id>  (20) 
19

>  <original_smiles>  (20) 
[H]N=C(C(=O)N1C([H])([H])C([H])([H])C([H])([H])C([H])(n2nc(-c3c([H])c([H])c(Oc4c([H])c([H])c(F)c([H])c4F)c([H])c3[H])c(C(=O)N([H])[H])c2N([H])[H])C1([H])[H])c1sc(C([H])([H])[H])c(OC([H])([H])C([H])([H])C([H])([H])C([H])([H])Oc2c([H])c([H])c3c(c2[H])C([H])([H])N(C(=O)C([H])(N([H])C(=O)C([H])(N([H])C([H])([H])[H])C([H])([H])[H])C(C([H])([H])[H])(C([H])([H])[H])C([H])([H])[H])C([H])(C(=O)N([H])C2([H])c4c([H])c([H])c([H])c([H])c4C([H])([H])C([H])([H])C2([H])[H])C3([H])[H])c1[H]

>  <smiles>  (20) 
[H]N=C(C(=O)N1C([H])([H])C([H])([H])C([H])([H])C([H])(n2nc(-c3c([H])c([H])c(Oc4c([H])c([H])c(F)c([H])c4F)c([H])c3[H])c(C(=O)N([H])[H])c2N([H])[H])C1([H])[H])c1sc(C([H])([H])[H])c(OC([H])([H])C([H])([H])C([H])([H])C([H])([H])Oc2c([H])c([H])c3c(c2[H])C([H])([H])N(C(=O)C([H])(N([H])C(=O)C([H])(N([H])C([H])([H])[H])C([H])([H])[H])C(C([H])([H])[H])(C([H])([H])[H])C([H])([H])[H])C([H])(C(=O)N([H])C2([H])c4c([H])c([H])c([H])c([H])c4C([H])([H])C([H])([H])C2([H])[H])C3([H])[H])c1[H]

$$$$
20:0:0
     RDKit          3D

 97106  0  0  1  0  0  0  0  0999 V2000
  -28.6900  -19.6250   20.2800 C   0  0  0  0  0  3  0  0  0  0  0  0
  -30.9950  -19.9140   19.9100 C   0  0  0  0  0  3  0  0  0  0  0  0
  -28.8190  -18.1760   20.2500 C   0  0  0  0  0  0  0  0  0  0  0  0
  -29.7450  -20.5880   20.1110 C   0  0  0  0  0  0  0  0  0  0  0  0
  -31.1560  -18.4640   19.8840 C   0  0  0  0  0  0  0  0  0  0  0  0
  -30.0790  -17.5070   20.0420 C   0  0  0  0  0  0  0  0  0  0  0  0
  -30.9600  -14.9140   20.1400 C   0  0  0  0  0  0  0  0  0  0  0  0
  -30.9190  -12.4950   19.3830 C   0  0  0  0  0  2  0  0  0  0  0  0
  -30.0110  -12.2910   18.1490 C   0  0  0  0  0  2  0  0  0  0  0  0
  -28.5290  -12.1350   18.5560 C   0  0  0  0  0  2  0  0  0  0  0  0
  -28.0790  -13.1090   19.6820 C   0  0  0  0  0  3  0  0  0  0  0  0
  -29.1280  -13.2330   20.8050 C   0  0  0  0  0  2  0  0  0  0  0  0
  -30.3840  -13.6430   20.1620 N   0  0  0  0  0  0  0  0  0  0  0  0
  -32.1920  -14.9650   20.0490 O   0  0  0  0  0  0  0  0  0  0  0  0
  -29.9490  -15.8790   18.2120 C   0  0  0  0  0  1  0  0  0  0  0  0
  -30.1900  -16.0200   19.6610 N   0  0  0  0  0  0  0  0  0  0  0  0
  -25.6970  -13.6770   20.4250 C   0  0  0  0  0  0  0  0  0  0  0  0
  -24.6340  -12.8950   20.7790 C   0  0  0  0  0  0  0  0  0  0  0  0
  -25.1010  -11.5460   20.7250 C   0  0  0  0  0  0  0  0  0  0  0  0
  -26.7450  -12.8030   20.1800 N   0  0  0  0  0  0  0  0  0  0  0  0
  -26.3940  -11.5160   20.4240 N   0  0  0  0  0  0  0  0  0  0  0  0
  -24.3740  -10.2820   20.8820 C   0  0  0  0  0  0  0  0  0  0  0  0
  -24.6980   -9.3690   21.9110 C   0  0  0  0  0  3  0  0  0  0  0  0
  -23.9700   -8.1690   22.0550 C   0  0  0  0  0  3  0  0  0  0  0  0
  -22.9040   -7.8740   21.1720 C   0  0  0  0  0  0  0  0  0  0  0  0
  -22.6020   -8.7750   20.1360 C   0  0  0  0  0  3  0  0  0  0  0  0
  -23.3310   -9.9670   19.9880 C   0  0  0  0  0  3  0  0  0  0  0  0
  -22.1590   -6.7210   21.2220 O   0  0  0  0  0  0  0  0  0  0  0  0
  -21.7840   -6.1590   22.4160 C   0  0  0  0  0  0  0  0  0  0  0  0
  -21.0020   -6.8630   23.3570 C   0  0  0  0  0  3  0  0  0  0  0  0
  -20.5790   -6.2230   24.5390 C   0  0  0  0  0  3  0  0  0  0  0  0
  -20.9280   -4.8800   24.7770 C   0  0  0  0  0  0  0  0  0  0  0  0
  -21.7020   -4.1760   23.8380 C   0  0  0  0  0  3  0  0  0  0  0  0
  -22.1250   -4.8140   22.6590 C   0  0  0  0  0  0  0  0  0  0  0  0
  -22.8520   -4.1230   21.7460 F   0  0  0  0  0  0  0  0  0  0  0  0
  -20.5160   -4.2620   25.9090 F   0  0  0  0  0  0  0  0  0  0  0  0
  -23.2360  -13.3690   21.0510 C   0  0  0  0  0  0  0  0  0  0  0  0
  -22.5150  -12.6790   21.9260 N   0  0  0  0  0  0  0  0  0  0  0  0
  -22.7930  -14.3880   20.5240 O   0  0  0  0  0  0  0  0  0  0  0  0
  -22.8860  -11.8550   22.3780 H   0  0  0  0  0  0  0  0  0  0  0  0
  -21.5770  -12.9800   22.1480 H   0  0  0  0  0  0  0  0  0  0  0  0
  -25.8470  -15.0490   20.2590 N   0  0  0  0  0  0  0  0  0  0  0  0
  -25.0820  -15.6970   20.4050 H   0  0  0  0  0  0  0  0  0  0  0  0
  -26.6930  -15.5070   19.9470 H   0  0  0  0  0  0  0  0  0  0  0  0
  -29.9860  -22.5770   21.4920 C   0  0  0  0  0  0  0  0  0  0  0  0
  -30.7090  -23.9070   21.3440 C   0  0  0  0  0  2  0  0  0  0  0  0
  -30.7720  -24.0770   19.8320 C   0  0  0  0  0  2  0  0  0  0  0  0
  -29.4990  -23.3630   19.3750 C   0  0  0  0  0  3  0  0  0  0  0  0
  -29.5120  -22.1000   20.3170 N   0  0  0  0  0  0  0  0  0  0  0  0
  -29.8920  -22.0350   22.5980 O   0  0  0  0  0  0  0  0  0  0  0  0
  -28.3020  -24.5430   19.4850 C   0  0  0  0  0  2  0  0  0  0  0  0
  -28.4890  -26.0790   19.3570 O   0  0  0  0  0  0  0  0  0  0  0  0
  -24.6340  -31.2830   22.8450 C   0  0  0  0  0  0  0  0  0  0  0  0
  -27.3750  -26.9900   19.3970 C   0  0  0  0  0  0  0  0  0  0  0  0
  -23.4770  -30.0030   21.0840 C   0  0  0  0  0  3  0  0  0  0  0  0
  -24.9750  -28.6220   19.5210 C   0  0  0  0  0  0  0  0  0  0  0  0
  -26.0160  -30.3840   20.9400 C   0  0  0  0  0  2  0  0  0  0  0  0
  -26.1380  -29.0630   20.1650 C   0  0  0  0  0  0  0  0  0  0  0  0
  -27.3400  -28.2670   20.0830 C   0  0  0  0  0  3  0  0  0  0  0  0
  -26.1790  -26.6430   18.7290 C   0  0  0  0  0  3  0  0  0  0  0  0
  -25.0070  -27.4270   18.7880 C   0  0  0  0  0  3  0  0  0  0  0  0
  -23.7150  -29.4620   19.6490 C   0  0  0  0  0  2  0  0  0  0  0  0
  -24.7280  -30.5730   21.6800 N   0  0  0  0  0  0  0  0  0  0  0  0
  -23.5410  -31.4800   23.3990 O   0  0  0  0  0  0  0  0  0  0  0  0
  -22.8390  -28.8880   21.9500 C   0  0  0  0  0  0  0  0  0  0  0  0
  -21.5190  -28.6780   21.8020 N   0  0  0  0  0  0  0  0  0  0  0  0
  -23.5340  -28.2160   22.7160 O   0  0  0  0  0  0  0  0  0  0  0  0
  -21.0140  -29.2740   21.1620 H   0  0  0  0  0  0  0  0  0  0  0  0
  -18.1780  -27.3430   22.2160 C   0  0  0  0  0  0  0  0  0  0  0  0
  -20.7330  -27.6460   22.4820 C   0  0  0  0  0  3  0  0  0  0  0  0
  -20.8650  -26.2830   21.7650 C   0  0  0  0  0  2  0  0  0  0  0  0
  -19.7580  -26.0330   20.7340 C   0  0  0  0  0  2  0  0  0  0  0  0
  -18.3810  -26.0750   21.4040 C   0  0  0  0  0  2  0  0  0  0  0  0
  -19.2810  -28.0890   22.7090 C   0  0  0  0  0  0  0  0  0  0  0  0
  -19.0370  -29.2770   23.4310 C   0  0  0  0  0  3  0  0  0  0  0  0
  -17.7220  -29.7200   23.6640 C   0  0  0  0  0  3  0  0  0  0  0  0
  -16.6320  -28.9700   23.1860 C   0  0  0  0  0  3  0  0  0  0  0  0
  -16.8610  -27.7830   22.4680 C   0  0  0  0  0  3  0  0  0  0  0  0
  -25.8920  -31.9020   23.5270 C   0  0  0  0  0  3  0  0  0  0  0  0
  -26.4240  -31.0430   24.7410 C   0  0  1  0  0  0  0  0  0  0  0  0
  -25.3330  -30.6890   25.7780 C   0  0  0  0  0  1  0  0  0  0  0  0
  -27.0480  -29.7190   24.2460 C   0  0  0  0  0  1  0  0  0  0  0  0
  -27.5480  -31.8140   25.4740 C   0  0  0  0  0  1  0  0  0  0  0  0
  -25.5380  -33.2570   23.9750 N   0  0  0  0  0  0  0  0  0  0  0  0
  -25.8120  -34.3810   23.3000 C   0  0  0  0  0  0  0  0  0  0  0  0
  -26.4580  -34.3880   22.2490 O   0  0  0  0  0  0  0  0  0  0  0  0
  -24.9560  -33.3220   24.7980 H   0  0  0  0  0  0  0  0  0  0  0  0
  -24.0040  -36.1260   23.1490 C   0  0  0  0  0  1  0  0  0  0  0  0
  -25.2890  -35.7100   23.8820 C   0  0  0  0  0  3  0  0  0  0  0  0
  -27.4070  -36.6250   24.7220 C   0  0  0  0  0  1  0  0  0  0  0  0
  -26.2750  -36.8110   23.8180 N   0  0  0  0  0  0  0  0  0  0  0  0
  -25.8360  -37.7010   24.0380 H   0  0  0  0  0  0  0  0  0  0  0  0
  -32.4460  -17.9740   19.6800 N   0  0  0  0  0  0  0  0  0  0  0  0
  -33.1260  -18.5610   19.2100 H   0  0  0  0  0  0  0  0  0  0  0  0
  -32.5470  -16.9880   19.4660 H   0  0  0  0  0  0  0  0  0  0  0  0
  -26.3290  -17.7300   20.2910 C   0  0  0  0  0  2  0  0  0  0  0  0
  -27.6110  -17.3460   20.4320 C   0  0  0  0  0  3  0  0  0  0  0  0
  2  4  1  0
  3  1  1  0
  3 97  1  0
  4  1  2  0
  4 49  1  0
  5  2  2  0
  5  6  1  0
  6  3  2  0
  7 13  1  0
  8 13  1  0
  9 10  1  0
  9  8  1  0
 11 10  1  0
 11 20  1  0
 11 12  1  0
 13 12  1  0
 14  7  2  0
 15 16  1  0
 16  6  1  0
 16  7  1  0
 17 18  2  0
 18 37  1  0
 19 18  1  0
 19 22  1  0
 20 21  1  0
 20 17  1  0
 21 19  2  0
 22 23  1  0
 23 24  2  0
 25 28  1  0
 25 24  1  0
 26 25  2  0
 27 26  1  0
 27 22  2  0
 28 29  1  0
 29 34  2  0
 29 30  1  0
 30 31  2  0
 31 32  1  0
 32 36  1  0
 33 32  2  0
 34 33  1  0
 35 34  1  0
 37 38  1  0
 38 41  1  0
 38 40  1  0
 39 37  2  0
 42 43  1  0
 42 17  1  0
 44 42  1  0
 45 50  2  0
 46 45  1  0
 47 46  1  0
 48 51  1  0
 48 47  1  0
 48 49  1  0
 49 45  1  0
 52 54  1  0
 52 51  1  0
 53 64  2  0
 54 59  1  0
 55 63  1  0
 55 65  1  0
 56 62  1  0
 56 58  1  0
 57 63  1  0
 58 57  1  0
 59 58  2  0
 60 61  1  0
 60 54  2  0
 61 56  2  0
 62 55  1  0
 63 53  1  0
 65 67  2  0
 66 65  1  0
 68 66  1  0
 69 78  2  0
 69 74  1  0
 70 66  1  0
 70 74  1  0
 71 70  1  0
 72 73  1  0
 72 71  1  0
 73 69  1  0
 74 75  2  0
 75 76  1  0
 77 76  2  0
 78 77  1  0
 79 53  1  0
 79 84  1  0
 79 80  1  0
 80 83  1  1
 80 81  1  0
 82 80  1  0
 84 87  1  0
 85 89  1  0
 85 84  1  0
 86 85  2  0
 89 88  1  0
 91 89  1  0
 91 92  1  0
 91 90  1  0
 93  5  1  0
 94 93  1  0
 95 93  1  0
 96 97  2  0
M  ISO  4   7 100  16 100  51 101  52 101
M  END
>  <TORSDO>  (21) 
F 20

>  <SCORE>  (21) 
-11.250

>  <name>  (21) 
20

>  <ligand_id>  (21) 
20

>  <original_smiles>  (21) 
[H]C([H])=C([H])c1c([H])c(N2C(=O)C([H])([H])C([H])([H])C2([H])C([H])([H])Oc2c([H])c([H])c3c(c2[H])C([H])([H])N(C(=O)C([H])(N([H])C(=O)C([H])(N([H])C([H])([H])[H])C([H])([H])[H])C(C([H])([H])[H])(C([H])([H])[H])C([H])([H])[H])C([H])(C(=O)N([H])C2([H])c4c([H])c([H])c([H])c([H])c4C([H])([H])C([H])([H])C2([H])[H])C3([H])[H])c([H])c(N([H])[H])c1N(C(=O)N1C([H])([H])C([H])([H])C([H])([H])C([H])(n2nc(-c3c([H])c([H])c(Oc4c([H])c([H])c(F)c([H])c4F)c([H])c3[H])c(C(=O)N([H])[H])c2N([H])[H])C1([H])[H])C([H])([H])[H]

>  <smiles>  (21) 
[H]C([H])=C([H])c1c([H])c(N2C(=O)C([H])([H])C([H])([H])C2([H])C([H])([H])Oc2c([H])c([H])c3c(c2[H])C([H])([H])N(C(=O)C([H])(N([H])C(=O)C([H])(N([H])C([H])([H])[H])C([H])([H])[H])C(C([H])([H])[H])(C([H])([H])[H])C([H])([H])[H])C([H])(C(=O)N([H])C2([H])c4c([H])c([H])c([H])c([H])c4C([H])([H])C([H])([H])C2([H])[H])C3([H])[H])c([H])c(N([H])[H])c1N(C(=O)N1C([H])([H])C([H])([H])C([H])([H])C([H])(n2nc(-c3c([H])c([H])c(Oc4c([H])c([H])c(F)c([H])c4F)c([H])c3[H])c(C(=O)N([H])[H])c2N([H])[H])C1([H])[H])C([H])([H])[H]

$$$$
21:0:0
     RDKit          3D

 94102  0  0  1  0  0  0  0  0999 V2000
  -29.9410  -22.4990   19.0330 C   0  0  0  0  0  0  0  0  0  0  0  0
  -29.9620  -21.1820   18.7690 N   0  0  0  0  0  0  0  0  0  0  0  0
  -29.5450  -23.2490   18.1420 O   0  0  0  0  0  0  0  0  0  0  0  0
  -29.7100  -20.9930   17.8090 H   0  0  0  0  0  0  0  0  0  0  0  0
  -31.6150  -17.8970   19.2440 C   0  0  0  0  0  3  0  0  0  0  0  0
  -31.1760  -19.1070   18.6780 C   0  0  0  0  0  3  0  0  0  0  0  0
  -30.2470  -19.7770   20.8200 C   0  0  0  0  0  3  0  0  0  0  0  0
  -31.3760  -17.6010   20.6020 C   0  0  0  0  0  0  0  0  0  0  0  0
  -30.6650  -18.5450   21.3920 C   0  0  0  0  0  0  0  0  0  0  0  0
  -30.5080  -20.0660   19.4610 C   0  0  0  0  0  0  0  0  0  0  0  0
  -30.3030  -18.2410   22.8380 C   0  0  0  0  0  1  0  0  0  0  0  0
  -31.9020  -16.2740   21.1670 C   0  0  0  0  0  2  0  0  0  0  0  0
  -31.3070  -14.1980   19.9430 C   0  0  0  0  0  0  0  0  0  0  0  0
  -30.7070  -12.0590   18.8790 C   0  0  0  0  0  2  0  0  0  0  0  0
  -29.7460  -12.2850   17.6980 C   0  0  0  0  0  2  0  0  0  0  0  0
  -28.2910  -12.2420   18.1920 C   0  0  0  0  0  2  0  0  0  0  0  0
  -28.0580  -13.1730   19.4100 C   0  0  0  0  0  3  0  0  0  0  0  0
  -29.1470  -12.9800   20.4950 C   0  0  0  0  0  2  0  0  0  0  0  0
  -30.4750  -13.1210   19.8700 N   0  0  0  0  0  0  0  0  0  0  0  0
  -32.2920  -14.3230   19.2150 O   0  0  0  0  0  0  0  0  0  0  0  0
  -31.0480  -15.1110   20.8890 N   0  0  0  0  0  0  0  0  0  0  0  0
  -30.2800  -14.9300   21.5160 H   0  0  0  0  0  0  0  0  0  0  0  0
  -25.7500  -13.9640   20.2320 C   0  0  0  0  0  0  0  0  0  0  0  0
  -24.6450  -13.2770   20.6530 C   0  0  0  0  0  0  0  0  0  0  0  0
  -24.9970  -11.8920   20.6040 C   0  0  0  0  0  0  0  0  0  0  0  0
  -26.7120  -13.0050   19.9540 N   0  0  0  0  0  0  0  0  0  0  0  0
  -26.2640  -11.7530   20.2350 N   0  0  0  0  0  0  0  0  0  0  0  0
  -24.1840  -10.6920   20.8360 C   0  0  0  0  0  0  0  0  0  0  0  0
  -24.5740   -9.7040   21.7670 C   0  0  0  0  0  3  0  0  0  0  0  0
  -23.7660   -8.5670   21.9840 C   0  0  0  0  0  3  0  0  0  0  0  0
  -22.5540   -8.4090   21.2720 C   0  0  0  0  0  0  0  0  0  0  0  0
  -22.1840   -9.3830   20.3260 C   0  0  0  0  0  3  0  0  0  0  0  0
  -22.9920  -10.5120   20.1080 C   0  0  0  0  0  3  0  0  0  0  0  0
  -21.7190   -7.3270   21.3990 O   0  0  0  0  0  0  0  0  0  0  0  0
  -21.6310   -6.6190   22.5710 C   0  0  0  0  0  0  0  0  0  0  0  0
  -21.2730   -7.2350   23.7910 C   0  0  0  0  0  3  0  0  0  0  0  0
  -21.1280   -6.4570   24.9570 C   0  0  0  0  0  3  0  0  0  0  0  0
  -21.3300   -5.0640   24.9050 C   0  0  0  0  0  0  0  0  0  0  0  0
  -21.6780   -4.4480   23.6890 C   0  0  0  0  0  3  0  0  0  0  0  0
  -21.8270   -5.2240   22.5260 C   0  0  0  0  0  0  0  0  0  0  0  0
  -22.1450   -4.6220   21.3540 F   0  0  0  0  0  0  0  0  0  0  0  0
  -21.1810   -4.3150   26.0210 F   0  0  0  0  0  0  0  0  0  0  0  0
  -23.3040  -13.8600   20.9930 C   0  0  0  0  0  0  0  0  0  0  0  0
  -22.5750  -13.2290   21.9040 N   0  0  0  0  0  0  0  0  0  0  0  0
  -22.9170  -14.9120   20.4840 O   0  0  0  0  0  0  0  0  0  0  0  0
  -22.9010  -12.3760   22.3360 H   0  0  0  0  0  0  0  0  0  0  0  0
  -21.6740  -13.5980   22.1700 H   0  0  0  0  0  0  0  0  0  0  0  0
  -26.0120  -15.3200   20.0410 N   0  0  0  0  0  0  0  0  0  0  0  0
  -25.3080  -16.0340   20.1910 H   0  0  0  0  0  0  0  0  0  0  0  0
  -26.8890  -15.6940   19.6990 H   0  0  0  0  0  0  0  0  0  0  0  0
  -30.4400  -23.1160   20.3640 C   0  0  0  0  0  3  0  0  0  0  0  0
  -29.7200  -24.4400   20.8440 C   0  0  0  0  0  3  0  0  0  0  0  0
  -28.3810  -25.1250   20.3770 C   0  0  0  0  0  2  0  0  0  0  0  0
  -28.4750  -26.5570   20.3900 O   0  0  0  0  0  0  0  0  0  0  0  0
  -24.5440  -31.7580   23.2430 C   0  0  0  0  0  0  0  0  0  0  0  0
  -27.2880  -27.2690   20.3120 C   0  0  0  0  0  0  0  0  0  0  0  0
  -23.3830  -30.3320   21.5840 C   0  0  0  0  0  3  0  0  0  0  0  0
  -24.8800  -28.7710   20.2270 C   0  0  0  0  0  0  0  0  0  0  0  0
  -25.9150  -30.6810   21.4600 C   0  0  0  0  0  2  0  0  0  0  0  0
  -26.0200  -29.3040   20.8400 C   0  0  0  0  0  0  0  0  0  0  0  0
  -27.2230  -28.5610   20.8780 C   0  0  0  0  0  3  0  0  0  0  0  0
  -26.1270  -26.7470   19.6900 C   0  0  0  0  0  3  0  0  0  0  0  0
  -24.9290  -27.4890   19.6500 C   0  0  0  0  0  3  0  0  0  0  0  0
  -23.6310  -29.6290   20.2220 C   0  0  0  0  0  2  0  0  0  0  0  0
  -24.6300  -30.9400   22.1540 N   0  0  0  0  0  0  0  0  0  0  0  0
  -23.4460  -32.0430   23.7440 O   0  0  0  0  0  0  0  0  0  0  0  0
  -22.7010  -29.3270   22.5420 C   0  0  0  0  0  0  0  0  0  0  0  0
  -21.3830  -29.1370   22.3700 N   0  0  0  0  0  0  0  0  0  0  0  0
  -23.3560  -28.7230   23.3960 O   0  0  0  0  0  0  0  0  0  0  0  0
  -20.9150  -29.6840   21.6600 H   0  0  0  0  0  0  0  0  0  0  0  0
  -18.0050  -27.9180   22.7490 C   0  0  0  0  0  0  0  0  0  0  0  0
  -20.5440  -28.2070   23.1270 C   0  0  0  0  0  3  0  0  0  0  0  0
  -20.6860  -26.7660   22.5920 C   0  0  0  0  0  2  0  0  0  0  0  0
  -19.6340  -26.4060   21.5370 C   0  0  0  0  0  2  0  0  0  0  0  0
  -18.2240  -26.5540   22.1160 C   0  0  0  0  0  2  0  0  0  0  0  0
  -19.0970  -28.7000   23.2100 C   0  0  0  0  0  0  0  0  0  0  0  0
  -18.8430  -29.9750   23.7580 C   0  0  0  0  0  3  0  0  0  0  0  0
  -17.5300  -30.4700   23.8550 C   0  0  0  0  0  3  0  0  0  0  0  0
  -16.4510  -29.6860   23.4130 C   0  0  0  0  0  3  0  0  0  0  0  0
  -16.6880  -28.4120   22.8670 C   0  0  0  0  0  3  0  0  0  0  0  0
  -25.8120  -32.3960   23.8950 C   0  0  0  0  0  3  0  0  0  0  0  0
  -25.4920  -33.7950   24.2110 N   0  0  0  0  0  0  0  0  0  0  0  0
  -25.8260  -34.8430   23.4480 C   0  0  0  0  0  0  0  0  0  0  0  0
  -26.5090  -34.7390   22.4260 O   0  0  0  0  0  0  0  0  0  0  0  0
  -24.8950  -33.9550   25.0080 H   0  0  0  0  0  0  0  0  0  0  0  0
  -24.0840  -36.6200   23.0640 C   0  0  0  0  0  1  0  0  0  0  0  0
  -25.3190  -36.2310   23.8910 C   0  0  0  0  0  3  0  0  0  0  0  0
  -27.4360  -37.1400   24.7370 C   0  0  0  0  0  1  0  0  0  0  0  0
  -26.3430  -37.2930   23.7840 N   0  0  0  0  0  0  0  0  0  0  0  0
  -25.9240  -38.2080   23.9260 H   0  0  0  0  0  0  0  0  0  0  0  0
  -26.3020  -31.6320   25.1860 C   0  0  1  0  0  0  0  0  0  0  0  0
  -25.1920  -31.3940   26.2340 C   0  0  0  0  0  1  0  0  0  0  0  0
  -26.9000  -30.2550   24.8070 C   0  0  0  0  0  1  0  0  0  0  0  0
  -27.4260  -32.4380   25.8790 C   0  0  0  0  0  1  0  0  0  0  0  0
  1 51  1  0
  2  1  1  0
  2 10  1  0
  3  1  2  0
  4  2  1  0
  5  8  1  0
  6  5  2  0
  6 10  1  0
  7  9  1  0
  8 12  1  0
  8  9  2  0
  9 11  1  0
 10  7  2  0
 13 21  1  0
 14 19  1  0
 15 16  1  0
 15 14  1  0
 17 16  1  0
 17 26  1  0
 17 18  1  0
 19 13  1  0
 19 18  1  0
 20 13  2  0
 21 12  1  0
 21 22  1  0
 23 24  2  0
 24 43  1  0
 25 24  1  0
 25 28  1  0
 26 23  1  0
 26 27  1  0
 27 25  2  0
 28 29  1  0
 29 30  2  0
 31 34  1  0
 31 30  1  0
 32 31  2  0
 33 32  1  0
 33 28  2  0
 34 35  1  0
 35 36  1  0
 36 37  2  0
 38 37  1  0
 38 42  1  0
 39 38  2  0
 40 35  2  0
 40 39  1  0
 41 40  1  0
 43 44  1  0
 44 47  1  0
 44 46  1  0
 45 43  2  0
 48 49  1  0
 48 23  1  0
 50 48  1  0
 51 52  2  0
 53 54  1  0
 53 52  1  0
 55 66  2  0
 56 54  1  0
 56 61  1  0
 57 65  1  0
 57 67  1  0
 58 60  1  0
 59 65  1  0
 60 61  2  0
 60 59  1  0
 62 56  2  0
 63 62  1  0
 63 58  2  0
 64 58  1  0
 64 57  1  0
 65 55  1  0
 67 69  2  0
 68 67  1  0
 70 68  1  0
 71 80  2  0
 71 76  1  0
 72 68  1  0
 72 76  1  0
 73 72  1  0
 74 75  1  0
 74 73  1  0
 75 71  1  0
 76 77  2  0
 77 78  1  0
 79 78  2  0
 80 79  1  0
 81 55  1  0
 81 82  1  0
 81 91  1  0
 82 85  1  0
 83 87  1  0
 83 82  1  0
 84 83  2  0
 87 86  1  0
 89 87  1  0
 89 90  1  0
 89 88  1  0
 91 94  1  1
 91 92  1  0
 93 91  1  0
M  ISO  4  13 100  21 100  53 101  54 101
M  END
>  <TORSDO>  (22) 
F 21

>  <SCORE>  (22) 
-12.426

>  <name>  (22) 
21

>  <ligand_id>  (22) 
21

>  <original_smiles>  (22) 
[H]c1c([H])c([H])c2c(c1[H])C([H])([H])C([H])([H])C([H])([H])C2([H])N([H])C(=O)C1([H])N(C(=O)C([H])(N([H])C(=O)C([H])(N([H])C([H])([H])[H])C([H])([H])[H])C(C([H])([H])[H])(C([H])([H])[H])C([H])([H])[H])C([H])([H])c2c([H])c(OC([H])([H])C([H])([H])C([H])([H])C(=O)N([H])c3c([H])c([H])c(C([H])([H])N([H])C(=O)N4C([H])([H])C([H])([H])C([H])([H])C([H])(n5nc(-c6c([H])c([H])c(Oc7c([H])c([H])c(F)c([H])c7F)c([H])c6[H])c(C(=O)N([H])[H])c5N([H])[H])C4([H])[H])c(C([H])([H])[H])c3[H])c([H])c([H])c2C1([H])[H]

>  <smiles>  (22) 
[H]c1c([H])c([H])c2c(c1[H])C([H])([H])C([H])([H])C([H])([H])C2([H])N([H])C(=O)C1([H])N(C(=O)C([H])(N([H])C(=O)C([H])(N([H])C([H])([H])[H])C([H])([H])[H])C(C([H])([H])[H])(C([H])([H])[H])C([H])([H])[H])C([H])([H])c2c([H])c(OC([H])([H])C([H])([H])C([H])([H])C(=O)N([H])c3c([H])c([H])c(C([H])([H])N([H])C(=O)N4C([H])([H])C([H])([H])C([H])([H])C([H])(n5nc(-c6c([H])c([H])c(Oc7c([H])c([H])c(F)c([H])c7F)c([H])c6[H])c(C(=O)N([H])[H])c5N([H])[H])C4([H])[H])c(C([H])([H])[H])c3[H])c([H])c([H])c2C1([H])[H]

$$$$
22:0:0
     RDKit          3D

 95104  0  0  1  0  0  0  0  0999 V2000
  -30.9540  -24.7610   20.6960 C   0  0  0  0  0  3  0  0  0  0  0  0
  -30.1040  -24.9370   19.6660 C   0  0  0  0  0  0  0  0  0  0  0  0
  -31.9290  -23.5950   20.8120 C   0  0  0  0  0  2  0  0  0  0  0  0
  -31.4970  -22.3210   20.0310 C   0  0  0  0  0  2  0  0  0  0  0  0
  -30.2170  -22.4840   19.1800 C   0  0  0  0  0  2  0  0  0  0  0  0
  -30.2670  -23.8180   18.5480 N   0  0  1  0  0  4  0  0  0  0  0  0
  -31.2690  -23.8350   18.4400 H   0  0  0  0  0  0  0  0  0  0  0  0
  -30.0490  -23.8670   17.0260 C   0  0  0  0  0  2  0  0  0  0  0  0
  -30.2970  -21.6600   15.5570 C   0  0  0  0  0  0  0  0  0  0  0  0
  -31.0850  -21.0010   14.5260 C   0  0  0  0  0  0  0  0  0  0  0  0
  -30.7950  -22.8640   16.0180 C   0  0  0  0  0  0  0  0  0  0  0  0
  -32.2250  -21.6590   14.0870 C   0  0  0  0  0  0  0  0  0  0  0  0
  -28.9910  -21.0740   16.0270 C   0  0  0  0  0  1  0  0  0  0  0  0
  -30.6230  -19.6850   13.9520 C   0  0  0  0  0  1  0  0  0  0  0  0
  -32.3280  -23.1490   15.0950 S   0  0  0  0  0  0  0  0  0  0  0  0
  -34.1960  -21.3350   12.3520 C   0  0  0  0  0  0  0  0  0  0  0  0
  -35.1460  -21.4790   10.0300 C   0  0  0  0  0  2  0  0  0  0  0  0
  -34.3650  -22.5640    9.2510 C   0  0  0  0  0  2  0  0  0  0  0  0
  -33.0770  -21.9870    8.6260 C   0  0  0  0  0  2  0  0  0  0  0  0
  -32.2620  -21.1330    9.6340 C   0  0  0  0  0  3  0  0  0  0  0  0
  -33.1770  -20.1250   10.3680 C   0  0  0  0  0  2  0  0  0  0  0  0
  -34.2340  -20.8990   11.0430 N   0  0  0  0  0  0  0  0  0  0  0  0
  -35.1820  -21.8840   12.8580 O   0  0  0  0  0  0  0  0  0  0  0  0
  -32.9710  -21.1880   12.9820 N   0  0  0  0  0  0  0  0  0  0  0  0
  -32.4140  -20.5700   12.4130 H   0  0  0  0  0  0  0  0  0  0  0  0
  -29.7660  -20.7270    9.1870 C   0  0  0  0  0  0  0  0  0  0  0  0
  -29.1130  -19.9050    8.3080 C   0  0  0  0  0  0  0  0  0  0  0  0
  -30.1310  -19.1820    7.6150 C   0  0  0  0  0  0  0  0  0  0  0  0
  -31.1180  -20.4820    9.0030 N   0  0  0  0  0  0  0  0  0  0  0  0
  -31.3300  -19.5000    8.0890 N   0  0  0  0  0  0  0  0  0  0  0  0
  -30.0370  -18.2460    6.4860 C   0  0  0  0  0  0  0  0  0  0  0  0
  -30.6070  -16.9560    6.5470 C   0  0  0  0  0  3  0  0  0  0  0  0
  -30.4860  -16.0660    5.4600 C   0  0  0  0  0  3  0  0  0  0  0  0
  -29.7860  -16.4630    4.2950 C   0  0  0  0  0  0  0  0  0  0  0  0
  -29.2400  -17.7560    4.2290 C   0  0  0  0  0  3  0  0  0  0  0  0
  -29.3670  -18.6430    5.3120 C   0  0  0  0  0  3  0  0  0  0  0  0
  -29.6450  -15.6760    3.1760 O   0  0  0  0  0  0  0  0  0  0  0  0
  -29.6500  -14.3070    3.2520 C   0  0  0  0  0  0  0  0  0  0  0  0
  -28.6970  -13.6010    4.0200 C   0  0  0  0  0  3  0  0  0  0  0  0
  -28.6950  -12.1920    4.0150 C   0  0  0  0  0  3  0  0  0  0  0  0
  -29.6360  -11.4870    3.2400 C   0  0  0  0  0  0  0  0  0  0  0  0
  -30.5820  -12.1890    2.4730 C   0  0  0  0  0  3  0  0  0  0  0  0
  -30.5860  -13.5950    2.4760 C   0  0  0  0  0  0  0  0  0  0  0  0
  -31.4850  -14.2660    1.7170 F   0  0  0  0  0  0  0  0  0  0  0  0
  -29.6290  -10.1340    3.2300 F   0  0  0  0  0  0  0  0  0  0  0  0
  -27.6330  -19.8640    8.0550 C   0  0  0  0  0  0  0  0  0  0  0  0
  -27.1110  -18.7060    7.6660 N   0  0  0  0  0  0  0  0  0  0  0  0
  -26.9240  -20.8490    8.2490 O   0  0  0  0  0  0  0  0  0  0  0  0
  -27.6920  -17.8930    7.5300 H   0  0  0  0  0  0  0  0  0  0  0  0
  -26.1160  -18.6340    7.5060 H   0  0  0  0  0  0  0  0  0  0  0  0
  -29.3270  -21.6740   10.1060 N   0  0  0  0  0  0  0  0  0  0  0  0
  -28.3460  -21.9110   10.2050 H   0  0  0  0  0  0  0  0  0  0  0  0
  -29.9350  -22.2720   10.6520 H   0  0  0  0  0  0  0  0  0  0  0  0
  -28.9150  -25.9850   19.7650 C   0  0  0  0  0  2  0  0  0  0  0  0
  -28.9730  -26.9260   20.9530 O   0  0  0  0  0  0  0  0  0  0  0  0
  -24.4670  -28.1790   26.5130 C   0  0  0  0  0  0  0  0  0  0  0  0
  -27.8340  -27.6080   21.4490 C   0  0  0  0  0  0  0  0  0  0  0  0
  -23.6650  -28.8250   24.2690 C   0  0  0  0  0  3  0  0  0  0  0  0
  -25.4340  -28.8770   22.4130 C   0  0  0  0  0  0  0  0  0  0  0  0
  -26.1760  -28.8380   24.7960 C   0  0  0  0  0  2  0  0  0  0  0  0
  -26.4470  -28.5390   23.3200 C   0  0  0  0  0  0  0  0  0  0  0  0
  -27.6500  -27.9260   22.8390 C   0  0  0  0  0  3  0  0  0  0  0  0
  -26.7940  -28.0000   20.5780 C   0  0  0  0  0  3  0  0  0  0  0  0
  -25.6160  -28.6220   21.0440 C   0  0  0  0  0  3  0  0  0  0  0  0
  -24.1690  -29.5070   22.9690 C   0  0  0  0  0  2  0  0  0  0  0  0
  -24.7770  -28.5770   25.2430 N   0  0  0  0  0  0  0  0  0  0  0  0
  -23.2900  -28.0490   26.8800 O   0  0  0  0  0  0  0  0  0  0  0  0
  -22.8800  -27.5440   23.8970 C   0  0  0  0  0  0  0  0  0  0  0  0
  -21.7420  -27.7090   23.1990 N   0  0  0  0  0  0  0  0  0  0  0  0
  -23.3070  -26.4320   24.2130 O   0  0  0  0  0  0  0  0  0  0  0  0
  -21.4520  -28.6520   22.9840 H   0  0  0  0  0  0  0  0  0  0  0  0
  -18.8850  -27.0010   21.0920 C   0  0  0  0  0  0  0  0  0  0  0  0
  -20.8750  -26.6380   22.7040 C   0  0  0  0  0  3  0  0  0  0  0  0
  -21.5450  -25.8730   21.5400 C   0  0  0  0  0  2  0  0  0  0  0  0
  -21.1650  -26.4200   20.1600 C   0  0  0  0  0  2  0  0  0  0  0  0
  -19.6500  -26.3510   19.9520 C   0  0  0  0  0  2  0  0  0  0  0  0
  -19.4660  -27.1490   22.3800 C   0  0  0  0  0  0  0  0  0  0  0  0
  -18.7240  -27.7910   23.3950 C   0  0  0  0  0  3  0  0  0  0  0  0
  -17.4270  -28.2760   23.1430 C   0  0  0  0  0  3  0  0  0  0  0  0
  -16.8510  -28.1140   21.8710 C   0  0  0  0  0  3  0  0  0  0  0  0
  -17.5770  -27.4730   20.8510 C   0  0  0  0  0  3  0  0  0  0  0  0
  -25.5750  -27.8910   27.5730 C   0  0  0  0  0  3  0  0  0  0  0  0
  -26.2940  -26.5030   27.3560 C   0  0  1  0  0  0  0  0  0  0  0  0
  -25.3190  -25.3100   27.2180 C   0  0  0  0  0  1  0  0  0  0  0  0
  -27.1770  -26.5370   26.0890 C   0  0  0  0  0  1  0  0  0  0  0  0
  -27.2410  -26.2130   28.5450 C   0  0  0  0  0  1  0  0  0  0  0  0
  -24.9480  -27.9440   28.9010 N   0  0  0  0  0  0  0  0  0  0  0  0
  -25.1120  -28.9390   29.7820 C   0  0  0  0  0  0  0  0  0  0  0  0
  -25.8730  -29.8910   29.5820 O   0  0  0  0  0  0  0  0  0  0  0  0
  -24.2700  -27.2250   29.1100 H   0  0  0  0  0  0  0  0  0  0  0  0
  -23.0920  -29.8080   31.0020 C   0  0  0  0  0  1  0  0  0  0  0  0
  -24.3050  -28.8700   31.0940 C   0  0  0  0  0  3  0  0  0  0  0  0
  -26.1220  -28.2050   32.6070 C   0  0  0  0  0  1  0  0  0  0  0  0
  -25.1020  -29.2040   32.2950 N   0  0  0  0  0  0  0  0  0  0  0  0
  -24.5020  -29.3100   33.1080 H   0  0  0  0  0  0  0  0  0  0  0  0
  1  3  1  0
  2 54  1  0
  2  1  2  0
  4  3  1  0
  5  4  1  0
  6  5  1  0
  6  2  1  0
  6  7  1  6
  8  6  1  0
  9 11  2  0
  9 13  1  0
 10  9  1  0
 11  8  1  0
 12 10  2  0
 12 15  1  0
 14 10  1  0
 15 11  1  0
 16 23  2  0
 16 24  1  0
 17 22  1  0
 18 17  1  0
 19 18  1  0
 20 19  1  0
 20 21  1  0
 21 22  1  0
 22 16  1  0
 24 12  1  0
 25 24  1  0
 26 51  1  0
 27 26  2  0
 28 30  2  0
 28 27  1  0
 29 26  1  0
 29 20  1  0
 30 29  1  0
 31 32  1  0
 31 28  1  0
 33 32  2  0
 34 33  1  0
 35 34  2  0
 35 36  1  0
 36 31  2  0
 37 38  1  0
 37 34  1  0
 38 39  1  0
 40 39  2  0
 41 40  1  0
 42 43  1  0
 42 41  2  0
 43 38  2  0
 44 43  1  0
 45 41  1  0
 46 48  2  0
 46 27  1  0
 47 46  1  0
 49 47  1  0
 50 47  1  0
 51 52  1  0
 51 53  1  0
 54 55  1  0
 55 57  1  0
 56 67  2  0
 57 62  1  0
 58 68  1  0
 58 66  1  0
 59 65  1  0
 59 61  1  0
 60 66  1  0
 61 60  1  0
 62 61  2  0
 63 64  1  0
 63 57  2  0
 64 59  2  0
 65 58  1  0
 66 56  1  0
 68 70  2  0
 69 68  1  0
 71 69  1  0
 72 77  1  0
 73 69  1  0
 74 73  1  0
 75 74  1  0
 76 75  1  0
 76 72  1  0
 77 73  1  0
 77 78  2  0
 79 78  1  0
 80 79  2  0
 81 72  2  0
 81 80  1  0
 82 56  1  0
 82 87  1  0
 83 82  1  0
 83 86  1  1
 84 83  1  0
 85 83  1  0
 87 90  1  0
 87 88  1  0
 88 92  1  0
 89 88  2  0
 92 91  1  0
 92 94  1  0
 94 93  1  0
 94 95  1  0
M  ISO  4  16 100  24 100  54 101  55 101
M  END
>  <TORSDO>  (23) 
F 19

>  <SCORE>  (23) 
-3.516

>  <name>  (23) 
22

>  <ligand_id>  (23) 
22

>  <original_smiles>  (23) 
[H]C1=C(C([H])([H])Oc2c([H])c([H])c3c(c2[H])C([H])([H])N(C(=O)C([H])(N([H])C(=O)C([H])(N([H])C([H])([H])[H])C([H])([H])[H])C(C([H])([H])[H])(C([H])([H])[H])C([H])([H])[H])C([H])(C(=O)N([H])C2([H])c4c([H])c([H])c([H])c([H])c4C([H])([H])C([H])([H])C2([H])[H])C3([H])[H])[N+]([H])(C([H])([H])c2sc(N([H])C(=O)N3C([H])([H])C([H])([H])C([H])([H])C([H])(n4nc(-c5c([H])c([H])c(Oc6c([H])c([H])c(F)c([H])c6F)c([H])c5[H])c(C(=O)N([H])[H])c4N([H])[H])C3([H])[H])c(C([H])([H])[H])c2C([H])([H])[H])C([H])([H])C([H])([H])C1([H])[H]

>  <smiles>  (23) 
[H]C1=C(C([H])([H])Oc2c([H])c([H])c3c(c2[H])C([H])([H])N(C(=O)C([H])(N([H])C(=O)C([H])(N([H])C([H])([H])[H])C([H])([H])[H])C(C([H])([H])[H])(C([H])([H])[H])C([H])([H])[H])C([H])(C(=O)N([H])C2([H])c4c([H])c([H])c([H])c([H])c4C([H])([H])C([H])([H])C2([H])[H])C3([H])[H])[N+]([H])(C([H])([H])c2sc(N([H])C(=O)N3C([H])([H])C([H])([H])C([H])([H])C([H])(n4nc(-c5c([H])c([H])c(Oc6c([H])c([H])c(F)c([H])c6F)c([H])c5[H])c(C(=O)N([H])[H])c4N([H])[H])C3([H])[H])c(C([H])([H])[H])c2C([H])([H])[H])C([H])([H])C([H])([H])C1([H])[H]

$$$$
23:0:0
     RDKit          3D

 95103  0  0  1  0  0  0  0  0999 V2000
  -30.5650  -17.1130   19.1800 C   0  0  0  0  0  3  0  0  0  0  0  0
  -30.0640  -18.5780   21.4940 C   0  0  0  0  0  3  0  0  0  0  0  0
  -30.3780  -18.5140   19.1010 C   0  0  0  0  0  0  0  0  0  0  0  0
  -30.2250  -17.1720   21.5770 C   0  0  0  0  0  0  0  0  0  0  0  0
  -30.5430  -16.4080   20.4190 C   0  0  0  0  0  0  0  0  0  0  0  0
  -30.1570  -19.2820   20.2670 C   0  0  0  0  0  0  0  0  0  0  0  0
  -30.4570  -19.2010   17.7470 C   0  0  0  0  0  1  0  0  0  0  0  0
  -30.0310  -16.5280   22.9430 C   0  0  0  0  0  1  0  0  0  0  0  0
  -30.9830  -14.2320   19.3870 C   0  0  0  0  0  0  0  0  0  0  0  0
  -30.1080  -12.3840   18.0040 C   0  0  0  0  0  2  0  0  0  0  0  0
  -29.0250  -12.8900   17.0400 C   0  0  0  0  0  2  0  0  0  0  0  0
  -27.6430  -12.7950   17.7120 C   0  0  0  0  0  2  0  0  0  0  0  0
  -27.6260  -13.4330   19.1290 C   0  0  0  0  0  3  0  0  0  0  0  0
  -28.8400  -13.0010   19.9810 C   0  0  0  0  0  2  0  0  0  0  0  0
  -30.0720  -13.2320   19.2110 N   0  0  0  0  0  0  0  0  0  0  0  0
  -31.9140  -14.3960   18.5930 O   0  0  0  0  0  0  0  0  0  0  0  0
  -30.9310  -15.0030   20.5060 N   0  0  0  0  0  0  0  0  0  0  0  0
  -25.4080  -14.0700   20.2690 C   0  0  0  0  0  0  0  0  0  0  0  0
  -24.3770  -13.3150   20.7600 C   0  0  0  0  0  0  0  0  0  0  0  0
  -24.7660  -11.9530   20.5750 C   0  0  0  0  0  0  0  0  0  0  0  0
  -26.3600  -13.1720   19.8150 N   0  0  0  0  0  0  0  0  0  0  0  0
  -25.9890  -11.8880   20.0640 N   0  0  0  0  0  0  0  0  0  0  0  0
  -24.0190  -10.7070   20.8100 C   0  0  0  0  0  0  0  0  0  0  0  0
  -24.5060   -9.7090   21.6820 C   0  0  0  0  0  3  0  0  0  0  0  0
  -23.7660   -8.5280   21.9070 C   0  0  0  0  0  3  0  0  0  0  0  0
  -22.5150   -8.3440   21.2670 C   0  0  0  0  0  0  0  0  0  0  0  0
  -22.0460   -9.3270   20.3790 C   0  0  0  0  0  3  0  0  0  0  0  0
  -22.7930  -10.4950   20.1470 C   0  0  0  0  0  3  0  0  0  0  0  0
  -21.7370   -7.2210   21.4060 O   0  0  0  0  0  0  0  0  0  0  0  0
  -21.7210   -6.5000   22.5720 C   0  0  0  0  0  0  0  0  0  0  0  0
  -21.3770   -7.0860   23.8090 C   0  0  0  0  0  3  0  0  0  0  0  0
  -21.3110   -6.2930   24.9730 C   0  0  0  0  0  3  0  0  0  0  0  0
  -21.5720   -4.9110   24.8940 C   0  0  0  0  0  0  0  0  0  0  0  0
  -21.9070   -4.3230   23.6620 C   0  0  0  0  0  3  0  0  0  0  0  0
  -21.9800   -5.1180   22.5050 C   0  0  0  0  0  0  0  0  0  0  0  0
  -22.2840   -4.5450   21.3150 F   0  0  0  0  0  0  0  0  0  0  0  0
  -21.5030   -4.1400   26.0060 F   0  0  0  0  0  0  0  0  0  0  0  0
  -23.0630  -13.8240   21.2810 C   0  0  0  0  0  0  0  0  0  0  0  0
  -22.4650  -13.1110   22.2330 N   0  0  0  0  0  0  0  0  0  0  0  0
  -22.5840  -14.8840   20.8840 O   0  0  0  0  0  0  0  0  0  0  0  0
  -22.8590  -12.2410   22.5550 H   0  0  0  0  0  0  0  0  0  0  0  0
  -21.5870  -13.4240   22.6220 H   0  0  0  0  0  0  0  0  0  0  0  0
  -25.6030  -15.4410   20.1540 N   0  0  0  0  0  0  0  0  0  0  0  0
  -26.4160  -15.8840   19.7430 H   0  0  0  0  0  0  0  0  0  0  0  0
  -24.8980  -16.1000   20.4680 H   0  0  0  0  0  0  0  0  0  0  0  0
  -32.0650  -14.7360   21.4300 C   0  0  0  0  0  2  0  0  0  0  0  0
  -32.4880  -13.2500   21.5310 C   0  0  0  0  0  2  0  0  0  0  0  0
  -30.9670  -11.2440   21.2420 C   0  0  0  0  0  2  0  0  0  0  0  0
  -31.3610  -12.3230   21.9360 C   0  0  0  0  0  3  0  0  0  0  0  0
  -30.0310  -20.6670   20.1350 O   0  0  0  0  0  0  0  0  0  0  0  0
  -29.8630  -21.4760   21.3100 C   0  0  0  0  0  2  0  0  0  0  0  0
  -29.2500  -22.8850   21.0470 C   0  0  0  0  0  2  0  0  0  0  0  0
  -30.1820  -24.1270   21.1840 C   0  0  0  0  0  2  0  0  0  0  0  0
  -29.4690  -25.4560   21.5960 C   0  0  0  0  0  2  0  0  0  0  0  0
  -29.4400  -26.4730   20.5820 O   0  0  0  0  0  0  0  0  0  0  0  0
  -25.0690  -31.5170   23.1690 C   0  0  0  0  0  0  0  0  0  0  0  0
  -28.2460  -27.1550   20.4930 C   0  0  0  0  0  0  0  0  0  0  0  0
  -24.1030  -29.9970   21.4740 C   0  0  0  0  0  3  0  0  0  0  0  0
  -25.7720  -28.5040   20.2390 C   0  0  0  0  0  0  0  0  0  0  0  0
  -26.6090  -30.4990   21.4930 C   0  0  0  0  0  2  0  0  0  0  0  0
  -26.8350  -29.1170   20.9170 C   0  0  0  0  0  0  0  0  0  0  0  0
  -28.0760  -28.4470   21.0440 C   0  0  0  0  0  3  0  0  0  0  0  0
  -27.1700  -26.5560   19.8120 C   0  0  0  0  0  3  0  0  0  0  0  0
  -25.9360  -27.2220   19.6820 C   0  0  0  0  0  3  0  0  0  0  0  0
  -24.4810  -29.2870   20.1440 C   0  0  0  0  0  2  0  0  0  0  0  0
  -25.2720  -30.6910   22.1040 N   0  0  0  0  0  0  0  0  0  0  0  0
  -23.9310  -31.7360   23.6010 O   0  0  0  0  0  0  0  0  0  0  0  0
  -23.4260  -28.9690   22.4080 C   0  0  0  0  0  0  0  0  0  0  0  0
  -22.1150  -28.7490   22.2090 N   0  0  0  0  0  0  0  0  0  0  0  0
  -24.0800  -28.3710   23.2660 O   0  0  0  0  0  0  0  0  0  0  0  0
  -21.6470  -29.2920   21.4960 H   0  0  0  0  0  0  0  0  0  0  0  0
  -18.7290  -27.5580   22.6230 C   0  0  0  0  0  0  0  0  0  0  0  0
  -21.2830  -27.7950   22.9410 C   0  0  0  0  0  3  0  0  0  0  0  0
  -21.3860  -26.3800   22.3270 C   0  0  0  0  0  2  0  0  0  0  0  0
  -20.2980  -26.0910   21.2860 C   0  0  0  0  0  2  0  0  0  0  0  0
  -18.9080  -26.2260   21.9140 C   0  0  0  0  0  2  0  0  0  0  0  0
  -19.8440  -28.3010   23.0910 C   0  0  0  0  0  0  0  0  0  0  0  0
  -19.6230  -29.5490   23.7120 C   0  0  0  0  0  3  0  0  0  0  0  0
  -18.3180  -30.0520   23.8720 C   0  0  0  0  0  3  0  0  0  0  0  0
  -17.2160  -29.3060   23.4200 C   0  0  0  0  0  3  0  0  0  0  0  0
  -17.4230  -28.0610   22.7990 C   0  0  0  0  0  3  0  0  0  0  0  0
  -26.2560  -32.2410   23.8790 C   0  0  0  0  0  3  0  0  0  0  0  0
  -25.7950  -33.5830   24.2570 N   0  0  0  0  0  0  0  0  0  0  0  0
  -26.0360  -34.6970   23.5520 C   0  0  0  0  0  0  0  0  0  0  0  0
  -26.7440  -34.7080   22.5400 O   0  0  0  0  0  0  0  0  0  0  0  0
  -25.1660  -33.6380   25.0450 H   0  0  0  0  0  0  0  0  0  0  0  0
  -24.1320  -36.3060   23.2140 C   0  0  0  0  0  1  0  0  0  0  0  0
  -25.3910  -36.0060   24.0450 C   0  0  0  0  0  3  0  0  0  0  0  0
  -27.4010  -37.0800   24.9600 C   0  0  0  0  0  1  0  0  0  0  0  0
  -26.3060  -37.1670   23.9980 N   0  0  0  0  0  0  0  0  0  0  0  0
  -25.7990  -38.0320   24.1680 H   0  0  0  0  0  0  0  0  0  0  0  0
  -26.7930  -31.4610   25.1420 C   0  0  1  0  0  0  0  0  0  0  0  0
  -25.6830  -31.0330   26.1290 C   0  0  0  0  0  1  0  0  0  0  0  0
  -27.5590  -30.1880   24.7120 C   0  0  0  0  0  1  0  0  0  0  0  0
  -27.8000  -32.3450   25.9150 C   0  0  0  0  0  1  0  0  0  0  0  0
  1  5  1  0
  2  4  1  0
  3  1  2  0
  3  6  1  0
  4  8  1  0
  5 17  1  0
  5  4  2  0
  6  2  2  0
  7  3  1  0
  9 17  1  0
 10 15  1  0
 11 12  1  0
 11 10  1  0
 13 12  1  0
 13 21  1  0
 13 14  1  0
 15  9  1  0
 15 14  1  0
 16  9  2  0
 17 46  1  0
 18 19  2  0
 19 38  1  0
 20 19  1  0
 20 23  1  0
 21 22  1  0
 21 18  1  0
 22 20  2  0
 23 24  1  0
 24 25  2  0
 26 29  1  0
 26 25  1  0
 27 26  2  0
 28 27  1  0
 28 23  2  0
 29 30  1  0
 30 31  1  0
 31 32  2  0
 33 32  1  0
 33 37  1  0
 34 33  2  0
 35 30  2  0
 35 34  1  0
 36 35  1  0
 38 39  1  0
 39 41  1  0
 39 42  1  0
 40 38  2  0
 43 18  1  0
 43 45  1  0
 44 43  1  0
 46 47  1  0
 47 49  1  0
 48 49  2  0
 50  6  1  0
 50 51  1  0
 52 53  1  0
 52 51  1  0
 53 54  1  0
 55 54  1  0
 56 67  2  0
 57 55  1  0
 57 62  1  0
 58 66  1  0
 58 68  1  0
 59 61  1  0
 60 66  1  0
 61 62  2  0
 61 60  1  0
 63 57  2  0
 64 63  1  0
 64 59  2  0
 65 59  1  0
 65 58  1  0
 66 56  1  0
 68 70  2  0
 69 68  1  0
 71 69  1  0
 72 81  2  0
 72 77  1  0
 73 69  1  0
 73 77  1  0
 74 73  1  0
 75 76  1  0
 75 74  1  0
 76 72  1  0
 77 78  2  0
 78 79  1  0
 80 79  2  0
 81 80  1  0
 82 56  1  0
 82 83  1  0
 82 92  1  0
 83 86  1  0
 84 88  1  0
 84 83  1  0
 85 84  2  0
 88 87  1  0
 90 88  1  0
 90 91  1  0
 90 89  1  0
 92 95  1  1
 92 93  1  0
 94 92  1  0
M  ISO  4   9 100  17 100  54 101  55 101
M  END
>  <TORSDO>  (24) 
F 24

>  <SCORE>  (24) 
-8.384

>  <name>  (24) 
23

>  <ligand_id>  (24) 
23

>  <original_smiles>  (24) 
[H]C([H])=C([H])C([H])([H])C([H])([H])N(C(=O)N1C([H])([H])C([H])([H])C([H])([H])C([H])(n2nc(-c3c([H])c([H])c(Oc4c([H])c([H])c(F)c([H])c4F)c([H])c3[H])c(C(=O)N([H])[H])c2N([H])[H])C1([H])[H])c1c([H])c(C([H])([H])[H])c(OC([H])([H])C([H])([H])C([H])([H])C([H])([H])Oc2c([H])c([H])c3c(c2[H])C([H])([H])N(C(=O)C([H])(N([H])C(=O)C([H])(N([H])C([H])([H])[H])C([H])([H])[H])C(C([H])([H])[H])(C([H])([H])[H])C([H])([H])[H])C([H])(C(=O)N([H])C2([H])c4c([H])c([H])c([H])c([H])c4C([H])([H])C([H])([H])C2([H])[H])C3([H])[H])c([H])c1C([H])([H])[H]

>  <smiles>  (24) 
[H]C([H])=C([H])C([H])([H])C([H])([H])N(C(=O)N1C([H])([H])C([H])([H])C([H])([H])C([H])(n2nc(-c3c([H])c([H])c(Oc4c([H])c([H])c(F)c([H])c4F)c([H])c3[H])c(C(=O)N([H])[H])c2N([H])[H])C1([H])[H])c1c([H])c(C([H])([H])[H])c(OC([H])([H])C([H])([H])C([H])([H])C([H])([H])Oc2c([H])c([H])c3c(c2[H])C([H])([H])N(C(=O)C([H])(N([H])C(=O)C([H])(N([H])C([H])([H])[H])C([H])([H])[H])C(C([H])([H])[H])(C([H])([H])[H])C([H])([H])[H])C([H])(C(=O)N([H])C2([H])c4c([H])c([H])c([H])c([H])c4C([H])([H])C([H])([H])C2([H])[H])C3([H])[H])c([H])c1C([H])([H])[H]

$$$$
24:0:0
     RDKit          3D

 99108  0  0  1  0  0  0  0  0999 V2000
  -28.7640  -24.3930   18.4720 C   0  0  0  0  0  3  0  0  0  0  0  0
  -28.2730  -24.1490   19.7130 C   0  0  0  0  0  0  0  0  0  0  0  0
  -28.6550  -23.4910   17.3160 C   0  0  0  0  0  0  0  0  0  0  0  0
  -27.4390  -22.5750   17.2210 C   0  0  0  0  0  2  0  0  0  0  0  0
  -27.5350  -21.3250   18.0990 C   0  0  0  0  0  2  0  0  0  0  0  0
  -27.6510  -22.7850   20.1880 C   0  0  0  0  0  3  0  0  0  0  0  0
  -27.7110  -22.5680   21.7190 C   0  0  0  0  0  1  0  0  0  0  0  0
  -28.0750  -21.5690   19.4380 N   0  0  0  0  0  0  0  0  0  0  0  0
  -29.4830  -23.4920   16.3990 O   0  0  0  0  0  0  0  0  0  0  0  0
  -28.7240  -17.9680   20.4030 C   0  0  0  0  0  3  0  0  0  0  0  0
  -28.0770  -19.1280   19.9120 C   0  0  0  0  0  3  0  0  0  0  0  0
  -29.8990  -20.4990   20.7160 C   0  0  0  0  0  3  0  0  0  0  0  0
  -29.9760  -18.0550   21.0510 C   0  0  0  0  0  0  0  0  0  0  0  0
  -28.6650  -20.4160   20.0350 C   0  0  0  0  0  0  0  0  0  0  0  0
  -30.5400  -19.3470   21.2320 C   0  0  0  0  0  0  0  0  0  0  0  0
  -31.7400  -19.5130   21.9270 N   0  0  0  0  0  0  0  0  0  0  0  0
  -31.9260  -20.4300   22.3210 H   0  0  0  0  0  0  0  0  0  0  0  0
  -32.0480  -18.7660   22.5420 H   0  0  0  0  0  0  0  0  0  0  0  0
  -30.7230  -16.8060   21.5650 C   0  0  0  0  0  2  0  0  0  0  0  0
  -30.9340  -14.5120   20.5320 C   0  0  0  0  0  0  0  0  0  0  0  0
  -30.6710  -12.3490   19.3580 C   0  0  0  0  0  2  0  0  0  0  0  0
  -29.7510  -12.5380   18.1360 C   0  0  0  0  0  2  0  0  0  0  0  0
  -28.2680  -12.4170   18.5420 C   0  0  0  0  0  2  0  0  0  0  0  0
  -27.9140  -13.2710   19.7870 C   0  0  0  0  0  3  0  0  0  0  0  0
  -28.9380  -13.0260   20.9140 C   0  0  0  0  0  2  0  0  0  0  0  0
  -30.2730  -13.3340   20.3760 N   0  0  0  0  0  0  0  0  0  0  0  0
  -32.0570  -14.7150   20.0580 O   0  0  0  0  0  0  0  0  0  0  0  0
  -30.2350  -15.4740   21.1680 N   0  0  0  0  0  0  0  0  0  0  0  0
  -29.3170  -15.2120   21.4950 H   0  0  0  0  0  0  0  0  0  0  0  0
  -25.5150  -13.9120   20.4440 C   0  0  0  0  0  0  0  0  0  0  0  0
  -24.4300  -13.1560   20.7950 C   0  0  0  0  0  0  0  0  0  0  0  0
  -24.8770  -11.7990   20.7820 C   0  0  0  0  0  0  0  0  0  0  0  0
  -26.5500  -13.0150   20.2370 N   0  0  0  0  0  0  0  0  0  0  0  0
  -26.1700  -11.7390   20.4980 N   0  0  0  0  0  0  0  0  0  0  0  0
  -24.1340  -10.5480   20.9710 C   0  0  0  0  0  0  0  0  0  0  0  0
  -24.5190   -9.6010   21.9450 C   0  0  0  0  0  3  0  0  0  0  0  0
  -23.7790   -8.4120   22.1190 C   0  0  0  0  0  3  0  0  0  0  0  0
  -22.6390   -8.1630   21.3160 C   0  0  0  0  0  0  0  0  0  0  0  0
  -22.2730   -9.1010   20.3330 C   0  0  0  0  0  3  0  0  0  0  0  0
  -23.0160  -10.2810   20.1590 C   0  0  0  0  0  3  0  0  0  0  0  0
  -21.8730   -7.0240   21.3950 O   0  0  0  0  0  0  0  0  0  0  0  0
  -21.7390   -6.3280   22.5700 C   0  0  0  0  0  0  0  0  0  0  0  0
  -21.1890   -6.9200   23.7280 C   0  0  0  0  0  3  0  0  0  0  0  0
  -21.0020   -6.1480   24.8920 C   0  0  0  0  0  3  0  0  0  0  0  0
  -21.3560   -4.7860   24.8980 C   0  0  0  0  0  0  0  0  0  0  0  0
  -21.8980   -4.1920   23.7440 C   0  0  0  0  0  3  0  0  0  0  0  0
  -22.0850   -4.9610   22.5820 C   0  0  0  0  0  0  0  0  0  0  0  0
  -22.5860   -4.3800   21.4650 F   0  0  0  0  0  0  0  0  0  0  0  0
  -21.1700   -4.0430   26.0140 F   0  0  0  0  0  0  0  0  0  0  0  0
  -23.0370  -13.6560   21.0400 C   0  0  0  0  0  0  0  0  0  0  0  0
  -22.2860  -12.9680   21.8930 N   0  0  0  0  0  0  0  0  0  0  0  0
  -22.6200  -14.6840   20.5120 O   0  0  0  0  0  0  0  0  0  0  0  0
  -22.6400  -12.1350   22.3390 H   0  0  0  0  0  0  0  0  0  0  0  0
  -21.3460  -13.2740   22.0960 H   0  0  0  0  0  0  0  0  0  0  0  0
  -25.7010  -15.2790   20.2700 N   0  0  0  0  0  0  0  0  0  0  0  0
  -26.5720  -15.7100   19.9930 H   0  0  0  0  0  0  0  0  0  0  0  0
  -24.9430  -15.9450   20.3840 H   0  0  0  0  0  0  0  0  0  0  0  0
  -28.3290  -25.2960   20.7490 C   0  0  0  0  0  2  0  0  0  0  0  0
  -28.5160  -26.6430   20.2230 O   0  0  0  0  0  0  0  0  0  0  0  0
  -24.6290  -31.8740   23.1830 C   0  0  0  0  0  0  0  0  0  0  0  0
  -27.3750  -27.4250   20.1680 C   0  0  0  0  0  0  0  0  0  0  0  0
  -23.4760  -30.4610   21.5120 C   0  0  0  0  0  3  0  0  0  0  0  0
  -24.9790  -28.9360   20.1220 C   0  0  0  0  0  0  0  0  0  0  0  0
  -26.0080  -30.8360   21.3790 C   0  0  0  0  0  2  0  0  0  0  0  0
  -26.1240  -29.4670   20.7310 C   0  0  0  0  0  0  0  0  0  0  0  0
  -27.3300  -28.7210   20.7420 C   0  0  0  0  0  3  0  0  0  0  0  0
  -26.2120  -26.9220   19.5470 C   0  0  0  0  0  3  0  0  0  0  0  0
  -25.0210  -27.6670   19.5260 C   0  0  0  0  0  3  0  0  0  0  0  0
  -23.7280  -29.7870   20.1380 C   0  0  0  0  0  2  0  0  0  0  0  0
  -24.7200  -31.0730   22.0830 N   0  0  0  0  0  0  0  0  0  0  0  0
  -23.5320  -32.1370   23.6960 O   0  0  0  0  0  0  0  0  0  0  0  0
  -22.8110  -29.4340   22.4570 C   0  0  0  0  0  0  0  0  0  0  0  0
  -21.4840  -29.2670   22.3250 N   0  0  0  0  0  0  0  0  0  0  0  0
  -23.4860  -28.7930   23.2670 O   0  0  0  0  0  0  0  0  0  0  0  0
  -21.0020  -29.8360   21.6430 H   0  0  0  0  0  0  0  0  0  0  0  0
  -18.0950  -28.1210   22.8270 C   0  0  0  0  0  0  0  0  0  0  0  0
  -20.6580  -28.3280   23.0830 C   0  0  0  0  0  3  0  0  0  0  0  0
  -20.7290  -26.9070   22.4770 C   0  0  0  0  0  2  0  0  0  0  0  0
  -19.6140  -26.6260   21.4630 C   0  0  0  0  0  2  0  0  0  0  0  0
  -18.2400  -26.7830   22.1210 C   0  0  0  0  0  2  0  0  0  0  0  0
  -19.2310  -28.8530   23.2640 C   0  0  0  0  0  0  0  0  0  0  0  0
  -19.0390  -30.1060   23.8850 C   0  0  0  0  0  3  0  0  0  0  0  0
  -17.7450  -30.6270   24.0750 C   0  0  0  0  0  3  0  0  0  0  0  0
  -16.6240  -29.8910   23.6530 C   0  0  0  0  0  3  0  0  0  0  0  0
  -16.7990  -28.6410   23.0330 C   0  0  0  0  0  3  0  0  0  0  0  0
  -25.8930  -32.5210   23.8300 C   0  0  0  0  0  3  0  0  0  0  0  0
  -26.3930  -31.7550   25.1160 C   0  0  1  0  0  0  0  0  0  0  0  0
  -25.2830  -31.5000   26.1600 C   0  0  0  0  0  1  0  0  0  0  0  0
  -27.0050  -30.3870   24.7360 C   0  0  0  0  0  1  0  0  0  0  0  0
  -27.5160  -32.5650   25.8040 C   0  0  0  0  0  1  0  0  0  0  0  0
  -25.5590  -33.9130   24.1530 N   0  0  0  0  0  0  0  0  0  0  0  0
  -25.8970  -34.9710   23.4010 C   0  0  0  0  0  0  0  0  0  0  0  0
  -26.5880  -34.8760   22.3840 O   0  0  0  0  0  0  0  0  0  0  0  0
  -24.9420  -34.0610   24.9370 H   0  0  0  0  0  0  0  0  0  0  0  0
  -24.1630  -36.7490   23.0020 C   0  0  0  0  0  1  0  0  0  0  0  0
  -25.3830  -36.3530   23.8490 C   0  0  0  0  0  3  0  0  0  0  0  0
  -27.4770  -37.2600   24.7560 C   0  0  0  0  0  1  0  0  0  0  0  0
  -26.4090  -37.4150   23.7720 N   0  0  0  0  0  0  0  0  0  0  0  0
  -25.9880  -38.3310   23.8990 H   0  0  0  0  0  0  0  0  0  0  0  0
  1  2  2  0
  2  6  1  0
  2 58  1  0
  3  1  1  0
  4  3  1  0
  4  5  1  0
  5  8  1  0
  6  7  1  0
  8 14  1  0
  8  6  1  0
  9  3  2  0
 10 13  1  0
 11 14  1  0
 11 10  2  0
 12 15  1  0
 13 15  2  0
 13 19  1  0
 14 12  2  0
 15 16  1  0
 16 17  1  0
 16 18  1  0
 20 28  1  0
 21 26  1  0
 22 23  1  0
 22 21  1  0
 24 23  1  0
 24 33  1  0
 24 25  1  0
 26 20  1  0
 26 25  1  0
 27 20  2  0
 28 29  1  0
 28 19  1  0
 30 31  2  0
 31 50  1  0
 32 31  1  0
 32 35  1  0
 33 30  1  0
 33 34  1  0
 34 32  2  0
 35 36  1  0
 36 37  2  0
 38 41  1  0
 38 37  1  0
 39 38  2  0
 40 39  1  0
 40 35  2  0
 41 42  1  0
 42 47  2  0
 42 43  1  0
 43 44  2  0
 44 45  1  0
 45 49  1  0
 46 45  2  0
 47 46  1  0
 48 47  1  0
 50 51  1  0
 51 54  1  0
 51 53  1  0
 52 50  2  0
 55 57  1  0
 55 30  1  0
 56 55  1  0
 59 58  1  0
 60 71  2  0
 61 59  1  0
 61 66  1  0
 62 70  1  0
 62 72  1  0
 63 69  1  0
 63 65  1  0
 64 70  1  0
 65 66  2  0
 65 64  1  0
 67 61  2  0
 68 67  1  0
 68 63  2  0
 69 62  1  0
 70 60  1  0
 72 74  2  0
 73 72  1  0
 75 73  1  0
 76 85  2  0
 76 81  1  0
 77 73  1  0
 77 81  1  0
 78 77  1  0
 79 80  1  0
 79 78  1  0
 80 76  1  0
 81 82  2  0
 82 83  1  0
 84 83  2  0
 85 84  1  0
 86 60  1  0
 86 91  1  0
 86 87  1  0
 87 90  1  1
 87 88  1  0
 89 87  1  0
 91 94  1  0
 92 96  1  0
 92 91  1  0
 93 92  2  0
 96 95  1  0
 98 96  1  0
 98 99  1  0
 98 97  1  0
M  ISO  4  20 100  28 100  58 101  59 101
M  END
>  <TORSDO>  (25) 
F 20

>  <SCORE>  (25) 
-14.242

>  <name>  (25) 
24

>  <ligand_id>  (25) 
24

>  <original_smiles>  (25) 
[H]C1=C(C([H])([H])Oc2c([H])c([H])c3c(c2[H])C([H])([H])N(C(=O)C([H])(N([H])C(=O)C([H])(N([H])C([H])([H])[H])C([H])([H])[H])C(C([H])([H])[H])(C([H])([H])[H])C([H])([H])[H])C([H])(C(=O)N([H])C2([H])c4c([H])c([H])c([H])c([H])c4C([H])([H])C([H])([H])C2([H])[H])C3([H])[H])C([H])(C([H])([H])[H])N(c2c([H])c([H])c(C([H])([H])N([H])C(=O)N3C([H])([H])C([H])([H])C([H])([H])C([H])(n4nc(-c5c([H])c([H])c(Oc6c([H])c([H])c(F)c([H])c6F)c([H])c5[H])c(C(=O)N([H])[H])c4N([H])[H])C3([H])[H])c(N([H])[H])c2[H])C([H])([H])C([H])([H])C1=O

>  <smiles>  (25) 
[H]C1=C(C([H])([H])Oc2c([H])c([H])c3c(c2[H])C([H])([H])N(C(=O)C([H])(N([H])C(=O)C([H])(N([H])C([H])([H])[H])C([H])([H])[H])C(C([H])([H])[H])(C([H])([H])[H])C([H])([H])[H])C([H])(C(=O)N([H])C2([H])c4c([H])c([H])c([H])c([H])c4C([H])([H])C([H])([H])C2([H])[H])C3([H])[H])C([H])(C([H])([H])[H])N(c2c([H])c([H])c(C([H])([H])N([H])C(=O)N3C([H])([H])C([H])([H])C([H])([H])C([H])(n4nc(-c5c([H])c([H])c(Oc6c([H])c([H])c(F)c([H])c6F)c([H])c5[H])c(C(=O)N([H])[H])c4N([H])[H])C3([H])[H])c(N([H])[H])c2[H])C([H])([H])C([H])([H])C1=O

$$$$
25:0:0
     RDKit          3D

 97105  0  0  1  0  0  0  0  0999 V2000
  -28.5860  -22.7390   20.2690 C   0  0  0  0  0  0  0  0  0  0  0  0
  -29.6310  -21.8440   20.3140 N   0  0  0  0  0  0  0  0  0  0  0  0
  -27.4180  -22.3410   20.2970 O   0  0  0  0  0  0  0  0  0  0  0  0
  -30.5270  -22.3100   20.3870 H   0  0  0  0  0  0  0  0  0  0  0  0
  -28.6930  -19.5490   19.6890 C   0  0  0  0  0  3  0  0  0  0  0  0
  -30.7390  -19.6560   20.9310 C   0  0  0  0  0  3  0  0  0  0  0  0
  -28.7750  -18.1170   19.6640 C   0  0  0  0  0  0  0  0  0  0  0  0
  -29.6610  -20.3660   20.3260 C   0  0  0  0  0  0  0  0  0  0  0  0
  -29.8270  -17.4130   20.3340 C   0  0  0  0  0  0  0  0  0  0  0  0
  -30.8210  -18.2160   20.9660 C   0  0  0  0  0  0  0  0  0  0  0  0
  -30.6080  -14.9080   20.2210 C   0  0  0  0  0  0  0  0  0  0  0  0
  -30.4350  -12.6400   19.1990 C   0  0  0  0  0  2  0  0  0  0  0  0
  -29.4420  -12.7190   18.0170 C   0  0  0  0  0  2  0  0  0  0  0  0
  -27.9910  -12.5220   18.5000 C   0  0  0  0  0  2  0  0  0  0  0  0
  -27.6520  -13.3850   19.7440 C   0  0  0  0  0  3  0  0  0  0  0  0
  -28.7560  -13.2830   20.8200 C   0  0  0  0  0  2  0  0  0  0  0  0
  -30.0300  -13.6610   20.1870 N   0  0  0  0  0  0  0  0  0  0  0  0
  -31.7660  -15.0820   19.8280 O   0  0  0  0  0  0  0  0  0  0  0  0
  -29.7530  -15.9470   20.5010 N   0  0  0  0  0  0  0  0  0  0  0  0
  -28.8260  -15.6160   20.7090 H   0  0  0  0  0  0  0  0  0  0  0  0
  -25.2940  -13.9480   20.5950 C   0  0  0  0  0  0  0  0  0  0  0  0
  -24.2450  -13.1580   20.9760 C   0  0  0  0  0  0  0  0  0  0  0  0
  -24.7080  -11.8110   20.8690 C   0  0  0  0  0  0  0  0  0  0  0  0
  -26.3280  -13.0810   20.2760 N   0  0  0  0  0  0  0  0  0  0  0  0
  -25.9820  -11.7880   20.5020 N   0  0  0  0  0  0  0  0  0  0  0  0
  -23.9910  -10.5410   21.0380 C   0  0  0  0  0  0  0  0  0  0  0  0
  -24.4210   -9.5700   21.9690 C   0  0  0  0  0  3  0  0  0  0  0  0
  -23.7050   -8.3640   22.1280 C   0  0  0  0  0  3  0  0  0  0  0  0
  -22.5460   -8.1210   21.3530 C   0  0  0  0  0  0  0  0  0  0  0  0
  -22.1350   -9.0810   20.4120 C   0  0  0  0  0  3  0  0  0  0  0  0
  -22.8520  -10.2780   20.2510 C   0  0  0  0  0  3  0  0  0  0  0  0
  -21.8010   -6.9680   21.4210 O   0  0  0  0  0  0  0  0  0  0  0  0
  -21.6870   -6.2540   22.5870 C   0  0  0  0  0  0  0  0  0  0  0  0
  -21.1520   -6.8270   23.7620 C   0  0  0  0  0  3  0  0  0  0  0  0
  -20.9870   -6.0370   24.9180 C   0  0  0  0  0  3  0  0  0  0  0  0
  -21.3460   -4.6750   24.8980 C   0  0  0  0  0  0  0  0  0  0  0  0
  -21.8730   -4.1020   23.7270 C   0  0  0  0  0  3  0  0  0  0  0  0
  -22.0400   -4.8900   22.5740 C   0  0  0  0  0  0  0  0  0  0  0  0
  -22.5290   -4.3280   21.4420 F   0  0  0  0  0  0  0  0  0  0  0  0
  -21.1800   -3.9150   26.0050 F   0  0  0  0  0  0  0  0  0  0  0  0
  -22.8600  -13.6200   21.3270 C   0  0  0  0  0  0  0  0  0  0  0  0
  -22.1700  -12.8880   22.1940 N   0  0  0  0  0  0  0  0  0  0  0  0
  -22.3990  -14.6660   20.8680 O   0  0  0  0  0  0  0  0  0  0  0  0
  -22.5570  -12.0420   22.5850 H   0  0  0  0  0  0  0  0  0  0  0  0
  -21.2440  -13.1790   22.4710 H   0  0  0  0  0  0  0  0  0  0  0  0
  -25.4420  -15.3260   20.4740 N   0  0  0  0  0  0  0  0  0  0  0  0
  -24.6650  -15.9550   20.6430 H   0  0  0  0  0  0  0  0  0  0  0  0
  -26.2490  -15.8010   20.0900 H   0  0  0  0  0  0  0  0  0  0  0  0
  -26.4910  -17.7800   18.6670 C   0  0  0  0  0  2  0  0  0  0  0  0
  -27.7350  -17.3570   18.9440 C   0  0  0  0  0  3  0  0  0  0  0  0
  -32.8620  -18.2790   22.2440 C   0  0  0  0  0  1  0  0  0  0  0  0
  -31.8210  -17.5330   21.6300 O   0  0  0  0  0  0  0  0  0  0  0  0
  -27.9990  -25.1990   20.2510 C   0  0  0  0  0  3  0  0  0  0  0  0
  -28.9480  -24.1990   20.1920 C   0  0  0  0  0  0  0  0  0  0  0  0
  -30.2390  -24.5350   20.0500 O   0  0  0  0  0  0  0  0  0  0  0  0
  -30.2720  -25.4830   20.0110 H   0  0  0  0  0  0  0  0  0  0  0  0
  -28.1930  -26.6050   20.1380 O   0  0  0  0  0  0  0  0  0  0  0  0
  -24.5120  -31.9950   23.2860 C   0  0  0  0  0  0  0  0  0  0  0  0
  -27.0780  -27.4690   20.1300 C   0  0  0  0  0  0  0  0  0  0  0  0
  -23.2780  -30.6050   21.6610 C   0  0  0  0  0  3  0  0  0  0  0  0
  -24.7060  -29.0780   20.1850 C   0  0  0  0  0  0  0  0  0  0  0  0
  -25.8120  -30.9350   21.4270 C   0  0  0  0  0  2  0  0  0  0  0  0
  -25.8850  -29.5610   20.7680 C   0  0  0  0  0  0  0  0  0  0  0  0
  -27.0710  -28.7650   20.7380 C   0  0  0  0  0  3  0  0  0  0  0  0
  -25.8820  -27.0580   19.4970 C   0  0  0  0  0  3  0  0  0  0  0  0
  -24.7070  -27.8320   19.5400 C   0  0  0  0  0  3  0  0  0  0  0  0
  -23.4650  -29.9440   20.2700 C   0  0  0  0  0  2  0  0  0  0  0  0
  -24.5530  -31.1960   22.1800 N   0  0  0  0  0  0  0  0  0  0  0  0
  -23.4390  -32.2620   23.8470 O   0  0  0  0  0  0  0  0  0  0  0  0
  -22.6430  -29.5760   22.6260 C   0  0  0  0  0  0  0  0  0  0  0  0
  -21.3230  -29.3600   22.4980 N   0  0  0  0  0  0  0  0  0  0  0  0
  -23.3370  -28.9760   23.4510 O   0  0  0  0  0  0  0  0  0  0  0  0
  -20.8200  -29.8970   21.8060 H   0  0  0  0  0  0  0  0  0  0  0  0
  -17.9880  -28.0390   22.9720 C   0  0  0  0  0  0  0  0  0  0  0  0
  -20.5290  -28.4050   23.2750 C   0  0  0  0  0  3  0  0  0  0  0  0
  -20.6950  -26.9680   22.7270 C   0  0  0  0  0  2  0  0  0  0  0  0
  -19.6230  -26.5840   21.7040 C   0  0  0  0  0  2  0  0  0  0  0  0
  -18.2270  -26.6860   22.3230 C   0  0  0  0  0  2  0  0  0  0  0  0
  -19.0690  -28.8530   23.4040 C   0  0  0  0  0  0  0  0  0  0  0  0
  -18.7920  -30.1160   23.9690 C   0  0  0  0  0  3  0  0  0  0  0  0
  -17.4650  -30.5680   24.1070 C   0  0  0  0  0  3  0  0  0  0  0  0
  -16.3990  -29.7530   23.6900 C   0  0  0  0  0  3  0  0  0  0  0  0
  -16.6610  -28.4910   23.1290 C   0  0  0  0  0  3  0  0  0  0  0  0
  -25.8050  -32.6300   23.8830 C   0  0  0  0  0  3  0  0  0  0  0  0
  -25.4990  -34.0270   24.2250 N   0  0  0  0  0  0  0  0  0  0  0  0
  -25.7940  -35.0820   23.4530 C   0  0  0  0  0  0  0  0  0  0  0  0
  -26.4230  -34.9820   22.3970 O   0  0  0  0  0  0  0  0  0  0  0  0
  -24.9350  -34.1780   25.0480 H   0  0  0  0  0  0  0  0  0  0  0  0
  -24.0310  -36.8560   23.1810 C   0  0  0  0  0  1  0  0  0  0  0  0
  -25.3160  -36.4670   23.9300 C   0  0  0  0  0  3  0  0  0  0  0  0
  -27.4780  -37.3800   24.6520 C   0  0  0  0  0  1  0  0  0  0  0  0
  -26.3300  -37.5310   23.7610 N   0  0  0  0  0  0  0  0  0  0  0  0
  -25.9220  -38.4470   23.9220 H   0  0  0  0  0  0  0  0  0  0  0  0
  -26.3490  -31.8570   25.1480 C   0  0  1  0  0  0  0  0  0  0  0  0
  -25.2740  -31.6020   26.2300 C   0  0  0  0  0  1  0  0  0  0  0  0
  -26.9400  -30.4870   24.7400 C   0  0  0  0  0  1  0  0  0  0  0  0
  -27.5010  -32.6590   25.7960 C   0  0  0  0  0  1  0  0  0  0  0  0
  1  3  2  0
  1  2  1  0
  2  8  1  0
  2  4  1  0
  5  8  1  0
  6 10  1  0
  7  5  2  0
  7  9  1  0
  8  6  2  0
  9 19  1  0
  9 10  2  0
 10 52  1  0
 11 19  1  0
 12 17  1  0
 13 14  1  0
 13 12  1  0
 15 14  1  0
 15 24  1  0
 15 16  1  0
 17 11  1  0
 17 16  1  0
 18 11  2  0
 19 20  1  0
 21 22  2  0
 22 41  1  0
 23 22  1  0
 23 26  1  0
 24 25  1  0
 24 21  1  0
 25 23  2  0
 26 27  1  0
 27 28  2  0
 29 32  1  0
 29 28  1  0
 30 29  2  0
 31 30  1  0
 31 26  2  0
 32 33  1  0
 33 34  1  0
 34 35  2  0
 36 35  1  0
 36 40  1  0
 37 36  2  0
 38 33  2  0
 38 37  1  0
 39 38  1  0
 41 42  1  0
 42 45  1  0
 42 44  1  0
 43 41  2  0
 46 21  1  0
 46 47  1  0
 48 46  1  0
 49 50  2  0
 50  7  1  0
 52 51  1  0
 54 53  2  0
 54  1  1  0
 55 54  1  0
 56 55  1  0
 57 53  1  0
 58 69  2  0
 59 57  1  0
 59 64  1  0
 60 68  1  0
 60 70  1  0
 61 67  1  0
 61 63  1  0
 62 68  1  0
 63 62  1  0
 64 63  2  0
 65 66  1  0
 65 59  2  0
 66 61  2  0
 67 60  1  0
 68 58  1  0
 70 72  2  0
 71 70  1  0
 73 71  1  0
 74 83  2  0
 74 79  1  0
 75 71  1  0
 75 79  1  0
 76 75  1  0
 77 78  1  0
 77 76  1  0
 78 74  1  0
 79 80  2  0
 80 81  1  0
 82 81  2  0
 83 82  1  0
 84 58  1  0
 84 85  1  0
 84 94  1  0
 85 88  1  0
 86 90  1  0
 86 85  1  0
 87 86  2  0
 90 89  1  0
 92 93  1  0
 92 90  1  0
 92 91  1  0
 94 97  1  1
 94 95  1  0
 96 94  1  0
M  ISO  4  11 100  19 100  53 101  57 101
M  END
>  <TORSDO>  (26) 
F 21

>  <SCORE>  (26) 
-11.955

>  <name>  (26) 
25

>  <ligand_id>  (26) 
25

>  <original_smiles>  (26) 
[H]OC(C(=O)N([H])c1c([H])c(OC([H])([H])[H])c(N([H])C(=O)N2C([H])([H])C([H])([H])C([H])([H])C([H])(n3nc(-c4c([H])c([H])c(Oc5c([H])c([H])c(F)c([H])c5F)c([H])c4[H])c(C(=O)N([H])[H])c3N([H])[H])C2([H])[H])c(C([H])=C([H])[H])c1[H])=C([H])Oc1c([H])c([H])c2c(c1[H])C([H])([H])N(C(=O)C([H])(N([H])C(=O)C([H])(N([H])C([H])([H])[H])C([H])([H])[H])C(C([H])([H])[H])(C([H])([H])[H])C([H])([H])[H])C([H])(C(=O)N([H])C1([H])c3c([H])c([H])c([H])c([H])c3C([H])([H])C([H])([H])C1([H])[H])C2([H])[H]

>  <smiles>  (26) 
[H]OC(C(=O)N([H])c1c([H])c(OC([H])([H])[H])c(N([H])C(=O)N2C([H])([H])C([H])([H])C([H])([H])C([H])(n3nc(-c4c([H])c([H])c(Oc5c([H])c([H])c(F)c([H])c5F)c([H])c4[H])c(C(=O)N([H])[H])c3N([H])[H])C2([H])[H])c(C([H])=C([H])[H])c1[H])=C([H])Oc1c([H])c([H])c2c(c1[H])C([H])([H])N(C(=O)C([H])(N([H])C(=O)C([H])(N([H])C([H])([H])[H])C([H])([H])[H])C(C([H])([H])[H])(C([H])([H])[H])C([H])([H])[H])C([H])(C(=O)N([H])C1([H])c3c([H])c([H])c([H])c([H])c3C([H])([H])C([H])([H])C1([H])[H])C2([H])[H]

$$$$
26:0:0
     RDKit          3D

 95103  0  0  1  0  0  0  0  0999 V2000
  -30.4090  -18.9350   22.5400 C   0  0  0  0  0  3  0  0  0  0  0  0
  -29.7580  -18.8790   19.8680 C   0  0  0  0  0  3  0  0  0  0  0  0
  -30.4180  -17.6770   21.8790 C   0  0  0  0  0  0  0  0  0  0  0  0
  -30.0930  -17.6090   20.4930 C   0  0  0  0  0  0  0  0  0  0  0  0
  -30.0590  -20.1570   21.9090 C   0  0  0  0  0  0  0  0  0  0  0  0
  -29.7090  -20.1550   20.5390 C   0  0  0  0  0  0  0  0  0  0  0  0
  -29.9070  -16.2760   19.7160 C   0  0  0  0  0  0  0  0  0  0  0  0
  -29.0590  -16.3130   18.7750 N   0  0  0  0  0  0  0  0  0  0  0  0
  -28.6070  -17.2170   18.7280 H   0  0  0  0  0  0  0  0  0  0  0  0
  -30.7730  -14.9430   19.9260 C   0  0  0  0  0  0  0  0  0  0  0  0
  -30.4990  -12.6590   18.9540 C   0  0  0  0  0  2  0  0  0  0  0  0
  -29.5140  -12.7250   17.7640 C   0  0  0  0  0  2  0  0  0  0  0  0
  -28.0630  -12.5350   18.2500 C   0  0  0  0  0  2  0  0  0  0  0  0
  -27.7240  -13.4400   19.4580 C   0  0  0  0  0  3  0  0  0  0  0  0
  -28.8300  -13.4080   20.5350 C   0  0  0  0  0  2  0  0  0  0  0  0
  -30.1140  -13.7310   19.8960 N   0  0  0  0  0  0  0  0  0  0  0  0
  -31.9840  -15.0000   19.7010 O   0  0  0  0  0  0  0  0  0  0  0  0
  -25.3990  -14.0860   20.3070 C   0  0  0  0  0  0  0  0  0  0  0  0
  -24.3330  -13.3300   20.7140 C   0  0  0  0  0  0  0  0  0  0  0  0
  -24.7710  -11.9720   20.6560 C   0  0  0  0  0  0  0  0  0  0  0  0
  -26.4070  -13.1820   20.0150 N   0  0  0  0  0  0  0  0  0  0  0  0
  -26.0440  -11.9080   20.2930 N   0  0  0  0  0  0  0  0  0  0  0  0
  -24.0350  -10.7210   20.8630 C   0  0  0  0  0  0  0  0  0  0  0  0
  -24.4620   -9.7630   21.8070 C   0  0  0  0  0  3  0  0  0  0  0  0
  -23.7270   -8.5750   22.0000 C   0  0  0  0  0  3  0  0  0  0  0  0
  -22.5520   -8.3370   21.2480 C   0  0  0  0  0  0  0  0  0  0  0  0
  -22.1470   -9.2850   20.2900 C   0  0  0  0  0  3  0  0  0  0  0  0
  -22.8820  -10.4640   20.0960 C   0  0  0  0  0  3  0  0  0  0  0  0
  -21.7880   -7.2010   21.3500 O   0  0  0  0  0  0  0  0  0  0  0  0
  -21.6860   -6.5080   22.5300 C   0  0  0  0  0  0  0  0  0  0  0  0
  -21.2250   -7.1200   23.7160 C   0  0  0  0  0  3  0  0  0  0  0  0
  -21.0690   -6.3530   24.8870 C   0  0  0  0  0  3  0  0  0  0  0  0
  -21.3640   -4.9760   24.8740 C   0  0  0  0  0  0  0  0  0  0  0  0
  -21.8200   -4.3660   23.6930 C   0  0  0  0  0  3  0  0  0  0  0  0
  -21.9780   -5.1300   22.5240 C   0  0  0  0  0  0  0  0  0  0  0  0
  -22.3960   -4.5320   21.3830 F   0  0  0  0  0  0  0  0  0  0  0  0
  -21.2060   -4.2380   25.9980 F   0  0  0  0  0  0  0  0  0  0  0  0
  -22.9570  -13.8310   21.0400 C   0  0  0  0  0  0  0  0  0  0  0  0
  -22.2550  -13.1450   21.9350 N   0  0  0  0  0  0  0  0  0  0  0  0
  -22.5130  -14.8610   20.5360 O   0  0  0  0  0  0  0  0  0  0  0  0
  -22.6290  -12.3090   22.3600 H   0  0  0  0  0  0  0  0  0  0  0  0
  -21.3320  -13.4600   22.2000 H   0  0  0  0  0  0  0  0  0  0  0  0
  -25.5870  -15.4540   20.1330 N   0  0  0  0  0  0  0  0  0  0  0  0
  -24.8460  -16.1330   20.2730 H   0  0  0  0  0  0  0  0  0  0  0  0
  -26.4330  -15.8580   19.7490 H   0  0  0  0  0  0  0  0  0  0  0  0
  -30.7700  -16.4800   22.6760 C   0  0  0  0  0  3  0  0  0  0  0  0
  -31.7650  -16.3910   23.5790 C   0  0  0  0  0  3  0  0  0  0  0  0
  -32.0660  -15.1500   24.3920 C   0  0  0  0  0  1  0  0  0  0  0  0
  -30.4230  -21.3980   23.9440 C   0  0  0  0  0  1  0  0  0  0  0  0
  -30.0870  -21.3730   22.5620 O   0  0  0  0  0  0  0  0  0  0  0  0
  -29.4360  -21.3630   19.8450 O   0  0  0  0  0  0  0  0  0  0  0  0
  -28.5960  -22.4600   20.3860 C   0  0  0  0  0  2  0  0  0  0  0  0
  -29.0790  -23.9910   20.2560 C   0  0  0  0  0  3  0  0  0  0  0  0
  -27.9480  -25.1250   20.1500 C   0  0  0  0  0  3  0  0  0  0  0  0
  -28.2370  -26.5920   20.1630 O   0  0  0  0  0  0  0  0  0  0  0  0
  -24.6540  -31.9980   23.3980 C   0  0  0  0  0  0  0  0  0  0  0  0
  -27.1370  -27.4780   20.1570 C   0  0  0  0  0  0  0  0  0  0  0  0
  -23.3920  -30.6520   21.7580 C   0  0  0  0  0  3  0  0  0  0  0  0
  -24.7900  -29.1300   20.2500 C   0  0  0  0  0  0  0  0  0  0  0  0
  -25.9320  -30.9480   21.5150 C   0  0  0  0  0  2  0  0  0  0  0  0
  -25.9810  -29.5850   20.8300 C   0  0  0  0  0  0  0  0  0  0  0  0
  -27.1580  -28.7730   20.7730 C   0  0  0  0  0  3  0  0  0  0  0  0
  -25.9190  -27.0900   19.5490 C   0  0  0  0  0  3  0  0  0  0  0  0
  -24.7640  -27.8900   19.5980 C   0  0  0  0  0  3  0  0  0  0  0  0
  -23.5620  -30.0130   20.3550 C   0  0  0  0  0  2  0  0  0  0  0  0
  -24.6800  -31.2140   22.2800 N   0  0  0  0  0  0  0  0  0  0  0  0
  -23.5880  -32.2720   23.9700 O   0  0  0  0  0  0  0  0  0  0  0  0
  -22.7450  -29.6180   22.7090 C   0  0  0  0  0  0  0  0  0  0  0  0
  -21.4310  -29.3840   22.5490 N   0  0  0  0  0  0  0  0  0  0  0  0
  -23.4260  -29.0260   23.5510 O   0  0  0  0  0  0  0  0  0  0  0  0
  -20.9390  -29.9150   21.8430 H   0  0  0  0  0  0  0  0  0  0  0  0
  -18.1190  -27.9700   22.8900 C   0  0  0  0  0  0  0  0  0  0  0  0
  -20.6300  -28.4220   23.3070 C   0  0  0  0  0  3  0  0  0  0  0  0
  -20.8680  -26.9790   22.8020 C   0  0  0  0  0  2  0  0  0  0  0  0
  -19.8580  -26.5400   21.7360 C   0  0  0  0  0  2  0  0  0  0  0  0
  -18.4310  -26.6110   22.2860 C   0  0  0  0  0  2  0  0  0  0  0  0
  -19.1520  -28.8270   23.3550 C   0  0  0  0  0  0  0  0  0  0  0  0
  -18.8090  -30.0930   23.8760 C   0  0  0  0  0  3  0  0  0  0  0  0
  -17.4640  -30.5050   23.9390 C   0  0  0  0  0  3  0  0  0  0  0  0
  -16.4440  -29.6480   23.4910 C   0  0  0  0  0  3  0  0  0  0  0  0
  -16.7720  -28.3830   22.9720 C   0  0  0  0  0  3  0  0  0  0  0  0
  -25.9590  -32.6030   24.0000 C   0  0  0  0  0  3  0  0  0  0  0  0
  -25.6770  -34.0010   24.3580 N   0  0  0  0  0  0  0  0  0  0  0  0
  -26.0260  -35.0610   23.6190 C   0  0  0  0  0  0  0  0  0  0  0  0
  -26.6890  -34.9650   22.5820 O   0  0  0  0  0  0  0  0  0  0  0  0
  -25.0880  -34.1510   25.1650 H   0  0  0  0  0  0  0  0  0  0  0  0
  -24.3310  -36.8950   23.3050 C   0  0  0  0  0  1  0  0  0  0  0  0
  -25.5670  -36.4510   24.1040 C   0  0  0  0  0  3  0  0  0  0  0  0
  -27.7270  -37.2710   24.9370 C   0  0  0  0  0  1  0  0  0  0  0  0
  -26.6190  -37.4860   24.0080 N   0  0  0  0  0  0  0  0  0  0  0  0
  -26.2330  -38.4100   24.1870 H   0  0  0  0  0  0  0  0  0  0  0  0
  -26.4910  -31.8060   25.2540 C   0  0  1  0  0  0  0  0  0  0  0  0
  -25.4140  -31.5480   26.3320 C   0  0  0  0  0  1  0  0  0  0  0  0
  -27.0660  -30.4350   24.8280 C   0  0  0  0  0  1  0  0  0  0  0  0
  -27.6540  -32.5840   25.9140 C   0  0  0  0  0  1  0  0  0  0  0  0
  2  4  2  0
  2  6  1  0
  3  1  2  0
  3 46  1  0
  4  3  1  0
  5  1  1  0
  5 50  1  0
  6  5  2  0
  7 10  1  0
  7  4  1  0
  8  7  2  0
  9  8  1  0
 11 16  1  0
 12 13  1  0
 12 11  1  0
 14 13  1  0
 14 21  1  0
 14 15  1  0
 16 10  1  0
 16 15  1  0
 17 10  2  0
 18 19  2  0
 19 38  1  0
 20 19  1  0
 20 23  1  0
 21 22  1  0
 21 18  1  0
 22 20  2  0
 23 24  1  0
 24 25  2  0
 26 29  1  0
 26 25  1  0
 27 26  2  0
 28 27  1  0
 28 23  2  0
 29 30  1  0
 30 31  1  0
 31 32  2  0
 33 32  1  0
 33 37  1  0
 34 33  2  0
 35 30  2  0
 35 34  1  0
 36 35  1  0
 38 39  1  0
 39 42  1  0
 39 41  1  0
 40 38  2  0
 43 44  1  0
 43 18  1  0
 45 43  1  0
 46 47  2  0
 47 48  1  0
 50 49  1  0
 51 52  1  0
 51  6  1  0
 53 52  1  0
 54 55  1  0
 54 53  2  0
 56 67  2  0
 57 55  1  0
 57 62  1  0
 58 66  1  0
 58 68  1  0
 59 65  1  0
 59 61  1  0
 60 66  1  0
 61 60  1  0
 62 61  2  0
 63 64  1  0
 63 57  2  0
 64 59  2  0
 65 58  1  0
 66 56  1  0
 68 70  2  0
 69 68  1  0
 71 69  1  0
 72 81  2  0
 72 77  1  0
 73 69  1  0
 73 77  1  0
 74 73  1  0
 75 76  1  0
 75 74  1  0
 76 72  1  0
 77 78  2  0
 78 79  1  0
 80 79  2  0
 81 80  1  0
 82 56  1  0
 82 83  1  0
 82 92  1  0
 83 86  1  0
 84 88  1  0
 84 83  1  0
 85 84  2  0
 88 87  1  0
 90 88  1  0
 90 91  1  0
 90 89  1  0
 92 95  1  1
 92 93  1  0
 94 92  1  0
M  ISO  4   7 100  10 100  54 101  55 101
M  END
>  <TORSDO>  (27) 
F 23

>  <SCORE>  (27) 
-5.243

>  <name>  (27) 
26

>  <ligand_id>  (27) 
26

>  <original_smiles>  (27) 
[H]N=C(C(=O)N1C([H])([H])C([H])([H])C([H])([H])C([H])(n2nc(-c3c([H])c([H])c(Oc4c([H])c([H])c(F)c([H])c4F)c([H])c3[H])c(C(=O)N([H])[H])c2N([H])[H])C1([H])[H])c1c([H])c(OC([H])([H])C([H])([H])C([H])([H])Oc2c([H])c([H])c3c(c2[H])C([H])([H])N(C(=O)C([H])(N([H])C(=O)C([H])(N([H])C([H])([H])[H])C([H])([H])[H])C(C([H])([H])[H])(C([H])([H])[H])C([H])([H])[H])C([H])(C(=O)N([H])C2([H])c4c([H])c([H])c([H])c([H])c4C([H])([H])C([H])([H])C2([H])[H])C3([H])[H])c(OC([H])([H])[H])c([H])c1C([H])=C([H])C([H])([H])[H]

>  <smiles>  (27) 
[H]N=C(C(=O)N1C([H])([H])C([H])([H])C([H])([H])C([H])(n2nc(-c3c([H])c([H])c(Oc4c([H])c([H])c(F)c([H])c4F)c([H])c3[H])c(C(=O)N([H])[H])c2N([H])[H])C1([H])[H])c1c([H])c(OC([H])([H])C([H])([H])C([H])([H])Oc2c([H])c([H])c3c(c2[H])C([H])([H])N(C(=O)C([H])(N([H])C(=O)C([H])(N([H])C([H])([H])[H])C([H])([H])[H])C(C([H])([H])[H])(C([H])([H])[H])C([H])([H])[H])C([H])(C(=O)N([H])C2([H])c4c([H])c([H])c([H])c([H])c4C([H])([H])C([H])([H])C2([H])[H])C3([H])[H])c(OC([H])([H])[H])c([H])c1C([H])=C([H])C([H])([H])[H]

$$$$
27:0:0
     RDKit          3D

 93101  0  0  1  0  0  0  0  0999 V2000
  -29.2920  -21.0990   19.3770 N   0  0  0  0  0  0  0  0  0  0  0  0
  -29.0170  -21.3990   18.4430 H   0  0  0  0  0  0  0  0  0  0  0  0
  -30.1190  -19.1480   20.7460 C   0  0  0  0  0  3  0  0  0  0  0  0
  -29.2030  -18.7430   18.5740 C   0  0  0  0  0  3  0  0  0  0  0  0
  -30.3470  -17.7460   20.8900 C   0  0  0  0  0  3  0  0  0  0  0  0
  -29.4130  -17.3330   18.7260 C   0  0  0  0  0  3  0  0  0  0  0  0
  -29.5320  -19.6950   19.5820 C   0  0  0  0  0  0  0  0  0  0  0  0
  -29.9830  -16.7750   19.9030 C   0  0  0  0  0  0  0  0  0  0  0  0
  -30.4420  -14.3620   19.1750 C   0  0  0  0  0  0  0  0  0  0  0  0
  -29.7820  -12.3040   17.9050 C   0  0  0  0  0  2  0  0  0  0  0  0
  -28.5850  -12.5990   16.9740 C   0  0  0  0  0  2  0  0  0  0  0  0
  -27.2460  -12.4510   17.7240 C   0  0  0  0  0  2  0  0  0  0  0  0
  -27.2560  -13.1770   19.0940 C   0  0  0  0  0  3  0  0  0  0  0  0
  -28.5250  -12.8160   19.8870 C   0  0  0  0  0  2  0  0  0  0  0  0
  -29.6910  -13.2060   19.0770 N   0  0  0  0  0  0  0  0  0  0  0  0
  -31.3770  -14.5550   18.3900 O   0  0  0  0  0  0  0  0  0  0  0  0
  -30.1250  -15.3110   20.1390 N   0  0  0  0  0  0  0  0  0  0  0  0
  -25.1390  -13.8070   20.4050 C   0  0  0  0  0  0  0  0  0  0  0  0
  -24.1470  -13.0470   20.9640 C   0  0  0  0  0  0  0  0  0  0  0  0
  -24.5110  -11.6860   20.7270 C   0  0  0  0  0  0  0  0  0  0  0  0
  -26.0440  -12.9090   19.8640 N   0  0  0  0  0  0  0  0  0  0  0  0
  -25.6860  -11.6240   20.1140 N   0  0  0  0  0  0  0  0  0  0  0  0
  -23.7800  -10.4410   20.9960 C   0  0  0  0  0  0  0  0  0  0  0  0
  -24.3060   -9.4440   21.8470 C   0  0  0  0  0  3  0  0  0  0  0  0
  -23.5760   -8.2630   22.1050 C   0  0  0  0  0  3  0  0  0  0  0  0
  -22.3050   -8.0730   21.5130 C   0  0  0  0  0  0  0  0  0  0  0  0
  -21.7960   -9.0580   20.6490 C   0  0  0  0  0  3  0  0  0  0  0  0
  -22.5260  -10.2300   20.3890 C   0  0  0  0  0  3  0  0  0  0  0  0
  -21.5360   -6.9480   21.6850 O   0  0  0  0  0  0  0  0  0  0  0  0
  -21.5740   -6.2190   22.8470 C   0  0  0  0  0  0  0  0  0  0  0  0
  -21.2730   -6.7980   24.0990 C   0  0  0  0  0  3  0  0  0  0  0  0
  -21.2560   -5.9980   25.2600 C   0  0  0  0  0  3  0  0  0  0  0  0
  -21.5300   -4.6210   25.1690 C   0  0  0  0  0  0  0  0  0  0  0  0
  -21.8250   -4.0410   23.9220 C   0  0  0  0  0  3  0  0  0  0  0  0
  -21.8430   -4.8390   22.7640 C   0  0  0  0  0  0  0  0  0  0  0  0
  -22.1060   -4.2720   21.5630 F   0  0  0  0  0  0  0  0  0  0  0  0
  -21.5070   -3.8490   26.2810 F   0  0  0  0  0  0  0  0  0  0  0  0
  -22.8820  -13.5530   21.5960 C   0  0  0  0  0  0  0  0  0  0  0  0
  -22.3690  -12.8430   22.5940 N   0  0  0  0  0  0  0  0  0  0  0  0
  -22.3650  -14.6100   21.2370 O   0  0  0  0  0  0  0  0  0  0  0  0
  -22.8030  -11.9840   22.9010 H   0  0  0  0  0  0  0  0  0  0  0  0
  -21.5310  -13.1620   23.0600 H   0  0  0  0  0  0  0  0  0  0  0  0
  -25.3340  -15.1800   20.2910 N   0  0  0  0  0  0  0  0  0  0  0  0
  -24.6610  -15.8560   20.6340 H   0  0  0  0  0  0  0  0  0  0  0  0
  -26.1210  -15.6080   19.8200 H   0  0  0  0  0  0  0  0  0  0  0  0
  -30.3830  -14.8780   21.5330 C   0  0  0  0  0  2  0  0  0  0  0  0
  -29.2330  -13.3630   23.2410 C   0  0  0  0  0  1  0  0  0  0  0  0
  -29.0920  -14.5950   22.3420 C   0  0  0  0  0  2  0  0  0  0  0  0
  -29.1300  -22.1680   20.4230 C   0  0  0  0  0  2  0  0  0  0  0  0
  -29.0960  -23.6810   19.9320 C   0  0  0  0  0  0  0  0  0  0  0  0
  -29.5490  -23.9650   18.8170 O   0  0  0  0  0  0  0  0  0  0  0  0
  -28.4650  -24.8110   20.8490 C   0  0  0  0  0  2  0  0  0  0  0  0
  -28.6890  -26.2270   20.4570 O   0  0  0  0  0  0  0  0  0  0  0  0
  -24.3860  -31.5870   22.7100 C   0  0  0  0  0  0  0  0  0  0  0  0
  -27.5480  -27.0160   20.2670 C   0  0  0  0  0  0  0  0  0  0  0  0
  -23.4550  -30.0490   21.0160 C   0  0  0  0  0  3  0  0  0  0  0  0
  -25.1370  -28.4970   19.8730 C   0  0  0  0  0  0  0  0  0  0  0  0
  -25.9810  -30.4850   21.1260 C   0  0  0  0  0  2  0  0  0  0  0  0
  -26.2000  -29.0790   20.5760 C   0  0  0  0  0  0  0  0  0  0  0  0
  -27.4140  -28.3520   20.7590 C   0  0  0  0  0  3  0  0  0  0  0  0
  -26.4660  -26.4800   19.5400 C   0  0  0  0  0  3  0  0  0  0  0  0
  -25.2720  -27.2020   19.3460 C   0  0  0  0  0  3  0  0  0  0  0  0
  -23.8680  -29.3110   19.7150 C   0  0  0  0  0  2  0  0  0  0  0  0
  -24.6180  -30.7270   21.6750 N   0  0  0  0  0  0  0  0  0  0  0  0
  -23.2330  -31.8400   23.0910 O   0  0  0  0  0  0  0  0  0  0  0  0
  -22.7180  -29.0550   21.9440 C   0  0  0  0  0  0  0  0  0  0  0  0
  -21.4040  -28.8840   21.7250 N   0  0  0  0  0  0  0  0  0  0  0  0
  -23.3320  -28.4380   22.8190 O   0  0  0  0  0  0  0  0  0  0  0  0
  -20.9710  -29.4330   20.9960 H   0  0  0  0  0  0  0  0  0  0  0  0
  -17.9660  -27.8230   22.1020 C   0  0  0  0  0  0  0  0  0  0  0  0
  -20.5240  -27.9660   22.4500 C   0  0  0  0  0  3  0  0  0  0  0  0
  -20.5830  -26.5440   21.8450 C   0  0  0  0  0  2  0  0  0  0  0  0
  -19.4990  -26.2910   20.7920 C   0  0  0  0  0  2  0  0  0  0  0  0
  -18.1060  -26.4820   21.4000 C   0  0  0  0  0  2  0  0  0  0  0  0
  -19.1040  -28.5260   22.5810 C   0  0  0  0  0  0  0  0  0  0  0  0
  -18.9200  -29.7840   23.1960 C   0  0  0  0  0  3  0  0  0  0  0  0
  -17.6330  -30.3370   23.3360 C   0  0  0  0  0  3  0  0  0  0  0  0
  -16.5100  -29.6290   22.8730 C   0  0  0  0  0  3  0  0  0  0  0  0
  -16.6780  -28.3730   22.2620 C   0  0  0  0  0  3  0  0  0  0  0  0
  -25.5530  -32.3100   23.4500 C   0  0  0  0  0  3  0  0  0  0  0  0
  -25.0880  -33.6590   23.8020 N   0  0  0  0  0  0  0  0  0  0  0  0
  -25.3560  -34.7660   23.0960 C   0  0  0  0  0  0  0  0  0  0  0  0
  -26.0880  -34.7650   22.1040 O   0  0  0  0  0  0  0  0  0  0  0  0
  -24.4380  -33.7270   24.5720 H   0  0  0  0  0  0  0  0  0  0  0  0
  -23.4740  -36.3880   22.7040 C   0  0  0  0  0  1  0  0  0  0  0  0
  -24.7080  -36.0840   23.5660 C   0  0  0  0  0  3  0  0  0  0  0  0
  -26.7000  -37.1500   24.5290 C   0  0  0  0  0  1  0  0  0  0  0  0
  -25.6340  -37.2370   23.5350 N   0  0  0  0  0  0  0  0  0  0  0  0
  -25.1290  -38.1070   23.6870 H   0  0  0  0  0  0  0  0  0  0  0  0
  -26.0460  -31.5400   24.7360 C   0  0  1  0  0  0  0  0  0  0  0  0
  -24.8980  -31.1000   25.6760 C   0  0  0  0  0  1  0  0  0  0  0  0
  -26.8440  -30.2750   24.3440 C   0  0  0  0  0  1  0  0  0  0  0  0
  -27.0100  -32.4360   25.5480 C   0  0  0  0  0  1  0  0  0  0  0  0
  1  7  1  0
  1 49  1  0
  2  1  1  0
  3  5  1  0
  4  6  2  0
  4  7  1  0
  6  8  1  0
  7  3  2  0
  8 17  1  0
  8  5  2  0
  9 17  1  0
 10 15  1  0
 11 12  1  0
 11 10  1  0
 13 12  1  0
 13 21  1  0
 13 14  1  0
 15  9  1  0
 15 14  1  0
 16  9  2  0
 17 46  1  0
 18 19  2  0
 19 38  1  0
 20 19  1  0
 20 23  1  0
 21 22  1  0
 21 18  1  0
 22 20  2  0
 23 24  1  0
 24 25  2  0
 26 29  1  0
 26 25  1  0
 27 26  2  0
 28 27  1  0
 28 23  2  0
 29 30  1  0
 30 31  1  0
 31 32  2  0
 33 32  1  0
 33 37  1  0
 34 33  2  0
 35 30  2  0
 35 34  1  0
 36 35  1  0
 38 39  1  0
 39 41  1  0
 39 42  1  0
 40 38  2  0
 43 18  1  0
 43 44  1  0
 45 43  1  0
 46 48  1  0
 48 47  1  0
 50 49  1  0
 50 52  1  0
 51 50  2  0
 53 52  1  0
 54 65  2  0
 55 53  1  0
 55 60  1  0
 56 64  1  0
 56 66  1  0
 57 59  1  0
 58 64  1  0
 59 60  2  0
 59 58  1  0
 61 55  2  0
 62 61  1  0
 62 57  2  0
 63 57  1  0
 63 56  1  0
 64 54  1  0
 66 68  2  0
 67 66  1  0
 69 67  1  0
 70 79  2  0
 70 75  1  0
 71 67  1  0
 71 75  1  0
 72 71  1  0
 73 74  1  0
 73 72  1  0
 74 70  1  0
 75 76  2  0
 76 77  1  0
 78 77  2  0
 79 78  1  0
 80 54  1  0
 80 81  1  0
 80 90  1  0
 81 84  1  0
 82 86  1  0
 82 81  1  0
 83 82  2  0
 86 85  1  0
 88 86  1  0
 88 89  1  0
 88 87  1  0
 90 93  1  1
 90 91  1  0
 92 90  1  0
M  ISO  4   9 100  17 100  52 101  53 101
M  END
>  <TORSDO>  (28) 
F 22

>  <SCORE>  (28) 
-3.744

>  <name>  (28) 
27

>  <ligand_id>  (28) 
27

>  <original_smiles>  (28) 
[H]c1c([H])c([H])c2c(c1[H])C([H])([H])C([H])([H])C([H])([H])C2([H])N([H])C(=O)C1([H])N(C(=O)C([H])(N([H])C(=O)C([H])(N([H])C([H])([H])[H])C([H])([H])[H])C(C([H])([H])[H])(C([H])([H])[H])C([H])([H])[H])C([H])([H])c2c([H])c(OC([H])([H])C(=O)C([H])([H])N([H])c3c([H])c([H])c(N(C(=O)N4C([H])([H])C([H])([H])C([H])([H])C([H])(n5nc(-c6c([H])c([H])c(Oc7c([H])c([H])c(F)c([H])c7F)c([H])c6[H])c(C(=O)N([H])[H])c5N([H])[H])C4([H])[H])C([H])([H])C([H])([H])C([H])([H])[H])c([H])c3[H])c([H])c([H])c2C1([H])[H]

>  <smiles>  (28) 
[H]c1c([H])c([H])c2c(c1[H])C([H])([H])C([H])([H])C([H])([H])C2([H])N([H])C(=O)C1([H])N(C(=O)C([H])(N([H])C(=O)C([H])(N([H])C([H])([H])[H])C([H])([H])[H])C(C([H])([H])[H])(C([H])([H])[H])C([H])([H])[H])C([H])([H])c2c([H])c(OC([H])([H])C(=O)C([H])([H])N([H])c3c([H])c([H])c(N(C(=O)N4C([H])([H])C([H])([H])C([H])([H])C([H])(n5nc(-c6c([H])c([H])c(Oc7c([H])c([H])c(F)c([H])c7F)c([H])c6[H])c(C(=O)N([H])[H])c5N([H])[H])C4([H])[H])C([H])([H])C([H])([H])C([H])([H])[H])c([H])c3[H])c([H])c([H])c2C1([H])[H]

$$$$
28:0:0
     RDKit          3D

 98107  0  0  1  0  0  0  0  0999 V2000
  -30.2720  -19.6190   21.3070 C   0  0  0  0  0  3  0  0  0  0  0  0
  -29.6950  -17.7230   19.8730 C   0  0  0  0  0  3  0  0  0  0  0  0
  -31.0120  -18.7690   22.1550 C   0  0  0  0  0  0  0  0  0  0  0  0
  -29.5980  -19.1260   20.1730 C   0  0  0  0  0  0  0  0  0  0  0  0
  -30.4230  -16.8370   20.7310 C   0  0  0  0  0  0  0  0  0  0  0  0
  -31.0450  -17.3770   21.8820 C   0  0  0  0  0  0  0  0  0  0  0  0
  -31.1960  -14.4890   19.8930 C   0  0  0  0  0  0  0  0  0  0  0  0
  -30.9310  -12.2370   18.8640 C   0  0  0  0  0  2  0  0  0  0  0  0
  -29.9130  -12.3370   17.7050 C   0  0  0  0  0  2  0  0  0  0  0  0
  -28.4600  -12.2290   18.2130 C   0  0  0  0  0  2  0  0  0  0  0  0
  -28.1870  -13.1400   19.4370 C   0  0  0  0  0  3  0  0  0  0  0  0
  -29.2920  -12.9430   20.4990 C   0  0  0  0  0  2  0  0  0  0  0  0
  -30.5890  -13.2630   19.8650 N   0  0  0  0  0  0  0  0  0  0  0  0
  -32.2440  -14.7290   19.2810 O   0  0  0  0  0  0  0  0  0  0  0  0
  -30.5350  -15.3980   20.6470 N   0  0  0  0  0  0  0  0  0  0  0  0
  -29.8920  -14.9400   21.2750 H   0  0  0  0  0  0  0  0  0  0  0  0
  -25.8280  -13.8320   20.2040 C   0  0  0  0  0  0  0  0  0  0  0  0
  -24.7690  -13.1040   20.6740 C   0  0  0  0  0  0  0  0  0  0  0  0
  -25.2070  -11.7440   20.7010 C   0  0  0  0  0  0  0  0  0  0  0  0
  -26.8510  -12.9200   19.9870 N   0  0  0  0  0  0  0  0  0  0  0  0
  -26.4810  -11.6620   20.3400 N   0  0  0  0  0  0  0  0  0  0  0  0
  -24.4710  -10.5090   21.0000 C   0  0  0  0  0  0  0  0  0  0  0  0
  -24.6680   -9.8050   22.2070 C   0  0  0  0  0  3  0  0  0  0  0  0
  -23.9380   -8.6290   22.4790 C   0  0  0  0  0  3  0  0  0  0  0  0
  -22.9950   -8.1470   21.5400 C   0  0  0  0  0  0  0  0  0  0  0  0
  -22.8190   -8.8380   20.3290 C   0  0  0  0  0  3  0  0  0  0  0  0
  -23.5510  -10.0060   20.0580 C   0  0  0  0  0  3  0  0  0  0  0  0
  -22.2580   -7.0000   21.7080 O   0  0  0  0  0  0  0  0  0  0  0  0
  -21.5640   -6.7520   22.8650 C   0  0  0  0  0  0  0  0  0  0  0  0
  -20.6200   -7.6670   23.3790 C   0  0  0  0  0  3  0  0  0  0  0  0
  -19.8810   -7.3400   24.5330 C   0  0  0  0  0  3  0  0  0  0  0  0
  -20.0760   -6.1000   25.1690 C   0  0  0  0  0  0  0  0  0  0  0  0
  -21.0120   -5.1850   24.6540 C   0  0  0  0  0  3  0  0  0  0  0  0
  -21.7520   -5.5090   23.5040 C   0  0  0  0  0  0  0  0  0  0  0  0
  -22.6370   -4.6160   23.0010 F   0  0  0  0  0  0  0  0  0  0  0  0
  -19.3590   -5.7830   26.2720 F   0  0  0  0  0  0  0  0  0  0  0  0
  -23.3940  -13.6220   20.9860 C   0  0  0  0  0  0  0  0  0  0  0  0
  -22.7280  -13.0330   21.9740 N   0  0  0  0  0  0  0  0  0  0  0  0
  -22.9210  -14.5850   20.3850 O   0  0  0  0  0  0  0  0  0  0  0  0
  -23.1240  -12.2570   22.4800 H   0  0  0  0  0  0  0  0  0  0  0  0
  -21.8100  -13.3680   22.2280 H   0  0  0  0  0  0  0  0  0  0  0  0
  -25.9990  -15.1850   19.9210 N   0  0  0  0  0  0  0  0  0  0  0  0
  -25.2340  -15.8470   19.9870 H   0  0  0  0  0  0  0  0  0  0  0  0
  -26.8210  -15.5720   19.4760 H   0  0  0  0  0  0  0  0  0  0  0  0
  -31.7270  -19.3050   23.3310 C   0  0  0  0  0  3  0  0  0  0  0  0
  -31.7440  -20.5850   23.7420 C   0  0  0  0  0  3  0  0  0  0  0  0
  -32.5220  -21.0720   24.9460 C   0  0  0  0  0  1  0  0  0  0  0  0
  -30.8690  -15.5540   23.3480 C   0  0  0  0  0  1  0  0  0  0  0  0
  -31.7100  -16.5230   22.7300 O   0  0  0  0  0  0  0  0  0  0  0  0
  -28.8500  -20.1360   19.2610 C   0  0  0  0  0  2  0  0  0  0  0  0
  -28.7220  -22.6330   19.8880 C   0  0  0  0  0  0  0  0  0  0  0  0
  -26.4420  -22.8290   20.5380 C   0  0  0  0  0  2  0  0  0  0  0  0
  -26.7870  -21.3910   20.0900 C   0  0  0  0  0  2  0  0  0  0  0  0
  -27.6080  -23.7070   20.0620 C   0  0  0  0  0  3  0  0  0  0  0  0
  -28.2270  -21.3690   19.8530 N   0  0  0  0  0  0  0  0  0  0  0  0
  -29.9080  -22.9300   19.7160 O   0  0  0  0  0  0  0  0  0  0  0  0
  -27.9040  -24.9900   20.9390 C   0  0  0  0  0  2  0  0  0  0  0  0
  -27.1640  -26.2120   20.6090 O   0  0  0  0  0  0  0  0  0  0  0  0
  -26.9750  -31.9060   24.9860 C   0  0  0  0  0  0  0  0  0  0  0  0
  -26.5260  -26.8890   21.6430 C   0  0  0  0  0  0  0  0  0  0  0  0
  -25.4800  -30.0260   25.5710 C   0  0  0  0  0  3  0  0  0  0  0  0
  -25.2000  -28.2270   23.7760 C   0  0  0  0  0  0  0  0  0  0  0  0
  -26.1400  -30.4500   23.1340 C   0  0  0  0  0  2  0  0  0  0  0  0
  -26.0010  -28.9560   22.8880 C   0  0  0  0  0  0  0  0  0  0  0  0
  -26.6530  -28.2950   21.8120 C   0  0  0  0  0  3  0  0  0  0  0  0
  -25.7000  -26.1820   22.5430 C   0  0  0  0  0  3  0  0  0  0  0  0
  -25.0420  -26.8400   23.6030 C   0  0  0  0  0  3  0  0  0  0  0  0
  -24.5340  -28.9930   24.9000 C   0  0  0  0  0  2  0  0  0  0  0  0
  -26.2510  -30.8280   24.5670 N   0  0  0  0  0  0  0  0  0  0  0  0
  -26.9760  -32.2570   26.1750 O   0  0  0  0  0  0  0  0  0  0  0  0
  -26.3810  -29.2870   26.5870 C   0  0  0  0  0  0  0  0  0  0  0  0
  -26.0140  -29.3510   27.8770 N   0  0  0  0  0  0  0  0  0  0  0  0
  -27.3690  -28.6510   26.2080 O   0  0  0  0  0  0  0  0  0  0  0  0
  -25.2010  -29.9030   28.1100 H   0  0  0  0  0  0  0  0  0  0  0  0
  -26.2270  -29.2260   31.4840 C   0  0  0  0  0  0  0  0  0  0  0  0
  -26.6880  -28.6930   28.9980 C   0  0  0  0  0  3  0  0  0  0  0  0
  -26.0710  -27.3060   29.2860 C   0  0  0  0  0  2  0  0  0  0  0  0
  -24.9690  -27.3450   30.3490 C   0  0  0  0  0  2  0  0  0  0  0  0
  -25.5160  -27.8950   31.6700 C   0  0  0  0  0  2  0  0  0  0  0  0
  -26.7630  -29.6080   30.2250 C   0  0  0  0  0  0  0  0  0  0  0  0
  -27.3810  -30.8710   30.0990 C   0  0  0  0  0  3  0  0  0  0  0  0
  -27.4730  -31.7420   31.2000 C   0  0  0  0  0  3  0  0  0  0  0  0
  -26.9550  -31.3520   32.4470 C   0  0  0  0  0  3  0  0  0  0  0  0
  -26.3370  -30.0970   32.5890 C   0  0  0  0  0  3  0  0  0  0  0  0
  -27.8160  -32.7650   23.9890 C   0  0  0  0  0  3  0  0  0  0  0  0
  -27.7710  -34.1590   24.4560 N   0  0  0  0  0  0  0  0  0  0  0  0
  -27.1260  -35.1510   23.8280 C   0  0  0  0  0  0  0  0  0  0  0  0
  -26.5570  -35.0000   22.7430 O   0  0  0  0  0  0  0  0  0  0  0  0
  -28.1770  -34.3460   25.3600 H   0  0  0  0  0  0  0  0  0  0  0  0
  -25.6890  -36.8430   25.0070 C   0  0  0  0  0  1  0  0  0  0  0  0
  -27.1100  -36.5310   24.5120 C   0  0  0  0  0  3  0  0  0  0  0  0
  -29.0260  -37.5950   23.4030 C   0  0  0  0  0  1  0  0  0  0  0  0
  -27.5850  -37.6270   23.6390 N   0  0  0  0  0  0  0  0  0  0  0  0
  -27.3510  -38.5320   24.0370 H   0  0  0  0  0  0  0  0  0  0  0  0
  -29.3090  -32.2760   23.8500 C   0  0  1  0  0  0  0  0  0  0  0  0
  -30.0270  -32.0730   25.2060 C   0  0  0  0  0  1  0  0  0  0  0  0
  -29.3760  -30.9400   23.0740 C   0  0  0  0  0  1  0  0  0  0  0  0
  -30.1230  -33.3050   23.0300 C   0  0  0  0  0  1  0  0  0  0  0  0
  1  3  1  0
  2  4  1  0
  2  5  2  0
  3 45  1  0
  4  1  2  0
  5  6  1  0
  6  3  2  0
  6 49  1  0
  7 15  1  0
  8 13  1  0
  9 10  1  0
  9  8  1  0
 11 10  1  0
 11 20  1  0
 11 12  1  0
 13  7  1  0
 13 12  1  0
 14  7  2  0
 15  5  1  0
 15 16  1  0
 17 18  2  0
 18 19  1  0
 18 37  1  0
 19 22  1  0
 20 17  1  0
 20 21  1  0
 21 19  2  0
 22 23  1  0
 23 24  2  0
 25 28  1  0
 25 24  1  0
 26 25  2  0
 27 26  1  0
 27 22  2  0
 28 29  1  0
 29 30  2  0
 29 34  1  0
 30 31  1  0
 31 32  2  0
 32 36  1  0
 33 32  1  0
 34 33  2  0
 35 34  1  0
 37 38  1  0
 38 41  1  0
 38 40  1  0
 39 37  2  0
 42 43  1  0
 42 17  1  0
 44 42  1  0
 45 46  2  0
 46 47  1  0
 49 48  1  0
 50 55  1  0
 50  4  1  0
 51 54  1  0
 53 52  1  0
 54 52  1  0
 54 57  1  0
 55 51  1  0
 55 53  1  0
 56 51  2  0
 58 57  1  0
 58 60  1  0
 59 70  2  0
 60 65  2  0
 60 66  1  0
 61 71  1  0
 62 68  1  0
 63 69  1  0
 64 63  1  0
 64 62  2  0
 65 64  1  0
 66 67  2  0
 67 62  1  0
 68 61  1  0
 69 59  1  0
 69 61  1  0
 71 72  1  0
 72 74  1  0
 73 71  2  0
 75 79  1  0
 75 84  1  0
 76 72  1  0
 76 77  1  0
 76 80  1  0
 77 78  1  0
 78 79  1  0
 80 75  2  0
 81 80  1  0
 81 82  2  0
 82 83  1  0
 83 84  2  0
 85 86  1  0
 85 59  1  0
 86 89  1  0
 87 86  1  0
 87 91  1  0
 88 87  2  0
 91 90  1  0
 92 93  1  0
 93 94  1  0
 93 91  1  0
 95 85  1  0
 95 96  1  1
 97 95  1  0
 98 95  1  0
M  ISO  4   7 100  15 100  57 101  58 101
M  END
>  <TORSDO>  (29) 
F 21

>  <SCORE>  (29) 
-4.236

>  <name>  (29) 
28

>  <ligand_id>  (29) 
28

>  <original_smiles>  (29) 
[H]C(=C([H])C([H])([H])[H])c1c([H])c(C([H])([H])N2C(=O)C([H])(C([H])([H])Oc3c([H])c([H])c4c(c3[H])C([H])([H])N(C(=O)C([H])(N([H])C(=O)C([H])(N([H])C([H])([H])[H])C([H])([H])[H])C(C([H])([H])[H])(C([H])([H])[H])C([H])([H])[H])C([H])(C(=O)N([H])C3([H])c5c([H])c([H])c([H])c([H])c5C([H])([H])C([H])([H])C3([H])[H])C4([H])[H])C([H])([H])C2([H])[H])c([H])c(N([H])C(=O)N2C([H])([H])C([H])([H])C([H])([H])C([H])(n3nc(-c4c([H])c([H])c(Oc5c([H])c([H])c(F)c([H])c5F)c([H])c4[H])c(C(=O)N([H])[H])c3N([H])[H])C2([H])[H])c1OC([H])([H])[H]

>  <smiles>  (29) 
[H]C(=C([H])C([H])([H])[H])c1c([H])c(C([H])([H])N2C(=O)C([H])(C([H])([H])Oc3c([H])c([H])c4c(c3[H])C([H])([H])N(C(=O)C([H])(N([H])C(=O)C([H])(N([H])C([H])([H])[H])C([H])([H])[H])C(C([H])([H])[H])(C([H])([H])[H])C([H])([H])[H])C([H])(C(=O)N([H])C3([H])c5c([H])c([H])c([H])c([H])c5C([H])([H])C([H])([H])C3([H])[H])C4([H])[H])C([H])([H])C2([H])[H])c([H])c(N([H])C(=O)N2C([H])([H])C([H])([H])C([H])([H])C([H])(n3nc(-c4c([H])c([H])c(Oc5c([H])c([H])c(F)c([H])c5F)c([H])c4[H])c(C(=O)N([H])[H])c3N([H])[H])C2([H])[H])c1OC([H])([H])[H]

$$$$
29:0:0
     RDKit          3D

 96104  0  0  1  0  0  0  0  0999 V2000
  -30.6480  -18.1300   20.2020 C   0  0  0  0  0  3  0  0  0  0  0  0
  -28.2360  -18.3640   18.8440 C   0  0  0  0  0  3  0  0  0  0  0  0
  -29.8950  -16.9320   19.9710 C   0  0  0  0  0  0  0  0  0  0  0  0
  -28.6560  -17.0970   19.2930 C   0  0  0  0  0  0  0  0  0  0  0  0
  -30.2120  -19.4370   19.7920 C   0  0  0  0  0  0  0  0  0  0  0  0
  -28.9790  -19.5430   19.0950 C   0  0  0  0  0  0  0  0  0  0  0  0
  -27.7620  -16.0430   19.0930 N   0  0  0  0  0  0  0  0  0  0  0  0
  -26.7970  -16.2890   18.8980 H   0  0  0  0  0  0  0  0  0  0  0  0
  -27.8070  -15.2740   19.7540 H   0  0  0  0  0  0  0  0  0  0  0  0
  -30.2650  -15.5750   20.5740 C   0  0  0  0  0  0  0  0  0  0  0  0
  -30.2730  -15.4320   21.8360 N   0  0  0  0  0  0  0  0  0  0  0  0
  -30.0200  -16.2950   22.3030 H   0  0  0  0  0  0  0  0  0  0  0  0
  -30.6580  -14.3780   19.6740 C   0  0  0  0  0  0  0  0  0  0  0  0
  -30.4040  -11.9920   19.0270 C   0  0  0  0  0  2  0  0  0  0  0  0
  -29.3980  -11.8470   17.8670 C   0  0  0  0  0  2  0  0  0  0  0  0
  -27.9570  -11.7380   18.4010 C   0  0  0  0  0  2  0  0  0  0  0  0
  -27.6320  -12.8290   19.4580 C   0  0  0  0  0  3  0  0  0  0  0  0
  -28.7500  -12.9060   20.5250 C   0  0  0  0  0  2  0  0  0  0  0  0
  -30.0220  -13.1710   19.8320 N   0  0  0  0  0  0  0  0  0  0  0  0
  -31.6380  -14.5020   18.9320 O   0  0  0  0  0  0  0  0  0  0  0  0
  -25.3350  -13.5480   20.3690 C   0  0  0  0  0  0  0  0  0  0  0  0
  -24.2640  -12.8300   20.8260 C   0  0  0  0  0  0  0  0  0  0  0  0
  -24.6480  -11.4560   20.7450 C   0  0  0  0  0  0  0  0  0  0  0  0
  -26.3140  -12.6180   20.0540 N   0  0  0  0  0  0  0  0  0  0  0  0
  -25.9030  -11.3520   20.3270 N   0  0  0  0  0  0  0  0  0  0  0  0
  -23.8720  -10.2350   20.9920 C   0  0  0  0  0  0  0  0  0  0  0  0
  -24.3490   -9.2160   21.8460 C   0  0  0  0  0  3  0  0  0  0  0  0
  -23.5730   -8.0600   22.0820 C   0  0  0  0  0  3  0  0  0  0  0  0
  -22.3080   -7.9160   21.4650 C   0  0  0  0  0  0  0  0  0  0  0  0
  -21.8480   -8.9230   20.5970 C   0  0  0  0  0  3  0  0  0  0  0  0
  -22.6240  -10.0700   20.3600 C   0  0  0  0  0  3  0  0  0  0  0  0
  -21.4970   -6.8170   21.6150 O   0  0  0  0  0  0  0  0  0  0  0  0
  -21.5570   -6.0280   22.7360 C   0  0  0  0  0  0  0  0  0  0  0  0
  -21.3370   -6.5500   24.0290 C   0  0  0  0  0  3  0  0  0  0  0  0
  -21.3390   -5.6910   25.1460 C   0  0  0  0  0  3  0  0  0  0  0  0
  -21.5510   -4.3110   24.9720 C   0  0  0  0  0  0  0  0  0  0  0  0
  -21.7650   -3.7870   23.6840 C   0  0  0  0  0  3  0  0  0  0  0  0
  -21.7660   -4.6440   22.5690 C   0  0  0  0  0  0  0  0  0  0  0  0
  -21.9520   -4.1320   21.3290 F   0  0  0  0  0  0  0  0  0  0  0  0
  -21.5440   -3.4830   26.0430 F   0  0  0  0  0  0  0  0  0  0  0  0
  -22.9290  -13.3820   21.2380 C   0  0  0  0  0  0  0  0  0  0  0  0
  -22.2670  -12.7370   22.1930 N   0  0  0  0  0  0  0  0  0  0  0  0
  -22.4910  -14.4240   20.7530 O   0  0  0  0  0  0  0  0  0  0  0  0
  -22.6380  -11.8950   22.6100 H   0  0  0  0  0  0  0  0  0  0  0  0
  -21.3770  -13.0920   22.5140 H   0  0  0  0  0  0  0  0  0  0  0  0
  -25.5510  -14.9080   20.1910 N   0  0  0  0  0  0  0  0  0  0  0  0
  -24.8330  -15.5040   20.5860 H   0  0  0  0  0  0  0  0  0  0  0  0
  -26.4760  -15.1940   20.5190 H   0  0  0  0  0  0  0  0  0  0  0  0
  -27.2290  -20.9120   18.1360 C   0  0  0  0  0  1  0  0  0  0  0  0
  -28.5200  -20.7890   18.7190 O   0  0  0  0  0  0  0  0  0  0  0  0
  -30.9880  -20.5430   20.1710 O   0  0  0  0  0  0  0  0  0  0  0  0
  -30.7700  -21.9170   19.7160 C   0  0  0  0  0  3  0  0  0  0  0  0
  -30.0700  -22.8890   20.7370 C   0  0  0  0  0  3  0  0  0  0  0  0
  -30.1440  -24.4570   20.5170 C   0  0  0  0  0  3  0  0  0  0  0  0
  -28.8710  -25.2310   20.0200 C   0  0  0  0  0  3  0  0  0  0  0  0
  -28.9140  -26.6840   20.2100 O   0  0  0  0  0  0  0  0  0  0  0  0
  -24.6390  -31.6430   23.1550 C   0  0  0  0  0  0  0  0  0  0  0  0
  -27.7150  -27.3930   20.1340 C   0  0  0  0  0  0  0  0  0  0  0  0
  -23.6140  -30.2130   21.4190 C   0  0  0  0  0  3  0  0  0  0  0  0
  -25.2350  -28.8000   20.0400 C   0  0  0  0  0  0  0  0  0  0  0  0
  -26.1270  -30.7150   21.3720 C   0  0  0  0  0  2  0  0  0  0  0  0
  -26.3320  -29.3660   20.7010 C   0  0  0  0  0  0  0  0  0  0  0  0
  -27.5750  -28.6750   20.7350 C   0  0  0  0  0  3  0  0  0  0  0  0
  -26.5880  -26.8600   19.4620 C   0  0  0  0  0  3  0  0  0  0  0  0
  -25.3630  -27.5510   19.4130 C   0  0  0  0  0  3  0  0  0  0  0  0
  -23.9400  -29.5840   20.0390 C   0  0  0  0  0  2  0  0  0  0  0  0
  -24.8080  -30.8740   22.0410 N   0  0  0  0  0  0  0  0  0  0  0  0
  -23.5150  -31.8340   23.6390 O   0  0  0  0  0  0  0  0  0  0  0  0
  -22.9750  -29.1310   22.3210 C   0  0  0  0  0  0  0  0  0  0  0  0
  -21.6600  -28.9120   22.1560 N   0  0  0  0  0  0  0  0  0  0  0  0
  -23.6600  -28.4930   23.1230 O   0  0  0  0  0  0  0  0  0  0  0  0
  -21.1640  -29.4810   21.4840 H   0  0  0  0  0  0  0  0  0  0  0  0
  -18.3080  -27.6180   22.5690 C   0  0  0  0  0  0  0  0  0  0  0  0
  -20.8600  -27.9120   22.8650 C   0  0  0  0  0  3  0  0  0  0  0  0
  -20.9930  -26.5200   22.2060 C   0  0  0  0  0  2  0  0  0  0  0  0
  -19.9010  -26.2360   21.1700 C   0  0  0  0  0  2  0  0  0  0  0  0
  -18.5140  -26.3150   21.8150 C   0  0  0  0  0  2  0  0  0  0  0  0
  -19.4100  -28.3760   23.0480 C   0  0  0  0  0  0  0  0  0  0  0  0
  -19.1640  -29.5980   23.7110 C   0  0  0  0  0  3  0  0  0  0  0  0
  -17.8480  -30.0610   23.9040 C   0  0  0  0  0  3  0  0  0  0  0  0
  -16.7610  -29.3000   23.4410 C   0  0  0  0  0  3  0  0  0  0  0  0
  -16.9920  -28.0810   22.7780 C   0  0  0  0  0  3  0  0  0  0  0  0
  -25.8460  -32.3390   23.8570 C   0  0  0  0  0  3  0  0  0  0  0  0
  -25.4570  -33.7290   24.1360 N   0  0  0  0  0  0  0  0  0  0  0  0
  -25.8040  -34.7830   23.3850 C   0  0  0  0  0  0  0  0  0  0  0  0
  -26.5560  -34.6920   22.4100 O   0  0  0  0  0  0  0  0  0  0  0  0
  -24.7980  -33.8710   24.8880 H   0  0  0  0  0  0  0  0  0  0  0  0
  -24.0340  -36.4940   22.8700 C   0  0  0  0  0  1  0  0  0  0  0  0
  -25.2260  -36.1560   23.7790 C   0  0  0  0  0  3  0  0  0  0  0  0
  -27.2530  -37.1450   24.7490 C   0  0  0  0  0  1  0  0  0  0  0  0
  -26.2200  -37.2510   23.7220 N   0  0  0  0  0  0  0  0  0  0  0  0
  -25.7650  -38.1540   23.8240 H   0  0  0  0  0  0  0  0  0  0  0  0
  -26.2950  -31.6110   25.1830 C   0  0  1  0  0  0  0  0  0  0  0  0
  -25.1360  -31.3550   26.1750 C   0  0  0  0  0  1  0  0  0  0  0  0
  -26.9530  -30.2490   24.8650 C   0  0  0  0  0  1  0  0  0  0  0  0
  -27.3660  -32.4580   25.9100 C   0  0  0  0  0  1  0  0  0  0  0  0
  2  6  2  0
  2  4  1  0
  3  1  1  0
  3 10  1  0
  4  3  2  0
  5 51  1  0
  5  1  2  0
  6  5  1  0
  7  4  1  0
  7  9  1  0
  8  7  1  0
 10 11  2  0
 11 12  1  0
 13 19  1  0
 13 10  1  0
 14 19  1  0
 15 16  1  0
 15 14  1  0
 17 16  1  0
 17 24  1  0
 17 18  1  0
 19 18  1  0
 20 13  2  0
 21 22  2  0
 22 41  1  0
 23 22  1  0
 23 26  1  0
 24 25  1  0
 24 21  1  0
 25 23  2  0
 26 27  1  0
 27 28  2  0
 29 32  1  0
 29 28  1  0
 30 29  2  0
 31 30  1  0
 31 26  2  0
 32 33  1  0
 33 34  1  0
 34 35  2  0
 36 35  1  0
 36 40  1  0
 37 36  2  0
 38 33  2  0
 38 37  1  0
 39 38  1  0
 41 42  1  0
 42 45  1  0
 42 44  1  0
 43 41  2  0
 46 21  1  0
 46 48  1  0
 46 47  1  0
 49 50  1  0
 50  6  1  0
 52 51  1  0
 52 53  2  0
 54 53  1  0
 55 56  1  0
 55 54  2  0
 57 68  2  0
 58 56  1  0
 58 63  1  0
 59 67  1  0
 59 69  1  0
 60 62  1  0
 61 67  1  0
 62 63  2  0
 62 61  1  0
 64 58  2  0
 65 64  1  0
 65 60  2  0
 66 60  1  0
 66 59  1  0
 67 57  1  0
 69 71  2  0
 70 69  1  0
 72 70  1  0
 73 82  2  0
 73 78  1  0
 74 70  1  0
 74 78  1  0
 75 74  1  0
 76 77  1  0
 76 75  1  0
 77 73  1  0
 78 79  2  0
 79 80  1  0
 81 80  2  0
 82 81  1  0
 83 57  1  0
 83 84  1  0
 83 93  1  0
 84 87  1  0
 85 89  1  0
 85 84  1  0
 86 85  2  0
 89 88  1  0
 91 89  1  0
 91 92  1  0
 91 90  1  0
 93 96  1  1
 93 94  1  0
 95 93  1  0
M  ISO  4  10 100  13 100  55 101  56 101
M  END
>  <TORSDO>  (30) 
F 24

>  <SCORE>  (30) 
-12.285

>  <name>  (30) 
29

>  <ligand_id>  (30) 
29

>  <original_smiles>  (30) 
[H]N=C(C(=O)N1C([H])([H])C([H])([H])C([H])([H])C([H])(n2nc(-c3c([H])c([H])c(Oc4c([H])c([H])c(F)c([H])c4F)c([H])c3[H])c(C(=O)N([H])[H])c2N([H])[H])C1([H])[H])c1c([H])c(OC([H])([H])C([H])([H])C([H])([H])C([H])([H])Oc2c([H])c([H])c3c(c2[H])C([H])([H])N(C(=O)C([H])(N([H])C(=O)C([H])(N([H])C([H])([H])[H])C([H])([H])[H])C(C([H])([H])[H])(C([H])([H])[H])C([H])([H])[H])C([H])(C(=O)N([H])C2([H])c4c([H])c([H])c([H])c([H])c4C([H])([H])C([H])([H])C2([H])[H])C3([H])[H])c(OC([H])([H])[H])c([H])c1N([H])[H]

>  <smiles>  (30) 
[H]N=C(C(=O)N1C([H])([H])C([H])([H])C([H])([H])C([H])(n2nc(-c3c([H])c([H])c(Oc4c([H])c([H])c(F)c([H])c4F)c([H])c3[H])c(C(=O)N([H])[H])c2N([H])[H])C1([H])[H])c1c([H])c(OC([H])([H])C([H])([H])C([H])([H])C([H])([H])Oc2c([H])c([H])c3c(c2[H])C([H])([H])N(C(=O)C([H])(N([H])C(=O)C([H])(N([H])C([H])([H])[H])C([H])([H])[H])C(C([H])([H])[H])(C([H])([H])[H])C([H])([H])[H])C([H])(C(=O)N([H])C2([H])c4c([H])c([H])c([H])c([H])c4C([H])([H])C([H])([H])C2([H])[H])C3([H])[H])c(OC([H])([H])[H])c([H])c1N([H])[H]

$$$$
30:0:0
     RDKit          3D

 94102  0  0  1  0  0  0  0  0999 V2000
  -28.8390  -18.7570   19.9930 C   0  0  0  0  0  3  0  0  0  0  0  0
  -30.5770  -19.6020   21.4100 C   0  0  0  0  0  3  0  0  0  0  0  0
  -29.9790  -18.4720   20.7840 C   0  0  0  0  0  0  0  0  0  0  0  0
  -28.3500  -20.0950   19.8370 C   0  0  0  0  0  0  0  0  0  0  0  0
  -30.1120  -20.9390   21.2500 C   0  0  0  0  0  0  0  0  0  0  0  0
  -28.9790  -21.2340   20.4350 C   0  0  0  0  0  0  0  0  0  0  0  0
  -27.1220  -20.3130   18.9710 C   0  0  0  0  0  1  0  0  0  0  0  0
  -30.7030  -14.6730   20.4720 C   0  0  0  0  0  0  0  0  0  0  0  0
  -30.3810  -12.4300   19.4470 C   0  0  0  0  0  2  0  0  0  0  0  0
  -29.4810  -12.5300   18.2010 C   0  0  0  0  0  2  0  0  0  0  0  0
  -28.0040  -12.3820   18.6060 C   0  0  0  0  0  2  0  0  0  0  0  0
  -27.6180  -13.2870   19.8080 C   0  0  0  0  0  3  0  0  0  0  0  0
  -28.6560  -13.2220   20.9510 C   0  0  0  0  0  2  0  0  0  0  0  0
  -29.9710  -13.5150   20.3700 N   0  0  0  0  0  0  0  0  0  0  0  0
  -31.8930  -14.6350   20.1510 O   0  0  0  0  0  0  0  0  0  0  0  0
  -30.6940  -17.1020   20.8450 C   0  0  0  0  0  0  0  0  0  0  0  0
  -30.0660  -15.8790   20.7030 N   0  0  0  0  0  0  0  0  0  0  0  0
  -31.9090  -17.1770   21.0750 O   0  0  0  0  0  0  0  0  0  0  0  0
  -29.0610  -15.8790   20.7210 H   0  0  0  0  0  0  0  0  0  0  0  0
  -25.2160  -13.8840   20.4790 C   0  0  0  0  0  0  0  0  0  0  0  0
  -24.1420  -13.1150   20.8340 C   0  0  0  0  0  0  0  0  0  0  0  0
  -24.6060  -11.7620   20.8320 C   0  0  0  0  0  0  0  0  0  0  0  0
  -26.2650  -13.0030   20.2770 N   0  0  0  0  0  0  0  0  0  0  0  0
  -25.9040  -11.7230   20.5540 N   0  0  0  0  0  0  0  0  0  0  0  0
  -23.8740  -10.5020   21.0200 C   0  0  0  0  0  0  0  0  0  0  0  0
  -24.2860   -9.5440   21.9730 C   0  0  0  0  0  3  0  0  0  0  0  0
  -23.5530   -8.3510   22.1500 C   0  0  0  0  0  3  0  0  0  0  0  0
  -22.3950   -8.1060   21.3740 C   0  0  0  0  0  0  0  0  0  0  0  0
  -22.0030   -9.0530   20.4110 C   0  0  0  0  0  3  0  0  0  0  0  0
  -22.7370  -10.2380   20.2320 C   0  0  0  0  0  3  0  0  0  0  0  0
  -21.6360   -6.9640   21.4590 O   0  0  0  0  0  0  0  0  0  0  0  0
  -21.5610   -6.2350   22.6190 C   0  0  0  0  0  0  0  0  0  0  0  0
  -21.0940   -6.8010   23.8250 C   0  0  0  0  0  3  0  0  0  0  0  0
  -20.9660   -5.9970   24.9760 C   0  0  0  0  0  3  0  0  0  0  0  0
  -21.2950   -4.6300   24.9210 C   0  0  0  0  0  0  0  0  0  0  0  0
  -21.7560   -4.0630   23.7190 C   0  0  0  0  0  3  0  0  0  0  0  0
  -21.8850   -4.8640   22.5710 C   0  0  0  0  0  0  0  0  0  0  0  0
  -22.3090   -4.3090   21.4100 F   0  0  0  0  0  0  0  0  0  0  0  0
  -21.1660   -3.8560   26.0250 F   0  0  0  0  0  0  0  0  0  0  0  0
  -22.7390  -13.5950   21.0640 C   0  0  0  0  0  0  0  0  0  0  0  0
  -21.9930  -12.9150   21.9270 N   0  0  0  0  0  0  0  0  0  0  0  0
  -22.3140  -14.6100   20.5150 O   0  0  0  0  0  0  0  0  0  0  0  0
  -22.3490  -12.0940   22.3930 H   0  0  0  0  0  0  0  0  0  0  0  0
  -21.0500  -13.2210   22.1250 H   0  0  0  0  0  0  0  0  0  0  0  0
  -25.3830  -15.2530   20.2880 N   0  0  0  0  0  0  0  0  0  0  0  0
  -24.6140  -15.9070   20.3750 H   0  0  0  0  0  0  0  0  0  0  0  0
  -26.2370  -15.6880   19.9640 H   0  0  0  0  0  0  0  0  0  0  0  0
  -30.8090  -21.9410   21.9220 N   0  0  0  0  0  0  0  0  0  0  0  0
  -31.4080  -21.6690   22.6940 H   0  0  0  0  0  0  0  0  0  0  0  0
  -30.3190  -22.8090   22.0990 H   0  0  0  0  0  0  0  0  0  0  0  0
  -28.4110  -22.5080   20.1770 O   0  0  0  0  0  0  0  0  0  0  0  0
  -28.9830  -23.8290   20.4920 C   0  0  0  0  0  2  0  0  0  0  0  0
  -28.0300  -25.0140   20.0160 C   0  0  0  0  0  2  0  0  0  0  0  0
  -28.3140  -26.4570   20.2470 O   0  0  0  0  0  0  0  0  0  0  0  0
  -24.6170  -31.8770   23.2650 C   0  0  0  0  0  0  0  0  0  0  0  0
  -27.2190  -27.3390   20.1720 C   0  0  0  0  0  0  0  0  0  0  0  0
  -23.4140  -30.4940   21.6130 C   0  0  0  0  0  3  0  0  0  0  0  0
  -24.8630  -28.9660   20.1680 C   0  0  0  0  0  0  0  0  0  0  0  0
  -25.9540  -30.8130   21.4340 C   0  0  0  0  0  2  0  0  0  0  0  0
  -26.0340  -29.4410   20.7740 C   0  0  0  0  0  0  0  0  0  0  0  0
  -27.2160  -28.6390   20.7700 C   0  0  0  0  0  3  0  0  0  0  0  0
  -26.0270  -26.9340   19.5220 C   0  0  0  0  0  3  0  0  0  0  0  0
  -24.8640  -27.7190   19.5320 C   0  0  0  0  0  3  0  0  0  0  0  0
  -23.6270  -29.8380   20.2250 C   0  0  0  0  0  2  0  0  0  0  0  0
  -24.6810  -31.0780   22.1600 N   0  0  0  0  0  0  0  0  0  0  0  0
  -23.5330  -32.1500   23.8010 O   0  0  0  0  0  0  0  0  0  0  0  0
  -22.7530  -29.4660   22.5620 C   0  0  0  0  0  0  0  0  0  0  0  0
  -21.4280  -29.2880   22.4320 N   0  0  0  0  0  0  0  0  0  0  0  0
  -23.4320  -28.8320   23.3740 O   0  0  0  0  0  0  0  0  0  0  0  0
  -20.9400  -29.8510   21.7500 H   0  0  0  0  0  0  0  0  0  0  0  0
  -18.0480  -28.0930   22.9250 C   0  0  0  0  0  0  0  0  0  0  0  0
  -20.6070  -28.3450   23.1950 C   0  0  0  0  0  3  0  0  0  0  0  0
  -20.7060  -26.9180   22.6060 C   0  0  0  0  0  2  0  0  0  0  0  0
  -19.6030  -26.6090   21.5900 C   0  0  0  0  0  2  0  0  0  0  0  0
  -18.2220  -26.7500   22.2350 C   0  0  0  0  0  2  0  0  0  0  0  0
  -19.1690  -28.8490   23.3610 C   0  0  0  0  0  0  0  0  0  0  0  0
  -18.9530  -30.1060   23.9650 C   0  0  0  0  0  3  0  0  0  0  0  0
  -17.6490  -30.6080   24.1380 C   0  0  0  0  0  3  0  0  0  0  0  0
  -16.5430  -29.8500   23.7170 C   0  0  0  0  0  3  0  0  0  0  0  0
  -16.7440  -28.5940   23.1170 C   0  0  0  0  0  3  0  0  0  0  0  0
  -25.9000  -32.5030   23.8920 C   0  0  0  0  0  3  0  0  0  0  0  0
  -26.4060  -31.7300   25.1720 C   0  0  1  0  0  0  0  0  0  0  0  0
  -25.3060  -31.5000   26.2340 C   0  0  0  0  0  1  0  0  0  0  0  0
  -26.9810  -30.3470   24.7850 C   0  0  0  0  0  1  0  0  0  0  0  0
  -27.5590  -32.5180   25.8370 C   0  0  0  0  0  1  0  0  0  0  0  0
  -25.5940  -33.9030   24.2200 N   0  0  0  0  0  0  0  0  0  0  0  0
  -25.9170  -34.9530   23.4530 C   0  0  0  0  0  0  0  0  0  0  0  0
  -26.5750  -34.8450   22.4150 O   0  0  0  0  0  0  0  0  0  0  0  0
  -25.0070  -34.0600   25.0260 H   0  0  0  0  0  0  0  0  0  0  0  0
  -24.1800  -36.7420   23.1180 C   0  0  0  0  0  1  0  0  0  0  0  0
  -25.4350  -36.3430   23.9110 C   0  0  0  0  0  3  0  0  0  0  0  0
  -27.5810  -37.2380   24.7020 C   0  0  0  0  0  1  0  0  0  0  0  0
  -26.4640  -37.3960   23.7740 N   0  0  0  0  0  0  0  0  0  0  0  0
  -26.0600  -38.3170   23.9200 H   0  0  0  0  0  0  0  0  0  0  0  0
  1  3  1  0
  3 16  1  0
  3  2  2  0
  4  1  2  0
  4  6  1  0
  5  2  1  0
  5 48  1  0
  6  5  2  0
  7  4  1  0
  8 17  1  0
  9 14  1  0
 10 11  1  0
 10  9  1  0
 12 11  1  0
 12 23  1  0
 12 13  1  0
 14  8  1  0
 14 13  1  0
 15  8  2  0
 16 18  2  0
 17 19  1  0
 17 16  1  0
 20 21  2  0
 21 40  1  0
 22 21  1  0
 22 25  1  0
 23 20  1  0
 23 24  1  0
 24 22  2  0
 25 26  1  0
 26 27  2  0
 28 31  1  0
 28 27  1  0
 29 28  2  0
 30 29  1  0
 30 25  2  0
 31 32  1  0
 32 33  1  0
 33 34  2  0
 35 34  1  0
 35 39  1  0
 36 35  2  0
 37 32  2  0
 37 36  1  0
 38 37  1  0
 40 41  1  0
 41 44  1  0
 41 43  1  0
 42 40  2  0
 45 46  1  0
 45 20  1  0
 47 45  1  0
 48 50  1  0
 48 49  1  0
 51  6  1  0
 51 52  1  0
 53 54  1  0
 53 52  1  0
 55 66  2  0
 56 54  1  0
 56 61  1  0
 57 65  1  0
 57 67  1  0
 58 64  1  0
 58 60  1  0
 59 65  1  0
 60 59  1  0
 61 60  2  0
 62 63  1  0
 62 56  2  0
 63 58  2  0
 64 57  1  0
 65 55  1  0
 67 69  2  0
 68 67  1  0
 70 68  1  0
 71 80  2  0
 71 76  1  0
 72 68  1  0
 72 76  1  0
 73 72  1  0
 74 75  1  0
 74 73  1  0
 75 71  1  0
 76 77  2  0
 77 78  1  0
 79 78  2  0
 80 79  1  0
 81 55  1  0
 81 86  1  0
 81 82  1  0
 82 85  1  1
 82 83  1  0
 84 82  1  0
 86 89  1  0
 87 91  1  0
 87 86  1  0
 88 87  2  0
 91 90  1  0
 93 91  1  0
 93 94  1  0
 93 92  1  0
M  ISO  4   8 100  17 100  53 101  54 101
M  END
>  <TORSDO>  (31) 
F 20

>  <SCORE>  (31) 
-14.311

>  <name>  (31) 
30

>  <ligand_id>  (31) 
30

>  <original_smiles>  (31) 
[H]c1c([H])c([H])c2c(c1[H])C([H])([H])C([H])([H])C([H])([H])C2([H])N([H])C(=O)C1([H])N(C(=O)C([H])(N([H])C(=O)C([H])(N([H])C([H])([H])[H])C([H])([H])[H])C(C([H])([H])[H])(C([H])([H])[H])C([H])([H])[H])C([H])([H])c2c([H])c(OC([H])([H])C([H])([H])Oc3c(N([H])[H])c([H])c(C(=O)N([H])C(=O)N4C([H])([H])C([H])([H])C([H])([H])C([H])(n5nc(-c6c([H])c([H])c(Oc7c([H])c([H])c(F)c([H])c7F)c([H])c6[H])c(C(=O)N([H])[H])c5N([H])[H])C4([H])[H])c([H])c3C([H])([H])[H])c([H])c([H])c2C1([H])[H]

>  <smiles>  (31) 
[H]c1c([H])c([H])c2c(c1[H])C([H])([H])C([H])([H])C([H])([H])C2([H])N([H])C(=O)C1([H])N(C(=O)C([H])(N([H])C(=O)C([H])(N([H])C([H])([H])[H])C([H])([H])[H])C(C([H])([H])[H])(C([H])([H])[H])C([H])([H])[H])C([H])([H])c2c([H])c(OC([H])([H])C([H])([H])Oc3c(N([H])[H])c([H])c(C(=O)N([H])C(=O)N4C([H])([H])C([H])([H])C([H])([H])C([H])(n5nc(-c6c([H])c([H])c(Oc7c([H])c([H])c(F)c([H])c7F)c([H])c6[H])c(C(=O)N([H])[H])c5N([H])[H])C4([H])[H])c([H])c3C([H])([H])[H])c([H])c([H])c2C1([H])[H]

$$$$
31:0:0
     RDKit          3D

 89 97  0  0  1  0  0  0  0  0999 V2000
  -28.2620  -20.4920   20.4550 C   0  0  0  0  0  3  0  0  0  0  0  0
  -28.4500  -19.0560   20.3680 C   0  0  0  0  0  0  0  0  0  0  0  0
  -29.4510  -21.1370   20.2280 C   0  0  0  0  0  0  0  0  0  0  0  0
  -29.7600  -18.8080   20.0200 C   0  0  0  0  0  0  0  0  0  0  0  0
  -27.3990  -18.0130   20.6420 C   0  0  0  0  0  1  0  0  0  0  0  0
  -30.3600  -20.0870   19.9510 O   0  0  0  0  0  0  0  0  0  0  0  0
  -29.9580  -22.5550   20.2220 C   0  0  0  0  0  3  0  0  0  0  0  0
  -29.6610  -23.9250   20.3030 C   0  0  0  0  0  3  0  0  0  0  0  0
  -28.4080  -24.8960   20.4380 C   0  0  0  0  0  2  0  0  0  0  0  0
  -28.6450  -26.4030   20.3900 O   0  0  0  0  0  0  0  0  0  0  0  0
  -24.8180  -31.8510   23.3830 C   0  0  0  0  0  0  0  0  0  0  0  0
  -27.5550  -27.3160   20.3240 C   0  0  0  0  0  0  0  0  0  0  0  0
  -23.6960  -30.5170   21.6380 C   0  0  0  0  0  3  0  0  0  0  0  0
  -25.2150  -29.0060   20.2310 C   0  0  0  0  0  0  0  0  0  0  0  0
  -26.2490  -30.8110   21.6000 C   0  0  0  0  0  2  0  0  0  0  0  0
  -26.3590  -29.4500   20.9080 C   0  0  0  0  0  0  0  0  0  0  0  0
  -27.5330  -28.6220   20.9360 C   0  0  0  0  0  3  0  0  0  0  0  0
  -26.3860  -26.9520   19.6180 C   0  0  0  0  0  3  0  0  0  0  0  0
  -25.2390  -27.7690   19.5720 C   0  0  0  0  0  3  0  0  0  0  0  0
  -23.9810  -29.8910   20.2470 C   0  0  0  0  0  2  0  0  0  0  0  0
  -24.9370  -31.0750   22.2650 N   0  0  0  0  0  0  0  0  0  0  0  0
  -23.7070  -32.1160   23.8690 O   0  0  0  0  0  0  0  0  0  0  0  0
  -22.9800  -29.4700   22.5270 C   0  0  0  0  0  0  0  0  0  0  0  0
  -21.6620  -29.3020   22.3260 N   0  0  0  0  0  0  0  0  0  0  0  0
  -23.6130  -28.8150   23.3580 O   0  0  0  0  0  0  0  0  0  0  0  0
  -21.2080  -29.8870   21.6380 H   0  0  0  0  0  0  0  0  0  0  0  0
  -18.2470  -28.1600   22.6860 C   0  0  0  0  0  0  0  0  0  0  0  0
  -20.8050  -28.3410   23.0220 C   0  0  0  0  0  3  0  0  0  0  0  0
  -20.8840  -26.9430   22.3660 C   0  0  0  0  0  2  0  0  0  0  0  0
  -19.7980  -26.7090   21.3110 C   0  0  0  0  0  2  0  0  0  0  0  0
  -18.4070  -26.8480   21.9350 C   0  0  0  0  0  2  0  0  0  0  0  0
  -19.3730  -28.8680   23.1840 C   0  0  0  0  0  0  0  0  0  0  0  0
  -19.1710  -30.0960   23.8480 C   0  0  0  0  0  3  0  0  0  0  0  0
  -17.8750  -30.6190   24.0190 C   0  0  0  0  0  3  0  0  0  0  0  0
  -16.7620  -29.9070   23.5360 C   0  0  0  0  0  3  0  0  0  0  0  0
  -16.9480  -28.6790   22.8770 C   0  0  0  0  0  3  0  0  0  0  0  0
  -26.0670  -32.4590   24.0910 C   0  0  0  0  0  3  0  0  0  0  0  0
  -26.5090  -31.6500   25.3720 C   0  0  1  0  0  0  0  0  0  0  0  0
  -25.3520  -31.3740   26.3600 C   0  0  0  0  0  1  0  0  0  0  0  0
  -27.1270  -30.2880   24.9770 C   0  0  0  0  0  1  0  0  0  0  0  0
  -27.6080  -32.4300   26.1330 C   0  0  0  0  0  1  0  0  0  0  0  0
  -25.7420  -33.8480   24.4470 N   0  0  0  0  0  0  0  0  0  0  0  0
  -26.0770  -34.9210   23.7180 C   0  0  0  0  0  0  0  0  0  0  0  0
  -26.7610  -34.8460   22.6930 O   0  0  0  0  0  0  0  0  0  0  0  0
  -25.1360  -33.9820   25.2420 H   0  0  0  0  0  0  0  0  0  0  0  0
  -24.3180  -36.6960   23.4170 C   0  0  0  0  0  1  0  0  0  0  0  0
  -25.5760  -36.2960   24.2040 C   0  0  0  0  0  3  0  0  0  0  0  0
  -27.6990  -37.2110   25.0320 C   0  0  0  0  0  1  0  0  0  0  0  0
  -26.5910  -37.3650   24.0930 N   0  0  0  0  0  0  0  0  0  0  0  0
  -26.1710  -38.2780   24.2470 H   0  0  0  0  0  0  0  0  0  0  0  0
  -30.6630  -17.5140   19.7700 C   0  0  0  0  0  2  0  0  0  0  0  0
  -31.0030  -14.9100   19.8300 C   0  0  0  0  0  0  0  0  0  0  0  0
  -30.8230  -12.5800   18.9280 C   0  0  0  0  0  2  0  0  0  0  0  0
  -29.8030  -12.5490   17.7700 C   0  0  0  0  0  2  0  0  0  0  0  0
  -28.3800  -12.3190   18.3140 C   0  0  0  0  0  2  0  0  0  0  0  0
  -28.0470  -13.2400   19.5180 C   0  0  0  0  0  3  0  0  0  0  0  0
  -29.1840  -13.2710   20.5610 C   0  0  0  0  0  2  0  0  0  0  0  0
  -30.4110  -13.6620   19.8560 N   0  0  0  0  0  0  0  0  0  0  0  0
  -32.1560  -15.0130   19.4030 O   0  0  0  0  0  0  0  0  0  0  0  0
  -30.2450  -16.0580   20.0640 N   0  0  0  0  0  0  0  0  0  0  0  0
  -29.2890  -15.9190   20.3510 H   0  0  0  0  0  0  0  0  0  0  0  0
  -25.7470  -13.7620   20.5190 C   0  0  0  0  0  0  0  0  0  0  0  0
  -24.7220  -12.9610   20.9390 C   0  0  0  0  0  0  0  0  0  0  0  0
  -25.1730  -11.6160   20.7620 C   0  0  0  0  0  0  0  0  0  0  0  0
  -26.7580  -12.9070   20.1160 N   0  0  0  0  0  0  0  0  0  0  0  0
  -26.4270  -11.6060   20.3250 N   0  0  0  0  0  0  0  0  0  0  0  0
  -24.4620  -10.3420   20.9300 C   0  0  0  0  0  0  0  0  0  0  0  0
  -24.8420   -9.4090   21.9190 C   0  0  0  0  0  3  0  0  0  0  0  0
  -24.1300   -8.2010   22.0720 C   0  0  0  0  0  3  0  0  0  0  0  0
  -23.0250   -7.9150   21.2360 C   0  0  0  0  0  0  0  0  0  0  0  0
  -22.6660   -8.8380   20.2370 C   0  0  0  0  0  3  0  0  0  0  0  0
  -23.3790  -10.0390   20.0810 C   0  0  0  0  0  3  0  0  0  0  0  0
  -22.2920   -6.7550   21.2950 O   0  0  0  0  0  0  0  0  0  0  0  0
  -21.9760   -6.1640   22.4920 C   0  0  0  0  0  0  0  0  0  0  0  0
  -21.2120   -6.8320   23.4740 C   0  0  0  0  0  3  0  0  0  0  0  0
  -20.8510   -6.1630   24.6600 C   0  0  0  0  0  3  0  0  0  0  0  0
  -21.2420   -4.8260   24.8630 C   0  0  0  0  0  0  0  0  0  0  0  0
  -21.9970   -4.1570   23.8830 C   0  0  0  0  0  3  0  0  0  0  0  0
  -22.3590   -4.8240   22.6990 C   0  0  0  0  0  0  0  0  0  0  0  0
  -23.0680   -4.1670   21.7500 F   0  0  0  0  0  0  0  0  0  0  0  0
  -20.8890   -4.1800   25.9990 F   0  0  0  0  0  0  0  0  0  0  0  0
  -23.3610  -13.4140   21.3810 C   0  0  0  0  0  0  0  0  0  0  0  0
  -22.7230  -12.6630   22.2720 N   0  0  0  0  0  0  0  0  0  0  0  0
  -22.8750  -14.4690   20.9730 O   0  0  0  0  0  0  0  0  0  0  0  0
  -23.1320  -11.8090   22.6240 H   0  0  0  0  0  0  0  0  0  0  0  0
  -21.8140  -12.9460   22.6090 H   0  0  0  0  0  0  0  0  0  0  0  0
  -25.8930  -15.1420   20.4190 N   0  0  0  0  0  0  0  0  0  0  0  0
  -25.1290  -15.7750   20.6300 H   0  0  0  0  0  0  0  0  0  0  0  0
  -26.6700  -15.5980   19.9590 H   0  0  0  0  0  0  0  0  0  0  0  0
  2  1  1  0
  2  5  1  0
  3  1  2  0
  4  2  2  0
  6  4  1  0
  6  3  1  0
  7  3  1  0
  7  8  2  0
  8  9  1  0
 10  9  1  0
 11 22  2  0
 12 10  1  0
 12 17  1  0
 13 21  1  0
 13 23  1  0
 14 20  1  0
 14 16  1  0
 15 21  1  0
 16 17  2  0
 16 15  1  0
 18 12  2  0
 19 18  1  0
 19 14  2  0
 20 13  1  0
 21 11  1  0
 23 25  2  0
 24 23  1  0
 26 24  1  0
 27 36  2  0
 27 32  1  0
 28 24  1  0
 28 32  1  0
 29 28  1  0
 30 31  1  0
 30 29  1  0
 31 27  1  0
 32 33  2  0
 33 34  1  0
 35 34  2  0
 36 35  1  0
 37 11  1  0
 37 42  1  0
 37 38  1  0
 38 41  1  1
 38 39  1  0
 40 38  1  0
 42 45  1  0
 43 47  1  0
 43 42  1  0
 44 43  2  0
 47 46  1  0
 49 47  1  0
 49 50  1  0
 49 48  1  0
 51  4  1  0
 51 60  1  0
 52 58  1  0
 52 60  1  0
 53 58  1  0
 54 55  1  0
 54 53  1  0
 56 55  1  0
 56 65  1  0
 56 57  1  0
 58 57  1  0
 59 52  2  0
 60 61  1  0
 62 63  2  0
 63 82  1  0
 64 67  1  0
 64 63  1  0
 65 66  1  0
 65 62  1  0
 66 64  2  0
 67 68  1  0
 68 69  2  0
 70 73  1  0
 70 69  1  0
 71 70  2  0
 72 71  1  0
 72 67  2  0
 73 74  1  0
 74 79  2  0
 74 75  1  0
 75 76  2  0
 76 77  1  0
 77 81  1  0
 78 77  2  0
 79 78  1  0
 80 79  1  0
 82 83  1  0
 83 86  1  0
 83 85  1  0
 84 82  2  0
 87 62  1  0
 87 88  1  0
 89 87  1  0
M  ISO  4   9 101  10 101  52 100  60 100
M  END
>  <TORSDO>  (32) 
F 19

>  <SCORE>  (32) 
-12.557

>  <name>  (32) 
31

>  <ligand_id>  (32) 
31

>  <original_smiles>  (32) 
[H]C(=C([H])C([H])([H])Oc1c([H])c([H])c2c(c1[H])C([H])([H])N(C(=O)C([H])(N([H])C(=O)C([H])(N([H])C([H])([H])[H])C([H])([H])[H])C(C([H])([H])[H])(C([H])([H])[H])C([H])([H])[H])C([H])(C(=O)N([H])C1([H])c3c([H])c([H])c([H])c([H])c3C([H])([H])C([H])([H])C1([H])[H])C2([H])[H])c1oc(C([H])([H])N([H])C(=O)N2C([H])([H])C([H])([H])C([H])([H])C([H])(n3nc(-c4c([H])c([H])c(Oc5c([H])c([H])c(F)c([H])c5F)c([H])c4[H])c(C(=O)N([H])[H])c3N([H])[H])C2([H])[H])c(C([H])([H])[H])c1[H]

>  <smiles>  (32) 
[H]C(=C([H])C([H])([H])Oc1c([H])c([H])c2c(c1[H])C([H])([H])N(C(=O)C([H])(N([H])C(=O)C([H])(N([H])C([H])([H])[H])C([H])([H])[H])C(C([H])([H])[H])(C([H])([H])[H])C([H])([H])[H])C([H])(C(=O)N([H])C1([H])c3c([H])c([H])c([H])c([H])c3C([H])([H])C([H])([H])C1([H])[H])C2([H])[H])c1oc(C([H])([H])N([H])C(=O)N2C([H])([H])C([H])([H])C([H])([H])C([H])(n3nc(-c4c([H])c([H])c(Oc5c([H])c([H])c(F)c([H])c5F)c([H])c4[H])c(C(=O)N([H])[H])c3N([H])[H])C2([H])[H])c(C([H])([H])[H])c1[H]

$$$$
32:0:0
     RDKit          3D

 96105  0  0  1  0  0  0  0  0999 V2000
  -29.2740  -21.5030   21.9960 C   0  0  0  0  0  0  0  0  0  0  0  0
  -29.3910  -22.7830   18.4570 C   0  0  0  0  0  2  0  0  0  0  0  0
  -28.9610  -24.2470   18.6680 C   0  0  0  0  0  2  0  0  0  0  0  0
  -28.9130  -21.8640   19.5960 C   0  0  0  0  0  2  0  0  0  0  0  0
  -29.6010  -23.7500   21.0700 C   0  0  0  0  0  2  0  0  0  0  0  0
  -28.6650  -24.5780   20.1470 C   0  0  0  0  0  3  0  0  0  0  0  0
  -29.4760  -22.2750   20.8990 N   0  0  0  0  0  0  0  0  0  0  0  0
  -28.5600  -21.9110   22.9200 O   0  0  0  0  0  0  0  0  0  0  0  0
  -30.4430  -19.2950   21.2140 C   0  0  0  0  0  3  0  0  0  0  0  0
  -30.4260  -19.9050   23.5650 C   0  0  0  0  0  3  0  0  0  0  0  0
  -31.4120  -17.7890   22.8790 C   0  0  0  0  0  3  0  0  0  0  0  0
  -30.0700  -20.2220   22.2290 C   0  0  0  0  0  0  0  0  0  0  0  0
  -31.0930  -18.0750   21.5380 C   0  0  0  0  0  0  0  0  0  0  0  0
  -31.0920  -18.7090   23.8890 C   0  0  0  0  0  0  0  0  0  0  0  0
  -31.4300  -18.4470   25.1730 F   0  0  0  0  0  0  0  0  0  0  0  0
  -31.5060  -17.0890   20.4510 C   0  0  0  0  0  2  0  0  0  0  0  0
  -31.4960  -14.6530   20.0650 C   0  0  0  0  0  0  0  0  0  0  0  0
  -31.1350  -12.3470   19.2660 C   0  0  0  0  0  2  0  0  0  0  0  0
  -30.2150  -12.3600   18.0320 C   0  0  0  0  0  2  0  0  0  0  0  0
  -28.7340  -12.3270   18.4560 C   0  0  0  0  0  2  0  0  0  0  0  0
  -28.3980  -13.3680   19.5590 C   0  0  0  0  0  3  0  0  0  0  0  0
  -29.4370  -13.3260   20.7020 C   0  0  0  0  0  2  0  0  0  0  0  0
  -30.7760  -13.5000   20.1100 N   0  0  0  0  0  0  0  0  0  0  0  0
  -32.5920  -14.7300   19.5030 O   0  0  0  0  0  0  0  0  0  0  0  0
  -30.9170  -15.7500   20.5800 N   0  0  0  0  0  0  0  0  0  0  0  0
  -30.0010  -15.6650   20.9880 H   0  0  0  0  0  0  0  0  0  0  0  0
  -26.0640  -14.1530   20.3120 C   0  0  0  0  0  0  0  0  0  0  0  0
  -24.9430  -13.4610   20.6840 C   0  0  0  0  0  0  0  0  0  0  0  0
  -25.2930  -12.0770   20.6240 C   0  0  0  0  0  0  0  0  0  0  0  0
  -27.0330  -13.1930   20.0530 N   0  0  0  0  0  0  0  0  0  0  0  0
  -26.5710  -11.9390   20.2940 N   0  0  0  0  0  0  0  0  0  0  0  0
  -24.4710  -10.8730   20.8040 C   0  0  0  0  0  0  0  0  0  0  0  0
  -24.8160   -9.8760   21.7460 C   0  0  0  0  0  3  0  0  0  0  0  0
  -23.9960   -8.7380   21.9140 C   0  0  0  0  0  3  0  0  0  0  0  0
  -22.8200   -8.5910   21.1430 C   0  0  0  0  0  0  0  0  0  0  0  0
  -22.4930   -9.5740   20.1940 C   0  0  0  0  0  3  0  0  0  0  0  0
  -23.3110  -10.7040   20.0230 C   0  0  0  0  0  3  0  0  0  0  0  0
  -21.9750   -7.5080   21.2210 O   0  0  0  0  0  0  0  0  0  0  0  0
  -21.7920   -6.8240   22.3940 C   0  0  0  0  0  0  0  0  0  0  0  0
  -21.3320   -7.4650   23.5650 C   0  0  0  0  0  3  0  0  0  0  0  0
  -21.0920   -6.7150   24.7330 C   0  0  0  0  0  3  0  0  0  0  0  0
  -21.3000   -5.3220   24.7280 C   0  0  0  0  0  0  0  0  0  0  0  0
  -21.7510   -4.6800   23.5610 C   0  0  0  0  0  3  0  0  0  0  0  0
  -21.9960   -5.4290   22.3960 C   0  0  0  0  0  0  0  0  0  0  0  0
  -22.4110   -4.8020   21.2690 F   0  0  0  0  0  0  0  0  0  0  0  0
  -21.0620   -4.5990   25.8460 F   0  0  0  0  0  0  0  0  0  0  0  0
  -23.5940  -14.0470   20.9870 C   0  0  0  0  0  0  0  0  0  0  0  0
  -22.8350  -13.4120   21.8710 N   0  0  0  0  0  0  0  0  0  0  0  0
  -23.2270  -15.1040   20.4770 O   0  0  0  0  0  0  0  0  0  0  0  0
  -23.1430  -12.5580   22.3130 H   0  0  0  0  0  0  0  0  0  0  0  0
  -21.9330  -13.7930   22.1190 H   0  0  0  0  0  0  0  0  0  0  0  0
  -26.3380  -15.5080   20.1550 N   0  0  0  0  0  0  0  0  0  0  0  0
  -25.6350  -16.2320   20.2750 H   0  0  0  0  0  0  0  0  0  0  0  0
  -27.2290  -15.8780   19.8480 H   0  0  0  0  0  0  0  0  0  0  0  0
  -28.7320  -26.1010   20.4190 C   0  0  0  0  0  2  0  0  0  0  0  0
  -28.1370  -26.8450   19.3530 O   0  0  0  0  0  0  0  0  0  0  0  0
  -24.8870  -31.7520   23.3990 C   0  0  0  0  0  0  0  0  0  0  0  0
  -27.0050  -27.5660   19.6450 C   0  0  0  0  0  0  0  0  0  0  0  0
  -23.4540  -30.5680   21.7620 C   0  0  0  0  0  3  0  0  0  0  0  0
  -24.6870  -29.1260   20.0540 C   0  0  0  0  0  0  0  0  0  0  0  0
  -25.9580  -30.8580   21.3360 C   0  0  0  0  0  2  0  0  0  0  0  0
  -25.9170  -29.5490   20.5740 C   0  0  0  0  0  0  0  0  0  0  0  0
  -27.0790  -28.7720   20.3750 C   0  0  0  0  0  3  0  0  0  0  0  0
  -25.7650  -27.1530   19.1200 C   0  0  0  0  0  3  0  0  0  0  0  0
  -24.6030  -27.9250   19.3250 C   0  0  0  0  0  3  0  0  0  0  0  0
  -23.4930  -30.0200   20.3090 C   0  0  0  0  0  2  0  0  0  0  0  0
  -24.7910  -31.0690   22.2240 N   0  0  0  0  0  0  0  0  0  0  0  0
  -23.8810  -32.0060   24.0760 O   0  0  0  0  0  0  0  0  0  0  0  0
  -22.8580  -29.4800   22.6840 C   0  0  0  0  0  0  0  0  0  0  0  0
  -21.5620  -29.1840   22.4970 N   0  0  0  0  0  0  0  0  0  0  0  0
  -23.5600  -28.9060   23.5210 O   0  0  0  0  0  0  0  0  0  0  0  0
  -21.0560  -29.7020   21.7940 H   0  0  0  0  0  0  0  0  0  0  0  0
  -18.3810  -27.4780   22.6260 C   0  0  0  0  0  0  0  0  0  0  0  0
  -20.8000  -28.1650   23.2190 C   0  0  0  0  0  3  0  0  0  0  0  0
  -21.2060  -26.7430   22.7680 C   0  0  0  0  0  2  0  0  0  0  0  0
  -20.3260  -26.1930   21.6410 C   0  0  0  0  0  2  0  0  0  0  0  0
  -18.8600  -26.1430   22.0820 C   0  0  0  0  0  2  0  0  0  0  0  0
  -19.2940  -28.4340   23.1440 C   0  0  0  0  0  0  0  0  0  0  0  0
  -18.7980  -29.6730   23.6040 C   0  0  0  0  0  3  0  0  0  0  0  0
  -17.4210  -29.9620   23.5560 C   0  0  0  0  0  3  0  0  0  0  0  0
  -16.5200  -29.0050   23.0560 C   0  0  0  0  0  3  0  0  0  0  0  0
  -17.0000  -27.7670   22.5970 C   0  0  0  0  0  3  0  0  0  0  0  0
  -26.2600  -32.2660   23.9360 C   0  0  0  0  0  3  0  0  0  0  0  0
  -26.8590  -31.3600   25.0810 C   0  0  1  0  0  0  0  0  0  0  0  0
  -25.8650  -31.0710   26.2290 C   0  0  0  0  0  1  0  0  0  0  0  0
  -27.3290  -30.0010   24.5110 C   0  0  0  0  0  1  0  0  0  0  0  0
  -28.1070  -32.0400   25.6910 C   0  0  0  0  0  1  0  0  0  0  0  0
  -26.0620  -33.6420   24.4090 N   0  0  0  0  0  0  0  0  0  0  0  0
  -26.4410  -34.7380   23.7380 C   0  0  0  0  0  0  0  0  0  0  0  0
  -27.0640  -34.6900   22.6750 O   0  0  0  0  0  0  0  0  0  0  0  0
  -25.5090  -33.7580   25.2450 H   0  0  0  0  0  0  0  0  0  0  0  0
  -24.8400  -36.6730   23.6110 C   0  0  0  0  0  1  0  0  0  0  0  0
  -26.0670  -36.1060   24.3410 C   0  0  0  0  0  3  0  0  0  0  0  0
  -28.2800  -36.7500   25.1850 C   0  0  0  0  0  1  0  0  0  0  0  0
  -27.1710  -37.0890   24.2980 N   0  0  0  0  0  0  0  0  0  0  0  0
  -26.8380  -38.0150   24.5480 H   0  0  0  0  0  0  0  0  0  0  0  0
  1 12  1  0
  1  8  2  0
  2  3  1  0
  2  4  1  0
  3  6  1  0
  4  7  1  0
  6 55  1  0
  6  5  1  0
  7  5  1  0
  7  1  1  0
  9 13  2  0
  9 12  1  0
 10 14  1  0
 11 14  2  0
 12 10  2  0
 13 11  1  0
 14 15  1  0
 16 25  1  0
 16 13  1  0
 17 23  1  0
 17 25  1  0
 18 23  1  0
 19 20  1  0
 19 18  1  0
 21 20  1  0
 21 30  1  0
 21 22  1  0
 23 22  1  0
 24 17  2  0
 25 26  1  0
 27 28  2  0
 28 47  1  0
 29 28  1  0
 29 32  1  0
 30 31  1  0
 30 27  1  0
 31 29  2  0
 32 33  1  0
 33 34  2  0
 35 38  1  0
 35 34  1  0
 36 35  2  0
 37 36  1  0
 37 32  2  0
 38 39  1  0
 39 44  2  0
 39 40  1  0
 40 41  2  0
 42 41  1  0
 42 46  1  0
 43 42  2  0
 44 43  1  0
 45 44  1  0
 47 48  1  0
 48 51  1  0
 48 50  1  0
 49 47  2  0
 52 53  1  0
 52 27  1  0
 54 52  1  0
 56 58  1  0
 56 55  1  0
 57 68  2  0
 58 63  1  0
 59 67  1  0
 59 69  1  0
 60 66  1  0
 60 62  1  0
 61 67  1  0
 62 61  1  0
 63 62  2  0
 64 65  1  0
 64 58  2  0
 65 60  2  0
 66 59  1  0
 67 57  1  0
 69 71  2  0
 70 69  1  0
 72 70  1  0
 73 78  1  0
 74 70  1  0
 75 74  1  0
 76 77  1  0
 76 75  1  0
 77 73  1  0
 78 74  1  0
 78 79  2  0
 80 79  1  0
 81 80  2  0
 82 73  2  0
 82 81  1  0
 83 57  1  0
 83 88  1  0
 83 84  1  0
 84 87  1  1
 84 85  1  0
 86 84  1  0
 88 91  1  0
 89 93  1  0
 89 88  1  0
 90 89  2  0
 93 92  1  0
 95 93  1  0
 95 96  1  0
 95 94  1  0
M  ISO  4  17 100  25 100  55 101  56 101
M  END
>  <TORSDO>  (33) 
F 19

>  <SCORE>  (33) 
-9.472

>  <name>  (33) 
32

>  <ligand_id>  (33) 
32

>  <original_smiles>  (33) 
[H]c1c([H])c([H])c2c(c1[H])C([H])([H])C([H])([H])C([H])([H])C2([H])N([H])C(=O)C1([H])N(C(=O)C([H])(N([H])C(=O)C([H])(N([H])C([H])([H])[H])C([H])([H])[H])C(C([H])([H])[H])(C([H])([H])[H])C([H])([H])[H])C([H])([H])c2c([H])c(OC([H])([H])C3([H])C([H])([H])N(C(=O)c4c([H])c(F)c([H])c(C([H])([H])N([H])C(=O)N5C([H])([H])C([H])([H])C([H])([H])C([H])(n6nc(-c7c([H])c([H])c(Oc8c([H])c([H])c(F)c([H])c8F)c([H])c7[H])c(C(=O)N([H])[H])c6N([H])[H])C5([H])[H])c4[H])C([H])([H])C([H])([H])C3([H])[H])c([H])c([H])c2C1([H])[H]

>  <smiles>  (33) 
[H]c1c([H])c([H])c2c(c1[H])C([H])([H])C([H])([H])C([H])([H])C2([H])N([H])C(=O)C1([H])N(C(=O)C([H])(N([H])C(=O)C([H])(N([H])C([H])([H])[H])C([H])([H])[H])C(C([H])([H])[H])(C([H])([H])[H])C([H])([H])[H])C([H])([H])c2c([H])c(OC([H])([H])C3([H])C([H])([H])N(C(=O)c4c([H])c(F)c([H])c(C([H])([H])N([H])C(=O)N5C([H])([H])C([H])([H])C([H])([H])C([H])(n6nc(-c7c([H])c([H])c(Oc8c([H])c([H])c(F)c([H])c8F)c([H])c7[H])c(C(=O)N([H])[H])c6N([H])[H])C5([H])[H])c4[H])C([H])([H])C([H])([H])C3([H])[H])c([H])c([H])c2C1([H])[H]

$$$$
33:0:0
     RDKit          3D

 94103  0  0  1  0  0  0  0  0999 V2000
  -29.2810  -22.8970   20.1860 C   0  0  0  0  0  0  0  0  0  0  0  0
  -26.6360  -22.7950   21.3510 C   0  0  0  0  0  2  0  0  0  0  0  0
  -27.0190  -24.1160   20.6920 C   0  0  0  0  0  2  0  0  0  0  0  0
  -27.1870  -21.6350   20.5160 C   0  0  0  0  0  2  0  0  0  0  0  0
  -28.5410  -24.2790   20.5330 C   0  0  0  0  0  3  0  0  0  0  0  0
  -28.6470  -21.6730   20.3400 N   0  0  0  0  0  0  0  0  0  0  0  0
  -30.4600  -22.9510   19.8230 O   0  0  0  0  0  0  0  0  0  0  0  0
  -30.2080  -19.8340   21.1450 C   0  0  0  0  0  3  0  0  0  0  0  0
  -30.5240  -18.4410   21.2230 C   0  0  0  0  0  3  0  0  0  0  0  0
  -28.7060  -19.3770   19.3260 C   0  0  0  0  0  3  0  0  0  0  0  0
  -29.0310  -17.9880   19.3830 C   0  0  0  0  0  0  0  0  0  0  0  0
  -29.2490  -20.3340   20.2230 C   0  0  0  0  0  0  0  0  0  0  0  0
  -29.9200  -17.4730   20.3720 C   0  0  0  0  0  0  0  0  0  0  0  0
  -28.3380  -17.0670   18.3930 C   0  0  0  0  0  1  0  0  0  0  0  0
  -30.8070  -15.0290   20.3210 C   0  0  0  0  0  0  0  0  0  0  0  0
  -30.6680  -12.7570   19.3170 C   0  0  0  0  0  2  0  0  0  0  0  0
  -29.7290  -12.8340   18.0930 C   0  0  0  0  0  2  0  0  0  0  0  0
  -28.2530  -12.6650   18.5100 C   0  0  0  0  0  2  0  0  0  0  0  0
  -27.8720  -13.5500   19.7260 C   0  0  0  0  0  3  0  0  0  0  0  0
  -28.9210  -13.4270   20.8530 C   0  0  0  0  0  2  0  0  0  0  0  0
  -30.2310  -13.7840   20.2830 N   0  0  0  0  0  0  0  0  0  0  0  0
  -31.9610  -15.2190   19.9260 O   0  0  0  0  0  0  0  0  0  0  0  0
  -29.9680  -16.0460   20.6910 N   0  0  0  0  0  0  0  0  0  0  0  0
  -29.0900  -15.6850   21.0330 H   0  0  0  0  0  0  0  0  0  0  0  0
  -25.4710  -14.1510   20.4230 C   0  0  0  0  0  0  0  0  0  0  0  0
  -24.4030  -13.3750   20.7850 C   0  0  0  0  0  0  0  0  0  0  0  0
  -24.8700  -12.0260   20.7650 C   0  0  0  0  0  0  0  0  0  0  0  0
  -26.5200  -13.2710   20.2020 N   0  0  0  0  0  0  0  0  0  0  0  0
  -26.1630  -11.9900   20.4680 N   0  0  0  0  0  0  0  0  0  0  0  0
  -24.1460  -10.7620   20.9580 C   0  0  0  0  0  0  0  0  0  0  0  0
  -24.5450   -9.8270   21.9380 C   0  0  0  0  0  3  0  0  0  0  0  0
  -23.8230   -8.6260   22.1150 C   0  0  0  0  0  3  0  0  0  0  0  0
  -22.6890   -8.3550   21.3130 C   0  0  0  0  0  0  0  0  0  0  0  0
  -22.3110   -9.2800   20.3240 C   0  0  0  0  0  3  0  0  0  0  0  0
  -23.0340  -10.4710   20.1450 C   0  0  0  0  0  3  0  0  0  0  0  0
  -21.9440   -7.2040   21.3970 O   0  0  0  0  0  0  0  0  0  0  0  0
  -21.8190   -6.5120   22.5750 C   0  0  0  0  0  0  0  0  0  0  0  0
  -21.2400   -7.0950   23.7230 C   0  0  0  0  0  3  0  0  0  0  0  0
  -21.0670   -6.3270   24.8910 C   0  0  0  0  0  3  0  0  0  0  0  0
  -21.4610   -4.9760   24.9120 C   0  0  0  0  0  0  0  0  0  0  0  0
  -22.0320   -4.3920   23.7680 C   0  0  0  0  0  3  0  0  0  0  0  0
  -22.2070   -5.1570   22.6010 C   0  0  0  0  0  0  0  0  0  0  0  0
  -22.7390   -4.5840   21.4950 F   0  0  0  0  0  0  0  0  0  0  0  0
  -21.2870   -4.2350   26.0310 F   0  0  0  0  0  0  0  0  0  0  0  0
  -23.0020  -13.8500   21.0440 C   0  0  0  0  0  0  0  0  0  0  0  0
  -22.2680  -13.1530   21.9060 N   0  0  0  0  0  0  0  0  0  0  0  0
  -22.5670  -14.8740   20.5200 O   0  0  0  0  0  0  0  0  0  0  0  0
  -22.6340  -12.3260   22.3520 H   0  0  0  0  0  0  0  0  0  0  0  0
  -21.3300  -13.4560   22.1250 H   0  0  0  0  0  0  0  0  0  0  0  0
  -25.6320  -15.5220   20.2460 N   0  0  0  0  0  0  0  0  0  0  0  0
  -24.8650  -16.1750   20.3660 H   0  0  0  0  0  0  0  0  0  0  0  0
  -26.4920  -15.9710   19.9660 H   0  0  0  0  0  0  0  0  0  0  0  0
  -28.8630  -25.5730   19.6480 C   0  0  0  0  0  2  0  0  0  0  0  0
  -28.7080  -26.9350   20.2120 O   0  0  0  0  0  0  0  0  0  0  0  0
  -24.7210  -32.0230   23.3560 C   0  0  0  0  0  0  0  0  0  0  0  0
  -27.5290  -27.6900   20.1560 C   0  0  0  0  0  0  0  0  0  0  0  0
  -23.5850  -30.6610   21.6350 C   0  0  0  0  0  3  0  0  0  0  0  0
  -25.1050  -29.2110   20.1740 C   0  0  0  0  0  0  0  0  0  0  0  0
  -26.1130  -31.0640   21.5110 C   0  0  0  0  0  2  0  0  0  0  0  0
  -26.2440  -29.7180   20.8090 C   0  0  0  0  0  0  0  0  0  0  0  0
  -27.4540  -28.9670   20.7930 C   0  0  0  0  0  3  0  0  0  0  0  0
  -26.3640  -27.2270   19.5050 C   0  0  0  0  0  3  0  0  0  0  0  0
  -25.1640  -27.9700   19.5190 C   0  0  0  0  0  3  0  0  0  0  0  0
  -23.8410  -30.0470   20.2320 C   0  0  0  0  0  2  0  0  0  0  0  0
  -24.8240  -31.2650   22.2240 N   0  0  0  0  0  0  0  0  0  0  0  0
  -23.6200  -32.2480   23.8810 O   0  0  0  0  0  0  0  0  0  0  0  0
  -22.9380  -29.5870   22.5400 C   0  0  0  0  0  0  0  0  0  0  0  0
  -21.6200  -29.3790   22.3830 N   0  0  0  0  0  0  0  0  0  0  0  0
  -23.6220  -28.9450   23.3420 O   0  0  0  0  0  0  0  0  0  0  0  0
  -21.1290  -29.9500   21.7090 H   0  0  0  0  0  0  0  0  0  0  0  0
  -18.2650  -28.0960   22.7970 C   0  0  0  0  0  0  0  0  0  0  0  0
  -20.8160  -28.3860   23.0970 C   0  0  0  0  0  3  0  0  0  0  0  0
  -20.9490  -26.9900   22.4460 C   0  0  0  0  0  2  0  0  0  0  0  0
  -19.8580  -26.7030   21.4100 C   0  0  0  0  0  2  0  0  0  0  0  0
  -18.4700  -26.7880   22.0510 C   0  0  0  0  0  2  0  0  0  0  0  0
  -19.3680  -28.8540   23.2740 C   0  0  0  0  0  0  0  0  0  0  0  0
  -19.1220  -30.0800   23.9300 C   0  0  0  0  0  3  0  0  0  0  0  0
  -17.8070  -30.5500   24.1120 C   0  0  0  0  0  3  0  0  0  0  0  0
  -16.7200  -29.7870   23.6500 C   0  0  0  0  0  3  0  0  0  0  0  0
  -16.9490  -28.5630   23.0000 C   0  0  0  0  0  3  0  0  0  0  0  0
  -25.9750  -32.6620   24.0280 C   0  0  0  0  0  3  0  0  0  0  0  0
  -25.6420  -34.0580   24.3500 N   0  0  0  0  0  0  0  0  0  0  0  0
  -25.9830  -35.1150   23.6000 C   0  0  0  0  0  0  0  0  0  0  0  0
  -26.6820  -35.0190   22.5890 O   0  0  0  0  0  0  0  0  0  0  0  0
  -25.0240  -34.2050   25.1340 H   0  0  0  0  0  0  0  0  0  0  0  0
  -24.2510  -36.8940   23.1960 C   0  0  0  0  0  1  0  0  0  0  0  0
  -25.4700  -36.4980   24.0460 C   0  0  0  0  0  3  0  0  0  0  0  0
  -27.5610  -37.4080   24.9550 C   0  0  0  0  0  1  0  0  0  0  0  0
  -26.4950  -37.5600   23.9660 N   0  0  0  0  0  0  0  0  0  0  0  0
  -26.0750  -38.4770   24.0910 H   0  0  0  0  0  0  0  0  0  0  0  0
  -26.4500  -31.8910   25.3210 C   0  0  1  0  0  0  0  0  0  0  0  0
  -25.3170  -31.6360   26.3440 C   0  0  0  0  0  1  0  0  0  0  0  0
  -27.0660  -30.5230   24.9490 C   0  0  0  0  0  1  0  0  0  0  0  0
  -27.5630  -32.6970   26.0310 C   0  0  0  0  0  1  0  0  0  0  0  0
  1  6  1  0
  1  5  1  0
  3  2  1  0
  4  2  1  0
  5 53  1  0
  5  3  1  0
  6  4  1  0
  7  1  2  0
  8  9  1  0
 10 11  2  0
 10 12  1  0
 11 13  1  0
 12  6  1  0
 12  8  2  0
 13 23  1  0
 13  9  2  0
 14 11  1  0
 15 23  1  0
 16 21  1  0
 17 18  1  0
 17 16  1  0
 19 18  1  0
 19 28  1  0
 19 20  1  0
 21 15  1  0
 21 20  1  0
 22 15  2  0
 23 24  1  0
 25 26  2  0
 26 45  1  0
 27 26  1  0
 27 30  1  0
 28 25  1  0
 28 29  1  0
 29 27  2  0
 30 31  1  0
 31 32  2  0
 33 36  1  0
 33 32  1  0
 34 33  2  0
 35 34  1  0
 35 30  2  0
 36 37  1  0
 37 42  2  0
 37 38  1  0
 38 39  2  0
 39 40  1  0
 40 44  1  0
 41 40  2  0
 42 41  1  0
 43 42  1  0
 45 46  1  0
 46 49  1  0
 46 48  1  0
 47 45  2  0
 50 51  1  0
 50 25  1  0
 52 50  1  0
 53 54  1  0
 55 66  2  0
 56 54  1  0
 56 61  1  0
 57 65  1  0
 57 67  1  0
 58 64  1  0
 58 60  1  0
 59 65  1  0
 60 59  1  0
 61 60  2  0
 62 63  1  0
 62 56  2  0
 63 58  2  0
 64 57  1  0
 65 55  1  0
 67 69  2  0
 68 67  1  0
 70 68  1  0
 71 80  2  0
 71 76  1  0
 72 68  1  0
 72 76  1  0
 73 72  1  0
 74 75  1  0
 74 73  1  0
 75 71  1  0
 76 77  2  0
 77 78  1  0
 79 78  2  0
 80 79  1  0
 81 55  1  0
 81 82  1  0
 81 91  1  0
 82 85  1  0
 83 87  1  0
 83 82  1  0
 84 83  2  0
 87 86  1  0
 89 87  1  0
 89 90  1  0
 89 88  1  0
 91 94  1  1
 91 92  1  0
 93 91  1  0
M  ISO  4  15 100  23 100  53 101  54 101
M  END
>  <TORSDO>  (34) 
F 18

>  <SCORE>  (34) 
-14.145

>  <name>  (34) 
33

>  <ligand_id>  (34) 
33

>  <original_smiles>  (34) 
[H]c1c([H])c([H])c2c(c1[H])C([H])([H])C([H])([H])C([H])([H])C2([H])N([H])C(=O)C1([H])N(C(=O)C([H])(N([H])C(=O)C([H])(N([H])C([H])([H])[H])C([H])([H])[H])C(C([H])([H])[H])(C([H])([H])[H])C([H])([H])[H])C([H])([H])c2c([H])c(OC([H])([H])C3([H])C(=O)N(c4c([H])c([H])c(N([H])C(=O)N5C([H])([H])C([H])([H])C([H])([H])C([H])(n6nc(-c7c([H])c([H])c(Oc8c([H])c([H])c(F)c([H])c8F)c([H])c7[H])c(C(=O)N([H])[H])c6N([H])[H])C5([H])[H])c(C([H])([H])[H])c4[H])C([H])([H])C([H])([H])C3([H])[H])c([H])c([H])c2C1([H])[H]

>  <smiles>  (34) 
[H]c1c([H])c([H])c2c(c1[H])C([H])([H])C([H])([H])C([H])([H])C2([H])N([H])C(=O)C1([H])N(C(=O)C([H])(N([H])C(=O)C([H])(N([H])C([H])([H])[H])C([H])([H])[H])C(C([H])([H])[H])(C([H])([H])[H])C([H])([H])[H])C([H])([H])c2c([H])c(OC([H])([H])C3([H])C(=O)N(c4c([H])c([H])c(N([H])C(=O)N5C([H])([H])C([H])([H])C([H])([H])C([H])(n6nc(-c7c([H])c([H])c(Oc8c([H])c([H])c(F)c([H])c8F)c([H])c7[H])c(C(=O)N([H])[H])c6N([H])[H])C5([H])[H])c(C([H])([H])[H])c4[H])C([H])([H])C([H])([H])C3([H])[H])c([H])c([H])c2C1([H])[H]

$$$$
34:0:0
     RDKit          3D

 96104  0  0  1  0  0  0  0  0999 V2000
  -29.4320  -22.0500   21.7860 C   0  0  0  0  0  3  0  0  0  0  0  0
  -29.7590  -20.7320   19.7810 C   0  0  0  0  0  3  0  0  0  0  0  0
  -30.2060  -21.1250   22.5190 C   0  0  0  0  0  0  0  0  0  0  0  0
  -30.5460  -19.7700   20.4950 C   0  0  0  0  0  0  0  0  0  0  0  0
  -30.7740  -19.9860   21.8840 C   0  0  0  0  0  0  0  0  0  0  0  0
  -29.1990  -21.8950   20.3990 C   0  0  0  0  0  0  0  0  0  0  0  0
  -30.4090  -21.4000   24.0050 C   0  0  0  0  0  1  0  0  0  0  0  0
  -28.1380  -24.0350   20.0090 C   0  0  0  0  0  3  0  0  0  0  0  0
  -28.4310  -22.8270   19.6330 N   0  0  0  0  0  0  0  0  0  0  0  0
  -27.2790  -25.0370   19.1910 C   0  0  0  0  0  2  0  0  0  0  0  0
  -27.3690  -26.4400   19.5880 O   0  0  0  0  0  0  0  0  0  0  0  0
  -24.4220  -31.8580   23.2170 C   0  0  0  0  0  0  0  0  0  0  0  0
  -26.2540  -27.2680   19.7200 C   0  0  0  0  0  0  0  0  0  0  0  0
  -22.9030  -30.6240   21.7070 C   0  0  0  0  0  3  0  0  0  0  0  0
  -24.0260  -29.0110   20.0740 C   0  0  0  0  0  0  0  0  0  0  0  0
  -25.4120  -30.7570   21.2030 C   0  0  0  0  0  2  0  0  0  0  0  0
  -25.2920  -29.4030   20.5230 C   0  0  0  0  0  0  0  0  0  0  0  0
  -26.4040  -28.5400   20.3400 C   0  0  0  0  0  3  0  0  0  0  0  0
  -24.9580  -26.9010   19.2840 C   0  0  0  0  0  3  0  0  0  0  0  0
  -23.8560  -27.7630   19.4550 C   0  0  0  0  0  3  0  0  0  0  0  0
  -22.8810  -29.9770   20.2970 C   0  0  0  0  0  2  0  0  0  0  0  0
  -24.2740  -31.0920   22.0980 N   0  0  0  0  0  0  0  0  0  0  0  0
  -23.4430  -32.2030   23.8940 O   0  0  0  0  0  0  0  0  0  0  0  0
  -22.2840  -29.6320   22.7180 C   0  0  0  0  0  0  0  0  0  0  0  0
  -20.9680  -29.3890   22.5940 N   0  0  0  0  0  0  0  0  0  0  0  0
  -22.9850  -29.0810   23.5710 O   0  0  0  0  0  0  0  0  0  0  0  0
  -20.4610  -29.8860   21.8750 H   0  0  0  0  0  0  0  0  0  0  0  0
  -17.7050  -27.8780   22.9640 C   0  0  0  0  0  0  0  0  0  0  0  0
  -20.1850  -28.4600   23.4070 C   0  0  0  0  0  3  0  0  0  0  0  0
  -20.4910  -26.9920   23.0270 C   0  0  0  0  0  2  0  0  0  0  0  0
  -19.5300  -26.4280   21.9760 C   0  0  0  0  0  2  0  0  0  0  0  0
  -18.0860  -26.4880   22.4810 C   0  0  0  0  0  2  0  0  0  0  0  0
  -18.6930  -28.8080   23.3840 C   0  0  0  0  0  0  0  0  0  0  0  0
  -18.2890  -30.0990   23.7900 C   0  0  0  0  0  3  0  0  0  0  0  0
  -16.9290  -30.4630   23.7840 C   0  0  0  0  0  3  0  0  0  0  0  0
  -15.9550  -29.5320   23.3830 C   0  0  0  0  0  3  0  0  0  0  0  0
  -16.3430  -28.2430   22.9790 C   0  0  0  0  0  3  0  0  0  0  0  0
  -25.8240  -32.3560   23.6860 C   0  0  0  0  0  3  0  0  0  0  0  0
  -25.6760  -33.7500   24.1280 N   0  0  0  0  0  0  0  0  0  0  0  0
  -26.0370  -34.8190   23.4060 C   0  0  0  0  0  0  0  0  0  0  0  0
  -26.6030  -34.7290   22.3130 O   0  0  0  0  0  0  0  0  0  0  0  0
  -25.1710  -33.9010   24.9880 H   0  0  0  0  0  0  0  0  0  0  0  0
  -24.4660  -36.7810   23.3080 C   0  0  0  0  0  1  0  0  0  0  0  0
  -25.7200  -36.2100   23.9880 C   0  0  0  0  0  3  0  0  0  0  0  0
  -27.9850  -36.8400   24.6970 C   0  0  0  0  0  1  0  0  0  0  0  0
  -26.8370  -37.1710   23.8580 N   0  0  0  0  0  0  0  0  0  0  0  0
  -26.5310  -38.1120   24.0940 H   0  0  0  0  0  0  0  0  0  0  0  0
  -26.4450  -31.4730   24.8380 C   0  0  1  0  0  0  0  0  0  0  0  0
  -25.4840  -31.2350   26.0270 C   0  0  0  0  0  1  0  0  0  0  0  0
  -26.8740  -30.0900   24.2950 C   0  0  0  0  0  1  0  0  0  0  0  0
  -27.7260  -32.1470   25.3850 C   0  0  0  0  0  1  0  0  0  0  0  0
  -31.2150  -18.5620   19.7650 C   0  0  0  0  0  2  0  0  0  0  0  0
  -30.3100  -17.3230   19.4410 C   0  0  0  0  0  2  0  0  0  0  0  0
  -31.2810  -15.0270   20.0450 C   0  0  0  0  0  0  0  0  0  0  0  0
  -31.1340  -12.6500   19.3740 C   0  0  0  0  0  2  0  0  0  0  0  0
  -30.2160  -12.5760   18.1330 C   0  0  0  0  0  2  0  0  0  0  0  0
  -28.7350  -12.4640   18.5480 C   0  0  0  0  0  2  0  0  0  0  0  0
  -28.3380  -13.5140   19.6210 C   0  0  0  0  0  3  0  0  0  0  0  0
  -29.3690  -13.5480   20.7730 C   0  0  0  0  0  2  0  0  0  0  0  0
  -30.6970  -13.8000   20.1880 N   0  0  0  0  0  0  0  0  0  0  0  0
  -32.4050  -15.1740   19.5580 O   0  0  0  0  0  0  0  0  0  0  0  0
  -30.4560  -16.0840   20.2600 N   0  0  0  0  0  0  0  0  0  0  0  0
  -29.6140  -15.8170   20.7500 H   0  0  0  0  0  0  0  0  0  0  0  0
  -25.9880  -14.2230   20.3920 C   0  0  0  0  0  0  0  0  0  0  0  0
  -24.8840  -13.4960   20.7490 C   0  0  0  0  0  0  0  0  0  0  0  0
  -25.2680  -12.1240   20.6550 C   0  0  0  0  0  0  0  0  0  0  0  0
  -26.9790  -13.2950   20.1100 N   0  0  0  0  0  0  0  0  0  0  0  0
  -26.5490  -12.0250   20.3240 N   0  0  0  0  0  0  0  0  0  0  0  0
  -24.4740  -10.8960   20.8060 C   0  0  0  0  0  0  0  0  0  0  0  0
  -24.8190   -9.9060   21.7520 C   0  0  0  0  0  3  0  0  0  0  0  0
  -24.0310   -8.7450   21.8910 C   0  0  0  0  0  3  0  0  0  0  0  0
  -22.8830   -8.5660   21.0840 C   0  0  0  0  0  0  0  0  0  0  0  0
  -22.5560   -9.5440   20.1290 C   0  0  0  0  0  3  0  0  0  0  0  0
  -23.3460  -10.6960   19.9870 C   0  0  0  0  0  3  0  0  0  0  0  0
  -22.0720   -7.4570   21.1330 O   0  0  0  0  0  0  0  0  0  0  0  0
  -21.8530   -6.7760   22.3040 C   0  0  0  0  0  0  0  0  0  0  0  0
  -21.3000   -7.4070   23.4390 C   0  0  0  0  0  3  0  0  0  0  0  0
  -21.0260   -6.6530   24.5990 C   0  0  0  0  0  3  0  0  0  0  0  0
  -21.2960   -5.2720   24.6230 C   0  0  0  0  0  0  0  0  0  0  0  0
  -21.8410   -4.6410   23.4900 C   0  0  0  0  0  3  0  0  0  0  0  0
  -22.1160   -5.3920   22.3330 C   0  0  0  0  0  0  0  0  0  0  0  0
  -22.6220   -4.7750   21.2370 F   0  0  0  0  0  0  0  0  0  0  0  0
  -21.0260   -4.5470   25.7330 F   0  0  0  0  0  0  0  0  0  0  0  0
  -23.5200  -14.0390   21.0660 C   0  0  0  0  0  0  0  0  0  0  0  0
  -22.7770  -13.3560   21.9300 N   0  0  0  0  0  0  0  0  0  0  0  0
  -23.1260  -15.1000   20.5860 O   0  0  0  0  0  0  0  0  0  0  0  0
  -23.1080  -12.4950   22.3380 H   0  0  0  0  0  0  0  0  0  0  0  0
  -21.8620  -13.6990   22.1880 H   0  0  0  0  0  0  0  0  0  0  0  0
  -26.2280  -15.5880   20.2660 N   0  0  0  0  0  0  0  0  0  0  0  0
  -25.4960  -16.2770   20.4030 H   0  0  0  0  0  0  0  0  0  0  0  0
  -27.0890  -15.9890   19.9180 H   0  0  0  0  0  0  0  0  0  0  0  0
  -31.6540  -19.0260   22.6920 C   0  0  0  0  0  2  0  0  0  0  0  0
  -33.0680  -19.4250   22.6320 N   0  0  0  0  0  4  0  0  0  0  0  0
  -33.4040  -19.4030   21.6880 H   0  0  0  0  0  0  0  0  0  0  0  0
  -33.6250  -18.8000   23.1860 H   0  0  0  0  0  0  0  0  0  0  0  0
  -33.1840  -20.3550   22.9870 H   0  0  0  0  0  0  0  0  0  0  0  0
  1  3  1  0
  2  6  1  0
  2  4  2  0
  3  7  1  0
  4  5  1  0
  5  3  2  0
  5 92  1  0
  6  1  2  0
  9  8  2  0
  9  6  1  0
 10 11  1  0
 10  8  1  0
 11 13  1  0
 12 23  2  0
 13 18  1  0
 14 22  1  0
 14 24  1  0
 15 21  1  0
 15 17  1  0
 16 22  1  0
 17 16  1  0
 18 17  2  0
 19 20  1  0
 19 13  2  0
 20 15  2  0
 21 14  1  0
 22 12  1  0
 24 26  2  0
 25 24  1  0
 27 25  1  0
 28 37  2  0
 28 33  1  0
 29 25  1  0
 30 29  1  0
 31 32  1  0
 31 30  1  0
 32 28  1  0
 33 29  1  0
 33 34  2  0
 35 34  1  0
 36 35  2  0
 37 36  1  0
 38 12  1  0
 38 39  1  0
 38 48  1  0
 39 42  1  0
 40 44  1  0
 40 39  1  0
 41 40  2  0
 44 43  1  0
 46 44  1  0
 46 47  1  0
 46 45  1  0
 48 51  1  1
 48 49  1  0
 50 48  1  0
 52  4  1  0
 53 52  1  0
 53 62  1  0
 54 60  1  0
 54 62  1  0
 55 60  1  0
 56 57  1  0
 56 55  1  0
 58 57  1  0
 58 67  1  0
 58 59  1  0
 60 59  1  0
 61 54  2  0
 62 63  1  0
 64 65  2  0
 65 84  1  0
 66 65  1  0
 66 69  1  0
 67 68  1  0
 67 64  1  0
 68 66  2  0
 69 70  1  0
 70 71  2  0
 72 75  1  0
 72 71  1  0
 73 72  2  0
 74 73  1  0
 74 69  2  0
 75 76  1  0
 76 81  2  0
 76 77  1  0
 77 78  2  0
 78 79  1  0
 79 83  1  0
 80 79  2  0
 81 80  1  0
 82 81  1  0
 84 85  1  0
 85 88  1  0
 85 87  1  0
 86 84  2  0
 89 64  1  0
 89 90  1  0
 91 89  1  0
 93 92  1  0
 93 96  1  0
 93 95  1  0
 94 93  1  0
M  ISO  4  10 101  11 101  54 100  62 100
M  END
>  <TORSDO>  (35) 
F 22

>  <SCORE>  (35) 
-11.842

>  <name>  (35) 
34

>  <ligand_id>  (35) 
34

>  <original_smiles>  (35) 
[H]C(=Nc1c([H])c(C([H])([H])[H])c(C([H])([H])[N+]([H])([H])[H])c(C([H])([H])C([H])([H])N([H])C(=O)N2C([H])([H])C([H])([H])C([H])([H])C([H])(n3nc(-c4c([H])c([H])c(Oc5c([H])c([H])c(F)c([H])c5F)c([H])c4[H])c(C(=O)N([H])[H])c3N([H])[H])C2([H])[H])c1[H])C([H])([H])Oc1c([H])c([H])c2c(c1[H])C([H])([H])N(C(=O)C([H])(N([H])C(=O)C([H])(N([H])C([H])([H])[H])C([H])([H])[H])C(C([H])([H])[H])(C([H])([H])[H])C([H])([H])[H])C([H])(C(=O)N([H])C1([H])c3c([H])c([H])c([H])c([H])c3C([H])([H])C([H])([H])C1([H])[H])C2([H])[H]

>  <smiles>  (35) 
[H]C(=Nc1c([H])c(C([H])([H])[H])c(C([H])([H])[N+]([H])([H])[H])c(C([H])([H])C([H])([H])N([H])C(=O)N2C([H])([H])C([H])([H])C([H])([H])C([H])(n3nc(-c4c([H])c([H])c(Oc5c([H])c([H])c(F)c([H])c5F)c([H])c4[H])c(C(=O)N([H])[H])c3N([H])[H])C2([H])[H])c1[H])C([H])([H])Oc1c([H])c([H])c2c(c1[H])C([H])([H])N(C(=O)C([H])(N([H])C(=O)C([H])(N([H])C([H])([H])[H])C([H])([H])[H])C(C([H])([H])[H])(C([H])([H])[H])C([H])([H])[H])C([H])(C(=O)N([H])C1([H])c3c([H])c([H])c([H])c([H])c3C([H])([H])C([H])([H])C1([H])[H])C2([H])[H]

$$$$
35:0:0
     RDKit          3D

 97106  0  0  1  0  0  0  0  0999 V2000
  -30.9360  -22.1500   21.8890 C   0  0  0  0  0  0  0  0  0  0  0  0
  -29.3710  -22.4760   20.1170 C   0  0  0  0  0  0  0  0  0  0  0  0
  -31.2590  -23.6520   21.9390 C   0  0  0  0  0  2  0  0  0  0  0  0
  -30.0840  -24.5230   21.4980 C   0  0  0  0  0  2  0  0  0  0  0  0
  -29.5490  -24.0650   20.1380 C   0  0  0  0  0  3  0  0  0  0  0  0
  -30.1170  -21.6250   20.9270 N   0  0  0  0  0  0  0  0  0  0  0  0
  -31.4510  -21.4540   22.7750 O   0  0  0  0  0  0  0  0  0  0  0  0
  -28.5390  -22.0190   19.3250 O   0  0  0  0  0  0  0  0  0  0  0  0
  -31.3120  -19.3900   20.7090 C   0  0  0  0  0  3  0  0  0  0  0  0
  -31.3400  -17.9670   20.6480 C   0  0  0  0  0  3  0  0  0  0  0  0
  -28.9140  -19.3500   20.8570 C   0  0  0  0  0  3  0  0  0  0  0  0
  -30.1000  -20.1410   20.8100 C   0  0  0  0  0  0  0  0  0  0  0  0
  -30.1550  -17.1870   20.6610 C   0  0  0  0  0  0  0  0  0  0  0  0
  -28.9410  -17.9220   20.7720 C   0  0  0  0  0  0  0  0  0  0  0  0
  -27.7660  -17.2470   20.7250 F   0  0  0  0  0  0  0  0  0  0  0  0
  -30.8210  -14.7130   20.7940 C   0  0  0  0  0  0  0  0  0  0  0  0
  -30.7190  -12.3480   20.0370 C   0  0  0  0  0  2  0  0  0  0  0  0
  -29.9040  -12.2160   18.7330 C   0  0  0  0  0  2  0  0  0  0  0  0
  -28.3870  -12.1440   19.0190 C   0  0  0  0  0  2  0  0  0  0  0  0
  -27.8840  -13.1350   20.1090 C   0  0  0  0  0  3  0  0  0  0  0  0
  -28.8430  -13.2060   21.3160 C   0  0  0  0  0  2  0  0  0  0  0  0
  -30.1800  -13.4990   20.7860 N   0  0  0  0  0  0  0  0  0  0  0  0
  -32.0510  -14.7580   20.8340 O   0  0  0  0  0  0  0  0  0  0  0  0
  -30.1400  -15.7860   20.2270 N   0  0  0  0  0  0  0  0  0  0  0  0
  -25.4450  -13.7420   20.6070 C   0  0  0  0  0  0  0  0  0  0  0  0
  -24.3490  -12.9740   20.8950 C   0  0  0  0  0  0  0  0  0  0  0  0
  -24.8140  -11.6270   20.9560 C   0  0  0  0  0  0  0  0  0  0  0  0
  -26.5060  -12.8590   20.5020 N   0  0  0  0  0  0  0  0  0  0  0  0
  -26.1290  -11.5830   20.7770 N   0  0  0  0  0  0  0  0  0  0  0  0
  -24.0770  -10.3670   21.1160 C   0  0  0  0  0  0  0  0  0  0  0  0
  -24.4460   -9.4180   22.0950 C   0  0  0  0  0  3  0  0  0  0  0  0
  -23.7120   -8.2230   22.2410 C   0  0  0  0  0  3  0  0  0  0  0  0
  -22.5980   -7.9650   21.4100 C   0  0  0  0  0  0  0  0  0  0  0  0
  -22.2490   -8.9010   20.4210 C   0  0  0  0  0  3  0  0  0  0  0  0
  -22.9820  -10.0900   20.2730 C   0  0  0  0  0  3  0  0  0  0  0  0
  -21.8420   -6.8170   21.4650 O   0  0  0  0  0  0  0  0  0  0  0  0
  -21.7210   -6.0910   22.6230 C   0  0  0  0  0  0  0  0  0  0  0  0
  -21.2080   -6.6590   23.8100 C   0  0  0  0  0  3  0  0  0  0  0  0
  -21.0370   -5.8580   24.9570 C   0  0  0  0  0  3  0  0  0  0  0  0
  -21.3650   -4.4910   24.9150 C   0  0  0  0  0  0  0  0  0  0  0  0
  -21.8680   -3.9200   23.7310 C   0  0  0  0  0  3  0  0  0  0  0  0
  -22.0420   -4.7200   22.5870 C   0  0  0  0  0  0  0  0  0  0  0  0
  -22.5070   -4.1630   21.4420 F   0  0  0  0  0  0  0  0  0  0  0  0
  -21.1920   -3.7170   26.0110 F   0  0  0  0  0  0  0  0  0  0  0  0
  -22.9300  -13.4520   21.0180 C   0  0  0  0  0  0  0  0  0  0  0  0
  -22.1290  -12.7930   21.8490 N   0  0  0  0  0  0  0  0  0  0  0  0
  -22.5350  -14.4450   20.4080 O   0  0  0  0  0  0  0  0  0  0  0  0
  -22.4580  -11.9880   22.3610 H   0  0  0  0  0  0  0  0  0  0  0  0
  -21.1760  -13.0970   21.9760 H   0  0  0  0  0  0  0  0  0  0  0  0
  -25.6260  -15.1070   20.4050 N   0  0  0  0  0  0  0  0  0  0  0  0
  -24.8620  -15.7710   20.4400 H   0  0  0  0  0  0  0  0  0  0  0  0
  -26.5280  -15.5540   20.2750 H   0  0  0  0  0  0  0  0  0  0  0  0
  -29.9600  -15.7600   18.7540 C   0  0  0  0  0  2  0  0  0  0  0  0
  -31.6790  -16.8350   17.2260 C   0  0  0  0  0  2  0  0  0  0  0  0
  -31.2690  -15.8000   17.9770 C   0  0  0  0  0  3  0  0  0  0  0  0
  -28.3120  -24.9700   19.6880 C   0  0  0  0  0  2  0  0  0  0  0  0
  -28.4330  -26.4430   19.7880 O   0  0  0  0  0  0  0  0  0  0  0  0
  -24.5290  -31.6050   22.9700 C   0  0  0  0  0  0  0  0  0  0  0  0
  -27.2650  -27.2240   19.7740 C   0  0  0  0  0  0  0  0  0  0  0  0
  -23.3530  -30.2190   21.2960 C   0  0  0  0  0  3  0  0  0  0  0  0
  -24.8400  -28.7460   19.8250 C   0  0  0  0  0  0  0  0  0  0  0  0
  -25.8790  -30.6160   21.1060 C   0  0  0  0  0  2  0  0  0  0  0  0
  -25.9960  -29.2590   20.4240 C   0  0  0  0  0  0  0  0  0  0  0  0
  -27.2110  -28.5120   20.3850 C   0  0  0  0  0  3  0  0  0  0  0  0
  -26.0770  -26.7520   19.1670 C   0  0  0  0  0  3  0  0  0  0  0  0
  -24.8810  -27.4960   19.1880 C   0  0  0  0  0  3  0  0  0  0  0  0
  -23.5770  -29.5810   19.8990 C   0  0  0  0  0  2  0  0  0  0  0  0
  -24.6060  -30.8290   21.8480 N   0  0  0  0  0  0  0  0  0  0  0  0
  -23.4420  -31.8390   23.5150 O   0  0  0  0  0  0  0  0  0  0  0  0
  -22.7230  -29.1610   22.2320 C   0  0  0  0  0  0  0  0  0  0  0  0
  -21.3960  -28.9820   22.1330 N   0  0  0  0  0  0  0  0  0  0  0  0
  -23.4260  -28.5060   23.0070 O   0  0  0  0  0  0  0  0  0  0  0  0
  -20.8890  -29.5650   21.4820 H   0  0  0  0  0  0  0  0  0  0  0  0
  -18.0330  -27.7690   22.6870 C   0  0  0  0  0  0  0  0  0  0  0  0
  -20.5990  -28.0110   22.8850 C   0  0  0  0  0  3  0  0  0  0  0  0
  -20.6780  -26.6080   22.2380 C   0  0  0  0  0  2  0  0  0  0  0  0
  -19.5410  -26.3370   21.2480 C   0  0  0  0  0  2  0  0  0  0  0  0
  -18.1820  -26.4540   21.9440 C   0  0  0  0  0  2  0  0  0  0  0  0
  -19.1680  -28.5090   23.1140 C   0  0  0  0  0  0  0  0  0  0  0  0
  -18.9720  -29.7430   23.7720 C   0  0  0  0  0  3  0  0  0  0  0  0
  -17.6740  -30.2370   24.0060 C   0  0  0  0  0  3  0  0  0  0  0  0
  -16.5550  -29.4940   23.5930 C   0  0  0  0  0  3  0  0  0  0  0  0
  -16.7350  -28.2620   22.9390 C   0  0  0  0  0  3  0  0  0  0  0  0
  -25.7980  -32.2520   23.6030 C   0  0  0  0  0  3  0  0  0  0  0  0
  -26.3610  -31.4400   24.8350 C   0  0  1  0  0  0  0  0  0  0  0  0
  -25.2960  -31.1280   25.9120 C   0  0  0  0  0  1  0  0  0  0  0  0
  -26.9710  -30.0960   24.3720 C   0  0  0  0  0  1  0  0  0  0  0  0
  -27.5010  -32.2380   25.5110 C   0  0  0  0  0  1  0  0  0  0  0  0
  -25.4450  -33.6210   24.0040 N   0  0  0  0  0  0  0  0  0  0  0  0
  -25.7520  -34.7230   23.3050 C   0  0  0  0  0  0  0  0  0  0  0  0
  -26.4320  -34.6940   22.2770 O   0  0  0  0  0  0  0  0  0  0  0  0
  -24.8400  -33.7150   24.8070 H   0  0  0  0  0  0  0  0  0  0  0  0
  -23.9810  -36.4890   23.0240 C   0  0  0  0  0  1  0  0  0  0  0  0
  -25.2210  -36.0700   23.8320 C   0  0  0  0  0  3  0  0  0  0  0  0
  -27.3170  -36.9630   24.7490 C   0  0  0  0  0  1  0  0  0  0  0  0
  -26.2260  -37.1550   23.7960 N   0  0  0  0  0  0  0  0  0  0  0  0
  -25.7940  -38.0540   23.9870 H   0  0  0  0  0  0  0  0  0  0  0  0
  1  3  1  0
  1  7  2  0
  2  5  1  0
  2  6  1  0
  4  3  1  0
  5 56  1  0
  5  4  1  0
  6  1  1  0
  8  2  2  0
  9 12  1  0
 10 13  1  0
 10  9  2  0
 12 11  2  0
 12  6  1  0
 13 14  2  0
 14 11  1  0
 15 14  1  0
 16 23  2  0
 17 22  1  0
 18 19  1  0
 18 17  1  0
 20 19  1  0
 20 28  1  0
 20 21  1  0
 22 16  1  0
 22 21  1  0
 24 13  1  0
 24 16  1  0
 25 26  2  0
 26 27  1  0
 26 45  1  0
 27 30  1  0
 28 25  1  0
 28 29  1  0
 29 27  2  0
 30 31  1  0
 31 32  2  0
 33 36  1  0
 33 32  1  0
 34 33  2  0
 35 34  1  0
 35 30  2  0
 36 37  1  0
 37 38  1  0
 38 39  2  0
 40 39  1  0
 40 44  1  0
 41 40  2  0
 42 37  2  0
 42 41  1  0
 43 42  1  0
 45 46  1  0
 46 49  1  0
 46 48  1  0
 47 45  2  0
 50 51  1  0
 50 25  1  0
 52 50  1  0
 53 24  1  0
 54 55  2  0
 55 53  1  0
 56 57  1  0
 58 69  2  0
 59 57  1  0
 59 64  1  0
 60 68  1  0
 60 70  1  0
 61 67  1  0
 61 63  1  0
 62 68  1  0
 63 62  1  0
 64 63  2  0
 65 66  1  0
 65 59  2  0
 66 61  2  0
 67 60  1  0
 68 58  1  0
 70 72  2  0
 71 70  1  0
 73 71  1  0
 74 83  2  0
 74 79  1  0
 75 71  1  0
 75 79  1  0
 76 75  1  0
 77 78  1  0
 77 76  1  0
 78 74  1  0
 79 80  2  0
 80 81  1  0
 82 81  2  0
 83 82  1  0
 84 58  1  0
 84 89  1  0
 84 85  1  0
 85 88  1  1
 85 86  1  0
 87 85  1  0
 89 92  1  0
 90 94  1  0
 90 89  1  0
 91 90  2  0
 94 93  1  0
 96 94  1  0
 96 97  1  0
 96 95  1  0
M  ISO  4  16 100  24 100  56 101  57 101
M  END
>  <TORSDO>  (36) 
F 20

>  <SCORE>  (36) 
-12.325

>  <name>  (36) 
35

>  <ligand_id>  (36) 
35

>  <original_smiles>  (36) 
[H]C([H])=C([H])C([H])([H])N(C(=O)N1C([H])([H])C([H])([H])C([H])([H])C([H])(n2nc(-c3c([H])c([H])c(Oc4c([H])c([H])c(F)c([H])c4F)c([H])c3[H])c(C(=O)N([H])[H])c2N([H])[H])C1([H])[H])c1c([H])c([H])c(N2C(=O)C([H])([H])C([H])([H])C([H])(C([H])([H])Oc3c([H])c([H])c4c(c3[H])C([H])([H])N(C(=O)C([H])(N([H])C(=O)C([H])(N([H])C([H])([H])[H])C([H])([H])[H])C(C([H])([H])[H])(C([H])([H])[H])C([H])([H])[H])C([H])(C(=O)N([H])C3([H])c5c([H])c([H])c([H])c([H])c5C([H])([H])C([H])([H])C3([H])[H])C4([H])[H])C2=O)c([H])c1F

>  <smiles>  (36) 
[H]C([H])=C([H])C([H])([H])N(C(=O)N1C([H])([H])C([H])([H])C([H])([H])C([H])(n2nc(-c3c([H])c([H])c(Oc4c([H])c([H])c(F)c([H])c4F)c([H])c3[H])c(C(=O)N([H])[H])c2N([H])[H])C1([H])[H])c1c([H])c([H])c(N2C(=O)C([H])([H])C([H])([H])C([H])(C([H])([H])Oc3c([H])c([H])c4c(c3[H])C([H])([H])N(C(=O)C([H])(N([H])C(=O)C([H])(N([H])C([H])([H])[H])C([H])([H])[H])C(C([H])([H])[H])(C([H])([H])[H])C([H])([H])[H])C([H])(C(=O)N([H])C3([H])c5c([H])c([H])c([H])c([H])c5C([H])([H])C([H])([H])C3([H])[H])C4([H])[H])C2=O)c([H])c1F

$$$$
36:0:0
     RDKit          3D

 98107  0  0  1  0  0  0  0  0999 V2000
  -28.5980  -21.6970   20.7720 C   0  0  0  0  0  2  0  0  0  0  0  0
  -29.5810  -23.4370   17.6060 C   0  0  0  0  0  2  0  0  0  0  0  0
  -30.4950  -22.3950   18.2760 C   0  0  0  0  0  2  0  0  0  0  0  0
  -29.3140  -24.6350   18.5270 C   0  0  0  0  0  2  0  0  0  0  0  0
  -30.6930  -22.6660   19.7820 C   0  0  0  0  0  2  0  0  0  0  0  0
  -28.6680  -24.1930   19.8670 C   0  0  0  0  0  3  0  0  0  0  0  0
  -29.4060  -22.9620   20.4710 N   0  0  1  0  0  4  0  0  0  0  0  0
  -29.7040  -23.2450   21.3930 H   0  0  0  0  0  0  0  0  0  0  0  0
  -28.4870  -25.4900   20.7940 C   0  0  0  0  0  2  0  0  0  0  0  0
  -28.4760  -26.8490   20.1890 O   0  0  0  0  0  0  0  0  0  0  0  0
  -24.6150  -32.0750   23.3470 C   0  0  0  0  0  0  0  0  0  0  0  0
  -27.3130  -27.6290   20.2220 C   0  0  0  0  0  0  0  0  0  0  0  0
  -23.4290  -30.6710   21.6920 C   0  0  0  0  0  3  0  0  0  0  0  0
  -24.9050  -29.1670   20.2390 C   0  0  0  0  0  0  0  0  0  0  0  0
  -25.9550  -31.0580   21.4910 C   0  0  0  0  0  2  0  0  0  0  0  0
  -26.0650  -29.6900   20.8280 C   0  0  0  0  0  0  0  0  0  0  0  0
  -27.2720  -28.9330   20.8040 C   0  0  0  0  0  3  0  0  0  0  0  0
  -26.1340  -27.1480   19.6200 C   0  0  0  0  0  3  0  0  0  0  0  0
  -24.9410  -27.9030   19.6250 C   0  0  0  0  0  3  0  0  0  0  0  0
  -23.6500  -30.0140   20.3020 C   0  0  0  0  0  2  0  0  0  0  0  0
  -24.6840  -31.2870   22.2330 N   0  0  0  0  0  0  0  0  0  0  0  0
  -23.5310  -32.3160   23.8970 O   0  0  0  0  0  0  0  0  0  0  0  0
  -22.7970  -29.6290   22.6440 C   0  0  0  0  0  0  0  0  0  0  0  0
  -21.4830  -29.3930   22.4950 N   0  0  0  0  0  0  0  0  0  0  0  0
  -23.4900  -29.0340   23.4730 O   0  0  0  0  0  0  0  0  0  0  0  0
  -20.9820  -29.9280   21.7990 H   0  0  0  0  0  0  0  0  0  0  0  0
  -18.1600  -28.0270   22.9130 C   0  0  0  0  0  0  0  0  0  0  0  0
  -20.6940  -28.4200   23.2510 C   0  0  0  0  0  3  0  0  0  0  0  0
  -20.8860  -26.9930   22.6880 C   0  0  0  0  0  2  0  0  0  0  0  0
  -19.8320  -26.6070   21.6460 C   0  0  0  0  0  2  0  0  0  0  0  0
  -18.4270  -26.6840   22.2520 C   0  0  0  0  0  2  0  0  0  0  0  0
  -19.2260  -28.8490   23.3660 C   0  0  0  0  0  0  0  0  0  0  0  0
  -18.9280  -30.1020   23.9440 C   0  0  0  0  0  3  0  0  0  0  0  0
  -17.5960  -30.5370   24.0720 C   0  0  0  0  0  3  0  0  0  0  0  0
  -16.5430  -29.7130   23.6370 C   0  0  0  0  0  3  0  0  0  0  0  0
  -16.8260  -28.4590   23.0650 C   0  0  0  0  0  3  0  0  0  0  0  0
  -25.8890  -32.7270   23.9680 C   0  0  0  0  0  3  0  0  0  0  0  0
  -25.5720  -34.1300   24.2650 N   0  0  0  0  0  0  0  0  0  0  0  0
  -25.9120  -35.1690   23.4910 C   0  0  0  0  0  0  0  0  0  0  0  0
  -26.5950  -35.0470   22.4710 O   0  0  0  0  0  0  0  0  0  0  0  0
  -24.9690  -34.2990   25.0580 H   0  0  0  0  0  0  0  0  0  0  0  0
  -24.1820  -36.9490   23.0780 C   0  0  0  0  0  1  0  0  0  0  0  0
  -25.4150  -36.5660   23.9130 C   0  0  0  0  0  3  0  0  0  0  0  0
  -27.5330  -37.4790   24.7540 C   0  0  0  0  0  1  0  0  0  0  0  0
  -26.4450  -37.6200   23.7900 N   0  0  0  0  0  0  0  0  0  0  0  0
  -26.0340  -38.5430   23.9080 H   0  0  0  0  0  0  0  0  0  0  0  0
  -26.3940  -31.9860   25.2680 C   0  0  1  0  0  0  0  0  0  0  0  0
  -25.2890  -31.7570   26.3240 C   0  0  0  0  0  1  0  0  0  0  0  0
  -26.9980  -30.6080   24.9120 C   0  0  0  0  0  1  0  0  0  0  0  0
  -27.5250  -32.8050   25.9340 C   0  0  0  0  0  1  0  0  0  0  0  0
  -28.5810  -19.3500   19.6940 C   0  0  0  0  0  3  0  0  0  0  0  0
  -30.6550  -18.2950   21.2190 C   0  0  0  0  0  3  0  0  0  0  0  0
  -28.9470  -17.9820   19.5380 C   0  0  0  0  0  0  0  0  0  0  0  0
  -29.1930  -20.2290   20.6140 C   0  0  0  0  0  0  0  0  0  0  0  0
  -30.0550  -17.4270   20.2570 C   0  0  0  0  0  0  0  0  0  0  0  0
  -30.2160  -19.6560   21.4290 C   0  0  0  0  0  0  0  0  0  0  0  0
  -31.1100  -15.0760   20.6180 C   0  0  0  0  0  0  0  0  0  0  0  0
  -30.8760  -12.8220   19.6270 C   0  0  0  0  0  2  0  0  0  0  0  0
  -30.0010  -12.9060   18.3610 C   0  0  0  0  0  2  0  0  0  0  0  0
  -28.5110  -12.7650   18.7260 C   0  0  0  0  0  2  0  0  0  0  0  0
  -28.0840  -13.6570   19.9220 C   0  0  0  0  0  3  0  0  0  0  0  0
  -29.0960  -13.5970   21.0830 C   0  0  0  0  0  2  0  0  0  0  0  0
  -30.4150  -13.9020   20.5150 N   0  0  0  0  0  0  0  0  0  0  0  0
  -32.3360  -15.0430   20.7530 O   0  0  0  0  0  0  0  0  0  0  0  0
  -31.4400  -16.2800   18.6110 C   0  0  0  0  0  1  0  0  0  0  0  0
  -30.6280  -16.1260   19.8470 N   0  0  0  0  0  0  0  0  0  0  0  0
  -25.6660  -14.2530   20.5370 C   0  0  0  0  0  0  0  0  0  0  0  0
  -24.5760  -13.4810   20.8390 C   0  0  0  0  0  0  0  0  0  0  0  0
  -25.0340  -12.1270   20.8170 C   0  0  0  0  0  0  0  0  0  0  0  0
  -26.7160  -13.3710   20.3480 N   0  0  0  0  0  0  0  0  0  0  0  0
  -26.3380  -12.0860   20.5790 N   0  0  0  0  0  0  0  0  0  0  0  0
  -24.2890  -10.8670   20.9500 C   0  0  0  0  0  0  0  0  0  0  0  0
  -24.6510   -9.8940   21.9090 C   0  0  0  0  0  3  0  0  0  0  0  0
  -23.9110   -8.7000   22.0310 C   0  0  0  0  0  3  0  0  0  0  0  0
  -22.7910   -8.4710   21.1940 C   0  0  0  0  0  0  0  0  0  0  0  0
  -22.4490   -9.4320   20.2270 C   0  0  0  0  0  3  0  0  0  0  0  0
  -23.1910  -10.6170   20.1030 C   0  0  0  0  0  3  0  0  0  0  0  0
  -22.0260   -7.3300   21.2270 O   0  0  0  0  0  0  0  0  0  0  0  0
  -21.8510   -6.6130   22.3820 C   0  0  0  0  0  0  0  0  0  0  0  0
  -21.2730   -7.1890   23.5350 C   0  0  0  0  0  3  0  0  0  0  0  0
  -21.0470   -6.3970   24.6780 C   0  0  0  0  0  3  0  0  0  0  0  0
  -21.3860   -5.0320   24.6690 C   0  0  0  0  0  0  0  0  0  0  0  0
  -21.9560   -4.4560   23.5210 C   0  0  0  0  0  3  0  0  0  0  0  0
  -22.1850   -5.2440   22.3790 C   0  0  0  0  0  0  0  0  0  0  0  0
  -22.7160   -4.6780   21.2670 F   0  0  0  0  0  0  0  0  0  0  0  0
  -21.1610   -4.2690   25.7650 F   0  0  0  0  0  0  0  0  0  0  0  0
  -23.1690  -13.9630   21.0390 C   0  0  0  0  0  0  0  0  0  0  0  0
  -22.3950  -13.2720   21.8680 N   0  0  0  0  0  0  0  0  0  0  0  0
  -22.7600  -14.9890   20.4980 O   0  0  0  0  0  0  0  0  0  0  0  0
  -22.7340  -12.4410   22.3300 H   0  0  0  0  0  0  0  0  0  0  0  0
  -21.4500  -13.5810   22.0450 H   0  0  0  0  0  0  0  0  0  0  0  0
  -25.8470  -15.6250   20.3850 N   0  0  0  0  0  0  0  0  0  0  0  0
  -25.0790  -16.2800   20.4760 H   0  0  0  0  0  0  0  0  0  0  0  0
  -26.7090  -16.0680   20.0940 H   0  0  0  0  0  0  0  0  0  0  0  0
  -27.4440  -17.6280   17.5440 C   0  0  0  0  0  2  0  0  0  0  0  0
  -28.1750  -17.1680   18.5760 C   0  0  0  0  0  3  0  0  0  0  0  0
  -31.7430  -19.9430   23.2700 C   0  0  0  0  0  1  0  0  0  0  0  0
  -30.7480  -20.4770   22.4020 O   0  0  0  0  0  0  0  0  0  0  0  0
  2  3  1  0
  2  4  1  0
  3  5  1  0
  4  6  1  0
  5  7  1  0
  6  7  1  0
  6  9  1  0
  7  1  1  0
  7  8  1  1
 10 12  1  0
 10  9  1  0
 11 22  2  0
 12 17  1  0
 13 21  1  0
 13 23  1  0
 14 20  1  0
 14 16  1  0
 15 21  1  0
 16 15  1  0
 17 16  2  0
 18 19  1  0
 18 12  2  0
 19 14  2  0
 20 13  1  0
 21 11  1  0
 23 25  2  0
 24 23  1  0
 26 24  1  0
 27 36  2  0
 27 32  1  0
 28 24  1  0
 28 32  1  0
 29 28  1  0
 30 31  1  0
 30 29  1  0
 31 27  1  0
 32 33  2  0
 33 34  1  0
 35 34  2  0
 36 35  1  0
 37 11  1  0
 37 38  1  0
 37 47  1  0
 38 41  1  0
 39 43  1  0
 39 38  1  0
 40 39  2  0
 43 42  1  0
 45 46  1  0
 45 43  1  0
 45 44  1  0
 47 50  1  1
 47 48  1  0
 49 47  1  0
 51 54  1  0
 52 56  1  0
 53 51  2  0
 53 55  1  0
 54  1  1  0
 54 56  2  0
 55 52  2  0
 56 98  1  0
 57 64  2  0
 58 63  1  0
 59 60  1  0
 59 58  1  0
 61 60  1  0
 61 70  1  0
 61 62  1  0
 63 57  1  0
 63 62  1  0
 65 66  1  0
 66 55  1  0
 66 57  1  0
 67 68  2  0
 68 87  1  0
 69 68  1  0
 69 72  1  0
 70 67  1  0
 70 71  1  0
 71 69  2  0
 72 73  1  0
 73 74  2  0
 75 78  1  0
 75 74  1  0
 76 75  2  0
 77 76  1  0
 77 72  2  0
 78 79  1  0
 79 80  1  0
 80 81  2  0
 82 81  1  0
 82 86  1  0
 83 82  2  0
 84 79  2  0
 84 83  1  0
 85 84  1  0
 87 88  1  0
 88 91  1  0
 88 90  1  0
 89 87  2  0
 92 93  1  0
 92 67  1  0
 94 92  1  0
 95 96  2  0
 96 53  1  0
 98 97  1  0
M  ISO  4   9 101  10 101  57 100  66 100
M  END
>  <TORSDO>  (37) 
F 21

>  <SCORE>  (37) 
-12.670

>  <name>  (37) 
36

>  <ligand_id>  (37) 
36

>  <original_smiles>  (37) 
[H]C([H])=C([H])c1c([H])c(C([H])([H])[N+]2([H])C([H])([H])C([H])([H])C([H])([H])C([H])([H])C2([H])C([H])([H])Oc2c([H])c([H])c3c(c2[H])C([H])([H])N(C(=O)C([H])(N([H])C(=O)C([H])(N([H])C([H])([H])[H])C([H])([H])[H])C(C([H])([H])[H])(C([H])([H])[H])C([H])([H])[H])C([H])(C(=O)N([H])C2([H])c4c([H])c([H])c([H])c([H])c4C([H])([H])C([H])([H])C2([H])[H])C3([H])[H])c(OC([H])([H])[H])c([H])c1N(C(=O)N1C([H])([H])C([H])([H])C([H])([H])C([H])(n2nc(-c3c([H])c([H])c(Oc4c([H])c([H])c(F)c([H])c4F)c([H])c3[H])c(C(=O)N([H])[H])c2N([H])[H])C1([H])[H])C([H])([H])[H]

>  <smiles>  (37) 
[H]C([H])=C([H])c1c([H])c(C([H])([H])[N+]2([H])C([H])([H])C([H])([H])C([H])([H])C([H])([H])C2([H])C([H])([H])Oc2c([H])c([H])c3c(c2[H])C([H])([H])N(C(=O)C([H])(N([H])C(=O)C([H])(N([H])C([H])([H])[H])C([H])([H])[H])C(C([H])([H])[H])(C([H])([H])[H])C([H])([H])[H])C([H])(C(=O)N([H])C2([H])c4c([H])c([H])c([H])c([H])c4C([H])([H])C([H])([H])C2([H])[H])C3([H])[H])c(OC([H])([H])[H])c([H])c1N(C(=O)N1C([H])([H])C([H])([H])C([H])([H])C([H])(n2nc(-c3c([H])c([H])c(Oc4c([H])c([H])c(F)c([H])c4F)c([H])c3[H])c(C(=O)N([H])[H])c2N([H])[H])C1([H])[H])C([H])([H])[H]

$$$$
37:0:0
     RDKit          3D

 94102  0  0  1  0  0  0  0  0999 V2000
  -30.6530  -19.9660   19.1840 C   0  0  0  0  0  3  0  0  0  0  0  0
  -29.2920  -19.8530   21.1840 C   0  0  0  0  0  3  0  0  0  0  0  0
  -30.4920  -18.5760   18.9740 C   0  0  0  0  0  0  0  0  0  0  0  0
  -29.7420  -17.7980   19.9000 C   0  0  0  0  0  0  0  0  0  0  0  0
  -30.0590  -20.6240   20.2810 C   0  0  0  0  0  0  0  0  0  0  0  0
  -29.1340  -18.4620   20.9950 C   0  0  0  0  0  0  0  0  0  0  0  0
  -28.3880  -17.7600   21.8810 F   0  0  0  0  0  0  0  0  0  0  0  0
  -29.3850  -22.8520   20.2440 C   0  0  0  0  0  3  0  0  0  0  0  0
  -30.3050  -21.9920   20.4840 N   0  0  0  0  0  0  0  0  0  0  0  0
  -29.4810  -24.3650   20.4080 C   0  0  0  0  0  0  0  0  0  0  0  0
  -30.4870  -24.9290   20.8610 O   0  0  0  0  0  0  0  0  0  0  0  0
  -28.2530  -25.1740   19.9510 C   0  0  0  0  0  2  0  0  0  0  0  0
  -28.3410  -26.5770   20.2810 O   0  0  0  0  0  0  0  0  0  0  0  0
  -24.3710  -31.7250   23.2180 C   0  0  0  0  0  0  0  0  0  0  0  0
  -27.1550  -27.2900   20.2300 C   0  0  0  0  0  0  0  0  0  0  0  0
  -23.2190  -30.2740   21.5810 C   0  0  0  0  0  3  0  0  0  0  0  0
  -24.7250  -28.7540   20.1960 C   0  0  0  0  0  0  0  0  0  0  0  0
  -25.7410  -30.6840   21.4130 C   0  0  0  0  0  2  0  0  0  0  0  0
  -25.8660  -29.3080   20.7890 C   0  0  0  0  0  0  0  0  0  0  0  0
  -27.0850  -28.5840   20.8000 C   0  0  0  0  0  3  0  0  0  0  0  0
  -25.9880  -26.7580   19.6300 C   0  0  0  0  0  3  0  0  0  0  0  0
  -24.7820  -27.4770   19.6150 C   0  0  0  0  0  3  0  0  0  0  0  0
  -23.4600  -29.5820   20.2150 C   0  0  0  0  0  2  0  0  0  0  0  0
  -24.4600  -30.9100   22.1290 N   0  0  0  0  0  0  0  0  0  0  0  0
  -23.2770  -31.9800   23.7400 O   0  0  0  0  0  0  0  0  0  0  0  0
  -22.5780  -29.2500   22.5470 C   0  0  0  0  0  0  0  0  0  0  0  0
  -21.2650  -29.0150   22.3860 N   0  0  0  0  0  0  0  0  0  0  0  0
  -23.2590  -28.6710   23.3960 O   0  0  0  0  0  0  0  0  0  0  0  0
  -20.7750  -29.5350   21.6710 H   0  0  0  0  0  0  0  0  0  0  0  0
  -17.9260  -27.6990   22.8080 C   0  0  0  0  0  0  0  0  0  0  0  0
  -20.4610  -28.0650   23.1550 C   0  0  0  0  0  3  0  0  0  0  0  0
  -20.6390  -26.6240   22.6190 C   0  0  0  0  0  2  0  0  0  0  0  0
  -19.5830  -26.2340   21.5800 C   0  0  0  0  0  2  0  0  0  0  0  0
  -18.1760  -26.3410   22.1740 C   0  0  0  0  0  2  0  0  0  0  0  0
  -19.0000  -28.5150   23.2540 C   0  0  0  0  0  0  0  0  0  0  0  0
  -18.7140  -29.7850   23.8030 C   0  0  0  0  0  3  0  0  0  0  0  0
  -17.3860  -30.2390   23.9130 C   0  0  0  0  0  3  0  0  0  0  0  0
  -16.3260  -29.4210   23.4850 C   0  0  0  0  0  3  0  0  0  0  0  0
  -16.5970  -28.1540   22.9390 C   0  0  0  0  0  3  0  0  0  0  0  0
  -25.6330  -32.3940   23.8450 C   0  0  0  0  0  3  0  0  0  0  0  0
  -25.2950  -33.7930   24.1320 N   0  0  0  0  0  0  0  0  0  0  0  0
  -25.6030  -34.8280   23.3390 C   0  0  0  0  0  0  0  0  0  0  0  0
  -26.2750  -34.7070   22.3100 O   0  0  0  0  0  0  0  0  0  0  0  0
  -24.6990  -33.9610   24.9290 H   0  0  0  0  0  0  0  0  0  0  0  0
  -23.8240  -36.5590   22.9390 C   0  0  0  0  0  1  0  0  0  0  0  0
  -25.0840  -36.2180   23.7510 C   0  0  0  0  0  3  0  0  0  0  0  0
  -27.2000  -37.1870   24.5310 C   0  0  0  0  0  1  0  0  0  0  0  0
  -26.0860  -37.2940   23.5920 N   0  0  0  0  0  0  0  0  0  0  0  0
  -25.6560  -38.2070   23.7140 H   0  0  0  0  0  0  0  0  0  0  0  0
  -26.1400  -31.6640   25.1490 C   0  0  1  0  0  0  0  0  0  0  0  0
  -25.0290  -31.4190   26.1970 C   0  0  0  0  0  1  0  0  0  0  0  0
  -26.7680  -30.2940   24.8000 C   0  0  0  0  0  1  0  0  0  0  0  0
  -27.2530  -32.5030   25.8200 C   0  0  0  0  0  1  0  0  0  0  0  0
  -30.2060  -18.1740   16.4950 C   0  0  0  0  0  1  0  0  0  0  0  0
  -31.1070  -17.9750   17.7190 C   0  0  0  0  0  2  0  0  0  0  0  0
  -29.5350  -16.2770   19.7210 C   0  0  0  0  0  2  0  0  0  0  0  0
  -31.0290  -14.3140   19.5220 C   0  0  0  0  0  0  0  0  0  0  0  0
  -30.4880  -12.1260   18.5070 C   0  0  0  0  0  2  0  0  0  0  0  0
  -29.4550  -12.2940   17.3750 C   0  0  0  0  0  2  0  0  0  0  0  0
  -28.0220  -12.2430   17.9390 C   0  0  0  0  0  2  0  0  0  0  0  0
  -27.8300  -13.1780   19.1600 C   0  0  0  0  0  3  0  0  0  0  0  0
  -28.9690  -12.9990   20.1890 C   0  0  0  0  0  2  0  0  0  0  0  0
  -30.2510  -13.1950   19.4920 N   0  0  0  0  0  0  0  0  0  0  0  0
  -32.1130  -14.3740   18.9340 O   0  0  0  0  0  0  0  0  0  0  0  0
  -31.5120  -15.9970   21.1990 C   0  0  0  0  0  1  0  0  0  0  0  0
  -30.5860  -15.3710   20.2500 N   0  0  0  0  0  0  0  0  0  0  0  0
  -25.5800  -13.9700   20.1170 C   0  0  0  0  0  0  0  0  0  0  0  0
  -24.4900  -13.2830   20.5780 C   0  0  0  0  0  0  0  0  0  0  0  0
  -24.8280  -11.8980   20.4810 C   0  0  0  0  0  0  0  0  0  0  0  0
  -26.5160  -13.0090   19.7700 N   0  0  0  0  0  0  0  0  0  0  0  0
  -26.0740  -11.7560   20.0470 N   0  0  0  0  0  0  0  0  0  0  0  0
  -24.0180  -10.6980   20.7190 C   0  0  0  0  0  0  0  0  0  0  0  0
  -24.4100   -9.7170   21.6580 C   0  0  0  0  0  3  0  0  0  0  0  0
  -23.6050   -8.5810   21.8830 C   0  0  0  0  0  3  0  0  0  0  0  0
  -22.3950   -8.4150   21.1700 C   0  0  0  0  0  0  0  0  0  0  0  0
  -22.0210   -9.3820   20.2190 C   0  0  0  0  0  3  0  0  0  0  0  0
  -22.8250  -10.5100   19.9920 C   0  0  0  0  0  3  0  0  0  0  0  0
  -21.5610   -7.3310   21.3050 O   0  0  0  0  0  0  0  0  0  0  0  0
  -21.4380   -6.6640   22.4960 C   0  0  0  0  0  0  0  0  0  0  0  0
  -21.0010   -7.3120   23.6720 C   0  0  0  0  0  3  0  0  0  0  0  0
  -20.8210   -6.5740   24.8590 C   0  0  0  0  0  3  0  0  0  0  0  0
  -21.0670   -5.1870   24.8690 C   0  0  0  0  0  0  0  0  0  0  0  0
  -21.4970   -4.5380   23.6970 C   0  0  0  0  0  3  0  0  0  0  0  0
  -21.6780   -5.2750   22.5140 C   0  0  0  0  0  0  0  0  0  0  0  0
  -22.0720   -4.6420   21.3830 F   0  0  0  0  0  0  0  0  0  0  0  0
  -20.8870   -4.4750   26.0050 F   0  0  0  0  0  0  0  0  0  0  0  0
  -23.1720  -13.8700   20.9930 C   0  0  0  0  0  0  0  0  0  0  0  0
  -22.4750  -13.2180   21.9180 N   0  0  0  0  0  0  0  0  0  0  0  0
  -22.7750  -14.9380   20.5320 O   0  0  0  0  0  0  0  0  0  0  0  0
  -22.8110  -12.3510   22.3110 H   0  0  0  0  0  0  0  0  0  0  0  0
  -21.5920  -13.5900   22.2370 H   0  0  0  0  0  0  0  0  0  0  0  0
  -25.8430  -15.3250   19.9430 N   0  0  0  0  0  0  0  0  0  0  0  0
  -25.1460  -16.0360   20.1390 H   0  0  0  0  0  0  0  0  0  0  0  0
  -26.6760  -15.7000   19.5120 H   0  0  0  0  0  0  0  0  0  0  0  0
  1  5  1  0
  3  1  2  0
  3  4  1  0
  4  6  2  0
  5  9  1  0
  5  2  2  0
  6  2  1  0
  6  7  1  0
  8 10  1  0
  8  9  2  0
 10 11  2  0
 12 13  1  0
 12 10  1  0
 14 25  2  0
 15 13  1  0
 15 20  1  0
 16 24  1  0
 16 26  1  0
 17 23  1  0
 17 19  1  0
 18 24  1  0
 19 20  2  0
 19 18  1  0
 21 15  2  0
 22 21  1  0
 22 17  2  0
 23 16  1  0
 24 14  1  0
 26 28  2  0
 27 26  1  0
 29 27  1  0
 30 39  2  0
 30 35  1  0
 31 27  1  0
 31 35  1  0
 32 31  1  0
 33 34  1  0
 33 32  1  0
 34 30  1  0
 35 36  2  0
 36 37  1  0
 38 37  2  0
 39 38  1  0
 40 14  1  0
 40 41  1  0
 40 50  1  0
 41 44  1  0
 42 46  1  0
 42 41  1  0
 43 42  2  0
 46 45  1  0
 48 49  1  0
 48 46  1  0
 48 47  1  0
 50 53  1  1
 50 51  1  0
 52 50  1  0
 54 55  1  0
 55  3  1  0
 56  4  1  0
 56 66  1  0
 57 66  1  0
 58 63  1  0
 59 60  1  0
 59 58  1  0
 61 60  1  0
 61 70  1  0
 61 62  1  0
 63 57  1  0
 63 62  1  0
 64 57  2  0
 66 65  1  0
 67 68  2  0
 68 87  1  0
 69 68  1  0
 69 72  1  0
 70 71  1  0
 70 67  1  0
 71 69  2  0
 72 73  1  0
 73 74  2  0
 75 78  1  0
 75 74  1  0
 76 75  2  0
 77 76  1  0
 77 72  2  0
 78 79  1  0
 79 84  2  0
 79 80  1  0
 80 81  2  0
 81 82  1  0
 82 86  1  0
 83 82  2  0
 84 83  1  0
 85 84  1  0
 87 88  1  0
 88 91  1  0
 88 90  1  0
 89 87  2  0
 92 67  1  0
 92 93  1  0
 94 92  1  0
M  ISO  4  12 101  13 101  57 100  66 100
M  END
>  <TORSDO>  (38) 
F 21

>  <SCORE>  (38) 
-11.036

>  <name>  (38) 
37

>  <ligand_id>  (38) 
37

>  <original_smiles>  (38) 
[H]C(=Nc1c([H])c(F)c(C([H])([H])N(C(=O)N2C([H])([H])C([H])([H])C([H])([H])C([H])(n3nc(-c4c([H])c([H])c(Oc5c([H])c([H])c(F)c([H])c5F)c([H])c4[H])c(C(=O)N([H])[H])c3N([H])[H])C2([H])[H])C([H])([H])[H])c(C([H])([H])C([H])([H])[H])c1[H])C(=O)C([H])([H])Oc1c([H])c([H])c2c(c1[H])C([H])([H])N(C(=O)C([H])(N([H])C(=O)C([H])(N([H])C([H])([H])[H])C([H])([H])[H])C(C([H])([H])[H])(C([H])([H])[H])C([H])([H])[H])C([H])(C(=O)N([H])C1([H])c3c([H])c([H])c([H])c([H])c3C([H])([H])C([H])([H])C1([H])[H])C2([H])[H]

>  <smiles>  (38) 
[H]C(=Nc1c([H])c(F)c(C([H])([H])N(C(=O)N2C([H])([H])C([H])([H])C([H])([H])C([H])(n3nc(-c4c([H])c([H])c(Oc5c([H])c([H])c(F)c([H])c5F)c([H])c4[H])c(C(=O)N([H])[H])c3N([H])[H])C2([H])[H])C([H])([H])[H])c(C([H])([H])C([H])([H])[H])c1[H])C(=O)C([H])([H])Oc1c([H])c([H])c2c(c1[H])C([H])([H])N(C(=O)C([H])(N([H])C(=O)C([H])(N([H])C([H])([H])[H])C([H])([H])[H])C(C([H])([H])[H])(C([H])([H])[H])C([H])([H])[H])C([H])(C(=O)N([H])C1([H])c3c([H])c([H])c([H])c([H])c3C([H])([H])C([H])([H])C1([H])[H])C2([H])[H]

$$$$
38:0:0
     RDKit          3D

 94102  0  0  1  0  0  0  0  0999 V2000
  -29.6850  -22.0340   20.0090 C   0  0  0  0  0  0  0  0  0  0  0  0
  -29.0390  -20.8770   19.7810 N   0  0  0  0  0  0  0  0  0  0  0  0
  -30.8500  -22.0930   20.4120 O   0  0  0  0  0  0  0  0  0  0  0  0
  -28.1230  -20.9610   19.3600 H   0  0  0  0  0  0  0  0  0  0  0  0
  -30.2920  -17.7810   21.5200 C   0  0  0  0  0  3  0  0  0  0  0  0
  -29.6370  -17.2170   19.2500 C   0  0  0  0  0  3  0  0  0  0  0  0
  -29.9940  -19.1430   21.2770 C   0  0  0  0  0  0  0  0  0  0  0  0
  -29.3190  -18.5690   18.9980 C   0  0  0  0  0  0  0  0  0  0  0  0
  -30.1160  -16.8060   20.5160 C   0  0  0  0  0  0  0  0  0  0  0  0
  -29.4990  -19.5470   20.0100 C   0  0  0  0  0  0  0  0  0  0  0  0
  -30.1610  -20.1450   22.4110 C   0  0  0  0  0  1  0  0  0  0  0  0
  -28.7490  -18.9500   17.6410 C   0  0  0  0  0  1  0  0  0  0  0  0
  -30.9080  -14.5000   20.0740 C   0  0  0  0  0  0  0  0  0  0  0  0
  -30.5710  -12.3530   18.9140 C   0  0  0  0  0  2  0  0  0  0  0  0
  -29.5690  -12.5840   17.7640 C   0  0  0  0  0  2  0  0  0  0  0  0
  -28.1180  -12.4340   18.2620 C   0  0  0  0  0  2  0  0  0  0  0  0
  -27.8460  -13.2490   19.5550 C   0  0  0  0  0  3  0  0  0  0  0  0
  -28.9540  -12.9970   20.6030 C   0  0  0  0  0  2  0  0  0  0  0  0
  -30.2550  -13.3090   19.9870 N   0  0  0  0  0  0  0  0  0  0  0  0
  -31.9530  -14.7440   19.4620 O   0  0  0  0  0  0  0  0  0  0  0  0
  -30.3090  -15.4290   20.8410 N   0  0  0  0  0  0  0  0  0  0  0  0
  -29.6760  -15.0600   21.5340 H   0  0  0  0  0  0  0  0  0  0  0  0
  -25.4910  -13.8520   20.4120 C   0  0  0  0  0  0  0  0  0  0  0  0
  -24.4390  -13.0760   20.8170 C   0  0  0  0  0  0  0  0  0  0  0  0
  -24.8830  -11.7230   20.7130 C   0  0  0  0  0  0  0  0  0  0  0  0
  -26.5150  -12.9710   20.0960 N   0  0  0  0  0  0  0  0  0  0  0  0
  -26.1520  -11.6830   20.3290 N   0  0  0  0  0  0  0  0  0  0  0  0
  -24.1550  -10.4610   20.9020 C   0  0  0  0  0  0  0  0  0  0  0  0
  -24.5570   -9.5150   21.8700 C   0  0  0  0  0  3  0  0  0  0  0  0
  -23.8310   -8.3170   22.0460 C   0  0  0  0  0  3  0  0  0  0  0  0
  -22.6900   -8.0560   21.2520 C   0  0  0  0  0  0  0  0  0  0  0  0
  -22.3070   -8.9900   20.2730 C   0  0  0  0  0  3  0  0  0  0  0  0
  -23.0340  -10.1780   20.0960 C   0  0  0  0  0  3  0  0  0  0  0  0
  -21.9390   -6.9080   21.3350 O   0  0  0  0  0  0  0  0  0  0  0  0
  -21.7440   -6.2590   22.5280 C   0  0  0  0  0  0  0  0  0  0  0  0
  -21.1410   -6.8960   23.6340 C   0  0  0  0  0  3  0  0  0  0  0  0
  -20.8980   -6.1710   24.8170 C   0  0  0  0  0  3  0  0  0  0  0  0
  -21.2480   -4.8090   24.8940 C   0  0  0  0  0  0  0  0  0  0  0  0
  -21.8450   -4.1710   23.7920 C   0  0  0  0  0  3  0  0  0  0  0  0
  -22.0890   -4.8930   22.6110 C   0  0  0  0  0  0  0  0  0  0  0  0
  -22.6440   -4.2690   21.5450 F   0  0  0  0  0  0  0  0  0  0  0  0
  -21.0070   -4.1110   26.0270 F   0  0  0  0  0  0  0  0  0  0  0  0
  -23.0640  -13.5550   21.1900 C   0  0  0  0  0  0  0  0  0  0  0  0
  -22.3910  -12.8480   22.0900 N   0  0  0  0  0  0  0  0  0  0  0  0
  -22.5980  -14.5900   20.7160 O   0  0  0  0  0  0  0  0  0  0  0  0
  -22.7800  -12.0110   22.4980 H   0  0  0  0  0  0  0  0  0  0  0  0
  -21.4710  -13.1520   22.3780 H   0  0  0  0  0  0  0  0  0  0  0  0
  -25.6580  -15.2260   20.2680 N   0  0  0  0  0  0  0  0  0  0  0  0
  -24.9050  -15.8840   20.4310 H   0  0  0  0  0  0  0  0  0  0  0  0
  -26.4960  -15.6660   19.9070 H   0  0  0  0  0  0  0  0  0  0  0  0
  -28.8830  -23.3170   19.7260 C   0  0  0  0  0  2  0  0  0  0  0  0
  -29.6930  -24.6350   19.8050 C   0  0  0  0  0  2  0  0  0  0  0  0
  -28.9850  -25.8410   19.1430 C   0  0  0  0  0  2  0  0  0  0  0  0
  -28.5940  -26.8100   20.1230 O   0  0  0  0  0  0  0  0  0  0  0  0
  -24.4950  -31.7570   23.1300 C   0  0  0  0  0  0  0  0  0  0  0  0
  -27.3710  -27.4510   20.0560 C   0  0  0  0  0  0  0  0  0  0  0  0
  -23.3710  -30.3250   21.4530 C   0  0  0  0  0  3  0  0  0  0  0  0
  -24.9090  -28.8550   20.0440 C   0  0  0  0  0  0  0  0  0  0  0  0
  -25.8830  -30.7820   21.3060 C   0  0  0  0  0  2  0  0  0  0  0  0
  -26.0320  -29.4200   20.6580 C   0  0  0  0  0  0  0  0  0  0  0  0
  -27.2600  -28.7210   20.6680 C   0  0  0  0  0  3  0  0  0  0  0  0
  -26.2200  -26.8890   19.4550 C   0  0  0  0  0  3  0  0  0  0  0  0
  -24.9970  -27.5860   19.4450 C   0  0  0  0  0  3  0  0  0  0  0  0
  -23.6310  -29.6630   20.0720 C   0  0  0  0  0  2  0  0  0  0  0  0
  -24.5990  -30.9690   22.0220 N   0  0  0  0  0  0  0  0  0  0  0  0
  -23.3950  -31.9830   23.6530 O   0  0  0  0  0  0  0  0  0  0  0  0
  -22.7420  -29.2730   22.3940 C   0  0  0  0  0  0  0  0  0  0  0  0
  -21.4330  -29.0270   22.2250 N   0  0  0  0  0  0  0  0  0  0  0  0
  -23.4290  -28.6800   23.2300 O   0  0  0  0  0  0  0  0  0  0  0  0
  -20.9380  -29.5600   21.5240 H   0  0  0  0  0  0  0  0  0  0  0  0
  -18.1080  -27.6680   22.6070 C   0  0  0  0  0  0  0  0  0  0  0  0
  -20.6390  -28.0500   22.9690 C   0  0  0  0  0  3  0  0  0  0  0  0
  -20.8320  -26.6270   22.3980 C   0  0  0  0  0  2  0  0  0  0  0  0
  -19.7830  -26.2500   21.3470 C   0  0  0  0  0  2  0  0  0  0  0  0
  -18.3740  -26.3270   21.9420 C   0  0  0  0  0  2  0  0  0  0  0  0
  -19.1720  -28.4830   23.0750 C   0  0  0  0  0  0  0  0  0  0  0  0
  -18.8710  -29.7350   23.6550 C   0  0  0  0  0  3  0  0  0  0  0  0
  -17.5390  -30.1730   23.7720 C   0  0  0  0  0  3  0  0  0  0  0  0
  -16.4880  -29.3540   23.3210 C   0  0  0  0  0  3  0  0  0  0  0  0
  -16.7740  -28.1030   22.7450 C   0  0  0  0  0  3  0  0  0  0  0  0
  -25.7450  -32.4280   23.7790 C   0  0  0  0  0  3  0  0  0  0  0  0
  -26.2700  -31.6660   25.0580 C   0  0  1  0  0  0  0  0  0  0  0  0
  -25.1680  -31.3740   26.1020 C   0  0  0  0  0  1  0  0  0  0  0  0
  -26.9150  -30.3170   24.6630 C   0  0  0  0  0  1  0  0  0  0  0  0
  -27.3720  -32.5010   25.7500 C   0  0  0  0  0  1  0  0  0  0  0  0
  -25.3820  -33.8120   24.1120 N   0  0  0  0  0  0  0  0  0  0  0  0
  -25.6830  -34.8790   23.3600 C   0  0  0  0  0  0  0  0  0  0  0  0
  -26.3670  -34.8060   22.3360 O   0  0  0  0  0  0  0  0  0  0  0  0
  -24.7740  -33.9410   24.9070 H   0  0  0  0  0  0  0  0  0  0  0  0
  -23.8900  -36.6050   22.9940 C   0  0  0  0  0  1  0  0  0  0  0  0
  -25.1370  -36.2450   23.8180 C   0  0  0  0  0  3  0  0  0  0  0  0
  -27.2240  -37.2100   24.6790 C   0  0  0  0  0  1  0  0  0  0  0  0
  -26.1300  -37.3370   23.7210 N   0  0  0  0  0  0  0  0  0  0  0  0
  -25.6860  -38.2410   23.8640 H   0  0  0  0  0  0  0  0  0  0  0  0
  1  3  2  0
  2  1  1  0
  2 10  1  0
  4  2  1  0
  6  9  1  0
  7  5  1  0
  7 11  1  0
  8  6  2  0
  8 10  1  0
  9 21  1  0
  9  5  2  0
 10  7  2  0
 12  8  1  0
 13 21  1  0
 14 19  1  0
 15 16  1  0
 15 14  1  0
 17 16  1  0
 17 26  1  0
 17 18  1  0
 19 13  1  0
 19 18  1  0
 20 13  2  0
 21 22  1  0
 23 24  2  0
 24 43  1  0
 25 24  1  0
 25 28  1  0
 26 27  1  0
 26 23  1  0
 27 25  2  0
 28 29  1  0
 29 30  2  0
 31 34  1  0
 31 30  1  0
 32 31  2  0
 33 32  1  0
 33 28  2  0
 34 35  1  0
 35 40  2  0
 35 36  1  0
 36 37  2  0
 37 38  1  0
 38 42  1  0
 39 38  2  0
 40 39  1  0
 41 40  1  0
 43 44  1  0
 44 47  1  0
 44 46  1  0
 45 43  2  0
 48 23  1  0
 48 49  1  0
 50 48  1  0
 51 52  1  0
 51  1  1  0
 53 52  1  0
 53 54  1  0
 55 66  2  0
 56 54  1  0
 56 61  1  0
 57 65  1  0
 57 67  1  0
 58 64  1  0
 58 60  1  0
 59 65  1  0
 60 61  2  0
 60 59  1  0
 62 56  2  0
 63 62  1  0
 63 58  2  0
 64 57  1  0
 65 55  1  0
 67 69  2  0
 68 67  1  0
 70 68  1  0
 71 80  2  0
 71 76  1  0
 72 68  1  0
 72 76  1  0
 73 72  1  0
 74 75  1  0
 74 73  1  0
 75 71  1  0
 76 77  2  0
 77 78  1  0
 79 78  2  0
 80 79  1  0
 81 55  1  0
 81 86  1  0
 81 82  1  0
 82 85  1  1
 82 83  1  0
 84 82  1  0
 86 89  1  0
 87 91  1  0
 87 86  1  0
 88 87  2  0
 91 90  1  0
 93 91  1  0
 93 94  1  0
 93 92  1  0
M  ISO  4  13 100  21 100  53 101  54 101
M  END
>  <TORSDO>  (39) 
F 20

>  <SCORE>  (39) 
-13.077

>  <name>  (39) 
38

>  <ligand_id>  (39) 
38

>  <original_smiles>  (39) 
[H]c1c([H])c([H])c2c(c1[H])C([H])([H])C([H])([H])C([H])([H])C2([H])N([H])C(=O)C1([H])N(C(=O)C([H])(N([H])C(=O)C([H])(N([H])C([H])([H])[H])C([H])([H])[H])C(C([H])([H])[H])(C([H])([H])[H])C([H])([H])[H])C([H])([H])c2c([H])c(OC([H])([H])C([H])([H])C([H])([H])C(=O)N([H])c3c(C([H])([H])[H])c([H])c(N([H])C(=O)N4C([H])([H])C([H])([H])C([H])([H])C([H])(n5nc(-c6c([H])c([H])c(Oc7c([H])c([H])c(F)c([H])c7F)c([H])c6[H])c(C(=O)N([H])[H])c5N([H])[H])C4([H])[H])c([H])c3C([H])([H])[H])c([H])c([H])c2C1([H])[H]

>  <smiles>  (39) 
[H]c1c([H])c([H])c2c(c1[H])C([H])([H])C([H])([H])C([H])([H])C2([H])N([H])C(=O)C1([H])N(C(=O)C([H])(N([H])C(=O)C([H])(N([H])C([H])([H])[H])C([H])([H])[H])C(C([H])([H])[H])(C([H])([H])[H])C([H])([H])[H])C([H])([H])c2c([H])c(OC([H])([H])C([H])([H])C([H])([H])C(=O)N([H])c3c(C([H])([H])[H])c([H])c(N([H])C(=O)N4C([H])([H])C([H])([H])C([H])([H])C([H])(n5nc(-c6c([H])c([H])c(Oc7c([H])c([H])c(F)c([H])c7F)c([H])c6[H])c(C(=O)N([H])[H])c5N([H])[H])C4([H])[H])c([H])c3C([H])([H])[H])c([H])c([H])c2C1([H])[H]

$$$$
39:0:0
     RDKit          3D

 92100  0  0  1  0  0  0  0  0999 V2000
  -30.7750  -19.9630   19.3340 C   0  0  0  0  0  3  0  0  0  0  0  0
  -30.3970  -20.2380   21.7050 C   0  0  0  0  0  3  0  0  0  0  0  0
  -31.1160  -18.6020   19.5290 C   0  0  0  0  0  0  0  0  0  0  0  0
  -31.1290  -18.0530   20.8400 C   0  0  0  0  0  0  0  0  0  0  0  0
  -30.4500  -20.8170   20.4120 C   0  0  0  0  0  0  0  0  0  0  0  0
  -30.7330  -18.8830   21.9140 C   0  0  0  0  0  0  0  0  0  0  0  0
  -31.4960  -17.7680   18.3150 C   0  0  0  0  0  1  0  0  0  0  0  0
  -30.7100  -18.3940   23.1770 F   0  0  0  0  0  0  0  0  0  0  0  0
  -30.1910  -23.0870   21.0270 C   0  0  0  0  0  3  0  0  0  0  0  0
  -30.2320  -22.1850   20.1200 N   0  0  0  0  0  0  0  0  0  0  0  0
  -30.1390  -24.5900   20.7500 C   0  0  0  0  0  2  0  0  0  0  0  0
  -28.7200  -25.1890   20.6450 C   0  0  0  0  0  2  0  0  0  0  0  0
  -28.7840  -26.6240   20.5360 O   0  0  0  0  0  0  0  0  0  0  0  0
  -24.6730  -31.7540   23.2710 C   0  0  0  0  0  0  0  0  0  0  0  0
  -27.5840  -27.3030   20.4520 C   0  0  0  0  0  0  0  0  0  0  0  0
  -23.5840  -30.2660   21.6230 C   0  0  0  0  0  3  0  0  0  0  0  0
  -25.1420  -28.7340   20.3130 C   0  0  0  0  0  0  0  0  0  0  0  0
  -26.1020  -30.7040   21.5170 C   0  0  0  0  0  2  0  0  0  0  0  0
  -26.2580  -29.3150   20.9260 C   0  0  0  0  0  0  0  0  0  0  0  0
  -27.4830  -28.6100   20.9860 C   0  0  0  0  0  3  0  0  0  0  0  0
  -26.4450  -26.7350   19.8380 C   0  0  0  0  0  3  0  0  0  0  0  0
  -25.2310  -27.4430   19.7660 C   0  0  0  0  0  3  0  0  0  0  0  0
  -23.8730  -29.5530   20.2760 C   0  0  0  0  0  2  0  0  0  0  0  0
  -24.8010  -30.9250   22.1970 N   0  0  0  0  0  0  0  0  0  0  0  0
  -23.5610  -32.0090   23.7540 O   0  0  0  0  0  0  0  0  0  0  0  0
  -22.9220  -29.2540   22.5870 C   0  0  0  0  0  0  0  0  0  0  0  0
  -21.6120  -29.0240   22.4020 N   0  0  0  0  0  0  0  0  0  0  0  0
  -23.5850  -28.6780   23.4520 O   0  0  0  0  0  0  0  0  0  0  0  0
  -21.1390  -29.5440   21.6760 H   0  0  0  0  0  0  0  0  0  0  0  0
  -18.2560  -27.7350   22.7740 C   0  0  0  0  0  0  0  0  0  0  0  0
  -20.7890  -28.0830   23.1610 C   0  0  0  0  0  3  0  0  0  0  0  0
  -20.9630  -26.6400   22.6340 C   0  0  0  0  0  2  0  0  0  0  0  0
  -19.9200  -26.2530   21.5790 C   0  0  0  0  0  2  0  0  0  0  0  0
  -18.5060  -26.3720   22.1520 C   0  0  0  0  0  2  0  0  0  0  0  0
  -19.3290  -28.5450   23.2330 C   0  0  0  0  0  0  0  0  0  0  0  0
  -19.0440  -29.8180   23.7720 C   0  0  0  0  0  3  0  0  0  0  0  0
  -17.7190  -30.2830   23.8620 C   0  0  0  0  0  3  0  0  0  0  0  0
  -16.6600  -29.4720   23.4200 C   0  0  0  0  0  3  0  0  0  0  0  0
  -16.9300  -28.2010   22.8820 C   0  0  0  0  0  3  0  0  0  0  0  0
  -25.9090  -32.4420   23.9280 C   0  0  0  0  0  3  0  0  0  0  0  0
  -26.4080  -31.7090   25.2330 C   0  0  1  0  0  0  0  0  0  0  0  0
  -25.2840  -31.4410   26.2620 C   0  0  0  0  0  1  0  0  0  0  0  0
  -27.0610  -30.3520   24.8780 C   0  0  0  0  0  1  0  0  0  0  0  0
  -27.4980  -32.5590   25.9280 C   0  0  0  0  0  1  0  0  0  0  0  0
  -25.5390  -33.8330   24.2190 N   0  0  0  0  0  0  0  0  0  0  0  0
  -25.8530  -34.8820   23.4480 C   0  0  0  0  0  0  0  0  0  0  0  0
  -26.5560  -34.7850   22.4380 O   0  0  0  0  0  0  0  0  0  0  0  0
  -24.9140  -33.9800   24.9980 H   0  0  0  0  0  0  0  0  0  0  0  0
  -24.0580  -36.5910   23.0160 C   0  0  0  0  0  1  0  0  0  0  0  0
  -25.2980  -36.2580   23.8630 C   0  0  0  0  0  3  0  0  0  0  0  0
  -27.3710  -37.2530   24.7190 C   0  0  0  0  0  1  0  0  0  0  0  0
  -26.2870  -37.3510   23.7450 N   0  0  0  0  0  0  0  0  0  0  0  0
  -25.8390  -38.2570   23.8590 H   0  0  0  0  0  0  0  0  0  0  0  0
  -31.6770  -16.6460   21.1410 C   0  0  0  0  0  2  0  0  0  0  0  0
  -31.2800  -14.4260   20.0490 C   0  0  0  0  0  0  0  0  0  0  0  0
  -30.6770  -12.2790   18.9880 C   0  0  0  0  0  2  0  0  0  0  0  0
  -29.7280  -12.4610   17.7790 C   0  0  0  0  0  2  0  0  0  0  0  0
  -28.2800  -12.8350   18.1760 C   0  0  0  0  0  2  0  0  0  0  0  0
  -28.0590  -12.7910   19.6880 C   0  0  0  0  0  3  0  0  0  0  0  0
  -29.1340  -13.2910   20.6450 C   0  0  0  0  0  2  0  0  0  0  0  0
  -30.4360  -13.3660   19.9600 N   0  0  0  0  0  0  0  0  0  0  0  0
  -32.3670  -14.4520   19.4790 O   0  0  0  0  0  0  0  0  0  0  0  0
  -30.8530  -15.4940   20.7440 N   0  0  0  0  0  0  0  0  0  0  0  0
  -29.9250  -15.4380   21.1360 H   0  0  0  0  0  0  0  0  0  0  0  0
  -25.7600  -13.9050   20.4300 C   0  0  0  0  0  0  0  0  0  0  0  0
  -24.6250  -13.2410   20.8420 C   0  0  0  0  0  0  0  0  0  0  0  0
  -24.9370  -11.8550   20.7670 C   0  0  0  0  0  0  0  0  0  0  0  0
  -26.6860  -12.8900   20.1590 N   0  0  0  0  0  0  0  0  0  0  0  0
  -26.1710  -11.6780   20.3940 N   0  0  0  0  0  0  0  0  0  0  0  0
  -24.1540  -10.6450   20.9620 C   0  0  0  0  0  0  0  0  0  0  0  0
  -24.5760   -9.6480   21.8680 C   0  0  0  0  0  3  0  0  0  0  0  0
  -23.8130   -8.4760   22.0350 C   0  0  0  0  0  3  0  0  0  0  0  0
  -22.6210   -8.3020   21.2930 C   0  0  0  0  0  0  0  0  0  0  0  0
  -22.2300   -9.2840   20.3680 C   0  0  0  0  0  3  0  0  0  0  0  0
  -22.9920  -10.4490   20.1980 C   0  0  0  0  0  3  0  0  0  0  0  0
  -21.8220   -7.1910   21.3780 O   0  0  0  0  0  0  0  0  0  0  0  0
  -21.7250   -6.4680   22.5380 C   0  0  0  0  0  0  0  0  0  0  0  0
  -21.2900   -7.0510   23.7480 C   0  0  0  0  0  3  0  0  0  0  0  0
  -21.1400   -6.2520   24.8990 C   0  0  0  0  0  3  0  0  0  0  0  0
  -21.4150   -4.8720   24.8390 C   0  0  0  0  0  0  0  0  0  0  0  0
  -21.8460   -4.2910   23.6330 C   0  0  0  0  0  3  0  0  0  0  0  0
  -21.9990   -5.0880   22.4860 C   0  0  0  0  0  0  0  0  0  0  0  0
  -22.3950   -4.5210   21.3200 F   0  0  0  0  0  0  0  0  0  0  0  0
  -21.2610   -4.1010   25.9400 F   0  0  0  0  0  0  0  0  0  0  0  0
  -23.2880  -13.8190   21.2090 C   0  0  0  0  0  0  0  0  0  0  0  0
  -22.5590  -13.1470   22.0950 N   0  0  0  0  0  0  0  0  0  0  0  0
  -22.8990  -14.8890   20.7440 O   0  0  0  0  0  0  0  0  0  0  0  0
  -22.8840  -12.2810   22.4950 H   0  0  0  0  0  0  0  0  0  0  0  0
  -21.6590  -13.5100   22.3790 H   0  0  0  0  0  0  0  0  0  0  0  0
  -26.0620  -15.2540   20.2670 N   0  0  0  0  0  0  0  0  0  0  0  0
  -25.3810  -15.9900   20.4150 H   0  0  0  0  0  0  0  0  0  0  0  0
  -26.9440  -15.5910   19.9000 H   0  0  0  0  0  0  0  0  0  0  0  0
  1  3  2  0
  1  5  1  0
  2  6  1  0
  3  4  1  0
  4 54  1  0
  4  6  2  0
  5  2  2  0
  6  8  1  0
  7  3  1  0
 10  5  1  0
 10  9  2  0
 11  9  1  0
 12 11  1  0
 13 12  1  0
 14 25  2  0
 15 13  1  0
 15 20  1  0
 16 24  1  0
 16 26  1  0
 17 19  1  0
 18 24  1  0
 19 20  2  0
 19 18  1  0
 21 15  2  0
 22 21  1  0
 22 17  2  0
 23 17  1  0
 23 16  1  0
 24 14  1  0
 26 28  2  0
 27 26  1  0
 29 27  1  0
 30 39  2  0
 30 35  1  0
 31 27  1  0
 31 35  1  0
 32 31  1  0
 33 34  1  0
 33 32  1  0
 34 30  1  0
 35 36  2  0
 36 37  1  0
 38 37  2  0
 39 38  1  0
 40 14  1  0
 40 45  1  0
 40 41  1  0
 41 44  1  1
 41 42  1  0
 43 41  1  0
 45 48  1  0
 46 50  1  0
 46 45  1  0
 47 46  2  0
 50 49  1  0
 52 53  1  0
 52 50  1  0
 52 51  1  0
 55 63  1  0
 56 61  1  0
 57 58  1  0
 57 56  1  0
 59 58  1  0
 59 68  1  0
 59 60  1  0
 61 55  1  0
 61 60  1  0
 62 55  2  0
 63 64  1  0
 63 54  1  0
 65 66  2  0
 66 85  1  0
 67 66  1  0
 67 70  1  0
 68 69  1  0
 68 65  1  0
 69 67  2  0
 70 71  1  0
 71 72  2  0
 73 76  1  0
 73 72  1  0
 74 73  2  0
 75 74  1  0
 75 70  2  0
 76 77  1  0
 77 78  1  0
 78 79  2  0
 80 79  1  0
 80 84  1  0
 81 80  2  0
 82 77  2  0
 82 81  1  0
 83 82  1  0
 85 86  1  0
 86 89  1  0
 86 88  1  0
 87 85  2  0
 90 91  1  0
 90 65  1  0
 92 90  1  0
M  ISO  4  12 101  13 101  55 100  63 100
M  END
>  <TORSDO>  (40) 
F 20

>  <SCORE>  (40) 
-13.229

>  <name>  (40) 
39

>  <ligand_id>  (40) 
39

>  <original_smiles>  (40) 
[H]C(=Nc1c([H])c(F)c(C([H])([H])N([H])C(=O)N2C([H])([H])C([H])([H])C([H])([H])C([H])(n3nc(-c4c([H])c([H])c(Oc5c([H])c([H])c(F)c([H])c5F)c([H])c4[H])c(C(=O)N([H])[H])c3N([H])[H])C2([H])[H])c(C([H])([H])[H])c1[H])C([H])([H])C([H])([H])Oc1c([H])c([H])c2c(c1[H])C([H])([H])N(C(=O)C([H])(N([H])C(=O)C([H])(N([H])C([H])([H])[H])C([H])([H])[H])C(C([H])([H])[H])(C([H])([H])[H])C([H])([H])[H])C([H])(C(=O)N([H])C1([H])c3c([H])c([H])c([H])c([H])c3C([H])([H])C([H])([H])C1([H])[H])C2([H])[H]

>  <smiles>  (40) 
[H]C(=Nc1c([H])c(F)c(C([H])([H])N([H])C(=O)N2C([H])([H])C([H])([H])C([H])([H])C([H])(n3nc(-c4c([H])c([H])c(Oc5c([H])c([H])c(F)c([H])c5F)c([H])c4[H])c(C(=O)N([H])[H])c3N([H])[H])C2([H])[H])c(C([H])([H])[H])c1[H])C([H])([H])C([H])([H])Oc1c([H])c([H])c2c(c1[H])C([H])([H])N(C(=O)C([H])(N([H])C(=O)C([H])(N([H])C([H])([H])[H])C([H])([H])[H])C(C([H])([H])[H])(C([H])([H])[H])C([H])([H])[H])C([H])(C(=O)N([H])C1([H])c3c([H])c([H])c([H])c([H])c3C([H])([H])C([H])([H])C1([H])[H])C2([H])[H]

$$$$
40:0:0
     RDKit          3D

 94102  0  0  1  0  0  0  0  0999 V2000
  -29.1560  -22.6650   18.3100 C   0  0  0  0  0  0  0  0  0  0  0  0
  -28.5780  -21.8060   19.1630 N   0  0  0  0  0  0  0  0  0  0  0  0
  -30.3280  -22.5830   17.9380 O   0  0  0  0  0  0  0  0  0  0  0  0
  -27.6730  -22.0840   19.5150 H   0  0  0  0  0  0  0  0  0  0  0  0
  -28.7330  -18.5970   21.0410 C   0  0  0  0  0  3  0  0  0  0  0  0
  -28.5560  -19.9640   20.7470 C   0  0  0  0  0  3  0  0  0  0  0  0
  -29.6370  -19.6320   18.5920 C   0  0  0  0  0  3  0  0  0  0  0  0
  -29.3020  -17.7190   20.0920 C   0  0  0  0  0  0  0  0  0  0  0  0
  -29.7900  -18.2550   18.8690 C   0  0  0  0  0  0  0  0  0  0  0  0
  -28.9790  -20.4860   19.5080 C   0  0  0  0  0  0  0  0  0  0  0  0
  -30.3940  -17.3720   17.7920 C   0  0  0  0  0  1  0  0  0  0  0  0
  -29.1910  -16.2080   20.3390 C   0  0  0  0  0  2  0  0  0  0  0  0
  -30.8560  -14.4110   20.0060 C   0  0  0  0  0  0  0  0  0  0  0  0
  -30.4030  -12.2320   18.9290 C   0  0  0  0  0  2  0  0  0  0  0  0
  -29.3990  -12.3800   17.7710 C   0  0  0  0  0  2  0  0  0  0  0  0
  -27.9520  -12.2430   18.2860 C   0  0  0  0  0  2  0  0  0  0  0  0
  -27.6800  -13.1440   19.5150 C   0  0  0  0  0  3  0  0  0  0  0  0
  -28.8050  -13.0190   20.5760 C   0  0  0  0  0  2  0  0  0  0  0  0
  -30.1010  -13.2760   19.9240 N   0  0  0  0  0  0  0  0  0  0  0  0
  -31.9610  -14.4980   19.4590 O   0  0  0  0  0  0  0  0  0  0  0  0
  -31.3190  -16.1870   21.6050 C   0  0  0  0  0  1  0  0  0  0  0  0
  -30.3890  -15.4470   20.7460 N   0  0  0  0  0  0  0  0  0  0  0  0
  -25.3770  -13.8500   20.4180 C   0  0  0  0  0  0  0  0  0  0  0  0
  -24.3050  -13.1140   20.8450 C   0  0  0  0  0  0  0  0  0  0  0  0
  -24.7070  -11.7460   20.7550 C   0  0  0  0  0  0  0  0  0  0  0  0
  -26.3610  -12.9260   20.0920 N   0  0  0  0  0  0  0  0  0  0  0  0
  -25.9680  -11.6580   20.3550 N   0  0  0  0  0  0  0  0  0  0  0  0
  -23.9470  -10.5090   20.9610 C   0  0  0  0  0  0  0  0  0  0  0  0
  -24.3810   -9.5180   21.8670 C   0  0  0  0  0  3  0  0  0  0  0  0
  -23.6200   -8.3450   22.0610 C   0  0  0  0  0  3  0  0  0  0  0  0
  -22.4120   -8.1570   21.3490 C   0  0  0  0  0  0  0  0  0  0  0  0
  -21.9980   -9.1360   20.4270 C   0  0  0  0  0  3  0  0  0  0  0  0
  -22.7610  -10.3000   20.2310 C   0  0  0  0  0  3  0  0  0  0  0  0
  -21.6220   -7.0380   21.4550 O   0  0  0  0  0  0  0  0  0  0  0  0
  -21.5710   -6.3020   22.6110 C   0  0  0  0  0  0  0  0  0  0  0  0
  -21.1690   -6.8690   23.8400 C   0  0  0  0  0  3  0  0  0  0  0  0
  -21.0660   -6.0590   24.9890 C   0  0  0  0  0  3  0  0  0  0  0  0
  -21.3520   -4.6830   24.9080 C   0  0  0  0  0  0  0  0  0  0  0  0
  -21.7460   -4.1140   23.6840 C   0  0  0  0  0  3  0  0  0  0  0  0
  -21.8520   -4.9220   22.5380 C   0  0  0  0  0  0  0  0  0  0  0  0
  -22.2120   -4.3660   21.3550 F   0  0  0  0  0  0  0  0  0  0  0  0
  -21.2430   -3.9040   26.0090 F   0  0  0  0  0  0  0  0  0  0  0  0
  -22.9500  -13.6390   21.2180 C   0  0  0  0  0  0  0  0  0  0  0  0
  -22.2500  -12.9510   22.1120 N   0  0  0  0  0  0  0  0  0  0  0  0
  -22.5220  -14.6910   20.7470 O   0  0  0  0  0  0  0  0  0  0  0  0
  -22.6060  -12.1000   22.5200 H   0  0  0  0  0  0  0  0  0  0  0  0
  -21.3430  -13.2890   22.4000 H   0  0  0  0  0  0  0  0  0  0  0  0
  -25.5840  -15.2170   20.2570 N   0  0  0  0  0  0  0  0  0  0  0  0
  -24.8520  -15.8970   20.4330 H   0  0  0  0  0  0  0  0  0  0  0  0
  -26.4170  -15.6320   19.8600 H   0  0  0  0  0  0  0  0  0  0  0  0
  -28.2770  -23.8180   17.8120 C   0  0  0  0  0  2  0  0  0  0  0  0
  -28.6810  -25.2130   18.3260 C   0  0  0  0  0  2  0  0  0  0  0  0
  -28.4880  -25.4120   19.8410 C   0  0  0  0  0  2  0  0  0  0  0  0
  -28.4560  -26.8040   20.1640 O   0  0  0  0  0  0  0  0  0  0  0  0
  -24.5890  -31.9070   23.2240 C   0  0  0  0  0  0  0  0  0  0  0  0
  -27.2450  -27.4740   20.1520 C   0  0  0  0  0  0  0  0  0  0  0  0
  -23.3740  -30.4890   21.6010 C   0  0  0  0  0  3  0  0  0  0  0  0
  -24.8260  -28.9460   20.1800 C   0  0  0  0  0  0  0  0  0  0  0  0
  -25.8910  -30.8690   21.3670 C   0  0  0  0  0  2  0  0  0  0  0  0
  -25.9840  -29.4900   20.7460 C   0  0  0  0  0  0  0  0  0  0  0  0
  -27.1930  -28.7620   20.7290 C   0  0  0  0  0  3  0  0  0  0  0  0
  -26.0630  -26.9350   19.5900 C   0  0  0  0  0  3  0  0  0  0  0  0
  -24.8600  -27.6640   19.6010 C   0  0  0  0  0  3  0  0  0  0  0  0
  -23.5750  -29.7950   20.2260 C   0  0  0  0  0  2  0  0  0  0  0  0
  -24.6390  -31.1010   22.1250 N   0  0  0  0  0  0  0  0  0  0  0  0
  -23.5130  -32.1770   23.7720 O   0  0  0  0  0  0  0  0  0  0  0  0
  -22.7350  -29.4730   22.5730 C   0  0  0  0  0  0  0  0  0  0  0  0
  -21.4100  -29.2830   22.4570 N   0  0  0  0  0  0  0  0  0  0  0  0
  -23.4280  -28.8540   23.3860 O   0  0  0  0  0  0  0  0  0  0  0  0
  -20.9120  -29.8400   21.7770 H   0  0  0  0  0  0  0  0  0  0  0  0
  -18.0460  -28.0760   22.9810 C   0  0  0  0  0  0  0  0  0  0  0  0
  -20.6040  -28.3450   23.2370 C   0  0  0  0  0  3  0  0  0  0  0  0
  -20.7080  -26.9110   22.6700 C   0  0  0  0  0  2  0  0  0  0  0  0
  -19.6010  -26.5750   21.6640 C   0  0  0  0  0  2  0  0  0  0  0  0
  -18.2230  -26.7210   22.3140 C   0  0  0  0  0  2  0  0  0  0  0  0
  -19.1640  -28.8440   23.4000 C   0  0  0  0  0  0  0  0  0  0  0  0
  -18.9440  -30.1090   23.9830 C   0  0  0  0  0  3  0  0  0  0  0  0
  -17.6380  -30.6090   24.1500 C   0  0  0  0  0  3  0  0  0  0  0  0
  -16.5340  -29.8370   23.7480 C   0  0  0  0  0  3  0  0  0  0  0  0
  -16.7390  -28.5720   23.1680 C   0  0  0  0  0  3  0  0  0  0  0  0
  -25.8770  -32.5470   23.8300 C   0  0  0  0  0  3  0  0  0  0  0  0
  -25.5610  -33.9440   24.1580 N   0  0  0  0  0  0  0  0  0  0  0  0
  -25.8850  -34.9960   23.3960 C   0  0  0  0  0  0  0  0  0  0  0  0
  -26.5510  -34.8930   22.3610 O   0  0  0  0  0  0  0  0  0  0  0  0
  -24.9650  -34.0980   24.9590 H   0  0  0  0  0  0  0  0  0  0  0  0
  -24.1530  -36.7830   23.0370 C   0  0  0  0  0  1  0  0  0  0  0  0
  -25.3940  -36.3830   23.8510 C   0  0  0  0  0  3  0  0  0  0  0  0
  -27.5240  -37.2760   24.6840 C   0  0  0  0  0  1  0  0  0  0  0  0
  -26.4230  -37.4380   23.7380 N   0  0  0  0  0  0  0  0  0  0  0  0
  -26.0130  -38.3580   23.8850 H   0  0  0  0  0  0  0  0  0  0  0  0
  -26.4140  -31.7810   25.1000 C   0  0  1  0  0  0  0  0  0  0  0  0
  -25.3340  -31.5350   26.1790 C   0  0  0  0  0  1  0  0  0  0  0  0
  -27.0030  -30.4090   24.7000 C   0  0  0  0  0  1  0  0  0  0  0  0
  -27.5660  -32.5850   25.7490 C   0  0  0  0  0  1  0  0  0  0  0  0
  1  2  1  0
  2 10  1  0
  2  4  1  0
  3  1  2  0
  6  5  1  0
  7  9  2  0
  7 10  1  0
  8 12  1  0
  8  5  2  0
  9  8  1  0
 10  6  2  0
 11  9  1  0
 12 22  1  0
 13 22  1  0
 14 19  1  0
 15 16  1  0
 15 14  1  0
 17 16  1  0
 17 26  1  0
 17 18  1  0
 19 13  1  0
 19 18  1  0
 20 13  2  0
 22 21  1  0
 23 24  2  0
 24 43  1  0
 25 24  1  0
 25 28  1  0
 26 27  1  0
 26 23  1  0
 27 25  2  0
 28 29  1  0
 29 30  2  0
 31 34  1  0
 31 30  1  0
 32 31  2  0
 33 32  1  0
 33 28  2  0
 34 35  1  0
 35 36  1  0
 36 37  2  0
 38 37  1  0
 38 42  1  0
 39 38  2  0
 40 35  2  0
 40 39  1  0
 41 40  1  0
 43 44  1  0
 44 47  1  0
 44 46  1  0
 45 43  2  0
 48 23  1  0
 48 49  1  0
 50 48  1  0
 51  1  1  0
 51 52  1  0
 52 53  1  0
 53 54  1  0
 55 66  2  0
 56 54  1  0
 56 61  1  0
 57 65  1  0
 57 67  1  0
 58 64  1  0
 58 60  1  0
 59 65  1  0
 60 59  1  0
 61 60  2  0
 62 63  1  0
 62 56  2  0
 63 58  2  0
 64 57  1  0
 65 55  1  0
 67 69  2  0
 68 67  1  0
 70 68  1  0
 71 80  2  0
 71 76  1  0
 72 68  1  0
 72 76  1  0
 73 72  1  0
 74 75  1  0
 74 73  1  0
 75 71  1  0
 76 77  2  0
 77 78  1  0
 79 78  2  0
 80 79  1  0
 81 55  1  0
 81 82  1  0
 81 91  1  0
 82 85  1  0
 83 87  1  0
 83 82  1  0
 84 83  2  0
 87 86  1  0
 89 87  1  0
 89 90  1  0
 89 88  1  0
 91 94  1  1
 91 92  1  0
 93 91  1  0
M  ISO  4  13 100  22 100  53 101  54 101
M  END
>  <TORSDO>  (41) 
F 21

>  <SCORE>  (41) 
-12.852

>  <name>  (41) 
40

>  <ligand_id>  (41) 
40

>  <original_smiles>  (41) 
[H]c1c([H])c([H])c2c(c1[H])C([H])([H])C([H])([H])C([H])([H])C2([H])N([H])C(=O)C1([H])N(C(=O)C([H])(N([H])C(=O)C([H])(N([H])C([H])([H])[H])C([H])([H])[H])C(C([H])([H])[H])(C([H])([H])[H])C([H])([H])[H])C([H])([H])c2c([H])c(OC([H])([H])C([H])([H])C([H])([H])C(=O)N([H])c3c([H])c([H])c(C([H])([H])N(C(=O)N4C([H])([H])C([H])([H])C([H])([H])C([H])(n5nc(-c6c([H])c([H])c(Oc7c([H])c([H])c(F)c([H])c7F)c([H])c6[H])c(C(=O)N([H])[H])c5N([H])[H])C4([H])[H])C([H])([H])[H])c(C([H])([H])[H])c3[H])c([H])c([H])c2C1([H])[H]

>  <smiles>  (41) 
[H]c1c([H])c([H])c2c(c1[H])C([H])([H])C([H])([H])C([H])([H])C2([H])N([H])C(=O)C1([H])N(C(=O)C([H])(N([H])C(=O)C([H])(N([H])C([H])([H])[H])C([H])([H])[H])C(C([H])([H])[H])(C([H])([H])[H])C([H])([H])[H])C([H])([H])c2c([H])c(OC([H])([H])C([H])([H])C([H])([H])C(=O)N([H])c3c([H])c([H])c(C([H])([H])N(C(=O)N4C([H])([H])C([H])([H])C([H])([H])C([H])(n5nc(-c6c([H])c([H])c(Oc7c([H])c([H])c(F)c([H])c7F)c([H])c6[H])c(C(=O)N([H])[H])c5N([H])[H])C4([H])[H])C([H])([H])[H])c(C([H])([H])[H])c3[H])c([H])c([H])c2C1([H])[H]

$$$$
41:0:0
     RDKit          3D

 95104  0  0  1  0  0  0  0  0999 V2000
  -29.1210  -23.1360   22.5100 C   0  0  0  0  0  0  0  0  0  0  0  0
  -29.6850  -24.5040   22.8470 C   0  0  0  0  0  2  0  0  0  0  0  0
  -30.3510  -24.8930   21.5310 C   0  0  0  0  0  2  0  0  0  0  0  0
  -29.4890  -24.1780   20.4800 C   0  0  0  0  0  3  0  0  0  0  0  0
  -29.1730  -22.8760   21.1840 N   0  0  0  0  0  0  0  0  0  0  0  0
  -28.6970  -22.3770   23.3900 O   0  0  0  0  0  0  0  0  0  0  0  0
  -31.0510  -19.5530   21.0740 C   0  0  0  0  0  3  0  0  0  0  0  0
  -30.7340  -20.9170   21.2980 C   0  0  0  0  0  3  0  0  0  0  0  0
  -28.7360  -20.6560   19.9970 C   0  0  0  0  0  3  0  0  0  0  0  0
  -29.0470  -19.2710   19.7470 C   0  0  0  0  0  0  0  0  0  0  0  0
  -30.2360  -18.6820   20.3040 C   0  0  0  0  0  0  0  0  0  0  0  0
  -29.5570  -21.5130   20.7810 C   0  0  0  0  0  0  0  0  0  0  0  0
  -28.1730  -17.4110   18.2060 C   0  0  0  0  0  2  0  0  0  0  0  0
  -28.0830  -18.5850   18.8530 C   0  0  0  0  0  3  0  0  0  0  0  0
  -30.8390  -17.2570   19.9920 C   0  0  0  0  0  2  0  0  0  0  0  0
  -30.8500  -14.7540   20.1330 C   0  0  0  0  0  0  0  0  0  0  0  0
  -30.4770  -12.5530   19.0660 C   0  0  0  0  0  2  0  0  0  0  0  0
  -29.5110  -12.7330   17.8800 C   0  0  0  0  0  2  0  0  0  0  0  0
  -28.0530  -12.5890   18.3530 C   0  0  0  0  0  2  0  0  0  0  0  0
  -27.7460  -13.4360   19.6190 C   0  0  0  0  0  3  0  0  0  0  0  0
  -28.8440  -13.2910   20.6970 C   0  0  0  0  0  2  0  0  0  0  0  0
  -30.1340  -13.5900   20.0630 N   0  0  0  0  0  0  0  0  0  0  0  0
  -32.0250  -14.7850   19.7630 O   0  0  0  0  0  0  0  0  0  0  0  0
  -30.1970  -15.9410   20.3490 N   0  0  0  0  0  0  0  0  0  0  0  0
  -29.2140  -15.9290   20.5770 H   0  0  0  0  0  0  0  0  0  0  0  0
  -25.3850  -14.0220   20.4300 C   0  0  0  0  0  0  0  0  0  0  0  0
  -24.3320  -13.2430   20.8280 C   0  0  0  0  0  0  0  0  0  0  0  0
  -24.7920  -11.8910   20.7680 C   0  0  0  0  0  0  0  0  0  0  0  0
  -26.4200  -13.1430   20.1510 N   0  0  0  0  0  0  0  0  0  0  0  0
  -26.0730  -11.8580   20.4200 N   0  0  0  0  0  0  0  0  0  0  0  0
  -24.0710  -10.6260   20.9670 C   0  0  0  0  0  0  0  0  0  0  0  0
  -24.5140   -9.6640   21.9010 C   0  0  0  0  0  3  0  0  0  0  0  0
  -23.7950   -8.4640   22.0870 C   0  0  0  0  0  3  0  0  0  0  0  0
  -22.6170   -8.2190   21.3410 C   0  0  0  0  0  0  0  0  0  0  0  0
  -22.1950   -9.1680   20.3930 C   0  0  0  0  0  3  0  0  0  0  0  0
  -22.9150  -10.3600   20.2050 C   0  0  0  0  0  3  0  0  0  0  0  0
  -21.8670   -7.0710   21.4390 O   0  0  0  0  0  0  0  0  0  0  0  0
  -21.8010   -6.3500   22.6030 C   0  0  0  0  0  0  0  0  0  0  0  0
  -21.2990   -6.9090   23.7990 C   0  0  0  0  0  3  0  0  0  0  0  0
  -21.1860   -6.1120   24.9560 C   0  0  0  0  0  3  0  0  0  0  0  0
  -21.5640   -4.7560   24.9170 C   0  0  0  0  0  0  0  0  0  0  0  0
  -22.0580   -4.1960   23.7260 C   0  0  0  0  0  3  0  0  0  0  0  0
  -22.1740   -4.9900   22.5720 C   0  0  0  0  0  0  0  0  0  0  0  0
  -22.6300   -4.4420   21.4210 F   0  0  0  0  0  0  0  0  0  0  0  0
  -21.4470   -3.9870   26.0240 F   0  0  0  0  0  0  0  0  0  0  0  0
  -22.9430  -13.7140   21.1460 C   0  0  0  0  0  0  0  0  0  0  0  0
  -22.2390  -13.0100   22.0270 N   0  0  0  0  0  0  0  0  0  0  0  0
  -22.4880  -14.7410   20.6440 O   0  0  0  0  0  0  0  0  0  0  0  0
  -22.6190  -12.1810   22.4590 H   0  0  0  0  0  0  0  0  0  0  0  0
  -21.3060  -13.3050   22.2730 H   0  0  0  0  0  0  0  0  0  0  0  0
  -25.5430  -15.3940   20.2590 N   0  0  0  0  0  0  0  0  0  0  0  0
  -24.7810  -16.0490   20.3980 H   0  0  0  0  0  0  0  0  0  0  0  0
  -26.3790  -15.8330   19.8950 H   0  0  0  0  0  0  0  0  0  0  0  0
  -28.2310  -25.1170   20.1520 C   0  0  0  0  0  2  0  0  0  0  0  0
  -28.4250  -26.5890   20.0870 O   0  0  0  0  0  0  0  0  0  0  0  0
  -24.5920  -31.8720   23.1590 C   0  0  0  0  0  0  0  0  0  0  0  0
  -27.2880  -27.4120   20.0430 C   0  0  0  0  0  0  0  0  0  0  0  0
  -23.4170  -30.4890   21.4880 C   0  0  0  0  0  3  0  0  0  0  0  0
  -24.8970  -28.9870   20.0410 C   0  0  0  0  0  0  0  0  0  0  0  0
  -25.9510  -30.8500   21.3200 C   0  0  0  0  0  2  0  0  0  0  0  0
  -26.0550  -29.4850   20.6500 C   0  0  0  0  0  0  0  0  0  0  0  0
  -27.2540  -28.7120   20.6350 C   0  0  0  0  0  3  0  0  0  0  0  0
  -26.1030  -26.9620   19.4170 C   0  0  0  0  0  3  0  0  0  0  0  0
  -24.9240  -27.7310   19.4130 C   0  0  0  0  0  3  0  0  0  0  0  0
  -23.6450  -29.8410   20.0960 C   0  0  0  0  0  2  0  0  0  0  0  0
  -24.6730  -31.0870   22.0470 N   0  0  0  0  0  0  0  0  0  0  0  0
  -23.5010  -32.1230   23.6940 O   0  0  0  0  0  0  0  0  0  0  0  0
  -22.7640  -29.4440   22.4230 C   0  0  0  0  0  0  0  0  0  0  0  0
  -21.4420  -29.2460   22.2780 N   0  0  0  0  0  0  0  0  0  0  0  0
  -23.4450  -28.8150   23.2370 O   0  0  0  0  0  0  0  0  0  0  0  0
  -20.9510  -29.8050   21.5940 H   0  0  0  0  0  0  0  0  0  0  0  0
  -18.0800  -27.9880   22.7180 C   0  0  0  0  0  0  0  0  0  0  0  0
  -20.6310  -28.2840   23.0250 C   0  0  0  0  0  3  0  0  0  0  0  0
  -20.7650  -26.8640   22.4260 C   0  0  0  0  0  2  0  0  0  0  0  0
  -19.6790  -26.5400   21.3950 C   0  0  0  0  0  2  0  0  0  0  0  0
  -18.2870  -26.6520   22.0230 C   0  0  0  0  0  2  0  0  0  0  0  0
  -19.1820  -28.7600   23.1740 C   0  0  0  0  0  0  0  0  0  0  0  0
  -18.9360  -30.0110   23.7830 C   0  0  0  0  0  3  0  0  0  0  0  0
  -17.6210  -30.4890   23.9400 C   0  0  0  0  0  3  0  0  0  0  0  0
  -16.5340  -29.7130   23.5020 C   0  0  0  0  0  3  0  0  0  0  0  0
  -16.7640  -28.4650   22.8970 C   0  0  0  0  0  3  0  0  0  0  0  0
  -25.8620  -32.5090   23.8020 C   0  0  0  0  0  3  0  0  0  0  0  0
  -26.3700  -31.7280   25.0750 C   0  0  1  0  0  0  0  0  0  0  0  0
  -25.2670  -31.4620   26.1250 C   0  0  0  0  0  1  0  0  0  0  0  0
  -26.9710  -30.3610   24.6710 C   0  0  0  0  0  1  0  0  0  0  0  0
  -27.5040  -32.5250   25.7610 C   0  0  0  0  0  1  0  0  0  0  0  0
  -25.5360  -33.9020   24.1450 N   0  0  0  0  0  0  0  0  0  0  0  0
  -25.8570  -34.9640   23.3970 C   0  0  0  0  0  0  0  0  0  0  0  0
  -26.5290  -34.8780   22.3640 O   0  0  0  0  0  0  0  0  0  0  0  0
  -24.9340  -34.0410   24.9430 H   0  0  0  0  0  0  0  0  0  0  0  0
  -24.1100  -36.7420   23.0590 C   0  0  0  0  0  1  0  0  0  0  0  0
  -25.3550  -36.3440   23.8670 C   0  0  0  0  0  3  0  0  0  0  0  0
  -27.4730  -37.2490   24.7180 C   0  0  0  0  0  1  0  0  0  0  0  0
  -26.3770  -37.4080   23.7670 N   0  0  0  0  0  0  0  0  0  0  0  0
  -25.9590  -38.3230   23.9160 H   0  0  0  0  0  0  0  0  0  0  0  0
  1  2  1  0
  1  6  2  0
  3  2  1  0
  4 54  1  0
  4  5  1  0
  4  3  1  0
  5  1  1  0
  7  8  1  0
  9 12  1  0
 10  9  2  0
 10 11  1  0
 11  7  2  0
 12  5  1  0
 12  8  2  0
 13 14  2  0
 14 10  1  0
 15 11  1  0
 15 24  1  0
 16 24  1  0
 17 22  1  0
 18 19  1  0
 18 17  1  0
 20 19  1  0
 20 29  1  0
 20 21  1  0
 22 16  1  0
 22 21  1  0
 23 16  2  0
 24 25  1  0
 26 27  2  0
 27 46  1  0
 28 27  1  0
 28 31  1  0
 29 30  1  0
 29 26  1  0
 30 28  2  0
 31 32  1  0
 32 33  2  0
 34 37  1  0
 34 33  1  0
 35 34  2  0
 36 35  1  0
 36 31  2  0
 37 38  1  0
 38 39  1  0
 39 40  2  0
 41 40  1  0
 41 45  1  0
 42 41  2  0
 43 38  2  0
 43 42  1  0
 44 43  1  0
 46 47  1  0
 47 50  1  0
 47 49  1  0
 48 46  2  0
 51 52  1  0
 51 26  1  0
 53 51  1  0
 55 54  1  0
 56 67  2  0
 57 55  1  0
 57 62  1  0
 58 66  1  0
 58 68  1  0
 59 65  1  0
 59 61  1  0
 60 66  1  0
 61 60  1  0
 62 61  2  0
 63 57  2  0
 64 63  1  0
 64 59  2  0
 65 58  1  0
 66 56  1  0
 68 70  2  0
 69 68  1  0
 71 69  1  0
 72 81  2  0
 72 77  1  0
 73 69  1  0
 73 77  1  0
 74 73  1  0
 75 76  1  0
 75 74  1  0
 76 72  1  0
 77 78  2  0
 78 79  1  0
 80 79  2  0
 81 80  1  0
 82 56  1  0
 82 87  1  0
 82 83  1  0
 83 86  1  1
 83 84  1  0
 85 83  1  0
 87 90  1  0
 88 92  1  0
 88 87  1  0
 89 88  2  0
 92 91  1  0
 94 92  1  0
 94 95  1  0
 94 93  1  0
M  ISO  4  16 100  24 100  54 101  55 101
M  END
>  <TORSDO>  (42) 
F 20

>  <SCORE>  (42) 
-13.505

>  <name>  (42) 
41

>  <ligand_id>  (42) 
41

>  <original_smiles>  (42) 
[H]C([H])=C([H])c1c([H])c(N2C(=O)C([H])([H])C([H])([H])C2([H])C([H])([H])Oc2c([H])c([H])c3c(c2[H])C([H])([H])N(C(=O)C([H])(N([H])C(=O)C([H])(N([H])C([H])([H])[H])C([H])([H])[H])C(C([H])([H])[H])(C([H])([H])[H])C([H])([H])[H])C([H])(C(=O)N([H])C2([H])c4c([H])c([H])c([H])c([H])c4C([H])([H])C([H])([H])C2([H])[H])C3([H])[H])c([H])c([H])c1C([H])([H])N([H])C(=O)N1C([H])([H])C([H])([H])C([H])([H])C([H])(n2nc(-c3c([H])c([H])c(Oc4c([H])c([H])c(F)c([H])c4F)c([H])c3[H])c(C(=O)N([H])[H])c2N([H])[H])C1([H])[H]

>  <smiles>  (42) 
[H]C([H])=C([H])c1c([H])c(N2C(=O)C([H])([H])C([H])([H])C2([H])C([H])([H])Oc2c([H])c([H])c3c(c2[H])C([H])([H])N(C(=O)C([H])(N([H])C(=O)C([H])(N([H])C([H])([H])[H])C([H])([H])[H])C(C([H])([H])[H])(C([H])([H])[H])C([H])([H])[H])C([H])(C(=O)N([H])C2([H])c4c([H])c([H])c([H])c([H])c4C([H])([H])C([H])([H])C2([H])[H])C3([H])[H])c([H])c([H])c1C([H])([H])N([H])C(=O)N1C([H])([H])C([H])([H])C([H])([H])C([H])(n2nc(-c3c([H])c([H])c(Oc4c([H])c([H])c(F)c([H])c4F)c([H])c3[H])c(C(=O)N([H])[H])c2N([H])[H])C1([H])[H]

$$$$
42:0:0
     RDKit          3D

102110  0  0  1  0  0  0  0  0999 V2000
  -29.5240  -20.0750   21.2870 C   0  0  0  0  0  3  0  0  0  0  0  0
  -29.9000  -17.7370   20.6200 C   0  0  0  0  0  0  0  0  0  0  0  0
  -30.1090  -18.8120   21.5340 C   0  0  0  0  0  0  0  0  0  0  0  0
  -28.4160  -19.2190   19.3000 C   0  0  0  0  0  0  0  0  0  0  0  0
  -28.7100  -20.3070   20.1610 C   0  0  0  0  0  0  0  0  0  0  0  0
  -29.0140  -17.9470   19.5180 C   0  0  0  0  0  0  0  0  0  0  0  0
  -27.4890  -19.4010   18.0970 C   0  0  0  0  0  1  0  0  0  0  0  0
  -30.7420  -14.3080   19.6890 C   0  0  0  0  0  0  0  0  0  0  0  0
  -30.1740  -12.3130   18.3560 C   0  0  0  0  0  2  0  0  0  0  0  0
  -29.0500  -12.6450   17.3560 C   0  0  0  0  0  2  0  0  0  0  0  0
  -27.6680  -12.4640   18.0130 C   0  0  0  0  0  2  0  0  0  0  0  0
  -27.5590  -13.1790   19.3870 C   0  0  0  0  0  3  0  0  0  0  0  0
  -28.7760  -12.8480   20.2780 C   0  0  0  0  0  2  0  0  0  0  0  0
  -29.9890  -13.1910   19.5200 N   0  0  0  0  0  0  0  0  0  0  0  0
  -31.8220  -14.4630   19.1110 O   0  0  0  0  0  0  0  0  0  0  0  0
  -30.7150  -16.4610   20.7330 C   0  0  0  0  0  0  0  0  0  0  0  0
  -30.1290  -15.3180   20.3330 N   0  0  0  0  0  0  0  0  0  0  0  0
  -31.8710  -16.5240   21.1690 O   0  0  0  0  0  0  0  0  0  0  0  0
  -29.1230  -15.2920   20.3300 H   0  0  0  0  0  0  0  0  0  0  0  0
  -25.3280  -13.7300   20.5430 C   0  0  0  0  0  0  0  0  0  0  0  0
  -24.3150  -12.9300   21.0010 C   0  0  0  0  0  0  0  0  0  0  0  0
  -24.7320  -11.5860   20.7590 C   0  0  0  0  0  0  0  0  0  0  0  0
  -26.2980  -12.8680   20.0540 N   0  0  0  0  0  0  0  0  0  0  0  0
  -25.9530  -11.5690   20.2420 N   0  0  0  0  0  0  0  0  0  0  0  0
  -24.0170  -10.3160   20.9380 C   0  0  0  0  0  0  0  0  0  0  0  0
  -24.4060   -9.3820   21.9230 C   0  0  0  0  0  3  0  0  0  0  0  0
  -23.6910   -8.1770   22.0860 C   0  0  0  0  0  3  0  0  0  0  0  0
  -22.5740   -7.8960   21.2640 C   0  0  0  0  0  0  0  0  0  0  0  0
  -22.2050   -8.8200   20.2700 C   0  0  0  0  0  3  0  0  0  0  0  0
  -22.9220  -10.0170   20.1040 C   0  0  0  0  0  3  0  0  0  0  0  0
  -21.8360   -6.7390   21.3340 O   0  0  0  0  0  0  0  0  0  0  0  0
  -21.4830   -6.1830   22.5370 C   0  0  0  0  0  0  0  0  0  0  0  0
  -20.7010   -6.8830   23.4810 C   0  0  0  0  0  3  0  0  0  0  0  0
  -20.3010   -6.2470   24.6730 C   0  0  0  0  0  3  0  0  0  0  0  0
  -20.6740   -4.9130   24.9210 C   0  0  0  0  0  0  0  0  0  0  0  0
  -21.4490   -4.2130   23.9790 C   0  0  0  0  0  3  0  0  0  0  0  0
  -21.8490   -4.8450   22.7890 C   0  0  0  0  0  0  0  0  0  0  0  0
  -22.5770   -4.1590   21.8760 F   0  0  0  0  0  0  0  0  0  0  0  0
  -20.2840   -4.3000   26.0630 F   0  0  0  0  0  0  0  0  0  0  0  0
  -22.9920  -13.3890   21.5430 C   0  0  0  0  0  0  0  0  0  0  0  0
  -22.4180  -12.6350   22.4750 N   0  0  0  0  0  0  0  0  0  0  0  0
  -22.4810  -14.4460   21.1760 O   0  0  0  0  0  0  0  0  0  0  0  0
  -22.8480  -11.7780   22.7900 H   0  0  0  0  0  0  0  0  0  0  0  0
  -21.5380  -12.9210   22.8790 H   0  0  0  0  0  0  0  0  0  0  0  0
  -25.4990  -15.1090   20.4850 N   0  0  0  0  0  0  0  0  0  0  0  0
  -24.7700  -15.7520   20.7770 H   0  0  0  0  0  0  0  0  0  0  0  0
  -26.2770  -15.5760   20.0360 H   0  0  0  0  0  0  0  0  0  0  0  0
  -28.7270  -16.9350   18.5890 N   0  0  0  0  0  0  0  0  0  0  0  0
  -29.3760  -16.1710   18.4460 H   0  0  0  0  0  0  0  0  0  0  0  0
  -28.2590  -17.2030   17.7300 H   0  0  0  0  0  0  0  0  0  0  0  0
  -28.1900  -21.5900   19.9010 N   0  0  0  0  0  0  0  0  0  0  0  0
  -27.8390  -21.7570   18.9620 H   0  0  0  0  0  0  0  0  0  0  0  0
  -28.8610  -22.7700   20.4580 C   0  0  0  0  0  2  0  0  0  0  0  0
  -28.5600  -24.0620   19.6740 C   0  0  0  0  0  0  0  0  0  0  0  0
  -28.2020  -24.0170   18.4910 O   0  0  0  0  0  0  0  0  0  0  0  0
  -28.7400  -25.3930   20.4290 C   0  0  0  0  0  2  0  0  0  0  0  0
  -28.6470  -26.5370   19.5650 O   0  0  0  0  0  0  0  0  0  0  0  0
  -24.6500  -31.3830   22.9100 C   0  0  0  0  0  0  0  0  0  0  0  0
  -27.4450  -27.1990   19.6300 C   0  0  0  0  0  0  0  0  0  0  0  0
  -23.4810  -29.9900   21.2320 C   0  0  0  0  0  3  0  0  0  0  0  0
  -24.9830  -28.5740   19.7330 C   0  0  0  0  0  0  0  0  0  0  0  0
  -25.9830  -30.4800   21.0080 C   0  0  0  0  0  2  0  0  0  0  0  0
  -26.1240  -29.1390   20.3180 C   0  0  0  0  0  0  0  0  0  0  0  0
  -27.3610  -28.4620   20.2570 C   0  0  0  0  0  3  0  0  0  0  0  0
  -26.2890  -26.6380   19.0500 C   0  0  0  0  0  3  0  0  0  0  0  0
  -25.0590  -27.3210   19.0980 C   0  0  0  0  0  3  0  0  0  0  0  0
  -23.7000  -29.3680   19.8260 C   0  0  0  0  0  2  0  0  0  0  0  0
  -24.7230  -30.6300   21.7760 N   0  0  0  0  0  0  0  0  0  0  0  0
  -23.5650  -31.5860   23.4740 O   0  0  0  0  0  0  0  0  0  0  0  0
  -22.8920  -28.9070   22.1620 C   0  0  0  0  0  0  0  0  0  0  0  0
  -21.5800  -28.6510   22.0250 N   0  0  0  0  0  0  0  0  0  0  0  0
  -23.6110  -28.2980   22.9580 O   0  0  0  0  0  0  0  0  0  0  0  0
  -21.0590  -29.1970   21.3530 H   0  0  0  0  0  0  0  0  0  0  0  0
  -18.2780  -27.2600   22.4830 C   0  0  0  0  0  0  0  0  0  0  0  0
  -20.8180  -27.6460   22.7660 C   0  0  0  0  0  3  0  0  0  0  0  0
  -20.9990  -26.2420   22.1420 C   0  0  0  0  0  2  0  0  0  0  0  0
  -19.9140  -25.8930   21.1170 C   0  0  0  0  0  2  0  0  0  0  0  0
  -18.5270  -25.9450   21.7650 C   0  0  0  0  0  2  0  0  0  0  0  0
  -19.3550  -28.0670   22.9390 C   0  0  0  0  0  0  0  0  0  0  0  0
  -19.0690  -29.2990   23.5670 C   0  0  0  0  0  3  0  0  0  0  0  0
  -17.7400  -29.7250   23.7460 C   0  0  0  0  0  3  0  0  0  0  0  0
  -16.6780  -28.9140   23.3100 C   0  0  0  0  0  3  0  0  0  0  0  0
  -16.9490  -27.6840   22.6840 C   0  0  0  0  0  3  0  0  0  0  0  0
  -25.9160  -32.0480   23.5350 C   0  0  0  0  0  3  0  0  0  0  0  0
  -26.5370  -31.2100   24.7210 C   0  0  1  0  0  0  0  0  0  0  0  0
  -25.5050  -30.7880   25.7920 C   0  0  0  0  0  1  0  0  0  0  0  0
  -27.2140  -29.9260   24.1870 C   0  0  0  0  0  1  0  0  0  0  0  0
  -27.6450  -32.0340   25.4200 C   0  0  0  0  0  1  0  0  0  0  0  0
  -25.5340  -33.3910   23.9910 N   0  0  0  0  0  0  0  0  0  0  0  0
  -25.7710  -34.5190   23.3110 C   0  0  0  0  0  0  0  0  0  0  0  0
  -26.4100  -34.5430   22.2550 O   0  0  0  0  0  0  0  0  0  0  0  0
  -24.9610  -33.4410   24.8210 H   0  0  0  0  0  0  0  0  0  0  0  0
  -23.9210  -36.2140   23.1580 C   0  0  0  0  0  1  0  0  0  0  0  0
  -25.2130  -35.8300   23.8950 C   0  0  0  0  0  3  0  0  0  0  0  0
  -27.3100  -36.7880   24.7390 C   0  0  0  0  0  1  0  0  0  0  0  0
  -26.1710  -36.9540   23.8400 N   0  0  0  0  0  0  0  0  0  0  0  0
  -25.7110  -37.8300   24.0730 H   0  0  0  0  0  0  0  0  0  0  0  0
  -30.9420  -18.6770   22.8100 C   0  0  0  0  0  2  0  0  0  0  0  0
  -30.1910  -17.9790   23.8650 N   0  0  0  0  0  4  0  0  0  0  0  0
  -29.3470  -18.4760   24.0810 H   0  0  0  0  0  0  0  0  0  0  0  0
  -30.7480  -17.9380   24.6990 H   0  0  0  0  0  0  0  0  0  0  0  0
  -29.9550  -17.0410   23.5990 H   0  0  0  0  0  0  0  0  0  0  0  0
  1  3  1  0
  2 16  1  0
  2  3  2  0
  3 98  1  0
  4  6  2  0
  4  5  1  0
  5  1  2  0
  6  2  1  0
  7  4  1  0
  8 17  1  0
  9 14  1  0
 10 11  1  0
 10  9  1  0
 12 11  1  0
 12 23  1  0
 12 13  1  0
 14  8  1  0
 14 13  1  0
 15  8  2  0
 16 18  2  0
 17 16  1  0
 19 17  1  0
 20 21  2  0
 21 40  1  0
 22 25  1  0
 22 21  1  0
 23 24  1  0
 23 20  1  0
 24 22  2  0
 25 26  1  0
 26 27  2  0
 28 31  1  0
 28 27  1  0
 29 28  2  0
 30 29  1  0
 30 25  2  0
 31 32  1  0
 32 37  2  0
 32 33  1  0
 33 34  2  0
 34 35  1  0
 35 39  1  0
 36 35  2  0
 37 36  1  0
 38 37  1  0
 40 41  1  0
 41 43  1  0
 41 44  1  0
 42 40  2  0
 45 20  1  0
 45 46  1  0
 47 45  1  0
 48  6  1  0
 49 48  1  0
 50 48  1  0
 51  5  1  0
 51 53  1  0
 52 51  1  0
 54 56  1  0
 54 53  1  0
 55 54  2  0
 57 59  1  0
 57 56  1  0
 58 69  2  0
 59 64  1  0
 60 68  1  0
 60 70  1  0
 61 67  1  0
 61 63  1  0
 62 68  1  0
 63 62  1  0
 64 63  2  0
 65 66  1  0
 65 59  2  0
 66 61  2  0
 67 60  1  0
 68 58  1  0
 70 72  2  0
 71 70  1  0
 73 71  1  0
 74 83  2  0
 74 79  1  0
 75 71  1  0
 75 79  1  0
 76 75  1  0
 77 78  1  0
 77 76  1  0
 78 74  1  0
 79 80  2  0
 80 81  1  0
 82 81  2  0
 83 82  1  0
 84 58  1  0
 84 89  1  0
 84 85  1  0
 85 88  1  1
 85 86  1  0
 87 85  1  0
 89 92  1  0
 90 94  1  0
 90 89  1  0
 91 90  2  0
 94 93  1  0
 96 94  1  0
 96 97  1  0
 96 95  1  0
 98 99  1  0
 99100  1  0
 99101  1  0
102 99  1  0
M  ISO  4   8 100  17 100  56 101  57 101
M  END
>  <TORSDO>  (43) 
F 23

>  <SCORE>  (43) 
-10.194

>  <name>  (43) 
42

>  <ligand_id>  (43) 
42

>  <original_smiles>  (43) 
[H]c1c([H])c([H])c2c(c1[H])C([H])([H])C([H])([H])C([H])([H])C2([H])N([H])C(=O)C1([H])N(C(=O)C([H])(N([H])C(=O)C([H])(N([H])C([H])([H])[H])C([H])([H])[H])C(C([H])([H])[H])(C([H])([H])[H])C([H])([H])[H])C([H])([H])c2c([H])c(OC([H])([H])C(=O)C([H])([H])N([H])c3c([H])c(C([H])([H])[N+]([H])([H])[H])c(C(=O)N([H])C(=O)N4C([H])([H])C([H])([H])C([H])([H])C([H])(n5nc(-c6c([H])c([H])c(Oc7c([H])c([H])c(F)c([H])c7F)c([H])c6[H])c(C(=O)N([H])[H])c5N([H])[H])C4([H])[H])c(N([H])[H])c3C([H])([H])[H])c([H])c([H])c2C1([H])[H]

>  <smiles>  (43) 
[H]c1c([H])c([H])c2c(c1[H])C([H])([H])C([H])([H])C([H])([H])C2([H])N([H])C(=O)C1([H])N(C(=O)C([H])(N([H])C(=O)C([H])(N([H])C([H])([H])[H])C([H])([H])[H])C(C([H])([H])[H])(C([H])([H])[H])C([H])([H])[H])C([H])([H])c2c([H])c(OC([H])([H])C(=O)C([H])([H])N([H])c3c([H])c(C([H])([H])[N+]([H])([H])[H])c(C(=O)N([H])C(=O)N4C([H])([H])C([H])([H])C([H])([H])C([H])(n5nc(-c6c([H])c([H])c(Oc7c([H])c([H])c(F)c([H])c7F)c([H])c6[H])c(C(=O)N([H])[H])c5N([H])[H])C4([H])[H])c(N([H])[H])c3C([H])([H])[H])c([H])c([H])c2C1([H])[H]

$$$$
43:0:0
     RDKit          3D

 96104  0  0  1  0  0  0  0  0999 V2000
  -31.3340  -20.1550   19.5870 C   0  0  0  0  0  3  0  0  0  0  0  0
  -29.7160  -18.5550   18.7460 C   0  0  0  0  0  3  0  0  0  0  0  0
  -31.5630  -19.3460   20.7360 C   0  0  0  0  0  0  0  0  0  0  0  0
  -30.8200  -18.1370   20.8930 C   0  0  0  0  0  0  0  0  0  0  0  0
  -30.3950  -19.7790   18.5940 C   0  0  0  0  0  0  0  0  0  0  0  0
  -29.9280  -17.7440   19.8720 C   0  0  0  0  0  0  0  0  0  0  0  0
  -30.8900  -17.2490   22.1350 C   0  0  0  0  0  1  0  0  0  0  0  0
  -29.2350  -16.5850   19.9860 F   0  0  0  0  0  0  0  0  0  0  0  0
  -34.8690  -20.1940   22.2530 C   0  0  0  0  0  0  0  0  0  0  0  0
  -37.2730  -20.7630   22.2120 C   0  0  0  0  0  2  0  0  0  0  0  0
  -37.4810  -22.0750   21.4300 C   0  0  0  0  0  2  0  0  0  0  0  0
  -37.6370  -21.7890   19.9240 C   0  0  0  0  0  2  0  0  0  0  0  0
  -36.5290  -20.8530   19.3740 C   0  0  0  0  0  3  0  0  0  0  0  0
  -36.3490  -19.6150   20.2840 C   0  0  0  0  0  2  0  0  0  0  0  0
  -36.0890  -20.0890   21.6540 N   0  0  0  0  0  0  0  0  0  0  0  0
  -34.7450  -20.6620   23.3890 O   0  0  0  0  0  0  0  0  0  0  0  0
  -32.5100  -19.8660   21.7910 C   0  0  0  0  0  0  0  0  0  0  0  0
  -33.8250  -19.8160   21.4890 N   0  0  0  0  0  0  0  0  0  0  0  0
  -32.0330  -20.3370   22.8300 O   0  0  0  0  0  0  0  0  0  0  0  0
  -34.0500  -19.4560   20.5800 H   0  0  0  0  0  0  0  0  0  0  0  0
  -36.0350  -20.7110   16.8510 C   0  0  0  0  0  0  0  0  0  0  0  0
  -36.7610  -20.2120   15.8040 C   0  0  0  0  0  0  0  0  0  0  0  0
  -37.9610  -19.6840   16.3710 C   0  0  0  0  0  0  0  0  0  0  0  0
  -36.7930  -20.4720   17.9880 N   0  0  0  0  0  0  0  0  0  0  0  0
  -37.9360  -19.8020   17.6910 N   0  0  0  0  0  0  0  0  0  0  0  0
  -39.1580  -19.1270   15.7260 C   0  0  0  0  0  0  0  0  0  0  0  0
  -39.3530  -17.7330   15.6140 C   0  0  0  0  0  3  0  0  0  0  0  0
  -40.5030  -17.2200   14.9740 C   0  0  0  0  0  3  0  0  0  0  0  0
  -41.4680  -18.1030   14.4360 C   0  0  0  0  0  0  0  0  0  0  0  0
  -41.2800  -19.4900   14.5700 C   0  0  0  0  0  3  0  0  0  0  0  0
  -40.1380  -19.9980   15.2120 C   0  0  0  0  0  3  0  0  0  0  0  0
  -42.6280  -17.6960   13.8200 O   0  0  0  0  0  0  0  0  0  0  0  0
  -42.6080  -16.9470   12.6720 C   0  0  0  0  0  0  0  0  0  0  0  0
  -42.0930  -17.4560   11.4590 C   0  0  0  0  0  3  0  0  0  0  0  0
  -42.1550  -16.6780   10.2850 C   0  0  0  0  0  3  0  0  0  0  0  0
  -42.7400  -15.3970   10.3190 C   0  0  0  0  0  0  0  0  0  0  0  0
  -43.2580  -14.8910   11.5240 C   0  0  0  0  0  3  0  0  0  0  0  0
  -43.1950  -15.6660   12.6960 C   0  0  0  0  0  0  0  0  0  0  0  0
  -43.7150  -15.1810   13.8500 F   0  0  0  0  0  0  0  0  0  0  0  0
  -42.8060  -14.6530    9.1900 F   0  0  0  0  0  0  0  0  0  0  0  0
  -36.4080  -20.3010   14.3470 C   0  0  0  0  0  0  0  0  0  0  0  0
  -36.4140  -19.1740   13.6440 N   0  0  0  0  0  0  0  0  0  0  0  0
  -36.0750  -21.3680   13.8350 O   0  0  0  0  0  0  0  0  0  0  0  0
  -36.6710  -18.2950   14.0690 H   0  0  0  0  0  0  0  0  0  0  0  0
  -36.1630  -19.1920   12.6660 H   0  0  0  0  0  0  0  0  0  0  0  0
  -34.8090  -21.3650   16.9330 N   0  0  0  0  0  0  0  0  0  0  0  0
  -34.2720  -21.6100   16.1080 H   0  0  0  0  0  0  0  0  0  0  0  0
  -34.4140  -21.7390   17.7870 H   0  0  0  0  0  0  0  0  0  0  0  0
  -30.7130  -21.1250   16.4700 C   0  0  0  0  0  0  0  0  0  0  0  0
  -30.0060  -20.5900   17.4830 N   0  0  0  0  0  0  0  0  0  0  0  0
  -31.8900  -20.8500   16.2250 O   0  0  0  0  0  0  0  0  0  0  0  0
  -29.0260  -20.8370   17.4660 H   0  0  0  0  0  0  0  0  0  0  0  0
  -29.9320  -22.1210   15.5890 C   0  0  0  0  0  2  0  0  0  0  0  0
  -30.6420  -23.4510   15.2270 C   0  0  0  0  0  2  0  0  0  0  0  0
  -29.8030  -24.2940   14.2340 C   0  0  0  0  0  2  0  0  0  0  0  0
  -29.5170  -25.6130   14.7100 O   0  0  0  0  0  0  0  0  0  0  0  0
  -24.4160  -27.2710    9.9980 C   0  0  0  0  0  0  0  0  0  0  0  0
  -29.0420  -26.4820   13.7570 C   0  0  0  0  0  0  0  0  0  0  0  0
  -26.4910  -28.6140    9.8780 C   0  0  0  0  0  3  0  0  0  0  0  0
  -28.1140  -28.3200   11.8250 C   0  0  0  0  0  0  0  0  0  0  0  0
  -25.7460  -27.5570   12.0850 C   0  0  0  0  0  2  0  0  0  0  0  0
  -27.2100  -27.4630   12.4670 C   0  0  0  0  0  0  0  0  0  0  0  0
  -27.6680  -26.5400   13.4370 C   0  0  0  0  0  3  0  0  0  0  0  0
  -29.9420  -27.3520   13.1100 C   0  0  0  0  0  3  0  0  0  0  0  0
  -29.4840  -28.2670   12.1410 C   0  0  0  0  0  3  0  0  0  0  0  0
  -27.5440  -29.2800   10.8040 C   0  0  0  0  0  2  0  0  0  0  0  0
  -25.5150  -27.7660   10.6350 N   0  0  0  0  0  0  0  0  0  0  0  0
  -24.1860  -27.5450    8.8120 O   0  0  0  0  0  0  0  0  0  0  0  0
  -27.2320  -27.8440    8.7610 C   0  0  0  0  0  0  0  0  0  0  0  0
  -27.2720  -28.4320    7.5540 N   0  0  0  0  0  0  0  0  0  0  0  0
  -27.7800  -26.7630    8.9950 O   0  0  0  0  0  0  0  0  0  0  0  0
  -26.7950  -29.3160    7.4420 H   0  0  0  0  0  0  0  0  0  0  0  0
  -27.3340  -28.5760    3.9450 C   0  0  0  0  0  0  0  0  0  0  0  0
  -27.9450  -27.9090    6.3660 C   0  0  0  0  0  3  0  0  0  0  0  0
  -29.2850  -28.6400    6.1210 C   0  0  0  0  0  2  0  0  0  0  0  0
  -29.1540  -29.8360    5.1730 C   0  0  0  0  0  2  0  0  0  0  0  0
  -28.6120  -29.3880    3.8130 C   0  0  0  0  0  2  0  0  0  0  0  0
  -27.0130  -27.8960    5.1510 C   0  0  0  0  0  0  0  0  0  0  0  0
  -25.7950  -27.1880    5.2340 C   0  0  0  0  0  3  0  0  0  0  0  0
  -24.9070  -27.1510    4.1420 C   0  0  0  0  0  3  0  0  0  0  0  0
  -25.2370  -27.8110    2.9460 C   0  0  0  0  0  3  0  0  0  0  0  0
  -26.4500  -28.5160    2.8480 C   0  0  0  0  0  3  0  0  0  0  0  0
  -23.3850  -26.3610   10.7340 C   0  0  0  0  0  3  0  0  0  0  0  0
  -23.4120  -24.8640   10.2400 C   0  0  1  0  0  0  0  0  0  0  0  0
  -22.5200  -24.6070    9.0020 C   0  0  0  0  0  1  0  0  0  0  0  0
  -24.8530  -24.4350    9.8780 C   0  0  0  0  0  1  0  0  0  0  0  0
  -22.9460  -23.9250   11.3790 C   0  0  0  0  0  1  0  0  0  0  0  0
  -22.0540  -26.9500   10.5380 N   0  0  0  0  0  0  0  0  0  0  0  0
  -21.4620  -27.7930   11.3950 C   0  0  0  0  0  0  0  0  0  0  0  0
  -21.9560  -28.1000   12.4830 O   0  0  0  0  0  0  0  0  0  0  0  0
  -21.6140  -26.7870    9.6440 H   0  0  0  0  0  0  0  0  0  0  0  0
  -20.2700  -29.8840   10.6700 C   0  0  0  0  0  1  0  0  0  0  0  0
  -20.1030  -28.3880   10.9780 C   0  0  0  0  0  3  0  0  0  0  0  0
  -18.6500  -26.8090   12.1680 C   0  0  0  0  0  1  0  0  0  0  0  0
  -19.0430  -28.2050   11.9940 N   0  0  0  0  0  0  0  0  0  0  0  0
  -18.2130  -28.7380   11.7480 H   0  0  0  0  0  0  0  0  0  0  0  0
  1  3  1  0
  2  6  2  0
  3  4  2  0
  3 17  1  0
  4  7  1  0
  5  2  1  0
  5  1  2  0
  6  8  1  0
  6  4  1  0
  9 16  2  0
 11 10  1  0
 12 11  1  0
 13 24  1  0
 13 12  1  0
 13 14  1  0
 14 15  1  0
 15 10  1  0
 15  9  1  0
 17 19  2  0
 18 17  1  0
 18  9  1  0
 20 18  1  0
 21 46  1  0
 21 24  1  0
 22 23  1  0
 22 21  2  0
 23 25  2  0
 25 24  1  0
 26 23  1  0
 27 26  1  0
 28 27  2  0
 29 30  2  0
 29 28  1  0
 30 31  1  0
 31 26  2  0
 32 29  1  0
 33 38  1  0
 33 32  1  0
 34 33  2  0
 35 36  2  0
 35 34  1  0
 36 37  1  0
 37 38  2  0
 38 39  1  0
 40 36  1  0
 41 22  1  0
 42 44  1  0
 42 41  1  0
 43 41  2  0
 45 42  1  0
 46 48  1  0
 47 46  1  0
 49 50  1  0
 50  5  1  0
 51 49  2  0
 52 50  1  0
 53 49  1  0
 54 53  1  0
 55 56  1  0
 55 54  1  0
 57 67  1  0
 58 56  1  0
 59 69  1  0
 59 67  1  0
 59 66  1  0
 60 65  2  0
 60 62  1  0
 61 62  1  0
 62 63  2  0
 63 58  1  0
 64 58  2  0
 65 64  1  0
 66 60  1  0
 67 61  1  0
 68 57  2  0
 69 71  2  0
 70 69  1  0
 72 70  1  0
 73 78  1  0
 74 70  1  0
 75 74  1  0
 76 75  1  0
 77 73  1  0
 77 76  1  0
 78 79  2  0
 78 74  1  0
 80 79  1  0
 81 80  2  0
 82 81  1  0
 82 73  2  0
 83 57  1  0
 84 83  1  0
 84 87  1  1
 85 84  1  0
 86 84  1  0
 88 83  1  0
 88 89  1  0
 89 90  2  0
 91 88  1  0
 93 92  1  0
 93 89  1  0
 93 95  1  0
 95 94  1  0
 96 95  1  0
M  ISO  4   9 100  18 100  55 101  56 101
M  END
>  <TORSDO>  (44) 
F 20

>  <SCORE>  (44) 
-4.305

>  <name>  (44) 
43

>  <ligand_id>  (44) 
43

>  <original_smiles>  (44) 
[H]c1c([H])c([H])c2c(c1[H])C([H])([H])C([H])([H])C([H])([H])C2([H])N([H])C(=O)C1([H])N(C(=O)C([H])(N([H])C(=O)C([H])(N([H])C([H])([H])[H])C([H])([H])[H])C(C([H])([H])[H])(C([H])([H])[H])C([H])([H])[H])C([H])([H])c2c([H])c(OC([H])([H])C([H])([H])C([H])([H])C(=O)N([H])c3c([H])c(F)c(C([H])([H])[H])c(C(=O)N([H])C(=O)N4C([H])([H])C([H])([H])C([H])([H])C([H])(n5nc(-c6c([H])c([H])c(Oc7c([H])c([H])c(F)c([H])c7F)c([H])c6[H])c(C(=O)N([H])[H])c5N([H])[H])C4([H])[H])c3[H])c([H])c([H])c2C1([H])[H]

>  <smiles>  (44) 
[H]c1c([H])c([H])c2c(c1[H])C([H])([H])C([H])([H])C([H])([H])C2([H])N([H])C(=O)C1([H])N(C(=O)C([H])(N([H])C(=O)C([H])(N([H])C([H])([H])[H])C([H])([H])[H])C(C([H])([H])[H])(C([H])([H])[H])C([H])([H])[H])C([H])([H])c2c([H])c(OC([H])([H])C([H])([H])C([H])([H])C(=O)N([H])c3c([H])c(F)c(C([H])([H])[H])c(C(=O)N([H])C(=O)N4C([H])([H])C([H])([H])C([H])([H])C([H])(n5nc(-c6c([H])c([H])c(Oc7c([H])c([H])c(F)c([H])c7F)c([H])c6[H])c(C(=O)N([H])[H])c5N([H])[H])C4([H])[H])c3[H])c([H])c([H])c2C1([H])[H]

$$$$
44:0:0
     RDKit          3D

 94102  0  0  1  0  0  0  0  0999 V2000
  -27.9210  -19.3550   19.0770 C   0  0  0  0  0  3  0  0  0  0  0  0
  -27.9340  -18.0210   18.6120 C   0  0  0  0  0  3  0  0  0  0  0  0
  -29.5540  -18.7240   20.7290 C   0  0  0  0  0  3  0  0  0  0  0  0
  -28.7900  -19.7870   20.1000 C   0  0  0  0  0  0  0  0  0  0  0  0
  -28.8130  -17.0470   19.1390 C   0  0  0  0  0  0  0  0  0  0  0  0
  -29.6090  -17.3290   20.2770 C   0  0  0  0  0  0  0  0  0  0  0  0
  -30.8780  -14.9830   20.9350 C   0  0  0  0  0  0  0  0  0  0  0  0
  -30.5520  -12.6920   20.0350 C   0  0  0  0  0  2  0  0  0  0  0  0
  -29.7350  -12.5220   18.7500 C   0  0  0  0  0  2  0  0  0  0  0  0
  -28.2650  -12.3050   19.1200 C   0  0  0  0  0  2  0  0  0  0  0  0
  -27.7400  -13.3370   20.1520 C   0  0  0  0  0  3  0  0  0  0  0  0
  -28.7210  -13.5820   21.3280 C   0  0  0  0  0  2  0  0  0  0  0  0
  -30.0290  -13.9060   20.7290 N   0  0  0  0  0  0  0  0  0  0  0  0
  -32.0580  -14.6530   21.0580 O   0  0  0  0  0  0  0  0  0  0  0  0
  -31.9560  -17.1550   20.9010 C   0  0  0  0  0  1  0  0  0  0  0  0
  -30.6690  -16.3890   20.7690 N   0  0  0  0  0  0  0  0  0  0  0  0
  -25.3000  -13.8750   20.6850 C   0  0  0  0  0  0  0  0  0  0  0  0
  -24.2280  -13.0780   20.9720 C   0  0  0  0  0  0  0  0  0  0  0  0
  -24.7300  -11.7400   21.0250 C   0  0  0  0  0  0  0  0  0  0  0  0
  -26.3830  -13.0220   20.5760 N   0  0  0  0  0  0  0  0  0  0  0  0
  -26.0440  -11.7370   20.8630 N   0  0  0  0  0  0  0  0  0  0  0  0
  -24.0230  -10.4610   21.1620 C   0  0  0  0  0  0  0  0  0  0  0  0
  -24.3960   -9.5200   22.1460 C   0  0  0  0  0  3  0  0  0  0  0  0
  -23.6840   -8.3100   22.2820 C   0  0  0  0  0  3  0  0  0  0  0  0
  -22.5920   -8.0290   21.4290 C   0  0  0  0  0  0  0  0  0  0  0  0
  -22.2400   -8.9570   20.4350 C   0  0  0  0  0  3  0  0  0  0  0  0
  -22.9520  -10.1590   20.2990 C   0  0  0  0  0  3  0  0  0  0  0  0
  -21.8610   -6.8650   21.4750 O   0  0  0  0  0  0  0  0  0  0  0  0
  -21.7300   -6.1420   22.6340 C   0  0  0  0  0  0  0  0  0  0  0  0
  -21.1780   -6.7040   23.8050 C   0  0  0  0  0  3  0  0  0  0  0  0
  -20.9940   -5.9060   24.9520 C   0  0  0  0  0  3  0  0  0  0  0  0
  -21.3570   -4.5460   24.9280 C   0  0  0  0  0  0  0  0  0  0  0  0
  -21.9080   -3.9840   23.7630 C   0  0  0  0  0  3  0  0  0  0  0  0
  -22.0870   -4.7780   22.6180 C   0  0  0  0  0  0  0  0  0  0  0  0
  -22.5990   -4.2300   21.4900 F   0  0  0  0  0  0  0  0  0  0  0  0
  -21.1720   -3.7750   26.0250 F   0  0  0  0  0  0  0  0  0  0  0  0
  -22.8020  -13.5180   21.0860 C   0  0  0  0  0  0  0  0  0  0  0  0
  -22.0110  -12.8250   21.8980 N   0  0  0  0  0  0  0  0  0  0  0  0
  -22.3920  -14.5170   20.4980 O   0  0  0  0  0  0  0  0  0  0  0  0
  -22.3640  -12.0290   22.4110 H   0  0  0  0  0  0  0  0  0  0  0  0
  -21.0490  -13.1030   22.0180 H   0  0  0  0  0  0  0  0  0  0  0  0
  -25.4370  -15.2430   20.4680 N   0  0  0  0  0  0  0  0  0  0  0  0
  -24.6300  -15.8540   20.4010 H   0  0  0  0  0  0  0  0  0  0  0  0
  -26.2950  -15.6590   20.1220 H   0  0  0  0  0  0  0  0  0  0  0  0
  -28.9590  -15.8680   18.4230 N   0  0  0  0  0  0  0  0  0  0  0  0
  -28.4760  -15.8060   17.5320 H   0  0  0  0  0  0  0  0  0  0  0  0
  -29.8870  -15.4690   18.3700 H   0  0  0  0  0  0  0  0  0  0  0  0
  -28.8550  -21.3080   20.4760 C   0  0  0  0  0  0  0  0  0  0  0  0
  -29.4240  -21.6660   21.5130 O   0  0  0  0  0  0  0  0  0  0  0  0
  -28.7470  -22.3760   18.0980 C   0  0  0  0  0  1  0  0  0  0  0  0
  -28.2140  -22.4600   19.5510 C   0  0  0  0  0  3  0  0  0  0  0  0
  -28.2260  -23.9520   19.9340 C   0  0  0  0  0  0  0  0  0  0  0  0
  -28.1830  -25.1950   19.9950 C   0  0  0  0  0  0  0  0  0  0  0  0
  -28.2420  -26.5580   19.9450 O   0  0  0  0  0  0  0  0  0  0  0  0
  -24.5450  -31.9450   23.1260 C   0  0  0  0  0  0  0  0  0  0  0  0
  -27.1020  -27.3880   19.9720 C   0  0  0  0  0  0  0  0  0  0  0  0
  -23.3170  -30.5580   21.4970 C   0  0  0  0  0  3  0  0  0  0  0  0
  -24.7400  -29.0170   20.0240 C   0  0  0  0  0  0  0  0  0  0  0  0
  -25.8510  -30.8700   21.2690 C   0  0  0  0  0  2  0  0  0  0  0  0
  -25.9180  -29.4910   20.6140 C   0  0  0  0  0  0  0  0  0  0  0  0
  -27.0970  -28.6850   20.5870 C   0  0  0  0  0  3  0  0  0  0  0  0
  -25.8990  -26.9750   19.3550 C   0  0  0  0  0  3  0  0  0  0  0  0
  -24.7340  -27.7620   19.3930 C   0  0  0  0  0  3  0  0  0  0  0  0
  -23.5070  -29.8940   20.1060 C   0  0  0  0  0  2  0  0  0  0  0  0
  -24.5920  -31.1440   22.0210 N   0  0  0  0  0  0  0  0  0  0  0  0
  -23.4710  -32.2130   23.6820 O   0  0  0  0  0  0  0  0  0  0  0  0
  -22.6750  -29.5290   22.4580 C   0  0  0  0  0  0  0  0  0  0  0  0
  -21.3450  -29.3520   22.3600 N   0  0  0  0  0  0  0  0  0  0  0  0
  -23.3720  -28.8930   23.2540 O   0  0  0  0  0  0  0  0  0  0  0  0
  -20.8440  -29.9170   21.6900 H   0  0  0  0  0  0  0  0  0  0  0  0
  -17.9790  -28.1470   22.9160 C   0  0  0  0  0  0  0  0  0  0  0  0
  -20.5420  -28.4020   23.1340 C   0  0  0  0  0  3  0  0  0  0  0  0
  -20.6300  -26.9790   22.5350 C   0  0  0  0  0  2  0  0  0  0  0  0
  -19.5060  -26.6710   21.5410 C   0  0  0  0  0  2  0  0  0  0  0  0
  -18.1400  -26.8080   22.2180 C   0  0  0  0  0  2  0  0  0  0  0  0
  -19.1070  -28.9030   23.3320 C   0  0  0  0  0  0  0  0  0  0  0  0
  -18.9000  -30.1570   23.9450 C   0  0  0  0  0  3  0  0  0  0  0  0
  -17.5990  -30.6560   24.1450 C   0  0  0  0  0  3  0  0  0  0  0  0
  -16.4860  -29.8950   23.7460 C   0  0  0  0  0  3  0  0  0  0  0  0
  -16.6770  -28.6430   23.1370 C   0  0  0  0  0  3  0  0  0  0  0  0
  -25.8320  -32.5780   23.7330 C   0  0  0  0  0  3  0  0  0  0  0  0
  -26.3820  -31.7880   24.9840 C   0  0  1  0  0  0  0  0  0  0  0  0
  -25.3150  -31.5190   26.0730 C   0  0  0  0  0  1  0  0  0  0  0  0
  -26.9630  -30.4250   24.5490 C   0  0  0  0  0  1  0  0  0  0  0  0
  -27.5450  -32.5760   25.6280 C   0  0  0  0  0  1  0  0  0  0  0  0
  -25.5190  -33.9670   24.0980 N   0  0  0  0  0  0  0  0  0  0  0  0
  -25.8610  -35.0410   23.3730 C   0  0  0  0  0  0  0  0  0  0  0  0
  -26.5450  -34.9650   22.3480 O   0  0  0  0  0  0  0  0  0  0  0  0
  -24.9180  -34.0970   24.8990 H   0  0  0  0  0  0  0  0  0  0  0  0
  -24.1610  -36.8590   23.0210 C   0  0  0  0  0  1  0  0  0  0  0  0
  -25.3700  -36.4180   23.8610 C   0  0  0  0  0  3  0  0  0  0  0  0
  -27.4870  -37.2490   24.7910 C   0  0  0  0  0  1  0  0  0  0  0  0
  -26.4170  -37.4640   23.8190 N   0  0  0  0  0  0  0  0  0  0  0  0
  -26.0180  -38.3840   23.9860 H   0  0  0  0  0  0  0  0  0  0  0  0
  1  4  1  0
  2  1  2  0
  2  5  1  0
  4 48  1  0
  4  3  2  0
  5  6  2  0
  6  3  1  0
  6 16  1  0
  7 14  2  0
  8 13  1  0
  9 10  1  0
  9  8  1  0
 11 10  1  0
 11 20  1  0
 11 12  1  0
 13  7  1  0
 13 12  1  0
 16 15  1  0
 16  7  1  0
 17 18  2  0
 18 19  1  0
 18 37  1  0
 19 22  1  0
 20 17  1  0
 20 21  1  0
 21 19  2  0
 22 23  1  0
 23 24  2  0
 25 28  1  0
 25 24  1  0
 26 25  2  0
 27 26  1  0
 27 22  2  0
 28 29  1  0
 29 30  1  0
 30 31  2  0
 32 31  1  0
 32 36  1  0
 33 32  2  0
 34 29  2  0
 34 33  1  0
 35 34  1  0
 37 38  1  0
 38 41  1  0
 38 40  1  0
 39 37  2  0
 42 17  1  0
 43 42  1  0
 44 42  1  0
 45  5  1  0
 46 45  1  0
 47 45  1  0
 48 49  2  0
 51 50  1  0
 51 52  1  0
 51 48  1  0
 52 53  3  0
 54 56  1  0
 54 53  1  0
 55 66  2  0
 56 61  1  0
 57 65  1  0
 57 67  1  0
 58 64  1  0
 58 60  1  0
 59 65  1  0
 60 59  1  0
 61 60  2  0
 62 63  1  0
 62 56  2  0
 63 58  2  0
 64 57  1  0
 65 55  1  0
 67 69  2  0
 68 67  1  0
 70 68  1  0
 71 80  2  0
 71 76  1  0
 72 68  1  0
 72 76  1  0
 73 72  1  0
 74 75  1  0
 74 73  1  0
 75 71  1  0
 76 77  2  0
 77 78  1  0
 79 78  2  0
 80 79  1  0
 81 55  1  0
 81 86  1  0
 81 82  1  0
 82 85  1  1
 82 83  1  0
 84 82  1  0
 86 89  1  0
 87 91  1  0
 87 86  1  0
 88 87  2  0
 91 90  1  0
 93 91  1  0
 93 94  1  0
 93 92  1  0
M  ISO  4   7 100  16 100  53 101  54 101
M  END
>  <TORSDO>  (45) 
F 20

>  <SCORE>  (45) 
-13.866

>  <name>  (45) 
44

>  <ligand_id>  (45) 
44

>  <original_smiles>  (45) 
[H]c1c([H])c([H])c2c(c1[H])C([H])([H])C([H])([H])C([H])([H])C2([H])N([H])C(=O)C1([H])N(C(=O)C([H])(N([H])C(=O)C([H])(N([H])C([H])([H])[H])C([H])([H])[H])C(C([H])([H])[H])(C([H])([H])[H])C([H])([H])[H])C([H])([H])c2c([H])c(OC#CC([H])(C(=O)c3c([H])c([H])c(N([H])[H])c(N(C(=O)N4C([H])([H])C([H])([H])C([H])([H])C([H])(n5nc(-c6c([H])c([H])c(Oc7c([H])c([H])c(F)c([H])c7F)c([H])c6[H])c(C(=O)N([H])[H])c5N([H])[H])C4([H])[H])C([H])([H])[H])c3[H])C([H])([H])[H])c([H])c([H])c2C1([H])[H]

>  <smiles>  (45) 
[H]c1c([H])c([H])c2c(c1[H])C([H])([H])C([H])([H])C([H])([H])C2([H])N([H])C(=O)C1([H])N(C(=O)C([H])(N([H])C(=O)C([H])(N([H])C([H])([H])[H])C([H])([H])[H])C(C([H])([H])[H])(C([H])([H])[H])C([H])([H])[H])C([H])([H])c2c([H])c(OC#CC([H])(C(=O)c3c([H])c([H])c(N([H])[H])c(N(C(=O)N4C([H])([H])C([H])([H])C([H])([H])C([H])(n5nc(-c6c([H])c([H])c(Oc7c([H])c([H])c(F)c([H])c7F)c([H])c6[H])c(C(=O)N([H])[H])c5N([H])[H])C4([H])[H])C([H])([H])[H])c3[H])C([H])([H])[H])c([H])c([H])c2C1([H])[H]

$$$$
45:0:0
     RDKit          3D

 96105  0  0  1  0  0  0  0  0999 V2000
  -30.9550  -21.1560   21.7620 C   0  0  0  0  0  3  0  0  0  0  0  0
  -29.7480  -24.6780   21.8110 C   0  0  0  0  0  2  0  0  0  0  0  0
  -30.7150  -23.5840   22.2660 C   0  0  0  0  0  2  0  0  0  0  0  0
  -29.4200  -22.7630   20.4080 C   0  0  0  0  0  2  0  0  0  0  0  0
  -29.4880  -24.3290   20.3510 C   0  0  0  0  0  3  0  0  0  0  0  0
  -30.3860  -22.3710   21.4740 N   0  0  0  0  0  0  0  0  0  0  0  0
  -31.8760  -21.1450   22.7260 N   0  0  0  0  0  0  0  0  0  0  0  0
  -32.2790  -20.2600   22.9970 H   0  0  0  0  0  0  0  0  0  0  0  0
  -32.1870  -21.9770   23.1930 H   0  0  0  0  0  0  0  0  0  0  0  0
  -31.7910  -18.9270   21.0090 C   0  0  0  0  0  3  0  0  0  0  0  0
  -31.5980  -17.5420   20.7910 C   0  0  0  0  0  3  0  0  0  0  0  0
  -29.3950  -19.2870   21.0210 C   0  0  0  0  0  3  0  0  0  0  0  0
  -30.6980  -19.8140   21.1750 C   0  0  0  0  0  0  0  0  0  0  0  0
  -30.2930  -16.9920   20.7300 C   0  0  0  0  0  0  0  0  0  0  0  0
  -29.2030  -17.8960   20.8090 C   0  0  0  0  0  0  0  0  0  0  0  0
  -27.9420  -17.4050   20.7310 F   0  0  0  0  0  0  0  0  0  0  0  0
  -30.6910  -14.5520   20.0980 C   0  0  0  0  0  0  0  0  0  0  0  0
  -30.3060  -12.4150   18.9140 C   0  0  0  0  0  2  0  0  0  0  0  0
  -29.2950  -12.6630   17.7730 C   0  0  0  0  0  2  0  0  0  0  0  0
  -27.8470  -12.5350   18.2860 C   0  0  0  0  0  2  0  0  0  0  0  0
  -27.6000  -13.3290   19.5980 C   0  0  0  0  0  3  0  0  0  0  0  0
  -28.7190  -13.0610   20.6300 C   0  0  0  0  0  2  0  0  0  0  0  0
  -30.0060  -13.3770   19.9880 N   0  0  0  0  0  0  0  0  0  0  0  0
  -31.8090  -14.6980   19.5970 O   0  0  0  0  0  0  0  0  0  0  0  0
  -29.9930  -15.5820   20.6340 N   0  0  0  0  0  0  0  0  0  0  0  0
  -29.0760  -15.3360   20.9730 H   0  0  0  0  0  0  0  0  0  0  0  0
  -25.2570  -13.9460   20.4600 C   0  0  0  0  0  0  0  0  0  0  0  0
  -24.2010  -13.1780   20.8720 C   0  0  0  0  0  0  0  0  0  0  0  0
  -24.6420  -11.8220   20.7830 C   0  0  0  0  0  0  0  0  0  0  0  0
  -26.2750  -13.0580   20.1490 N   0  0  0  0  0  0  0  0  0  0  0  0
  -25.9120  -11.7740   20.4000 N   0  0  0  0  0  0  0  0  0  0  0  0
  -23.9100  -10.5650   20.9860 C   0  0  0  0  0  0  0  0  0  0  0  0
  -24.3730   -9.5780   21.8830 C   0  0  0  0  0  3  0  0  0  0  0  0
  -23.6420   -8.3850   22.0750 C   0  0  0  0  0  3  0  0  0  0  0  0
  -22.4340   -8.1720   21.3690 C   0  0  0  0  0  0  0  0  0  0  0  0
  -21.9900   -9.1470   20.4600 C   0  0  0  0  0  3  0  0  0  0  0  0
  -22.7210  -10.3320   20.2670 C   0  0  0  0  0  3  0  0  0  0  0  0
  -21.6720   -7.0340   21.4720 O   0  0  0  0  0  0  0  0  0  0  0  0
  -21.6460   -6.2870   22.6220 C   0  0  0  0  0  0  0  0  0  0  0  0
  -21.2520   -6.8370   23.8610 C   0  0  0  0  0  3  0  0  0  0  0  0
  -21.1740   -6.0160   25.0030 C   0  0  0  0  0  3  0  0  0  0  0  0
  -21.4790   -4.6460   24.9080 C   0  0  0  0  0  0  0  0  0  0  0  0
  -21.8660   -4.0940   23.6740 C   0  0  0  0  0  3  0  0  0  0  0  0
  -21.9460   -4.9120   22.5340 C   0  0  0  0  0  0  0  0  0  0  0  0
  -22.2990   -4.3720   21.3430 F   0  0  0  0  0  0  0  0  0  0  0  0
  -21.3960   -3.8540   26.0030 F   0  0  0  0  0  0  0  0  0  0  0  0
  -22.8290  -13.6660   21.2360 C   0  0  0  0  0  0  0  0  0  0  0  0
  -22.1500  -12.9680   22.1390 N   0  0  0  0  0  0  0  0  0  0  0  0
  -22.3690  -14.7010   20.7550 O   0  0  0  0  0  0  0  0  0  0  0  0
  -22.5360  -12.1300   22.5490 H   0  0  0  0  0  0  0  0  0  0  0  0
  -21.2310  -13.2740   22.4240 H   0  0  0  0  0  0  0  0  0  0  0  0
  -25.4290  -15.3190   20.3090 N   0  0  0  0  0  0  0  0  0  0  0  0
  -24.6840  -15.9770   20.5040 H   0  0  0  0  0  0  0  0  0  0  0  0
  -26.2790  -15.7680   19.9950 H   0  0  0  0  0  0  0  0  0  0  0  0
  -28.2770  -25.1070   19.7450 C   0  0  0  0  0  2  0  0  0  0  0  0
  -28.3980  -26.5560   19.8270 O   0  0  0  0  0  0  0  0  0  0  0  0
  -24.5080  -31.6330   23.0330 C   0  0  0  0  0  0  0  0  0  0  0  0
  -27.2220  -27.3010   19.8170 C   0  0  0  0  0  0  0  0  0  0  0  0
  -23.3200  -30.2480   21.3660 C   0  0  0  0  0  3  0  0  0  0  0  0
  -24.7970  -28.7840   19.8830 C   0  0  0  0  0  0  0  0  0  0  0  0
  -25.8400  -30.6630   21.1560 C   0  0  0  0  0  2  0  0  0  0  0  0
  -25.9520  -29.3110   20.4740 C   0  0  0  0  0  0  0  0  0  0  0  0
  -27.1680  -28.5800   20.4310 C   0  0  0  0  0  3  0  0  0  0  0  0
  -26.0450  -26.8070   19.2100 C   0  0  0  0  0  3  0  0  0  0  0  0
  -24.8410  -27.5350   19.2450 C   0  0  0  0  0  3  0  0  0  0  0  0
  -23.5320  -29.6130   19.9670 C   0  0  0  0  0  2  0  0  0  0  0  0
  -24.5750  -30.8620   21.9090 N   0  0  0  0  0  0  0  0  0  0  0  0
  -23.4250  -31.8640   23.5900 O   0  0  0  0  0  0  0  0  0  0  0  0
  -22.7040  -29.1840   22.3050 C   0  0  0  0  0  0  0  0  0  0  0  0
  -21.3800  -28.9790   22.1930 N   0  0  0  0  0  0  0  0  0  0  0  0
  -23.4120  -28.5500   23.0900 O   0  0  0  0  0  0  0  0  0  0  0  0
  -20.8680  -29.5470   21.5340 H   0  0  0  0  0  0  0  0  0  0  0  0
  -18.0380  -27.7060   22.7160 C   0  0  0  0  0  0  0  0  0  0  0  0
  -20.5960  -28.0000   22.9460 C   0  0  0  0  0  3  0  0  0  0  0  0
  -20.7100  -26.5920   22.3180 C   0  0  0  0  0  2  0  0  0  0  0  0
  -19.5930  -26.2860   21.3140 C   0  0  0  0  0  2  0  0  0  0  0  0
  -18.2230  -26.3850   21.9910 C   0  0  0  0  0  2  0  0  0  0  0  0
  -19.1520  -28.4730   23.1500 C   0  0  0  0  0  0  0  0  0  0  0  0
  -18.9240  -29.7120   23.7880 C   0  0  0  0  0  3  0  0  0  0  0  0
  -17.6150  -30.1850   23.9940 C   0  0  0  0  0  3  0  0  0  0  0  0
  -16.5150  -29.4150   23.5760 C   0  0  0  0  0  3  0  0  0  0  0  0
  -16.7280  -28.1780   22.9430 C   0  0  0  0  0  3  0  0  0  0  0  0
  -25.7820  -32.2810   23.6570 C   0  0  0  0  0  3  0  0  0  0  0  0
  -25.4400  -33.6590   24.0360 N   0  0  0  0  0  0  0  0  0  0  0  0
  -25.7390  -34.7430   23.3100 C   0  0  0  0  0  0  0  0  0  0  0  0
  -26.4030  -34.6910   22.2710 O   0  0  0  0  0  0  0  0  0  0  0  0
  -24.8510  -33.7720   24.8470 H   0  0  0  0  0  0  0  0  0  0  0  0
  -23.9580  -36.4950   23.0280 C   0  0  0  0  0  1  0  0  0  0  0  0
  -25.2180  -36.1010   23.8160 C   0  0  0  0  0  3  0  0  0  0  0  0
  -27.3340  -37.0220   24.6560 C   0  0  0  0  0  1  0  0  0  0  0  0
  -26.2210  -37.1850   23.7250 N   0  0  0  0  0  0  0  0  0  0  0  0
  -25.7900  -38.0890   23.9000 H   0  0  0  0  0  0  0  0  0  0  0  0
  -26.3390  -31.4840   24.9010 C   0  0  1  0  0  0  0  0  0  0  0  0
  -25.2680  -31.1810   25.9750 C   0  0  0  0  0  1  0  0  0  0  0  0
  -26.9530  -30.1370   24.4530 C   0  0  0  0  0  1  0  0  0  0  0  0
  -27.4780  -32.2870   25.5720 C   0  0  0  0  0  1  0  0  0  0  0  0
  1  7  1  0
  2  3  1  0
  4  6  1  0
  5 55  1  0
  5  4  1  0
  5  2  1  0
  6  1  1  0
  6  3  1  0
  7  8  1  0
  7  9  1  0
 10 13  1  0
 11 10  2  0
 12 13  2  0
 13  1  1  0
 14 11  1  0
 14 15  2  0
 15 12  1  0
 16 15  1  0
 17 25  1  0
 18 23  1  0
 19 20  1  0
 19 18  1  0
 21 20  1  0
 21 30  1  0
 21 22  1  0
 23 17  1  0
 23 22  1  0
 24 17  2  0
 25 14  1  0
 25 26  1  0
 27 28  2  0
 28 47  1  0
 29 28  1  0
 29 32  1  0
 30 31  1  0
 30 27  1  0
 31 29  2  0
 32 33  1  0
 33 34  2  0
 35 38  1  0
 35 34  1  0
 36 35  2  0
 37 36  1  0
 37 32  2  0
 38 39  1  0
 39 40  1  0
 40 41  2  0
 42 41  1  0
 42 46  1  0
 43 42  2  0
 44 39  2  0
 44 43  1  0
 45 44  1  0
 47 48  1  0
 48 51  1  0
 48 50  1  0
 49 47  2  0
 52 27  1  0
 52 53  1  0
 54 52  1  0
 55 56  1  0
 57 68  2  0
 58 56  1  0
 58 63  1  0
 59 67  1  0
 59 69  1  0
 60 66  1  0
 60 62  1  0
 61 67  1  0
 62 61  1  0
 63 62  2  0
 64 65  1  0
 64 58  2  0
 65 60  2  0
 66 59  1  0
 67 57  1  0
 69 71  2  0
 70 69  1  0
 72 70  1  0
 73 82  2  0
 73 78  1  0
 74 70  1  0
 74 78  1  0
 75 74  1  0
 76 77  1  0
 76 75  1  0
 77 73  1  0
 78 79  2  0
 79 80  1  0
 81 80  2  0
 82 81  1  0
 83 57  1  0
 83 84  1  0
 83 93  1  0
 84 87  1  0
 85 89  1  0
 85 84  1  0
 86 85  2  0
 89 88  1  0
 91 89  1  0
 91 92  1  0
 91 90  1  0
 93 96  1  1
 93 94  1  0
 95 93  1  0
M  ISO  4  17 100  25 100  55 101  56 101
M  END
>  <TORSDO>  (46) 
F 18

>  <SCORE>  (46) 
-14.290

>  <name>  (46) 
45

>  <ligand_id>  (46) 
45

>  <original_smiles>  (46) 
[H]c1c([H])c([H])c2c(c1[H])C([H])([H])C([H])([H])C([H])([H])C2([H])N([H])C(=O)C1([H])N(C(=O)C([H])(N([H])C(=O)C([H])(N([H])C([H])([H])[H])C([H])([H])[H])C(C([H])([H])[H])(C([H])([H])[H])C([H])([H])[H])C([H])([H])c2c([H])c(OC([H])([H])C3([H])C([H])([H])N(C(c4c([H])c([H])c(N([H])C(=O)N5C([H])([H])C([H])([H])C([H])([H])C([H])(n6nc(-c7c([H])c([H])c(Oc8c([H])c([H])c(F)c([H])c8F)c([H])c7[H])c(C(=O)N([H])[H])c6N([H])[H])C5([H])[H])c(F)c4[H])=[N+]([H])[H])C([H])([H])C3([H])[H])c([H])c([H])c2C1([H])[H]

>  <smiles>  (46) 
[H]c1c([H])c([H])c2c(c1[H])C([H])([H])C([H])([H])C([H])([H])C2([H])N([H])C(=O)C1([H])N(C(=O)C([H])(N([H])C(=O)C([H])(N([H])C([H])([H])[H])C([H])([H])[H])C(C([H])([H])[H])(C([H])([H])[H])C([H])([H])[H])C([H])([H])c2c([H])c(OC([H])([H])C3([H])C([H])([H])N(C(c4c([H])c([H])c(N([H])C(=O)N5C([H])([H])C([H])([H])C([H])([H])C([H])(n6nc(-c7c([H])c([H])c(Oc8c([H])c([H])c(F)c([H])c8F)c([H])c7[H])c(C(=O)N([H])[H])c6N([H])[H])C5([H])[H])c(F)c4[H])=[N+]([H])[H])C([H])([H])C3([H])[H])c([H])c([H])c2C1([H])[H]

$$$$
46:0:0
     RDKit          3D

 95103  0  0  1  0  0  0  0  0999 V2000
  -29.5180  -19.6220   20.9720 C   0  0  0  0  0  3  0  0  0  0  0  0
  -31.4980  -19.8080   19.6470 C   0  0  0  0  0  3  0  0  0  0  0  0
  -29.5250  -18.2050   20.7820 C   0  0  0  0  0  0  0  0  0  0  0  0
  -30.4820  -17.5400   19.9420 C   0  0  0  0  0  0  0  0  0  0  0  0
  -30.4800  -20.4720   20.3750 C   0  0  0  0  0  0  0  0  0  0  0  0
  -31.4960  -18.3990   19.4280 C   0  0  0  0  0  0  0  0  0  0  0  0
  -28.4180  -17.4190   21.4660 C   0  0  0  0  0  1  0  0  0  0  0  0
  -32.4230  -17.8840   18.5840 F   0  0  0  0  0  0  0  0  0  0  0  0
  -29.5270  -22.7180   20.4100 C   0  0  0  0  0  3  0  0  0  0  0  0
  -30.5290  -21.8940   20.5380 N   0  0  0  0  0  0  0  0  0  0  0  0
  -29.5530  -24.2740   20.5880 C   0  0  0  0  0  0  0  0  0  0  0  0
  -30.5700  -24.8500   21.0000 O   0  0  0  0  0  0  0  0  0  0  0  0
  -28.2880  -25.1310   20.2280 C   0  0  0  0  0  2  0  0  0  0  0  0
  -28.4410  -26.5920   20.3900 O   0  0  0  0  0  0  0  0  0  0  0  0
  -24.4850  -31.8700   23.2630 C   0  0  0  0  0  0  0  0  0  0  0  0
  -27.2830  -27.3760   20.3080 C   0  0  0  0  0  0  0  0  0  0  0  0
  -23.3510  -30.4320   21.6040 C   0  0  0  0  0  3  0  0  0  0  0  0
  -24.8710  -28.9060   20.2280 C   0  0  0  0  0  0  0  0  0  0  0  0
  -25.8830  -30.8170   21.4750 C   0  0  0  0  0  2  0  0  0  0  0  0
  -26.0110  -29.4370   20.8440 C   0  0  0  0  0  0  0  0  0  0  0  0
  -27.2200  -28.6840   20.8710 C   0  0  0  0  0  3  0  0  0  0  0  0
  -26.1160  -26.8860   19.6750 C   0  0  0  0  0  3  0  0  0  0  0  0
  -24.9240  -27.6340   19.6350 C   0  0  0  0  0  3  0  0  0  0  0  0
  -23.6120  -29.7490   20.2370 C   0  0  0  0  0  2  0  0  0  0  0  0
  -24.5900  -31.0570   22.1720 N   0  0  0  0  0  0  0  0  0  0  0  0
  -23.3840  -32.1290   23.7700 O   0  0  0  0  0  0  0  0  0  0  0  0
  -22.6900  -29.4090   22.5570 C   0  0  0  0  0  0  0  0  0  0  0  0
  -21.3760  -29.1850   22.3820 N   0  0  0  0  0  0  0  0  0  0  0  0
  -23.3580  -28.8190   23.4110 O   0  0  0  0  0  0  0  0  0  0  0  0
  -20.8970  -29.7140   21.6670 H   0  0  0  0  0  0  0  0  0  0  0  0
  -18.0220  -27.8930   22.7750 C   0  0  0  0  0  0  0  0  0  0  0  0
  -20.5580  -28.2350   23.1380 C   0  0  0  0  0  3  0  0  0  0  0  0
  -20.7250  -26.7990   22.5900 C   0  0  0  0  0  2  0  0  0  0  0  0
  -19.6730  -26.4270   21.5410 C   0  0  0  0  0  2  0  0  0  0  0  0
  -18.2640  -26.5400   22.1300 C   0  0  0  0  0  2  0  0  0  0  0  0
  -19.0990  -28.6950   23.2340 C   0  0  0  0  0  0  0  0  0  0  0  0
  -18.8190  -29.9610   23.7960 C   0  0  0  0  0  3  0  0  0  0  0  0
  -17.4940  -30.4230   23.9040 C   0  0  0  0  0  3  0  0  0  0  0  0
  -16.4300  -29.6180   23.4620 C   0  0  0  0  0  3  0  0  0  0  0  0
  -16.6940  -28.3550   22.9030 C   0  0  0  0  0  3  0  0  0  0  0  0
  -25.7400  -32.5340   23.9100 C   0  0  0  0  0  3  0  0  0  0  0  0
  -25.3980  -33.9300   24.2100 N   0  0  0  0  0  0  0  0  0  0  0  0
  -25.7180  -34.9750   23.4340 C   0  0  0  0  0  0  0  0  0  0  0  0
  -26.4000  -34.8660   22.4120 O   0  0  0  0  0  0  0  0  0  0  0  0
  -24.7920  -34.0880   25.0020 H   0  0  0  0  0  0  0  0  0  0  0  0
  -23.9470  -36.7180   23.0390 C   0  0  0  0  0  1  0  0  0  0  0  0
  -25.1970  -36.3610   23.8600 C   0  0  0  0  0  3  0  0  0  0  0  0
  -27.3060  -37.3190   24.6770 C   0  0  0  0  0  1  0  0  0  0  0  0
  -26.2050  -37.4360   23.7250 N   0  0  0  0  0  0  0  0  0  0  0  0
  -25.7760  -38.3490   23.8460 H   0  0  0  0  0  0  0  0  0  0  0  0
  -26.2320  -31.7890   25.2130 C   0  0  1  0  0  0  0  0  0  0  0  0
  -25.1100  -31.5310   26.2440 C   0  0  0  0  0  1  0  0  0  0  0  0
  -26.8680  -30.4250   24.8550 C   0  0  0  0  0  1  0  0  0  0  0  0
  -27.3360  -32.6220   25.9060 C   0  0  0  0  0  1  0  0  0  0  0  0
  -30.2250  -16.1180   19.3590 C   0  0  0  0  0  3  0  0  0  0  0  0
  -31.1750  -14.8780   19.6840 C   0  0  0  0  0  0  0  0  0  0  0  0
  -30.9360  -12.5240   18.9560 C   0  0  0  0  0  2  0  0  0  0  0  0
  -29.9540  -12.5340   17.7560 C   0  0  0  0  0  2  0  0  0  0  0  0
  -28.4840  -12.4500   18.2280 C   0  0  0  0  0  2  0  0  0  0  0  0
  -28.1620  -13.4280   19.3870 C   0  0  0  0  0  3  0  0  0  0  0  0
  -29.2660  -13.3950   20.4730 C   0  0  0  0  0  2  0  0  0  0  0  0
  -30.5760  -13.6490   19.8440 N   0  0  0  0  0  0  0  0  0  0  0  0
  -32.3760  -14.9620   19.4200 O   0  0  0  0  0  0  0  0  0  0  0  0
  -25.8600  -14.1590   20.2610 C   0  0  0  0  0  0  0  0  0  0  0  0
  -24.7680  -13.4430   20.6670 C   0  0  0  0  0  0  0  0  0  0  0  0
  -25.1460  -12.0680   20.5770 C   0  0  0  0  0  0  0  0  0  0  0  0
  -26.8320  -13.2210   19.9450 N   0  0  0  0  0  0  0  0  0  0  0  0
  -26.4130  -11.9580   20.2010 N   0  0  0  0  0  0  0  0  0  0  0  0
  -24.3570  -10.8470   20.7690 C   0  0  0  0  0  0  0  0  0  0  0  0
  -24.7280   -9.8720   21.7210 C   0  0  0  0  0  3  0  0  0  0  0  0
  -23.9410   -8.7140   21.9000 C   0  0  0  0  0  3  0  0  0  0  0  0
  -22.7720   -8.5230   21.1260 C   0  0  0  0  0  0  0  0  0  0  0  0
  -22.4230   -9.4860   20.1620 C   0  0  0  0  0  3  0  0  0  0  0  0
  -23.2090  -10.6360   19.9810 C   0  0  0  0  0  3  0  0  0  0  0  0
  -21.9620   -7.4180   21.2130 O   0  0  0  0  0  0  0  0  0  0  0  0
  -21.7770   -6.7560   22.4000 C   0  0  0  0  0  0  0  0  0  0  0  0
  -21.2460   -7.4010   23.5380 C   0  0  0  0  0  3  0  0  0  0  0  0
  -21.0070   -6.6660   24.7170 C   0  0  0  0  0  3  0  0  0  0  0  0
  -21.2890   -5.2870   24.7560 C   0  0  0  0  0  0  0  0  0  0  0  0
  -21.8130   -4.6420   23.6230 C   0  0  0  0  0  3  0  0  0  0  0  0
  -22.0540   -5.3740   22.4470 C   0  0  0  0  0  0  0  0  0  0  0  0
  -22.5390   -4.7450   21.3500 F   0  0  0  0  0  0  0  0  0  0  0  0
  -21.0510   -4.5780   25.8840 F   0  0  0  0  0  0  0  0  0  0  0  0
  -23.4170  -13.9950   21.0190 C   0  0  0  0  0  0  0  0  0  0  0  0
  -22.6980  -13.3270   21.9130 N   0  0  0  0  0  0  0  0  0  0  0  0
  -23.0130  -15.0520   20.5370 O   0  0  0  0  0  0  0  0  0  0  0  0
  -23.0410  -12.4700   22.3240 H   0  0  0  0  0  0  0  0  0  0  0  0
  -21.7930  -13.6770   22.1930 H   0  0  0  0  0  0  0  0  0  0  0  0
  -26.0910  -15.5240   20.1080 N   0  0  0  0  0  0  0  0  0  0  0  0
  -25.3490  -16.1960   20.2730 H   0  0  0  0  0  0  0  0  0  0  0  0
  -26.9040  -15.9430   19.6850 H   0  0  0  0  0  0  0  0  0  0  0  0
  -30.2280  -16.2940   17.8950 N   0  0  0  0  0  4  0  0  0  0  0  0
  -31.1330  -16.6690   17.6480 H   0  0  0  0  0  0  0  0  0  0  0  0
  -29.5190  -16.9450   17.6050 H   0  0  0  0  0  0  0  0  0  0  0  0
  -30.1100  -15.4230   17.4110 H   0  0  0  0  0  0  0  0  0  0  0  0
  2  5  1  0
  3  1  1  0
  3  7  1  0
  4  3  2  0
  5 10  1  0
  5  1  2  0
  6  2  2  0
  6  4  1  0
  8  6  1  0
  9 10  2  0
  9 11  1  0
 11 12  2  0
 13 14  1  0
 13 11  1  0
 15 26  2  0
 16 14  1  0
 16 21  1  0
 17 25  1  0
 17 27  1  0
 18 24  1  0
 18 20  1  0
 19 25  1  0
 20 21  2  0
 20 19  1  0
 22 16  2  0
 23 22  1  0
 23 18  2  0
 24 17  1  0
 25 15  1  0
 27 29  2  0
 28 27  1  0
 30 28  1  0
 31 40  2  0
 31 36  1  0
 32 28  1  0
 32 36  1  0
 33 32  1  0
 34 35  1  0
 34 33  1  0
 35 31  1  0
 36 37  2  0
 37 38  1  0
 39 38  2  0
 40 39  1  0
 41 15  1  0
 41 42  1  0
 41 51  1  0
 42 45  1  0
 43 47  1  0
 43 42  1  0
 44 43  2  0
 47 46  1  0
 49 50  1  0
 49 47  1  0
 49 48  1  0
 51 54  1  1
 51 52  1  0
 53 51  1  0
 55 56  1  0
 55  4  1  0
 56 62  1  0
 57 62  1  0
 58 59  1  0
 58 57  1  0
 60 59  1  0
 60 67  1  0
 60 61  1  0
 62 61  1  0
 63 56  2  0
 64 65  2  0
 65 84  1  0
 66 65  1  0
 66 69  1  0
 67 68  1  0
 67 64  1  0
 68 66  2  0
 69 70  1  0
 70 71  2  0
 72 75  1  0
 72 71  1  0
 73 72  2  0
 74 73  1  0
 74 69  2  0
 75 76  1  0
 76 81  2  0
 76 77  1  0
 77 78  2  0
 78 79  1  0
 79 83  1  0
 80 79  2  0
 81 80  1  0
 82 81  1  0
 84 85  1  0
 85 88  1  0
 85 87  1  0
 86 84  2  0
 89 64  1  0
 89 90  1  0
 91 89  1  0
 92 55  1  0
 93 92  1  0
 94 92  1  0
 95 92  1  0
M  ISO  4  13 101  14 101  55 100  56 100
M  END
>  <TORSDO>  (47) 
F 21

>  <SCORE>  (47) 
-11.691

>  <name>  (47) 
46

>  <ligand_id>  (47) 
46

>  <original_smiles>  (47) 
[H]C(=Nc1c([H])c(F)c(C([H])(C(=O)N2C([H])([H])C([H])([H])C([H])([H])C([H])(n3nc(-c4c([H])c([H])c(Oc5c([H])c([H])c(F)c([H])c5F)c([H])c4[H])c(C(=O)N([H])[H])c3N([H])[H])C2([H])[H])[N+]([H])([H])[H])c(C([H])([H])[H])c1[H])C(=O)C([H])([H])Oc1c([H])c([H])c2c(c1[H])C([H])([H])N(C(=O)C([H])(N([H])C(=O)C([H])(N([H])C([H])([H])[H])C([H])([H])[H])C(C([H])([H])[H])(C([H])([H])[H])C([H])([H])[H])C([H])(C(=O)N([H])C1([H])c3c([H])c([H])c([H])c([H])c3C([H])([H])C([H])([H])C1([H])[H])C2([H])[H]

>  <smiles>  (47) 
[H]C(=Nc1c([H])c(F)c(C([H])(C(=O)N2C([H])([H])C([H])([H])C([H])([H])C([H])(n3nc(-c4c([H])c([H])c(Oc5c([H])c([H])c(F)c([H])c5F)c([H])c4[H])c(C(=O)N([H])[H])c3N([H])[H])C2([H])[H])[N+]([H])([H])[H])c(C([H])([H])[H])c1[H])C(=O)C([H])([H])Oc1c([H])c([H])c2c(c1[H])C([H])([H])N(C(=O)C([H])(N([H])C(=O)C([H])(N([H])C([H])([H])[H])C([H])([H])[H])C(C([H])([H])[H])(C([H])([H])[H])C([H])([H])[H])C([H])(C(=O)N([H])C1([H])c3c([H])c([H])c([H])c([H])c3C([H])([H])C([H])([H])C1([H])[H])C2([H])[H]

$$$$
47:0:0
     RDKit          3D

 91 99  0  0  1  0  0  0  0  0999 V2000
  -29.7070  -18.4130   22.3130 C   0  0  0  0  0  3  0  0  0  0  0  0
  -29.6670  -19.7040   21.7410 C   0  0  0  0  0  3  0  0  0  0  0  0
  -29.9050  -17.2530   21.5340 C   0  0  0  0  0  3  0  0  0  0  0  0
  -29.8580  -19.9030   20.3550 C   0  0  0  0  0  0  0  0  0  0  0  0
  -30.1250  -17.3260   20.1430 C   0  0  0  0  0  0  0  0  0  0  0  0
  -30.1480  -18.6910   19.5900 C   0  0  0  0  0  0  0  0  0  0  0  0
  -30.9780  -14.8840   19.7910 C   0  0  0  0  0  0  0  0  0  0  0  0
  -30.7010  -12.5690   18.8960 C   0  0  0  0  0  2  0  0  0  0  0  0
  -29.6670  -12.5370   17.7490 C   0  0  0  0  0  2  0  0  0  0  0  0
  -28.2260  -12.4430   18.2920 C   0  0  0  0  0  2  0  0  0  0  0  0
  -27.9480  -13.3820   19.4960 C   0  0  0  0  0  3  0  0  0  0  0  0
  -29.0930  -13.3360   20.5280 C   0  0  0  0  0  2  0  0  0  0  0  0
  -30.3220  -13.6720   19.8070 N   0  0  0  0  0  0  0  0  0  0  0  0
  -32.1990  -14.8990   19.6110 O   0  0  0  0  0  0  0  0  0  0  0  0
  -30.0100  -16.0460   17.9430 C   0  0  0  0  0  1  0  0  0  0  0  0
  -30.2570  -16.0240   19.4030 N   0  0  0  0  0  0  0  0  0  0  0  0
  -25.6540  -14.0350   20.4300 C   0  0  0  0  0  0  0  0  0  0  0  0
  -24.5850  -13.2820   20.8470 C   0  0  0  0  0  0  0  0  0  0  0  0
  -24.9940  -11.9190   20.7400 C   0  0  0  0  0  0  0  0  0  0  0  0
  -26.6430  -13.1250   20.0940 N   0  0  0  0  0  0  0  0  0  0  0  0
  -26.2590  -11.8490   20.3490 N   0  0  0  0  0  0  0  0  0  0  0  0
  -24.2330  -10.6760   20.9280 C   0  0  0  0  0  0  0  0  0  0  0  0
  -24.6510   -9.6910   21.8490 C   0  0  0  0  0  3  0  0  0  0  0  0
  -23.8930   -8.5150   22.0310 C   0  0  0  0  0  3  0  0  0  0  0  0
  -22.7050   -8.3150   21.2890 C   0  0  0  0  0  0  0  0  0  0  0  0
  -22.3040   -9.2890   20.3590 C   0  0  0  0  0  3  0  0  0  0  0  0
  -23.0630  -10.4570   20.1750 C   0  0  0  0  0  3  0  0  0  0  0  0
  -21.9190   -7.1920   21.3840 O   0  0  0  0  0  0  0  0  0  0  0  0
  -21.7960   -6.4960   22.5590 C   0  0  0  0  0  0  0  0  0  0  0  0
  -21.2820   -7.0950   23.7300 C   0  0  0  0  0  3  0  0  0  0  0  0
  -21.1070   -6.3230   24.8970 C   0  0  0  0  0  3  0  0  0  0  0  0
  -21.4370   -4.9550   24.8940 C   0  0  0  0  0  0  0  0  0  0  0  0
  -21.9410   -4.3540   23.7280 C   0  0  0  0  0  3  0  0  0  0  0  0
  -22.1170   -5.1230   22.5630 C   0  0  0  0  0  0  0  0  0  0  0  0
  -22.5840   -4.5350   21.4330 F   0  0  0  0  0  0  0  0  0  0  0  0
  -21.2600   -4.2110   26.0100 F   0  0  0  0  0  0  0  0  0  0  0  0
  -23.2300  -13.7990   21.2270 C   0  0  0  0  0  0  0  0  0  0  0  0
  -22.5430  -13.0990   22.1250 N   0  0  0  0  0  0  0  0  0  0  0  0
  -22.7920  -14.8530   20.7700 O   0  0  0  0  0  0  0  0  0  0  0  0
  -22.9100  -12.2380   22.5020 H   0  0  0  0  0  0  0  0  0  0  0  0
  -21.6360  -13.4210   22.4270 H   0  0  0  0  0  0  0  0  0  0  0  0
  -25.8540  -15.4030   20.2810 N   0  0  0  0  0  0  0  0  0  0  0  0
  -25.1120  -16.0760   20.4360 H   0  0  0  0  0  0  0  0  0  0  0  0
  -26.7140  -15.8270   19.9490 H   0  0  0  0  0  0  0  0  0  0  0  0
  -29.2110  -22.3100   20.1760 C   0  0  0  0  0  3  0  0  0  0  0  0
  -29.9330  -21.2620   19.8150 N   0  0  0  0  0  0  0  0  0  0  0  0
  -29.4710  -23.8550   19.8120 C   0  0  0  0  0  3  0  0  0  0  0  0
  -28.2590  -24.9200   19.8190 C   0  0  0  0  0  3  0  0  0  0  0  0
  -28.4900  -26.4130   19.7630 O   0  0  0  0  0  0  0  0  0  0  0  0
  -24.6760  -31.6150   23.1010 C   0  0  0  0  0  0  0  0  0  0  0  0
  -27.3700  -27.2790   19.7700 C   0  0  0  0  0  0  0  0  0  0  0  0
  -23.4940  -30.2830   21.3930 C   0  0  0  0  0  3  0  0  0  0  0  0
  -24.9730  -28.8620   19.8610 C   0  0  0  0  0  0  0  0  0  0  0  0
  -26.0220  -30.6800   21.1960 C   0  0  0  0  0  2  0  0  0  0  0  0
  -26.1370  -29.3360   20.4780 C   0  0  0  0  0  0  0  0  0  0  0  0
  -27.3390  -28.5590   20.4230 C   0  0  0  0  0  3  0  0  0  0  0  0
  -26.1780  -26.8770   19.1260 C   0  0  0  0  0  3  0  0  0  0  0  0
  -25.0000  -27.6420   19.1760 C   0  0  0  0  0  3  0  0  0  0  0  0
  -23.7070  -29.6890   19.9750 C   0  0  0  0  0  2  0  0  0  0  0  0
  -24.7520  -30.8750   21.9550 N   0  0  0  0  0  0  0  0  0  0  0  0
  -23.5920  -31.8260   23.6640 O   0  0  0  0  0  0  0  0  0  0  0  0
  -22.8710  -29.1940   22.3000 C   0  0  0  0  0  0  0  0  0  0  0  0
  -21.5520  -28.9750   22.1650 N   0  0  0  0  0  0  0  0  0  0  0  0
  -23.5750  -28.5490   23.0830 O   0  0  0  0  0  0  0  0  0  0  0  0
  -21.0460  -29.5510   21.5050 H   0  0  0  0  0  0  0  0  0  0  0  0
  -18.2140  -27.6510   22.6020 C   0  0  0  0  0  0  0  0  0  0  0  0
  -20.7660  -27.9650   22.8770 C   0  0  0  0  0  3  0  0  0  0  0  0
  -20.9070  -26.5790   22.2050 C   0  0  0  0  0  2  0  0  0  0  0  0
  -19.8070  -26.2940   21.1800 C   0  0  0  0  0  2  0  0  0  0  0  0
  -18.4250  -26.3550   21.8360 C   0  0  0  0  0  2  0  0  0  0  0  0
  -19.3140  -28.4150   23.0750 C   0  0  0  0  0  0  0  0  0  0  0  0
  -19.0630  -29.6300   23.7480 C   0  0  0  0  0  3  0  0  0  0  0  0
  -17.7450  -30.0810   23.9570 C   0  0  0  0  0  3  0  0  0  0  0  0
  -16.6610  -29.3100   23.5050 C   0  0  0  0  0  3  0  0  0  0  0  0
  -16.8950  -28.1000   22.8280 C   0  0  0  0  0  3  0  0  0  0  0  0
  -25.9440  -32.2420   23.7490 C   0  0  0  0  0  3  0  0  0  0  0  0
  -26.4290  -31.4590   25.0300 C   0  0  1  0  0  0  0  0  0  0  0  0
  -25.3070  -31.2150   26.0690 C   0  0  0  0  0  1  0  0  0  0  0  0
  -27.0110  -30.0850   24.6290 C   0  0  0  0  0  1  0  0  0  0  0  0
  -27.5700  -32.2390   25.7200 C   0  0  0  0  0  1  0  0  0  0  0  0
  -25.6300  -33.6370   24.0910 N   0  0  0  0  0  0  0  0  0  0  0  0
  -25.9610  -34.6980   23.3440 C   0  0  0  0  0  0  0  0  0  0  0  0
  -26.6340  -34.6050   22.3140 O   0  0  0  0  0  0  0  0  0  0  0  0
  -25.0300  -33.7750   24.8910 H   0  0  0  0  0  0  0  0  0  0  0  0
  -24.2110  -36.4740   23.0250 C   0  0  0  0  0  1  0  0  0  0  0  0
  -25.4710  -36.0830   23.8110 C   0  0  0  0  0  3  0  0  0  0  0  0
  -27.6000  -36.9970   24.6180 C   0  0  0  0  0  1  0  0  0  0  0  0
  -26.4910  -37.1450   23.6800 N   0  0  0  0  0  0  0  0  0  0  0  0
  -26.0810  -38.0620   23.8250 H   0  0  0  0  0  0  0  0  0  0  0  0
  -32.0090  -18.8570   18.2230 C   0  0  0  0  0  1  0  0  0  0  0  0
  -30.5900  -18.9050   18.3140 O   0  0  0  0  0  0  0  0  0  0  0  0
  2  1  1  0
  3  1  2  0
  4  2  2  0
  5  3  1  0
  6  5  2  0
  6  4  1  0
  7 13  1  0
  8 13  1  0
  9 10  1  0
  9  8  1  0
 11 10  1  0
 11 20  1  0
 11 12  1  0
 13 12  1  0
 14  7  2  0
 15 16  1  0
 16  7  1  0
 16  5  1  0
 17 18  2  0
 18 37  1  0
 19 18  1  0
 19 22  1  0
 20 21  1  0
 20 17  1  0
 21 19  2  0
 22 23  1  0
 23 24  2  0
 25 28  1  0
 25 24  1  0
 26 25  2  0
 27 26  1  0
 27 22  2  0
 28 29  1  0
 29 34  2  0
 29 30  1  0
 30 31  2  0
 32 31  1  0
 32 36  1  0
 33 32  2  0
 34 33  1  0
 35 34  1  0
 37 38  1  0
 38 41  1  0
 38 40  1  0
 39 37  2  0
 42 17  1  0
 42 43  1  0
 44 42  1  0
 46 45  2  0
 46  4  1  0
 47 48  2  0
 47 45  1  0
 49 51  1  0
 49 48  1  0
 50 61  2  0
 51 56  1  0
 52 60  1  0
 52 62  1  0
 53 59  1  0
 53 55  1  0
 54 60  1  0
 55 54  1  0
 56 55  2  0
 57 58  1  0
 57 51  2  0
 58 53  2  0
 59 52  1  0
 60 50  1  0
 62 64  2  0
 63 62  1  0
 65 63  1  0
 66 75  2  0
 66 71  1  0
 67 63  1  0
 67 71  1  0
 68 67  1  0
 69 70  1  0
 69 68  1  0
 70 66  1  0
 71 72  2  0
 72 73  1  0
 74 73  2  0
 75 74  1  0
 76 50  1  0
 76 81  1  0
 76 77  1  0
 77 80  1  1
 77 78  1  0
 79 77  1  0
 81 84  1  0
 82 86  1  0
 82 81  1  0
 83 82  2  0
 86 85  1  0
 88 86  1  0
 88 89  1  0
 88 87  1  0
 90 91  1  0
 91  6  1  0
M  ISO  4   7 100  16 100  48 101  49 101
M  END
>  <TORSDO>  (48) 
F 20

>  <SCORE>  (48) 
-10.720

>  <name>  (48) 
47

>  <ligand_id>  (48) 
47

>  <original_smiles>  (48) 
[H]C(=Nc1c([H])c([H])c([H])c(N(C(=O)N2C([H])([H])C([H])([H])C([H])([H])C([H])(n3nc(-c4c([H])c([H])c(Oc5c([H])c([H])c(F)c([H])c5F)c([H])c4[H])c(C(=O)N([H])[H])c3N([H])[H])C2([H])[H])C([H])([H])[H])c1OC([H])([H])[H])C([H])([H])C([H])([H])Oc1c([H])c([H])c2c(c1[H])C([H])([H])N(C(=O)C([H])(N([H])C(=O)C([H])(N([H])C([H])([H])[H])C([H])([H])[H])C(C([H])([H])[H])(C([H])([H])[H])C([H])([H])[H])C([H])(C(=O)N([H])C1([H])c3c([H])c([H])c([H])c([H])c3C([H])([H])C([H])([H])C1([H])[H])C2([H])[H]

>  <smiles>  (48) 
[H]C(=Nc1c([H])c([H])c([H])c(N(C(=O)N2C([H])([H])C([H])([H])C([H])([H])C([H])(n3nc(-c4c([H])c([H])c(Oc5c([H])c([H])c(F)c([H])c5F)c([H])c4[H])c(C(=O)N([H])[H])c3N([H])[H])C2([H])[H])C([H])([H])[H])c1OC([H])([H])[H])C([H])([H])C([H])([H])Oc1c([H])c([H])c2c(c1[H])C([H])([H])N(C(=O)C([H])(N([H])C(=O)C([H])(N([H])C([H])([H])[H])C([H])([H])[H])C(C([H])([H])[H])(C([H])([H])[H])C([H])([H])[H])C([H])(C(=O)N([H])C1([H])c3c([H])c([H])c([H])c([H])c3C([H])([H])C([H])([H])C1([H])[H])C2([H])[H]

$$$$
48:0:0
     RDKit          3D

 91 99  0  0  1  0  0  0  0  0999 V2000
  -29.2330  -20.4550   20.5300 N   0  0  0  0  0  0  0  0  0  0  0  0
  -29.5780  -20.4630   21.4870 H   0  0  0  0  0  0  0  0  0  0  0  0
  -30.6440  -15.2390   20.3950 C   0  0  0  0  0  0  0  0  0  0  0  0
  -30.5210  -12.8880   19.4150 C   0  0  0  0  0  2  0  0  0  0  0  0
  -29.6170  -12.8170   18.1640 C   0  0  0  0  0  2  0  0  0  0  0  0
  -28.1560  -12.5710   18.5760 C   0  0  0  0  0  2  0  0  0  0  0  0
  -27.7130  -13.4870   19.7470 C   0  0  0  0  0  3  0  0  0  0  0  0
  -28.7490  -13.5480   20.8870 C   0  0  0  0  0  2  0  0  0  0  0  0
  -30.0130  -13.9920   20.2900 N   0  0  0  0  0  0  0  0  0  0  0  0
  -31.8510  -15.2370   20.1170 O   0  0  0  0  0  0  0  0  0  0  0  0
  -28.6790  -19.2300   18.4910 C   0  0  0  0  0  3  0  0  0  0  0  0
  -29.1780  -19.1090   19.7660 C   0  0  0  0  0  0  0  0  0  0  0  0
  -29.4690  -17.5750   19.7770 C   0  0  0  0  0  0  0  0  0  0  0  0
  -28.1960  -17.7330   16.5020 C   0  0  0  0  0  1  0  0  0  0  0  0
  -30.2850  -16.9920   22.0690 C   0  0  0  0  0  1  0  0  0  0  0  0
  -29.1130  -17.0370   18.6150 N   0  0  0  0  0  0  0  0  0  0  0  0
  -28.6510  -18.0240   17.8450 N   0  0  0  0  0  0  0  0  0  0  0  0
  -29.9950  -16.4930   20.7240 N   0  0  0  0  0  0  0  0  0  0  0  0
  -25.3160  -14.0100   20.4550 C   0  0  0  0  0  0  0  0  0  0  0  0
  -24.2620  -13.2120   20.8050 C   0  0  0  0  0  0  0  0  0  0  0  0
  -24.7540  -11.8700   20.7790 C   0  0  0  0  0  0  0  0  0  0  0  0
  -26.3790  -13.1530   20.2290 N   0  0  0  0  0  0  0  0  0  0  0  0
  -26.0500  -11.8610   20.4910 N   0  0  0  0  0  0  0  0  0  0  0  0
  -24.0470  -10.5940   20.9530 C   0  0  0  0  0  0  0  0  0  0  0  0
  -24.4720   -9.6340   21.8970 C   0  0  0  0  0  3  0  0  0  0  0  0
  -23.7610   -8.4250   22.0580 C   0  0  0  0  0  3  0  0  0  0  0  0
  -22.6110   -8.1670   21.2750 C   0  0  0  0  0  0  0  0  0  0  0  0
  -22.2050   -9.1170   20.3210 C   0  0  0  0  0  3  0  0  0  0  0  0
  -22.9170  -10.3170   20.1580 C   0  0  0  0  0  3  0  0  0  0  0  0
  -21.8730   -7.0110   21.3440 O   0  0  0  0  0  0  0  0  0  0  0  0
  -21.7980   -6.2720   22.4980 C   0  0  0  0  0  0  0  0  0  0  0  0
  -21.3130   -6.8230   23.7050 C   0  0  0  0  0  3  0  0  0  0  0  0
  -21.1890   -6.0100   24.8500 C   0  0  0  0  0  3  0  0  0  0  0  0
  -21.5380   -4.6480   24.7870 C   0  0  0  0  0  0  0  0  0  0  0  0
  -22.0170   -4.0980   23.5860 C   0  0  0  0  0  3  0  0  0  0  0  0
  -22.1430   -4.9070   22.4430 C   0  0  0  0  0  0  0  0  0  0  0  0
  -22.5840   -4.3680   21.2820 F   0  0  0  0  0  0  0  0  0  0  0  0
  -21.4140   -3.8650   25.8840 F   0  0  0  0  0  0  0  0  0  0  0  0
  -22.8520  -13.6630   21.0510 C   0  0  0  0  0  0  0  0  0  0  0  0
  -22.1200  -12.9540   21.9030 N   0  0  0  0  0  0  0  0  0  0  0  0
  -22.4080  -14.6850   20.5260 O   0  0  0  0  0  0  0  0  0  0  0  0
  -22.4900  -12.1300   22.3530 H   0  0  0  0  0  0  0  0  0  0  0  0
  -21.1730  -13.2420   22.1120 H   0  0  0  0  0  0  0  0  0  0  0  0
  -25.4570  -15.3840   20.2810 N   0  0  0  0  0  0  0  0  0  0  0  0
  -24.6690  -16.0160   20.3670 H   0  0  0  0  0  0  0  0  0  0  0  0
  -26.3010  -15.8380   19.9550 H   0  0  0  0  0  0  0  0  0  0  0  0
  -28.5660  -21.8270   20.0540 C   0  0  0  0  0  2  0  0  0  0  0  0
  -28.7960  -23.3960   20.6230 C   0  0  0  0  0  0  0  0  0  0  0  0
  -29.6760  -23.5570   21.4760 O   0  0  0  0  0  0  0  0  0  0  0  0
  -27.9140  -24.7430   20.1310 C   0  0  0  0  0  2  0  0  0  0  0  0
  -28.2190  -26.2540   20.4890 O   0  0  0  0  0  0  0  0  0  0  0  0
  -24.6550  -32.0770   23.3830 C   0  0  0  0  0  0  0  0  0  0  0  0
  -27.2030  -27.2900   20.3890 C   0  0  0  0  0  0  0  0  0  0  0  0
  -23.4540  -30.6800   21.7460 C   0  0  0  0  0  3  0  0  0  0  0  0
  -24.8990  -29.0880   20.3320 C   0  0  0  0  0  0  0  0  0  0  0  0
  -26.0150  -30.9140   21.5960 C   0  0  0  0  0  2  0  0  0  0  0  0
  -26.0810  -29.5150   20.9500 C   0  0  0  0  0  0  0  0  0  0  0  0
  -27.2330  -28.6320   20.9640 C   0  0  0  0  0  3  0  0  0  0  0  0
  -26.0010  -26.9850   19.7140 C   0  0  0  0  0  3  0  0  0  0  0  0
  -24.8750  -27.8380   19.6960 C   0  0  0  0  0  3  0  0  0  0  0  0
  -23.6800  -29.9970   20.3710 C   0  0  0  0  0  2  0  0  0  0  0  0
  -24.7290  -31.2460   22.2960 N   0  0  0  0  0  0  0  0  0  0  0  0
  -23.5680  -32.3710   23.9030 O   0  0  0  0  0  0  0  0  0  0  0  0
  -22.7630  -29.6830   22.7100 C   0  0  0  0  0  0  0  0  0  0  0  0
  -21.4380  -29.5020   22.5650 N   0  0  0  0  0  0  0  0  0  0  0  0
  -23.4240  -29.0720   23.5550 O   0  0  0  0  0  0  0  0  0  0  0  0
  -20.9590  -30.0460   21.8610 H   0  0  0  0  0  0  0  0  0  0  0  0
  -18.0610  -28.2700   23.0150 C   0  0  0  0  0  0  0  0  0  0  0  0
  -20.6100  -28.5710   23.3360 C   0  0  0  0  0  3  0  0  0  0  0  0
  -20.7420  -27.1280   22.7940 C   0  0  0  0  0  2  0  0  0  0  0  0
  -19.6680  -26.7700   21.7620 C   0  0  0  0  0  2  0  0  0  0  0  0
  -18.2700  -26.9100   22.3690 C   0  0  0  0  0  2  0  0  0  0  0  0
  -19.1590  -29.0550   23.4550 C   0  0  0  0  0  0  0  0  0  0  0  0
  -18.9080  -30.3260   24.0180 C   0  0  0  0  0  3  0  0  0  0  0  0
  -17.5940  -30.8100   24.1460 C   0  0  0  0  0  3  0  0  0  0  0  0
  -16.5100  -30.0220   23.7220 C   0  0  0  0  0  3  0  0  0  0  0  0
  -16.7430  -28.7530   23.1620 C   0  0  0  0  0  3  0  0  0  0  0  0
  -25.9330  -32.7110   24.0110 C   0  0  0  0  0  3  0  0  0  0  0  0
  -26.4230  -31.9580   25.3090 C   0  0  1  0  0  0  0  0  0  0  0  0
  -25.3060  -31.7320   26.3560 C   0  0  0  0  0  1  0  0  0  0  0  0
  -27.0160  -30.5750   24.9530 C   0  0  0  0  0  1  0  0  0  0  0  0
  -27.5580  -32.7620   25.9860 C   0  0  0  0  0  1  0  0  0  0  0  0
  -25.6320  -34.1180   24.3220 N   0  0  0  0  0  0  0  0  0  0  0  0
  -25.9450  -35.1590   23.5400 C   0  0  0  0  0  0  0  0  0  0  0  0
  -26.5870  -35.0360   22.4930 O   0  0  0  0  0  0  0  0  0  0  0  0
  -25.0610  -34.2860   25.1380 H   0  0  0  0  0  0  0  0  0  0  0  0
  -24.1930  -36.9400   23.2320 C   0  0  0  0  0  1  0  0  0  0  0  0
  -25.4760  -36.5570   23.9880 C   0  0  0  0  0  3  0  0  0  0  0  0
  -27.6420  -37.4750   24.6930 C   0  0  0  0  0  1  0  0  0  0  0  0
  -26.4970  -37.6110   23.7980 N   0  0  0  0  0  0  0  0  0  0  0  0
  -26.0930  -38.5330   23.9370 H   0  0  0  0  0  0  0  0  0  0  0  0
  1  2  1  0
  3 18  1  0
  4  9  1  0
  5  6  1  0
  5  4  1  0
  7  6  1  0
  7 22  1  0
  7  8  1  0
  9  3  1  0
  9  8  1  0
 10  3  2  0
 11 12  2  0
 12 13  1  0
 12  1  1  0
 13 18  1  0
 14 17  1  0
 16 13  2  0
 17 11  1  0
 17 16  1  0
 18 15  1  0
 19 20  2  0
 20 39  1  0
 21 20  1  0
 21 24  1  0
 22 19  1  0
 22 23  1  0
 23 21  2  0
 24 25  1  0
 25 26  2  0
 27 30  1  0
 27 26  1  0
 28 27  2  0
 29 28  1  0
 29 24  2  0
 30 31  1  0
 31 32  1  0
 32 33  2  0
 34 33  1  0
 34 38  1  0
 35 34  2  0
 36 31  2  0
 36 35  1  0
 37 36  1  0
 39 40  1  0
 40 43  1  0
 40 42  1  0
 41 39  2  0
 44 45  1  0
 44 19  1  0
 46 44  1  0
 47  1  1  0
 47 48  1  0
 48 49  2  0
 50 51  1  0
 50 48  1  0
 52 63  2  0
 53 51  1  0
 53 58  1  0
 54 62  1  0
 54 64  1  0
 55 61  1  0
 55 57  1  0
 56 62  1  0
 57 58  2  0
 57 56  1  0
 59 53  2  0
 60 59  1  0
 60 55  2  0
 61 54  1  0
 62 52  1  0
 64 66  2  0
 65 64  1  0
 67 65  1  0
 68 77  2  0
 68 73  1  0
 69 65  1  0
 69 73  1  0
 70 69  1  0
 71 72  1  0
 71 70  1  0
 72 68  1  0
 73 74  2  0
 74 75  1  0
 76 75  2  0
 77 76  1  0
 78 52  1  0
 78 83  1  0
 78 79  1  0
 79 82  1  1
 79 80  1  0
 81 79  1  0
 83 86  1  0
 84 88  1  0
 84 83  1  0
 85 84  2  0
 88 87  1  0
 90 91  1  0
 90 88  1  0
 90 89  1  0
M  ISO  4   3 100  18 100  50 101  51 101
M  END
>  <TORSDO>  (49) 
F 19

>  <SCORE>  (49) 
-12.704

>  <name>  (49) 
48

>  <ligand_id>  (49) 
48

>  <original_smiles>  (49) 
[H]c1c([H])c([H])c2c(c1[H])C([H])([H])C([H])([H])C([H])([H])C2([H])N([H])C(=O)C1([H])N(C(=O)C([H])(N([H])C(=O)C([H])(N([H])C([H])([H])[H])C([H])([H])[H])C(C([H])([H])[H])(C([H])([H])[H])C([H])([H])[H])C([H])([H])c2c([H])c(OC([H])([H])C(=O)C([H])([H])N([H])c3c(N(C(=O)N4C([H])([H])C([H])([H])C([H])([H])C([H])(n5nc(-c6c([H])c([H])c(Oc7c([H])c([H])c(F)c([H])c7F)c([H])c6[H])c(C(=O)N([H])[H])c5N([H])[H])C4([H])[H])C([H])([H])[H])nn(C([H])([H])[H])c3[H])c([H])c([H])c2C1([H])[H]

>  <smiles>  (49) 
[H]c1c([H])c([H])c2c(c1[H])C([H])([H])C([H])([H])C([H])([H])C2([H])N([H])C(=O)C1([H])N(C(=O)C([H])(N([H])C(=O)C([H])(N([H])C([H])([H])[H])C([H])([H])[H])C(C([H])([H])[H])(C([H])([H])[H])C([H])([H])[H])C([H])([H])c2c([H])c(OC([H])([H])C(=O)C([H])([H])N([H])c3c(N(C(=O)N4C([H])([H])C([H])([H])C([H])([H])C([H])(n5nc(-c6c([H])c([H])c(Oc7c([H])c([H])c(F)c([H])c7F)c([H])c6[H])c(C(=O)N([H])[H])c5N([H])[H])C4([H])[H])C([H])([H])[H])nn(C([H])([H])[H])c3[H])c([H])c([H])c2C1([H])[H]

$$$$
49:0:0
     RDKit          3D

 99108  0  0  1  0  0  0  0  0999 V2000
  -27.0130  -24.3200   20.8830 C   0  0  0  0  0  3  0  0  0  0  0  0
  -28.3070  -24.5250   20.5580 C   0  0  0  0  0  0  0  0  0  0  0  0
  -26.3350  -23.0480   20.6020 C   0  0  0  0  0  0  0  0  0  0  0  0
  -27.0580  -22.0410   19.7060 C   0  0  0  0  0  2  0  0  0  0  0  0
  -29.1990  -23.4050   19.9580 C   0  0  0  0  0  3  0  0  0  0  0  0
  -29.7450  -23.8140   18.5810 C   0  0  0  0  0  1  0  0  0  0  0  0
  -28.5080  -22.1020   19.8630 N   0  0  0  0  0  0  0  0  0  0  0  0
  -25.2230  -22.7700   21.0580 O   0  0  0  0  0  0  0  0  0  0  0  0
  -29.1510  -19.8350   19.1850 C   0  0  0  0  0  3  0  0  0  0  0  0
  -29.7200  -20.6290   21.4000 C   0  0  0  0  0  3  0  0  0  0  0  0
  -30.3490  -18.3410   20.7410 C   0  0  0  0  0  0  0  0  0  0  0  0
  -29.7400  -18.5820   19.4750 C   0  0  0  0  0  0  0  0  0  0  0  0
  -29.1490  -20.8740   20.1360 C   0  0  0  0  0  0  0  0  0  0  0  0
  -30.3280  -19.3800   21.7180 C   0  0  0  0  0  0  0  0  0  0  0  0
  -29.7390  -17.5250   18.3770 C   0  0  0  0  0  1  0  0  0  0  0  0
  -31.3110  -14.8270   20.0950 C   0  0  0  0  0  0  0  0  0  0  0  0
  -30.9170  -12.7000   18.8980 C   0  0  0  0  0  2  0  0  0  0  0  0
  -29.8810  -12.9110   17.7760 C   0  0  0  0  0  2  0  0  0  0  0  0
  -28.4470  -12.7500   18.3180 C   0  0  0  0  0  2  0  0  0  0  0  0
  -28.2020  -13.5630   19.6170 C   0  0  0  0  0  3  0  0  0  0  0  0
  -29.3420  -13.3470   20.6350 C   0  0  0  0  0  2  0  0  0  0  0  0
  -30.6040  -13.6710   19.9580 N   0  0  0  0  0  0  0  0  0  0  0  0
  -32.4470  -14.9460   19.6250 O   0  0  0  0  0  0  0  0  0  0  0  0
  -31.1410  -17.0650   20.9740 C   0  0  0  0  0  0  0  0  0  0  0  0
  -30.6140  -15.8960   20.5480 N   0  0  0  0  0  0  0  0  0  0  0  0
  -32.2540  -17.1580   21.5060 O   0  0  0  0  0  0  0  0  0  0  0  0
  -29.6120  -15.8500   20.4770 H   0  0  0  0  0  0  0  0  0  0  0  0
  -25.9100  -14.1530   20.6170 C   0  0  0  0  0  0  0  0  0  0  0  0
  -24.8530  -13.3760   21.0050 C   0  0  0  0  0  0  0  0  0  0  0  0
  -25.2600  -12.0220   20.7920 C   0  0  0  0  0  0  0  0  0  0  0  0
  -26.8950  -13.2730   20.1960 N   0  0  0  0  0  0  0  0  0  0  0  0
  -26.5140  -11.9810   20.3590 N   0  0  0  0  0  0  0  0  0  0  0  0
  -24.5070  -10.7680   20.9180 C   0  0  0  0  0  0  0  0  0  0  0  0
  -24.8750   -9.7780   21.8570 C   0  0  0  0  0  3  0  0  0  0  0  0
  -24.1260   -8.5870   21.9710 C   0  0  0  0  0  3  0  0  0  0  0  0
  -22.9960   -8.3770   21.1440 C   0  0  0  0  0  0  0  0  0  0  0  0
  -22.6510   -9.3540   20.1940 C   0  0  0  0  0  3  0  0  0  0  0  0
  -23.4000  -10.5370   20.0770 C   0  0  0  0  0  3  0  0  0  0  0  0
  -22.2250   -7.2400   21.1670 O   0  0  0  0  0  0  0  0  0  0  0  0
  -21.9490   -6.5810   22.3360 C   0  0  0  0  0  0  0  0  0  0  0  0
  -21.3410   -7.2290   23.4340 C   0  0  0  0  0  3  0  0  0  0  0  0
  -21.0140   -6.4960   24.5920 C   0  0  0  0  0  3  0  0  0  0  0  0
  -21.2850   -5.1150   24.6520 C   0  0  0  0  0  0  0  0  0  0  0  0
  -21.8860   -4.4670   23.5580 C   0  0  0  0  0  3  0  0  0  0  0  0
  -22.2150   -5.1980   22.4040 C   0  0  0  0  0  0  0  0  0  0  0  0
  -22.7750   -4.5640   21.3450 F   0  0  0  0  0  0  0  0  0  0  0  0
  -20.9640   -4.4090   25.7620 F   0  0  0  0  0  0  0  0  0  0  0  0
  -23.5050  -13.8580   21.4550 C   0  0  0  0  0  0  0  0  0  0  0  0
  -22.8600  -13.1220   22.3560 N   0  0  0  0  0  0  0  0  0  0  0  0
  -23.0370  -14.9200   21.0480 O   0  0  0  0  0  0  0  0  0  0  0  0
  -23.2560  -12.2620   22.7030 H   0  0  0  0  0  0  0  0  0  0  0  0
  -21.9600  -13.4250   22.6990 H   0  0  0  0  0  0  0  0  0  0  0  0
  -26.1060  -15.5300   20.5620 N   0  0  0  0  0  0  0  0  0  0  0  0
  -25.3630  -16.1820   20.7830 H   0  0  0  0  0  0  0  0  0  0  0  0
  -26.9110  -15.9780   20.1470 H   0  0  0  0  0  0  0  0  0  0  0  0
  -31.2660  -20.2410   23.7700 C   0  0  0  0  0  1  0  0  0  0  0  0
  -30.9070  -19.1310   22.9490 O   0  0  0  0  0  0  0  0  0  0  0  0
  -28.9790  -25.8560   20.9470 C   0  0  0  0  0  2  0  0  0  0  0  0
  -28.8300  -26.9390   20.0060 O   0  0  0  0  0  0  0  0  0  0  0  0
  -25.1080  -31.7030   23.8530 C   0  0  0  0  0  0  0  0  0  0  0  0
  -27.7060  -27.7270   20.1460 C   0  0  0  0  0  0  0  0  0  0  0  0
  -23.9280  -30.6710   21.9430 C   0  0  0  0  0  3  0  0  0  0  0  0
  -25.3840  -29.3330   20.3320 C   0  0  0  0  0  0  0  0  0  0  0  0
  -26.4740  -30.9260   21.9160 C   0  0  0  0  0  2  0  0  0  0  0  0
  -26.5340  -29.6830   21.0490 C   0  0  0  0  0  0  0  0  0  0  0  0
  -27.7010  -28.8870   20.9570 C   0  0  0  0  0  3  0  0  0  0  0  0
  -26.5460  -27.4030   19.4140 C   0  0  0  0  0  3  0  0  0  0  0  0
  -25.3850  -28.1910   19.5120 C   0  0  0  0  0  3  0  0  0  0  0  0
  -24.1770  -30.2340   20.4760 C   0  0  0  0  0  2  0  0  0  0  0  0
  -25.1860  -31.1050   22.6300 N   0  0  0  0  0  0  0  0  0  0  0  0
  -24.0150  -31.9270   24.3890 O   0  0  0  0  0  0  0  0  0  0  0  0
  -23.1900  -29.5280   22.6790 C   0  0  0  0  0  0  0  0  0  0  0  0
  -21.8690  -29.4260   22.4580 N   0  0  0  0  0  0  0  0  0  0  0  0
  -23.8050  -28.7430   23.4070 O   0  0  0  0  0  0  0  0  0  0  0  0
  -21.4340  -30.1090   21.8520 H   0  0  0  0  0  0  0  0  0  0  0  0
  -18.4320  -28.3100   22.5870 C   0  0  0  0  0  0  0  0  0  0  0  0
  -20.9800  -28.4070   23.0180 C   0  0  0  0  0  3  0  0  0  0  0  0
  -21.0630  -27.0910   22.2110 C   0  0  0  0  0  2  0  0  0  0  0  0
  -20.0080  -26.9950   21.1050 C   0  0  0  0  0  2  0  0  0  0  0  0
  -18.5990  -27.0900   21.6970 C   0  0  0  0  0  2  0  0  0  0  0  0
  -19.5520  -28.9380   23.1940 C   0  0  0  0  0  0  0  0  0  0  0  0
  -19.3490  -30.0940   23.9810 C   0  0  0  0  0  3  0  0  0  0  0  0
  -18.0540  -30.6160   24.1690 C   0  0  0  0  0  3  0  0  0  0  0  0
  -16.9480  -29.9820   23.5800 C   0  0  0  0  0  3  0  0  0  0  0  0
  -17.1370  -28.8300   22.7930 C   0  0  0  0  0  3  0  0  0  0  0  0
  -26.3900  -32.1560   24.6240 C   0  0  0  0  0  3  0  0  0  0  0  0
  -26.7960  -31.1670   25.7840 C   0  0  1  0  0  0  0  0  0  0  0  0
  -25.6370  -30.8290   26.7500 C   0  0  0  0  0  1  0  0  0  0  0  0
  -27.3320  -29.8350   25.2080 C   0  0  0  0  0  1  0  0  0  0  0  0
  -27.9480  -31.7800   26.6140 C   0  0  0  0  0  1  0  0  0  0  0  0
  -26.1390  -33.5030   25.1550 N   0  0  0  0  0  0  0  0  0  0  0  0
  -26.5840  -34.6360   24.5960 C   0  0  0  0  0  0  0  0  0  0  0  0
  -27.3280  -34.6510   23.6110 O   0  0  0  0  0  0  0  0  0  0  0  0
  -25.5020  -33.5690   25.9350 H   0  0  0  0  0  0  0  0  0  0  0  0
  -25.0000  -36.5790   24.4020 C   0  0  0  0  0  1  0  0  0  0  0  0
  -26.1380  -35.9670   25.2340 C   0  0  0  0  0  3  0  0  0  0  0  0
  -28.2380  -36.5540   26.3620 C   0  0  0  0  0  1  0  0  0  0  0  0
  -27.2340  -36.9500   25.3760 N   0  0  0  0  0  0  0  0  0  0  0  0
  -26.8700  -37.8600   25.6470 H   0  0  0  0  0  0  0  0  0  0  0  0
  2  1  2  0
  2 58  1  0
  3  1  1  0
  3  8  2  0
  4  7  1  0
  4  3  1  0
  5  6  1  0
  5  2  1  0
  7  5  1  0
  7 13  1  0
  9 12  2  0
  9 13  1  0
 10 14  1  0
 11 24  1  0
 11 14  2  0
 12 11  1  0
 13 10  2  0
 14 57  1  0
 15 12  1  0
 16 25  1  0
 17 22  1  0
 18 19  1  0
 18 17  1  0
 20 19  1  0
 20 31  1  0
 20 21  1  0
 22 16  1  0
 22 21  1  0
 23 16  2  0
 24 26  2  0
 25 24  1  0
 27 25  1  0
 28 29  2  0
 29 48  1  0
 30 33  1  0
 30 29  1  0
 31 32  1  0
 31 28  1  0
 32 30  2  0
 33 34  1  0
 34 35  2  0
 36 39  1  0
 36 35  1  0
 37 36  2  0
 38 37  1  0
 38 33  2  0
 39 40  1  0
 40 45  2  0
 40 41  1  0
 41 42  2  0
 42 43  1  0
 43 47  1  0
 44 43  2  0
 45 44  1  0
 46 45  1  0
 48 49  1  0
 49 52  1  0
 49 51  1  0
 50 48  2  0
 53 28  1  0
 53 54  1  0
 55 53  1  0
 57 56  1  0
 59 61  1  0
 59 58  1  0
 60 71  2  0
 61 66  1  0
 62 70  1  0
 62 72  1  0
 63 69  1  0
 63 65  1  0
 64 70  1  0
 65 64  1  0
 66 65  2  0
 67 68  1  0
 67 61  2  0
 68 63  2  0
 69 62  1  0
 70 60  1  0
 72 74  2  0
 73 72  1  0
 75 73  1  0
 76 85  2  0
 76 81  1  0
 77 73  1  0
 77 81  1  0
 78 77  1  0
 79 80  1  0
 79 78  1  0
 80 76  1  0
 81 82  2  0
 82 83  1  0
 84 83  2  0
 85 84  1  0
 86 60  1  0
 86 91  1  0
 86 87  1  0
 87 90  1  1
 87 88  1  0
 89 87  1  0
 91 94  1  0
 92 91  1  0
 92 96  1  0
 93 92  2  0
 96 95  1  0
 96 98  1  0
 98 99  1  0
 98 97  1  0
M  ISO  4  16 100  25 100  58 101  59 101
M  END
>  <TORSDO>  (50) 
F 19

>  <SCORE>  (50) 
-11.325

>  <name>  (50) 
49

>  <ligand_id>  (50) 
49

>  <original_smiles>  (50) 
[H]C1=C(C([H])([H])Oc2c([H])c([H])c3c(c2[H])C([H])([H])N(C(=O)C([H])(N([H])C(=O)C([H])(N([H])C([H])([H])[H])C([H])([H])[H])C(C([H])([H])[H])(C([H])([H])[H])C([H])([H])[H])C([H])(C(=O)N([H])C2([H])c4c([H])c([H])c([H])c([H])c4C([H])([H])C([H])([H])C2([H])[H])C3([H])[H])C([H])(C([H])([H])[H])N(c2c([H])c(OC([H])([H])[H])c(C(=O)N([H])C(=O)N3C([H])([H])C([H])([H])C([H])([H])C([H])(n4nc(-c5c([H])c([H])c(Oc6c([H])c([H])c(F)c([H])c6F)c([H])c5[H])c(C(=O)N([H])[H])c4N([H])[H])C3([H])[H])c(C([H])([H])[H])c2[H])C([H])([H])C1=O

>  <smiles>  (50) 
[H]C1=C(C([H])([H])Oc2c([H])c([H])c3c(c2[H])C([H])([H])N(C(=O)C([H])(N([H])C(=O)C([H])(N([H])C([H])([H])[H])C([H])([H])[H])C(C([H])([H])[H])(C([H])([H])[H])C([H])([H])[H])C([H])(C(=O)N([H])C2([H])c4c([H])c([H])c([H])c([H])c4C([H])([H])C([H])([H])C2([H])[H])C3([H])[H])C([H])(C([H])([H])[H])N(c2c([H])c(OC([H])([H])[H])c(C(=O)N([H])C(=O)N3C([H])([H])C([H])([H])C([H])([H])C([H])(n4nc(-c5c([H])c([H])c(Oc6c([H])c([H])c(F)c([H])c6F)c([H])c5[H])c(C(=O)N([H])[H])c4N([H])[H])C3([H])[H])c(C([H])([H])[H])c2[H])C([H])([H])C1=O

$$$$
50:0:0
     RDKit          3D

 95103  0  0  1  0  0  0  0  0999 V2000
  -31.2350  -18.2150   19.3790 C   0  0  0  0  0  3  0  0  0  0  0  0
  -29.6930  -19.3920   21.3730 C   0  0  0  0  0  3  0  0  0  0  0  0
  -31.1900  -17.5510   20.6630 C   0  0  0  0  0  0  0  0  0  0  0  0
  -30.4310  -18.2340   21.6750 C   0  0  0  0  0  0  0  0  0  0  0  0
  -30.5150  -19.4320   19.0900 C   0  0  0  0  0  0  0  0  0  0  0  0
  -29.6460  -19.9190   20.0840 C   0  0  0  0  0  0  0  0  0  0  0  0
  -32.0030  -16.2910   21.0280 C   0  0  0  0  0  3  0  0  0  0  0  0
  -32.4570  -16.1410   22.2040 N   0  0  0  0  0  2  0  0  0  0  0  0
  -32.1600  -16.9220   22.7710 H   0  0  0  0  0  0  0  0  0  0  0  0
  -32.3150  -15.1710   20.0060 C   0  0  0  0  0  0  0  0  0  0  0  0
  -31.9010  -12.8530   19.1990 C   0  0  0  0  0  2  0  0  0  0  0  0
  -30.9580  -12.8720   17.9780 C   0  0  0  0  0  2  0  0  0  0  0  0
  -29.4810  -12.8520   18.4310 C   0  0  0  0  0  2  0  0  0  0  0  0
  -29.1890  -13.9090   19.5250 C   0  0  0  0  0  3  0  0  0  0  0  0
  -30.2450  -13.8360   20.6490 C   0  0  0  0  0  2  0  0  0  0  0  0
  -31.5750  -14.0150   20.0440 N   0  0  0  0  0  0  0  0  0  0  0  0
  -33.3300  -15.2690   19.2990 O   0  0  0  0  0  0  0  0  0  0  0  0
  -26.9180  -14.7910   20.3430 C   0  0  0  0  0  0  0  0  0  0  0  0
  -25.7690  -14.1460   20.7250 C   0  0  0  0  0  0  0  0  0  0  0  0
  -26.0450  -12.7480   20.6170 C   0  0  0  0  0  0  0  0  0  0  0  0
  -27.8280  -13.7870   20.0410 N   0  0  0  0  0  0  0  0  0  0  0  0
  -27.3100  -12.5520   20.2650 N   0  0  0  0  0  0  0  0  0  0  0  0
  -25.1650  -11.5860   20.7910 C   0  0  0  0  0  0  0  0  0  0  0  0
  -25.4900  -10.5340   21.6750 C   0  0  0  0  0  3  0  0  0  0  0  0
  -24.6160   -9.4360   21.8380 C   0  0  0  0  0  3  0  0  0  0  0  0
  -23.4010   -9.3850   21.1160 C   0  0  0  0  0  0  0  0  0  0  0  0
  -23.0900  -10.4240   20.2230 C   0  0  0  0  0  3  0  0  0  0  0  0
  -23.9650  -11.5120   20.0580 C   0  0  0  0  0  3  0  0  0  0  0  0
  -22.5020   -8.3480   21.1900 O   0  0  0  0  0  0  0  0  0  0  0  0
  -22.3360   -7.6200   22.3390 C   0  0  0  0  0  0  0  0  0  0  0  0
  -21.9610   -8.2270   23.5570 C   0  0  0  0  0  3  0  0  0  0  0  0
  -21.7360   -7.4310   24.6980 C   0  0  0  0  0  3  0  0  0  0  0  0
  -21.8680   -6.0320   24.6200 C   0  0  0  0  0  0  0  0  0  0  0  0
  -22.2440   -5.4270   23.4070 C   0  0  0  0  0  3  0  0  0  0  0  0
  -22.4690   -6.2190   22.2680 C   0  0  0  0  0  0  0  0  0  0  0  0
  -22.8030   -5.6320   21.0940 F   0  0  0  0  0  0  0  0  0  0  0  0
  -21.6470   -5.2650   25.7130 F   0  0  0  0  0  0  0  0  0  0  0  0
  -24.4610  -14.7940   21.0770 C   0  0  0  0  0  0  0  0  0  0  0  0
  -23.6820  -14.1650   21.9540 N   0  0  0  0  0  0  0  0  0  0  0  0
  -24.1450  -15.8940   20.6240 O   0  0  0  0  0  0  0  0  0  0  0  0
  -23.9580  -13.2790   22.3490 H   0  0  0  0  0  0  0  0  0  0  0  0
  -22.8050  -14.5810   22.2340 H   0  0  0  0  0  0  0  0  0  0  0  0
  -27.2610  -16.1290   20.2110 N   0  0  0  0  0  0  0  0  0  0  0  0
  -26.6030  -16.8860   20.3590 H   0  0  0  0  0  0  0  0  0  0  0  0
  -28.1620  -16.4560   19.8820 H   0  0  0  0  0  0  0  0  0  0  0  0
  -27.3560  -20.3340   19.7550 C   0  0  0  0  0  1  0  0  0  0  0  0
  -28.6860  -20.8430   19.7810 O   0  0  0  0  0  0  0  0  0  0  0  0
  -31.1590  -18.7290   24.0600 C   0  0  0  0  0  1  0  0  0  0  0  0
  -30.3040  -17.8300   23.1430 C   0  0  0  0  0  2  0  0  0  0  0  0
  -30.5440  -20.0540   17.8360 O   0  0  0  0  0  0  0  0  0  0  0  0
  -30.6850  -21.5120   17.6710 C   0  0  0  0  0  3  0  0  0  0  0  0
  -29.5290  -22.5160   18.0950 C   0  0  0  0  0  3  0  0  0  0  0  0
  -29.7330  -24.0740   17.9130 C   0  0  0  0  0  2  0  0  0  0  0  0
  -28.7930  -24.9790   18.8060 C   0  0  0  0  0  2  0  0  0  0  0  0
  -29.0050  -26.4360   18.7330 O   0  0  0  0  0  0  0  0  0  0  0  0
  -25.5840  -30.4140   23.6310 C   0  0  0  0  0  0  0  0  0  0  0  0
  -27.9210  -27.2660   19.0320 C   0  0  0  0  0  0  0  0  0  0  0  0
  -24.3020  -29.8520   21.5930 C   0  0  0  0  0  3  0  0  0  0  0  0
  -25.6640  -28.8780   19.6610 C   0  0  0  0  0  0  0  0  0  0  0  0
  -26.8540  -30.0670   21.5040 C   0  0  0  0  0  2  0  0  0  0  0  0
  -26.8530  -29.0370   20.3870 C   0  0  0  0  0  0  0  0  0  0  0  0
  -27.9850  -28.2310   20.0720 C   0  0  0  0  0  3  0  0  0  0  0  0
  -26.7230  -27.1710   18.2900 C   0  0  0  0  0  3  0  0  0  0  0  0
  -25.5940  -27.9460   18.6180 C   0  0  0  0  0  3  0  0  0  0  0  0
  -24.4800  -29.7320   20.0550 C   0  0  0  0  0  2  0  0  0  0  0  0
  -25.6010  -30.0950   22.3060 N   0  0  0  0  0  0  0  0  0  0  0  0
  -24.5200  -30.5310   24.2560 O   0  0  0  0  0  0  0  0  0  0  0  0
  -23.5630  -28.5950   22.1070 C   0  0  0  0  0  0  0  0  0  0  0  0
  -22.2420  -28.5330   21.8790 N   0  0  0  0  0  0  0  0  0  0  0  0
  -24.1840  -27.6880   22.6680 O   0  0  0  0  0  0  0  0  0  0  0  0
  -21.8020  -29.3080   21.3990 H   0  0  0  0  0  0  0  0  0  0  0  0
  -18.8450  -27.3130   21.6880 C   0  0  0  0  0  0  0  0  0  0  0  0
  -21.3670  -27.4140   22.2350 C   0  0  0  0  0  3  0  0  0  0  0  0
  -21.5340  -26.2410   21.2350 C   0  0  0  0  0  2  0  0  0  0  0  0
  -20.5130  -26.2870   20.0840 C   0  0  0  0  0  2  0  0  0  0  0  0
  -19.0840  -26.2540   20.6240 C   0  0  0  0  0  2  0  0  0  0  0  0
  -19.9180  -27.8710   22.4290 C   0  0  0  0  0  0  0  0  0  0  0  0
  -19.6440  -28.8750   23.3840 C   0  0  0  0  0  3  0  0  0  0  0  0
  -18.3250  -29.3240   23.6000 C   0  0  0  0  0  3  0  0  0  0  0  0
  -17.2650  -28.7580   22.8690 C   0  0  0  0  0  3  0  0  0  0  0  0
  -17.5240  -27.7570   21.9190 C   0  0  0  0  0  3  0  0  0  0  0  0
  -26.9040  -30.6730   24.4230 C   0  0  0  0  0  3  0  0  0  0  0  0
  -26.6980  -31.8690   25.2530 N   0  0  0  0  0  0  0  0  0  0  0  0
  -27.1730  -33.0870   24.9670 C   0  0  0  0  0  0  0  0  0  0  0  0
  -27.9060  -33.3140   24.0000 O   0  0  0  0  0  0  0  0  0  0  0  0
  -26.0600  -31.7700   26.0300 H   0  0  0  0  0  0  0  0  0  0  0  0
  -25.6810  -35.0930   25.2500 C   0  0  0  0  0  1  0  0  0  0  0  0
  -26.7800  -34.2440   25.9060 C   0  0  0  0  0  3  0  0  0  0  0  0
  -28.8850  -34.4570   27.1550 C   0  0  0  0  0  1  0  0  0  0  0  0
  -27.9160  -35.1150   26.2820 N   0  0  0  0  0  0  0  0  0  0  0  0
  -27.5830  -35.9540   26.7520 H   0  0  0  0  0  0  0  0  0  0  0  0
  -27.3470  -29.4470   25.3110 C   0  0  1  0  0  0  0  0  0  0  0  0
  -26.2320  -28.9110   26.2370 C   0  0  0  0  0  1  0  0  0  0  0  0
  -27.8270  -28.2770   24.4210 C   0  0  0  0  0  1  0  0  0  0  0  0
  -28.5440  -29.8500   26.2050 C   0  0  0  0  0  1  0  0  0  0  0  0
  1  3  1  0
  2  4  1  0
  3  7  1  0
  3  4  2  0
  4 49  1  0
  5  1  2  0
  5  6  1  0
  6  2  2  0
  7 10  1  0
  7  8  1  0
  8  9  1  0
 10 16  1  0
 11 16  1  0
 12 13  1  0
 12 11  1  0
 14 13  1  0
 14 21  1  0
 14 15  1  0
 16 15  1  0
 17 10  2  0
 18 19  2  0
 19 38  1  0
 20 19  1  0
 20 23  1  0
 21 22  1  0
 21 18  1  0
 22 20  2  0
 23 24  1  0
 24 25  2  0
 26 29  1  0
 26 25  1  0
 27 26  2  0
 28 27  1  0
 28 23  2  0
 29 30  1  0
 30 31  1  0
 31 32  2  0
 33 32  1  0
 33 37  1  0
 34 33  2  0
 35 30  2  0
 35 34  1  0
 36 35  1  0
 38 39  1  0
 39 42  1  0
 39 41  1  0
 40 38  2  0
 43 18  1  0
 43 44  1  0
 45 43  1  0
 46 47  1  0
 47  6  1  0
 49 48  1  0
 50  5  1  0
 51 50  1  0
 51 52  2  0
 53 52  1  0
 53 54  1  0
 55 54  1  0
 55 57  1  0
 56 67  2  0
 57 62  1  0
 58 68  1  0
 58 66  1  0
 59 65  1  0
 59 61  1  0
 60 66  1  0
 61 60  1  0
 62 61  2  0
 63 64  1  0
 63 57  2  0
 64 59  2  0
 65 58  1  0
 66 56  1  0
 68 70  2  0
 69 68  1  0
 71 69  1  0
 72 81  2  0
 72 77  1  0
 73 69  1  0
 73 77  1  0
 74 73  1  0
 75 76  1  0
 75 74  1  0
 76 72  1  0
 77 78  2  0
 78 79  1  0
 80 79  2  0
 81 80  1  0
 82 56  1  0
 82 83  1  0
 82 92  1  0
 83 86  1  0
 84 83  1  0
 84 88  1  0
 85 84  2  0
 88 87  1  0
 88 90  1  0
 90 91  1  0
 90 89  1  0
 92 95  1  1
 92 93  1  0
 94 92  1  0
M  ISO  4   7 100  10 100  54 101  55 101
M  END
>  <TORSDO>  (51) 
F 24

>  <SCORE>  (51) 
-4.385

>  <name>  (51) 
50

>  <ligand_id>  (51) 
50

>  <original_smiles>  (51) 
[H]N=C(C(=O)N1C([H])([H])C([H])([H])C([H])([H])C([H])(n2nc(-c3c([H])c([H])c(Oc4c([H])c([H])c(F)c([H])c4F)c([H])c3[H])c(C(=O)N([H])[H])c2N([H])[H])C1([H])[H])c1c([H])c(OC([H])([H])C([H])([H])C([H])([H])C([H])([H])Oc2c([H])c([H])c3c(c2[H])C([H])([H])N(C(=O)C([H])(N([H])C(=O)C([H])(N([H])C([H])([H])[H])C([H])([H])[H])C(C([H])([H])[H])(C([H])([H])[H])C([H])([H])[H])C([H])(C(=O)N([H])C2([H])c4c([H])c([H])c([H])c([H])c4C([H])([H])C([H])([H])C2([H])[H])C3([H])[H])c(OC([H])([H])[H])c([H])c1C([H])([H])C([H])([H])[H]

>  <smiles>  (51) 
[H]N=C(C(=O)N1C([H])([H])C([H])([H])C([H])([H])C([H])(n2nc(-c3c([H])c([H])c(Oc4c([H])c([H])c(F)c([H])c4F)c([H])c3[H])c(C(=O)N([H])[H])c2N([H])[H])C1([H])[H])c1c([H])c(OC([H])([H])C([H])([H])C([H])([H])C([H])([H])Oc2c([H])c([H])c3c(c2[H])C([H])([H])N(C(=O)C([H])(N([H])C(=O)C([H])(N([H])C([H])([H])[H])C([H])([H])[H])C(C([H])([H])[H])(C([H])([H])[H])C([H])([H])[H])C([H])(C(=O)N([H])C2([H])c4c([H])c([H])c([H])c([H])c4C([H])([H])C([H])([H])C2([H])[H])C3([H])[H])c(OC([H])([H])[H])c([H])c1C([H])([H])C([H])([H])[H]

$$$$
51:0:0
     RDKit          3D

 95 95  0  0  1  0  0  0  0  0999 V2000
  -24.4110  -26.8460   18.6400 C   0  0  0  0  0  2  0  0  0  0  0  0
  -25.9700  -28.4450   18.1540 C   0  0  0  0  0  1  0  0  0  0  0  0
  -28.5190  -26.3250   20.3030 C   0  0  0  0  0 15  0  0  0  0  0  0
  -25.0900  -25.1690   19.8540 C   0  0  0  0  0  2  0  0  0  0  0  0
  -27.1230  -24.6150   20.4090 C   0  0  0  0  0 15  0  0  0  0  0  0
  -27.9600  -28.1020   19.0330 C   0  0  0  0  0  1  0  0  0  0  0  0
  -23.9530  -24.1160   20.0250 C   0  0  0  0  0  1  0  0  0  0  0  0
  -29.1360  -27.9750   16.8720 C   0  0  0  0  0  0  0  0  0  0  0  0
  -28.9870  -28.5500   18.1120 N   0  0  0  0  0  0  0  0  0  0  0  0
  -29.6110  -28.6070   15.9390 O   0  0  0  0  0  0  0  0  0  0  0  0
  -29.2940  -29.5190   18.1930 H   0  0  0  0  0  0  0  0  0  0  0  0
  -28.5270  -26.6190   16.5290 C   0  0  0  0  0  2  0  0  0  0  0  0
  -28.1080  -26.0140   17.7740 O   0  0  0  0  0  0  0  0  0  0  0  0
  -24.9470  -31.1390   23.0190 C   0  0  0  0  0  0  0  0  0  0  0  0
  -26.5650  -26.2570   18.2450 C   0  0  0  0  0  2  0  0  0  0  0  0
  -23.6840  -29.7900   21.2970 C   0  0  0  0  0  3  0  0  0  0  0  0
  -25.2980  -27.5370   19.9120 C   0  0  1  0  0  0  0  0  0  0  0  0
  -26.1360  -29.7120   21.1730 C   0  0  0  0  0  1  0  0  0  0  0  0
  -26.0030  -28.0730   21.0140 C   0  0  0  0  0  1  0  0  0  0  0  0
  -25.7960  -26.9140   20.1490 C   0  0  0  0  0  2  0  0  0  0  0  0
  -25.9850  -25.5340   17.2290 C   0  0  0  0  0  1  0  0  0  0  0  0
  -26.1010  -26.5980   18.0200 C   0  0  1  0  0  0  0  0  0  0  0  0
  -23.9820  -28.7780   20.0780 C   0  0  0  0  0  2  0  0  0  0  0  0
  -24.9540  -30.3180   21.8950 N   0  0  0  0  0  0  0  0  0  0  0  0
  -23.8830  -31.5190   23.5710 O   0  0  0  0  0  0  0  0  0  0  0  0
  -22.8240  -29.0150   22.2940 C   0  0  0  0  0  0  0  0  0  0  0  0
  -21.4800  -29.0860   22.1950 N   0  0  0  0  0  0  0  0  0  0  0  0
  -23.3860  -28.2480   23.0690 O   0  0  0  0  0  0  0  0  0  0  0  0
  -21.0710  -29.8000   21.5970 H   0  0  0  0  0  0  0  0  0  0  0  0
  -17.9770  -28.1450   22.6950 C   0  0  0  0  0  0  0  0  0  0  0  0
  -20.5520  -28.1190   22.8200 C   0  0  0  0  0  3  0  0  0  0  0  0
  -20.4740  -26.7990   22.0030 C   0  0  0  0  0  2  0  0  0  0  0  0
  -19.2800  -26.7310   21.0660 C   0  0  0  0  0  2  0  0  0  0  0  0
  -17.9810  -26.8820   21.8570 C   0  0  0  0  0  2  0  0  0  0  0  0
  -19.1860  -28.7390   23.1380 C   0  0  0  0  0  0  0  0  0  0  0  0
  -19.1300  -29.9240   23.8970 C   0  0  0  0  0  3  0  0  0  0  0  0
  -17.8980  -30.5200   24.2090 C   0  0  0  0  0  3  0  0  0  0  0  0
  -16.7000  -29.9150   23.7820 C   0  0  0  0  0  3  0  0  0  0  0  0
  -16.7420  -28.7250   23.0310 C   0  0  0  0  0  3  0  0  0  0  0  0
  -26.2860  -31.6120   23.6940 C   0  0  0  0  0  3  0  0  0  0  0  0
  -26.0680  -32.9810   24.2040 N   0  0  0  0  0  0  0  0  0  0  0  0
  -26.4490  -34.1360   23.6340 C   0  0  0  0  0  0  0  0  0  0  0  0
  -27.0650  -34.1580   22.5670 O   0  0  0  0  0  0  0  0  0  0  0  0
  -25.4990  -33.0290   25.0350 H   0  0  0  0  0  0  0  0  0  0  0  0
  -24.8300  -36.0770   23.7370 C   0  0  0  0  0  1  0  0  0  0  0  0
  -26.0990  -35.4630   24.3450 C   0  0  0  0  0  3  0  0  0  0  0  0
  -28.3390  -36.0970   25.1250 C   0  0  0  0  0  1  0  0  0  0  0  0
  -27.1840  -36.4590   24.3150 N   0  0  0  0  0  0  0  0  0  0  0  0
  -26.8530  -37.3590   24.6300 H   0  0  0  0  0  0  0  0  0  0  0  0
  -26.7090  -30.7210   24.9250 C   0  0  1  0  0  0  0  0  0  0  0  0
  -25.6020  -30.5840   25.9900 C   0  0  0  0  0  1  0  0  0  0  0  0
  -27.1110  -29.2930   24.5240 C   0  0  0  0  0  1  0  0  0  0  0  0
  -27.9070  -31.3670   25.6450 C   0  0  0  0  0  1  0  0  0  0  0  0
  -28.0090  -22.4770   20.3550 C   0  0  0  0  0  1  0  0  0  0  0  0
  -30.5120  -23.3620   20.0680 C   0  0  0  0  0  1  0  0  0  0  0  0
  -29.2940  -22.6200   19.4900 C   0  0  0  0  0  2  0  0  0  0  0  0
  -28.1870  -20.0190   20.4210 C   0  0  0  0  0 15  0  0  0  0  0  0
  -29.8070  -16.3940   20.1670 C   0  0  0  0  0  0  0  0  0  0  0  0
  -30.2860  -13.6060   19.3760 C   0  0  0  0  0  2  0  0  0  0  0  0
  -29.5860  -12.6960   18.2770 C   0  0  0  0  0  2  0  0  0  0  0  0
  -28.2730  -12.1030   18.7890 C   0  0  0  0  0  2  0  0  0  0  0  0
  -27.6120  -13.1660   19.6860 C   0  0  0  0  0  3  0  0  0  0  0  0
  -28.5250  -13.8630   20.7450 C   0  0  0  0  0  2  0  0  0  0  0  0
  -29.4250  -14.8450   20.0150 N   0  0  0  0  0  0  0  0  0  0  0  0
  -31.0510  -16.0820   20.0470 O   0  0  0  0  0  0  0  0  0  0  0  0
  -30.5800  -18.7560   19.9390 C   0  0  0  0  0  1  0  0  0  0  0  0
  -29.2670  -18.1540   20.1910 N   0  0  0  0  0  2  0  0  0  0  0  0
  -25.2810  -13.6560   20.4430 C   0  0  0  0  0  0  0  0  0  0  0  0
  -24.2260  -12.8860   20.8260 C   0  0  0  0  0  0  0  0  0  0  0  0
  -24.6850  -11.5320   20.7950 C   0  0  0  0  0  0  0  0  0  0  0  0
  -26.3160  -12.7800   20.2130 N   0  0  0  0  0  0  0  0  0  0  0  0
  -25.9780  -11.4840   20.4790 N   0  0  0  0  0  0  0  0  0  0  0  0
  -23.9440  -10.2850   21.0050 C   0  0  0  0  0  0  0  0  0  0  0  0
  -24.3400   -9.3450   21.9810 C   0  0  0  0  0  3  0  0  0  0  0  0
  -23.5930   -8.1660   22.1780 C   0  0  0  0  0  3  0  0  0  0  0  0
  -22.4370   -7.9150   21.3980 C   0  0  0  0  0  0  0  0  0  0  0  0
  -22.0580   -8.8520   20.4170 C   0  0  0  0  0  3  0  0  0  0  0  0
  -22.8080  -10.0220   20.2170 C   0  0  0  0  0  3  0  0  0  0  0  0
  -21.6660   -6.7800   21.5010 O   0  0  0  0  0  0  0  0  0  0  0  0
  -21.5670   -6.0840   22.6770 C   0  0  0  0  0  0  0  0  0  0  0  0
  -21.0600   -6.6740   23.8540 C   0  0  0  0  0  3  0  0  0  0  0  0
  -20.9040   -5.8960   25.0190 C   0  0  0  0  0  3  0  0  0  0  0  0
  -21.2560   -4.5330   25.0110 C   0  0  0  0  0  0  0  0  0  0  0  0
  -21.7620   -3.9450   23.8370 C   0  0  0  0  0  3  0  0  0  0  0  0
  -21.9120   -4.7180   22.6720 C   0  0  0  0  0  0  0  0  0  0  0  0
  -22.3760   -4.1340   21.5390 F   0  0  0  0  0  0  0  0  0  0  0  0
  -21.1040   -3.7860   26.1300 F   0  0  0  0  0  0  0  0  0  0  0  0
  -22.8380  -13.3840   21.0950 C   0  0  0  0  0  0  0  0  0  0  0  0
  -22.1140  -12.7170   21.9820 N   0  0  0  0  0  0  0  0  0  0  0  0
  -22.4230  -14.4170   20.5720 O   0  0  0  0  0  0  0  0  0  0  0  0
  -22.4800  -11.8880   22.4240 H   0  0  0  0  0  0  0  0  0  0  0  0
  -21.1850  -13.0400   22.2190 H   0  0  0  0  0  0  0  0  0  0  0  0
  -25.4470  -15.0270   20.2480 N   0  0  0  0  0  0  0  0  0  0  0  0
  -24.6800  -15.6720   20.3980 H   0  0  0  0  0  0  0  0  0  0  0  0
  -26.2780  -15.4660   19.8870 H   0  0  0  0  0  0  0  0  0  0  0  0
  1 17  1  0
  4  7  1  0
  4 20  1  0
  8  9  1  0
  9 11  1  0
  9  6  1  0
 10  8  2  0
 12  8  1  0
 12 13  1  0
 13 15  1  0
 14 25  2  0
 16 23  1  0
 16 24  1  0
 16 26  1  0
 17 23  1  0
 17 20  1  0
 17 19  1  6
 18 24  1  0
 22 21  1  6
 22  2  1  0
 22 15  1  0
 22  1  1  0
 24 14  1  0
 26 28  2  0
 27 26  1  0
 29 27  1  0
 30 39  2  0
 30 35  1  0
 31 27  1  0
 31 35  1  0
 32 31  1  0
 33 34  1  0
 33 32  1  0
 34 30  1  0
 35 36  2  0
 36 37  1  0
 38 37  2  0
 39 38  1  0
 40 14  1  0
 40 41  1  0
 40 50  1  0
 41 44  1  0
 42 41  1  0
 42 46  1  0
 43 42  2  0
 46 45  1  0
 48 46  1  0
 48 49  1  0
 48 47  1  0
 50 53  1  1
 50 51  1  0
 52 50  1  0
 56 55  1  0
 56 54  1  0
 58 67  1  0
 59 64  1  0
 60 61  1  0
 60 59  1  0
 62 61  1  0
 62 71  1  0
 62 63  1  0
 64 58  1  0
 64 63  1  0
 65 58  2  0
 66 67  1  0
 68 69  2  0
 69 88  1  0
 70 69  1  0
 70 73  1  0
 71 68  1  0
 71 72  1  0
 72 70  2  0
 73 74  1  0
 74 75  2  0
 76 79  1  0
 76 75  1  0
 77 76  2  0
 78 77  1  0
 78 73  2  0
 79 80  1  0
 80 81  1  0
 81 82  2  0
 83 82  1  0
 83 87  1  0
 84 83  2  0
 85 80  2  0
 85 84  1  0
 86 85  1  0
 88 89  1  0
 89 92  1  0
 89 91  1  0
 90 88  2  0
 93 94  1  0
 93 68  1  0
 95 93  1  0
M  ISO  4  12 101  13 101  58 100  67 100
M  END
>  <TORSDO>  (52) 
F 21

>  <SCORE>  (52) 
-12.158

>  <name>  (52) 
51

>  <ligand_id>  (52) 
51

>  <original_smiles>  (52) 
[H]c1c([H])c([H])c2c(c1[H])C([H])([H])C([H])([H])C([H])([H])C2([H])N([H])C(=O)C1([H])N(C(=O)C([H])(N([H])C(=O)C([H])(N([H])C([H])([H])[H])C([H])([H])[H])C(C([H])([H])[H])(C([H])([H])[H])C([H])([H])[H])C([H])([H])c2c([H])c(OC([H])([H])C(=O)N([H])c3c([H])c([H])c(C([H])([H])[H])c(C([H])(C([H])([H])N(C(=O)N4C([H])([H])C([H])([H])C([H])([H])C([H])(n5nc(-c6c([H])c([H])c(Oc7c([H])c([H])c(F)c([H])c7F)c([H])c6[H])c(C(=O)N([H])[H])c5N([H])[H])C4([H])[H])C([H])([H])[H])C([H])([H])C([H])([H])[H])c3[H])c([H])c([H])c2C1([H])[H]

>  <smiles>  (52) 
[H]c1c([H])c([H])c2c(c1[H])C([H])([H])C([H])([H])C([H])([H])C2([H])N([H])C(=O)C1([H])N(C(=O)C([H])(N([H])C(=O)C([H])(N([H])C([H])([H])[H])C([H])([H])[H])C(C([H])([H])[H])(C([H])([H])[H])C([H])([H])[H])C([H])([H])c2c([H])c(OC([H])([H])C(=O)N([H])c3c([H])c([H])c(C([H])([H])[H])c(C([H])(C([H])([H])N(C(=O)N4C([H])([H])C([H])([H])C([H])([H])C([H])(n5nc(-c6c([H])c([H])c(Oc7c([H])c([H])c(F)c([H])c7F)c([H])c6[H])c(C(=O)N([H])[H])c5N([H])[H])C4([H])[H])C([H])([H])[H])C([H])([H])C([H])([H])[H])c3[H])c([H])c([H])c2C1([H])[H]

$$$$
52:0:0
     RDKit          3D

 97106  0  0  1  0  0  0  0  0999 V2000
  -28.8110  -18.9130   19.6710 C   0  0  0  0  0  3  0  0  0  0  0  0
  -28.4510  -20.2760   19.4290 C   0  0  0  0  0  3  0  0  0  0  0  0
  -30.1700  -21.0270   20.9250 C   0  0  0  0  0  3  0  0  0  0  0  0
  -29.9050  -18.5620   20.5070 C   0  0  0  0  0  0  0  0  0  0  0  0
  -30.5310  -19.6650   21.1950 C   0  0  0  0  0  0  0  0  0  0  0  0
  -29.1750  -21.3780   19.9820 C   0  0  0  0  0  0  0  0  0  0  0  0
  -30.6560  -14.7110   20.4370 C   0  0  0  0  0  0  0  0  0  0  0  0
  -30.3360  -12.4640   19.4390 C   0  0  0  0  0  2  0  0  0  0  0  0
  -29.4280  -12.5670   18.1990 C   0  0  0  0  0  2  0  0  0  0  0  0
  -27.9530  -12.4230   18.6130 C   0  0  0  0  0  2  0  0  0  0  0  0
  -27.5770  -13.3110   19.8300 C   0  0  0  0  0  3  0  0  0  0  0  0
  -28.6260  -13.2440   20.9620 C   0  0  0  0  0  2  0  0  0  0  0  0
  -29.9320  -13.5460   20.3670 N   0  0  0  0  0  0  0  0  0  0  0  0
  -31.8580  -14.6420   20.1750 O   0  0  0  0  0  0  0  0  0  0  0  0
  -30.6140  -17.1800   20.3990 C   0  0  0  0  0  0  0  0  0  0  0  0
  -30.0160  -15.9390   20.5670 N   0  0  0  0  0  0  0  0  0  0  0  0
  -31.8090  -17.2880   20.0990 O   0  0  0  0  0  0  0  0  0  0  0  0
  -29.0290  -15.9330   20.7610 H   0  0  0  0  0  0  0  0  0  0  0  0
  -25.1800  -13.8910   20.5290 C   0  0  0  0  0  0  0  0  0  0  0  0
  -24.1120  -13.1140   20.8850 C   0  0  0  0  0  0  0  0  0  0  0  0
  -24.5810  -11.7640   20.8670 C   0  0  0  0  0  0  0  0  0  0  0  0
  -26.2300  -13.0160   20.3110 N   0  0  0  0  0  0  0  0  0  0  0  0
  -25.8770  -11.7320   20.5800 N   0  0  0  0  0  0  0  0  0  0  0  0
  -23.8560  -10.4990   21.0490 C   0  0  0  0  0  0  0  0  0  0  0  0
  -24.2730   -9.5370   21.9950 C   0  0  0  0  0  3  0  0  0  0  0  0
  -23.5450   -8.3400   22.1670 C   0  0  0  0  0  3  0  0  0  0  0  0
  -22.3870   -8.0950   21.3920 C   0  0  0  0  0  0  0  0  0  0  0  0
  -21.9890   -9.0460   20.4350 C   0  0  0  0  0  3  0  0  0  0  0  0
  -22.7170  -10.2350   20.2620 C   0  0  0  0  0  3  0  0  0  0  0  0
  -21.6320   -6.9500   21.4730 O   0  0  0  0  0  0  0  0  0  0  0  0
  -21.5580   -6.2160   22.6300 C   0  0  0  0  0  0  0  0  0  0  0  0
  -21.0900   -6.7770   23.8390 C   0  0  0  0  0  3  0  0  0  0  0  0
  -20.9640   -5.9700   24.9870 C   0  0  0  0  0  3  0  0  0  0  0  0
  -21.2950   -4.6030   24.9270 C   0  0  0  0  0  0  0  0  0  0  0  0
  -21.7540   -4.0410   23.7230 C   0  0  0  0  0  3  0  0  0  0  0  0
  -21.8820   -4.8460   22.5770 C   0  0  0  0  0  0  0  0  0  0  0  0
  -22.3050   -4.2940   21.4140 F   0  0  0  0  0  0  0  0  0  0  0  0
  -21.1660   -3.8250   26.0270 F   0  0  0  0  0  0  0  0  0  0  0  0
  -22.7090  -13.5870   21.1310 C   0  0  0  0  0  0  0  0  0  0  0  0
  -21.9680  -12.8860   21.9820 N   0  0  0  0  0  0  0  0  0  0  0  0
  -22.2800  -14.6120   20.6050 O   0  0  0  0  0  0  0  0  0  0  0  0
  -22.3290  -12.0560   22.4290 H   0  0  0  0  0  0  0  0  0  0  0  0
  -21.0250  -13.1830   22.1890 H   0  0  0  0  0  0  0  0  0  0  0  0
  -25.3410  -15.2620   20.3470 N   0  0  0  0  0  0  0  0  0  0  0  0
  -24.5650  -15.9090   20.4400 H   0  0  0  0  0  0  0  0  0  0  0  0
  -26.1870  -15.7040   20.0140 H   0  0  0  0  0  0  0  0  0  0  0  0
  -29.3340  -22.7660   18.0820 C   0  0  0  0  0  0  0  0  0  0  0  0
  -28.1490  -23.3390   17.3340 C   0  0  0  0  0  2  0  0  0  0  0  0
  -27.1710  -23.6130   18.4800 C   0  0  0  0  0  2  0  0  0  0  0  0
  -28.0980  -23.8450   19.6950 C   0  0  0  0  0  3  0  0  0  0  0  0
  -29.1030  -22.7400   19.4090 N   0  0  0  0  0  0  0  0  0  0  0  0
  -30.3400  -22.3380   17.5060 O   0  0  0  0  0  0  0  0  0  0  0  0
  -28.6830  -25.3650   19.5960 C   0  0  0  0  0  2  0  0  0  0  0  0
  -28.3740  -26.5390   20.4500 O   0  0  0  0  0  0  0  0  0  0  0  0
  -24.6060  -31.9890   23.2760 C   0  0  0  0  0  0  0  0  0  0  0  0
  -27.2560  -27.3780   20.3200 C   0  0  0  0  0  0  0  0  0  0  0  0
  -23.4240  -30.5660   21.6400 C   0  0  0  0  0  3  0  0  0  0  0  0
  -24.8910  -28.9940   20.2550 C   0  0  0  0  0  0  0  0  0  0  0  0
  -25.9650  -30.8800   21.4850 C   0  0  0  0  0  2  0  0  0  0  0  0
  -26.0510  -29.4890   20.8650 C   0  0  0  0  0  0  0  0  0  0  0  0
  -27.2300  -28.6870   20.8980 C   0  0  0  0  0  3  0  0  0  0  0  0
  -26.0720  -26.9370   19.6990 C   0  0  0  0  0  3  0  0  0  0  0  0
  -24.9050  -27.7210   19.6650 C   0  0  0  0  0  3  0  0  0  0  0  0
  -23.6550  -29.8680   20.2730 C   0  0  0  0  0  2  0  0  0  0  0  0
  -24.6840  -31.1630   22.1910 N   0  0  0  0  0  0  0  0  0  0  0  0
  -23.5150  -32.2750   23.7900 O   0  0  0  0  0  0  0  0  0  0  0  0
  -22.7470  -29.5650   22.6050 C   0  0  0  0  0  0  0  0  0  0  0  0
  -21.4200  -29.3950   22.4670 N   0  0  0  0  0  0  0  0  0  0  0  0
  -23.4120  -28.9430   23.4370 O   0  0  0  0  0  0  0  0  0  0  0  0
  -20.9440  -29.9470   21.7660 H   0  0  0  0  0  0  0  0  0  0  0  0
  -18.0250  -28.2580   22.9680 C   0  0  0  0  0  0  0  0  0  0  0  0
  -20.5870  -28.4750   23.2400 C   0  0  0  0  0  3  0  0  0  0  0  0
  -20.6660  -27.0410   22.6700 C   0  0  0  0  0  2  0  0  0  0  0  0
  -19.5600  -26.7330   21.6560 C   0  0  0  0  0  2  0  0  0  0  0  0
  -18.1810  -26.9030   22.2980 C   0  0  0  0  0  2  0  0  0  0  0  0
  -19.1550  -29.0020   23.3970 C   0  0  0  0  0  0  0  0  0  0  0  0
  -18.9550  -30.2700   23.9840 C   0  0  0  0  0  3  0  0  0  0  0  0
  -17.6590  -30.7930   24.1480 C   0  0  0  0  0  3  0  0  0  0  0  0
  -16.5430  -30.0440   23.7360 C   0  0  0  0  0  3  0  0  0  0  0  0
  -16.7260  -28.7790   23.1510 C   0  0  0  0  0  3  0  0  0  0  0  0
  -25.8810  -32.6290   23.9070 C   0  0  0  0  0  3  0  0  0  0  0  0
  -26.3850  -31.8660   25.1940 C   0  0  1  0  0  0  0  0  0  0  0  0
  -25.2780  -31.6260   26.2450 C   0  0  0  0  0  1  0  0  0  0  0  0
  -26.9820  -30.4910   24.8140 C   0  0  0  0  0  1  0  0  0  0  0  0
  -27.5200  -32.6700   25.8710 C   0  0  0  0  0  1  0  0  0  0  0  0
  -25.5670  -34.0280   24.2250 N   0  0  0  0  0  0  0  0  0  0  0  0
  -25.9010  -35.0760   23.4580 C   0  0  0  0  0  0  0  0  0  0  0  0
  -26.5760  -34.9660   22.4310 O   0  0  0  0  0  0  0  0  0  0  0  0
  -24.9790  -34.1910   25.0280 H   0  0  0  0  0  0  0  0  0  0  0  0
  -24.1730  -36.8600   23.0720 C   0  0  0  0  0  1  0  0  0  0  0  0
  -25.4060  -36.4650   23.9020 C   0  0  0  0  0  3  0  0  0  0  0  0
  -27.5270  -37.3620   24.7530 C   0  0  0  0  0  1  0  0  0  0  0  0
  -26.4370  -37.5200   23.7930 N   0  0  0  0  0  0  0  0  0  0  0  0
  -26.0260  -38.4400   23.9290 H   0  0  0  0  0  0  0  0  0  0  0  0
  -31.5990  -19.4310   22.2160 C   0  0  0  0  0  0  0  0  0  0  0  0
  -32.8150  -20.3480   22.1840 C   0  0  0  0  0  1  0  0  0  0  0  0
  -31.5500  -18.5300   23.0580 O   0  0  0  0  0  0  0  0  0  0  0  0
  1  4  1  0
  2  1  2  0
  2  6  1  0
  3  5  1  0
  4  5  2  0
  5 95  1  0
  6  3  2  0
  7 16  1  0
  8 13  1  0
  9 10  1  0
  9  8  1  0
 11 10  1  0
 11 22  1  0
 11 12  1  0
 13  7  1  0
 13 12  1  0
 14  7  2  0
 15  4  1  0
 15 16  1  0
 16 18  1  0
 17 15  2  0
 19 20  2  0
 20 39  1  0
 21 20  1  0
 21 24  1  0
 22 19  1  0
 22 23  1  0
 23 21  2  0
 24 25  1  0
 25 26  2  0
 27 30  1  0
 27 26  1  0
 28 27  2  0
 29 28  1  0
 29 24  2  0
 30 31  1  0
 31 32  1  0
 32 33  2  0
 34 33  1  0
 34 38  1  0
 35 34  2  0
 36 31  2  0
 36 35  1  0
 37 36  1  0
 39 40  1  0
 40 43  1  0
 40 42  1  0
 41 39  2  0
 44 45  1  0
 44 19  1  0
 46 44  1  0
 47 51  1  0
 48 47  1  0
 48 49  1  0
 49 50  1  0
 50 53  1  0
 51 50  1  0
 51  6  1  0
 52 47  2  0
 53 54  1  0
 55 66  2  0
 56 54  1  0
 56 61  1  0
 57 65  1  0
 57 67  1  0
 58 64  1  0
 58 60  1  0
 59 65  1  0
 60 61  2  0
 60 59  1  0
 62 56  2  0
 63 62  1  0
 63 58  2  0
 64 57  1  0
 65 55  1  0
 67 69  2  0
 68 67  1  0
 70 68  1  0
 71 80  2  0
 71 76  1  0
 72 68  1  0
 72 76  1  0
 73 72  1  0
 74 75  1  0
 74 73  1  0
 75 71  1  0
 76 77  2  0
 77 78  1  0
 79 78  2  0
 80 79  1  0
 81 55  1  0
 81 86  1  0
 81 82  1  0
 82 85  1  1
 82 83  1  0
 84 82  1  0
 86 89  1  0
 87 91  1  0
 87 86  1  0
 88 87  2  0
 91 90  1  0
 93 91  1  0
 93 94  1  0
 93 92  1  0
 95 97  2  0
 96 95  1  0
M  ISO  4   7 100  16 100  53 101  54 101
M  END
>  <TORSDO>  (53) 
F 19

>  <SCORE>  (53) 
-14.390

>  <name>  (53) 
52

>  <ligand_id>  (53) 
52

>  <original_smiles>  (53) 
[H]c1c([H])c([H])c2c(c1[H])C([H])([H])C([H])([H])C([H])([H])C2([H])N([H])C(=O)C1([H])N(C(=O)C([H])(N([H])C(=O)C([H])(N([H])C([H])([H])[H])C([H])([H])[H])C(C([H])([H])[H])(C([H])([H])[H])C([H])([H])[H])C([H])([H])c2c([H])c(OC([H])([H])C3([H])N(c4c([H])c([H])c(C(=O)N([H])C(=O)N5C([H])([H])C([H])([H])C([H])([H])C([H])(n6nc(-c7c([H])c([H])c(Oc8c([H])c([H])c(F)c([H])c8F)c([H])c7[H])c(C(=O)N([H])[H])c6N([H])[H])C5([H])[H])c(C(=O)C([H])([H])[H])c4[H])C(=O)C([H])([H])C3([H])[H])c([H])c([H])c2C1([H])[H]

>  <smiles>  (53) 
[H]c1c([H])c([H])c2c(c1[H])C([H])([H])C([H])([H])C([H])([H])C2([H])N([H])C(=O)C1([H])N(C(=O)C([H])(N([H])C(=O)C([H])(N([H])C([H])([H])[H])C([H])([H])[H])C(C([H])([H])[H])(C([H])([H])[H])C([H])([H])[H])C([H])([H])c2c([H])c(OC([H])([H])C3([H])N(c4c([H])c([H])c(C(=O)N([H])C(=O)N5C([H])([H])C([H])([H])C([H])([H])C([H])(n6nc(-c7c([H])c([H])c(Oc8c([H])c([H])c(F)c([H])c8F)c([H])c7[H])c(C(=O)N([H])[H])c6N([H])[H])C5([H])[H])c(C(=O)C([H])([H])[H])c4[H])C(=O)C([H])([H])C3([H])[H])c([H])c([H])c2C1([H])[H]

$$$$
53:0:0
     RDKit          3D

 99108  0  0  1  0  0  0  0  0999 V2000
  -28.9930  -24.1060   19.9130 C   0  0  0  0  0  3  0  0  0  0  0  0
  -28.7210  -22.9140   20.5370 C   0  0  0  0  0  3  0  0  0  0  0  0
  -30.2420  -24.2600   19.1320 C   0  0  0  0  0  0  0  0  0  0  0  0
  -29.0530  -20.4800   20.3810 C   0  0  0  0  0  0  0  0  0  0  0  0
  -31.1500  -23.0420   18.9830 C   0  0  0  0  0  2  0  0  0  0  0  0
  -30.9860  -22.0220   20.1270 C   0  0  0  0  0  2  0  0  0  0  0  0
  -27.4990  -22.7490   21.4520 C   0  0  0  0  0  1  0  0  0  0  0  0
  -29.5720  -21.7580   20.4590 N   0  0  0  0  0  0  0  0  0  0  0  0
  -30.5760  -25.3090   18.5750 O   0  0  0  0  0  0  0  0  0  0  0  0
  -27.8830  -20.2650   20.0410 O   0  0  0  0  0  0  0  0  0  0  0  0
  -31.0140  -19.3560   21.5900 C   0  0  0  0  0  3  0  0  0  0  0  0
  -31.7320  -18.2090   21.9710 C   0  0  0  0  0  3  0  0  0  0  0  0
  -29.4800  -17.9520   20.3270 C   0  0  0  0  0  3  0  0  0  0  0  0
  -29.8920  -19.2560   20.7340 C   0  0  0  0  0  0  0  0  0  0  0  0
  -31.3300  -16.9280   21.5450 C   0  0  0  0  0  0  0  0  0  0  0  0
  -30.1840  -16.7800   20.7210 C   0  0  0  0  0  0  0  0  0  0  0  0
  -30.2610  -14.4780   19.7230 C   0  0  0  0  0  0  0  0  0  0  0  0
  -29.7820  -12.3920   18.4850 C   0  0  0  0  0  2  0  0  0  0  0  0
  -28.6870  -12.6670   17.4350 C   0  0  0  0  0  2  0  0  0  0  0  0
  -27.2850  -12.4970   18.0520 C   0  0  0  0  0  2  0  0  0  0  0  0
  -27.1270  -13.2390   19.4050 C   0  0  0  0  0  3  0  0  0  0  0  0
  -28.3270  -12.9700   20.3400 C   0  0  0  0  0  2  0  0  0  0  0  0
  -29.5550  -13.3190   19.6060 N   0  0  0  0  0  0  0  0  0  0  0  0
  -31.3250  -14.6640   19.1280 O   0  0  0  0  0  0  0  0  0  0  0  0
  -29.6540  -15.4830   20.3900 N   0  0  0  0  0  0  0  0  0  0  0  0
  -28.7060  -15.3050   20.6780 H   0  0  0  0  0  0  0  0  0  0  0  0
  -24.8190  -13.7730   20.4060 C   0  0  0  0  0  0  0  0  0  0  0  0
  -23.8230  -12.9680   20.8910 C   0  0  0  0  0  0  0  0  0  0  0  0
  -24.3110  -11.6290   20.7840 C   0  0  0  0  0  0  0  0  0  0  0  0
  -25.8510  -12.9220   20.0410 N   0  0  0  0  0  0  0  0  0  0  0  0
  -25.5560  -11.6270   20.3240 N   0  0  0  0  0  0  0  0  0  0  0  0
  -23.6440  -10.3460   21.0410 C   0  0  0  0  0  0  0  0  0  0  0  0
  -24.1660   -9.4140   21.9650 C   0  0  0  0  0  3  0  0  0  0  0  0
  -23.4970   -8.1960   22.2090 C   0  0  0  0  0  3  0  0  0  0  0  0
  -22.2900   -7.9010   21.5320 C   0  0  0  0  0  0  0  0  0  0  0  0
  -21.7860   -8.8220   20.5970 C   0  0  0  0  0  3  0  0  0  0  0  0
  -22.4560  -10.0320   20.3510 C   0  0  0  0  0  3  0  0  0  0  0  0
  -21.5850   -6.7310   21.6860 O   0  0  0  0  0  0  0  0  0  0  0  0
  -21.6000   -6.0320   22.8670 C   0  0  0  0  0  0  0  0  0  0  0  0
  -21.1760   -6.6130   24.0810 C   0  0  0  0  0  3  0  0  0  0  0  0
  -21.1410   -5.8380   25.2570 C   0  0  0  0  0  3  0  0  0  0  0  0
  -21.5210   -4.4830   25.2210 C   0  0  0  0  0  0  0  0  0  0  0  0
  -21.9390   -3.9020   24.0110 C   0  0  0  0  0  3  0  0  0  0  0  0
  -21.9760   -4.6750   22.8370 C   0  0  0  0  0  0  0  0  0  0  0  0
  -22.3590   -4.1040   21.6690 F   0  0  0  0  0  0  0  0  0  0  0  0
  -21.4820   -3.7350   26.3490 F   0  0  0  0  0  0  0  0  0  0  0  0
  -22.4570  -13.4040   21.3360 C   0  0  0  0  0  0  0  0  0  0  0  0
  -21.8690  -12.6930   22.2920 N   0  0  0  0  0  0  0  0  0  0  0  0
  -21.9250  -14.4120   20.8740 O   0  0  0  0  0  0  0  0  0  0  0  0
  -22.3160  -11.8750   22.6800 H   0  0  0  0  0  0  0  0  0  0  0  0
  -20.9600  -12.9650   22.6350 H   0  0  0  0  0  0  0  0  0  0  0  0
  -24.9240  -15.1480   20.2230 N   0  0  0  0  0  0  0  0  0  0  0  0
  -24.1560  -15.7790   20.4180 H   0  0  0  0  0  0  0  0  0  0  0  0
  -25.7020  -15.6030   19.7610 H   0  0  0  0  0  0  0  0  0  0  0  0
  -32.0580  -15.8260   21.9870 N   0  0  0  0  0  0  0  0  0  0  0  0
  -32.9490  -16.0270   22.4240 H   0  0  0  0  0  0  0  0  0  0  0  0
  -32.1630  -15.1170   21.2640 H   0  0  0  0  0  0  0  0  0  0  0  0
  -27.9320  -25.2150   19.7080 C   0  0  0  0  0  2  0  0  0  0  0  0
  -28.1810  -26.5900   20.1230 O   0  0  0  0  0  0  0  0  0  0  0  0
  -24.4890  -31.8820   23.2630 C   0  0  0  0  0  0  0  0  0  0  0  0
  -27.0470  -27.4100   20.0970 C   0  0  0  0  0  0  0  0  0  0  0  0
  -23.2570  -30.5180   21.6140 C   0  0  0  0  0  3  0  0  0  0  0  0
  -24.6780  -28.9950   20.1540 C   0  0  0  0  0  0  0  0  0  0  0  0
  -25.7930  -30.8380   21.4040 C   0  0  0  0  0  2  0  0  0  0  0  0
  -25.8560  -29.4760   20.7400 C   0  0  0  0  0  0  0  0  0  0  0  0
  -27.0440  -28.6940   20.7080 C   0  0  0  0  0  3  0  0  0  0  0  0
  -25.8370  -26.9780   19.4910 C   0  0  0  0  0  3  0  0  0  0  0  0
  -24.6670  -27.7450   19.5290 C   0  0  0  0  0  3  0  0  0  0  0  0
  -23.4450  -29.8660   20.2230 C   0  0  0  0  0  2  0  0  0  0  0  0
  -24.5330  -31.0940   22.1500 N   0  0  0  0  0  0  0  0  0  0  0  0
  -23.4160  -32.1540   23.8200 O   0  0  0  0  0  0  0  0  0  0  0  0
  -22.6010  -29.4870   22.5630 C   0  0  0  0  0  0  0  0  0  0  0  0
  -21.2800  -29.2950   22.4220 N   0  0  0  0  0  0  0  0  0  0  0  0
  -23.2810  -28.8660   23.3850 O   0  0  0  0  0  0  0  0  0  0  0  0
  -20.7930  -29.8400   21.7230 H   0  0  0  0  0  0  0  0  0  0  0  0
  -17.9170  -28.0550   22.8780 C   0  0  0  0  0  0  0  0  0  0  0  0
  -20.4650  -28.3530   23.1880 C   0  0  0  0  0  3  0  0  0  0  0  0
  -20.5980  -26.9210   22.6230 C   0  0  0  0  0  2  0  0  0  0  0  0
  -19.5170  -26.5730   21.5960 C   0  0  0  0  0  2  0  0  0  0  0  0
  -18.1220  -26.7030   22.2160 C   0  0  0  0  0  2  0  0  0  0  0  0
  -19.0170  -28.8370   23.3200 C   0  0  0  0  0  0  0  0  0  0  0  0
  -18.7720  -30.0980   23.9020 C   0  0  0  0  0  3  0  0  0  0  0  0
  -17.4580  -30.5830   24.0440 C   0  0  0  0  0  3  0  0  0  0  0  0
  -16.3710  -29.8000   23.6160 C   0  0  0  0  0  3  0  0  0  0  0  0
  -16.6000  -28.5380   23.0400 C   0  0  0  0  0  3  0  0  0  0  0  0
  -25.7850  -32.4950   23.8770 C   0  0  0  0  0  3  0  0  0  0  0  0
  -26.2890  -31.7250   25.1600 C   0  0  1  0  0  0  0  0  0  0  0  0
  -25.1950  -31.5070   26.2310 C   0  0  0  0  0  1  0  0  0  0  0  0
  -26.8540  -30.3360   24.7820 C   0  0  0  0  0  1  0  0  0  0  0  0
  -27.4490  -32.5120   25.8130 C   0  0  0  0  0  1  0  0  0  0  0  0
  -25.5010  -33.9000   24.1920 N   0  0  0  0  0  0  0  0  0  0  0  0
  -25.8290  -34.9390   23.4070 C   0  0  0  0  0  0  0  0  0  0  0  0
  -26.4690  -34.8090   22.3600 O   0  0  0  0  0  0  0  0  0  0  0  0
  -24.9300  -34.0770   25.0050 H   0  0  0  0  0  0  0  0  0  0  0  0
  -24.1100  -36.7440   23.0690 C   0  0  0  0  0  1  0  0  0  0  0  0
  -25.3700  -36.3400   23.8520 C   0  0  0  0  0  3  0  0  0  0  0  0
  -27.5320  -37.2160   24.6130 C   0  0  0  0  0  1  0  0  0  0  0  0
  -26.4100  -37.3780   23.6940 N   0  0  0  0  0  0  0  0  0  0  0  0
  -26.0180  -38.3060   23.8370 H   0  0  0  0  0  0  0  0  0  0  0  0
  1 58  1  0
  1  2  1  0
  2  7  1  0
  3  1  1  0
  4  8  1  0
  4 14  1  0
  5  3  1  0
  5  6  1  0
  6  8  1  0
  8  2  1  0
  9  3  2  0
 10  4  2  0
 11 12  1  0
 13 16  2  0
 13 14  1  0
 14 11  2  0
 15 12  2  0
 15 55  1  0
 16 15  1  0
 17 25  1  0
 18 23  1  0
 19 20  1  0
 19 18  1  0
 21 20  1  0
 21 30  1  0
 21 22  1  0
 23 17  1  0
 23 22  1  0
 24 17  2  0
 25 26  1  0
 25 16  1  0
 27 28  2  0
 28 47  1  0
 29 28  1  0
 29 32  1  0
 30 31  1  0
 30 27  1  0
 31 29  2  0
 32 33  1  0
 33 34  2  0
 35 38  1  0
 35 34  1  0
 36 35  2  0
 37 36  1  0
 37 32  2  0
 38 39  1  0
 39 40  1  0
 40 41  2  0
 42 41  1  0
 42 46  1  0
 43 42  2  0
 44 39  2  0
 44 43  1  0
 45 44  1  0
 47 48  1  0
 48 51  1  0
 48 50  1  0
 49 47  2  0
 52 27  1  0
 52 53  1  0
 54 52  1  0
 55 56  1  0
 57 55  1  0
 58 59  1  0
 60 71  2  0
 61 59  1  0
 61 66  1  0
 62 70  1  0
 62 72  1  0
 63 69  1  0
 63 65  1  0
 64 70  1  0
 65 64  1  0
 66 65  2  0
 67 68  1  0
 67 61  2  0
 68 63  2  0
 69 62  1  0
 70 60  1  0
 72 74  2  0
 73 72  1  0
 75 73  1  0
 76 85  2  0
 76 81  1  0
 77 73  1  0
 77 81  1  0
 78 77  1  0
 79 80  1  0
 79 78  1  0
 80 76  1  0
 81 82  2  0
 82 83  1  0
 84 83  2  0
 85 84  1  0
 86 60  1  0
 86 91  1  0
 86 87  1  0
 87 90  1  1
 87 88  1  0
 89 87  1  0
 91 94  1  0
 92 96  1  0
 92 91  1  0
 93 92  2  0
 96 95  1  0
 98 99  1  0
 98 96  1  0
 98 97  1  0
M  ISO  4  17 100  25 100  58 101  59 101
M  END
>  <TORSDO>  (54) 
F 19

>  <SCORE>  (54) 
-12.737

>  <name>  (54) 
53

>  <ligand_id>  (54) 
53

>  <original_smiles>  (54) 
[H]c1c([H])c([H])c2c(c1[H])C([H])([H])C([H])([H])C([H])([H])C2([H])N([H])C(=O)C1([H])N(C(=O)C([H])(N([H])C(=O)C([H])(N([H])C([H])([H])[H])C([H])([H])[H])C(C([H])([H])[H])(C([H])([H])[H])C([H])([H])[H])C([H])([H])c2c([H])c(OC([H])([H])C3=C(C([H])([H])[H])N(C(=O)c4c([H])c([H])c(N([H])[H])c(N([H])C(=O)N5C([H])([H])C([H])([H])C([H])([H])C([H])(n6nc(-c7c([H])c([H])c(Oc8c([H])c([H])c(F)c([H])c8F)c([H])c7[H])c(C(=O)N([H])[H])c6N([H])[H])C5([H])[H])c4[H])C([H])([H])C([H])([H])C3=O)c([H])c([H])c2C1([H])[H]

>  <smiles>  (54) 
[H]c1c([H])c([H])c2c(c1[H])C([H])([H])C([H])([H])C([H])([H])C2([H])N([H])C(=O)C1([H])N(C(=O)C([H])(N([H])C(=O)C([H])(N([H])C([H])([H])[H])C([H])([H])[H])C(C([H])([H])[H])(C([H])([H])[H])C([H])([H])[H])C([H])([H])c2c([H])c(OC([H])([H])C3=C(C([H])([H])[H])N(C(=O)c4c([H])c([H])c(N([H])[H])c(N([H])C(=O)N5C([H])([H])C([H])([H])C([H])([H])C([H])(n6nc(-c7c([H])c([H])c(Oc8c([H])c([H])c(F)c([H])c8F)c([H])c7[H])c(C(=O)N([H])[H])c6N([H])[H])C5([H])[H])c4[H])C([H])([H])C([H])([H])C3=O)c([H])c([H])c2C1([H])[H]

$$$$
54:0:0
     RDKit          3D

 97106  0  0  1  0  0  0  0  0999 V2000
  -31.0220  -17.7500   21.7350 C   0  0  0  0  0  3  0  0  0  0  0  0
  -30.6190  -20.1980   21.8230 C   0  0  0  0  0  0  0  0  0  0  0  0
  -29.6780  -20.1580   20.7350 C   0  0  0  0  0  0  0  0  0  0  0  0
  -31.2770  -19.0180   22.2830 C   0  0  0  0  0  0  0  0  0  0  0  0
  -30.0580  -17.5570   20.7330 C   0  0  0  0  0  0  0  0  0  0  0  0
  -29.3850  -18.7790   20.2630 C   0  0  0  0  0  0  0  0  0  0  0  0
  -30.9480  -21.5060   22.5400 C   0  0  0  0  0  1  0  0  0  0  0  0
  -30.5310  -14.9930   20.2170 C   0  0  0  0  0  0  0  0  0  0  0  0
  -30.3700  -12.7040   19.1830 C   0  0  0  0  0  2  0  0  0  0  0  0
  -29.3980  -12.7170   17.9830 C   0  0  0  0  0  2  0  0  0  0  0  0
  -27.9420  -12.5090   18.4480 C   0  0  0  0  0  2  0  0  0  0  0  0
  -27.5730  -13.3990   19.6650 C   0  0  0  0  0  3  0  0  0  0  0  0
  -28.6600  -13.3490   20.7600 C   0  0  0  0  0  2  0  0  0  0  0  0
  -29.9190  -13.7560   20.1240 N   0  0  0  0  0  0  0  0  0  0  0  0
  -31.7270  -15.0880   19.9230 O   0  0  0  0  0  0  0  0  0  0  0  0
  -29.7340  -16.1370   20.3500 N   0  0  0  0  0  0  0  0  0  0  0  0
  -28.7470  -15.9560   20.2400 H   0  0  0  0  0  0  0  0  0  0  0  0
  -25.1950  -13.9530   20.4500 C   0  0  0  0  0  0  0  0  0  0  0  0
  -24.1490  -13.1640   20.8410 C   0  0  0  0  0  0  0  0  0  0  0  0
  -24.6290  -11.8190   20.7950 C   0  0  0  0  0  0  0  0  0  0  0  0
  -26.2450  -13.0880   20.1870 N   0  0  0  0  0  0  0  0  0  0  0  0
  -25.9150  -11.8000   20.4590 N   0  0  0  0  0  0  0  0  0  0  0  0
  -23.9220  -10.5490   20.9910 C   0  0  0  0  0  0  0  0  0  0  0  0
  -24.3770   -9.5860   21.9180 C   0  0  0  0  0  3  0  0  0  0  0  0
  -23.6670   -8.3800   22.1020 C   0  0  0  0  0  3  0  0  0  0  0  0
  -22.4890   -8.1300   21.3600 C   0  0  0  0  0  0  0  0  0  0  0  0
  -22.0540   -9.0810   20.4210 C   0  0  0  0  0  3  0  0  0  0  0  0
  -22.7650  -10.2770   20.2350 C   0  0  0  0  0  3  0  0  0  0  0  0
  -21.7510   -6.9750   21.4520 O   0  0  0  0  0  0  0  0  0  0  0  0
  -21.7120   -6.2390   22.6100 C   0  0  0  0  0  0  0  0  0  0  0  0
  -21.2690   -6.7930   23.8310 C   0  0  0  0  0  3  0  0  0  0  0  0
  -21.1780   -5.9810   24.9790 C   0  0  0  0  0  3  0  0  0  0  0  0
  -21.5210   -4.6170   24.9070 C   0  0  0  0  0  0  0  0  0  0  0  0
  -21.9570   -4.0640   23.6910 C   0  0  0  0  0  3  0  0  0  0  0  0
  -22.0500   -4.8720   22.5460 C   0  0  0  0  0  0  0  0  0  0  0  0
  -22.4520   -4.3280   21.3710 F   0  0  0  0  0  0  0  0  0  0  0  0
  -21.4250   -3.8370   26.0080 F   0  0  0  0  0  0  0  0  0  0  0  0
  -22.7500  -13.6250   21.1350 C   0  0  0  0  0  0  0  0  0  0  0  0
  -22.0420  -12.9220   22.0130 N   0  0  0  0  0  0  0  0  0  0  0  0
  -22.2940  -14.6460   20.6250 O   0  0  0  0  0  0  0  0  0  0  0  0
  -22.4190  -12.0980   22.4550 H   0  0  0  0  0  0  0  0  0  0  0  0
  -21.1060  -13.2200   22.2500 H   0  0  0  0  0  0  0  0  0  0  0  0
  -25.3310  -15.3260   20.2690 N   0  0  0  0  0  0  0  0  0  0  0  0
  -24.5430  -15.9540   20.3850 H   0  0  0  0  0  0  0  0  0  0  0  0
  -26.1260  -15.7630   19.8240 H   0  0  0  0  0  0  0  0  0  0  0  0
  -28.5700  -23.8390   19.4940 C   0  0  0  0  0  0  0  0  0  0  0  0
  -28.2740  -25.2040   19.3030 C   0  0  0  0  0  3  0  0  0  0  0  0
  -28.4260  -22.8760   18.3280 C   0  0  0  0  0  2  0  0  0  0  0  0
  -29.0760  -22.8790   20.6330 C   0  0  0  0  0  2  0  0  0  0  0  0
  -28.4580  -21.4210   18.8610 C   0  0  0  0  0  2  0  0  0  0  0  0
  -29.0940  -21.4130   20.1760 N   0  0  0  0  0  0  0  0  0  0  0  0
  -28.2920  -26.4240   20.0620 O   0  0  0  0  0  0  0  0  0  0  0  0
  -24.5300  -31.9100   23.0920 C   0  0  0  0  0  0  0  0  0  0  0  0
  -27.2150  -27.3630   19.9730 C   0  0  0  0  0  0  0  0  0  0  0  0
  -23.3590  -30.5220   21.4270 C   0  0  0  0  0  3  0  0  0  0  0  0
  -24.8400  -29.0160   19.9770 C   0  0  0  0  0  0  0  0  0  0  0  0
  -25.9030  -30.8590   21.2640 C   0  0  0  0  0  2  0  0  0  0  0  0
  -26.0080  -29.4880   20.5880 C   0  0  0  0  0  0  0  0  0  0  0  0
  -27.1950  -28.6750   20.5750 C   0  0  0  0  0  3  0  0  0  0  0  0
  -26.0100  -26.9720   19.3400 C   0  0  0  0  0  3  0  0  0  0  0  0
  -24.8490  -27.7680   19.3410 C   0  0  0  0  0  3  0  0  0  0  0  0
  -23.5910  -29.8780   20.0360 C   0  0  0  0  0  2  0  0  0  0  0  0
  -24.6170  -31.1150   21.9840 N   0  0  0  0  0  0  0  0  0  0  0  0
  -23.4380  -32.1610   23.6240 O   0  0  0  0  0  0  0  0  0  0  0  0
  -22.7030  -29.4800   22.3670 C   0  0  0  0  0  0  0  0  0  0  0  0
  -21.3710  -29.3200   22.2670 N   0  0  0  0  0  0  0  0  0  0  0  0
  -23.3930  -28.8200   23.1480 O   0  0  0  0  0  0  0  0  0  0  0  0
  -20.8690  -29.9060   21.6150 H   0  0  0  0  0  0  0  0  0  0  0  0
  -17.9900  -28.1590   22.8380 C   0  0  0  0  0  0  0  0  0  0  0  0
  -20.5620  -28.3610   23.0220 C   0  0  0  0  0  3  0  0  0  0  0  0
  -20.6150  -26.9550   22.3790 C   0  0  0  0  0  2  0  0  0  0  0  0
  -19.4700  -26.6990   21.3930 C   0  0  0  0  0  2  0  0  0  0  0  0
  -18.1140  -26.8410   22.0910 C   0  0  0  0  0  2  0  0  0  0  0  0
  -19.1390  -28.8810   23.2600 C   0  0  0  0  0  0  0  0  0  0  0  0
  -18.9650  -30.1180   23.9190 C   0  0  0  0  0  3  0  0  0  0  0  0
  -17.6770  -30.6340   24.1560 C   0  0  0  0  0  3  0  0  0  0  0  0
  -16.5440  -29.9070   23.7510 C   0  0  0  0  0  3  0  0  0  0  0  0
  -16.7010  -28.6720   23.0970 C   0  0  0  0  0  3  0  0  0  0  0  0
  -25.7960  -32.5580   23.7320 C   0  0  0  0  0  3  0  0  0  0  0  0
  -26.3120  -31.7800   25.0050 C   0  0  1  0  0  0  0  0  0  0  0  0
  -25.2160  -31.5150   26.0620 C   0  0  0  0  0  1  0  0  0  0  0  0
  -26.9190  -30.4150   24.6050 C   0  0  0  0  0  1  0  0  0  0  0  0
  -27.4470  -32.5830   25.6840 C   0  0  0  0  0  1  0  0  0  0  0  0
  -25.4600  -33.9470   24.0800 N   0  0  0  0  0  0  0  0  0  0  0  0
  -25.7940  -35.0190   23.3490 C   0  0  0  0  0  0  0  0  0  0  0  0
  -26.4840  -34.9420   22.3290 O   0  0  0  0  0  0  0  0  0  0  0  0
  -24.8510  -34.0780   24.8740 H   0  0  0  0  0  0  0  0  0  0  0  0
  -24.0650  -36.8110   22.9820 C   0  0  0  0  0  1  0  0  0  0  0  0
  -25.2820  -36.3930   23.8240 C   0  0  0  0  0  3  0  0  0  0  0  0
  -27.3790  -37.2740   24.7520 C   0  0  0  0  0  1  0  0  0  0  0  0
  -26.3110  -37.4550   23.7720 N   0  0  0  0  0  0  0  0  0  0  0  0
  -25.8930  -38.3690   23.9250 H   0  0  0  0  0  0  0  0  0  0  0  0
  -32.2120  -19.0610   23.3260 N   0  0  0  0  0  0  0  0  0  0  0  0
  -32.8140  -18.2700   23.5300 H   0  0  0  0  0  0  0  0  0  0  0  0
  -32.5660  -19.9460   23.6730 H   0  0  0  0  0  0  0  0  0  0  0  0
  -27.1090  -18.4440   19.9610 C   0  0  0  0  0  1  0  0  0  0  0  0
  -28.3850  -18.5840   19.3480 O   0  0  0  0  0  0  0  0  0  0  0  0
  1  4  1  0
  2  4  2  0
  2  7  1  0
  3  2  1  0
  4 93  1  0
  5  1  2  0
  6  5  1  0
  6  3  2  0
  8 16  1  0
  9 14  1  0
 10 11  1  0
 10  9  1  0
 12 11  1  0
 12 21  1  0
 12 13  1  0
 14  8  1  0
 14 13  1  0
 15  8  2  0
 16  5  1  0
 17 16  1  0
 18 19  2  0
 19 38  1  0
 20 19  1  0
 20 23  1  0
 21 18  1  0
 21 22  1  0
 22 20  2  0
 23 24  1  0
 24 25  2  0
 26 29  1  0
 26 25  1  0
 27 26  2  0
 28 27  1  0
 28 23  2  0
 29 30  1  0
 30 31  1  0
 31 32  2  0
 33 32  1  0
 33 37  1  0
 34 33  2  0
 35 30  2  0
 35 34  1  0
 36 35  1  0
 38 39  1  0
 39 42  1  0
 39 41  1  0
 40 38  2  0
 43 44  1  0
 43 18  1  0
 45 43  1  0
 46 49  1  0
 47 46  2  0
 47 52  1  0
 48 50  1  0
 48 46  1  0
 50 51  1  0
 51 49  1  0
 51  3  1  0
 53 64  2  0
 54 52  1  0
 54 59  1  0
 55 63  1  0
 55 65  1  0
 56 62  1  0
 56 58  1  0
 57 63  1  0
 58 57  1  0
 59 58  2  0
 60 61  1  0
 60 54  2  0
 61 56  2  0
 62 55  1  0
 63 53  1  0
 65 67  2  0
 66 65  1  0
 68 66  1  0
 69 78  2  0
 69 74  1  0
 70 66  1  0
 70 74  1  0
 71 70  1  0
 72 73  1  0
 72 71  1  0
 73 69  1  0
 74 75  2  0
 75 76  1  0
 77 76  2  0
 78 77  1  0
 79 53  1  0
 79 84  1  0
 79 80  1  0
 80 83  1  1
 80 81  1  0
 82 80  1  0
 84 87  1  0
 85 89  1  0
 85 84  1  0
 86 85  2  0
 89 88  1  0
 91 89  1  0
 91 92  1  0
 91 90  1  0
 93 94  1  0
 93 95  1  0
 97 96  1  0
 97  6  1  0
M  ISO  4   8 100  16 100  47 101  52 101
M  END
>  <TORSDO>  (55) 
F 19

>  <SCORE>  (55) 
-14.391

>  <name>  (55) 
54

>  <ligand_id>  (55) 
54

>  <original_smiles>  (55) 
[H]C(Oc1c([H])c([H])c2c(c1[H])C([H])([H])N(C(=O)C([H])(N([H])C(=O)C([H])(N([H])C([H])([H])[H])C([H])([H])[H])C(C([H])([H])[H])(C([H])([H])[H])C([H])([H])[H])C([H])(C(=O)N([H])C1([H])c3c([H])c([H])c([H])c([H])c3C([H])([H])C([H])([H])C1([H])[H])C2([H])[H])=C1C([H])([H])N(c2c(OC([H])([H])[H])c(N([H])C(=O)N3C([H])([H])C([H])([H])C([H])([H])C([H])(n4nc(-c5c([H])c([H])c(Oc6c([H])c([H])c(F)c([H])c6F)c([H])c5[H])c(C(=O)N([H])[H])c4N([H])[H])C3([H])[H])c([H])c(N([H])[H])c2C([H])([H])[H])C([H])([H])C1([H])[H]

>  <smiles>  (55) 
[H]C(Oc1c([H])c([H])c2c(c1[H])C([H])([H])N(C(=O)C([H])(N([H])C(=O)C([H])(N([H])C([H])([H])[H])C([H])([H])[H])C(C([H])([H])[H])(C([H])([H])[H])C([H])([H])[H])C([H])(C(=O)N([H])C1([H])c3c([H])c([H])c([H])c([H])c3C([H])([H])C([H])([H])C1([H])[H])C2([H])[H])=C1C([H])([H])N(c2c(OC([H])([H])[H])c(N([H])C(=O)N3C([H])([H])C([H])([H])C([H])([H])C([H])(n4nc(-c5c([H])c([H])c(Oc6c([H])c([H])c(F)c([H])c6F)c([H])c5[H])c(C(=O)N([H])[H])c4N([H])[H])C3([H])[H])c([H])c(N([H])[H])c2C([H])([H])[H])C([H])([H])C1([H])[H]

$$$$
55:0:0
     RDKit          3D

 94102  0  0  1  0  0  0  0  0999 V2000
  -30.9680  -18.0010   20.8160 C   0  0  0  0  0  3  0  0  0  0  0  0
  -28.7880  -19.6320   20.1740 C   0  0  0  0  0  3  0  0  0  0  0  0
  -29.8420  -17.3540   20.2390 C   0  0  0  0  0  0  0  0  0  0  0  0
  -28.7280  -18.2280   19.9550 C   0  0  0  0  0  0  0  0  0  0  0  0
  -31.0170  -19.4120   21.0270 C   0  0  0  0  0  0  0  0  0  0  0  0
  -29.9360  -20.2720   20.6840 C   0  0  0  0  0  0  0  0  0  0  0  0
  -27.4160  -17.7370   19.3620 C   0  0  0  0  0  1  0  0  0  0  0  0
  -29.8740  -15.8850   19.7530 C   0  0  0  0  0  0  0  0  0  0  0  0
  -29.3760  -15.6630   18.6090 N   0  0  0  0  0  0  0  0  0  0  0  0
  -28.9950  -16.5150   18.2200 H   0  0  0  0  0  0  0  0  0  0  0  0
  -30.6170  -14.6960   20.4810 C   0  0  0  0  0  0  0  0  0  0  0  0
  -30.4070  -12.4050   19.5600 C   0  0  0  0  0  2  0  0  0  0  0  0
  -29.4920  -12.4250   18.3160 C   0  0  0  0  0  2  0  0  0  0  0  0
  -28.0030  -12.3140   18.7110 C   0  0  0  0  0  2  0  0  0  0  0  0
  -27.5980  -13.2330   19.8970 C   0  0  0  0  0  3  0  0  0  0  0  0
  -28.6430  -13.1960   21.0340 C   0  0  0  0  0  2  0  0  0  0  0  0
  -29.9660  -13.4860   20.4580 N   0  0  0  0  0  0  0  0  0  0  0  0
  -31.8480  -14.7590   20.4790 O   0  0  0  0  0  0  0  0  0  0  0  0
  -25.1920  -13.8280   20.5770 C   0  0  0  0  0  0  0  0  0  0  0  0
  -24.1190  -13.0540   20.9170 C   0  0  0  0  0  0  0  0  0  0  0  0
  -24.5900  -11.7080   20.9120 C   0  0  0  0  0  0  0  0  0  0  0  0
  -26.2470  -12.9510   20.3730 N   0  0  0  0  0  0  0  0  0  0  0  0
  -25.8890  -11.6710   20.6450 N   0  0  0  0  0  0  0  0  0  0  0  0
  -23.8660  -10.4440   21.0880 C   0  0  0  0  0  0  0  0  0  0  0  0
  -24.2840   -9.4810   22.0310 C   0  0  0  0  0  3  0  0  0  0  0  0
  -23.5590   -8.2830   22.1970 C   0  0  0  0  0  3  0  0  0  0  0  0
  -22.4030   -8.0380   21.4180 C   0  0  0  0  0  0  0  0  0  0  0  0
  -22.0060   -8.9900   20.4630 C   0  0  0  0  0  3  0  0  0  0  0  0
  -22.7310  -10.1820   20.2960 C   0  0  0  0  0  3  0  0  0  0  0  0
  -21.6520   -6.8920   21.4940 O   0  0  0  0  0  0  0  0  0  0  0  0
  -21.5910   -6.1470   22.6430 C   0  0  0  0  0  0  0  0  0  0  0  0
  -21.1460   -6.6970   23.8660 C   0  0  0  0  0  3  0  0  0  0  0  0
  -21.0340   -5.8770   25.0070 C   0  0  0  0  0  3  0  0  0  0  0  0
  -21.3570   -4.5080   24.9250 C   0  0  0  0  0  0  0  0  0  0  0  0
  -21.7950   -3.9590   23.7070 C   0  0  0  0  0  3  0  0  0  0  0  0
  -21.9100   -4.7760   22.5690 C   0  0  0  0  0  0  0  0  0  0  0  0
  -22.3130   -4.2380   21.3940 F   0  0  0  0  0  0  0  0  0  0  0  0
  -21.2400   -3.7190   26.0170 F   0  0  0  0  0  0  0  0  0  0  0  0
  -22.7130  -13.5290   21.1380 C   0  0  0  0  0  0  0  0  0  0  0  0
  -21.9620  -12.8410   21.9890 N   0  0  0  0  0  0  0  0  0  0  0  0
  -22.2880  -14.5470   20.5910 O   0  0  0  0  0  0  0  0  0  0  0  0
  -22.3170  -12.0170   22.4530 H   0  0  0  0  0  0  0  0  0  0  0  0
  -21.0160  -13.1390   22.1780 H   0  0  0  0  0  0  0  0  0  0  0  0
  -25.3470  -15.1960   20.3990 N   0  0  0  0  0  0  0  0  0  0  0  0
  -24.5760  -15.8490   20.4900 H   0  0  0  0  0  0  0  0  0  0  0  0
  -26.2090  -15.6350   20.1110 H   0  0  0  0  0  0  0  0  0  0  0  0
  -32.1700  -19.9850   21.5600 N   0  0  0  0  0  0  0  0  0  0  0  0
  -32.0790  -20.9340   21.9110 H   0  0  0  0  0  0  0  0  0  0  0  0
  -32.7850  -19.4090   22.1260 H   0  0  0  0  0  0  0  0  0  0  0  0
  -30.0560  -21.6660   20.8550 O   0  0  0  0  0  0  0  0  0  0  0  0
  -29.0210  -22.5770   20.3760 C   0  0  0  0  0  3  0  0  0  0  0  0
  -29.3130  -24.1220   20.5760 C   0  0  0  0  0  3  0  0  0  0  0  0
  -28.1560  -25.1060   20.1420 C   0  0  0  0  0  2  0  0  0  0  0  0
  -28.3380  -26.5520   20.3390 O   0  0  0  0  0  0  0  0  0  0  0  0
  -24.5620  -31.9150   23.2900 C   0  0  0  0  0  0  0  0  0  0  0  0
  -27.2000  -27.3680   20.2720 C   0  0  0  0  0  0  0  0  0  0  0  0
  -23.3670  -30.5130   21.6440 C   0  0  0  0  0  3  0  0  0  0  0  0
  -24.8270  -28.9580   20.2400 C   0  0  0  0  0  0  0  0  0  0  0  0
  -25.9060  -30.8330   21.4800 C   0  0  0  0  0  2  0  0  0  0  0  0
  -25.9880  -29.4550   20.8420 C   0  0  0  0  0  0  0  0  0  0  0  0
  -27.1770  -28.6710   20.8500 C   0  0  0  0  0  3  0  0  0  0  0  0
  -26.0110  -26.9160   19.6480 C   0  0  0  0  0  3  0  0  0  0  0  0
  -24.8380  -27.6920   19.6380 C   0  0  0  0  0  3  0  0  0  0  0  0
  -23.5900  -29.8300   20.2690 C   0  0  0  0  0  2  0  0  0  0  0  0
  -24.6290  -31.1030   22.1960 N   0  0  0  0  0  0  0  0  0  0  0  0
  -23.4750  -32.1990   23.8150 O   0  0  0  0  0  0  0  0  0  0  0  0
  -22.6940  -29.5030   22.6020 C   0  0  0  0  0  0  0  0  0  0  0  0
  -21.3710  -29.3170   22.4520 N   0  0  0  0  0  0  0  0  0  0  0  0
  -23.3590  -28.8880   23.4400 O   0  0  0  0  0  0  0  0  0  0  0  0
  -20.8940  -29.8640   21.7500 H   0  0  0  0  0  0  0  0  0  0  0  0
  -17.9930  -28.1040   22.8830 C   0  0  0  0  0  0  0  0  0  0  0  0
  -20.5420  -28.3840   23.2160 C   0  0  0  0  0  3  0  0  0  0  0  0
  -20.6690  -26.9470   22.6620 C   0  0  0  0  0  2  0  0  0  0  0  0
  -19.5950  -26.6020   21.6250 C   0  0  0  0  0  2  0  0  0  0  0  0
  -18.1970  -26.7460   22.2320 C   0  0  0  0  0  2  0  0  0  0  0  0
  -19.0950  -28.8800   23.3310 C   0  0  0  0  0  0  0  0  0  0  0  0
  -18.8530  -30.1510   23.8960 C   0  0  0  0  0  3  0  0  0  0  0  0
  -17.5420  -30.6450   24.0200 C   0  0  0  0  0  3  0  0  0  0  0  0
  -16.4530  -29.8660   23.5900 C   0  0  0  0  0  3  0  0  0  0  0  0
  -16.6790  -28.5980   23.0260 C   0  0  0  0  0  3  0  0  0  0  0  0
  -25.8420  -32.5430   23.9210 C   0  0  0  0  0  3  0  0  0  0  0  0
  -25.5430  -33.9500   24.2260 N   0  0  0  0  0  0  0  0  0  0  0  0
  -25.8940  -34.9870   23.4530 C   0  0  0  0  0  0  0  0  0  0  0  0
  -26.5750  -34.8600   22.4310 O   0  0  0  0  0  0  0  0  0  0  0  0
  -24.9400  -34.1240   25.0170 H   0  0  0  0  0  0  0  0  0  0  0  0
  -24.1870  -36.7890   23.0510 C   0  0  0  0  0  1  0  0  0  0  0  0
  -25.4160  -36.3880   23.8830 C   0  0  0  0  0  3  0  0  0  0  0  0
  -27.5480  -37.2650   24.7230 C   0  0  0  0  0  1  0  0  0  0  0  0
  -26.4600  -37.4280   23.7630 N   0  0  0  0  0  0  0  0  0  0  0  0
  -26.0610  -38.3540   23.8900 H   0  0  0  0  0  0  0  0  0  0  0  0
  -26.3310  -31.7860   25.2160 C   0  0  1  0  0  0  0  0  0  0  0  0
  -25.2190  -31.5770   26.2710 C   0  0  0  0  0  1  0  0  0  0  0  0
  -26.9050  -30.3960   24.8540 C   0  0  0  0  0  1  0  0  0  0  0  0
  -27.4800  -32.5790   25.8830 C   0  0  0  0  0  1  0  0  0  0  0  0
  1  5  1  0
  2  6  1  0
  3  1  2  0
  4  2  2  0
  4  3  1  0
  5 47  1  0
  6 50  1  0
  6  5  2  0
  7  4  1  0
  8  3  1  0
  8 11  1  0
  9  8  2  0
 10  9  1  0
 12 17  1  0
 13 14  1  0
 13 12  1  0
 15 14  1  0
 15 22  1  0
 15 16  1  0
 17 11  1  0
 17 16  1  0
 18 11  2  0
 19 20  2  0
 20 39  1  0
 21 20  1  0
 21 24  1  0
 22 19  1  0
 22 23  1  0
 23 21  2  0
 24 25  1  0
 25 26  2  0
 27 30  1  0
 27 26  1  0
 28 27  2  0
 29 28  1  0
 29 24  2  0
 30 31  1  0
 31 32  1  0
 32 33  2  0
 34 33  1  0
 34 38  1  0
 35 34  2  0
 36 31  2  0
 36 35  1  0
 37 36  1  0
 39 40  1  0
 40 43  1  0
 40 42  1  0
 41 39  2  0
 44 45  1  0
 44 19  1  0
 46 44  1  0
 47 48  1  0
 47 49  1  0
 51 52  2  0
 51 50  1  0
 53 54  1  0
 53 52  1  0
 55 66  2  0
 56 54  1  0
 56 61  1  0
 57 65  1  0
 57 67  1  0
 58 64  1  0
 58 60  1  0
 59 65  1  0
 60 61  2  0
 60 59  1  0
 62 56  2  0
 63 62  1  0
 63 58  2  0
 64 57  1  0
 65 55  1  0
 67 69  2  0
 68 67  1  0
 70 68  1  0
 71 80  2  0
 71 76  1  0
 72 68  1  0
 72 76  1  0
 73 72  1  0
 74 75  1  0
 74 73  1  0
 75 71  1  0
 76 77  2  0
 77 78  1  0
 79 78  2  0
 80 79  1  0
 81 55  1  0
 81 82  1  0
 81 91  1  0
 82 85  1  0
 83 87  1  0
 83 82  1  0
 84 83  2  0
 87 86  1  0
 89 87  1  0
 89 90  1  0
 89 88  1  0
 91 94  1  1
 91 92  1  0
 93 91  1  0
M  ISO  4   8 100  11 100  53 101  54 101
M  END
>  <TORSDO>  (56) 
F 22

>  <SCORE>  (56) 
-13.602

>  <name>  (56) 
55

>  <ligand_id>  (56) 
55

>  <original_smiles>  (56) 
[H]N=C(C(=O)N1C([H])([H])C([H])([H])C([H])([H])C([H])(n2nc(-c3c([H])c([H])c(Oc4c([H])c([H])c(F)c([H])c4F)c([H])c3[H])c(C(=O)N([H])[H])c2N([H])[H])C1([H])[H])c1c([H])c(N([H])[H])c(OC([H])([H])C([H])([H])C([H])([H])Oc2c([H])c([H])c3c(c2[H])C([H])([H])N(C(=O)C([H])(N([H])C(=O)C([H])(N([H])C([H])([H])[H])C([H])([H])[H])C(C([H])([H])[H])(C([H])([H])[H])C([H])([H])[H])C([H])(C(=O)N([H])C2([H])c4c([H])c([H])c([H])c([H])c4C([H])([H])C([H])([H])C2([H])[H])C3([H])[H])c([H])c1C([H])([H])[H]

>  <smiles>  (56) 
[H]N=C(C(=O)N1C([H])([H])C([H])([H])C([H])([H])C([H])(n2nc(-c3c([H])c([H])c(Oc4c([H])c([H])c(F)c([H])c4F)c([H])c3[H])c(C(=O)N([H])[H])c2N([H])[H])C1([H])[H])c1c([H])c(N([H])[H])c(OC([H])([H])C([H])([H])C([H])([H])Oc2c([H])c([H])c3c(c2[H])C([H])([H])N(C(=O)C([H])(N([H])C(=O)C([H])(N([H])C([H])([H])[H])C([H])([H])[H])C(C([H])([H])[H])(C([H])([H])[H])C([H])([H])[H])C([H])(C(=O)N([H])C2([H])c4c([H])c([H])c([H])c([H])c4C([H])([H])C([H])([H])C2([H])[H])C3([H])[H])c([H])c1C([H])([H])[H]

$$$$
56:0:0
     RDKit          3D

 91 99  0  0  1  0  0  0  0  0999 V2000
  -31.3810  -19.3360   22.0020 C   0  0  0  0  0  3  0  0  0  0  0  0
  -30.7400  -20.4690   21.4590 C   0  0  0  0  0  3  0  0  0  0  0  0
  -29.4500  -18.9670   20.0760 C   0  0  0  0  0  3  0  0  0  0  0  0
  -30.0780  -17.7560   20.6180 C   0  0  0  0  0  0  0  0  0  0  0  0
  -31.0520  -18.0080   21.6290 C   0  0  0  0  0  0  0  0  0  0  0  0
  -29.7350  -20.3400   20.4790 C   0  0  0  0  0  0  0  0  0  0  0  0
  -31.7270  -16.8900   22.4140 C   0  0  0  0  0  1  0  0  0  0  0  0
  -29.5420  -16.3100   20.2900 C   0  0  0  0  0  0  0  0  0  0  0  0
  -28.2780  -16.2570   20.2910 N   0  0  0  0  0  0  0  0  0  0  0  0
  -27.8950  -17.1640   20.5260 H   0  0  0  0  0  0  0  0  0  0  0  0
  -30.4490  -14.9870   19.9400 C   0  0  0  0  0  0  0  0  0  0  0  0
  -30.2940  -12.6780   18.9400 C   0  0  0  0  0  2  0  0  0  0  0  0
  -29.2690  -12.6730   17.7790 C   0  0  0  0  0  2  0  0  0  0  0  0
  -27.8400  -12.4270   18.3040 C   0  0  0  0  0  2  0  0  0  0  0  0
  -27.5090  -13.3160   19.5270 C   0  0  0  0  0  3  0  0  0  0  0  0
  -28.6420  -13.2650   20.5770 C   0  0  0  0  0  2  0  0  0  0  0  0
  -29.8750  -13.7200   19.9150 N   0  0  0  0  0  0  0  0  0  0  0  0
  -31.6030  -15.1130   19.5110 O   0  0  0  0  0  0  0  0  0  0  0  0
  -25.1880  -13.8820   20.4630 C   0  0  0  0  0  0  0  0  0  0  0  0
  -24.1520  -13.0910   20.8780 C   0  0  0  0  0  0  0  0  0  0  0  0
  -24.6150  -11.7450   20.7620 C   0  0  0  0  0  0  0  0  0  0  0  0
  -26.2090  -13.0130   20.1110 N   0  0  0  0  0  0  0  0  0  0  0  0
  -25.8770  -11.7210   20.3550 N   0  0  0  0  0  0  0  0  0  0  0  0
  -23.9110  -10.4730   20.9570 C   0  0  0  0  0  0  0  0  0  0  0  0
  -24.3730   -9.5070   21.8780 C   0  0  0  0  0  3  0  0  0  0  0  0
  -23.6690   -8.2980   22.0580 C   0  0  0  0  0  3  0  0  0  0  0  0
  -22.4890   -8.0470   21.3180 C   0  0  0  0  0  0  0  0  0  0  0  0
  -22.0470   -9.0020   20.3860 C   0  0  0  0  0  3  0  0  0  0  0  0
  -22.7520  -10.2030   20.2040 C   0  0  0  0  0  3  0  0  0  0  0  0
  -21.7540   -6.8900   21.4090 O   0  0  0  0  0  0  0  0  0  0  0  0
  -21.6880   -6.1710   22.5750 C   0  0  0  0  0  0  0  0  0  0  0  0
  -21.1840   -6.7310   23.7680 C   0  0  0  0  0  3  0  0  0  0  0  0
  -21.0700   -5.9340   24.9260 C   0  0  0  0  0  3  0  0  0  0  0  0
  -21.4510   -4.5800   24.8890 C   0  0  0  0  0  0  0  0  0  0  0  0
  -21.9470   -4.0190   23.7000 C   0  0  0  0  0  3  0  0  0  0  0  0
  -22.0640   -4.8130   22.5460 C   0  0  0  0  0  0  0  0  0  0  0  0
  -22.5250   -4.2630   21.3960 F   0  0  0  0  0  0  0  0  0  0  0  0
  -21.3330   -3.8110   25.9980 F   0  0  0  0  0  0  0  0  0  0  0  0
  -22.7790  -13.5510   21.2770 C   0  0  0  0  0  0  0  0  0  0  0  0
  -22.1140  -12.8110   22.1590 N   0  0  0  0  0  0  0  0  0  0  0  0
  -22.3030  -14.5980   20.8400 O   0  0  0  0  0  0  0  0  0  0  0  0
  -22.5110  -11.9630   22.5350 H   0  0  0  0  0  0  0  0  0  0  0  0
  -21.1970  -13.1010   22.4640 H   0  0  0  0  0  0  0  0  0  0  0  0
  -25.3450  -15.2580   20.3390 N   0  0  0  0  0  0  0  0  0  0  0  0
  -24.6370  -15.9240   20.6240 H   0  0  0  0  0  0  0  0  0  0  0  0
  -26.2650  -15.6710   20.1970 H   0  0  0  0  0  0  0  0  0  0  0  0
  -29.0650  -21.4880   19.9370 O   0  0  0  0  0  0  0  0  0  0  0  0
  -29.2330  -22.9130   20.4090 C   0  0  0  0  0  2  0  0  0  0  0  0
  -28.7730  -24.0230   19.3730 C   0  0  0  0  0  3  0  0  0  0  0  0
  -28.4500  -25.3830   19.3000 C   0  0  0  0  0  3  0  0  0  0  0  0
  -28.3780  -26.5000   20.1830 O   0  0  0  0  0  0  0  0  0  0  0  0
  -24.6080  -31.9450   23.2120 C   0  0  0  0  0  0  0  0  0  0  0  0
  -27.2910  -27.4160   20.0970 C   0  0  0  0  0  0  0  0  0  0  0  0
  -23.4370  -30.5650   21.5370 C   0  0  0  0  0  3  0  0  0  0  0  0
  -24.9180  -29.0550   20.0930 C   0  0  0  0  0  0  0  0  0  0  0  0
  -25.9810  -30.8970   21.3890 C   0  0  0  0  0  2  0  0  0  0  0  0
  -26.0810  -29.5270   20.7130 C   0  0  0  0  0  0  0  0  0  0  0  0
  -27.2690  -28.7190   20.7090 C   0  0  0  0  0  3  0  0  0  0  0  0
  -26.0920  -27.0140   19.4640 C   0  0  0  0  0  3  0  0  0  0  0  0
  -24.9290  -27.8070   19.4570 C   0  0  0  0  0  3  0  0  0  0  0  0
  -23.6740  -29.9230   20.1460 C   0  0  0  0  0  2  0  0  0  0  0  0
  -24.6940  -31.1540   22.1020 N   0  0  0  0  0  0  0  0  0  0  0  0
  -23.5150  -32.2020   23.7400 O   0  0  0  0  0  0  0  0  0  0  0  0
  -22.7720  -29.5250   22.4710 C   0  0  0  0  0  0  0  0  0  0  0  0
  -21.4430  -29.3600   22.3510 N   0  0  0  0  0  0  0  0  0  0  0  0
  -23.4530  -28.8710   23.2660 O   0  0  0  0  0  0  0  0  0  0  0  0
  -20.9520  -29.9390   21.6820 H   0  0  0  0  0  0  0  0  0  0  0  0
  -18.0560  -28.1990   22.8820 C   0  0  0  0  0  0  0  0  0  0  0  0
  -20.6250  -28.4050   23.1010 C   0  0  0  0  0  3  0  0  0  0  0  0
  -20.6880  -26.9980   22.4640 C   0  0  0  0  0  2  0  0  0  0  0  0
  -19.5570  -26.7360   21.4650 C   0  0  0  0  0  2  0  0  0  0  0  0
  -18.1930  -26.8780   22.1460 C   0  0  0  0  0  2  0  0  0  0  0  0
  -19.1980  -28.9240   23.3170 C   0  0  0  0  0  0  0  0  0  0  0  0
  -19.0140  -30.1640   23.9670 C   0  0  0  0  0  3  0  0  0  0  0  0
  -17.7220  -30.6780   24.1860 C   0  0  0  0  0  3  0  0  0  0  0  0
  -16.5960  -29.9500   23.7650 C   0  0  0  0  0  3  0  0  0  0  0  0
  -16.7630  -28.7120   23.1190 C   0  0  0  0  0  3  0  0  0  0  0  0
  -25.8750  -32.5820   23.8590 C   0  0  0  0  0  3  0  0  0  0  0  0
  -26.3820  -31.7970   25.1320 C   0  0  1  0  0  0  0  0  0  0  0  0
  -25.2700  -31.5170   26.1710 C   0  0  0  0  0  1  0  0  0  0  0  0
  -26.9990  -30.4380   24.7260 C   0  0  0  0  0  1  0  0  0  0  0  0
  -27.5030  -32.6010   25.8310 C   0  0  0  0  0  1  0  0  0  0  0  0
  -25.5490  -33.9720   24.2090 N   0  0  0  0  0  0  0  0  0  0  0  0
  -25.8790  -35.0400   23.4710 C   0  0  0  0  0  0  0  0  0  0  0  0
  -26.5580  -34.9590   22.4440 O   0  0  0  0  0  0  0  0  0  0  0  0
  -24.9450  -34.1100   25.0070 H   0  0  0  0  0  0  0  0  0  0  0  0
  -24.1400  -36.8250   23.1250 C   0  0  0  0  0  1  0  0  0  0  0  0
  -25.3750  -36.4170   23.9460 C   0  0  0  0  0  3  0  0  0  0  0  0
  -27.4880  -37.3090   24.8240 C   0  0  0  0  0  1  0  0  0  0  0  0
  -26.4010  -37.4800   23.8630 N   0  0  0  0  0  0  0  0  0  0  0  0
  -25.9850  -38.3960   24.0130 H   0  0  0  0  0  0  0  0  0  0  0  0
  2  1  2  0
  3  6  2  0
  3  4  1  0
  4  5  2  0
  5  1  1  0
  5  7  1  0
  6  2  1  0
  8  9  2  0
  8  4  1  0
  9 10  1  0
 11  8  1  0
 12 17  1  0
 13 14  1  0
 13 12  1  0
 15 14  1  0
 15 22  1  0
 15 16  1  0
 17 11  1  0
 17 16  1  0
 18 11  2  0
 19 20  2  0
 20 39  1  0
 21 20  1  0
 21 24  1  0
 22 23  1  0
 22 19  1  0
 23 21  2  0
 24 25  1  0
 25 26  2  0
 27 30  1  0
 27 26  1  0
 28 27  2  0
 29 28  1  0
 29 24  2  0
 30 31  1  0
 31 32  1  0
 32 33  2  0
 34 33  1  0
 34 38  1  0
 35 34  2  0
 36 31  2  0
 36 35  1  0
 37 36  1  0
 39 40  1  0
 40 43  1  0
 40 42  1  0
 41 39  2  0
 44 19  1  0
 44 45  1  0
 46 44  1  0
 47 48  1  0
 47  6  1  0
 49 48  1  0
 50 49  2  0
 50 51  1  0
 52 63  2  0
 53 51  1  0
 53 58  1  0
 54 62  1  0
 54 64  1  0
 55 61  1  0
 55 57  1  0
 56 62  1  0
 57 56  1  0
 58 57  2  0
 59 53  2  0
 60 59  1  0
 60 55  2  0
 61 54  1  0
 62 52  1  0
 64 66  2  0
 65 64  1  0
 67 65  1  0
 68 77  2  0
 68 73  1  0
 69 65  1  0
 69 73  1  0
 70 69  1  0
 71 72  1  0
 71 70  1  0
 72 68  1  0
 73 74  2  0
 74 75  1  0
 76 75  2  0
 77 76  1  0
 78 52  1  0
 78 83  1  0
 78 79  1  0
 79 82  1  1
 79 80  1  0
 81 79  1  0
 83 86  1  0
 84 88  1  0
 84 83  1  0
 85 84  2  0
 88 87  1  0
 90 88  1  0
 90 91  1  0
 90 89  1  0
M  ISO  4   8 100  11 100  50 101  51 101
M  END
>  <TORSDO>  (57) 
F 20

>  <SCORE>  (57) 
-13.048

>  <name>  (57) 
56

>  <ligand_id>  (57) 
56

>  <original_smiles>  (57) 
[H]N=C(C(=O)N1C([H])([H])C([H])([H])C([H])([H])C([H])(n2nc(-c3c([H])c([H])c(Oc4c([H])c([H])c(F)c([H])c4F)c([H])c3[H])c(C(=O)N([H])[H])c2N([H])[H])C1([H])[H])c1c([H])c(OC([H])([H])C([H])=C([H])Oc2c([H])c([H])c3c(c2[H])C([H])([H])N(C(=O)C([H])(N([H])C(=O)C([H])(N([H])C([H])([H])[H])C([H])([H])[H])C(C([H])([H])[H])(C([H])([H])[H])C([H])([H])[H])C([H])(C(=O)N([H])C2([H])c4c([H])c([H])c([H])c([H])c4C([H])([H])C([H])([H])C2([H])[H])C3([H])[H])c([H])c([H])c1C([H])([H])[H]

>  <smiles>  (57) 
[H]N=C(C(=O)N1C([H])([H])C([H])([H])C([H])([H])C([H])(n2nc(-c3c([H])c([H])c(Oc4c([H])c([H])c(F)c([H])c4F)c([H])c3[H])c(C(=O)N([H])[H])c2N([H])[H])C1([H])[H])c1c([H])c(OC([H])([H])C([H])=C([H])Oc2c([H])c([H])c3c(c2[H])C([H])([H])N(C(=O)C([H])(N([H])C(=O)C([H])(N([H])C([H])([H])[H])C([H])([H])[H])C(C([H])([H])[H])(C([H])([H])[H])C([H])([H])[H])C([H])(C(=O)N([H])C2([H])c4c([H])c([H])c([H])c([H])c4C([H])([H])C([H])([H])C2([H])[H])C3([H])[H])c([H])c([H])c1C([H])([H])[H]

$$$$
57:0:0
     RDKit          3D

 94102  0  0  1  0  0  0  0  0999 V2000
  -32.0900  -19.9420   22.7200 C   0  0  0  0  0  3  0  0  0  0  0  0
  -32.0000  -20.5340   21.4550 C   0  0  0  0  0  3  0  0  0  0  0  0
  -31.1720  -17.9620   21.7480 C   0  0  0  0  0  0  0  0  0  0  0  0
  -31.6290  -18.3210   20.4260 C   0  0  0  0  0  0  0  0  0  0  0  0
  -31.5730  -18.6630   22.9160 C   0  0  0  0  0  0  0  0  0  0  0  0
  -31.7140  -19.8640   20.2330 C   0  0  0  0  0  0  0  0  0  0  0  0
  -29.7790  -17.3530   21.8270 C   0  0  0  0  0  1  0  0  0  0  0  0
  -32.5620  -15.7860   19.7850 C   0  0  0  0  0  0  0  0  0  0  0  0
  -32.5330  -13.2810   19.1290 C   0  0  0  0  0  2  0  0  0  0  0  0
  -31.5940  -12.9490   17.9390 C   0  0  0  0  0  2  0  0  0  0  0  0
  -30.1160  -12.8250   18.3840 C   0  0  0  0  0  2  0  0  0  0  0  0
  -29.7010  -13.9190   19.4170 C   0  0  0  0  0  3  0  0  0  0  0  0
  -30.7770  -14.0060   20.5210 C   0  0  0  0  0  2  0  0  0  0  0  0
  -31.9860  -14.4950   19.8450 N   0  0  0  0  0  0  0  0  0  0  0  0
  -33.7810  -15.7520   19.5430 O   0  0  0  0  0  0  0  0  0  0  0  0
  -31.9320  -17.4650   18.1140 C   0  0  0  0  0  1  0  0  0  0  0  0
  -31.8400  -17.0510   19.5300 N   0  0  0  0  0  0  0  0  0  0  0  0
  -27.3810  -14.6850   20.2170 C   0  0  0  0  0  0  0  0  0  0  0  0
  -26.2580  -14.0010   20.5890 C   0  0  0  0  0  0  0  0  0  0  0  0
  -26.6000  -12.6150   20.5200 C   0  0  0  0  0  0  0  0  0  0  0  0
  -28.3460  -13.7280   19.9410 N   0  0  0  0  0  0  0  0  0  0  0  0
  -27.8800  -12.4740   20.1850 N   0  0  0  0  0  0  0  0  0  0  0  0
  -25.7670  -11.4180   20.7000 C   0  0  0  0  0  0  0  0  0  0  0  0
  -26.0240  -10.4880   21.7290 C   0  0  0  0  0  3  0  0  0  0  0  0
  -25.1990   -9.3550   21.8980 C   0  0  0  0  0  3  0  0  0  0  0  0
  -24.0990   -9.1410   21.0340 C   0  0  0  0  0  0  0  0  0  0  0  0
  -23.8590  -10.0590   19.9990 C   0  0  0  0  0  3  0  0  0  0  0  0
  -24.6830  -11.1830   19.8280 C   0  0  0  0  0  3  0  0  0  0  0  0
  -23.2680   -8.0500   21.0990 O   0  0  0  0  0  0  0  0  0  0  0  0
  -22.6590   -7.6790   22.2700 C   0  0  0  0  0  0  0  0  0  0  0  0
  -21.8470   -8.5710   23.0040 C   0  0  0  0  0  3  0  0  0  0  0  0
  -21.1820   -8.1280   24.1660 C   0  0  0  0  0  3  0  0  0  0  0  0
  -21.3210   -6.7940   24.5890 C   0  0  0  0  0  0  0  0  0  0  0  0
  -22.1290   -5.9040   23.8620 C   0  0  0  0  0  3  0  0  0  0  0  0
  -22.7950   -6.3440   22.7040 C   0  0  0  0  0  0  0  0  0  0  0  0
  -23.5550   -5.4760   21.9940 F   0  0  0  0  0  0  0  0  0  0  0  0
  -20.6750   -6.3660   25.7000 F   0  0  0  0  0  0  0  0  0  0  0  0
  -24.9110  -14.5920   20.9000 C   0  0  0  0  0  0  0  0  0  0  0  0
  -24.1750  -13.9820   21.8190 N   0  0  0  0  0  0  0  0  0  0  0  0
  -24.5300  -15.6350   20.3640 O   0  0  0  0  0  0  0  0  0  0  0  0
  -24.5040  -13.1380   22.2690 H   0  0  0  0  0  0  0  0  0  0  0  0
  -23.2770  -14.3630   22.0810 H   0  0  0  0  0  0  0  0  0  0  0  0
  -27.6460  -16.0420   20.0560 N   0  0  0  0  0  0  0  0  0  0  0  0
  -26.9120  -16.7320   20.1760 H   0  0  0  0  0  0  0  0  0  0  0  0
  -28.4930  -16.4310   19.6600 H   0  0  0  0  0  0  0  0  0  0  0  0
  -30.9350  -17.0060   24.6380 C   0  0  0  0  0  1  0  0  0  0  0  0
  -31.3630  -18.3180   24.2470 O   0  0  0  0  0  0  0  0  0  0  0  0
  -31.5440  -20.8590   19.1220 O   0  0  0  0  0  0  0  0  0  0  0  0
  -32.7480  -23.0710   18.8470 C   0  0  0  0  0  1  0  0  0  0  0  0
  -31.4030  -22.4630   19.3130 C   0  0  0  0  0  3  0  0  0  0  0  0
  -30.2450  -23.4970   18.6120 C   0  0  0  0  0  0  0  0  0  0  0  0
  -29.9380  -23.2650   17.4370 O   0  0  0  0  0  0  0  0  0  0  0  0
  -29.4530  -24.8050   19.3690 C   0  0  0  0  0  2  0  0  0  0  0  0
  -29.2260  -26.2940   18.8260 O   0  0  0  0  0  0  0  0  0  0  0  0
  -24.9190  -30.6520   23.0960 C   0  0  0  0  0  0  0  0  0  0  0  0
  -28.0340  -27.1050   19.0770 C   0  0  0  0  0  0  0  0  0  0  0  0
  -23.8640  -29.4360   21.2290 C   0  0  0  0  0  3  0  0  0  0  0  0
  -25.4600  -28.4620   19.4530 C   0  0  0  0  0  0  0  0  0  0  0  0
  -26.3270  -30.1620   21.0470 C   0  0  0  0  0  2  0  0  0  0  0  0
  -26.5910  -28.9530   20.1200 C   0  0  0  0  0  0  0  0  0  0  0  0
  -27.8750  -28.2980   19.9110 C   0  0  0  0  0  3  0  0  0  0  0  0
  -26.8570  -26.7350   18.3960 C   0  0  0  0  0  3  0  0  0  0  0  0
  -25.6090  -27.3830   18.5680 C   0  0  0  0  0  3  0  0  0  0  0  0
  -24.1060  -29.1090   19.7280 C   0  0  0  0  0  2  0  0  0  0  0  0
  -25.0580  -30.1000   21.8490 N   0  0  0  0  0  0  0  0  0  0  0  0
  -23.8390  -30.6200   23.7070 O   0  0  0  0  0  0  0  0  0  0  0  0
  -23.4250  -28.1490   21.9730 C   0  0  0  0  0  0  0  0  0  0  0  0
  -22.1760  -27.7000   21.7550 N   0  0  0  0  0  0  0  0  0  0  0  0
  -24.2150  -27.5610   22.7180 O   0  0  0  0  0  0  0  0  0  0  0  0
  -21.5790  -28.2400   21.1450 H   0  0  0  0  0  0  0  0  0  0  0  0
  -19.2530  -25.5550   21.7030 C   0  0  0  0  0  0  0  0  0  0  0  0
  -21.5930  -26.4750   22.3120 C   0  0  0  0  0  3  0  0  0  0  0  0
  -22.1540  -25.2190   21.6040 C   0  0  0  0  0  2  0  0  0  0  0  0
  -21.2860  -24.7470   20.4330 C   0  0  0  0  0  2  0  0  0  0  0  0
  -19.8690  -24.4160   20.9110 C   0  0  0  0  0  2  0  0  0  0  0  0
  -20.0600  -26.5310   22.3490 C   0  0  0  0  0  0  0  0  0  0  0  0
  -19.4310  -27.5830   23.0470 C   0  0  0  0  0  3  0  0  0  0  0  0
  -18.0270  -27.6730   23.1050 C   0  0  0  0  0  3  0  0  0  0  0  0
  -17.2340  -26.6980   22.4720 C   0  0  0  0  0  3  0  0  0  0  0  0
  -17.8480  -25.6420   21.7780 C   0  0  0  0  0  3  0  0  0  0  0  0
  -26.1080  -31.3620   23.8110 C   0  0  0  0  0  3  0  0  0  0  0  0
  -25.6660  -32.7160   24.1860 N   0  0  0  0  0  0  0  0  0  0  0  0
  -26.0320  -33.8420   23.5580 C   0  0  0  0  0  0  0  0  0  0  0  0
  -26.8360  -33.8510   22.6220 O   0  0  0  0  0  0  0  0  0  0  0  0
  -24.9630  -32.7750   24.9060 H   0  0  0  0  0  0  0  0  0  0  0  0
  -24.2660  -35.5790   23.0980 C   0  0  0  0  0  1  0  0  0  0  0  0
  -25.4070  -35.1660   24.0420 C   0  0  0  0  0  3  0  0  0  0  0  0
  -27.3550  -36.0860   25.2210 C   0  0  0  0  0  1  0  0  0  0  0  0
  -26.3810  -36.2740   24.1480 N   0  0  0  0  0  0  0  0  0  0  0  0
  -25.9060  -37.1590   24.3030 H   0  0  0  0  0  0  0  0  0  0  0  0
  -26.6140  -30.5830   25.0880 C   0  0  1  0  0  0  0  0  0  0  0  0
  -25.4920  -30.2520   26.1010 C   0  0  0  0  0  1  0  0  0  0  0  0
  -27.2900  -29.2540   24.6810 C   0  0  0  0  0  1  0  0  0  0  0  0
  -27.6890  -31.4210   25.8210 C   0  0  0  0  0  1  0  0  0  0  0  0
  1  5  1  0
  2  1  2  0
  3  7  1  0
  3  5  2  0
  4  3  1  0
  5 47  1  0
  6  4  2  0
  6  2  1  0
  8 14  1  0
  9 14  1  0
 10 11  1  0
 10  9  1  0
 12 11  1  0
 12 21  1  0
 12 13  1  0
 14 13  1  0
 15  8  2  0
 16 17  1  0
 17  8  1  0
 17  4  1  0
 18 19  2  0
 19 38  1  0
 20 19  1  0
 20 23  1  0
 21 22  1  0
 21 18  1  0
 22 20  2  0
 23 24  1  0
 24 25  2  0
 26 29  1  0
 26 25  1  0
 27 26  2  0
 28 27  1  0
 28 23  2  0
 29 30  1  0
 30 35  2  0
 30 31  1  0
 31 32  2  0
 32 33  1  0
 33 37  1  0
 34 33  2  0
 35 34  1  0
 36 35  1  0
 38 39  1  0
 39 42  1  0
 39 41  1  0
 40 38  2  0
 43 44  1  0
 43 18  1  0
 45 43  1  0
 47 46  1  0
 48 50  1  0
 48  6  1  0
 50 49  1  0
 51 50  1  0
 51 53  1  0
 52 51  2  0
 54 56  1  0
 54 53  1  0
 55 66  2  0
 56 61  1  0
 57 65  1  0
 57 67  1  0
 58 64  1  0
 58 60  1  0
 59 65  1  0
 60 59  1  0
 61 60  2  0
 62 63  1  0
 62 56  2  0
 63 58  2  0
 64 57  1  0
 65 55  1  0
 67 69  2  0
 68 67  1  0
 70 68  1  0
 71 80  2  0
 71 76  1  0
 72 68  1  0
 72 76  1  0
 73 72  1  0
 74 75  1  0
 74 73  1  0
 75 71  1  0
 76 77  2  0
 77 78  1  0
 79 78  2  0
 80 79  1  0
 81 55  1  0
 81 82  1  0
 81 91  1  0
 82 85  1  0
 83 87  1  0
 83 82  1  0
 84 83  2  0
 87 86  1  0
 87 89  1  0
 89 90  1  0
 89 88  1  0
 91 94  1  1
 91 92  1  0
 93 91  1  0
M  ISO  4   8 100  17 100  53 101  54 101
M  END
>  <TORSDO>  (58) 
F 21

>  <SCORE>  (58) 
-5.307

>  <name>  (58) 
57

>  <ligand_id>  (58) 
57

>  <original_smiles>  (58) 
[H]c1c([H])c([H])c2c(c1[H])C([H])([H])C([H])([H])C([H])([H])C2([H])N([H])C(=O)C1([H])N(C(=O)C([H])(N([H])C(=O)C([H])(N([H])C([H])([H])[H])C([H])([H])[H])C(C([H])([H])[H])(C([H])([H])[H])C([H])([H])[H])C([H])([H])c2c([H])c(OC([H])([H])C(=O)C([H])(Oc3c([H])c([H])c(OC([H])([H])[H])c(C([H])([H])[H])c3N(C(=O)N3C([H])([H])C([H])([H])C([H])([H])C([H])(n4nc(-c5c([H])c([H])c(Oc6c([H])c([H])c(F)c([H])c6F)c([H])c5[H])c(C(=O)N([H])[H])c4N([H])[H])C3([H])[H])C([H])([H])[H])C([H])([H])[H])c([H])c([H])c2C1([H])[H]

>  <smiles>  (58) 
[H]c1c([H])c([H])c2c(c1[H])C([H])([H])C([H])([H])C([H])([H])C2([H])N([H])C(=O)C1([H])N(C(=O)C([H])(N([H])C(=O)C([H])(N([H])C([H])([H])[H])C([H])([H])[H])C(C([H])([H])[H])(C([H])([H])[H])C([H])([H])[H])C([H])([H])c2c([H])c(OC([H])([H])C(=O)C([H])(Oc3c([H])c([H])c(OC([H])([H])[H])c(C([H])([H])[H])c3N(C(=O)N3C([H])([H])C([H])([H])C([H])([H])C([H])(n4nc(-c5c([H])c([H])c(Oc6c([H])c([H])c(F)c([H])c6F)c([H])c5[H])c(C(=O)N([H])[H])c4N([H])[H])C3([H])[H])C([H])([H])[H])C([H])([H])[H])c([H])c([H])c2C1([H])[H]

$$$$
58:0:0
     RDKit          3D

 97105  0  0  1  0  0  0  0  0999 V2000
  -29.8210  -21.9160   23.3810 C   0  0  0  0  0  3  0  0  0  0  0  0
  -30.1850  -20.6050   23.0140 C   0  0  0  0  0  3  0  0  0  0  0  0
  -28.6900  -22.2120   21.2450 C   0  0  0  0  0  3  0  0  0  0  0  0
  -29.0870  -22.7300   22.4950 C   0  0  0  0  0  0  0  0  0  0  0  0
  -29.0280  -20.8890   20.8930 C   0  0  0  0  0  0  0  0  0  0  0  0
  -29.8050  -20.0800   21.7550 C   0  0  0  0  0  0  0  0  0  0  0  0
  -28.7300  -24.1280   22.8970 C   0  0  0  0  0  0  0  0  0  0  0  0
  -29.2020  -26.4030   22.2190 C   0  0  0  0  0  0  0  0  0  0  0  0
  -29.2090  -25.0650   22.0700 N   0  0  0  0  0  0  0  0  0  0  0  0
  -28.0890  -24.3160   23.9370 O   0  0  0  0  0  0  0  0  0  0  0  0
  -28.6680  -27.0100   23.1540 O   0  0  0  0  0  0  0  0  0  0  0  0
  -29.6980  -24.7130   21.2640 H   0  0  0  0  0  0  0  0  0  0  0  0
  -29.9350  -27.2010   21.1280 C   0  0  0  0  0  2  0  0  0  0  0  0
  -29.1550  -27.2520   19.9270 O   0  0  0  0  0  0  0  0  0  0  0  0
  -24.8600  -31.8700   23.2590 C   0  0  0  0  0  0  0  0  0  0  0  0
  -27.9520  -27.9210   19.9730 C   0  0  0  0  0  0  0  0  0  0  0  0
  -23.8060  -30.4710   21.5070 C   0  0  0  0  0  3  0  0  0  0  0  0
  -25.4150  -29.1640   20.0180 C   0  0  0  0  0  0  0  0  0  0  0  0
  -26.2800  -31.0820   21.3730 C   0  0  0  0  0  2  0  0  0  0  0  0
  -26.5030  -29.7650   20.6610 C   0  0  0  0  0  0  0  0  0  0  0  0
  -27.7700  -29.1530   20.6420 C   0  0  0  0  0  3  0  0  0  0  0  0
  -26.8550  -27.3360   19.3060 C   0  0  0  0  0  3  0  0  0  0  0  0
  -25.5830  -27.9460   19.3320 C   0  0  0  0  0  3  0  0  0  0  0  0
  -24.0920  -29.8950   20.0940 C   0  0  0  0  0  2  0  0  0  0  0  0
  -24.9970  -31.1560   22.1050 N   0  0  0  0  0  0  0  0  0  0  0  0
  -23.7540  -32.0120   23.7970 O   0  0  0  0  0  0  0  0  0  0  0  0
  -23.2400  -29.3420   22.3950 C   0  0  0  0  0  0  0  0  0  0  0  0
  -21.9330  -29.0740   22.2500 N   0  0  0  0  0  0  0  0  0  0  0  0
  -23.9720  -28.7140   23.1640 O   0  0  0  0  0  0  0  0  0  0  0  0
  -21.4060  -29.6410   21.6000 H   0  0  0  0  0  0  0  0  0  0  0  0
  -18.6510  -27.6170   22.6670 C   0  0  0  0  0  0  0  0  0  0  0  0
  -21.1870  -28.0240   22.9440 C   0  0  0  0  0  3  0  0  0  0  0  0
  -21.3800  -26.6550   22.2570 C   0  0  0  0  0  2  0  0  0  0  0  0
  -20.2940  -26.3370   21.2240 C   0  0  0  0  0  2  0  0  0  0  0  0
  -18.9100  -26.3400   21.8850 C   0  0  0  0  0  2  0  0  0  0  0  0
  -19.7210  -28.4160   23.1510 C   0  0  0  0  0  0  0  0  0  0  0  0
  -19.4260  -29.6110   23.8430 C   0  0  0  0  0  3  0  0  0  0  0  0
  -18.0940  -30.0160   24.0490 C   0  0  0  0  0  3  0  0  0  0  0  0
  -17.0390  -29.2160   23.5770 C   0  0  0  0  0  3  0  0  0  0  0  0
  -17.3180  -28.0180   22.8980 C   0  0  0  0  0  3  0  0  0  0  0  0
  -26.0790  -32.5680   23.9420 C   0  0  0  0  0  3  0  0  0  0  0  0
  -25.6770  -33.9460   24.2480 N   0  0  0  0  0  0  0  0  0  0  0  0
  -25.9970  -35.0150   23.5040 C   0  0  0  0  0  0  0  0  0  0  0  0
  -26.7310  -34.9480   22.5150 O   0  0  0  0  0  0  0  0  0  0  0  0
  -25.0280  -34.0700   25.0110 H   0  0  0  0  0  0  0  0  0  0  0  0
  -24.1970  -36.7080   23.0470 C   0  0  0  0  0  1  0  0  0  0  0  0
  -25.4120  -36.3750   23.9260 C   0  0  0  0  0  3  0  0  0  0  0  0
  -27.4540  -37.3710   24.8580 C   0  0  0  0  0  1  0  0  0  0  0  0
  -26.3920  -37.4810   23.8610 N   0  0  0  0  0  0  0  0  0  0  0  0
  -25.9300  -38.3770   23.9850 H   0  0  0  0  0  0  0  0  0  0  0  0
  -26.5760  -31.8250   25.2430 C   0  0  1  0  0  0  0  0  0  0  0  0
  -25.4460  -31.5170   26.2510 C   0  0  0  0  0  1  0  0  0  0  0  0
  -27.2570  -30.4860   24.8750 C   0  0  0  0  0  1  0  0  0  0  0  0
  -27.6400  -32.6850   25.9630 C   0  0  0  0  0  1  0  0  0  0  0  0
  -28.5980  -20.3670   19.6760 N   0  0  0  0  0  0  0  0  0  0  0  0
  -28.4090  -20.9940   18.9020 H   0  0  0  0  0  0  0  0  0  0  0  0
  -29.0050  -19.4800   19.3970 H   0  0  0  0  0  0  0  0  0  0  0  0
  -30.1590  -18.8170   21.3100 O   0  0  0  0  0  0  0  0  0  0  0  0
  -31.2670  -18.1700   21.9340 C   0  0  0  0  0  2  0  0  0  0  0  0
  -31.7020  -16.9590   21.1000 C   0  0  0  0  0  2  0  0  0  0  0  0
  -30.7540  -15.7370   21.1320 C   0  0  0  0  0  2  0  0  0  0  0  0
  -31.1960  -14.6320   20.1540 C   0  0  0  0  0  0  0  0  0  0  0  0
  -30.7790  -12.4760   19.0240 C   0  0  0  0  0  2  0  0  0  0  0  0
  -29.8040  -12.6670   17.8470 C   0  0  0  0  0  2  0  0  0  0  0  0
  -28.3470  -12.5610   18.3360 C   0  0  0  0  0  2  0  0  0  0  0  0
  -28.0660  -13.4550   19.5760 C   0  0  0  0  0  3  0  0  0  0  0  0
  -29.1530  -13.2510   20.6580 C   0  0  0  0  0  2  0  0  0  0  0  0
  -30.4660  -13.4930   20.0370 N   0  0  0  0  0  0  0  0  0  0  0  0
  -32.2140  -14.8230   19.4790 O   0  0  0  0  0  0  0  0  0  0  0  0
  -25.7340  -14.1380   20.4350 C   0  0  0  0  0  0  0  0  0  0  0  0
  -24.6430  -13.3980   20.8100 C   0  0  0  0  0  0  0  0  0  0  0  0
  -25.0300  -12.0300   20.6720 C   0  0  0  0  0  0  0  0  0  0  0  0
  -26.7210  -13.2230   20.1030 N   0  0  0  0  0  0  0  0  0  0  0  0
  -26.3000  -11.9460   20.2980 N   0  0  0  0  0  0  0  0  0  0  0  0
  -24.2480  -10.7940   20.8240 C   0  0  0  0  0  0  0  0  0  0  0  0
  -24.6590   -9.7630   21.6980 C   0  0  0  0  0  3  0  0  0  0  0  0
  -23.8800   -8.5960   21.8400 C   0  0  0  0  0  3  0  0  0  0  0  0
  -22.6800   -8.4490   21.1070 C   0  0  0  0  0  0  0  0  0  0  0  0
  -22.2870   -9.4690   20.2230 C   0  0  0  0  0  3  0  0  0  0  0  0
  -23.0640  -10.6290   20.0780 C   0  0  0  0  0  3  0  0  0  0  0  0
  -21.8720   -7.3370   21.1620 O   0  0  0  0  0  0  0  0  0  0  0  0
  -21.7810   -6.5690   22.2970 C   0  0  0  0  0  0  0  0  0  0  0  0
  -21.3830   -7.1170   23.5360 C   0  0  0  0  0  3  0  0  0  0  0  0
  -21.2350   -6.2810   24.6590 C   0  0  0  0  0  3  0  0  0  0  0  0
  -21.4740   -4.8980   24.5460 C   0  0  0  0  0  0  0  0  0  0  0  0
  -21.8660   -4.3500   23.3110 C   0  0  0  0  0  3  0  0  0  0  0  0
  -22.0160   -5.1830   22.1900 C   0  0  0  0  0  0  0  0  0  0  0  0
  -22.3720   -4.6480   20.9970 F   0  0  0  0  0  0  0  0  0  0  0  0
  -21.3240   -4.0920   25.6240 F   0  0  0  0  0  0  0  0  0  0  0  0
  -23.2880  -13.9250   21.1860 C   0  0  0  0  0  0  0  0  0  0  0  0
  -22.5730  -13.2180   22.0540 N   0  0  0  0  0  0  0  0  0  0  0  0
  -22.8760  -14.9980   20.7480 O   0  0  0  0  0  0  0  0  0  0  0  0
  -22.9180  -12.3460   22.4280 H   0  0  0  0  0  0  0  0  0  0  0  0
  -21.6690  -13.5570   22.3500 H   0  0  0  0  0  0  0  0  0  0  0  0
  -25.9570  -15.5080   20.3330 N   0  0  0  0  0  0  0  0  0  0  0  0
  -25.2350  -16.1900   20.5380 H   0  0  0  0  0  0  0  0  0  0  0  0
  -26.8190  -15.9280   20.0080 H   0  0  0  0  0  0  0  0  0  0  0  0
  2  1  1  0
  3  4  1  0
  4  7  1  0
  4  1  2  0
  5  3  2  0
  5  6  1  0
  6  2  2  0
  7 10  2  0
  8 11  2  0
  9  8  1  0
  9  7  1  0
 12  9  1  0
 13  8  1  0
 14 16  1  0
 14 13  1  0
 15 26  2  0
 16 21  1  0
 17 25  1  0
 17 27  1  0
 18 24  1  0
 18 20  1  0
 19 25  1  0
 20 19  1  0
 21 20  2  0
 22 23  1  0
 22 16  2  0
 23 18  2  0
 24 17  1  0
 25 15  1  0
 27 29  2  0
 28 27  1  0
 30 28  1  0
 31 40  2  0
 31 36  1  0
 32 28  1  0
 32 36  1  0
 33 32  1  0
 34 35  1  0
 34 33  1  0
 35 31  1  0
 36 37  2  0
 37 38  1  0
 39 38  2  0
 40 39  1  0
 41 15  1  0
 41 42  1  0
 41 51  1  0
 42 45  1  0
 43 47  1  0
 43 42  1  0
 44 43  2  0
 47 46  1  0
 49 47  1  0
 49 50  1  0
 49 48  1  0
 51 54  1  1
 51 52  1  0
 53 51  1  0
 55  5  1  0
 56 55  1  0
 57 55  1  0
 58  6  1  0
 58 59  1  0
 60 61  1  0
 60 59  1  0
 62 61  1  0
 63 68  1  0
 64 65  1  0
 64 63  1  0
 66 65  1  0
 66 73  1  0
 66 67  1  0
 68 62  1  0
 68 67  1  0
 69 62  2  0
 70 71  2  0
 71 90  1  0
 72 71  1  0
 72 75  1  0
 73 74  1  0
 73 70  1  0
 74 72  2  0
 75 76  1  0
 76 77  2  0
 78 81  1  0
 78 77  1  0
 79 78  2  0
 80 79  1  0
 80 75  2  0
 81 82  1  0
 82 83  1  0
 83 84  2  0
 85 84  1  0
 85 89  1  0
 86 85  2  0
 87 82  2  0
 87 86  1  0
 88 87  1  0
 90 91  1  0
 91 94  1  0
 91 93  1  0
 92 90  2  0
 95 70  1  0
 95 96  1  0
 97 95  1  0
M  ISO  4  13 101  14 101  61 100  62 100
M  END
>  <TORSDO>  (59) 
F 23

>  <SCORE>  (59) 
-10.313

>  <name>  (59) 
58

>  <ligand_id>  (59) 
58

>  <original_smiles>  (59) 
[H]c1c([H])c([H])c2c(c1[H])C([H])([H])C([H])([H])C([H])([H])C2([H])N([H])C(=O)C1([H])N(C(=O)C([H])(N([H])C(=O)C([H])(N([H])C([H])([H])[H])C([H])([H])[H])C(C([H])([H])[H])(C([H])([H])[H])C([H])([H])[H])C([H])([H])c2c([H])c(OC([H])([H])C(=O)N([H])C(=O)c3c([H])c([H])c(OC([H])([H])C([H])([H])C([H])([H])C(=O)N4C([H])([H])C([H])([H])C([H])([H])C([H])(n5nc(-c6c([H])c([H])c(Oc7c([H])c([H])c(F)c([H])c7F)c([H])c6[H])c(C(=O)N([H])[H])c5N([H])[H])C4([H])[H])c(N([H])[H])c3[H])c([H])c([H])c2C1([H])[H]

>  <smiles>  (59) 
[H]c1c([H])c([H])c2c(c1[H])C([H])([H])C([H])([H])C([H])([H])C2([H])N([H])C(=O)C1([H])N(C(=O)C([H])(N([H])C(=O)C([H])(N([H])C([H])([H])[H])C([H])([H])[H])C(C([H])([H])[H])(C([H])([H])[H])C([H])([H])[H])C([H])([H])c2c([H])c(OC([H])([H])C(=O)N([H])C(=O)c3c([H])c([H])c(OC([H])([H])C([H])([H])C([H])([H])C(=O)N4C([H])([H])C([H])([H])C([H])([H])C([H])(n5nc(-c6c([H])c([H])c(Oc7c([H])c([H])c(F)c([H])c7F)c([H])c6[H])c(C(=O)N([H])[H])c5N([H])[H])C4([H])[H])c(N([H])[H])c3[H])c([H])c([H])c2C1([H])[H]

$$$$
59:0:0
     RDKit          3D

 93101  0  0  1  0  0  0  0  0999 V2000
  -29.0690  -23.7880   20.4980 C   0  0  0  0  0  0  0  0  0  0  0  0
  -28.8390  -22.4480   20.1930 N   0  0  0  0  0  0  0  0  0  0  0  0
  -30.1680  -24.1770   20.9030 O   0  0  0  0  0  0  0  0  0  0  0  0
  -27.9940  -22.2970   19.6590 H   0  0  0  0  0  0  0  0  0  0  0  0
  -30.8140  -20.0570   22.4010 C   0  0  0  0  0  3  0  0  0  0  0  0
  -30.2310  -21.2260   21.8710 C   0  0  0  0  0  3  0  0  0  0  0  0
  -29.3950  -19.8980   20.0240 C   0  0  0  0  0  3  0  0  0  0  0  0
  -30.7140  -18.8020   21.7570 C   0  0  0  0  0  0  0  0  0  0  0  0
  -29.9970  -18.6730   20.5400 C   0  0  0  0  0  0  0  0  0  0  0  0
  -29.5040  -21.2030   20.6610 C   0  0  0  0  0  0  0  0  0  0  0  0
  -31.4300  -17.6210   22.3920 C   0  0  0  0  0  1  0  0  0  0  0  0
  -29.9980  -17.2960   19.7260 C   0  0  0  0  0  2  0  0  0  0  0  0
  -30.5850  -14.7610   20.0200 C   0  0  0  0  0  0  0  0  0  0  0  0
  -30.3000  -12.5080   18.9880 C   0  0  0  0  0  2  0  0  0  0  0  0
  -29.3120  -12.6300   17.8070 C   0  0  0  0  0  2  0  0  0  0  0  0
  -27.8610  -12.4640   18.2980 C   0  0  0  0  0  2  0  0  0  0  0  0
  -27.5540  -13.3210   19.5540 C   0  0  0  0  0  3  0  0  0  0  0  0
  -28.6630  -13.1980   20.6250 C   0  0  0  0  0  2  0  0  0  0  0  0
  -29.9410  -13.5440   19.9860 N   0  0  0  0  0  0  0  0  0  0  0  0
  -31.7300  -14.8610   19.5730 O   0  0  0  0  0  0  0  0  0  0  0  0
  -29.8530  -15.8950   20.3280 N   0  0  0  0  0  0  0  0  0  0  0  0
  -28.9550  -15.7120   20.7490 H   0  0  0  0  0  0  0  0  0  0  0  0
  -25.1980  -13.9110   20.3840 C   0  0  0  0  0  0  0  0  0  0  0  0
  -24.1470  -13.1360   20.7960 C   0  0  0  0  0  0  0  0  0  0  0  0
  -24.6060  -11.7840   20.7350 C   0  0  0  0  0  0  0  0  0  0  0  0
  -26.2290  -13.0320   20.0980 N   0  0  0  0  0  0  0  0  0  0  0  0
  -25.8820  -11.7470   20.3690 N   0  0  0  0  0  0  0  0  0  0  0  0
  -23.8840  -10.5230   20.9490 C   0  0  0  0  0  0  0  0  0  0  0  0
  -24.3440   -9.5540   21.8680 C   0  0  0  0  0  3  0  0  0  0  0  0
  -23.6220   -8.3580   22.0690 C   0  0  0  0  0  3  0  0  0  0  0  0
  -22.4260   -8.1210   21.3500 C   0  0  0  0  0  0  0  0  0  0  0  0
  -21.9860   -9.0770   20.4190 C   0  0  0  0  0  3  0  0  0  0  0  0
  -22.7080  -10.2650   20.2160 C   0  0  0  0  0  3  0  0  0  0  0  0
  -21.6730   -6.9760   21.4620 O   0  0  0  0  0  0  0  0  0  0  0  0
  -21.6500   -6.2410   22.6200 C   0  0  0  0  0  0  0  0  0  0  0  0
  -21.2530   -6.8040   23.8530 C   0  0  0  0  0  3  0  0  0  0  0  0
  -21.1750   -5.9940   25.0030 C   0  0  0  0  0  3  0  0  0  0  0  0
  -21.4840   -4.6230   24.9230 C   0  0  0  0  0  0  0  0  0  0  0  0
  -21.8740   -4.0590   23.6950 C   0  0  0  0  0  3  0  0  0  0  0  0
  -21.9540   -4.8670   22.5460 C   0  0  0  0  0  0  0  0  0  0  0  0
  -22.3080   -4.3140   21.3610 F   0  0  0  0  0  0  0  0  0  0  0  0
  -21.4030   -3.8430   26.0270 F   0  0  0  0  0  0  0  0  0  0  0  0
  -22.7640  -13.6140   21.1320 C   0  0  0  0  0  0  0  0  0  0  0  0
  -22.0720  -12.9140   22.0220 N   0  0  0  0  0  0  0  0  0  0  0  0
  -22.3070  -14.6450   20.6380 O   0  0  0  0  0  0  0  0  0  0  0  0
  -22.4560  -12.0820   22.4460 H   0  0  0  0  0  0  0  0  0  0  0  0
  -21.1450  -13.2170   22.2880 H   0  0  0  0  0  0  0  0  0  0  0  0
  -25.3560  -15.2830   20.2090 N   0  0  0  0  0  0  0  0  0  0  0  0
  -24.5940  -15.9360   20.3590 H   0  0  0  0  0  0  0  0  0  0  0  0
  -26.1810  -15.7210   19.8220 H   0  0  0  0  0  0  0  0  0  0  0  0
  -26.9300  -24.6110   21.5110 C   0  0  0  0  0  1  0  0  0  0  0  0
  -27.8950  -24.8700   20.3260 C   0  0  0  0  0  3  0  0  0  0  0  0
  -28.2470  -26.3480   20.2930 O   0  0  0  0  0  0  0  0  0  0  0  0
  -24.5970  -31.8980   23.2290 C   0  0  0  0  0  0  0  0  0  0  0  0
  -27.1890  -27.2900   20.1790 C   0  0  0  0  0  0  0  0  0  0  0  0
  -23.3950  -30.5030   21.5890 C   0  0  0  0  0  3  0  0  0  0  0  0
  -24.8460  -28.9580   20.1520 C   0  0  0  0  0  0  0  0  0  0  0  0
  -25.9410  -30.8010   21.4180 C   0  0  0  0  0  2  0  0  0  0  0  0
  -26.0180  -29.4220   20.7650 C   0  0  0  0  0  0  0  0  0  0  0  0
  -27.1920  -28.5990   20.7710 C   0  0  0  0  0  3  0  0  0  0  0  0
  -26.0070  -26.9220   19.4950 C   0  0  0  0  0  3  0  0  0  0  0  0
  -24.8470  -27.7170   19.5030 C   0  0  0  0  0  3  0  0  0  0  0  0
  -23.6100  -29.8350   20.2060 C   0  0  0  0  0  2  0  0  0  0  0  0
  -24.6640  -31.0860   22.1340 N   0  0  0  0  0  0  0  0  0  0  0  0
  -23.5130  -32.1800   23.7600 O   0  0  0  0  0  0  0  0  0  0  0  0
  -22.7260  -29.4880   22.5470 C   0  0  0  0  0  0  0  0  0  0  0  0
  -21.4000  -29.3090   22.4140 N   0  0  0  0  0  0  0  0  0  0  0  0
  -23.4000  -28.8650   23.3720 O   0  0  0  0  0  0  0  0  0  0  0  0
  -20.9150  -29.8650   21.7230 H   0  0  0  0  0  0  0  0  0  0  0  0
  -18.0220  -28.1010   22.8950 C   0  0  0  0  0  0  0  0  0  0  0  0
  -20.5780  -28.3730   23.1830 C   0  0  0  0  0  3  0  0  0  0  0  0
  -20.6890  -26.9380   22.6190 C   0  0  0  0  0  2  0  0  0  0  0  0
  -19.5970  -26.6040   21.5980 C   0  0  0  0  0  2  0  0  0  0  0  0
  -18.2110  -26.7480   22.2300 C   0  0  0  0  0  2  0  0  0  0  0  0
  -19.1340  -28.8700   23.3290 C   0  0  0  0  0  0  0  0  0  0  0  0
  -18.9050  -30.1340   23.9130 C   0  0  0  0  0  3  0  0  0  0  0  0
  -17.5960  -30.6320   24.0650 C   0  0  0  0  0  3  0  0  0  0  0  0
  -16.4990  -29.8600   23.6470 C   0  0  0  0  0  3  0  0  0  0  0  0
  -16.7130  -28.5950   23.0690 C   0  0  0  0  0  3  0  0  0  0  0  0
  -25.8780  -32.5310   23.8540 C   0  0  0  0  0  3  0  0  0  0  0  0
  -26.3900  -31.7590   25.1320 C   0  0  1  0  0  0  0  0  0  0  0  0
  -25.2960  -31.5240   26.1980 C   0  0  0  0  0  1  0  0  0  0  0  0
  -26.9720  -30.3800   24.7440 C   0  0  0  0  0  1  0  0  0  0  0  0
  -27.5420  -32.5510   25.7950 C   0  0  0  0  0  1  0  0  0  0  0  0
  -25.5670  -33.9290   24.1870 N   0  0  0  0  0  0  0  0  0  0  0  0
  -25.9020  -34.9850   23.4320 C   0  0  0  0  0  0  0  0  0  0  0  0
  -26.5750  -34.8840   22.4020 O   0  0  0  0  0  0  0  0  0  0  0  0
  -24.9680  -34.0810   24.9840 H   0  0  0  0  0  0  0  0  0  0  0  0
  -24.1760  -36.7830   23.0820 C   0  0  0  0  0  1  0  0  0  0  0  0
  -25.4160  -36.3730   23.8940 C   0  0  0  0  0  3  0  0  0  0  0  0
  -27.5510  -37.2520   24.7300 C   0  0  0  0  0  1  0  0  0  0  0  0
  -26.4510  -37.4250   23.7850 N   0  0  0  0  0  0  0  0  0  0  0  0
  -26.0460  -38.3450   23.9350 H   0  0  0  0  0  0  0  0  0  0  0  0
  1  3  2  0
  2  1  1  0
  2 10  1  0
  4  2  1  0
  6  5  1  0
  7  9  2  0
  7 10  1  0
  8 11  1  0
  8  5  2  0
  9  8  1  0
 10  6  2  0
 12 21  1  0
 12  9  1  0
 13 21  1  0
 14 19  1  0
 15 16  1  0
 15 14  1  0
 17 16  1  0
 17 26  1  0
 17 18  1  0
 19 13  1  0
 19 18  1  0
 20 13  2  0
 21 22  1  0
 23 24  2  0
 24 43  1  0
 25 24  1  0
 25 28  1  0
 26 27  1  0
 26 23  1  0
 27 25  2  0
 28 29  1  0
 29 30  2  0
 31 34  1  0
 31 30  1  0
 32 31  2  0
 33 32  1  0
 33 28  2  0
 34 35  1  0
 35 36  1  0
 36 37  2  0
 38 37  1  0
 38 42  1  0
 39 38  2  0
 40 35  2  0
 40 39  1  0
 41 40  1  0
 43 44  1  0
 44 47  1  0
 44 46  1  0
 45 43  2  0
 48 49  1  0
 48 23  1  0
 50 48  1  0
 52  1  1  0
 52 51  1  0
 53 52  1  0
 54 65  2  0
 55 53  1  0
 55 60  1  0
 56 64  1  0
 56 66  1  0
 57 63  1  0
 57 59  1  0
 58 64  1  0
 59 60  2  0
 59 58  1  0
 61 62  1  0
 61 55  2  0
 62 57  2  0
 63 56  1  0
 64 54  1  0
 66 68  2  0
 67 66  1  0
 69 67  1  0
 70 79  2  0
 70 75  1  0
 71 67  1  0
 71 75  1  0
 72 71  1  0
 73 74  1  0
 73 72  1  0
 74 70  1  0
 75 76  2  0
 76 77  1  0
 78 77  2  0
 79 78  1  0
 80 54  1  0
 80 85  1  0
 80 81  1  0
 81 84  1  1
 81 82  1  0
 83 81  1  0
 85 88  1  0
 86 90  1  0
 86 85  1  0
 87 86  2  0
 90 89  1  0
 92 90  1  0
 92 93  1  0
 92 91  1  0
M  ISO  4  13 100  21 100  52 101  53 101
M  END
>  <TORSDO>  (60) 
F 19

>  <SCORE>  (60) 
-13.981

>  <name>  (60) 
59

>  <ligand_id>  (60) 
59

>  <original_smiles>  (60) 
[H]c1c([H])c([H])c2c(c1[H])C([H])([H])C([H])([H])C([H])([H])C2([H])N([H])C(=O)C1([H])N(C(=O)C([H])(N([H])C(=O)C([H])(N([H])C([H])([H])[H])C([H])([H])[H])C(C([H])([H])[H])(C([H])([H])[H])C([H])([H])[H])C([H])([H])c2c([H])c(OC([H])(C(=O)N([H])c3c([H])c([H])c(C([H])([H])[H])c(C([H])([H])N([H])C(=O)N4C([H])([H])C([H])([H])C([H])([H])C([H])(n5nc(-c6c([H])c([H])c(Oc7c([H])c([H])c(F)c([H])c7F)c([H])c6[H])c(C(=O)N([H])[H])c5N([H])[H])C4([H])[H])c3[H])C([H])([H])[H])c([H])c([H])c2C1([H])[H]

>  <smiles>  (60) 
[H]c1c([H])c([H])c2c(c1[H])C([H])([H])C([H])([H])C([H])([H])C2([H])N([H])C(=O)C1([H])N(C(=O)C([H])(N([H])C(=O)C([H])(N([H])C([H])([H])[H])C([H])([H])[H])C(C([H])([H])[H])(C([H])([H])[H])C([H])([H])[H])C([H])([H])c2c([H])c(OC([H])(C(=O)N([H])c3c([H])c([H])c(C([H])([H])[H])c(C([H])([H])N([H])C(=O)N4C([H])([H])C([H])([H])C([H])([H])C([H])(n5nc(-c6c([H])c([H])c(Oc7c([H])c([H])c(F)c([H])c7F)c([H])c6[H])c(C(=O)N([H])[H])c5N([H])[H])C4([H])[H])c3[H])C([H])([H])[H])c([H])c([H])c2C1([H])[H]

$$$$
60:0:0
     RDKit          3D

 99108  0  0  1  0  0  0  0  0999 V2000
  -29.1410  -24.2920   19.7690 C   0  0  0  0  0  0  0  0  0  0  0  0
  -29.0580  -22.9410   20.0790 C   0  0  0  0  0  0  0  0  0  0  0  0
  -30.1160  -24.6830   18.7190 C   0  0  0  0  0  0  0  0  0  0  0  0
  -30.6070  -23.5790   17.7810 C   0  0  0  0  0  2  0  0  0  0  0  0
  -30.9200  -22.2840   18.5480 C   0  0  0  0  0  2  0  0  0  0  0  0
  -28.1130  -22.4100   21.1500 C   0  0  0  0  0  1  0  0  0  0  0  0
  -29.8410  -21.9130   19.4660 N   0  0  0  0  0  0  0  0  0  0  0  0
  -30.5590  -25.8250   18.5630 O   0  0  0  0  0  0  0  0  0  0  0  0
  -29.0270  -18.1850   19.7380 C   0  0  0  0  0  3  0  0  0  0  0  0
  -28.8900  -19.5900   19.4990 C   0  0  0  0  0  3  0  0  0  0  0  0
  -31.1360  -19.9420   20.2700 C   0  0  0  0  0  3  0  0  0  0  0  0
  -30.2160  -17.6130   20.2700 C   0  0  0  0  0  0  0  0  0  0  0  0
  -29.9330  -20.5120   19.7870 C   0  0  0  0  0  0  0  0  0  0  0  0
  -31.2810  -18.5390   20.5070 C   0  0  0  0  0  0  0  0  0  0  0  0
  -30.3090  -16.1550   20.7650 C   0  0  0  0  0  0  0  0  0  0  0  0
  -29.8970  -15.9480   21.9460 N   0  0  0  0  0  0  0  0  0  0  0  0
  -29.5690  -16.8120   22.3610 H   0  0  0  0  0  0  0  0  0  0  0  0
  -30.9480  -15.0010   19.8860 C   0  0  0  0  0  0  0  0  0  0  0  0
  -30.6670  -12.7980   18.7420 C   0  0  0  0  0  2  0  0  0  0  0  0
  -29.6080  -12.9330   17.6200 C   0  0  0  0  0  2  0  0  0  0  0  0
  -28.1760  -12.7480   18.1620 C   0  0  0  0  0  2  0  0  0  0  0  0
  -27.9270  -13.5620   19.4570 C   0  0  0  0  0  3  0  0  0  0  0  0
  -29.0750  -13.3170   20.4540 C   0  0  0  0  0  2  0  0  0  0  0  0
  -30.3290  -13.7640   19.8150 N   0  0  0  0  0  0  0  0  0  0  0  0
  -31.9870  -15.2190   19.2530 O   0  0  0  0  0  0  0  0  0  0  0  0
  -25.6190  -14.1430   20.4300 C   0  0  0  0  0  0  0  0  0  0  0  0
  -24.5800  -13.3620   20.8570 C   0  0  0  0  0  0  0  0  0  0  0  0
  -25.0150  -12.0110   20.7010 C   0  0  0  0  0  0  0  0  0  0  0  0
  -26.6230  -13.2680   20.0470 N   0  0  0  0  0  0  0  0  0  0  0  0
  -26.2680  -11.9760   20.2630 N   0  0  0  0  0  0  0  0  0  0  0  0
  -24.2890  -10.7480   20.8860 C   0  0  0  0  0  0  0  0  0  0  0  0
  -24.7150   -9.7850   21.8260 C   0  0  0  0  0  3  0  0  0  0  0  0
  -23.9930   -8.5850   21.9980 C   0  0  0  0  0  3  0  0  0  0  0  0
  -22.8280   -8.3410   21.2300 C   0  0  0  0  0  0  0  0  0  0  0  0
  -22.4220   -9.2940   20.2800 C   0  0  0  0  0  3  0  0  0  0  0  0
  -23.1460  -10.4850   20.1060 C   0  0  0  0  0  3  0  0  0  0  0  0
  -22.0770   -7.1940   21.3120 O   0  0  0  0  0  0  0  0  0  0  0  0
  -21.9240   -6.5160   22.4950 C   0  0  0  0  0  0  0  0  0  0  0  0
  -21.3720   -7.1290   23.6400 C   0  0  0  0  0  3  0  0  0  0  0  0
  -21.1700   -6.3750   24.8140 C   0  0  0  0  0  3  0  0  0  0  0  0
  -21.5110   -5.0100   24.8410 C   0  0  0  0  0  0  0  0  0  0  0  0
  -22.0540   -4.3950   23.6990 C   0  0  0  0  0  3  0  0  0  0  0  0
  -22.2580   -5.1460   22.5290 C   0  0  0  0  0  0  0  0  0  0  0  0
  -22.7630   -4.5440   21.4250 F   0  0  0  0  0  0  0  0  0  0  0  0
  -21.3090   -4.2830   25.9660 F   0  0  0  0  0  0  0  0  0  0  0  0
  -23.2240  -13.8370   21.2960 C   0  0  0  0  0  0  0  0  0  0  0  0
  -22.5970  -13.1280   22.2280 N   0  0  0  0  0  0  0  0  0  0  0  0
  -22.7330  -14.8720   20.8470 O   0  0  0  0  0  0  0  0  0  0  0  0
  -23.0080  -12.2920   22.6170 H   0  0  0  0  0  0  0  0  0  0  0  0
  -21.6910  -13.4270   22.5610 H   0  0  0  0  0  0  0  0  0  0  0  0
  -25.7840  -15.5210   20.3190 N   0  0  0  0  0  0  0  0  0  0  0  0
  -25.0450  -16.1710   20.5630 H   0  0  0  0  0  0  0  0  0  0  0  0
  -26.6260  -15.9770   19.9920 H   0  0  0  0  0  0  0  0  0  0  0  0
  -32.4510  -18.0590   21.0490 O   0  0  0  0  0  0  0  0  0  0  0  0
  -33.6420  -18.7800   20.7600 C   0  0  0  0  0  2  0  0  0  0  0  0
  -35.3540  -18.9660   18.8660 C   0  0  0  0  0  1  0  0  0  0  0  0
  -34.2840  -18.1020   19.5430 C   0  0  0  0  0  2  0  0  0  0  0  0
  -28.2910  -25.4420   20.4350 C   0  0  0  0  0  2  0  0  0  0  0  0
  -28.4840  -26.8590   20.0480 O   0  0  0  0  0  0  0  0  0  0  0  0
  -24.7700  -32.0680   23.3880 C   0  0  0  0  0  0  0  0  0  0  0  0
  -27.3500  -27.6810   20.0870 C   0  0  0  0  0  0  0  0  0  0  0  0
  -23.5340  -30.7210   21.7250 C   0  0  0  0  0  3  0  0  0  0  0  0
  -24.9610  -29.2450   20.2030 C   0  0  0  0  0  0  0  0  0  0  0  0
  -26.0610  -31.0750   21.4900 C   0  0  0  0  0  2  0  0  0  0  0  0
  -26.1380  -29.7260   20.7900 C   0  0  0  0  0  0  0  0  0  0  0  0
  -27.3350  -28.9560   20.7270 C   0  0  0  0  0  3  0  0  0  0  0  0
  -26.1550  -27.2560   19.4640 C   0  0  0  0  0  3  0  0  0  0  0  0
  -24.9710  -28.0120   19.5310 C   0  0  0  0  0  3  0  0  0  0  0  0
  -23.7140  -30.0970   20.3180 C   0  0  0  0  0  2  0  0  0  0  0  0
  -24.8080  -31.3040   22.2580 N   0  0  0  0  0  0  0  0  0  0  0  0
  -23.7010  -32.3150   23.9630 O   0  0  0  0  0  0  0  0  0  0  0  0
  -22.9060  -29.6640   22.6630 C   0  0  0  0  0  0  0  0  0  0  0  0
  -21.5920  -29.4290   22.5120 N   0  0  0  0  0  0  0  0  0  0  0  0
  -23.6010  -29.0580   23.4840 O   0  0  0  0  0  0  0  0  0  0  0  0
  -21.0900  -29.9710   21.8220 H   0  0  0  0  0  0  0  0  0  0  0  0
  -18.2840  -28.0120   22.8740 C   0  0  0  0  0  0  0  0  0  0  0  0
  -20.8040  -28.4470   23.2570 C   0  0  0  0  0  3  0  0  0  0  0  0
  -21.0300  -27.0200   22.7080 C   0  0  0  0  0  2  0  0  0  0  0  0
  -20.0010  -26.6130   21.6480 C   0  0  0  0  0  2  0  0  0  0  0  0
  -18.5830  -26.6710   22.2240 C   0  0  0  0  0  2  0  0  0  0  0  0
  -19.3280  -28.8530   23.3420 C   0  0  0  0  0  0  0  0  0  0  0  0
  -18.9970  -30.1050   23.9050 C   0  0  0  0  0  3  0  0  0  0  0  0
  -17.6550  -30.5180   24.0050 C   0  0  0  0  0  3  0  0  0  0  0  0
  -16.6260  -29.6740   23.5550 C   0  0  0  0  0  3  0  0  0  0  0  0
  -16.9400  -28.4240   22.9930 C   0  0  0  0  0  3  0  0  0  0  0  0
  -26.0680  -32.6830   23.9990 C   0  0  0  0  0  3  0  0  0  0  0  0
  -25.7660  -34.0730   24.3690 N   0  0  0  0  0  0  0  0  0  0  0  0
  -26.1270  -35.1470   23.6540 C   0  0  0  0  0  0  0  0  0  0  0  0
  -26.8190  -35.0710   22.6350 O   0  0  0  0  0  0  0  0  0  0  0  0
  -25.1550  -34.2070   25.1610 H   0  0  0  0  0  0  0  0  0  0  0  0
  -24.4450  -36.9840   23.3010 C   0  0  0  0  0  1  0  0  0  0  0  0
  -25.6430  -36.5240   24.1470 C   0  0  0  0  0  3  0  0  0  0  0  0
  -27.7580  -37.3320   25.0970 C   0  0  0  0  0  1  0  0  0  0  0  0
  -26.6950  -37.5630   24.1220 N   0  0  0  0  0  0  0  0  0  0  0  0
  -26.2990  -38.4810   24.3000 H   0  0  0  0  0  0  0  0  0  0  0  0
  -26.6100  -31.8810   25.2450 C   0  0  1  0  0  0  0  0  0  0  0  0
  -25.5300  -31.5850   26.3110 C   0  0  0  0  0  1  0  0  0  0  0  0
  -27.2210  -30.5290   24.8060 C   0  0  0  0  0  1  0  0  0  0  0  0
  -27.7500  -32.6760   25.9250 C   0  0  0  0  0  1  0  0  0  0  0  0
  1  2  2  0
  1 58  1  0
  2  6  1  0
  3  1  1  0
  4  5  1  0
  4  3  1  0
  5  7  1  0
  7 13  1  0
  7  2  1  0
  8  3  2  0
  9 12  1  0
 10  9  2  0
 10 13  1  0
 11 14  1  0
 12 14  2  0
 12 15  1  0
 13 11  2  0
 14 54  1  0
 15 16  2  0
 16 17  1  0
 18 15  1  0
 19 24  1  0
 20 21  1  0
 20 19  1  0
 22 21  1  0
 22 29  1  0
 22 23  1  0
 24 18  1  0
 24 23  1  0
 25 18  2  0
 26 27  2  0
 27 46  1  0
 28 27  1  0
 28 31  1  0
 29 30  1  0
 29 26  1  0
 30 28  2  0
 31 32  1  0
 32 33  2  0
 34 37  1  0
 34 33  1  0
 35 34  2  0
 36 35  1  0
 36 31  2  0
 37 38  1  0
 38 43  2  0
 38 39  1  0
 39 40  2  0
 40 41  1  0
 41 45  1  0
 42 41  2  0
 43 42  1  0
 44 43  1  0
 46 47  1  0
 47 50  1  0
 47 49  1  0
 48 46  2  0
 51 26  1  0
 51 52  1  0
 53 51  1  0
 55 54  1  0
 56 57  1  0
 57 55  1  0
 59 61  1  0
 59 58  1  0
 60 71  2  0
 61 66  1  0
 62 70  1  0
 62 72  1  0
 63 69  1  0
 63 65  1  0
 64 70  1  0
 65 64  1  0
 66 65  2  0
 67 68  1  0
 67 61  2  0
 68 63  2  0
 69 62  1  0
 70 60  1  0
 72 74  2  0
 73 72  1  0
 75 73  1  0
 76 85  2  0
 76 81  1  0
 77 73  1  0
 77 81  1  0
 78 77  1  0
 79 80  1  0
 79 78  1  0
 80 76  1  0
 81 82  2  0
 82 83  1  0
 84 83  2  0
 85 84  1  0
 86 60  1  0
 86 87  1  0
 86 96  1  0
 87 90  1  0
 88 92  1  0
 88 87  1  0
 89 88  2  0
 92 91  1  0
 94 92  1  0
 94 95  1  0
 94 93  1  0
 96 99  1  1
 96 97  1  0
 98 96  1  0
M  ISO  4  15 100  18 100  58 101  59 101
M  END
>  <TORSDO>  (61) 
F 22

>  <SCORE>  (61) 
-12.640

>  <name>  (61) 
60

>  <ligand_id>  (61) 
60

>  <original_smiles>  (61) 
[H]N=C(C(=O)N1C([H])([H])C([H])([H])C([H])([H])C([H])(n2nc(-c3c([H])c([H])c(Oc4c([H])c([H])c(F)c([H])c4F)c([H])c3[H])c(C(=O)N([H])[H])c2N([H])[H])C1([H])[H])c1c([H])c([H])c(N2C(C([H])([H])[H])=C(C([H])([H])Oc3c([H])c([H])c4c(c3[H])C([H])([H])N(C(=O)C([H])(N([H])C(=O)C([H])(N([H])C([H])([H])[H])C([H])([H])[H])C(C([H])([H])[H])(C([H])([H])[H])C([H])([H])[H])C([H])(C(=O)N([H])C3([H])c5c([H])c([H])c([H])c([H])c5C([H])([H])C([H])([H])C3([H])[H])C4([H])[H])C(=O)C([H])([H])C2([H])[H])c([H])c1OC([H])([H])C([H])([H])C([H])([H])[H]

>  <smiles>  (61) 
[H]N=C(C(=O)N1C([H])([H])C([H])([H])C([H])([H])C([H])(n2nc(-c3c([H])c([H])c(Oc4c([H])c([H])c(F)c([H])c4F)c([H])c3[H])c(C(=O)N([H])[H])c2N([H])[H])C1([H])[H])c1c([H])c([H])c(N2C(C([H])([H])[H])=C(C([H])([H])Oc3c([H])c([H])c4c(c3[H])C([H])([H])N(C(=O)C([H])(N([H])C(=O)C([H])(N([H])C([H])([H])[H])C([H])([H])[H])C(C([H])([H])[H])(C([H])([H])[H])C([H])([H])[H])C([H])(C(=O)N([H])C3([H])c5c([H])c([H])c([H])c([H])c5C([H])([H])C([H])([H])C3([H])[H])C4([H])[H])C(=O)C([H])([H])C2([H])[H])c([H])c1OC([H])([H])C([H])([H])C([H])([H])[H]

$$$$
61:0:0
     RDKit          3D

 94103  0  0  1  0  0  0  0  0999 V2000
  -30.7780  -19.8810   20.3550 C   0  0  0  0  0  3  0  0  0  0  0  0
  -28.7010  -18.0250   20.4640 C   0  0  0  0  0  3  0  0  0  0  0  0
  -31.0440  -18.4680   20.2200 C   0  0  0  0  0  0  0  0  0  0  0  0
  -29.4740  -20.4210   20.5400 C   0  0  0  0  0  0  0  0  0  0  0  0
  -29.9930  -17.4850   20.2280 C   0  0  0  0  0  0  0  0  0  0  0  0
  -28.4490  -19.4210   20.6140 C   0  0  0  0  0  0  0  0  0  0  0  0
  -32.4890  -18.0260   20.0700 C   0  0  0  0  0  1  0  0  0  0  0  0
  -27.1570  -19.7940   20.7750 F   0  0  0  0  0  0  0  0  0  0  0  0
  -30.8510  -14.9960   20.1590 C   0  0  0  0  0  0  0  0  0  0  0  0
  -30.6600  -12.6610   19.2760 C   0  0  0  0  0  2  0  0  0  0  0  0
  -29.7030  -12.5680   18.0600 C   0  0  0  0  0  2  0  0  0  0  0  0
  -28.2320  -12.4790   18.5000 C   0  0  0  0  0  2  0  0  0  0  0  0
  -27.8560  -13.4460   19.6540 C   0  0  0  0  0  3  0  0  0  0  0  0
  -28.9240  -13.4510   20.7700 C   0  0  0  0  0  2  0  0  0  0  0  0
  -30.2070  -13.7740   20.1410 N   0  0  0  0  0  0  0  0  0  0  0  0
  -32.0780  -15.0300   20.0350 O   0  0  0  0  0  0  0  0  0  0  0  0
  -30.1210  -16.0960   19.6930 N   0  0  0  0  0  0  0  0  0  0  0  0
  -25.4840  -14.0600   20.4260 C   0  0  0  0  0  0  0  0  0  0  0  0
  -24.4150  -13.2970   20.8080 C   0  0  0  0  0  0  0  0  0  0  0  0
  -24.8610  -11.9410   20.7640 C   0  0  0  0  0  0  0  0  0  0  0  0
  -26.5160  -13.1730   20.1740 N   0  0  0  0  0  0  0  0  0  0  0  0
  -26.1490  -11.8950   20.4450 N   0  0  0  0  0  0  0  0  0  0  0  0
  -24.1250  -10.6840   20.9500 C   0  0  0  0  0  0  0  0  0  0  0  0
  -24.5440   -9.7160   21.8900 C   0  0  0  0  0  3  0  0  0  0  0  0
  -23.8090   -8.5230   22.0630 C   0  0  0  0  0  3  0  0  0  0  0  0
  -22.6410   -8.2920   21.2990 C   0  0  0  0  0  0  0  0  0  0  0  0
  -22.2420   -9.2470   20.3480 C   0  0  0  0  0  3  0  0  0  0  0  0
  -22.9770  -10.4310   20.1730 C   0  0  0  0  0  3  0  0  0  0  0  0
  -21.8780   -7.1520   21.3820 O   0  0  0  0  0  0  0  0  0  0  0  0
  -21.7940   -6.4270   22.5430 C   0  0  0  0  0  0  0  0  0  0  0  0
  -21.3160   -6.9950   23.7440 C   0  0  0  0  0  3  0  0  0  0  0  0
  -21.1820   -6.1960   24.8960 C   0  0  0  0  0  3  0  0  0  0  0  0
  -21.5130   -4.8280   24.8480 C   0  0  0  0  0  0  0  0  0  0  0  0
  -21.9830   -4.2590   23.6510 C   0  0  0  0  0  3  0  0  0  0  0  0
  -22.1190   -5.0560   22.5020 C   0  0  0  0  0  0  0  0  0  0  0  0
  -22.5540   -4.4990   21.3460 F   0  0  0  0  0  0  0  0  0  0  0  0
  -21.3750   -4.0560   25.9510 F   0  0  0  0  0  0  0  0  0  0  0  0
  -23.0240  -13.7860   21.0900 C   0  0  0  0  0  0  0  0  0  0  0  0
  -22.2940  -13.0960   21.9600 N   0  0  0  0  0  0  0  0  0  0  0  0
  -22.5920  -14.8130   20.5700 O   0  0  0  0  0  0  0  0  0  0  0  0
  -22.6590  -12.2650   22.4030 H   0  0  0  0  0  0  0  0  0  0  0  0
  -21.3570  -13.4040   22.1880 H   0  0  0  0  0  0  0  0  0  0  0  0
  -25.6580  -15.4290   20.2430 N   0  0  0  0  0  0  0  0  0  0  0  0
  -24.8730  -16.0670   20.2970 H   0  0  0  0  0  0  0  0  0  0  0  0
  -26.4740  -15.8320   19.8020 H   0  0  0  0  0  0  0  0  0  0  0  0
  -29.1260  -16.8880   17.5680 C   0  0  0  0  0  2  0  0  0  0  0  0
  -29.9000  -16.0560   18.2950 C   0  0  0  0  0  3  0  0  0  0  0  0
  -28.8780  -24.3130   20.7660 C   0  0  0  0  0  0  0  0  0  0  0  0
  -28.4900  -25.6390   20.5700 C   0  0  0  0  0  3  0  0  0  0  0  0
  -28.7910  -23.7460   22.1680 C   0  0  0  0  0  2  0  0  0  0  0  0
  -29.3820  -23.0900   19.9190 C   0  0  0  0  0  2  0  0  0  0  0  0
  -28.6220  -22.2270   22.0360 C   0  0  0  0  0  2  0  0  0  0  0  0
  -29.1740  -21.8390   20.7410 N   0  0  0  0  0  0  0  0  0  0  0  0
  -28.4150  -26.5500   19.4930 O   0  0  0  0  0  0  0  0  0  0  0  0
  -24.6160  -31.6790   22.9290 C   0  0  0  0  0  0  0  0  0  0  0  0
  -27.3120  -27.4310   19.5180 C   0  0  0  0  0  0  0  0  0  0  0  0
  -23.4120  -30.3280   21.2420 C   0  0  0  0  0  3  0  0  0  0  0  0
  -24.8780  -28.9360   19.6720 C   0  0  0  0  0  0  0  0  0  0  0  0
  -25.9240  -30.7810   20.9870 C   0  0  0  0  0  2  0  0  0  0  0  0
  -26.0480  -29.4450   20.2560 C   0  0  0  0  0  0  0  0  0  0  0  0
  -27.2700  -28.7050   20.1710 C   0  0  0  0  0  3  0  0  0  0  0  0
  -26.1240  -26.9810   18.9080 C   0  0  0  0  0  3  0  0  0  0  0  0
  -24.9190  -27.7120   18.9810 C   0  0  0  0  0  3  0  0  0  0  0  0
  -23.6040  -29.7470   19.8160 C   0  0  0  0  0  2  0  0  0  0  0  0
  -24.6690  -30.9450   21.7770 N   0  0  0  0  0  0  0  0  0  0  0  0
  -23.5440  -31.8710   23.5220 O   0  0  0  0  0  0  0  0  0  0  0  0
  -22.8320  -29.2270   22.1610 C   0  0  0  0  0  0  0  0  0  0  0  0
  -21.5100  -28.9980   22.0760 N   0  0  0  0  0  0  0  0  0  0  0  0
  -23.5700  -28.5840   22.9150 O   0  0  0  0  0  0  0  0  0  0  0  0
  -20.9730  -29.5710   21.4400 H   0  0  0  0  0  0  0  0  0  0  0  0
  -18.2050  -27.6510   22.6620 C   0  0  0  0  0  0  0  0  0  0  0  0
  -20.7650  -27.9790   22.8180 C   0  0  0  0  0  3  0  0  0  0  0  0
  -20.8780  -26.5980   22.1320 C   0  0  0  0  0  2  0  0  0  0  0  0
  -19.7350  -26.3130   21.1530 C   0  0  0  0  0  2  0  0  0  0  0  0
  -18.3870  -26.3630   21.8760 C   0  0  0  0  0  2  0  0  0  0  0  0
  -19.3220  -28.4190   23.0890 C   0  0  0  0  0  0  0  0  0  0  0  0
  -19.0960  -29.6270   23.7840 C   0  0  0  0  0  3  0  0  0  0  0  0
  -17.7860  -30.0650   24.0580 C   0  0  0  0  0  3  0  0  0  0  0  0
  -16.6860  -29.2950   23.6470 C   0  0  0  0  0  3  0  0  0  0  0  0
  -16.8970  -28.0890   22.9550 C   0  0  0  0  0  3  0  0  0  0  0  0
  -25.8950  -32.3290   23.5400 C   0  0  0  0  0  3  0  0  0  0  0  0
  -25.5290  -33.6760   24.0030 N   0  0  0  0  0  0  0  0  0  0  0  0
  -25.7840  -34.8080   23.3310 C   0  0  0  0  0  0  0  0  0  0  0  0
  -26.4210  -34.8280   22.2770 O   0  0  0  0  0  0  0  0  0  0  0  0
  -24.9670  -33.7300   24.8400 H   0  0  0  0  0  0  0  0  0  0  0  0
  -23.9620  -36.5380   23.1790 C   0  0  0  0  0  1  0  0  0  0  0  0
  -25.2440  -36.1290   23.9230 C   0  0  0  0  0  3  0  0  0  0  0  0
  -27.3620  -37.0450   24.7660 C   0  0  0  0  0  1  0  0  0  0  0  0
  -26.2220  -37.2370   23.8730 N   0  0  0  0  0  0  0  0  0  0  0  0
  -25.7780  -38.1210   24.1100 H   0  0  0  0  0  0  0  0  0  0  0  0
  -26.5150  -31.4880   24.7230 C   0  0  1  0  0  0  0  0  0  0  0  0
  -25.4940  -31.1130   25.8210 C   0  0  0  0  0  1  0  0  0  0  0  0
  -27.1470  -30.1760   24.2010 C   0  0  0  0  0  1  0  0  0  0  0  0
  -27.6630  -32.2840   25.3880 C   0  0  0  0  0  1  0  0  0  0  0  0
  1  4  1  0
  2  6  1  0
  3  5  1  0
  3  1  2  0
  4  6  2  0
  4 53  1  0
  5  2  2  0
  6  8  1  0
  7  3  1  0
 10 15  1  0
 11 12  1  0
 11 10  1  0
 13 12  1  0
 13 21  1  0
 13 14  1  0
 15  9  1  0
 15 14  1  0
 16  9  2  0
 17  9  1  0
 17  5  1  0
 18 19  2  0
 19 38  1  0
 20 19  1  0
 20 23  1  0
 21 18  1  0
 21 22  1  0
 22 20  2  0
 23 24  1  0
 24 25  2  0
 26 29  1  0
 26 25  1  0
 27 26  2  0
 28 27  1  0
 28 23  2  0
 29 30  1  0
 30 31  1  0
 31 32  2  0
 33 32  1  0
 33 37  1  0
 34 33  2  0
 35 30  2  0
 35 34  1  0
 36 35  1  0
 38 39  1  0
 39 42  1  0
 39 41  1  0
 40 38  2  0
 43 44  1  0
 43 18  1  0
 45 43  1  0
 46 47  2  0
 47 17  1  0
 48 50  1  0
 49 48  2  0
 51 53  1  0
 51 48  1  0
 52 50  1  0
 53 52  1  0
 54 56  1  0
 54 49  1  0
 55 66  2  0
 56 61  1  0
 57 65  1  0
 57 67  1  0
 58 64  1  0
 58 60  1  0
 59 65  1  0
 60 59  1  0
 61 60  2  0
 62 63  1  0
 62 56  2  0
 63 58  2  0
 64 57  1  0
 65 55  1  0
 67 69  2  0
 68 67  1  0
 70 68  1  0
 71 80  2  0
 71 76  1  0
 72 68  1  0
 72 76  1  0
 73 72  1  0
 74 75  1  0
 74 73  1  0
 75 71  1  0
 76 77  2  0
 77 78  1  0
 79 78  2  0
 80 79  1  0
 81 55  1  0
 81 82  1  0
 81 91  1  0
 82 85  1  0
 83 87  1  0
 83 82  1  0
 84 83  2  0
 87 86  1  0
 89 87  1  0
 89 90  1  0
 89 88  1  0
 91 94  1  1
 91 92  1  0
 93 91  1  0
M  ISO  4   9 100  17 100  49 101  54 101
M  END
>  <TORSDO>  (62) 
F 18

>  <SCORE>  (62) 
-11.962

>  <name>  (62) 
61

>  <ligand_id>  (62) 
61

>  <original_smiles>  (62) 
[H]C([H])=C([H])N(C(=O)N1C([H])([H])C([H])([H])C([H])([H])C([H])(n2nc(-c3c([H])c([H])c(Oc4c([H])c([H])c(F)c([H])c4F)c([H])c3[H])c(C(=O)N([H])[H])c2N([H])[H])C1([H])[H])c1c([H])c(F)c(N2C([H])([H])C(=C([H])Oc3c([H])c([H])c4c(c3[H])C([H])([H])N(C(=O)C([H])(N([H])C(=O)C([H])(N([H])C([H])([H])[H])C([H])([H])[H])C(C([H])([H])[H])(C([H])([H])[H])C([H])([H])[H])C([H])(C(=O)N([H])C3([H])c5c([H])c([H])c([H])c([H])c5C([H])([H])C([H])([H])C3([H])[H])C4([H])[H])C([H])([H])C2([H])[H])c([H])c1C([H])([H])[H]

>  <smiles>  (62) 
[H]C([H])=C([H])N(C(=O)N1C([H])([H])C([H])([H])C([H])([H])C([H])(n2nc(-c3c([H])c([H])c(Oc4c([H])c([H])c(F)c([H])c4F)c([H])c3[H])c(C(=O)N([H])[H])c2N([H])[H])C1([H])[H])c1c([H])c(F)c(N2C([H])([H])C(=C([H])Oc3c([H])c([H])c4c(c3[H])C([H])([H])N(C(=O)C([H])(N([H])C(=O)C([H])(N([H])C([H])([H])[H])C([H])([H])[H])C(C([H])([H])[H])(C([H])([H])[H])C([H])([H])[H])C([H])(C(=O)N([H])C3([H])c5c([H])c([H])c([H])c([H])c5C([H])([H])C([H])([H])C3([H])[H])C4([H])[H])C([H])([H])C2([H])[H])c([H])c1C([H])([H])[H]

$$$$
62:0:0
     RDKit          3D

100108  0  0  1  0  0  0  0  0999 V2000
  -29.8000  -18.1230   20.2930 C   0  0  0  0  0  3  0  0  0  0  0  0
  -30.4690  -16.5950   18.5120 C   0  0  0  0  0  3  0  0  0  0  0  0
  -29.7440  -19.1870   19.3620 C   0  0  0  0  0  0  0  0  0  0  0  0
  -30.1650  -16.8200   19.8790 C   0  0  0  0  0  0  0  0  0  0  0  0
  -30.4010  -17.6440   17.5780 C   0  0  0  0  0  0  0  0  0  0  0  0
  -30.0330  -18.9360   18.0000 C   0  0  0  0  0  0  0  0  0  0  0  0
  -30.9440  -14.6690   20.7540 C   0  0  0  0  0  0  0  0  0  0  0  0
  -30.7440  -12.4030   19.8620 C   0  0  0  0  0  2  0  0  0  0  0  0
  -29.9160  -12.5110   18.5650 C   0  0  0  0  0  2  0  0  0  0  0  0
  -28.4090  -12.4100   18.8700 C   0  0  0  0  0  2  0  0  0  0  0  0
  -27.9640  -13.3510   20.0240 C   0  0  0  0  0  3  0  0  0  0  0  0
  -28.9240  -13.2440   21.2340 C   0  0  0  0  0  2  0  0  0  0  0  0
  -30.2950  -13.4780   20.7540 N   0  0  0  0  0  0  0  0  0  0  0  0
  -32.1390  -14.7950   20.4670 O   0  0  0  0  0  0  0  0  0  0  0  0
  -30.1480  -15.7490   20.8260 N   0  0  0  0  0  0  0  0  0  0  0  0
  -29.2700  -15.6080   21.3050 H   0  0  0  0  0  0  0  0  0  0  0  0
  -25.5380  -14.0050   20.5880 C   0  0  0  0  0  0  0  0  0  0  0  0
  -24.4340  -13.2520   20.8840 C   0  0  0  0  0  0  0  0  0  0  0  0
  -24.8690  -11.8920   20.8700 C   0  0  0  0  0  0  0  0  0  0  0  0
  -26.5780  -13.1040   20.4150 N   0  0  0  0  0  0  0  0  0  0  0  0
  -26.1740  -11.8280   20.6430 N   0  0  0  0  0  0  0  0  0  0  0  0
  -24.1070  -10.6420   21.0030 C   0  0  0  0  0  0  0  0  0  0  0  0
  -24.4960   -9.6340   21.9120 C   0  0  0  0  0  3  0  0  0  0  0  0
  -23.7370   -8.4500   22.0350 C   0  0  0  0  0  3  0  0  0  0  0  0
  -22.5740   -8.2680   21.2510 C   0  0  0  0  0  0  0  0  0  0  0  0
  -22.2040   -9.2640   20.3300 C   0  0  0  0  0  3  0  0  0  0  0  0
  -22.9620  -10.4400   20.2050 C   0  0  0  0  0  3  0  0  0  0  0  0
  -21.7900   -7.1390   21.2830 O   0  0  0  0  0  0  0  0  0  0  0  0
  -21.7510   -6.3230   22.3860 C   0  0  0  0  0  0  0  0  0  0  0  0
  -21.3900   -6.8090   23.6610 C   0  0  0  0  0  3  0  0  0  0  0  0
  -21.2950   -5.9200   24.7510 C   0  0  0  0  0  3  0  0  0  0  0  0
  -21.5500   -4.5470   24.5670 C   0  0  0  0  0  0  0  0  0  0  0  0
  -21.9040   -4.0620   23.2950 C   0  0  0  0  0  3  0  0  0  0  0  0
  -22.0010   -4.9470   22.2070 C   0  0  0  0  0  0  0  0  0  0  0  0
  -22.3220   -4.4700   20.9810 F   0  0  0  0  0  0  0  0  0  0  0  0
  -21.4520   -3.6930   25.6120 F   0  0  0  0  0  0  0  0  0  0  0  0
  -23.0310  -13.7550   21.0740 C   0  0  0  0  0  0  0  0  0  0  0  0
  -22.2410  -13.0800   21.9020 N   0  0  0  0  0  0  0  0  0  0  0  0
  -22.6400  -14.7820   20.5190 O   0  0  0  0  0  0  0  0  0  0  0  0
  -22.5650  -12.2500   22.3740 H   0  0  0  0  0  0  0  0  0  0  0  0
  -21.2980  -13.4020   22.0690 H   0  0  0  0  0  0  0  0  0  0  0  0
  -25.7380  -15.3740   20.4310 N   0  0  0  0  0  0  0  0  0  0  0  0
  -24.9670  -16.0330   20.4860 H   0  0  0  0  0  0  0  0  0  0  0  0
  -26.6120  -15.8020   20.1490 H   0  0  0  0  0  0  0  0  0  0  0  0
  -29.9140  -19.9270   17.0240 N   0  0  0  0  0  0  0  0  0  0  0  0
  -29.2320  -20.6440   17.2330 H   0  0  0  0  0  0  0  0  0  0  0  0
  -29.7570  -19.5270   16.1060 H   0  0  0  0  0  0  0  0  0  0  0  0
  -30.6800  -17.4260   16.2270 N   0  0  0  0  0  0  0  0  0  0  0  0
  -31.1640  -16.5690   15.9830 H   0  0  0  0  0  0  0  0  0  0  0  0
  -31.0900  -18.2340   15.7680 H   0  0  0  0  0  0  0  0  0  0  0  0
  -29.3380  -20.5750   19.8350 C   0  0  0  0  0  2  0  0  0  0  0  0
  -27.8400  -20.8380   19.6110 C   0  0  0  0  0  2  0  0  0  0  0  0
  -27.3690  -22.2830   19.8860 C   0  0  0  0  0  2  0  0  0  0  0  0
  -28.5920  -24.1750   21.0820 C   0  0  0  0  0  0  0  0  0  0  0  0
  -27.9970  -22.1310   22.2600 C   0  0  0  0  0  1  0  0  0  0  0  0
  -28.0660  -22.9190   21.0230 N   0  0  0  0  0  0  0  0  0  0  0  0
  -29.0920  -24.6080   22.1270 O   0  0  0  0  0  0  0  0  0  0  0  0
  -28.4980  -24.9840   19.8710 C   0  0  0  0  0  3  0  0  0  0  0  0
  -28.3330  -26.3170   19.9930 C   0  0  0  0  0  3  0  0  0  0  0  0
  -28.1560  -27.1810   18.9430 O   0  0  0  0  0  0  0  0  0  0  0  0
  -24.5180  -31.6880   23.0380 C   0  0  0  0  0  0  0  0  0  0  0  0
  -27.0090  -27.9170   19.0860 C   0  0  0  0  0  0  0  0  0  0  0  0
  -23.2070  -30.4560   21.3410 C   0  0  0  0  0  3  0  0  0  0  0  0
  -24.5660  -29.2390   19.5590 C   0  0  0  0  0  0  0  0  0  0  0  0
  -25.6720  -31.0090   20.9360 C   0  0  0  0  0  2  0  0  0  0  0  0
  -25.7540  -29.7520   20.0940 C   0  0  0  0  0  0  0  0  0  0  0  0
  -26.9820  -29.0970   19.8600 C   0  0  0  0  0  3  0  0  0  0  0  0
  -25.8120  -27.4190   18.5360 C   0  0  0  0  0  3  0  0  0  0  0  0
  -24.5880  -28.0720   18.7740 C   0  0  0  0  0  3  0  0  0  0  0  0
  -23.2930  -29.9950   19.8620 C   0  0  0  0  0  2  0  0  0  0  0  0
  -24.4900  -31.0590   21.8300 N   0  0  0  0  0  0  0  0  0  0  0  0
  -23.4920  -31.8110   23.7230 O   0  0  0  0  0  0  0  0  0  0  0  0
  -22.7190  -29.2700   22.2030 C   0  0  0  0  0  0  0  0  0  0  0  0
  -21.4070  -28.9870   22.1450 N   0  0  0  0  0  0  0  0  0  0  0  0
  -23.5120  -28.6090   22.8780 O   0  0  0  0  0  0  0  0  0  0  0  0
  -20.8200  -29.5780   21.5720 H   0  0  0  0  0  0  0  0  0  0  0  0
  -18.2060  -27.3820   22.6270 C   0  0  0  0  0  0  0  0  0  0  0  0
  -20.7310  -27.8950   22.8440 C   0  0  0  0  0  3  0  0  0  0  0  0
  -20.9620  -26.5470   22.1240 C   0  0  0  0  0  2  0  0  0  0  0  0
  -19.8610  -26.2030   21.1170 C   0  0  0  0  0  2  0  0  0  0  0  0
  -18.4990  -26.1330   21.8130 C   0  0  0  0  0  2  0  0  0  0  0  0
  -19.2530  -28.2180   23.0960 C   0  0  0  0  0  0  0  0  0  0  0  0
  -18.9270  -29.3870   23.8170 C   0  0  0  0  0  3  0  0  0  0  0  0
  -17.5840  -29.7230   24.0730 C   0  0  0  0  0  3  0  0  0  0  0  0
  -16.5510  -28.8830   23.6200 C   0  0  0  0  0  3  0  0  0  0  0  0
  -16.8640  -27.7140   22.9020 C   0  0  0  0  0  3  0  0  0  0  0  0
  -25.8310  -32.3080   23.6090 C   0  0  0  0  0  3  0  0  0  0  0  0
  -25.5040  -33.6420   24.1310 N   0  0  0  0  0  0  0  0  0  0  0  0
  -25.7510  -34.7920   23.4890 C   0  0  0  0  0  0  0  0  0  0  0  0
  -26.3570  -34.8420   22.4140 O   0  0  0  0  0  0  0  0  0  0  0  0
  -24.9610  -33.6750   24.9810 H   0  0  0  0  0  0  0  0  0  0  0  0
  -23.9480  -36.5440   23.4650 C   0  0  0  0  0  1  0  0  0  0  0  0
  -25.2520  -36.0930   24.1450 C   0  0  0  0  0  3  0  0  0  0  0  0
  -27.4090  -36.9490   24.9460 C   0  0  0  0  0  1  0  0  0  0  0  0
  -26.2420  -37.1920   24.1020 N   0  0  0  0  0  0  0  0  0  0  0  0
  -25.8190  -38.0700   24.3920 H   0  0  0  0  0  0  0  0  0  0  0  0
  -26.5040  -31.4210   24.7270 C   0  0  1  0  0  0  0  0  0  0  0  0
  -25.5380  -31.0140   25.8640 C   0  0  0  0  0  1  0  0  0  0  0  0
  -27.0840  -30.1250   24.1140 C   0  0  0  0  0  1  0  0  0  0  0  0
  -27.6930  -32.1850   25.3570 C   0  0  0  0  0  1  0  0  0  0  0  0
  2  4  2  0
  3 51  1  0
  3  1  2  0
  4  1  1  0
  4 15  1  0
  5  6  2  0
  5  2  1  0
  6  3  1  0
  7 13  1  0
  7 15  1  0
  8 13  1  0
  9 10  1  0
  9  8  1  0
 11 10  1  0
 11 20  1  0
 11 12  1  0
 13 12  1  0
 14  7  2  0
 15 16  1  0
 17 18  2  0
 18 37  1  0
 19 18  1  0
 19 22  1  0
 20 17  1  0
 20 21  1  0
 21 19  2  0
 22 23  1  0
 23 24  2  0
 25 28  1  0
 25 24  1  0
 26 25  2  0
 27 26  1  0
 27 22  2  0
 28 29  1  0
 29 30  1  0
 30 31  2  0
 32 31  1  0
 32 36  1  0
 33 32  2  0
 34 29  2  0
 34 33  1  0
 35 34  1  0
 37 38  1  0
 38 41  1  0
 38 40  1  0
 39 37  2  0
 42 43  1  0
 42 17  1  0
 44 42  1  0
 45 46  1  0
 45  6  1  0
 47 45  1  0
 48  5  1  0
 49 48  1  0
 50 48  1  0
 52 51  1  0
 52 53  1  0
 53 56  1  0
 54 57  2  0
 56 54  1  0
 56 55  1  0
 58 59  2  0
 58 54  1  0
 60 62  1  0
 60 59  1  0
 61 72  2  0
 62 67  1  0
 63 71  1  0
 63 73  1  0
 64 70  1  0
 64 66  1  0
 65 71  1  0
 66 65  1  0
 67 66  2  0
 68 69  1  0
 68 62  2  0
 69 64  2  0
 70 63  1  0
 71 61  1  0
 73 75  2  0
 74 73  1  0
 76 74  1  0
 77 86  2  0
 77 82  1  0
 78 74  1  0
 78 82  1  0
 79 78  1  0
 80 81  1  0
 80 79  1  0
 81 77  1  0
 82 83  2  0
 83 84  1  0
 85 84  2  0
 86 85  1  0
 87 61  1  0
 87 88  1  0
 87 97  1  0
 88 91  1  0
 89 88  1  0
 89 93  1  0
 90 89  2  0
 93 92  1  0
 95 93  1  0
 95 96  1  0
 95 94  1  0
 97100  1  1
 97 98  1  0
 99 97  1  0
M  ISO  4   7 100  15 100  59 101  60 101
M  END
>  <TORSDO>  (63) 
F 23

>  <SCORE>  (63) 
-10.913

>  <name>  (63) 
62

>  <ligand_id>  (63) 
62

>  <original_smiles>  (63) 
[H]C(Oc1c([H])c([H])c2c(c1[H])C([H])([H])N(C(=O)C([H])(N([H])C(=O)C([H])(N([H])C([H])([H])[H])C([H])([H])[H])C(C([H])([H])[H])(C([H])([H])[H])C([H])([H])[H])C([H])(C(=O)N([H])C1([H])c3c([H])c([H])c([H])c([H])c3C([H])([H])C([H])([H])C1([H])[H])C2([H])[H])=C([H])C(=O)N(C([H])([H])[H])C([H])([H])C([H])([H])C([H])([H])c1c([H])c(N([H])C(=O)N2C([H])([H])C([H])([H])C([H])([H])C([H])(n3nc(-c4c([H])c([H])c(Oc5c([H])c([H])c(F)c([H])c5F)c([H])c4[H])c(C(=O)N([H])[H])c3N([H])[H])C2([H])[H])c([H])c(N([H])[H])c1N([H])[H]

>  <smiles>  (63) 
[H]C(Oc1c([H])c([H])c2c(c1[H])C([H])([H])N(C(=O)C([H])(N([H])C(=O)C([H])(N([H])C([H])([H])[H])C([H])([H])[H])C(C([H])([H])[H])(C([H])([H])[H])C([H])([H])[H])C([H])(C(=O)N([H])C1([H])c3c([H])c([H])c([H])c([H])c3C([H])([H])C([H])([H])C1([H])[H])C2([H])[H])=C([H])C(=O)N(C([H])([H])[H])C([H])([H])C([H])([H])C([H])([H])c1c([H])c(N([H])C(=O)N2C([H])([H])C([H])([H])C([H])([H])C([H])(n3nc(-c4c([H])c([H])c(Oc5c([H])c([H])c(F)c([H])c5F)c([H])c4[H])c(C(=O)N([H])[H])c3N([H])[H])C2([H])[H])c([H])c(N([H])[H])c1N([H])[H]

$$$$
63:0:0
     RDKit          3D

 92100  0  0  1  0  0  0  0  0999 V2000
  -29.3120  -19.8500   19.8680 C   0  0  0  0  0  3  0  0  0  0  0  0
  -29.4970  -18.4220   20.0070 C   0  0  0  0  0  0  0  0  0  0  0  0
  -30.2750  -18.0890   21.0950 C   0  0  0  0  0  0  0  0  0  0  0  0
  -29.9450  -20.6180   20.8240 C   0  0  0  0  0  0  0  0  0  0  0  0
  -30.7860  -19.5480   21.9280 S   0  0  0  0  0  0  0  0  0  0  0  0
  -29.3350  -22.8570   20.4050 C   0  0  0  0  0  3  0  0  0  0  0  0
  -30.0460  -21.9900   21.0330 N   0  0  0  0  0  0  0  0  0  0  0  0
  -30.8040  -24.8770   19.9520 C   0  0  0  0  0  1  0  0  0  0  0  0
  -29.4890  -24.3900   20.5900 C   0  0  0  0  0  3  0  0  0  0  0  0
  -28.2690  -25.2190   20.0700 C   0  0  0  0  0  2  0  0  0  0  0  0
  -28.3840  -26.6540   20.2790 O   0  0  0  0  0  0  0  0  0  0  0  0
  -24.5970  -31.9380   23.2530 C   0  0  0  0  0  0  0  0  0  0  0  0
  -27.2250  -27.4210   20.2270 C   0  0  0  0  0  0  0  0  0  0  0  0
  -23.3930  -30.5310   21.6180 C   0  0  0  0  0  3  0  0  0  0  0  0
  -24.8440  -28.9760   20.2090 C   0  0  0  0  0  0  0  0  0  0  0  0
  -25.9250  -30.8650   21.4310 C   0  0  0  0  0  2  0  0  0  0  0  0
  -26.0070  -29.4870   20.7970 C   0  0  0  0  0  0  0  0  0  0  0  0
  -27.2000  -28.7210   20.7970 C   0  0  0  0  0  3  0  0  0  0  0  0
  -26.0380  -26.9380   19.6250 C   0  0  0  0  0  3  0  0  0  0  0  0
  -24.8570  -27.7020   19.6170 C   0  0  0  0  0  3  0  0  0  0  0  0
  -23.6040  -29.8440   20.2440 C   0  0  0  0  0  2  0  0  0  0  0  0
  -24.6570  -31.1280   22.1580 N   0  0  0  0  0  0  0  0  0  0  0  0
  -23.5130  -32.2230   23.7820 O   0  0  0  0  0  0  0  0  0  0  0  0
  -22.7280  -29.5200   22.5830 C   0  0  0  0  0  0  0  0  0  0  0  0
  -21.4020  -29.3470   22.4510 N   0  0  0  0  0  0  0  0  0  0  0  0
  -23.4020  -28.8940   23.4050 O   0  0  0  0  0  0  0  0  0  0  0  0
  -20.9200  -29.9060   21.7620 H   0  0  0  0  0  0  0  0  0  0  0  0
  -18.0110  -28.1910   22.9430 C   0  0  0  0  0  0  0  0  0  0  0  0
  -20.5720  -28.4190   23.2200 C   0  0  0  0  0  3  0  0  0  0  0  0
  -20.6590  -26.9870   22.6420 C   0  0  0  0  0  2  0  0  0  0  0  0
  -19.5530  -26.6760   21.6290 C   0  0  0  0  0  2  0  0  0  0  0  0
  -18.1720  -26.8380   22.2710 C   0  0  0  0  0  2  0  0  0  0  0  0
  -19.1380  -28.9400   23.3750 C   0  0  0  0  0  0  0  0  0  0  0  0
  -18.9350  -30.2060   23.9630 C   0  0  0  0  0  3  0  0  0  0  0  0
  -17.6360  -30.7240   24.1250 C   0  0  0  0  0  3  0  0  0  0  0  0
  -16.5230  -29.9720   23.7120 C   0  0  0  0  0  3  0  0  0  0  0  0
  -16.7110  -28.7070   23.1290 C   0  0  0  0  0  3  0  0  0  0  0  0
  -25.8810  -32.5660   23.8790 C   0  0  0  0  0  3  0  0  0  0  0  0
  -25.5760  -33.9660   24.2020 N   0  0  0  0  0  0  0  0  0  0  0  0
  -25.9000  -35.0140   23.4310 C   0  0  0  0  0  0  0  0  0  0  0  0
  -26.5570  -34.9040   22.3920 O   0  0  0  0  0  0  0  0  0  0  0  0
  -24.9910  -34.1260   25.0070 H   0  0  0  0  0  0  0  0  0  0  0  0
  -24.1590  -36.7950   23.0970 C   0  0  0  0  0  1  0  0  0  0  0  0
  -25.4180  -36.4050   23.8850 C   0  0  0  0  0  3  0  0  0  0  0  0
  -27.5650  -37.3030   24.6660 C   0  0  0  0  0  1  0  0  0  0  0  0
  -26.4440  -37.4600   23.7420 N   0  0  0  0  0  0  0  0  0  0  0  0
  -26.0390  -38.3790   23.8890 H   0  0  0  0  0  0  0  0  0  0  0  0
  -26.3890  -31.7970   25.1590 C   0  0  1  0  0  0  0  0  0  0  0  0
  -25.2910  -31.5630   26.2220 C   0  0  0  0  0  1  0  0  0  0  0  0
  -26.9690  -30.4180   24.7710 C   0  0  0  0  0  1  0  0  0  0  0  0
  -27.5400  -32.5900   25.8240 C   0  0  0  0  0  1  0  0  0  0  0  0
  -28.5280  -17.8670   17.9200 C   0  0  0  0  0  1  0  0  0  0  0  0
  -28.9900  -17.4590   19.1990 O   0  0  0  0  0  0  0  0  0  0  0  0
  -30.7580  -16.7450   21.6300 C   0  0  0  0  0  2  0  0  0  0  0  0
  -30.7760  -14.5050   20.4500 C   0  0  0  0  0  0  0  0  0  0  0  0
  -30.4470  -12.3570   19.2640 C   0  0  0  0  0  2  0  0  0  0  0  0
  -29.5100  -12.5630   18.0580 C   0  0  0  0  0  2  0  0  0  0  0  0
  -28.0350  -12.4360   18.4820 C   0  0  0  0  0  2  0  0  0  0  0  0
  -27.7010  -13.2700   19.7490 C   0  0  0  0  0  3  0  0  0  0  0  0
  -28.7530  -13.0430   20.8570 C   0  0  0  0  0  2  0  0  0  0  0  0
  -30.0760  -13.3460   20.2890 N   0  0  0  0  0  0  0  0  0  0  0  0
  -31.8970  -14.6740   19.9610 O   0  0  0  0  0  0  0  0  0  0  0  0
  -30.1500  -15.4950   21.1220 N   0  0  0  0  0  0  0  0  0  0  0  0
  -29.2090  -15.2920   21.4260 H   0  0  0  0  0  0  0  0  0  0  0  0
  -25.3060  -13.8940   20.4470 C   0  0  0  0  0  0  0  0  0  0  0  0
  -24.2330  -13.1320   20.8210 C   0  0  0  0  0  0  0  0  0  0  0  0
  -24.6850  -11.7770   20.8020 C   0  0  0  0  0  0  0  0  0  0  0  0
  -26.3460  -13.0060   20.2260 N   0  0  0  0  0  0  0  0  0  0  0  0
  -25.9760  -11.7270   20.4960 N   0  0  0  0  0  0  0  0  0  0  0  0
  -23.9500  -10.5210   21.0010 C   0  0  0  0  0  0  0  0  0  0  0  0
  -24.3760   -9.5540   21.9370 C   0  0  0  0  0  3  0  0  0  0  0  0
  -23.6420   -8.3630   22.1250 C   0  0  0  0  0  3  0  0  0  0  0  0
  -22.4640   -8.1310   21.3750 C   0  0  0  0  0  0  0  0  0  0  0  0
  -22.0560   -9.0860   20.4270 C   0  0  0  0  0  3  0  0  0  0  0  0
  -22.7920  -10.2680   20.2390 C   0  0  0  0  0  3  0  0  0  0  0  0
  -21.7040   -6.9890   21.4690 O   0  0  0  0  0  0  0  0  0  0  0  0
  -21.6530   -6.2500   22.6230 C   0  0  0  0  0  0  0  0  0  0  0  0
  -21.2250   -6.8080   23.8490 C   0  0  0  0  0  3  0  0  0  0  0  0
  -21.1240   -5.9950   24.9960 C   0  0  0  0  0  3  0  0  0  0  0  0
  -21.4370   -4.6250   24.9190 C   0  0  0  0  0  0  0  0  0  0  0  0
  -21.8560   -4.0660   23.6990 C   0  0  0  0  0  3  0  0  0  0  0  0
  -21.9600   -4.8760   22.5540 C   0  0  0  0  0  0  0  0  0  0  0  0
  -22.3420   -4.3280   21.3760 F   0  0  0  0  0  0  0  0  0  0  0  0
  -21.3330   -3.8420   26.0180 F   0  0  0  0  0  0  0  0  0  0  0  0
  -22.8380  -13.6210   21.0880 C   0  0  0  0  0  0  0  0  0  0  0  0
  -22.1040  -12.9370   21.9590 N   0  0  0  0  0  0  0  0  0  0  0  0
  -22.4080  -14.6450   20.5580 O   0  0  0  0  0  0  0  0  0  0  0  0
  -22.4620  -12.1060   22.4070 H   0  0  0  0  0  0  0  0  0  0  0  0
  -21.1680  -13.2500   22.1790 H   0  0  0  0  0  0  0  0  0  0  0  0
  -25.4840  -15.2610   20.2590 N   0  0  0  0  0  0  0  0  0  0  0  0
  -24.7240  -15.9250   20.3540 H   0  0  0  0  0  0  0  0  0  0  0  0
  -26.3450  -15.6870   19.9410 H   0  0  0  0  0  0  0  0  0  0  0  0
  1  2  1  0
  1  4  2  0
  2  3  2  0
  3 54  1  0
  3  5  1  0
  4  7  1  0
  4  5  1  0
  6  9  1  0
  6  7  2  0
  9  8  1  0
 10 11  1  0
 10  9  1  0
 12 23  2  0
 13 11  1  0
 13 18  1  0
 14 22  1  0
 14 24  1  0
 15 21  1  0
 15 17  1  0
 16 22  1  0
 17 16  1  0
 18 17  2  0
 19 13  2  0
 20 19  1  0
 20 15  2  0
 21 14  1  0
 22 12  1  0
 24 26  2  0
 25 24  1  0
 27 25  1  0
 28 37  2  0
 28 33  1  0
 29 25  1  0
 29 33  1  0
 30 29  1  0
 31 32  1  0
 31 30  1  0
 32 28  1  0
 33 34  2  0
 34 35  1  0
 36 35  2  0
 37 36  1  0
 38 12  1  0
 38 39  1  0
 38 48  1  0
 39 42  1  0
 40 44  1  0
 40 39  1  0
 41 40  2  0
 44 43  1  0
 46 44  1  0
 46 47  1  0
 46 45  1  0
 48 51  1  1
 48 49  1  0
 50 48  1  0
 52 53  1  0
 53  2  1  0
 55 63  1  0
 56 61  1  0
 57 58  1  0
 57 56  1  0
 59 58  1  0
 59 68  1  0
 59 60  1  0
 61 55  1  0
 61 60  1  0
 62 55  2  0
 63 64  1  0
 63 54  1  0
 65 66  2  0
 66 85  1  0
 67 66  1  0
 67 70  1  0
 68 65  1  0
 68 69  1  0
 69 67  2  0
 70 71  1  0
 71 72  2  0
 73 76  1  0
 73 72  1  0
 74 73  2  0
 75 74  1  0
 75 70  2  0
 76 77  1  0
 77 78  1  0
 78 79  2  0
 80 79  1  0
 80 84  1  0
 81 80  2  0
 82 77  2  0
 82 81  1  0
 83 82  1  0
 85 86  1  0
 86 89  1  0
 86 88  1  0
 87 85  2  0
 90 91  1  0
 90 65  1  0
 92 90  1  0
M  ISO  4  10 101  11 101  55 100  63 100
M  END
>  <TORSDO>  (64) 
F 21

>  <SCORE>  (64) 
-13.648

>  <name>  (64) 
63

>  <ligand_id>  (64) 
63

>  <original_smiles>  (64) 
[H]C(=Nc1sc(C([H])([H])N([H])C(=O)N2C([H])([H])C([H])([H])C([H])([H])C([H])(n3nc(-c4c([H])c([H])c(Oc5c([H])c([H])c(F)c([H])c5F)c([H])c4[H])c(C(=O)N([H])[H])c3N([H])[H])C2([H])[H])c(OC([H])([H])[H])c1[H])C([H])(C([H])([H])[H])C([H])([H])Oc1c([H])c([H])c2c(c1[H])C([H])([H])N(C(=O)C([H])(N([H])C(=O)C([H])(N([H])C([H])([H])[H])C([H])([H])[H])C(C([H])([H])[H])(C([H])([H])[H])C([H])([H])[H])C([H])(C(=O)N([H])C1([H])c3c([H])c([H])c([H])c([H])c3C([H])([H])C([H])([H])C1([H])[H])C2([H])[H]

>  <smiles>  (64) 
[H]C(=Nc1sc(C([H])([H])N([H])C(=O)N2C([H])([H])C([H])([H])C([H])([H])C([H])(n3nc(-c4c([H])c([H])c(Oc5c([H])c([H])c(F)c([H])c5F)c([H])c4[H])c(C(=O)N([H])[H])c3N([H])[H])C2([H])[H])c(OC([H])([H])[H])c1[H])C([H])(C([H])([H])[H])C([H])([H])Oc1c([H])c([H])c2c(c1[H])C([H])([H])N(C(=O)C([H])(N([H])C(=O)C([H])(N([H])C([H])([H])[H])C([H])([H])[H])C(C([H])([H])[H])(C([H])([H])[H])C([H])([H])[H])C([H])(C(=O)N([H])C1([H])c3c([H])c([H])c([H])c([H])c3C([H])([H])C([H])([H])C1([H])[H])C2([H])[H]

$$$$
64:0:0
     RDKit          3D

 97106  0  0  1  0  0  0  0  0999 V2000
  -29.1680  -23.9490   20.2100 C   0  0  0  0  0  0  0  0  0  0  0  0
  -29.1490  -22.6940   20.7970 C   0  0  0  0  0  0  0  0  0  0  0  0
  -30.2990  -24.2730   19.3190 C   0  0  0  0  0  0  0  0  0  0  0  0
  -31.5740  -23.4420   19.4420 C   0  0  0  0  0  2  0  0  0  0  0  0
  -31.3860  -21.9720   19.8880 C   0  0  0  0  0  2  0  0  0  0  0  0
  -28.0380  -22.3320   21.7750 C   0  0  0  0  0  1  0  0  0  0  0  0
  -30.1380  -21.6700   20.6100 N   0  0  0  0  0  0  0  0  0  0  0  0
  -30.2730  -25.1940   18.4970 O   0  0  0  0  0  0  0  0  0  0  0  0
  -30.7880  -17.9780   21.5360 C   0  0  0  0  0  3  0  0  0  0  0  0
  -29.0860  -18.0650   19.8610 C   0  0  0  0  0  3  0  0  0  0  0  0
  -30.8550  -19.4130   21.5410 C   0  0  0  0  0  0  0  0  0  0  0  0
  -30.0060  -20.2250   20.7200 C   0  0  0  0  0  0  0  0  0  0  0  0
  -29.9410  -17.2530   20.6600 C   0  0  0  0  0  0  0  0  0  0  0  0
  -29.0950  -19.5000   19.9010 C   0  0  0  0  0  0  0  0  0  0  0  0
  -31.8580  -20.0440   22.4930 C   0  0  0  0  0  1  0  0  0  0  0  0
  -30.5790  -14.7400   20.3030 C   0  0  0  0  0  0  0  0  0  0  0  0
  -30.3630  -12.4900   19.2180 C   0  0  0  0  0  2  0  0  0  0  0  0
  -29.4020  -12.6180   18.0140 C   0  0  0  0  0  2  0  0  0  0  0  0
  -27.9360  -12.4450   18.4650 C   0  0  0  0  0  2  0  0  0  0  0  0
  -27.5900  -13.3000   19.7150 C   0  0  0  0  0  3  0  0  0  0  0  0
  -28.6680  -13.1620   20.8100 C   0  0  0  0  0  2  0  0  0  0  0  0
  -29.9660  -13.5110   20.2140 N   0  0  0  0  0  0  0  0  0  0  0  0
  -31.7240  -14.9110   19.8830 O   0  0  0  0  0  0  0  0  0  0  0  0
  -29.7830  -15.7870   20.7140 N   0  0  0  0  0  0  0  0  0  0  0  0
  -28.8600  -15.4750   20.9730 H   0  0  0  0  0  0  0  0  0  0  0  0
  -25.2100  -13.8740   20.5050 C   0  0  0  0  0  0  0  0  0  0  0  0
  -24.1570  -13.0930   20.8940 C   0  0  0  0  0  0  0  0  0  0  0  0
  -24.6220  -11.7430   20.8290 C   0  0  0  0  0  0  0  0  0  0  0  0
  -26.2520  -13.0030   20.2260 N   0  0  0  0  0  0  0  0  0  0  0  0
  -25.9030  -11.7170   20.4840 N   0  0  0  0  0  0  0  0  0  0  0  0
  -23.9040  -10.4760   21.0180 C   0  0  0  0  0  0  0  0  0  0  0  0
  -24.3410   -9.5080   21.9490 C   0  0  0  0  0  3  0  0  0  0  0  0
  -23.6170   -8.3090   22.1260 C   0  0  0  0  0  3  0  0  0  0  0  0
  -22.4410   -8.0680   21.3730 C   0  0  0  0  0  0  0  0  0  0  0  0
  -22.0270   -9.0250   20.4300 C   0  0  0  0  0  3  0  0  0  0  0  0
  -22.7510  -10.2140   20.2490 C   0  0  0  0  0  3  0  0  0  0  0  0
  -21.6930   -6.9190   21.4570 O   0  0  0  0  0  0  0  0  0  0  0  0
  -21.6210   -6.1900   22.6190 C   0  0  0  0  0  0  0  0  0  0  0  0
  -21.1250   -6.7490   23.8170 C   0  0  0  0  0  3  0  0  0  0  0  0
  -21.0010   -5.9450   24.9700 C   0  0  0  0  0  3  0  0  0  0  0  0
  -21.3630   -4.5860   24.9220 C   0  0  0  0  0  0  0  0  0  0  0  0
  -21.8560   -4.0290   23.7300 C   0  0  0  0  0  3  0  0  0  0  0  0
  -21.9790   -4.8290   22.5800 C   0  0  0  0  0  0  0  0  0  0  0  0
  -22.4320   -4.2810   21.4240 F   0  0  0  0  0  0  0  0  0  0  0  0
  -21.2390   -3.8120   26.0260 F   0  0  0  0  0  0  0  0  0  0  0  0
  -22.7660  -13.5620   21.2100 C   0  0  0  0  0  0  0  0  0  0  0  0
  -22.0630  -12.8600   22.0920 N   0  0  0  0  0  0  0  0  0  0  0  0
  -22.3090  -14.5890   20.7050 O   0  0  0  0  0  0  0  0  0  0  0  0
  -22.4450  -12.0340   22.5320 H   0  0  0  0  0  0  0  0  0  0  0  0
  -21.1300  -13.1590   22.3400 H   0  0  0  0  0  0  0  0  0  0  0  0
  -25.3590  -15.2490   20.3420 N   0  0  0  0  0  0  0  0  0  0  0  0
  -24.5740  -15.8800   20.4580 H   0  0  0  0  0  0  0  0  0  0  0  0
  -26.1770  -15.7070   19.9670 H   0  0  0  0  0  0  0  0  0  0  0  0
  -28.3830  -20.2320   17.7780 C   0  0  0  0  0  1  0  0  0  0  0  0
  -28.1690  -20.2070   19.1750 O   0  0  0  0  0  0  0  0  0  0  0  0
  -28.0180  -25.0310   20.2640 C   0  0  0  0  0  2  0  0  0  0  0  0
  -28.3100  -26.4960   20.2680 O   0  0  0  0  0  0  0  0  0  0  0  0
  -24.6330  -31.9270   23.3040 C   0  0  0  0  0  0  0  0  0  0  0  0
  -27.2030  -27.3700   20.2160 C   0  0  0  0  0  0  0  0  0  0  0  0
  -23.4100  -30.5570   21.6580 C   0  0  0  0  0  3  0  0  0  0  0  0
  -24.8450  -29.0050   20.2180 C   0  0  0  0  0  0  0  0  0  0  0  0
  -25.9520  -30.8660   21.4550 C   0  0  0  0  0  2  0  0  0  0  0  0
  -26.0240  -29.4890   20.7970 C   0  0  0  0  0  0  0  0  0  0  0  0
  -27.2100  -28.6900   20.7740 C   0  0  0  0  0  3  0  0  0  0  0  0
  -25.9930  -26.9470   19.6200 C   0  0  0  0  0  3  0  0  0  0  0  0
  -24.8320  -27.7400   19.6180 C   0  0  0  0  0  3  0  0  0  0  0  0
  -23.6100  -29.8800   20.2760 C   0  0  0  0  0  2  0  0  0  0  0  0
  -24.6850  -31.1310   22.1950 N   0  0  0  0  0  0  0  0  0  0  0  0
  -23.5530  -32.2030   23.8460 O   0  0  0  0  0  0  0  0  0  0  0  0
  -22.7370  -29.5420   22.6120 C   0  0  0  0  0  0  0  0  0  0  0  0
  -21.4140  -29.3670   22.4720 N   0  0  0  0  0  0  0  0  0  0  0  0
  -23.4080  -28.9100   23.4310 O   0  0  0  0  0  0  0  0  0  0  0  0
  -20.9300  -29.9290   21.7850 H   0  0  0  0  0  0  0  0  0  0  0  0
  -18.0260  -28.1910   22.9500 C   0  0  0  0  0  0  0  0  0  0  0  0
  -20.5850  -28.4270   23.2300 C   0  0  0  0  0  3  0  0  0  0  0  0
  -20.6770  -27.0000   22.6430 C   0  0  0  0  0  2  0  0  0  0  0  0
  -19.5770  -26.6970   21.6200 C   0  0  0  0  0  2  0  0  0  0  0  0
  -18.1960  -26.8480   22.2620 C   0  0  0  0  0  2  0  0  0  0  0  0
  -19.1480  -28.9410   23.3910 C   0  0  0  0  0  0  0  0  0  0  0  0
  -18.9380  -30.2030   23.9870 C   0  0  0  0  0  3  0  0  0  0  0  0
  -17.6350  -30.7140   24.1480 C   0  0  0  0  0  3  0  0  0  0  0  0
  -16.5270  -29.9600   23.7250 C   0  0  0  0  0  3  0  0  0  0  0  0
  -16.7240  -28.6990   23.1350 C   0  0  0  0  0  3  0  0  0  0  0  0
  -25.9230  -32.5410   23.9290 C   0  0  0  0  0  3  0  0  0  0  0  0
  -26.4150  -31.7670   25.2120 C   0  0  1  0  0  0  0  0  0  0  0  0
  -25.3110  -31.5520   26.2740 C   0  0  0  0  0  1  0  0  0  0  0  0
  -26.9780  -30.3820   24.8250 C   0  0  0  0  0  1  0  0  0  0  0  0
  -27.5670  -32.5450   25.8890 C   0  0  0  0  0  1  0  0  0  0  0  0
  -25.6290  -33.9430   24.2570 N   0  0  0  0  0  0  0  0  0  0  0  0
  -25.9400  -34.9900   23.4820 C   0  0  0  0  0  0  0  0  0  0  0  0
  -26.5740  -34.8740   22.4290 O   0  0  0  0  0  0  0  0  0  0  0  0
  -25.0560  -34.1050   25.0730 H   0  0  0  0  0  0  0  0  0  0  0  0
  -24.1930  -36.7800   23.1940 C   0  0  0  0  0  1  0  0  0  0  0  0
  -25.4730  -36.3850   23.9470 C   0  0  0  0  0  3  0  0  0  0  0  0
  -27.6430  -37.2860   24.6620 C   0  0  0  0  0  1  0  0  0  0  0  0
  -26.4980  -37.4370   23.7710 N   0  0  0  0  0  0  0  0  0  0  0  0
  -26.0970  -38.3600   23.9170 H   0  0  0  0  0  0  0  0  0  0  0  0
  1 56  1  0
  1  2  2  0
  2  6  1  0
  3  4  1  0
  3  1  1  0
  4  5  1  0
  5  7  1  0
  7 12  1  0
  7  2  1  0
  8  3  2  0
  9 11  1  0
 10 14  2  0
 10 13  1  0
 11 15  1  0
 12 11  2  0
 13 24  1  0
 13  9  2  0
 14 12  1  0
 16 24  1  0
 17 22  1  0
 18 19  1  0
 18 17  1  0
 20 19  1  0
 20 29  1  0
 20 21  1  0
 22 16  1  0
 22 21  1  0
 23 16  2  0
 24 25  1  0
 26 27  2  0
 27 46  1  0
 28 27  1  0
 28 31  1  0
 29 30  1  0
 29 26  1  0
 30 28  2  0
 31 32  1  0
 32 33  2  0
 34 37  1  0
 34 33  1  0
 35 34  2  0
 36 35  1  0
 36 31  2  0
 37 38  1  0
 38 39  1  0
 39 40  2  0
 41 40  1  0
 41 45  1  0
 42 41  2  0
 43 38  2  0
 43 42  1  0
 44 43  1  0
 46 47  1  0
 47 50  1  0
 47 49  1  0
 48 46  2  0
 51 52  1  0
 51 26  1  0
 53 51  1  0
 54 55  1  0
 55 14  1  0
 56 57  1  0
 58 69  2  0
 59 57  1  0
 59 64  1  0
 60 68  1  0
 60 70  1  0
 61 67  1  0
 61 63  1  0
 62 68  1  0
 63 62  1  0
 64 63  2  0
 65 59  2  0
 66 65  1  0
 66 61  2  0
 67 60  1  0
 68 58  1  0
 70 72  2  0
 71 70  1  0
 73 71  1  0
 74 83  2  0
 74 79  1  0
 75 71  1  0
 75 79  1  0
 76 75  1  0
 77 78  1  0
 77 76  1  0
 78 74  1  0
 79 80  2  0
 80 81  1  0
 82 81  2  0
 83 82  1  0
 84 58  1  0
 84 89  1  0
 84 85  1  0
 85 88  1  1
 85 86  1  0
 87 85  1  0
 89 92  1  0
 90 94  1  0
 90 89  1  0
 91 90  2  0
 94 93  1  0
 96 97  1  0
 96 94  1  0
 96 95  1  0
M  ISO  4  16 100  24 100  56 101  57 101
M  END
>  <TORSDO>  (65) 
F 19

>  <SCORE>  (65) 
-14.900

>  <name>  (65) 
64

>  <ligand_id>  (65) 
64

>  <original_smiles>  (65) 
[H]c1c([H])c([H])c2c(c1[H])C([H])([H])C([H])([H])C([H])([H])C2([H])N([H])C(=O)C1([H])N(C(=O)C([H])(N([H])C(=O)C([H])(N([H])C([H])([H])[H])C([H])([H])[H])C(C([H])([H])[H])(C([H])([H])[H])C([H])([H])[H])C([H])([H])c2c([H])c(OC([H])([H])C3=C(C([H])([H])[H])N(c4c(OC([H])([H])[H])c([H])c(N([H])C(=O)N5C([H])([H])C([H])([H])C([H])([H])C([H])(n6nc(-c7c([H])c([H])c(Oc8c([H])c([H])c(F)c([H])c8F)c([H])c7[H])c(C(=O)N([H])[H])c6N([H])[H])C5([H])[H])c([H])c4C([H])([H])[H])C([H])([H])C([H])([H])C3=O)c([H])c([H])c2C1([H])[H]

>  <smiles>  (65) 
[H]c1c([H])c([H])c2c(c1[H])C([H])([H])C([H])([H])C([H])([H])C2([H])N([H])C(=O)C1([H])N(C(=O)C([H])(N([H])C(=O)C([H])(N([H])C([H])([H])[H])C([H])([H])[H])C(C([H])([H])[H])(C([H])([H])[H])C([H])([H])[H])C([H])([H])c2c([H])c(OC([H])([H])C3=C(C([H])([H])[H])N(c4c(OC([H])([H])[H])c([H])c(N([H])C(=O)N5C([H])([H])C([H])([H])C([H])([H])C([H])(n6nc(-c7c([H])c([H])c(Oc8c([H])c([H])c(F)c([H])c8F)c([H])c7[H])c(C(=O)N([H])[H])c6N([H])[H])C5([H])[H])c([H])c4C([H])([H])[H])C([H])([H])C([H])([H])C3=O)c([H])c([H])c2C1([H])[H]

$$$$
65:0:0
     RDKit          3D

 94103  0  0  1  0  0  0  0  0999 V2000
  -27.7620  -21.9560   18.3610 C   0  0  0  0  0  0  0  0  0  0  0  0
  -26.4950  -22.7430   18.6950 C   0  0  0  0  0  2  0  0  0  0  0  0
  -26.7210  -23.0900   20.1700 C   0  0  0  0  0  2  0  0  0  0  0  0
  -28.2430  -23.2110   20.2270 C   0  0  0  0  0  3  0  0  0  0  0  0
  -28.6420  -21.9360   19.3850 N   0  0  0  0  0  0  0  0  0  0  0  0
  -27.9080  -21.3840   17.2760 O   0  0  0  0  0  0  0  0  0  0  0  0
  -30.2890  -19.8660   19.3770 C   0  0  0  0  0  3  0  0  0  0  0  0
  -30.5890  -18.4400   19.4920 C   0  0  0  0  0  3  0  0  0  0  0  0
  -28.1420  -19.5000   20.2520 C   0  0  0  0  0  3  0  0  0  0  0  0
  -28.4270  -18.0730   20.3560 C   0  0  0  0  0  0  0  0  0  0  0  0
  -29.0460  -20.4920   19.7510 C   0  0  0  0  0  0  0  0  0  0  0  0
  -29.6770  -17.4400   19.9830 C   0  0  0  0  0  0  0  0  0  0  0  0
  -27.2850  -17.2300   20.8820 C   0  0  0  0  0  1  0  0  0  0  0  0
  -30.4960  -14.8390   19.5570 C   0  0  0  0  0  0  0  0  0  0  0  0
  -30.1360  -12.5340   18.5390 C   0  0  0  0  0  2  0  0  0  0  0  0
  -29.0820  -12.6100   17.4100 C   0  0  0  0  0  2  0  0  0  0  0  0
  -27.6680  -12.4190   17.9900 C   0  0  0  0  0  2  0  0  0  0  0  0
  -27.4290  -13.2960   19.2460 C   0  0  0  0  0  3  0  0  0  0  0  0
  -28.6020  -13.2240   20.2490 C   0  0  0  0  0  2  0  0  0  0  0  0
  -29.8290  -13.6070   19.5320 N   0  0  0  0  0  0  0  0  0  0  0  0
  -31.5760  -14.8990   18.9540 O   0  0  0  0  0  0  0  0  0  0  0  0
  -30.0150  -15.9570   20.3090 N   0  0  0  0  0  0  0  0  0  0  0  0
  -25.1640  -13.8990   20.2730 C   0  0  0  0  0  0  0  0  0  0  0  0
  -24.1360  -13.1380   20.7480 C   0  0  0  0  0  0  0  0  0  0  0  0
  -24.5560  -11.7800   20.6200 C   0  0  0  0  0  0  0  0  0  0  0  0
  -26.1490  -13.0090   19.8850 N   0  0  0  0  0  0  0  0  0  0  0  0
  -25.7990  -11.7240   20.1550 N   0  0  0  0  0  0  0  0  0  0  0  0
  -23.8190  -10.5310   20.8510 C   0  0  0  0  0  0  0  0  0  0  0  0
  -24.3020   -9.5430   21.7380 C   0  0  0  0  0  3  0  0  0  0  0  0
  -23.5640   -8.3600   21.9610 C   0  0  0  0  0  3  0  0  0  0  0  0
  -22.3320   -8.1570   21.2950 C   0  0  0  0  0  0  0  0  0  0  0  0
  -21.8680   -9.1320   20.3960 C   0  0  0  0  0  3  0  0  0  0  0  0
  -22.6050  -10.3070   20.1720 C   0  0  0  0  0  3  0  0  0  0  0  0
  -21.5610   -7.0280   21.4280 O   0  0  0  0  0  0  0  0  0  0  0  0
  -21.5520   -6.2930   22.5870 C   0  0  0  0  0  0  0  0  0  0  0  0
  -21.2080   -6.8650   23.8300 C   0  0  0  0  0  3  0  0  0  0  0  0
  -21.1450   -6.0590   24.9840 C   0  0  0  0  0  3  0  0  0  0  0  0
  -21.4170   -4.6800   24.8950 C   0  0  0  0  0  0  0  0  0  0  0  0
  -21.7550   -4.1060   23.6560 C   0  0  0  0  0  3  0  0  0  0  0  0
  -21.8200   -4.9120   22.5050 C   0  0  0  0  0  0  0  0  0  0  0  0
  -22.1240   -4.3500   21.3110 F   0  0  0  0  0  0  0  0  0  0  0  0
  -21.3470   -3.9030   26.0010 F   0  0  0  0  0  0  0  0  0  0  0  0
  -22.7950  -13.6380   21.2010 C   0  0  0  0  0  0  0  0  0  0  0  0
  -22.1660  -12.9380   22.1360 N   0  0  0  0  0  0  0  0  0  0  0  0
  -22.3240  -14.6900   20.7640 O   0  0  0  0  0  0  0  0  0  0  0  0
  -22.5640  -12.0840   22.4990 H   0  0  0  0  0  0  0  0  0  0  0  0
  -21.2730  -13.2580   22.4880 H   0  0  0  0  0  0  0  0  0  0  0  0
  -25.3360  -15.2690   20.1110 N   0  0  0  0  0  0  0  0  0  0  0  0
  -24.6200  -15.9430   20.3570 H   0  0  0  0  0  0  0  0  0  0  0  0
  -26.1450  -15.6920   19.6760 H   0  0  0  0  0  0  0  0  0  0  0  0
  -31.6050  -16.6480   22.1160 C   0  0  0  0  0  1  0  0  0  0  0  0
  -30.3880  -15.7820   21.7290 C   0  0  0  0  0  2  0  0  0  0  0  0
  -28.5470  -24.7780   19.6560 C   0  0  0  0  0  2  0  0  0  0  0  0
  -28.3300  -26.1670   20.3000 O   0  0  0  0  0  0  0  0  0  0  0  0
  -24.4880  -31.7180   23.1050 C   0  0  0  0  0  0  0  0  0  0  0  0
  -27.2240  -27.0670   20.1500 C   0  0  0  0  0  0  0  0  0  0  0  0
  -23.3440  -30.2850   21.4500 C   0  0  0  0  0  3  0  0  0  0  0  0
  -24.8550  -28.7360   20.0560 C   0  0  0  0  0  0  0  0  0  0  0  0
  -25.8890  -30.6160   21.3270 C   0  0  0  0  0  2  0  0  0  0  0  0
  -26.0040  -29.2210   20.6900 C   0  0  0  0  0  0  0  0  0  0  0  0
  -27.1820  -28.3920   20.7320 C   0  0  0  0  0  3  0  0  0  0  0  0
  -26.0510  -26.6700   19.4750 C   0  0  0  0  0  3  0  0  0  0  0  0
  -24.8860  -27.4730   19.4390 C   0  0  0  0  0  3  0  0  0  0  0  0
  -23.6080  -29.6020   20.0780 C   0  0  0  0  0  2  0  0  0  0  0  0
  -24.5910  -30.8960   22.0170 N   0  0  0  0  0  0  0  0  0  0  0  0
  -23.3890  -31.9800   23.6150 O   0  0  0  0  0  0  0  0  0  0  0  0
  -22.6730  -29.2700   22.4070 C   0  0  0  0  0  0  0  0  0  0  0  0
  -21.3480  -29.0820   22.2710 N   0  0  0  0  0  0  0  0  0  0  0  0
  -23.3460  -28.6520   23.2360 O   0  0  0  0  0  0  0  0  0  0  0  0
  -20.8580  -29.6370   21.5830 H   0  0  0  0  0  0  0  0  0  0  0  0
  -17.9770  -27.8450   22.7420 C   0  0  0  0  0  0  0  0  0  0  0  0
  -20.5310  -28.1330   23.0330 C   0  0  0  0  0  3  0  0  0  0  0  0
  -20.6560  -26.7040   22.4560 C   0  0  0  0  0  2  0  0  0  0  0  0
  -19.5660  -26.3720   21.4290 C   0  0  0  0  0  2  0  0  0  0  0  0
  -18.1760  -26.4990   22.0620 C   0  0  0  0  0  2  0  0  0  0  0  0
  -19.0840  -28.6180   23.1830 C   0  0  0  0  0  0  0  0  0  0  0  0
  -18.8470  -29.8750   23.7780 C   0  0  0  0  0  3  0  0  0  0  0  0
  -17.5350  -30.3590   23.9460 C   0  0  0  0  0  3  0  0  0  0  0  0
  -16.4420  -29.5810   23.5260 C   0  0  0  0  0  3  0  0  0  0  0  0
  -16.6630  -28.3300   22.9250 C   0  0  0  0  0  3  0  0  0  0  0  0
  -25.7420  -32.3830   23.7500 C   0  0  0  0  0  3  0  0  0  0  0  0
  -26.2520  -31.6280   25.0400 C   0  0  1  0  0  0  0  0  0  0  0  0
  -25.1460  -31.3770   26.0920 C   0  0  0  0  0  1  0  0  0  0  0  0
  -26.8670  -30.2570   24.6790 C   0  0  0  0  0  1  0  0  0  0  0  0
  -27.3830  -32.4440   25.7140 C   0  0  0  0  0  1  0  0  0  0  0  0
  -25.3990  -33.7760   24.0770 N   0  0  0  0  0  0  0  0  0  0  0  0
  -25.7130  -34.8370   23.3210 C   0  0  0  0  0  0  0  0  0  0  0  0
  -26.3900  -34.7460   22.2920 O   0  0  0  0  0  0  0  0  0  0  0  0
  -24.7990  -33.9190   24.8770 H   0  0  0  0  0  0  0  0  0  0  0  0
  -23.9500  -36.5940   22.9600 C   0  0  0  0  0  1  0  0  0  0  0  0
  -25.1980  -36.2170   23.7750 C   0  0  0  0  0  3  0  0  0  0  0  0
  -27.3120  -37.1500   24.6060 C   0  0  0  0  0  1  0  0  0  0  0  0
  -26.2090  -37.2910   23.6600 N   0  0  0  0  0  0  0  0  0  0  0  0
  -25.7850  -38.2040   23.8040 H   0  0  0  0  0  0  0  0  0  0  0  0
  1  2  1  0
  1  5  1  0
  2  3  1  0
  3  4  1  0
  4 53  1  0
  5 11  1  0
  5  4  1  0
  6  1  2  0
  7  8  2  0
  7 11  1  0
  8 12  1  0
  9 10  1  0
 10 13  1  0
 11  9  2  0
 12 22  1  0
 12 10  2  0
 14 22  1  0
 15 20  1  0
 16 17  1  0
 16 15  1  0
 18 17  1  0
 18 26  1  0
 18 19  1  0
 20 14  1  0
 20 19  1  0
 21 14  2  0
 22 52  1  0
 23 24  2  0
 24 43  1  0
 25 24  1  0
 25 28  1  0
 26 27  1  0
 26 23  1  0
 27 25  2  0
 28 29  1  0
 29 30  2  0
 31 34  1  0
 31 30  1  0
 32 31  2  0
 33 32  1  0
 33 28  2  0
 34 35  1  0
 35 36  1  0
 36 37  2  0
 38 37  1  0
 38 42  1  0
 39 38  2  0
 40 35  2  0
 40 39  1  0
 41 40  1  0
 43 44  1  0
 44 47  1  0
 44 46  1  0
 45 43  2  0
 48 23  1  0
 48 49  1  0
 50 48  1  0
 52 51  1  0
 53 54  1  0
 55 66  2  0
 56 54  1  0
 56 61  1  0
 57 65  1  0
 57 67  1  0
 58 64  1  0
 58 60  1  0
 59 65  1  0
 60 61  2  0
 60 59  1  0
 62 56  2  0
 63 62  1  0
 63 58  2  0
 64 57  1  0
 65 55  1  0
 67 69  2  0
 68 67  1  0
 70 68  1  0
 71 80  2  0
 71 76  1  0
 72 68  1  0
 72 76  1  0
 73 72  1  0
 74 75  1  0
 74 73  1  0
 75 71  1  0
 76 77  2  0
 77 78  1  0
 79 78  2  0
 80 79  1  0
 81 55  1  0
 81 86  1  0
 81 82  1  0
 82 85  1  1
 82 83  1  0
 84 82  1  0
 86 89  1  0
 87 91  1  0
 87 86  1  0
 88 87  2  0
 91 90  1  0
 93 91  1  0
 93 94  1  0
 93 92  1  0
M  ISO  4  14 100  22 100  53 101  54 101
M  END
>  <TORSDO>  (66) 
F 19

>  <SCORE>  (66) 
-13.078

>  <name>  (66) 
65

>  <ligand_id>  (66) 
65

>  <original_smiles>  (66) 
[H]c1c([H])c([H])c2c(c1[H])C([H])([H])C([H])([H])C([H])([H])C2([H])N([H])C(=O)C1([H])N(C(=O)C([H])(N([H])C(=O)C([H])(N([H])C([H])([H])[H])C([H])([H])[H])C(C([H])([H])[H])(C([H])([H])[H])C([H])([H])[H])C([H])([H])c2c([H])c(OC([H])([H])C3([H])N(c4c([H])c([H])c(N(C(=O)N5C([H])([H])C([H])([H])C([H])([H])C([H])(n6nc(-c7c([H])c([H])c(Oc8c([H])c([H])c(F)c([H])c8F)c([H])c7[H])c(C(=O)N([H])[H])c6N([H])[H])C5([H])[H])C([H])([H])C([H])([H])[H])c(C([H])([H])[H])c4[H])C(=O)C([H])([H])C3([H])[H])c([H])c([H])c2C1([H])[H]

>  <smiles>  (66) 
[H]c1c([H])c([H])c2c(c1[H])C([H])([H])C([H])([H])C([H])([H])C2([H])N([H])C(=O)C1([H])N(C(=O)C([H])(N([H])C(=O)C([H])(N([H])C([H])([H])[H])C([H])([H])[H])C(C([H])([H])[H])(C([H])([H])[H])C([H])([H])[H])C([H])([H])c2c([H])c(OC([H])([H])C3([H])N(c4c([H])c([H])c(N(C(=O)N5C([H])([H])C([H])([H])C([H])([H])C([H])(n6nc(-c7c([H])c([H])c(Oc8c([H])c([H])c(F)c([H])c8F)c([H])c7[H])c(C(=O)N([H])[H])c6N([H])[H])C5([H])[H])C([H])([H])C([H])([H])[H])c(C([H])([H])[H])c4[H])C(=O)C([H])([H])C3([H])[H])c([H])c([H])c2C1([H])[H]

$$$$
66:0:0
     RDKit          3D

 95103  0  0  1  0  0  0  0  0999 V2000
  -27.8350  -18.7280   18.0040 C   0  0  0  0  0  3  0  0  0  0  0  0
  -28.2700  -19.6620   18.9440 C   0  0  0  0  0  3  0  0  0  0  0  0
  -29.1850  -17.0810   19.0900 C   0  0  0  0  0  3  0  0  0  0  0  0
  -28.3380  -17.4410   18.0420 C   0  0  0  0  0  0  0  0  0  0  0  0
  -29.6190  -17.9330   20.1550 C   0  0  0  0  0  0  0  0  0  0  0  0
  -29.2250  -19.4440   19.9880 C   0  0  0  0  0  0  0  0  0  0  0  0
  -30.9830  -15.6880   21.0000 C   0  0  0  0  0  0  0  0  0  0  0  0
  -30.9980  -13.2790   20.1280 C   0  0  0  0  0  2  0  0  0  0  0  0
  -30.1840  -13.0840   18.8280 C   0  0  0  0  0  2  0  0  0  0  0  0
  -28.7050  -12.8170   19.1550 C   0  0  0  0  0  2  0  0  0  0  0  0
  -28.1550  -13.7740   20.2450 C   0  0  0  0  0  3  0  0  0  0  0  0
  -29.1120  -13.9420   21.4440 C   0  0  0  0  0  2  0  0  0  0  0  0
  -30.3940  -14.4130   20.9040 N   0  0  0  0  0  0  0  0  0  0  0  0
  -32.2040  -15.7040   20.7940 O   0  0  0  0  0  0  0  0  0  0  0  0
  -30.2870  -16.9640   21.1980 N   0  0  0  0  0  0  0  0  0  0  0  0
  -25.7340  -14.2630   20.8760 C   0  0  0  0  0  0  0  0  0  0  0  0
  -24.6700  -13.4490   21.1490 C   0  0  0  0  0  0  0  0  0  0  0  0
  -25.1690  -12.1110   21.0940 C   0  0  0  0  0  0  0  0  0  0  0  0
  -26.8080  -13.4190   20.6620 N   0  0  0  0  0  0  0  0  0  0  0  0
  -26.4760  -12.1170   20.8620 N   0  0  0  0  0  0  0  0  0  0  0  0
  -24.4620  -10.8280   21.1890 C   0  0  0  0  0  0  0  0  0  0  0  0
  -24.7950   -9.8720   22.1730 C   0  0  0  0  0  3  0  0  0  0  0  0
  -24.0860   -8.6540   22.2580 C   0  0  0  0  0  3  0  0  0  0  0  0
  -23.0330   -8.3810   21.3540 C   0  0  0  0  0  0  0  0  0  0  0  0
  -22.7220   -9.3250   20.3590 C   0  0  0  0  0  3  0  0  0  0  0  0
  -23.4310  -10.5350   20.2750 C   0  0  0  0  0  3  0  0  0  0  0  0
  -22.3070   -7.2130   21.3440 O   0  0  0  0  0  0  0  0  0  0  0  0
  -22.0140   -6.5390   22.5000 C   0  0  0  0  0  0  0  0  0  0  0  0
  -21.2760   -7.1390   23.5450 C   0  0  0  0  0  3  0  0  0  0  0  0
  -20.9370   -6.3870   24.6880 C   0  0  0  0  0  3  0  0  0  0  0  0
  -21.3270   -5.0380   24.7830 C   0  0  0  0  0  0  0  0  0  0  0  0
  -22.0570   -4.4380   23.7420 C   0  0  0  0  0  3  0  0  0  0  0  0
  -22.3960   -5.1860   22.6020 C   0  0  0  0  0  0  0  0  0  0  0  0
  -23.0820   -4.6010   21.5900 F   0  0  0  0  0  0  0  0  0  0  0  0
  -20.9950   -4.3120   25.8760 F   0  0  0  0  0  0  0  0  0  0  0  0
  -23.2490  -13.8840   21.3450 C   0  0  0  0  0  0  0  0  0  0  0  0
  -22.4890  -13.1420   22.1430 N   0  0  0  0  0  0  0  0  0  0  0  0
  -22.8190  -14.9140   20.8270 O   0  0  0  0  0  0  0  0  0  0  0  0
  -22.8550  -12.3110   22.5840 H   0  0  0  0  0  0  0  0  0  0  0  0
  -21.5290  -13.4040   22.3130 H   0  0  0  0  0  0  0  0  0  0  0  0
  -25.8730  -15.6430   20.7640 N   0  0  0  0  0  0  0  0  0  0  0  0
  -25.0810  -16.2700   20.8590 H   0  0  0  0  0  0  0  0  0  0  0  0
  -26.7210  -16.1150   20.4760 H   0  0  0  0  0  0  0  0  0  0  0  0
  -30.6080  -18.6900   22.9550 C   0  0  0  0  0  2  0  0  0  0  0  0
  -30.4960  -17.4250   22.5140 C   0  0  0  0  0  3  0  0  0  0  0  0
  -27.9770  -16.5120   17.0690 N   0  0  0  0  0  0  0  0  0  0  0  0
  -27.2230  -16.7050   16.4180 H   0  0  0  0  0  0  0  0  0  0  0  0
  -28.1990  -15.5260   17.1700 H   0  0  0  0  0  0  0  0  0  0  0  0
  -29.5950  -20.7800   20.5680 O   0  0  0  0  0  0  0  0  0  0  0  0
  -27.4980  -22.0140   21.1340 C   0  0  0  0  0  1  0  0  0  0  0  0
  -28.7990  -22.1590   20.3190 C   0  0  0  0  0  3  0  0  0  0  0  0
  -29.3450  -23.7520   20.4940 C   0  0  0  0  0  0  0  0  0  0  0  0
  -30.5150  -23.9330   20.8430 O   0  0  0  0  0  0  0  0  0  0  0  0
  -28.3810  -25.1110   20.1890 C   0  0  0  0  0  2  0  0  0  0  0  0
  -28.7180  -26.6360   20.4740 O   0  0  0  0  0  0  0  0  0  0  0  0
  -24.8270  -32.1010   23.6720 C   0  0  0  0  0  0  0  0  0  0  0  0
  -27.6830  -27.6650   20.4170 C   0  0  0  0  0  0  0  0  0  0  0  0
  -23.7670  -30.8400   21.8400 C   0  0  0  0  0  3  0  0  0  0  0  0
  -25.3380  -29.4170   20.3810 C   0  0  0  0  0  0  0  0  0  0  0  0
  -26.3270  -31.1430   21.8740 C   0  0  0  0  0  2  0  0  0  0  0  0
  -26.4710  -29.8120   21.1040 C   0  0  0  0  0  0  0  0  0  0  0  0
  -27.6460  -28.9560   21.1010 C   0  0  0  0  0  3  0  0  0  0  0  0
  -26.5230  -27.3970   19.6540 C   0  0  0  0  0  3  0  0  0  0  0  0
  -25.3820  -28.2280   19.6410 C   0  0  0  0  0  3  0  0  0  0  0  0
  -24.0940  -30.2930   20.4260 C   0  0  0  0  0  2  0  0  0  0  0  0
  -24.9900  -31.3800   22.5200 N   0  0  0  0  0  0  0  0  0  0  0  0
  -23.7010  -32.3210   24.1470 O   0  0  0  0  0  0  0  0  0  0  0  0
  -23.0450  -29.7420   22.6620 C   0  0  0  0  0  0  0  0  0  0  0  0
  -21.7440  -29.5270   22.3970 N   0  0  0  0  0  0  0  0  0  0  0  0
  -23.6640  -29.0870   23.5050 O   0  0  0  0  0  0  0  0  0  0  0  0
  -21.3030  -30.1110   21.7000 H   0  0  0  0  0  0  0  0  0  0  0  0
  -18.4010  -28.1290   22.4610 C   0  0  0  0  0  0  0  0  0  0  0  0
  -20.8970  -28.5080   23.0220 C   0  0  0  0  0  3  0  0  0  0  0  0
  -21.1410  -27.1180   22.3900 C   0  0  0  0  0  2  0  0  0  0  0  0
  -20.1750  -26.7970   21.2440 C   0  0  0  0  0  2  0  0  0  0  0  0
  -18.7260  -26.8330   21.7380 C   0  0  0  0  0  2  0  0  0  0  0  0
  -19.4210  -28.9240   23.0500 C   0  0  0  0  0  0  0  0  0  0  0  0
  -19.0650  -30.1340   23.6820 C   0  0  0  0  0  3  0  0  0  0  0  0
  -17.7210  -30.5520   23.7340 C   0  0  0  0  0  3  0  0  0  0  0  0
  -16.7150  -29.7560   23.1610 C   0  0  0  0  0  3  0  0  0  0  0  0
  -17.0550  -28.5460   22.5290 C   0  0  0  0  0  3  0  0  0  0  0  0
  -26.0450  -32.7010   24.4370 C   0  0  0  0  0  3  0  0  0  0  0  0
  -25.7290  -34.1020   24.7550 N   0  0  0  0  0  0  0  0  0  0  0  0
  -26.1340  -35.1600   24.0390 C   0  0  0  0  0  0  0  0  0  0  0  0
  -26.8760  -35.0560   23.0600 O   0  0  0  0  0  0  0  0  0  0  0  0
  -25.0790  -34.2560   25.5120 H   0  0  0  0  0  0  0  0  0  0  0  0
  -24.4570  -36.9860   23.5930 C   0  0  0  0  0  1  0  0  0  0  0  0
  -25.6380  -36.5530   24.4790 C   0  0  0  0  0  3  0  0  0  0  0  0
  -27.7220  -37.4060   25.4600 C   0  0  0  0  0  1  0  0  0  0  0  0
  -26.6900  -37.5920   24.4430 N   0  0  0  0  0  0  0  0  0  0  0  0
  -26.2880  -38.5170   24.5630 H   0  0  0  0  0  0  0  0  0  0  0  0
  -26.4010  -31.9060   25.7550 C   0  0  1  0  0  0  0  0  0  0  0  0
  -25.1890  -31.6710   26.6870 C   0  0  0  0  0  1  0  0  0  0  0  0
  -27.0080  -30.5250   25.4230 C   0  0  0  0  0  1  0  0  0  0  0  0
  -27.4800  -32.6760   26.5530 C   0  0  0  0  0  1  0  0  0  0  0  0
  1  4  2  0
  1  2  1  0
  2  6  2  0
  3  5  2  0
  4  3  1  0
  5 15  1  0
  6  5  1  0
  6 49  1  0
  7 15  1  0
  8 13  1  0
  9 10  1  0
  9  8  1  0
 11 10  1  0
 11 19  1  0
 11 12  1  0
 13  7  1  0
 13 12  1  0
 14  7  2  0
 15 45  1  0
 16 17  2  0
 17 36  1  0
 18 17  1  0
 18 21  1  0
 19 20  1  0
 19 16  1  0
 20 18  2  0
 21 22  1  0
 22 23  2  0
 24 23  1  0
 25 24  2  0
 26 25  1  0
 26 21  2  0
 27 24  1  0
 27 28  1  0
 28 33  2  0
 28 29  1  0
 29 30  2  0
 30 31  1  0
 31 35  1  0
 32 31  2  0
 33 32  1  0
 34 33  1  0
 36 37  1  0
 37 40  1  0
 37 39  1  0
 38 36  2  0
 41 42  1  0
 41 16  1  0
 43 41  1  0
 45 44  2  0
 46 48  1  0
 46  4  1  0
 47 46  1  0
 51 52  1  0
 51 49  1  0
 51 50  1  0
 52 53  2  0
 54 55  1  0
 54 52  1  0
 56 67  2  0
 57 55  1  0
 57 62  1  0
 58 66  1  0
 58 68  1  0
 59 65  1  0
 59 61  1  0
 60 66  1  0
 61 60  1  0
 62 61  2  0
 63 57  2  0
 64 63  1  0
 64 59  2  0
 65 58  1  0
 66 56  1  0
 68 70  2  0
 69 68  1  0
 71 69  1  0
 72 81  2  0
 72 77  1  0
 73 69  1  0
 73 77  1  0
 74 73  1  0
 75 76  1  0
 75 74  1  0
 76 72  1  0
 77 78  2  0
 78 79  1  0
 80 79  2  0
 81 80  1  0
 82 56  1  0
 82 83  1  0
 82 92  1  0
 83 86  1  0
 84 88  1  0
 84 83  1  0
 85 84  2  0
 88 87  1  0
 90 88  1  0
 90 91  1  0
 90 89  1  0
 92 95  1  1
 92 93  1  0
 94 92  1  0
M  ISO  4   7 100  15 100  54 101  55 101
M  END
>  <TORSDO>  (67) 
F 22

>  <SCORE>  (67) 
-8.347

>  <name>  (67) 
66

>  <ligand_id>  (67) 
66

>  <original_smiles>  (67) 
[H]C([H])=C([H])N(C(=O)N1C([H])([H])C([H])([H])C([H])([H])C([H])(n2nc(-c3c([H])c([H])c(Oc4c([H])c([H])c(F)c([H])c4F)c([H])c3[H])c(C(=O)N([H])[H])c2N([H])[H])C1([H])[H])c1c([H])c(N([H])[H])c([H])c([H])c1OC([H])(C(=O)C([H])([H])Oc1c([H])c([H])c2c(c1[H])C([H])([H])N(C(=O)C([H])(N([H])C(=O)C([H])(N([H])C([H])([H])[H])C([H])([H])[H])C(C([H])([H])[H])(C([H])([H])[H])C([H])([H])[H])C([H])(C(=O)N([H])C1([H])c3c([H])c([H])c([H])c([H])c3C([H])([H])C([H])([H])C1([H])[H])C2([H])[H])C([H])([H])[H]

>  <smiles>  (67) 
[H]C([H])=C([H])N(C(=O)N1C([H])([H])C([H])([H])C([H])([H])C([H])(n2nc(-c3c([H])c([H])c(Oc4c([H])c([H])c(F)c([H])c4F)c([H])c3[H])c(C(=O)N([H])[H])c2N([H])[H])C1([H])[H])c1c([H])c(N([H])[H])c([H])c([H])c1OC([H])(C(=O)C([H])([H])Oc1c([H])c([H])c2c(c1[H])C([H])([H])N(C(=O)C([H])(N([H])C(=O)C([H])(N([H])C([H])([H])[H])C([H])([H])[H])C(C([H])([H])[H])(C([H])([H])[H])C([H])([H])[H])C([H])(C(=O)N([H])C1([H])c3c([H])c([H])c([H])c([H])c3C([H])([H])C([H])([H])C1([H])[H])C2([H])[H])C([H])([H])[H]

$$$$
67:0:0
     RDKit          3D

 94103  0  0  1  0  0  0  0  0999 V2000
  -28.3740  -22.5900   21.8390 C   0  0  0  0  0  0  0  0  0  0  0  0
  -28.4190  -23.8640   22.6640 C   0  0  0  0  0  2  0  0  0  0  0  0
  -29.5870  -24.6010   22.0200 C   0  0  0  0  0  2  0  0  0  0  0  0
  -29.5040  -24.1780   20.5460 C   0  0  0  0  0  3  0  0  0  0  0  0
  -29.0540  -22.7150   20.6770 N   0  0  0  0  0  0  0  0  0  0  0  0
  -27.8690  -21.5630   22.2970 O   0  0  0  0  0  0  0  0  0  0  0  0
  -29.8650  -21.5260   20.1380 C   0  0  0  0  0  2  0  0  0  0  0  0
  -27.4940  -18.4830   19.6880 C   0  0  0  0  0  3  0  0  0  0  0  0
  -28.0020  -19.7830   19.8130 C   0  0  0  0  0  3  0  0  0  0  0  0
  -28.3230  -17.3650   19.8690 C   0  0  0  0  0  3  0  0  0  0  0  0
  -30.1840  -18.8210   20.3460 C   0  0  0  0  0  3  0  0  0  0  0  0
  -29.3540  -20.0110   20.1480 C   0  0  0  0  0  0  0  0  0  0  0  0
  -29.6810  -17.4530   20.2180 C   0  0  0  0  0  0  0  0  0  0  0  0
  -30.9610  -15.2010   20.8250 C   0  0  0  0  0  0  0  0  0  0  0  0
  -30.8800  -12.7940   20.1820 C   0  0  0  0  0  2  0  0  0  0  0  0
  -30.1180  -12.6090   18.8550 C   0  0  0  0  0  2  0  0  0  0  0  0
  -28.6060  -12.4450   19.1240 C   0  0  0  0  0  2  0  0  0  0  0  0
  -28.0500  -13.5060   20.1100 C   0  0  0  0  0  3  0  0  0  0  0  0
  -28.9600  -13.7020   21.3420 C   0  0  0  0  0  2  0  0  0  0  0  0
  -30.3060  -13.9880   20.8350 N   0  0  0  0  0  0  0  0  0  0  0  0
  -32.1810  -15.1990   21.0130 O   0  0  0  0  0  0  0  0  0  0  0  0
  -30.4720  -16.2090   19.9690 N   0  0  0  0  0  0  0  0  0  0  0  0
  -25.6130  -14.1740   20.5970 C   0  0  0  0  0  0  0  0  0  0  0  0
  -24.4900  -13.4370   20.8400 C   0  0  0  0  0  0  0  0  0  0  0  0
  -24.9220  -12.0800   20.8860 C   0  0  0  0  0  0  0  0  0  0  0  0
  -26.6560  -13.2680   20.4780 N   0  0  0  0  0  0  0  0  0  0  0  0
  -26.2400  -12.0020   20.7270 N   0  0  0  0  0  0  0  0  0  0  0  0
  -24.1470  -10.8450   21.0140 C   0  0  0  0  0  0  0  0  0  0  0  0
  -24.4960   -9.8540   21.9570 C   0  0  0  0  0  3  0  0  0  0  0  0
  -23.7250   -8.6800   22.0700 C   0  0  0  0  0  3  0  0  0  0  0  0
  -22.5920   -8.4910   21.2440 C   0  0  0  0  0  0  0  0  0  0  0  0
  -22.2630   -9.4750   20.2930 C   0  0  0  0  0  3  0  0  0  0  0  0
  -23.0360  -10.6410   20.1750 C   0  0  0  0  0  3  0  0  0  0  0  0
  -21.7910   -7.3730   21.2730 O   0  0  0  0  0  0  0  0  0  0  0  0
  -21.6670   -6.6090   22.4030 C   0  0  0  0  0  0  0  0  0  0  0  0
  -21.1620   -7.1380   23.6120 C   0  0  0  0  0  3  0  0  0  0  0  0
  -20.9840   -6.2970   24.7300 C   0  0  0  0  0  3  0  0  0  0  0  0
  -21.3020   -4.9290   24.6400 C   0  0  0  0  0  0  0  0  0  0  0  0
  -21.7980   -4.3990   23.4350 C   0  0  0  0  0  3  0  0  0  0  0  0
  -21.9780   -5.2350   22.3210 C   0  0  0  0  0  0  0  0  0  0  0  0
  -22.4380   -4.7140   21.1580 F   0  0  0  0  0  0  0  0  0  0  0  0
  -21.1250   -4.1190   25.7090 F   0  0  0  0  0  0  0  0  0  0  0  0
  -23.0870  -13.9630   20.9350 C   0  0  0  0  0  0  0  0  0  0  0  0
  -22.2490  -13.3310   21.7500 N   0  0  0  0  0  0  0  0  0  0  0  0
  -22.7350  -14.9720   20.3220 O   0  0  0  0  0  0  0  0  0  0  0  0
  -22.5450  -12.5240   22.2760 H   0  0  0  0  0  0  0  0  0  0  0  0
  -21.3010  -13.6630   21.8440 H   0  0  0  0  0  0  0  0  0  0  0  0
  -25.8000  -15.5380   20.4570 N   0  0  0  0  0  0  0  0  0  0  0  0
  -25.0350  -16.1900   20.5740 H   0  0  0  0  0  0  0  0  0  0  0  0
  -26.7010  -15.9910   20.4780 H   0  0  0  0  0  0  0  0  0  0  0  0
  -30.6950  -16.9800   17.6330 C   0  0  0  0  0  2  0  0  0  0  0  0
  -31.0280  -16.1770   18.6650 C   0  0  0  0  0  3  0  0  0  0  0  0
  -28.5450  -25.2530   19.8120 C   0  0  0  0  0  2  0  0  0  0  0  0
  -28.7640  -26.7280   20.0090 O   0  0  0  0  0  0  0  0  0  0  0  0
  -24.8030  -31.7380   23.4250 C   0  0  0  0  0  0  0  0  0  0  0  0
  -27.6480  -27.5940   19.9870 C   0  0  0  0  0  0  0  0  0  0  0  0
  -23.6990  -30.5120   21.5850 C   0  0  0  0  0  3  0  0  0  0  0  0
  -25.2450  -29.1710   20.0510 C   0  0  0  0  0  0  0  0  0  0  0  0
  -26.2330  -30.9060   21.5410 C   0  0  0  0  0  2  0  0  0  0  0  0
  -26.3790  -29.6090   20.7490 C   0  0  0  0  0  0  0  0  0  0  0  0
  -27.5790  -28.8320   20.7100 C   0  0  0  0  0  3  0  0  0  0  0  0
  -26.4950  -27.2330   19.2490 C   0  0  0  0  0  3  0  0  0  0  0  0
  -25.3100  -27.9920   19.2910 C   0  0  0  0  0  3  0  0  0  0  0  0
  -23.9810  -30.0040   20.1490 C   0  0  0  0  0  2  0  0  0  0  0  0
  -24.9270  -31.0650   22.2420 N   0  0  0  0  0  0  0  0  0  0  0  0
  -23.6940  -31.9210   23.9490 O   0  0  0  0  0  0  0  0  0  0  0  0
  -23.0280  -29.3770   22.3970 C   0  0  0  0  0  0  0  0  0  0  0  0
  -21.7090  -29.1930   22.2190 N   0  0  0  0  0  0  0  0  0  0  0  0
  -23.6960  -28.6680   23.1540 O   0  0  0  0  0  0  0  0  0  0  0  0
  -21.2180  -29.8190   21.5950 H   0  0  0  0  0  0  0  0  0  0  0  0
  -18.3400  -27.9190   22.5350 C   0  0  0  0  0  0  0  0  0  0  0  0
  -20.8950  -28.1540   22.8530 C   0  0  0  0  0  3  0  0  0  0  0  0
  -21.0120  -26.8120   22.0920 C   0  0  0  0  0  2  0  0  0  0  0  0
  -19.9180  -26.6230   21.0350 C   0  0  0  0  0  2  0  0  0  0  0  0
  -18.5310  -26.6740   21.6830 C   0  0  0  0  0  2  0  0  0  0  0  0
  -19.4520  -28.6210   23.0720 C   0  0  0  0  0  0  0  0  0  0  0  0
  -19.2220  -29.7910   23.8280 C   0  0  0  0  0  3  0  0  0  0  0  0
  -17.9130  -30.2590   24.0480 C   0  0  0  0  0  3  0  0  0  0  0  0
  -16.8160  -29.5500   23.5290 C   0  0  0  0  0  3  0  0  0  0  0  0
  -17.0310  -28.3800   22.7800 C   0  0  0  0  0  3  0  0  0  0  0  0
  -26.0420  -32.3320   24.1630 C   0  0  0  0  0  3  0  0  0  0  0  0
  -26.5100  -31.4600   25.3920 C   0  0  1  0  0  0  0  0  0  0  0  0
  -25.3710  -31.1260   26.3830 C   0  0  0  0  0  1  0  0  0  0  0  0
  -27.1250  -30.1250   24.9150 C   0  0  0  0  0  1  0  0  0  0  0  0
  -27.6090  -32.2060   26.1800 C   0  0  0  0  0  1  0  0  0  0  0  0
  -25.6930  -33.6910   24.6040 N   0  0  0  0  0  0  0  0  0  0  0  0
  -26.0490  -34.8160   23.9690 C   0  0  0  0  0  0  0  0  0  0  0  0
  -26.7800  -34.8170   22.9740 O   0  0  0  0  0  0  0  0  0  0  0  0
  -25.0660  -33.7640   25.3920 H   0  0  0  0  0  0  0  0  0  0  0  0
  -24.3350  -36.6310   23.6610 C   0  0  0  0  0  1  0  0  0  0  0  0
  -25.5110  -36.1470   24.5260 C   0  0  0  0  0  3  0  0  0  0  0  0
  -27.5560  -36.9540   25.6200 C   0  0  0  0  0  1  0  0  0  0  0  0
  -26.5360  -37.2120   24.6070 N   0  0  0  0  0  0  0  0  0  0  0  0
  -26.1050  -38.1090   24.8120 H   0  0  0  0  0  0  0  0  0  0  0  0
  1  6  2  0
  1  2  1  0
  3  2  1  0
  4 53  1  0
  4  5  1  0
  4  3  1  0
  5  1  1  0
  7 12  1  0
  7  5  1  0
  8  9  2  0
  8 10  1  0
  9 12  1  0
 10 13  2  0
 12 11  2  0
 13 11  1  0
 14 20  1  0
 14 21  2  0
 15 20  1  0
 16 17  1  0
 16 15  1  0
 18 17  1  0
 18 26  1  0
 18 19  1  0
 20 19  1  0
 22 13  1  0
 22 14  1  0
 23 24  2  0
 24 25  1  0
 24 43  1  0
 25 28  1  0
 26 23  1  0
 26 27  1  0
 27 25  2  0
 28 29  1  0
 29 30  2  0
 31 34  1  0
 31 30  1  0
 32 31  2  0
 33 32  1  0
 33 28  2  0
 34 35  1  0
 35 36  1  0
 36 37  2  0
 38 37  1  0
 38 42  1  0
 39 38  2  0
 40 35  2  0
 40 39  1  0
 41 40  1  0
 43 44  1  0
 44 47  1  0
 44 46  1  0
 45 43  2  0
 48 50  1  0
 48 49  1  0
 48 23  1  0
 51 52  2  0
 52 22  1  0
 53 54  1  0
 55 66  2  0
 56 54  1  0
 56 61  1  0
 57 65  1  0
 57 67  1  0
 58 64  1  0
 58 60  1  0
 59 65  1  0
 60 59  1  0
 61 60  2  0
 62 63  1  0
 62 56  2  0
 63 58  2  0
 64 57  1  0
 65 55  1  0
 67 69  2  0
 68 67  1  0
 70 68  1  0
 71 80  2  0
 71 76  1  0
 72 68  1  0
 72 76  1  0
 73 72  1  0
 74 75  1  0
 74 73  1  0
 75 71  1  0
 76 77  2  0
 77 78  1  0
 79 78  2  0
 80 79  1  0
 81 55  1  0
 81 86  1  0
 81 82  1  0
 82 85  1  1
 82 83  1  0
 84 82  1  0
 86 89  1  0
 87 91  1  0
 87 86  1  0
 88 87  2  0
 91 90  1  0
 91 93  1  0
 93 94  1  0
 93 92  1  0
M  ISO  4  14 100  22 100  53 101  54 101
M  END
>  <TORSDO>  (68) 
F 20

>  <SCORE>  (68) 
-11.914

>  <name>  (68) 
67

>  <ligand_id>  (68) 
67

>  <original_smiles>  (68) 
[H]C([H])=C([H])N(C(=O)N1C([H])([H])C([H])([H])C([H])([H])C([H])(n2nc(-c3c([H])c([H])c(Oc4c([H])c([H])c(F)c([H])c4F)c([H])c3[H])c(C(=O)N([H])[H])c2N([H])[H])C1([H])[H])c1c([H])c([H])c([H])c(C([H])([H])N2C(=O)C([H])([H])C([H])([H])C2([H])C([H])([H])Oc2c([H])c([H])c3c(c2[H])C([H])([H])N(C(=O)C([H])(N([H])C(=O)C([H])(N([H])C([H])([H])[H])C([H])([H])[H])C(C([H])([H])[H])(C([H])([H])[H])C([H])([H])[H])C([H])(C(=O)N([H])C2([H])c4c([H])c([H])c([H])c([H])c4C([H])([H])C([H])([H])C2([H])[H])C3([H])[H])c1[H]

>  <smiles>  (68) 
[H]C([H])=C([H])N(C(=O)N1C([H])([H])C([H])([H])C([H])([H])C([H])(n2nc(-c3c([H])c([H])c(Oc4c([H])c([H])c(F)c([H])c4F)c([H])c3[H])c(C(=O)N([H])[H])c2N([H])[H])C1([H])[H])c1c([H])c([H])c([H])c(C([H])([H])N2C(=O)C([H])([H])C([H])([H])C2([H])C([H])([H])Oc2c([H])c([H])c3c(c2[H])C([H])([H])N(C(=O)C([H])(N([H])C(=O)C([H])(N([H])C([H])([H])[H])C([H])([H])[H])C(C([H])([H])[H])(C([H])([H])[H])C([H])([H])[H])C([H])(C(=O)N([H])C2([H])c4c([H])c([H])c([H])c([H])c4C([H])([H])C([H])([H])C2([H])[H])C3([H])[H])c1[H]

$$$$
68:0:0
     RDKit          3D

 95103  0  0  1  0  0  0  0  0999 V2000
  -31.0530  -22.5950   19.8430 C   0  0  0  0  0  0  0  0  0  0  0  0
  -31.7010  -21.8060   18.9810 N   0  0  0  0  0  0  0  0  0  0  0  0
  -31.3070  -22.6160   21.0500 O   0  0  0  0  0  0  0  0  0  0  0  0
  -31.4490  -21.8720   18.0050 H   0  0  0  0  0  0  0  0  0  0  0  0
  -32.6400  -20.7480   19.3450 C   0  0  0  0  0  2  0  0  0  0  0  0
  -30.9630  -18.8610   18.8800 C   0  0  0  0  0  3  0  0  0  0  0  0
  -30.3770  -17.7130   19.4910 C   0  0  0  0  0  0  0  0  0  0  0  0
  -30.9440  -17.4230   20.7160 C   0  0  0  0  0  0  0  0  0  0  0  0
  -31.9150  -19.4740   19.6500 C   0  0  0  0  0  0  0  0  0  0  0  0
  -29.2390  -16.9730   18.8490 C   0  0  0  0  0  1  0  0  0  0  0  0
  -32.1470  -18.6160   21.1500 S   0  0  0  0  0  0  0  0  0  0  0  0
  -30.8050  -14.4280   20.3690 C   0  0  0  0  0  0  0  0  0  0  0  0
  -30.4100  -12.3960   19.0220 C   0  0  0  0  0  2  0  0  0  0  0  0
  -29.4190  -12.6910   17.8780 C   0  0  0  0  0  2  0  0  0  0  0  0
  -27.9630  -12.5400   18.3550 C   0  0  0  0  0  2  0  0  0  0  0  0
  -27.6900  -13.3000   19.6790 C   0  0  0  0  0  3  0  0  0  0  0  0
  -28.7760  -12.9720   20.7280 C   0  0  0  0  0  2  0  0  0  0  0  0
  -30.1010  -13.2840   20.1520 N   0  0  0  0  0  0  0  0  0  0  0  0
  -31.7790  -14.7500   19.6790 O   0  0  0  0  0  0  0  0  0  0  0  0
  -30.6330  -16.4080   21.7630 C   0  0  0  0  0  0  0  0  0  0  0  0
  -30.3830  -15.1320   21.4300 N   0  0  0  0  0  0  0  0  0  0  0  0
  -30.5170  -16.7680   22.9370 O   0  0  0  0  0  0  0  0  0  0  0  0
  -29.8450  -14.6090   22.1010 H   0  0  0  0  0  0  0  0  0  0  0  0
  -25.3060  -13.8990   20.4570 C   0  0  0  0  0  0  0  0  0  0  0  0
  -24.2490  -13.1200   20.8490 C   0  0  0  0  0  0  0  0  0  0  0  0
  -24.7120  -11.7710   20.7880 C   0  0  0  0  0  0  0  0  0  0  0  0
  -26.3460  -13.0230   20.1870 N   0  0  0  0  0  0  0  0  0  0  0  0
  -25.9910  -11.7360   20.4400 N   0  0  0  0  0  0  0  0  0  0  0  0
  -23.9950  -10.5040   20.9840 C   0  0  0  0  0  0  0  0  0  0  0  0
  -24.4400   -9.5390   21.9150 C   0  0  0  0  0  3  0  0  0  0  0  0
  -23.7220   -8.3370   22.0980 C   0  0  0  0  0  3  0  0  0  0  0  0
  -22.5460   -8.0910   21.3520 C   0  0  0  0  0  0  0  0  0  0  0  0
  -22.1190   -9.0450   20.4110 C   0  0  0  0  0  3  0  0  0  0  0  0
  -22.8380  -10.2380   20.2260 C   0  0  0  0  0  3  0  0  0  0  0  0
  -21.8000   -6.9410   21.4460 O   0  0  0  0  0  0  0  0  0  0  0  0
  -21.7370   -6.2170   22.6090 C   0  0  0  0  0  0  0  0  0  0  0  0
  -21.2880   -6.7890   23.8200 C   0  0  0  0  0  3  0  0  0  0  0  0
  -21.1730   -5.9890   24.9760 C   0  0  0  0  0  3  0  0  0  0  0  0
  -21.4950   -4.6210   24.9200 C   0  0  0  0  0  0  0  0  0  0  0  0
  -21.9380   -4.0490   23.7150 C   0  0  0  0  0  3  0  0  0  0  0  0
  -22.0550   -4.8450   22.5620 C   0  0  0  0  0  0  0  0  0  0  0  0
  -22.4610   -4.2840   21.3980 F   0  0  0  0  0  0  0  0  0  0  0  0
  -21.3780   -3.8510   26.0280 F   0  0  0  0  0  0  0  0  0  0  0  0
  -22.8600  -13.5920   21.1710 C   0  0  0  0  0  0  0  0  0  0  0  0
  -22.1600  -12.8850   22.0520 N   0  0  0  0  0  0  0  0  0  0  0  0
  -22.4030  -14.6210   20.6760 O   0  0  0  0  0  0  0  0  0  0  0  0
  -22.5410  -12.0510   22.4740 H   0  0  0  0  0  0  0  0  0  0  0  0
  -21.2310  -13.1840   22.3080 H   0  0  0  0  0  0  0  0  0  0  0  0
  -25.4600  -15.2710   20.2880 N   0  0  0  0  0  0  0  0  0  0  0  0
  -24.6920  -15.9190   20.4290 H   0  0  0  0  0  0  0  0  0  0  0  0
  -26.2940  -15.7200   19.9300 H   0  0  0  0  0  0  0  0  0  0  0  0
  -29.9210  -23.4490   19.2690 C   0  0  0  0  0  2  0  0  0  0  0  0
  -29.7720  -24.8280   19.9410 C   0  0  0  0  0  2  0  0  0  0  0  0
  -28.4370  -25.4900   19.5890 C   0  0  0  0  0  2  0  0  0  0  0  0
  -28.3910  -26.7850   20.1760 O   0  0  0  0  0  0  0  0  0  0  0  0
  -24.5790  -31.9140   23.2590 C   0  0  0  0  0  0  0  0  0  0  0  0
  -27.1940  -27.4680   20.1670 C   0  0  0  0  0  0  0  0  0  0  0  0
  -23.3600  -30.5180   21.6210 C   0  0  0  0  0  3  0  0  0  0  0  0
  -24.7990  -28.9720   20.1960 C   0  0  0  0  0  0  0  0  0  0  0  0
  -25.8860  -30.8630   21.4170 C   0  0  0  0  0  2  0  0  0  0  0  0
  -25.9580  -29.4920   20.7820 C   0  0  0  0  0  0  0  0  0  0  0  0
  -27.1560  -28.7430   20.7710 C   0  0  0  0  0  3  0  0  0  0  0  0
  -26.0110  -26.9570   19.5800 C   0  0  0  0  0  3  0  0  0  0  0  0
  -24.8170  -27.7010   19.5980 C   0  0  0  0  0  3  0  0  0  0  0  0
  -23.5610  -29.8360   20.2420 C   0  0  0  0  0  2  0  0  0  0  0  0
  -24.6260  -31.1120   22.1580 N   0  0  0  0  0  0  0  0  0  0  0  0
  -23.5010  -32.1940   23.8010 O   0  0  0  0  0  0  0  0  0  0  0  0
  -22.7050  -29.5010   22.5820 C   0  0  0  0  0  0  0  0  0  0  0  0
  -21.3810  -29.3200   22.4480 N   0  0  0  0  0  0  0  0  0  0  0  0
  -23.3840  -28.8780   23.4030 O   0  0  0  0  0  0  0  0  0  0  0  0
  -20.8960  -29.8730   21.7560 H   0  0  0  0  0  0  0  0  0  0  0  0
  -18.0040  -28.1330   22.9250 C   0  0  0  0  0  0  0  0  0  0  0  0
  -20.5580  -28.3880   23.2180 C   0  0  0  0  0  3  0  0  0  0  0  0
  -20.6640  -26.9530   22.6510 C   0  0  0  0  0  2  0  0  0  0  0  0
  -19.5710  -26.6260   21.6300 C   0  0  0  0  0  2  0  0  0  0  0  0
  -18.1840  -26.7780   22.2620 C   0  0  0  0  0  2  0  0  0  0  0  0
  -19.1190  -28.8950   23.3590 C   0  0  0  0  0  0  0  0  0  0  0  0
  -18.8980  -30.1640   23.9380 C   0  0  0  0  0  3  0  0  0  0  0  0
  -17.5940  -30.6700   24.0860 C   0  0  0  0  0  3  0  0  0  0  0  0
  -16.4910  -29.9040   23.6690 C   0  0  0  0  0  3  0  0  0  0  0  0
  -16.6970  -28.6380   23.0940 C   0  0  0  0  0  3  0  0  0  0  0  0
  -25.8730  -32.5330   23.8760 C   0  0  0  0  0  3  0  0  0  0  0  0
  -25.5760  -33.9330   24.2050 N   0  0  0  0  0  0  0  0  0  0  0  0
  -25.9080  -34.9810   23.4390 C   0  0  0  0  0  0  0  0  0  0  0  0
  -26.5700  -34.8710   22.4030 O   0  0  0  0  0  0  0  0  0  0  0  0
  -24.9890  -34.0940   25.0100 H   0  0  0  0  0  0  0  0  0  0  0  0
  -24.1850  -36.7790   23.0920 C   0  0  0  0  0  1  0  0  0  0  0  0
  -25.4310  -36.3730   23.8950 C   0  0  0  0  0  3  0  0  0  0  0  0
  -27.5780  -37.2500   24.7010 C   0  0  0  0  0  1  0  0  0  0  0  0
  -26.4660  -37.4210   23.7690 N   0  0  0  0  0  0  0  0  0  0  0  0
  -26.0650  -38.3430   23.9210 H   0  0  0  0  0  0  0  0  0  0  0  0
  -26.3890  -31.7570   25.1480 C   0  0  1  0  0  0  0  0  0  0  0  0
  -25.2990  -31.5240   26.2190 C   0  0  0  0  0  1  0  0  0  0  0  0
  -26.9620  -30.3770   24.7490 C   0  0  0  0  0  1  0  0  0  0  0  0
  -27.5470  -32.5420   25.8070 C   0  0  0  0  0  1  0  0  0  0  0  0
  1  3  2  0
  2  5  1  0
  2  1  1  0
  4  2  1  0
  5  9  1  0
  6  7  1  0
  6  9  2  0
  7  8  2  0
  8 11  1  0
  8 20  1  0
  9 11  1  0
 10  7  1  0
 12 21  1  0
 13 18  1  0
 14 15  1  0
 14 13  1  0
 16 15  1  0
 16 27  1  0
 16 17  1  0
 18 12  1  0
 18 17  1  0
 19 12  2  0
 20 22  2  0
 21 20  1  0
 21 23  1  0
 24 25  2  0
 25 44  1  0
 26 25  1  0
 26 29  1  0
 27 28  1  0
 27 24  1  0
 28 26  2  0
 29 30  1  0
 30 31  2  0
 32 35  1  0
 32 31  1  0
 33 32  2  0
 34 33  1  0
 34 29  2  0
 35 36  1  0
 36 37  1  0
 37 38  2  0
 39 38  1  0
 39 43  1  0
 40 39  2  0
 41 36  2  0
 41 40  1  0
 42 41  1  0
 44 45  1  0
 45 48  1  0
 45 47  1  0
 46 44  2  0
 49 50  1  0
 49 24  1  0
 51 49  1  0
 52  1  1  0
 52 53  1  0
 54 53  1  0
 54 55  1  0
 56 67  2  0
 57 55  1  0
 57 62  1  0
 58 66  1  0
 58 68  1  0
 59 65  1  0
 59 61  1  0
 60 66  1  0
 61 60  1  0
 62 61  2  0
 63 64  1  0
 63 57  2  0
 64 59  2  0
 65 58  1  0
 66 56  1  0
 68 70  2  0
 69 68  1  0
 71 69  1  0
 72 81  2  0
 72 77  1  0
 73 69  1  0
 73 77  1  0
 74 73  1  0
 75 76  1  0
 75 74  1  0
 76 72  1  0
 77 78  2  0
 78 79  1  0
 80 79  2  0
 81 80  1  0
 82 56  1  0
 82 83  1  0
 82 92  1  0
 83 86  1  0
 84 88  1  0
 84 83  1  0
 85 84  2  0
 88 87  1  0
 90 88  1  0
 90 91  1  0
 90 89  1  0
 92 95  1  1
 92 93  1  0
 94 92  1  0
M  ISO  4  12 100  21 100  54 101  55 101
M  END
>  <TORSDO>  (69) 
F 21

>  <SCORE>  (69) 
-13.847

>  <name>  (69) 
68

>  <ligand_id>  (69) 
68

>  <original_smiles>  (69) 
[H]c1c([H])c([H])c2c(c1[H])C([H])([H])C([H])([H])C([H])([H])C2([H])N([H])C(=O)C1([H])N(C(=O)C([H])(N([H])C(=O)C([H])(N([H])C([H])([H])[H])C([H])([H])[H])C(C([H])([H])[H])(C([H])([H])[H])C([H])([H])[H])C([H])([H])c2c([H])c(OC([H])([H])C([H])([H])C([H])([H])C(=O)N([H])C([H])([H])c3sc(C(=O)N([H])C(=O)N4C([H])([H])C([H])([H])C([H])([H])C([H])(n5nc(-c6c([H])c([H])c(Oc7c([H])c([H])c(F)c([H])c7F)c([H])c6[H])c(C(=O)N([H])[H])c5N([H])[H])C4([H])[H])c(C([H])([H])[H])c3[H])c([H])c([H])c2C1([H])[H]

>  <smiles>  (69) 
[H]c1c([H])c([H])c2c(c1[H])C([H])([H])C([H])([H])C([H])([H])C2([H])N([H])C(=O)C1([H])N(C(=O)C([H])(N([H])C(=O)C([H])(N([H])C([H])([H])[H])C([H])([H])[H])C(C([H])([H])[H])(C([H])([H])[H])C([H])([H])[H])C([H])([H])c2c([H])c(OC([H])([H])C([H])([H])C([H])([H])C(=O)N([H])C([H])([H])c3sc(C(=O)N([H])C(=O)N4C([H])([H])C([H])([H])C([H])([H])C([H])(n5nc(-c6c([H])c([H])c(Oc7c([H])c([H])c(F)c([H])c7F)c([H])c6[H])c(C(=O)N([H])[H])c5N([H])[H])C4([H])[H])c(C([H])([H])[H])c3[H])c([H])c([H])c2C1([H])[H]

$$$$
69:0:0
     RDKit          3D

 94 99  0  0  1  0  0  0  0  0999 V2000
  -30.0790  -18.5780   19.1640 C   0  0  0  0  0  3  0  0  0  0  0  0
  -29.9960  -20.0010   19.0380 C   0  0  0  0  0  3  0  0  0  0  0  0
  -29.0090  -18.7430   21.3340 C   0  0  0  0  0  3  0  0  0  0  0  0
  -29.5770  -17.9340   20.3240 C   0  0  0  0  0  0  0  0  0  0  0  0
  -28.9450  -20.1390   21.2200 C   0  0  0  0  0  0  0  0  0  0  0  0
  -29.4260  -20.7970   20.0720 C   0  0  0  0  0  0  0  0  0  0  0  0
  -28.3820  -20.8840   22.2570 N   0  0  0  0  0  0  0  0  0  0  0  0
  -28.4440  -20.5100   23.1970 H   0  0  0  0  0  0  0  0  0  0  0  0
  -28.5470  -21.8850   22.2150 H   0  0  0  0  0  0  0  0  0  0  0  0
  -29.4680  -16.4210   20.6070 C   0  0  0  0  0  2  0  0  0  0  0  0
  -31.2500  -14.7290   20.8710 C   0  0  0  0  0  0  0  0  0  0  0  0
  -31.5150  -12.5930   19.6310 C   0  0  0  0  0  1  0  0  0  0  0  0
  -30.2810  -12.1970   18.1030 C   0  0  0  0  0 15  0  0  0  0  0  0
  -28.3490  -12.5470   18.3630 C   0  0  0  0  0  1  0  0  0  0  0  0
  -27.7880  -13.3970   20.0380 C   0  0  0  0  0  3  0  0  0  0  0  0
  -29.0630  -13.6430   21.4860 C   0  0  0  0  0  2  0  0  0  0  0  0
  -30.8230  -13.4760   21.0820 N   0  0  0  0  0  0  0  0  0  0  0  0
  -32.4210  -15.0650   20.7320 O   0  0  0  0  0  0  0  0  0  0  0  0
  -30.3430  -15.3180   20.0960 N   0  0  0  0  0  0  0  0  0  0  0  0
  -25.4800  -14.0230   20.6130 C   0  0  0  0  0  0  0  0  0  0  0  0
  -24.4130  -13.2490   20.9060 C   0  0  0  0  0  0  0  0  0  0  0  0
  -24.8790  -11.8980   20.9250 C   0  0  0  0  0  0  0  0  0  0  0  0
  -26.4980  -13.1140   20.4550 N   0  0  0  0  0  0  0  0  0  0  0  0
  -26.1680  -11.8390   20.6860 N   0  0  0  0  0  0  0  0  0  0  0  0
  -24.1680  -10.6440   21.0820 C   0  0  0  0  0  0  0  0  0  0  0  0
  -24.5600   -9.6940   22.0490 C   0  0  0  0  0  3  0  0  0  0  0  0
  -23.8290   -8.5000   22.1970 C   0  0  0  0  0  3  0  0  0  0  0  0
  -22.7010   -8.2580   21.3760 C   0  0  0  0  0  0  0  0  0  0  0  0
  -22.3430   -9.1950   20.3920 C   0  0  0  0  0  3  0  0  0  0  0  0
  -23.0750  -10.3790   20.2400 C   0  0  0  0  0  3  0  0  0  0  0  0
  -21.9360   -7.1230   21.4390 O   0  0  0  0  0  0  0  0  0  0  0  0
  -21.8180   -6.4070   22.5990 C   0  0  0  0  0  0  0  0  0  0  0  0
  -21.3370   -6.9910   23.7920 C   0  0  0  0  0  3  0  0  0  0  0  0
  -21.1650   -6.1960   24.9420 C   0  0  0  0  0  3  0  0  0  0  0  0
  -21.4630   -4.8210   24.9000 C   0  0  0  0  0  0  0  0  0  0  0  0
  -21.9400   -4.2390   23.7120 C   0  0  0  0  0  3  0  0  0  0  0  0
  -22.1140   -5.0300   22.5640 C   0  0  0  0  0  0  0  0  0  0  0  0
  -22.5540   -4.4630   21.4140 F   0  0  0  0  0  0  0  0  0  0  0  0
  -21.2880   -4.0550   26.0010 F   0  0  0  0  0  0  0  0  0  0  0  0
  -23.0190  -13.7460   21.0540 C   0  0  0  0  0  0  0  0  0  0  0  0
  -22.2350  -13.0860   21.8920 N   0  0  0  0  0  0  0  0  0  0  0  0
  -22.6440  -14.7610   20.4680 O   0  0  0  0  0  0  0  0  0  0  0  0
  -22.5680  -12.2710   22.3870 H   0  0  0  0  0  0  0  0  0  0  0  0
  -21.2890  -13.4010   22.0490 H   0  0  0  0  0  0  0  0  0  0  0  0
  -25.6460  -15.4010   20.4390 N   0  0  0  0  0  0  0  0  0  0  0  0
  -24.8610  -16.0430   20.4800 H   0  0  0  0  0  0  0  0  0  0  0  0
  -26.5030  -15.8460   20.1410 H   0  0  0  0  0  0  0  0  0  0  0  0
  -29.6170  -11.6720   20.1950 C   0  0  0  0  0 15  0  0  0  0  0  0
  -29.8230  -14.1960   19.2410 C   0  0  0  0  0  1  0  0  0  0  0  0
  -29.3260  -22.1830   20.1130 O   0  0  0  0  0  0  0  0  0  0  0  0
  -29.1790  -23.0040   18.9520 C   0  0  0  0  0  2  0  0  0  0  0  0
  -28.7310  -24.4010   19.4880 C   0  0  0  0  0  2  0  0  0  0  0  0
  -28.6350  -25.5680   18.4720 C   0  0  0  0  0  2  0  0  0  0  0  0
  -28.5030  -26.8540   19.1240 O   0  0  0  0  0  0  0  0  0  0  0  0
  -24.7160  -31.6080   22.8850 C   0  0  0  0  0  0  0  0  0  0  0  0
  -27.2810  -27.4930   19.2690 C   0  0  0  0  0  0  0  0  0  0  0  0
  -23.4460  -30.3020   21.2140 C   0  0  0  0  0  3  0  0  0  0  0  0
  -24.8420  -28.9190   19.5850 C   0  0  0  0  0  0  0  0  0  0  0  0
  -25.9460  -30.7420   20.8920 C   0  0  0  0  0  2  0  0  0  0  0  0
  -26.0240  -29.4280   20.1380 C   0  0  0  0  0  0  0  0  0  0  0  0
  -27.2390  -28.7210   19.9790 C   0  0  0  0  0  3  0  0  0  0  0  0
  -26.0690  -26.9880   18.7420 C   0  0  0  0  0  3  0  0  0  0  0  0
  -24.8610  -27.6970   18.8910 C   0  0  0  0  0  3  0  0  0  0  0  0
  -23.5850  -29.7380   19.7750 C   0  0  0  0  0  2  0  0  0  0  0  0
  -24.7250  -30.8960   21.7220 N   0  0  0  0  0  0  0  0  0  0  0  0
  -23.6640  -31.8060   23.5080 O   0  0  0  0  0  0  0  0  0  0  0  0
  -22.8820  -29.1900   22.1280 C   0  0  0  0  0  0  0  0  0  0  0  0
  -21.5570  -28.9790   22.0660 N   0  0  0  0  0  0  0  0  0  0  0  0
  -23.6310  -28.5250   22.8500 O   0  0  0  0  0  0  0  0  0  0  0  0
  -21.0130  -29.5740   21.4580 H   0  0  0  0  0  0  0  0  0  0  0  0
  -18.2520  -27.6390   22.6520 C   0  0  0  0  0  0  0  0  0  0  0  0
  -20.8120  -27.9600   22.8050 C   0  0  0  0  0  3  0  0  0  0  0  0
  -20.9240  -26.5800   22.1150 C   0  0  0  0  0  2  0  0  0  0  0  0
  -19.7760  -26.2980   21.1410 C   0  0  0  0  0  2  0  0  0  0  0  0
  -18.4300  -26.3490   21.8680 C   0  0  0  0  0  2  0  0  0  0  0  0
  -19.3700  -28.4030   23.0780 C   0  0  0  0  0  0  0  0  0  0  0  0
  -19.1490  -29.6120   23.7740 C   0  0  0  0  0  3  0  0  0  0  0  0
  -17.8410  -30.0560   24.0470 C   0  0  0  0  0  3  0  0  0  0  0  0
  -16.7390  -29.2870   23.6360 C   0  0  0  0  0  3  0  0  0  0  0  0
  -16.9460  -28.0800   22.9460 C   0  0  0  0  0  3  0  0  0  0  0  0
  -26.0210  -32.2270   23.4750 C   0  0  0  0  0  3  0  0  0  0  0  0
  -25.6870  -33.5640   23.9850 N   0  0  0  0  0  0  0  0  0  0  0  0
  -25.9500  -34.7100   23.3450 C   0  0  0  0  0  0  0  0  0  0  0  0
  -26.5730  -34.7540   22.2800 O   0  0  0  0  0  0  0  0  0  0  0  0
  -25.1270  -33.5990   24.8240 H   0  0  0  0  0  0  0  0  0  0  0  0
  -24.1590  -36.4740   23.2760 C   0  0  0  0  0  1  0  0  0  0  0  0
  -25.4440  -36.0160   23.9860 C   0  0  0  0  0  3  0  0  0  0  0  0
  -27.5850  -36.8620   24.8380 C   0  0  0  0  0  1  0  0  0  0  0  0
  -26.4420  -37.1080   23.9640 N   0  0  0  0  0  0  0  0  0  0  0  0
  -26.0180  -37.9910   24.2380 H   0  0  0  0  0  0  0  0  0  0  0  0
  -26.6710  -31.3450   24.6110 C   0  0  1  0  0  0  0  0  0  0  0  0
  -25.6830  -30.9410   25.7300 C   0  0  0  0  0  1  0  0  0  0  0  0
  -27.2650  -30.0460   24.0170 C   0  0  0  0  0  1  0  0  0  0  0  0
  -27.8460  -32.1110   25.2630 C   0  0  0  0  0  1  0  0  0  0  0  0
  1  4  1  0
  2  1  2  0
  2  6  1  0
  4 10  1  0
  4  3  2  0
  5  3  1  0
  5  7  1  0
  6 50  1  0
  6  5  2  0
  7  8  1  0
  9  7  1  0
 11 17  1  0
 12 17  1  0
 15 14  1  0
 15 23  1  0
 15 16  1  0
 17 16  1  0
 18 11  2  0
 19 10  1  0
 19 11  1  0
 20 21  2  0
 21 22  1  0
 21 40  1  0
 22 25  1  0
 23 20  1  0
 23 24  1  0
 24 22  2  0
 25 26  1  0
 26 27  2  0
 28 31  1  0
 28 27  1  0
 29 28  2  0
 30 29  1  0
 30 25  2  0
 31 32  1  0
 32 33  1  0
 33 34  2  0
 35 34  1  0
 35 39  1  0
 36 35  2  0
 37 32  2  0
 37 36  1  0
 38 37  1  0
 40 41  1  0
 41 44  1  0
 41 43  1  0
 42 40  2  0
 45 46  1  0
 45 20  1  0
 47 45  1  0
 49 19  1  0
 51 52  1  0
 51 50  1  0
 53 54  1  0
 53 52  1  0
 54 56  1  0
 55 66  2  0
 56 61  1  0
 57 65  1  0
 57 67  1  0
 58 64  1  0
 58 60  1  0
 59 65  1  0
 60 59  1  0
 61 60  2  0
 62 63  1  0
 62 56  2  0
 63 58  2  0
 64 57  1  0
 65 55  1  0
 67 69  2  0
 68 67  1  0
 70 68  1  0
 71 80  2  0
 71 76  1  0
 72 68  1  0
 72 76  1  0
 73 72  1  0
 74 75  1  0
 74 73  1  0
 75 71  1  0
 76 77  2  0
 77 78  1  0
 79 78  2  0
 80 79  1  0
 81 55  1  0
 81 82  1  0
 81 91  1  0
 82 85  1  0
 83 82  1  0
 83 87  1  0
 84 83  2  0
 87 86  1  0
 89 87  1  0
 89 90  1  0
 89 88  1  0
 91 94  1  1
 91 92  1  0
 93 91  1  0
M  ISO  4  11 100  19 100  53 101  54 101
M  END
>  <TORSDO>  (70) 
F 23

>  <SCORE>  (70) 
-10.999

>  <name>  (70) 
69

>  <ligand_id>  (70) 
69

>  <original_smiles>  (70) 
[H]c1c([H])c([H])c2c(c1[H])C([H])([H])C([H])([H])C([H])([H])C2([H])N([H])C(=O)C1([H])N(C(=O)C([H])(N([H])C(=O)C([H])(N([H])C([H])([H])[H])C([H])([H])[H])C(C([H])([H])[H])(C([H])([H])[H])C([H])([H])[H])C([H])([H])c2c([H])c(OC([H])([H])C([H])([H])C([H])([H])Oc3c([H])c([H])c(C([H])([H])N(C(=O)N4C([H])([H])C([H])([H])C([H])([H])C([H])(n5nc(-c6c([H])c([H])c(Oc7c([H])c([H])c(F)c([H])c7F)c([H])c6[H])c(C(=O)N([H])[H])c5N([H])[H])C4([H])[H])C([H])([H])C([H])([H])[H])c([H])c3N([H])[H])c([H])c([H])c2C1([H])[H]

>  <smiles>  (70) 
[H]c1c([H])c([H])c2c(c1[H])C([H])([H])C([H])([H])C([H])([H])C2([H])N([H])C(=O)C1([H])N(C(=O)C([H])(N([H])C(=O)C([H])(N([H])C([H])([H])[H])C([H])([H])[H])C(C([H])([H])[H])(C([H])([H])[H])C([H])([H])[H])C([H])([H])c2c([H])c(OC([H])([H])C([H])([H])C([H])([H])Oc3c([H])c([H])c(C([H])([H])N(C(=O)N4C([H])([H])C([H])([H])C([H])([H])C([H])(n5nc(-c6c([H])c([H])c(Oc7c([H])c([H])c(F)c([H])c7F)c([H])c6[H])c(C(=O)N([H])[H])c5N([H])[H])C4([H])[H])C([H])([H])C([H])([H])[H])c([H])c3N([H])[H])c([H])c([H])c2C1([H])[H]

$$$$
70:0:0
     RDKit          3D

100109  0  0  1  0  0  0  0  0999 V2000
  -29.2110  -20.7450   21.4500 C   0  0  0  0  0  2  0  0  0  0  0  0
  -28.6230  -24.3070   20.4800 C   0  0  0  0  0  0  0  0  0  0  0  0
  -28.1330  -25.5280   20.8160 C   0  0  0  0  0  3  0  0  0  0  0  0
  -29.7040  -23.9740   19.4880 C   0  0  0  0  0  2  0  0  0  0  0  0
  -30.1670  -22.5680   19.9280 C   0  0  0  0  0  2  0  0  0  0  0  0
  -28.1390  -22.9880   21.0920 C   0  0  0  0  0  3  0  0  0  0  0  0
  -28.9750  -21.8920   20.5030 N   0  0  2  0  0  4  0  0  0  0  0  0
  -28.4570  -21.5220   19.7190 H   0  0  0  0  0  0  0  0  0  0  0  0
  -26.1310  -22.7620   19.4520 C   0  0  0  0  0  1  0  0  0  0  0  0
  -26.6230  -22.7500   20.9100 C   0  0  0  0  0  2  0  0  0  0  0  0
  -28.4290  -26.7680   20.2600 O   0  0  0  0  0  0  0  0  0  0  0  0
  -24.6290  -31.9910   23.3280 C   0  0  0  0  0  0  0  0  0  0  0  0
  -27.3310  -27.6110   20.1840 C   0  0  0  0  0  0  0  0  0  0  0  0
  -23.4530  -30.6110   21.6480 C   0  0  0  0  0  3  0  0  0  0  0  0
  -24.9370  -29.1270   20.1940 C   0  0  0  0  0  0  0  0  0  0  0  0
  -25.9820  -30.9930   21.4830 C   0  0  0  0  0  2  0  0  0  0  0  0
  -26.0890  -29.6370   20.8090 C   0  0  0  0  0  0  0  0  0  0  0  0
  -27.2930  -28.8860   20.8030 C   0  0  0  0  0  3  0  0  0  0  0  0
  -26.1670  -27.1400   19.5380 C   0  0  0  0  0  3  0  0  0  0  0  0
  -24.9720  -27.8800   19.5510 C   0  0  0  0  0  3  0  0  0  0  0  0
  -23.6820  -29.9690   20.2540 C   0  0  0  0  0  2  0  0  0  0  0  0
  -24.7060  -31.2120   22.2110 N   0  0  0  0  0  0  0  0  0  0  0  0
  -23.5400  -32.2400   23.8630 O   0  0  0  0  0  0  0  0  0  0  0  0
  -22.8040  -29.5630   22.5810 C   0  0  0  0  0  0  0  0  0  0  0  0
  -21.4910  -29.3350   22.4060 N   0  0  0  0  0  0  0  0  0  0  0  0
  -23.4790  -28.9590   23.4180 O   0  0  0  0  0  0  0  0  0  0  0  0
  -21.0060  -29.8770   21.7050 H   0  0  0  0  0  0  0  0  0  0  0  0
  -18.1570  -27.9790   22.7440 C   0  0  0  0  0  0  0  0  0  0  0  0
  -20.6810  -28.3650   23.1450 C   0  0  0  0  0  3  0  0  0  0  0  0
  -20.8830  -26.9360   22.5930 C   0  0  0  0  0  2  0  0  0  0  0  0
  -19.8530  -26.5480   21.5280 C   0  0  0  0  0  2  0  0  0  0  0  0
  -18.4340  -26.6340   22.0960 C   0  0  0  0  0  2  0  0  0  0  0  0
  -19.2130  -28.7990   23.2230 C   0  0  0  0  0  0  0  0  0  0  0  0
  -18.9020  -30.0560   23.7850 C   0  0  0  0  0  3  0  0  0  0  0  0
  -17.5670  -30.4960   23.8740 C   0  0  0  0  0  3  0  0  0  0  0  0
  -16.5260  -29.6740   23.4130 C   0  0  0  0  0  3  0  0  0  0  0  0
  -16.8200  -28.4170   22.8550 C   0  0  0  0  0  3  0  0  0  0  0  0
  -25.9010  -32.6250   23.9720 C   0  0  0  0  0  3  0  0  0  0  0  0
  -26.4000  -31.8530   25.2550 C   0  0  1  0  0  0  0  0  0  0  0  0
  -25.2840  -31.5910   26.2940 C   0  0  0  0  0  1  0  0  0  0  0  0
  -27.0130  -30.4860   24.8670 C   0  0  0  0  0  1  0  0  0  0  0  0
  -27.5190  -32.6610   25.9500 C   0  0  0  0  0  1  0  0  0  0  0  0
  -25.5860  -34.0210   24.2950 N   0  0  0  0  0  0  0  0  0  0  0  0
  -25.9310  -35.0740   23.5420 C   0  0  0  0  0  0  0  0  0  0  0  0
  -26.6190  -34.9710   22.5230 O   0  0  0  0  0  0  0  0  0  0  0  0
  -24.9780  -34.1760   25.0860 H   0  0  0  0  0  0  0  0  0  0  0  0
  -24.2020  -36.8600   23.1540 C   0  0  0  0  0  1  0  0  0  0  0  0
  -25.4310  -36.4620   23.9880 C   0  0  0  0  0  3  0  0  0  0  0  0
  -27.5530  -37.3490   24.8480 C   0  0  0  0  0  1  0  0  0  0  0  0
  -26.4620  -37.5190   23.8920 N   0  0  0  0  0  0  0  0  0  0  0  0
  -26.0510  -38.4360   24.0410 H   0  0  0  0  0  0  0  0  0  0  0  0
  -31.5360  -19.8360   20.9500 C   0  0  0  0  0  3  0  0  0  0  0  0
  -31.9860  -17.4580   20.6700 C   0  0  0  0  0  3  0  0  0  0  0  0
  -29.6950  -18.2320   20.9200 C   0  0  0  0  0  3  0  0  0  0  0  0
  -32.4570  -18.7830   20.7730 C   0  0  0  0  0  0  0  0  0  0  0  0
  -30.1490  -19.5840   21.0380 C   0  0  0  0  0  0  0  0  0  0  0  0
  -30.6040  -17.1470   20.7270 C   0  0  0  0  0  0  0  0  0  0  0  0
  -30.7890  -14.6810   20.1710 C   0  0  0  0  0  0  0  0  0  0  0  0
  -30.4640  -12.4550   19.1490 C   0  0  0  0  0  2  0  0  0  0  0  0
  -29.4980  -12.5830   17.9550 C   0  0  0  0  0  2  0  0  0  0  0  0
  -28.0400  -12.4340   18.4280 C   0  0  0  0  0  2  0  0  0  0  0  0
  -27.7160  -13.3240   19.6580 C   0  0  0  0  0  3  0  0  0  0  0  0
  -28.8050  -13.2110   20.7510 C   0  0  0  0  0  2  0  0  0  0  0  0
  -30.1030  -13.5020   20.1240 N   0  0  0  0  0  0  0  0  0  0  0  0
  -31.9020  -14.7800   19.6500 O   0  0  0  0  0  0  0  0  0  0  0  0
  -30.1350  -15.7740   20.6550 N   0  0  0  0  0  0  0  0  0  0  0  0
  -29.1820  -15.6070   20.9390 H   0  0  0  0  0  0  0  0  0  0  0  0
  -25.3520  -13.9160   20.4760 C   0  0  0  0  0  0  0  0  0  0  0  0
  -24.2960  -13.1400   20.8700 C   0  0  0  0  0  0  0  0  0  0  0  0
  -24.7510  -11.7870   20.7930 C   0  0  0  0  0  0  0  0  0  0  0  0
  -26.3830  -13.0380   20.1870 N   0  0  0  0  0  0  0  0  0  0  0  0
  -26.0290  -11.7500   20.4360 N   0  0  0  0  0  0  0  0  0  0  0  0
  -24.0260  -10.5240   20.9840 C   0  0  0  0  0  0  0  0  0  0  0  0
  -24.4700   -9.5490   21.9040 C   0  0  0  0  0  3  0  0  0  0  0  0
  -23.7460   -8.3510   22.0850 C   0  0  0  0  0  3  0  0  0  0  0  0
  -22.5630   -8.1190   21.3430 C   0  0  0  0  0  0  0  0  0  0  0  0
  -22.1380   -9.0810   20.4100 C   0  0  0  0  0  3  0  0  0  0  0  0
  -22.8630  -10.2710   20.2290 C   0  0  0  0  0  3  0  0  0  0  0  0
  -21.8090   -6.9740   21.4330 O   0  0  0  0  0  0  0  0  0  0  0  0
  -21.7470   -6.2420   22.5900 C   0  0  0  0  0  0  0  0  0  0  0  0
  -21.2910   -6.8040   23.8040 C   0  0  0  0  0  3  0  0  0  0  0  0
  -21.1770   -5.9980   24.9540 C   0  0  0  0  0  3  0  0  0  0  0  0
  -21.5060   -4.6300   24.8920 C   0  0  0  0  0  0  0  0  0  0  0  0
  -21.9540   -4.0670   23.6850 C   0  0  0  0  0  3  0  0  0  0  0  0
  -22.0710   -4.8710   22.5360 C   0  0  0  0  0  0  0  0  0  0  0  0
  -22.4820   -4.3190   21.3690 F   0  0  0  0  0  0  0  0  0  0  0  0
  -21.3900   -3.8540   25.9940 F   0  0  0  0  0  0  0  0  0  0  0  0
  -22.9130  -13.6160   21.2070 C   0  0  0  0  0  0  0  0  0  0  0  0
  -22.2170  -12.9020   22.0850 N   0  0  0  0  0  0  0  0  0  0  0  0
  -22.4610  -14.6560   20.7290 O   0  0  0  0  0  0  0  0  0  0  0  0
  -22.5970  -12.0600   22.4910 H   0  0  0  0  0  0  0  0  0  0  0  0
  -21.2900  -13.2000   22.3530 H   0  0  0  0  0  0  0  0  0  0  0  0
  -25.5170  -15.2900   20.3190 N   0  0  0  0  0  0  0  0  0  0  0  0
  -24.7570  -15.9460   20.4650 H   0  0  0  0  0  0  0  0  0  0  0  0
  -26.3520  -15.7270   19.9540 H   0  0  0  0  0  0  0  0  0  0  0  0
  -33.9340  -19.0490   20.6860 C   0  0  0  0  0  0  0  0  0  0  0  0
  -34.4070  -20.0110   21.4660 N   0  0  0  0  0  0  0  0  0  0  0  0
  -34.6730  -18.3680   19.9770 O   0  0  0  0  0  0  0  0  0  0  0  0
  -33.7900  -20.5170   22.0820 H   0  0  0  0  0  0  0  0  0  0  0  0
  -35.3960  -20.2180   21.4710 H   0  0  0  0  0  0  0  0  0  0  0  0
  2  3  2  0
  2  6  1  0
  4  5  1  0
  4  2  1  0
  5  7  1  0
  6 10  1  0
  7  6  1  0
  7  1  1  0
  7  8  1  6
  9 10  1  0
 11  3  1  0
 12 23  2  0
 13 11  1  0
 13 18  1  0
 14 22  1  0
 14 24  1  0
 15 21  1  0
 15 17  1  0
 16 22  1  0
 17 16  1  0
 18 17  2  0
 19 20  1  0
 19 13  2  0
 20 15  2  0
 21 14  1  0
 22 12  1  0
 24 26  2  0
 25 24  1  0
 27 25  1  0
 28 37  2  0
 28 33  1  0
 29 25  1  0
 29 33  1  0
 30 29  1  0
 31 32  1  0
 31 30  1  0
 32 28  1  0
 33 34  2  0
 34 35  1  0
 36 35  2  0
 37 36  1  0
 38 12  1  0
 38 43  1  0
 38 39  1  0
 39 42  1  1
 39 40  1  0
 41 39  1  0
 43 46  1  0
 44 48  1  0
 44 43  1  0
 45 44  2  0
 48 47  1  0
 50 48  1  0
 50 51  1  0
 50 49  1  0
 52 56  1  0
 53 57  2  0
 53 55  1  0
 54 56  2  0
 55 52  2  0
 56  1  1  0
 57 54  1  0
 58 66  1  0
 59 64  1  0
 60 61  1  0
 60 59  1  0
 62 61  1  0
 62 71  1  0
 62 63  1  0
 64 58  1  0
 64 63  1  0
 65 58  2  0
 66 57  1  0
 66 67  1  0
 68 69  2  0
 69 88  1  0
 70 69  1  0
 70 73  1  0
 71 72  1  0
 71 68  1  0
 72 70  2  0
 73 74  1  0
 74 75  2  0
 76 79  1  0
 76 75  1  0
 77 76  2  0
 78 77  1  0
 78 73  2  0
 79 80  1  0
 80 81  1  0
 81 82  2  0
 83 82  1  0
 83 87  1  0
 84 83  2  0
 85 80  2  0
 85 84  1  0
 86 85  1  0
 88 89  1  0
 89 92  1  0
 89 91  1  0
 90 88  2  0
 93 94  1  0
 93 68  1  0
 95 93  1  0
 96 55  1  0
 96 97  1  0
 97100  1  0
 97 99  1  0
 98 96  2  0
M  ISO  4   3 101  11 101  58 100  66 100
M  END
>  <TORSDO>  (71) 
F 20

>  <SCORE>  (71) 
-14.169

>  <name>  (71) 
70

>  <ligand_id>  (71) 
70

>  <original_smiles>  (71) 
[H]C(Oc1c([H])c([H])c2c(c1[H])C([H])([H])N(C(=O)C([H])(N([H])C(=O)C([H])(N([H])C([H])([H])[H])C([H])([H])[H])C(C([H])([H])[H])(C([H])([H])[H])C([H])([H])[H])C([H])(C(=O)N([H])C1([H])c3c([H])c([H])c([H])c([H])c3C([H])([H])C([H])([H])C1([H])[H])C2([H])[H])=C1C([H])([H])C([H])([H])[N+]([H])(C([H])([H])c2c([H])c(C(=O)N([H])[H])c([H])c(N([H])C(=O)N3C([H])([H])C([H])([H])C([H])([H])C([H])(n4nc(-c5c([H])c([H])c(Oc6c([H])c([H])c(F)c([H])c6F)c([H])c5[H])c(C(=O)N([H])[H])c4N([H])[H])C3([H])[H])c2[H])C1([H])C([H])([H])C([H])([H])[H]

>  <smiles>  (71) 
[H]C(Oc1c([H])c([H])c2c(c1[H])C([H])([H])N(C(=O)C([H])(N([H])C(=O)C([H])(N([H])C([H])([H])[H])C([H])([H])[H])C(C([H])([H])[H])(C([H])([H])[H])C([H])([H])[H])C([H])(C(=O)N([H])C1([H])c3c([H])c([H])c([H])c([H])c3C([H])([H])C([H])([H])C1([H])[H])C2([H])[H])=C1C([H])([H])C([H])([H])[N+]([H])(C([H])([H])c2c([H])c(C(=O)N([H])[H])c([H])c(N([H])C(=O)N3C([H])([H])C([H])([H])C([H])([H])C([H])(n4nc(-c5c([H])c([H])c(Oc6c([H])c([H])c(F)c([H])c6F)c([H])c5[H])c(C(=O)N([H])[H])c4N([H])[H])C3([H])[H])c2[H])C1([H])C([H])([H])C([H])([H])[H]

$$$$
71:0:0
     RDKit          3D

 98106  0  0  1  0  0  0  0  0999 V2000
  -28.7750  -19.5310   20.3200 C   0  0  0  0  0  3  0  0  0  0  0  0
  -31.1360  -20.0390   20.2170 C   0  0  0  0  0  3  0  0  0  0  0  0
  -29.0490  -18.1450   20.4270 C   0  0  0  0  0  0  0  0  0  0  0  0
  -30.4020  -17.6850   20.4580 C   0  0  0  0  0  0  0  0  0  0  0  0
  -29.7990  -20.4870   20.2260 C   0  0  0  0  0  0  0  0  0  0  0  0
  -31.4410  -18.6630   20.3650 C   0  0  0  0  0  0  0  0  0  0  0  0
  -32.7950  -18.3200   20.4610 N   0  0  0  0  0  0  0  0  0  0  0  0
  -33.4370  -19.0950   20.5930 H   0  0  0  0  0  0  0  0  0  0  0  0
  -33.0360  -17.5560   21.0850 H   0  0  0  0  0  0  0  0  0  0  0  0
  -26.4700  -17.7250   20.3940 C   0  0  0  0  0  1  0  0  0  0  0  0
  -27.8860  -17.1470   20.5230 C   0  0  0  0  0  2  0  0  0  0  0  0
  -29.4440  -21.8500   20.1960 N   0  0  0  0  0  0  0  0  0  0  0  0
  -28.5760  -22.1250   20.6490 H   0  0  0  0  0  0  0  0  0  0  0  0
  -29.1400  -22.2870   17.7840 C   0  0  0  0  0  1  0  0  0  0  0  0
  -29.8230  -22.7390   19.0920 C   0  0  0  0  0  3  0  0  0  0  0  0
  -29.4210  -24.2060   19.4130 C   0  0  0  0  0  0  0  0  0  0  0  0
  -28.7930  -24.4940   20.4400 O   0  0  0  0  0  0  0  0  0  0  0  0
  -29.8190  -25.3050   18.4020 C   0  0  0  0  0  2  0  0  0  0  0  0
  -29.6000  -26.6320   18.9190 O   0  0  0  0  0  0  0  0  0  0  0  0
  -25.2040  -30.6660   22.7860 C   0  0  0  0  0  0  0  0  0  0  0  0
  -28.3230  -27.1510   19.0150 C   0  0  0  0  0  0  0  0  0  0  0  0
  -24.1510  -29.4180   20.9260 C   0  0  0  0  0  3  0  0  0  0  0  0
  -25.7590  -28.3280   19.2730 C   0  0  0  0  0  0  0  0  0  0  0  0
  -26.6110  -30.1100   20.8050 C   0  0  0  0  0  2  0  0  0  0  0  0
  -26.8500  -28.8850   19.9420 C   0  0  0  0  0  0  0  0  0  0  0  0
  -28.1310  -28.3070   19.8110 C   0  0  0  0  0  3  0  0  0  0  0  0
  -27.2020  -26.5960   18.3520 C   0  0  0  0  0  3  0  0  0  0  0  0
  -25.9280  -27.1800   18.4770 C   0  0  0  0  0  3  0  0  0  0  0  0
  -24.4230  -29.0090   19.4540 C   0  0  0  0  0  2  0  0  0  0  0  0
  -25.3380  -30.0740   21.5640 N   0  0  0  0  0  0  0  0  0  0  0  0
  -24.1080  -30.7060   23.3590 O   0  0  0  0  0  0  0  0  0  0  0  0
  -23.6480  -28.1790   21.6990 C   0  0  0  0  0  0  0  0  0  0  0  0
  -22.3740  -27.8140   21.4810 N   0  0  0  0  0  0  0  0  0  0  0  0
  -24.4000  -27.5550   22.4540 O   0  0  0  0  0  0  0  0  0  0  0  0
  -21.8200  -28.3850   20.8600 H   0  0  0  0  0  0  0  0  0  0  0  0
  -19.2140  -26.0670   21.6570 C   0  0  0  0  0  0  0  0  0  0  0  0
  -21.6970  -26.6590   22.0690 C   0  0  0  0  0  3  0  0  0  0  0  0
  -22.0290  -25.3630   21.2920 C   0  0  0  0  0  2  0  0  0  0  0  0
  -21.0080  -25.0360   20.1970 C   0  0  0  0  0  2  0  0  0  0  0  0
  -19.6100  -24.8750   20.7980 C   0  0  0  0  0  2  0  0  0  0  0  0
  -20.1950  -26.9110   22.2410 C   0  0  0  0  0  0  0  0  0  0  0  0
  -19.7740  -28.0230   23.0020 C   0  0  0  0  0  3  0  0  0  0  0  0
  -18.4050  -28.2960   23.1820 C   0  0  0  0  0  3  0  0  0  0  0  0
  -17.4390  -27.4490   22.6120 C   0  0  0  0  0  3  0  0  0  0  0  0
  -17.8440  -26.3350   21.8560 C   0  0  0  0  0  3  0  0  0  0  0  0
  -26.4170  -31.3360   23.5030 C   0  0  0  0  0  3  0  0  0  0  0  0
  -25.9390  -32.5930   24.0950 N   0  0  0  0  0  0  0  0  0  0  0  0
  -26.1460  -33.8080   23.5670 C   0  0  0  0  0  0  0  0  0  0  0  0
  -26.8300  -33.9900   22.5560 O   0  0  0  0  0  0  0  0  0  0  0  0
  -25.3360  -32.5150   24.9000 H   0  0  0  0  0  0  0  0  0  0  0  0
  -24.2300  -35.4330   23.4960 C   0  0  0  0  0  1  0  0  0  0  0  0
  -25.4870  -35.0090   24.2710 C   0  0  0  0  0  3  0  0  0  0  0  0
  -27.4690  -35.9350   25.3880 C   0  0  0  0  0  1  0  0  0  0  0  0
  -26.3930  -36.1680   24.4280 N   0  0  0  0  0  0  0  0  0  0  0  0
  -25.8740  -36.9890   24.7250 H   0  0  0  0  0  0  0  0  0  0  0  0
  -27.0780  -30.4160   24.6020 C   0  0  1  0  0  0  0  0  0  0  0  0
  -26.0570  -29.7730   25.5680 C   0  0  0  0  0  1  0  0  0  0  0  0
  -27.8920  -29.2750   23.9460 C   0  0  0  0  0  1  0  0  0  0  0  0
  -28.0740  -31.2430   25.4480 C   0  0  0  0  0  1  0  0  0  0  0  0
  -30.6860  -16.1720   20.6560 C   0  0  0  0  0  2  0  0  0  0  0  0
  -31.7420  -14.3090   19.3930 C   0  0  0  0  0  0  0  0  0  0  0  0
  -31.3050  -12.0580   18.5140 C   0  0  0  0  0  2  0  0  0  0  0  0
  -30.1930  -12.1820   17.4520 C   0  0  0  0  0  2  0  0  0  0  0  0
  -28.7960  -12.1070   18.1030 C   0  0  0  0  0  2  0  0  0  0  0  0
  -28.6520  -13.0320   19.3430 C   0  0  0  0  0  3  0  0  0  0  0  0
  -29.8660  -12.8690   20.2850 C   0  0  0  0  0  2  0  0  0  0  0  0
  -31.0770  -13.1280   19.4950 N   0  0  0  0  0  0  0  0  0  0  0  0
  -32.8440  -14.4120   18.8490 O   0  0  0  0  0  0  0  0  0  0  0  0
  -30.9710  -15.4080   19.4460 N   0  0  0  0  0  0  0  0  0  0  0  0
  -31.2320  -16.0710   18.7240 H   0  0  0  0  0  0  0  0  0  0  0  0
  -26.4990  -13.7370   20.5670 C   0  0  0  0  0  0  0  0  0  0  0  0
  -25.4370  -13.0150   21.0380 C   0  0  0  0  0  0  0  0  0  0  0  0
  -25.7330  -11.6470   20.7530 C   0  0  0  0  0  0  0  0  0  0  0  0
  -27.3860  -12.8100   20.0400 N   0  0  0  0  0  0  0  0  0  0  0  0
  -26.9360  -11.5390   20.2030 N   0  0  0  0  0  0  0  0  0  0  0  0
  -24.9140  -10.4380   20.9170 C   0  0  0  0  0  0  0  0  0  0  0  0
  -25.2140   -9.4740   21.9040 C   0  0  0  0  0  3  0  0  0  0  0  0
  -24.4030   -8.3280   22.0550 C   0  0  0  0  0  3  0  0  0  0  0  0
  -23.2800   -8.1380   21.2150 C   0  0  0  0  0  0  0  0  0  0  0  0
  -22.9990   -9.0900   20.2190 C   0  0  0  0  0  3  0  0  0  0  0  0
  -23.8120  -10.2270   20.0680 C   0  0  0  0  0  3  0  0  0  0  0  0
  -22.4490   -7.0460   21.2760 O   0  0  0  0  0  0  0  0  0  0  0  0
  -21.9920   -6.5530   22.4720 C   0  0  0  0  0  0  0  0  0  0  0  0
  -21.2050   -7.3330   23.3480 C   0  0  0  0  0  3  0  0  0  0  0  0
  -20.6980   -6.7630   24.5330 C   0  0  0  0  0  3  0  0  0  0  0  0
  -20.9690   -5.4170   24.8400 C   0  0  0  0  0  0  0  0  0  0  0  0
  -21.7470   -4.6380   23.9660 C   0  0  0  0  0  3  0  0  0  0  0  0
  -22.2560   -5.2040   22.7840 C   0  0  0  0  0  0  0  0  0  0  0  0
  -22.9860   -4.4420   21.9360 F   0  0  0  0  0  0  0  0  0  0  0  0
  -20.4740   -4.8680   25.9730 F   0  0  0  0  0  0  0  0  0  0  0  0
  -24.1720  -13.5670   21.6280 C   0  0  0  0  0  0  0  0  0  0  0  0
  -23.5510  -12.8420   22.5530 N   0  0  0  0  0  0  0  0  0  0  0  0
  -23.7490  -14.6770   21.3050 O   0  0  0  0  0  0  0  0  0  0  0  0
  -23.9030  -11.9430   22.8430 H   0  0  0  0  0  0  0  0  0  0  0  0
  -22.7070  -13.2000   22.9780 H   0  0  0  0  0  0  0  0  0  0  0  0
  -26.7690  -15.1010   20.5210 N   0  0  0  0  0  0  0  0  0  0  0  0
  -26.0490  -15.7830   20.7430 H   0  0  0  0  0  0  0  0  0  0  0  0
  -27.5720  -15.5080   20.0590 H   0  0  0  0  0  0  0  0  0  0  0  0
  1  3  1  0
  2  5  1  0
  2  6  2  0
  3  4  2  0
  3 11  1  0
  4 60  1  0
  5  1  2  0
  6  4  1  0
  6  7  1  0
  7  8  1  0
  7  9  1  0
 10 11  1  0
 12  5  1  0
 12 13  1  0
 15 14  1  0
 15 16  1  0
 15 12  1  0
 16 17  2  0
 18 19  1  0
 18 16  1  0
 19 21  1  0
 20 31  2  0
 21 26  1  0
 22 30  1  0
 22 32  1  0
 23 29  1  0
 23 25  1  0
 24 30  1  0
 25 24  1  0
 26 25  2  0
 27 28  1  0
 27 21  2  0
 28 23  2  0
 29 22  1  0
 30 20  1  0
 32 34  2  0
 33 32  1  0
 35 33  1  0
 36 45  2  0
 36 41  1  0
 37 33  1  0
 37 41  1  0
 38 37  1  0
 39 40  1  0
 39 38  1  0
 40 36  1  0
 41 42  2  0
 42 43  1  0
 44 43  2  0
 45 44  1  0
 46 20  1  0
 46 47  1  0
 46 56  1  0
 47 50  1  0
 48 47  1  0
 48 52  1  0
 49 48  2  0
 52 51  1  0
 52 54  1  0
 54 55  1  0
 54 53  1  0
 56 59  1  1
 56 57  1  0
 58 56  1  0
 61 69  1  0
 61 67  1  0
 62 67  1  0
 63 64  1  0
 63 62  1  0
 65 64  1  0
 65 74  1  0
 65 66  1  0
 67 66  1  0
 68 61  2  0
 69 60  1  0
 70 69  1  0
 71 72  2  0
 72 91  1  0
 73 76  1  0
 73 72  1  0
 74 75  1  0
 74 71  1  0
 75 73  2  0
 76 77  1  0
 77 78  2  0
 79 82  1  0
 79 78  1  0
 80 79  2  0
 81 80  1  0
 81 76  2  0
 82 83  1  0
 83 88  2  0
 83 84  1  0
 84 85  2  0
 85 86  1  0
 86 90  1  0
 87 86  2  0
 88 87  1  0
 89 88  1  0
 91 92  1  0
 92 94  1  0
 92 95  1  0
 93 91  2  0
 96 71  1  0
 96 97  1  0
 98 96  1  0
M  ISO  4  18 101  19 101  61 100  69 100
M  END
>  <TORSDO>  (72) 
F 23

>  <SCORE>  (72) 
-7.503

>  <name>  (72) 
71

>  <ligand_id>  (72) 
71

>  <original_smiles>  (72) 
[H]c1c([H])c([H])c2c(c1[H])C([H])([H])C([H])([H])C([H])([H])C2([H])N([H])C(=O)C1([H])N(C(=O)C([H])(N([H])C(=O)C([H])(N([H])C([H])([H])[H])C([H])([H])[H])C(C([H])([H])[H])(C([H])([H])[H])C([H])([H])[H])C([H])([H])c2c([H])c(OC([H])([H])C(=O)C([H])(N([H])c3c([H])c(N([H])[H])c(C([H])([H])N([H])C(=O)N4C([H])([H])C([H])([H])C([H])([H])C([H])(n5nc(-c6c([H])c([H])c(Oc7c([H])c([H])c(F)c([H])c7F)c([H])c6[H])c(C(=O)N([H])[H])c5N([H])[H])C4([H])[H])c(C([H])([H])C([H])([H])[H])c3[H])C([H])([H])[H])c([H])c([H])c2C1([H])[H]

>  <smiles>  (72) 
[H]c1c([H])c([H])c2c(c1[H])C([H])([H])C([H])([H])C([H])([H])C2([H])N([H])C(=O)C1([H])N(C(=O)C([H])(N([H])C(=O)C([H])(N([H])C([H])([H])[H])C([H])([H])[H])C(C([H])([H])[H])(C([H])([H])[H])C([H])([H])[H])C([H])([H])c2c([H])c(OC([H])([H])C(=O)C([H])(N([H])c3c([H])c(N([H])[H])c(C([H])([H])N([H])C(=O)N4C([H])([H])C([H])([H])C([H])([H])C([H])(n5nc(-c6c([H])c([H])c(Oc7c([H])c([H])c(F)c([H])c7F)c([H])c6[H])c(C(=O)N([H])[H])c5N([H])[H])C4([H])[H])c(C([H])([H])C([H])([H])[H])c3[H])C([H])([H])[H])c([H])c([H])c2C1([H])[H]

$$$$
72:0:0
     RDKit          3D

 95103  0  0  1  0  0  0  0  0999 V2000
  -29.2900  -19.6910   19.4460 C   0  0  0  0  0  3  0  0  0  0  0  0
  -29.9350  -18.2540   21.3000 C   0  0  0  0  0  3  0  0  0  0  0  0
  -29.3100  -17.2560   19.1570 C   0  0  0  0  0  0  0  0  0  0  0  0
  -29.0900  -18.5600   18.6420 C   0  0  0  0  0  0  0  0  0  0  0  0
  -29.7390  -17.0770   20.5120 C   0  0  0  0  0  0  0  0  0  0  0  0
  -29.7070  -19.5670   20.7850 C   0  0  0  0  0  0  0  0  0  0  0  0
  -29.0310  -16.0770   18.2390 C   0  0  0  0  0  1  0  0  0  0  0  0
  -30.6500  -14.7310   20.9460 C   0  0  0  0  0  0  0  0  0  0  0  0
  -30.5990  -12.4220   20.0540 C   0  0  0  0  0  2  0  0  0  0  0  0
  -29.7640  -12.3850   18.7540 C   0  0  0  0  0  2  0  0  0  0  0  0
  -28.2460  -12.3160   19.0360 C   0  0  0  0  0  2  0  0  0  0  0  0
  -27.7700  -13.2370   20.1940 C   0  0  0  0  0  3  0  0  0  0  0  0
  -28.7260  -13.1600   21.4030 C   0  0  0  0  0  2  0  0  0  0  0  0
  -30.0770  -13.4910   20.9230 N   0  0  0  0  0  0  0  0  0  0  0  0
  -31.8340  -14.9150   20.6500 O   0  0  0  0  0  0  0  0  0  0  0  0
  -29.7860  -15.7650   21.1450 N   0  0  0  0  0  0  0  0  0  0  0  0
  -28.9030  -15.4630   21.5270 H   0  0  0  0  0  0  0  0  0  0  0  0
  -25.3180  -13.8330   20.6940 C   0  0  0  0  0  0  0  0  0  0  0  0
  -24.2300  -13.0560   20.9870 C   0  0  0  0  0  0  0  0  0  0  0  0
  -24.7050  -11.7090   21.0220 C   0  0  0  0  0  0  0  0  0  0  0  0
  -26.3860  -12.9580   20.5700 N   0  0  0  0  0  0  0  0  0  0  0  0
  -26.0170  -11.6790   20.8270 N   0  0  0  0  0  0  0  0  0  0  0  0
  -23.9790  -10.4420   21.1740 C   0  0  0  0  0  0  0  0  0  0  0  0
  -24.3620   -9.4840   22.1390 C   0  0  0  0  0  3  0  0  0  0  0  0
  -23.6370   -8.2810   22.2810 C   0  0  0  0  0  3  0  0  0  0  0  0
  -22.5180   -8.0260   21.4560 C   0  0  0  0  0  0  0  0  0  0  0  0
  -22.1560   -8.9710   20.4790 C   0  0  0  0  0  3  0  0  0  0  0  0
  -22.8800  -10.1650   20.3360 C   0  0  0  0  0  3  0  0  0  0  0  0
  -21.7710   -6.8740   21.5020 O   0  0  0  0  0  0  0  0  0  0  0  0
  -21.6690   -6.1290   22.6510 C   0  0  0  0  0  0  0  0  0  0  0  0
  -21.1670   -6.6770   23.8510 C   0  0  0  0  0  3  0  0  0  0  0  0
  -21.0130   -5.8590   24.9880 C   0  0  0  0  0  3  0  0  0  0  0  0
  -21.3520   -4.4950   24.9250 C   0  0  0  0  0  0  0  0  0  0  0  0
  -21.8470   -3.9460   23.7310 C   0  0  0  0  0  3  0  0  0  0  0  0
  -22.0020   -4.7610   22.5950 C   0  0  0  0  0  0  0  0  0  0  0  0
  -22.4600   -4.2220   21.4380 F   0  0  0  0  0  0  0  0  0  0  0  0
  -21.1980   -3.7070   26.0150 F   0  0  0  0  0  0  0  0  0  0  0  0
  -22.8100  -13.5200   21.1360 C   0  0  0  0  0  0  0  0  0  0  0  0
  -22.0240  -12.8310   21.9560 N   0  0  0  0  0  0  0  0  0  0  0  0
  -22.4040  -14.5300   20.5610 O   0  0  0  0  0  0  0  0  0  0  0  0
  -22.3660  -12.0140   22.4380 H   0  0  0  0  0  0  0  0  0  0  0  0
  -21.0680  -13.1250   22.1070 H   0  0  0  0  0  0  0  0  0  0  0  0
  -25.4890  -15.2010   20.5050 N   0  0  0  0  0  0  0  0  0  0  0  0
  -24.7110  -15.8520   20.5240 H   0  0  0  0  0  0  0  0  0  0  0  0
  -26.3630  -15.6420   20.2510 H   0  0  0  0  0  0  0  0  0  0  0  0
  -28.6440  -18.7690   17.3360 N   0  0  0  0  0  0  0  0  0  0  0  0
  -28.2110  -19.6580   17.1030 H   0  0  0  0  0  0  0  0  0  0  0  0
  -28.2550  -17.9880   16.8190 H   0  0  0  0  0  0  0  0  0  0  0  0
  -29.9060  -20.6940   21.5750 O   0  0  0  0  0  0  0  0  0  0  0  0
  -29.0530  -21.8630   21.4100 C   0  0  0  0  0  2  0  0  0  0  0  0
  -29.5710  -23.0160   20.4850 C   0  0  0  0  0  2  0  0  0  0  0  0
  -29.1490  -24.4610   20.8850 C   0  0  0  0  0  0  0  0  0  0  0  0
  -29.4430  -24.9120   21.9980 O   0  0  0  0  0  0  0  0  0  0  0  0
  -28.3630  -25.3250   19.8610 C   0  0  0  0  0  2  0  0  0  0  0  0
  -28.4060  -26.7540   20.1520 O   0  0  0  0  0  0  0  0  0  0  0  0
  -24.5840  -31.9430   23.2260 C   0  0  0  0  0  0  0  0  0  0  0  0
  -27.2350  -27.5020   20.1010 C   0  0  0  0  0  0  0  0  0  0  0  0
  -23.3780  -30.5450   21.5820 C   0  0  0  0  0  3  0  0  0  0  0  0
  -24.8340  -29.0320   20.1290 C   0  0  0  0  0  0  0  0  0  0  0  0
  -25.9040  -30.9130   21.3740 C   0  0  0  0  0  2  0  0  0  0  0  0
  -25.9940  -29.5450   20.7210 C   0  0  0  0  0  0  0  0  0  0  0  0
  -27.1930  -28.7880   20.7040 C   0  0  0  0  0  3  0  0  0  0  0  0
  -26.0560  -27.0310   19.4750 C   0  0  0  0  0  3  0  0  0  0  0  0
  -24.8630  -27.7780   19.5010 C   0  0  0  0  0  3  0  0  0  0  0  0
  -23.5840  -29.8820   20.1940 C   0  0  0  0  0  2  0  0  0  0  0  0
  -24.6410  -31.1480   22.1190 N   0  0  0  0  0  0  0  0  0  0  0  0
  -23.5040  -32.2020   23.7750 O   0  0  0  0  0  0  0  0  0  0  0  0
  -22.7400  -29.5110   22.5370 C   0  0  0  0  0  0  0  0  0  0  0  0
  -21.4180  -29.3100   22.4120 N   0  0  0  0  0  0  0  0  0  0  0  0
  -23.4330  -28.8890   23.3490 O   0  0  0  0  0  0  0  0  0  0  0  0
  -20.9190  -29.8630   21.7290 H   0  0  0  0  0  0  0  0  0  0  0  0
  -18.0640  -28.0590   22.9060 C   0  0  0  0  0  0  0  0  0  0  0  0
  -20.6170  -28.3570   23.1790 C   0  0  0  0  0  3  0  0  0  0  0  0
  -20.7430  -26.9300   22.5980 C   0  0  0  0  0  2  0  0  0  0  0  0
  -19.6470  -26.5930   21.5820 C   0  0  0  0  0  2  0  0  0  0  0  0
  -18.2620  -26.7150   22.2270 C   0  0  0  0  0  2  0  0  0  0  0  0
  -19.1700  -28.8380   23.3390 C   0  0  0  0  0  0  0  0  0  0  0  0
  -18.9310  -30.0950   23.9340 C   0  0  0  0  0  3  0  0  0  0  0  0
  -17.6190  -30.5760   24.0990 C   0  0  0  0  0  3  0  0  0  0  0  0
  -16.5270  -29.7950   23.6830 C   0  0  0  0  0  3  0  0  0  0  0  0
  -16.7510  -28.5380   23.0930 C   0  0  0  0  0  3  0  0  0  0  0  0
  -25.8680  -32.5800   23.8420 C   0  0  0  0  0  3  0  0  0  0  0  0
  -25.5550  -33.9790   24.1640 N   0  0  0  0  0  0  0  0  0  0  0  0
  -25.8930  -35.0280   23.4030 C   0  0  0  0  0  0  0  0  0  0  0  0
  -26.5700  -34.9210   22.3760 O   0  0  0  0  0  0  0  0  0  0  0  0
  -24.9570  -34.1370   24.9620 H   0  0  0  0  0  0  0  0  0  0  0  0
  -24.1740  -36.8240   23.0190 C   0  0  0  0  0  1  0  0  0  0  0  0
  -25.4010  -36.4180   23.8510 C   0  0  0  0  0  3  0  0  0  0  0  0
  -27.5250  -37.2990   24.7140 C   0  0  0  0  0  1  0  0  0  0  0  0
  -26.4370  -37.4690   23.7520 N   0  0  0  0  0  0  0  0  0  0  0  0
  -26.0310  -38.3900   23.8950 H   0  0  0  0  0  0  0  0  0  0  0  0
  -26.3910  -31.8160   25.1200 C   0  0  1  0  0  0  0  0  0  0  0  0
  -25.3010  -31.5760   26.1910 C   0  0  0  0  0  1  0  0  0  0  0  0
  -26.9790  -30.4400   24.7310 C   0  0  0  0  0  1  0  0  0  0  0  0
  -27.5410  -32.6160   25.7750 C   0  0  0  0  0  1  0  0  0  0  0  0
  1  6  1  0
  3  5  2  0
  4  3  1  0
  4  1  2  0
  5 16  1  0
  5  2  1  0
  6  2  2  0
  6 49  1  0
  7  3  1  0
  8 16  1  0
  9 14  1  0
 10 11  1  0
 10  9  1  0
 12 11  1  0
 12 21  1  0
 12 13  1  0
 14  8  1  0
 14 13  1  0
 15  8  2  0
 16 17  1  0
 18 19  2  0
 19 20  1  0
 19 38  1  0
 20 23  1  0
 21 18  1  0
 21 22  1  0
 22 20  2  0
 23 24  1  0
 24 25  2  0
 26 29  1  0
 26 25  1  0
 27 26  2  0
 28 27  1  0
 28 23  2  0
 29 30  1  0
 30 31  1  0
 31 32  2  0
 33 32  1  0
 33 37  1  0
 34 33  2  0
 35 30  2  0
 35 34  1  0
 36 35  1  0
 38 39  1  0
 39 42  1  0
 39 41  1  0
 40 38  2  0
 43 44  1  0
 43 18  1  0
 45 43  1  0
 46  4  1  0
 47 46  1  0
 48 46  1  0
 50 49  1  0
 51 52  1  0
 51 50  1  0
 52 53  2  0
 54 55  1  0
 54 52  1  0
 56 67  2  0
 57 55  1  0
 57 62  1  0
 58 66  1  0
 58 68  1  0
 59 65  1  0
 59 61  1  0
 60 66  1  0
 61 60  1  0
 62 61  2  0
 63 64  1  0
 63 57  2  0
 64 59  2  0
 65 58  1  0
 66 56  1  0
 68 70  2  0
 69 68  1  0
 71 69  1  0
 72 81  2  0
 72 77  1  0
 73 69  1  0
 73 77  1  0
 74 73  1  0
 75 76  1  0
 75 74  1  0
 76 72  1  0
 77 78  2  0
 78 79  1  0
 80 79  2  0
 81 80  1  0
 82 56  1  0
 82 83  1  0
 82 92  1  0
 83 86  1  0
 84 88  1  0
 84 83  1  0
 85 84  2  0
 88 87  1  0
 90 88  1  0
 90 91  1  0
 90 89  1  0
 92 95  1  1
 92 93  1  0
 94 92  1  0
M  ISO  4   8 100  16 100  54 101  55 101
M  END
>  <TORSDO>  (73) 
F 22

>  <SCORE>  (73) 
-12.560

>  <name>  (73) 
72

>  <ligand_id>  (73) 
72

>  <original_smiles>  (73) 
[H]c1c([H])c([H])c2c(c1[H])C([H])([H])C([H])([H])C([H])([H])C2([H])N([H])C(=O)C1([H])N(C(=O)C([H])(N([H])C(=O)C([H])(N([H])C([H])([H])[H])C([H])([H])[H])C(C([H])([H])[H])(C([H])([H])[H])C([H])([H])[H])C([H])([H])c2c([H])c(OC([H])([H])C(=O)C([H])([H])C([H])([H])Oc3c([H])c(N([H])[H])c(C([H])([H])[H])c(N([H])C(=O)N4C([H])([H])C([H])([H])C([H])([H])C([H])(n5nc(-c6c([H])c([H])c(Oc7c([H])c([H])c(F)c([H])c7F)c([H])c6[H])c(C(=O)N([H])[H])c5N([H])[H])C4([H])[H])c3[H])c([H])c([H])c2C1([H])[H]

>  <smiles>  (73) 
[H]c1c([H])c([H])c2c(c1[H])C([H])([H])C([H])([H])C([H])([H])C2([H])N([H])C(=O)C1([H])N(C(=O)C([H])(N([H])C(=O)C([H])(N([H])C([H])([H])[H])C([H])([H])[H])C(C([H])([H])[H])(C([H])([H])[H])C([H])([H])[H])C([H])([H])c2c([H])c(OC([H])([H])C(=O)C([H])([H])C([H])([H])Oc3c([H])c(N([H])[H])c(C([H])([H])[H])c(N([H])C(=O)N4C([H])([H])C([H])([H])C([H])([H])C([H])(n5nc(-c6c([H])c([H])c(Oc7c([H])c([H])c(F)c([H])c7F)c([H])c6[H])c(C(=O)N([H])[H])c5N([H])[H])C4([H])[H])c3[H])c([H])c([H])c2C1([H])[H]

$$$$
73:0:0
     RDKit          3D

 96105  0  0  1  0  0  0  0  0999 V2000
  -29.2100  -24.1980   19.8590 C   0  0  0  0  0  0  0  0  0  0  0  0
  -29.5800  -23.0380   20.4850 C   0  0  0  0  0  0  0  0  0  0  0  0
  -29.6700  -24.4370   18.4600 C   0  0  0  0  0  0  0  0  0  0  0  0
  -30.4210  -23.3070   17.7570 C   0  0  0  0  0  2  0  0  0  0  0  0
  -31.2470  -22.4730   18.7430 C   0  0  0  0  0  2  0  0  0  0  0  0
  -29.1230  -22.7380   21.9120 C   0  0  0  0  0  1  0  0  0  0  0  0
  -30.4420  -22.0840   19.9040 N   0  0  0  0  0  0  0  0  0  0  0  0
  -29.4580  -25.4700   17.8170 O   0  0  0  0  0  0  0  0  0  0  0  0
  -32.0240  -18.8550   20.9950 C   0  0  0  0  0  3  0  0  0  0  0  0
  -31.8670  -20.2010   20.6040 C   0  0  0  0  0  3  0  0  0  0  0  0
  -29.5010  -19.8190   20.2610 C   0  0  0  0  0  3  0  0  0  0  0  0
  -30.9260  -17.9720   21.0470 C   0  0  0  0  0  0  0  0  0  0  0  0
  -29.6520  -18.4620   20.6530 C   0  0  0  0  0  0  0  0  0  0  0  0
  -30.5960  -20.7160   20.2590 C   0  0  0  0  0  0  0  0  0  0  0  0
  -28.4240  -17.5690   20.6790 C   0  0  0  0  0  1  0  0  0  0  0  0
  -31.1490  -16.5760   21.6590 C   0  0  0  0  0  2  0  0  0  0  0  0
  -31.0650  -14.4910   20.2590 C   0  0  0  0  0  0  0  0  0  0  0  0
  -30.6800  -12.3700   19.0410 C   0  0  0  0  0  2  0  0  0  0  0  0
  -29.7010  -12.5890   17.8710 C   0  0  0  0  0  2  0  0  0  0  0  0
  -28.2400  -12.4660   18.3470 C   0  0  0  0  0  2  0  0  0  0  0  0
  -27.9540  -13.3040   19.6220 C   0  0  0  0  0  3  0  0  0  0  0  0
  -29.0360  -13.0510   20.6930 C   0  0  0  0  0  2  0  0  0  0  0  0
  -30.3480  -13.3460   20.0910 N   0  0  0  0  0  0  0  0  0  0  0  0
  -32.1540  -14.6870   19.7140 O   0  0  0  0  0  0  0  0  0  0  0  0
  -30.4870  -15.4220   21.0400 N   0  0  0  0  0  0  0  0  0  0  0  0
  -29.5730  -15.1870   21.3950 H   0  0  0  0  0  0  0  0  0  0  0  0
  -25.5960  -13.9560   20.4220 C   0  0  0  0  0  0  0  0  0  0  0  0
  -24.5210  -13.2030   20.8120 C   0  0  0  0  0  0  0  0  0  0  0  0
  -24.9450  -11.8410   20.7360 C   0  0  0  0  0  0  0  0  0  0  0  0
  -26.6090  -13.0540   20.1390 N   0  0  0  0  0  0  0  0  0  0  0  0
  -26.2230  -11.7760   20.3840 N   0  0  0  0  0  0  0  0  0  0  0  0
  -24.1930  -10.5950   20.9220 C   0  0  0  0  0  0  0  0  0  0  0  0
  -24.5970   -9.6210   21.8610 C   0  0  0  0  0  3  0  0  0  0  0  0
  -23.8470   -8.4370   22.0340 C   0  0  0  0  0  3  0  0  0  0  0  0
  -22.6770   -8.2200   21.2670 C   0  0  0  0  0  0  0  0  0  0  0  0
  -22.2930   -9.1810   20.3160 C   0  0  0  0  0  3  0  0  0  0  0  0
  -23.0430  -10.3570   20.1410 C   0  0  0  0  0  3  0  0  0  0  0  0
  -21.8990   -7.0910   21.3500 O   0  0  0  0  0  0  0  0  0  0  0  0
  -21.7840   -6.3800   22.5180 C   0  0  0  0  0  0  0  0  0  0  0  0
  -21.2990   -6.9710   23.7060 C   0  0  0  0  0  3  0  0  0  0  0  0
  -21.1320   -6.1860   24.8640 C   0  0  0  0  0  3  0  0  0  0  0  0
  -21.4380   -4.8120   24.8360 C   0  0  0  0  0  0  0  0  0  0  0  0
  -21.9150   -4.2210   23.6520 C   0  0  0  0  0  3  0  0  0  0  0  0
  -22.0840   -5.0030   22.4950 C   0  0  0  0  0  0  0  0  0  0  0  0
  -22.5240   -4.4240   21.3520 F   0  0  0  0  0  0  0  0  0  0  0  0
  -21.2700   -4.0560   25.9460 F   0  0  0  0  0  0  0  0  0  0  0  0
  -23.1460  -13.7100   21.1400 C   0  0  0  0  0  0  0  0  0  0  0  0
  -22.4300  -13.0200   22.0220 N   0  0  0  0  0  0  0  0  0  0  0  0
  -22.7150  -14.7530   20.6500 O   0  0  0  0  0  0  0  0  0  0  0  0
  -22.7890  -12.1760   22.4430 H   0  0  0  0  0  0  0  0  0  0  0  0
  -21.5080  -13.3430   22.2810 H   0  0  0  0  0  0  0  0  0  0  0  0
  -25.7880  -15.3250   20.2680 N   0  0  0  0  0  0  0  0  0  0  0  0
  -25.0350  -15.9910   20.4080 H   0  0  0  0  0  0  0  0  0  0  0  0
  -26.6300  -15.7500   19.9010 H   0  0  0  0  0  0  0  0  0  0  0  0
  -28.2620  -25.2350   20.5040 C   0  0  0  0  0  2  0  0  0  0  0  0
  -28.4510  -26.6260   20.1490 O   0  0  0  0  0  0  0  0  0  0  0  0
  -24.6220  -31.8100   23.2210 C   0  0  0  0  0  0  0  0  0  0  0  0
  -27.2970  -27.3860   20.1320 C   0  0  0  0  0  0  0  0  0  0  0  0
  -23.4370  -30.4260   21.5500 C   0  0  0  0  0  3  0  0  0  0  0  0
  -24.9060  -28.9030   20.1280 C   0  0  0  0  0  0  0  0  0  0  0  0
  -25.9660  -30.7810   21.3890 C   0  0  0  0  0  2  0  0  0  0  0  0
  -26.0600  -29.4170   20.7350 C   0  0  0  0  0  0  0  0  0  0  0  0
  -27.2600  -28.6670   20.7330 C   0  0  0  0  0  3  0  0  0  0  0  0
  -26.1300  -26.9000   19.5000 C   0  0  0  0  0  3  0  0  0  0  0  0
  -24.9360  -27.6430   19.5070 C   0  0  0  0  0  3  0  0  0  0  0  0
  -23.6630  -29.7620   20.1660 C   0  0  0  0  0  2  0  0  0  0  0  0
  -24.6930  -31.0200   22.1120 N   0  0  0  0  0  0  0  0  0  0  0  0
  -23.5340  -32.0790   23.7480 O   0  0  0  0  0  0  0  0  0  0  0  0
  -22.7710  -29.3960   22.4900 C   0  0  0  0  0  0  0  0  0  0  0  0
  -21.4480  -29.2160   22.3420 N   0  0  0  0  0  0  0  0  0  0  0  0
  -23.4420  -28.7620   23.3080 O   0  0  0  0  0  0  0  0  0  0  0  0
  -20.9680  -29.7820   21.6560 H   0  0  0  0  0  0  0  0  0  0  0  0
  -18.0700  -28.0000   22.7560 C   0  0  0  0  0  0  0  0  0  0  0  0
  -20.6190  -28.2720   23.0900 C   0  0  0  0  0  3  0  0  0  0  0  0
  -20.7440  -26.8430   22.5130 C   0  0  0  0  0  2  0  0  0  0  0  0
  -19.6680  -26.5150   21.4720 C   0  0  0  0  0  2  0  0  0  0  0  0
  -18.2710  -26.6530   22.0840 C   0  0  0  0  0  2  0  0  0  0  0  0
  -19.1730  -28.7670   23.2140 C   0  0  0  0  0  0  0  0  0  0  0  0
  -18.9340  -30.0290   23.8000 C   0  0  0  0  0  3  0  0  0  0  0  0
  -17.6240  -30.5240   23.9340 C   0  0  0  0  0  3  0  0  0  0  0  0
  -16.5330  -29.7520   23.4950 C   0  0  0  0  0  3  0  0  0  0  0  0
  -16.7570  -28.4930   22.9110 C   0  0  0  0  0  3  0  0  0  0  0  0
  -25.9020  -32.4330   23.8630 C   0  0  0  0  0  3  0  0  0  0  0  0
  -26.4000  -31.6490   25.1390 C   0  0  1  0  0  0  0  0  0  0  0  0
  -25.2920  -31.4000   26.1900 C   0  0  0  0  0  1  0  0  0  0  0  0
  -26.9880  -30.2750   24.7400 C   0  0  0  0  0  1  0  0  0  0  0  0
  -27.5420  -32.4350   25.8240 C   0  0  0  0  0  1  0  0  0  0  0  0
  -25.5930  -33.8280   24.1990 N   0  0  0  0  0  0  0  0  0  0  0  0
  -25.9410  -34.8850   23.4510 C   0  0  0  0  0  0  0  0  0  0  0  0
  -26.6270  -34.7860   22.4300 O   0  0  0  0  0  0  0  0  0  0  0  0
  -24.9880  -33.9800   24.9930 H   0  0  0  0  0  0  0  0  0  0  0  0
  -24.2230  -36.6830   23.0780 C   0  0  0  0  0  1  0  0  0  0  0  0
  -25.4490  -36.2710   23.9090 C   0  0  0  0  0  3  0  0  0  0  0  0
  -27.5690  -37.1470   24.7840 C   0  0  0  0  0  1  0  0  0  0  0  0
  -26.4850  -37.3220   23.8200 N   0  0  0  0  0  0  0  0  0  0  0  0
  -26.0780  -38.2430   23.9650 H   0  0  0  0  0  0  0  0  0  0  0  0
  1  2  2  0
  1 55  1  0
  2  6  1  0
  3  1  1  0
  4  3  1  0
  4  5  1  0
  5  7  1  0
  7 14  1  0
  7  2  1  0
  8  3  2  0
  9 12  1  0
 10  9  2  0
 11 13  1  0
 12 16  1  0
 13 15  1  0
 13 12  2  0
 14 11  2  0
 14 10  1  0
 17 25  1  0
 18 23  1  0
 19 20  1  0
 19 18  1  0
 21 20  1  0
 21 30  1  0
 21 22  1  0
 23 17  1  0
 23 22  1  0
 24 17  2  0
 25 26  1  0
 25 16  1  0
 27 28  2  0
 28 47  1  0
 29 28  1  0
 29 32  1  0
 30 31  1  0
 30 27  1  0
 31 29  2  0
 32 33  1  0
 33 34  2  0
 35 38  1  0
 35 34  1  0
 36 35  2  0
 37 36  1  0
 37 32  2  0
 38 39  1  0
 39 40  1  0
 40 41  2  0
 42 41  1  0
 42 46  1  0
 43 42  2  0
 44 39  2  0
 44 43  1  0
 45 44  1  0
 47 48  1  0
 48 51  1  0
 48 50  1  0
 49 47  2  0
 52 53  1  0
 52 27  1  0
 54 52  1  0
 56 55  1  0
 57 68  2  0
 58 56  1  0
 58 63  1  0
 59 67  1  0
 59 69  1  0
 60 66  1  0
 60 62  1  0
 61 67  1  0
 62 61  1  0
 63 62  2  0
 64 65  1  0
 64 58  2  0
 65 60  2  0
 66 59  1  0
 67 57  1  0
 69 71  2  0
 70 69  1  0
 72 70  1  0
 73 82  2  0
 73 78  1  0
 74 70  1  0
 74 78  1  0
 75 74  1  0
 76 77  1  0
 76 75  1  0
 77 73  1  0
 78 79  2  0
 79 80  1  0
 81 80  2  0
 82 81  1  0
 83 57  1  0
 83 88  1  0
 83 84  1  0
 84 87  1  1
 84 85  1  0
 86 84  1  0
 88 91  1  0
 89 93  1  0
 89 88  1  0
 90 89  2  0
 93 92  1  0
 95 93  1  0
 95 96  1  0
 95 94  1  0
M  ISO  4  17 100  25 100  55 101  56 101
M  END
>  <TORSDO>  (74) 
F 19

>  <SCORE>  (74) 
-14.460

>  <name>  (74) 
73

>  <ligand_id>  (74) 
73

>  <original_smiles>  (74) 
[H]c1c([H])c([H])c2c(c1[H])C([H])([H])C([H])([H])C([H])([H])C2([H])N([H])C(=O)C1([H])N(C(=O)C([H])(N([H])C(=O)C([H])(N([H])C([H])([H])[H])C([H])([H])[H])C(C([H])([H])[H])(C([H])([H])[H])C([H])([H])[H])C([H])([H])c2c([H])c(OC([H])([H])C3=C(C([H])([H])[H])N(c4c([H])c([H])c(C([H])([H])N([H])C(=O)N5C([H])([H])C([H])([H])C([H])([H])C([H])(n6nc(-c7c([H])c([H])c(Oc8c([H])c([H])c(F)c([H])c8F)c([H])c7[H])c(C(=O)N([H])[H])c6N([H])[H])C5([H])[H])c(C([H])([H])[H])c4[H])C([H])([H])C([H])([H])C3=O)c([H])c([H])c2C1([H])[H]

>  <smiles>  (74) 
[H]c1c([H])c([H])c2c(c1[H])C([H])([H])C([H])([H])C([H])([H])C2([H])N([H])C(=O)C1([H])N(C(=O)C([H])(N([H])C(=O)C([H])(N([H])C([H])([H])[H])C([H])([H])[H])C(C([H])([H])[H])(C([H])([H])[H])C([H])([H])[H])C([H])([H])c2c([H])c(OC([H])([H])C3=C(C([H])([H])[H])N(c4c([H])c([H])c(C([H])([H])N([H])C(=O)N5C([H])([H])C([H])([H])C([H])([H])C([H])(n6nc(-c7c([H])c([H])c(Oc8c([H])c([H])c(F)c([H])c8F)c([H])c7[H])c(C(=O)N([H])[H])c6N([H])[H])C5([H])[H])c(C([H])([H])[H])c4[H])C([H])([H])C([H])([H])C3=O)c([H])c([H])c2C1([H])[H]

$$$$
74:0:0
     RDKit          3D

 98107  0  0  1  0  0  0  0  0999 V2000
  -28.8990  -20.3260   23.6960 C   0  0  0  0  0  3  0  0  0  0  0  0
  -28.8610  -20.9200   22.4280 C   0  0  0  0  0  3  0  0  0  0  0  0
  -30.4300  -18.6980   22.8350 C   0  0  0  0  0  3  0  0  0  0  0  0
  -30.3780  -19.2090   21.5090 C   0  0  0  0  0  0  0  0  0  0  0  0
  -29.7100  -19.2100   23.9290 C   0  0  0  0  0  0  0  0  0  0  0  0
  -29.6140  -20.4790   21.2990 C   0  0  0  0  0  0  0  0  0  0  0  0
  -28.9400  -18.6040   26.2310 C   0  0  0  0  0  0  0  0  0  0  0  0
  -29.4350  -17.8120   27.4290 C   0  0  0  0  0  2  0  0  0  0  0  0
  -30.8800  -17.4800   27.0640 C   0  0  0  0  0  2  0  0  0  0  0  0
  -30.9680  -17.7300   25.5580 C   0  0  0  0  0  2  0  0  0  0  0  0
  -29.8340  -18.5900   25.2200 N   0  0  0  0  0  0  0  0  0  0  0  0
  -27.8340  -19.1560   26.2430 O   0  0  0  0  0  0  0  0  0  0  0  0
  -29.4240  -22.7990   20.1290 C   0  0  0  0  0  0  0  0  0  0  0  0
  -29.4100  -21.3880   20.1200 N   0  0  0  0  0  0  0  0  0  0  0  0
  -30.0750  -23.3790   21.0030 O   0  0  0  0  0  0  0  0  0  0  0  0
  -29.1040  -20.9470   19.2620 H   0  0  0  0  0  0  0  0  0  0  0  0
  -28.7400  -23.7890   19.0540 C   0  0  0  0  0  2  0  0  0  0  0  0
  -28.0410  -25.1850   19.5660 C   0  0  0  0  0  2  0  0  0  0  0  0
  -27.9130  -26.4660   18.7650 O   0  0  0  0  0  0  0  0  0  0  0  0
  -24.6190  -31.4780   22.9190 C   0  0  0  0  0  0  0  0  0  0  0  0
  -26.8230  -27.3360   19.0120 C   0  0  0  0  0  0  0  0  0  0  0  0
  -23.2210  -30.2820   21.2750 C   0  0  0  0  0  3  0  0  0  0  0  0
  -24.4830  -28.9400   19.4930 C   0  0  0  0  0  0  0  0  0  0  0  0
  -25.7220  -30.6480   20.8210 C   0  0  0  0  0  2  0  0  0  0  0  0
  -25.7220  -29.3590   19.9970 C   0  0  0  0  0  0  0  0  0  0  0  0
  -26.8950  -28.5750   19.7390 C   0  0  0  0  0  3  0  0  0  0  0  0
  -25.5600  -26.9880   18.4910 C   0  0  0  0  0  3  0  0  0  0  0  0
  -24.4060  -27.7650   18.7280 C   0  0  0  0  0  3  0  0  0  0  0  0
  -23.2640  -29.7890   19.8040 C   0  0  0  0  0  2  0  0  0  0  0  0
  -24.5480  -30.8150   21.7270 N   0  0  0  0  0  0  0  0  0  0  0  0
  -23.6100  -31.6680   23.6150 O   0  0  0  0  0  0  0  0  0  0  0  0
  -22.6800  -29.1430   22.1730 C   0  0  0  0  0  0  0  0  0  0  0  0
  -21.3620  -28.8870   22.1020 N   0  0  0  0  0  0  0  0  0  0  0  0
  -23.4430  -28.4960   22.8940 O   0  0  0  0  0  0  0  0  0  0  0  0
  -20.7990  -29.4680   21.4960 H   0  0  0  0  0  0  0  0  0  0  0  0
  -18.1220  -27.3490   22.5910 C   0  0  0  0  0  0  0  0  0  0  0  0
  -20.6520  -27.8300   22.8250 C   0  0  0  0  0  3  0  0  0  0  0  0
  -20.8700  -26.4540   22.1550 C   0  0  0  0  0  2  0  0  0  0  0  0
  -19.7750  -26.0950   21.1440 C   0  0  0  0  0  2  0  0  0  0  0  0
  -18.4030  -26.0680   21.8240 C   0  0  0  0  0  2  0  0  0  0  0  0
  -19.1760  -28.1840   23.0480 C   0  0  0  0  0  0  0  0  0  0  0  0
  -18.8580  -29.3800   23.7280 C   0  0  0  0  0  3  0  0  0  0  0  0
  -17.5170  -29.7450   23.9530 C   0  0  0  0  0  3  0  0  0  0  0  0
  -16.4780  -28.9080   23.5120 C   0  0  0  0  0  3  0  0  0  0  0  0
  -16.7810  -27.7120   22.8370 C   0  0  0  0  0  3  0  0  0  0  0  0
  -25.9680  -32.0480   23.4560 C   0  0  0  0  0  3  0  0  0  0  0  0
  -25.7040  -33.3940   23.9870 N   0  0  0  0  0  0  0  0  0  0  0  0
  -26.0560  -34.5360   23.3790 C   0  0  0  0  0  0  0  0  0  0  0  0
  -26.7070  -34.5610   22.3310 O   0  0  0  0  0  0  0  0  0  0  0  0
  -25.1260  -33.4490   24.8120 H   0  0  0  0  0  0  0  0  0  0  0  0
  -24.4430  -36.4620   23.2570 C   0  0  0  0  0  1  0  0  0  0  0  0
  -25.6200  -35.8580   24.0400 C   0  0  0  0  0  3  0  0  0  0  0  0
  -27.7490  -36.4740   25.0980 C   0  0  0  0  0  1  0  0  0  0  0  0
  -26.7100  -36.8530   24.1430 N   0  0  0  0  0  0  0  0  0  0  0  0
  -26.3440  -37.7620   24.4150 H   0  0  0  0  0  0  0  0  0  0  0  0
  -26.6290  -31.1380   24.5630 C   0  0  1  0  0  0  0  0  0  0  0  0
  -25.6690  -30.7620   25.7170 C   0  0  0  0  0  1  0  0  0  0  0  0
  -27.1590  -29.8220   23.9460 C   0  0  0  0  0  1  0  0  0  0  0  0
  -27.8520  -31.8620   25.1760 C   0  0  0  0  0  1  0  0  0  0  0  0
  -31.2120  -18.2490   20.5430 C   0  0  0  0  0  2  0  0  0  0  0  0
  -31.6470  -15.5690   20.4240 C   0  0  0  0  0  0  0  0  0  0  0  0
  -31.3590  -13.2990   19.4070 C   0  0  0  0  0  2  0  0  0  0  0  0
  -30.4530  -13.4180   18.1610 C   0  0  0  0  0  2  0  0  0  0  0  0
  -28.9660  -13.3230   18.5560 C   0  0  0  0  0  2  0  0  0  0  0  0
  -28.6120  -14.2320   19.7630 C   0  0  0  0  0  3  0  0  0  0  0  0
  -29.6360  -14.0880   20.9100 C   0  0  0  0  0  2  0  0  0  0  0  0
  -30.9650  -14.3730   20.3470 N   0  0  0  0  0  0  0  0  0  0  0  0
  -32.8490  -15.6090   20.1520 O   0  0  0  0  0  0  0  0  0  0  0  0
  -30.9000  -16.7290   20.5900 N   0  0  0  0  0  0  0  0  0  0  0  0
  -29.9210  -16.5350   20.7280 H   0  0  0  0  0  0  0  0  0  0  0  0
  -26.2770  -14.9690   20.5270 C   0  0  0  0  0  0  0  0  0  0  0  0
  -25.1390  -14.2650   20.8150 C   0  0  0  0  0  0  0  0  0  0  0  0
  -25.4790  -12.8860   20.6610 C   0  0  0  0  0  0  0  0  0  0  0  0
  -27.2400  -14.0230   20.2170 N   0  0  0  0  0  0  0  0  0  0  0  0
  -26.7660  -12.7590   20.3610 N   0  0  0  0  0  0  0  0  0  0  0  0
  -24.6390  -11.6820   20.7250 C   0  0  0  0  0  0  0  0  0  0  0  0
  -24.9900  -10.5780   21.5330 C   0  0  0  0  0  3  0  0  0  0  0  0
  -24.1550   -9.4410   21.5940 C   0  0  0  0  0  3  0  0  0  0  0  0
  -22.9550   -9.4020   20.8440 C   0  0  0  0  0  0  0  0  0  0  0  0
  -22.6230  -10.4930   20.0230 C   0  0  0  0  0  3  0  0  0  0  0  0
  -23.4550  -11.6230   19.9610 C   0  0  0  0  0  3  0  0  0  0  0  0
  -22.0950   -8.3300   20.8230 O   0  0  0  0  0  0  0  0  0  0  0  0
  -21.9530   -7.5000   21.9050 C   0  0  0  0  0  0  0  0  0  0  0  0
  -21.5510   -7.9830   23.1700 C   0  0  0  0  0  3  0  0  0  0  0  0
  -21.3470   -7.0850   24.2360 C   0  0  0  0  0  3  0  0  0  0  0  0
  -21.5360   -5.7040   24.0390 C   0  0  0  0  0  0  0  0  0  0  0  0
  -21.9320   -5.2190   22.7790 C   0  0  0  0  0  3  0  0  0  0  0  0
  -22.1350   -6.1140   21.7150 C   0  0  0  0  0  0  0  0  0  0  0  0
  -22.4940   -5.6400   20.4980 F   0  0  0  0  0  0  0  0  0  0  0  0
  -21.3340   -4.8400   25.0590 F   0  0  0  0  0  0  0  0  0  0  0  0
  -23.7860  -14.8390   21.1170 C   0  0  0  0  0  0  0  0  0  0  0  0
  -22.9930  -14.1470   21.9270 N   0  0  0  0  0  0  0  0  0  0  0  0
  -23.4440  -15.9340   20.6730 O   0  0  0  0  0  0  0  0  0  0  0  0
  -23.2820  -13.2570   22.3070 H   0  0  0  0  0  0  0  0  0  0  0  0
  -22.0810  -14.5100   22.1680 H   0  0  0  0  0  0  0  0  0  0  0  0
  -26.5660  -16.3290   20.4780 N   0  0  0  0  0  0  0  0  0  0  0  0
  -25.8580  -17.0360   20.6420 H   0  0  0  0  0  0  0  0  0  0  0  0
  -27.4460  -16.7210   20.1720 H   0  0  0  0  0  0  0  0  0  0  0  0
  1  5  1  0
  2  1  2  0
  3  5  2  0
  4  3  1  0
  5 11  1  0
  6  4  2  0
  6  2  1  0
  7 12  2  0
  7  8  1  0
  9  8  1  0
 10  9  1  0
 11 10  1  0
 11  7  1  0
 13 15  2  0
 14 13  1  0
 14  6  1  0
 16 14  1  0
 17 18  1  0
 17 13  1  0
 19 21  1  0
 19 18  1  0
 20 31  2  0
 21 26  1  0
 22 30  1  0
 22 32  1  0
 23 29  1  0
 23 25  1  0
 24 30  1  0
 25 24  1  0
 26 25  2  0
 27 28  1  0
 27 21  2  0
 28 23  2  0
 29 22  1  0
 30 20  1  0
 32 34  2  0
 33 32  1  0
 35 33  1  0
 36 45  2  0
 36 41  1  0
 37 33  1  0
 37 41  1  0
 38 37  1  0
 39 40  1  0
 39 38  1  0
 40 36  1  0
 41 42  2  0
 42 43  1  0
 44 43  2  0
 45 44  1  0
 46 20  1  0
 46 47  1  0
 46 56  1  0
 47 50  1  0
 48 47  1  0
 48 52  1  0
 49 48  2  0
 52 51  1  0
 52 54  1  0
 54 55  1  0
 54 53  1  0
 56 59  1  1
 56 57  1  0
 58 56  1  0
 60 69  1  0
 60  4  1  0
 61 69  1  0
 62 67  1  0
 63 64  1  0
 63 62  1  0
 65 64  1  0
 65 74  1  0
 65 66  1  0
 67 61  1  0
 67 66  1  0
 68 61  2  0
 69 70  1  0
 71 72  2  0
 72 91  1  0
 73 76  1  0
 73 72  1  0
 74 75  1  0
 74 71  1  0
 75 73  2  0
 76 77  1  0
 77 78  2  0
 79 78  1  0
 80 79  2  0
 81 80  1  0
 81 76  2  0
 82 79  1  0
 82 83  1  0
 83 84  1  0
 84 85  2  0
 86 85  1  0
 86 90  1  0
 87 86  2  0
 88 83  2  0
 88 87  1  0
 89 88  1  0
 91 92  1  0
 92 95  1  0
 92 94  1  0
 93 91  2  0
 96 71  1  0
 96 97  1  0
 98 96  1  0
M  ISO  4  18 101  19 101  61 100  69 100
M  END
>  <TORSDO>  (75) 
F 21

>  <SCORE>  (75) 
13.474

>  <name>  (75) 
74

>  <ligand_id>  (75) 
74

>  <original_smiles>  (75) 
[H]c1c([H])c([H])c2c(c1[H])C([H])([H])C([H])([H])C([H])([H])C2([H])N([H])C(=O)C1([H])N(C(=O)C([H])(N([H])C(=O)C([H])(N([H])C([H])([H])[H])C([H])([H])[H])C(C([H])([H])[H])(C([H])([H])[H])C([H])([H])[H])C([H])([H])c2c([H])c(OC([H])([H])C([H])([H])C(=O)N([H])c3c([H])c([H])c(N4C(=O)C([H])([H])C([H])([H])C4([H])[H])c([H])c3C([H])([H])N([H])C(=O)N3C([H])([H])C([H])([H])C([H])([H])C([H])(n4nc(-c5c([H])c([H])c(Oc6c([H])c([H])c(F)c([H])c6F)c([H])c5[H])c(C(=O)N([H])[H])c4N([H])[H])C3([H])[H])c([H])c([H])c2C1([H])[H]

>  <smiles>  (75) 
[H]c1c([H])c([H])c2c(c1[H])C([H])([H])C([H])([H])C([H])([H])C2([H])N([H])C(=O)C1([H])N(C(=O)C([H])(N([H])C(=O)C([H])(N([H])C([H])([H])[H])C([H])([H])[H])C(C([H])([H])[H])(C([H])([H])[H])C([H])([H])[H])C([H])([H])c2c([H])c(OC([H])([H])C([H])([H])C(=O)N([H])c3c([H])c([H])c(N4C(=O)C([H])([H])C([H])([H])C4([H])[H])c([H])c3C([H])([H])N([H])C(=O)N3C([H])([H])C([H])([H])C([H])([H])C([H])(n4nc(-c5c([H])c([H])c(Oc6c([H])c([H])c(F)c([H])c6F)c([H])c5[H])c(C(=O)N([H])[H])c4N([H])[H])C3([H])[H])c([H])c([H])c2C1([H])[H]

$$$$
75:0:0
     RDKit          3D

 96104  0  0  1  0  0  0  0  0999 V2000
  -30.9370  -17.6890   18.4810 C   0  0  0  0  0  3  0  0  0  0  0  0
  -29.1820  -17.7860   20.1270 C   0  0  0  0  0  0  0  0  0  0  0  0
  -28.8210  -19.1180   19.6990 C   0  0  0  0  0  0  0  0  0  0  0  0
  -30.1880  -17.0160   19.4730 C   0  0  0  0  0  0  0  0  0  0  0  0
  -30.6760  -19.0520   18.1590 C   0  0  0  0  0  0  0  0  0  0  0  0
  -29.6430  -19.8270   18.7650 C   0  0  0  0  0  0  0  0  0  0  0  0
  -28.5290  -17.1580   21.3470 C   0  0  0  0  0  1  0  0  0  0  0  0
  -31.0150  -14.5560   19.2330 C   0  0  0  0  0  0  0  0  0  0  0  0
  -30.6850  -12.2830   18.2960 C   0  0  0  0  0  2  0  0  0  0  0  0
  -29.5860  -12.4020   17.2150 C   0  0  0  0  0  2  0  0  0  0  0  0
  -28.1770  -12.2920   17.8330 C   0  0  0  0  0  2  0  0  0  0  0  0
  -28.0080  -13.1820   19.0900 C   0  0  0  0  0  3  0  0  0  0  0  0
  -29.2010  -13.0070   20.0590 C   0  0  0  0  0  2  0  0  0  0  0  0
  -30.4270  -13.3210   19.3090 N   0  0  0  0  0  0  0  0  0  0  0  0
  -32.0870  -14.7240   18.6430 O   0  0  0  0  0  0  0  0  0  0  0  0
  -30.2860  -15.5830   19.7560 N   0  0  0  0  0  0  0  0  0  0  0  0
  -29.5560  -15.2530   20.3680 H   0  0  0  0  0  0  0  0  0  0  0  0
  -25.7830  -13.8720   20.1780 C   0  0  0  0  0  0  0  0  0  0  0  0
  -24.7320  -13.1410   20.6560 C   0  0  0  0  0  0  0  0  0  0  0  0
  -25.0930  -11.7700   20.4820 C   0  0  0  0  0  0  0  0  0  0  0  0
  -26.7250  -12.9510   19.7470 N   0  0  0  0  0  0  0  0  0  0  0  0
  -26.3210  -11.6770   19.9860 N   0  0  0  0  0  0  0  0  0  0  0  0
  -24.3210  -10.5420   20.7080 C   0  0  0  0  0  0  0  0  0  0  0  0
  -24.8020   -9.5130   21.5480 C   0  0  0  0  0  3  0  0  0  0  0  0
  -24.0340   -8.3490   21.7630 C   0  0  0  0  0  3  0  0  0  0  0  0
  -22.7710   -8.2050   21.1410 C   0  0  0  0  0  0  0  0  0  0  0  0
  -22.3080   -9.2230   20.2850 C   0  0  0  0  0  3  0  0  0  0  0  0
  -23.0760  -10.3800   20.0700 C   0  0  0  0  0  3  0  0  0  0  0  0
  -21.9670   -7.0990   21.2720 O   0  0  0  0  0  0  0  0  0  0  0  0
  -21.9850   -6.3280   22.4070 C   0  0  0  0  0  0  0  0  0  0  0  0
  -21.6850   -6.8620   23.6790 C   0  0  0  0  0  3  0  0  0  0  0  0
  -21.6470   -6.0170   24.8050 C   0  0  0  0  0  3  0  0  0  0  0  0
  -21.9010   -4.6400   24.6620 C   0  0  0  0  0  0  0  0  0  0  0  0
  -22.1950   -4.1050   23.3950 C   0  0  0  0  0  3  0  0  0  0  0  0
  -22.2350   -4.9460   22.2710 C   0  0  0  0  0  0  0  0  0  0  0  0
  -22.4980   -4.4230   21.0490 F   0  0  0  0  0  0  0  0  0  0  0  0
  -21.8570   -3.8270   25.7440 F   0  0  0  0  0  0  0  0  0  0  0  0
  -23.4200  -13.6770   21.1560 C   0  0  0  0  0  0  0  0  0  0  0  0
  -22.7910  -12.9790   22.0920 N   0  0  0  0  0  0  0  0  0  0  0  0
  -22.9750  -14.7510   20.7510 O   0  0  0  0  0  0  0  0  0  0  0  0
  -23.1690  -12.1090   22.4370 H   0  0  0  0  0  0  0  0  0  0  0  0
  -21.9190  -13.3170   22.4710 H   0  0  0  0  0  0  0  0  0  0  0  0
  -26.0120  -15.2390   20.0550 N   0  0  0  0  0  0  0  0  0  0  0  0
  -25.3230  -15.9270   20.3340 H   0  0  0  0  0  0  0  0  0  0  0  0
  -26.8380  -15.6530   19.6450 H   0  0  0  0  0  0  0  0  0  0  0  0
  -31.4110  -19.6320   17.1320 N   0  0  0  0  0  0  0  0  0  0  0  0
  -31.5690  -19.0070   16.3460 H   0  0  0  0  0  0  0  0  0  0  0  0
  -31.0230  -20.5220   16.8290 H   0  0  0  0  0  0  0  0  0  0  0  0
  -27.4920  -19.7430   20.1480 C   0  0  0  0  0  2  0  0  0  0  0  0
  -26.3350  -18.9550   19.9250 O   0  0  0  0  0  0  0  0  0  0  0  0
  -25.5770  -19.4940   20.1220 H   0  0  0  0  0  0  0  0  0  0  0  0
  -29.4940  -21.1640   18.2930 O   0  0  0  0  0  0  0  0  0  0  0  0
  -28.9760  -22.3140   19.0560 C   0  0  0  0  0  3  0  0  0  0  0  0
  -28.8890  -23.6940   18.2580 C   0  0  0  0  0  3  0  0  0  0  0  0
  -28.3360  -24.9840   19.0170 C   0  0  0  0  0  2  0  0  0  0  0  0
  -28.2610  -26.2850   18.3160 O   0  0  0  0  0  0  0  0  0  0  0  0
  -24.9060  -31.0180   22.6180 C   0  0  0  0  0  0  0  0  0  0  0  0
  -27.1580  -27.1050   18.5650 C   0  0  0  0  0  0  0  0  0  0  0  0
  -23.5360  -29.9440   20.8690 C   0  0  0  0  0  3  0  0  0  0  0  0
  -24.8250  -28.6740   19.0600 C   0  0  0  0  0  0  0  0  0  0  0  0
  -26.0520  -30.2980   20.5060 C   0  0  0  0  0  2  0  0  0  0  0  0
  -26.0500  -29.0560   19.6230 C   0  0  0  0  0  0  0  0  0  0  0  0
  -27.2210  -28.2870   19.3610 C   0  0  0  0  0  3  0  0  0  0  0  0
  -25.9110  -26.7700   17.9920 C   0  0  0  0  0  3  0  0  0  0  0  0
  -24.7560  -27.5400   18.2350 C   0  0  0  0  0  3  0  0  0  0  0  0
  -23.6130  -29.5300   19.3760 C   0  0  0  0  0  2  0  0  0  0  0  0
  -24.8580  -30.4260   21.3900 N   0  0  0  0  0  0  0  0  0  0  0  0
  -23.8790  -31.1930   23.2910 O   0  0  0  0  0  0  0  0  0  0  0  0
  -22.9470  -28.7690   21.6840 C   0  0  0  0  0  0  0  0  0  0  0  0
  -21.6130  -28.6070   21.6370 N   0  0  0  0  0  0  0  0  0  0  0  0
  -23.6850  -28.0110   22.3170 O   0  0  0  0  0  0  0  0  0  0  0  0
  -21.0710  -29.2780   21.1120 H   0  0  0  0  0  0  0  0  0  0  0  0
  -18.2800  -27.3060   22.1640 C   0  0  0  0  0  0  0  0  0  0  0  0
  -20.8520  -27.5400   22.2900 C   0  0  0  0  0  3  0  0  0  0  0  0
  -20.9080  -26.2270   21.4720 C   0  0  0  0  0  2  0  0  0  0  0  0
  -19.7350  -26.0720   20.5010 C   0  0  0  0  0  2  0  0  0  0  0  0
  -18.4040  -26.0960   21.2560 C   0  0  0  0  0  2  0  0  0  0  0  0
  -19.4290  -27.9950   22.6380 C   0  0  0  0  0  0  0  0  0  0  0  0
  -19.2560  -29.1380   23.4470 C   0  0  0  0  0  3  0  0  0  0  0  0
  -17.9680  -29.5880   23.7910 C   0  0  0  0  0  3  0  0  0  0  0  0
  -16.8350  -28.8960   23.3310 C   0  0  0  0  0  3  0  0  0  0  0  0
  -16.9920  -27.7570   22.5210 C   0  0  0  0  0  3  0  0  0  0  0  0
  -26.2480  -31.5260   23.2290 C   0  0  0  0  0  3  0  0  0  0  0  0
  -25.9770  -32.8060   23.9000 N   0  0  0  0  0  0  0  0  0  0  0  0
  -26.2840  -34.0100   23.3980 C   0  0  0  0  0  0  0  0  0  0  0  0
  -26.8980  -34.1520   22.3350 O   0  0  0  0  0  0  0  0  0  0  0  0
  -25.4370  -32.7670   24.7510 H   0  0  0  0  0  0  0  0  0  0  0  0
  -24.5850  -35.8540   23.5610 C   0  0  0  0  0  1  0  0  0  0  0  0
  -25.8460  -35.2500   24.1980 C   0  0  0  0  0  3  0  0  0  0  0  0
  -28.0320  -35.8850   25.1240 C   0  0  0  0  0  1  0  0  0  0  0  0
  -26.8960  -36.2870   24.3000 N   0  0  0  0  0  0  0  0  0  0  0  0
  -26.5140  -37.1470   24.6790 H   0  0  0  0  0  0  0  0  0  0  0  0
  -26.9000  -30.4990   24.2350 C   0  0  1  0  0  0  0  0  0  0  0  0
  -25.9370  -30.0100   25.3420 C   0  0  0  0  0  1  0  0  0  0  0  0
  -27.4240  -29.2590   23.4750 C   0  0  0  0  0  1  0  0  0  0  0  0
  -28.1210  -31.1490   24.9270 C   0  0  0  0  0  1  0  0  0  0  0  0
  1  4  1  0
  2  7  1  0
  3  2  1  0
  3 49  1  0
  4 16  1  0
  4  2  2  0
  5  1  2  0
  5  6  1  0
  6  3  2  0
  8 14  1  0
  8 16  1  0
  9 14  1  0
 10 11  1  0
 10  9  1  0
 12 11  1  0
 12 21  1  0
 12 13  1  0
 14 13  1  0
 15  8  2  0
 16 17  1  0
 18 19  2  0
 19 38  1  0
 20 19  1  0
 20 23  1  0
 21 22  1  0
 21 18  1  0
 22 20  2  0
 23 24  1  0
 24 25  2  0
 26 29  1  0
 26 25  1  0
 27 26  2  0
 28 27  1  0
 28 23  2  0
 29 30  1  0
 30 31  1  0
 31 32  2  0
 33 32  1  0
 33 37  1  0
 34 33  2  0
 35 30  2  0
 35 34  1  0
 36 35  1  0
 38 39  1  0
 39 41  1  0
 39 42  1  0
 40 38  2  0
 43 18  1  0
 43 44  1  0
 45 43  1  0
 46  5  1  0
 47 46  1  0
 48 46  1  0
 50 51  1  0
 50 49  1  0
 52  6  1  0
 52 53  1  0
 54 55  1  0
 54 53  2  0
 56 58  1  0
 56 55  1  0
 57 68  2  0
 58 63  1  0
 59 67  1  0
 59 69  1  0
 60 66  1  0
 60 62  1  0
 61 67  1  0
 62 61  1  0
 63 62  2  0
 64 65  1  0
 64 58  2  0
 65 60  2  0
 66 59  1  0
 67 57  1  0
 69 71  2  0
 70 69  1  0
 72 70  1  0
 73 82  2  0
 73 78  1  0
 74 70  1  0
 74 78  1  0
 75 74  1  0
 76 77  1  0
 76 75  1  0
 77 73  1  0
 78 79  2  0
 79 80  1  0
 81 80  2  0
 82 81  1  0
 83 57  1  0
 83 84  1  0
 83 93  1  0
 84 87  1  0
 85 84  1  0
 85 89  1  0
 86 85  2  0
 89 88  1  0
 89 91  1  0
 91 92  1  0
 91 90  1  0
 93 96  1  1
 93 94  1  0
 95 93  1  0
M  ISO  4   8 100  16 100  55 101  56 101
M  END
>  <TORSDO>  (76) 
F 23

>  <SCORE>  (76) 
-8.585

>  <name>  (76) 
75

>  <ligand_id>  (76) 
75

>  <original_smiles>  (76) 
[H]OC([H])([H])c1c(OC([H])([H])C([H])([H])C([H])([H])Oc2c([H])c([H])c3c(c2[H])C([H])([H])N(C(=O)C([H])(N([H])C(=O)C([H])(N([H])C([H])([H])[H])C([H])([H])[H])C(C([H])([H])[H])(C([H])([H])[H])C([H])([H])[H])C([H])(C(=O)N([H])C2([H])c4c([H])c([H])c([H])c([H])c4C([H])([H])C([H])([H])C2([H])[H])C3([H])[H])c(N([H])[H])c([H])c(N([H])C(=O)N2C([H])([H])C([H])([H])C([H])([H])C([H])(n3nc(-c4c([H])c([H])c(Oc5c([H])c([H])c(F)c([H])c5F)c([H])c4[H])c(C(=O)N([H])[H])c3N([H])[H])C2([H])[H])c1C([H])([H])[H]

>  <smiles>  (76) 
[H]OC([H])([H])c1c(OC([H])([H])C([H])([H])C([H])([H])Oc2c([H])c([H])c3c(c2[H])C([H])([H])N(C(=O)C([H])(N([H])C(=O)C([H])(N([H])C([H])([H])[H])C([H])([H])[H])C(C([H])([H])[H])(C([H])([H])[H])C([H])([H])[H])C([H])(C(=O)N([H])C2([H])c4c([H])c([H])c([H])c([H])c4C([H])([H])C([H])([H])C2([H])[H])C3([H])[H])c(N([H])[H])c([H])c(N([H])C(=O)N2C([H])([H])C([H])([H])C([H])([H])C([H])(n3nc(-c4c([H])c([H])c(Oc5c([H])c([H])c(F)c([H])c5F)c([H])c4[H])c(C(=O)N([H])[H])c3N([H])[H])C2([H])[H])c1C([H])([H])[H]

$$$$
76:0:0
     RDKit          3D

 97105  0  0  1  0  0  0  0  0999 V2000
  -31.7020  -20.6320   18.8540 C   0  0  0  0  0  3  0  0  0  0  0  0
  -31.0310  -21.7200   19.4290 C   0  0  0  0  0  3  0  0  0  0  0  0
  -31.1990  -19.3240   18.9860 C   0  0  0  0  0  0  0  0  0  0  0  0
  -29.9900  -19.1030   19.7010 C   0  0  0  0  0  0  0  0  0  0  0  0
  -29.7800  -21.5340   20.0540 C   0  0  0  0  0  0  0  0  0  0  0  0
  -29.2390  -20.2310   20.1230 C   0  0  0  0  0  0  0  0  0  0  0  0
  -32.0020  -18.2090   18.3420 C   0  0  0  0  0  1  0  0  0  0  0  0
  -29.4560  -17.6900   20.0060 C   0  0  0  0  0  2  0  0  0  0  0  0
  -30.8550  -14.4500   20.4730 C   0  0  0  0  0  0  0  0  0  0  0  0
  -30.5330  -12.2790   19.3670 C   0  0  0  0  0  2  0  0  0  0  0  0
  -29.6270  -12.4940   18.1400 C   0  0  0  0  0  2  0  0  0  0  0  0
  -28.1390  -12.3810   18.5350 C   0  0  0  0  0  2  0  0  0  0  0  0
  -27.7840  -13.2370   19.7830 C   0  0  0  0  0  3  0  0  0  0  0  0
  -28.8220  -13.0230   20.9110 C   0  0  0  0  0  2  0  0  0  0  0  0
  -30.1620  -13.2850   20.3660 N   0  0  0  0  0  0  0  0  0  0  0  0
  -32.0080  -14.5780   20.0540 O   0  0  0  0  0  0  0  0  0  0  0  0
  -30.4450  -16.7820   20.7660 C   0  0  0  0  0  0  0  0  0  0  0  0
  -30.0920  -15.4910   20.8360 N   0  0  0  0  0  0  0  0  0  0  0  0
  -31.4960  -17.2240   21.2420 O   0  0  0  0  0  0  0  0  0  0  0  0
  -29.1090  -15.2870   20.8840 H   0  0  0  0  0  0  0  0  0  0  0  0
  -25.3840  -13.8790   20.4720 C   0  0  0  0  0  0  0  0  0  0  0  0
  -24.3040  -13.1180   20.8320 C   0  0  0  0  0  0  0  0  0  0  0  0
  -24.7480  -11.7610   20.8020 C   0  0  0  0  0  0  0  0  0  0  0  0
  -26.4190  -12.9820   20.2470 N   0  0  0  0  0  0  0  0  0  0  0  0
  -26.0390  -11.7060   20.5110 N   0  0  0  0  0  0  0  0  0  0  0  0
  -24.0040  -10.5060   20.9830 C   0  0  0  0  0  0  0  0  0  0  0  0
  -24.4050   -9.5380   21.9300 C   0  0  0  0  0  3  0  0  0  0  0  0
  -23.6580   -8.3520   22.1010 C   0  0  0  0  0  3  0  0  0  0  0  0
  -22.4960   -8.1240   21.3230 C   0  0  0  0  0  0  0  0  0  0  0  0
  -22.1150   -9.0830   20.3650 C   0  0  0  0  0  3  0  0  0  0  0  0
  -22.8620  -10.2590   20.1940 C   0  0  0  0  0  3  0  0  0  0  0  0
  -21.7250   -6.9880   21.3960 O   0  0  0  0  0  0  0  0  0  0  0  0
  -21.6330   -6.2580   22.5550 C   0  0  0  0  0  0  0  0  0  0  0  0
  -21.1640   -6.8260   23.7590 C   0  0  0  0  0  3  0  0  0  0  0  0
  -21.0220   -6.0210   24.9060 C   0  0  0  0  0  3  0  0  0  0  0  0
  -21.3420   -4.6510   24.8510 C   0  0  0  0  0  0  0  0  0  0  0  0
  -21.8010   -4.0840   23.6510 C   0  0  0  0  0  3  0  0  0  0  0  0
  -21.9460   -4.8870   22.5030 C   0  0  0  0  0  0  0  0  0  0  0  0
  -22.3700   -4.3330   21.3430 F   0  0  0  0  0  0  0  0  0  0  0  0
  -21.1950   -3.8760   25.9500 F   0  0  0  0  0  0  0  0  0  0  0  0
  -22.9100  -13.6100   21.0900 C   0  0  0  0  0  0  0  0  0  0  0  0
  -22.1680  -12.9280   21.9570 N   0  0  0  0  0  0  0  0  0  0  0  0
  -22.4860  -14.6360   20.5560 O   0  0  0  0  0  0  0  0  0  0  0  0
  -22.5220  -12.1020   22.4190 H   0  0  0  0  0  0  0  0  0  0  0  0
  -21.2340  -13.2440   22.1740 H   0  0  0  0  0  0  0  0  0  0  0  0
  -25.5680  -15.2470   20.2890 N   0  0  0  0  0  0  0  0  0  0  0  0
  -24.7990  -15.9050   20.3580 H   0  0  0  0  0  0  0  0  0  0  0  0
  -26.4000  -15.6640   19.8940 H   0  0  0  0  0  0  0  0  0  0  0  0
  -29.0160  -22.5590   20.5800 O   0  0  0  0  0  0  0  0  0  0  0  0
  -29.6760  -23.7600   20.9780 C   0  0  0  0  0  2  0  0  0  0  0  0
  -29.7810  -24.7890   19.8290 C   0  0  0  0  0  2  0  0  0  0  0  0
  -28.4650  -25.4950   19.4910 C   0  0  0  0  0  2  0  0  0  0  0  0
  -28.4410  -26.7940   20.0730 O   0  0  0  0  0  0  0  0  0  0  0  0
  -24.6240  -31.8410   23.2690 C   0  0  0  0  0  0  0  0  0  0  0  0
  -27.2490  -27.4840   20.0650 C   0  0  0  0  0  0  0  0  0  0  0  0
  -23.4070  -30.4730   21.6020 C   0  0  0  0  0  3  0  0  0  0  0  0
  -24.8510  -28.9750   20.1340 C   0  0  0  0  0  0  0  0  0  0  0  0
  -25.9310  -30.8400   21.3980 C   0  0  0  0  0  2  0  0  0  0  0  0
  -26.0110  -29.4850   20.7290 C   0  0  0  0  0  0  0  0  0  0  0  0
  -27.2100  -28.7450   20.6950 C   0  0  0  0  0  3  0  0  0  0  0  0
  -26.0670  -26.9810   19.4700 C   0  0  0  0  0  3  0  0  0  0  0  0
  -24.8730  -27.7190   19.5050 C   0  0  0  0  0  3  0  0  0  0  0  0
  -23.6080  -29.8270   20.2060 C   0  0  0  0  0  2  0  0  0  0  0  0
  -24.6720  -31.0660   22.1480 N   0  0  0  0  0  0  0  0  0  0  0  0
  -23.5460  -32.1020   23.8200 O   0  0  0  0  0  0  0  0  0  0  0  0
  -22.7660  -29.4300   22.5460 C   0  0  0  0  0  0  0  0  0  0  0  0
  -21.4410  -29.2430   22.4140 N   0  0  0  0  0  0  0  0  0  0  0  0
  -23.4540  -28.7960   23.3500 O   0  0  0  0  0  0  0  0  0  0  0  0
  -20.9530  -29.8120   21.7370 H   0  0  0  0  0  0  0  0  0  0  0  0
  -18.0720  -28.0140   22.8730 C   0  0  0  0  0  0  0  0  0  0  0  0
  -20.6270  -28.2840   23.1630 C   0  0  0  0  0  3  0  0  0  0  0  0
  -20.7430  -26.8660   22.5580 C   0  0  0  0  0  2  0  0  0  0  0  0
  -19.6460  -26.5550   21.5360 C   0  0  0  0  0  2  0  0  0  0  0  0
  -18.2620  -26.6780   22.1760 C   0  0  0  0  0  2  0  0  0  0  0  0
  -19.1840  -28.7750   23.3220 C   0  0  0  0  0  0  0  0  0  0  0  0
  -18.9560  -30.0270   23.9350 C   0  0  0  0  0  3  0  0  0  0  0  0
  -17.6470  -30.5150   24.1060 C   0  0  0  0  0  3  0  0  0  0  0  0
  -16.5500  -29.7500   23.6740 C   0  0  0  0  0  3  0  0  0  0  0  0
  -16.7620  -28.5020   23.0610 C   0  0  0  0  0  3  0  0  0  0  0  0
  -25.9140  -32.4530   23.8980 C   0  0  0  0  0  3  0  0  0  0  0  0
  -25.6250  -33.8600   24.2110 N   0  0  0  0  0  0  0  0  0  0  0  0
  -25.9950  -34.8980   23.4510 C   0  0  0  0  0  0  0  0  0  0  0  0
  -26.6850  -34.7740   22.4350 O   0  0  0  0  0  0  0  0  0  0  0  0
  -25.0090  -34.0300   24.9920 H   0  0  0  0  0  0  0  0  0  0  0  0
  -24.3150  -36.7240   23.0320 C   0  0  0  0  0  1  0  0  0  0  0  0
  -25.5200  -36.2990   23.8860 C   0  0  0  0  0  3  0  0  0  0  0  0
  -27.6460  -37.1390   24.7840 C   0  0  0  0  0  1  0  0  0  0  0  0
  -26.5770  -37.3300   23.8060 N   0  0  0  0  0  0  0  0  0  0  0  0
  -26.1850  -38.2590   23.9410 H   0  0  0  0  0  0  0  0  0  0  0  0
  -26.4080  -31.6830   25.1860 C   0  0  1  0  0  0  0  0  0  0  0  0
  -25.3010  -31.4730   26.2440 C   0  0  0  0  0  1  0  0  0  0  0  0
  -26.9730  -30.2930   24.8090 C   0  0  0  0  0  1  0  0  0  0  0  0
  -27.5680  -32.4630   25.8490 C   0  0  0  0  0  1  0  0  0  0  0  0
  -27.9510  -20.0890   20.5740 O   0  0  0  0  0  0  0  0  0  0  0  0
  -27.0210  -19.8120   19.5220 C   0  0  0  0  0  2  0  0  0  0  0  0
  -25.8040  -20.7370   17.4620 C   0  0  0  0  0  1  0  0  0  0  0  0
  -26.7590  -21.0370   18.6230 C   0  0  0  0  0  2  0  0  0  0  0  0
  1  3  2  0
  1  2  1  0
  2  5  2  0
  3  4  1  0
  4  8  1  0
  4  6  2  0
  5  6  1  0
  5 49  1  0
  6 94  1  0
  7  3  1  0
  8 17  1  0
  9 18  1  0
 10 15  1  0
 11 12  1  0
 11 10  1  0
 13 12  1  0
 13 24  1  0
 13 14  1  0
 15  9  1  0
 15 14  1  0
 16  9  2  0
 17 18  1  0
 17 19  2  0
 18 20  1  0
 21 22  2  0
 22 41  1  0
 23 22  1  0
 23 26  1  0
 24 21  1  0
 24 25  1  0
 25 23  2  0
 26 27  1  0
 27 28  2  0
 29 32  1  0
 29 28  1  0
 30 29  2  0
 31 30  1  0
 31 26  2  0
 32 33  1  0
 33 34  1  0
 34 35  2  0
 36 35  1  0
 36 40  1  0
 37 36  2  0
 38 33  2  0
 38 37  1  0
 39 38  1  0
 41 42  1  0
 42 45  1  0
 42 44  1  0
 43 41  2  0
 46 47  1  0
 46 21  1  0
 48 46  1  0
 49 50  1  0
 51 50  1  0
 52 51  1  0
 52 53  1  0
 54 65  2  0
 55 53  1  0
 55 60  1  0
 56 64  1  0
 56 66  1  0
 57 63  1  0
 57 59  1  0
 58 64  1  0
 59 58  1  0
 60 59  2  0
 61 62  1  0
 61 55  2  0
 62 57  2  0
 63 56  1  0
 64 54  1  0
 66 68  2  0
 67 66  1  0
 69 67  1  0
 70 79  2  0
 70 75  1  0
 71 67  1  0
 71 75  1  0
 72 71  1  0
 73 74  1  0
 73 72  1  0
 74 70  1  0
 75 76  2  0
 76 77  1  0
 78 77  2  0
 79 78  1  0
 80 54  1  0
 80 81  1  0
 80 90  1  0
 81 84  1  0
 82 86  1  0
 82 81  1  0
 83 82  2  0
 86 85  1  0
 88 86  1  0
 88 89  1  0
 88 87  1  0
 90 93  1  1
 90 91  1  0
 92 90  1  0
 95 94  1  0
 96 97  1  0
 97 95  1  0
M  ISO  4   9 100  18 100  52 101  53 101
M  END
>  <TORSDO>  (77) 
F 24

>  <SCORE>  (77) 
-12.549

>  <name>  (77) 
76

>  <ligand_id>  (77) 
76

>  <original_smiles>  (77) 
[H]c1c([H])c([H])c2c(c1[H])C([H])([H])C([H])([H])C([H])([H])C2([H])N([H])C(=O)C1([H])N(C(=O)C([H])(N([H])C(=O)C([H])(N([H])C([H])([H])[H])C([H])([H])[H])C(C([H])([H])[H])(C([H])([H])[H])C([H])([H])[H])C([H])([H])c2c([H])c(OC([H])([H])C([H])([H])C([H])([H])Oc3c([H])c([H])c(C([H])([H])[H])c(C([H])([H])C(=O)N([H])C(=O)N4C([H])([H])C([H])([H])C([H])([H])C([H])(n5nc(-c6c([H])c([H])c(Oc7c([H])c([H])c(F)c([H])c7F)c([H])c6[H])c(C(=O)N([H])[H])c5N([H])[H])C4([H])[H])c3OC([H])([H])C([H])([H])C([H])([H])[H])c([H])c([H])c2C1([H])[H]

>  <smiles>  (77) 
[H]c1c([H])c([H])c2c(c1[H])C([H])([H])C([H])([H])C([H])([H])C2([H])N([H])C(=O)C1([H])N(C(=O)C([H])(N([H])C(=O)C([H])(N([H])C([H])([H])[H])C([H])([H])[H])C(C([H])([H])[H])(C([H])([H])[H])C([H])([H])[H])C([H])([H])c2c([H])c(OC([H])([H])C([H])([H])C([H])([H])Oc3c([H])c([H])c(C([H])([H])[H])c(C([H])([H])C(=O)N([H])C(=O)N4C([H])([H])C([H])([H])C([H])([H])C([H])(n5nc(-c6c([H])c([H])c(Oc7c([H])c([H])c(F)c([H])c7F)c([H])c6[H])c(C(=O)N([H])[H])c5N([H])[H])C4([H])[H])c3OC([H])([H])C([H])([H])C([H])([H])[H])c([H])c([H])c2C1([H])[H]

$$$$
77:0:0
     RDKit          3D

 98107  0  0  1  0  0  0  0  0999 V2000
  -29.3400  -24.0880   20.1060 C   0  0  0  0  0  0  0  0  0  0  0  0
  -29.1740  -22.7180   20.2530 C   0  0  0  0  0  0  0  0  0  0  0  0
  -30.7270  -24.6140   20.0360 C   0  0  0  0  0  0  0  0  0  0  0  0
  -31.8550  -23.6000   19.8620 C   0  0  0  0  0  2  0  0  0  0  0  0
  -31.5920  -22.3130   20.6530 C   0  0  0  0  0  2  0  0  0  0  0  0
  -27.7720  -22.1200   20.3230 C   0  0  0  0  0  1  0  0  0  0  0  0
  -30.2470  -21.7790   20.4120 N   0  0  0  0  0  0  0  0  0  0  0  0
  -31.0270  -25.8110   20.0830 O   0  0  0  0  0  0  0  0  0  0  0  0
  -29.5190  -19.5700   19.4490 C   0  0  0  0  0  3  0  0  0  0  0  0
  -31.0040  -19.5640   21.3240 C   0  0  0  0  0  3  0  0  0  0  0  0
  -30.1760  -17.3830   20.4640 C   0  0  0  0  0  0  0  0  0  0  0  0
  -29.4720  -18.1410   19.4700 C   0  0  0  0  0  0  0  0  0  0  0  0
  -30.2370  -20.3330   20.4030 C   0  0  0  0  0  0  0  0  0  0  0  0
  -30.9760  -18.1420   21.3590 C   0  0  0  0  0  0  0  0  0  0  0  0
  -31.6830  -17.5100   22.3280 F   0  0  0  0  0  0  0  0  0  0  0  0
  -29.8670  -15.9160   20.7860 C   0  0  0  0  0  0  0  0  0  0  0  0
  -28.9180  -15.7610   21.6130 N   0  0  0  0  0  0  0  0  0  0  0  0
  -28.7550  -14.7810   21.8020 H   0  0  0  0  0  0  0  0  0  0  0  0
  -30.6600  -14.7100   20.1220 C   0  0  0  0  0  0  0  0  0  0  0  0
  -30.4090  -12.5410   18.9200 C   0  0  0  0  0  2  0  0  0  0  0  0
  -29.3810  -12.7330   17.7750 C   0  0  0  0  0  2  0  0  0  0  0  0
  -27.9290  -12.5550   18.2700 C   0  0  0  0  0  2  0  0  0  0  0  0
  -27.6570  -13.3160   19.5940 C   0  0  0  0  0  3  0  0  0  0  0  0
  -28.7810  -13.0020   20.6070 C   0  0  0  0  0  2  0  0  0  0  0  0
  -30.0500  -13.4720   20.0150 N   0  0  0  0  0  0  0  0  0  0  0  0
  -31.7660  -14.9070   19.6050 O   0  0  0  0  0  0  0  0  0  0  0  0
  -25.2970  -13.8990   20.4330 C   0  0  0  0  0  0  0  0  0  0  0  0
  -24.2490  -13.1180   20.8340 C   0  0  0  0  0  0  0  0  0  0  0  0
  -24.7120  -11.7700   20.7520 C   0  0  0  0  0  0  0  0  0  0  0  0
  -26.3330  -13.0260   20.1330 N   0  0  0  0  0  0  0  0  0  0  0  0
  -25.9860  -11.7380   20.3790 N   0  0  0  0  0  0  0  0  0  0  0  0
  -24.0000  -10.5020   20.9530 C   0  0  0  0  0  0  0  0  0  0  0  0
  -24.4570   -9.5370   21.8760 C   0  0  0  0  0  3  0  0  0  0  0  0
  -23.7450   -8.3340   22.0640 C   0  0  0  0  0  3  0  0  0  0  0  0
  -22.5610   -8.0890   21.3290 C   0  0  0  0  0  0  0  0  0  0  0  0
  -22.1220   -9.0430   20.3950 C   0  0  0  0  0  3  0  0  0  0  0  0
  -22.8350  -10.2390   20.2060 C   0  0  0  0  0  3  0  0  0  0  0  0
  -21.8180   -6.9370   21.4270 O   0  0  0  0  0  0  0  0  0  0  0  0
  -21.7590   -6.2160   22.5930 C   0  0  0  0  0  0  0  0  0  0  0  0
  -21.3070   -6.7900   23.8010 C   0  0  0  0  0  3  0  0  0  0  0  0
  -21.1950   -5.9950   24.9600 C   0  0  0  0  0  3  0  0  0  0  0  0
  -21.5260   -4.6280   24.9100 C   0  0  0  0  0  0  0  0  0  0  0  0
  -21.9710   -4.0540   23.7060 C   0  0  0  0  0  3  0  0  0  0  0  0
  -22.0850   -4.8460   22.5500 C   0  0  0  0  0  0  0  0  0  0  0  0
  -22.4940   -4.2830   21.3880 F   0  0  0  0  0  0  0  0  0  0  0  0
  -21.4120   -3.8610   26.0200 F   0  0  0  0  0  0  0  0  0  0  0  0
  -22.8690  -13.5870   21.1900 C   0  0  0  0  0  0  0  0  0  0  0  0
  -22.1910  -12.8760   22.0850 N   0  0  0  0  0  0  0  0  0  0  0  0
  -22.4000  -14.6200   20.7110 O   0  0  0  0  0  0  0  0  0  0  0  0
  -22.5840  -12.0400   22.4920 H   0  0  0  0  0  0  0  0  0  0  0  0
  -21.2670  -13.1700   22.3660 H   0  0  0  0  0  0  0  0  0  0  0  0
  -25.4490  -15.2720   20.2880 N   0  0  0  0  0  0  0  0  0  0  0  0
  -24.7020  -15.9250   20.4930 H   0  0  0  0  0  0  0  0  0  0  0  0
  -26.3290  -15.7260   20.0740 H   0  0  0  0  0  0  0  0  0  0  0  0
  -27.0990  -17.7960   18.6520 C   0  0  0  0  0  1  0  0  0  0  0  0
  -28.5810  -17.4700   18.4310 C   0  0  0  0  0  2  0  0  0  0  0  0
  -28.1720  -25.1240   19.9040 C   0  0  0  0  0  2  0  0  0  0  0  0
  -28.3550  -26.5590   20.2130 O   0  0  0  0  0  0  0  0  0  0  0  0
  -24.6160  -31.9050   23.2810 C   0  0  0  0  0  0  0  0  0  0  0  0
  -27.2180  -27.3820   20.1780 C   0  0  0  0  0  0  0  0  0  0  0  0
  -23.4010  -30.5170   21.6390 C   0  0  0  0  0  3  0  0  0  0  0  0
  -24.8420  -28.9770   20.1990 C   0  0  0  0  0  0  0  0  0  0  0  0
  -25.9390  -30.8390   21.4430 C   0  0  0  0  0  2  0  0  0  0  0  0
  -26.0140  -29.4660   20.7890 C   0  0  0  0  0  0  0  0  0  0  0  0
  -27.2030  -28.6810   20.7700 C   0  0  0  0  0  3  0  0  0  0  0  0
  -26.0170  -26.9420   19.5690 C   0  0  0  0  0  3  0  0  0  0  0  0
  -24.8450  -27.7180   19.5820 C   0  0  0  0  0  3  0  0  0  0  0  0
  -23.6060  -29.8490   20.2550 C   0  0  0  0  0  2  0  0  0  0  0  0
  -24.6720  -31.1030   22.1780 N   0  0  0  0  0  0  0  0  0  0  0  0
  -23.5360  -32.1830   23.8220 O   0  0  0  0  0  0  0  0  0  0  0  0
  -22.7420  -29.4960   22.5960 C   0  0  0  0  0  0  0  0  0  0  0  0
  -21.4170  -29.3150   22.4670 N   0  0  0  0  0  0  0  0  0  0  0  0
  -23.4220  -28.8710   23.4140 O   0  0  0  0  0  0  0  0  0  0  0  0
  -20.9290  -29.8710   21.7790 H   0  0  0  0  0  0  0  0  0  0  0  0
  -18.0420  -28.1050   22.9500 C   0  0  0  0  0  0  0  0  0  0  0  0
  -20.5980  -28.3750   23.2340 C   0  0  0  0  0  3  0  0  0  0  0  0
  -20.7090  -26.9430   22.6630 C   0  0  0  0  0  2  0  0  0  0  0  0
  -19.6150  -26.6130   21.6430 C   0  0  0  0  0  2  0  0  0  0  0  0
  -18.2290  -26.7540   22.2790 C   0  0  0  0  0  2  0  0  0  0  0  0
  -19.1560  -28.8730   23.3840 C   0  0  0  0  0  0  0  0  0  0  0  0
  -18.9280  -30.1370   23.9710 C   0  0  0  0  0  3  0  0  0  0  0  0
  -17.6210  -30.6330   24.1280 C   0  0  0  0  0  3  0  0  0  0  0  0
  -16.5220  -29.8620   23.7100 C   0  0  0  0  0  3  0  0  0  0  0  0
  -16.7340  -28.6000   23.1270 C   0  0  0  0  0  3  0  0  0  0  0  0
  -25.9040  -32.5310   23.9000 C   0  0  0  0  0  3  0  0  0  0  0  0
  -26.4200  -31.7550   25.1740 C   0  0  1  0  0  0  0  0  0  0  0  0
  -25.3270  -31.5210   26.2440 C   0  0  0  0  0  1  0  0  0  0  0  0
  -26.9960  -30.3760   24.7790 C   0  0  0  0  0  1  0  0  0  0  0  0
  -27.5760  -32.5430   25.8340 C   0  0  0  0  0  1  0  0  0  0  0  0
  -25.6010  -33.9300   24.2310 N   0  0  0  0  0  0  0  0  0  0  0  0
  -25.9160  -34.9800   23.4610 C   0  0  0  0  0  0  0  0  0  0  0  0
  -26.5600  -34.8730   22.4150 O   0  0  0  0  0  0  0  0  0  0  0  0
  -25.0270  -34.0860   25.0460 H   0  0  0  0  0  0  0  0  0  0  0  0
  -24.1660  -36.7620   23.1580 C   0  0  0  0  0  1  0  0  0  0  0  0
  -25.4390  -36.3700   23.9250 C   0  0  0  0  0  3  0  0  0  0  0  0
  -27.5980  -37.2720   24.6680 C   0  0  0  0  0  1  0  0  0  0  0  0
  -26.4610  -37.4260   23.7650 N   0  0  0  0  0  0  0  0  0  0  0  0
  -26.0560  -38.3460   23.9190 H   0  0  0  0  0  0  0  0  0  0  0  0
  1  2  2  0
  2  6  1  0
  2  7  1  0
  3  8  2  0
  3  1  1  0
  4  3  1  0
  4  5  1  0
  7  5  1  0
  9 12  2  0
  9 13  1  0
 10 14  1  0
 11 16  1  0
 11 14  2  0
 12 11  1  0
 13  7  1  0
 13 10  2  0
 14 15  1  0
 16 17  2  0
 17 18  1  0
 19 16  1  0
 20 25  1  0
 21 22  1  0
 21 20  1  0
 23 22  1  0
 23 30  1  0
 23 24  1  0
 25 19  1  0
 25 24  1  0
 26 19  2  0
 27 28  2  0
 28 47  1  0
 29 28  1  0
 29 32  1  0
 30 31  1  0
 30 27  1  0
 31 29  2  0
 32 33  1  0
 33 34  2  0
 35 38  1  0
 35 34  1  0
 36 35  2  0
 37 36  1  0
 37 32  2  0
 38 39  1  0
 39 40  1  0
 40 41  2  0
 42 41  1  0
 42 46  1  0
 43 42  2  0
 44 39  2  0
 44 43  1  0
 45 44  1  0
 47 48  1  0
 48 51  1  0
 48 50  1  0
 49 47  2  0
 52 27  1  0
 52 53  1  0
 54 52  1  0
 56 55  1  0
 56 12  1  0
 57  1  1  0
 57 58  1  0
 59 70  2  0
 60 58  1  0
 60 65  1  0
 61 69  1  0
 61 71  1  0
 62 68  1  0
 62 64  1  0
 63 69  1  0
 64 63  1  0
 65 64  2  0
 66 67  1  0
 66 60  2  0
 67 62  2  0
 68 61  1  0
 69 59  1  0
 71 73  2  0
 72 71  1  0
 74 72  1  0
 75 84  2  0
 75 80  1  0
 76 72  1  0
 76 80  1  0
 77 76  1  0
 78 79  1  0
 78 77  1  0
 79 75  1  0
 80 81  2  0
 81 82  1  0
 83 82  2  0
 84 83  1  0
 85 59  1  0
 85 90  1  0
 85 86  1  0
 86 89  1  1
 86 87  1  0
 88 86  1  0
 90 93  1  0
 91 95  1  0
 91 90  1  0
 92 91  2  0
 95 94  1  0
 97 98  1  0
 97 95  1  0
 97 96  1  0
M  ISO  4  16 100  19 100  57 101  58 101
M  END
>  <TORSDO>  (78) 
F 20

>  <SCORE>  (78) 
-13.737

>  <name>  (78) 
77

>  <ligand_id>  (78) 
77

>  <original_smiles>  (78) 
[H]N=C(C(=O)N1C([H])([H])C([H])([H])C([H])([H])C([H])(n2nc(-c3c([H])c([H])c(Oc4c([H])c([H])c(F)c([H])c4F)c([H])c3[H])c(C(=O)N([H])[H])c2N([H])[H])C1([H])[H])c1c(F)c([H])c(N2C(C([H])([H])[H])=C(C([H])([H])Oc3c([H])c([H])c4c(c3[H])C([H])([H])N(C(=O)C([H])(N([H])C(=O)C([H])(N([H])C([H])([H])[H])C([H])([H])[H])C(C([H])([H])[H])(C([H])([H])[H])C([H])([H])[H])C([H])(C(=O)N([H])C3([H])c5c([H])c([H])c([H])c([H])c5C([H])([H])C([H])([H])C3([H])[H])C4([H])[H])C(=O)C([H])([H])C2([H])[H])c([H])c1C([H])([H])C([H])([H])[H]

>  <smiles>  (78) 
[H]N=C(C(=O)N1C([H])([H])C([H])([H])C([H])([H])C([H])(n2nc(-c3c([H])c([H])c(Oc4c([H])c([H])c(F)c([H])c4F)c([H])c3[H])c(C(=O)N([H])[H])c2N([H])[H])C1([H])[H])c1c(F)c([H])c(N2C(C([H])([H])[H])=C(C([H])([H])Oc3c([H])c([H])c4c(c3[H])C([H])([H])N(C(=O)C([H])(N([H])C(=O)C([H])(N([H])C([H])([H])[H])C([H])([H])[H])C(C([H])([H])[H])(C([H])([H])[H])C([H])([H])[H])C([H])(C(=O)N([H])C3([H])c5c([H])c([H])c([H])c([H])c5C([H])([H])C([H])([H])C3([H])[H])C4([H])[H])C(=O)C([H])([H])C2([H])[H])c([H])c1C([H])([H])C([H])([H])[H]

$$$$
78:0:0
     RDKit          3D

 96104  0  0  1  0  0  0  0  0999 V2000
  -29.7390  -19.9800   20.6660 C   0  0  0  0  0  3  0  0  0  0  0  0
  -27.8530  -21.3090   19.8970 C   0  0  0  0  0  3  0  0  0  0  0  0
  -29.0640  -18.7080   20.3390 C   0  0  0  0  0  0  0  0  0  0  0  0
  -27.8350  -18.8570   19.5870 C   0  0  0  0  0  0  0  0  0  0  0  0
  -27.1990  -20.1360   19.5090 C   0  0  0  0  0  0  0  0  0  0  0  0
  -29.1660  -21.3170   20.3850 C   0  0  0  0  0  0  0  0  0  0  0  0
  -31.0750  -15.2380   20.9960 C   0  0  0  0  0  0  0  0  0  0  0  0
  -30.9110  -12.8880   20.1570 C   0  0  0  0  0  2  0  0  0  0  0  0
  -30.0980  -12.8080   18.8460 C   0  0  0  0  0  2  0  0  0  0  0  0
  -28.6090  -12.6100   19.1580 C   0  0  0  0  0  2  0  0  0  0  0  0
  -28.1080  -13.5700   20.2700 C   0  0  0  0  0  3  0  0  0  0  0  0
  -29.0740  -13.6310   21.4800 C   0  0  0  0  0  2  0  0  0  0  0  0
  -30.3770  -14.0370   20.9330 N   0  0  0  0  0  0  0  0  0  0  0  0
  -32.3010  -15.1540   20.9260 O   0  0  0  0  0  0  0  0  0  0  0  0
  -29.3830  -17.2490   20.9120 C   0  0  0  0  0  0  0  0  0  0  0  0
  -30.5740  -16.5510   20.8040 N   0  0  0  0  0  0  0  0  0  0  0  0
  -28.4320  -16.7030   21.4700 O   0  0  0  0  0  0  0  0  0  0  0  0
  -31.3190  -17.1740   20.5420 H   0  0  0  0  0  0  0  0  0  0  0  0
  -25.6840  -14.1520   20.8310 C   0  0  0  0  0  0  0  0  0  0  0  0
  -24.5790  -13.3870   21.0630 C   0  0  0  0  0  0  0  0  0  0  0  0
  -25.0430  -12.0390   21.0590 C   0  0  0  0  0  0  0  0  0  0  0  0
  -26.7360  -13.2770   20.6640 N   0  0  0  0  0  0  0  0  0  0  0  0
  -26.3560  -11.9960   20.8670 N   0  0  0  0  0  0  0  0  0  0  0  0
  -24.2980  -10.7820   21.1820 C   0  0  0  0  0  0  0  0  0  0  0  0
  -24.6520   -9.8140   22.1430 C   0  0  0  0  0  3  0  0  0  0  0  0
  -23.9040   -8.6240   22.2720 C   0  0  0  0  0  3  0  0  0  0  0  0
  -22.7840   -8.4040   21.4280 C   0  0  0  0  0  0  0  0  0  0  0  0
  -22.4440   -9.3730   20.4670 C   0  0  0  0  0  3  0  0  0  0  0  0
  -23.1950  -10.5530   20.3420 C   0  0  0  0  0  3  0  0  0  0  0  0
  -22.0080   -7.2790   21.4470 O   0  0  0  0  0  0  0  0  0  0  0  0
  -21.8480   -6.5470   22.5960 C   0  0  0  0  0  0  0  0  0  0  0  0
  -21.2840   -7.1040   23.7640 C   0  0  0  0  0  3  0  0  0  0  0  0
  -21.0770   -6.2880   24.8920 C   0  0  0  0  0  3  0  0  0  0  0  0
  -21.4220   -4.9250   24.8440 C   0  0  0  0  0  0  0  0  0  0  0  0
  -21.9820   -4.3700   23.6760 C   0  0  0  0  0  3  0  0  0  0  0  0
  -22.1840   -5.1800   22.5490 C   0  0  0  0  0  0  0  0  0  0  0  0
  -22.7050   -4.6430   21.4160 F   0  0  0  0  0  0  0  0  0  0  0  0
  -21.2070   -4.1360   25.9220 F   0  0  0  0  0  0  0  0  0  0  0  0
  -23.1710  -13.8800   21.1990 C   0  0  0  0  0  0  0  0  0  0  0  0
  -22.3620  -13.2010   22.0120 N   0  0  0  0  0  0  0  0  0  0  0  0
  -22.7910  -14.9030   20.6320 O   0  0  0  0  0  0  0  0  0  0  0  0
  -22.6760  -12.3720   22.5000 H   0  0  0  0  0  0  0  0  0  0  0  0
  -21.4190  -13.5270   22.1530 H   0  0  0  0  0  0  0  0  0  0  0  0
  -25.8780  -15.5120   20.7380 N   0  0  0  0  0  0  0  0  0  0  0  0
  -25.1240  -16.1740   20.8630 H   0  0  0  0  0  0  0  0  0  0  0  0
  -26.7970  -15.9140   20.9290 H   0  0  0  0  0  0  0  0  0  0  0  0
  -27.1450  -17.6990   18.8910 C   0  0  0  0  0  0  0  0  0  0  0  0
  -28.0020  -16.7310   18.0870 C   0  0  0  0  0  1  0  0  0  0  0  0
  -25.9190  -17.5720   18.7860 O   0  0  0  0  0  0  0  0  0  0  0  0
  -25.8790  -20.3460   19.0810 N   0  0  0  0  0  0  0  0  0  0  0  0
  -25.2510  -20.3440   19.8870 H   0  0  0  0  0  0  0  0  0  0  0  0
  -25.5120  -19.6300   18.4560 H   0  0  0  0  0  0  0  0  0  0  0  0
  -29.7340  -22.6080   20.6670 O   0  0  0  0  0  0  0  0  0  0  0  0
  -29.2680  -23.9130   20.0240 C   0  0  0  0  0  2  0  0  0  0  0  0
  -28.7430  -25.2300   20.8590 C   0  0  0  0  0  2  0  0  0  0  0  0
  -28.7480  -26.6680   20.3750 O   0  0  0  0  0  0  0  0  0  0  0  0
  -24.5450  -31.8790   23.3380 C   0  0  0  0  0  0  0  0  0  0  0  0
  -27.5760  -27.4690   20.3600 C   0  0  0  0  0  0  0  0  0  0  0  0
  -23.5140  -30.4530   21.6070 C   0  0  0  0  0  3  0  0  0  0  0  0
  -25.1300  -28.9940   20.2430 C   0  0  0  0  0  0  0  0  0  0  0  0
  -26.0450  -30.8930   21.5760 C   0  0  0  0  0  2  0  0  0  0  0  0
  -26.2440  -29.5250   20.9100 C   0  0  0  0  0  0  0  0  0  0  0  0
  -27.4720  -28.7840   20.9400 C   0  0  0  0  0  3  0  0  0  0  0  0
  -26.4310  -27.0000   19.6770 C   0  0  0  0  0  3  0  0  0  0  0  0
  -25.2330  -27.7440   19.6110 C   0  0  0  0  0  3  0  0  0  0  0  0
  -23.8480  -29.8110   20.2320 C   0  0  0  0  0  2  0  0  0  0  0  0
  -24.7160  -31.0950   22.2290 N   0  0  0  0  0  0  0  0  0  0  0  0
  -23.4180  -32.0850   23.8160 O   0  0  0  0  0  0  0  0  0  0  0  0
  -22.8480  -29.3900   22.5130 C   0  0  0  0  0  0  0  0  0  0  0  0
  -21.5410  -29.1490   22.3100 N   0  0  0  0  0  0  0  0  0  0  0  0
  -23.5120  -28.7760   23.3530 O   0  0  0  0  0  0  0  0  0  0  0  0
  -21.0660  -29.6960   21.6060 H   0  0  0  0  0  0  0  0  0  0  0  0
  -18.1930  -27.8120   22.6380 C   0  0  0  0  0  0  0  0  0  0  0  0
  -20.7290  -28.1560   23.0150 C   0  0  0  0  0  3  0  0  0  0  0  0
  -20.9080  -26.7530   22.3910 C   0  0  0  0  0  2  0  0  0  0  0  0
  -19.8570  -26.4290   21.3250 C   0  0  0  0  0  2  0  0  0  0  0  0
  -18.4480  -26.4970   21.9210 C   0  0  0  0  0  2  0  0  0  0  0  0
  -19.2650  -28.5980   23.1390 C   0  0  0  0  0  0  0  0  0  0  0  0
  -18.9760  -29.8290   23.7700 C   0  0  0  0  0  3  0  0  0  0  0  0
  -17.6470  -30.2720   23.9080 C   0  0  0  0  0  3  0  0  0  0  0  0
  -16.5890  -29.4830   23.4250 C   0  0  0  0  0  3  0  0  0  0  0  0
  -16.8630  -28.2550   22.7970 C   0  0  0  0  0  3  0  0  0  0  0  0
  -25.7540  -32.5660   24.0480 C   0  0  0  0  0  3  0  0  0  0  0  0
  -25.3980  -33.9750   24.2700 N   0  0  0  0  0  0  0  0  0  0  0  0
  -25.8060  -34.9930   23.5000 C   0  0  0  0  0  0  0  0  0  0  0  0
  -26.5830  -34.8460   22.5540 O   0  0  0  0  0  0  0  0  0  0  0  0
  -24.7200  -34.1650   24.9930 H   0  0  0  0  0  0  0  0  0  0  0  0
  -24.1180  -36.7500   22.8710 C   0  0  0  0  0  1  0  0  0  0  0  0
  -25.2660  -36.3980   23.8320 C   0  0  0  0  0  3  0  0  0  0  0  0
  -27.2860  -37.3510   24.8530 C   0  0  0  0  0  1  0  0  0  0  0  0
  -26.2990  -37.4560   23.7820 N   0  0  0  0  0  0  0  0  0  0  0  0
  -25.8740  -38.3780   23.8300 H   0  0  0  0  0  0  0  0  0  0  0  0
  -26.1490  -31.8750   25.4110 C   0  0  1  0  0  0  0  0  0  0  0  0
  -24.9570  -31.6790   26.3770 C   0  0  0  0  0  1  0  0  0  0  0  0
  -26.7820  -30.4870   25.1600 C   0  0  0  0  0  1  0  0  0  0  0  0
  -27.2200  -32.7210   26.1370 C   0  0  0  0  0  1  0  0  0  0  0  0
  2  6  2  0
  3  1  2  0
  3 15  1  0
  4  3  1  0
  5  4  2  0
  5  2  1  0
  6  1  1  0
  6 53  1  0
  8 13  1  0
  9 10  1  0
  9  8  1  0
 11 10  1  0
 11 22  1  0
 11 12  1  0
 13  7  1  0
 13 12  1  0
 14  7  2  0
 15 17  2  0
 16 15  1  0
 16  7  1  0
 18 16  1  0
 19 20  2  0
 20 39  1  0
 21 20  1  0
 21 24  1  0
 22 19  1  0
 22 23  1  0
 23 21  2  0
 24 25  1  0
 25 26  2  0
 27 30  1  0
 27 26  1  0
 28 27  2  0
 29 28  1  0
 29 24  2  0
 30 31  1  0
 31 32  1  0
 32 33  2  0
 34 33  1  0
 34 38  1  0
 35 34  2  0
 36 31  2  0
 36 35  1  0
 37 36  1  0
 39 40  1  0
 40 43  1  0
 40 42  1  0
 41 39  2  0
 44 19  1  0
 44 45  1  0
 44 46  1  0
 47  4  1  0
 48 47  1  0
 49 47  2  0
 50  5  1  0
 50 51  1  0
 52 50  1  0
 54 53  1  0
 54 55  1  0
 56 55  1  0
 57 68  2  0
 58 56  1  0
 58 63  1  0
 59 67  1  0
 59 69  1  0
 60 62  1  0
 61 67  1  0
 62 63  2  0
 62 61  1  0
 64 58  2  0
 65 64  1  0
 65 60  2  0
 66 60  1  0
 66 59  1  0
 67 57  1  0
 69 71  2  0
 70 69  1  0
 72 70  1  0
 73 82  2  0
 73 78  1  0
 74 70  1  0
 74 78  1  0
 75 74  1  0
 76 77  1  0
 76 75  1  0
 77 73  1  0
 78 79  2  0
 79 80  1  0
 81 80  2  0
 82 81  1  0
 83 57  1  0
 83 84  1  0
 83 93  1  0
 84 87  1  0
 85 89  1  0
 85 84  1  0
 86 85  2  0
 89 88  1  0
 91 92  1  0
 91 89  1  0
 91 90  1  0
 93 96  1  1
 93 94  1  0
 95 93  1  0
M  ISO  4   7 100  16 100  55 101  56 101
M  END
>  <TORSDO>  (79) 
F 21

>  <SCORE>  (79) 
-10.842

>  <name>  (79) 
78

>  <ligand_id>  (79) 
78

>  <original_smiles>  (79) 
[H]c1c([H])c([H])c2c(c1[H])C([H])([H])C([H])([H])C([H])([H])C2([H])N([H])C(=O)C1([H])N(C(=O)C([H])(N([H])C(=O)C([H])(N([H])C([H])([H])[H])C([H])([H])[H])C(C([H])([H])[H])(C([H])([H])[H])C([H])([H])[H])C([H])([H])c2c([H])c(OC([H])([H])C([H])([H])Oc3c([H])c(C(=O)N([H])C(=O)N4C([H])([H])C([H])([H])C([H])([H])C([H])(n5nc(-c6c([H])c([H])c(Oc7c([H])c([H])c(F)c([H])c7F)c([H])c6[H])c(C(=O)N([H])[H])c5N([H])[H])C4([H])[H])c(C(=O)C([H])([H])[H])c(N([H])[H])c3[H])c([H])c([H])c2C1([H])[H]

>  <smiles>  (79) 
[H]c1c([H])c([H])c2c(c1[H])C([H])([H])C([H])([H])C([H])([H])C2([H])N([H])C(=O)C1([H])N(C(=O)C([H])(N([H])C(=O)C([H])(N([H])C([H])([H])[H])C([H])([H])[H])C(C([H])([H])[H])(C([H])([H])[H])C([H])([H])[H])C([H])([H])c2c([H])c(OC([H])([H])C([H])([H])Oc3c([H])c(C(=O)N([H])C(=O)N4C([H])([H])C([H])([H])C([H])([H])C([H])(n5nc(-c6c([H])c([H])c(Oc7c([H])c([H])c(F)c([H])c7F)c([H])c6[H])c(C(=O)N([H])[H])c5N([H])[H])C4([H])[H])c(C(=O)C([H])([H])[H])c(N([H])[H])c3[H])c([H])c([H])c2C1([H])[H]

$$$$
79:0:0
     RDKit          3D

 94102  0  0  1  0  0  0  0  0999 V2000
  -29.9230  -21.9680   20.6010 C   0  0  0  0  0  0  0  0  0  0  0  0
  -29.7590  -20.6840   20.1920 N   0  0  0  0  0  0  0  0  0  0  0  0
  -30.9320  -22.3880   21.1720 O   0  0  0  0  0  0  0  0  0  0  0  0
  -28.8470  -20.4860   19.8040 H   0  0  0  0  0  0  0  0  0  0  0  0
  -32.0800  -19.7340   20.1930 C   0  0  0  0  0  3  0  0  0  0  0  0
  -32.4130  -17.3250   20.1970 C   0  0  0  0  0  3  0  0  0  0  0  0
  -30.1530  -18.2440   20.2250 C   0  0  0  0  0  3  0  0  0  0  0  0
  -32.9530  -18.6280   20.1950 C   0  0  0  0  0  0  0  0  0  0  0  0
  -30.6720  -19.5690   20.2170 C   0  0  0  0  0  0  0  0  0  0  0  0
  -31.0150  -17.1130   20.1910 C   0  0  0  0  0  0  0  0  0  0  0  0
  -31.1630  -14.6660   19.7950 C   0  0  0  0  0  0  0  0  0  0  0  0
  -30.8520  -12.3490   19.0040 C   0  0  0  0  0  2  0  0  0  0  0  0
  -29.8760  -12.3350   17.8120 C   0  0  0  0  0  2  0  0  0  0  0  0
  -28.4210  -12.2350   18.3090 C   0  0  0  0  0  2  0  0  0  0  0  0
  -28.0970  -13.2600   19.4290 C   0  0  0  0  0  3  0  0  0  0  0  0
  -29.1900  -13.2610   20.5220 C   0  0  0  0  0  2  0  0  0  0  0  0
  -30.4860  -13.4860   19.8640 N   0  0  0  0  0  0  0  0  0  0  0  0
  -32.2740  -14.7520   19.2670 O   0  0  0  0  0  0  0  0  0  0  0  0
  -30.4920  -15.7760   20.1780 N   0  0  0  0  0  0  0  0  0  0  0  0
  -29.5180  -15.6530   20.4120 H   0  0  0  0  0  0  0  0  0  0  0  0
  -25.7910  -13.9570   20.3320 C   0  0  0  0  0  0  0  0  0  0  0  0
  -24.7080  -13.2240   20.7380 C   0  0  0  0  0  0  0  0  0  0  0  0
  -25.0880  -11.8530   20.6140 C   0  0  0  0  0  0  0  0  0  0  0  0
  -26.7670  -13.0340   19.9900 N   0  0  0  0  0  0  0  0  0  0  0  0
  -26.3510  -11.7600   20.2160 N   0  0  0  0  0  0  0  0  0  0  0  0
  -24.3060  -10.6250   20.7950 C   0  0  0  0  0  0  0  0  0  0  0  0
  -24.7030   -9.6230   21.7080 C   0  0  0  0  0  3  0  0  0  0  0  0
  -23.9240   -8.4580   21.8770 C   0  0  0  0  0  3  0  0  0  0  0  0
  -22.7320   -8.2870   21.1330 C   0  0  0  0  0  0  0  0  0  0  0  0
  -22.3540   -9.2770   20.2090 C   0  0  0  0  0  3  0  0  0  0  0  0
  -23.1330  -10.4330   20.0370 C   0  0  0  0  0  3  0  0  0  0  0  0
  -21.9240   -7.1780   21.2130 O   0  0  0  0  0  0  0  0  0  0  0  0
  -21.7910   -6.4680   22.3790 C   0  0  0  0  0  0  0  0  0  0  0  0
  -21.3330   -7.0730   23.5710 C   0  0  0  0  0  3  0  0  0  0  0  0
  -21.1450   -6.2910   24.7290 C   0  0  0  0  0  3  0  0  0  0  0  0
  -21.4030   -4.9070   24.6950 C   0  0  0  0  0  0  0  0  0  0  0  0
  -21.8540   -4.3050   23.5080 C   0  0  0  0  0  3  0  0  0  0  0  0
  -22.0440   -5.0820   22.3520 C   0  0  0  0  0  0  0  0  0  0  0  0
  -22.4590   -4.4920   21.2060 F   0  0  0  0  0  0  0  0  0  0  0  0
  -21.2140   -4.1550   25.8040 F   0  0  0  0  0  0  0  0  0  0  0  0
  -23.3610  -13.7630   21.1280 C   0  0  0  0  0  0  0  0  0  0  0  0
  -22.6630  -13.0750   22.0250 N   0  0  0  0  0  0  0  0  0  0  0  0
  -22.9420  -14.8250   20.6730 O   0  0  0  0  0  0  0  0  0  0  0  0
  -23.0170  -12.2130   22.4130 H   0  0  0  0  0  0  0  0  0  0  0  0
  -21.7620  -13.4160   22.3280 H   0  0  0  0  0  0  0  0  0  0  0  0
  -26.0210  -15.3240   20.2040 N   0  0  0  0  0  0  0  0  0  0  0  0
  -25.2990  -16.0120   20.3910 H   0  0  0  0  0  0  0  0  0  0  0  0
  -26.8650  -15.7310   19.8190 H   0  0  0  0  0  0  0  0  0  0  0  0
  -35.3720  -17.9680   19.9590 C   0  0  0  0  0  2  0  0  0  0  0  0
  -34.4060  -18.8780   20.1780 C   0  0  0  0  0  3  0  0  0  0  0  0
  -28.7490  -22.9380   20.3550 C   0  0  0  0  0  2  0  0  0  0  0  0
  -29.0700  -24.4560   20.5320 C   0  0  0  0  0  2  0  0  0  0  0  0
  -27.8910  -25.3530   20.0900 C   0  0  0  0  0  2  0  0  0  0  0  0
  -28.1060  -26.7770   20.2110 O   0  0  0  0  0  0  0  0  0  0  0  0
  -24.5420  -32.0380   23.4670 C   0  0  0  0  0  0  0  0  0  0  0  0
  -26.9680  -27.5740   20.2140 C   0  0  0  0  0  0  0  0  0  0  0  0
  -23.2510  -30.6970   21.8420 C   0  0  0  0  0  3  0  0  0  0  0  0
  -24.6180  -29.1630   20.3350 C   0  0  0  0  0  0  0  0  0  0  0  0
  -25.7810  -30.9940   21.5690 C   0  0  0  0  0  2  0  0  0  0  0  0
  -25.8110  -29.6350   20.8960 C   0  0  0  0  0  0  0  0  0  0  0  0
  -26.9890  -28.8500   20.8330 C   0  0  0  0  0  3  0  0  0  0  0  0
  -25.7540  -27.1390   19.6270 C   0  0  0  0  0  3  0  0  0  0  0  0
  -24.5860  -27.9150   19.6970 C   0  0  0  0  0  3  0  0  0  0  0  0
  -23.3980  -30.0480   20.4430 C   0  0  0  0  0  2  0  0  0  0  0  0
  -24.5450  -31.2570   22.3500 N   0  0  0  0  0  0  0  0  0  0  0  0
  -23.4850  -32.3240   24.0460 O   0  0  0  0  0  0  0  0  0  0  0  0
  -22.6080  -29.6690   22.8020 C   0  0  0  0  0  0  0  0  0  0  0  0
  -21.3110  -29.3900   22.6000 N   0  0  0  0  0  0  0  0  0  0  0  0
  -23.2770  -29.1270   23.6850 O   0  0  0  0  0  0  0  0  0  0  0  0
  -20.8290  -29.8830   21.8610 H   0  0  0  0  0  0  0  0  0  0  0  0
  -18.0390  -27.8730   22.8400 C   0  0  0  0  0  0  0  0  0  0  0  0
  -20.5100  -28.4290   23.3580 C   0  0  0  0  0  3  0  0  0  0  0  0
  -20.8200  -26.9780   22.9230 C   0  0  0  0  0  2  0  0  0  0  0  0
  -19.8810  -26.4610   21.8300 C   0  0  0  0  0  2  0  0  0  0  0  0
  -18.4260  -26.5030   22.3080 C   0  0  0  0  0  2  0  0  0  0  0  0
  -19.0190  -28.7830   23.3170 C   0  0  0  0  0  0  0  0  0  0  0  0
  -18.6070  -30.0570   23.7670 C   0  0  0  0  0  3  0  0  0  0  0  0
  -17.2490  -30.4230   23.7480 C   0  0  0  0  0  3  0  0  0  0  0  0
  -16.2830  -29.5120   23.2880 C   0  0  0  0  0  3  0  0  0  0  0  0
  -16.6780  -28.2400   22.8400 C   0  0  0  0  0  3  0  0  0  0  0  0
  -25.8610  -32.6290   24.0540 C   0  0  0  0  0  3  0  0  0  0  0  0
  -25.5930  -34.0240   24.4260 N   0  0  0  0  0  0  0  0  0  0  0  0
  -25.9200  -35.0880   23.6790 C   0  0  0  0  0  0  0  0  0  0  0  0
  -26.5510  -34.9960   22.6230 O   0  0  0  0  0  0  0  0  0  0  0  0
  -25.0310  -34.1710   25.2520 H   0  0  0  0  0  0  0  0  0  0  0  0
  -24.2130  -36.9180   23.4280 C   0  0  0  0  0  1  0  0  0  0  0  0
  -25.4750  -36.4730   24.1850 C   0  0  0  0  0  3  0  0  0  0  0  0
  -27.6530  -37.3010   24.9580 C   0  0  0  0  0  1  0  0  0  0  0  0
  -26.5240  -37.5100   24.0580 N   0  0  0  0  0  0  0  0  0  0  0  0
  -26.1400  -38.4330   24.2390 H   0  0  0  0  0  0  0  0  0  0  0  0
  -26.4110  -31.8160   25.2890 C   0  0  1  0  0  0  0  0  0  0  0  0
  -25.3410  -31.5260   26.3680 C   0  0  0  0  0  1  0  0  0  0  0  0
  -27.0000  -30.4610   24.8330 C   0  0  0  0  0  1  0  0  0  0  0  0
  -27.5660  -32.5970   25.9590 C   0  0  0  0  0  1  0  0  0  0  0  0
  1  3  2  0
  2  9  1  0
  2  1  1  0
  4  2  1  0
  5  8  2  0
  5  9  1  0
  8  6  1  0
  9  7  2  0
 10  6  2  0
 10  7  1  0
 11 17  1  0
 11 19  1  0
 12 17  1  0
 13 14  1  0
 13 12  1  0
 15 14  1  0
 15 24  1  0
 15 16  1  0
 17 16  1  0
 18 11  2  0
 19 10  1  0
 19 20  1  0
 21 22  2  0
 22 41  1  0
 23 22  1  0
 23 26  1  0
 24 25  1  0
 24 21  1  0
 25 23  2  0
 26 27  1  0
 27 28  2  0
 29 32  1  0
 29 28  1  0
 30 29  2  0
 31 30  1  0
 31 26  2  0
 32 33  1  0
 33 34  1  0
 34 35  2  0
 36 35  1  0
 36 40  1  0
 37 36  2  0
 38 33  2  0
 38 37  1  0
 39 38  1  0
 41 42  1  0
 42 45  1  0
 42 44  1  0
 43 41  2  0
 46 21  1  0
 46 47  1  0
 48 46  1  0
 49 50  2  0
 50  8  1  0
 51 52  1  0
 51  1  1  0
 53 54  1  0
 53 52  1  0
 54 56  1  0
 55 66  2  0
 56 61  1  0
 57 65  1  0
 57 67  1  0
 58 64  1  0
 58 60  1  0
 59 65  1  0
 60 59  1  0
 61 60  2  0
 62 63  1  0
 62 56  2  0
 63 58  2  0
 64 57  1  0
 65 55  1  0
 67 69  2  0
 68 67  1  0
 70 68  1  0
 71 76  1  0
 72 68  1  0
 73 72  1  0
 74 75  1  0
 74 73  1  0
 75 71  1  0
 76 72  1  0
 76 77  2  0
 78 77  1  0
 79 78  2  0
 80 71  2  0
 80 79  1  0
 81 55  1  0
 81 82  1  0
 81 91  1  0
 82 85  1  0
 83 87  1  0
 83 82  1  0
 84 83  2  0
 87 86  1  0
 89 87  1  0
 89 90  1  0
 89 88  1  0
 91 94  1  1
 91 92  1  0
 93 91  1  0
M  ISO  4  11 100  19 100  53 101  54 101
M  END
>  <TORSDO>  (80) 
F 21

>  <SCORE>  (80) 
-12.704

>  <name>  (80) 
79

>  <ligand_id>  (80) 
79

>  <original_smiles>  (80) 
[H]C([H])=C([H])c1c([H])c(N([H])C(=O)N2C([H])([H])C([H])([H])C([H])([H])C([H])(n3nc(-c4c([H])c([H])c(Oc5c([H])c([H])c(F)c([H])c5F)c([H])c4[H])c(C(=O)N([H])[H])c3N([H])[H])C2([H])[H])c([H])c(N([H])C(=O)C([H])([H])C([H])([H])C([H])([H])Oc2c([H])c([H])c3c(c2[H])C([H])([H])N(C(=O)C([H])(N([H])C(=O)C([H])(N([H])C([H])([H])[H])C([H])([H])[H])C(C([H])([H])[H])(C([H])([H])[H])C([H])([H])[H])C([H])(C(=O)N([H])C2([H])c4c([H])c([H])c([H])c([H])c4C([H])([H])C([H])([H])C2([H])[H])C3([H])[H])c1[H]

>  <smiles>  (80) 
[H]C([H])=C([H])c1c([H])c(N([H])C(=O)N2C([H])([H])C([H])([H])C([H])([H])C([H])(n3nc(-c4c([H])c([H])c(Oc5c([H])c([H])c(F)c([H])c5F)c([H])c4[H])c(C(=O)N([H])[H])c3N([H])[H])C2([H])[H])c([H])c(N([H])C(=O)C([H])([H])C([H])([H])C([H])([H])Oc2c([H])c([H])c3c(c2[H])C([H])([H])N(C(=O)C([H])(N([H])C(=O)C([H])(N([H])C([H])([H])[H])C([H])([H])[H])C(C([H])([H])[H])(C([H])([H])[H])C([H])([H])[H])C([H])(C(=O)N([H])C2([H])c4c([H])c([H])c([H])c([H])c4C([H])([H])C([H])([H])C2([H])[H])C3([H])[H])c1[H]

$$$$
80:0:0
     RDKit          3D

 93101  0  0  1  0  0  0  0  0999 V2000
  -29.8750  -19.8390   21.5220 C   0  0  0  0  0  3  0  0  0  0  0  0
  -31.1520  -19.4700   19.0750 C   0  0  0  0  0  3  0  0  0  0  0  0
  -30.3310  -18.5470   21.1720 C   0  0  0  0  0  0  0  0  0  0  0  0
  -30.9880  -18.3470   19.9300 C   0  0  0  0  0  0  0  0  0  0  0  0
  -30.0740  -20.9610   20.6760 C   0  0  0  0  0  0  0  0  0  0  0  0
  -30.6980  -20.7680   19.4200 C   0  0  0  0  0  0  0  0  0  0  0  0
  -30.1440  -17.4290   22.1860 C   0  0  0  0  0  1  0  0  0  0  0  0
  -29.1380  -22.4750   22.3050 C   0  0  0  0  0  1  0  0  0  0  0  0
  -29.7380  -22.2510   21.0360 O   0  0  0  0  0  0  0  0  0  0  0  0
  -31.6400  -17.0150   19.4910 C   0  0  0  0  0  2  0  0  0  0  0  0
  -31.6830  -14.5480   19.6540 C   0  0  0  0  0  0  0  0  0  0  0  0
  -31.2800  -12.2120   18.9910 C   0  0  0  0  0  2  0  0  0  0  0  0
  -30.2940  -12.1790   17.8050 C   0  0  0  0  0  2  0  0  0  0  0  0
  -28.8420  -12.1510   18.3200 C   0  0  0  0  0  2  0  0  0  0  0  0
  -28.5610  -13.2410   19.3890 C   0  0  0  0  0  3  0  0  0  0  0  0
  -29.6630  -13.2650   20.4740 C   0  0  0  0  0  2  0  0  0  0  0  0
  -30.9610  -13.4030   19.7970 N   0  0  0  0  0  0  0  0  0  0  0  0
  -32.8150  -14.5540   19.1650 O   0  0  0  0  0  0  0  0  0  0  0  0
  -31.0460  -15.7160   19.8750 N   0  0  0  0  0  0  0  0  0  0  0  0
  -30.0950  -15.6990   20.2080 H   0  0  0  0  0  0  0  0  0  0  0  0
  -26.3190  -14.0580   20.3480 C   0  0  0  0  0  0  0  0  0  0  0  0
  -25.1970  -13.3890   20.7560 C   0  0  0  0  0  0  0  0  0  0  0  0
  -25.4880  -11.9980   20.6000 C   0  0  0  0  0  0  0  0  0  0  0  0
  -27.2280  -13.0840   19.9690 N   0  0  0  0  0  0  0  0  0  0  0  0
  -26.7370  -11.8350   20.1800 N   0  0  0  0  0  0  0  0  0  0  0  0
  -24.6330  -10.8180   20.7680 C   0  0  0  0  0  0  0  0  0  0  0  0
  -24.9520   -9.8000   21.6940 C   0  0  0  0  0  3  0  0  0  0  0  0
  -24.1030   -8.6840   21.8510 C   0  0  0  0  0  3  0  0  0  0  0  0
  -22.9180   -8.5770   21.0820 C   0  0  0  0  0  0  0  0  0  0  0  0
  -22.6180   -9.5820   20.1450 C   0  0  0  0  0  3  0  0  0  0  0  0
  -23.4670  -10.6900   19.9850 C   0  0  0  0  0  3  0  0  0  0  0  0
  -22.0480   -7.5160   21.1490 O   0  0  0  0  0  0  0  0  0  0  0  0
  -21.7990   -6.8630   22.3300 C   0  0  0  0  0  0  0  0  0  0  0  0
  -21.2600   -7.5310   23.4510 C   0  0  0  0  0  3  0  0  0  0  0  0
  -20.9540   -6.8080   24.6220 C   0  0  0  0  0  3  0  0  0  0  0  0
  -21.1760   -5.4200   24.6710 C   0  0  0  0  0  0  0  0  0  0  0  0
  -21.7080   -4.7520   23.5540 C   0  0  0  0  0  3  0  0  0  0  0  0
  -22.0150   -5.4710   22.3860 C   0  0  0  0  0  0  0  0  0  0  0  0
  -22.5080   -4.8200   21.3050 F   0  0  0  0  0  0  0  0  0  0  0  0
  -20.8730   -4.7230   25.7910 F   0  0  0  0  0  0  0  0  0  0  0  0
  -23.8930  -14.0030   21.1750 C   0  0  0  0  0  0  0  0  0  0  0  0
  -23.1700  -13.3520   22.0780 N   0  0  0  0  0  0  0  0  0  0  0  0
  -23.5300  -15.0940   20.7380 O   0  0  0  0  0  0  0  0  0  0  0  0
  -23.4780  -12.4670   22.4560 H   0  0  0  0  0  0  0  0  0  0  0  0
  -22.2960  -13.7430   22.3980 H   0  0  0  0  0  0  0  0  0  0  0  0
  -26.6340  -15.4100   20.2470 N   0  0  0  0  0  0  0  0  0  0  0  0
  -25.9620  -16.1380   20.4650 H   0  0  0  0  0  0  0  0  0  0  0  0
  -27.4950  -15.7730   19.8600 H   0  0  0  0  0  0  0  0  0  0  0  0
  -30.9640  -21.8250   18.5600 O   0  0  0  0  0  0  0  0  0  0  0  0
  -29.8790  -22.6970   18.1900 C   0  0  0  0  0  2  0  0  0  0  0  0
  -30.1470  -24.2030   18.4830 C   0  0  0  0  0  2  0  0  0  0  0  0
  -28.8800  -25.0680   18.2520 C   0  0  0  0  0  2  0  0  0  0  0  0
  -28.9320  -26.4410   18.7080 O   0  0  0  0  0  0  0  0  0  0  0  0
  -24.9510  -30.5500   22.9910 C   0  0  0  0  0  0  0  0  0  0  0  0
  -27.7120  -27.0820   18.8920 C   0  0  0  0  0  0  0  0  0  0  0  0
  -23.7450  -29.3970   21.1680 C   0  0  0  0  0  3  0  0  0  0  0  0
  -25.2060  -28.3390   19.3650 C   0  0  0  0  0  0  0  0  0  0  0  0
  -26.2130  -30.0290   20.9010 C   0  0  0  0  0  2  0  0  0  0  0  0
  -26.3630  -28.8320   19.9810 C   0  0  0  0  0  0  0  0  0  0  0  0
  -27.6160  -28.2100   19.7450 C   0  0  0  0  0  3  0  0  0  0  0  0
  -26.5270  -26.6250   18.2610 C   0  0  0  0  0  3  0  0  0  0  0  0
  -25.2840  -27.2360   18.5030 C   0  0  0  0  0  3  0  0  0  0  0  0
  -23.9020  -29.0430   19.6650 C   0  0  0  0  0  2  0  0  0  0  0  0
  -24.9910  -29.9960   21.7450 N   0  0  0  0  0  0  0  0  0  0  0  0
  -23.8960  -30.5980   23.6380 O   0  0  0  0  0  0  0  0  0  0  0  0
  -23.2620  -28.1400   21.9270 C   0  0  0  0  0  0  0  0  0  0  0  0
  -21.9760  -27.7900   21.7540 N   0  0  0  0  0  0  0  0  0  0  0  0
  -24.0390  -27.4900   22.6310 O   0  0  0  0  0  0  0  0  0  0  0  0
  -21.4000  -28.3790   21.1690 H   0  0  0  0  0  0  0  0  0  0  0  0
  -18.8520  -25.9810   21.8980 C   0  0  0  0  0  0  0  0  0  0  0  0
  -21.3150  -26.6250   22.3420 C   0  0  0  0  0  3  0  0  0  0  0  0
  -21.6840  -25.3320   21.5790 C   0  0  0  0  0  2  0  0  0  0  0  0
  -20.6850  -24.9800   20.4710 C   0  0  0  0  0  2  0  0  0  0  0  0
  -19.2810  -24.7940   21.0540 C   0  0  0  0  0  2  0  0  0  0  0  0
  -19.8060  -26.8500   22.4910 C   0  0  0  0  0  0  0  0  0  0  0  0
  -19.3520  -27.9580   23.2380 C   0  0  0  0  0  3  0  0  0  0  0  0
  -17.9750  -28.2040   23.3980 C   0  0  0  0  0  3  0  0  0  0  0  0
  -17.0350  -27.3300   22.8240 C   0  0  0  0  0  3  0  0  0  0  0  0
  -17.4730  -26.2210   22.0790 C   0  0  0  0  0  3  0  0  0  0  0  0
  -26.2240  -31.1670   23.6490 C   0  0  0  0  0  3  0  0  0  0  0  0
  -25.8570  -32.5000   24.1480 N   0  0  0  0  0  0  0  0  0  0  0  0
  -26.1510  -33.6510   23.5290 C   0  0  0  0  0  0  0  0  0  0  0  0
  -26.8290  -33.7030   22.5000 O   0  0  0  0  0  0  0  0  0  0  0  0
  -25.2530  -32.5300   24.9560 H   0  0  0  0  0  0  0  0  0  0  0  0
  -24.3590  -35.4080   23.3750 C   0  0  0  0  0  1  0  0  0  0  0  0
  -25.6050  -34.9510   24.1500 C   0  0  0  0  0  3  0  0  0  0  0  0
  -27.6880  -35.8060   25.1280 C   0  0  0  0  0  1  0  0  0  0  0  0
  -26.5980  -36.0470   24.1870 N   0  0  0  0  0  0  0  0  0  0  0  0
  -26.1550  -36.9270   24.4350 H   0  0  0  0  0  0  0  0  0  0  0  0
  -26.8170  -30.2800   24.8100 C   0  0  1  0  0  0  0  0  0  0  0  0
  -25.7720  -29.8740   25.8760 C   0  0  0  0  0  1  0  0  0  0  0  0
  -27.4420  -28.9830   24.2440 C   0  0  0  0  0  1  0  0  0  0  0  0
  -27.9550  -31.0460   25.5260 C   0  0  0  0  0  1  0  0  0  0  0  0
  2  6  2  0
  2  4  1  0
  3  1  1  0
  3  7  1  0
  4  3  2  0
  5  9  1  0
  5  1  2  0
  6  5  1  0
  9  8  1  0
 10 19  1  0
 10  4  1  0
 11 17  1  0
 11 19  1  0
 12 17  1  0
 13 14  1  0
 13 12  1  0
 15 14  1  0
 15 24  1  0
 15 16  1  0
 17 16  1  0
 18 11  2  0
 19 20  1  0
 21 22  2  0
 22 41  1  0
 23 22  1  0
 23 26  1  0
 24 25  1  0
 24 21  1  0
 25 23  2  0
 26 27  1  0
 27 28  2  0
 29 32  1  0
 29 28  1  0
 30 29  2  0
 31 30  1  0
 31 26  2  0
 32 33  1  0
 33 38  2  0
 33 34  1  0
 34 35  2  0
 35 36  1  0
 36 40  1  0
 37 36  2  0
 38 37  1  0
 39 38  1  0
 41 42  1  0
 42 45  1  0
 42 44  1  0
 43 41  2  0
 46 21  1  0
 46 47  1  0
 48 46  1  0
 49  6  1  0
 50 51  1  0
 50 49  1  0
 52 51  1  0
 52 53  1  0
 53 55  1  0
 54 65  2  0
 55 60  1  0
 56 64  1  0
 56 66  1  0
 57 63  1  0
 57 59  1  0
 58 64  1  0
 59 58  1  0
 60 59  2  0
 61 62  1  0
 61 55  2  0
 62 57  2  0
 63 56  1  0
 64 54  1  0
 66 68  2  0
 67 66  1  0
 69 67  1  0
 70 79  2  0
 70 75  1  0
 71 67  1  0
 71 75  1  0
 72 71  1  0
 73 74  1  0
 73 72  1  0
 74 70  1  0
 75 76  2  0
 76 77  1  0
 78 77  2  0
 79 78  1  0
 80 54  1  0
 80 81  1  0
 80 90  1  0
 81 84  1  0
 82 81  1  0
 82 86  1  0
 83 82  2  0
 86 85  1  0
 86 88  1  0
 88 89  1  0
 88 87  1  0
 90 93  1  1
 90 91  1  0
 92 90  1  0
M  ISO  4  11 100  19 100  52 101  53 101
M  END
>  <TORSDO>  (81) 
F 22

>  <SCORE>  (81) 
-9.338

>  <name>  (81) 
80

>  <ligand_id>  (81) 
80

>  <original_smiles>  (81) 
[H]c1c([H])c([H])c2c(c1[H])C([H])([H])C([H])([H])C([H])([H])C2([H])N([H])C(=O)C1([H])N(C(=O)C([H])(N([H])C(=O)C([H])(N([H])C([H])([H])[H])C([H])([H])[H])C(C([H])([H])[H])(C([H])([H])[H])C([H])([H])[H])C([H])([H])c2c([H])c(OC([H])([H])C([H])([H])C([H])([H])Oc3c([H])c(C([H])([H])N([H])C(=O)N4C([H])([H])C([H])([H])C([H])([H])C([H])(n5nc(-c6c([H])c([H])c(Oc7c([H])c([H])c(F)c([H])c7F)c([H])c6[H])c(C(=O)N([H])[H])c5N([H])[H])C4([H])[H])c(C([H])([H])[H])c([H])c3OC([H])([H])[H])c([H])c([H])c2C1([H])[H]

>  <smiles>  (81) 
[H]c1c([H])c([H])c2c(c1[H])C([H])([H])C([H])([H])C([H])([H])C2([H])N([H])C(=O)C1([H])N(C(=O)C([H])(N([H])C(=O)C([H])(N([H])C([H])([H])[H])C([H])([H])[H])C(C([H])([H])[H])(C([H])([H])[H])C([H])([H])[H])C([H])([H])c2c([H])c(OC([H])([H])C([H])([H])C([H])([H])Oc3c([H])c(C([H])([H])N([H])C(=O)N4C([H])([H])C([H])([H])C([H])([H])C([H])(n5nc(-c6c([H])c([H])c(Oc7c([H])c([H])c(F)c([H])c7F)c([H])c6[H])c(C(=O)N([H])[H])c5N([H])[H])C4([H])[H])c(C([H])([H])[H])c([H])c3OC([H])([H])[H])c([H])c([H])c2C1([H])[H]

$$$$
81:0:0
     RDKit          3D

 97105  0  0  1  0  0  0  0  0999 V2000
  -28.8660  -17.4490   20.4170 C   0  0  0  0  0  3  0  0  0  0  0  0
  -31.1100  -17.6790   21.3180 C   0  0  0  0  0  3  0  0  0  0  0  0
  -28.6990  -18.8570   20.3890 C   0  0  0  0  0  0  0  0  0  0  0  0
  -30.0500  -16.8460   20.8930 C   0  0  0  0  0  0  0  0  0  0  0  0
  -30.9480  -19.0870   21.3210 C   0  0  0  0  0  0  0  0  0  0  0  0
  -29.7480  -19.6880   20.8630 C   0  0  0  0  0  0  0  0  0  0  0  0
  -30.7350  -14.5040   20.3430 C   0  0  0  0  0  0  0  0  0  0  0  0
  -30.3740  -12.4190   19.0680 C   0  0  0  0  0  2  0  0  0  0  0  0
  -29.3960  -12.7220   17.9110 C   0  0  0  0  0  2  0  0  0  0  0  0
  -27.9310  -12.5970   18.3800 C   0  0  0  0  0  2  0  0  0  0  0  0
  -27.6560  -13.3610   19.7010 C   0  0  0  0  0  3  0  0  0  0  0  0
  -28.7360  -13.0200   20.7550 C   0  0  0  0  0  2  0  0  0  0  0  0
  -30.0560  -13.3350   20.1740 N   0  0  0  0  0  0  0  0  0  0  0  0
  -31.8320  -14.7340   19.8260 O   0  0  0  0  0  0  0  0  0  0  0  0
  -30.0570  -15.4270   21.0550 N   0  0  0  0  0  0  0  0  0  0  0  0
  -29.2030  -15.0440   21.4280 H   0  0  0  0  0  0  0  0  0  0  0  0
  -25.2770  -14.0010   20.4590 C   0  0  0  0  0  0  0  0  0  0  0  0
  -24.2050  -13.2420   20.8430 C   0  0  0  0  0  0  0  0  0  0  0  0
  -24.6430  -11.8830   20.7850 C   0  0  0  0  0  0  0  0  0  0  0  0
  -26.3050  -13.1060   20.1980 N   0  0  0  0  0  0  0  0  0  0  0  0
  -25.9260  -11.8270   20.4490 N   0  0  0  0  0  0  0  0  0  0  0  0
  -23.9000  -10.6300   20.9720 C   0  0  0  0  0  0  0  0  0  0  0  0
  -24.3190   -9.6570   21.9070 C   0  0  0  0  0  3  0  0  0  0  0  0
  -23.5790   -8.4670   22.0820 C   0  0  0  0  0  3  0  0  0  0  0  0
  -22.4060   -8.2440   21.3210 C   0  0  0  0  0  0  0  0  0  0  0  0
  -22.0060   -9.2060   20.3770 C   0  0  0  0  0  3  0  0  0  0  0  0
  -22.7460  -10.3870   20.2010 C   0  0  0  0  0  3  0  0  0  0  0  0
  -21.6370   -7.1070   21.4060 O   0  0  0  0  0  0  0  0  0  0  0  0
  -21.5690   -6.3680   22.5600 C   0  0  0  0  0  0  0  0  0  0  0  0
  -21.0990   -6.9200   23.7720 C   0  0  0  0  0  3  0  0  0  0  0  0
  -20.9810   -6.1080   24.9180 C   0  0  0  0  0  3  0  0  0  0  0  0
  -21.3200   -4.7430   24.8510 C   0  0  0  0  0  0  0  0  0  0  0  0
  -21.7810   -4.1900   23.6440 C   0  0  0  0  0  3  0  0  0  0  0  0
  -21.9030   -4.9990   22.5020 C   0  0  0  0  0  0  0  0  0  0  0  0
  -22.3290   -4.4570   21.3350 F   0  0  0  0  0  0  0  0  0  0  0  0
  -21.1980   -3.9610   25.9480 F   0  0  0  0  0  0  0  0  0  0  0  0
  -22.8210  -13.7370   21.1510 C   0  0  0  0  0  0  0  0  0  0  0  0
  -22.0990  -13.0410   22.0220 N   0  0  0  0  0  0  0  0  0  0  0  0
  -22.3890  -14.7760   20.6530 O   0  0  0  0  0  0  0  0  0  0  0  0
  -22.4600  -12.1990   22.4460 H   0  0  0  0  0  0  0  0  0  0  0  0
  -21.1720  -13.3560   22.2690 H   0  0  0  0  0  0  0  0  0  0  0  0
  -25.4550  -15.3690   20.2840 N   0  0  0  0  0  0  0  0  0  0  0  0
  -24.6820  -16.0230   20.3680 H   0  0  0  0  0  0  0  0  0  0  0  0
  -26.2720  -15.7760   19.8520 H   0  0  0  0  0  0  0  0  0  0  0  0
  -31.9680  -19.9050   21.8090 N   0  0  0  0  0  0  0  0  0  0  0  0
  -32.6130  -19.5080   22.4850 H   0  0  0  0  0  0  0  0  0  0  0  0
  -31.6950  -20.8540   22.0490 H   0  0  0  0  0  0  0  0  0  0  0  0
  -27.4600  -19.4430   19.8470 C   0  0  0  0  0  3  0  0  0  0  0  0
  -26.7210  -18.9240   18.8500 C   0  0  0  0  0  3  0  0  0  0  0  0
  -25.4570  -19.5610   18.3130 C   0  0  0  0  0  1  0  0  0  0  0  0
  -29.6010  -21.0630   20.9800 O   0  0  0  0  0  0  0  0  0  0  0  0
  -29.6720  -21.8320   19.7740 C   0  0  0  0  0  2  0  0  0  0  0  0
  -30.0090  -23.3190   20.0680 C   0  0  0  0  0  2  0  0  0  0  0  0
  -28.8220  -24.2920   20.2550 C   0  0  0  0  0  0  0  0  0  0  0  0
  -27.8240  -23.9710   20.9090 O   0  0  0  0  0  0  0  0  0  0  0  0
  -28.9320  -25.6810   19.5830 C   0  0  0  0  0  2  0  0  0  0  0  0
  -28.6360  -26.7700   20.4830 O   0  0  0  0  0  0  0  0  0  0  0  0
  -24.5950  -31.9290   23.2830 C   0  0  0  0  0  0  0  0  0  0  0  0
  -27.4350  -27.4540   20.3990 C   0  0  0  0  0  0  0  0  0  0  0  0
  -23.4790  -30.4730   21.6250 C   0  0  0  0  0  3  0  0  0  0  0  0
  -25.0110  -28.9250   20.2960 C   0  0  0  0  0  0  0  0  0  0  0  0
  -26.0070  -30.8620   21.5270 C   0  0  0  0  0  2  0  0  0  0  0  0
  -26.1360  -29.4770   20.9180 C   0  0  0  0  0  0  0  0  0  0  0  0
  -27.3460  -28.7470   20.9710 C   0  0  0  0  0  3  0  0  0  0  0  0
  -26.2810  -26.9110   19.7860 C   0  0  0  0  0  3  0  0  0  0  0  0
  -25.0780  -27.6390   19.7330 C   0  0  0  0  0  3  0  0  0  0  0  0
  -23.7550  -29.7660   20.2720 C   0  0  0  0  0  2  0  0  0  0  0  0
  -24.7090  -31.1050   22.2040 N   0  0  0  0  0  0  0  0  0  0  0  0
  -23.4890  -32.1980   23.7720 O   0  0  0  0  0  0  0  0  0  0  0  0
  -22.8010  -29.4660   22.5810 C   0  0  0  0  0  0  0  0  0  0  0  0
  -21.4790  -29.2910   22.4270 N   0  0  0  0  0  0  0  0  0  0  0  0
  -23.4630  -28.8450   23.4160 O   0  0  0  0  0  0  0  0  0  0  0  0
  -21.0050  -29.8470   21.7290 H   0  0  0  0  0  0  0  0  0  0  0  0
  -18.0780  -28.1790   22.9200 C   0  0  0  0  0  0  0  0  0  0  0  0
  -20.6410  -28.3650   23.1860 C   0  0  0  0  0  3  0  0  0  0  0  0
  -20.7060  -26.9410   22.5860 C   0  0  0  0  0  2  0  0  0  0  0  0
  -19.5930  -26.6620   21.5720 C   0  0  0  0  0  2  0  0  0  0  0  0
  -18.2170  -26.8350   22.2220 C   0  0  0  0  0  2  0  0  0  0  0  0
  -19.2180  -28.9040   23.3570 C   0  0  0  0  0  0  0  0  0  0  0  0
  -19.0370  -30.1640   23.9660 C   0  0  0  0  0  3  0  0  0  0  0  0
  -17.7470  -30.7000   24.1430 C   0  0  0  0  0  3  0  0  0  0  0  0
  -16.6210  -29.9720   23.7210 C   0  0  0  0  0  3  0  0  0  0  0  0
  -16.7870  -28.7130   23.1170 C   0  0  0  0  0  3  0  0  0  0  0  0
  -25.8470  -32.5930   23.9410 C   0  0  0  0  0  3  0  0  0  0  0  0
  -25.5110  -33.9980   24.2080 N   0  0  0  0  0  0  0  0  0  0  0  0
  -25.8750  -35.0280   23.4330 C   0  0  0  0  0  0  0  0  0  0  0  0
  -26.6000  -34.8960   22.4430 O   0  0  0  0  0  0  0  0  0  0  0  0
  -24.8730  -34.1700   24.9710 H   0  0  0  0  0  0  0  0  0  0  0  0
  -24.1730  -36.8050   22.9130 C   0  0  0  0  0  1  0  0  0  0  0  0
  -25.3540  -36.4260   23.8180 C   0  0  0  0  0  3  0  0  0  0  0  0
  -27.4200  -37.3510   24.7760 C   0  0  0  0  0  1  0  0  0  0  0  0
  -26.3900  -37.4810   23.7480 N   0  0  0  0  0  0  0  0  0  0  0  0
  -25.9690  -38.4010   23.8350 H   0  0  0  0  0  0  0  0  0  0  0  0
  -26.3040  -31.8680   25.2660 C   0  0  1  0  0  0  0  0  0  0  0  0
  -25.1600  -31.6550   26.2850 C   0  0  0  0  0  1  0  0  0  0  0  0
  -26.9180  -30.4830   24.9470 C   0  0  0  0  0  1  0  0  0  0  0  0
  -27.4070  -32.7000   25.9610 C   0  0  0  0  0  1  0  0  0  0  0  0
  1  4  1  0
  2  5  1  0
  3  1  2  0
  3  6  1  0
  4 15  1  0
  4  2  2  0
  5 45  1  0
  6 51  1  0
  6  5  2  0
  7 15  1  0
  8 13  1  0
  9 10  1  0
  9  8  1  0
 11 10  1  0
 11 20  1  0
 11 12  1  0
 13  7  1  0
 13 12  1  0
 14  7  2  0
 15 16  1  0
 17 18  2  0
 18 37  1  0
 19 18  1  0
 19 22  1  0
 20 21  1  0
 20 17  1  0
 21 19  2  0
 22 23  1  0
 23 24  2  0
 25 28  1  0
 25 24  1  0
 26 25  2  0
 27 26  1  0
 27 22  2  0
 28 29  1  0
 29 30  1  0
 30 31  2  0
 32 31  1  0
 32 36  1  0
 33 32  2  0
 34 29  2  0
 34 33  1  0
 35 34  1  0
 37 38  1  0
 38 41  1  0
 38 40  1  0
 39 37  2  0
 42 43  1  0
 42 17  1  0
 44 42  1  0
 45 47  1  0
 45 46  1  0
 48  3  1  0
 49 48  2  0
 50 49  1  0
 52 53  1  0
 52 51  1  0
 53 54  1  0
 54 55  2  0
 56 54  1  0
 56 57  1  0
 58 69  2  0
 59 57  1  0
 59 64  1  0
 60 68  1  0
 60 70  1  0
 61 63  1  0
 62 68  1  0
 63 64  2  0
 63 62  1  0
 65 59  2  0
 66 65  1  0
 66 61  2  0
 67 61  1  0
 67 60  1  0
 68 58  1  0
 70 72  2  0
 71 70  1  0
 73 71  1  0
 74 83  2  0
 74 79  1  0
 75 71  1  0
 75 79  1  0
 76 75  1  0
 77 78  1  0
 77 76  1  0
 78 74  1  0
 79 80  2  0
 80 81  1  0
 82 81  2  0
 83 82  1  0
 84 58  1  0
 84 85  1  0
 84 94  1  0
 85 88  1  0
 86 90  1  0
 86 85  1  0
 87 86  2  0
 90 89  1  0
 92 90  1  0
 92 93  1  0
 92 91  1  0
 94 97  1  1
 94 95  1  0
 96 94  1  0
M  ISO  4   7 100  15 100  56 101  57 101
M  END
>  <TORSDO>  (82) 
F 23

>  <SCORE>  (82) 
-12.800

>  <name>  (82) 
81

>  <ligand_id>  (82) 
81

>  <original_smiles>  (82) 
[H]C(=C([H])C([H])([H])[H])c1c([H])c(N([H])C(=O)N2C([H])([H])C([H])([H])C([H])([H])C([H])(n3nc(-c4c([H])c([H])c(Oc5c([H])c([H])c(F)c([H])c5F)c([H])c4[H])c(C(=O)N([H])[H])c3N([H])[H])C2([H])[H])c([H])c(N([H])[H])c1OC([H])([H])C([H])([H])C(=O)C([H])([H])Oc1c([H])c([H])c2c(c1[H])C([H])([H])N(C(=O)C([H])(N([H])C(=O)C([H])(N([H])C([H])([H])[H])C([H])([H])[H])C(C([H])([H])[H])(C([H])([H])[H])C([H])([H])[H])C([H])(C(=O)N([H])C1([H])c3c([H])c([H])c([H])c([H])c3C([H])([H])C([H])([H])C1([H])[H])C2([H])[H]

>  <smiles>  (82) 
[H]C(=C([H])C([H])([H])[H])c1c([H])c(N([H])C(=O)N2C([H])([H])C([H])([H])C([H])([H])C([H])(n3nc(-c4c([H])c([H])c(Oc5c([H])c([H])c(F)c([H])c5F)c([H])c4[H])c(C(=O)N([H])[H])c3N([H])[H])C2([H])[H])c([H])c(N([H])[H])c1OC([H])([H])C([H])([H])C(=O)C([H])([H])Oc1c([H])c([H])c2c(c1[H])C([H])([H])N(C(=O)C([H])(N([H])C(=O)C([H])(N([H])C([H])([H])[H])C([H])([H])[H])C(C([H])([H])[H])(C([H])([H])[H])C([H])([H])[H])C([H])(C(=O)N([H])C1([H])c3c([H])c([H])c([H])c([H])c3C([H])([H])C([H])([H])C1([H])[H])C2([H])[H]

$$$$
82:0:0
     RDKit          3D

 99109  0  0  1  0  0  0  0  0999 V2000
  -29.8860  -22.1210   23.2170 C   0  0  0  0  0  2  0  0  0  0  0  0
  -32.9200  -20.3950   21.6450 C   0  0  0  0  0  3  0  0  0  0  0  0
  -32.1050  -21.3510   22.2790 C   0  0  0  0  0  3  0  0  0  0  0  0
  -30.2480  -19.7730   22.2860 C   0  0  0  0  0  3  0  0  0  0  0  0
  -30.5380  -17.5330   21.3600 C   0  0  0  0  0  3  0  0  0  0  0  0
  -32.6640  -16.8830   20.3610 C   0  0  0  0  0  3  0  0  0  0  0  0
  -32.4070  -19.1190   21.3170 C   0  0  0  0  0  0  0  0  0  0  0  0
  -31.0640  -18.8080   21.6550 C   0  0  0  0  0  0  0  0  0  0  0  0
  -30.7650  -21.0500   22.5910 C   0  0  0  0  0  0  0  0  0  0  0  0
  -33.2070  -18.1480   20.6640 C   0  0  0  0  0  0  0  0  0  0  0  0
  -31.3290  -16.5680   20.7020 C   0  0  0  0  0  0  0  0  0  0  0  0
  -34.6510  -18.4330   20.2800 C   0  0  0  0  0  1  0  0  0  0  0  0
  -31.3320  -14.2450   19.8200 C   0  0  0  0  0  0  0  0  0  0  0  0
  -31.0470  -11.8730   19.1900 C   0  0  0  0  0  2  0  0  0  0  0  0
  -30.0470  -11.7110   18.0280 C   0  0  0  0  0  2  0  0  0  0  0  0
  -28.6010  -11.6380   18.5520 C   0  0  0  0  0  2  0  0  0  0  0  0
  -28.2730  -12.7750   19.5560 C   0  0  0  0  0  3  0  0  0  0  0  0
  -29.3710  -12.8800   20.6370 C   0  0  0  0  0  2  0  0  0  0  0  0
  -30.6660  -13.0680   19.9560 N   0  0  0  0  0  0  0  0  0  0  0  0
  -32.3430  -14.3680   19.1210 O   0  0  0  0  0  0  0  0  0  0  0  0
  -30.7770  -15.2810   20.4680 N   0  0  0  0  0  0  0  0  0  0  0  0
  -29.8590  -15.1070   20.8500 H   0  0  0  0  0  0  0  0  0  0  0  0
  -26.0370  -13.5530   20.5670 C   0  0  0  0  0  0  0  0  0  0  0  0
  -24.9290  -12.8600   20.9780 C   0  0  0  0  0  0  0  0  0  0  0  0
  -25.2290  -11.4790   20.7720 C   0  0  0  0  0  0  0  0  0  0  0  0
  -26.9490  -12.5970   20.1480 N   0  0  0  0  0  0  0  0  0  0  0  0
  -26.4700  -11.3390   20.3240 N   0  0  0  0  0  0  0  0  0  0  0  0
  -24.3880  -10.2840   20.9210 C   0  0  0  0  0  0  0  0  0  0  0  0
  -24.7040   -9.2710   21.8530 C   0  0  0  0  0  3  0  0  0  0  0  0
  -23.8690   -8.1410   21.9900 C   0  0  0  0  0  3  0  0  0  0  0  0
  -22.7060   -8.0160   21.1930 C   0  0  0  0  0  0  0  0  0  0  0  0
  -22.4100   -9.0170   20.2510 C   0  0  0  0  0  3  0  0  0  0  0  0
  -23.2430  -10.1390   20.1120 C   0  0  0  0  0  3  0  0  0  0  0  0
  -21.8520   -6.9410   21.2390 O   0  0  0  0  0  0  0  0  0  0  0  0
  -21.5720   -6.2930   22.4150 C   0  0  0  0  0  0  0  0  0  0  0  0
  -21.0210   -6.9700   23.5250 C   0  0  0  0  0  3  0  0  0  0  0  0
  -20.6850   -6.2520   24.6900 C   0  0  0  0  0  3  0  0  0  0  0  0
  -20.8890   -4.8610   24.7450 C   0  0  0  0  0  0  0  0  0  0  0  0
  -21.4320   -4.1840   23.6390 C   0  0  0  0  0  3  0  0  0  0  0  0
  -21.7700   -4.8990   22.4750 C   0  0  0  0  0  0  0  0  0  0  0  0
  -22.2730   -4.2400   21.4040 F   0  0  0  0  0  0  0  0  0  0  0  0
  -20.5580   -4.1700   25.8610 F   0  0  0  0  0  0  0  0  0  0  0  0
  -23.6280  -13.4470   21.4450 C   0  0  0  0  0  0  0  0  0  0  0  0
  -22.9410  -12.7680   22.3570 N   0  0  0  0  0  0  0  0  0  0  0  0
  -23.2350  -14.5400   21.0380 O   0  0  0  0  0  0  0  0  0  0  0  0
  -23.2740  -11.8800   22.7050 H   0  0  0  0  0  0  0  0  0  0  0  0
  -22.0720  -13.1390   22.7130 H   0  0  0  0  0  0  0  0  0  0  0  0
  -26.3370  -14.9100   20.4970 N   0  0  0  0  0  0  0  0  0  0  0  0
  -25.6600  -15.6280   20.7260 H   0  0  0  0  0  0  0  0  0  0  0  0
  -27.1920  -15.2850   20.1040 H   0  0  0  0  0  0  0  0  0  0  0  0
  -29.2870  -25.8790   21.1150 C   0  0  0  0  0  0  0  0  0  0  0  0
  -28.6460  -27.0250   20.8340 C   0  0  0  0  0  3  0  0  0  0  0  0
  -30.3370  -25.7920   22.2060 C   0  0  0  0  0  2  0  0  0  0  0  0
  -29.0370  -24.5690   20.3850 C   0  0  0  0  0  2  0  0  0  0  0  0
  -30.0780  -24.5940   23.1400 C   0  0  0  0  0  2  0  0  0  0  0  0
  -28.8290  -23.4050   21.3730 C   0  0  0  0  0  2  0  0  0  0  0  0
  -29.9280  -23.3340   22.3690 N   0  0  2  0  0  4  0  0  0  0  0  0
  -30.7820  -23.2280   21.8420 H   0  0  0  0  0  0  0  0  0  0  0  0
  -27.7250  -27.1230   19.8300 O   0  0  0  0  0  0  0  0  0  0  0  0
  -24.4880  -32.2660   23.5750 C   0  0  0  0  0  0  0  0  0  0  0  0
  -26.6330  -27.9300   20.0310 C   0  0  0  0  0  0  0  0  0  0  0  0
  -23.0770  -31.0450   21.9480 C   0  0  0  0  0  3  0  0  0  0  0  0
  -24.3240  -29.5250   20.3270 C   0  0  0  0  0  0  0  0  0  0  0  0
  -25.5900  -31.2900   21.5700 C   0  0  0  0  0  2  0  0  0  0  0  0
  -25.5470  -29.9590   20.8520 C   0  0  0  0  0  0  0  0  0  0  0  0
  -26.7050  -29.1710   20.7040 C   0  0  0  0  0  3  0  0  0  0  0  0
  -25.3960  -27.5020   19.5090 C   0  0  0  0  0  3  0  0  0  0  0  0
  -24.2400  -28.2930   19.6550 C   0  0  0  0  0  3  0  0  0  0  0  0
  -23.1400  -30.4430   20.5190 C   0  0  0  0  0  2  0  0  0  0  0  0
  -24.4090  -31.5420   22.4230 N   0  0  0  0  0  0  0  0  0  0  0  0
  -23.4710  -32.5620   24.2170 O   0  0  0  0  0  0  0  0  0  0  0  0
  -22.4390  -30.0030   22.8930 C   0  0  0  0  0  0  0  0  0  0  0  0
  -21.1550  -29.6910   22.6570 N   0  0  0  0  0  0  0  0  0  0  0  0
  -23.1000  -29.4740   23.7910 O   0  0  0  0  0  0  0  0  0  0  0  0
  -20.6800  -30.1760   21.9070 H   0  0  0  0  0  0  0  0  0  0  0  0
  -17.9460  -28.0360   22.7510 C   0  0  0  0  0  0  0  0  0  0  0  0
  -20.3590  -28.7090   23.3920 C   0  0  0  0  0  3  0  0  0  0  0  0
  -20.7550  -27.2660   23.0040 C   0  0  0  0  0  2  0  0  0  0  0  0
  -19.9000  -26.6910   21.8700 C   0  0  0  0  0  2  0  0  0  0  0  0
  -18.4200  -26.6770   22.2650 C   0  0  0  0  0  2  0  0  0  0  0  0
  -18.8590  -28.9960   23.2640 C   0  0  0  0  0  0  0  0  0  0  0  0
  -18.3710  -30.2580   23.6690 C   0  0  0  0  0  3  0  0  0  0  0  0
  -17.0000  -30.5650   23.5690 C   0  0  0  0  0  3  0  0  0  0  0  0
  -16.1000  -29.6060   23.0750 C   0  0  0  0  0  3  0  0  0  0  0  0
  -16.5720  -28.3440   22.6720 C   0  0  0  0  0  3  0  0  0  0  0  0
  -25.8560  -32.7780   24.1270 C   0  0  0  0  0  3  0  0  0  0  0  0
  -25.6770  -34.1830   24.5170 N   0  0  0  0  0  0  0  0  0  0  0  0
  -26.1350  -35.2290   23.8160 C   0  0  0  0  0  0  0  0  0  0  0  0
  -26.8250  -35.1040   22.7990 O   0  0  0  0  0  0  0  0  0  0  0  0
  -25.0710  -34.3610   25.3040 H   0  0  0  0  0  0  0  0  0  0  0  0
  -24.6420  -37.2220   23.4600 C   0  0  0  0  0  1  0  0  0  0  0  0
  -25.7720  -36.6370   24.3240 C   0  0  0  0  0  3  0  0  0  0  0  0
  -27.9450  -37.2050   25.3150 C   0  0  0  0  0  1  0  0  0  0  0  0
  -26.9190  -37.5700   24.3420 N   0  0  0  0  0  0  0  0  0  0  0  0
  -26.6100  -38.5170   24.5490 H   0  0  0  0  0  0  0  0  0  0  0  0
  -26.3940  -31.9230   25.3400 C   0  0  1  0  0  0  0  0  0  0  0  0
  -25.3230  -31.6230   26.4130 C   0  0  0  0  0  1  0  0  0  0  0  0
  -26.9620  -30.5700   24.8470 C   0  0  0  0  0  1  0  0  0  0  0  0
  -27.5640  -32.6680   26.0270 C   0  0  0  0  0  1  0  0  0  0  0  0
  2  3  1  0
  3  9  2  0
  4  9  1  0
  5  8  1  0
  6 10  2  0
  6 11  1  0
  7  2  2  0
  7  8  1  0
  8  4  2  0
  9  1  1  0
 10  7  1  0
 11  5  2  0
 12 10  1  0
 13 19  1  0
 13 21  1  0
 14 19  1  0
 15 16  1  0
 15 14  1  0
 17 16  1  0
 17 26  1  0
 17 18  1  0
 19 18  1  0
 20 13  2  0
 21 11  1  0
 21 22  1  0
 23 24  2  0
 24 43  1  0
 25 28  1  0
 25 24  1  0
 26 27  1  0
 26 23  1  0
 27 25  2  0
 28 29  1  0
 29 30  2  0
 31 34  1  0
 31 30  1  0
 32 31  2  0
 33 32  1  0
 33 28  2  0
 34 35  1  0
 35 40  2  0
 35 36  1  0
 36 37  2  0
 37 38  1  0
 38 42  1  0
 39 38  2  0
 40 39  1  0
 41 40  1  0
 43 44  1  0
 44 46  1  0
 44 47  1  0
 45 43  2  0
 48 23  1  0
 48 49  1  0
 50 48  1  0
 51 53  1  0
 52 51  2  0
 53 55  1  0
 54 51  1  0
 54 56  1  0
 56 57  1  0
 57 55  1  0
 57  1  1  0
 57 58  1  6
 59 61  1  0
 59 52  1  0
 60 71  2  0
 61 66  1  0
 62 70  1  0
 62 72  1  0
 63 69  1  0
 63 65  1  0
 64 70  1  0
 65 64  1  0
 66 65  2  0
 67 68  1  0
 67 61  2  0
 68 63  2  0
 69 62  1  0
 70 60  1  0
 72 74  2  0
 73 72  1  0
 75 73  1  0
 76 81  1  0
 77 73  1  0
 78 77  1  0
 79 80  1  0
 79 78  1  0
 80 76  1  0
 81 77  1  0
 81 82  2  0
 83 82  1  0
 84 83  2  0
 85 76  2  0
 85 84  1  0
 86 60  1  0
 86 87  1  0
 86 96  1  0
 87 90  1  0
 88 92  1  0
 88 87  1  0
 89 88  2  0
 92 91  1  0
 92 94  1  0
 94 95  1  0
 94 93  1  0
 96 99  1  1
 96 97  1  0
 98 96  1  0
M  ISO  4  13 100  21 100  52 101  59 101
M  END
>  <TORSDO>  (83) 
F 18

>  <SCORE>  (83) 
-11.442

>  <name>  (83) 
82

>  <ligand_id>  (83) 
82

>  <original_smiles>  (83) 
[H]C(Oc1c([H])c([H])c2c(c1[H])C([H])([H])N(C(=O)C([H])(N([H])C(=O)C([H])(N([H])C([H])([H])[H])C([H])([H])[H])C(C([H])([H])[H])(C([H])([H])[H])C([H])([H])[H])C([H])(C(=O)N([H])C1([H])c3c([H])c([H])c([H])c([H])c3C([H])([H])C([H])([H])C1([H])[H])C2([H])[H])=C1C([H])([H])C([H])([H])[N+]([H])(C([H])([H])c2c([H])c([H])c3c(C([H])([H])[H])c([H])c(N([H])C(=O)N4C([H])([H])C([H])([H])C([H])([H])C([H])(n5nc(-c6c([H])c([H])c(Oc7c([H])c([H])c(F)c([H])c7F)c([H])c6[H])c(C(=O)N([H])[H])c5N([H])[H])C4([H])[H])c([H])c3c2[H])C([H])([H])C1([H])[H]

>  <smiles>  (83) 
[H]C(Oc1c([H])c([H])c2c(c1[H])C([H])([H])N(C(=O)C([H])(N([H])C(=O)C([H])(N([H])C([H])([H])[H])C([H])([H])[H])C(C([H])([H])[H])(C([H])([H])[H])C([H])([H])[H])C([H])(C(=O)N([H])C1([H])c3c([H])c([H])c([H])c([H])c3C([H])([H])C([H])([H])C1([H])[H])C2([H])[H])=C1C([H])([H])C([H])([H])[N+]([H])(C([H])([H])c2c([H])c([H])c3c(C([H])([H])[H])c([H])c(N([H])C(=O)N4C([H])([H])C([H])([H])C([H])([H])C([H])(n5nc(-c6c([H])c([H])c(Oc7c([H])c([H])c(F)c([H])c7F)c([H])c6[H])c(C(=O)N([H])[H])c5N([H])[H])C4([H])[H])c([H])c3c2[H])C([H])([H])C1([H])[H]

$$$$
83:0:0
     RDKit          3D

 92101  0  0  1  0  0  0  0  0999 V2000
  -28.7240  -22.7220   21.8620 C   0  0  0  0  0  0  0  0  0  0  0  0
  -27.4570  -23.5730   21.9800 C   0  0  0  0  0  2  0  0  0  0  0  0
  -26.8660  -23.5060   20.5710 C   0  0  0  0  0  2  0  0  0  0  0  0
  -28.1530  -23.3340   19.7700 C   0  0  0  0  0  3  0  0  0  0  0  0
  -28.9220  -22.2480   20.6050 N   0  0  0  0  0  0  0  0  0  0  0  0
  -29.4640  -22.5520   22.8350 O   0  0  0  0  0  0  0  0  0  0  0  0
  -29.5570  -19.8760   21.5390 C   0  0  0  0  0  3  0  0  0  0  0  0
  -29.2410  -19.8820   19.2310 C   0  0  0  0  0  3  0  0  0  0  0  0
  -29.9130  -18.4810   21.5020 C   0  0  0  0  0  3  0  0  0  0  0  0
  -29.5510  -18.4340   19.2030 C   0  0  0  0  0  3  0  0  0  0  0  0
  -29.2280  -20.7190   20.4160 C   0  0  0  0  0  0  0  0  0  0  0  0
  -29.9560  -17.6330   20.3490 C   0  0  0  0  0  0  0  0  0  0  0  0
  -30.7590  -15.0560   19.6870 C   0  0  0  0  0  0  0  0  0  0  0  0
  -30.4840  -12.7210   18.7210 C   0  0  0  0  0  2  0  0  0  0  0  0
  -29.4630  -12.7480   17.5560 C   0  0  0  0  0  2  0  0  0  0  0  0
  -28.0390  -12.5200   18.1050 C   0  0  0  0  0  2  0  0  0  0  0  0
  -27.7420  -13.4260   19.3330 C   0  0  0  0  0  3  0  0  0  0  0  0
  -28.8900  -13.4110   20.3680 C   0  0  0  0  0  2  0  0  0  0  0  0
  -30.1260  -13.8090   19.6740 N   0  0  0  0  0  0  0  0  0  0  0  0
  -31.8200  -15.1590   19.0530 O   0  0  0  0  0  0  0  0  0  0  0  0
  -30.6530  -15.7340   21.9040 C   0  0  0  0  0  1  0  0  0  0  0  0
  -30.2880  -16.1130   20.5190 N   0  0  0  0  0  0  0  0  0  0  0  0
  -25.4850  -14.0040   20.4150 C   0  0  0  0  0  0  0  0  0  0  0  0
  -24.4440  -13.2320   20.8480 C   0  0  0  0  0  0  0  0  0  0  0  0
  -24.8470  -11.8770   20.6290 C   0  0  0  0  0  0  0  0  0  0  0  0
  -26.4560  -13.1270   19.9590 N   0  0  0  0  0  0  0  0  0  0  0  0
  -26.0850  -11.8330   20.1500 N   0  0  0  0  0  0  0  0  0  0  0  0
  -24.1010  -10.6240   20.7960 C   0  0  0  0  0  0  0  0  0  0  0  0
  -24.5390   -9.6100   21.6790 C   0  0  0  0  0  3  0  0  0  0  0  0
  -23.7940   -8.4200   21.8260 C   0  0  0  0  0  3  0  0  0  0  0  0
  -22.5930   -8.2400   21.0970 C   0  0  0  0  0  0  0  0  0  0  0  0
  -22.1740   -9.2440   20.2040 C   0  0  0  0  0  3  0  0  0  0  0  0
  -22.9210  -10.4230   20.0520 C   0  0  0  0  0  3  0  0  0  0  0  0
  -21.8160   -7.1080   21.1610 O   0  0  0  0  0  0  0  0  0  0  0  0
  -21.6860   -6.3900   22.3230 C   0  0  0  0  0  0  0  0  0  0  0  0
  -21.1920   -6.9740   23.5110 C   0  0  0  0  0  3  0  0  0  0  0  0
  -21.0040   -6.1800   24.6610 C   0  0  0  0  0  3  0  0  0  0  0  0
  -21.3090   -4.8060   24.6250 C   0  0  0  0  0  0  0  0  0  0  0  0
  -21.7970   -4.2220   23.4440 C   0  0  0  0  0  3  0  0  0  0  0  0
  -21.9810   -5.0130   22.2950 C   0  0  0  0  0  0  0  0  0  0  0  0
  -22.4300   -4.4380   21.1530 F   0  0  0  0  0  0  0  0  0  0  0  0
  -21.1280   -4.0440   25.7290 F   0  0  0  0  0  0  0  0  0  0  0  0
  -23.1110  -13.7200   21.3390 C   0  0  0  0  0  0  0  0  0  0  0  0
  -22.4790  -12.9810   22.2430 N   0  0  0  0  0  0  0  0  0  0  0  0
  -22.6470  -14.7930   20.9560 O   0  0  0  0  0  0  0  0  0  0  0  0
  -22.8680  -12.1130   22.5810 H   0  0  0  0  0  0  0  0  0  0  0  0
  -21.5880  -13.2890   22.6050 H   0  0  0  0  0  0  0  0  0  0  0  0
  -25.6830  -15.3820   20.3460 N   0  0  0  0  0  0  0  0  0  0  0  0
  -24.9820  -16.0440   20.6610 H   0  0  0  0  0  0  0  0  0  0  0  0
  -26.5050  -15.8300   19.9610 H   0  0  0  0  0  0  0  0  0  0  0  0
  -28.6970  -24.9130   19.4500 C   0  0  0  0  0  2  0  0  0  0  0  0
  -28.5300  -26.3090   20.1260 O   0  0  0  0  0  0  0  0  0  0  0  0
  -24.7120  -31.8070   23.1520 C   0  0  0  0  0  0  0  0  0  0  0  0
  -27.4440  -27.2460   20.0100 C   0  0  0  0  0  0  0  0  0  0  0  0
  -23.5650  -30.4030   21.4740 C   0  0  0  0  0  3  0  0  0  0  0  0
  -25.0670  -28.9190   20.0060 C   0  0  0  0  0  0  0  0  0  0  0  0
  -26.1100  -30.7530   21.3420 C   0  0  0  0  0  2  0  0  0  0  0  0
  -26.2260  -29.3920   20.6310 C   0  0  0  0  0  0  0  0  0  0  0  0
  -27.4100  -28.5650   20.6270 C   0  0  0  0  0  3  0  0  0  0  0  0
  -26.2590  -26.8750   19.3460 C   0  0  0  0  0  3  0  0  0  0  0  0
  -25.1000  -27.6770   19.3480 C   0  0  0  0  0  3  0  0  0  0  0  0
  -23.8130  -29.7770   20.0740 C   0  0  0  0  0  2  0  0  0  0  0  0
  -24.8110  -31.0110   22.0400 N   0  0  0  0  0  0  0  0  0  0  0  0
  -23.6170  -32.0390   23.6870 O   0  0  0  0  0  0  0  0  0  0  0  0
  -22.9330  -29.3420   22.4100 C   0  0  0  0  0  0  0  0  0  0  0  0
  -21.6210  -29.0960   22.2620 N   0  0  0  0  0  0  0  0  0  0  0  0
  -23.6280  -28.7440   23.2340 O   0  0  0  0  0  0  0  0  0  0  0  0
  -21.1100  -29.6390   21.5790 H   0  0  0  0  0  0  0  0  0  0  0  0
  -18.3140  -27.6860   22.7230 C   0  0  0  0  0  0  0  0  0  0  0  0
  -20.8490  -28.1060   23.0180 C   0  0  0  0  0  3  0  0  0  0  0  0
  -21.0390  -26.6830   22.4430 C   0  0  0  0  0  2  0  0  0  0  0  0
  -19.9730  -26.2990   21.4110 C   0  0  0  0  0  2  0  0  0  0  0  0
  -18.5770  -26.3570   22.0380 C   0  0  0  0  0  2  0  0  0  0  0  0
  -19.3810  -28.5150   23.1670 C   0  0  0  0  0  0  0  0  0  0  0  0
  -19.0790  -29.7570   23.7660 C   0  0  0  0  0  3  0  0  0  0  0  0
  -17.7470  -30.1750   23.9230 C   0  0  0  0  0  3  0  0  0  0  0  0
  -16.6940  -29.3500   23.4830 C   0  0  0  0  0  3  0  0  0  0  0  0
  -16.9810  -28.1040   22.8940 C   0  0  0  0  0  3  0  0  0  0  0  0
  -25.9690  -32.4820   23.7880 C   0  0  0  0  0  3  0  0  0  0  0  0
  -25.6110  -33.8690   24.1290 N   0  0  0  0  0  0  0  0  0  0  0  0
  -25.8920  -34.9410   23.3740 C   0  0  0  0  0  0  0  0  0  0  0  0
  -26.5430  -34.8680   22.3300 O   0  0  0  0  0  0  0  0  0  0  0  0
  -25.0490  -34.0020   24.9570 H   0  0  0  0  0  0  0  0  0  0  0  0
  -24.0850  -36.6570   23.0480 C   0  0  0  0  0  1  0  0  0  0  0  0
  -25.3550  -36.3080   23.8440 C   0  0  0  0  0  3  0  0  0  0  0  0
  -27.4610  -37.2640   24.6550 C   0  0  0  0  0  1  0  0  0  0  0  0
  -26.3430  -37.4020   23.7260 N   0  0  0  0  0  0  0  0  0  0  0  0
  -25.9070  -38.3050   23.8940 H   0  0  0  0  0  0  0  0  0  0  0  0
  -26.5060  -31.7310   25.0690 C   0  0  1  0  0  0  0  0  0  0  0  0
  -25.4100  -31.4240   26.1130 C   0  0  0  0  0  1  0  0  0  0  0  0
  -27.1720  -30.3850   24.6980 C   0  0  0  0  0  1  0  0  0  0  0  0
  -27.6110  -32.5790   25.7450 C   0  0  0  0  0  1  0  0  0  0  0  0
  1  2  1  0
  1  6  2  0
  3  2  1  0
  4 51  1  0
  4  3  1  0
  4  5  1  0
  5  1  1  0
  8 11  1  0
  9  7  1  0
 10  8  2  0
 10 12  1  0
 11  5  1  0
 11  7  2  0
 12 22  1  0
 12  9  2  0
 13 22  1  0
 14 19  1  0
 15 16  1  0
 15 14  1  0
 17 16  1  0
 17 26  1  0
 17 18  1  0
 19 13  1  0
 19 18  1  0
 20 13  2  0
 22 21  1  0
 23 24  2  0
 24 43  1  0
 25 28  1  0
 25 24  1  0
 26 27  1  0
 26 23  1  0
 27 25  2  0
 28 29  1  0
 29 30  2  0
 31 34  1  0
 31 30  1  0
 32 31  2  0
 33 32  1  0
 33 28  2  0
 34 35  1  0
 35 36  1  0
 36 37  2  0
 38 37  1  0
 38 42  1  0
 39 38  2  0
 40 35  2  0
 40 39  1  0
 41 40  1  0
 43 44  1  0
 44 46  1  0
 44 47  1  0
 45 43  2  0
 48 23  1  0
 48 49  1  0
 50 48  1  0
 51 52  1  0
 53 64  2  0
 54 52  1  0
 54 59  1  0
 55 63  1  0
 55 65  1  0
 56 62  1  0
 56 58  1  0
 57 63  1  0
 58 57  1  0
 59 58  2  0
 60 61  1  0
 60 54  2  0
 61 56  2  0
 62 55  1  0
 63 53  1  0
 65 67  2  0
 66 65  1  0
 68 66  1  0
 69 78  2  0
 69 74  1  0
 70 66  1  0
 70 74  1  0
 71 70  1  0
 72 73  1  0
 72 71  1  0
 73 69  1  0
 74 75  2  0
 75 76  1  0
 77 76  2  0
 78 77  1  0
 79 53  1  0
 79 80  1  0
 79 89  1  0
 80 83  1  0
 81 85  1  0
 81 80  1  0
 82 81  2  0
 85 84  1  0
 87 85  1  0
 87 88  1  0
 87 86  1  0
 89 92  1  1
 89 90  1  0
 91 89  1  0
M  ISO  4  13 100  22 100  51 101  52 101
M  END
>  <TORSDO>  (84) 
F 18

>  <SCORE>  (84) 
-13.878

>  <name>  (84) 
83

>  <ligand_id>  (84) 
83

>  <original_smiles>  (84) 
[H]c1c([H])c([H])c2c(c1[H])C([H])([H])C([H])([H])C([H])([H])C2([H])N([H])C(=O)C1([H])N(C(=O)C([H])(N([H])C(=O)C([H])(N([H])C([H])([H])[H])C([H])([H])[H])C(C([H])([H])[H])(C([H])([H])[H])C([H])([H])[H])C([H])([H])c2c([H])c(OC([H])([H])C3([H])N(c4c([H])c([H])c(N(C(=O)N5C([H])([H])C([H])([H])C([H])([H])C([H])(n6nc(-c7c([H])c([H])c(Oc8c([H])c([H])c(F)c([H])c8F)c([H])c7[H])c(C(=O)N([H])[H])c6N([H])[H])C5([H])[H])C([H])([H])[H])c([H])c4[H])C(=O)C([H])([H])C3([H])[H])c([H])c([H])c2C1([H])[H]

>  <smiles>  (84) 
[H]c1c([H])c([H])c2c(c1[H])C([H])([H])C([H])([H])C([H])([H])C2([H])N([H])C(=O)C1([H])N(C(=O)C([H])(N([H])C(=O)C([H])(N([H])C([H])([H])[H])C([H])([H])[H])C(C([H])([H])[H])(C([H])([H])[H])C([H])([H])[H])C([H])([H])c2c([H])c(OC([H])([H])C3([H])N(c4c([H])c([H])c(N(C(=O)N5C([H])([H])C([H])([H])C([H])([H])C([H])(n6nc(-c7c([H])c([H])c(Oc8c([H])c([H])c(F)c([H])c8F)c([H])c7[H])c(C(=O)N([H])[H])c6N([H])[H])C5([H])[H])C([H])([H])[H])c([H])c4[H])C(=O)C([H])([H])C3([H])[H])c([H])c([H])c2C1([H])[H]

$$$$
84:0:0
     RDKit          3D

 92100  0  0  1  0  0  0  0  0999 V2000
  -27.4740  -20.3630   20.5010 N   0  0  0  0  0  0  0  0  0  0  0  0
  -26.6880  -20.4300   19.8680 H   0  0  0  0  0  0  0  0  0  0  0  0
  -29.8930  -17.7100   21.6840 C   0  0  0  0  0  3  0  0  0  0  0  0
  -29.2260  -18.9520   21.5490 C   0  0  0  0  0  3  0  0  0  0  0  0
  -28.6130  -16.8160   19.8360 C   0  0  0  0  0  3  0  0  0  0  0  0
  -27.8580  -18.0150   19.7790 C   0  0  0  0  0  0  0  0  0  0  0  0
  -29.6270  -16.6230   20.8070 C   0  0  0  0  0  0  0  0  0  0  0  0
  -28.1840  -19.1370   20.6040 C   0  0  0  0  0  0  0  0  0  0  0  0
  -26.6700  -18.0540   18.8160 C   0  0  0  0  0  1  0  0  0  0  0  0
  -30.8070  -14.4990   20.0730 C   0  0  0  0  0  0  0  0  0  0  0  0
  -30.4640  -12.3590   18.8470 C   0  0  0  0  0  2  0  0  0  0  0  0
  -29.4490  -12.5540   17.6940 C   0  0  0  0  0  2  0  0  0  0  0  0
  -27.9950  -12.4300   18.1960 C   0  0  0  0  0  2  0  0  0  0  0  0
  -27.7510  -13.2280   19.5050 C   0  0  0  0  0  3  0  0  0  0  0  0
  -28.8570  -12.9710   20.5480 C   0  0  0  0  0  2  0  0  0  0  0  0
  -30.1410  -13.3100   19.9260 N   0  0  0  0  0  0  0  0  0  0  0  0
  -31.8310  -14.7550   19.4300 O   0  0  0  0  0  0  0  0  0  0  0  0
  -30.3120  -15.3680   20.9990 N   0  0  0  0  0  0  0  0  0  0  0  0
  -30.7340  -15.2610   21.9100 H   0  0  0  0  0  0  0  0  0  0  0  0
  -25.4440  -13.8890   20.3980 C   0  0  0  0  0  0  0  0  0  0  0  0
  -24.3730  -13.1430   20.8150 C   0  0  0  0  0  0  0  0  0  0  0  0
  -24.7800  -11.7800   20.7010 C   0  0  0  0  0  0  0  0  0  0  0  0
  -26.4270  -12.9770   20.0610 N   0  0  0  0  0  0  0  0  0  0  0  0
  -26.0400  -11.7010   20.2990 N   0  0  0  0  0  0  0  0  0  0  0  0
  -24.0250  -10.5380   20.9070 C   0  0  0  0  0  0  0  0  0  0  0  0
  -24.4220   -9.5850   21.8710 C   0  0  0  0  0  3  0  0  0  0  0  0
  -23.6730   -8.4040   22.0560 C   0  0  0  0  0  3  0  0  0  0  0  0
  -22.5150   -8.1710   21.2790 C   0  0  0  0  0  0  0  0  0  0  0  0
  -22.1410   -9.1100   20.3000 C   0  0  0  0  0  3  0  0  0  0  0  0
  -22.8900  -10.2830   20.1140 C   0  0  0  0  0  3  0  0  0  0  0  0
  -21.7370   -7.0420   21.3730 O   0  0  0  0  0  0  0  0  0  0  0  0
  -21.5540   -6.3910   22.5660 C   0  0  0  0  0  0  0  0  0  0  0  0
  -20.9990   -7.0420   23.6880 C   0  0  0  0  0  3  0  0  0  0  0  0
  -20.7650   -6.3180   24.8740 C   0  0  0  0  0  3  0  0  0  0  0  0
  -21.0740   -4.9470   24.9360 C   0  0  0  0  0  0  0  0  0  0  0  0
  -21.6210   -4.2980   23.8160 C   0  0  0  0  0  3  0  0  0  0  0  0
  -21.8580   -5.0180   22.6330 C   0  0  0  0  0  0  0  0  0  0  0  0
  -22.3680   -4.3820   21.5500 F   0  0  0  0  0  0  0  0  0  0  0  0
  -20.8400   -4.2490   26.0720 F   0  0  0  0  0  0  0  0  0  0  0  0
  -23.0230  -13.6610   21.2070 C   0  0  0  0  0  0  0  0  0  0  0  0
  -22.3510  -12.9790   22.1280 N   0  0  0  0  0  0  0  0  0  0  0  0
  -22.5740  -14.7080   20.7360 O   0  0  0  0  0  0  0  0  0  0  0  0
  -22.7260  -12.1360   22.5390 H   0  0  0  0  0  0  0  0  0  0  0  0
  -21.4500  -13.3150   22.4330 H   0  0  0  0  0  0  0  0  0  0  0  0
  -25.6460  -15.2530   20.2640 N   0  0  0  0  0  0  0  0  0  0  0  0
  -24.9350  -15.9470   20.4750 H   0  0  0  0  0  0  0  0  0  0  0  0
  -26.5250  -15.6750   19.9990 H   0  0  0  0  0  0  0  0  0  0  0  0
  -28.0310  -21.6370   21.0140 C   0  0  0  0  0  2  0  0  0  0  0  0
  -27.2580  -22.9120   20.5350 C   0  0  0  0  0  2  0  0  0  0  0  0
  -27.7310  -24.3130   21.0400 C   0  0  0  0  0  2  0  0  0  0  0  0
  -28.4270  -25.1720   19.9120 C   0  0  0  0  0  2  0  0  0  0  0  0
  -28.5220  -26.6240   20.0590 O   0  0  0  0  0  0  0  0  0  0  0  0
  -24.5780  -31.6990   23.0410 C   0  0  0  0  0  0  0  0  0  0  0  0
  -27.3740  -27.3920   19.9330 C   0  0  0  0  0  0  0  0  0  0  0  0
  -23.4440  -30.2850   21.3680 C   0  0  0  0  0  3  0  0  0  0  0  0
  -24.9630  -28.8670   19.9010 C   0  0  0  0  0  0  0  0  0  0  0  0
  -25.9530  -30.7700   21.1720 C   0  0  0  0  0  2  0  0  0  0  0  0
  -26.1020  -29.4150   20.5040 C   0  0  0  0  0  0  0  0  0  0  0  0
  -27.3150  -28.6840   20.5170 C   0  0  0  0  0  3  0  0  0  0  0  0
  -26.2230  -26.8930   19.2840 C   0  0  0  0  0  3  0  0  0  0  0  0
  -25.0220  -27.6090   19.2830 C   0  0  0  0  0  3  0  0  0  0  0  0
  -23.6840  -29.6660   19.9700 C   0  0  0  0  0  2  0  0  0  0  0  0
  -24.6800  -30.9270   21.9240 N   0  0  0  0  0  0  0  0  0  0  0  0
  -23.4830  -31.8980   23.5820 O   0  0  0  0  0  0  0  0  0  0  0  0
  -22.8350  -29.2120   22.2920 C   0  0  0  0  0  0  0  0  0  0  0  0
  -21.5130  -29.0060   22.1820 N   0  0  0  0  0  0  0  0  0  0  0  0
  -23.5480  -28.5790   23.0730 O   0  0  0  0  0  0  0  0  0  0  0  0
  -20.9870  -29.6140   21.5700 H   0  0  0  0  0  0  0  0  0  0  0  0
  -18.2130  -27.6110   22.6750 C   0  0  0  0  0  0  0  0  0  0  0  0
  -20.7580  -27.9870   22.9170 C   0  0  0  0  0  3  0  0  0  0  0  0
  -20.9340  -26.5970   22.2740 C   0  0  0  0  0  2  0  0  0  0  0  0
  -19.8100  -26.2380   21.2970 C   0  0  0  0  0  2  0  0  0  0  0  0
  -18.4470  -26.2770   21.9800 C   0  0  0  0  0  2  0  0  0  0  0  0
  -19.2970  -28.4120   23.1230 C   0  0  0  0  0  0  0  0  0  0  0  0
  -19.0190  -29.6350   23.7820 C   0  0  0  0  0  3  0  0  0  0  0  0
  -17.6970  -30.0600   24.0000 C   0  0  0  0  0  3  0  0  0  0  0  0
  -16.6300  -29.2760   23.5340 C   0  0  0  0  0  3  0  0  0  0  0  0
  -16.8860  -28.0580   22.8810 C   0  0  0  0  0  3  0  0  0  0  0  0
  -25.8250  -32.3780   23.6800 C   0  0  0  0  0  3  0  0  0  0  0  0
  -25.4430  -33.7500   24.0460 N   0  0  0  0  0  0  0  0  0  0  0  0
  -25.7210  -34.8380   23.3160 C   0  0  0  0  0  0  0  0  0  0  0  0
  -26.3890  -34.7980   22.2800 O   0  0  0  0  0  0  0  0  0  0  0  0
  -24.8560  -33.8520   24.8620 H   0  0  0  0  0  0  0  0  0  0  0  0
  -23.8900  -36.5340   23.0200 C   0  0  0  0  0  1  0  0  0  0  0  0
  -25.1600  -36.1840   23.8130 C   0  0  0  0  0  3  0  0  0  0  0  0
  -27.2490  -37.1650   24.6480 C   0  0  0  0  0  1  0  0  0  0  0  0
  -26.1310  -37.2960   23.7160 N   0  0  0  0  0  0  0  0  0  0  0  0
  -25.6770  -38.1890   23.8910 H   0  0  0  0  0  0  0  0  0  0  0  0
  -26.3930  -31.5970   24.9250 C   0  0  1  0  0  0  0  0  0  0  0  0
  -25.3230  -31.2620   25.9890 C   0  0  0  0  0  1  0  0  0  0  0  0
  -27.0470  -30.2700   24.4780 C   0  0  0  0  0  1  0  0  0  0  0  0
  -27.5040  -32.4280   25.6040 C   0  0  0  0  0  1  0  0  0  0  0  0
  1  8  1  0
  1 48  1  0
  2  1  1  0
  4  3  1  0
  5  7  1  0
  6  5  2  0
  6  8  1  0
  7 18  1  0
  7  3  2  0
  8  4  2  0
  9  6  1  0
 10 18  1  0
 11 16  1  0
 12 13  1  0
 12 11  1  0
 14 13  1  0
 14 23  1  0
 14 15  1  0
 16 10  1  0
 16 15  1  0
 17 10  2  0
 18 19  1  0
 20 21  2  0
 21 40  1  0
 22 21  1  0
 22 25  1  0
 23 24  1  0
 23 20  1  0
 24 22  2  0
 25 26  1  0
 26 27  2  0
 28 31  1  0
 28 27  1  0
 29 28  2  0
 30 29  1  0
 30 25  2  0
 31 32  1  0
 32 37  2  0
 32 33  1  0
 33 34  2  0
 34 35  1  0
 35 39  1  0
 36 35  2  0
 37 36  1  0
 38 37  1  0
 40 41  1  0
 41 44  1  0
 41 43  1  0
 42 40  2  0
 45 20  1  0
 45 46  1  0
 47 45  1  0
 49 48  1  0
 49 50  1  0
 51 52  1  0
 51 50  1  0
 53 64  2  0
 54 52  1  0
 54 59  1  0
 55 63  1  0
 55 65  1  0
 56 62  1  0
 56 58  1  0
 57 63  1  0
 58 59  2  0
 58 57  1  0
 60 54  2  0
 61 60  1  0
 61 56  2  0
 62 55  1  0
 63 53  1  0
 65 67  2  0
 66 65  1  0
 68 66  1  0
 69 78  2  0
 69 74  1  0
 70 66  1  0
 70 74  1  0
 71 70  1  0
 72 73  1  0
 72 71  1  0
 73 69  1  0
 74 75  2  0
 75 76  1  0
 77 76  2  0
 78 77  1  0
 79 53  1  0
 79 80  1  0
 79 89  1  0
 80 83  1  0
 81 85  1  0
 81 80  1  0
 82 81  2  0
 85 84  1  0
 87 85  1  0
 87 88  1  0
 87 86  1  0
 89 92  1  1
 89 90  1  0
 91 89  1  0
M  ISO  4  10 100  18 100  51 101  52 101
M  END
>  <TORSDO>  (85) 
F 21

>  <SCORE>  (85) 
-11.691

>  <name>  (85) 
84

>  <ligand_id>  (85) 
84

>  <original_smiles>  (85) 
[H]c1c([H])c([H])c2c(c1[H])C([H])([H])C([H])([H])C([H])([H])C2([H])N([H])C(=O)C1([H])N(C(=O)C([H])(N([H])C(=O)C([H])(N([H])C([H])([H])[H])C([H])([H])[H])C(C([H])([H])[H])(C([H])([H])[H])C([H])([H])[H])C([H])([H])c2c([H])c(OC([H])([H])C([H])([H])C([H])([H])C([H])([H])N([H])c3c([H])c([H])c(N([H])C(=O)N4C([H])([H])C([H])([H])C([H])([H])C([H])(n5nc(-c6c([H])c([H])c(Oc7c([H])c([H])c(F)c([H])c7F)c([H])c6[H])c(C(=O)N([H])[H])c5N([H])[H])C4([H])[H])c([H])c3C([H])([H])[H])c([H])c([H])c2C1([H])[H]

>  <smiles>  (85) 
[H]c1c([H])c([H])c2c(c1[H])C([H])([H])C([H])([H])C([H])([H])C2([H])N([H])C(=O)C1([H])N(C(=O)C([H])(N([H])C(=O)C([H])(N([H])C([H])([H])[H])C([H])([H])[H])C(C([H])([H])[H])(C([H])([H])[H])C([H])([H])[H])C([H])([H])c2c([H])c(OC([H])([H])C([H])([H])C([H])([H])C([H])([H])N([H])c3c([H])c([H])c(N([H])C(=O)N4C([H])([H])C([H])([H])C([H])([H])C([H])(n5nc(-c6c([H])c([H])c(Oc7c([H])c([H])c(F)c([H])c7F)c([H])c6[H])c(C(=O)N([H])[H])c5N([H])[H])C4([H])[H])c([H])c3C([H])([H])[H])c([H])c([H])c2C1([H])[H]

$$$$
85:0:0
     RDKit          3D

 95104  0  0  1  0  0  0  0  0999 V2000
  -29.8670  -24.3330   18.8660 C   0  0  0  0  0  3  0  0  0  0  0  0
  -29.0810  -23.9940   19.9060 C   0  0  0  0  0  0  0  0  0  0  0  0
  -30.7480  -23.3580   18.2200 C   0  0  0  0  0  0  0  0  0  0  0  0
  -31.0010  -22.0190   18.9210 C   0  0  0  0  0  2  0  0  0  0  0  0
  -29.0410  -22.5070   20.4550 C   0  0  0  0  0  3  0  0  0  0  0  0
  -29.4450  -22.4820   21.9390 C   0  0  0  0  0  1  0  0  0  0  0  0
  -29.8710  -21.4990   19.7050 N   0  0  0  0  0  0  0  0  0  0  0  0
  -31.3070  -23.5910   17.1450 O   0  0  0  0  0  0  0  0  0  0  0  0
  -31.0680  -19.2780   19.7770 C   0  0  0  0  0  3  0  0  0  0  0  0
  -31.1010  -17.8620   19.9410 C   0  0  0  0  0  3  0  0  0  0  0  0
  -28.7430  -19.3270   20.3500 C   0  0  0  0  0  3  0  0  0  0  0  0
  -29.8890  -20.0690   19.9540 C   0  0  0  0  0  0  0  0  0  0  0  0
  -29.9430  -17.1330   20.3040 C   0  0  0  0  0  0  0  0  0  0  0  0
  -28.7690  -17.9080   20.5140 C   0  0  0  0  0  0  0  0  0  0  0  0
  -27.6290  -17.2640   20.8640 F   0  0  0  0  0  0  0  0  0  0  0  0
  -30.6220  -14.6430   20.0080 C   0  0  0  0  0  0  0  0  0  0  0  0
  -30.3250  -12.4450   18.8890 C   0  0  0  0  0  2  0  0  0  0  0  0
  -29.2980  -12.6230   17.7490 C   0  0  0  0  0  2  0  0  0  0  0  0
  -27.8580  -12.4590   18.2750 C   0  0  0  0  0  2  0  0  0  0  0  0
  -27.5950  -13.2760   19.5680 C   0  0  0  0  0  3  0  0  0  0  0  0
  -28.7290  -13.0720   20.5980 C   0  0  0  0  0  2  0  0  0  0  0  0
  -29.9970  -13.4260   19.9430 N   0  0  0  0  0  0  0  0  0  0  0  0
  -31.7530  -14.8060   19.5370 O   0  0  0  0  0  0  0  0  0  0  0  0
  -29.8590  -15.6820   20.4690 N   0  0  0  0  0  0  0  0  0  0  0  0
  -28.9830  -15.3810   20.8690 H   0  0  0  0  0  0  0  0  0  0  0  0
  -25.2600  -13.8570   20.4740 C   0  0  0  0  0  0  0  0  0  0  0  0
  -24.2180  -13.0740   20.8880 C   0  0  0  0  0  0  0  0  0  0  0  0
  -24.6680  -11.7230   20.7780 C   0  0  0  0  0  0  0  0  0  0  0  0
  -26.2820  -12.9820   20.1370 N   0  0  0  0  0  0  0  0  0  0  0  0
  -25.9350  -11.6920   20.3780 N   0  0  0  0  0  0  0  0  0  0  0  0
  -23.9500  -10.4580   20.9740 C   0  0  0  0  0  0  0  0  0  0  0  0
  -24.3930   -9.4930   21.9040 C   0  0  0  0  0  3  0  0  0  0  0  0
  -23.6750   -8.2920   22.0880 C   0  0  0  0  0  3  0  0  0  0  0  0
  -22.4980   -8.0480   21.3400 C   0  0  0  0  0  0  0  0  0  0  0  0
  -22.0730   -9.0010   20.3990 C   0  0  0  0  0  3  0  0  0  0  0  0
  -22.7930  -10.1940   20.2130 C   0  0  0  0  0  3  0  0  0  0  0  0
  -21.7510   -6.8990   21.4340 O   0  0  0  0  0  0  0  0  0  0  0  0
  -21.6550   -6.1950   22.6080 C   0  0  0  0  0  0  0  0  0  0  0  0
  -21.1460   -6.7810   23.7870 C   0  0  0  0  0  3  0  0  0  0  0  0
  -20.9990   -6.0020   24.9520 C   0  0  0  0  0  3  0  0  0  0  0  0
  -21.3510   -4.6390   24.9390 C   0  0  0  0  0  0  0  0  0  0  0  0
  -21.8530   -4.0530   23.7640 C   0  0  0  0  0  3  0  0  0  0  0  0
  -22.0010   -4.8290   22.6000 C   0  0  0  0  0  0  0  0  0  0  0  0
  -22.4660   -4.2550   21.4650 F   0  0  0  0  0  0  0  0  0  0  0  0
  -21.2040   -3.8890   26.0560 F   0  0  0  0  0  0  0  0  0  0  0  0
  -22.8450  -13.5460   21.2750 C   0  0  0  0  0  0  0  0  0  0  0  0
  -22.1760  -12.8210   22.1650 N   0  0  0  0  0  0  0  0  0  0  0  0
  -22.3780  -14.5920   20.8270 O   0  0  0  0  0  0  0  0  0  0  0  0
  -22.5680  -11.9740   22.5500 H   0  0  0  0  0  0  0  0  0  0  0  0
  -21.2590  -13.1190   22.4670 H   0  0  0  0  0  0  0  0  0  0  0  0
  -25.4190  -15.2330   20.3400 N   0  0  0  0  0  0  0  0  0  0  0  0
  -24.6750  -15.8840   20.5680 H   0  0  0  0  0  0  0  0  0  0  0  0
  -26.2730  -15.6990   20.0630 H   0  0  0  0  0  0  0  0  0  0  0  0
  -28.1670  -25.0940   20.5480 C   0  0  0  0  0  2  0  0  0  0  0  0
  -28.3590  -26.4980   20.1130 O   0  0  0  0  0  0  0  0  0  0  0  0
  -24.5880  -31.8400   23.1710 C   0  0  0  0  0  0  0  0  0  0  0  0
  -27.2330  -27.3270   20.1000 C   0  0  0  0  0  0  0  0  0  0  0  0
  -23.3930  -30.4430   21.5210 C   0  0  0  0  0  3  0  0  0  0  0  0
  -24.8560  -28.9090   20.0910 C   0  0  0  0  0  0  0  0  0  0  0  0
  -25.9290  -30.7820   21.3410 C   0  0  0  0  0  2  0  0  0  0  0  0
  -26.0190  -29.4080   20.6910 C   0  0  0  0  0  0  0  0  0  0  0  0
  -27.2130  -28.6290   20.6850 C   0  0  0  0  0  3  0  0  0  0  0  0
  -26.0510  -26.8790   19.4700 C   0  0  0  0  0  3  0  0  0  0  0  0
  -24.8720  -27.6490   19.4710 C   0  0  0  0  0  3  0  0  0  0  0  0
  -23.6130  -29.7730   20.1390 C   0  0  0  0  0  2  0  0  0  0  0  0
  -24.6560  -31.0390   22.0680 N   0  0  0  0  0  0  0  0  0  0  0  0
  -23.5020  -32.1090   23.7060 O   0  0  0  0  0  0  0  0  0  0  0  0
  -22.7360  -29.4180   22.4760 C   0  0  0  0  0  0  0  0  0  0  0  0
  -21.4060  -29.2550   22.3630 N   0  0  0  0  0  0  0  0  0  0  0  0
  -23.4190  -28.7750   23.2760 O   0  0  0  0  0  0  0  0  0  0  0  0
  -20.9150  -29.8260   21.6890 H   0  0  0  0  0  0  0  0  0  0  0  0
  -18.0190  -28.1110   22.9120 C   0  0  0  0  0  0  0  0  0  0  0  0
  -20.5880  -28.3160   23.1300 C   0  0  0  0  0  3  0  0  0  0  0  0
  -20.6490  -26.8960   22.5180 C   0  0  0  0  0  2  0  0  0  0  0  0
  -19.5180  -26.6190   21.5230 C   0  0  0  0  0  2  0  0  0  0  0  0
  -18.1540  -26.7760   22.2020 C   0  0  0  0  0  2  0  0  0  0  0  0
  -19.1630  -28.8420   23.3340 C   0  0  0  0  0  0  0  0  0  0  0  0
  -18.9820  -30.0940   23.9600 C   0  0  0  0  0  3  0  0  0  0  0  0
  -17.6910  -30.6160   24.1680 C   0  0  0  0  0  3  0  0  0  0  0  0
  -16.5630  -29.8830   23.7620 C   0  0  0  0  0  3  0  0  0  0  0  0
  -16.7280  -28.6320   23.1400 C   0  0  0  0  0  3  0  0  0  0  0  0
  -25.8680  -32.4740   23.7990 C   0  0  0  0  0  3  0  0  0  0  0  0
  -25.5470  -33.8650   24.1500 N   0  0  0  0  0  0  0  0  0  0  0  0
  -25.8650  -34.9310   23.4050 C   0  0  0  0  0  0  0  0  0  0  0  0
  -26.5300  -34.8490   22.3680 O   0  0  0  0  0  0  0  0  0  0  0  0
  -24.9540  -34.0030   24.9560 H   0  0  0  0  0  0  0  0  0  0  0  0
  -24.1230  -36.7170   23.0810 C   0  0  0  0  0  1  0  0  0  0  0  0
  -25.3680  -36.3090   23.8840 C   0  0  0  0  0  3  0  0  0  0  0  0
  -27.4930  -37.2020   24.7310 C   0  0  0  0  0  1  0  0  0  0  0  0
  -26.3940  -37.3710   23.7860 N   0  0  0  0  0  0  0  0  0  0  0  0
  -25.9790  -38.2860   23.9430 H   0  0  0  0  0  0  0  0  0  0  0  0
  -26.3930  -31.6900   25.0630 C   0  0  1  0  0  0  0  0  0  0  0  0
  -25.3040  -31.4260   26.1300 C   0  0  0  0  0  1  0  0  0  0  0  0
  -26.9890  -30.3230   24.6500 C   0  0  0  0  0  1  0  0  0  0  0  0
  -27.5380  -32.4850   25.7340 C   0  0  0  0  0  1  0  0  0  0  0  0
  1  2  2  0
  2  5  1  0
  2 54  1  0
  3  1  1  0
  3  4  1  0
  4  7  1  0
  5  6  1  0
  7 12  1  0
  7  5  1  0
  8  3  2  0
  9 10  2  0
  9 12  1  0
 10 13  1  0
 11 14  1  0
 12 11  2  0
 13 24  1  0
 13 14  2  0
 14 15  1  0
 16 24  1  0
 17 22  1  0
 18 19  1  0
 18 17  1  0
 20 19  1  0
 20 29  1  0
 20 21  1  0
 22 16  1  0
 22 21  1  0
 23 16  2  0
 24 25  1  0
 26 27  2  0
 27 46  1  0
 28 27  1  0
 28 31  1  0
 29 30  1  0
 29 26  1  0
 30 28  2  0
 31 32  1  0
 32 33  2  0
 34 37  1  0
 34 33  1  0
 35 34  2  0
 36 35  1  0
 36 31  2  0
 37 38  1  0
 38 39  1  0
 39 40  2  0
 41 40  1  0
 41 45  1  0
 42 41  2  0
 43 38  2  0
 43 42  1  0
 44 43  1  0
 46 47  1  0
 47 50  1  0
 47 49  1  0
 48 46  2  0
 51 26  1  0
 51 52  1  0
 53 51  1  0
 55 54  1  0
 56 67  2  0
 57 55  1  0
 57 62  1  0
 58 66  1  0
 58 68  1  0
 59 65  1  0
 59 61  1  0
 60 66  1  0
 61 60  1  0
 62 61  2  0
 63 64  1  0
 63 57  2  0
 64 59  2  0
 65 58  1  0
 66 56  1  0
 68 70  2  0
 69 68  1  0
 71 69  1  0
 72 81  2  0
 72 77  1  0
 73 69  1  0
 73 77  1  0
 74 73  1  0
 75 76  1  0
 75 74  1  0
 76 72  1  0
 77 78  2  0
 78 79  1  0
 80 79  2  0
 81 80  1  0
 82 56  1  0
 82 83  1  0
 82 92  1  0
 83 86  1  0
 84 88  1  0
 84 83  1  0
 85 84  2  0
 88 87  1  0
 90 88  1  0
 90 91  1  0
 90 89  1  0
 92 95  1  1
 92 93  1  0
 94 92  1  0
M  ISO  4  16 100  24 100  54 101  55 101
M  END
>  <TORSDO>  (86) 
F 18

>  <SCORE>  (86) 
-14.716

>  <name>  (86) 
85

>  <ligand_id>  (86) 
85

>  <original_smiles>  (86) 
[H]C1=C(C([H])([H])Oc2c([H])c([H])c3c(c2[H])C([H])([H])N(C(=O)C([H])(N([H])C(=O)C([H])(N([H])C([H])([H])[H])C([H])([H])[H])C(C([H])([H])[H])(C([H])([H])[H])C([H])([H])[H])C([H])(C(=O)N([H])C2([H])c4c([H])c([H])c([H])c([H])c4C([H])([H])C([H])([H])C2([H])[H])C3([H])[H])C([H])(C([H])([H])[H])N(c2c([H])c([H])c(N([H])C(=O)N3C([H])([H])C([H])([H])C([H])([H])C([H])(n4nc(-c5c([H])c([H])c(Oc6c([H])c([H])c(F)c([H])c6F)c([H])c5[H])c(C(=O)N([H])[H])c4N([H])[H])C3([H])[H])c(F)c2[H])C([H])([H])C1=O

>  <smiles>  (86) 
[H]C1=C(C([H])([H])Oc2c([H])c([H])c3c(c2[H])C([H])([H])N(C(=O)C([H])(N([H])C(=O)C([H])(N([H])C([H])([H])[H])C([H])([H])[H])C(C([H])([H])[H])(C([H])([H])[H])C([H])([H])[H])C([H])(C(=O)N([H])C2([H])c4c([H])c([H])c([H])c([H])c4C([H])([H])C([H])([H])C2([H])[H])C3([H])[H])C([H])(C([H])([H])[H])N(c2c([H])c([H])c(N([H])C(=O)N3C([H])([H])C([H])([H])C([H])([H])C([H])(n4nc(-c5c([H])c([H])c(Oc6c([H])c([H])c(F)c([H])c6F)c([H])c5[H])c(C(=O)N([H])[H])c4N([H])[H])C3([H])[H])c(F)c2[H])C([H])([H])C1=O

$$$$
86:0:0
     RDKit          3D

 96105  0  0  1  0  0  0  0  0999 V2000
  -29.1530  -23.9800   20.2420 C   0  0  0  0  0  0  0  0  0  0  0  0
  -28.9080  -22.6120   20.3130 C   0  0  0  0  0  0  0  0  0  0  0  0
  -30.5590  -24.4380   20.3810 C   0  0  0  0  0  0  0  0  0  0  0  0
  -31.6530  -23.3730   20.3410 C   0  0  0  0  0  2  0  0  0  0  0  0
  -31.2200  -22.0790   21.0420 C   0  0  0  0  0  2  0  0  0  0  0  0
  -27.4860  -22.0840   20.1620 C   0  0  0  0  0  1  0  0  0  0  0  0
  -29.9020  -21.6120   20.5940 N   0  0  0  0  0  0  0  0  0  0  0  0
  -30.9050  -25.6160   20.4970 O   0  0  0  0  0  0  0  0  0  0  0  0
  -30.4460  -19.3780   21.5990 C   0  0  0  0  0  3  0  0  0  0  0  0
  -29.2880  -19.4070   19.5040 C   0  0  0  0  0  3  0  0  0  0  0  0
  -30.4790  -17.9500   21.5870 C   0  0  0  0  0  0  0  0  0  0  0  0
  -29.3180  -17.9740   19.4690 C   0  0  0  0  0  0  0  0  0  0  0  0
  -29.8460  -20.1620   20.5710 C   0  0  0  0  0  0  0  0  0  0  0  0
  -29.9190  -17.2070   20.5120 C   0  0  0  0  0  0  0  0  0  0  0  0
  -31.0970  -17.2200   22.7660 C   0  0  0  0  0  1  0  0  0  0  0  0
  -28.6790  -17.2620   18.2900 C   0  0  0  0  0  1  0  0  0  0  0  0
  -30.5740  -14.7220   20.1770 C   0  0  0  0  0  0  0  0  0  0  0  0
  -30.3440  -12.5020   19.0780 C   0  0  0  0  0  2  0  0  0  0  0  0
  -29.3550  -12.6430   17.9000 C   0  0  0  0  0  2  0  0  0  0  0  0
  -27.8990  -12.4670   18.3780 C   0  0  0  0  0  2  0  0  0  0  0  0
  -27.5800  -13.3060   19.6430 C   0  0  0  0  0  3  0  0  0  0  0  0
  -28.6780  -13.1340   20.7170 C   0  0  0  0  0  2  0  0  0  0  0  0
  -29.9640  -13.4960   20.1000 N   0  0  0  0  0  0  0  0  0  0  0  0
  -31.7190  -14.8990   19.7510 O   0  0  0  0  0  0  0  0  0  0  0  0
  -29.7700  -15.7540   20.5850 N   0  0  0  0  0  0  0  0  0  0  0  0
  -28.8560  -15.4450   20.8740 H   0  0  0  0  0  0  0  0  0  0  0  0
  -25.2100  -13.8900   20.4500 C   0  0  0  0  0  0  0  0  0  0  0  0
  -24.1580  -13.1070   20.8440 C   0  0  0  0  0  0  0  0  0  0  0  0
  -24.6230  -11.7580   20.7780 C   0  0  0  0  0  0  0  0  0  0  0  0
  -26.2490  -13.0150   20.1690 N   0  0  0  0  0  0  0  0  0  0  0  0
  -25.9020  -11.7280   20.4260 N   0  0  0  0  0  0  0  0  0  0  0  0
  -23.9070  -10.4910   20.9750 C   0  0  0  0  0  0  0  0  0  0  0  0
  -24.3530   -9.5270   21.9070 C   0  0  0  0  0  3  0  0  0  0  0  0
  -23.6370   -8.3250   22.0910 C   0  0  0  0  0  3  0  0  0  0  0  0
  -22.4610   -8.0780   21.3440 C   0  0  0  0  0  0  0  0  0  0  0  0
  -22.0340   -9.0300   20.4020 C   0  0  0  0  0  3  0  0  0  0  0  0
  -22.7510  -10.2230   20.2150 C   0  0  0  0  0  3  0  0  0  0  0  0
  -21.7160   -6.9270   21.4380 O   0  0  0  0  0  0  0  0  0  0  0  0
  -21.6590   -6.1990   22.5990 C   0  0  0  0  0  0  0  0  0  0  0  0
  -21.1850   -6.7580   23.8060 C   0  0  0  0  0  3  0  0  0  0  0  0
  -21.0760   -5.9550   24.9590 C   0  0  0  0  0  3  0  0  0  0  0  0
  -21.4320   -4.5940   24.9060 C   0  0  0  0  0  0  0  0  0  0  0  0
  -21.8990   -4.0340   23.7030 C   0  0  0  0  0  3  0  0  0  0  0  0
  -22.0090   -4.8340   22.5530 C   0  0  0  0  0  0  0  0  0  0  0  0
  -22.4400   -4.2860   21.3920 F   0  0  0  0  0  0  0  0  0  0  0  0
  -21.3200   -3.8200   26.0100 F   0  0  0  0  0  0  0  0  0  0  0  0
  -22.7690  -13.5760   21.1690 C   0  0  0  0  0  0  0  0  0  0  0  0
  -22.0710  -12.8650   22.0470 N   0  0  0  0  0  0  0  0  0  0  0  0
  -22.3120  -14.6080   20.6820 O   0  0  0  0  0  0  0  0  0  0  0  0
  -22.4540  -12.0290   22.4650 H   0  0  0  0  0  0  0  0  0  0  0  0
  -21.1420  -13.1610   22.3070 H   0  0  0  0  0  0  0  0  0  0  0  0
  -25.3630  -15.2630   20.2900 N   0  0  0  0  0  0  0  0  0  0  0  0
  -24.5960  -15.9090   20.4410 H   0  0  0  0  0  0  0  0  0  0  0  0
  -26.1950  -15.7190   19.9410 H   0  0  0  0  0  0  0  0  0  0  0  0
  -28.0630  -25.0890   19.9590 C   0  0  0  0  0  2  0  0  0  0  0  0
  -28.2980  -26.5290   20.2490 O   0  0  0  0  0  0  0  0  0  0  0  0
  -24.6200  -31.9340   23.3230 C   0  0  0  0  0  0  0  0  0  0  0  0
  -27.1860  -27.3910   20.2040 C   0  0  0  0  0  0  0  0  0  0  0  0
  -23.4000  -30.5630   21.6750 C   0  0  0  0  0  3  0  0  0  0  0  0
  -24.8320  -29.0230   20.2250 C   0  0  0  0  0  0  0  0  0  0  0  0
  -25.9410  -30.8650   21.4840 C   0  0  0  0  0  2  0  0  0  0  0  0
  -26.0080  -29.4940   20.8210 C   0  0  0  0  0  0  0  0  0  0  0  0
  -27.1880  -28.6910   20.8020 C   0  0  0  0  0  3  0  0  0  0  0  0
  -25.9830  -26.9790   19.5810 C   0  0  0  0  0  3  0  0  0  0  0  0
  -24.8210  -27.7700   19.5980 C   0  0  0  0  0  3  0  0  0  0  0  0
  -23.6020  -29.9050   20.2860 C   0  0  0  0  0  2  0  0  0  0  0  0
  -24.6730  -31.1370   22.2180 N   0  0  0  0  0  0  0  0  0  0  0  0
  -23.5410  -32.2140   23.8660 O   0  0  0  0  0  0  0  0  0  0  0  0
  -22.7330  -29.5400   22.6240 C   0  0  0  0  0  0  0  0  0  0  0  0
  -21.4090  -29.3580   22.4840 N   0  0  0  0  0  0  0  0  0  0  0  0
  -23.4070  -28.9140   23.4470 O   0  0  0  0  0  0  0  0  0  0  0  0
  -20.9250  -29.9150   21.7940 H   0  0  0  0  0  0  0  0  0  0  0  0
  -18.0330  -28.1450   22.9440 C   0  0  0  0  0  0  0  0  0  0  0  0
  -20.5860  -28.4160   23.2460 C   0  0  0  0  0  3  0  0  0  0  0  0
  -20.7020  -26.9850   22.6730 C   0  0  0  0  0  2  0  0  0  0  0  0
  -19.6150  -26.6570   21.6450 C   0  0  0  0  0  2  0  0  0  0  0  0
  -18.2230  -26.7960   22.2710 C   0  0  0  0  0  2  0  0  0  0  0  0
  -19.1420  -28.9130   23.3880 C   0  0  0  0  0  0  0  0  0  0  0  0
  -18.9100  -30.1750   23.9760 C   0  0  0  0  0  3  0  0  0  0  0  0
  -17.6000  -30.6700   24.1260 C   0  0  0  0  0  3  0  0  0  0  0  0
  -16.5060  -29.9000   23.6990 C   0  0  0  0  0  3  0  0  0  0  0  0
  -16.7210  -28.6390   23.1140 C   0  0  0  0  0  3  0  0  0  0  0  0
  -25.9110  -32.5500   23.9480 C   0  0  0  0  0  3  0  0  0  0  0  0
  -25.6190  -33.9530   24.2750 N   0  0  0  0  0  0  0  0  0  0  0  0
  -25.9320  -34.9970   23.4970 C   0  0  0  0  0  0  0  0  0  0  0  0
  -26.5670  -34.8810   22.4440 O   0  0  0  0  0  0  0  0  0  0  0  0
  -25.0520  -34.1170   25.0930 H   0  0  0  0  0  0  0  0  0  0  0  0
  -24.1860  -36.7840   23.2050 C   0  0  0  0  0  1  0  0  0  0  0  0
  -25.4670  -36.3920   23.9570 C   0  0  0  0  0  3  0  0  0  0  0  0
  -27.6380  -37.2940   24.6680 C   0  0  0  0  0  1  0  0  0  0  0  0
  -26.4920  -37.4440   23.7750 N   0  0  0  0  0  0  0  0  0  0  0  0
  -26.0920  -38.3660   23.9250 H   0  0  0  0  0  0  0  0  0  0  0  0
  -26.4130  -31.7740   25.2270 C   0  0  1  0  0  0  0  0  0  0  0  0
  -25.3130  -31.5510   26.2910 C   0  0  0  0  0  1  0  0  0  0  0  0
  -26.9810  -30.3880   24.8400 C   0  0  0  0  0  1  0  0  0  0  0  0
  -27.5710  -32.5550   25.8910 C   0  0  0  0  0  1  0  0  0  0  0  0
  1  2  2  0
  1  3  1  0
  2  7  1  0
  3  8  2  0
  4  3  1  0
  4  5  1  0
  6  2  1  0
  7  5  1  0
 10 13  1  0
 11  9  1  0
 11 15  1  0
 12 10  2  0
 12 14  1  0
 13  7  1  0
 13  9  2  0
 14 25  1  0
 14 11  2  0
 16 12  1  0
 17 25  1  0
 18 23  1  0
 19 20  1  0
 19 18  1  0
 21 20  1  0
 21 30  1  0
 21 22  1  0
 23 17  1  0
 23 22  1  0
 24 17  2  0
 25 26  1  0
 27 28  2  0
 28 47  1  0
 29 28  1  0
 29 32  1  0
 30 31  1  0
 30 27  1  0
 31 29  2  0
 32 33  1  0
 33 34  2  0
 35 38  1  0
 35 34  1  0
 36 35  2  0
 37 36  1  0
 37 32  2  0
 38 39  1  0
 39 40  1  0
 40 41  2  0
 42 41  1  0
 42 46  1  0
 43 42  2  0
 44 39  2  0
 44 43  1  0
 45 44  1  0
 47 48  1  0
 48 51  1  0
 48 50  1  0
 49 47  2  0
 52 53  1  0
 52 27  1  0
 54 52  1  0
 55  1  1  0
 55 56  1  0
 57 68  2  0
 58 56  1  0
 58 63  1  0
 59 67  1  0
 59 69  1  0
 60 66  1  0
 60 62  1  0
 61 67  1  0
 62 61  1  0
 63 62  2  0
 64 65  1  0
 64 58  2  0
 65 60  2  0
 66 59  1  0
 67 57  1  0
 69 71  2  0
 70 69  1  0
 72 70  1  0
 73 82  2  0
 73 78  1  0
 74 70  1  0
 74 78  1  0
 75 74  1  0
 76 77  1  0
 76 75  1  0
 77 73  1  0
 78 79  2  0
 79 80  1  0
 81 80  2  0
 82 81  1  0
 83 57  1  0
 83 84  1  0
 83 93  1  0
 84 87  1  0
 85 89  1  0
 85 84  1  0
 86 85  2  0
 89 88  1  0
 91 92  1  0
 91 89  1  0
 91 90  1  0
 93 96  1  1
 93 94  1  0
 95 93  1  0
M  ISO  4  17 100  25 100  55 101  56 101
M  END
>  <TORSDO>  (87) 
F 18

>  <SCORE>  (87) 
-14.543

>  <name>  (87) 
86

>  <ligand_id>  (87) 
86

>  <original_smiles>  (87) 
[H]c1c([H])c([H])c2c(c1[H])C([H])([H])C([H])([H])C([H])([H])C2([H])N([H])C(=O)C1([H])N(C(=O)C([H])(N([H])C(=O)C([H])(N([H])C([H])([H])[H])C([H])([H])[H])C(C([H])([H])[H])(C([H])([H])[H])C([H])([H])[H])C([H])([H])c2c([H])c(OC([H])([H])C3=C(C([H])([H])[H])N(c4c([H])c(C([H])([H])[H])c(N([H])C(=O)N5C([H])([H])C([H])([H])C([H])([H])C([H])(n6nc(-c7c([H])c([H])c(Oc8c([H])c([H])c(F)c([H])c8F)c([H])c7[H])c(C(=O)N([H])[H])c6N([H])[H])C5([H])[H])c(C([H])([H])[H])c4[H])C([H])([H])C([H])([H])C3=O)c([H])c([H])c2C1([H])[H]

>  <smiles>  (87) 
[H]c1c([H])c([H])c2c(c1[H])C([H])([H])C([H])([H])C([H])([H])C2([H])N([H])C(=O)C1([H])N(C(=O)C([H])(N([H])C(=O)C([H])(N([H])C([H])([H])[H])C([H])([H])[H])C(C([H])([H])[H])(C([H])([H])[H])C([H])([H])[H])C([H])([H])c2c([H])c(OC([H])([H])C3=C(C([H])([H])[H])N(c4c([H])c(C([H])([H])[H])c(N([H])C(=O)N5C([H])([H])C([H])([H])C([H])([H])C([H])(n6nc(-c7c([H])c([H])c(Oc8c([H])c([H])c(F)c([H])c8F)c([H])c7[H])c(C(=O)N([H])[H])c6N([H])[H])C5([H])[H])c(C([H])([H])[H])c4[H])C([H])([H])C([H])([H])C3=O)c([H])c([H])c2C1([H])[H]

$$$$
87:0:0
     RDKit          3D

 93101  0  0  1  0  0  0  0  0999 V2000
  -30.7760  -18.4680   20.0070 C   0  0  0  0  0  3  0  0  0  0  0  0
  -31.0560  -16.7180   18.3450 C   0  0  0  0  0  3  0  0  0  0  0  0
  -31.7270  -19.0210   17.8370 C   0  0  0  0  0  3  0  0  0  0  0  0
  -30.6030  -17.0910   19.6390 C   0  0  0  0  0  0  0  0  0  0  0  0
  -31.2590  -19.4530   19.0930 C   0  0  0  0  0  0  0  0  0  0  0  0
  -31.6360  -17.6620   17.4710 C   0  0  0  0  0  0  0  0  0  0  0  0
  -32.0910  -17.2640   16.2570 F   0  0  0  0  0  0  0  0  0  0  0  0
  -30.6680  -15.0130   21.0130 C   0  0  0  0  0  0  0  0  0  0  0  0
  -30.8070  -12.5590   20.6250 C   0  0  0  0  0  2  0  0  0  0  0  0
  -30.1390  -12.1940   19.2840 C   0  0  0  0  0  2  0  0  0  0  0  0
  -28.6150  -11.9990   19.4430 C   0  0  0  0  0  2  0  0  0  0  0  0
  -27.9420  -13.1070   20.2980 C   0  0  0  0  0  3  0  0  0  0  0  0
  -28.7610  -13.3450   21.5850 C   0  0  0  0  0  2  0  0  0  0  0  0
  -30.1040  -13.7570   21.1440 N   0  0  0  0  0  0  0  0  0  0  0  0
  -31.9040  -15.0860   20.9900 O   0  0  0  0  0  0  0  0  0  0  0  0
  -29.9470  -16.1120   20.5230 N   0  0  0  0  0  0  0  0  0  0  0  0
  -25.4350  -13.6520   20.4890 C   0  0  0  0  0  0  0  0  0  0  0  0
  -24.3440  -12.8730   20.7430 C   0  0  0  0  0  0  0  0  0  0  0  0
  -24.8430  -11.5480   20.9300 C   0  0  0  0  0  0  0  0  0  0  0  0
  -26.5350  -12.8070   20.5580 N   0  0  0  0  0  0  0  0  0  0  0  0
  -26.1690  -11.5400   20.8700 N   0  0  0  0  0  0  0  0  0  0  0  0
  -24.1260  -10.2790   21.1030 C   0  0  0  0  0  0  0  0  0  0  0  0
  -24.5070   -9.3440   22.0890 C   0  0  0  0  0  3  0  0  0  0  0  0
  -23.7870   -8.1430   22.2510 C   0  0  0  0  0  3  0  0  0  0  0  0
  -22.6720   -7.8690   21.4260 C   0  0  0  0  0  0  0  0  0  0  0  0
  -22.3060   -8.7940   20.4330 C   0  0  0  0  0  3  0  0  0  0  0  0
  -23.0290   -9.9870   20.2690 C   0  0  0  0  0  3  0  0  0  0  0  0
  -21.9340   -6.7130   21.4940 O   0  0  0  0  0  0  0  0  0  0  0  0
  -21.8570   -5.9740   22.6470 C   0  0  0  0  0  0  0  0  0  0  0  0
  -21.3210   -6.5080   23.8390 C   0  0  0  0  0  3  0  0  0  0  0  0
  -21.1770   -5.6920   24.9770 C   0  0  0  0  0  3  0  0  0  0  0  0
  -21.5780   -4.3420   24.9320 C   0  0  0  0  0  0  0  0  0  0  0  0
  -22.1160   -3.8060   23.7470 C   0  0  0  0  0  3  0  0  0  0  0  0
  -22.2480   -4.6190   22.6070 C   0  0  0  0  0  0  0  0  0  0  0  0
  -22.7410   -4.0910   21.4610 F   0  0  0  0  0  0  0  0  0  0  0  0
  -21.4420   -3.5570   26.0240 F   0  0  0  0  0  0  0  0  0  0  0  0
  -22.9100  -13.3200   20.7200 C   0  0  0  0  0  0  0  0  0  0  0  0
  -22.0710  -12.7230   21.5580 N   0  0  0  0  0  0  0  0  0  0  0  0
  -22.5370  -14.2410   19.9940 O   0  0  0  0  0  0  0  0  0  0  0  0
  -22.3840  -11.9840   22.1700 H   0  0  0  0  0  0  0  0  0  0  0  0
  -21.1060  -13.0250   21.5930 H   0  0  0  0  0  0  0  0  0  0  0  0
  -25.5800  -14.9990   20.1780 N   0  0  0  0  0  0  0  0  0  0  0  0
  -24.7890  -15.6160   20.0320 H   0  0  0  0  0  0  0  0  0  0  0  0
  -26.4640  -15.4510   19.9910 H   0  0  0  0  0  0  0  0  0  0  0  0
  -28.6610  -16.5970   21.1170 C   0  0  0  0  0  2  0  0  0  0  0  0
  -26.1560  -17.1760   20.8670 C   0  0  0  0  0  1  0  0  0  0  0  0
  -27.5200  -17.0550   20.1410 C   0  0  0  0  0  2  0  0  0  0  0  0
  -31.3760  -20.8030   19.4090 O   0  0  0  0  0  0  0  0  0  0  0  0
  -30.2100  -21.5250   19.8840 C   0  0  0  0  0  2  0  0  0  0  0  0
  -29.9160  -22.8550   19.0880 C   0  0  0  0  0  2  0  0  0  0  0  0
  -29.3540  -24.0950   19.8970 C   0  0  0  0  0  3  0  0  0  0  0  0
  -28.9290  -25.3720   19.0630 C   0  0  0  0  0  3  0  0  0  0  0  0
  -28.6590  -26.6040   19.8180 O   0  0  0  0  0  0  0  0  0  0  0  0
  -24.6230  -31.6290   22.9820 C   0  0  0  0  0  0  0  0  0  0  0  0
  -27.4570  -27.3190   19.7680 C   0  0  0  0  0  0  0  0  0  0  0  0
  -23.4920  -30.2690   21.2520 C   0  0  0  0  0  3  0  0  0  0  0  0
  -25.0180  -28.8160   19.7990 C   0  0  0  0  0  0  0  0  0  0  0  0
  -26.0190  -30.6720   21.1470 C   0  0  0  0  0  2  0  0  0  0  0  0
  -26.1530  -29.3280   20.4400 C   0  0  0  0  0  0  0  0  0  0  0  0
  -27.3690  -28.5880   20.4170 C   0  0  0  0  0  3  0  0  0  0  0  0
  -26.2900  -26.8420   19.1260 C   0  0  0  0  0  3  0  0  0  0  0  0
  -25.0870  -27.5760   19.1400 C   0  0  0  0  0  3  0  0  0  0  0  0
  -23.7480  -29.6430   19.8570 C   0  0  0  0  0  2  0  0  0  0  0  0
  -24.7280  -30.8710   21.8500 N   0  0  0  0  0  0  0  0  0  0  0  0
  -23.5250  -31.8560   23.5070 O   0  0  0  0  0  0  0  0  0  0  0  0
  -22.8320  -29.2030   22.1560 C   0  0  0  0  0  0  0  0  0  0  0  0
  -21.5000  -29.0610   22.0480 N   0  0  0  0  0  0  0  0  0  0  0  0
  -23.5150  -28.5070   22.9120 O   0  0  0  0  0  0  0  0  0  0  0  0
  -21.0050  -29.6770   21.4150 H   0  0  0  0  0  0  0  0  0  0  0  0
  -18.1080  -27.9570   22.6230 C   0  0  0  0  0  0  0  0  0  0  0  0
  -20.6850  -28.0870   22.7700 C   0  0  0  0  0  3  0  0  0  0  0  0
  -20.6920  -26.7140   22.0590 C   0  0  0  0  0  2  0  0  0  0  0  0
  -19.5280  -26.5370   21.0800 C   0  0  0  0  0  2  0  0  0  0  0  0
  -18.1890  -26.6750   21.8090 C   0  0  0  0  0  2  0  0  0  0  0  0
  -19.2800  -28.6270   23.0610 C   0  0  0  0  0  0  0  0  0  0  0  0
  -19.1540  -29.8310   23.7850 C   0  0  0  0  0  3  0  0  0  0  0  0
  -17.8870  -30.3640   24.0780 C   0  0  0  0  0  3  0  0  0  0  0  0
  -16.7270  -29.6890   23.6580 C   0  0  0  0  0  3  0  0  0  0  0  0
  -16.8400  -28.4880   22.9360 C   0  0  0  0  0  3  0  0  0  0  0  0
  -25.8820  -32.2600   23.6570 C   0  0  0  0  0  3  0  0  0  0  0  0
  -25.5550  -33.6560   23.9860 N   0  0  0  0  0  0  0  0  0  0  0  0
  -25.9100  -34.7160   23.2500 C   0  0  0  0  0  0  0  0  0  0  0  0
  -26.6190  -34.6250   22.2450 O   0  0  0  0  0  0  0  0  0  0  0  0
  -24.9380  -33.7990   24.7700 H   0  0  0  0  0  0  0  0  0  0  0  0
  -24.1860  -36.5040   22.8400 C   0  0  0  0  0  1  0  0  0  0  0  0
  -25.3950  -36.0990   23.6990 C   0  0  0  0  0  3  0  0  0  0  0  0
  -27.4800  -36.9970   24.6360 C   0  0  0  0  0  1  0  0  0  0  0  0
  -26.4240  -37.1580   23.6400 N   0  0  0  0  0  0  0  0  0  0  0  0
  -26.0020  -38.0740   23.7790 H   0  0  0  0  0  0  0  0  0  0  0  0
  -26.3510  -31.4830   24.9470 C   0  0  1  0  0  0  0  0  0  0  0  0
  -25.2240  -31.2740   25.9830 C   0  0  0  0  0  1  0  0  0  0  0  0
  -26.9310  -30.0950   24.5840 C   0  0  0  0  0  1  0  0  0  0  0  0
  -27.4870  -32.2670   25.6470 C   0  0  0  0  0  1  0  0  0  0  0  0
  2  4  2  0
  3  5  1  0
  4  1  1  0
  4 16  1  0
  5 48  1  0
  5  1  2  0
  6  3  2  0
  6  2  1  0
  7  6  1  0
  8 14  1  0
  9 14  1  0
 10 11  1  0
 10  9  1  0
 12 11  1  0
 12 20  1  0
 12 13  1  0
 14 13  1  0
 15  8  2  0
 16  8  1  0
 16 45  1  0
 17 20  1  0
 17 18  2  0
 18 19  1  0
 19 22  1  0
 20 21  1  0
 21 19  2  0
 22 23  1  0
 23 24  2  0
 25 28  1  0
 25 24  1  0
 26 25  2  0
 27 26  1  0
 27 22  2  0
 28 29  1  0
 29 30  1  0
 30 31  2  0
 32 31  1  0
 32 36  1  0
 33 32  2  0
 34 29  2  0
 34 33  1  0
 35 34  1  0
 37 18  1  0
 37 38  1  0
 38 41  1  0
 38 40  1  0
 39 37  2  0
 42 17  1  0
 43 42  1  0
 44 42  1  0
 47 46  1  0
 47 45  1  0
 48 49  1  0
 50 49  1  0
 50 51  1  0
 52 53  1  0
 52 51  2  0
 54 65  2  0
 55 53  1  0
 55 60  1  0
 56 64  1  0
 56 66  1  0
 57 63  1  0
 57 59  1  0
 58 64  1  0
 59 58  1  0
 60 59  2  0
 61 62  1  0
 61 55  2  0
 62 57  2  0
 63 56  1  0
 64 54  1  0
 66 68  2  0
 67 66  1  0
 69 67  1  0
 70 79  2  0
 70 75  1  0
 71 67  1  0
 71 75  1  0
 72 71  1  0
 73 74  1  0
 73 72  1  0
 74 70  1  0
 75 76  2  0
 76 77  1  0
 78 77  2  0
 79 78  1  0
 80 54  1  0
 80 81  1  0
 80 90  1  0
 81 84  1  0
 82 86  1  0
 82 81  1  0
 83 82  2  0
 86 85  1  0
 88 86  1  0
 88 89  1  0
 88 87  1  0
 90 93  1  1
 90 91  1  0
 92 90  1  0
M  ISO  4   8 100  16 100  52 101  53 101
M  END
>  <TORSDO>  (88) 
F 23

>  <SCORE>  (88) 
-10.713

>  <name>  (88) 
87

>  <ligand_id>  (88) 
87

>  <original_smiles>  (88) 
[H]c1c([H])c([H])c2c(c1[H])C([H])([H])C([H])([H])C([H])([H])C2([H])N([H])C(=O)C1([H])N(C(=O)C([H])(N([H])C(=O)C([H])(N([H])C([H])([H])[H])C([H])([H])[H])C(C([H])([H])[H])(C([H])([H])[H])C([H])([H])[H])C([H])([H])c2c([H])c(OC([H])([H])C([H])([H])C([H])([H])C([H])([H])Oc3c([H])c(F)c([H])c(N(C(=O)N4C([H])([H])C([H])([H])C([H])([H])C([H])(n5nc(-c6c([H])c([H])c(Oc7c([H])c([H])c(F)c([H])c7F)c([H])c6[H])c(C(=O)N([H])[H])c5N([H])[H])C4([H])[H])C([H])([H])C([H])([H])C([H])([H])[H])c3[H])c([H])c([H])c2C1([H])[H]

>  <smiles>  (88) 
[H]c1c([H])c([H])c2c(c1[H])C([H])([H])C([H])([H])C([H])([H])C2([H])N([H])C(=O)C1([H])N(C(=O)C([H])(N([H])C(=O)C([H])(N([H])C([H])([H])[H])C([H])([H])[H])C(C([H])([H])[H])(C([H])([H])[H])C([H])([H])[H])C([H])([H])c2c([H])c(OC([H])([H])C([H])([H])C([H])([H])C([H])([H])Oc3c([H])c(F)c([H])c(N(C(=O)N4C([H])([H])C([H])([H])C([H])([H])C([H])(n5nc(-c6c([H])c([H])c(Oc7c([H])c([H])c(F)c([H])c7F)c([H])c6[H])c(C(=O)N([H])[H])c5N([H])[H])C4([H])[H])C([H])([H])C([H])([H])C([H])([H])[H])c3[H])c([H])c([H])c2C1([H])[H]

$$$$
88:0:0
     RDKit          3D

 91 99  0  0  1  0  0  0  0  0999 V2000
  -29.0400  -22.6970   20.2460 C   0  0  0  0  0  0  0  0  0  0  0  0
  -28.8360  -21.3460   20.5850 N   0  0  0  0  0  0  0  0  0  0  0  0
  -29.8860  -23.0220   19.4120 O   0  0  0  0  0  0  0  0  0  0  0  0
  -28.0690  -21.2850   21.2400 H   0  0  0  0  0  0  0  0  0  0  0  0
  -30.5210  -19.6580   19.5980 C   0  0  0  0  0  3  0  0  0  0  0  0
  -30.7920  -18.2140   19.5680 C   0  0  0  0  0  3  0  0  0  0  0  0
  -29.3980  -20.0710   20.2980 C   0  0  0  0  0  0  0  0  0  0  0  0
  -29.8960  -17.3870   20.2310 C   0  0  0  0  0  0  0  0  0  0  0  0
  -28.6840  -18.5320   20.9110 S   0  0  0  0  0  0  0  0  0  0  0  0
  -30.5890  -14.8790   19.9860 C   0  0  0  0  0  0  0  0  0  0  0  0
  -30.3830  -12.6010   18.9420 C   0  0  0  0  0  2  0  0  0  0  0  0
  -29.3770  -12.6790   17.7690 C   0  0  0  0  0  2  0  0  0  0  0  0
  -27.9330  -12.4850   18.2710 C   0  0  0  0  0  2  0  0  0  0  0  0
  -27.6200  -13.3380   19.5290 C   0  0  0  0  0  3  0  0  0  0  0  0
  -28.7380  -13.2290   20.5890 C   0  0  0  0  0  2  0  0  0  0  0  0
  -29.9960  -13.6290   19.9410 N   0  0  0  0  0  0  0  0  0  0  0  0
  -31.7410  -15.0110   19.5590 O   0  0  0  0  0  0  0  0  0  0  0  0
  -29.8080  -15.9740   20.3760 N   0  0  0  0  0  0  0  0  0  0  0  0
  -28.9420  -15.6710   20.7980 H   0  0  0  0  0  0  0  0  0  0  0  0
  -25.2690  -13.9010   20.3820 C   0  0  0  0  0  0  0  0  0  0  0  0
  -24.2270  -13.1160   20.7970 C   0  0  0  0  0  0  0  0  0  0  0  0
  -24.6960  -11.7680   20.7270 C   0  0  0  0  0  0  0  0  0  0  0  0
  -26.3040  -13.0320   20.0820 N   0  0  0  0  0  0  0  0  0  0  0  0
  -25.9700  -11.7430   20.3500 N   0  0  0  0  0  0  0  0  0  0  0  0
  -23.9860  -10.4990   20.9360 C   0  0  0  0  0  0  0  0  0  0  0  0
  -24.4470   -9.5390   21.8630 C   0  0  0  0  0  3  0  0  0  0  0  0
  -23.7350   -8.3350   22.0610 C   0  0  0  0  0  3  0  0  0  0  0  0
  -22.5480   -8.0850   21.3320 C   0  0  0  0  0  0  0  0  0  0  0  0
  -22.1070   -9.0350   20.3930 C   0  0  0  0  0  3  0  0  0  0  0  0
  -22.8200  -10.2290   20.1940 C   0  0  0  0  0  3  0  0  0  0  0  0
  -21.8050   -6.9340   21.4400 O   0  0  0  0  0  0  0  0  0  0  0  0
  -21.7600   -6.2140   22.6060 C   0  0  0  0  0  0  0  0  0  0  0  0
  -21.3180   -6.7860   23.8190 C   0  0  0  0  0  3  0  0  0  0  0  0
  -21.2220   -5.9900   24.9790 C   0  0  0  0  0  3  0  0  0  0  0  0
  -21.5560   -4.6240   24.9260 C   0  0  0  0  0  0  0  0  0  0  0  0
  -21.9910   -4.0520   23.7180 C   0  0  0  0  0  3  0  0  0  0  0  0
  -22.0900   -4.8430   22.5610 C   0  0  0  0  0  0  0  0  0  0  0  0
  -22.4890   -4.2820   21.3940 F   0  0  0  0  0  0  0  0  0  0  0  0
  -21.4560   -3.8580   26.0370 F   0  0  0  0  0  0  0  0  0  0  0  0
  -22.8430  -13.5820   21.1440 C   0  0  0  0  0  0  0  0  0  0  0  0
  -22.1630  -12.8710   22.0360 N   0  0  0  0  0  0  0  0  0  0  0  0
  -22.3760  -14.6120   20.6600 O   0  0  0  0  0  0  0  0  0  0  0  0
  -22.5540  -12.0370   22.4480 H   0  0  0  0  0  0  0  0  0  0  0  0
  -21.2350  -13.1640   22.3100 H   0  0  0  0  0  0  0  0  0  0  0  0
  -25.4150  -15.2750   20.2120 N   0  0  0  0  0  0  0  0  0  0  0  0
  -24.6430  -15.9170   20.3580 H   0  0  0  0  0  0  0  0  0  0  0  0
  -26.2260  -15.7200   19.8030 H   0  0  0  0  0  0  0  0  0  0  0  0
  -27.9110  -25.0870   20.9340 C   0  0  0  0  0  3  0  0  0  0  0  0
  -28.1510  -23.6930   20.9990 C   0  0  0  0  0  0  0  0  0  0  0  0
  -27.3290  -23.0060   22.1000 C   0  0  0  0  0  1  0  0  0  0  0  0
  -28.2900  -26.2760   20.2260 O   0  0  0  0  0  0  0  0  0  0  0  0
  -24.6000  -31.8630   23.1910 C   0  0  0  0  0  0  0  0  0  0  0  0
  -27.2720  -27.2730   20.1420 C   0  0  0  0  0  0  0  0  0  0  0  0
  -23.4360  -30.4800   21.5140 C   0  0  0  0  0  3  0  0  0  0  0  0
  -24.9230  -28.9440   20.0930 C   0  0  0  0  0  0  0  0  0  0  0  0
  -25.9850  -30.7850   21.3920 C   0  0  0  0  0  2  0  0  0  0  0  0
  -26.0850  -29.4080   20.7270 C   0  0  0  0  0  0  0  0  0  0  0  0
  -27.2650  -28.5840   20.7430 C   0  0  0  0  0  3  0  0  0  0  0  0
  -26.0920  -26.8940   19.4710 C   0  0  0  0  0  3  0  0  0  0  0  0
  -24.9340  -27.6960   19.4510 C   0  0  0  0  0  3  0  0  0  0  0  0
  -23.6830  -29.8200   20.1300 C   0  0  0  0  0  2  0  0  0  0  0  0
  -24.6920  -31.0610   22.0880 N   0  0  0  0  0  0  0  0  0  0  0  0
  -23.5040  -32.1330   23.7040 O   0  0  0  0  0  0  0  0  0  0  0  0
  -22.7500  -29.4550   22.4500 C   0  0  0  0  0  0  0  0  0  0  0  0
  -21.4240  -29.2890   22.3080 N   0  0  0  0  0  0  0  0  0  0  0  0
  -23.4140  -28.8120   23.2680 O   0  0  0  0  0  0  0  0  0  0  0  0
  -20.9460  -29.8590   21.6230 H   0  0  0  0  0  0  0  0  0  0  0  0
  -18.0310  -28.1040   22.7650 C   0  0  0  0  0  0  0  0  0  0  0  0
  -20.5900  -28.3420   23.0540 C   0  0  0  0  0  3  0  0  0  0  0  0
  -20.6850  -26.9210   22.4520 C   0  0  0  0  0  2  0  0  0  0  0  0
  -19.5870  -26.6260   21.4250 C   0  0  0  0  0  2  0  0  0  0  0  0
  -18.2030  -26.7690   22.0630 C   0  0  0  0  0  2  0  0  0  0  0  0
  -19.1530  -28.8510   23.2160 C   0  0  0  0  0  0  0  0  0  0  0  0
  -18.9370  -30.1020   23.8330 C   0  0  0  0  0  3  0  0  0  0  0  0
  -17.6340  -30.6070   24.0020 C   0  0  0  0  0  3  0  0  0  0  0  0
  -16.5280  -29.8580   23.5660 C   0  0  0  0  0  3  0  0  0  0  0  0
  -16.7280  -28.6080   22.9530 C   0  0  0  0  0  3  0  0  0  0  0  0
  -25.8650  -32.4950   23.8470 C   0  0  0  0  0  3  0  0  0  0  0  0
  -26.3470  -31.7220   25.1370 C   0  0  1  0  0  0  0  0  0  0  0  0
  -25.2270  -31.4870   26.1780 C   0  0  0  0  0  1  0  0  0  0  0  0
  -26.9360  -30.3430   24.7630 C   0  0  0  0  0  1  0  0  0  0  0  0
  -27.4830  -32.5130   25.8280 C   0  0  0  0  0  1  0  0  0  0  0  0
  -25.5470  -33.8930   24.1750 N   0  0  0  0  0  0  0  0  0  0  0  0
  -25.8900  -34.9500   23.4240 C   0  0  0  0  0  0  0  0  0  0  0  0
  -26.5740  -34.8490   22.4030 O   0  0  0  0  0  0  0  0  0  0  0  0
  -24.9410  -34.0450   24.9680 H   0  0  0  0  0  0  0  0  0  0  0  0
  -24.1650  -36.7440   23.0560 C   0  0  0  0  0  1  0  0  0  0  0  0
  -25.3970  -36.3370   23.8800 C   0  0  0  0  0  3  0  0  0  0  0  0
  -27.5220  -37.2210   24.7380 C   0  0  0  0  0  1  0  0  0  0  0  0
  -26.4310  -37.3900   23.7810 N   0  0  0  0  0  0  0  0  0  0  0  0
  -26.0230  -38.3100   23.9260 H   0  0  0  0  0  0  0  0  0  0  0  0
  1  2  1  0
  1 49  1  0
  2  4  1  0
  3  1  2  0
  5  7  2  0
  6  5  1  0
  6  8  2  0
  7  2  1  0
  7  9  1  0
  8 18  1  0
  8  9  1  0
 10 18  1  0
 11 16  1  0
 12 13  1  0
 12 11  1  0
 14 13  1  0
 14 23  1  0
 14 15  1  0
 16 10  1  0
 16 15  1  0
 17 10  2  0
 18 19  1  0
 20 21  2  0
 21 40  1  0
 22 21  1  0
 22 25  1  0
 23 24  1  0
 23 20  1  0
 24 22  2  0
 25 26  1  0
 26 27  2  0
 28 31  1  0
 28 27  1  0
 29 28  2  0
 30 29  1  0
 30 25  2  0
 31 32  1  0
 32 33  1  0
 33 34  2  0
 35 34  1  0
 35 39  1  0
 36 35  2  0
 37 32  2  0
 37 36  1  0
 38 37  1  0
 40 41  1  0
 41 44  1  0
 41 43  1  0
 42 40  2  0
 45 46  1  0
 45 20  1  0
 47 45  1  0
 48 49  2  0
 49 50  1  0
 51 48  1  0
 52 63  2  0
 53 51  1  0
 53 58  1  0
 54 62  1  0
 54 64  1  0
 55 61  1  0
 55 57  1  0
 56 62  1  0
 57 58  2  0
 57 56  1  0
 59 53  2  0
 60 59  1  0
 60 55  2  0
 61 54  1  0
 62 52  1  0
 64 66  2  0
 65 64  1  0
 67 65  1  0
 68 77  2  0
 68 73  1  0
 69 65  1  0
 69 73  1  0
 70 69  1  0
 71 72  1  0
 71 70  1  0
 72 68  1  0
 73 74  2  0
 74 75  1  0
 76 75  2  0
 77 76  1  0
 78 52  1  0
 78 83  1  0
 78 79  1  0
 79 82  1  1
 79 80  1  0
 81 79  1  0
 83 86  1  0
 84 88  1  0
 84 83  1  0
 85 84  2  0
 88 87  1  0
 90 88  1  0
 90 91  1  0
 90 89  1  0
M  ISO  4  10 100  18 100  48 101  51 101
M  END
>  <TORSDO>  (89) 
F 18

>  <SCORE>  (89) 
-13.885

>  <name>  (89) 
88

>  <ligand_id>  (89) 
88

>  <original_smiles>  (89) 
[H]C(Oc1c([H])c([H])c2c(c1[H])C([H])([H])N(C(=O)C([H])(N([H])C(=O)C([H])(N([H])C([H])([H])[H])C([H])([H])[H])C(C([H])([H])[H])(C([H])([H])[H])C([H])([H])[H])C([H])(C(=O)N([H])C1([H])c3c([H])c([H])c([H])c([H])c3C([H])([H])C([H])([H])C1([H])[H])C2([H])[H])=C(C(=O)N([H])c1sc(N([H])C(=O)N2C([H])([H])C([H])([H])C([H])([H])C([H])(n3nc(-c4c([H])c([H])c(Oc5c([H])c([H])c(F)c([H])c5F)c([H])c4[H])c(C(=O)N([H])[H])c3N([H])[H])C2([H])[H])c([H])c1[H])C([H])([H])[H]

>  <smiles>  (89) 
[H]C(Oc1c([H])c([H])c2c(c1[H])C([H])([H])N(C(=O)C([H])(N([H])C(=O)C([H])(N([H])C([H])([H])[H])C([H])([H])[H])C(C([H])([H])[H])(C([H])([H])[H])C([H])([H])[H])C([H])(C(=O)N([H])C1([H])c3c([H])c([H])c([H])c([H])c3C([H])([H])C([H])([H])C1([H])[H])C2([H])[H])=C(C(=O)N([H])c1sc(N([H])C(=O)N2C([H])([H])C([H])([H])C([H])([H])C([H])(n3nc(-c4c([H])c([H])c(Oc5c([H])c([H])c(F)c([H])c5F)c([H])c4[H])c(C(=O)N([H])[H])c3N([H])[H])C2([H])[H])c([H])c1[H])C([H])([H])[H]

$$$$
89:0:0
     RDKit          3D

 93101  0  0  1  0  0  0  0  0999 V2000
  -29.4200  -19.0850   20.4580 C   0  0  0  0  0  3  0  0  0  0  0  0
  -31.7460  -18.0580   19.2680 C   0  0  0  0  0  3  0  0  0  0  0  0
  -30.0470  -17.9500   21.0170 C   0  0  0  0  0  0  0  0  0  0  0  0
  -31.2310  -17.4420   20.4250 C   0  0  0  0  0  0  0  0  0  0  0  0
  -29.9490  -19.7100   19.3050 C   0  0  0  0  0  0  0  0  0  0  0  0
  -31.1080  -19.1770   18.7070 C   0  0  0  0  0  0  0  0  0  0  0  0
  -29.4330  -17.2960   22.2440 C   0  0  0  0  0  1  0  0  0  0  0  0
  -31.6220  -19.7540   17.5930 F   0  0  0  0  0  0  0  0  0  0  0  0
  -31.9500  -16.2210   20.9790 C   0  0  0  0  0  2  0  0  0  0  0  0
  -31.5170  -14.1960   19.6010 C   0  0  0  0  0  0  0  0  0  0  0  0
  -30.9680  -12.0530   18.5110 C   0  0  0  0  0  2  0  0  0  0  0  0
  -29.9170  -12.2210   17.3990 C   0  0  0  0  0  2  0  0  0  0  0  0
  -28.4920  -12.1600   17.9790 C   0  0  0  0  0  2  0  0  0  0  0  0
  -28.3080  -13.0990   19.1990 C   0  0  0  0  0  3  0  0  0  0  0  0
  -29.4490  -12.8960   20.2200 C   0  0  0  0  0  2  0  0  0  0  0  0
  -30.7390  -13.0870   19.5300 N   0  0  0  0  0  0  0  0  0  0  0  0
  -32.4420  -14.4330   18.8180 O   0  0  0  0  0  0  0  0  0  0  0  0
  -31.2570  -14.9860   20.6470 N   0  0  0  0  0  0  0  0  0  0  0  0
  -30.5140  -14.6930   21.2630 H   0  0  0  0  0  0  0  0  0  0  0  0
  -26.0530  -13.8660   20.1840 C   0  0  0  0  0  0  0  0  0  0  0  0
  -24.9750  -13.1640   20.6530 C   0  0  0  0  0  0  0  0  0  0  0  0
  -25.3230  -11.7830   20.5390 C   0  0  0  0  0  0  0  0  0  0  0  0
  -26.9960  -12.9160   19.8180 N   0  0  0  0  0  0  0  0  0  0  0  0
  -26.5640  -11.6570   20.0850 N   0  0  0  0  0  0  0  0  0  0  0  0
  -24.5280  -10.5720   20.7820 C   0  0  0  0  0  0  0  0  0  0  0  0
  -24.9140   -9.6150   21.7460 C   0  0  0  0  0  3  0  0  0  0  0  0
  -24.1230   -8.4690   21.9740 C   0  0  0  0  0  3  0  0  0  0  0  0
  -22.9300   -8.2720   21.2360 C   0  0  0  0  0  0  0  0  0  0  0  0
  -22.5630   -9.2160   20.2620 C   0  0  0  0  0  3  0  0  0  0  0  0
  -23.3540  -10.3540   20.0330 C   0  0  0  0  0  3  0  0  0  0  0  0
  -22.1130   -7.1760   21.3710 O   0  0  0  0  0  0  0  0  0  0  0  0
  -21.9330   -6.5570   22.5820 C   0  0  0  0  0  0  0  0  0  0  0  0
  -21.3950   -7.2390   23.6950 C   0  0  0  0  0  3  0  0  0  0  0  0
  -21.1620   -6.5460   24.9000 C   0  0  0  0  0  3  0  0  0  0  0  0
  -21.4570   -5.1730   24.9910 C   0  0  0  0  0  0  0  0  0  0  0  0
  -21.9880   -4.4910   23.8820 C   0  0  0  0  0  3  0  0  0  0  0  0
  -22.2220   -5.1810   22.6800 C   0  0  0  0  0  0  0  0  0  0  0  0
  -22.7140   -4.5140   21.6090 F   0  0  0  0  0  0  0  0  0  0  0  0
  -21.2260   -4.5050   26.1470 F   0  0  0  0  0  0  0  0  0  0  0  0
  -23.6580  -13.7340   21.0950 C   0  0  0  0  0  0  0  0  0  0  0  0
  -22.9880  -13.0740   22.0320 N   0  0  0  0  0  0  0  0  0  0  0  0
  -23.2390  -14.8000   20.6430 O   0  0  0  0  0  0  0  0  0  0  0  0
  -23.3410  -12.2110   22.4180 H   0  0  0  0  0  0  0  0  0  0  0  0
  -22.1080  -13.4380   22.3700 H   0  0  0  0  0  0  0  0  0  0  0  0
  -26.3050  -15.2250   20.0220 N   0  0  0  0  0  0  0  0  0  0  0  0
  -25.6140  -15.9350   20.2340 H   0  0  0  0  0  0  0  0  0  0  0  0
  -27.1570  -15.6060   19.6270 H   0  0  0  0  0  0  0  0  0  0  0  0
  -29.3810  -20.8200   18.7210 O   0  0  0  0  0  0  0  0  0  0  0  0
  -28.8150  -21.7880   19.5930 C   0  0  0  0  0  2  0  0  0  0  0  0
  -28.7570  -23.1090   18.8220 C   0  0  0  0  0  2  0  0  0  0  0  0
  -28.3860  -24.3080   19.7060 C   0  0  0  0  0  2  0  0  0  0  0  0
  -28.5650  -25.6380   18.9590 C   0  0  0  0  0  2  0  0  0  0  0  0
  -28.3870  -26.7400   19.8390 O   0  0  0  0  0  0  0  0  0  0  0  0
  -24.6280  -31.7310   23.1850 C   0  0  0  0  0  0  0  0  0  0  0  0
  -27.1720  -27.3850   19.9000 C   0  0  0  0  0  0  0  0  0  0  0  0
  -23.3640  -30.3680   21.5500 C   0  0  0  0  0  3  0  0  0  0  0  0
  -24.7670  -28.8600   20.0470 C   0  0  0  0  0  0  0  0  0  0  0  0
  -25.8790  -30.7330   21.2780 C   0  0  0  0  0  2  0  0  0  0  0  0
  -25.9400  -29.3760   20.6090 C   0  0  0  0  0  0  0  0  0  0  0  0
  -27.1390  -28.6400   20.5440 C   0  0  0  0  0  3  0  0  0  0  0  0
  -25.9760  -26.8660   19.3510 C   0  0  0  0  0  3  0  0  0  0  0  0
  -24.7760  -27.6010   19.4240 C   0  0  0  0  0  3  0  0  0  0  0  0
  -23.5250  -29.7180   20.1510 C   0  0  0  0  0  2  0  0  0  0  0  0
  -24.6440  -30.9570   22.0630 N   0  0  0  0  0  0  0  0  0  0  0  0
  -23.5660  -31.9920   23.7660 O   0  0  0  0  0  0  0  0  0  0  0  0
  -22.7460  -29.3250   22.5080 C   0  0  0  0  0  0  0  0  0  0  0  0
  -21.4340  -29.0770   22.3530 N   0  0  0  0  0  0  0  0  0  0  0  0
  -23.4410  -28.7410   23.3430 O   0  0  0  0  0  0  0  0  0  0  0  0
  -20.9330  -29.6030   21.6500 H   0  0  0  0  0  0  0  0  0  0  0  0
  -18.1330  -27.6590   22.7180 C   0  0  0  0  0  0  0  0  0  0  0  0
  -20.6470  -28.1100   23.1150 C   0  0  0  0  0  3  0  0  0  0  0  0
  -20.8840  -26.6720   22.5990 C   0  0  0  0  0  2  0  0  0  0  0  0
  -19.8650  -26.2350   21.5410 C   0  0  0  0  0  2  0  0  0  0  0  0
  -18.4420  -26.3030   22.1050 C   0  0  0  0  0  2  0  0  0  0  0  0
  -19.1700  -28.5130   23.1770 C   0  0  0  0  0  0  0  0  0  0  0  0
  -18.8320  -29.7780   23.7050 C   0  0  0  0  0  3  0  0  0  0  0  0
  -17.4880  -30.1910   23.7800 C   0  0  0  0  0  3  0  0  0  0  0  0
  -16.4650  -29.3330   23.3390 C   0  0  0  0  0  3  0  0  0  0  0  0
  -16.7870  -28.0700   22.8130 C   0  0  0  0  0  3  0  0  0  0  0  0
  -25.9370  -32.3430   23.7750 C   0  0  0  0  0  3  0  0  0  0  0  0
  -25.6340  -33.7230   24.1800 N   0  0  0  0  0  0  0  0  0  0  0  0
  -25.9250  -34.8090   23.4520 C   0  0  0  0  0  0  0  0  0  0  0  0
  -26.5500  -34.7550   22.3890 O   0  0  0  0  0  0  0  0  0  0  0  0
  -25.0730  -33.8370   25.0110 H   0  0  0  0  0  0  0  0  0  0  0  0
  -24.1680  -36.5960   23.2500 C   0  0  0  0  0  1  0  0  0  0  0  0
  -25.4480  -36.1710   23.9890 C   0  0  0  0  0  3  0  0  0  0  0  0
  -27.6050  -37.0450   24.7710 C   0  0  0  0  0  1  0  0  0  0  0  0
  -26.4650  -37.2390   23.8770 N   0  0  0  0  0  0  0  0  0  0  0  0
  -26.0570  -38.1470   24.0760 H   0  0  0  0  0  0  0  0  0  0  0  0
  -26.5170  -31.5180   24.9890 C   0  0  1  0  0  0  0  0  0  0  0  0
  -25.4670  -31.1850   26.0730 C   0  0  0  0  0  1  0  0  0  0  0  0
  -27.1290  -30.1850   24.4980 C   0  0  0  0  0  1  0  0  0  0  0  0
  -27.6640  -32.3100   25.6610 C   0  0  0  0  0  1  0  0  0  0  0  0
  1  3  1  0
  2  4  1  0
  3  7  1  0
  4  9  1  0
  4  3  2  0
  5  1  2  0
  6  2  2  0
  6  5  1  0
  8  6  1  0
 10 18  1  0
 11 16  1  0
 12 13  1  0
 12 11  1  0
 14 13  1  0
 14 23  1  0
 14 15  1  0
 16 10  1  0
 16 15  1  0
 17 10  2  0
 18  9  1  0
 18 19  1  0
 20 21  2  0
 21 40  1  0
 22 21  1  0
 22 25  1  0
 23 24  1  0
 23 20  1  0
 24 22  2  0
 25 26  1  0
 26 27  2  0
 28 31  1  0
 28 27  1  0
 29 28  2  0
 30 29  1  0
 30 25  2  0
 31 32  1  0
 32 37  2  0
 32 33  1  0
 33 34  2  0
 34 35  1  0
 35 39  1  0
 36 35  2  0
 37 36  1  0
 38 37  1  0
 40 41  1  0
 41 44  1  0
 41 43  1  0
 42 40  2  0
 45 20  1  0
 45 46  1  0
 47 45  1  0
 48  5  1  0
 48 49  1  0
 50 49  1  0
 50 51  1  0
 52 51  1  0
 52 53  1  0
 53 55  1  0
 54 65  2  0
 55 60  1  0
 56 64  1  0
 56 66  1  0
 57 63  1  0
 57 59  1  0
 58 64  1  0
 59 58  1  0
 60 59  2  0
 61 62  1  0
 61 55  2  0
 62 57  2  0
 63 56  1  0
 64 54  1  0
 66 68  2  0
 67 66  1  0
 69 67  1  0
 70 79  2  0
 70 75  1  0
 71 67  1  0
 71 75  1  0
 72 71  1  0
 73 74  1  0
 73 72  1  0
 74 70  1  0
 75 76  2  0
 76 77  1  0
 78 77  2  0
 79 78  1  0
 80 54  1  0
 80 81  1  0
 80 90  1  0
 81 84  1  0
 82 86  1  0
 82 81  1  0
 83 82  2  0
 86 85  1  0
 88 86  1  0
 88 89  1  0
 88 87  1  0
 90 93  1  1
 90 91  1  0
 92 90  1  0
M  ISO  4  10 100  18 100  52 101  53 101
M  END
>  <TORSDO>  (90) 
F 22

>  <SCORE>  (90) 
-10.750

>  <name>  (90) 
89

>  <ligand_id>  (90) 
89

>  <original_smiles>  (90) 
[H]c1c([H])c([H])c2c(c1[H])C([H])([H])C([H])([H])C([H])([H])C2([H])N([H])C(=O)C1([H])N(C(=O)C([H])(N([H])C(=O)C([H])(N([H])C([H])([H])[H])C([H])([H])[H])C(C([H])([H])[H])(C([H])([H])[H])C([H])([H])[H])C([H])([H])c2c([H])c(OC([H])([H])C([H])([H])C([H])([H])C([H])([H])Oc3c([H])c(C([H])([H])[H])c(C([H])([H])N([H])C(=O)N4C([H])([H])C([H])([H])C([H])([H])C([H])(n5nc(-c6c([H])c([H])c(Oc7c([H])c([H])c(F)c([H])c7F)c([H])c6[H])c(C(=O)N([H])[H])c5N([H])[H])C4([H])[H])c([H])c3F)c([H])c([H])c2C1([H])[H]

>  <smiles>  (90) 
[H]c1c([H])c([H])c2c(c1[H])C([H])([H])C([H])([H])C([H])([H])C2([H])N([H])C(=O)C1([H])N(C(=O)C([H])(N([H])C(=O)C([H])(N([H])C([H])([H])[H])C([H])([H])[H])C(C([H])([H])[H])(C([H])([H])[H])C([H])([H])[H])C([H])([H])c2c([H])c(OC([H])([H])C([H])([H])C([H])([H])C([H])([H])Oc3c([H])c(C([H])([H])[H])c(C([H])([H])N([H])C(=O)N4C([H])([H])C([H])([H])C([H])([H])C([H])(n5nc(-c6c([H])c([H])c(Oc7c([H])c([H])c(F)c([H])c7F)c([H])c6[H])c(C(=O)N([H])[H])c5N([H])[H])C4([H])[H])c([H])c3F)c([H])c([H])c2C1([H])[H]

$$$$
90:0:0
     RDKit          3D

 94100  0  0  1  0  0  0  0  0999 V2000
  -29.1030  -17.9350   19.4040 C   0  0  0  0  0  0  0  0  0  0  0  0
  -28.2870  -20.7350   19.2050 C   0  0  0  0  0  0  0  0  0  0  0  0
  -29.1440  -19.4340   18.9520 N   0  0  0  0  0  0  0  0  0  0  0  0
  -28.2930  -17.8050   20.3290 O   0  0  0  0  0  0  0  0  0  0  0  0
  -27.1830  -20.4740   19.6990 O   0  0  0  0  0  0  0  0  0  0  0  0
  -29.9200  -19.5900   18.3230 H   0  0  0  0  0  0  0  0  0  0  0  0
  -30.8560  -15.8840   17.9970 C   0  0  0  0  0  3  0  0  0  0  0  0
  -31.4240  -14.4420   17.5370 C   0  0  0  0  0  3  0  0  0  0  0  0
  -30.0230  -12.9030   19.3860 C   0  0  0  0  0  1  0  0  0  0  0  0
  -29.8090  -16.2960   19.1170 C   0  0  0  0  0  0  0  0  0  0  0  0
  -29.4050  -14.9290   19.9680 C   0  0  0  0  0  2  0  0  0  0  0  0
  -31.0580  -12.9740   18.1140 C   0  0  0  0  0  0  0  0  0  0  0  0
  -31.6010  -11.8540   17.5800 F   0  0  0  0  0  0  0  0  0  0  0  0
  -30.6240  -14.9480   21.9290 C   0  0  0  0  0  0  0  0  0  0  0  0
  -31.5040  -14.2760   20.0150 C   0  0  0  0  0  1  0  0  0  0  0  0
  -29.0430  -14.1840   17.9220 C   0  0  0  0  0  1  0  0  0  0  0  0
  -27.7020  -13.3230   18.8200 C   0  0  0  0  0  2  0  0  0  0  0  0
  -27.7280  -13.2160   20.5940 C   0  0  0  0  0  3  0  0  0  0  0  0
  -29.1190  -13.0100   21.7500 C   0  0  0  0  0  2  0  0  0  0  0  0
  -30.6910  -13.7330   21.5210 N   0  0  0  0  0  0  0  0  0  0  0  0
  -31.6420  -15.6100   22.1150 O   0  0  0  0  0  0  0  0  0  0  0  0
  -29.5410  -15.4380   21.3210 N   0  0  0  0  0  0  0  0  0  0  0  0
  -29.3880  -16.4310   21.4150 H   0  0  0  0  0  0  0  0  0  0  0  0
  -25.3430  -13.8600   20.8710 C   0  0  0  0  0  0  0  0  0  0  0  0
  -24.2370  -13.1080   21.0740 C   0  0  0  0  0  0  0  0  0  0  0  0
  -24.7020  -11.7600   21.1660 C   0  0  0  0  0  0  0  0  0  0  0  0
  -26.3940  -12.9430   20.9270 N   0  0  0  0  0  0  0  0  0  0  0  0
  -26.0190  -11.6770   21.0930 N   0  0  0  0  0  0  0  0  0  0  0  0
  -23.9720  -10.5180   21.2730 C   0  0  0  0  0  0  0  0  0  0  0  0
  -24.3130   -9.5690   22.2560 C   0  0  0  0  0  3  0  0  0  0  0  0
  -23.5770   -8.3760   22.3620 C   0  0  0  0  0  3  0  0  0  0  0  0
  -22.4940   -8.1370   21.4830 C   0  0  0  0  0  0  0  0  0  0  0  0
  -22.1870   -9.0770   20.4860 C   0  0  0  0  0  3  0  0  0  0  0  0
  -22.9250  -10.2620   20.3730 C   0  0  0  0  0  3  0  0  0  0  0  0
  -21.7300   -7.0000   21.5050 O   0  0  0  0  0  0  0  0  0  0  0  0
  -21.5940   -6.2590   22.6500 C   0  0  0  0  0  0  0  0  0  0  0  0
  -21.1050   -6.8200   23.8500 C   0  0  0  0  0  3  0  0  0  0  0  0
  -20.9140   -6.0020   24.9790 C   0  0  0  0  0  3  0  0  0  0  0  0
  -21.2020   -4.6250   24.9090 C   0  0  0  0  0  0  0  0  0  0  0  0
  -21.6880   -4.0670   23.7140 C   0  0  0  0  0  3  0  0  0  0  0  0
  -21.8830   -4.8820   22.5860 C   0  0  0  0  0  0  0  0  0  0  0  0
  -22.3320   -4.3380   21.4300 F   0  0  0  0  0  0  0  0  0  0  0  0
  -21.0060   -3.8360   25.9900 F   0  0  0  0  0  0  0  0  0  0  0  0
  -22.8300  -13.6120   21.0830 C   0  0  0  0  0  0  0  0  0  0  0  0
  -21.9720  -12.9680   21.8630 N   0  0  0  0  0  0  0  0  0  0  0  0
  -22.5030  -14.6180   20.4550 O   0  0  0  0  0  0  0  0  0  0  0  0
  -22.2540  -12.1530   22.3860 H   0  0  0  0  0  0  0  0  0  0  0  0
  -21.0170  -13.2900   21.9270 H   0  0  0  0  0  0  0  0  0  0  0  0
  -25.5250  -15.2270   20.6240 N   0  0  0  0  0  0  0  0  0  0  0  0
  -24.7490  -15.8750   20.5560 H   0  0  0  0  0  0  0  0  0  0  0  0
  -26.4190  -15.6590   20.4140 H   0  0  0  0  0  0  0  0  0  0  0  0
  -28.4910  -22.4340   18.9730 C   0  0  0  0  0  3  0  0  0  0  0  0
  -27.7520  -23.7580   19.3170 C   0  0  0  0  0  3  0  0  0  0  0  0
  -27.9350  -25.3820   19.2760 O   0  0  0  0  0  0  0  0  0  0  0  0
  -24.5790  -31.6140   22.8660 C   0  0  0  0  0  0  0  0  0  0  0  0
  -26.9820  -26.5990   19.5020 C   0  0  0  0  0  0  0  0  0  0  0  0
  -23.3440  -30.2420   21.2560 C   0  0  0  0  0  3  0  0  0  0  0  0
  -24.7270  -28.6390   19.7320 C   0  0  0  0  0  0  0  0  0  0  0  0
  -25.9240  -30.3760   21.0350 C   0  0  0  0  0  2  0  0  0  0  0  0
  -25.9570  -28.9630   20.3140 C   0  0  0  0  0  0  0  0  0  0  0  0
  -27.0720  -27.9680   20.1720 C   0  0  0  0  0  3  0  0  0  0  0  0
  -25.7010  -26.4950   18.9180 C   0  0  0  0  0  3  0  0  0  0  0  0
  -24.6340  -27.4320   19.0280 C   0  0  0  0  0  3  0  0  0  0  0  0
  -23.5280  -29.5920   19.8590 C   0  0  0  0  0  2  0  0  0  0  0  0
  -24.6450  -30.7770   21.7700 N   0  0  0  0  0  0  0  0  0  0  0  0
  -23.4990  -31.8940   23.4160 O   0  0  0  0  0  0  0  0  0  0  0  0
  -22.6740  -29.2320   22.2270 C   0  0  0  0  0  0  0  0  0  0  0  0
  -21.3390  -29.0710   22.1500 N   0  0  0  0  0  0  0  0  0  0  0  0
  -23.3660  -28.5950   23.0250 O   0  0  0  0  0  0  0  0  0  0  0  0
  -20.8300  -29.6370   21.4850 H   0  0  0  0  0  0  0  0  0  0  0  0
  -17.9860  -27.7910   22.7340 C   0  0  0  0  0  0  0  0  0  0  0  0
  -20.5480  -28.1090   22.9280 C   0  0  0  0  0  3  0  0  0  0  0  0
  -20.6600  -26.6860   22.3320 C   0  0  0  0  0  2  0  0  0  0  0  0
  -19.5360  -26.3520   21.3450 C   0  0  0  0  0  2  0  0  0  0  0  0
  -18.1700  -26.4580   22.0290 C   0  0  0  0  0  2  0  0  0  0  0  0
  -19.1000  -28.5740   23.1410 C   0  0  0  0  0  0  0  0  0  0  0  0
  -18.8670  -29.8170   23.7670 C   0  0  0  0  0  3  0  0  0  0  0  0
  -17.5540  -30.2790   23.9860 C   0  0  0  0  0  3  0  0  0  0  0  0
  -16.4570  -29.4960   23.5910 C   0  0  0  0  0  3  0  0  0  0  0  0
  -16.6730  -28.2530   22.9710 C   0  0  0  0  0  3  0  0  0  0  0  0
  -25.8510  -32.2730   23.4780 C   0  0  0  0  0  3  0  0  0  0  0  0
  -25.4880  -33.6230   23.9560 N   0  0  0  0  0  0  0  0  0  0  0  0
  -25.7580  -34.7700   23.3170 C   0  0  0  0  0  0  0  0  0  0  0  0
  -26.3950  -34.8070   22.2630 O   0  0  0  0  0  0  0  0  0  0  0  0
  -24.9130  -33.6640   24.7850 H   0  0  0  0  0  0  0  0  0  0  0  0
  -23.9580  -36.5350   23.2320 C   0  0  0  0  0  1  0  0  0  0  0  0
  -25.2440  -36.0860   23.9450 C   0  0  0  0  0  3  0  0  0  0  0  0
  -27.3930  -36.9480   24.7710 C   0  0  0  0  0  1  0  0  0  0  0  0
  -26.2340  -37.1880   23.9170 N   0  0  0  0  0  0  0  0  0  0  0  0
  -25.8040  -38.0620   24.2080 H   0  0  0  0  0  0  0  0  0  0  0  0
  -26.4600  -31.4380   24.6730 C   0  0  1  0  0  0  0  0  0  0  0  0
  -25.4320  -31.0890   25.7770 C   0  0  0  0  0  1  0  0  0  0  0  0
  -27.0690  -30.1140   24.1640 C   0  0  0  0  0  1  0  0  0  0  0  0
  -27.6180  -32.2280   25.3270 C   0  0  0  0  0  1  0  0  0  0  0  0
  1  4  2  0
  2  5  2  0
  3  2  1  0
  3  1  1  0
  6  3  1  0
  7 10  2  0
  8  7  1  0
  8 12  2  0
 10  1  1  0
 10 11  1  0
 11 22  1  0
 12  9  1  0
 13 12  1  0
 14 21  2  0
 15 20  1  0
 16 17  1  0
 18 17  1  0
 18 27  1  0
 18 19  1  0
 20 19  1  0
 20 14  1  0
 22 23  1  0
 22 14  1  0
 24 27  1  0
 24 25  2  0
 25 44  1  0
 25 26  1  0
 26 29  1  0
 27 28  1  0
 28 26  2  0
 29 30  1  0
 30 31  2  0
 32 35  1  0
 32 31  1  0
 33 32  2  0
 34 33  1  0
 34 29  2  0
 35 36  1  0
 36 37  1  0
 37 38  2  0
 39 38  1  0
 39 43  1  0
 40 39  2  0
 41 36  2  0
 41 40  1  0
 42 41  1  0
 44 45  1  0
 45 48  1  0
 45 47  1  0
 46 44  2  0
 49 24  1  0
 50 49  1  0
 51 49  1  0
 52  2  1  0
 52 53  2  0
 54 53  1  0
 54 56  1  0
 55 66  2  0
 56 61  1  0
 57 65  1  0
 57 67  1  0
 58 64  1  0
 58 60  1  0
 59 65  1  0
 60 59  1  0
 61 60  2  0
 62 63  1  0
 62 56  2  0
 63 58  2  0
 64 57  1  0
 65 55  1  0
 67 69  2  0
 68 67  1  0
 70 68  1  0
 71 80  2  0
 71 76  1  0
 72 68  1  0
 72 76  1  0
 73 72  1  0
 74 75  1  0
 74 73  1  0
 75 71  1  0
 76 77  2  0
 77 78  1  0
 79 78  2  0
 80 79  1  0
 81 55  1  0
 81 82  1  0
 81 91  1  0
 82 85  1  0
 83 87  1  0
 83 82  1  0
 84 83  2  0
 87 86  1  0
 89 87  1  0
 89 90  1  0
 89 88  1  0
 91 94  1  1
 91 92  1  0
 93 91  1  0
M  ISO  4  14 100  22 100  53 101  54 101
M  END
>  <TORSDO>  (91) 
F 18

>  <SCORE>  (91) 
-11.953

>  <name>  (91) 
90

>  <ligand_id>  (91) 
90

>  <original_smiles>  (91) 
[H]C(Oc1c([H])c([H])c2c(c1[H])C([H])([H])N(C(=O)C([H])(N([H])C(=O)C([H])(N([H])C([H])([H])[H])C([H])([H])[H])C(C([H])([H])[H])(C([H])([H])[H])C([H])([H])[H])C([H])(C(=O)N([H])C1([H])c3c([H])c([H])c([H])c([H])c3C([H])([H])C([H])([H])C1([H])[H])C2([H])[H])=C([H])C(=O)N([H])C(=O)c1c([H])c([H])c(F)c([H])c1N([H])C(=O)N1C([H])([H])C([H])([H])C([H])([H])C([H])(n2nc(-c3c([H])c([H])c(Oc4c([H])c([H])c(F)c([H])c4F)c([H])c3[H])c(C(=O)N([H])[H])c2N([H])[H])C1([H])[H]

>  <smiles>  (91) 
[H]C(Oc1c([H])c([H])c2c(c1[H])C([H])([H])N(C(=O)C([H])(N([H])C(=O)C([H])(N([H])C([H])([H])[H])C([H])([H])[H])C(C([H])([H])[H])(C([H])([H])[H])C([H])([H])[H])C([H])(C(=O)N([H])C1([H])c3c([H])c([H])c([H])c([H])c3C([H])([H])C([H])([H])C1([H])[H])C2([H])[H])=C([H])C(=O)N([H])C(=O)c1c([H])c([H])c(F)c([H])c1N([H])C(=O)N1C([H])([H])C([H])([H])C([H])([H])C([H])(n2nc(-c3c([H])c([H])c(Oc4c([H])c([H])c(F)c([H])c4F)c([H])c3[H])c(C(=O)N([H])[H])c2N([H])[H])C1([H])[H]

$$$$
91:0:0
     RDKit          3D

 95104  0  0  1  0  0  0  0  0999 V2000
  -28.1290  -23.1390   18.7460 C   0  0  0  0  0  0  0  0  0  0  0  0
  -27.9050  -21.9940   18.0890 N   0  0  0  0  0  0  0  0  0  0  0  0
  -27.6570  -24.1850   18.2990 O   0  0  0  0  0  0  0  0  0  0  0  0
  -27.3840  -22.1070   17.2310 H   0  0  0  0  0  0  0  0  0  0  0  0
  -29.6720  -18.8660   17.1550 C   0  0  0  0  0  3  0  0  0  0  0  0
  -29.0710  -20.1380   17.0940 C   0  0  0  0  0  3  0  0  0  0  0  0
  -28.5670  -20.0550   19.5020 C   0  0  0  0  0  3  0  0  0  0  0  0
  -29.7050  -18.2120   18.3950 C   0  0  0  0  0  0  0  0  0  0  0  0
  -29.1650  -18.7780   19.5400 C   0  0  0  0  0  0  0  0  0  0  0  0
  -28.5360  -20.7400   18.2570 C   0  0  0  0  0  0  0  0  0  0  0  0
  -30.2990  -16.8670   18.6720 C   0  0  0  0  0  2  0  0  0  0  0  0
  -29.3240  -17.8520   20.7250 C   0  0  0  0  0  2  0  0  0  0  0  0
  -30.3620  -16.8000   20.2290 C   0  0  0  0  0  3  0  0  0  0  0  0
  -30.8380  -14.4050   20.1710 C   0  0  0  0  0  0  0  0  0  0  0  0
  -30.3730  -12.3370   18.9170 C   0  0  0  0  0  2  0  0  0  0  0  0
  -29.3640  -12.6180   17.7870 C   0  0  0  0  0  2  0  0  0  0  0  0
  -27.9190  -12.4850   18.3070 C   0  0  0  0  0  2  0  0  0  0  0  0
  -27.6800  -13.2780   19.6190 C   0  0  0  0  0  3  0  0  0  0  0  0
  -28.7950  -12.9820   20.6460 C   0  0  0  0  0  2  0  0  0  0  0  0
  -30.0920  -13.2780   20.0120 N   0  0  0  0  0  0  0  0  0  0  0  0
  -31.9030  -14.5810   19.5690 O   0  0  0  0  0  0  0  0  0  0  0  0
  -30.2230  -15.4270   22.2710 C   0  0  0  0  0  1  0  0  0  0  0  0
  -30.2330  -15.4400   20.8020 N   0  0  0  0  0  0  0  0  0  0  0  0
  -25.3320  -13.8940   20.4770 C   0  0  0  0  0  0  0  0  0  0  0  0
  -24.2820  -13.1250   20.9020 C   0  0  0  0  0  0  0  0  0  0  0  0
  -24.7280  -11.7690   20.8230 C   0  0  0  0  0  0  0  0  0  0  0  0
  -26.3540  -13.0080   20.1730 N   0  0  0  0  0  0  0  0  0  0  0  0
  -25.9970  -11.7250   20.4350 N   0  0  0  0  0  0  0  0  0  0  0  0
  -24.0050  -10.5100   21.0400 C   0  0  0  0  0  0  0  0  0  0  0  0
  -24.4730   -9.5350   21.9490 C   0  0  0  0  0  3  0  0  0  0  0  0
  -23.7490   -8.3410   22.1530 C   0  0  0  0  0  3  0  0  0  0  0  0
  -22.5430   -8.1120   21.4490 C   0  0  0  0  0  0  0  0  0  0  0  0
  -22.0930   -9.0760   20.5280 C   0  0  0  0  0  3  0  0  0  0  0  0
  -22.8180  -10.2620   20.3230 C   0  0  0  0  0  3  0  0  0  0  0  0
  -21.7880   -6.9700   21.5630 O   0  0  0  0  0  0  0  0  0  0  0  0
  -21.7640   -6.2370   22.7220 C   0  0  0  0  0  0  0  0  0  0  0  0
  -21.3880   -6.8090   23.9580 C   0  0  0  0  0  3  0  0  0  0  0  0
  -21.3070   -6.0020   25.1110 C   0  0  0  0  0  3  0  0  0  0  0  0
  -21.5940   -4.6260   25.0300 C   0  0  0  0  0  0  0  0  0  0  0  0
  -21.9660   -4.0550   23.8000 C   0  0  0  0  0  3  0  0  0  0  0  0
  -22.0460   -4.8580   22.6490 C   0  0  0  0  0  0  0  0  0  0  0  0
  -22.3820   -4.2980   21.4630 F   0  0  0  0  0  0  0  0  0  0  0  0
  -21.5110   -3.8500   26.1360 F   0  0  0  0  0  0  0  0  0  0  0  0
  -22.9090  -13.6090   21.2710 C   0  0  0  0  0  0  0  0  0  0  0  0
  -22.2390  -12.9140   22.1870 N   0  0  0  0  0  0  0  0  0  0  0  0
  -22.4420  -14.6370   20.7840 O   0  0  0  0  0  0  0  0  0  0  0  0
  -22.6290  -12.0830   22.6020 H   0  0  0  0  0  0  0  0  0  0  0  0
  -21.3230  -13.2250   22.4770 H   0  0  0  0  0  0  0  0  0  0  0  0
  -25.4980  -15.2670   20.3060 N   0  0  0  0  0  0  0  0  0  0  0  0
  -24.7510  -15.9320   20.4680 H   0  0  0  0  0  0  0  0  0  0  0  0
  -26.3360  -15.6960   19.9350 H   0  0  0  0  0  0  0  0  0  0  0  0
  -29.0150  -23.1640   20.0060 C   0  0  0  0  0  2  0  0  0  0  0  0
  -29.5050  -24.5720   20.4170 C   0  0  0  0  0  2  0  0  0  0  0  0
  -28.3920  -25.5280   20.8920 C   0  0  0  0  0  2  0  0  0  0  0  0
  -28.4420  -26.7440   20.1460 O   0  0  0  0  0  0  0  0  0  0  0  0
  -24.5930  -31.8670   23.1940 C   0  0  0  0  0  0  0  0  0  0  0  0
  -27.2670  -27.4490   20.1480 C   0  0  0  0  0  0  0  0  0  0  0  0
  -23.3960  -30.4510   21.5560 C   0  0  0  0  0  3  0  0  0  0  0  0
  -24.8590  -28.9140   20.1450 C   0  0  0  0  0  0  0  0  0  0  0  0
  -25.9150  -30.8310   21.3580 C   0  0  0  0  0  2  0  0  0  0  0  0
  -26.0110  -29.4590   20.7270 C   0  0  0  0  0  0  0  0  0  0  0  0
  -27.2210  -28.7350   20.7230 C   0  0  0  0  0  3  0  0  0  0  0  0
  -26.1010  -26.9080   19.5640 C   0  0  0  0  0  3  0  0  0  0  0  0
  -24.8960  -27.6340   19.5650 C   0  0  0  0  0  3  0  0  0  0  0  0
  -23.6090  -29.7630   20.1810 C   0  0  0  0  0  2  0  0  0  0  0  0
  -24.6530  -31.0630   22.0940 N   0  0  0  0  0  0  0  0  0  0  0  0
  -23.5100  -32.1360   23.7330 O   0  0  0  0  0  0  0  0  0  0  0  0
  -22.7500  -29.4310   22.5200 C   0  0  0  0  0  0  0  0  0  0  0  0
  -21.4230  -29.2600   22.4060 N   0  0  0  0  0  0  0  0  0  0  0  0
  -23.4380  -28.7960   23.3240 O   0  0  0  0  0  0  0  0  0  0  0  0
  -20.9310  -29.8220   21.7250 H   0  0  0  0  0  0  0  0  0  0  0  0
  -18.0420  -28.1100   22.9470 C   0  0  0  0  0  0  0  0  0  0  0  0
  -20.6060  -28.3290   23.1830 C   0  0  0  0  0  3  0  0  0  0  0  0
  -20.6800  -26.9010   22.5940 C   0  0  0  0  0  2  0  0  0  0  0  0
  -19.5590  -26.6030   21.5930 C   0  0  0  0  0  2  0  0  0  0  0  0
  -18.1890  -26.7640   22.2590 C   0  0  0  0  0  2  0  0  0  0  0  0
  -19.1780  -28.8520   23.3670 C   0  0  0  0  0  0  0  0  0  0  0  0
  -18.9880  -30.1150   23.9680 C   0  0  0  0  0  3  0  0  0  0  0  0
  -17.6940  -30.6360   24.1550 C   0  0  0  0  0  3  0  0  0  0  0  0
  -16.5720  -29.8910   23.7530 C   0  0  0  0  0  3  0  0  0  0  0  0
  -16.7460  -28.6300   23.1550 C   0  0  0  0  0  3  0  0  0  0  0  0
  -25.8780  -32.5040   23.8100 C   0  0  0  0  0  3  0  0  0  0  0  0
  -26.4120  -31.7280   25.0770 C   0  0  1  0  0  0  0  0  0  0  0  0
  -25.3290  -31.4750   26.1520 C   0  0  0  0  0  1  0  0  0  0  0  0
  -27.0030  -30.3580   24.6690 C   0  0  0  0  0  1  0  0  0  0  0  0
  -27.5580  -32.5280   25.7390 C   0  0  0  0  0  1  0  0  0  0  0  0
  -25.5590  -33.8960   24.1490 N   0  0  0  0  0  0  0  0  0  0  0  0
  -25.8760  -34.9550   23.3910 C   0  0  0  0  0  0  0  0  0  0  0  0
  -26.5390  -34.8610   22.3540 O   0  0  0  0  0  0  0  0  0  0  0  0
  -24.9670  -34.0410   24.9530 H   0  0  0  0  0  0  0  0  0  0  0  0
  -24.1190  -36.7250   23.0610 C   0  0  0  0  0  1  0  0  0  0  0  0
  -25.3770  -36.3350   23.8560 C   0  0  0  0  0  3  0  0  0  0  0  0
  -27.5120  -37.2440   24.6590 C   0  0  0  0  0  1  0  0  0  0  0  0
  -26.3940  -37.4020   23.7320 N   0  0  0  0  0  0  0  0  0  0  0  0
  -25.9780  -38.3170   23.8900 H   0  0  0  0  0  0  0  0  0  0  0  0
  1 52  1  0
  2 10  1  0
  2  1  1  0
  3  1  2  0
  4  2  1  0
  5  8  1  0
  6  5  2  0
  6 10  1  0
  7  9  1  0
  8 11  1  0
  8  9  2  0
  9 12  1  0
 10  7  2  0
 11 13  1  0
 13 12  1  0
 13 23  1  0
 14 23  1  0
 15 20  1  0
 16 17  1  0
 16 15  1  0
 18 17  1  0
 18 27  1  0
 18 19  1  0
 20 14  1  0
 20 19  1  0
 21 14  2  0
 23 22  1  0
 24 25  2  0
 25 44  1  0
 26 25  1  0
 26 29  1  0
 27 28  1  0
 27 24  1  0
 28 26  2  0
 29 30  1  0
 30 31  2  0
 32 35  1  0
 32 31  1  0
 33 32  2  0
 34 33  1  0
 34 29  2  0
 35 36  1  0
 36 37  1  0
 37 38  2  0
 39 38  1  0
 39 43  1  0
 40 39  2  0
 41 36  2  0
 41 40  1  0
 42 41  1  0
 44 45  1  0
 45 48  1  0
 45 47  1  0
 46 44  2  0
 49 50  1  0
 49 24  1  0
 51 49  1  0
 52 53  1  0
 53 54  1  0
 55 57  1  0
 55 54  1  0
 56 67  2  0
 57 62  1  0
 58 66  1  0
 58 68  1  0
 59 65  1  0
 59 61  1  0
 60 66  1  0
 61 60  1  0
 62 61  2  0
 63 64  1  0
 63 57  2  0
 64 59  2  0
 65 58  1  0
 66 56  1  0
 68 70  2  0
 69 68  1  0
 71 69  1  0
 72 81  2  0
 72 77  1  0
 73 69  1  0
 73 77  1  0
 74 73  1  0
 75 76  1  0
 75 74  1  0
 76 72  1  0
 77 78  2  0
 78 79  1  0
 80 79  2  0
 81 80  1  0
 82 56  1  0
 82 87  1  0
 82 83  1  0
 83 86  1  1
 83 84  1  0
 85 83  1  0
 87 90  1  0
 88 92  1  0
 88 87  1  0
 89 88  2  0
 92 91  1  0
 94 92  1  0
 94 95  1  0
 94 93  1  0
M  ISO  4  14 100  23 100  54 101  55 101
M  END
>  <TORSDO>  (92) 
F 20

>  <SCORE>  (92) 
-13.137

>  <name>  (92) 
91

>  <ligand_id>  (92) 
91

>  <original_smiles>  (92) 
[H]c1c([H])c([H])c2c(c1[H])C([H])([H])C([H])([H])C([H])([H])C2([H])N([H])C(=O)C1([H])N(C(=O)C([H])(N([H])C(=O)C([H])(N([H])C([H])([H])[H])C([H])([H])[H])C(C([H])([H])[H])(C([H])([H])[H])C([H])([H])[H])C([H])([H])c2c([H])c(OC([H])([H])C([H])([H])C([H])([H])C(=O)N([H])c3c([H])c([H])c4c(c3[H])C([H])([H])C([H])(N(C(=O)N3C([H])([H])C([H])([H])C([H])([H])C([H])(n5nc(-c6c([H])c([H])c(Oc7c([H])c([H])c(F)c([H])c7F)c([H])c6[H])c(C(=O)N([H])[H])c5N([H])[H])C3([H])[H])C([H])([H])[H])C4([H])[H])c([H])c([H])c2C1([H])[H]

>  <smiles>  (92) 
[H]c1c([H])c([H])c2c(c1[H])C([H])([H])C([H])([H])C([H])([H])C2([H])N([H])C(=O)C1([H])N(C(=O)C([H])(N([H])C(=O)C([H])(N([H])C([H])([H])[H])C([H])([H])[H])C(C([H])([H])[H])(C([H])([H])[H])C([H])([H])[H])C([H])([H])c2c([H])c(OC([H])([H])C([H])([H])C([H])([H])C(=O)N([H])c3c([H])c([H])c4c(c3[H])C([H])([H])C([H])(N(C(=O)N3C([H])([H])C([H])([H])C([H])([H])C([H])(n5nc(-c6c([H])c([H])c(Oc7c([H])c([H])c(F)c([H])c7F)c([H])c6[H])c(C(=O)N([H])[H])c5N([H])[H])C3([H])[H])C([H])([H])[H])C4([H])[H])c([H])c([H])c2C1([H])[H]

$$$$
92:0:0
     RDKit          3D

 95103  0  0  1  0  0  0  0  0999 V2000
  -29.2690  -19.6100   19.3020 C   0  0  0  0  0  3  0  0  0  0  0  0
  -29.6160  -20.1380   21.6470 C   0  0  0  0  0  3  0  0  0  0  0  0
  -30.2240  -17.9110   20.7950 C   0  0  0  0  0  0  0  0  0  0  0  0
  -29.7820  -18.3070   19.4980 C   0  0  0  0  0  0  0  0  0  0  0  0
  -29.2020  -20.5410   20.3590 C   0  0  0  0  0  0  0  0  0  0  0  0
  -30.1250  -18.8380   21.8630 C   0  0  0  0  0  0  0  0  0  0  0  0
  -29.8960  -17.4050   18.2730 C   0  0  0  0  0  1  0  0  0  0  0  0
  -30.5330  -18.4950   23.1120 F   0  0  0  0  0  0  0  0  0  0  0  0
  -30.8990  -14.4230   20.0460 C   0  0  0  0  0  0  0  0  0  0  0  0
  -30.3910  -12.3740   18.7770 C   0  0  0  0  0  2  0  0  0  0  0  0
  -29.3770  -12.6720   17.6560 C   0  0  0  0  0  2  0  0  0  0  0  0
  -27.9370  -12.5420   18.1890 C   0  0  0  0  0  2  0  0  0  0  0  0
  -27.7140  -13.3280   19.5090 C   0  0  0  0  0  3  0  0  0  0  0  0
  -28.8410  -13.0410   20.5280 C   0  0  0  0  0  2  0  0  0  0  0  0
  -30.1230  -13.3210   19.8680 N   0  0  0  0  0  0  0  0  0  0  0  0
  -32.0140  -14.5230   19.5250 O   0  0  0  0  0  0  0  0  0  0  0  0
  -30.9340  -16.6000   21.0180 C   0  0  0  0  0  0  0  0  0  0  0  0
  -30.2980  -15.4790   20.6250 N   0  0  0  0  0  0  0  0  0  0  0  0
  -32.0750  -16.6100   21.5010 O   0  0  0  0  0  0  0  0  0  0  0  0
  -29.2920  -15.4830   20.6270 H   0  0  0  0  0  0  0  0  0  0  0  0
  -25.3820  -13.9500   20.3910 C   0  0  0  0  0  0  0  0  0  0  0  0
  -24.3280  -13.1830   20.8110 C   0  0  0  0  0  0  0  0  0  0  0  0
  -24.7660  -11.8270   20.7180 C   0  0  0  0  0  0  0  0  0  0  0  0
  -26.3940  -13.0600   20.0710 N   0  0  0  0  0  0  0  0  0  0  0  0
  -26.0310  -11.7760   20.3270 N   0  0  0  0  0  0  0  0  0  0  0  0
  -24.0350  -10.5700   20.9260 C   0  0  0  0  0  0  0  0  0  0  0  0
  -24.4780   -9.5990   21.8500 C   0  0  0  0  0  3  0  0  0  0  0  0
  -23.7470   -8.4080   22.0440 C   0  0  0  0  0  3  0  0  0  0  0  0
  -22.5580   -8.1790   21.3130 C   0  0  0  0  0  0  0  0  0  0  0  0
  -22.1330   -9.1370   20.3770 C   0  0  0  0  0  3  0  0  0  0  0  0
  -22.8640  -10.3200   20.1810 C   0  0  0  0  0  3  0  0  0  0  0  0
  -21.7940   -7.0400   21.4180 O   0  0  0  0  0  0  0  0  0  0  0  0
  -21.7160   -6.3310   22.5900 C   0  0  0  0  0  0  0  0  0  0  0  0
  -21.2590   -6.9220   23.7880 C   0  0  0  0  0  3  0  0  0  0  0  0
  -21.1270   -6.1390   24.9520 C   0  0  0  0  0  3  0  0  0  0  0  0
  -21.4460   -4.7670   24.9190 C   0  0  0  0  0  0  0  0  0  0  0  0
  -21.8960   -4.1780   23.7240 C   0  0  0  0  0  3  0  0  0  0  0  0
  -22.0280   -4.9580   22.5620 C   0  0  0  0  0  0  0  0  0  0  0  0
  -22.4430   -4.3800   21.4090 F   0  0  0  0  0  0  0  0  0  0  0  0
  -21.3120   -4.0130   26.0350 F   0  0  0  0  0  0  0  0  0  0  0  0
  -22.9590  -13.6720   21.1840 C   0  0  0  0  0  0  0  0  0  0  0  0
  -22.2830  -12.9690   22.0850 N   0  0  0  0  0  0  0  0  0  0  0  0
  -22.5010  -14.7110   20.7100 O   0  0  0  0  0  0  0  0  0  0  0  0
  -22.6690  -12.1260   22.4830 H   0  0  0  0  0  0  0  0  0  0  0  0
  -21.3660  -13.2780   22.3780 H   0  0  0  0  0  0  0  0  0  0  0  0
  -25.5590  -15.3210   20.2320 N   0  0  0  0  0  0  0  0  0  0  0  0
  -24.8070  -15.9820   20.3890 H   0  0  0  0  0  0  0  0  0  0  0  0
  -26.3870  -15.7520   19.8410 H   0  0  0  0  0  0  0  0  0  0  0  0
  -28.7290  -21.8330   20.0730 N   0  0  0  0  0  0  0  0  0  0  0  0
  -28.6680  -22.0960   19.0900 H   0  0  0  0  0  0  0  0  0  0  0  0
  -29.0690  -22.9680   20.9370 C   0  0  0  0  0  2  0  0  0  0  0  0
  -28.9170  -24.3100   20.1970 C   0  0  0  0  0  0  0  0  0  0  0  0
  -28.9520  -24.3500   18.9610 O   0  0  0  0  0  0  0  0  0  0  0  0
  -28.7190  -25.5790   21.0430 C   0  0  0  0  0  2  0  0  0  0  0  0
  -28.7620  -26.7670   20.2360 O   0  0  0  0  0  0  0  0  0  0  0  0
  -24.6140  -31.7200   23.1760 C   0  0  0  0  0  0  0  0  0  0  0  0
  -27.5690  -27.4410   20.1820 C   0  0  0  0  0  0  0  0  0  0  0  0
  -23.5320  -30.2650   21.4930 C   0  0  0  0  0  3  0  0  0  0  0  0
  -25.1030  -28.8080   20.1120 C   0  0  0  0  0  0  0  0  0  0  0  0
  -26.0390  -30.7580   21.3720 C   0  0  0  0  0  2  0  0  0  0  0  0
  -26.2130  -29.3970   20.7310 C   0  0  0  0  0  0  0  0  0  0  0  0
  -27.4510  -28.7220   20.7600 C   0  0  0  0  0  3  0  0  0  0  0  0
  -26.4470  -26.8560   19.5590 C   0  0  0  0  0  3  0  0  0  0  0  0
  -25.2120  -27.5350   19.5240 C   0  0  0  0  0  3  0  0  0  0  0  0
  -23.8150  -29.6010   20.1220 C   0  0  0  0  0  2  0  0  0  0  0  0
  -24.7440  -30.9300   22.0730 N   0  0  0  0  0  0  0  0  0  0  0  0
  -23.5030  -31.9380   23.6800 O   0  0  0  0  0  0  0  0  0  0  0  0
  -22.9010  -29.2110   22.4300 C   0  0  0  0  0  0  0  0  0  0  0  0
  -21.5880  -28.9810   22.2680 N   0  0  0  0  0  0  0  0  0  0  0  0
  -23.5890  -28.6030   23.2520 O   0  0  0  0  0  0  0  0  0  0  0  0
  -21.0890  -29.5230   21.5760 H   0  0  0  0  0  0  0  0  0  0  0  0
  -18.2450  -27.6750   22.7060 C   0  0  0  0  0  0  0  0  0  0  0  0
  -20.7910  -28.0060   23.0130 C   0  0  0  0  0  3  0  0  0  0  0  0
  -20.9440  -26.5890   22.4140 C   0  0  0  0  0  2  0  0  0  0  0  0
  -19.8650  -26.2510   21.3810 C   0  0  0  0  0  2  0  0  0  0  0  0
  -18.4710  -26.3440   22.0070 C   0  0  0  0  0  2  0  0  0  0  0  0
  -19.3340  -28.4620   23.1610 C   0  0  0  0  0  0  0  0  0  0  0  0
  -19.0710  -29.7090   23.7680 C   0  0  0  0  0  3  0  0  0  0  0  0
  -17.7500  -30.1700   23.9250 C   0  0  0  0  0  3  0  0  0  0  0  0
  -16.6750  -29.3800   23.4850 C   0  0  0  0  0  3  0  0  0  0  0  0
  -16.9220  -28.1330   22.8830 C   0  0  0  0  0  3  0  0  0  0  0  0
  -25.8480  -32.4100   23.8380 C   0  0  0  0  0  3  0  0  0  0  0  0
  -26.3620  -31.6630   25.1280 C   0  0  1  0  0  0  0  0  0  0  0  0
  -25.2480  -31.3700   26.1600 C   0  0  0  0  0  1  0  0  0  0  0  0
  -27.0260  -30.3160   24.7560 C   0  0  0  0  0  1  0  0  0  0  0  0
  -27.4540  -32.5120   25.8260 C   0  0  0  0  0  1  0  0  0  0  0  0
  -25.4680  -33.7930   24.1520 N   0  0  0  0  0  0  0  0  0  0  0  0
  -25.7670  -34.8540   23.3900 C   0  0  0  0  0  0  0  0  0  0  0  0
  -26.4650  -34.7760   22.3750 O   0  0  0  0  0  0  0  0  0  0  0  0
  -24.8510  -33.9270   24.9410 H   0  0  0  0  0  0  0  0  0  0  0  0
  -23.9540  -36.5500   22.9890 C   0  0  0  0  0  1  0  0  0  0  0  0
  -25.2010  -36.2190   23.8240 C   0  0  0  0  0  3  0  0  0  0  0  0
  -27.2740  -37.2170   24.6810 C   0  0  0  0  0  1  0  0  0  0  0  0
  -26.1800  -37.3230   23.7190 N   0  0  0  0  0  0  0  0  0  0  0  0
  -25.7230  -38.2220   23.8560 H   0  0  0  0  0  0  0  0  0  0  0  0
  1  4  2  0
  1  5  1  0
  2  6  1  0
  3 17  1  0
  3  6  2  0
  4  3  1  0
  5  2  2  0
  6  8  1  0
  7  4  1  0
  9 18  1  0
 10 15  1  0
 11 12  1  0
 11 10  1  0
 13 12  1  0
 13 24  1  0
 13 14  1  0
 15  9  1  0
 15 14  1  0
 16  9  2  0
 17 19  2  0
 18 20  1  0
 18 17  1  0
 21 22  2  0
 22 41  1  0
 23 22  1  0
 23 26  1  0
 24 25  1  0
 24 21  1  0
 25 23  2  0
 26 27  1  0
 27 28  2  0
 29 32  1  0
 29 28  1  0
 30 29  2  0
 31 30  1  0
 31 26  2  0
 32 33  1  0
 33 34  1  0
 34 35  2  0
 36 35  1  0
 36 40  1  0
 37 36  2  0
 38 33  2  0
 38 37  1  0
 39 38  1  0
 41 42  1  0
 42 45  1  0
 42 44  1  0
 43 41  2  0
 46 47  1  0
 46 21  1  0
 48 46  1  0
 49  5  1  0
 49 51  1  0
 50 49  1  0
 52 51  1  0
 52 54  1  0
 53 52  2  0
 55 54  1  0
 56 67  2  0
 57 55  1  0
 57 62  1  0
 58 66  1  0
 58 68  1  0
 59 65  1  0
 59 61  1  0
 60 66  1  0
 61 62  2  0
 61 60  1  0
 63 57  2  0
 64 63  1  0
 64 59  2  0
 65 58  1  0
 66 56  1  0
 68 70  2  0
 69 68  1  0
 71 69  1  0
 72 81  2  0
 72 77  1  0
 73 69  1  0
 73 77  1  0
 74 73  1  0
 75 76  1  0
 75 74  1  0
 76 72  1  0
 77 78  2  0
 78 79  1  0
 80 79  2  0
 81 80  1  0
 82 56  1  0
 82 87  1  0
 82 83  1  0
 83 86  1  1
 83 84  1  0
 85 83  1  0
 87 90  1  0
 88 92  1  0
 88 87  1  0
 89 88  2  0
 92 91  1  0
 94 92  1  0
 94 95  1  0
 94 93  1  0
M  ISO  4   9 100  18 100  54 101  55 101
M  END
>  <TORSDO>  (93) 
F 20

>  <SCORE>  (93) 
-12.594

>  <name>  (93) 
92

>  <ligand_id>  (93) 
92

>  <original_smiles>  (93) 
[H]c1c([H])c([H])c2c(c1[H])C([H])([H])C([H])([H])C([H])([H])C2([H])N([H])C(=O)C1([H])N(C(=O)C([H])(N([H])C(=O)C([H])(N([H])C([H])([H])[H])C([H])([H])[H])C(C([H])([H])[H])(C([H])([H])[H])C([H])([H])[H])C([H])([H])c2c([H])c(OC([H])([H])C(=O)C([H])([H])N([H])c3c([H])c(F)c(C(=O)N([H])C(=O)N4C([H])([H])C([H])([H])C([H])([H])C([H])(n5nc(-c6c([H])c([H])c(Oc7c([H])c([H])c(F)c([H])c7F)c([H])c6[H])c(C(=O)N([H])[H])c5N([H])[H])C4([H])[H])c(C([H])([H])[H])c3[H])c([H])c([H])c2C1([H])[H]

>  <smiles>  (93) 
[H]c1c([H])c([H])c2c(c1[H])C([H])([H])C([H])([H])C([H])([H])C2([H])N([H])C(=O)C1([H])N(C(=O)C([H])(N([H])C(=O)C([H])(N([H])C([H])([H])[H])C([H])([H])[H])C(C([H])([H])[H])(C([H])([H])[H])C([H])([H])[H])C([H])([H])c2c([H])c(OC([H])([H])C(=O)C([H])([H])N([H])c3c([H])c(F)c(C(=O)N([H])C(=O)N4C([H])([H])C([H])([H])C([H])([H])C([H])(n5nc(-c6c([H])c([H])c(Oc7c([H])c([H])c(F)c([H])c7F)c([H])c6[H])c(C(=O)N([H])[H])c5N([H])[H])C4([H])[H])c(C([H])([H])[H])c3[H])c([H])c([H])c2C1([H])[H]

$$$$
93:0:0
     RDKit          3D

 95103  0  0  1  0  0  0  0  0999 V2000
  -29.6930  -20.2750   21.3170 C   0  0  0  0  0  3  0  0  0  0  0  0
  -29.7850  -18.2490   19.3860 C   0  0  0  0  0  3  0  0  0  0  0  0
  -30.3960  -19.0710   21.6050 C   0  0  0  0  0  0  0  0  0  0  0  0
  -30.4660  -18.0510   20.6090 C   0  0  0  0  0  0  0  0  0  0  0  0
  -29.0840  -19.4460   19.1230 C   0  0  0  0  0  0  0  0  0  0  0  0
  -29.0500  -20.4910   20.0740 C   0  0  0  0  0  0  0  0  0  0  0  0
  -28.4450  -19.6230   17.8980 N   0  0  0  0  0  0  0  0  0  0  0  0
  -28.7510  -19.0750   17.1010 H   0  0  0  0  0  0  0  0  0  0  0  0
  -28.2160  -20.5830   17.6530 H   0  0  0  0  0  0  0  0  0  0  0  0
  -31.6980  -19.9190   23.5980 C   0  0  0  0  0  2  0  0  0  0  0  0
  -31.0850  -18.9370   22.9090 C   0  0  0  0  0  3  0  0  0  0  0  0
  -31.3330  -16.7820   20.7490 C   0  0  0  0  0  2  0  0  0  0  0  0
  -31.2120  -14.4830   19.7170 C   0  0  0  0  0  0  0  0  0  0  0  0
  -30.7830  -12.2430   18.7450 C   0  0  0  0  0  2  0  0  0  0  0  0
  -29.7440  -12.3350   17.6110 C   0  0  0  0  0  2  0  0  0  0  0  0
  -28.3100  -12.2600   18.1720 C   0  0  0  0  0  2  0  0  0  0  0  0
  -28.0870  -13.2200   19.3720 C   0  0  0  0  0  3  0  0  0  0  0  0
  -29.2240  -13.0840   20.4080 C   0  0  0  0  0  2  0  0  0  0  0  0
  -30.5000  -13.3210   19.7090 N   0  0  0  0  0  0  0  0  0  0  0  0
  -32.2610  -14.6230   19.0810 O   0  0  0  0  0  0  0  0  0  0  0  0
  -30.6810  -15.4990   20.4250 N   0  0  0  0  0  0  0  0  0  0  0  0
  -29.7930  -15.3200   20.8690 H   0  0  0  0  0  0  0  0  0  0  0  0
  -25.8300  -13.9620   20.3560 C   0  0  0  0  0  0  0  0  0  0  0  0
  -24.7480  -13.2510   20.8040 C   0  0  0  0  0  0  0  0  0  0  0  0
  -25.0960  -11.8730   20.6640 C   0  0  0  0  0  0  0  0  0  0  0  0
  -26.7740  -13.0190   19.9780 N   0  0  0  0  0  0  0  0  0  0  0  0
  -26.3400  -11.7550   20.2170 N   0  0  0  0  0  0  0  0  0  0  0  0
  -24.2960  -10.6590   20.8740 C   0  0  0  0  0  0  0  0  0  0  0  0
  -24.7090   -9.6550   21.7770 C   0  0  0  0  0  3  0  0  0  0  0  0
  -23.9150   -8.5050   21.9800 C   0  0  0  0  0  3  0  0  0  0  0  0
  -22.6940   -8.3520   21.2800 C   0  0  0  0  0  0  0  0  0  0  0  0
  -22.3000   -9.3460   20.3660 C   0  0  0  0  0  3  0  0  0  0  0  0
  -23.0930  -10.4870   20.1620 C   0  0  0  0  0  3  0  0  0  0  0  0
  -21.8730   -7.2580   21.3920 O   0  0  0  0  0  0  0  0  0  0  0  0
  -21.7680   -6.5540   22.5650 C   0  0  0  0  0  0  0  0  0  0  0  0
  -21.3460   -7.1640   23.7660 C   0  0  0  0  0  3  0  0  0  0  0  0
  -21.1860   -6.3880   24.9320 C   0  0  0  0  0  3  0  0  0  0  0  0
  -21.4360   -5.0030   24.8960 C   0  0  0  0  0  0  0  0  0  0  0  0
  -21.8500   -4.3930   23.6990 C   0  0  0  0  0  3  0  0  0  0  0  0
  -22.0130   -5.1670   22.5370 C   0  0  0  0  0  0  0  0  0  0  0  0
  -22.3920   -4.5700   21.3810 F   0  0  0  0  0  0  0  0  0  0  0  0
  -21.2750   -4.2570   26.0140 F   0  0  0  0  0  0  0  0  0  0  0  0
  -23.4290  -13.8130   21.2470 C   0  0  0  0  0  0  0  0  0  0  0  0
  -22.7520  -13.1350   22.1660 N   0  0  0  0  0  0  0  0  0  0  0  0
  -23.0130  -14.8850   20.8110 O   0  0  0  0  0  0  0  0  0  0  0  0
  -23.1090  -12.2670   22.5410 H   0  0  0  0  0  0  0  0  0  0  0  0
  -21.8660  -13.4870   22.5020 H   0  0  0  0  0  0  0  0  0  0  0  0
  -26.0860  -15.3230   20.2240 N   0  0  0  0  0  0  0  0  0  0  0  0
  -25.3960  -16.0310   20.4530 H   0  0  0  0  0  0  0  0  0  0  0  0
  -26.9320  -15.7130   19.8250 H   0  0  0  0  0  0  0  0  0  0  0  0
  -28.3920  -21.6670   19.7210 O   0  0  0  0  0  0  0  0  0  0  0  0
  -28.4240  -22.7780   20.6260 C   0  0  0  0  0  2  0  0  0  0  0  0
  -28.1940  -24.1410   19.9190 C   0  0  0  0  0  2  0  0  0  0  0  0
  -28.1340  -25.3180   20.9230 C   0  0  0  0  0  2  0  0  0  0  0  0
  -28.2660  -26.6250   20.3290 O   0  0  0  0  0  0  0  0  0  0  0  0
  -24.5870  -31.9320   23.3700 C   0  0  0  0  0  0  0  0  0  0  0  0
  -27.1210  -27.3950   20.3340 C   0  0  0  0  0  0  0  0  0  0  0  0
  -23.3400  -30.5250   21.7630 C   0  0  0  0  0  3  0  0  0  0  0  0
  -24.7550  -28.9410   20.3510 C   0  0  0  0  0  0  0  0  0  0  0  0
  -25.8720  -30.8410   21.5310 C   0  0  0  0  0  2  0  0  0  0  0  0
  -25.9310  -29.4590   20.9100 C   0  0  0  0  0  0  0  0  0  0  0  0
  -27.1200  -28.6930   20.8960 C   0  0  0  0  0  3  0  0  0  0  0  0
  -25.9320  -26.8940   19.7650 C   0  0  0  0  0  3  0  0  0  0  0  0
  -24.7490  -27.6590   19.7770 C   0  0  0  0  0  3  0  0  0  0  0  0
  -23.5260  -29.8210   20.3940 C   0  0  0  0  0  2  0  0  0  0  0  0
  -24.6190  -31.1160   22.2800 N   0  0  0  0  0  0  0  0  0  0  0  0
  -23.5150  -32.2300   23.9170 O   0  0  0  0  0  0  0  0  0  0  0  0
  -22.6860  -29.5270   22.7450 C   0  0  0  0  0  0  0  0  0  0  0  0
  -21.3740  -29.2970   22.5760 N   0  0  0  0  0  0  0  0  0  0  0  0
  -23.3560  -28.9620   23.6120 O   0  0  0  0  0  0  0  0  0  0  0  0
  -20.8950  -29.8050   21.8460 H   0  0  0  0  0  0  0  0  0  0  0  0
  -18.0390  -27.9510   22.9310 C   0  0  0  0  0  0  0  0  0  0  0  0
  -20.5560  -28.3690   23.3550 C   0  0  0  0  0  3  0  0  0  0  0  0
  -20.7740  -26.9090   22.8910 C   0  0  0  0  0  2  0  0  0  0  0  0
  -19.7620  -26.4570   21.8320 C   0  0  0  0  0  2  0  0  0  0  0  0
  -18.3320  -26.5690   22.3690 C   0  0  0  0  0  2  0  0  0  0  0  0
  -19.0840  -28.8010   23.3800 C   0  0  0  0  0  0  0  0  0  0  0  0
  -18.7620  -30.0890   23.8610 C   0  0  0  0  0  3  0  0  0  0  0  0
  -17.4240  -30.5280   23.9010 C   0  0  0  0  0  3  0  0  0  0  0  0
  -16.3930  -29.6780   23.4680 C   0  0  0  0  0  3  0  0  0  0  0  0
  -16.7000  -28.3910   22.9890 C   0  0  0  0  0  3  0  0  0  0  0  0
  -25.8890  -32.5520   23.9670 C   0  0  0  0  0  3  0  0  0  0  0  0
  -25.6070  -33.9600   24.2800 N   0  0  0  0  0  0  0  0  0  0  0  0
  -25.9410  -34.9930   23.4950 C   0  0  0  0  0  0  0  0  0  0  0  0
  -26.5910  -34.8630   22.4550 O   0  0  0  0  0  0  0  0  0  0  0  0
  -25.0330  -34.1400   25.0920 H   0  0  0  0  0  0  0  0  0  0  0  0
  -24.2250  -36.7970   23.1470 C   0  0  0  0  0  1  0  0  0  0  0  0
  -25.4820  -36.3960   23.9360 C   0  0  0  0  0  3  0  0  0  0  0  0
  -27.6420  -37.2720   24.7040 C   0  0  0  0  0  1  0  0  0  0  0  0
  -26.5240  -37.4340   23.7770 N   0  0  0  0  0  0  0  0  0  0  0  0
  -26.1310  -38.3610   23.9140 H   0  0  0  0  0  0  0  0  0  0  0  0
  -26.4080  -31.7900   25.2480 C   0  0  1  0  0  0  0  0  0  0  0  0
  -25.3200  -31.5660   26.3250 C   0  0  0  0  0  1  0  0  0  0  0  0
  -26.9810  -30.4060   24.8630 C   0  0  0  0  0  1  0  0  0  0  0  0
  -27.5690  -32.5830   25.8960 C   0  0  0  0  0  1  0  0  0  0  0  0
  1  3  1  0
  2  4  1  0
  3 11  1  0
  4 12  1  0
  4  3  2  0
  5  2  2  0
  5  6  1  0
  6  1  2  0
  7  5  1  0
  8  7  1  0
  9  7  1  0
 11 10  2  0
 13 21  1  0
 14 19  1  0
 15 16  1  0
 15 14  1  0
 17 16  1  0
 17 26  1  0
 17 18  1  0
 19 13  1  0
 19 18  1  0
 20 13  2  0
 21 12  1  0
 21 22  1  0
 23 24  2  0
 24 43  1  0
 25 24  1  0
 25 28  1  0
 26 27  1  0
 26 23  1  0
 27 25  2  0
 28 29  1  0
 29 30  2  0
 31 34  1  0
 31 30  1  0
 32 31  2  0
 33 32  1  0
 33 28  2  0
 34 35  1  0
 35 36  1  0
 36 37  2  0
 38 37  1  0
 38 42  1  0
 39 38  2  0
 40 35  2  0
 40 39  1  0
 41 40  1  0
 43 44  1  0
 44 47  1  0
 44 46  1  0
 45 43  2  0
 48 23  1  0
 48 49  1  0
 50 48  1  0
 51  6  1  0
 51 52  1  0
 53 52  1  0
 53 54  1  0
 55 57  1  0
 55 54  1  0
 56 67  2  0
 57 62  1  0
 58 66  1  0
 58 68  1  0
 59 65  1  0
 59 61  1  0
 60 66  1  0
 61 60  1  0
 62 61  2  0
 63 64  1  0
 63 57  2  0
 64 59  2  0
 65 58  1  0
 66 56  1  0
 68 70  2  0
 69 68  1  0
 71 69  1  0
 72 81  2  0
 72 77  1  0
 73 69  1  0
 73 77  1  0
 74 73  1  0
 75 76  1  0
 75 74  1  0
 76 72  1  0
 77 78  2  0
 78 79  1  0
 80 79  2  0
 81 80  1  0
 82 56  1  0
 82 83  1  0
 82 92  1  0
 83 86  1  0
 84 88  1  0
 84 83  1  0
 85 84  2  0
 88 87  1  0
 90 91  1  0
 90 88  1  0
 90 89  1  0
 92 95  1  1
 92 93  1  0
 94 92  1  0
M  ISO  4  13 100  21 100  54 101  55 101
M  END
>  <TORSDO>  (94) 
F 23

>  <SCORE>  (94) 
-12.356

>  <name>  (94) 
93

>  <ligand_id>  (94) 
93

>  <original_smiles>  (94) 
[H]C([H])=C([H])c1c([H])c(OC([H])([H])C([H])([H])C([H])([H])Oc2c([H])c([H])c3c(c2[H])C([H])([H])N(C(=O)C([H])(N([H])C(=O)C([H])(N([H])C([H])([H])[H])C([H])([H])[H])C(C([H])([H])[H])(C([H])([H])[H])C([H])([H])[H])C([H])(C(=O)N([H])C2([H])c4c([H])c([H])c([H])c([H])c4C([H])([H])C([H])([H])C2([H])[H])C3([H])[H])c(N([H])[H])c([H])c1C([H])([H])N([H])C(=O)N1C([H])([H])C([H])([H])C([H])([H])C([H])(n2nc(-c3c([H])c([H])c(Oc4c([H])c([H])c(F)c([H])c4F)c([H])c3[H])c(C(=O)N([H])[H])c2N([H])[H])C1([H])[H]

>  <smiles>  (94) 
[H]C([H])=C([H])c1c([H])c(OC([H])([H])C([H])([H])C([H])([H])Oc2c([H])c([H])c3c(c2[H])C([H])([H])N(C(=O)C([H])(N([H])C(=O)C([H])(N([H])C([H])([H])[H])C([H])([H])[H])C(C([H])([H])[H])(C([H])([H])[H])C([H])([H])[H])C([H])(C(=O)N([H])C2([H])c4c([H])c([H])c([H])c([H])c4C([H])([H])C([H])([H])C2([H])[H])C3([H])[H])c(N([H])[H])c([H])c1C([H])([H])N([H])C(=O)N1C([H])([H])C([H])([H])C([H])([H])C([H])(n2nc(-c3c([H])c([H])c(Oc4c([H])c([H])c(F)c([H])c4F)c([H])c3[H])c(C(=O)N([H])[H])c2N([H])[H])C1([H])[H]

$$$$
94:0:0
     RDKit          3D

 92100  0  0  1  0  0  0  0  0999 V2000
  -29.8680  -18.5410   20.1890 C   0  0  0  0  0  3  0  0  0  0  0  0
  -30.9260  -18.6180   22.7500 C   0  0  0  0  0  3  0  0  0  0  0  0
  -30.3480  -17.2910   20.7650 C   0  0  0  0  0  0  0  0  0  0  0  0
  -29.9000  -19.8290   20.8720 C   0  0  0  0  0  0  0  0  0  0  0  0
  -30.4100  -19.8260   22.2020 C   0  0  0  0  0  0  0  0  0  0  0  0
  -30.8980  -17.3910   22.0560 C   0  0  0  0  0  0  0  0  0  0  0  0
  -31.3560  -16.2730   22.6770 F   0  0  0  0  0  0  0  0  0  0  0  0
  -30.9210  -14.7970   20.1470 C   0  0  0  0  0  0  0  0  0  0  0  0
  -30.6620  -12.5170   19.1220 C   0  0  0  0  0  2  0  0  0  0  0  0
  -29.7030  -12.5860   17.9110 C   0  0  0  0  0  2  0  0  0  0  0  0
  -28.2320  -12.4730   18.3660 C   0  0  0  0  0  2  0  0  0  0  0  0
  -27.9020  -13.3980   19.5690 C   0  0  0  0  0  3  0  0  0  0  0  0
  -28.9720  -13.2790   20.6780 C   0  0  0  0  0  2  0  0  0  0  0  0
  -30.2660  -13.5920   20.0610 N   0  0  0  0  0  0  0  0  0  0  0  0
  -32.1180  -14.8750   19.8530 O   0  0  0  0  0  0  0  0  0  0  0  0
  -30.1230  -15.9300   20.2250 N   0  0  0  0  0  0  0  0  0  0  0  0
  -29.1470  -15.6860   20.1930 H   0  0  0  0  0  0  0  0  0  0  0  0
  -25.5530  -14.1020   20.3300 C   0  0  0  0  0  0  0  0  0  0  0  0
  -24.4620  -13.3780   20.7270 C   0  0  0  0  0  0  0  0  0  0  0  0
  -24.8600  -12.0080   20.6890 C   0  0  0  0  0  0  0  0  0  0  0  0
  -26.5530  -13.1760   20.0810 N   0  0  0  0  0  0  0  0  0  0  0  0
  -26.1430  -11.9110   20.3600 N   0  0  0  0  0  0  0  0  0  0  0  0
  -24.0780  -10.7800   20.8890 C   0  0  0  0  0  0  0  0  0  0  0  0
  -24.4810   -9.7950   21.8150 C   0  0  0  0  0  3  0  0  0  0  0  0
  -23.7090   -8.6290   22.0030 C   0  0  0  0  0  3  0  0  0  0  0  0
  -22.5170   -8.4400   21.2640 C   0  0  0  0  0  0  0  0  0  0  0  0
  -22.1300   -9.4150   20.3280 C   0  0  0  0  0  3  0  0  0  0  0  0
  -22.9030  -10.5740   20.1390 C   0  0  0  0  0  3  0  0  0  0  0  0
  -21.7130   -7.3290   21.3640 O   0  0  0  0  0  0  0  0  0  0  0  0
  -21.6550   -6.5850   22.5150 C   0  0  0  0  0  0  0  0  0  0  0  0
  -21.2840   -7.1550   23.7520 C   0  0  0  0  0  3  0  0  0  0  0  0
  -21.1650   -6.3380   24.8960 C   0  0  0  0  0  3  0  0  0  0  0  0
  -21.4090   -4.9560   24.8020 C   0  0  0  0  0  0  0  0  0  0  0  0
  -21.7760   -4.3860   23.5710 C   0  0  0  0  0  3  0  0  0  0  0  0
  -21.8950   -5.1980   22.4290 C   0  0  0  0  0  0  0  0  0  0  0  0
  -22.2270   -4.6420   21.2390 F   0  0  0  0  0  0  0  0  0  0  0  0
  -21.2920   -4.1700   25.8980 F   0  0  0  0  0  0  0  0  0  0  0  0
  -23.0910  -13.9170   21.0190 C   0  0  0  0  0  0  0  0  0  0  0  0
  -22.3470  -13.2600   21.9030 N   0  0  0  0  0  0  0  0  0  0  0  0
  -22.6870  -14.9530   20.4920 O   0  0  0  0  0  0  0  0  0  0  0  0
  -22.6920  -12.4280   22.3590 H   0  0  0  0  0  0  0  0  0  0  0  0
  -21.4240  -13.6010   22.1300 H   0  0  0  0  0  0  0  0  0  0  0  0
  -25.7650  -15.4640   20.1270 N   0  0  0  0  0  0  0  0  0  0  0  0
  -24.9730  -16.0970   20.1530 H   0  0  0  0  0  0  0  0  0  0  0  0
  -26.5260  -15.8220   19.5630 H   0  0  0  0  0  0  0  0  0  0  0  0
  -30.6890  -20.9450   24.3210 C   0  0  0  0  0  1  0  0  0  0  0  0
  -30.4250  -21.0100   22.9170 O   0  0  0  0  0  0  0  0  0  0  0  0
  -29.5340  -21.0430   20.2120 O   0  0  0  0  0  0  0  0  0  0  0  0
  -28.7610  -22.1760   20.8080 C   0  0  0  0  0  2  0  0  0  0  0  0
  -29.2430  -23.7150   20.6150 C   0  0  0  0  0  3  0  0  0  0  0  0
  -28.1440  -24.9040   20.5380 C   0  0  0  0  0  3  0  0  0  0  0  0
  -28.4630  -26.3780   20.4840 O   0  0  0  0  0  0  0  0  0  0  0  0
  -24.6690  -31.9080   23.2690 C   0  0  0  0  0  0  0  0  0  0  0  0
  -27.3760  -27.2840   20.3660 C   0  0  0  0  0  0  0  0  0  0  0  0
  -23.5210  -30.4790   21.6170 C   0  0  0  0  0  3  0  0  0  0  0  0
  -25.0180  -28.9220   20.2540 C   0  0  0  0  0  0  0  0  0  0  0  0
  -26.0650  -30.8050   21.4960 C   0  0  0  0  0  2  0  0  0  0  0  0
  -26.1720  -29.4160   20.8730 C   0  0  0  0  0  0  0  0  0  0  0  0
  -27.3580  -28.6100   20.9140 C   0  0  0  0  0  3  0  0  0  0  0  0
  -26.1950  -26.8640   19.7140 C   0  0  0  0  0  3  0  0  0  0  0  0
  -25.0320  -27.6530   19.6630 C   0  0  0  0  0  3  0  0  0  0  0  0
  -23.7780  -29.7910   20.2530 C   0  0  0  0  0  2  0  0  0  0  0  0
  -24.7690  -31.0850   22.1830 N   0  0  0  0  0  0  0  0  0  0  0  0
  -23.5710  -32.1800   23.7760 O   0  0  0  0  0  0  0  0  0  0  0  0
  -22.8420  -29.4710   22.5720 C   0  0  0  0  0  0  0  0  0  0  0  0
  -21.5220  -29.2770   22.4190 N   0  0  0  0  0  0  0  0  0  0  0  0
  -23.5070  -28.8630   23.4190 O   0  0  0  0  0  0  0  0  0  0  0  0
  -21.0450  -29.8090   21.7030 H   0  0  0  0  0  0  0  0  0  0  0  0
  -18.1520  -28.0500   22.8650 C   0  0  0  0  0  0  0  0  0  0  0  0
  -20.6990  -28.3460   23.1910 C   0  0  0  0  0  3  0  0  0  0  0  0
  -20.8350  -26.9040   22.6490 C   0  0  0  0  0  2  0  0  0  0  0  0
  -19.7650  -26.5490   21.6120 C   0  0  0  0  0  2  0  0  0  0  0  0
  -18.3630  -26.6920   22.2130 C   0  0  0  0  0  2  0  0  0  0  0  0
  -19.2500  -28.8310   23.3100 C   0  0  0  0  0  0  0  0  0  0  0  0
  -18.9990  -30.1000   23.8770 C   0  0  0  0  0  3  0  0  0  0  0  0
  -17.6840  -30.5920   23.9960 C   0  0  0  0  0  3  0  0  0  0  0  0
  -16.6010  -29.8060   23.5660 C   0  0  0  0  0  3  0  0  0  0  0  0
  -16.8370  -28.5360   23.0110 C   0  0  0  0  0  3  0  0  0  0  0  0
  -25.9310  -32.5640   23.9110 C   0  0  0  0  0  3  0  0  0  0  0  0
  -25.6030  -33.9620   24.2190 N   0  0  0  0  0  0  0  0  0  0  0  0
  -25.9400  -35.0070   23.4500 C   0  0  0  0  0  0  0  0  0  0  0  0
  -26.6300  -34.8940   22.4330 O   0  0  0  0  0  0  0  0  0  0  0  0
  -25.0080  -34.1220   25.0170 H   0  0  0  0  0  0  0  0  0  0  0  0
  -24.2010  -36.7700   23.0290 C   0  0  0  0  0  1  0  0  0  0  0  0
  -25.4280  -36.3960   23.8760 C   0  0  0  0  0  3  0  0  0  0  0  0
  -27.5380  -37.3140   24.7360 C   0  0  0  0  0  1  0  0  0  0  0  0
  -26.4520  -37.4580   23.7690 N   0  0  0  0  0  0  0  0  0  0  0  0
  -26.0340  -38.3760   23.8990 H   0  0  0  0  0  0  0  0  0  0  0  0
  -26.4210  -31.8180   25.2110 C   0  0  1  0  0  0  0  0  0  0  0  0
  -25.3030  -31.5950   26.2540 C   0  0  0  0  0  1  0  0  0  0  0  0
  -27.0280  -30.4410   24.8550 C   0  0  0  0  0  1  0  0  0  0  0  0
  -27.5530  -32.6280   25.8850 C   0  0  0  0  0  1  0  0  0  0  0  0
  1  3  2  0
  1  4  1  0
  3  6  1  0
  4  5  2  0
  5  2  1  0
  5 47  1  0
  6  7  1  0
  6  2  2  0
  8 16  1  0
  9 14  1  0
 10 11  1  0
 10  9  1  0
 12 11  1  0
 12 21  1  0
 12 13  1  0
 14  8  1  0
 14 13  1  0
 15  8  2  0
 16  3  1  0
 17 16  1  0
 18 19  2  0
 19 38  1  0
 20 19  1  0
 20 23  1  0
 21 18  1  0
 21 22  1  0
 22 20  2  0
 23 24  1  0
 24 25  2  0
 26 29  1  0
 26 25  1  0
 27 26  2  0
 28 27  1  0
 28 23  2  0
 29 30  1  0
 30 31  1  0
 31 32  2  0
 33 32  1  0
 33 37  1  0
 34 33  2  0
 35 30  2  0
 35 34  1  0
 36 35  1  0
 38 39  1  0
 39 42  1  0
 39 41  1  0
 40 38  2  0
 43 44  1  0
 43 18  1  0
 45 43  1  0
 47 46  1  0
 48 49  1  0
 48  4  1  0
 50 49  1  0
 51 50  2  0
 52 51  1  0
 53 64  2  0
 54 52  1  0
 54 59  1  0
 55 63  1  0
 55 65  1  0
 56 58  1  0
 57 63  1  0
 58 59  2  0
 58 57  1  0
 60 54  2  0
 61 60  1  0
 61 56  2  0
 62 56  1  0
 62 55  1  0
 63 53  1  0
 65 67  2  0
 66 65  1  0
 68 66  1  0
 69 78  2  0
 69 74  1  0
 70 66  1  0
 70 74  1  0
 71 70  1  0
 72 73  1  0
 72 71  1  0
 73 69  1  0
 74 75  2  0
 75 76  1  0
 77 76  2  0
 78 77  1  0
 79 53  1  0
 79 80  1  0
 79 89  1  0
 80 83  1  0
 81 85  1  0
 81 80  1  0
 82 81  2  0
 85 84  1  0
 87 85  1  0
 87 88  1  0
 87 86  1  0
 89 92  1  1
 89 90  1  0
 91 89  1  0
M  ISO  4   8 100  16 100  51 101  52 101
M  END
>  <TORSDO>  (95) 
F 21

>  <SCORE>  (95) 
-13.127

>  <name>  (95) 
94

>  <ligand_id>  (95) 
94

>  <original_smiles>  (95) 
[H]c1c([H])c([H])c2c(c1[H])C([H])([H])C([H])([H])C([H])([H])C2([H])N([H])C(=O)C1([H])N(C(=O)C([H])(N([H])C(=O)C([H])(N([H])C([H])([H])[H])C([H])([H])[H])C(C([H])([H])[H])(C([H])([H])[H])C([H])([H])[H])C([H])([H])c2c([H])c(OC([H])([H])C([H])([H])C([H])([H])Oc3c([H])c(N([H])C(=O)N4C([H])([H])C([H])([H])C([H])([H])C([H])(n5nc(-c6c([H])c([H])c(Oc7c([H])c([H])c(F)c([H])c7F)c([H])c6[H])c(C(=O)N([H])[H])c5N([H])[H])C4([H])[H])c(F)c([H])c3OC([H])([H])[H])c([H])c([H])c2C1([H])[H]

>  <smiles>  (95) 
[H]c1c([H])c([H])c2c(c1[H])C([H])([H])C([H])([H])C([H])([H])C2([H])N([H])C(=O)C1([H])N(C(=O)C([H])(N([H])C(=O)C([H])(N([H])C([H])([H])[H])C([H])([H])[H])C(C([H])([H])[H])(C([H])([H])[H])C([H])([H])[H])C([H])([H])c2c([H])c(OC([H])([H])C([H])([H])C([H])([H])Oc3c([H])c(N([H])C(=O)N4C([H])([H])C([H])([H])C([H])([H])C([H])(n5nc(-c6c([H])c([H])c(Oc7c([H])c([H])c(F)c([H])c7F)c([H])c6[H])c(C(=O)N([H])[H])c5N([H])[H])C4([H])[H])c(F)c([H])c3OC([H])([H])[H])c([H])c([H])c2C1([H])[H]

$$$$
95:0:0
     RDKit          3D

 96105  0  0  1  0  0  0  0  0999 V2000
  -31.0510  -17.8490   20.3550 C   0  0  0  0  0  3  0  0  0  0  0  0
  -28.6520  -17.6680   20.5330 C   0  0  0  0  0  3  0  0  0  0  0  0
  -29.6630  -19.9280   20.4020 C   0  0  0  0  0  0  0  0  0  0  0  0
  -29.9070  -17.0150   20.4770 C   0  0  0  0  0  0  0  0  0  0  0  0
  -30.9290  -19.2740   20.3260 C   0  0  0  0  0  0  0  0  0  0  0  0
  -28.5220  -19.0780   20.4880 C   0  0  0  0  0  0  0  0  0  0  0  0
  -27.2700  -19.5980   20.5320 F   0  0  0  0  0  0  0  0  0  0  0  0
  -30.6670  -14.5770   20.0410 C   0  0  0  0  0  0  0  0  0  0  0  0
  -30.3710  -12.3760   18.9310 C   0  0  0  0  0  2  0  0  0  0  0  0
  -29.3590  -12.5530   17.7760 C   0  0  0  0  0  2  0  0  0  0  0  0
  -27.9080  -12.4180   18.2810 C   0  0  0  0  0  2  0  0  0  0  0  0
  -27.6380  -13.2640   19.5530 C   0  0  0  0  0  3  0  0  0  0  0  0
  -28.7480  -13.0350   20.6040 C   0  0  0  0  0  2  0  0  0  0  0  0
  -30.0390  -13.3640   19.9730 N   0  0  0  0  0  0  0  0  0  0  0  0
  -31.7790  -14.7720   19.5410 O   0  0  0  0  0  0  0  0  0  0  0  0
  -29.9030  -15.5660   20.5810 N   0  0  0  0  0  0  0  0  0  0  0  0
  -29.0600  -15.1870   20.9840 H   0  0  0  0  0  0  0  0  0  0  0  0
  -25.2980  -13.9120   20.4060 C   0  0  0  0  0  0  0  0  0  0  0  0
  -24.2340  -13.1580   20.8210 C   0  0  0  0  0  0  0  0  0  0  0  0
  -24.6590  -11.7980   20.7400 C   0  0  0  0  0  0  0  0  0  0  0  0
  -26.3060  -13.0110   20.1000 N   0  0  0  0  0  0  0  0  0  0  0  0
  -25.9290  -11.7330   20.3580 N   0  0  0  0  0  0  0  0  0  0  0  0
  -23.9140  -10.5490   20.9460 C   0  0  0  0  0  0  0  0  0  0  0  0
  -24.3760   -9.5520   21.8340 C   0  0  0  0  0  3  0  0  0  0  0  0
  -23.6320   -8.3680   22.0290 C   0  0  0  0  0  3  0  0  0  0  0  0
  -22.4150   -8.1720   21.3360 C   0  0  0  0  0  0  0  0  0  0  0  0
  -21.9720   -9.1570   20.4360 C   0  0  0  0  0  3  0  0  0  0  0  0
  -22.7150  -10.3330   20.2390 C   0  0  0  0  0  3  0  0  0  0  0  0
  -21.6400   -7.0420   21.4430 O   0  0  0  0  0  0  0  0  0  0  0  0
  -21.6430   -6.2730   22.5790 C   0  0  0  0  0  0  0  0  0  0  0  0
  -21.3010   -6.8050   23.8410 C   0  0  0  0  0  3  0  0  0  0  0  0
  -21.2500   -5.9640   24.9690 C   0  0  0  0  0  3  0  0  0  0  0  0
  -21.5290   -4.5900   24.8390 C   0  0  0  0  0  0  0  0  0  0  0  0
  -21.8640   -4.0570   23.5810 C   0  0  0  0  0  3  0  0  0  0  0  0
  -21.9180   -4.8960   22.4540 C   0  0  0  0  0  0  0  0  0  0  0  0
  -22.2220   -4.3730   21.2420 F   0  0  0  0  0  0  0  0  0  0  0  0
  -21.4720   -3.7790   25.9210 F   0  0  0  0  0  0  0  0  0  0  0  0
  -22.8650  -13.6630   21.1800 C   0  0  0  0  0  0  0  0  0  0  0  0
  -22.1720  -12.9710   22.0780 N   0  0  0  0  0  0  0  0  0  0  0  0
  -22.4200  -14.7040   20.6970 O   0  0  0  0  0  0  0  0  0  0  0  0
  -22.5450  -12.1290   22.4890 H   0  0  0  0  0  0  0  0  0  0  0  0
  -21.2570  -13.2900   22.3600 H   0  0  0  0  0  0  0  0  0  0  0  0
  -25.4840  -15.2820   20.2410 N   0  0  0  0  0  0  0  0  0  0  0  0
  -24.7290  -15.9430   20.3800 H   0  0  0  0  0  0  0  0  0  0  0  0
  -26.2940  -15.6950   19.7970 H   0  0  0  0  0  0  0  0  0  0  0  0
  -29.0070  -24.3090   20.5730 C   0  0  0  0  0  0  0  0  0  0  0  0
  -28.4680  -25.5610   20.6800 C   0  0  0  0  0  3  0  0  0  0  0  0
  -29.5920  -23.6540   19.3160 C   0  0  0  0  0  2  0  0  0  0  0  0
  -29.1760  -23.4280   21.8100 C   0  0  0  0  0  2  0  0  0  0  0  0
  -29.3450  -22.1050   19.1970 C   0  0  0  0  0  2  0  0  0  0  0  0
  -28.8310  -21.9390   21.5760 C   0  0  0  0  0  2  0  0  0  0  0  0
  -29.5760  -21.3660   20.4510 N   0  0  0  0  0  0  0  0  0  0  0  0
  -28.3700  -26.5500   19.7100 O   0  0  0  0  0  0  0  0  0  0  0  0
  -24.5160  -31.6390   23.0230 C   0  0  0  0  0  0  0  0  0  0  0  0
  -27.2310  -27.3400   19.7580 C   0  0  0  0  0  0  0  0  0  0  0  0
  -23.3290  -30.2670   21.3430 C   0  0  0  0  0  3  0  0  0  0  0  0
  -24.8070  -28.8180   19.8450 C   0  0  0  0  0  0  0  0  0  0  0  0
  -25.8470  -30.6870   21.1360 C   0  0  0  0  0  2  0  0  0  0  0  0
  -25.9630  -29.3390   20.4430 C   0  0  0  0  0  0  0  0  0  0  0  0
  -27.1810  -28.6100   20.3950 C   0  0  0  0  0  3  0  0  0  0  0  0
  -26.0590  -26.8470   19.1540 C   0  0  0  0  0  3  0  0  0  0  0  0
  -24.8530  -27.5720   19.1950 C   0  0  0  0  0  3  0  0  0  0  0  0
  -23.5420  -29.6440   19.9380 C   0  0  0  0  0  2  0  0  0  0  0  0
  -24.5820  -30.8790   21.8920 N   0  0  0  0  0  0  0  0  0  0  0  0
  -23.4330  -31.8630   23.5830 O   0  0  0  0  0  0  0  0  0  0  0  0
  -22.7120  -29.1960   22.2730 C   0  0  0  0  0  0  0  0  0  0  0  0
  -21.3880  -28.9930   22.1610 N   0  0  0  0  0  0  0  0  0  0  0  0
  -23.4200  -28.5530   23.0520 O   0  0  0  0  0  0  0  0  0  0  0  0
  -20.8750  -29.5650   21.5050 H   0  0  0  0  0  0  0  0  0  0  0  0
  -18.0440  -27.7230   22.6860 C   0  0  0  0  0  0  0  0  0  0  0  0
  -20.6030  -28.0080   22.9060 C   0  0  0  0  0  3  0  0  0  0  0  0
  -20.7120  -26.6070   22.2600 C   0  0  0  0  0  2  0  0  0  0  0  0
  -19.5890  -26.3160   21.2590 C   0  0  0  0  0  2  0  0  0  0  0  0
  -18.2220  -26.4100   21.9440 C   0  0  0  0  0  2  0  0  0  0  0  0
  -19.1620  -28.4810   23.1240 C   0  0  0  0  0  0  0  0  0  0  0  0
  -18.9410  -29.7110   23.7800 C   0  0  0  0  0  3  0  0  0  0  0  0
  -17.6340  -30.1850   24.0010 C   0  0  0  0  0  3  0  0  0  0  0  0
  -16.5300  -29.4230   23.5790 C   0  0  0  0  0  3  0  0  0  0  0  0
  -16.7360  -28.1940   22.9270 C   0  0  0  0  0  3  0  0  0  0  0  0
  -25.7920  -32.2810   23.6530 C   0  0  0  0  0  3  0  0  0  0  0  0
  -25.4500  -33.6560   24.0410 N   0  0  0  0  0  0  0  0  0  0  0  0
  -25.7420  -34.7450   23.3180 C   0  0  0  0  0  0  0  0  0  0  0  0
  -26.3990  -34.6990   22.2750 O   0  0  0  0  0  0  0  0  0  0  0  0
  -24.8630  -33.7630   24.8560 H   0  0  0  0  0  0  0  0  0  0  0  0
  -23.9540  -36.4960   23.0670 C   0  0  0  0  0  1  0  0  0  0  0  0
  -25.2250  -36.1010   23.8360 C   0  0  0  0  0  3  0  0  0  0  0  0
  -27.3490  -37.0230   24.6550 C   0  0  0  0  0  1  0  0  0  0  0  0
  -26.2250  -37.1870   23.7370 N   0  0  0  0  0  0  0  0  0  0  0  0
  -25.7950  -38.0900   23.9200 H   0  0  0  0  0  0  0  0  0  0  0  0
  -26.3470  -31.4740   24.8900 C   0  0  1  0  0  0  0  0  0  0  0  0
  -25.2790  -31.1700   25.9650 C   0  0  0  0  0  1  0  0  0  0  0  0
  -26.9550  -30.1270   24.4350 C   0  0  0  0  0  1  0  0  0  0  0  0
  -27.4910  -32.2690   25.5620 C   0  0  0  0  0  1  0  0  0  0  0  0
  -32.0840  -20.0580   20.2660 N   0  0  0  0  0  0  0  0  0  0  0  0
  -32.8600  -19.7160   19.7100 H   0  0  0  0  0  0  0  0  0  0  0  0
  -31.8860  -21.0430   20.1100 H   0  0  0  0  0  0  0  0  0  0  0  0
  1  4  1  0
  3 52  1  0
  3  6  2  0
  4  2  2  0
  4 16  1  0
  5  1  2  0
  5  3  1  0
  6  7  1  0
  6  2  1  0
  8 16  1  0
  9 14  1  0
 10 11  1  0
 10  9  1  0
 12 11  1  0
 12 21  1  0
 12 13  1  0
 14  8  1  0
 14 13  1  0
 15  8  2  0
 16 17  1  0
 18 19  2  0
 19 38  1  0
 20 19  1  0
 20 23  1  0
 21 22  1  0
 21 18  1  0
 22 20  2  0
 23 24  1  0
 24 25  2  0
 26 29  1  0
 26 25  1  0
 27 26  2  0
 28 27  1  0
 28 23  2  0
 29 30  1  0
 30 31  1  0
 31 32  2  0
 33 32  1  0
 33 37  1  0
 34 33  2  0
 35 30  2  0
 35 34  1  0
 36 35  1  0
 38 39  1  0
 39 42  1  0
 39 41  1  0
 40 38  2  0
 43 44  1  0
 43 18  1  0
 45 43  1  0
 46 47  2  0
 46 49  1  0
 48 46  1  0
 50 48  1  0
 50 52  1  0
 51 49  1  0
 52 51  1  0
 53 55  1  0
 53 47  1  0
 54 65  2  0
 55 60  1  0
 56 64  1  0
 56 66  1  0
 57 63  1  0
 57 59  1  0
 58 64  1  0
 59 58  1  0
 60 59  2  0
 61 62  1  0
 61 55  2  0
 62 57  2  0
 63 56  1  0
 64 54  1  0
 66 68  2  0
 67 66  1  0
 69 67  1  0
 70 79  2  0
 70 75  1  0
 71 67  1  0
 71 75  1  0
 72 71  1  0
 73 74  1  0
 73 72  1  0
 74 70  1  0
 75 76  2  0
 76 77  1  0
 78 77  2  0
 79 78  1  0
 80 54  1  0
 80 81  1  0
 80 90  1  0
 81 84  1  0
 82 86  1  0
 82 81  1  0
 83 82  2  0
 86 85  1  0
 88 86  1  0
 88 89  1  0
 88 87  1  0
 90 93  1  1
 90 91  1  0
 92 90  1  0
 94  5  1  0
 95 94  1  0
 96 94  1  0
M  ISO  4   8 100  16 100  47 101  53 101
M  END
>  <TORSDO>  (96) 
F 18

>  <SCORE>  (96) 
-14.587

>  <name>  (96) 
95

>  <ligand_id>  (96) 
95

>  <original_smiles>  (96) 
[H]C(Oc1c([H])c([H])c2c(c1[H])C([H])([H])N(C(=O)C([H])(N([H])C(=O)C([H])(N([H])C([H])([H])[H])C([H])([H])[H])C(C([H])([H])[H])(C([H])([H])[H])C([H])([H])[H])C([H])(C(=O)N([H])C1([H])c3c([H])c([H])c([H])c([H])c3C([H])([H])C([H])([H])C1([H])[H])C2([H])[H])=C1C([H])([H])C([H])([H])N(c2c(F)c([H])c(N([H])C(=O)N3C([H])([H])C([H])([H])C([H])([H])C([H])(n4nc(-c5c([H])c([H])c(Oc6c([H])c([H])c(F)c([H])c6F)c([H])c5[H])c(C(=O)N([H])[H])c4N([H])[H])C3([H])[H])c([H])c2N([H])[H])C([H])([H])C1([H])[H]

>  <smiles>  (96) 
[H]C(Oc1c([H])c([H])c2c(c1[H])C([H])([H])N(C(=O)C([H])(N([H])C(=O)C([H])(N([H])C([H])([H])[H])C([H])([H])[H])C(C([H])([H])[H])(C([H])([H])[H])C([H])([H])[H])C([H])(C(=O)N([H])C1([H])c3c([H])c([H])c([H])c([H])c3C([H])([H])C([H])([H])C1([H])[H])C2([H])[H])=C1C([H])([H])C([H])([H])N(c2c(F)c([H])c(N([H])C(=O)N3C([H])([H])C([H])([H])C([H])([H])C([H])(n4nc(-c5c([H])c([H])c(Oc6c([H])c([H])c(F)c([H])c6F)c([H])c5[H])c(C(=O)N([H])[H])c4N([H])[H])C3([H])[H])c([H])c2N([H])[H])C([H])([H])C1([H])[H]

$$$$
96:0:0
     RDKit          3D

 93101  0  0  1  0  0  0  0  0999 V2000
  -29.2310  -19.2830   19.8280 C   0  0  0  0  0  3  0  0  0  0  0  0
  -31.0520  -18.0210   21.5220 C   0  0  0  0  0  3  0  0  0  0  0  0
  -29.3400  -17.8460   19.8470 C   0  0  0  0  0  0  0  0  0  0  0  0
  -30.2400  -17.1610   20.7300 C   0  0  0  0  0  0  0  0  0  0  0  0
  -30.9550  -19.4410   21.4830 C   0  0  0  0  0  0  0  0  0  0  0  0
  -30.0250  -20.1230   20.6590 C   0  0  0  0  0  0  0  0  0  0  0  0
  -28.4300  -17.0550   18.9320 C   0  0  0  0  0  1  0  0  0  0  0  0
  -30.7450  -14.7160   20.1280 C   0  0  0  0  0  0  0  0  0  0  0  0
  -30.4040  -12.5420   18.9330 C   0  0  0  0  0  2  0  0  0  0  0  0
  -29.3930  -12.6890   17.7760 C   0  0  0  0  0  2  0  0  0  0  0  0
  -27.9540  -12.4790   18.2820 C   0  0  0  0  0  2  0  0  0  0  0  0
  -27.6570  -13.3020   19.5610 C   0  0  0  0  0  3  0  0  0  0  0  0
  -28.7750  -13.1510   20.6090 C   0  0  0  0  0  2  0  0  0  0  0  0
  -30.0580  -13.5270   19.9850 N   0  0  0  0  0  0  0  0  0  0  0  0
  -31.7910  -14.9070   19.4980 O   0  0  0  0  0  0  0  0  0  0  0  0
  -30.4130  -15.3350   22.4030 C   0  0  0  0  0  1  0  0  0  0  0  0
  -30.2610  -15.6930   20.9810 N   0  0  0  0  0  0  0  0  0  0  0  0
  -25.3100  -13.8510   20.4560 C   0  0  0  0  0  0  0  0  0  0  0  0
  -24.2770  -13.0550   20.8680 C   0  0  0  0  0  0  0  0  0  0  0  0
  -24.7510  -11.7120   20.7670 C   0  0  0  0  0  0  0  0  0  0  0  0
  -26.3450  -12.9910   20.1230 N   0  0  0  0  0  0  0  0  0  0  0  0
  -26.0190  -11.6960   20.3730 N   0  0  0  0  0  0  0  0  0  0  0  0
  -24.0500  -10.4370   20.9630 C   0  0  0  0  0  0  0  0  0  0  0  0
  -24.5080   -9.4770   21.8920 C   0  0  0  0  0  3  0  0  0  0  0  0
  -23.8050   -8.2670   22.0750 C   0  0  0  0  0  3  0  0  0  0  0  0
  -22.6300   -8.0090   21.3290 C   0  0  0  0  0  0  0  0  0  0  0  0
  -22.1920   -8.9580   20.3890 C   0  0  0  0  0  3  0  0  0  0  0  0
  -22.8960  -10.1600   20.2040 C   0  0  0  0  0  3  0  0  0  0  0  0
  -21.8970   -6.8510   21.4220 O   0  0  0  0  0  0  0  0  0  0  0  0
  -21.8100   -6.1470   22.5960 C   0  0  0  0  0  0  0  0  0  0  0  0
  -21.3140   -6.7340   23.7820 C   0  0  0  0  0  3  0  0  0  0  0  0
  -21.1750   -5.9550   24.9480 C   0  0  0  0  0  3  0  0  0  0  0  0
  -21.5210   -4.5910   24.9300 C   0  0  0  0  0  0  0  0  0  0  0  0
  -22.0100   -4.0040   23.7490 C   0  0  0  0  0  3  0  0  0  0  0  0
  -22.1510   -4.7800   22.5850 C   0  0  0  0  0  0  0  0  0  0  0  0
  -22.6020   -4.2050   21.4440 F   0  0  0  0  0  0  0  0  0  0  0  0
  -21.3810   -3.8400   26.0470 F   0  0  0  0  0  0  0  0  0  0  0  0
  -22.8970  -13.5090   21.2430 C   0  0  0  0  0  0  0  0  0  0  0  0
  -22.2380  -12.7900   22.1440 N   0  0  0  0  0  0  0  0  0  0  0  0
  -22.4130  -14.5380   20.7720 O   0  0  0  0  0  0  0  0  0  0  0  0
  -22.6430  -11.9590   22.5470 H   0  0  0  0  0  0  0  0  0  0  0  0
  -21.3130  -13.0750   22.4330 H   0  0  0  0  0  0  0  0  0  0  0  0
  -25.4430  -15.2270   20.3190 N   0  0  0  0  0  0  0  0  0  0  0  0
  -24.6800  -15.8670   20.5120 H   0  0  0  0  0  0  0  0  0  0  0  0
  -26.2730  -15.6920   19.9790 H   0  0  0  0  0  0  0  0  0  0  0  0
  -31.7870  -20.2000   22.3060 N   0  0  0  0  0  0  0  0  0  0  0  0
  -31.5150  -21.1730   22.4180 H   0  0  0  0  0  0  0  0  0  0  0  0
  -32.1120  -19.7820   23.1710 H   0  0  0  0  0  0  0  0  0  0  0  0
  -30.0100  -21.5390   20.7380 O   0  0  0  0  0  0  0  0  0  0  0  0
  -29.0030  -22.4270   20.1520 C   0  0  0  0  0  2  0  0  0  0  0  0
  -29.2240  -23.9790   20.5050 C   0  0  0  0  0  3  0  0  0  0  0  0
  -28.1670  -25.0620   20.0020 C   0  0  0  0  0  3  0  0  0  0  0  0
  -28.3470  -26.5030   20.3310 O   0  0  0  0  0  0  0  0  0  0  0  0
  -24.5980  -31.9230   23.3000 C   0  0  0  0  0  0  0  0  0  0  0  0
  -27.2330  -27.3620   20.2560 C   0  0  0  0  0  0  0  0  0  0  0  0
  -23.4100  -30.5370   21.6390 C   0  0  0  0  0  3  0  0  0  0  0  0
  -24.8720  -28.9880   20.2230 C   0  0  0  0  0  0  0  0  0  0  0  0
  -25.9530  -30.8430   21.4920 C   0  0  0  0  0  2  0  0  0  0  0  0
  -26.0350  -29.4670   20.8390 C   0  0  0  0  0  0  0  0  0  0  0  0
  -27.2180  -28.6660   20.8470 C   0  0  0  0  0  3  0  0  0  0  0  0
  -26.0470  -26.9450   19.6060 C   0  0  0  0  0  3  0  0  0  0  0  0
  -24.8810  -27.7320   19.5980 C   0  0  0  0  0  3  0  0  0  0  0  0
  -23.6380  -29.8660   20.2590 C   0  0  0  0  0  2  0  0  0  0  0  0
  -24.6710  -31.1170   22.2000 N   0  0  0  0  0  0  0  0  0  0  0  0
  -23.5080  -32.2030   23.8210 O   0  0  0  0  0  0  0  0  0  0  0  0
  -22.7300  -29.5190   22.5850 C   0  0  0  0  0  0  0  0  0  0  0  0
  -21.4060  -29.3410   22.4340 N   0  0  0  0  0  0  0  0  0  0  0  0
  -23.3930  -28.8930   23.4160 O   0  0  0  0  0  0  0  0  0  0  0  0
  -20.9310  -29.8960   21.7370 H   0  0  0  0  0  0  0  0  0  0  0  0
  -18.0190  -28.1520   22.8740 C   0  0  0  0  0  0  0  0  0  0  0  0
  -20.5730  -28.4040   23.1900 C   0  0  0  0  0  3  0  0  0  0  0  0
  -20.6810  -26.9730   22.6160 C   0  0  0  0  0  2  0  0  0  0  0  0
  -19.5980  -26.6550   21.5810 C   0  0  0  0  0  2  0  0  0  0  0  0
  -18.2040  -26.8030   22.1990 C   0  0  0  0  0  2  0  0  0  0  0  0
  -19.1310  -28.9110   23.3240 C   0  0  0  0  0  0  0  0  0  0  0  0
  -18.9050  -30.1730   23.9140 C   0  0  0  0  0  3  0  0  0  0  0  0
  -17.5980  -30.6760   24.0580 C   0  0  0  0  0  3  0  0  0  0  0  0
  -16.5000  -29.9140   23.6240 C   0  0  0  0  0  3  0  0  0  0  0  0
  -16.7110  -28.6550   23.0370 C   0  0  0  0  0  3  0  0  0  0  0  0
  -25.8740  -32.5470   23.9420 C   0  0  0  0  0  3  0  0  0  0  0  0
  -25.5750  -33.9520   24.2520 N   0  0  0  0  0  0  0  0  0  0  0  0
  -25.9140  -34.9920   23.4800 C   0  0  0  0  0  0  0  0  0  0  0  0
  -26.5820  -34.8710   22.4500 O   0  0  0  0  0  0  0  0  0  0  0  0
  -24.9800  -34.1210   25.0510 H   0  0  0  0  0  0  0  0  0  0  0  0
  -24.1880  -36.7850   23.1160 C   0  0  0  0  0  1  0  0  0  0  0  0
  -25.4370  -36.3900   23.9190 C   0  0  0  0  0  3  0  0  0  0  0  0
  -27.5830  -37.2830   24.7110 C   0  0  0  0  0  1  0  0  0  0  0  0
  -26.4710  -37.4380   23.7760 N   0  0  0  0  0  0  0  0  0  0  0  0
  -26.0710  -38.3620   23.9100 H   0  0  0  0  0  0  0  0  0  0  0  0
  -26.3550  -31.7830   25.2360 C   0  0  1  0  0  0  0  0  0  0  0  0
  -25.2370  -31.5670   26.2830 C   0  0  0  0  0  1  0  0  0  0  0  0
  -26.9330  -30.3960   24.8710 C   0  0  0  0  0  1  0  0  0  0  0  0
  -27.5000  -32.5710   25.9160 C   0  0  0  0  0  1  0  0  0  0  0  0
  1  3  2  0
  1  6  1  0
  3  4  1  0
  4 17  1  0
  4  2  2  0
  5  2  1  0
  5 46  1  0
  6 49  1  0
  6  5  2  0
  7  3  1  0
  8 17  1  0
  9 14  1  0
 10 11  1  0
 10  9  1  0
 12 11  1  0
 12 21  1  0
 12 13  1  0
 14  8  1  0
 14 13  1  0
 15  8  2  0
 17 16  1  0
 18 19  2  0
 19 38  1  0
 20 19  1  0
 20 23  1  0
 21 22  1  0
 21 18  1  0
 22 20  2  0
 23 24  1  0
 24 25  2  0
 26 29  1  0
 26 25  1  0
 27 26  2  0
 28 27  1  0
 28 23  2  0
 29 30  1  0
 30 31  1  0
 31 32  2  0
 33 32  1  0
 33 37  1  0
 34 33  2  0
 35 30  2  0
 35 34  1  0
 36 35  1  0
 38 39  1  0
 39 42  1  0
 39 41  1  0
 40 38  2  0
 43 18  1  0
 43 44  1  0
 45 43  1  0
 46 47  1  0
 46 48  1  0
 50 51  1  0
 50 49  1  0
 52 53  1  0
 52 51  2  0
 54 65  2  0
 55 53  1  0
 55 60  1  0
 56 64  1  0
 56 66  1  0
 57 63  1  0
 57 59  1  0
 58 64  1  0
 59 60  2  0
 59 58  1  0
 61 55  2  0
 62 61  1  0
 62 57  2  0
 63 56  1  0
 64 54  1  0
 66 68  2  0
 67 66  1  0
 69 67  1  0
 70 79  2  0
 70 75  1  0
 71 67  1  0
 71 75  1  0
 72 71  1  0
 73 74  1  0
 73 72  1  0
 74 70  1  0
 75 76  2  0
 76 77  1  0
 78 77  2  0
 79 78  1  0
 80 54  1  0
 80 81  1  0
 80 90  1  0
 81 84  1  0
 82 86  1  0
 82 81  1  0
 83 82  2  0
 86 85  1  0
 88 89  1  0
 88 86  1  0
 88 87  1  0
 90 93  1  1
 90 91  1  0
 92 90  1  0
M  ISO  4   8 100  17 100  52 101  53 101
M  END
>  <TORSDO>  (97) 
F 21

>  <SCORE>  (97) 
-13.048

>  <name>  (97) 
96

>  <ligand_id>  (97) 
96

>  <original_smiles>  (97) 
[H]c1c([H])c([H])c2c(c1[H])C([H])([H])C([H])([H])C([H])([H])C2([H])N([H])C(=O)C1([H])N(C(=O)C([H])(N([H])C(=O)C([H])(N([H])C([H])([H])[H])C([H])([H])[H])C(C([H])([H])[H])(C([H])([H])[H])C([H])([H])[H])C([H])([H])c2c([H])c(OC([H])([H])C([H])([H])C([H])([H])Oc3c([H])c(C([H])([H])[H])c(N(C(=O)N4C([H])([H])C([H])([H])C([H])([H])C([H])(n5nc(-c6c([H])c([H])c(Oc7c([H])c([H])c(F)c([H])c7F)c([H])c6[H])c(C(=O)N([H])[H])c5N([H])[H])C4([H])[H])C([H])([H])[H])c([H])c3N([H])[H])c([H])c([H])c2C1([H])[H]

>  <smiles>  (97) 
[H]c1c([H])c([H])c2c(c1[H])C([H])([H])C([H])([H])C([H])([H])C2([H])N([H])C(=O)C1([H])N(C(=O)C([H])(N([H])C(=O)C([H])(N([H])C([H])([H])[H])C([H])([H])[H])C(C([H])([H])[H])(C([H])([H])[H])C([H])([H])[H])C([H])([H])c2c([H])c(OC([H])([H])C([H])([H])C([H])([H])Oc3c([H])c(C([H])([H])[H])c(N(C(=O)N4C([H])([H])C([H])([H])C([H])([H])C([H])(n5nc(-c6c([H])c([H])c(Oc7c([H])c([H])c(F)c([H])c7F)c([H])c6[H])c(C(=O)N([H])[H])c5N([H])[H])C4([H])[H])C([H])([H])[H])c([H])c3N([H])[H])c([H])c([H])c2C1([H])[H]

$$$$
97:0:0
     RDKit          3D

 98107  0  0  1  0  0  0  0  0999 V2000
  -28.1010  -24.3780   20.8100 C   0  0  0  0  0  0  0  0  0  0  0  0
  -28.8290  -23.3640   20.2600 C   0  0  0  0  0  0  0  0  0  0  0  0
  -26.6870  -24.1030   21.1310 C   0  0  0  0  0  0  0  0  0  0  0  0
  -25.9840  -23.1260   20.2000 C   0  0  0  0  0  2  0  0  0  0  0  0
  -26.8350  -21.8810   19.8980 C   0  0  0  0  0  2  0  0  0  0  0  0
  -30.2750  -23.5750   19.8290 C   0  0  0  0  0  1  0  0  0  0  0  0
  -28.2900  -22.0860   19.9770 N   0  0  0  0  0  0  0  0  0  0  0  0
  -26.0650  -24.6200   22.0630 O   0  0  0  0  0  0  0  0  0  0  0  0
  -30.5560  -19.3910   21.3100 C   0  0  0  0  0  3  0  0  0  0  0  0
  -29.9530  -20.6520   21.1110 C   0  0  0  0  0  3  0  0  0  0  0  0
  -28.5890  -19.6990   19.3570 C   0  0  0  0  0  3  0  0  0  0  0  0
  -30.2030  -18.2630   20.5320 C   0  0  0  0  0  0  0  0  0  0  0  0
  -28.9510  -20.8360   20.1310 C   0  0  0  0  0  0  0  0  0  0  0  0
  -29.2090  -18.4370   19.5340 C   0  0  0  0  0  0  0  0  0  0  0  0
  -28.8470  -17.3830   18.6940 N   0  0  0  0  0  0  0  0  0  0  0  0
  -27.9760  -17.3870   18.1770 H   0  0  0  0  0  0  0  0  0  0  0  0
  -29.3060  -16.4840   18.7680 H   0  0  0  0  0  0  0  0  0  0  0  0
  -30.9990  -16.9600   20.7580 C   0  0  0  0  0  2  0  0  0  0  0  0
  -30.8770  -14.5580   20.1560 C   0  0  0  0  0  0  0  0  0  0  0  0
  -30.4400  -12.3980   19.0600 C   0  0  0  0  0  2  0  0  0  0  0  0
  -29.4730  -12.6060   17.8800 C   0  0  0  0  0  2  0  0  0  0  0  0
  -28.0150  -12.4830   18.3600 C   0  0  0  0  0  2  0  0  0  0  0  0
  -27.7250  -13.3440   19.6220 C   0  0  0  0  0  3  0  0  0  0  0  0
  -28.8250  -13.1720   20.6980 C   0  0  0  0  0  2  0  0  0  0  0  0
  -30.1300  -13.4240   20.0680 N   0  0  0  0  0  0  0  0  0  0  0  0
  -31.9920  -14.6440   19.6400 O   0  0  0  0  0  0  0  0  0  0  0  0
  -30.3080  -15.6510   20.6990 N   0  0  0  0  0  0  0  0  0  0  0  0
  -29.3800  -15.5820   21.0880 H   0  0  0  0  0  0  0  0  0  0  0  0
  -25.3710  -13.9580   20.4500 C   0  0  0  0  0  0  0  0  0  0  0  0
  -24.3090  -13.1930   20.8510 C   0  0  0  0  0  0  0  0  0  0  0  0
  -24.7470  -11.8360   20.7710 C   0  0  0  0  0  0  0  0  0  0  0  0
  -26.3940  -13.0690   20.1580 N   0  0  0  0  0  0  0  0  0  0  0  0
  -26.0240  -11.7850   20.4070 N   0  0  0  0  0  0  0  0  0  0  0  0
  -24.0070  -10.5800   20.9610 C   0  0  0  0  0  0  0  0  0  0  0  0
  -24.4280   -9.6060   21.8920 C   0  0  0  0  0  3  0  0  0  0  0  0
  -23.6900   -8.4170   22.0720 C   0  0  0  0  0  3  0  0  0  0  0  0
  -22.5140   -8.1930   21.3180 C   0  0  0  0  0  0  0  0  0  0  0  0
  -22.1080   -9.1550   20.3770 C   0  0  0  0  0  3  0  0  0  0  0  0
  -22.8470  -10.3360   20.1960 C   0  0  0  0  0  3  0  0  0  0  0  0
  -21.7450   -7.0580   21.4030 O   0  0  0  0  0  0  0  0  0  0  0  0
  -21.6590   -6.3350   22.5670 C   0  0  0  0  0  0  0  0  0  0  0  0
  -21.1740   -6.9070   23.7630 C   0  0  0  0  0  3  0  0  0  0  0  0
  -21.0390   -6.1130   24.9190 C   0  0  0  0  0  3  0  0  0  0  0  0
  -21.3790   -4.7490   24.8790 C   0  0  0  0  0  0  0  0  0  0  0  0
  -21.8580   -4.1760   23.6880 C   0  0  0  0  0  3  0  0  0  0  0  0
  -21.9970   -4.9680   22.5350 C   0  0  0  0  0  0  0  0  0  0  0  0
  -22.4410   -4.4070   21.3840 F   0  0  0  0  0  0  0  0  0  0  0  0
  -21.2380   -3.9830   25.9870 F   0  0  0  0  0  0  0  0  0  0  0  0
  -22.9320  -13.6860   21.1870 C   0  0  0  0  0  0  0  0  0  0  0  0
  -22.2270  -12.9850   22.0690 N   0  0  0  0  0  0  0  0  0  0  0  0
  -22.4900  -14.7270   20.7030 O   0  0  0  0  0  0  0  0  0  0  0  0
  -22.5980  -12.1390   22.4750 H   0  0  0  0  0  0  0  0  0  0  0  0
  -21.3060  -13.2970   22.3400 H   0  0  0  0  0  0  0  0  0  0  0  0
  -25.5380  -15.3290   20.2830 N   0  0  0  0  0  0  0  0  0  0  0  0
  -24.7400  -15.9520   20.3420 H   0  0  0  0  0  0  0  0  0  0  0  0
  -26.3270  -15.7370   19.7950 H   0  0  0  0  0  0  0  0  0  0  0  0
  -28.6180  -25.7830   21.1800 C   0  0  0  0  0  2  0  0  0  0  0  0
  -28.4800  -26.7790   20.1480 O   0  0  0  0  0  0  0  0  0  0  0  0
  -24.5930  -31.9110   23.2690 C   0  0  0  0  0  0  0  0  0  0  0  0
  -27.3220  -27.5240   20.1830 C   0  0  0  0  0  0  0  0  0  0  0  0
  -23.4270  -30.5220   21.5870 C   0  0  0  0  0  3  0  0  0  0  0  0
  -24.9180  -29.0160   20.1690 C   0  0  0  0  0  0  0  0  0  0  0  0
  -25.9520  -30.9050   21.4350 C   0  0  0  0  0  2  0  0  0  0  0  0
  -26.0610  -29.5390   20.7860 C   0  0  0  0  0  0  0  0  0  0  0  0
  -27.2690  -28.7990   20.7980 C   0  0  0  0  0  3  0  0  0  0  0  0
  -26.1700  -27.0230   19.5480 C   0  0  0  0  0  3  0  0  0  0  0  0
  -24.9660  -27.7520   19.5540 C   0  0  0  0  0  3  0  0  0  0  0  0
  -23.6640  -29.8610   20.2020 C   0  0  0  0  0  2  0  0  0  0  0  0
  -24.6740  -31.1260   22.1570 N   0  0  0  0  0  0  0  0  0  0  0  0
  -23.5020  -32.1680   23.7980 O   0  0  0  0  0  0  0  0  0  0  0  0
  -22.7730  -29.4820   22.5230 C   0  0  0  0  0  0  0  0  0  0  0  0
  -21.4490  -29.3020   22.3810 N   0  0  0  0  0  0  0  0  0  0  0  0
  -23.4520  -28.8440   23.3320 O   0  0  0  0  0  0  0  0  0  0  0  0
  -20.9630  -29.8720   21.7040 H   0  0  0  0  0  0  0  0  0  0  0  0
  -18.0690  -28.1310   22.8660 C   0  0  0  0  0  0  0  0  0  0  0  0
  -20.6290  -28.3540   23.1330 C   0  0  0  0  0  3  0  0  0  0  0  0
  -20.7160  -26.9360   22.5200 C   0  0  0  0  0  2  0  0  0  0  0  0
  -19.6050  -26.6490   21.5040 C   0  0  0  0  0  2  0  0  0  0  0  0
  -18.2250  -26.7970   22.1520 C   0  0  0  0  0  2  0  0  0  0  0  0
  -19.1980  -28.8670   23.3110 C   0  0  0  0  0  0  0  0  0  0  0  0
  -18.9990  -30.1140   23.9430 C   0  0  0  0  0  3  0  0  0  0  0  0
  -17.7030  -30.6230   24.1350 C   0  0  0  0  0  3  0  0  0  0  0  0
  -16.5870  -29.8860   23.7060 C   0  0  0  0  0  3  0  0  0  0  0  0
  -16.7710  -28.6410   23.0760 C   0  0  0  0  0  3  0  0  0  0  0  0
  -25.8650  -32.5440   23.9170 C   0  0  0  0  0  3  0  0  0  0  0  0
  -26.3480  -31.7850   25.2130 C   0  0  1  0  0  0  0  0  0  0  0  0
  -25.2280  -31.5550   26.2520 C   0  0  0  0  0  1  0  0  0  0  0  0
  -26.9430  -30.4050   24.8480 C   0  0  0  0  0  1  0  0  0  0  0  0
  -27.4790  -32.5880   25.8990 C   0  0  0  0  0  1  0  0  0  0  0  0
  -25.5520  -33.9460   24.2190 N   0  0  0  0  0  0  0  0  0  0  0  0
  -25.9160  -34.9880   23.4580 C   0  0  0  0  0  0  0  0  0  0  0  0
  -26.6190  -34.8690   22.4500 O   0  0  0  0  0  0  0  0  0  0  0  0
  -24.9280  -34.1140   24.9940 H   0  0  0  0  0  0  0  0  0  0  0  0
  -24.2140  -36.7890   23.0200 C   0  0  0  0  0  1  0  0  0  0  0  0
  -25.4220  -36.3850   23.8800 C   0  0  0  0  0  3  0  0  0  0  0  0
  -27.5230  -37.2670   24.7910 C   0  0  0  0  0  1  0  0  0  0  0  0
  -26.4650  -37.4290   23.7980 N   0  0  0  0  0  0  0  0  0  0  0  0
  -26.0590  -38.3530   23.9180 H   0  0  0  0  0  0  0  0  0  0  0  0
  1  3  1  0
  1 57  1  0
  2  1  2  0
  3  8  2  0
  4  3  1  0
  5  7  1  0
  5  4  1  0
  6  2  1  0
  7 13  1  0
  7  2  1  0
 10  9  1  0
 11 14  2  0
 11 13  1  0
 12 18  1  0
 12  9  2  0
 13 10  2  0
 14 12  1  0
 15 17  1  0
 15 14  1  0
 16 15  1  0
 19 27  1  0
 20 25  1  0
 21 22  1  0
 21 20  1  0
 23 22  1  0
 23 32  1  0
 23 24  1  0
 25 19  1  0
 25 24  1  0
 26 19  2  0
 27 18  1  0
 27 28  1  0
 29 30  2  0
 30 49  1  0
 31 30  1  0
 31 34  1  0
 32 33  1  0
 32 29  1  0
 33 31  2  0
 34 35  1  0
 35 36  2  0
 37 40  1  0
 37 36  1  0
 38 37  2  0
 39 38  1  0
 39 34  2  0
 40 41  1  0
 41 42  1  0
 42 43  2  0
 44 43  1  0
 44 48  1  0
 45 44  2  0
 46 41  2  0
 46 45  1  0
 47 46  1  0
 49 50  1  0
 50 53  1  0
 50 52  1  0
 51 49  2  0
 54 55  1  0
 54 29  1  0
 56 54  1  0
 58 60  1  0
 58 57  1  0
 59 70  2  0
 60 65  1  0
 61 69  1  0
 61 71  1  0
 62 68  1  0
 62 64  1  0
 63 69  1  0
 64 65  2  0
 64 63  1  0
 66 67  1  0
 66 60  2  0
 67 62  2  0
 68 61  1  0
 69 59  1  0
 71 73  2  0
 72 71  1  0
 74 72  1  0
 75 84  2  0
 75 80  1  0
 76 72  1  0
 76 80  1  0
 77 76  1  0
 78 79  1  0
 78 77  1  0
 79 75  1  0
 80 81  2  0
 81 82  1  0
 83 82  2  0
 84 83  1  0
 85 59  1  0
 85 90  1  0
 85 86  1  0
 86 89  1  1
 86 87  1  0
 88 86  1  0
 90 93  1  0
 91 95  1  0
 91 90  1  0
 92 91  2  0
 95 94  1  0
 97 95  1  0
 97 98  1  0
 97 96  1  0
M  ISO  4  19 100  27 100  57 101  58 101
M  END
>  <TORSDO>  (98) 
F 20

>  <SCORE>  (98) 
-14.380

>  <name>  (98) 
97

>  <ligand_id>  (98) 
97

>  <original_smiles>  (98) 
[H]c1c([H])c([H])c2c(c1[H])C([H])([H])C([H])([H])C([H])([H])C2([H])N([H])C(=O)C1([H])N(C(=O)C([H])(N([H])C(=O)C([H])(N([H])C([H])([H])[H])C([H])([H])[H])C(C([H])([H])[H])(C([H])([H])[H])C([H])([H])[H])C([H])([H])c2c([H])c(OC([H])([H])C3=C(C([H])([H])[H])N(c4c([H])c([H])c(C([H])([H])N([H])C(=O)N5C([H])([H])C([H])([H])C([H])([H])C([H])(n6nc(-c7c([H])c([H])c(Oc8c([H])c([H])c(F)c([H])c8F)c([H])c7[H])c(C(=O)N([H])[H])c6N([H])[H])C5([H])[H])c(N([H])[H])c4[H])C([H])([H])C([H])([H])C3=O)c([H])c([H])c2C1([H])[H]

>  <smiles>  (98) 
[H]c1c([H])c([H])c2c(c1[H])C([H])([H])C([H])([H])C([H])([H])C2([H])N([H])C(=O)C1([H])N(C(=O)C([H])(N([H])C(=O)C([H])(N([H])C([H])([H])[H])C([H])([H])[H])C(C([H])([H])[H])(C([H])([H])[H])C([H])([H])[H])C([H])([H])c2c([H])c(OC([H])([H])C3=C(C([H])([H])[H])N(c4c([H])c([H])c(C([H])([H])N([H])C(=O)N5C([H])([H])C([H])([H])C([H])([H])C([H])(n6nc(-c7c([H])c([H])c(Oc8c([H])c([H])c(F)c([H])c8F)c([H])c7[H])c(C(=O)N([H])[H])c6N([H])[H])C5([H])[H])c(N([H])[H])c4[H])C([H])([H])C([H])([H])C3=O)c([H])c([H])c2C1([H])[H]

$$$$
98:0:0
     RDKit          3D

 98107  0  0  1  0  0  0  0  0999 V2000
  -30.5990  -22.5620   17.9830 C   0  0  0  0  0  0  0  0  0  0  0  0
  -31.9030  -22.3630   18.7630 C   0  0  0  0  0  2  0  0  0  0  0  0
  -29.2590  -22.0560   18.5460 C   0  0  0  0  0  2  0  0  0  0  0  0
  -31.9930  -21.0600   19.5730 C   0  0  0  0  0  2  0  0  0  0  0  0
  -31.2490  -21.1350   20.9130 C   0  0  0  0  0  2  0  0  0  0  0  0
  -29.0410  -22.1670   20.0750 C   0  0  0  0  0  3  0  0  0  0  0  0
  -29.8010  -21.0230   20.7650 N   0  0  0  0  0  0  0  0  0  0  0  0
  -30.6260  -23.1370   16.8930 O   0  0  0  0  0  0  0  0  0  0  0  0
  -27.9210  -19.5430   21.2410 C   0  0  0  0  0  3  0  0  0  0  0  0
  -28.0490  -17.1090   21.4330 C   0  0  0  0  0  3  0  0  0  0  0  0
  -30.0320  -18.3840   20.8560 C   0  0  0  0  0  3  0  0  0  0  0  0
  -27.3030  -18.3020   21.4900 C   0  0  0  0  0  0  0  0  0  0  0  0
  -29.2870  -19.6560   20.9160 C   0  0  0  0  0  0  0  0  0  0  0  0
  -29.4210  -17.0770   21.1170 C   0  0  0  0  0  0  0  0  0  0  0  0
  -30.6160  -14.7420   20.5580 C   0  0  0  0  0  0  0  0  0  0  0  0
  -30.4600  -12.4730   19.4880 C   0  0  0  0  0  2  0  0  0  0  0  0
  -29.5300  -12.5300   18.2520 C   0  0  0  0  0  2  0  0  0  0  0  0
  -28.0550  -12.3480   18.6570 C   0  0  0  0  0  2  0  0  0  0  0  0
  -27.6590  -13.2300   19.8680 C   0  0  0  0  0  3  0  0  0  0  0  0
  -28.6980  -13.1210   21.0090 C   0  0  0  0  0  2  0  0  0  0  0  0
  -30.0190  -13.5000   20.4660 N   0  0  0  0  0  0  0  0  0  0  0  0
  -31.7090  -14.9440   20.0190 O   0  0  0  0  0  0  0  0  0  0  0  0
  -29.9880  -15.7100   21.3240 N   0  0  0  0  0  0  0  0  0  0  0  0
  -29.3900  -15.1960   21.9510 H   0  0  0  0  0  0  0  0  0  0  0  0
  -25.2510  -13.8070   20.5500 C   0  0  0  0  0  0  0  0  0  0  0  0
  -24.1800  -13.0380   20.9150 C   0  0  0  0  0  0  0  0  0  0  0  0
  -24.6410  -11.6870   20.8720 C   0  0  0  0  0  0  0  0  0  0  0  0
  -26.3020  -12.9340   20.3280 N   0  0  0  0  0  0  0  0  0  0  0  0
  -25.9360  -11.6490   20.5750 N   0  0  0  0  0  0  0  0  0  0  0  0
  -23.9060  -10.4280   21.0430 C   0  0  0  0  0  0  0  0  0  0  0  0
  -24.3590   -9.4190   21.9210 C   0  0  0  0  0  3  0  0  0  0  0  0
  -23.6260   -8.2240   22.0770 C   0  0  0  0  0  3  0  0  0  0  0  0
  -22.4240   -8.0270   21.3540 C   0  0  0  0  0  0  0  0  0  0  0  0
  -21.9870   -9.0260   20.4660 C   0  0  0  0  0  3  0  0  0  0  0  0
  -22.7220  -10.2130   20.3090 C   0  0  0  0  0  3  0  0  0  0  0  0
  -21.6630   -6.8860   21.4230 O   0  0  0  0  0  0  0  0  0  0  0  0
  -21.6850   -6.0720   22.5260 C   0  0  0  0  0  0  0  0  0  0  0  0
  -21.4020   -6.5610   23.8200 C   0  0  0  0  0  3  0  0  0  0  0  0
  -21.3660   -5.6760   24.9160 C   0  0  0  0  0  3  0  0  0  0  0  0
  -21.6050   -4.3030   24.7210 C   0  0  0  0  0  0  0  0  0  0  0  0
  -21.8820   -3.8130   23.4320 C   0  0  0  0  0  3  0  0  0  0  0  0
  -21.9180   -4.6940   22.3380 C   0  0  0  0  0  0  0  0  0  0  0  0
  -22.1660   -4.2130   21.0970 F   0  0  0  0  0  0  0  0  0  0  0  0
  -21.5620   -3.4520   25.7730 F   0  0  0  0  0  0  0  0  0  0  0  0
  -22.7830  -13.5220   21.1790 C   0  0  0  0  0  0  0  0  0  0  0  0
  -22.0430  -12.8310   22.0380 N   0  0  0  0  0  0  0  0  0  0  0  0
  -22.3550  -14.5510   20.6580 O   0  0  0  0  0  0  0  0  0  0  0  0
  -22.3990  -12.0030   22.4940 H   0  0  0  0  0  0  0  0  0  0  0  0
  -21.1070  -13.1460   22.2520 H   0  0  0  0  0  0  0  0  0  0  0  0
  -25.4100  -15.1710   20.3580 N   0  0  0  0  0  0  0  0  0  0  0  0
  -24.6200  -15.8030   20.4090 H   0  0  0  0  0  0  0  0  0  0  0  0
  -26.2140  -15.5880   19.9100 H   0  0  0  0  0  0  0  0  0  0  0  0
  -25.0070  -18.5540   20.5280 C   0  0  0  0  0  1  0  0  0  0  0  0
  -25.3890  -19.1280   22.9790 C   0  0  0  0  0  1  0  0  0  0  0  0
  -25.8110  -18.2400   21.7950 C   0  0  0  0  0  3  0  0  0  0  0  0
  -29.1920  -23.7280   20.5720 C   0  0  0  0  0  3  0  0  0  0  0  0
  -28.1740  -24.8780   20.0040 C   0  0  0  0  0  3  0  0  0  0  0  0
  -28.3450  -26.3630   20.2350 O   0  0  0  0  0  0  0  0  0  0  0  0
  -24.6320  -31.8530   23.1940 C   0  0  0  0  0  0  0  0  0  0  0  0
  -27.2400  -27.2530   20.1420 C   0  0  0  0  0  0  0  0  0  0  0  0
  -23.4290  -30.4760   21.5360 C   0  0  0  0  0  3  0  0  0  0  0  0
  -24.8810  -28.9160   20.1100 C   0  0  0  0  0  0  0  0  0  0  0  0
  -25.9750  -30.7660   21.3740 C   0  0  0  0  0  2  0  0  0  0  0  0
  -26.0510  -29.3870   20.7190 C   0  0  0  0  0  0  0  0  0  0  0  0
  -27.2290  -28.5690   20.7200 C   0  0  0  0  0  3  0  0  0  0  0  0
  -26.0450  -26.8570   19.4960 C   0  0  0  0  0  3  0  0  0  0  0  0
  -24.8840  -27.6590   19.4860 C   0  0  0  0  0  3  0  0  0  0  0  0
  -23.6500  -29.8030   20.1540 C   0  0  0  0  0  2  0  0  0  0  0  0
  -24.6970  -31.0510   22.0920 N   0  0  0  0  0  0  0  0  0  0  0  0
  -23.5460  -32.1360   23.7240 O   0  0  0  0  0  0  0  0  0  0  0  0
  -22.7500  -29.4620   22.4900 C   0  0  0  0  0  0  0  0  0  0  0  0
  -21.4200  -29.3060   22.3640 N   0  0  0  0  0  0  0  0  0  0  0  0
  -23.4190  -28.8170   23.3020 O   0  0  0  0  0  0  0  0  0  0  0  0
  -20.9370  -29.8780   21.6840 H   0  0  0  0  0  0  0  0  0  0  0  0
  -18.0290  -28.1380   22.8490 C   0  0  0  0  0  0  0  0  0  0  0  0
  -20.5890  -28.3710   23.1260 C   0  0  0  0  0  3  0  0  0  0  0  0
  -20.6780  -26.9430   22.5420 C   0  0  0  0  0  2  0  0  0  0  0  0
  -19.5760  -26.6380   21.5220 C   0  0  0  0  0  2  0  0  0  0  0  0
  -18.1930  -26.7940   22.1610 C   0  0  0  0  0  2  0  0  0  0  0  0
  -19.1540  -28.8860   23.2880 C   0  0  0  0  0  0  0  0  0  0  0  0
  -18.9480  -30.1460   23.8910 C   0  0  0  0  0  3  0  0  0  0  0  0
  -17.6480  -30.6600   24.0570 C   0  0  0  0  0  3  0  0  0  0  0  0
  -16.5370  -29.9100   23.6320 C   0  0  0  0  0  3  0  0  0  0  0  0
  -16.7280  -28.6510   23.0370 C   0  0  0  0  0  3  0  0  0  0  0  0
  -25.9150  -32.4740   23.8290 C   0  0  0  0  0  3  0  0  0  0  0  0
  -26.4510  -31.6560   25.0690 C   0  0  1  0  0  0  0  0  0  0  0  0
  -25.3750  -31.3740   26.1440 C   0  0  0  0  0  1  0  0  0  0  0  0
  -27.0330  -30.2950   24.6180 C   0  0  0  0  0  1  0  0  0  0  0  0
  -27.6030  -32.4330   25.7470 C   0  0  0  0  0  1  0  0  0  0  0  0
  -25.5930  -33.8540   24.2230 N   0  0  0  0  0  0  0  0  0  0  0  0
  -25.9060  -34.9440   23.5090 C   0  0  0  0  0  0  0  0  0  0  0  0
  -26.5640  -34.8920   22.4660 O   0  0  0  0  0  0  0  0  0  0  0  0
  -25.0080  -33.9650   25.0370 H   0  0  0  0  0  0  0  0  0  0  0  0
  -24.1490  -36.7290   23.2640 C   0  0  0  0  0  1  0  0  0  0  0  0
  -25.4110  -36.3060   24.0330 C   0  0  0  0  0  3  0  0  0  0  0  0
  -27.5580  -37.1800   24.8460 C   0  0  0  0  0  1  0  0  0  0  0  0
  -26.4280  -37.3770   23.9420 N   0  0  0  0  0  0  0  0  0  0  0  0
  -26.0160  -38.2850   24.1400 H   0  0  0  0  0  0  0  0  0  0  0  0
  1  3  1  0
  1  2  1  0
  2  4  1  0
  3  6  1  0
  4  5  1  0
  6 56  1  0
  6  7  1  0
  7  5  1  0
  7 13  1  0
  8  1  2  0
  9 12  1  0
 10 12  2  0
 11 13  1  0
 11 14  2  0
 12 55  1  0
 13  9  2  0
 14 23  1  0
 14 10  1  0
 15 23  1  0
 16 21  1  0
 17 18  1  0
 17 16  1  0
 19 18  1  0
 19 28  1  0
 19 20  1  0
 21 15  1  0
 21 20  1  0
 22 15  2  0
 23 24  1  0
 25 26  2  0
 26 45  1  0
 27 26  1  0
 27 30  1  0
 28 25  1  0
 28 29  1  0
 29 27  2  0
 30 31  1  0
 31 32  2  0
 33 36  1  0
 33 32  1  0
 34 33  2  0
 35 34  1  0
 35 30  2  0
 36 37  1  0
 37 38  1  0
 38 39  2  0
 40 39  1  0
 40 44  1  0
 41 40  2  0
 42 37  2  0
 42 41  1  0
 43 42  1  0
 45 46  1  0
 46 49  1  0
 46 48  1  0
 47 45  2  0
 50 51  1  0
 50 25  1  0
 52 50  1  0
 53 55  1  0
 55 54  1  0
 57 58  1  0
 57 56  2  0
 59 70  2  0
 60 58  1  0
 60 65  1  0
 61 69  1  0
 61 71  1  0
 62 68  1  0
 62 64  1  0
 63 69  1  0
 64 65  2  0
 64 63  1  0
 66 60  2  0
 67 66  1  0
 67 62  2  0
 68 61  1  0
 69 59  1  0
 71 73  2  0
 72 71  1  0
 74 72  1  0
 75 84  2  0
 75 80  1  0
 76 72  1  0
 76 80  1  0
 77 76  1  0
 78 79  1  0
 78 77  1  0
 79 75  1  0
 80 81  2  0
 81 82  1  0
 83 82  2  0
 84 83  1  0
 85 59  1  0
 85 90  1  0
 85 86  1  0
 86 89  1  1
 86 87  1  0
 88 86  1  0
 90 93  1  0
 91 95  1  0
 91 90  1  0
 92 91  2  0
 95 94  1  0
 97 95  1  0
 97 98  1  0
 97 96  1  0
M  ISO  4  15 100  23 100  57 101  58 101
M  END
>  <TORSDO>  (99) 
F 20

>  <SCORE>  (99) 
9.091

>  <name>  (99) 
98

>  <ligand_id>  (99) 
98

>  <original_smiles>  (99) 
[H]c1c([H])c([H])c2c(c1[H])C([H])([H])C([H])([H])C([H])([H])C2([H])N([H])C(=O)C1([H])N(C(=O)C([H])(N([H])C(=O)C([H])(N([H])C([H])([H])[H])C([H])([H])[H])C(C([H])([H])[H])(C([H])([H])[H])C([H])([H])[H])C([H])([H])c2c([H])c(OC([H])([H])C([H])([H])C3([H])N(c4c([H])c(N([H])C(=O)N5C([H])([H])C([H])([H])C([H])([H])C([H])(n6nc(-c7c([H])c([H])c(Oc8c([H])c([H])c(F)c([H])c8F)c([H])c7[H])c(C(=O)N([H])[H])c6N([H])[H])C5([H])[H])c([H])c(C([H])(C([H])([H])[H])C([H])([H])[H])c4[H])C([H])([H])C([H])([H])C([H])([H])C(=O)C3([H])[H])c([H])c([H])c2C1([H])[H]

>  <smiles>  (99) 
[H]c1c([H])c([H])c2c(c1[H])C([H])([H])C([H])([H])C([H])([H])C2([H])N([H])C(=O)C1([H])N(C(=O)C([H])(N([H])C(=O)C([H])(N([H])C([H])([H])[H])C([H])([H])[H])C(C([H])([H])[H])(C([H])([H])[H])C([H])([H])[H])C([H])([H])c2c([H])c(OC([H])([H])C([H])([H])C3([H])N(c4c([H])c(N([H])C(=O)N5C([H])([H])C([H])([H])C([H])([H])C([H])(n6nc(-c7c([H])c([H])c(Oc8c([H])c([H])c(F)c([H])c8F)c([H])c7[H])c(C(=O)N([H])[H])c6N([H])[H])C5([H])[H])c([H])c(C([H])(C([H])([H])[H])C([H])([H])[H])c4[H])C([H])([H])C([H])([H])C([H])([H])C(=O)C3([H])[H])c([H])c([H])c2C1([H])[H]

$$$$
