0:0:0
     RDKit          3D

 94102  0  0  1  0  0  0  0  0999 V2000
  -29.7730  -17.3580   19.5060 C   0  0  0  0  0  3  0  0  0  0  0  0
  -29.4320  -18.7510   19.4140 C   0  0  0  0  0  0  0  0  0  0  0  0
  -30.3290  -16.9990   20.7130 C   0  0  0  0  0  0  0  0  0  0  0  0
  -29.7400  -19.4830   20.5420 C   0  0  0  0  0  0  0  0  0  0  0  0
  -30.4700  -18.4240   21.7350 S   0  0  0  0  0  0  0  0  0  0  0  0
  -30.7280  -15.6680   21.2300 C   0  0  0  0  0  0  0  0  0  0  0  0
  -30.7370  -15.4180   22.4740 N   0  0  0  0  0  0  0  0  0  0  0  0
  -30.4170  -16.2170   23.0090 H   0  0  0  0  0  0  0  0  0  0  0  0
  -31.2010  -14.6290   20.1950 C   0  0  0  0  0  0  0  0  0  0  0  0
  -30.7610  -12.5510   18.9300 C   0  0  0  0  0  2  0  0  0  0  0  0
  -29.7790  -12.8390   17.7740 C   0  0  0  0  0  2  0  0  0  0  0  0
  -28.3190  -12.7240   18.2530 C   0  0  0  0  0  2  0  0  0  0  0  0
  -28.0630  -13.5030   19.5690 C   0  0  0  0  0  3  0  0  0  0  0  0
  -29.1460  -13.1780   20.6180 C   0  0  0  0  0  2  0  0  0  0  0  0
  -30.4650  -13.4860   20.0310 N   0  0  0  0  0  0  0  0  0  0  0  0
  -32.2310  -14.8540   19.5490 O   0  0  0  0  0  0  0  0  0  0  0  0
  -25.7100  -14.1600   20.3780 C   0  0  0  0  0  0  0  0  0  0  0  0
  -24.6370  -13.4090   20.7750 C   0  0  0  0  0  0  0  0  0  0  0  0
  -25.0570  -12.0470   20.6990 C   0  0  0  0  0  0  0  0  0  0  0  0
  -26.7200  -13.2560   20.0900 N   0  0  0  0  0  0  0  0  0  0  0  0
  -26.3320  -11.9780   20.3370 N   0  0  0  0  0  0  0  0  0  0  0  0
  -24.3030  -10.8010   20.8940 C   0  0  0  0  0  0  0  0  0  0  0  0
  -24.7030   -9.8390   21.8460 C   0  0  0  0  0  3  0  0  0  0  0  0
  -23.9520   -8.6580   22.0280 C   0  0  0  0  0  3  0  0  0  0  0  0
  -22.7890   -8.4300   21.2560 C   0  0  0  0  0  0  0  0  0  0  0  0
  -22.4090   -9.3810   20.2930 C   0  0  0  0  0  3  0  0  0  0  0  0
  -23.1600  -10.5550   20.1090 C   0  0  0  0  0  3  0  0  0  0  0  0
  -22.0110   -7.3020   21.3450 O   0  0  0  0  0  0  0  0  0  0  0  0
  -21.8610   -6.6230   22.5280 C   0  0  0  0  0  0  0  0  0  0  0  0
  -21.3440   -7.2460   23.6840 C   0  0  0  0  0  3  0  0  0  0  0  0
  -21.1400   -6.4930   24.8580 C   0  0  0  0  0  3  0  0  0  0  0  0
  -21.4450   -5.1190   24.8770 C   0  0  0  0  0  0  0  0  0  0  0  0
  -21.9550   -4.4950   23.7250 C   0  0  0  0  0  3  0  0  0  0  0  0
  -22.1600   -5.2450   22.5530 C   0  0  0  0  0  0  0  0  0  0  0  0
  -22.6320   -4.6350   21.4390 F   0  0  0  0  0  0  0  0  0  0  0  0
  -21.2430   -4.3940   26.0020 F   0  0  0  0  0  0  0  0  0  0  0  0
  -23.2650  -13.9180   21.1140 C   0  0  0  0  0  0  0  0  0  0  0  0
  -22.5580  -13.2290   22.0060 N   0  0  0  0  0  0  0  0  0  0  0  0
  -22.8310  -14.9600   20.6280 O   0  0  0  0  0  0  0  0  0  0  0  0
  -22.9220  -12.3830   22.4210 H   0  0  0  0  0  0  0  0  0  0  0  0
  -21.6410  -13.5520   22.2760 H   0  0  0  0  0  0  0  0  0  0  0  0
  -25.9060  -15.5290   20.2220 N   0  0  0  0  0  0  0  0  0  0  0  0
  -25.1650  -16.2040   20.3780 H   0  0  0  0  0  0  0  0  0  0  0  0
  -26.7610  -15.9530   19.8840 H   0  0  0  0  0  0  0  0  0  0  0  0
  -28.8290  -19.2480   18.2510 N   0  0  0  0  0  0  0  0  0  0  0  0
  -28.3220  -18.5920   17.6670 H   0  0  0  0  0  0  0  0  0  0  0  0
  -28.3490  -20.1390   18.3410 H   0  0  0  0  0  0  0  0  0  0  0  0
  -29.5340  -20.8340   20.8710 N   0  0  0  0  0  2  0  0  0  0  0  0
  -28.8160  -21.6450   20.2380 N   0  0  0  0  0  2  0  0  0  0  0  0
  -26.9990  -22.7190   21.3630 C   0  0  0  0  0  1  0  0  0  0  0  0
  -28.4810  -22.9020   20.9920 C   0  0  0  0  0  3  0  0  0  0  0  0
  -28.7220  -24.1530   20.0840 C   0  0  0  0  0  2  0  0  0  0  0  0
  -28.4590  -25.5050   20.8210 C   0  0  0  0  0  2  0  0  0  0  0  0
  -28.5270  -26.6990   20.0070 O   0  0  0  0  0  0  0  0  0  0  0  0
  -24.5630  -31.7760   23.0950 C   0  0  0  0  0  0  0  0  0  0  0  0
  -27.3630  -27.4430   19.9880 C   0  0  0  0  0  0  0  0  0  0  0  0
  -23.4180  -30.3700   21.4140 C   0  0  0  0  0  3  0  0  0  0  0  0
  -24.9330  -28.8940   19.9840 C   0  0  0  0  0  0  0  0  0  0  0  0
  -25.9370  -30.7990   21.2550 C   0  0  0  0  0  2  0  0  0  0  0  0
  -26.0700  -29.4390   20.5950 C   0  0  0  0  0  0  0  0  0  0  0  0
  -27.2910  -28.7230   20.5890 C   0  0  0  0  0  3  0  0  0  0  0  0
  -26.2120  -26.9140   19.3700 C   0  0  0  0  0  3  0  0  0  0  0  0
  -24.9990  -27.6320   19.3660 C   0  0  0  0  0  3  0  0  0  0  0  0
  -23.6650  -29.7180   20.0270 C   0  0  0  0  0  2  0  0  0  0  0  0
  -24.6570  -30.9960   21.9800 N   0  0  0  0  0  0  0  0  0  0  0  0
  -23.4690  -32.0100   23.6250 O   0  0  0  0  0  0  0  0  0  0  0  0
  -22.7800  -29.3180   22.3500 C   0  0  0  0  0  0  0  0  0  0  0  0
  -21.4590  -29.1150   22.2130 N   0  0  0  0  0  0  0  0  0  0  0  0
  -23.4700  -28.6870   23.1540 O   0  0  0  0  0  0  0  0  0  0  0  0
  -20.9610  -29.6780   21.5370 H   0  0  0  0  0  0  0  0  0  0  0  0
  -18.1000  -27.8750   22.6940 C   0  0  0  0  0  0  0  0  0  0  0  0
  -20.6570  -28.1460   22.9600 C   0  0  0  0  0  3  0  0  0  0  0  0
  -20.7690  -26.7350   22.3380 C   0  0  0  0  0  2  0  0  0  0  0  0
  -19.6640  -26.4350   21.3220 C   0  0  0  0  0  2  0  0  0  0  0  0
  -18.2840  -26.5490   21.9770 C   0  0  0  0  0  2  0  0  0  0  0  0
  -19.2140  -28.6330   23.1430 C   0  0  0  0  0  0  0  0  0  0  0  0
  -18.9890  -29.8760   23.7730 C   0  0  0  0  0  3  0  0  0  0  0  0
  -17.6810  -30.3600   23.9610 C   0  0  0  0  0  3  0  0  0  0  0  0
  -16.5810  -29.5990   23.5300 C   0  0  0  0  0  3  0  0  0  0  0  0
  -16.7910  -28.3590   22.9030 C   0  0  0  0  0  3  0  0  0  0  0  0
  -25.8230  -32.4320   23.7420 C   0  0  0  0  0  3  0  0  0  0  0  0
  -25.4720  -33.8150   24.0940 N   0  0  0  0  0  0  0  0  0  0  0  0
  -25.7930  -34.8910   23.3620 C   0  0  0  0  0  0  0  0  0  0  0  0
  -26.4850  -34.8240   22.3420 O   0  0  0  0  0  0  0  0  0  0  0  0
  -24.8570  -33.9390   24.8840 H   0  0  0  0  0  0  0  0  0  0  0  0
  -24.0310  -36.6490   23.0020 C   0  0  0  0  0  1  0  0  0  0  0  0
  -25.2610  -36.2570   23.8360 C   0  0  0  0  0  3  0  0  0  0  0  0
  -27.3510  -37.1750   24.7380 C   0  0  0  0  0  1  0  0  0  0  0  0
  -26.2700  -37.3360   23.7700 N   0  0  0  0  0  0  0  0  0  0  0  0
  -25.8390  -38.2430   23.9250 H   0  0  0  0  0  0  0  0  0  0  0  0
  -26.3500  -31.6500   25.0080 C   0  0  1  0  0  0  0  0  0  0  0  0
  -25.2550  -31.3570   26.0590 C   0  0  0  0  0  1  0  0  0  0  0  0
  -26.9760  -30.2990   24.5920 C   0  0  0  0  0  1  0  0  0  0  0  0
  -27.4710  -32.4650   25.6980 C   0  0  0  0  0  1  0  0  0  0  0  0
  1  3  2  0
  2  1  1  0
  2  4  2  0
  3  6  1  0
  3  5  1  0
  4 48  1  0
  4  5  1  0
  6  7  2  0
  7  8  1  0
  9  6  1  0
 10 15  1  0
 11 12  1  0
 11 10  1  0
 13 12  1  0
 13 20  1  0
 13 14  1  0
 15  9  1  0
 15 14  1  0
 16  9  2  0
 17 18  2  0
 18 37  1  0
 19 18  1  0
 19 22  1  0
 20 21  1  0
 20 17  1  0
 21 19  2  0
 22 23  1  0
 23 24  2  0
 25 28  1  0
 25 24  1  0
 26 25  2  0
 27 26  1  0
 27 22  2  0
 28 29  1  0
 29 34  2  0
 29 30  1  0
 30 31  2  0
 31 32  1  0
 32 36  1  0
 33 32  2  0
 34 33  1  0
 35 34  1  0
 37 38  1  0
 38 41  1  0
 38 40  1  0
 39 37  2  0
 42 43  1  0
 42 17  1  0
 44 42  1  0
 45 47  1  0
 45  2  1  0
 46 45  1  0
 49 48  1  0
 49 51  1  0
 51 50  1  0
 52 53  1  0
 52 51  1  0
 54 53  1  0
 55 66  2  0
 56 54  1  0
 56 61  1  0
 57 65  1  0
 57 67  1  0
 58 64  1  0
 58 60  1  0
 59 65  1  0
 60 59  1  0
 61 60  2  0
 62 56  2  0
 63 62  1  0
 63 58  2  0
 64 57  1  0
 65 55  1  0
 67 69  2  0
 68 67  1  0
 70 68  1  0
 71 80  2  0
 71 76  1  0
 72 68  1  0
 72 76  1  0
 73 72  1  0
 74 75  1  0
 74 73  1  0
 75 71  1  0
 76 77  2  0
 77 78  1  0
 79 78  2  0
 80 79  1  0
 81 55  1  0
 81 82  1  0
 81 91  1  0
 82 85  1  0
 83 87  1  0
 83 82  1  0
 84 83  2  0
 87 86  1  0
 89 87  1  0
 89 90  1  0
 89 88  1  0
 91 94  1  1
 91 92  1  0
 93 91  1  0
M  ISO  4   6 100   9 100  53 101  54 101
M  END
>  <TORSDO>  (1) 
F 22

>  <SCORE>  (1) 
-12.596

>  <name>  (1) 
0

>  <ligand_id>  (1) 
0

>  <original_smiles>  (1) 
[H]N=C(C(=O)N1C([H])([H])C([H])([H])C([H])([H])C([H])(n2nc(-c3c([H])c([H])c(Oc4c([H])c([H])c(F)c([H])c4F)c([H])c3[H])c(C(=O)N([H])[H])c2N([H])[H])C1([H])[H])c1sc(N=NC([H])(C([H])([H])[H])C([H])([H])C([H])([H])Oc2c([H])c([H])c3c(c2[H])C([H])([H])N(C(=O)C([H])(N([H])C(=O)C([H])(N([H])C([H])([H])[H])C([H])([H])[H])C(C([H])([H])[H])(C([H])([H])[H])C([H])([H])[H])C([H])(C(=O)N([H])C2([H])c4c([H])c([H])c([H])c([H])c4C([H])([H])C([H])([H])C2([H])[H])C3([H])[H])c(N([H])[H])c1[H]

>  <smiles>  (1) 
[H]N=C(C(=O)N1C([H])([H])C([H])([H])C([H])([H])C([H])(n2nc(-c3c([H])c([H])c(Oc4c([H])c([H])c(F)c([H])c4F)c([H])c3[H])c(C(=O)N([H])[H])c2N([H])[H])C1([H])[H])c1sc(N=NC([H])(C([H])([H])[H])C([H])([H])C([H])([H])Oc2c([H])c([H])c3c(c2[H])C([H])([H])N(C(=O)C([H])(N([H])C(=O)C([H])(N([H])C([H])([H])[H])C([H])([H])[H])C(C([H])([H])[H])(C([H])([H])[H])C([H])([H])[H])C([H])(C(=O)N([H])C2([H])c4c([H])c([H])c([H])c([H])c4C([H])([H])C([H])([H])C2([H])[H])C3([H])[H])c(N([H])[H])c1[H]

$$$$
1:0:0
     RDKit          3D

 95103  0  0  1  0  0  0  0  0999 V2000
  -28.8630  -19.1820   20.5110 C   0  0  0  0  0  3  0  0  0  0  0  0
  -28.8780  -17.7530   20.5760 C   0  0  0  0  0  0  0  0  0  0  0  0
  -30.1290  -17.0340   20.6250 C   0  0  0  0  0  0  0  0  0  0  0  0
  -31.2730  -17.8960   20.6830 C   0  0  0  0  0  0  0  0  0  0  0  0
  -30.0480  -19.9430   20.5190 C   0  0  0  0  0  0  0  0  0  0  0  0
  -29.1680  -22.3580   20.1360 C   0  0  0  0  0  0  0  0  0  0  0  0
  -32.6970  -17.4250   20.8950 C   0  0  0  0  0  1  0  0  0  0  0  0
  -31.2110  -19.2600   20.6230 N   0  0  0  0  0  0  0  0  0  0  0  0
  -30.0700  -21.4020   20.5240 N   0  0  0  0  0  0  0  0  0  0  0  0
  -28.0920  -22.0690   19.6030 O   0  0  0  0  0  0  0  0  0  0  0  0
  -30.9400  -21.7870   20.8590 H   0  0  0  0  0  0  0  0  0  0  0  0
  -30.7630  -14.5370   19.9690 C   0  0  0  0  0  0  0  0  0  0  0  0
  -30.3990  -12.3940   18.7550 C   0  0  0  0  0  2  0  0  0  0  0  0
  -29.3720  -12.6320   17.6270 C   0  0  0  0  0  2  0  0  0  0  0  0
  -27.9320  -12.4620   18.1520 C   0  0  0  0  0  2  0  0  0  0  0  0
  -27.6880  -13.2280   19.4800 C   0  0  0  0  0  3  0  0  0  0  0  0
  -28.8270  -12.9770   20.4960 C   0  0  0  0  0  2  0  0  0  0  0  0
  -30.0970  -13.3430   19.8490 N   0  0  0  0  0  0  0  0  0  0  0  0
  -31.8550  -14.6840   19.4250 O   0  0  0  0  0  0  0  0  0  0  0  0
  -30.1120  -15.5470   20.6330 N   0  0  0  0  0  0  0  0  0  0  0  0
  -29.3090  -15.1770   21.1300 H   0  0  0  0  0  0  0  0  0  0  0  0
  -25.3350  -13.7870   20.3490 C   0  0  0  0  0  0  0  0  0  0  0  0
  -24.3060  -12.9980   20.7830 C   0  0  0  0  0  0  0  0  0  0  0  0
  -24.7760  -11.6520   20.6970 C   0  0  0  0  0  0  0  0  0  0  0  0
  -26.3750  -12.9230   20.0420 N   0  0  0  0  0  0  0  0  0  0  0  0
  -26.0450  -11.6320   20.3050 N   0  0  0  0  0  0  0  0  0  0  0  0
  -24.0720  -10.3800   20.9050 C   0  0  0  0  0  0  0  0  0  0  0  0
  -24.5340   -9.4250   21.8380 C   0  0  0  0  0  3  0  0  0  0  0  0
  -23.8290   -8.2180   22.0370 C   0  0  0  0  0  3  0  0  0  0  0  0
  -22.6460   -7.9570   21.3030 C   0  0  0  0  0  0  0  0  0  0  0  0
  -22.2030   -8.9010   20.3590 C   0  0  0  0  0  3  0  0  0  0  0  0
  -22.9100  -10.0990   20.1580 C   0  0  0  0  0  3  0  0  0  0  0  0
  -21.9110   -6.8010   21.4090 O   0  0  0  0  0  0  0  0  0  0  0  0
  -21.8230   -6.1120   22.5920 C   0  0  0  0  0  0  0  0  0  0  0  0
  -21.3540   -6.7210   23.7780 C   0  0  0  0  0  3  0  0  0  0  0  0
  -21.2160   -5.9570   24.9540 C   0  0  0  0  0  3  0  0  0  0  0  0
  -21.5340   -4.5860   24.9460 C   0  0  0  0  0  0  0  0  0  0  0  0
  -21.9950   -3.9770   23.7660 C   0  0  0  0  0  3  0  0  0  0  0  0
  -22.1380   -4.7380   22.5920 C   0  0  0  0  0  0  0  0  0  0  0  0
  -22.5630   -4.1420   21.4520 F   0  0  0  0  0  0  0  0  0  0  0  0
  -21.3920   -3.8500   26.0730 F   0  0  0  0  0  0  0  0  0  0  0  0
  -22.9260  -13.4580   21.1560 C   0  0  0  0  0  0  0  0  0  0  0  0
  -22.2740  -12.7560   22.0750 N   0  0  0  0  0  0  0  0  0  0  0  0
  -22.4380  -14.4760   20.6670 O   0  0  0  0  0  0  0  0  0  0  0  0
  -22.6830  -11.9330   22.4920 H   0  0  0  0  0  0  0  0  0  0  0  0
  -21.3540  -13.0490   22.3700 H   0  0  0  0  0  0  0  0  0  0  0  0
  -25.4640  -15.1570   20.1590 N   0  0  0  0  0  0  0  0  0  0  0  0
  -24.6700  -15.7790   20.2640 H   0  0  0  0  0  0  0  0  0  0  0  0
  -26.2480  -15.5810   19.6820 H   0  0  0  0  0  0  0  0  0  0  0  0
  -27.5450  -17.0590   20.6690 C   0  0  0  0  0  0  0  0  0  0  0  0
  -26.3390  -17.7300   20.0190 C   0  0  0  0  0  1  0  0  0  0  0  0
  -27.3720  -15.9750   21.2350 O   0  0  0  0  0  0  0  0  0  0  0  0
  -29.5100  -23.8840   20.3690 C   0  0  0  0  0  3  0  0  0  0  0  0
  -28.4980  -24.9600   19.7880 C   0  0  0  0  0  3  0  0  0  0  0  0
  -28.6860  -26.4000   20.0770 O   0  0  0  0  0  0  0  0  0  0  0  0
  -24.7740  -31.6100   23.1580 C   0  0  0  0  0  0  0  0  0  0  0  0
  -27.5480  -27.2200   20.0190 C   0  0  0  0  0  0  0  0  0  0  0  0
  -23.6340  -30.2400   21.4520 C   0  0  0  0  0  3  0  0  0  0  0  0
  -25.1460  -28.7710   20.0080 C   0  0  0  0  0  0  0  0  0  0  0  0
  -26.1680  -30.6230   21.3280 C   0  0  0  0  0  2  0  0  0  0  0  0
  -26.2930  -29.2700   20.6400 C   0  0  0  0  0  0  0  0  0  0  0  0
  -27.4980  -28.5080   20.6340 C   0  0  0  0  0  3  0  0  0  0  0  0
  -26.3740  -26.7740   19.3650 C   0  0  0  0  0  3  0  0  0  0  0  0
  -25.1890  -27.5270   19.3630 C   0  0  0  0  0  3  0  0  0  0  0  0
  -23.8900  -29.6150   20.0560 C   0  0  0  0  0  2  0  0  0  0  0  0
  -24.8770  -30.8390   22.0370 N   0  0  0  0  0  0  0  0  0  0  0  0
  -23.6740  -31.8470   23.6780 O   0  0  0  0  0  0  0  0  0  0  0  0
  -22.9770  -29.1760   22.3640 C   0  0  0  0  0  0  0  0  0  0  0  0
  -21.6580  -28.9770   22.2050 N   0  0  0  0  0  0  0  0  0  0  0  0
  -23.6530  -28.5380   23.1750 O   0  0  0  0  0  0  0  0  0  0  0  0
  -21.1710  -29.5470   21.5270 H   0  0  0  0  0  0  0  0  0  0  0  0
  -18.2840  -27.7490   22.6500 C   0  0  0  0  0  0  0  0  0  0  0  0
  -20.8420  -28.0000   22.9290 C   0  0  0  0  0  3  0  0  0  0  0  0
  -20.9450  -26.5990   22.2840 C   0  0  0  0  0  2  0  0  0  0  0  0
  -19.8430  -26.3240   21.2570 C   0  0  0  0  0  2  0  0  0  0  0  0
  -18.4620  -26.4350   21.9080 C   0  0  0  0  0  2  0  0  0  0  0  0
  -19.4020  -28.4920   23.1150 C   0  0  0  0  0  0  0  0  0  0  0  0
  -19.1820  -29.7230   23.7690 C   0  0  0  0  0  3  0  0  0  0  0  0
  -17.8760  -30.2130   23.9600 C   0  0  0  0  0  3  0  0  0  0  0  0
  -16.7730  -29.4680   23.5100 C   0  0  0  0  0  3  0  0  0  0  0  0
  -16.9780  -28.2370   22.8610 C   0  0  0  0  0  3  0  0  0  0  0  0
  -26.0300  -32.2490   23.8260 C   0  0  0  0  0  3  0  0  0  0  0  0
  -26.5110  -31.4740   25.1130 C   0  0  1  0  0  0  0  0  0  0  0  0
  -25.3810  -31.2020   26.1340 C   0  0  0  0  0  1  0  0  0  0  0  0
  -27.1370  -30.1130   24.7310 C   0  0  0  0  0  1  0  0  0  0  0  0
  -27.6190  -32.2830   25.8290 C   0  0  0  0  0  1  0  0  0  0  0  0
  -25.6960  -33.6420   24.1560 N   0  0  0  0  0  0  0  0  0  0  0  0
  -26.0170  -34.7010   23.4010 C   0  0  0  0  0  0  0  0  0  0  0  0
  -26.6960  -34.6090   22.3740 O   0  0  0  0  0  0  0  0  0  0  0  0
  -25.0920  -33.7860   24.9530 H   0  0  0  0  0  0  0  0  0  0  0  0
  -24.2540  -36.4600   23.0480 C   0  0  0  0  0  1  0  0  0  0  0  0
  -25.5050  -36.0810   23.8570 C   0  0  0  0  0  3  0  0  0  0  0  0
  -27.6250  -37.0080   24.6790 C   0  0  0  0  0  1  0  0  0  0  0  0
  -26.5170  -37.1530   23.7370 N   0  0  0  0  0  0  0  0  0  0  0  0
  -26.0950  -38.0660   23.8820 H   0  0  0  0  0  0  0  0  0  0  0  0
  1  5  2  0
  1  2  1  0
  2  3  2  0
  2 50  1  0
  3 20  1  0
  3  4  1  0
  4  7  1  0
  5  9  1  0
  5  8  1  0
  6 53  1  0
  6  9  1  0
  8  4  2  0
  9 11  1  0
 10  6  2  0
 12 20  1  0
 13 18  1  0
 14 15  1  0
 14 13  1  0
 16 15  1  0
 16 25  1  0
 16 17  1  0
 18 12  1  0
 18 17  1  0
 19 12  2  0
 20 21  1  0
 22 23  2  0
 23 42  1  0
 24 23  1  0
 24 27  1  0
 25 26  1  0
 25 22  1  0
 26 24  2  0
 27 28  1  0
 28 29  2  0
 30 33  1  0
 30 29  1  0
 31 30  2  0
 32 31  1  0
 32 27  2  0
 33 34  1  0
 34 35  1  0
 35 36  2  0
 37 36  1  0
 37 41  1  0
 38 37  2  0
 39 34  2  0
 39 38  1  0
 40 39  1  0
 42 43  1  0
 43 46  1  0
 43 45  1  0
 44 42  2  0
 47 48  1  0
 47 22  1  0
 49 47  1  0
 50 52  2  0
 51 50  1  0
 54 55  1  0
 54 53  2  0
 56 67  2  0
 57 55  1  0
 57 62  1  0
 58 66  1  0
 58 68  1  0
 59 65  1  0
 59 61  1  0
 60 66  1  0
 61 60  1  0
 62 61  2  0
 63 57  2  0
 64 63  1  0
 64 59  2  0
 65 58  1  0
 66 56  1  0
 68 70  2  0
 69 68  1  0
 71 69  1  0
 72 81  2  0
 72 77  1  0
 73 69  1  0
 73 77  1  0
 74 73  1  0
 75 76  1  0
 75 74  1  0
 76 72  1  0
 77 78  2  0
 78 79  1  0
 80 79  2  0
 81 80  1  0
 82 56  1  0
 82 87  1  0
 82 83  1  0
 83 86  1  1
 83 84  1  0
 85 83  1  0
 87 90  1  0
 88 92  1  0
 88 87  1  0
 89 88  2  0
 92 91  1  0
 94 92  1  0
 94 95  1  0
 94 93  1  0
M  ISO  4  12 100  20 100  54 101  55 101
M  END
>  <TORSDO>  (2) 
F 19

>  <SCORE>  (2) 
-12.516

>  <name>  (2) 
1

>  <ligand_id>  (2) 
1

>  <original_smiles>  (2) 
[H]c1c([H])c([H])c2c(c1[H])C([H])([H])C([H])([H])C([H])([H])C2([H])N([H])C(=O)C1([H])N(C(=O)C([H])(N([H])C(=O)C([H])(N([H])C([H])([H])[H])C([H])([H])[H])C(C([H])([H])[H])(C([H])([H])[H])C([H])([H])[H])C([H])([H])c2c([H])c(OC([H])([H])C([H])([H])C(=O)N([H])c3nc(C([H])([H])[H])c(N([H])C(=O)N4C([H])([H])C([H])([H])C([H])([H])C([H])(n5nc(-c6c([H])c([H])c(Oc7c([H])c([H])c(F)c([H])c7F)c([H])c6[H])c(C(=O)N([H])[H])c5N([H])[H])C4([H])[H])c(C(=O)C([H])([H])[H])c3[H])c([H])c([H])c2C1([H])[H]

>  <smiles>  (2) 
[H]c1c([H])c([H])c2c(c1[H])C([H])([H])C([H])([H])C([H])([H])C2([H])N([H])C(=O)C1([H])N(C(=O)C([H])(N([H])C(=O)C([H])(N([H])C([H])([H])[H])C([H])([H])[H])C(C([H])([H])[H])(C([H])([H])[H])C([H])([H])[H])C([H])([H])c2c([H])c(OC([H])([H])C([H])([H])C(=O)N([H])c3nc(C([H])([H])[H])c(N([H])C(=O)N4C([H])([H])C([H])([H])C([H])([H])C([H])(n5nc(-c6c([H])c([H])c(Oc7c([H])c([H])c(F)c([H])c7F)c([H])c6[H])c(C(=O)N([H])[H])c5N([H])[H])C4([H])[H])c(C(=O)C([H])([H])[H])c3[H])c([H])c([H])c2C1([H])[H]

$$$$
2:0:0
     RDKit          3D

 96104  0  0  1  0  0  0  0  0999 V2000
  -31.3890  -18.2480   19.2760 C   0  0  0  0  0  3  0  0  0  0  0  0
  -29.7400  -19.5340   21.1070 C   0  0  0  0  0  3  0  0  0  0  0  0
  -30.4730  -17.4200   19.9840 C   0  0  0  0  0  0  0  0  0  0  0  0
  -30.5800  -20.3620   20.3170 C   0  0  0  0  0  0  0  0  0  0  0  0
  -31.4560  -19.6670   19.4240 C   0  0  0  0  0  0  0  0  0  0  0  0
  -29.6950  -18.1190   20.9490 C   0  0  0  0  0  0  0  0  0  0  0  0
  -28.8030  -17.4260   21.6950 F   0  0  0  0  0  0  0  0  0  0  0  0
  -29.6380  -22.6150   20.2580 C   0  0  0  0  0  3  0  0  0  0  0  0
  -30.6210  -21.7870   20.4720 N   0  0  0  0  0  0  0  0  0  0  0  0
  -29.6880  -24.1760   20.3850 C   0  0  0  0  0  0  0  0  0  0  0  0
  -30.7130  -24.7450   20.7870 O   0  0  0  0  0  0  0  0  0  0  0  0
  -28.4390  -25.0510   19.9990 C   0  0  0  0  0  2  0  0  0  0  0  0
  -28.5830  -26.5050   20.2400 O   0  0  0  0  0  0  0  0  0  0  0  0
  -24.6110  -31.7070   23.2130 C   0  0  0  0  0  0  0  0  0  0  0  0
  -27.4320  -27.3000   20.1550 C   0  0  0  0  0  0  0  0  0  0  0  0
  -23.4930  -30.3300   21.4920 C   0  0  0  0  0  3  0  0  0  0  0  0
  -25.0270  -28.8440   20.0870 C   0  0  0  0  0  0  0  0  0  0  0  0
  -26.0280  -30.7080   21.4110 C   0  0  0  0  0  2  0  0  0  0  0  0
  -26.1600  -29.3490   20.7350 C   0  0  0  0  0  0  0  0  0  0  0  0
  -27.3640  -28.5910   20.7580 C   0  0  0  0  0  3  0  0  0  0  0  0
  -26.2760  -26.8370   19.4840 C   0  0  0  0  0  3  0  0  0  0  0  0
  -25.0860  -27.5930   19.4510 C   0  0  0  0  0  3  0  0  0  0  0  0
  -23.7720  -29.6890   20.1050 C   0  0  0  0  0  2  0  0  0  0  0  0
  -24.7270  -30.9300   22.0970 N   0  0  0  0  0  0  0  0  0  0  0  0
  -23.5040  -31.9530   23.7140 O   0  0  0  0  0  0  0  0  0  0  0  0
  -22.8140  -29.2790   22.4030 C   0  0  0  0  0  0  0  0  0  0  0  0
  -21.4940  -29.0960   22.2300 N   0  0  0  0  0  0  0  0  0  0  0  0
  -23.4740  -28.6340   23.2210 O   0  0  0  0  0  0  0  0  0  0  0  0
  -21.0220  -29.6700   21.5470 H   0  0  0  0  0  0  0  0  0  0  0  0
  -18.1030  -27.9090   22.6440 C   0  0  0  0  0  0  0  0  0  0  0  0
  -20.6610  -28.1300   22.9480 C   0  0  0  0  0  3  0  0  0  0  0  0
  -20.7550  -26.7270   22.3050 C   0  0  0  0  0  2  0  0  0  0  0  0
  -19.6600  -26.4650   21.2680 C   0  0  0  0  0  2  0  0  0  0  0  0
  -18.2730  -26.5920   21.9050 C   0  0  0  0  0  2  0  0  0  0  0  0
  -19.2230  -28.6390   23.1200 C   0  0  0  0  0  0  0  0  0  0  0  0
  -19.0110  -29.8740   23.7690 C   0  0  0  0  0  3  0  0  0  0  0  0
  -17.7090  -30.3770   23.9480 C   0  0  0  0  0  3  0  0  0  0  0  0
  -16.6020  -29.6440   23.4870 C   0  0  0  0  0  3  0  0  0  0  0  0
  -16.7990  -28.4120   22.8410 C   0  0  0  0  0  3  0  0  0  0  0  0
  -25.8600  -32.3420   23.8980 C   0  0  0  0  0  3  0  0  0  0  0  0
  -25.5290  -33.7370   24.2190 N   0  0  0  0  0  0  0  0  0  0  0  0
  -25.8450  -34.7890   23.4520 C   0  0  0  0  0  0  0  0  0  0  0  0
  -26.5150  -34.6870   22.4200 O   0  0  0  0  0  0  0  0  0  0  0  0
  -24.9360  -33.8900   25.0210 H   0  0  0  0  0  0  0  0  0  0  0  0
  -24.0800  -36.5450   23.0980 C   0  0  0  0  0  1  0  0  0  0  0  0
  -25.3380  -36.1730   23.8990 C   0  0  0  0  0  3  0  0  0  0  0  0
  -27.4510  -37.1250   24.7110 C   0  0  0  0  0  1  0  0  0  0  0  0
  -26.3490  -37.2440   23.7600 N   0  0  0  0  0  0  0  0  0  0  0  0
  -25.9230  -38.1580   23.8810 H   0  0  0  0  0  0  0  0  0  0  0  0
  -26.3170  -31.5680   25.1970 C   0  0  1  0  0  0  0  0  0  0  0  0
  -25.1730  -31.3140   26.2040 C   0  0  0  0  0  1  0  0  0  0  0  0
  -26.9370  -30.1990   24.8300 C   0  0  0  0  0  1  0  0  0  0  0  0
  -27.4200  -32.3710   25.9240 C   0  0  0  0  0  1  0  0  0  0  0  0
  -33.3380  -21.1230   19.2010 C   0  0  0  0  0  1  0  0  0  0  0  0
  -32.3420  -20.3120   18.5910 O   0  0  0  0  0  0  0  0  0  0  0  0
  -30.0610  -15.9900   19.5410 C   0  0  0  0  0  3  0  0  0  0  0  0
  -31.0220  -14.7290   19.7410 C   0  0  0  0  0  0  0  0  0  0  0  0
  -30.8010  -12.3710   19.0030 C   0  0  0  0  0  2  0  0  0  0  0  0
  -29.8010  -12.3580   17.8170 C   0  0  0  0  0  2  0  0  0  0  0  0
  -28.3390  -12.2670   18.3090 C   0  0  0  0  0  2  0  0  0  0  0  0
  -28.0220  -13.2430   19.4720 C   0  0  0  0  0  3  0  0  0  0  0  0
  -29.1400  -13.2210   20.5420 C   0  0  0  0  0  2  0  0  0  0  0  0
  -30.4350  -13.4920   19.8930 N   0  0  0  0  0  0  0  0  0  0  0  0
  -32.2100  -14.8280   19.4220 O   0  0  0  0  0  0  0  0  0  0  0  0
  -25.7260  -13.9570   20.3740 C   0  0  0  0  0  0  0  0  0  0  0  0
  -24.6460  -13.2320   20.7950 C   0  0  0  0  0  0  0  0  0  0  0  0
  -25.0340  -11.8600   20.7030 C   0  0  0  0  0  0  0  0  0  0  0  0
  -26.7020  -13.0250   20.0470 N   0  0  0  0  0  0  0  0  0  0  0  0
  -26.2960  -11.7610   20.3100 N   0  0  0  0  0  0  0  0  0  0  0  0
  -24.2570  -10.6330   20.9090 C   0  0  0  0  0  0  0  0  0  0  0  0
  -24.6620   -9.6520   21.8400 C   0  0  0  0  0  3  0  0  0  0  0  0
  -23.8890   -8.4870   22.0320 C   0  0  0  0  0  3  0  0  0  0  0  0
  -22.6990   -8.2980   21.2920 C   0  0  0  0  0  0  0  0  0  0  0  0
  -22.3120   -9.2670   20.3500 C   0  0  0  0  0  3  0  0  0  0  0  0
  -23.0860  -10.4230   20.1560 C   0  0  0  0  0  3  0  0  0  0  0  0
  -21.8960   -7.1870   21.3950 O   0  0  0  0  0  0  0  0  0  0  0  0
  -21.7790   -6.4930   22.5730 C   0  0  0  0  0  0  0  0  0  0  0  0
  -21.2370   -7.0850   23.7350 C   0  0  0  0  0  3  0  0  0  0  0  0
  -21.0660   -6.3150   24.9020 C   0  0  0  0  0  3  0  0  0  0  0  0
  -21.4290   -4.9550   24.9100 C   0  0  0  0  0  0  0  0  0  0  0  0
  -21.9660   -4.3640   23.7520 C   0  0  0  0  0  3  0  0  0  0  0  0
  -22.1360   -5.1300   22.5860 C   0  0  0  0  0  0  0  0  0  0  0  0
  -22.6340   -4.5500   21.4670 F   0  0  0  0  0  0  0  0  0  0  0  0
  -21.2580   -4.2130   26.0280 F   0  0  0  0  0  0  0  0  0  0  0  0
  -23.2970  -13.7740   21.1670 C   0  0  0  0  0  0  0  0  0  0  0  0
  -22.5950  -13.1070   22.0760 N   0  0  0  0  0  0  0  0  0  0  0  0
  -22.8760  -14.8260   20.6860 O   0  0  0  0  0  0  0  0  0  0  0  0
  -22.9480  -12.2580   22.4920 H   0  0  0  0  0  0  0  0  0  0  0  0
  -21.6910  -13.4540   22.3630 H   0  0  0  0  0  0  0  0  0  0  0  0
  -25.9420  -15.3240   20.2210 N   0  0  0  0  0  0  0  0  0  0  0  0
  -25.2040  -15.9920   20.4120 H   0  0  0  0  0  0  0  0  0  0  0  0
  -26.7780  -15.7660   19.8730 H   0  0  0  0  0  0  0  0  0  0  0  0
  -29.7630  -16.1050   18.1020 N   0  0  0  0  0  4  0  0  0  0  0  0
  -30.6220  -16.2200   17.5940 H   0  0  0  0  0  0  0  0  0  0  0  0
  -29.1800  -16.9030   17.9280 H   0  0  0  0  0  0  0  0  0  0  0  0
  -29.3030  -15.2850   17.7540 H   0  0  0  0  0  0  0  0  0  0  0  0
  1  5  2  0
  1  3  1  0
  3  6  2  0
  4  9  1  0
  4  2  2  0
  5  4  1  0
  6  2  1  0
  6  7  1  0
  8 10  1  0
  8  9  2  0
 10 11  2  0
 12 13  1  0
 12 10  1  0
 14 25  2  0
 15 13  1  0
 15 20  1  0
 16 24  1  0
 16 26  1  0
 17 23  1  0
 17 19  1  0
 18 24  1  0
 19 20  2  0
 19 18  1  0
 21 15  2  0
 22 21  1  0
 22 17  2  0
 23 16  1  0
 24 14  1  0
 26 28  2  0
 27 26  1  0
 29 27  1  0
 30 39  2  0
 30 35  1  0
 31 27  1  0
 31 35  1  0
 32 31  1  0
 33 34  1  0
 33 32  1  0
 34 30  1  0
 35 36  2  0
 36 37  1  0
 38 37  2  0
 39 38  1  0
 40 14  1  0
 40 41  1  0
 40 50  1  0
 41 44  1  0
 42 46  1  0
 42 41  1  0
 43 42  2  0
 46 45  1  0
 48 49  1  0
 48 46  1  0
 48 47  1  0
 50 53  1  1
 50 51  1  0
 52 50  1  0
 55 54  1  0
 55  5  1  0
 56 57  1  0
 56  3  1  0
 57 63  1  0
 58 63  1  0
 59 60  1  0
 59 58  1  0
 61 60  1  0
 61 68  1  0
 61 62  1  0
 63 62  1  0
 64 57  2  0
 65 66  2  0
 66 85  1  0
 67 66  1  0
 67 70  1  0
 68 69  1  0
 68 65  1  0
 69 67  2  0
 70 71  1  0
 71 72  2  0
 73 76  1  0
 73 72  1  0
 74 73  2  0
 75 74  1  0
 75 70  2  0
 76 77  1  0
 77 82  2  0
 77 78  1  0
 78 79  2  0
 79 80  1  0
 80 84  1  0
 81 80  2  0
 82 81  1  0
 83 82  1  0
 85 86  1  0
 86 89  1  0
 86 88  1  0
 87 85  2  0
 90 65  1  0
 90 91  1  0
 92 90  1  0
 93 56  1  0
 94 93  1  0
 95 93  1  0
 96 93  1  0
M  ISO  4  12 101  13 101  56 100  57 100
M  END
>  <TORSDO>  (3) 
F 22

>  <SCORE>  (3) 
-12.378

>  <name>  (3) 
2

>  <ligand_id>  (3) 
2

>  <original_smiles>  (3) 
[H]C(=Nc1c([H])c(F)c(C([H])(C(=O)N2C([H])([H])C([H])([H])C([H])([H])C([H])(n3nc(-c4c([H])c([H])c(Oc5c([H])c([H])c(F)c([H])c5F)c([H])c4[H])c(C(=O)N([H])[H])c3N([H])[H])C2([H])[H])[N+]([H])([H])[H])c([H])c1OC([H])([H])[H])C(=O)C([H])([H])Oc1c([H])c([H])c2c(c1[H])C([H])([H])N(C(=O)C([H])(N([H])C(=O)C([H])(N([H])C([H])([H])[H])C([H])([H])[H])C(C([H])([H])[H])(C([H])([H])[H])C([H])([H])[H])C([H])(C(=O)N([H])C1([H])c3c([H])c([H])c([H])c([H])c3C([H])([H])C([H])([H])C1([H])[H])C2([H])[H]

>  <smiles>  (3) 
[H]C(=Nc1c([H])c(F)c(C([H])(C(=O)N2C([H])([H])C([H])([H])C([H])([H])C([H])(n3nc(-c4c([H])c([H])c(Oc5c([H])c([H])c(F)c([H])c5F)c([H])c4[H])c(C(=O)N([H])[H])c3N([H])[H])C2([H])[H])[N+]([H])([H])[H])c([H])c1OC([H])([H])[H])C(=O)C([H])([H])Oc1c([H])c([H])c2c(c1[H])C([H])([H])N(C(=O)C([H])(N([H])C(=O)C([H])(N([H])C([H])([H])[H])C([H])([H])[H])C(C([H])([H])[H])(C([H])([H])[H])C([H])([H])[H])C([H])(C(=O)N([H])C1([H])c3c([H])c([H])c([H])c([H])c3C([H])([H])C([H])([H])C1([H])[H])C2([H])[H]

$$$$
3:0:0
     RDKit          3D

 98107  0  0  1  0  0  0  0  0999 V2000
  -28.7710  -23.9040   19.9240 C   0  0  0  0  0  0  0  0  0  0  0  0
  -29.0800  -22.6550   20.4640 C   0  0  0  0  0  0  0  0  0  0  0  0
  -29.0210  -21.8790   17.4020 C   0  0  0  0  0  0  0  0  0  0  0  0
  -28.8950  -24.2440   18.4360 C   0  0  0  0  0  2  0  0  0  0  0  0
  -28.2840  -23.2110   17.4650 C   0  0  0  0  0  2  0  0  0  0  0  0
  -30.1450  -21.6420   18.4040 C   0  0  0  0  0  2  0  0  0  0  0  0
  -28.8650  -22.4180   21.9540 C   0  0  0  0  0  1  0  0  0  0  0  0
  -29.6510  -21.5190   19.7810 N   0  0  0  0  0  0  0  0  0  0  0  0
  -28.7050  -21.0190   16.5740 O   0  0  0  0  0  0  0  0  0  0  0  0
  -28.5520  -19.3220   20.3070 C   0  0  0  0  0  3  0  0  0  0  0  0
  -28.6160  -17.9070   20.4970 C   0  0  0  0  0  3  0  0  0  0  0  0
  -31.0140  -17.9810   20.4410 C   0  0  0  0  0  3  0  0  0  0  0  0
  -29.7160  -20.1190   20.1610 C   0  0  0  0  0  0  0  0  0  0  0  0
  -29.8410  -17.1840   20.5390 C   0  0  0  0  0  0  0  0  0  0  0  0
  -30.9560  -19.4020   20.2670 C   0  0  0  0  0  0  0  0  0  0  0  0
  -30.6200  -14.6920   20.3210 C   0  0  0  0  0  0  0  0  0  0  0  0
  -30.4130  -12.4670   19.2210 C   0  0  0  0  0  2  0  0  0  0  0  0
  -29.4430  -12.6160   18.0270 C   0  0  0  0  0  2  0  0  0  0  0  0
  -27.9780  -12.4420   18.4790 C   0  0  0  0  0  2  0  0  0  0  0  0
  -27.6430  -13.2790   19.7430 C   0  0  0  0  0  3  0  0  0  0  0  0
  -28.7220  -13.0980   20.8340 C   0  0  0  0  0  2  0  0  0  0  0  0
  -30.0190  -13.4610   20.2410 N   0  0  0  0  0  0  0  0  0  0  0  0
  -31.7750  -14.8670   19.9190 O   0  0  0  0  0  0  0  0  0  0  0  0
  -29.7980  -15.7240   20.7070 N   0  0  0  0  0  0  0  0  0  0  0  0
  -28.9030  -15.3760   21.0180 H   0  0  0  0  0  0  0  0  0  0  0  0
  -25.2620  -13.8680   20.5100 C   0  0  0  0  0  0  0  0  0  0  0  0
  -24.2020  -13.0890   20.8900 C   0  0  0  0  0  0  0  0  0  0  0  0
  -24.6640  -11.7390   20.8310 C   0  0  0  0  0  0  0  0  0  0  0  0
  -26.3020  -12.9900   20.2460 N   0  0  0  0  0  0  0  0  0  0  0  0
  -25.9480  -11.7040   20.4990 N   0  0  0  0  0  0  0  0  0  0  0  0
  -23.9400  -10.4740   21.0160 C   0  0  0  0  0  0  0  0  0  0  0  0
  -24.3650   -9.5110   21.9570 C   0  0  0  0  0  3  0  0  0  0  0  0
  -23.6440   -8.3110   22.1290 C   0  0  0  0  0  3  0  0  0  0  0  0
  -22.4820   -8.0650   21.3590 C   0  0  0  0  0  0  0  0  0  0  0  0
  -22.0770   -9.0160   20.4070 C   0  0  0  0  0  3  0  0  0  0  0  0
  -22.7990  -10.2080   20.2320 C   0  0  0  0  0  3  0  0  0  0  0  0
  -21.7330   -6.9150   21.4400 O   0  0  0  0  0  0  0  0  0  0  0  0
  -21.6440   -6.1940   22.6040 C   0  0  0  0  0  0  0  0  0  0  0  0
  -21.1280   -6.7570   23.7910 C   0  0  0  0  0  3  0  0  0  0  0  0
  -20.9910   -5.9590   24.9450 C   0  0  0  0  0  3  0  0  0  0  0  0
  -21.3600   -4.6020   24.9120 C   0  0  0  0  0  0  0  0  0  0  0  0
  -21.8680   -4.0380   23.7280 C   0  0  0  0  0  3  0  0  0  0  0  0
  -22.0070   -4.8320   22.5760 C   0  0  0  0  0  0  0  0  0  0  0  0
  -22.4780   -4.2810   21.4320 F   0  0  0  0  0  0  0  0  0  0  0  0
  -21.2200   -3.8330   26.0180 F   0  0  0  0  0  0  0  0  0  0  0  0
  -22.8100  -13.5630   21.1910 C   0  0  0  0  0  0  0  0  0  0  0  0
  -22.0940  -12.8510   22.0560 N   0  0  0  0  0  0  0  0  0  0  0  0
  -22.3640  -14.5970   20.6960 O   0  0  0  0  0  0  0  0  0  0  0  0
  -22.4670  -12.0150   22.4780 H   0  0  0  0  0  0  0  0  0  0  0  0
  -21.1600  -13.1490   22.2990 H   0  0  0  0  0  0  0  0  0  0  0  0
  -25.4220  -15.2400   20.3430 N   0  0  0  0  0  0  0  0  0  0  0  0
  -24.6440  -15.8820   20.4520 H   0  0  0  0  0  0  0  0  0  0  0  0
  -26.2340  -15.6710   19.9240 H   0  0  0  0  0  0  0  0  0  0  0  0
  -32.1560  -20.1140   20.2060 N   0  0  0  0  0  0  0  0  0  0  0  0
  -32.9590  -19.7170   20.6820 H   0  0  0  0  0  0  0  0  0  0  0  0
  -32.0620  -21.1100   20.3760 H   0  0  0  0  0  0  0  0  0  0  0  0
  -28.2040  -25.1270   20.7530 C   0  0  0  0  0  2  0  0  0  0  0  0
  -28.3760  -26.5110   20.2390 O   0  0  0  0  0  0  0  0  0  0  0  0
  -24.5940  -31.8880   23.2400 C   0  0  0  0  0  0  0  0  0  0  0  0
  -27.2490  -27.3430   20.2190 C   0  0  0  0  0  0  0  0  0  0  0  0
  -23.4040  -30.4740   21.6010 C   0  0  0  0  0  3  0  0  0  0  0  0
  -24.8690  -28.9240   20.1880 C   0  0  0  0  0  0  0  0  0  0  0  0
  -25.9390  -30.8140   21.4200 C   0  0  0  0  0  2  0  0  0  0  0  0
  -26.0320  -29.4320   20.7820 C   0  0  0  0  0  0  0  0  0  0  0  0
  -27.2270  -28.6550   20.7820 C   0  0  0  0  0  3  0  0  0  0  0  0
  -26.0660  -26.8820   19.6020 C   0  0  0  0  0  3  0  0  0  0  0  0
  -24.8880  -27.6540   19.5880 C   0  0  0  0  0  3  0  0  0  0  0  0
  -23.6250  -29.7900   20.2260 C   0  0  0  0  0  2  0  0  0  0  0  0
  -24.6650  -31.0760   22.1440 N   0  0  0  0  0  0  0  0  0  0  0  0
  -23.5090  -32.1600   23.7710 O   0  0  0  0  0  0  0  0  0  0  0  0
  -22.7440  -29.4600   22.5650 C   0  0  0  0  0  0  0  0  0  0  0  0
  -21.4190  -29.2780   22.4380 N   0  0  0  0  0  0  0  0  0  0  0  0
  -23.4240  -28.8380   23.3850 O   0  0  0  0  0  0  0  0  0  0  0  0
  -20.9300  -29.8310   21.7480 H   0  0  0  0  0  0  0  0  0  0  0  0
  -18.0420  -28.0900   22.9520 C   0  0  0  0  0  0  0  0  0  0  0  0
  -20.6020  -28.3420   23.2100 C   0  0  0  0  0  3  0  0  0  0  0  0
  -20.6970  -26.9110   22.6310 C   0  0  0  0  0  2  0  0  0  0  0  0
  -19.5890  -26.5930   21.6210 C   0  0  0  0  0  2  0  0  0  0  0  0
  -18.2110  -26.7410   22.2720 C   0  0  0  0  0  2  0  0  0  0  0  0
  -19.1640  -28.8480   23.3780 C   0  0  0  0  0  0  0  0  0  0  0  0
  -18.9510  -30.1100   23.9730 C   0  0  0  0  0  3  0  0  0  0  0  0
  -17.6490  -30.6150   24.1460 C   0  0  0  0  0  3  0  0  0  0  0  0
  -16.5400  -29.8530   23.7360 C   0  0  0  0  0  3  0  0  0  0  0  0
  -16.7370  -28.5920   23.1450 C   0  0  0  0  0  3  0  0  0  0  0  0
  -25.8730  -32.5300   23.8630 C   0  0  0  0  0  3  0  0  0  0  0  0
  -26.3840  -31.7720   25.1500 C   0  0  1  0  0  0  0  0  0  0  0  0
  -25.2840  -31.5380   26.2120 C   0  0  0  0  0  1  0  0  0  0  0  0
  -26.9770  -30.3950   24.7740 C   0  0  0  0  0  1  0  0  0  0  0  0
  -27.5260  -32.5790   25.8130 C   0  0  0  0  0  1  0  0  0  0  0  0
  -25.5570  -33.9300   24.1780 N   0  0  0  0  0  0  0  0  0  0  0  0
  -25.8900  -34.9780   23.4120 C   0  0  0  0  0  0  0  0  0  0  0  0
  -26.5630  -34.8670   22.3830 O   0  0  0  0  0  0  0  0  0  0  0  0
  -24.9600  -34.0910   24.9770 H   0  0  0  0  0  0  0  0  0  0  0  0
  -24.1670  -36.7690   23.0250 C   0  0  0  0  0  1  0  0  0  0  0  0
  -25.3970  -36.3690   23.8540 C   0  0  0  0  0  3  0  0  0  0  0  0
  -27.5170  -37.2630   24.7120 C   0  0  0  0  0  1  0  0  0  0  0  0
  -26.4310  -37.4210   23.7480 N   0  0  0  0  0  0  0  0  0  0  0  0
  -26.0220  -38.3430   23.8780 H   0  0  0  0  0  0  0  0  0  0  0  0
  1  2  2  0
  1 57  1  0
  2  7  1  0
  3  5  1  0
  3  6  1  0
  4  1  1  0
  5  4  1  0
  6  8  1  0
  8 13  1  0
  8  2  1  0
  9  3  2  0
 10 11  1  0
 11 14  2  0
 12 14  1  0
 13 15  1  0
 13 10  2  0
 14 24  1  0
 15 12  2  0
 16 24  1  0
 17 22  1  0
 18 19  1  0
 18 17  1  0
 20 19  1  0
 20 29  1  0
 20 21  1  0
 22 16  1  0
 22 21  1  0
 23 16  2  0
 24 25  1  0
 26 27  2  0
 27 46  1  0
 28 27  1  0
 28 31  1  0
 29 30  1  0
 29 26  1  0
 30 28  2  0
 31 32  1  0
 32 33  2  0
 34 37  1  0
 34 33  1  0
 35 34  2  0
 36 35  1  0
 36 31  2  0
 37 38  1  0
 38 39  1  0
 39 40  2  0
 41 40  1  0
 41 45  1  0
 42 41  2  0
 43 38  2  0
 43 42  1  0
 44 43  1  0
 46 47  1  0
 47 50  1  0
 47 49  1  0
 48 46  2  0
 51 52  1  0
 51 26  1  0
 53 51  1  0
 54 15  1  0
 54 56  1  0
 54 55  1  0
 58 57  1  0
 59 70  2  0
 60 58  1  0
 60 65  1  0
 61 69  1  0
 61 71  1  0
 62 68  1  0
 62 64  1  0
 63 69  1  0
 64 65  2  0
 64 63  1  0
 66 60  2  0
 67 66  1  0
 67 62  2  0
 68 61  1  0
 69 59  1  0
 71 73  2  0
 72 71  1  0
 74 72  1  0
 75 84  2  0
 75 80  1  0
 76 72  1  0
 76 80  1  0
 77 76  1  0
 78 79  1  0
 78 77  1  0
 79 75  1  0
 80 81  2  0
 81 82  1  0
 83 82  2  0
 84 83  1  0
 85 59  1  0
 85 90  1  0
 85 86  1  0
 86 89  1  1
 86 87  1  0
 88 86  1  0
 90 93  1  0
 91 95  1  0
 91 90  1  0
 92 91  2  0
 95 94  1  0
 97 95  1  0
 97 98  1  0
 97 96  1  0
M  ISO  4  16 100  24 100  57 101  58 101
M  END
>  <TORSDO>  (4) 
F 19

>  <SCORE>  (4) 
-15.008

>  <name>  (4) 
3

>  <ligand_id>  (4) 
3

>  <original_smiles>  (4) 
[H]c1c([H])c([H])c2c(c1[H])C([H])([H])C([H])([H])C([H])([H])C2([H])N([H])C(=O)C1([H])N(C(=O)C([H])(N([H])C(=O)C([H])(N([H])C([H])([H])[H])C([H])([H])[H])C(C([H])([H])[H])(C([H])([H])[H])C([H])([H])[H])C([H])([H])c2c([H])c(OC([H])([H])C3=C(C([H])([H])[H])N(c4c([H])c([H])c(N([H])C(=O)N5C([H])([H])C([H])([H])C([H])([H])C([H])(n6nc(-c7c([H])c([H])c(Oc8c([H])c([H])c(F)c([H])c8F)c([H])c7[H])c(C(=O)N([H])[H])c6N([H])[H])C5([H])[H])c([H])c4N([H])[H])C([H])([H])C(=O)C([H])([H])C3([H])[H])c([H])c([H])c2C1([H])[H]

>  <smiles>  (4) 
[H]c1c([H])c([H])c2c(c1[H])C([H])([H])C([H])([H])C([H])([H])C2([H])N([H])C(=O)C1([H])N(C(=O)C([H])(N([H])C(=O)C([H])(N([H])C([H])([H])[H])C([H])([H])[H])C(C([H])([H])[H])(C([H])([H])[H])C([H])([H])[H])C([H])([H])c2c([H])c(OC([H])([H])C3=C(C([H])([H])[H])N(c4c([H])c([H])c(N([H])C(=O)N5C([H])([H])C([H])([H])C([H])([H])C([H])(n6nc(-c7c([H])c([H])c(Oc8c([H])c([H])c(F)c([H])c8F)c([H])c7[H])c(C(=O)N([H])[H])c6N([H])[H])C5([H])[H])c([H])c4N([H])[H])C([H])([H])C(=O)C([H])([H])C3([H])[H])c([H])c([H])c2C1([H])[H]

$$$$
4:0:0
     RDKit          3D

 92100  0  0  1  0  0  0  0  0999 V2000
  -28.9820  -20.0050   20.8820 C   0  0  0  0  0  3  0  0  0  0  0  0
  -28.7850  -18.7750   21.5510 C   0  0  0  0  0  3  0  0  0  0  0  0
  -29.9070  -18.7330   19.0270 C   0  0  0  0  0  3  0  0  0  0  0  0
  -29.5260  -20.0540   19.5830 C   0  0  0  0  0  0  0  0  0  0  0  0
  -29.1130  -17.5260   20.9720 C   0  0  0  0  0  0  0  0  0  0  0  0
  -29.7420  -17.4300   19.7040 C   0  0  0  0  0  0  0  0  0  0  0  0
  -30.7750  -14.9590   19.1500 C   0  0  0  0  0  0  0  0  0  0  0  0
  -30.5650  -12.6350   18.1840 C   0  0  0  0  0  2  0  0  0  0  0  0
  -29.4100  -12.6150   17.1550 C   0  0  0  0  0  2  0  0  0  0  0  0
  -28.0440  -12.4010   17.8400 C   0  0  0  0  0  2  0  0  0  0  0  0
  -27.8610  -13.2940   19.0980 C   0  0  0  0  0  3  0  0  0  0  0  0
  -29.1060  -13.2410   20.0040 C   0  0  0  0  0  2  0  0  0  0  0  0
  -30.2400  -13.6810   19.1810 N   0  0  0  0  0  0  0  0  0  0  0  0
  -31.9380  -15.1050   18.7530 O   0  0  0  0  0  0  0  0  0  0  0  0
  -29.8500  -16.0210   19.1510 N   0  0  0  0  0  0  0  0  0  0  0  0
  -28.9420  -15.5840   19.1990 H   0  0  0  0  0  0  0  0  0  0  0  0
  -25.7110  -13.8750   20.3670 C   0  0  0  0  0  0  0  0  0  0  0  0
  -24.7040  -13.0990   20.8690 C   0  0  0  0  0  0  0  0  0  0  0  0
  -25.0760  -11.7450   20.6010 C   0  0  0  0  0  0  0  0  0  0  0  0
  -26.6330  -12.9940   19.8230 N   0  0  0  0  0  0  0  0  0  0  0  0
  -26.2720  -11.7020   20.0280 N   0  0  0  0  0  0  0  0  0  0  0  0
  -24.3370  -10.4940   20.8060 C   0  0  0  0  0  0  0  0  0  0  0  0
  -24.7920   -9.5100   21.7120 C   0  0  0  0  0  3  0  0  0  0  0  0
  -24.0550   -8.3230   21.9080 C   0  0  0  0  0  3  0  0  0  0  0  0
  -22.8510   -8.1080   21.1960 C   0  0  0  0  0  0  0  0  0  0  0  0
  -22.4140   -9.0810   20.2800 C   0  0  0  0  0  3  0  0  0  0  0  0
  -23.1520  -10.2590   20.0800 C   0  0  0  0  0  3  0  0  0  0  0  0
  -22.0840   -6.9730   21.3020 O   0  0  0  0  0  0  0  0  0  0  0  0
  -21.8920   -6.3430   22.5060 C   0  0  0  0  0  0  0  0  0  0  0  0
  -21.3190   -7.0070   23.6120 C   0  0  0  0  0  3  0  0  0  0  0  0
  -21.0750   -6.3030   24.8080 C   0  0  0  0  0  3  0  0  0  0  0  0
  -21.3980   -4.9370   24.9000 C   0  0  0  0  0  0  0  0  0  0  0  0
  -21.9640   -4.2710   23.7980 C   0  0  0  0  0  3  0  0  0  0  0  0
  -22.2090   -4.9730   22.6030 C   0  0  0  0  0  0  0  0  0  0  0  0
  -22.7350   -4.3210   21.5390 F   0  0  0  0  0  0  0  0  0  0  0  0
  -21.1590   -4.2580   26.0450 F   0  0  0  0  0  0  0  0  0  0  0  0
  -23.4160  -13.5870   21.4670 C   0  0  0  0  0  0  0  0  0  0  0  0
  -22.8410  -12.8330   22.3980 N   0  0  0  0  0  0  0  0  0  0  0  0
  -22.9320  -14.6700   21.1380 O   0  0  0  0  0  0  0  0  0  0  0  0
  -23.2460  -11.9530   22.6840 H   0  0  0  0  0  0  0  0  0  0  0  0
  -21.9820  -13.1380   22.8350 H   0  0  0  0  0  0  0  0  0  0  0  0
  -25.8960  -15.2540   20.3010 N   0  0  0  0  0  0  0  0  0  0  0  0
  -25.1400  -15.8600   20.6030 H   0  0  0  0  0  0  0  0  0  0  0  0
  -26.4960  -15.7020   19.6210 H   0  0  0  0  0  0  0  0  0  0  0  0
  -28.7290  -16.3750   21.6570 N   0  0  0  0  0  0  0  0  0  0  0  0
  -28.4820  -16.5530   22.6240 H   0  0  0  0  0  0  0  0  0  0  0  0
  -27.9160  -15.9300   21.2360 H   0  0  0  0  0  0  0  0  0  0  0  0
  -29.3840  -22.6490   18.9820 C   0  0  0  0  0  3  0  0  0  0  0  0
  -29.7230  -21.3420   18.8820 N   0  0  0  0  0  0  0  0  0  0  0  0
  -28.4900  -23.5520   19.8790 C   0  0  0  0  0  3  0  0  0  0  0  0
  -28.1230  -24.9140   20.0230 C   0  0  0  0  0  3  0  0  0  0  0  0
  -28.4000  -26.2130   19.4420 O   0  0  0  0  0  0  0  0  0  0  0  0
  -24.7180  -31.5540   22.9040 C   0  0  0  0  0  0  0  0  0  0  0  0
  -27.3540  -27.1910   19.4850 C   0  0  0  0  0  0  0  0  0  0  0  0
  -23.5160  -30.2440   21.1980 C   0  0  0  0  0  3  0  0  0  0  0  0
  -24.9760  -28.8300   19.6230 C   0  0  0  0  0  0  0  0  0  0  0  0
  -26.0540  -30.6120   20.9900 C   0  0  0  0  0  2  0  0  0  0  0  0
  -26.1510  -29.2740   20.2420 C   0  0  0  0  0  0  0  0  0  0  0  0
  -27.3470  -28.4690   20.1650 C   0  0  0  0  0  3  0  0  0  0  0  0
  -26.1570  -26.8460   18.8260 C   0  0  0  0  0  3  0  0  0  0  0  0
  -24.9880  -27.6290   18.8990 C   0  0  0  0  0  3  0  0  0  0  0  0
  -23.7220  -29.6760   19.7670 C   0  0  0  0  0  2  0  0  0  0  0  0
  -24.7830  -30.8220   21.7520 N   0  0  0  0  0  0  0  0  0  0  0  0
  -23.6380  -31.7650   23.4780 O   0  0  0  0  0  0  0  0  0  0  0  0
  -22.8980  -29.1450   22.0990 C   0  0  0  0  0  0  0  0  0  0  0  0
  -21.5680  -28.9630   22.0160 N   0  0  0  0  0  0  0  0  0  0  0  0
  -23.6170  -28.4620   22.8330 O   0  0  0  0  0  0  0  0  0  0  0  0
  -21.0460  -29.5780   21.4080 H   0  0  0  0  0  0  0  0  0  0  0  0
  -18.2230  -27.7120   22.6050 C   0  0  0  0  0  0  0  0  0  0  0  0
  -20.7940  -27.9540   22.7400 C   0  0  0  0  0  3  0  0  0  0  0  0
  -20.8570  -26.5850   22.0280 C   0  0  0  0  0  2  0  0  0  0  0  0
  -19.6940  -26.3530   21.0560 C   0  0  0  0  0  2  0  0  0  0  0  0
  -18.3540  -26.4340   21.7930 C   0  0  0  0  0  2  0  0  0  0  0  0
  -19.3680  -28.4320   23.0380 C   0  0  0  0  0  0  0  0  0  0  0  0
  -19.1890  -29.6300   23.7620 C   0  0  0  0  0  3  0  0  0  0  0  0
  -17.8980  -30.1070   24.0560 C   0  0  0  0  0  3  0  0  0  0  0  0
  -16.7680  -29.3840   23.6360 C   0  0  0  0  0  3  0  0  0  0  0  0
  -16.9320  -28.1870   22.9170 C   0  0  0  0  0  3  0  0  0  0  0  0
  -25.9960  -32.1820   23.5410 C   0  0  0  0  0  3  0  0  0  0  0  0
  -26.5940  -31.3110   24.7130 C   0  0  1  0  0  0  0  0  0  0  0  0
  -25.5490  -30.9060   25.7790 C   0  0  0  0  0  1  0  0  0  0  0  0
  -27.2370  -30.0130   24.1670 C   0  0  0  0  0  1  0  0  0  0  0  0
  -27.7210  -32.0940   25.4270 C   0  0  0  0  0  1  0  0  0  0  0  0
  -25.6410  -33.5220   24.0300 N   0  0  0  0  0  0  0  0  0  0  0  0
  -25.8920  -34.6650   23.3770 C   0  0  0  0  0  0  0  0  0  0  0  0
  -26.5230  -34.7000   22.3160 O   0  0  0  0  0  0  0  0  0  0  0  0
  -25.0740  -33.5610   24.8640 H   0  0  0  0  0  0  0  0  0  0  0  0
  -24.0720  -36.4010   23.2930 C   0  0  0  0  0  1  0  0  0  0  0  0
  -25.3680  -35.9740   24.0000 C   0  0  0  0  0  3  0  0  0  0  0  0
  -27.4930  -36.8770   24.8350 C   0  0  0  0  0  1  0  0  0  0  0  0
  -26.3450  -37.0830   23.9550 N   0  0  0  0  0  0  0  0  0  0  0  0
  -25.9050  -37.9630   24.2090 H   0  0  0  0  0  0  0  0  0  0  0  0
  1  2  1  0
  3  4  1  0
  3  6  2  0
  4  1  2  0
  5  2  2  0
  5 45  1  0
  6  5  1  0
  7 15  1  0
  7 13  1  0
  8 13  1  0
  9 10  1  0
  9  8  1  0
 11 10  1  0
 11 20  1  0
 11 12  1  0
 13 12  1  0
 14  7  2  0
 15 16  1  0
 15  6  1  0
 17 18  2  0
 18 37  1  0
 19 22  1  0
 19 18  1  0
 20 21  1  0
 20 17  1  0
 21 19  2  0
 22 23  1  0
 23 24  2  0
 25 28  1  0
 25 24  1  0
 26 25  2  0
 27 26  1  0
 27 22  2  0
 28 29  1  0
 29 34  2  0
 29 30  1  0
 30 31  2  0
 31 32  1  0
 32 36  1  0
 33 32  2  0
 34 33  1  0
 35 34  1  0
 37 38  1  0
 38 40  1  0
 38 41  1  0
 39 37  2  0
 42 17  1  0
 42 43  1  0
 44 42  1  0
 45 46  1  0
 47 45  1  0
 48 50  1  0
 49 48  2  0
 49  4  1  0
 50 51  2  0
 52 54  1  0
 52 51  1  0
 53 64  2  0
 54 59  1  0
 55 63  1  0
 55 65  1  0
 56 62  1  0
 56 58  1  0
 57 63  1  0
 58 57  1  0
 59 58  2  0
 60 61  1  0
 60 54  2  0
 61 56  2  0
 62 55  1  0
 63 53  1  0
 65 67  2  0
 66 65  1  0
 68 66  1  0
 69 78  2  0
 69 74  1  0
 70 66  1  0
 70 74  1  0
 71 70  1  0
 72 73  1  0
 72 71  1  0
 73 69  1  0
 74 75  2  0
 75 76  1  0
 77 76  2  0
 78 77  1  0
 79 53  1  0
 79 84  1  0
 79 80  1  0
 80 83  1  1
 80 81  1  0
 82 80  1  0
 84 87  1  0
 85 89  1  0
 85 84  1  0
 86 85  2  0
 89 88  1  0
 91 89  1  0
 91 92  1  0
 91 90  1  0
M  ISO  4   7 100  15 100  51 101  52 101
M  END
>  <TORSDO>  (5) 
F 19

>  <SCORE>  (5) 
-9.963

>  <name>  (5) 
4

>  <ligand_id>  (5) 
4

>  <original_smiles>  (5) 
[H]C(=Nc1c([H])c([H])c(N([H])[H])c(N([H])C(=O)N2C([H])([H])C([H])([H])C([H])([H])C([H])(n3nc(-c4c([H])c([H])c(Oc5c([H])c([H])c(F)c([H])c5F)c([H])c4[H])c(C(=O)N([H])[H])c3N([H])[H])C2([H])[H])c1[H])C([H])=C([H])Oc1c([H])c([H])c2c(c1[H])C([H])([H])N(C(=O)C([H])(N([H])C(=O)C([H])(N([H])C([H])([H])[H])C([H])([H])[H])C(C([H])([H])[H])(C([H])([H])[H])C([H])([H])[H])C([H])(C(=O)N([H])C1([H])c3c([H])c([H])c([H])c([H])c3C([H])([H])C([H])([H])C1([H])[H])C2([H])[H]

>  <smiles>  (5) 
[H]C(=Nc1c([H])c([H])c(N([H])[H])c(N([H])C(=O)N2C([H])([H])C([H])([H])C([H])([H])C([H])(n3nc(-c4c([H])c([H])c(Oc5c([H])c([H])c(F)c([H])c5F)c([H])c4[H])c(C(=O)N([H])[H])c3N([H])[H])C2([H])[H])c1[H])C([H])=C([H])Oc1c([H])c([H])c2c(c1[H])C([H])([H])N(C(=O)C([H])(N([H])C(=O)C([H])(N([H])C([H])([H])[H])C([H])([H])[H])C(C([H])([H])[H])(C([H])([H])[H])C([H])([H])[H])C([H])(C(=O)N([H])C1([H])c3c([H])c([H])c([H])c([H])c3C([H])([H])C([H])([H])C1([H])[H])C2([H])[H]

$$$$
5:0:0
     RDKit          3D

 99107  0  0  1  0  0  0  0  0999 V2000
  -30.3480  -20.4470   21.1300 C   0  0  0  0  0  3  0  0  0  0  0  0
  -28.5860  -20.3230   19.4650 C   0  0  0  0  0  3  0  0  0  0  0  0
  -30.6110  -19.0700   20.9630 C   0  0  0  0  0  0  0  0  0  0  0  0
  -29.8710  -18.3070   20.0070 C   0  0  0  0  0  0  0  0  0  0  0  0
  -29.3750  -21.0930   20.3410 C   0  0  0  0  0  0  0  0  0  0  0  0
  -28.8100  -18.9340   19.2820 C   0  0  0  0  0  0  0  0  0  0  0  0
  -30.7560  -14.6770   20.0460 C   0  0  0  0  0  0  0  0  0  0  0  0
  -30.3700  -12.4940   19.0400 C   0  0  0  0  0  2  0  0  0  0  0  0
  -29.3970  -12.6990   17.8640 C   0  0  0  0  0  2  0  0  0  0  0  0
  -27.9450  -12.5500   18.3540 C   0  0  0  0  0  2  0  0  0  0  0  0
  -27.6440  -13.3900   19.6270 C   0  0  0  0  0  3  0  0  0  0  0  0
  -28.7570  -13.2570   20.6930 C   0  0  0  0  0  2  0  0  0  0  0  0
  -30.0480  -13.5190   20.0450 N   0  0  0  0  0  0  0  0  0  0  0  0
  -31.9460  -14.6850   19.7310 O   0  0  0  0  0  0  0  0  0  0  0  0
  -30.4510  -16.9870   19.5530 C   0  0  0  0  0  0  0  0  0  0  0  0
  -30.0500  -15.8280   20.1300 N   0  0  0  0  0  0  0  0  0  0  0  0
  -31.3010  -17.0680   18.6540 O   0  0  0  0  0  0  0  0  0  0  0  0
  -29.1810  -15.8280   20.6380 H   0  0  0  0  0  0  0  0  0  0  0  0
  -25.2830  -13.9260   20.4830 C   0  0  0  0  0  0  0  0  0  0  0  0
  -24.2460  -13.1250   20.8780 C   0  0  0  0  0  0  0  0  0  0  0  0
  -24.7240  -11.7820   20.7800 C   0  0  0  0  0  0  0  0  0  0  0  0
  -26.3260  -13.0710   20.1710 N   0  0  0  0  0  0  0  0  0  0  0  0
  -25.9990  -11.7740   20.4100 N   0  0  0  0  0  0  0  0  0  0  0  0
  -24.0250  -10.5020   20.9610 C   0  0  0  0  0  0  0  0  0  0  0  0
  -24.4530   -9.5540   21.9170 C   0  0  0  0  0  3  0  0  0  0  0  0
  -23.7510   -8.3410   22.0860 C   0  0  0  0  0  3  0  0  0  0  0  0
  -22.6070   -8.0670   21.2990 C   0  0  0  0  0  0  0  0  0  0  0  0
  -22.2000   -9.0030   20.3330 C   0  0  0  0  0  3  0  0  0  0  0  0
  -22.9020  -10.2090   20.1630 C   0  0  0  0  0  3  0  0  0  0  0  0
  -21.8790   -6.9050   21.3770 O   0  0  0  0  0  0  0  0  0  0  0  0
  -21.7340   -6.2230   22.5580 C   0  0  0  0  0  0  0  0  0  0  0  0
  -21.1150   -6.8080   23.6840 C   0  0  0  0  0  3  0  0  0  0  0  0
  -20.9250   -6.0500   24.8570 C   0  0  0  0  0  3  0  0  0  0  0  0
  -21.3440   -4.7050   24.9020 C   0  0  0  0  0  0  0  0  0  0  0  0
  -21.9540   -4.1200   23.7790 C   0  0  0  0  0  3  0  0  0  0  0  0
  -22.1450   -4.8760   22.6090 C   0  0  0  0  0  0  0  0  0  0  0  0
  -22.7160   -4.3010   21.5230 F   0  0  0  0  0  0  0  0  0  0  0  0
  -21.1540   -3.9720   26.0240 F   0  0  0  0  0  0  0  0  0  0  0  0
  -22.8560  -13.5710   21.2320 C   0  0  0  0  0  0  0  0  0  0  0  0
  -22.1730  -12.8220   22.0900 N   0  0  0  0  0  0  0  0  0  0  0  0
  -22.3880  -14.6180   20.7860 O   0  0  0  0  0  0  0  0  0  0  0  0
  -22.5670  -11.9750   22.4720 H   0  0  0  0  0  0  0  0  0  0  0  0
  -21.2430  -13.0980   22.3700 H   0  0  0  0  0  0  0  0  0  0  0  0
  -25.4170  -15.3040   20.3390 N   0  0  0  0  0  0  0  0  0  0  0  0
  -24.6420  -15.9360   20.4970 H   0  0  0  0  0  0  0  0  0  0  0  0
  -26.2360  -15.7700   19.9730 H   0  0  0  0  0  0  0  0  0  0  0  0
  -29.5820  -23.4280   21.2140 C   0  0  0  0  0  0  0  0  0  0  0  0
  -29.2440  -22.5120   20.2890 N   0  0  0  0  0  0  0  0  0  0  0  0
  -29.8220  -23.1480   22.3930 O   0  0  0  0  0  0  0  0  0  0  0  0
  -28.9150  -22.8840   19.4090 H   0  0  0  0  0  0  0  0  0  0  0  0
  -29.6580  -24.8890   20.7490 C   0  0  0  0  0  2  0  0  0  0  0  0
  -28.3000  -25.4800   20.3320 C   0  0  0  0  0  2  0  0  0  0  0  0
  -28.4110  -26.9000   20.1850 O   0  0  0  0  0  0  0  0  0  0  0  0
  -24.5900  -32.0080   23.3030 C   0  0  0  0  0  0  0  0  0  0  0  0
  -27.2300  -27.6070   20.1780 C   0  0  0  0  0  0  0  0  0  0  0  0
  -23.3760  -30.6140   21.6570 C   0  0  0  0  0  3  0  0  0  0  0  0
  -24.8260  -29.0950   20.2090 C   0  0  0  0  0  0  0  0  0  0  0  0
  -25.8960  -30.9880   21.4420 C   0  0  0  0  0  2  0  0  0  0  0  0
  -25.9830  -29.6230   20.7910 C   0  0  0  0  0  0  0  0  0  0  0  0
  -27.1900  -28.8890   20.7670 C   0  0  0  0  0  3  0  0  0  0  0  0
  -26.0540  -27.0900   19.5870 C   0  0  0  0  0  3  0  0  0  0  0  0
  -24.8560  -27.8270   19.6030 C   0  0  0  0  0  3  0  0  0  0  0  0
  -23.5740  -29.9380   20.2730 C   0  0  0  0  0  2  0  0  0  0  0  0
  -24.6390  -31.2170   22.1930 N   0  0  0  0  0  0  0  0  0  0  0  0
  -23.5130  -32.2740   23.8530 O   0  0  0  0  0  0  0  0  0  0  0  0
  -22.7350  -29.5850   22.6150 C   0  0  0  0  0  0  0  0  0  0  0  0
  -21.4170  -29.3710   22.4680 N   0  0  0  0  0  0  0  0  0  0  0  0
  -23.4200  -28.9790   23.4420 O   0  0  0  0  0  0  0  0  0  0  0  0
  -20.9250  -29.9090   21.7680 H   0  0  0  0  0  0  0  0  0  0  0  0
  -18.0570  -28.1230   22.9340 C   0  0  0  0  0  0  0  0  0  0  0  0
  -20.6080  -28.4190   23.2280 C   0  0  0  0  0  3  0  0  0  0  0  0
  -20.7390  -26.9900   22.6500 C   0  0  0  0  0  2  0  0  0  0  0  0
  -19.6500  -26.6540   21.6270 C   0  0  0  0  0  2  0  0  0  0  0  0
  -18.2600  -26.7760   22.2570 C   0  0  0  0  0  2  0  0  0  0  0  0
  -19.1610  -28.9010   23.3750 C   0  0  0  0  0  0  0  0  0  0  0  0
  -18.9190  -30.1610   23.9630 C   0  0  0  0  0  3  0  0  0  0  0  0
  -17.6060  -30.6410   24.1200 C   0  0  0  0  0  3  0  0  0  0  0  0
  -16.5160  -29.8600   23.7000 C   0  0  0  0  0  3  0  0  0  0  0  0
  -16.7430  -28.6040   23.1100 C   0  0  0  0  0  3  0  0  0  0  0  0
  -25.8820  -32.6340   23.9180 C   0  0  0  0  0  3  0  0  0  0  0  0
  -25.5950  -34.0440   24.2120 N   0  0  0  0  0  0  0  0  0  0  0  0
  -25.9290  -35.0700   23.4170 C   0  0  0  0  0  0  0  0  0  0  0  0
  -26.5870  -34.9300   22.3830 O   0  0  0  0  0  0  0  0  0  0  0  0
  -25.0210  -34.2340   25.0210 H   0  0  0  0  0  0  0  0  0  0  0  0
  -24.2060  -36.8600   23.0330 C   0  0  0  0  0  1  0  0  0  0  0  0
  -25.4560  -36.4740   23.8380 C   0  0  0  0  0  3  0  0  0  0  0  0
  -27.6000  -37.3790   24.6180 C   0  0  0  0  0  1  0  0  0  0  0  0
  -26.4920  -37.5170   23.6760 N   0  0  0  0  0  0  0  0  0  0  0  0
  -26.0910  -38.4450   23.7950 H   0  0  0  0  0  0  0  0  0  0  0  0
  -26.3840  -31.8820   25.2140 C   0  0  1  0  0  0  0  0  0  0  0  0
  -25.2710  -31.6420   26.2600 C   0  0  0  0  0  1  0  0  0  0  0  0
  -26.9950  -30.5090   24.8540 C   0  0  0  0  0  1  0  0  0  0  0  0
  -27.5130  -32.6980   25.8880 C   0  0  0  0  0  1  0  0  0  0  0  0
  -31.6980  -18.4650   21.7930 C   0  0  0  0  0  0  0  0  0  0  0  0
  -32.9740  -19.2770   21.9700 C   0  0  0  0  0  1  0  0  0  0  0  0
  -31.6210  -17.3490   22.3100 O   0  0  0  0  0  0  0  0  0  0  0  0
  -27.1910  -18.9070   17.3710 C   0  0  0  0  0  1  0  0  0  0  0  0
  -28.0330  -18.2180   18.3450 N   0  0  0  0  0  0  0  0  0  0  0  0
  -28.2320  -17.2410   18.1540 H   0  0  0  0  0  0  0  0  0  0  0  0
  2  5  1  0
  3  1  1  0
  3 94  1  0
  4  3  2  0
  5  1  2  0
  6  2  2  0
  6  4  1  0
  7 16  1  0
  8 13  1  0
  9 10  1  0
  9  8  1  0
 11 10  1  0
 11 22  1  0
 11 12  1  0
 13  7  1  0
 13 12  1  0
 14  7  2  0
 15  4  1  0
 15 16  1  0
 16 18  1  0
 17 15  2  0
 19 20  2  0
 20 39  1  0
 21 20  1  0
 21 24  1  0
 22 23  1  0
 22 19  1  0
 23 21  2  0
 24 25  1  0
 25 26  2  0
 27 30  1  0
 27 26  1  0
 28 27  2  0
 29 28  1  0
 29 24  2  0
 30 31  1  0
 31 36  2  0
 31 32  1  0
 32 33  2  0
 33 34  1  0
 34 38  1  0
 35 34  2  0
 36 35  1  0
 37 36  1  0
 39 40  1  0
 40 43  1  0
 40 42  1  0
 41 39  2  0
 44 19  1  0
 44 45  1  0
 46 44  1  0
 47 49  2  0
 48  5  1  0
 48 47  1  0
 50 48  1  0
 51 47  1  0
 52 51  1  0
 53 52  1  0
 54 65  2  0
 55 53  1  0
 55 60  1  0
 56 64  1  0
 56 66  1  0
 57 63  1  0
 57 59  1  0
 58 64  1  0
 59 58  1  0
 60 59  2  0
 61 62  1  0
 61 55  2  0
 62 57  2  0
 63 56  1  0
 64 54  1  0
 66 68  2  0
 67 66  1  0
 69 67  1  0
 70 79  2  0
 70 75  1  0
 71 67  1  0
 71 75  1  0
 72 71  1  0
 73 74  1  0
 73 72  1  0
 74 70  1  0
 75 76  2  0
 76 77  1  0
 78 77  2  0
 79 78  1  0
 80 54  1  0
 80 81  1  0
 80 90  1  0
 81 84  1  0
 82 86  1  0
 82 81  1  0
 83 82  2  0
 86 85  1  0
 88 89  1  0
 88 86  1  0
 88 87  1  0
 90 93  1  1
 90 91  1  0
 92 90  1  0
 94 95  1  0
 94 96  2  0
 97 98  1  0
 98  6  1  0
 99 98  1  0
M  ISO  4   7 100  16 100  52 101  53 101
M  END
>  <TORSDO>  (6) 
F 21

>  <SCORE>  (6) 
-13.155

>  <name>  (6) 
5

>  <ligand_id>  (6) 
5

>  <original_smiles>  (6) 
[H]c1c([H])c([H])c2c(c1[H])C([H])([H])C([H])([H])C([H])([H])C2([H])N([H])C(=O)C1([H])N(C(=O)C([H])(N([H])C(=O)C([H])(N([H])C([H])([H])[H])C([H])([H])[H])C(C([H])([H])[H])(C([H])([H])[H])C([H])([H])[H])C([H])([H])c2c([H])c(OC([H])([H])C([H])([H])C(=O)N([H])c3c([H])c(C(=O)C([H])([H])[H])c(C(=O)N([H])C(=O)N4C([H])([H])C([H])([H])C([H])([H])C([H])(n5nc(-c6c([H])c([H])c(Oc7c([H])c([H])c(F)c([H])c7F)c([H])c6[H])c(C(=O)N([H])[H])c5N([H])[H])C4([H])[H])c(N([H])C([H])([H])[H])c3[H])c([H])c([H])c2C1([H])[H]

>  <smiles>  (6) 
[H]c1c([H])c([H])c2c(c1[H])C([H])([H])C([H])([H])C([H])([H])C2([H])N([H])C(=O)C1([H])N(C(=O)C([H])(N([H])C(=O)C([H])(N([H])C([H])([H])[H])C([H])([H])[H])C(C([H])([H])[H])(C([H])([H])[H])C([H])([H])[H])C([H])([H])c2c([H])c(OC([H])([H])C([H])([H])C(=O)N([H])c3c([H])c(C(=O)C([H])([H])[H])c(C(=O)N([H])C(=O)N4C([H])([H])C([H])([H])C([H])([H])C([H])(n5nc(-c6c([H])c([H])c(Oc7c([H])c([H])c(F)c([H])c7F)c([H])c6[H])c(C(=O)N([H])[H])c5N([H])[H])C4([H])[H])c(N([H])C([H])([H])[H])c3[H])c([H])c([H])c2C1([H])[H]

$$$$
6:0:0
     RDKit          3D

 93102  0  0  1  0  0  0  0  0999 V2000
  -31.3270  -19.1790   19.1730 C   0  0  0  0  0  3  0  0  0  0  0  0
  -31.3020  -17.7750   19.4060 C   0  0  0  0  0  3  0  0  0  0  0  0
  -29.2230  -17.9970   20.6650 C   0  0  0  0  0  3  0  0  0  0  0  0
  -29.2720  -19.3970   20.4190 C   0  0  0  0  0  0  0  0  0  0  0  0
  -30.2840  -19.9710   19.6920 C   0  0  0  0  0  0  0  0  0  0  0  0
  -30.2530  -17.1500   20.1510 C   0  0  0  0  0  0  0  0  0  0  0  0
  -28.3180  -20.4650   20.8430 C   0  0  0  0  0  0  0  0  0  0  0  0
  -28.1270  -22.8850   20.6020 C   0  0  0  0  0  0  0  0  0  0  0  0
  -30.0160  -21.4690   19.5950 C   0  0  0  0  0  2  0  0  0  0  0  0
  -28.7560  -21.6800   20.3650 N   0  0  0  0  0  0  0  0  0  0  0  0
  -27.3140  -20.2020   21.5160 O   0  0  0  0  0  0  0  0  0  0  0  0
  -27.1520  -22.9620   21.3610 O   0  0  0  0  0  0  0  0  0  0  0  0
  -30.8820  -14.6780   19.8580 C   0  0  0  0  0  0  0  0  0  0  0  0
  -30.5570  -12.4810   18.7670 C   0  0  0  0  0  2  0  0  0  0  0  0
  -29.5070  -12.6530   17.6470 C   0  0  0  0  0  2  0  0  0  0  0  0
  -28.0800  -12.4790   18.2040 C   0  0  0  0  0  2  0  0  0  0  0  0
  -27.8360  -13.3070   19.4930 C   0  0  0  0  0  3  0  0  0  0  0  0
  -28.9930  -13.1240   20.5040 C   0  0  0  0  0  2  0  0  0  0  0  0
  -30.2480  -13.4670   19.8190 N   0  0  0  0  0  0  0  0  0  0  0  0
  -31.9920  -14.8380   19.3450 O   0  0  0  0  0  0  0  0  0  0  0  0
  -30.1560  -15.7150   20.3660 N   0  0  0  0  0  0  0  0  0  0  0  0
  -29.3260  -15.4140   20.8550 H   0  0  0  0  0  0  0  0  0  0  0  0
  -25.5270  -13.8700   20.4760 C   0  0  0  0  0  0  0  0  0  0  0  0
  -24.4960  -13.0790   20.9050 C   0  0  0  0  0  0  0  0  0  0  0  0
  -24.9430  -11.7310   20.7510 C   0  0  0  0  0  0  0  0  0  0  0  0
  -26.5380  -13.0030   20.0910 N   0  0  0  0  0  0  0  0  0  0  0  0
  -26.1960  -11.7070   20.3150 N   0  0  0  0  0  0  0  0  0  0  0  0
  -24.2300  -10.4600   20.9410 C   0  0  0  0  0  0  0  0  0  0  0  0
  -24.6850   -9.4880   21.8590 C   0  0  0  0  0  3  0  0  0  0  0  0
  -23.9730   -8.2820   22.0370 C   0  0  0  0  0  3  0  0  0  0  0  0
  -22.7920   -8.0410   21.2970 C   0  0  0  0  0  0  0  0  0  0  0  0
  -22.3550   -9.0030   20.3700 C   0  0  0  0  0  3  0  0  0  0  0  0
  -23.0680  -10.1990   20.1890 C   0  0  0  0  0  3  0  0  0  0  0  0
  -22.0480   -6.8890   21.3860 O   0  0  0  0  0  0  0  0  0  0  0  0
  -21.9310   -6.1970   22.5650 C   0  0  0  0  0  0  0  0  0  0  0  0
  -21.3820   -6.7860   23.7250 C   0  0  0  0  0  3  0  0  0  0  0  0
  -21.2170   -6.0170   24.8940 C   0  0  0  0  0  3  0  0  0  0  0  0
  -21.5900   -4.6610   24.9040 C   0  0  0  0  0  0  0  0  0  0  0  0
  -22.1320   -4.0700   23.7480 C   0  0  0  0  0  3  0  0  0  0  0  0
  -22.2990   -4.8370   22.5810 C   0  0  0  0  0  0  0  0  0  0  0  0
  -22.8020   -4.2570   21.4640 F   0  0  0  0  0  0  0  0  0  0  0  0
  -21.4240   -3.9190   26.0250 F   0  0  0  0  0  0  0  0  0  0  0  0
  -23.1360  -13.5420   21.3400 C   0  0  0  0  0  0  0  0  0  0  0  0
  -22.4930  -12.7980   22.2330 N   0  0  0  0  0  0  0  0  0  0  0  0
  -22.6560  -14.5970   20.9260 O   0  0  0  0  0  0  0  0  0  0  0  0
  -22.8930  -11.9430   22.5890 H   0  0  0  0  0  0  0  0  0  0  0  0
  -21.5840  -13.0880   22.5670 H   0  0  0  0  0  0  0  0  0  0  0  0
  -25.6840  -15.2480   20.3600 N   0  0  0  0  0  0  0  0  0  0  0  0
  -24.9370  -15.8960   20.5810 H   0  0  0  0  0  0  0  0  0  0  0  0
  -26.4970  -15.7050   19.9660 H   0  0  0  0  0  0  0  0  0  0  0  0
  -28.6170  -24.1080   19.9140 C   0  0  0  0  0  3  0  0  0  0  0  0
  -28.0110  -25.3070   20.1800 C   0  0  0  0  0  3  0  0  0  0  0  0
  -28.2750  -26.5610   19.6250 O   0  0  0  0  0  0  0  0  0  0  0  0
  -24.6570  -31.7060   23.0850 C   0  0  0  0  0  0  0  0  0  0  0  0
  -27.2010  -27.4430   19.6410 C   0  0  0  0  0  0  0  0  0  0  0  0
  -23.4340  -30.4960   21.3100 C   0  0  0  0  0  3  0  0  0  0  0  0
  -24.8650  -29.0580   19.7560 C   0  0  0  0  0  0  0  0  0  0  0  0
  -25.9770  -30.7870   21.1740 C   0  0  0  0  0  2  0  0  0  0  0  0
  -26.0350  -29.4770   20.4050 C   0  0  0  0  0  0  0  0  0  0  0  0
  -27.2100  -28.6790   20.3430 C   0  0  0  0  0  3  0  0  0  0  0  0
  -26.0160  -27.0640   18.9730 C   0  0  0  0  0  3  0  0  0  0  0  0
  -24.8540  -27.8540   19.0340 C   0  0  0  0  0  3  0  0  0  0  0  0
  -23.6440  -29.9450   19.8750 C   0  0  0  0  0  2  0  0  0  0  0  0
  -24.7070  -31.0060   21.9150 N   0  0  0  0  0  0  0  0  0  0  0  0
  -23.5760  -31.9580   23.6360 O   0  0  0  0  0  0  0  0  0  0  0  0
  -22.7410  -29.4100   22.1660 C   0  0  0  0  0  0  0  0  0  0  0  0
  -21.4070  -29.3060   22.0420 N   0  0  0  0  0  0  0  0  0  0  0  0
  -23.4000  -28.6690   22.9000 O   0  0  0  0  0  0  0  0  0  0  0  0
  -20.9370  -29.9550   21.4270 H   0  0  0  0  0  0  0  0  0  0  0  0
  -17.9720  -28.3160   22.5840 C   0  0  0  0  0  0  0  0  0  0  0  0
  -20.5540  -28.3300   22.7220 C   0  0  0  0  0  3  0  0  0  0  0  0
  -20.5010  -26.9960   21.9410 C   0  0  0  0  0  2  0  0  0  0  0  0
  -19.3240  -26.9160   20.9660 C   0  0  0  0  0  2  0  0  0  0  0  0
  -17.9960  -27.0710   21.7110 C   0  0  0  0  0  2  0  0  0  0  0  0
  -19.1740  -28.9150   23.0450 C   0  0  0  0  0  0  0  0  0  0  0  0
  -19.0960  -30.0900   23.8250 C   0  0  0  0  0  3  0  0  0  0  0  0
  -17.8510  -30.6610   24.1460 C   0  0  0  0  0  3  0  0  0  0  0  0
  -16.6640  -30.0540   23.6990 C   0  0  0  0  0  3  0  0  0  0  0  0
  -16.7260  -28.8830   22.9240 C   0  0  0  0  0  3  0  0  0  0  0  0
  -25.9510  -32.2430   23.7710 C   0  0  0  0  0  3  0  0  0  0  0  0
  -25.6890  -33.6270   24.1880 N   0  0  0  0  0  0  0  0  0  0  0  0
  -26.0330  -34.7120   23.4820 C   0  0  0  0  0  0  0  0  0  0  0  0
  -26.6770  -34.6500   22.4300 O   0  0  0  0  0  0  0  0  0  0  0  0
  -25.1200  -33.7520   25.0120 H   0  0  0  0  0  0  0  0  0  0  0  0
  -24.3310  -36.5530   23.2940 C   0  0  0  0  0  1  0  0  0  0  0  0
  -25.5960  -36.0850   24.0290 C   0  0  0  0  0  3  0  0  0  0  0  0
  -27.7780  -36.8910   24.8190 C   0  0  0  0  0  1  0  0  0  0  0  0
  -26.6460  -37.1220   23.9250 N   0  0  0  0  0  0  0  0  0  0  0  0
  -26.2640  -38.0420   24.1290 H   0  0  0  0  0  0  0  0  0  0  0  0
  -26.4100  -31.3670   25.0020 C   0  0  1  0  0  0  0  0  0  0  0  0
  -25.2880  -31.1080   26.0340 C   0  0  0  0  0  1  0  0  0  0  0  0
  -26.9400  -29.9940   24.5290 C   0  0  0  0  0  1  0  0  0  0  0  0
  -27.5810  -32.0640   25.7340 C   0  0  0  0  0  1  0  0  0  0  0  0
  1  2  2  0
  1  5  1  0
  2  6  1  0
  4  3  1  0
  4  7  1  0
  5  4  2  0
  6 21  1  0
  6  3  2  0
  7 11  2  0
  8 12  2  0
  9  5  1  0
  9 10  1  0
 10  8  1  0
 10  7  1  0
 13 21  1  0
 14 19  1  0
 15 16  1  0
 15 14  1  0
 17 16  1  0
 17 26  1  0
 17 18  1  0
 19 13  1  0
 19 18  1  0
 20 13  2  0
 21 22  1  0
 23 24  2  0
 24 43  1  0
 25 24  1  0
 25 28  1  0
 26 27  1  0
 26 23  1  0
 27 25  2  0
 28 29  1  0
 29 30  2  0
 31 34  1  0
 31 30  1  0
 32 31  2  0
 33 32  1  0
 33 28  2  0
 34 35  1  0
 35 40  2  0
 35 36  1  0
 36 37  2  0
 37 38  1  0
 38 42  1  0
 39 38  2  0
 40 39  1  0
 41 40  1  0
 43 44  1  0
 44 47  1  0
 44 46  1  0
 45 43  2  0
 48 23  1  0
 48 49  1  0
 50 48  1  0
 51 52  2  0
 51  8  1  0
 53 55  1  0
 53 52  1  0
 54 65  2  0
 55 60  1  0
 56 64  1  0
 56 66  1  0
 57 63  1  0
 57 59  1  0
 58 64  1  0
 59 58  1  0
 60 59  2  0
 61 62  1  0
 61 55  2  0
 62 57  2  0
 63 56  1  0
 64 54  1  0
 66 68  2  0
 67 66  1  0
 69 67  1  0
 70 79  2  0
 70 75  1  0
 71 67  1  0
 71 75  1  0
 72 71  1  0
 73 74  1  0
 73 72  1  0
 74 70  1  0
 75 76  2  0
 76 77  1  0
 78 77  2  0
 79 78  1  0
 80 54  1  0
 80 81  1  0
 80 90  1  0
 81 84  1  0
 82 86  1  0
 82 81  1  0
 83 82  2  0
 86 85  1  0
 88 86  1  0
 88 89  1  0
 88 87  1  0
 90 93  1  1
 90 91  1  0
 92 90  1  0
M  ISO  4  13 100  21 100  52 101  53 101
M  END
>  <TORSDO>  (7) 
F 17

>  <SCORE>  (7) 
-12.666

>  <name>  (7) 
6

>  <ligand_id>  (7) 
6

>  <original_smiles>  (7) 
[H]C(Oc1c([H])c([H])c2c(c1[H])C([H])([H])N(C(=O)C([H])(N([H])C(=O)C([H])(N([H])C([H])([H])[H])C([H])([H])[H])C(C([H])([H])[H])(C([H])([H])[H])C([H])([H])[H])C([H])(C(=O)N([H])C1([H])c3c([H])c([H])c([H])c([H])c3C([H])([H])C([H])([H])C1([H])[H])C2([H])[H])=C([H])C(=O)N1C(=O)c2c([H])c(N([H])C(=O)N3C([H])([H])C([H])([H])C([H])([H])C([H])(n4nc(-c5c([H])c([H])c(Oc6c([H])c([H])c(F)c([H])c6F)c([H])c5[H])c(C(=O)N([H])[H])c4N([H])[H])C3([H])[H])c([H])c([H])c2C1([H])[H]

>  <smiles>  (7) 
[H]C(Oc1c([H])c([H])c2c(c1[H])C([H])([H])N(C(=O)C([H])(N([H])C(=O)C([H])(N([H])C([H])([H])[H])C([H])([H])[H])C(C([H])([H])[H])(C([H])([H])[H])C([H])([H])[H])C([H])(C(=O)N([H])C1([H])c3c([H])c([H])c([H])c([H])c3C([H])([H])C([H])([H])C1([H])[H])C2([H])[H])=C([H])C(=O)N1C(=O)c2c([H])c(N([H])C(=O)N3C([H])([H])C([H])([H])C([H])([H])C([H])(n4nc(-c5c([H])c([H])c(Oc6c([H])c([H])c(F)c([H])c6F)c([H])c5[H])c(C(=O)N([H])[H])c4N([H])[H])C3([H])[H])c([H])c([H])c2C1([H])[H]

$$$$
7:0:0
     RDKit          3D

 93101  0  0  1  0  0  0  0  0999 V2000
  -30.2730  -18.2140   20.3530 C   0  0  0  0  0  0  0  0  0  0  0  0
  -30.0700  -18.5740   21.6830 C   0  0  0  0  0  0  0  0  0  0  0  0
  -29.2030  -20.2470   20.0510 C   0  0  0  0  0  0  0  0  0  0  0  0
  -28.2560  -22.5530   19.7140 C   0  0  0  0  0  0  0  0  0  0  0  0
  -29.7640  -19.1850   19.4550 N   0  0  0  0  0  0  0  0  0  0  0  0
  -28.6720  -21.3360   19.2820 N   0  0  0  0  0  0  0  0  0  0  0  0
  -28.3230  -22.9030   20.8960 O   0  0  0  0  0  0  0  0  0  0  0  0
  -29.1980  -20.0920   21.8040 S   0  0  0  0  0  0  0  0  0  0  0  0
  -28.6300  -21.1830   18.2880 H   0  0  0  0  0  0  0  0  0  0  0  0
  -30.9500  -16.9530   19.8810 C   0  0  0  0  0  3  0  0  0  0  0  0
  -30.9790  -15.8030   20.4620 N   0  0  0  0  0  0  0  0  0  0  0  0
  -31.6310  -14.7460   19.8170 C   0  0  0  0  0  0  0  0  0  0  0  0
  -31.1290  -12.6000   18.6810 C   0  0  0  0  0  2  0  0  0  0  0  0
  -30.0840  -12.8430   17.5720 C   0  0  0  0  0  2  0  0  0  0  0  0
  -28.6520  -12.7580   18.1380 C   0  0  0  0  0  2  0  0  0  0  0  0
  -28.4720  -13.6110   19.4210 C   0  0  0  0  0  3  0  0  0  0  0  0
  -29.6200  -13.3530   20.4210 C   0  0  0  0  0  2  0  0  0  0  0  0
  -30.8960  -13.6030   19.7330 N   0  0  0  0  0  0  0  0  0  0  0  0
  -32.7150  -14.8400   19.2360 O   0  0  0  0  0  0  0  0  0  0  0  0
  -26.2360  -14.3300   20.4630 C   0  0  0  0  0  0  0  0  0  0  0  0
  -25.1430  -13.6140   20.8700 C   0  0  0  0  0  0  0  0  0  0  0  0
  -25.4660  -12.2410   20.6470 C   0  0  0  0  0  0  0  0  0  0  0  0
  -27.1610  -13.3970   20.0270 N   0  0  0  0  0  0  0  0  0  0  0  0
  -26.7070  -12.1280   20.1910 N   0  0  0  0  0  0  0  0  0  0  0  0
  -24.6430  -11.0310   20.7840 C   0  0  0  0  0  0  0  0  0  0  0  0
  -25.0260   -9.9700   21.6370 C   0  0  0  0  0  3  0  0  0  0  0  0
  -24.2080   -8.8270   21.7680 C   0  0  0  0  0  3  0  0  0  0  0  0
  -22.9920   -8.7380   21.0510 C   0  0  0  0  0  0  0  0  0  0  0  0
  -22.6270   -9.7850   20.1840 C   0  0  0  0  0  3  0  0  0  0  0  0
  -23.4440  -10.9210   20.0500 C   0  0  0  0  0  3  0  0  0  0  0  0
  -22.1480   -7.6550   21.0950 O   0  0  0  0  0  0  0  0  0  0  0  0
  -21.9840   -6.9160   22.2400 C   0  0  0  0  0  0  0  0  0  0  0  0
  -21.5240   -7.4990   23.4410 C   0  0  0  0  0  3  0  0  0  0  0  0
  -21.3050   -6.6920   24.5760 C   0  0  0  0  0  3  0  0  0  0  0  0
  -21.5330   -5.3050   24.5080 C   0  0  0  0  0  0  0  0  0  0  0  0
  -21.9860   -4.7230   23.3110 C   0  0  0  0  0  3  0  0  0  0  0  0
  -22.2080   -5.5260   22.1790 C   0  0  0  0  0  0  0  0  0  0  0  0
  -22.6230   -4.9570   21.0220 F   0  0  0  0  0  0  0  0  0  0  0  0
  -21.3140   -4.5280   25.5950 F   0  0  0  0  0  0  0  0  0  0  0  0
  -23.8350  -14.1750   21.3480 C   0  0  0  0  0  0  0  0  0  0  0  0
  -23.1560  -13.4610   22.2410 N   0  0  0  0  0  0  0  0  0  0  0  0
  -23.4310  -15.2740   20.9700 O   0  0  0  0  0  0  0  0  0  0  0  0
  -23.5030  -12.5700   22.5630 H   0  0  0  0  0  0  0  0  0  0  0  0
  -22.2830  -13.8120   22.6080 H   0  0  0  0  0  0  0  0  0  0  0  0
  -26.5200  -15.6910   20.4060 N   0  0  0  0  0  0  0  0  0  0  0  0
  -25.8500  -16.4110   20.6470 H   0  0  0  0  0  0  0  0  0  0  0  0
  -27.3910  -16.0610   20.0470 H   0  0  0  0  0  0  0  0  0  0  0  0
  -30.4500  -17.8790   22.9700 C   0  0  0  0  0  2  0  0  0  0  0  0
  -31.9220  -19.6460   24.1820 C   0  0  0  0  0  1  0  0  0  0  0  0
  -31.8420  -18.2540   23.5230 C   0  0  0  0  0  2  0  0  0  0  0  0
  -27.7010  -23.5490   18.6550 C   0  0  0  0  0  2  0  0  0  0  0  0
  -27.4040  -24.9790   19.2070 C   0  0  0  0  0  2  0  0  0  0  0  0
  -27.2680  -26.0420   18.2280 O   0  0  0  0  0  0  0  0  0  0  0  0
  -24.6400  -31.1030   22.5320 C   0  0  0  0  0  0  0  0  0  0  0  0
  -26.2370  -26.9250   18.4910 C   0  0  0  0  0  0  0  0  0  0  0  0
  -23.0380  -30.0620   20.9620 C   0  0  0  0  0  3  0  0  0  0  0  0
  -24.0640  -28.6360   19.1070 C   0  0  0  0  0  0  0  0  0  0  0  0
  -25.5250  -30.2260   20.3680 C   0  0  0  0  0  2  0  0  0  0  0  0
  -25.3580  -28.9630   19.5430 C   0  0  0  0  0  0  0  0  0  0  0  0
  -26.4500  -28.1220   19.2200 C   0  0  0  0  0  3  0  0  0  0  0  0
  -24.9290  -26.6240   18.0500 C   0  0  0  0  0  3  0  0  0  0  0  0
  -23.8480  -27.4720   18.3540 C   0  0  0  0  0  3  0  0  0  0  0  0
  -22.9440  -29.5780   19.4900 C   0  0  0  0  0  2  0  0  0  0  0  0
  -24.4300  -30.4700   21.3420 N   0  0  0  0  0  0  0  0  0  0  0  0
  -23.6970  -31.3820   23.2850 O   0  0  0  0  0  0  0  0  0  0  0  0
  -22.4440  -28.9690   21.8830 C   0  0  0  0  0  0  0  0  0  0  0  0
  -21.1060  -28.8560   21.8950 N   0  0  0  0  0  0  0  0  0  0  0  0
  -23.1810  -28.2320   22.5420 O   0  0  0  0  0  0  0  0  0  0  0  0
  -20.5770  -29.4990   21.3250 H   0  0  0  0  0  0  0  0  0  0  0  0
  -17.7600  -27.6750   22.5640 C   0  0  0  0  0  0  0  0  0  0  0  0
  -20.3330  -27.8760   22.6560 C   0  0  0  0  0  3  0  0  0  0  0  0
  -20.3650  -26.4910   21.9740 C   0  0  0  0  0  2  0  0  0  0  0  0
  -19.1870  -26.2620   21.0240 C   0  0  0  0  0  2  0  0  0  0  0  0
  -17.8600  -26.3750   21.7830 C   0  0  0  0  0  2  0  0  0  0  0  0
  -18.9220  -28.3870   22.9610 C   0  0  0  0  0  0  0  0  0  0  0  0
  -18.7750  -29.6040   23.6590 C   0  0  0  0  0  3  0  0  0  0  0  0
  -17.4960  -30.1080   23.9670 C   0  0  0  0  0  3  0  0  0  0  0  0
  -16.3500  -29.3900   23.5850 C   0  0  0  0  0  3  0  0  0  0  0  0
  -16.4810  -28.1770   22.8870 C   0  0  0  0  0  3  0  0  0  0  0  0
  -26.0680  -31.5270   22.9930 C   0  0  0  0  0  3  0  0  0  0  0  0
  -25.9460  -32.8290   23.6610 N   0  0  0  0  0  0  0  0  0  0  0  0
  -26.2880  -34.0010   23.1100 C   0  0  0  0  0  0  0  0  0  0  0  0
  -26.8120  -34.0910   21.9980 O   0  0  0  0  0  0  0  0  0  0  0  0
  -25.4710  -32.8340   24.5510 H   0  0  0  0  0  0  0  0  0  0  0  0
  -24.7280  -35.9530   23.3960 C   0  0  0  0  0  1  0  0  0  0  0  0
  -26.0040  -35.2770   23.9250 C   0  0  0  0  0  3  0  0  0  0  0  0
  -28.2970  -35.7790   24.6410 C   0  0  0  0  0  1  0  0  0  0  0  0
  -27.1210  -36.2450   23.9110 N   0  0  0  0  0  0  0  0  0  0  0  0
  -26.8340  -37.1340   24.3090 H   0  0  0  0  0  0  0  0  0  0  0  0
  -26.7530  -30.4710   23.9450 C   0  0  1  0  0  0  0  0  0  0  0  0
  -25.8700  -30.0560   25.1450 C   0  0  0  0  0  1  0  0  0  0  0  0
  -27.1250  -29.1880   23.1640 C   0  0  0  0  0  1  0  0  0  0  0  0
  -28.0740  -31.0500   24.5020 C   0  0  0  0  0  1  0  0  0  0  0  0
  1  2  2  0
  2  8  1  0
  2 48  1  0
  3  8  1  0
  4  7  2  0
  5  3  2  0
  5  1  1  0
  6  4  1  0
  6  3  1  0
  9  6  1  0
 10  1  1  0
 10 11  2  0
 12 11  1  0
 13 18  1  0
 14 15  1  0
 14 13  1  0
 16 15  1  0
 16 23  1  0
 16 17  1  0
 18 12  1  0
 18 17  1  0
 19 12  2  0
 20 21  2  0
 21 40  1  0
 22 25  1  0
 22 21  1  0
 23 24  1  0
 23 20  1  0
 24 22  2  0
 25 26  1  0
 26 27  2  0
 28 31  1  0
 28 27  1  0
 29 28  2  0
 30 29  1  0
 30 25  2  0
 31 32  1  0
 32 33  1  0
 33 34  2  0
 35 34  1  0
 35 39  1  0
 36 35  2  0
 37 32  2  0
 37 36  1  0
 38 37  1  0
 40 41  1  0
 41 43  1  0
 41 44  1  0
 42 40  2  0
 45 20  1  0
 45 46  1  0
 47 45  1  0
 48 50  1  0
 50 49  1  0
 51 52  1  0
 51  4  1  0
 53 55  1  0
 53 52  1  0
 54 65  2  0
 55 60  1  0
 56 64  1  0
 56 66  1  0
 57 63  1  0
 57 59  1  0
 58 64  1  0
 59 58  1  0
 60 59  2  0
 61 62  1  0
 61 55  2  0
 62 57  2  0
 63 56  1  0
 64 54  1  0
 66 67  1  0
 66 68  2  0
 69 67  1  0
 70 79  2  0
 70 75  1  0
 71 67  1  0
 71 75  1  0
 72 71  1  0
 73 74  1  0
 73 72  1  0
 74 70  1  0
 75 76  2  0
 76 77  1  0
 78 77  2  0
 79 78  1  0
 80 54  1  0
 80 81  1  0
 80 90  1  0
 81 84  1  0
 82 81  1  0
 82 86  1  0
 83 82  2  0
 86 85  1  0
 88 86  1  0
 88 89  1  0
 88 87  1  0
 90 93  1  1
 90 91  1  0
 92 90  1  0
M  ISO  4  11 100  12 100  52 101  53 101
M  END
>  <TORSDO>  (8) 
F 21

>  <SCORE>  (8) 
-6.328

>  <name>  (8) 
7

>  <ligand_id>  (8) 
7

>  <original_smiles>  (8) 
[H]C(=NC(=O)N1C([H])([H])C([H])([H])C([H])([H])C([H])(n2nc(-c3c([H])c([H])c(Oc4c([H])c([H])c(F)c([H])c4F)c([H])c3[H])c(C(=O)N([H])[H])c2N([H])[H])C1([H])[H])c1nc(N([H])C(=O)C([H])([H])C([H])([H])Oc2c([H])c([H])c3c(c2[H])C([H])([H])N(C(=O)C([H])(N([H])C(=O)C([H])(N([H])C([H])([H])[H])C([H])([H])[H])C(C([H])([H])[H])(C([H])([H])[H])C([H])([H])[H])C([H])(C(=O)N([H])C2([H])c4c([H])c([H])c([H])c([H])c4C([H])([H])C([H])([H])C2([H])[H])C3([H])[H])sc1C([H])([H])C([H])([H])C([H])([H])[H]

>  <smiles>  (8) 
[H]C(=NC(=O)N1C([H])([H])C([H])([H])C([H])([H])C([H])(n2nc(-c3c([H])c([H])c(Oc4c([H])c([H])c(F)c([H])c4F)c([H])c3[H])c(C(=O)N([H])[H])c2N([H])[H])C1([H])[H])c1nc(N([H])C(=O)C([H])([H])C([H])([H])Oc2c([H])c([H])c3c(c2[H])C([H])([H])N(C(=O)C([H])(N([H])C(=O)C([H])(N([H])C([H])([H])[H])C([H])([H])[H])C(C([H])([H])[H])(C([H])([H])[H])C([H])([H])[H])C([H])(C(=O)N([H])C2([H])c4c([H])c([H])c([H])c([H])c4C([H])([H])C([H])([H])C2([H])[H])C3([H])[H])sc1C([H])([H])C([H])([H])C([H])([H])[H]

$$$$
8:0:0
     RDKit          3D

 93102  0  0  1  0  0  0  0  0999 V2000
  -28.9190  -24.0260   20.3680 C   0  0  0  0  0  0  0  0  0  0  0  0
  -28.0690  -25.1110   20.3750 C   0  0  0  0  0  3  0  0  0  0  0  0
  -30.4260  -24.0030   20.2120 C   0  0  0  0  0  2  0  0  0  0  0  0
  -28.5030  -22.5430   20.5400 C   0  0  0  0  0  2  0  0  0  0  0  0
  -30.8950  -22.5930   20.6860 C   0  0  0  0  0  2  0  0  0  0  0  0
  -29.7240  -21.7150   20.6880 N   0  0  0  0  0  0  0  0  0  0  0  0
  -30.7660  -14.8530   20.9950 C   0  0  0  0  0  0  0  0  0  0  0  0
  -30.7510  -12.5380   20.0640 C   0  0  0  0  0  2  0  0  0  0  0  0
  -29.9200  -12.5320   18.7600 C   0  0  0  0  0  2  0  0  0  0  0  0
  -28.4270  -12.3030   19.0650 C   0  0  0  0  0  2  0  0  0  0  0  0
  -27.9150  -13.2340   20.1940 C   0  0  0  0  0  3  0  0  0  0  0  0
  -28.8630  -13.2260   21.4130 C   0  0  0  0  0  2  0  0  0  0  0  0
  -30.2040  -13.5980   20.9370 N   0  0  0  0  0  0  0  0  0  0  0  0
  -31.9690  -15.0080   20.7530 O   0  0  0  0  0  0  0  0  0  0  0  0
  -28.9110  -19.4350   20.0380 C   0  0  0  0  0  3  0  0  0  0  0  0
  -30.7730  -19.5350   21.4910 C   0  0  0  0  0  3  0  0  0  0  0  0
  -28.9900  -18.0070   20.0840 C   0  0  0  0  0  0  0  0  0  0  0  0
  -29.8010  -20.2710   20.7500 C   0  0  0  0  0  0  0  0  0  0  0  0
  -29.9680  -17.3610   20.9160 C   0  0  0  0  0  0  0  0  0  0  0  0
  -30.8400  -18.1670   21.5890 N   0  0  0  0  0  0  0  0  0  0  0  0
  -29.8820  -15.9030   21.1260 N   0  0  0  0  0  0  0  0  0  0  0  0
  -28.9410  -15.5830   21.2870 H   0  0  0  0  0  0  0  0  0  0  0  0
  -25.4680  -13.8410   20.6970 C   0  0  0  0  0  0  0  0  0  0  0  0
  -24.3780  -13.0660   20.9850 C   0  0  0  0  0  0  0  0  0  0  0  0
  -24.8500  -11.7200   21.0160 C   0  0  0  0  0  0  0  0  0  0  0  0
  -26.5330  -12.9600   20.5650 N   0  0  0  0  0  0  0  0  0  0  0  0
  -26.1620  -11.6830   20.8210 N   0  0  0  0  0  0  0  0  0  0  0  0
  -24.1240  -10.4540   21.1620 C   0  0  0  0  0  0  0  0  0  0  0  0
  -24.4870   -9.5060   22.1430 C   0  0  0  0  0  3  0  0  0  0  0  0
  -23.7640   -8.3020   22.2750 C   0  0  0  0  0  3  0  0  0  0  0  0
  -22.6640   -8.0390   21.4240 C   0  0  0  0  0  0  0  0  0  0  0  0
  -22.3230   -8.9760   20.4320 C   0  0  0  0  0  3  0  0  0  0  0  0
  -23.0480  -10.1720   20.2990 C   0  0  0  0  0  3  0  0  0  0  0  0
  -21.9180   -6.8860   21.4640 O   0  0  0  0  0  0  0  0  0  0  0  0
  -21.7670   -6.1690   22.6220 C   0  0  0  0  0  0  0  0  0  0  0  0
  -21.2050   -6.7390   23.7850 C   0  0  0  0  0  3  0  0  0  0  0  0
  -21.0070   -5.9450   24.9330 C   0  0  0  0  0  3  0  0  0  0  0  0
  -21.3560   -4.5820   24.9150 C   0  0  0  0  0  0  0  0  0  0  0  0
  -21.9090   -4.0100   23.7550 C   0  0  0  0  0  3  0  0  0  0  0  0
  -22.1120   -4.8020   22.6110 C   0  0  0  0  0  0  0  0  0  0  0  0
  -22.6280   -4.2430   21.4900 F   0  0  0  0  0  0  0  0  0  0  0  0
  -21.1550   -3.8170   26.0130 F   0  0  0  0  0  0  0  0  0  0  0  0
  -22.9590  -13.5360   21.1210 C   0  0  0  0  0  0  0  0  0  0  0  0
  -22.1650  -12.8550   21.9400 N   0  0  0  0  0  0  0  0  0  0  0  0
  -22.5580  -14.5420   20.5390 O   0  0  0  0  0  0  0  0  0  0  0  0
  -22.4970  -12.0400   22.4340 H   0  0  0  0  0  0  0  0  0  0  0  0
  -21.2090  -13.1550   22.0730 H   0  0  0  0  0  0  0  0  0  0  0  0
  -25.6360  -15.2100   20.5150 N   0  0  0  0  0  0  0  0  0  0  0  0
  -24.8490  -15.8480   20.5260 H   0  0  0  0  0  0  0  0  0  0  0  0
  -26.4880  -15.6520   20.1980 H   0  0  0  0  0  0  0  0  0  0  0  0
  -27.3300  -17.6920   18.1920 C   0  0  0  0  0  2  0  0  0  0  0  0
  -28.0830  -17.2300   19.2080 C   0  0  0  0  0  3  0  0  0  0  0  0
  -28.3260  -26.4910   20.1670 O   0  0  0  0  0  0  0  0  0  0  0  0
  -24.6220  -31.9030   23.2330 C   0  0  0  0  0  0  0  0  0  0  0  0
  -27.2260  -27.3730   20.1260 C   0  0  0  0  0  0  0  0  0  0  0  0
  -23.4080  -30.5140   21.5910 C   0  0  0  0  0  3  0  0  0  0  0  0
  -24.8570  -28.9820   20.1380 C   0  0  0  0  0  0  0  0  0  0  0  0
  -25.9460  -30.8360   21.3980 C   0  0  0  0  0  2  0  0  0  0  0  0
  -26.0250  -29.4630   20.7420 C   0  0  0  0  0  0  0  0  0  0  0  0
  -27.2110  -28.6660   20.7360 C   0  0  0  0  0  3  0  0  0  0  0  0
  -26.0410  -26.9640   19.4700 C   0  0  0  0  0  3  0  0  0  0  0  0
  -24.8670  -27.7380   19.4910 C   0  0  0  0  0  3  0  0  0  0  0  0
  -23.6150  -29.8480   20.2040 C   0  0  0  0  0  2  0  0  0  0  0  0
  -24.6770  -31.1020   22.1290 N   0  0  0  0  0  0  0  0  0  0  0  0
  -23.5410  -32.1730   23.7800 O   0  0  0  0  0  0  0  0  0  0  0  0
  -22.7550  -29.4890   22.5490 C   0  0  0  0  0  0  0  0  0  0  0  0
  -21.4300  -29.3000   22.4220 N   0  0  0  0  0  0  0  0  0  0  0  0
  -23.4400  -28.8640   23.3640 O   0  0  0  0  0  0  0  0  0  0  0  0
  -20.9370  -29.8600   21.7430 H   0  0  0  0  0  0  0  0  0  0  0  0
  -18.0640  -28.0730   22.9200 C   0  0  0  0  0  0  0  0  0  0  0  0
  -20.6200  -28.3540   23.1910 C   0  0  0  0  0  3  0  0  0  0  0  0
  -20.7340  -26.9230   22.6140 C   0  0  0  0  0  2  0  0  0  0  0  0
  -19.6350  -26.5920   21.6000 C   0  0  0  0  0  2  0  0  0  0  0  0
  -18.2520  -26.7250   22.2420 C   0  0  0  0  0  2  0  0  0  0  0  0
  -19.1750  -28.8450   23.3500 C   0  0  0  0  0  0  0  0  0  0  0  0
  -18.9460  -30.1050   23.9430 C   0  0  0  0  0  3  0  0  0  0  0  0
  -17.6370  -30.5930   24.1120 C   0  0  0  0  0  3  0  0  0  0  0  0
  -16.5390  -29.8190   23.6970 C   0  0  0  0  0  3  0  0  0  0  0  0
  -16.7540  -28.5610   23.1060 C   0  0  0  0  0  3  0  0  0  0  0  0
  -25.9090  -32.5340   23.8500 C   0  0  0  0  0  3  0  0  0  0  0  0
  -25.5970  -33.9270   24.1970 N   0  0  0  0  0  0  0  0  0  0  0  0
  -25.9150  -34.9890   23.4450 C   0  0  0  0  0  0  0  0  0  0  0  0
  -26.5720  -34.9010   22.4040 O   0  0  0  0  0  0  0  0  0  0  0  0
  -25.0190  -34.0720   25.0120 H   0  0  0  0  0  0  0  0  0  0  0  0
  -24.1770  -36.7810   23.1260 C   0  0  0  0  0  1  0  0  0  0  0  0
  -25.4260  -36.3700   23.9220 C   0  0  0  0  0  3  0  0  0  0  0  0
  -27.5620  -37.2540   24.7490 C   0  0  0  0  0  1  0  0  0  0  0  0
  -26.4530  -37.4280   23.8160 N   0  0  0  0  0  0  0  0  0  0  0  0
  -26.0420  -38.3440   23.9790 H   0  0  0  0  0  0  0  0  0  0  0  0
  -26.4380  -31.7520   25.1160 C   0  0  1  0  0  0  0  0  0  0  0  0
  -25.3580  -31.5050   26.1930 C   0  0  0  0  0  1  0  0  0  0  0  0
  -27.0210  -30.3780   24.7100 C   0  0  0  0  0  1  0  0  0  0  0  0
  -27.5910  -32.5440   25.7760 C   0  0  0  0  0  1  0  0  0  0  0  0
  1  2  2  0
  1  4  1  0
  3  1  1  0
  3  5  1  0
  4  6  1  0
  5  6  1  0
  6 18  1  0
  7 21  1  0
  8 13  1  0
  9 10  1  0
  9  8  1  0
 11 10  1  0
 11 26  1  0
 11 12  1  0
 13  7  1  0
 13 12  1  0
 14  7  2  0
 15 17  2  0
 15 18  1  0
 16 20  1  0
 17 19  1  0
 18 16  2  0
 19 21  1  0
 19 20  2  0
 21 22  1  0
 23 24  2  0
 24 25  1  0
 24 43  1  0
 25 28  1  0
 26 23  1  0
 26 27  1  0
 27 25  2  0
 28 29  1  0
 29 30  2  0
 31 34  1  0
 31 30  1  0
 32 31  2  0
 33 32  1  0
 33 28  2  0
 34 35  1  0
 35 36  1  0
 36 37  2  0
 38 37  1  0
 38 42  1  0
 39 38  2  0
 40 35  2  0
 40 39  1  0
 41 40  1  0
 43 44  1  0
 44 47  1  0
 44 46  1  0
 45 43  2  0
 48 49  1  0
 48 23  1  0
 50 48  1  0
 51 52  2  0
 52 17  1  0
 53  2  1  0
 54 65  2  0
 55 53  1  0
 55 60  1  0
 56 64  1  0
 56 66  1  0
 57 63  1  0
 57 59  1  0
 58 64  1  0
 59 58  1  0
 60 59  2  0
 61 62  1  0
 61 55  2  0
 62 57  2  0
 63 56  1  0
 64 54  1  0
 66 68  2  0
 67 66  1  0
 69 67  1  0
 70 79  2  0
 70 75  1  0
 71 67  1  0
 71 75  1  0
 72 71  1  0
 73 74  1  0
 73 72  1  0
 74 70  1  0
 75 76  2  0
 76 77  1  0
 78 77  2  0
 79 78  1  0
 80 54  1  0
 80 81  1  0
 80 90  1  0
 81 84  1  0
 82 86  1  0
 82 81  1  0
 83 82  2  0
 86 85  1  0
 88 86  1  0
 88 89  1  0
 88 87  1  0
 90 93  1  1
 90 91  1  0
 92 90  1  0
M  ISO  4   2 101   7 100  21 100  53 101
M  END
>  <TORSDO>  (9) 
F 17

>  <SCORE>  (9) 
-14.963

>  <name>  (9) 
8

>  <ligand_id>  (9) 
8

>  <original_smiles>  (9) 
[H]C([H])=C([H])c1c(N([H])C(=O)N2C([H])([H])C([H])([H])C([H])([H])C([H])(n3nc(-c4c([H])c([H])c(Oc5c([H])c([H])c(F)c([H])c5F)c([H])c4[H])c(C(=O)N([H])[H])c3N([H])[H])C2([H])[H])nc([H])c(N2C([H])([H])C(=C([H])Oc3c([H])c([H])c4c(c3[H])C([H])([H])N(C(=O)C([H])(N([H])C(=O)C([H])(N([H])C([H])([H])[H])C([H])([H])[H])C(C([H])([H])[H])(C([H])([H])[H])C([H])([H])[H])C([H])(C(=O)N([H])C3([H])c5c([H])c([H])c([H])c([H])c5C([H])([H])C([H])([H])C3([H])[H])C4([H])[H])C([H])([H])C2([H])[H])c1[H]

>  <smiles>  (9) 
[H]C([H])=C([H])c1c(N([H])C(=O)N2C([H])([H])C([H])([H])C([H])([H])C([H])(n3nc(-c4c([H])c([H])c(Oc5c([H])c([H])c(F)c([H])c5F)c([H])c4[H])c(C(=O)N([H])[H])c3N([H])[H])C2([H])[H])nc([H])c(N2C([H])([H])C(=C([H])Oc3c([H])c([H])c4c(c3[H])C([H])([H])N(C(=O)C([H])(N([H])C(=O)C([H])(N([H])C([H])([H])[H])C([H])([H])[H])C(C([H])([H])[H])(C([H])([H])[H])C([H])([H])[H])C([H])(C(=O)N([H])C3([H])c5c([H])c([H])c([H])c([H])c5C([H])([H])C([H])([H])C3([H])[H])C4([H])[H])C([H])([H])C2([H])[H])c1[H]

$$$$
9:0:0
     RDKit          3D

 98106  0  0  1  0  0  0  0  0999 V2000
  -29.3030  -19.6710   20.6070 C   0  0  0  0  0  3  0  0  0  0  0  0
  -29.5180  -18.2890   20.9330 C   0  0  0  0  0  0  0  0  0  0  0  0
  -29.8940  -20.2730   19.4720 C   0  0  0  0  0  0  0  0  0  0  0  0
  -30.3960  -17.4460   20.1370 C   0  0  0  0  0  0  0  0  0  0  0  0
  -30.6800  -19.3560   18.7180 C   0  0  0  0  0  0  0  0  0  0  0  0
  -30.9310  -18.0430   19.0330 N   0  0  0  0  0  0  0  0  0  0  0  0
  -28.8040  -17.8300   22.0540 N   0  0  0  0  0  0  0  0  0  0  0  0
  -28.0850  -18.4400   22.4320 H   0  0  0  0  0  0  0  0  0  0  0  0
  -28.4920  -16.8610   22.0530 H   0  0  0  0  0  0  0  0  0  0  0  0
  -30.7960  -15.9670   20.5720 C   0  0  0  0  0  3  0  0  0  0  0  0
  -30.8010  -15.7030   21.8140 N   0  0  0  0  0  2  0  0  0  0  0  0
  -30.4990  -16.5510   22.2940 H   0  0  0  0  0  0  0  0  0  0  0  0
  -31.2810  -14.7970   19.5950 C   0  0  0  0  0  0  0  0  0  0  0  0
  -30.8660  -12.5840   18.4850 C   0  0  0  0  0  2  0  0  0  0  0  0
  -29.7990  -12.7450   17.3780 C   0  0  0  0  0  2  0  0  0  0  0  0
  -28.3780  -12.6020   17.9570 C   0  0  0  0  0  2  0  0  0  0  0  0
  -28.1840  -13.4430   19.2450 C   0  0  0  0  0  3  0  0  0  0  0  0
  -29.3470  -13.2230   20.2330 C   0  0  0  0  0  2  0  0  0  0  0  0
  -30.5990  -13.5890   19.5460 N   0  0  0  0  0  0  0  0  0  0  0  0
  -32.3180  -14.9330   18.9310 O   0  0  0  0  0  0  0  0  0  0  0  0
  -25.9310  -14.1060   20.2810 C   0  0  0  0  0  0  0  0  0  0  0  0
  -24.8740  -13.3630   20.7320 C   0  0  0  0  0  0  0  0  0  0  0  0
  -25.2550  -11.9950   20.5680 C   0  0  0  0  0  0  0  0  0  0  0  0
  -26.8890  -13.1940   19.8690 N   0  0  0  0  0  0  0  0  0  0  0  0
  -26.4940  -11.9150   20.1020 N   0  0  0  0  0  0  0  0  0  0  0  0
  -24.4870  -10.7600   20.7720 C   0  0  0  0  0  0  0  0  0  0  0  0
  -24.8980   -9.7800   21.7030 C   0  0  0  0  0  3  0  0  0  0  0  0
  -24.1320   -8.6100   21.8950 C   0  0  0  0  0  3  0  0  0  0  0  0
  -22.9420   -8.4110   21.1550 C   0  0  0  0  0  0  0  0  0  0  0  0
  -22.5510   -9.3790   20.2130 C   0  0  0  0  0  3  0  0  0  0  0  0
  -23.3160  -10.5410   20.0190 C   0  0  0  0  0  3  0  0  0  0  0  0
  -22.1500   -7.2940   21.2550 O   0  0  0  0  0  0  0  0  0  0  0  0
  -21.9700   -6.6430   22.4490 C   0  0  0  0  0  0  0  0  0  0  0  0
  -21.4330   -7.2970   23.5800 C   0  0  0  0  0  3  0  0  0  0  0  0
  -21.2010   -6.5730   24.7660 C   0  0  0  0  0  3  0  0  0  0  0  0
  -21.4950   -5.1970   24.8230 C   0  0  0  0  0  0  0  0  0  0  0  0
  -22.0250   -4.5440   23.6960 C   0  0  0  0  0  3  0  0  0  0  0  0
  -22.2580   -5.2650   22.5120 C   0  0  0  0  0  0  0  0  0  0  0  0
  -22.7490   -4.6260   21.4220 F   0  0  0  0  0  0  0  0  0  0  0  0
  -21.2650   -4.5000   25.9600 F   0  0  0  0  0  0  0  0  0  0  0  0
  -23.5480  -13.8880   21.2000 C   0  0  0  0  0  0  0  0  0  0  0  0
  -22.9040  -13.1900   22.1270 N   0  0  0  0  0  0  0  0  0  0  0  0
  -23.0970  -14.9520   20.7760 O   0  0  0  0  0  0  0  0  0  0  0  0
  -23.2850  -12.3270   22.4880 H   0  0  0  0  0  0  0  0  0  0  0  0
  -22.0190  -13.5220   22.4830 H   0  0  0  0  0  0  0  0  0  0  0  0
  -26.1480  -15.4760   20.1660 N   0  0  0  0  0  0  0  0  0  0  0  0
  -25.4380  -16.1560   20.4150 H   0  0  0  0  0  0  0  0  0  0  0  0
  -26.9740  -15.8980   19.7610 H   0  0  0  0  0  0  0  0  0  0  0  0
  -31.2450  -19.8370   17.5360 N   0  0  0  0  0  0  0  0  0  0  0  0
  -30.9190  -20.7790   17.3380 H   0  0  0  0  0  0  0  0  0  0  0  0
  -31.2520  -18.9190   16.4040 C   0  0  0  0  0  2  0  0  0  0  0  0
  -30.9880  -19.6500   14.0070 C   0  0  0  0  0  2  0  0  0  0  0  0
  -31.7180  -19.5850   15.1300 C   0  0  0  0  0  3  0  0  0  0  0  0
  -29.7440  -21.6270   19.0390 O   0  0  0  0  0  0  0  0  0  0  0  0
  -28.9800  -22.7140   19.7110 C   0  0  0  0  0  2  0  0  0  0  0  0
  -28.6610  -23.9160   18.7370 C   0  0  0  0  0  3  0  0  0  0  0  0
  -28.4010  -25.2840   18.7630 C   0  0  0  0  0  3  0  0  0  0  0  0
  -28.3100  -26.2890   19.7530 O   0  0  0  0  0  0  0  0  0  0  0  0
  -24.7450  -31.6940   23.0390 C   0  0  0  0  0  0  0  0  0  0  0  0
  -27.2240  -27.1950   19.7420 C   0  0  0  0  0  0  0  0  0  0  0  0
  -23.4720  -30.3300   21.4260 C   0  0  0  0  0  3  0  0  0  0  0  0
  -24.8590  -28.8220   19.8910 C   0  0  0  0  0  0  0  0  0  0  0  0
  -26.0030  -30.6560   21.1330 C   0  0  0  0  0  2  0  0  0  0  0  0
  -26.0570  -29.2930   20.4430 C   0  0  0  0  0  0  0  0  0  0  0  0
  -27.2410  -28.4900   20.3620 C   0  0  0  0  0  3  0  0  0  0  0  0
  -25.9910  -26.7840   19.1830 C   0  0  0  0  0  3  0  0  0  0  0  0
  -24.8280  -27.5730   19.2540 C   0  0  0  0  0  3  0  0  0  0  0  0
  -23.6240  -29.6920   20.0210 C   0  0  0  0  0  2  0  0  0  0  0  0
  -24.7620  -30.9090   21.9210 N   0  0  0  0  0  0  0  0  0  0  0  0
  -23.6870  -31.9560   23.6290 O   0  0  0  0  0  0  0  0  0  0  0  0
  -22.8560  -29.2880   22.3910 C   0  0  0  0  0  0  0  0  0  0  0  0
  -21.5380  -29.0540   22.2720 N   0  0  0  0  0  0  0  0  0  0  0  0
  -23.5640  -28.6930   23.2080 O   0  0  0  0  0  0  0  0  0  0  0  0
  -21.0240  -29.5880   21.5840 H   0  0  0  0  0  0  0  0  0  0  0  0
  -18.2290  -27.6610   22.7420 C   0  0  0  0  0  0  0  0  0  0  0  0
  -20.7620  -28.0870   23.0500 C   0  0  0  0  0  3  0  0  0  0  0  0
  -20.9620  -26.6520   22.5110 C   0  0  0  0  0  2  0  0  0  0  0  0
  -19.9020  -26.2390   21.4850 C   0  0  0  0  0  2  0  0  0  0  0  0
  -18.5020  -26.3100   22.1000 C   0  0  0  0  0  2  0  0  0  0  0  0
  -19.2910  -28.5020   23.1730 C   0  0  0  0  0  0  0  0  0  0  0  0
  -18.9830  -29.7610   23.7310 C   0  0  0  0  0  3  0  0  0  0  0  0
  -17.6470  -30.1830   23.8640 C   0  0  0  0  0  3  0  0  0  0  0  0
  -16.6000  -29.3420   23.4480 C   0  0  0  0  0  3  0  0  0  0  0  0
  -16.8920  -28.0820   22.8940 C   0  0  0  0  0  3  0  0  0  0  0  0
  -26.0520  -32.3180   23.6150 C   0  0  0  0  0  3  0  0  0  0  0  0
  -25.7290  -33.6770   24.0760 N   0  0  0  0  0  0  0  0  0  0  0  0
  -25.9620  -34.7950   23.3770 C   0  0  0  0  0  0  0  0  0  0  0  0
  -26.5410  -34.7930   22.2870 O   0  0  0  0  0  0  0  0  0  0  0  0
  -25.2020  -33.7480   24.9350 H   0  0  0  0  0  0  0  0  0  0  0  0
  -24.1500  -36.5400   23.3250 C   0  0  0  0  0  1  0  0  0  0  0  0
  -25.4760  -36.1270   23.9810 C   0  0  0  0  0  3  0  0  0  0  0  0
  -27.6470  -37.0410   24.6750 C   0  0  0  0  0  1  0  0  0  0  0  0
  -26.4570  -37.2260   23.8480 N   0  0  0  0  0  0  0  0  0  0  0  0
  -26.0360  -38.1180   24.0930 H   0  0  0  0  0  0  0  0  0  0  0  0
  -26.6810  -31.4690   24.7880 C   0  0  1  0  0  0  0  0  0  0  0  0
  -25.6690  -31.0830   25.8920 C   0  0  0  0  0  1  0  0  0  0  0  0
  -27.3030  -30.1600   24.2450 C   0  0  0  0  0  1  0  0  0  0  0  0
  -27.8340  -32.2620   25.4480 C   0  0  0  0  0  1  0  0  0  0  0  0
  1  2  1  0
  2  7  1  0
  3  1  2  0
  4 10  1  0
  4  2  2  0
  5  6  2  0
  5  3  1  0
  6  4  1  0
  7  8  1  0
  9  7  1  0
 10 13  1  0
 10 11  1  0
 11 12  1  0
 14 19  1  0
 15 16  1  0
 15 14  1  0
 17 16  1  0
 17 24  1  0
 17 18  1  0
 19 13  1  0
 19 18  1  0
 20 13  2  0
 21 22  2  0
 22 41  1  0
 23 22  1  0
 23 26  1  0
 24 25  1  0
 24 21  1  0
 25 23  2  0
 26 27  1  0
 27 28  2  0
 29 32  1  0
 29 28  1  0
 30 29  2  0
 31 30  1  0
 31 26  2  0
 32 33  1  0
 33 38  2  0
 33 34  1  0
 34 35  2  0
 35 36  1  0
 36 40  1  0
 37 36  2  0
 38 37  1  0
 39 38  1  0
 41 42  1  0
 42 45  1  0
 42 44  1  0
 43 41  2  0
 46 21  1  0
 46 47  1  0
 48 46  1  0
 49  5  1  0
 50 49  1  0
 51 49  1  0
 52 53  2  0
 53 51  1  0
 54  3  1  0
 54 55  1  0
 56 57  2  0
 56 55  1  0
 57 58  1  0
 59 70  2  0
 60 58  1  0
 60 65  1  0
 61 69  1  0
 61 71  1  0
 62 68  1  0
 62 64  1  0
 63 69  1  0
 64 63  1  0
 65 64  2  0
 66 67  1  0
 66 60  2  0
 67 62  2  0
 68 61  1  0
 69 59  1  0
 71 73  2  0
 72 71  1  0
 74 72  1  0
 75 84  2  0
 75 80  1  0
 76 72  1  0
 76 80  1  0
 77 76  1  0
 78 79  1  0
 78 77  1  0
 79 75  1  0
 80 81  2  0
 81 82  1  0
 83 82  2  0
 84 83  1  0
 85 59  1  0
 85 86  1  0
 85 95  1  0
 86 89  1  0
 87 91  1  0
 87 86  1  0
 88 87  2  0
 91 90  1  0
 93 91  1  0
 93 94  1  0
 93 92  1  0
 95 98  1  1
 95 96  1  0
 97 95  1  0
M  ISO  4  10 100  13 100  57 101  58 101
M  END
>  <TORSDO>  (10) 
F 24

>  <SCORE>  (10) 
-10.080

>  <name>  (10) 
9

>  <ligand_id>  (10) 
9

>  <original_smiles>  (10) 
[H]N=C(C(=O)N1C([H])([H])C([H])([H])C([H])([H])C([H])(n2nc(-c3c([H])c([H])c(Oc4c([H])c([H])c(F)c([H])c4F)c([H])c3[H])c(C(=O)N([H])[H])c2N([H])[H])C1([H])[H])c1nc(N([H])C([H])([H])C([H])=C([H])[H])c(OC([H])([H])C([H])=C([H])Oc2c([H])c([H])c3c(c2[H])C([H])([H])N(C(=O)C([H])(N([H])C(=O)C([H])(N([H])C([H])([H])[H])C([H])([H])[H])C(C([H])([H])[H])(C([H])([H])[H])C([H])([H])[H])C([H])(C(=O)N([H])C2([H])c4c([H])c([H])c([H])c([H])c4C([H])([H])C([H])([H])C2([H])[H])C3([H])[H])c([H])c1N([H])[H]

>  <smiles>  (10) 
[H]N=C(C(=O)N1C([H])([H])C([H])([H])C([H])([H])C([H])(n2nc(-c3c([H])c([H])c(Oc4c([H])c([H])c(F)c([H])c4F)c([H])c3[H])c(C(=O)N([H])[H])c2N([H])[H])C1([H])[H])c1nc(N([H])C([H])([H])C([H])=C([H])[H])c(OC([H])([H])C([H])=C([H])Oc2c([H])c([H])c3c(c2[H])C([H])([H])N(C(=O)C([H])(N([H])C(=O)C([H])(N([H])C([H])([H])[H])C([H])([H])[H])C(C([H])([H])[H])(C([H])([H])[H])C([H])([H])[H])C([H])(C(=O)N([H])C2([H])c4c([H])c([H])c([H])c([H])c4C([H])([H])C([H])([H])C2([H])[H])C3([H])[H])c([H])c1N([H])[H]

$$$$
10:0:0
     RDKit          3D

 95104  0  0  1  0  0  0  0  0999 V2000
  -27.9540  -17.5870   20.5920 C   0  0  0  0  0  3  0  0  0  0  0  0
  -30.7020  -17.4910   20.1890 C   0  0  0  0  0  3  0  0  0  0  0  0
  -28.6310  -16.3680   20.8330 C   0  0  0  0  0  0  0  0  0  0  0  0
  -30.0310  -16.2750   20.5460 C   0  0  0  0  0  0  0  0  0  0  0  0
  -28.6220  -18.7710   20.2010 C   0  0  0  0  0  0  0  0  0  0  0  0
  -30.0320  -18.7540   20.0780 C   0  0  0  0  0  0  0  0  0  0  0  0
  -30.7950  -14.9760   20.7970 C   0  0  0  0  0  0  0  0  0  0  0  0
  -31.2530  -14.7290   21.9550 N   0  0  0  0  0  0  0  0  0  0  0  0
  -31.0190  -15.4730   22.6030 H   0  0  0  0  0  0  0  0  0  0  0  0
  -31.0720  -13.9720   19.6490 C   0  0  0  0  0  0  0  0  0  0  0  0
  -30.6270  -11.7870   18.5480 C   0  0  0  0  0  2  0  0  0  0  0  0
  -29.5990  -11.9360   17.4080 C   0  0  0  0  0  2  0  0  0  0  0  0
  -28.1610  -11.8300   17.9480 C   0  0  0  0  0  2  0  0  0  0  0  0
  -27.9340  -12.7210   19.1980 C   0  0  0  0  0  3  0  0  0  0  0  0
  -29.0610  -12.5140   20.2330 C   0  0  0  0  0  2  0  0  0  0  0  0
  -30.3420  -12.8110   19.5740 N   0  0  0  0  0  0  0  0  0  0  0  0
  -32.0500  -14.1720   18.9180 O   0  0  0  0  0  0  0  0  0  0  0  0
  -25.6010  -13.4100   20.0300 C   0  0  0  0  0  0  0  0  0  0  0  0
  -24.5490  -12.6810   20.5180 C   0  0  0  0  0  0  0  0  0  0  0  0
  -24.9750  -11.3180   20.5070 C   0  0  0  0  0  0  0  0  0  0  0  0
  -26.6110  -12.4960   19.7770 N   0  0  0  0  0  0  0  0  0  0  0  0
  -26.2390  -11.2330   20.1110 N   0  0  0  0  0  0  0  0  0  0  0  0
  -24.2330  -10.0830   20.7930 C   0  0  0  0  0  0  0  0  0  0  0  0
  -24.6500   -9.1870   21.8010 C   0  0  0  0  0  3  0  0  0  0  0  0
  -23.9090   -8.0150   22.0700 C   0  0  0  0  0  3  0  0  0  0  0  0
  -22.7360   -7.7330   21.3310 C   0  0  0  0  0  0  0  0  0  0  0  0
  -22.3380   -8.6170   20.3120 C   0  0  0  0  0  3  0  0  0  0  0  0
  -23.0800   -9.7790   20.0420 C   0  0  0  0  0  3  0  0  0  0  0  0
  -21.9680   -6.6080   21.5050 O   0  0  0  0  0  0  0  0  0  0  0  0
  -21.8420   -6.0040   22.7310 C   0  0  0  0  0  0  0  0  0  0  0  0
  -21.3360   -6.6970   23.8530 C   0  0  0  0  0  3  0  0  0  0  0  0
  -21.1590   -6.0200   25.0770 C   0  0  0  0  0  3  0  0  0  0  0  0
  -21.4760   -4.6530   25.1780 C   0  0  0  0  0  0  0  0  0  0  0  0
  -21.9750   -3.9600   24.0600 C   0  0  0  0  0  3  0  0  0  0  0  0
  -22.1540   -4.6340   22.8390 C   0  0  0  0  0  0  0  0  0  0  0  0
  -22.6150   -3.9570   21.7600 F   0  0  0  0  0  0  0  0  0  0  0  0
  -21.2990   -3.9990   26.3500 F   0  0  0  0  0  0  0  0  0  0  0  0
  -23.1890  -13.2060   20.8770 C   0  0  0  0  0  0  0  0  0  0  0  0
  -22.5180  -12.5700   21.8320 N   0  0  0  0  0  0  0  0  0  0  0  0
  -22.7320  -14.2160   20.3440 O   0  0  0  0  0  0  0  0  0  0  0  0
  -22.9020  -11.7560   22.2880 H   0  0  0  0  0  0  0  0  0  0  0  0
  -21.6070  -12.9050   22.1110 H   0  0  0  0  0  0  0  0  0  0  0  0
  -25.7670  -14.7620   19.7550 N   0  0  0  0  0  4  0  0  0  0  0  0
  -25.0180  -15.4320   19.8790 H   0  0  0  0  0  0  0  0  0  0  0  0
  -26.6010  -15.1690   19.3520 H   0  0  0  0  0  0  0  0  0  0  0  0
  -26.5440  -19.9400   19.8170 C   0  0  0  0  0  1  0  0  0  0  0  0
  -27.9620  -19.9500   19.9200 O   0  0  0  0  0  0  0  0  0  0  0  0
  -26.5320  -14.9910   21.2350 C   0  0  0  0  0  2  0  0  0  0  0  0
  -27.8460  -15.2350   21.3910 C   0  0  0  0  0  2  0  0  0  0  0  0
  -30.7420  -19.9290   19.7990 O   0  0  0  0  0  0  0  0  0  0  0  0
  -30.4410  -21.1590   20.5330 C   0  0  0  0  0  3  0  0  0  0  0  0
  -30.1550  -22.4370   19.6580 C   0  0  0  0  0  3  0  0  0  0  0  0
  -29.7710  -23.7600   20.4320 C   0  0  0  0  0  3  0  0  0  0  0  0
  -29.6320  -25.0700   19.5700 C   0  0  0  0  0  3  0  0  0  0  0  0
  -29.3180  -26.3030   20.2970 O   0  0  0  0  0  0  0  0  0  0  0  0
  -24.9400  -31.2620   23.0810 C   0  0  0  0  0  0  0  0  0  0  0  0
  -28.1030  -26.9820   20.1700 C   0  0  0  0  0  0  0  0  0  0  0  0
  -23.9740  -29.8380   21.3100 C   0  0  0  0  0  3  0  0  0  0  0  0
  -25.6350  -28.4100   19.9970 C   0  0  0  0  0  0  0  0  0  0  0  0
  -26.4910  -30.3170   21.3630 C   0  0  0  0  0  2  0  0  0  0  0  0
  -26.7100  -28.9650   20.7000 C   0  0  0  0  0  0  0  0  0  0  0  0
  -27.9420  -28.2600   20.7810 C   0  0  0  0  0  3  0  0  0  0  0  0
  -26.9910  -26.4550   19.4710 C   0  0  0  0  0  3  0  0  0  0  0  0
  -25.7750  -27.1570   19.3820 C   0  0  0  0  0  3  0  0  0  0  0  0
  -24.3490  -29.2050   19.9450 C   0  0  0  0  0  2  0  0  0  0  0  0
  -25.1470  -30.4890   21.9770 N   0  0  0  0  0  0  0  0  0  0  0  0
  -23.7990  -31.4640   23.5200 O   0  0  0  0  0  0  0  0  0  0  0  0
  -23.2910  -28.7600   22.1850 C   0  0  0  0  0  0  0  0  0  0  0  0
  -21.9860  -28.5370   21.9560 N   0  0  0  0  0  0  0  0  0  0  0  0
  -23.9360  -28.1300   23.0270 O   0  0  0  0  0  0  0  0  0  0  0  0
  -21.5240  -29.1020   21.2570 H   0  0  0  0  0  0  0  0  0  0  0  0
  -18.6210  -27.2440   22.2130 C   0  0  0  0  0  0  0  0  0  0  0  0
  -21.1540  -27.5410   22.6320 C   0  0  0  0  0  3  0  0  0  0  0  0
  -21.3200  -26.1460   21.9860 C   0  0  0  0  0  2  0  0  0  0  0  0
  -20.2790  -25.8550   20.9000 C   0  0  0  0  0  2  0  0  0  0  0  0
  -18.8620  -25.9370   21.4750 C   0  0  0  0  0  2  0  0  0  0  0  0
  -19.6960  -28.0040   22.7410 C   0  0  0  0  0  0  0  0  0  0  0  0
  -19.4190  -29.2300   23.3850 C   0  0  0  0  0  3  0  0  0  0  0  0
  -18.0960  -29.6940   23.5090 C   0  0  0  0  0  3  0  0  0  0  0  0
  -17.0320  -28.9290   22.9990 C   0  0  0  0  0  3  0  0  0  0  0  0
  -17.2950  -27.7060   22.3560 C   0  0  0  0  0  3  0  0  0  0  0  0
  -26.1230  -31.9480   23.8320 C   0  0  0  0  0  3  0  0  0  0  0  0
  -25.7210  -33.3310   24.1220 N   0  0  0  0  0  0  0  0  0  0  0  0
  -26.0860  -34.3970   23.3970 C   0  0  0  0  0  0  0  0  0  0  0  0
  -26.8630  -34.3240   22.4430 O   0  0  0  0  0  0  0  0  0  0  0  0
  -25.0400  -33.4590   24.8570 H   0  0  0  0  0  0  0  0  0  0  0  0
  -24.3300  -36.1160   22.8550 C   0  0  0  0  0  1  0  0  0  0  0  0
  -25.4940  -35.7640   23.7960 C   0  0  0  0  0  3  0  0  0  0  0  0
  -27.4860  -36.7420   24.8460 C   0  0  0  0  0  1  0  0  0  0  0  0
  -26.4870  -36.8610   23.7870 N   0  0  0  0  0  0  0  0  0  0  0  0
  -26.0290  -37.7640   23.8840 H   0  0  0  0  0  0  0  0  0  0  0  0
  -26.5340  -31.2000   25.1600 C   0  0  1  0  0  0  0  0  0  0  0  0
  -25.3470  -30.9150   26.1090 C   0  0  0  0  0  1  0  0  0  0  0  0
  -27.2140  -29.8490   24.8370 C   0  0  0  0  0  1  0  0  0  0  0  0
  -27.5730  -32.0440   25.9350 C   0  0  0  0  0  1  0  0  0  0  0  0
  1  3  1  0
  2  4  1  0
  3 49  1  0
  4  7  1  0
  4  3  2  0
  5  1  2  0
  6  2  2  0
  6  5  1  0
  7  8  2  0
  8  9  1  0
 10  7  1  0
 11 16  1  0
 12 13  1  0
 12 11  1  0
 14 13  1  0
 14 21  1  0
 14 15  1  0
 16 10  1  0
 16 15  1  0
 17 10  2  0
 18 19  2  0
 19 38  1  0
 20 19  1  0
 20 23  1  0
 21 18  1  0
 21 22  1  0
 22 20  2  0
 23 24  1  0
 24 25  2  0
 26 29  1  0
 26 25  1  0
 27 26  2  0
 28 27  1  0
 28 23  2  0
 29 30  1  0
 30 35  2  0
 30 31  1  0
 31 32  2  0
 32 33  1  0
 33 37  1  0
 34 33  2  0
 35 34  1  0
 36 35  1  0
 38 39  1  0
 39 42  1  0
 39 41  1  0
 40 38  2  0
 43 44  1  0
 43 18  1  0
 43 48  1  0
 45 43  1  0
 46 47  1  0
 47  5  1  0
 48 49  1  0
 50  6  1  0
 50 51  1  0
 52 53  1  0
 52 51  2  0
 54 55  1  0
 54 53  2  0
 56 67  2  0
 57 55  1  0
 57 62  1  0
 58 66  1  0
 58 68  1  0
 59 61  1  0
 60 66  1  0
 61 62  2  0
 61 60  1  0
 63 57  2  0
 64 63  1  0
 64 59  2  0
 65 59  1  0
 65 58  1  0
 66 56  1  0
 68 70  2  0
 69 68  1  0
 71 69  1  0
 72 81  2  0
 72 77  1  0
 73 69  1  0
 73 77  1  0
 74 73  1  0
 75 76  1  0
 75 74  1  0
 76 72  1  0
 77 78  2  0
 78 79  1  0
 80 79  2  0
 81 80  1  0
 82 56  1  0
 82 83  1  0
 82 92  1  0
 83 86  1  0
 84 88  1  0
 84 83  1  0
 85 84  2  0
 88 87  1  0
 90 88  1  0
 90 91  1  0
 90 89  1  0
 92 95  1  1
 92 93  1  0
 94 92  1  0
M  ISO  4   7 100  10 100  54 101  55 101
M  END
>  <TORSDO>  (11) 
F 24

>  <SCORE>  (11) 
-8.080

>  <name>  (11) 
10

>  <ligand_id>  (11) 
10

>  <original_smiles>  (11) 
[H]N=C(C(=O)N1C([H])([H])C([H])([H])C([H])([H])C([H])(n2nc(-c3c([H])c([H])c(Oc4c([H])c([H])c(F)c([H])c4F)c([H])c3[H])c(C(=O)N([H])[H])c2N([H])[H])C1([H])[H])c1c([H])c(OC([H])([H])C([H])([H])C([H])([H])C([H])([H])Oc2c([H])c([H])c3c(c2[H])C([H])([H])N(C(=O)C([H])(N([H])C(=O)C([H])(N([H])C([H])([H])[H])C([H])([H])[H])C(C([H])([H])[H])(C([H])([H])[H])C([H])([H])[H])C([H])(C(=O)N([H])C2([H])c4c([H])c([H])c([H])c([H])c4C([H])([H])C([H])([H])C2([H])[H])C3([H])[H])c(OC([H])([H])[H])c([H])c1C([H])=C([H])[H]

>  <smiles>  (11) 
[H]N=C(C(=O)N1C([H])([H])C([H])([H])C([H])([H])C([H])(n2nc(-c3c([H])c([H])c(Oc4c([H])c([H])c(F)c([H])c4F)c([H])c3[H])c(C(=O)N([H])[H])c2N([H])[H])C1([H])[H])c1c([H])c(OC([H])([H])C([H])([H])C([H])([H])C([H])([H])Oc2c([H])c([H])c3c(c2[H])C([H])([H])N(C(=O)C([H])(N([H])C(=O)C([H])(N([H])C([H])([H])[H])C([H])([H])[H])C(C([H])([H])[H])(C([H])([H])[H])C([H])([H])[H])C([H])(C(=O)N([H])C2([H])c4c([H])c([H])c([H])c([H])c4C([H])([H])C([H])([H])C2([H])[H])C3([H])[H])c(OC([H])([H])[H])c([H])c1C([H])=C([H])[H]

$$$$
11:0:0
     RDKit          3D

 94102  0  0  1  0  0  0  0  0999 V2000
  -30.4450  -17.6980   21.7990 C   0  0  0  0  0  3  0  0  0  0  0  0
  -30.0930  -20.1250   21.5690 C   0  0  0  0  0  3  0  0  0  0  0  0
  -29.6130  -18.6280   19.7160 C   0  0  0  0  0  3  0  0  0  0  0  0
  -30.4670  -19.0040   22.3520 C   0  0  0  0  0  0  0  0  0  0  0  0
  -30.0280  -17.4500   20.4820 C   0  0  0  0  0  0  0  0  0  0  0  0
  -29.6430  -19.9990   20.2320 C   0  0  0  0  0  0  0  0  0  0  0  0
  -30.7180  -14.9120   20.1510 C   0  0  0  0  0  0  0  0  0  0  0  0
  -30.5870  -12.5510   19.3120 C   0  0  0  0  0  2  0  0  0  0  0  0
  -29.6190  -12.4610   18.1120 C   0  0  0  0  0  2  0  0  0  0  0  0
  -28.1590  -12.3080   18.5820 C   0  0  0  0  0  2  0  0  0  0  0  0
  -27.7800  -13.3090   19.7010 C   0  0  0  0  0  3  0  0  0  0  0  0
  -28.8490  -13.3410   20.8120 C   0  0  0  0  0  2  0  0  0  0  0  0
  -30.1270  -13.6690   20.1680 N   0  0  0  0  0  0  0  0  0  0  0  0
  -31.9200  -15.0110   19.8810 O   0  0  0  0  0  0  0  0  0  0  0  0
  -29.8640  -16.0150   20.1050 N   0  0  0  0  0  0  0  0  0  0  0  0
  -28.9020  -15.7320   20.0170 H   0  0  0  0  0  0  0  0  0  0  0  0
  -25.4280  -13.9750   20.4890 C   0  0  0  0  0  0  0  0  0  0  0  0
  -24.3520  -13.2360   20.8850 C   0  0  0  0  0  0  0  0  0  0  0  0
  -24.7720  -11.8690   20.8440 C   0  0  0  0  0  0  0  0  0  0  0  0
  -26.4410  -13.0630   20.2270 N   0  0  0  0  0  0  0  0  0  0  0  0
  -26.0540  -11.7930   20.5050 N   0  0  0  0  0  0  0  0  0  0  0  0
  -24.0130  -10.6280   21.0480 C   0  0  0  0  0  0  0  0  0  0  0  0
  -24.4430   -9.6430   21.9650 C   0  0  0  0  0  3  0  0  0  0  0  0
  -23.6850   -8.4670   22.1600 C   0  0  0  0  0  3  0  0  0  0  0  0
  -22.4850   -8.2680   21.4360 C   0  0  0  0  0  0  0  0  0  0  0  0
  -22.0740   -9.2410   20.5070 C   0  0  0  0  0  3  0  0  0  0  0  0
  -22.8320  -10.4070   20.3110 C   0  0  0  0  0  3  0  0  0  0  0  0
  -21.7000   -7.1460   21.5380 O   0  0  0  0  0  0  0  0  0  0  0  0
  -21.6730   -6.3890   22.6820 C   0  0  0  0  0  0  0  0  0  0  0  0
  -21.2800   -6.9320   23.9250 C   0  0  0  0  0  3  0  0  0  0  0  0
  -21.1990   -6.1050   25.0620 C   0  0  0  0  0  3  0  0  0  0  0  0
  -21.5010   -4.7330   24.9580 C   0  0  0  0  0  0  0  0  0  0  0  0
  -21.8880   -4.1890   23.7210 C   0  0  0  0  0  3  0  0  0  0  0  0
  -21.9700   -5.0150   22.5850 C   0  0  0  0  0  0  0  0  0  0  0  0
  -22.3210   -4.4810   21.3910 F   0  0  0  0  0  0  0  0  0  0  0  0
  -21.4160   -3.9350   26.0490 F   0  0  0  0  0  0  0  0  0  0  0  0
  -22.9740  -13.7500   21.1900 C   0  0  0  0  0  0  0  0  0  0  0  0
  -22.2500  -13.0790   22.0760 N   0  0  0  0  0  0  0  0  0  0  0  0
  -22.5520  -14.7850   20.6740 O   0  0  0  0  0  0  0  0  0  0  0  0
  -22.6030  -12.2390   22.5100 H   0  0  0  0  0  0  0  0  0  0  0  0
  -21.3300  -13.4110   22.3310 H   0  0  0  0  0  0  0  0  0  0  0  0
  -25.6280  -15.3430   20.3060 N   0  0  0  0  0  0  0  0  0  0  0  0
  -24.8750  -16.0140   20.4260 H   0  0  0  0  0  0  0  0  0  0  0  0
  -26.4730  -15.7620   19.9430 H   0  0  0  0  0  0  0  0  0  0  0  0
  -30.7810  -19.1520   23.8160 C   0  0  0  0  0  0  0  0  0  0  0  0
  -31.2780  -20.3120   24.2350 N   0  0  0  0  0  0  0  0  0  0  0  0
  -30.6130  -18.2210   24.5990 O   0  0  0  0  0  0  0  0  0  0  0  0
  -31.3910  -21.1020   23.6190 H   0  0  0  0  0  0  0  0  0  0  0  0
  -31.5070  -20.4150   25.2140 H   0  0  0  0  0  0  0  0  0  0  0  0
  -29.1560  -21.1380   19.5070 O   0  0  0  0  0  0  0  0  0  0  0  0
  -29.4730  -22.5790   19.8160 C   0  0  0  0  0  3  0  0  0  0  0  0
  -28.4420  -23.7750   19.4590 C   0  0  0  0  0  3  0  0  0  0  0  0
  -28.7340  -25.2580   20.0180 C   0  0  0  0  0  2  0  0  0  0  0  0
  -28.4110  -26.5400   19.3020 O   0  0  0  0  0  0  0  0  0  0  0  0
  -24.6780  -31.5620   23.0240 C   0  0  0  0  0  0  0  0  0  0  0  0
  -27.2570  -27.3360   19.4900 C   0  0  0  0  0  0  0  0  0  0  0  0
  -23.4480  -30.3330   21.2690 C   0  0  0  0  0  3  0  0  0  0  0  0
  -24.8760  -28.9490   19.6600 C   0  0  0  0  0  0  0  0  0  0  0  0
  -25.9810  -30.6940   21.0650 C   0  0  0  0  0  2  0  0  0  0  0  0
  -26.0560  -29.3860   20.2780 C   0  0  0  0  0  0  0  0  0  0  0  0
  -27.2520  -28.6010   20.1690 C   0  0  0  0  0  3  0  0  0  0  0  0
  -26.0560  -26.9690   18.8460 C   0  0  0  0  0  3  0  0  0  0  0  0
  -24.8820  -27.7530   18.9230 C   0  0  0  0  0  3  0  0  0  0  0  0
  -23.6310  -29.8040   19.8190 C   0  0  0  0  0  2  0  0  0  0  0  0
  -24.7200  -30.8800   21.8410 N   0  0  0  0  0  0  0  0  0  0  0  0
  -23.6070  -31.7670   23.6150 O   0  0  0  0  0  0  0  0  0  0  0  0
  -22.8220  -29.2130   22.1350 C   0  0  0  0  0  0  0  0  0  0  0  0
  -21.4920  -29.0530   22.0450 N   0  0  0  0  0  0  0  0  0  0  0  0
  -23.5320  -28.4970   22.8480 O   0  0  0  0  0  0  0  0  0  0  0  0
  -20.9840  -29.6850   21.4400 H   0  0  0  0  0  0  0  0  0  0  0  0
  -18.1260  -27.8330   22.5720 C   0  0  0  0  0  0  0  0  0  0  0  0
  -20.7000  -28.0340   22.7330 C   0  0  0  0  0  3  0  0  0  0  0  0
  -20.7490  -26.6830   21.9800 C   0  0  0  0  0  2  0  0  0  0  0  0
  -19.5910  -26.5000   20.9930 C   0  0  0  0  0  2  0  0  0  0  0  0
  -18.2460  -26.5780   21.7230 C   0  0  0  0  0  2  0  0  0  0  0  0
  -19.2800  -28.5250   23.0320 C   0  0  0  0  0  0  0  0  0  0  0  0
  -19.1130  -29.7040   23.7890 C   0  0  0  0  0  3  0  0  0  0  0  0
  -17.8290  -30.1940   24.0890 C   0  0  0  0  0  3  0  0  0  0  0  0
  -16.6890  -29.4980   23.6420 C   0  0  0  0  0  3  0  0  0  0  0  0
  -16.8420  -28.3190   22.8890 C   0  0  0  0  0  3  0  0  0  0  0  0
  -25.9740  -32.1350   23.6770 C   0  0  0  0  0  3  0  0  0  0  0  0
  -25.6570  -33.4830   24.1730 N   0  0  0  0  0  0  0  0  0  0  0  0
  -25.9720  -34.6210   23.5440 C   0  0  0  0  0  0  0  0  0  0  0  0
  -26.6370  -34.6500   22.5040 O   0  0  0  0  0  0  0  0  0  0  0  0
  -25.0640  -33.5320   24.9870 H   0  0  0  0  0  0  0  0  0  0  0  0
  -24.2300  -36.4330   23.4140 C   0  0  0  0  0  1  0  0  0  0  0  0
  -25.4750  -35.9420   24.1690 C   0  0  0  0  0  3  0  0  0  0  0  0
  -27.5990  -36.7430   25.1030 C   0  0  0  0  0  1  0  0  0  0  0  0
  -26.4990  -37.0080   24.1810 N   0  0  0  0  0  0  0  0  0  0  0  0
  -26.0840  -37.9030   24.4280 H   0  0  0  0  0  0  0  0  0  0  0  0
  -26.5330  -31.2370   24.8490 C   0  0  1  0  0  0  0  0  0  0  0  0
  -25.4740  -30.8780   25.9180 C   0  0  0  0  0  1  0  0  0  0  0  0
  -27.1120  -29.9120   24.2970 C   0  0  0  0  0  1  0  0  0  0  0  0
  -27.6990  -31.9670   25.5590 C   0  0  0  0  0  1  0  0  0  0  0  0
  1  4  1  0
  2  4  2  0
  3  6  2  0
  3  5  1  0
  4 45  1  0
  5  1  2  0
  6  2  1  0
  7 13  1  0
  8 13  1  0
  9 10  1  0
  9  8  1  0
 11 10  1  0
 11 20  1  0
 11 12  1  0
 13 12  1  0
 14  7  2  0
 15  7  1  0
 15  5  1  0
 16 15  1  0
 17 18  2  0
 18 37  1  0
 19 18  1  0
 19 22  1  0
 20 17  1  0
 20 21  1  0
 21 19  2  0
 22 23  1  0
 23 24  2  0
 25 28  1  0
 25 24  1  0
 26 25  2  0
 27 26  1  0
 27 22  2  0
 28 29  1  0
 29 30  1  0
 30 31  2  0
 32 31  1  0
 32 36  1  0
 33 32  2  0
 34 29  2  0
 34 33  1  0
 35 34  1  0
 37 38  1  0
 38 41  1  0
 38 40  1  0
 39 37  2  0
 42 43  1  0
 42 17  1  0
 44 42  1  0
 45 46  1  0
 45 47  2  0
 46 49  1  0
 48 46  1  0
 50 51  1  0
 50  6  1  0
 52 51  2  0
 52 53  1  0
 54 56  1  0
 54 53  1  0
 55 66  2  0
 56 61  1  0
 57 65  1  0
 57 67  1  0
 58 64  1  0
 58 60  1  0
 59 65  1  0
 60 59  1  0
 61 60  2  0
 62 63  1  0
 62 56  2  0
 63 58  2  0
 64 57  1  0
 65 55  1  0
 67 69  2  0
 68 67  1  0
 70 68  1  0
 71 80  2  0
 71 76  1  0
 72 68  1  0
 72 76  1  0
 73 72  1  0
 74 75  1  0
 74 73  1  0
 75 71  1  0
 76 77  2  0
 77 78  1  0
 79 78  2  0
 80 79  1  0
 81 55  1  0
 81 82  1  0
 81 91  1  0
 82 85  1  0
 83 87  1  0
 83 82  1  0
 84 83  2  0
 87 86  1  0
 87 89  1  0
 89 90  1  0
 89 88  1  0
 91 94  1  1
 91 92  1  0
 93 91  1  0
M  ISO  4   7 100  15 100  53 101  54 101
M  END
>  <TORSDO>  (12) 
F 21

>  <SCORE>  (12) 
-11.686

>  <name>  (12) 
11

>  <ligand_id>  (12) 
11

>  <original_smiles>  (12) 
[H]c1c([H])c([H])c2c(c1[H])C([H])([H])C([H])([H])C([H])([H])C2([H])N([H])C(=O)C1([H])N(C(=O)C([H])(N([H])C(=O)C([H])(N([H])C([H])([H])[H])C([H])([H])[H])C(C([H])([H])[H])(C([H])([H])[H])C([H])([H])[H])C([H])([H])c2c([H])c(OC([H])([H])C([H])([H])C([H])([H])Oc3c([H])c(C(=O)N([H])[H])c([H])c(N([H])C(=O)N4C([H])([H])C([H])([H])C([H])([H])C([H])(n5nc(-c6c([H])c([H])c(Oc7c([H])c([H])c(F)c([H])c7F)c([H])c6[H])c(C(=O)N([H])[H])c5N([H])[H])C4([H])[H])c3[H])c([H])c([H])c2C1([H])[H]

>  <smiles>  (12) 
[H]c1c([H])c([H])c2c(c1[H])C([H])([H])C([H])([H])C([H])([H])C2([H])N([H])C(=O)C1([H])N(C(=O)C([H])(N([H])C(=O)C([H])(N([H])C([H])([H])[H])C([H])([H])[H])C(C([H])([H])[H])(C([H])([H])[H])C([H])([H])[H])C([H])([H])c2c([H])c(OC([H])([H])C([H])([H])C([H])([H])Oc3c([H])c(C(=O)N([H])[H])c([H])c(N([H])C(=O)N4C([H])([H])C([H])([H])C([H])([H])C([H])(n5nc(-c6c([H])c([H])c(Oc7c([H])c([H])c(F)c([H])c7F)c([H])c6[H])c(C(=O)N([H])[H])c5N([H])[H])C4([H])[H])c3[H])c([H])c([H])c2C1([H])[H]

$$$$
12:0:0
     RDKit          3D

 93101  0  0  1  0  0  0  0  0999 V2000
  -27.5320  -18.5720   19.4900 C   0  0  0  0  0  3  0  0  0  0  0  0
  -27.9030  -19.0520   20.7530 C   0  0  0  0  0  3  0  0  0  0  0  0
  -29.7780  -17.6910   19.1640 C   0  0  0  0  0  3  0  0  0  0  0  0
  -28.5100  -18.0280   18.6280 C   0  0  0  0  0  0  0  0  0  0  0  0
  -29.2820  -19.1350   21.0240 C   0  0  0  0  0  3  0  0  0  0  0  0
  -30.0840  -17.9190   20.5360 C   0  0  0  0  0  3  0  0  0  0  0  0
  -31.0340  -15.2980   20.8250 C   0  0  0  0  0  0  0  0  0  0  0  0
  -31.0510  -12.9640   19.7930 C   0  0  0  0  0  2  0  0  0  0  0  0
  -30.2340  -12.9450   18.4760 C   0  0  0  0  0  2  0  0  0  0  0  0
  -28.7260  -12.7770   18.7550 C   0  0  0  0  0  2  0  0  0  0  0  0
  -28.2310  -13.6240   19.9580 C   0  0  0  0  0  3  0  0  0  0  0  0
  -29.1790  -13.5440   21.1740 C   0  0  0  0  0  2  0  0  0  0  0  0
  -30.4880  -14.0110   20.7090 N   0  0  0  0  0  0  0  0  0  0  0  0
  -32.2460  -15.3800   20.5900 O   0  0  0  0  0  0  0  0  0  0  0  0
  -30.2270  -16.4670   21.1180 N   0  0  0  0  0  0  0  0  0  0  0  0
  -29.3600  -16.1600   21.5330 H   0  0  0  0  0  0  0  0  0  0  0  0
  -25.7700  -14.1700   20.3590 C   0  0  0  0  0  0  0  0  0  0  0  0
  -24.6830  -13.3860   20.6410 C   0  0  0  0  0  0  0  0  0  0  0  0
  -25.1770  -12.0530   20.7630 C   0  0  0  0  0  0  0  0  0  0  0  0
  -26.8530  -13.3110   20.3140 N   0  0  0  0  0  0  0  0  0  0  0  0
  -26.4970  -12.0350   20.6230 N   0  0  0  0  0  0  0  0  0  0  0  0
  -24.4610  -10.7830   20.9460 C   0  0  0  0  0  0  0  0  0  0  0  0
  -24.7180   -9.9410   22.0500 C   0  0  0  0  0  3  0  0  0  0  0  0
  -23.9990   -8.7380   22.2190 C   0  0  0  0  0  3  0  0  0  0  0  0
  -23.0100   -8.3640   21.2760 C   0  0  0  0  0  0  0  0  0  0  0  0
  -22.7710   -9.1940   20.1660 C   0  0  0  0  0  3  0  0  0  0  0  0
  -23.4940  -10.3890   19.9990 C   0  0  0  0  0  3  0  0  0  0  0  0
  -22.2810   -7.2000   21.3420 O   0  0  0  0  0  0  0  0  0  0  0  0
  -21.9250   -6.6420   22.5450 C   0  0  0  0  0  0  0  0  0  0  0  0
  -21.1590   -7.3490   23.4980 C   0  0  0  0  0  3  0  0  0  0  0  0
  -20.7590   -6.7130   24.6900 C   0  0  0  0  0  3  0  0  0  0  0  0
  -21.1120   -5.3710   24.9260 C   0  0  0  0  0  0  0  0  0  0  0  0
  -21.8700   -4.6640   23.9770 C   0  0  0  0  0  3  0  0  0  0  0  0
  -22.2730   -5.2980   22.7880 C   0  0  0  0  0  0  0  0  0  0  0  0
  -22.9830   -4.6050   21.8670 F   0  0  0  0  0  0  0  0  0  0  0  0
  -20.7200   -4.7600   26.0690 F   0  0  0  0  0  0  0  0  0  0  0  0
  -23.2550  -13.8390   20.7040 C   0  0  0  0  0  0  0  0  0  0  0  0
  -22.4580  -13.2240   21.5730 N   0  0  0  0  0  0  0  0  0  0  0  0
  -22.8500  -14.7710   20.0150 O   0  0  0  0  0  0  0  0  0  0  0  0
  -22.8000  -12.4690   22.1480 H   0  0  0  0  0  0  0  0  0  0  0  0
  -21.4940  -13.5110   21.6670 H   0  0  0  0  0  0  0  0  0  0  0  0
  -25.9260  -15.5290   20.1170 N   0  0  0  0  0  0  0  0  0  0  0  0
  -25.1480  -16.1780   20.1160 H   0  0  0  0  0  0  0  0  0  0  0  0
  -26.7990  -15.9680   19.8560 H   0  0  0  0  0  0  0  0  0  0  0  0
  -28.2300  -17.8630   17.1880 C   0  0  0  0  0  3  0  0  0  0  0  0
  -27.7230  -18.8200   16.3840 C   0  0  0  0  0  3  0  0  0  0  0  0
  -27.5240  -18.6590   14.8910 C   0  0  0  0  0  1  0  0  0  0  0  0
  -29.6360  -20.7490   21.2280 C   0  0  0  0  0  0  0  0  0  0  0  0
  -30.7300  -21.0090   21.7370 O   0  0  0  0  0  0  0  0  0  0  0  0
  -28.7090  -23.4290   20.9080 C   0  0  0  0  0  0  0  0  0  0  0  0
  -28.7080  -22.0270   20.7770 C   0  0  0  0  0  3  0  0  0  0  0  0
  -28.2630  -24.7470   21.0970 C   0  0  0  0  0  3  0  0  0  0  0  0
  -28.4880  -26.1720   20.6790 O   0  0  0  0  0  0  0  0  0  0  0  0
  -24.8880  -32.1230   23.5140 C   0  0  0  0  0  0  0  0  0  0  0  0
  -27.4560  -27.2120   20.6690 C   0  0  0  0  0  0  0  0  0  0  0  0
  -23.6960  -30.6750   21.9200 C   0  0  0  0  0  3  0  0  0  0  0  0
  -25.1410  -29.0190   20.5680 C   0  0  0  0  0  0  0  0  0  0  0  0
  -26.2600  -30.8940   21.7650 C   0  0  0  0  0  2  0  0  0  0  0  0
  -26.3310  -29.4700   21.1620 C   0  0  0  0  0  0  0  0  0  0  0  0
  -27.4870  -28.5820   21.1920 C   0  0  0  0  0  3  0  0  0  0  0  0
  -26.2440  -26.8900   20.0260 C   0  0  0  0  0  3  0  0  0  0  0  0
  -25.1120  -27.7400   19.9910 C   0  0  0  0  0  3  0  0  0  0  0  0
  -23.9260  -29.9400   20.5740 C   0  0  0  0  0  2  0  0  0  0  0  0
  -24.9700  -31.2570   22.4520 N   0  0  0  0  0  0  0  0  0  0  0  0
  -23.7980  -32.4380   24.0190 O   0  0  0  0  0  0  0  0  0  0  0  0
  -22.9970  -29.7110   22.9140 C   0  0  0  0  0  0  0  0  0  0  0  0
  -21.7050  -29.4150   22.6820 N   0  0  0  0  0  0  0  0  0  0  0  0
  -23.6240  -29.2300   23.8590 O   0  0  0  0  0  0  0  0  0  0  0  0
  -21.2380  -29.8940   21.9270 H   0  0  0  0  0  0  0  0  0  0  0  0
  -18.4210  -27.9080   22.9510 C   0  0  0  0  0  0  0  0  0  0  0  0
  -20.8930  -28.4660   23.4500 C   0  0  0  0  0  3  0  0  0  0  0  0
  -21.2000  -26.9990   23.0510 C   0  0  0  0  0  2  0  0  0  0  0  0
  -20.2600  -26.4600   21.9670 C   0  0  0  0  0  2  0  0  0  0  0  0
  -18.7990  -26.5310   22.4290 C   0  0  0  0  0  2  0  0  0  0  0  0
  -19.4040  -28.8230   23.4110 C   0  0  0  0  0  0  0  0  0  0  0  0
  -19.0010  -30.1090   23.8330 C   0  0  0  0  0  3  0  0  0  0  0  0
  -17.6410  -30.4760   23.8140 C   0  0  0  0  0  3  0  0  0  0  0  0
  -16.6700  -29.5610   23.3740 C   0  0  0  0  0  3  0  0  0  0  0  0
  -17.0610  -28.2790   22.9490 C   0  0  0  0  0  3  0  0  0  0  0  0
  -26.1620  -32.7830   24.1250 C   0  0  0  0  0  3  0  0  0  0  0  0
  -26.7020  -32.0110   25.3910 C   0  0  1  0  0  0  0  0  0  0  0  0
  -25.5960  -31.6090   26.3970 C   0  0  0  0  0  1  0  0  0  0  0  0
  -27.4500  -30.7230   24.9770 C   0  0  0  0  0  1  0  0  0  0  0  0
  -27.7310  -32.8910   26.1430 C   0  0  0  0  0  1  0  0  0  0  0  0
  -25.8270  -34.1730   24.4800 N   0  0  0  0  0  0  0  0  0  0  0  0
  -26.0870  -35.2410   23.7180 C   0  0  0  0  0  0  0  0  0  0  0  0
  -26.7010  -35.1660   22.6510 O   0  0  0  0  0  0  0  0  0  0  0  0
  -25.2580  -34.2990   25.3040 H   0  0  0  0  0  0  0  0  0  0  0  0
  -24.2830  -36.9850   23.5030 C   0  0  0  0  0  1  0  0  0  0  0  0
  -25.5940  -36.6160   24.2170 C   0  0  0  0  0  3  0  0  0  0  0  0
  -27.7540  -37.5650   24.8940 C   0  0  0  0  0  1  0  0  0  0  0  0
  -26.5830  -37.7000   24.0290 N   0  0  0  0  0  0  0  0  0  0  0  0
  -26.1630  -38.6080   24.2050 H   0  0  0  0  0  0  0  0  0  0  0  0
  1  2  2  0
  2  5  1  0
  3  6  1  0
  4  3  2  0
  4  1  1  0
  5 48  1  0
  6  5  1  0
  6 15  1  0
  7 15  1  0
  8 13  1  0
  9 10  1  0
  9  8  1  0
 11 10  1  0
 11 20  1  0
 11 12  1  0
 13  7  1  0
 13 12  1  0
 14  7  2  0
 15 16  1  0
 17 18  2  0
 18 37  1  0
 18 19  1  0
 19 22  1  0
 20 17  1  0
 20 21  1  0
 21 19  2  0
 22 23  1  0
 23 24  2  0
 25 28  1  0
 25 24  1  0
 26 25  2  0
 27 26  1  0
 27 22  2  0
 28 29  1  0
 29 34  2  0
 29 30  1  0
 30 31  2  0
 31 32  1  0
 32 36  1  0
 33 32  2  0
 34 33  1  0
 35 34  1  0
 37 38  1  0
 38 41  1  0
 38 40  1  0
 39 37  2  0
 42 17  1  0
 43 42  1  0
 44 42  1  0
 45  4  1  0
 46 45  2  0
 47 46  1  0
 48 49  2  0
 50 52  2  0
 51 50  2  0
 51 48  1  0
 53 52  1  0
 54 65  2  0
 55 53  1  0
 55 60  1  0
 56 64  1  0
 56 66  1  0
 57 63  1  0
 57 59  1  0
 58 64  1  0
 59 60  2  0
 59 58  1  0
 61 55  2  0
 62 61  1  0
 62 57  2  0
 63 56  1  0
 64 54  1  0
 66 68  2  0
 67 66  1  0
 69 67  1  0
 70 75  1  0
 71 67  1  0
 72 71  1  0
 73 74  1  0
 73 72  1  0
 74 70  1  0
 75 71  1  0
 75 76  2  0
 77 76  1  0
 78 77  2  0
 79 70  2  0
 79 78  1  0
 80 54  1  0
 80 85  1  0
 80 81  1  0
 81 84  1  1
 81 82  1  0
 83 81  1  0
 85 88  1  0
 86 90  1  0
 86 85  1  0
 87 86  2  0
 90 89  1  0
 92 93  1  0
 92 90  1  0
 92 91  1  0
M  ISO  4   7 100  15 100  52 101  53 101
M  END
>  <TORSDO>  (13) 
F 19

>  <SCORE>  (13) 
-11.396

>  <name>  (13) 
12

>  <ligand_id>  (13) 
12

>  <original_smiles>  (13) 
[H]C(=C=C([H])C(=O)c1c([H])c([H])c(C([H])=C([H])C([H])([H])[H])c([H])c1N([H])C(=O)N1C([H])([H])C([H])([H])C([H])([H])C([H])(n2nc(-c3c([H])c([H])c(Oc4c([H])c([H])c(F)c([H])c4F)c([H])c3[H])c(C(=O)N([H])[H])c2N([H])[H])C1([H])[H])Oc1c([H])c([H])c2c(c1[H])C([H])([H])N(C(=O)C([H])(N([H])C(=O)C([H])(N([H])C([H])([H])[H])C([H])([H])[H])C(C([H])([H])[H])(C([H])([H])[H])C([H])([H])[H])C([H])(C(=O)N([H])C1([H])c3c([H])c([H])c([H])c([H])c3C([H])([H])C([H])([H])C1([H])[H])C2([H])[H]

>  <smiles>  (13) 
[H]C(=C=C([H])C(=O)c1c([H])c([H])c(C([H])=C([H])C([H])([H])[H])c([H])c1N([H])C(=O)N1C([H])([H])C([H])([H])C([H])([H])C([H])(n2nc(-c3c([H])c([H])c(Oc4c([H])c([H])c(F)c([H])c4F)c([H])c3[H])c(C(=O)N([H])[H])c2N([H])[H])C1([H])[H])Oc1c([H])c([H])c2c(c1[H])C([H])([H])N(C(=O)C([H])(N([H])C(=O)C([H])(N([H])C([H])([H])[H])C([H])([H])[H])C(C([H])([H])[H])(C([H])([H])[H])C([H])([H])[H])C([H])(C(=O)N([H])C1([H])c3c([H])c([H])c([H])c([H])c3C([H])([H])C([H])([H])C1([H])[H])C2([H])[H]

$$$$
13:0:0
     RDKit          3D

 96104  0  0  1  0  0  0  0  0999 V2000
  -28.0220  -20.4410   19.6320 C   0  0  0  0  0  3  0  0  0  0  0  0
  -29.5960  -18.1380   20.2540 C   0  0  0  0  0  0  0  0  0  0  0  0
  -27.6050  -19.1670   19.2080 C   0  0  0  0  0  0  0  0  0  0  0  0
  -28.3950  -18.0200   19.4810 C   0  0  0  0  0  0  0  0  0  0  0  0
  -29.2080  -20.6010   20.3720 C   0  0  0  0  0  0  0  0  0  0  0  0
  -29.9680  -19.4500   20.6900 C   0  0  0  0  0  0  0  0  0  0  0  0
  -26.3110  -19.0570   18.4110 C   0  0  0  0  0  1  0  0  0  0  0  0
  -31.0900  -19.6480   21.4280 F   0  0  0  0  0  0  0  0  0  0  0  0
  -30.7640  -14.5500   20.4560 C   0  0  0  0  0  0  0  0  0  0  0  0
  -30.4210  -12.3560   19.4010 C   0  0  0  0  0  2  0  0  0  0  0  0
  -29.5050  -12.5290   18.1740 C   0  0  0  0  0  2  0  0  0  0  0  0
  -28.0290  -12.3910   18.5940 C   0  0  0  0  0  2  0  0  0  0  0  0
  -27.6710  -13.2660   19.8250 C   0  0  0  0  0  3  0  0  0  0  0  0
  -28.7200  -13.1390   20.9540 C   0  0  0  0  0  2  0  0  0  0  0  0
  -30.0410  -13.3980   20.3700 N   0  0  0  0  0  0  0  0  0  0  0  0
  -31.9600  -14.5580   20.1620 O   0  0  0  0  0  0  0  0  0  0  0  0
  -30.5540  -16.9710   20.5220 C   0  0  0  0  0  0  0  0  0  0  0  0
  -30.0580  -15.7040   20.6040 N   0  0  0  0  0  0  0  0  0  0  0  0
  -31.7590  -17.2220   20.6550 O   0  0  0  0  0  0  0  0  0  0  0  0
  -29.0510  -15.6370   20.5980 H   0  0  0  0  0  0  0  0  0  0  0  0
  -25.2770  -13.8920   20.5160 C   0  0  0  0  0  0  0  0  0  0  0  0
  -24.2000  -13.1260   20.8720 C   0  0  0  0  0  0  0  0  0  0  0  0
  -24.6540  -11.7710   20.8520 C   0  0  0  0  0  0  0  0  0  0  0  0
  -26.3180  -13.0020   20.2990 N   0  0  0  0  0  0  0  0  0  0  0  0
  -25.9470  -11.7230   20.5630 N   0  0  0  0  0  0  0  0  0  0  0  0
  -23.9190  -10.5120   21.0330 C   0  0  0  0  0  0  0  0  0  0  0  0
  -24.3310   -9.5460   21.9770 C   0  0  0  0  0  3  0  0  0  0  0  0
  -23.5970   -8.3520   22.1470 C   0  0  0  0  0  3  0  0  0  0  0  0
  -22.4370   -8.1170   21.3700 C   0  0  0  0  0  0  0  0  0  0  0  0
  -22.0450   -9.0710   20.4150 C   0  0  0  0  0  3  0  0  0  0  0  0
  -22.7790  -10.2560   20.2440 C   0  0  0  0  0  3  0  0  0  0  0  0
  -21.6770   -6.9740   21.4480 O   0  0  0  0  0  0  0  0  0  0  0  0
  -21.6000   -6.2390   22.6040 C   0  0  0  0  0  0  0  0  0  0  0  0
  -21.1310   -6.7980   23.8130 C   0  0  0  0  0  3  0  0  0  0  0  0
  -21.0010   -5.9890   24.9590 C   0  0  0  0  0  3  0  0  0  0  0  0
  -21.3310   -4.6220   24.8970 C   0  0  0  0  0  0  0  0  0  0  0  0
  -21.7940   -4.0630   23.6930 C   0  0  0  0  0  3  0  0  0  0  0  0
  -21.9250   -4.8690   22.5500 C   0  0  0  0  0  0  0  0  0  0  0  0
  -22.3510   -4.3210   21.3850 F   0  0  0  0  0  0  0  0  0  0  0  0
  -21.1990   -3.8410   25.9950 F   0  0  0  0  0  0  0  0  0  0  0  0
  -22.8020  -13.6110   21.1240 C   0  0  0  0  0  0  0  0  0  0  0  0
  -22.0580  -12.9170   21.9780 N   0  0  0  0  0  0  0  0  0  0  0  0
  -22.3760  -14.6370   20.5960 O   0  0  0  0  0  0  0  0  0  0  0  0
  -22.4150  -12.0850   22.4250 H   0  0  0  0  0  0  0  0  0  0  0  0
  -21.1190  -13.2220   22.1900 H   0  0  0  0  0  0  0  0  0  0  0  0
  -25.4570  -15.2600   20.3380 N   0  0  0  0  0  0  0  0  0  0  0  0
  -24.6960  -15.9230   20.4300 H   0  0  0  0  0  0  0  0  0  0  0  0
  -26.3230  -15.6950   20.0220 H   0  0  0  0  0  0  0  0  0  0  0  0
  -27.9480  -16.8200   18.9160 N   0  0  0  0  0  0  0  0  0  0  0  0
  -28.6540  -16.3020   18.4040 H   0  0  0  0  0  0  0  0  0  0  0  0
  -27.1470  -16.9440   18.3050 H   0  0  0  0  0  0  0  0  0  0  0  0
  -29.6990  -21.8460   20.7390 O   0  0  0  0  0  0  0  0  0  0  0  0
  -28.7860  -22.8880   21.1260 C   0  0  0  0  0  2  0  0  0  0  0  0
  -29.1030  -24.2520   20.4540 C   0  0  0  0  0  2  0  0  0  0  0  0
  -28.2350  -25.4010   21.0220 C   0  0  0  0  0  2  0  0  0  0  0  0
  -28.4260  -26.6760   20.3730 O   0  0  0  0  0  0  0  0  0  0  0  0
  -24.6130  -31.9530   23.2900 C   0  0  0  0  0  0  0  0  0  0  0  0
  -27.2870  -27.4560   20.3200 C   0  0  0  0  0  0  0  0  0  0  0  0
  -23.4310  -30.5380   21.6430 C   0  0  0  0  0  3  0  0  0  0  0  0
  -24.9050  -28.9790   20.2610 C   0  0  0  0  0  0  0  0  0  0  0  0
  -25.9630  -30.8820   21.4880 C   0  0  0  0  0  2  0  0  0  0  0  0
  -26.0560  -29.5040   20.8630 C   0  0  0  0  0  0  0  0  0  0  0  0
  -27.2550  -28.7510   20.8860 C   0  0  0  0  0  3  0  0  0  0  0  0
  -26.1250  -26.9530   19.6970 C   0  0  0  0  0  3  0  0  0  0  0  0
  -24.9350  -27.7030   19.6750 C   0  0  0  0  0  3  0  0  0  0  0  0
  -23.6630  -29.8410   20.2760 C   0  0  0  0  0  2  0  0  0  0  0  0
  -24.6870  -31.1400   22.1990 N   0  0  0  0  0  0  0  0  0  0  0  0
  -23.5230  -32.2360   23.8070 O   0  0  0  0  0  0  0  0  0  0  0  0
  -22.7600  -29.5290   22.6050 C   0  0  0  0  0  0  0  0  0  0  0  0
  -21.4340  -29.3630   22.4670 N   0  0  0  0  0  0  0  0  0  0  0  0
  -23.4290  -28.9010   23.4280 O   0  0  0  0  0  0  0  0  0  0  0  0
  -20.9580  -29.9200   21.7710 H   0  0  0  0  0  0  0  0  0  0  0  0
  -18.0380  -28.2350   22.9610 C   0  0  0  0  0  0  0  0  0  0  0  0
  -20.5990  -28.4380   23.2330 C   0  0  0  0  0  3  0  0  0  0  0  0
  -20.6730  -27.0080   22.6500 C   0  0  0  0  0  2  0  0  0  0  0  0
  -19.5650  -26.7160   21.6330 C   0  0  0  0  0  2  0  0  0  0  0  0
  -18.1870  -26.8850   22.2790 C   0  0  0  0  0  2  0  0  0  0  0  0
  -19.1710  -28.9710   23.3940 C   0  0  0  0  0  0  0  0  0  0  0  0
  -18.9780  -30.2370   23.9870 C   0  0  0  0  0  3  0  0  0  0  0  0
  -17.6850  -30.7660   24.1540 C   0  0  0  0  0  3  0  0  0  0  0  0
  -16.5640  -30.0260   23.7370 C   0  0  0  0  0  3  0  0  0  0  0  0
  -16.7420  -28.7610   23.1480 C   0  0  0  0  0  3  0  0  0  0  0  0
  -25.8890  -32.5870   23.9240 C   0  0  0  0  0  3  0  0  0  0  0  0
  -25.5800  -33.9890   24.2310 N   0  0  0  0  0  0  0  0  0  0  0  0
  -25.9340  -35.0310   23.4640 C   0  0  0  0  0  0  0  0  0  0  0  0
  -26.6250  -34.9110   22.4490 O   0  0  0  0  0  0  0  0  0  0  0  0
  -24.9710  -34.1590   25.0170 H   0  0  0  0  0  0  0  0  0  0  0  0
  -24.2300  -36.8310   23.0400 C   0  0  0  0  0  1  0  0  0  0  0  0
  -25.4430  -36.4270   23.8930 C   0  0  0  0  0  3  0  0  0  0  0  0
  -27.5570  -37.3060   24.7790 C   0  0  0  0  0  1  0  0  0  0  0  0
  -26.4870  -37.4720   23.8000 N   0  0  0  0  0  0  0  0  0  0  0  0
  -26.0830  -38.3960   23.9230 H   0  0  0  0  0  0  0  0  0  0  0  0
  -26.3840  -31.8290   25.2180 C   0  0  1  0  0  0  0  0  0  0  0  0
  -25.2720  -31.6040   26.2690 C   0  0  0  0  0  1  0  0  0  0  0  0
  -26.9730  -30.4470   24.8480 C   0  0  0  0  0  1  0  0  0  0  0  0
  -27.5230  -32.6300   25.8900 C   0  0  0  0  0  1  0  0  0  0  0  0
  1  5  1  0
  2 17  1  0
  2  6  1  0
  3  4  1  0
  3  1  2  0
  4  2  2  0
  5  6  2  0
  5 52  1  0
  6  8  1  0
  7  3  1  0
  9 18  1  0
 10 15  1  0
 11 12  1  0
 11 10  1  0
 13 12  1  0
 13 24  1  0
 13 14  1  0
 15  9  1  0
 15 14  1  0
 16  9  2  0
 17 18  1  0
 17 19  2  0
 20 18  1  0
 21 22  2  0
 22 41  1  0
 23 22  1  0
 23 26  1  0
 24 21  1  0
 24 25  1  0
 25 23  2  0
 26 27  1  0
 27 28  2  0
 29 32  1  0
 29 28  1  0
 30 29  2  0
 31 30  1  0
 31 26  2  0
 32 33  1  0
 33 34  1  0
 34 35  2  0
 36 35  1  0
 36 40  1  0
 37 36  2  0
 38 33  2  0
 38 37  1  0
 39 38  1  0
 41 42  1  0
 42 45  1  0
 42 44  1  0
 43 41  2  0
 46 47  1  0
 46 21  1  0
 48 46  1  0
 49  4  1  0
 50 49  1  0
 51 49  1  0
 52 53  1  0
 54 55  1  0
 54 53  1  0
 56 55  1  0
 57 68  2  0
 58 56  1  0
 58 63  1  0
 59 67  1  0
 59 69  1  0
 60 66  1  0
 60 62  1  0
 61 67  1  0
 62 63  2  0
 62 61  1  0
 64 58  2  0
 65 64  1  0
 65 60  2  0
 66 59  1  0
 67 57  1  0
 69 71  2  0
 70 69  1  0
 72 70  1  0
 73 82  2  0
 73 78  1  0
 74 70  1  0
 74 78  1  0
 75 74  1  0
 76 77  1  0
 76 75  1  0
 77 73  1  0
 78 79  2  0
 79 80  1  0
 81 80  2  0
 82 81  1  0
 83 57  1  0
 83 84  1  0
 83 93  1  0
 84 87  1  0
 85 89  1  0
 85 84  1  0
 86 85  2  0
 89 88  1  0
 91 89  1  0
 91 92  1  0
 91 90  1  0
 93 96  1  1
 93 94  1  0
 95 93  1  0
M  ISO  4   9 100  18 100  55 101  56 101
M  END
>  <TORSDO>  (14) 
F 21

>  <SCORE>  (14) 
-13.866

>  <name>  (14) 
13

>  <ligand_id>  (14) 
13

>  <original_smiles>  (14) 
[H]c1c([H])c([H])c2c(c1[H])C([H])([H])C([H])([H])C([H])([H])C2([H])N([H])C(=O)C1([H])N(C(=O)C([H])(N([H])C(=O)C([H])(N([H])C([H])([H])[H])C([H])([H])[H])C(C([H])([H])[H])(C([H])([H])[H])C([H])([H])[H])C([H])([H])c2c([H])c(OC([H])([H])C([H])([H])C([H])([H])Oc3c([H])c(C([H])([H])[H])c(N([H])[H])c(C(=O)N([H])C(=O)N4C([H])([H])C([H])([H])C([H])([H])C([H])(n5nc(-c6c([H])c([H])c(Oc7c([H])c([H])c(F)c([H])c7F)c([H])c6[H])c(C(=O)N([H])[H])c5N([H])[H])C4([H])[H])c3F)c([H])c([H])c2C1([H])[H]

>  <smiles>  (14) 
[H]c1c([H])c([H])c2c(c1[H])C([H])([H])C([H])([H])C([H])([H])C2([H])N([H])C(=O)C1([H])N(C(=O)C([H])(N([H])C(=O)C([H])(N([H])C([H])([H])[H])C([H])([H])[H])C(C([H])([H])[H])(C([H])([H])[H])C([H])([H])[H])C([H])([H])c2c([H])c(OC([H])([H])C([H])([H])C([H])([H])Oc3c([H])c(C([H])([H])[H])c(N([H])[H])c(C(=O)N([H])C(=O)N4C([H])([H])C([H])([H])C([H])([H])C([H])(n5nc(-c6c([H])c([H])c(Oc7c([H])c([H])c(F)c([H])c7F)c([H])c6[H])c(C(=O)N([H])[H])c5N([H])[H])C4([H])[H])c3F)c([H])c([H])c2C1([H])[H]

$$$$
14:0:0
     RDKit          3D

 91 99  0  0  1  0  0  0  0  0999 V2000
  -29.0630  -21.0380   19.8200 C   0  0  0  0  0  3  0  0  0  0  0  0
  -28.9930  -22.2590   20.4960 C   0  0  0  0  0  3  0  0  0  0  0  0
  -29.2340  -18.3530   19.5590 C   0  0  0  0  0  0  0  0  0  0  0  0
  -29.4940  -19.6070   20.2740 C   0  0  0  0  0  0  0  0  0  0  0  0
  -29.8040  -17.3120   20.3110 C   0  0  0  0  0  0  0  0  0  0  0  0
  -28.4800  -18.2390   18.2570 C   0  0  0  0  0  1  0  0  0  0  0  0
  -30.9500  -17.3690   22.6150 C   0  0  0  0  0  1  0  0  0  0  0  0
  -30.1460  -19.3000   21.3980 N   0  0  0  0  0  0  0  0  0  0  0  0
  -30.3390  -17.9390   21.4310 N   0  0  0  0  0  0  0  0  0  0  0  0
  -30.5200  -14.8190   20.1210 C   0  0  0  0  0  0  0  0  0  0  0  0
  -30.3400  -12.5300   19.1050 C   0  0  0  0  0  2  0  0  0  0  0  0
  -29.3540  -12.5930   17.9150 C   0  0  0  0  0  2  0  0  0  0  0  0
  -27.8980  -12.4140   18.3920 C   0  0  0  0  0  2  0  0  0  0  0  0
  -27.5610  -13.2960   19.6220 C   0  0  0  0  0  3  0  0  0  0  0  0
  -28.6570  -13.2060   20.7050 C   0  0  0  0  0  2  0  0  0  0  0  0
  -29.9250  -13.5770   20.0660 N   0  0  0  0  0  0  0  0  0  0  0  0
  -31.7280  -14.9310   19.8760 O   0  0  0  0  0  0  0  0  0  0  0  0
  -29.6620  -15.9190   20.1280 N   0  0  0  0  0  0  0  0  0  0  0  0
  -28.7040  -15.6380   20.0020 H   0  0  0  0  0  0  0  0  0  0  0  0
  -25.2030  -13.8980   20.4280 C   0  0  0  0  0  0  0  0  0  0  0  0
  -24.1450  -13.1280   20.8230 C   0  0  0  0  0  0  0  0  0  0  0  0
  -24.5990  -11.7740   20.7710 C   0  0  0  0  0  0  0  0  0  0  0  0
  -26.2340  -13.0140   20.1550 N   0  0  0  0  0  0  0  0  0  0  0  0
  -25.8810  -11.7310   20.4270 N   0  0  0  0  0  0  0  0  0  0  0  0
  -23.8710  -10.5150   20.9700 C   0  0  0  0  0  0  0  0  0  0  0  0
  -24.3060   -9.5480   21.9040 C   0  0  0  0  0  3  0  0  0  0  0  0
  -23.5760   -8.3540   22.0900 C   0  0  0  0  0  3  0  0  0  0  0  0
  -22.3970   -8.1180   21.3440 C   0  0  0  0  0  0  0  0  0  0  0  0
  -21.9800   -9.0750   20.4000 C   0  0  0  0  0  3  0  0  0  0  0  0
  -22.7110  -10.2600   20.2120 C   0  0  0  0  0  3  0  0  0  0  0  0
  -21.6380   -6.9760   21.4410 O   0  0  0  0  0  0  0  0  0  0  0  0
  -21.5790   -6.2480   22.6020 C   0  0  0  0  0  0  0  0  0  0  0  0
  -21.1290   -6.8160   23.8150 C   0  0  0  0  0  3  0  0  0  0  0  0
  -21.0180   -6.0140   24.9670 C   0  0  0  0  0  3  0  0  0  0  0  0
  -21.3460   -4.6460   24.9090 C   0  0  0  0  0  0  0  0  0  0  0  0
  -21.7900   -4.0780   23.7020 C   0  0  0  0  0  3  0  0  0  0  0  0
  -21.9030   -4.8780   22.5520 C   0  0  0  0  0  0  0  0  0  0  0  0
  -22.3110   -4.3220   21.3850 F   0  0  0  0  0  0  0  0  0  0  0  0
  -21.2310   -3.8730   26.0150 F   0  0  0  0  0  0  0  0  0  0  0  0
  -22.7580  -13.6110   21.1320 C   0  0  0  0  0  0  0  0  0  0  0  0
  -22.0440  -12.9110   22.0070 N   0  0  0  0  0  0  0  0  0  0  0  0
  -22.3180  -14.6470   20.6350 O   0  0  0  0  0  0  0  0  0  0  0  0
  -22.4110  -12.0720   22.4300 H   0  0  0  0  0  0  0  0  0  0  0  0
  -21.1160  -13.2260   22.2580 H   0  0  0  0  0  0  0  0  0  0  0  0
  -25.3650  -15.2690   20.2530 N   0  0  0  0  0  0  0  0  0  0  0  0
  -24.5920  -15.9130   20.3830 H   0  0  0  0  0  0  0  0  0  0  0  0
  -26.1840  -15.7140   19.8630 H   0  0  0  0  0  0  0  0  0  0  0  0
  -28.6210  -23.6550   19.9000 C   0  0  0  0  0  0  0  0  0  0  0  0
  -28.6280  -23.8120   18.6730 O   0  0  0  0  0  0  0  0  0  0  0  0
  -28.1830  -24.9360   20.7850 C   0  0  0  0  0  2  0  0  0  0  0  0
  -28.3780  -26.3540   20.2710 O   0  0  0  0  0  0  0  0  0  0  0  0
  -24.6260  -31.9050   23.2070 C   0  0  0  0  0  0  0  0  0  0  0  0
  -27.2800  -27.2530   20.2540 C   0  0  0  0  0  0  0  0  0  0  0  0
  -23.4480  -30.4790   21.5740 C   0  0  0  0  0  3  0  0  0  0  0  0
  -24.9210  -28.9040   20.1860 C   0  0  0  0  0  0  0  0  0  0  0  0
  -25.9940  -30.7910   21.4140 C   0  0  0  0  0  2  0  0  0  0  0  0
  -26.0880  -29.3960   20.7880 C   0  0  0  0  0  0  0  0  0  0  0  0
  -27.2730  -28.5840   20.8050 C   0  0  0  0  0  3  0  0  0  0  0  0
  -26.0890  -26.8300   19.6280 C   0  0  0  0  0  3  0  0  0  0  0  0
  -24.9290  -27.6310   19.5930 C   0  0  0  0  0  3  0  0  0  0  0  0
  -23.6830  -29.7830   20.2060 C   0  0  0  0  0  2  0  0  0  0  0  0
  -24.7080  -31.0760   22.1220 N   0  0  0  0  0  0  0  0  0  0  0  0
  -23.5340  -32.1860   23.7240 O   0  0  0  0  0  0  0  0  0  0  0  0
  -22.7760  -29.4760   22.5440 C   0  0  0  0  0  0  0  0  0  0  0  0
  -21.4490  -29.3060   22.4190 N   0  0  0  0  0  0  0  0  0  0  0  0
  -23.4490  -28.8530   23.3680 O   0  0  0  0  0  0  0  0  0  0  0  0
  -20.9640  -29.8610   21.7270 H   0  0  0  0  0  0  0  0  0  0  0  0
  -18.0600  -28.1480   22.9490 C   0  0  0  0  0  0  0  0  0  0  0  0
  -20.6240  -28.3790   23.1950 C   0  0  0  0  0  3  0  0  0  0  0  0
  -20.7030  -26.9460   22.6170 C   0  0  0  0  0  2  0  0  0  0  0  0
  -19.5880  -26.6380   21.6130 C   0  0  0  0  0  2  0  0  0  0  0  0
  -18.2140  -26.7980   22.2700 C   0  0  0  0  0  2  0  0  0  0  0  0
  -19.1890  -28.8970   23.3700 C   0  0  0  0  0  0  0  0  0  0  0  0
  -18.9890  -30.1610   23.9660 C   0  0  0  0  0  3  0  0  0  0  0  0
  -17.6900  -30.6730   24.1460 C   0  0  0  0  0  3  0  0  0  0  0  0
  -16.5750  -29.9200   23.7390 C   0  0  0  0  0  3  0  0  0  0  0  0
  -16.7610  -28.6600   23.1450 C   0  0  0  0  0  3  0  0  0  0  0  0
  -25.8990  -32.5540   23.8370 C   0  0  0  0  0  3  0  0  0  0  0  0
  -26.4100  -31.7950   25.1230 C   0  0  1  0  0  0  0  0  0  0  0  0
  -25.3090  -31.5540   26.1830 C   0  0  0  0  0  1  0  0  0  0  0  0
  -27.0070  -30.4210   24.7440 C   0  0  0  0  0  1  0  0  0  0  0  0
  -27.5500  -32.6010   25.7860 C   0  0  0  0  0  1  0  0  0  0  0  0
  -25.5730  -33.9510   24.1600 N   0  0  0  0  0  0  0  0  0  0  0  0
  -25.9040  -35.0060   23.4030 C   0  0  0  0  0  0  0  0  0  0  0  0
  -26.5860  -34.9040   22.3790 O   0  0  0  0  0  0  0  0  0  0  0  0
  -24.9650  -34.1020   24.9520 H   0  0  0  0  0  0  0  0  0  0  0  0
  -24.1750  -36.7940   23.0210 C   0  0  0  0  0  1  0  0  0  0  0  0
  -25.4040  -36.3910   23.8530 C   0  0  0  0  0  3  0  0  0  0  0  0
  -27.5210  -37.2860   24.7190 C   0  0  0  0  0  1  0  0  0  0  0  0
  -26.4340  -37.4490   23.7580 N   0  0  0  0  0  0  0  0  0  0  0  0
  -26.0200  -38.3670   23.9010 H   0  0  0  0  0  0  0  0  0  0  0  0
  1  4  1  0
  1  2  2  0
  3  4  1  0
  3  5  2  0
  4  8  2  0
  5  9  1  0
  6  3  1  0
  8  9  1  0
  9  7  1  0
 10 18  1  0
 11 16  1  0
 12 13  1  0
 12 11  1  0
 14 13  1  0
 14 23  1  0
 14 15  1  0
 16 10  1  0
 16 15  1  0
 17 10  2  0
 18  5  1  0
 19 18  1  0
 20 21  2  0
 21 40  1  0
 22 21  1  0
 22 25  1  0
 23 24  1  0
 23 20  1  0
 24 22  2  0
 25 26  1  0
 26 27  2  0
 28 31  1  0
 28 27  1  0
 29 28  2  0
 30 29  1  0
 30 25  2  0
 31 32  1  0
 32 33  1  0
 33 34  2  0
 35 34  1  0
 35 39  1  0
 36 35  2  0
 37 32  2  0
 37 36  1  0
 38 37  1  0
 40 41  1  0
 41 44  1  0
 41 43  1  0
 42 40  2  0
 45 46  1  0
 45 20  1  0
 47 45  1  0
 48  2  1  0
 48 50  1  0
 49 48  2  0
 51 50  1  0
 52 63  2  0
 53 51  1  0
 53 58  1  0
 54 62  1  0
 54 64  1  0
 55 61  1  0
 55 57  1  0
 56 62  1  0
 57 58  2  0
 57 56  1  0
 59 53  2  0
 60 59  1  0
 60 55  2  0
 61 54  1  0
 62 52  1  0
 64 66  2  0
 65 64  1  0
 67 65  1  0
 68 77  2  0
 68 73  1  0
 69 65  1  0
 69 73  1  0
 70 69  1  0
 71 72  1  0
 71 70  1  0
 72 68  1  0
 73 74  2  0
 74 75  1  0
 76 75  2  0
 77 76  1  0
 78 52  1  0
 78 83  1  0
 78 79  1  0
 79 82  1  1
 79 80  1  0
 81 79  1  0
 83 86  1  0
 84 88  1  0
 84 83  1  0
 85 84  2  0
 88 87  1  0
 90 88  1  0
 90 91  1  0
 90 89  1  0
M  ISO  4  10 100  18 100  50 101  51 101
M  END
>  <TORSDO>  (15) 
F 19

>  <SCORE>  (15) 
-14.216

>  <name>  (15) 
14

>  <ligand_id>  (15) 
14

>  <original_smiles>  (15) 
[H]C(C(=O)C([H])([H])Oc1c([H])c([H])c2c(c1[H])C([H])([H])N(C(=O)C([H])(N([H])C(=O)C([H])(N([H])C([H])([H])[H])C([H])([H])[H])C(C([H])([H])[H])(C([H])([H])[H])C([H])([H])[H])C([H])(C(=O)N([H])C1([H])c3c([H])c([H])c([H])c([H])c3C([H])([H])C([H])([H])C1([H])[H])C2([H])[H])=C([H])c1nn(C([H])([H])[H])c(N([H])C(=O)N2C([H])([H])C([H])([H])C([H])([H])C([H])(n3nc(-c4c([H])c([H])c(Oc5c([H])c([H])c(F)c([H])c5F)c([H])c4[H])c(C(=O)N([H])[H])c3N([H])[H])C2([H])[H])c1C([H])([H])[H]

>  <smiles>  (15) 
[H]C(C(=O)C([H])([H])Oc1c([H])c([H])c2c(c1[H])C([H])([H])N(C(=O)C([H])(N([H])C(=O)C([H])(N([H])C([H])([H])[H])C([H])([H])[H])C(C([H])([H])[H])(C([H])([H])[H])C([H])([H])[H])C([H])(C(=O)N([H])C1([H])c3c([H])c([H])c([H])c([H])c3C([H])([H])C([H])([H])C1([H])[H])C2([H])[H])=C([H])c1nn(C([H])([H])[H])c(N([H])C(=O)N2C([H])([H])C([H])([H])C([H])([H])C([H])(n3nc(-c4c([H])c([H])c(Oc5c([H])c([H])c(F)c([H])c5F)c([H])c4[H])c(C(=O)N([H])[H])c3N([H])[H])C2([H])[H])c1C([H])([H])[H]

$$$$
15:0:0
     RDKit          3D

 98106  0  0  1  0  0  0  0  0999 V2000
  -28.5970  -19.6980   19.5660 C   0  0  0  0  0  3  0  0  0  0  0  0
  -30.3420  -17.8600   21.1670 C   0  0  0  0  0  3  0  0  0  0  0  0
  -28.1210  -18.4850   19.1960 C   0  0  0  0  0  0  0  0  0  0  0  0
  -29.5430  -16.8890   20.6360 C   0  0  0  0  0  0  0  0  0  0  0  0
  -29.3960  -20.0910   20.5930 C   0  0  0  0  0  3  0  0  0  0  0  0
  -30.2060  -19.2230   21.2770 C   0  0  0  0  0  0  0  0  0  0  0  0
  -28.2180  -17.3320   20.1400 C   0  0  0  0  0  0  0  0  0  0  0  0
  -27.1950  -16.6790   20.5600 N   0  0  0  0  0  2  0  0  0  0  0  0
  -30.5850  -14.5640   20.2350 C   0  0  0  0  0  0  0  0  0  0  0  0
  -30.4970  -12.3920   19.0240 C   0  0  0  0  0  2  0  0  0  0  0  0
  -29.5400  -12.5660   17.8190 C   0  0  0  0  0  2  0  0  0  0  0  0
  -28.0710  -12.3390   18.2340 C   0  0  0  0  0  2  0  0  0  0  0  0
  -27.6860  -13.1110   19.5260 C   0  0  0  0  0  3  0  0  0  0  0  0
  -28.7460  -12.8830   20.6260 C   0  0  0  0  0  2  0  0  0  0  0  0
  -30.0530  -13.3100   20.0930 N   0  0  0  0  0  0  0  0  0  0  0  0
  -31.7000  -14.8570   19.7900 O   0  0  0  0  0  0  0  0  0  0  0  0
  -29.6990  -15.4690   20.7270 N   0  0  0  0  0  0  0  0  0  0  0  0
  -28.8600  -15.0420   21.0940 H   0  0  0  0  0  0  0  0  0  0  0  0
  -25.2260  -13.5850   20.1100 C   0  0  0  0  0  0  0  0  0  0  0  0
  -24.2020  -12.7690   20.5000 C   0  0  0  0  0  0  0  0  0  0  0  0
  -24.7610  -11.4590   20.5930 C   0  0  0  0  0  0  0  0  0  0  0  0
  -26.3410  -12.7710   19.9820 N   0  0  0  0  0  0  0  0  0  0  0  0
  -26.0610  -11.4890   20.3280 N   0  0  0  0  0  0  0  0  0  0  0  0
  -24.1200  -10.1680   20.8660 C   0  0  0  0  0  0  0  0  0  0  0  0
  -24.5350   -9.3470   21.9360 C   0  0  0  0  0  3  0  0  0  0  0  0
  -23.8890   -8.1180   22.1870 C   0  0  0  0  0  3  0  0  0  0  0  0
  -22.8150   -7.7000   21.3660 C   0  0  0  0  0  0  0  0  0  0  0  0
  -22.4180   -8.5120   20.2880 C   0  0  0  0  0  3  0  0  0  0  0  0
  -23.0660   -9.7320   20.0370 C   0  0  0  0  0  3  0  0  0  0  0  0
  -22.1480   -6.5090   21.5170 O   0  0  0  0  0  0  0  0  0  0  0  0
  -21.9970   -5.9210   22.7470 C   0  0  0  0  0  0  0  0  0  0  0  0
  -21.3340   -6.5730   23.8100 C   0  0  0  0  0  3  0  0  0  0  0  0
  -21.1390   -5.9050   25.0340 C   0  0  0  0  0  3  0  0  0  0  0  0
  -21.5970   -4.5850   25.1980 C   0  0  0  0  0  0  0  0  0  0  0  0
  -22.2540   -3.9320   24.1410 C   0  0  0  0  0  3  0  0  0  0  0  0
  -22.4530   -4.5990   22.9180 C   0  0  0  0  0  0  0  0  0  0  0  0
  -23.0670   -3.9580   21.8950 F   0  0  0  0  0  0  0  0  0  0  0  0
  -21.4060   -3.9400   26.3730 F   0  0  0  0  0  0  0  0  0  0  0  0
  -22.7690  -13.1690   20.6990 C   0  0  0  0  0  0  0  0  0  0  0  0
  -22.0620  -12.5030   21.6050 N   0  0  0  0  0  0  0  0  0  0  0  0
  -22.2760  -14.1140   20.0840 O   0  0  0  0  0  0  0  0  0  0  0  0
  -22.4680  -11.7410   22.1280 H   0  0  0  0  0  0  0  0  0  0  0  0
  -21.1010  -12.7580   21.7790 H   0  0  0  0  0  0  0  0  0  0  0  0
  -25.2920  -14.9440   19.8440 N   0  0  0  0  0  0  0  0  0  0  0  0
  -24.4580  -15.4930   20.0130 H   0  0  0  0  0  0  0  0  0  0  0  0
  -26.1390  -15.4610   20.0480 H   0  0  0  0  0  0  0  0  0  0  0  0
  -24.8210  -16.1650   20.8630 C   0  0  0  0  0  1  0  0  0  0  0  0
  -25.8430  -17.1680   20.3190 C   0  0  0  0  0  2  0  0  0  0  0  0
  -27.1690  -19.1050   17.0640 C   0  0  0  0  0  2  0  0  0  0  0  0
  -27.6840  -18.2210   17.9400 C   0  0  0  0  0  3  0  0  0  0  0  0
  -29.4850  -21.4620   20.9310 O   0  0  0  0  0  0  0  0  0  0  0  0
  -28.6920  -22.4660   20.2170 C   0  0  0  0  0  2  0  0  0  0  0  0
  -28.9600  -23.9990   20.5110 C   0  0  0  0  0  2  0  0  0  0  0  0
  -28.0850  -24.9860   19.6410 C   0  0  0  0  0  2  0  0  0  0  0  0
  -28.2630  -26.4350   19.7950 O   0  0  0  0  0  0  0  0  0  0  0  0
  -24.6890  -31.8110   22.9630 C   0  0  0  0  0  0  0  0  0  0  0  0
  -27.1240  -27.2500   19.7910 C   0  0  0  0  0  0  0  0  0  0  0  0
  -23.3850  -30.4070   21.4020 C   0  0  0  0  0  3  0  0  0  0  0  0
  -24.7500  -28.8390   19.9100 C   0  0  0  0  0  0  0  0  0  0  0  0
  -25.9070  -30.7190   21.0720 C   0  0  0  0  0  2  0  0  0  0  0  0
  -25.9470  -29.3360   20.4400 C   0  0  0  0  0  0  0  0  0  0  0  0
  -27.1340  -28.5490   20.3790 C   0  0  0  0  0  3  0  0  0  0  0  0
  -25.9040  -26.8070   19.2240 C   0  0  0  0  0  3  0  0  0  0  0  0
  -24.7290  -27.5790   19.2930 C   0  0  0  0  0  3  0  0  0  0  0  0
  -23.5190  -29.7140   20.0200 C   0  0  0  0  0  2  0  0  0  0  0  0
  -24.6830  -30.9950   21.8700 N   0  0  0  0  0  0  0  0  0  0  0  0
  -23.6420  -32.0990   23.5580 O   0  0  0  0  0  0  0  0  0  0  0  0
  -22.7730  -29.4040   22.4070 C   0  0  0  0  0  0  0  0  0  0  0  0
  -21.4550  -29.1760   22.2990 N   0  0  0  0  0  0  0  0  0  0  0  0
  -23.4810  -28.8330   23.2410 O   0  0  0  0  0  0  0  0  0  0  0  0
  -20.9420  -29.6860   21.5950 H   0  0  0  0  0  0  0  0  0  0  0  0
  -18.1320  -27.8530   22.8510 C   0  0  0  0  0  0  0  0  0  0  0  0
  -20.6750  -28.2390   23.1110 C   0  0  0  0  0  3  0  0  0  0  0  0
  -20.8420  -26.7880   22.6070 C   0  0  0  0  0  2  0  0  0  0  0  0
  -19.7600  -26.3690   21.6050 C   0  0  0  0  0  2  0  0  0  0  0  0
  -18.3710  -26.4820   22.2410 C   0  0  0  0  0  2  0  0  0  0  0  0
  -19.2130  -28.6840   23.2450 C   0  0  0  0  0  0  0  0  0  0  0  0
  -18.9370  -29.9600   23.7800 C   0  0  0  0  0  3  0  0  0  0  0  0
  -17.6110  -30.4120   23.9200 C   0  0  0  0  0  3  0  0  0  0  0  0
  -16.5440  -29.5820   23.5380 C   0  0  0  0  0  3  0  0  0  0  0  0
  -16.8040  -28.3040   23.0130 C   0  0  0  0  0  3  0  0  0  0  0  0
  -26.0120  -32.4370   23.5070 C   0  0  0  0  0  3  0  0  0  0  0  0
  -25.6890  -33.7690   24.0340 N   0  0  0  0  0  0  0  0  0  0  0  0
  -25.9100  -34.9180   23.3810 C   0  0  0  0  0  0  0  0  0  0  0  0
  -26.4820  -34.9680   22.2880 O   0  0  0  0  0  0  0  0  0  0  0  0
  -25.1670  -33.8010   24.8970 H   0  0  0  0  0  0  0  0  0  0  0  0
  -24.0990  -36.6620   23.3980 C   0  0  0  0  0  1  0  0  0  0  0  0
  -25.4210  -36.2200   24.0440 C   0  0  0  0  0  3  0  0  0  0  0  0
  -27.5910  -37.0860   24.8010 C   0  0  0  0  0  1  0  0  0  0  0  0
  -26.4070  -37.3210   23.9780 N   0  0  0  0  0  0  0  0  0  0  0  0
  -25.9880  -38.1980   24.2750 H   0  0  0  0  0  0  0  0  0  0  0  0
  -26.7050  -31.5540   24.6190 C   0  0  1  0  0  0  0  0  0  0  0  0
  -25.7410  -31.0830   25.7340 C   0  0  0  0  0  1  0  0  0  0  0  0
  -27.3440  -30.2960   23.9900 C   0  0  0  0  0  1  0  0  0  0  0  0
  -27.8560  -32.3540   25.2780 C   0  0  0  0  0  1  0  0  0  0  0  0
  -31.0160  -19.7910   22.2240 O   0  0  0  0  0  0  0  0  0  0  0  0
  -31.3700  -20.5890   24.4600 C   0  0  0  0  0  1  0  0  0  0  0  0
  -30.3490  -20.0610   23.4520 C   0  0  0  0  0  2  0  0  0  0  0  0
  1  5  1  0
  2  6  2  0
  3  1  2  0
  3  7  1  0
  4 17  1  0
  4  2  1  0
  5 51  1  0
  5  6  1  0
  6 96  1  0
  7  8  1  0
  7  4  2  0
  9 17  1  0
 10 15  1  0
 11 12  1  0
 11 10  1  0
 13 12  1  0
 13 22  1  0
 13 14  1  0
 15  9  1  0
 15 14  1  0
 16  9  2  0
 17 18  1  0
 19 20  2  0
 20 21  1  0
 20 39  1  0
 21 24  1  0
 22 19  1  0
 22 23  1  0
 23 21  2  0
 24 25  1  0
 25 26  2  0
 27 30  1  0
 27 26  1  0
 28 27  2  0
 29 28  1  0
 29 24  2  0
 30 31  1  0
 31 36  2  0
 31 32  1  0
 32 33  2  0
 33 34  1  0
 34 38  1  0
 35 34  2  0
 36 35  1  0
 37 36  1  0
 39 40  1  0
 40 43  1  0
 40 42  1  0
 41 39  2  0
 44 45  1  0
 44 46  1  0
 44 19  1  0
 48  8  1  0
 48 47  1  0
 49 50  2  0
 50  3  1  0
 52 53  1  0
 52 51  1  0
 54 55  1  0
 54 53  1  0
 56 67  2  0
 57 55  1  0
 57 62  1  0
 58 66  1  0
 58 68  1  0
 59 65  1  0
 59 61  1  0
 60 66  1  0
 61 60  1  0
 62 61  2  0
 63 64  1  0
 63 57  2  0
 64 59  2  0
 65 58  1  0
 66 56  1  0
 68 70  2  0
 69 68  1  0
 71 69  1  0
 72 81  2  0
 72 77  1  0
 73 69  1  0
 73 77  1  0
 74 73  1  0
 75 76  1  0
 75 74  1  0
 76 72  1  0
 77 78  2  0
 78 79  1  0
 80 79  2  0
 81 80  1  0
 82 56  1  0
 82 83  1  0
 82 92  1  0
 83 86  1  0
 84 83  1  0
 84 88  1  0
 85 84  2  0
 88 87  1  0
 90 88  1  0
 90 91  1  0
 90 89  1  0
 92 95  1  1
 92 93  1  0
 94 92  1  0
 96 98  1  0
 98 97  1  0
M  ISO  4   9 100  17 100  54 101  55 101
M  END
>  <TORSDO>  (16) 
F 24

>  <SCORE>  (16) 
-10.081

>  <name>  (16) 
15

>  <ligand_id>  (16) 
15

>  <original_smiles>  (16) 
[H]C([H])=C([H])c1c([H])c(OC([H])([H])C([H])([H])C([H])([H])Oc2c([H])c([H])c3c(c2[H])C([H])([H])N(C(=O)C([H])(N([H])C(=O)C([H])(N([H])C([H])([H])[H])C([H])([H])[H])C(C([H])([H])[H])(C([H])([H])[H])C([H])([H])[H])C([H])(C(=O)N([H])C2([H])c4c([H])c([H])c([H])c([H])c4C([H])([H])C([H])([H])C2([H])[H])C3([H])[H])c(OC([H])([H])C([H])([H])[H])c([H])c(N([H])C(=O)N2C([H])([H])C([H])([H])C([H])([H])C([H])(n3nc(-c4c([H])c([H])c(Oc5c([H])c([H])c(F)c([H])c5F)c([H])c4[H])c(C(=O)N([H])[H])c3N([H])[H])C2([H])[H])c1=NC([H])([H])C([H])([H])[H]

>  <smiles>  (16) 
[H]C([H])=C([H])c1c([H])c(OC([H])([H])C([H])([H])C([H])([H])Oc2c([H])c([H])c3c(c2[H])C([H])([H])N(C(=O)C([H])(N([H])C(=O)C([H])(N([H])C([H])([H])[H])C([H])([H])[H])C(C([H])([H])[H])(C([H])([H])[H])C([H])([H])[H])C([H])(C(=O)N([H])C2([H])c4c([H])c([H])c([H])c([H])c4C([H])([H])C([H])([H])C2([H])[H])C3([H])[H])c(OC([H])([H])C([H])([H])[H])c([H])c(N([H])C(=O)N2C([H])([H])C([H])([H])C([H])([H])C([H])(n3nc(-c4c([H])c([H])c(Oc5c([H])c([H])c(F)c([H])c5F)c([H])c4[H])c(C(=O)N([H])[H])c3N([H])[H])C2([H])[H])c1=NC([H])([H])C([H])([H])[H]

$$$$
16:0:0
     RDKit          3D

 88 96  0  0  1  0  0  0  0  0999 V2000
  -30.1710  -20.2720   21.7710 C   0  0  0  0  0  3  0  0  0  0  0  0
  -30.5730  -18.0660   21.6720 C   0  0  0  0  0  3  0  0  0  0  0  0
  -29.5820  -19.9150   20.5780 C   0  0  0  0  0  0  0  0  0  0  0  0
  -29.9360  -18.3270   20.4920 C   0  0  0  0  0  0  0  0  0  0  0  0
  -31.2650  -19.1590   23.7670 C   0  0  0  0  0  1  0  0  0  0  0  0
  -30.6870  -19.1840   22.4400 N   0  0  0  0  0  0  0  0  0  0  0  0
  -30.5110  -15.5530   19.8510 C   0  0  0  0  0  0  0  0  0  0  0  0
  -30.4750  -13.1050   18.9000 C   0  0  0  0  0  2  0  0  0  0  0  0
  -29.4710  -12.8230   17.7530 C   0  0  0  0  0  2  0  0  0  0  0  0
  -28.1020  -12.4630   18.3490 C   0  0  0  0  0  2  0  0  0  0  0  0
  -27.6820  -13.4680   19.4480 C   0  0  0  0  0  3  0  0  0  0  0  0
  -28.7920  -13.7030   20.4880 C   0  0  0  0  0  2  0  0  0  0  0  0
  -29.9390  -14.2480   19.7360 N   0  0  0  0  0  0  0  0  0  0  0  0
  -31.7470  -15.5160   19.7230 O   0  0  0  0  0  0  0  0  0  0  0  0
  -29.7740  -16.8700   19.7960 N   0  0  0  0  0  0  0  0  0  0  0  0
  -28.8570  -16.7440   19.3870 H   0  0  0  0  0  0  0  0  0  0  0  0
  -25.3760  -14.0080   20.3810 C   0  0  0  0  0  0  0  0  0  0  0  0
  -24.3410  -13.2240   20.7950 C   0  0  0  0  0  0  0  0  0  0  0  0
  -24.8070  -11.8740   20.7090 C   0  0  0  0  0  0  0  0  0  0  0  0
  -26.4020  -13.1420   20.0510 N   0  0  0  0  0  0  0  0  0  0  0  0
  -26.0750  -11.8500   20.3150 N   0  0  0  0  0  0  0  0  0  0  0  0
  -24.0960  -10.6060   20.9120 C   0  0  0  0  0  0  0  0  0  0  0  0
  -24.5500   -9.6420   21.8410 C   0  0  0  0  0  3  0  0  0  0  0  0
  -23.8350   -8.4390   22.0290 C   0  0  0  0  0  3  0  0  0  0  0  0
  -22.6540   -8.1930   21.2890 C   0  0  0  0  0  0  0  0  0  0  0  0
  -22.2200   -9.1430   20.3460 C   0  0  0  0  0  3  0  0  0  0  0  0
  -22.9360  -10.3360   20.1560 C   0  0  0  0  0  3  0  0  0  0  0  0
  -21.9170   -7.0380   21.3850 O   0  0  0  0  0  0  0  0  0  0  0  0
  -21.8470   -6.3210   22.5530 C   0  0  0  0  0  0  0  0  0  0  0  0
  -21.3360   -6.8840   23.7410 C   0  0  0  0  0  3  0  0  0  0  0  0
  -21.2190   -6.0950   24.9030 C   0  0  0  0  0  3  0  0  0  0  0  0
  -21.6050   -4.7410   24.8750 C   0  0  0  0  0  0  0  0  0  0  0  0
  -22.1110   -4.1750   23.6900 C   0  0  0  0  0  3  0  0  0  0  0  0
  -22.2280   -4.9630   22.5320 C   0  0  0  0  0  0  0  0  0  0  0  0
  -22.6970   -4.4080   21.3890 F   0  0  0  0  0  0  0  0  0  0  0  0
  -21.4840   -3.9790   25.9880 F   0  0  0  0  0  0  0  0  0  0  0  0
  -22.9620  -13.6860   21.1720 C   0  0  0  0  0  0  0  0  0  0  0  0
  -22.2890  -12.9630   22.0610 N   0  0  0  0  0  0  0  0  0  0  0  0
  -22.4920  -14.7260   20.7100 O   0  0  0  0  0  0  0  0  0  0  0  0
  -22.6860  -12.1280   22.4690 H   0  0  0  0  0  0  0  0  0  0  0  0
  -21.3700  -13.2620   22.3590 H   0  0  0  0  0  0  0  0  0  0  0  0
  -25.5260  -15.3840   20.2210 N   0  0  0  0  0  0  0  0  0  0  0  0
  -24.7310  -16.0130   20.2480 H   0  0  0  0  0  0  0  0  0  0  0  0
  -26.3600  -15.8080   19.8360 H   0  0  0  0  0  0  0  0  0  0  0  0
  -28.8260  -21.3550   20.0040 C   0  0  0  0  0  3  0  0  0  0  0  0
  -28.7930  -22.7990   20.4160 C   0  0  0  0  0  3  0  0  0  0  0  0
  -27.8760  -24.2930   20.1170 C   0  0  0  0  0  2  0  0  0  0  0  0
  -28.1640  -25.9220   20.3410 O   0  0  0  0  0  0  0  0  0  0  0  0
  -24.5940  -31.9600   23.3000 C   0  0  0  0  0  0  0  0  0  0  0  0
  -27.1680  -27.0520   20.2840 C   0  0  0  0  0  0  0  0  0  0  0  0
  -23.4070  -30.5510   21.6680 C   0  0  0  0  0  3  0  0  0  0  0  0
  -24.8570  -28.9410   20.2570 C   0  0  0  0  0  0  0  0  0  0  0  0
  -25.9780  -30.7690   21.5190 C   0  0  0  0  0  2  0  0  0  0  0  0
  -26.0560  -29.3560   20.8550 C   0  0  0  0  0  0  0  0  0  0  0  0
  -27.2080  -28.4370   20.8300 C   0  0  0  0  0  3  0  0  0  0  0  0
  -25.9280  -26.7970   19.6540 C   0  0  0  0  0  3  0  0  0  0  0  0
  -24.8200  -27.6780   19.6510 C   0  0  0  0  0  3  0  0  0  0  0  0
  -23.6380  -29.8580   20.3010 C   0  0  0  0  0  2  0  0  0  0  0  0
  -24.6820  -31.1220   22.2130 N   0  0  0  0  0  0  0  0  0  0  0  0
  -23.5040  -32.2450   23.8240 O   0  0  0  0  0  0  0  0  0  0  0  0
  -22.7040  -29.5650   22.6370 C   0  0  0  0  0  0  0  0  0  0  0  0
  -21.3830  -29.3640   22.4840 N   0  0  0  0  0  0  0  0  0  0  0  0
  -23.3640  -28.9770   23.5000 O   0  0  0  0  0  0  0  0  0  0  0  0
  -20.8990  -29.8910   21.7670 H   0  0  0  0  0  0  0  0  0  0  0  0
  -18.0370  -28.0260   22.8900 C   0  0  0  0  0  0  0  0  0  0  0  0
  -20.5670  -28.4220   23.2620 C   0  0  0  0  0  3  0  0  0  0  0  0
  -20.7560  -26.9690   22.7630 C   0  0  0  0  0  2  0  0  0  0  0  0
  -19.7280  -26.5590   21.7010 C   0  0  0  0  0  2  0  0  0  0  0  0
  -18.3080  -26.6710   22.2600 C   0  0  0  0  0  2  0  0  0  0  0  0
  -19.0990  -28.8550   23.3440 C   0  0  0  0  0  0  0  0  0  0  0  0
  -18.7880  -30.1200   23.8890 C   0  0  0  0  0  3  0  0  0  0  0  0
  -17.4550  -30.5630   23.9810 C   0  0  0  0  0  3  0  0  0  0  0  0
  -16.4070  -29.7310   23.5480 C   0  0  0  0  0  3  0  0  0  0  0  0
  -16.7020  -28.4660   23.0100 C   0  0  0  0  0  3  0  0  0  0  0  0
  -25.8600  -32.6110   23.9310 C   0  0  0  0  0  3  0  0  0  0  0  0
  -25.5470  -34.0210   24.2290 N   0  0  0  0  0  0  0  0  0  0  0  0
  -25.8910  -35.0620   23.4610 C   0  0  0  0  0  0  0  0  0  0  0  0
  -26.5620  -34.9390   22.4340 O   0  0  0  0  0  0  0  0  0  0  0  0
  -24.9430  -34.1920   25.0200 H   0  0  0  0  0  0  0  0  0  0  0  0
  -24.1720  -36.8660   23.0960 C   0  0  0  0  0  1  0  0  0  0  0  0
  -25.4180  -36.4630   23.9010 C   0  0  0  0  0  3  0  0  0  0  0  0
  -27.5580  -37.3570   24.7080 C   0  0  0  0  0  1  0  0  0  0  0  0
  -26.4560  -37.5070   23.7600 N   0  0  0  0  0  0  0  0  0  0  0  0
  -26.0570  -38.4340   23.8870 H   0  0  0  0  0  0  0  0  0  0  0  0
  -26.3450  -31.8800   25.2450 C   0  0  1  0  0  0  0  0  0  0  0  0
  -25.2270  -31.6750   26.2970 C   0  0  0  0  0  1  0  0  0  0  0  0
  -26.9380  -30.4910   24.9210 C   0  0  0  0  0  1  0  0  0  0  0  0
  -27.4800  -32.6970   25.9090 C   0  0  0  0  0  1  0  0  0  0  0  0
  1  6  1  0
  2  6  1  0
  3  1  2  0
  4  3  1  0
  4  2  2  0
  6  5  1  0
  8 13  1  0
  9 10  1  0
  9  8  1  0
 11 10  1  0
 11 20  1  0
 11 12  1  0
 13  7  1  0
 13 12  1  0
 14  7  2  0
 15  7  1  0
 15  4  1  0
 16 15  1  0
 17 18  2  0
 18 37  1  0
 19 18  1  0
 19 22  1  0
 20 21  1  0
 20 17  1  0
 21 19  2  0
 22 23  1  0
 23 24  2  0
 25 28  1  0
 25 24  1  0
 26 25  2  0
 27 26  1  0
 27 22  2  0
 28 29  1  0
 29 30  1  0
 30 31  2  0
 32 31  1  0
 32 36  1  0
 33 32  2  0
 34 29  2  0
 34 33  1  0
 35 34  1  0
 37 38  1  0
 38 41  1  0
 38 40  1  0
 39 37  2  0
 42 43  1  0
 42 17  1  0
 44 42  1  0
 45 46  2  0
 45  3  1  0
 47 48  1  0
 47 46  1  0
 49 60  2  0
 50 48  1  0
 50 55  1  0
 51 59  1  0
 51 61  1  0
 52 58  1  0
 52 54  1  0
 53 59  1  0
 54 53  1  0
 55 54  2  0
 56 50  2  0
 57 56  1  0
 57 52  2  0
 58 51  1  0
 59 49  1  0
 61 63  2  0
 62 61  1  0
 64 62  1  0
 65 74  2  0
 65 70  1  0
 66 62  1  0
 66 70  1  0
 67 66  1  0
 68 69  1  0
 68 67  1  0
 69 65  1  0
 70 71  2  0
 71 72  1  0
 73 72  2  0
 74 73  1  0
 75 49  1  0
 75 76  1  0
 75 85  1  0
 76 79  1  0
 77 81  1  0
 77 76  1  0
 78 77  2  0
 81 80  1  0
 83 84  1  0
 83 81  1  0
 83 82  1  0
 85 88  1  1
 85 86  1  0
 87 85  1  0
M  ISO  4   7 100  15 100  47 101  48 101
M  END
>  <TORSDO>  (17) 
F 18

>  <SCORE>  (17) 
-15.236

>  <name>  (17) 
16

>  <ligand_id>  (17) 
16

>  <original_smiles>  (17) 
[H]C(=C([H])C([H])([H])Oc1c([H])c([H])c2c(c1[H])C([H])([H])N(C(=O)C([H])(N([H])C(=O)C([H])(N([H])C([H])([H])[H])C([H])([H])[H])C(C([H])([H])[H])(C([H])([H])[H])C([H])([H])[H])C([H])(C(=O)N([H])C1([H])c3c([H])c([H])c([H])c([H])c3C([H])([H])C([H])([H])C1([H])[H])C2([H])[H])c1c(N([H])C(=O)N2C([H])([H])C([H])([H])C([H])([H])C([H])(n3nc(-c4c([H])c([H])c(Oc5c([H])c([H])c(F)c([H])c5F)c([H])c4[H])c(C(=O)N([H])[H])c3N([H])[H])C2([H])[H])c([H])n(C([H])([H])[H])c1[H]

>  <smiles>  (17) 
[H]C(=C([H])C([H])([H])Oc1c([H])c([H])c2c(c1[H])C([H])([H])N(C(=O)C([H])(N([H])C(=O)C([H])(N([H])C([H])([H])[H])C([H])([H])[H])C(C([H])([H])[H])(C([H])([H])[H])C([H])([H])[H])C([H])(C(=O)N([H])C1([H])c3c([H])c([H])c([H])c([H])c3C([H])([H])C([H])([H])C1([H])[H])C2([H])[H])c1c(N([H])C(=O)N2C([H])([H])C([H])([H])C([H])([H])C([H])(n3nc(-c4c([H])c([H])c(Oc5c([H])c([H])c(F)c([H])c5F)c([H])c4[H])c(C(=O)N([H])[H])c3N([H])[H])C2([H])[H])c([H])n(C([H])([H])[H])c1[H]

$$$$
17:0:0
     RDKit          3D

 96104  0  0  1  0  0  0  0  0999 V2000
  -29.1470  -19.1270   20.0650 C   0  0  0  0  0  3  0  0  0  0  0  0
  -31.3160  -18.3590   20.7920 C   0  0  0  0  0  3  0  0  0  0  0  0
  -29.4640  -20.6050   20.2190 C   0  0  0  0  0  0  0  0  0  0  0  0
  -30.8020  -20.8140   20.6660 C   0  0  0  0  0  0  0  0  0  0  0  0
  -30.0490  -17.9390   20.3420 C   0  0  0  0  0  0  0  0  0  0  0  0
  -31.6750  -19.7210   20.9560 C   0  0  0  0  0  0  0  0  0  0  0  0
  -30.5910  -15.1710   20.4080 C   0  0  0  0  0  0  0  0  0  0  0  0
  -30.6030  -12.7030   19.7060 C   0  0  0  0  0  2  0  0  0  0  0  0
  -29.7370  -12.4390   18.4540 C   0  0  0  0  0  2  0  0  0  0  0  0
  -28.2650  -12.2000   18.8410 C   0  0  0  0  0  2  0  0  0  0  0  0
  -27.7580  -13.2380   19.8750 C   0  0  0  0  0  3  0  0  0  0  0  0
  -28.7540  -13.4560   21.0320 C   0  0  0  0  0  2  0  0  0  0  0  0
  -30.0230  -13.8820   20.4240 N   0  0  0  0  0  0  0  0  0  0  0  0
  -31.8200  -15.1910   20.2670 O   0  0  0  0  0  0  0  0  0  0  0  0
  -29.7940  -16.3830   20.2810 N   0  0  0  0  0  0  0  0  0  0  0  0
  -28.8200  -16.1530   20.1570 H   0  0  0  0  0  0  0  0  0  0  0  0
  -25.3670  -13.8300   20.5540 C   0  0  0  0  0  0  0  0  0  0  0  0
  -24.2890  -13.0640   20.9010 C   0  0  0  0  0  0  0  0  0  0  0  0
  -24.7460  -11.7110   20.8950 C   0  0  0  0  0  0  0  0  0  0  0  0
  -26.4100  -12.9430   20.3470 N   0  0  0  0  0  0  0  0  0  0  0  0
  -26.0450  -11.6640   20.6220 N   0  0  0  0  0  0  0  0  0  0  0  0
  -24.0040  -10.4560   21.0720 C   0  0  0  0  0  0  0  0  0  0  0  0
  -24.3980   -9.4920   22.0260 C   0  0  0  0  0  3  0  0  0  0  0  0
  -23.6550   -8.3020   22.1900 C   0  0  0  0  0  3  0  0  0  0  0  0
  -22.5030   -8.0690   21.4010 C   0  0  0  0  0  0  0  0  0  0  0  0
  -22.1300   -9.0210   20.4350 C   0  0  0  0  0  3  0  0  0  0  0  0
  -22.8720  -10.2010   20.2700 C   0  0  0  0  0  3  0  0  0  0  0  0
  -21.7330   -6.9330   21.4750 O   0  0  0  0  0  0  0  0  0  0  0  0
  -21.6460   -6.1960   22.6290 C   0  0  0  0  0  0  0  0  0  0  0  0
  -21.1900   -6.7610   23.8410 C   0  0  0  0  0  3  0  0  0  0  0  0
  -21.0490   -5.9510   24.9860 C   0  0  0  0  0  3  0  0  0  0  0  0
  -21.3530   -4.5780   24.9200 C   0  0  0  0  0  0  0  0  0  0  0  0
  -21.8030   -4.0120   23.7130 C   0  0  0  0  0  3  0  0  0  0  0  0
  -21.9450   -4.8200   22.5710 C   0  0  0  0  0  0  0  0  0  0  0  0
  -22.3570   -4.2670   21.4050 F   0  0  0  0  0  0  0  0  0  0  0  0
  -21.2110   -3.7990   26.0170 F   0  0  0  0  0  0  0  0  0  0  0  0
  -22.8880  -13.5530   21.1230 C   0  0  0  0  0  0  0  0  0  0  0  0
  -22.1280  -12.8710   21.9720 N   0  0  0  0  0  0  0  0  0  0  0  0
  -22.4750  -14.5750   20.5760 O   0  0  0  0  0  0  0  0  0  0  0  0
  -22.4760  -12.0490   22.4440 H   0  0  0  0  0  0  0  0  0  0  0  0
  -21.1840  -13.1780   22.1590 H   0  0  0  0  0  0  0  0  0  0  0  0
  -25.5410  -15.2000   20.3690 N   0  0  0  0  0  0  0  0  0  0  0  0
  -24.7690  -15.8530   20.4520 H   0  0  0  0  0  0  0  0  0  0  0  0
  -26.3840  -15.6320   20.0180 H   0  0  0  0  0  0  0  0  0  0  0  0
  -32.9670  -19.9830   21.4220 N   0  0  0  0  0  0  0  0  0  0  0  0
  -33.6210  -19.2560   21.6860 H   0  0  0  0  0  0  0  0  0  0  0  0
  -33.3100  -20.9360   21.4900 H   0  0  0  0  0  0  0  0  0  0  0  0
  -31.3300  -22.1900   20.8070 C   0  0  0  0  0  3  0  0  0  0  0  0
  -32.1180  -22.7790   19.8900 C   0  0  0  0  0  3  0  0  0  0  0  0
  -33.4490  -24.6730   19.1120 C   0  0  0  0  0  2  0  0  0  0  0  0
  -32.6200  -24.1300   20.0190 C   0  0  0  0  0  3  0  0  0  0  0  0
  -28.5960  -21.9740   19.8030 C   0  0  0  0  0  0  0  0  0  0  0  0
  -28.0350  -21.9380   18.7070 O   0  0  0  0  0  0  0  0  0  0  0  0
  -28.3430  -23.3150   20.6930 C   0  0  0  0  0  3  0  0  0  0  0  0
  -28.1070  -24.7530   20.7000 C   0  0  0  0  0  3  0  0  0  0  0  0
  -28.0810  -25.9860   19.8800 O   0  0  0  0  0  0  0  0  0  0  0  0
  -24.6390  -31.8180   23.1230 C   0  0  0  0  0  0  0  0  0  0  0  0
  -27.0730  -27.0380   19.9910 C   0  0  0  0  0  0  0  0  0  0  0  0
  -23.3850  -30.4470   21.5070 C   0  0  0  0  0  3  0  0  0  0  0  0
  -24.7780  -28.8590   20.0360 C   0  0  0  0  0  0  0  0  0  0  0  0
  -25.9410  -30.6700   21.2780 C   0  0  0  0  0  2  0  0  0  0  0  0
  -25.9830  -29.2710   20.6220 C   0  0  0  0  0  0  0  0  0  0  0  0
  -27.1330  -28.3800   20.5790 C   0  0  0  0  0  3  0  0  0  0  0  0
  -25.8410  -26.7490   19.3710 C   0  0  0  0  0  3  0  0  0  0  0  0
  -24.7230  -27.6130   19.3950 C   0  0  0  0  0  3  0  0  0  0  0  0
  -23.5660  -29.7790   20.1180 C   0  0  0  0  0  2  0  0  0  0  0  0
  -24.6780  -31.0020   22.0240 N   0  0  0  0  0  0  0  0  0  0  0  0
  -23.5670  -32.1080   23.6790 O   0  0  0  0  0  0  0  0  0  0  0  0
  -22.7180  -29.4420   22.4800 C   0  0  0  0  0  0  0  0  0  0  0  0
  -21.3850  -29.2850   22.3870 N   0  0  0  0  0  0  0  0  0  0  0  0
  -23.4020  -28.8050   23.2840 O   0  0  0  0  0  0  0  0  0  0  0  0
  -20.8870  -29.8480   21.7130 H   0  0  0  0  0  0  0  0  0  0  0  0
  -18.0110  -28.0780   22.9460 C   0  0  0  0  0  0  0  0  0  0  0  0
  -20.5740  -28.3460   23.1700 C   0  0  0  0  0  3  0  0  0  0  0  0
  -20.6690  -26.9140   22.5930 C   0  0  0  0  0  2  0  0  0  0  0  0
  -19.5500  -26.5890   21.5980 C   0  0  0  0  0  2  0  0  0  0  0  0
  -18.1790  -26.7310   22.2640 C   0  0  0  0  0  2  0  0  0  0  0  0
  -19.1350  -28.8440   23.3560 C   0  0  0  0  0  0  0  0  0  0  0  0
  -18.9210  -30.1040   23.9580 C   0  0  0  0  0  3  0  0  0  0  0  0
  -17.6160  -30.5980   24.1500 C   0  0  0  0  0  3  0  0  0  0  0  0
  -16.5090  -29.8290   23.7530 C   0  0  0  0  0  3  0  0  0  0  0  0
  -16.7060  -28.5720   23.1570 C   0  0  0  0  0  3  0  0  0  0  0  0
  -25.9340  -32.4390   23.7260 C   0  0  0  0  0  3  0  0  0  0  0  0
  -25.6300  -33.8280   24.1090 N   0  0  0  0  0  0  0  0  0  0  0  0
  -25.9400  -34.9110   23.3830 C   0  0  0  0  0  0  0  0  0  0  0  0
  -26.5760  -34.8450   22.3280 O   0  0  0  0  0  0  0  0  0  0  0  0
  -25.0620  -33.9510   24.9340 H   0  0  0  0  0  0  0  0  0  0  0  0
  -24.2020  -36.7190   23.1640 C   0  0  0  0  0  1  0  0  0  0  0  0
  -25.4740  -36.2840   23.9090 C   0  0  0  0  0  3  0  0  0  0  0  0
  -27.6410  -37.1440   24.6810 C   0  0  0  0  0  1  0  0  0  0  0  0
  -26.5010  -37.3420   23.7890 N   0  0  0  0  0  0  0  0  0  0  0  0
  -26.1020  -38.2560   23.9820 H   0  0  0  0  0  0  0  0  0  0  0  0
  -26.4880  -31.6360   24.9670 C   0  0  1  0  0  0  0  0  0  0  0  0
  -25.4300  -31.3780   26.0660 C   0  0  0  0  0  1  0  0  0  0  0  0
  -27.0500  -30.2660   24.5270 C   0  0  0  0  0  1  0  0  0  0  0  0
  -27.6650  -32.4090   25.6070 C   0  0  0  0  0  1  0  0  0  0  0  0
  1  3  2  0
  1  5  1  0
  2  6  1  0
  3  4  1  0
  4 48  1  0
  4  6  2  0
  5  2  2  0
  6 45  1  0
  7 13  1  0
  8 13  1  0
  9 10  1  0
  9  8  1  0
 11 10  1  0
 11 20  1  0
 11 12  1  0
 13 12  1  0
 14  7  2  0
 15  5  1  0
 15  7  1  0
 16 15  1  0
 17 18  2  0
 18 37  1  0
 19 18  1  0
 19 22  1  0
 20 17  1  0
 20 21  1  0
 21 19  2  0
 22 23  1  0
 23 24  2  0
 25 28  1  0
 25 24  1  0
 26 25  2  0
 27 26  1  0
 27 22  2  0
 28 29  1  0
 29 30  1  0
 30 31  2  0
 32 31  1  0
 32 36  1  0
 33 32  2  0
 34 29  2  0
 34 33  1  0
 35 34  1  0
 37 38  1  0
 38 41  1  0
 38 40  1  0
 39 37  2  0
 42 43  1  0
 42 17  1  0
 44 42  1  0
 45 47  1  0
 45 46  1  0
 49 51  1  0
 49 48  2  0
 50 51  2  0
 52  3  1  0
 52 54  1  0
 53 52  2  0
 54 55  2  0
 56 58  1  0
 56 55  1  0
 57 68  2  0
 58 63  1  0
 59 67  1  0
 59 69  1  0
 60 66  1  0
 60 62  1  0
 61 67  1  0
 62 61  1  0
 63 62  2  0
 64 65  1  0
 64 58  2  0
 65 60  2  0
 66 59  1  0
 67 57  1  0
 69 71  2  0
 70 69  1  0
 72 70  1  0
 73 82  2  0
 73 78  1  0
 74 70  1  0
 74 78  1  0
 75 74  1  0
 76 77  1  0
 76 75  1  0
 77 73  1  0
 78 79  2  0
 79 80  1  0
 81 80  2  0
 82 81  1  0
 83 57  1  0
 83 84  1  0
 83 93  1  0
 84 87  1  0
 85 89  1  0
 85 84  1  0
 86 85  2  0
 89 88  1  0
 91 89  1  0
 91 92  1  0
 91 90  1  0
 93 96  1  1
 93 94  1  0
 95 93  1  0
M  ISO  4   7 100  15 100  55 101  56 101
M  END
>  <TORSDO>  (18) 
F 21

>  <SCORE>  (18) 
-13.592

>  <name>  (18) 
17

>  <ligand_id>  (18) 
17

>  <original_smiles>  (18) 
[H]C([H])=C([H])C([H])=C([H])c1c(C(=O)C([H])=C([H])Oc2c([H])c([H])c3c(c2[H])C([H])([H])N(C(=O)C([H])(N([H])C(=O)C([H])(N([H])C([H])([H])[H])C([H])([H])[H])C(C([H])([H])[H])(C([H])([H])[H])C([H])([H])[H])C([H])(C(=O)N([H])C2([H])c4c([H])c([H])c([H])c([H])c4C([H])([H])C([H])([H])C2([H])[H])C3([H])[H])c([H])c(N([H])C(=O)N2C([H])([H])C([H])([H])C([H])([H])C([H])(n3nc(-c4c([H])c([H])c(Oc5c([H])c([H])c(F)c([H])c5F)c([H])c4[H])c(C(=O)N([H])[H])c3N([H])[H])C2([H])[H])c([H])c1N([H])[H]

>  <smiles>  (18) 
[H]C([H])=C([H])C([H])=C([H])c1c(C(=O)C([H])=C([H])Oc2c([H])c([H])c3c(c2[H])C([H])([H])N(C(=O)C([H])(N([H])C(=O)C([H])(N([H])C([H])([H])[H])C([H])([H])[H])C(C([H])([H])[H])(C([H])([H])[H])C([H])([H])[H])C([H])(C(=O)N([H])C2([H])c4c([H])c([H])c([H])c([H])c4C([H])([H])C([H])([H])C2([H])[H])C3([H])[H])c([H])c(N([H])C(=O)N2C([H])([H])C([H])([H])C([H])([H])C([H])(n3nc(-c4c([H])c([H])c(Oc5c([H])c([H])c(F)c([H])c5F)c([H])c4[H])c(C(=O)N([H])[H])c3N([H])[H])C2([H])[H])c([H])c1N([H])[H]

$$$$
18:0:0
     RDKit          3D

 91 99  0  0  1  0  0  0  0  0999 V2000
  -29.1270  -22.4230   20.4690 C   0  0  0  0  0  3  0  0  0  0  0  0
  -28.8500  -21.1290   20.3710 N   0  0  0  0  0  0  0  0  0  0  0  0
  -29.3810  -18.5890   20.5370 C   0  0  0  0  0  3  0  0  0  0  0  0
  -31.1790  -20.2170   20.3810 C   0  0  0  0  0  3  0  0  0  0  0  0
  -31.6680  -17.8030   20.3730 C   0  0  0  0  0  3  0  0  0  0  0  0
  -29.7800  -19.9990   20.4610 C   0  0  0  0  0  0  0  0  0  0  0  0
  -30.3000  -17.4470   20.4960 C   0  0  0  0  0  0  0  0  0  0  0  0
  -32.0950  -19.1480   20.3360 C   0  0  0  0  0  0  0  0  0  0  0  0
  -33.4210  -19.4220   20.2440 F   0  0  0  0  0  0  0  0  0  0  0  0
  -30.6090  -14.8100   20.3320 C   0  0  0  0  0  0  0  0  0  0  0  0
  -30.3440  -12.5360   19.3080 C   0  0  0  0  0  2  0  0  0  0  0  0
  -29.4120  -12.6370   18.0830 C   0  0  0  0  0  2  0  0  0  0  0  0
  -27.9360  -12.4940   18.4950 C   0  0  0  0  0  2  0  0  0  0  0  0
  -27.5790  -13.3250   19.7560 C   0  0  0  0  0  3  0  0  0  0  0  0
  -28.6510  -13.2380   20.8680 C   0  0  0  0  0  2  0  0  0  0  0  0
  -29.9400  -13.5970   20.2660 N   0  0  0  0  0  0  0  0  0  0  0  0
  -31.7910  -14.8390   19.9860 O   0  0  0  0  0  0  0  0  0  0  0  0
  -29.8960  -15.9940   20.5790 N   0  0  0  0  0  0  0  0  0  0  0  0
  -28.9240  -15.8380   20.8030 H   0  0  0  0  0  0  0  0  0  0  0  0
  -25.1870  -13.8790   20.4900 C   0  0  0  0  0  0  0  0  0  0  0  0
  -24.1340  -13.0940   20.8670 C   0  0  0  0  0  0  0  0  0  0  0  0
  -24.6100  -11.7470   20.8360 C   0  0  0  0  0  0  0  0  0  0  0  0
  -26.2400  -13.0140   20.2520 N   0  0  0  0  0  0  0  0  0  0  0  0
  -25.9030  -11.7260   20.5280 N   0  0  0  0  0  0  0  0  0  0  0  0
  -23.8930  -10.4770   21.0290 C   0  0  0  0  0  0  0  0  0  0  0  0
  -24.3380   -9.5120   21.9580 C   0  0  0  0  0  3  0  0  0  0  0  0
  -23.6180   -8.3110   22.1420 C   0  0  0  0  0  3  0  0  0  0  0  0
  -22.4370   -8.0670   21.3990 C   0  0  0  0  0  0  0  0  0  0  0  0
  -22.0100   -9.0240   20.4620 C   0  0  0  0  0  3  0  0  0  0  0  0
  -22.7310  -10.2170   20.2750 C   0  0  0  0  0  3  0  0  0  0  0  0
  -21.6860   -6.9190   21.4960 O   0  0  0  0  0  0  0  0  0  0  0  0
  -21.6590   -6.1720   22.6460 C   0  0  0  0  0  0  0  0  0  0  0  0
  -21.2510   -6.7190   23.8820 C   0  0  0  0  0  3  0  0  0  0  0  0
  -21.1720   -5.8990   25.0230 C   0  0  0  0  0  3  0  0  0  0  0  0
  -21.4840   -4.5280   24.9300 C   0  0  0  0  0  0  0  0  0  0  0  0
  -21.8830   -3.9800   23.6980 C   0  0  0  0  0  3  0  0  0  0  0  0
  -21.9670   -4.7980   22.5580 C   0  0  0  0  0  0  0  0  0  0  0  0
  -22.3300   -4.2580   21.3690 F   0  0  0  0  0  0  0  0  0  0  0  0
  -21.4030   -3.7360   26.0250 F   0  0  0  0  0  0  0  0  0  0  0  0
  -22.7330  -13.5600   21.1360 C   0  0  0  0  0  0  0  0  0  0  0  0
  -22.0130  -12.8670   22.0100 N   0  0  0  0  0  0  0  0  0  0  0  0
  -22.2880  -14.5750   20.6040 O   0  0  0  0  0  0  0  0  0  0  0  0
  -22.3910  -12.0490   22.4610 H   0  0  0  0  0  0  0  0  0  0  0  0
  -21.0720  -13.1620   22.2330 H   0  0  0  0  0  0  0  0  0  0  0  0
  -25.3300  -15.2510   20.3060 N   0  0  0  0  0  0  0  0  0  0  0  0
  -24.5590  -15.8950   20.4330 H   0  0  0  0  0  0  0  0  0  0  0  0
  -26.1700  -15.7060   19.9700 H   0  0  0  0  0  0  0  0  0  0  0  0
  -26.7270  -23.2370   19.9750 C   0  0  0  0  0  1  0  0  0  0  0  0
  -28.2030  -23.6860   20.0550 C   0  0  0  0  0  3  0  0  0  0  0  0
  -28.3400  -25.1030   20.8450 C   0  0  0  0  0  2  0  0  0  0  0  0
  -28.3510  -26.4540   20.1820 O   0  0  0  0  0  0  0  0  0  0  0  0
  -24.6030  -31.8810   23.2290 C   0  0  0  0  0  0  0  0  0  0  0  0
  -27.2260  -27.3010   20.2080 C   0  0  0  0  0  0  0  0  0  0  0  0
  -23.4020  -30.4750   21.5950 C   0  0  0  0  0  3  0  0  0  0  0  0
  -24.8550  -28.9080   20.1870 C   0  0  0  0  0  0  0  0  0  0  0  0
  -25.9320  -30.8120   21.3810 C   0  0  0  0  0  2  0  0  0  0  0  0
  -26.0240  -29.4130   20.7740 C   0  0  0  0  0  0  0  0  0  0  0  0
  -27.2120  -28.6200   20.7720 C   0  0  0  0  0  3  0  0  0  0  0  0
  -26.0450  -26.8710   19.5760 C   0  0  0  0  0  3  0  0  0  0  0  0
  -24.8660  -27.6430   19.5780 C   0  0  0  0  0  3  0  0  0  0  0  0
  -23.6130  -29.7770   20.2250 C   0  0  0  0  0  2  0  0  0  0  0  0
  -24.6680  -31.0750   22.1280 N   0  0  0  0  0  0  0  0  0  0  0  0
  -23.5200  -32.1510   23.7700 O   0  0  0  0  0  0  0  0  0  0  0  0
  -22.7470  -29.4630   22.5670 C   0  0  0  0  0  0  0  0  0  0  0  0
  -21.4180  -29.2880   22.4520 N   0  0  0  0  0  0  0  0  0  0  0  0
  -23.4300  -28.8360   23.3780 O   0  0  0  0  0  0  0  0  0  0  0  0
  -20.9240  -29.8510   21.7730 H   0  0  0  0  0  0  0  0  0  0  0  0
  -18.0400  -28.0920   22.9550 C   0  0  0  0  0  0  0  0  0  0  0  0
  -20.6000  -28.3460   23.2190 C   0  0  0  0  0  3  0  0  0  0  0  0
  -20.6960  -26.9160   22.6360 C   0  0  0  0  0  2  0  0  0  0  0  0
  -19.5890  -26.6010   21.6250 C   0  0  0  0  0  2  0  0  0  0  0  0
  -18.2110  -26.7450   22.2770 C   0  0  0  0  0  2  0  0  0  0  0  0
  -19.1600  -28.8520   23.3830 C   0  0  0  0  0  0  0  0  0  0  0  0
  -18.9460  -30.1150   23.9760 C   0  0  0  0  0  3  0  0  0  0  0  0
  -17.6420  -30.6160   24.1480 C   0  0  0  0  0  3  0  0  0  0  0  0
  -16.5350  -29.8540   23.7350 C   0  0  0  0  0  3  0  0  0  0  0  0
  -16.7370  -28.5940   23.1450 C   0  0  0  0  0  3  0  0  0  0  0  0
  -25.8800  -32.5230   23.8540 C   0  0  0  0  0  3  0  0  0  0  0  0
  -26.3930  -31.7540   25.1310 C   0  0  1  0  0  0  0  0  0  0  0  0
  -25.3050  -31.5260   26.2060 C   0  0  0  0  0  1  0  0  0  0  0  0
  -26.9640  -30.3730   24.7300 C   0  0  0  0  0  1  0  0  0  0  0  0
  -27.5520  -32.5430   25.7900 C   0  0  0  0  0  1  0  0  0  0  0  0
  -25.5700  -33.9220   24.1800 N   0  0  0  0  0  0  0  0  0  0  0  0
  -25.9030  -34.9740   23.4170 C   0  0  0  0  0  0  0  0  0  0  0  0
  -26.5720  -34.8680   22.3860 O   0  0  0  0  0  0  0  0  0  0  0  0
  -24.9770  -34.0800   24.9810 H   0  0  0  0  0  0  0  0  0  0  0  0
  -24.1730  -36.7680   23.0580 C   0  0  0  0  0  1  0  0  0  0  0  0
  -25.4130  -36.3630   23.8730 C   0  0  0  0  0  3  0  0  0  0  0  0
  -27.5500  -37.2570   24.6950 C   0  0  0  0  0  1  0  0  0  0  0  0
  -26.4430  -37.4170   23.7550 N   0  0  0  0  0  0  0  0  0  0  0  0
  -26.0360  -38.3360   23.9010 H   0  0  0  0  0  0  0  0  0  0  0  0
  2  6  1  0
  2  1  2  0
  4  6  1  0
  5  7  2  0
  6  3  2  0
  7  3  1  0
  7 18  1  0
  8  5  1  0
  8  4  2  0
  9  8  1  0
 10 18  1  0
 11 16  1  0
 12 13  1  0
 12 11  1  0
 14 13  1  0
 14 23  1  0
 14 15  1  0
 16 10  1  0
 16 15  1  0
 17 10  2  0
 18 19  1  0
 20 21  2  0
 21 40  1  0
 22 21  1  0
 22 25  1  0
 23 20  1  0
 23 24  1  0
 24 22  2  0
 25 26  1  0
 26 27  2  0
 28 31  1  0
 28 27  1  0
 29 28  2  0
 30 29  1  0
 30 25  2  0
 31 32  1  0
 32 33  1  0
 33 34  2  0
 35 34  1  0
 35 39  1  0
 36 35  2  0
 37 32  2  0
 37 36  1  0
 38 37  1  0
 40 41  1  0
 41 44  1  0
 41 43  1  0
 42 40  2  0
 45 46  1  0
 45 20  1  0
 47 45  1  0
 49 48  1  0
 49  1  1  0
 49 50  1  0
 51 53  1  0
 51 50  1  0
 52 63  2  0
 53 58  1  0
 54 62  1  0
 54 64  1  0
 55 61  1  0
 55 57  1  0
 56 62  1  0
 57 56  1  0
 58 57  2  0
 59 60  1  0
 59 53  2  0
 60 55  2  0
 61 54  1  0
 62 52  1  0
 64 66  2  0
 65 64  1  0
 67 65  1  0
 68 77  2  0
 68 73  1  0
 69 65  1  0
 69 73  1  0
 70 69  1  0
 71 72  1  0
 71 70  1  0
 72 68  1  0
 73 74  2  0
 74 75  1  0
 76 75  2  0
 77 76  1  0
 78 52  1  0
 78 83  1  0
 78 79  1  0
 79 82  1  1
 79 80  1  0
 81 79  1  0
 83 86  1  0
 84 88  1  0
 84 83  1  0
 85 84  2  0
 88 87  1  0
 90 88  1  0
 90 91  1  0
 90 89  1  0
M  ISO  4  10 100  18 100  50 101  51 101
M  END
>  <TORSDO>  (19) 
F 19

>  <SCORE>  (19) 
-14.382

>  <name>  (19) 
18

>  <ligand_id>  (19) 
18

>  <original_smiles>  (19) 
[H]C(=Nc1c([H])c(F)c([H])c(N([H])C(=O)N2C([H])([H])C([H])([H])C([H])([H])C([H])(n3nc(-c4c([H])c([H])c(Oc5c([H])c([H])c(F)c([H])c5F)c([H])c4[H])c(C(=O)N([H])[H])c3N([H])[H])C2([H])[H])c1[H])C([H])(C([H])([H])[H])C([H])([H])Oc1c([H])c([H])c2c(c1[H])C([H])([H])N(C(=O)C([H])(N([H])C(=O)C([H])(N([H])C([H])([H])[H])C([H])([H])[H])C(C([H])([H])[H])(C([H])([H])[H])C([H])([H])[H])C([H])(C(=O)N([H])C1([H])c3c([H])c([H])c([H])c([H])c3C([H])([H])C([H])([H])C1([H])[H])C2([H])[H]

>  <smiles>  (19) 
[H]C(=Nc1c([H])c(F)c([H])c(N([H])C(=O)N2C([H])([H])C([H])([H])C([H])([H])C([H])(n3nc(-c4c([H])c([H])c(Oc5c([H])c([H])c(F)c([H])c5F)c([H])c4[H])c(C(=O)N([H])[H])c3N([H])[H])C2([H])[H])c1[H])C([H])(C([H])([H])[H])C([H])([H])Oc1c([H])c([H])c2c(c1[H])C([H])([H])N(C(=O)C([H])(N([H])C(=O)C([H])(N([H])C([H])([H])[H])C([H])([H])[H])C(C([H])([H])[H])(C([H])([H])[H])C([H])([H])[H])C([H])(C(=O)N([H])C1([H])c3c([H])c([H])c([H])c([H])c3C([H])([H])C([H])([H])C1([H])[H])C2([H])[H]

$$$$
19:0:0
     RDKit          3D

 95103  0  0  1  0  0  0  0  0999 V2000
  -30.9490  -18.9780   18.0970 C   0  0  0  0  0  3  0  0  0  0  0  0
  -30.0250  -18.7980   20.6880 C   0  0  0  0  0  3  0  0  0  0  0  0
  -30.7580  -17.6900   18.6500 C   0  0  0  0  0  0  0  0  0  0  0  0
  -30.3460  -17.5410   20.0140 C   0  0  0  0  0  0  0  0  0  0  0  0
  -30.6570  -20.1660   18.7900 C   0  0  0  0  0  0  0  0  0  0  0  0
  -30.1120  -20.1180   20.0930 C   0  0  0  0  0  0  0  0  0  0  0  0
  -30.1020  -16.1470   20.6990 C   0  0  0  0  0  0  0  0  0  0  0  0
  -29.2230  -16.1250   21.6130 N   0  0  0  0  0  0  0  0  0  0  0  0
  -28.8060  -17.0380   21.7460 H   0  0  0  0  0  0  0  0  0  0  0  0
  -30.9180  -14.8100   20.3020 C   0  0  0  0  0  0  0  0  0  0  0  0
  -30.6830  -12.5860   19.1940 C   0  0  0  0  0  2  0  0  0  0  0  0
  -29.7200  -12.7100   17.9900 C   0  0  0  0  0  2  0  0  0  0  0  0
  -28.2500  -12.5550   18.4300 C   0  0  0  0  0  2  0  0  0  0  0  0
  -27.9120  -13.3740   19.7040 C   0  0  0  0  0  3  0  0  0  0  0  0
  -28.9860  -13.1650   20.7890 C   0  0  0  0  0  2  0  0  0  0  0  0
  -30.2780  -13.5820   20.2170 N   0  0  0  0  0  0  0  0  0  0  0  0
  -32.0950  -14.9040   19.9370 O   0  0  0  0  0  0  0  0  0  0  0  0
  -25.5200  -13.9550   20.4410 C   0  0  0  0  0  0  0  0  0  0  0  0
  -24.4580  -13.1750   20.8100 C   0  0  0  0  0  0  0  0  0  0  0  0
  -24.9300  -11.8250   20.7730 C   0  0  0  0  0  0  0  0  0  0  0  0
  -26.5690  -13.0820   20.1980 N   0  0  0  0  0  0  0  0  0  0  0  0
  -26.2190  -11.7960   20.4580 N   0  0  0  0  0  0  0  0  0  0  0  0
  -24.2120  -10.5590   20.9640 C   0  0  0  0  0  0  0  0  0  0  0  0
  -24.6340   -9.6070   21.9180 C   0  0  0  0  0  3  0  0  0  0  0  0
  -23.9150   -8.4050   22.0940 C   0  0  0  0  0  3  0  0  0  0  0  0
  -22.7610   -8.1470   21.3160 C   0  0  0  0  0  0  0  0  0  0  0  0
  -22.3590   -9.0880   20.3520 C   0  0  0  0  0  3  0  0  0  0  0  0
  -23.0780  -10.2810   20.1750 C   0  0  0  0  0  3  0  0  0  0  0  0
  -22.0160   -6.9960   21.4020 O   0  0  0  0  0  0  0  0  0  0  0  0
  -21.9140   -6.2910   22.5740 C   0  0  0  0  0  0  0  0  0  0  0  0
  -21.3670   -6.8590   23.7450 C   0  0  0  0  0  3  0  0  0  0  0  0
  -21.2180   -6.0740   24.9060 C   0  0  0  0  0  3  0  0  0  0  0  0
  -21.6070   -4.7220   24.8980 C   0  0  0  0  0  0  0  0  0  0  0  0
  -22.1470   -4.1520   23.7320 C   0  0  0  0  0  3  0  0  0  0  0  0
  -22.2960   -4.9330   22.5730 C   0  0  0  0  0  0  0  0  0  0  0  0
  -22.7990   -4.3730   21.4460 F   0  0  0  0  0  0  0  0  0  0  0  0
  -21.4560   -3.9670   26.0110 F   0  0  0  0  0  0  0  0  0  0  0  0
  -23.0610  -13.6450   21.0950 C   0  0  0  0  0  0  0  0  0  0  0  0
  -22.3440  -12.9420   21.9640 N   0  0  0  0  0  0  0  0  0  0  0  0
  -22.6140  -14.6700   20.5820 O   0  0  0  0  0  0  0  0  0  0  0  0
  -22.7160  -12.1100   22.3990 H   0  0  0  0  0  0  0  0  0  0  0  0
  -21.4060  -13.2370   22.1970 H   0  0  0  0  0  0  0  0  0  0  0  0
  -25.6800  -15.3280   20.2740 N   0  0  0  0  0  0  0  0  0  0  0  0
  -24.9280  -15.9890   20.4330 H   0  0  0  0  0  0  0  0  0  0  0  0
  -26.5690  -15.7720   20.0830 H   0  0  0  0  0  0  0  0  0  0  0  0
  -32.1450  -21.9510   18.5690 C   0  0  0  0  0  1  0  0  0  0  0  0
  -30.9290  -21.3470   18.1530 O   0  0  0  0  0  0  0  0  0  0  0  0
  -31.9640  -16.4780   16.8100 C   0  0  0  0  0  2  0  0  0  0  0  0
  -30.9920  -16.5550   17.7360 C   0  0  0  0  0  3  0  0  0  0  0  0
  -29.7610  -21.3170   20.7730 O   0  0  0  0  0  0  0  0  0  0  0  0
  -28.9480  -22.3730   20.1080 C   0  0  0  0  0  2  0  0  0  0  0  0
  -29.1910  -23.8910   20.5370 C   0  0  0  0  0  0  0  0  0  0  0  0
  -30.1760  -24.2070   21.2140 O   0  0  0  0  0  0  0  0  0  0  0  0
  -28.1370  -24.9860   20.0730 C   0  0  0  0  0  2  0  0  0  0  0  0
  -28.3830  -26.4380   20.3440 O   0  0  0  0  0  0  0  0  0  0  0  0
  -24.5750  -31.8620   23.2650 C   0  0  0  0  0  0  0  0  0  0  0  0
  -27.2700  -27.3040   20.2560 C   0  0  0  0  0  0  0  0  0  0  0  0
  -23.4020  -30.4440   21.6210 C   0  0  0  0  0  3  0  0  0  0  0  0
  -24.8860  -28.9050   20.2150 C   0  0  0  0  0  0  0  0  0  0  0  0
  -25.9420  -30.7870   21.4600 C   0  0  0  0  0  2  0  0  0  0  0  0
  -26.0460  -29.4040   20.8210 C   0  0  0  0  0  0  0  0  0  0  0  0
  -27.2390  -28.6160   20.8330 C   0  0  0  0  0  3  0  0  0  0  0  0
  -26.0850  -26.8740   19.6130 C   0  0  0  0  0  3  0  0  0  0  0  0
  -24.9090  -27.6460   19.6010 C   0  0  0  0  0  3  0  0  0  0  0  0
  -23.6370  -29.7650   20.2460 C   0  0  0  0  0  2  0  0  0  0  0  0
  -24.6580  -31.0480   22.1710 N   0  0  0  0  0  0  0  0  0  0  0  0
  -23.4830  -32.1320   23.7870 O   0  0  0  0  0  0  0  0  0  0  0  0
  -22.7400  -29.4250   22.5790 C   0  0  0  0  0  0  0  0  0  0  0  0
  -21.4280  -29.1940   22.4040 N   0  0  0  0  0  0  0  0  0  0  0  0
  -23.4090  -28.8450   23.4380 O   0  0  0  0  0  0  0  0  0  0  0  0
  -20.9480  -29.7150   21.6840 H   0  0  0  0  0  0  0  0  0  0  0  0
  -18.0920  -27.8420   22.7700 C   0  0  0  0  0  0  0  0  0  0  0  0
  -20.6150  -28.2430   23.1660 C   0  0  0  0  0  3  0  0  0  0  0  0
  -20.8200  -26.7990   22.6530 C   0  0  0  0  0  2  0  0  0  0  0  0
  -19.7930  -26.3830   21.5950 C   0  0  0  0  0  2  0  0  0  0  0  0
  -18.3710  -26.4790   22.1580 C   0  0  0  0  0  2  0  0  0  0  0  0
  -19.1450  -28.6760   23.2290 C   0  0  0  0  0  0  0  0  0  0  0  0
  -18.8300  -29.9460   23.7590 C   0  0  0  0  0  3  0  0  0  0  0  0
  -17.4940  -30.3840   23.8340 C   0  0  0  0  0  3  0  0  0  0  0  0
  -16.4550  -29.5470   23.3900 C   0  0  0  0  0  3  0  0  0  0  0  0
  -16.7530  -28.2790   22.8640 C   0  0  0  0  0  3  0  0  0  0  0  0
  -25.8440  -32.5110   23.8980 C   0  0  0  0  0  3  0  0  0  0  0  0
  -25.5210  -33.9140   24.1990 N   0  0  0  0  0  0  0  0  0  0  0  0
  -25.8640  -34.9560   23.4300 C   0  0  0  0  0  0  0  0  0  0  0  0
  -26.5520  -34.8370   22.4130 O   0  0  0  0  0  0  0  0  0  0  0  0
  -24.9100  -34.0790   24.9860 H   0  0  0  0  0  0  0  0  0  0  0  0
  -24.1510  -36.7460   22.9990 C   0  0  0  0  0  1  0  0  0  0  0  0
  -25.3640  -36.3500   23.8570 C   0  0  0  0  0  3  0  0  0  0  0  0
  -27.4660  -37.2490   24.7540 C   0  0  0  0  0  1  0  0  0  0  0  0
  -26.4020  -37.4000   23.7640 N   0  0  0  0  0  0  0  0  0  0  0  0
  -25.9940  -38.3230   23.8750 H   0  0  0  0  0  0  0  0  0  0  0  0
  -26.3400  -31.7640   25.1970 C   0  0  1  0  0  0  0  0  0  0  0  0
  -25.2270  -31.5350   26.2450 C   0  0  0  0  0  1  0  0  0  0  0  0
  -26.9400  -30.3850   24.8390 C   0  0  0  0  0  1  0  0  0  0  0  0
  -27.4740  -32.5760   25.8660 C   0  0  0  0  0  1  0  0  0  0  0  0
  1  3  2  0
  1  5  1  0
  3  4  1  0
  4  2  2  0
  4  7  1  0
  5  6  2  0
  6  2  1  0
  6 50  1  0
  7  8  2  0
  8  9  1  0
 10  7  1  0
 11 16  1  0
 12 13  1  0
 12 11  1  0
 14 13  1  0
 14 21  1  0
 14 15  1  0
 16 10  1  0
 16 15  1  0
 17 10  2  0
 18 19  2  0
 19 38  1  0
 20 19  1  0
 20 23  1  0
 21 18  1  0
 21 22  1  0
 22 20  2  0
 23 24  1  0
 24 25  2  0
 26 29  1  0
 26 25  1  0
 27 26  2  0
 28 27  1  0
 28 23  2  0
 29 30  1  0
 30 31  1  0
 31 32  2  0
 33 32  1  0
 33 37  1  0
 34 33  2  0
 35 30  2  0
 35 34  1  0
 36 35  1  0
 38 39  1  0
 39 42  1  0
 39 41  1  0
 40 38  2  0
 43 44  1  0
 43 18  1  0
 45 43  1  0
 47 46  1  0
 47  5  1  0
 48 49  2  0
 49  3  1  0
 51 52  1  0
 51 50  1  0
 52 53  2  0
 54 55  1  0
 54 52  1  0
 56 67  2  0
 57 55  1  0
 57 62  1  0
 58 66  1  0
 58 68  1  0
 59 65  1  0
 59 61  1  0
 60 66  1  0
 61 62  2  0
 61 60  1  0
 63 57  2  0
 64 63  1  0
 64 59  2  0
 65 58  1  0
 66 56  1  0
 68 70  2  0
 69 68  1  0
 71 69  1  0
 72 81  2  0
 72 77  1  0
 73 69  1  0
 73 77  1  0
 74 73  1  0
 75 76  1  0
 75 74  1  0
 76 72  1  0
 77 78  2  0
 78 79  1  0
 80 79  2  0
 81 80  1  0
 82 56  1  0
 82 83  1  0
 82 92  1  0
 83 86  1  0
 84 88  1  0
 84 83  1  0
 85 84  2  0
 88 87  1  0
 90 88  1  0
 90 91  1  0
 90 89  1  0
 92 95  1  1
 92 93  1  0
 94 92  1  0
M  ISO  4   7 100  10 100  54 101  55 101
M  END
>  <TORSDO>  (20) 
F 23

>  <SCORE>  (20) 
-12.450

>  <name>  (20) 
19

>  <ligand_id>  (20) 
19

>  <original_smiles>  (20) 
[H]N=C(C(=O)N1C([H])([H])C([H])([H])C([H])([H])C([H])(n2nc(-c3c([H])c([H])c(Oc4c([H])c([H])c(F)c([H])c4F)c([H])c3[H])c(C(=O)N([H])[H])c2N([H])[H])C1([H])[H])c1c([H])c(OC([H])([H])C(=O)C([H])([H])Oc2c([H])c([H])c3c(c2[H])C([H])([H])N(C(=O)C([H])(N([H])C(=O)C([H])(N([H])C([H])([H])[H])C([H])([H])[H])C(C([H])([H])[H])(C([H])([H])[H])C([H])([H])[H])C([H])(C(=O)N([H])C2([H])c4c([H])c([H])c([H])c([H])c4C([H])([H])C([H])([H])C2([H])[H])C3([H])[H])c(OC([H])([H])[H])c([H])c1C([H])=C([H])[H]

>  <smiles>  (20) 
[H]N=C(C(=O)N1C([H])([H])C([H])([H])C([H])([H])C([H])(n2nc(-c3c([H])c([H])c(Oc4c([H])c([H])c(F)c([H])c4F)c([H])c3[H])c(C(=O)N([H])[H])c2N([H])[H])C1([H])[H])c1c([H])c(OC([H])([H])C(=O)C([H])([H])Oc2c([H])c([H])c3c(c2[H])C([H])([H])N(C(=O)C([H])(N([H])C(=O)C([H])(N([H])C([H])([H])[H])C([H])([H])[H])C(C([H])([H])[H])(C([H])([H])[H])C([H])([H])[H])C([H])(C(=O)N([H])C2([H])c4c([H])c([H])c([H])c([H])c4C([H])([H])C([H])([H])C2([H])[H])C3([H])[H])c(OC([H])([H])[H])c([H])c1C([H])=C([H])[H]

$$$$
20:0:0
     RDKit          3D

 92100  0  0  1  0  0  0  0  0999 V2000
  -31.0550  -17.8580   19.8370 C   0  0  0  0  0  3  0  0  0  0  0  0
  -28.6720  -19.3060   20.1280 C   0  0  0  0  0  3  0  0  0  0  0  0
  -31.0410  -19.2810   19.7040 C   0  0  0  0  0  0  0  0  0  0  0  0
  -29.8500  -20.0540   19.8510 C   0  0  0  0  0  0  0  0  0  0  0  0
  -29.8790  -17.1200   20.1270 C   0  0  0  0  0  0  0  0  0  0  0  0
  -28.6780  -17.8730   20.2610 C   0  0  0  0  0  0  0  0  0  0  0  0
  -32.3530  -19.9860   19.4000 C   0  0  0  0  0  1  0  0  0  0  0  0
  -30.5230  -14.6140   19.7640 C   0  0  0  0  0  0  0  0  0  0  0  0
  -30.1800  -12.3960   18.6910 C   0  0  0  0  0  2  0  0  0  0  0  0
  -29.1320  -12.5640   17.5670 C   0  0  0  0  0  2  0  0  0  0  0  0
  -27.7030  -12.4170   18.1260 C   0  0  0  0  0  2  0  0  0  0  0  0
  -27.4740  -13.2640   19.4060 C   0  0  0  0  0  3  0  0  0  0  0  0
  -28.6260  -13.0700   20.4190 C   0  0  0  0  0  2  0  0  0  0  0  0
  -29.8850  -13.4010   19.7320 N   0  0  0  0  0  0  0  0  0  0  0  0
  -31.6350  -14.7610   19.2480 O   0  0  0  0  0  0  0  0  0  0  0  0
  -29.7980  -15.6620   20.2680 N   0  0  0  0  0  0  0  0  0  0  0  0
  -28.9620  -15.3650   20.7500 H   0  0  0  0  0  0  0  0  0  0  0  0
  -25.1710  -13.8920   20.3570 C   0  0  0  0  0  0  0  0  0  0  0  0
  -24.1220  -13.1300   20.7960 C   0  0  0  0  0  0  0  0  0  0  0  0
  -24.5460  -11.7710   20.6820 C   0  0  0  0  0  0  0  0  0  0  0  0
  -26.1690  -12.9970   20.0030 N   0  0  0  0  0  0  0  0  0  0  0  0
  -25.8020  -11.7140   20.2580 N   0  0  0  0  0  0  0  0  0  0  0  0
  -23.8100  -10.5180   20.9010 C   0  0  0  0  0  0  0  0  0  0  0  0
  -24.3010   -9.5140   21.7630 C   0  0  0  0  0  3  0  0  0  0  0  0
  -23.5660   -8.3270   21.9710 C   0  0  0  0  0  3  0  0  0  0  0  0
  -22.3250   -8.1360   21.3180 C   0  0  0  0  0  0  0  0  0  0  0  0
  -21.8510   -9.1300   20.4420 C   0  0  0  0  0  3  0  0  0  0  0  0
  -22.5870  -10.3080   20.2320 C   0  0  0  0  0  3  0  0  0  0  0  0
  -21.5550   -7.0050   21.4390 O   0  0  0  0  0  0  0  0  0  0  0  0
  -21.5960   -6.2250   22.5680 C   0  0  0  0  0  0  0  0  0  0  0  0
  -21.3020   -6.7470   23.8460 C   0  0  0  0  0  3  0  0  0  0  0  0
  -21.2870   -5.8950   24.9680 C   0  0  0  0  0  3  0  0  0  0  0  0
  -21.5550   -4.5210   24.8140 C   0  0  0  0  0  0  0  0  0  0  0  0
  -21.8430   -3.9980   23.5410 C   0  0  0  0  0  3  0  0  0  0  0  0
  -21.8610   -4.8480   22.4200 C   0  0  0  0  0  0  0  0  0  0  0  0
  -22.1160   -4.3350   21.1930 F   0  0  0  0  0  0  0  0  0  0  0  0
  -21.5340   -3.7010   25.8900 F   0  0  0  0  0  0  0  0  0  0  0  0
  -22.7670  -13.6290   21.2110 C   0  0  0  0  0  0  0  0  0  0  0  0
  -22.1100  -12.9230   22.1240 N   0  0  0  0  0  0  0  0  0  0  0  0
  -22.3060  -14.6760   20.7600 O   0  0  0  0  0  0  0  0  0  0  0  0
  -22.4970  -12.0740   22.5080 H   0  0  0  0  0  0  0  0  0  0  0  0
  -21.2050  -13.2380   22.4460 H   0  0  0  0  0  0  0  0  0  0  0  0
  -25.3540  -15.2640   20.2130 N   0  0  0  0  0  0  0  0  0  0  0  0
  -24.6270  -15.9330   20.4380 H   0  0  0  0  0  0  0  0  0  0  0  0
  -26.2050  -15.6990   19.8800 H   0  0  0  0  0  0  0  0  0  0  0  0
  -28.9830  -22.3750   19.7000 C   0  0  0  0  0  3  0  0  0  0  0  0
  -29.9360  -21.4960   19.8070 N   0  0  0  0  0  0  0  0  0  0  0  0
  -29.2240  -23.9400   19.7590 C   0  0  0  0  0  3  0  0  0  0  0  0
  -28.0200  -24.9340   19.4500 C   0  0  0  0  0  3  0  0  0  0  0  0
  -28.2290  -26.4010   19.6000 O   0  0  0  0  0  0  0  0  0  0  0  0
  -24.5050  -31.6080   22.9560 C   0  0  0  0  0  0  0  0  0  0  0  0
  -27.0970  -27.2360   19.6180 C   0  0  0  0  0  0  0  0  0  0  0  0
  -23.2780  -30.2720   21.2830 C   0  0  0  0  0  3  0  0  0  0  0  0
  -24.7110  -28.8150   19.7460 C   0  0  0  0  0  0  0  0  0  0  0  0
  -25.8100  -30.6340   21.0530 C   0  0  0  0  0  2  0  0  0  0  0  0
  -25.8900  -29.2910   20.3350 C   0  0  0  0  0  0  0  0  0  0  0  0
  -27.0860  -28.5150   20.2580 C   0  0  0  0  0  3  0  0  0  0  0  0
  -25.8890  -26.8150   19.0140 C   0  0  0  0  0  3  0  0  0  0  0  0
  -24.7130  -27.5840   19.0750 C   0  0  0  0  0  3  0  0  0  0  0  0
  -23.4650  -29.6680   19.8670 C   0  0  0  0  0  2  0  0  0  0  0  0
  -24.5500  -30.8540   21.8200 N   0  0  0  0  0  0  0  0  0  0  0  0
  -23.4320  -31.8430   23.5300 O   0  0  0  0  0  0  0  0  0  0  0  0
  -22.6560  -29.2000   22.2090 C   0  0  0  0  0  0  0  0  0  0  0  0
  -21.3260  -29.0230   22.1230 N   0  0  0  0  0  0  0  0  0  0  0  0
  -23.3660  -28.5330   22.9660 O   0  0  0  0  0  0  0  0  0  0  0  0
  -20.8120  -29.6150   21.4860 H   0  0  0  0  0  0  0  0  0  0  0  0
  -17.9730  -27.7790   22.6690 C   0  0  0  0  0  0  0  0  0  0  0  0
  -20.5370  -28.0430   22.8700 C   0  0  0  0  0  3  0  0  0  0  0  0
  -20.6280  -26.6420   22.2210 C   0  0  0  0  0  2  0  0  0  0  0  0
  -19.4960  -26.3630   21.2280 C   0  0  0  0  0  2  0  0  0  0  0  0
  -18.1350  -26.4660   21.9220 C   0  0  0  0  0  2  0  0  0  0  0  0
  -19.1020  -28.5270   23.1010 C   0  0  0  0  0  0  0  0  0  0  0  0
  -18.8960  -29.7570   23.7620 C   0  0  0  0  0  3  0  0  0  0  0  0
  -17.5940  -30.2400   23.9950 C   0  0  0  0  0  3  0  0  0  0  0  0
  -16.4810  -29.4890   23.5810 C   0  0  0  0  0  3  0  0  0  0  0  0
  -16.6710  -28.2610   22.9220 C   0  0  0  0  0  3  0  0  0  0  0  0
  -25.7950  -32.2300   23.5740 C   0  0  0  0  0  3  0  0  0  0  0  0
  -26.3610  -31.4010   24.7930 C   0  0  1  0  0  0  0  0  0  0  0  0
  -25.3070  -31.0960   25.8830 C   0  0  0  0  0  1  0  0  0  0  0  0
  -26.9470  -30.0530   24.3140 C   0  0  0  0  0  1  0  0  0  0  0  0
  -27.5220  -32.1780   25.4580 C   0  0  0  0  0  1  0  0  0  0  0  0
  -25.4690  -33.6020   23.9890 N   0  0  0  0  0  0  0  0  0  0  0  0
  -25.8020  -34.7050   23.3060 C   0  0  0  0  0  0  0  0  0  0  0  0
  -26.4830  -34.6750   22.2770 O   0  0  0  0  0  0  0  0  0  0  0  0
  -24.8670  -33.6980   24.7930 H   0  0  0  0  0  0  0  0  0  0  0  0
  -24.0610  -36.5050   23.0530 C   0  0  0  0  0  1  0  0  0  0  0  0
  -25.2970  -36.0560   23.8490 C   0  0  0  0  0  3  0  0  0  0  0  0
  -27.4190  -36.8970   24.7570 C   0  0  0  0  0  1  0  0  0  0  0  0
  -26.3210  -37.1240   23.8210 N   0  0  0  0  0  0  0  0  0  0  0  0
  -25.9030  -38.0260   24.0360 H   0  0  0  0  0  0  0  0  0  0  0  0
  -26.2780  -17.7640   20.4340 C   0  0  0  0  0  1  0  0  0  0  0  0
  -27.5450  -17.1300   20.5310 O   0  0  0  0  0  0  0  0  0  0  0  0
  1  5  1  0
  2  6  1  0
  3  1  2  0
  3  4  1  0
  4  2  2  0
  5  6  2  0
  5 16  1  0
  6 92  1  0
  7  3  1  0
  8 16  1  0
  9 14  1  0
 10 11  1  0
 10  9  1  0
 12 11  1  0
 12 21  1  0
 12 13  1  0
 14  8  1  0
 14 13  1  0
 15  8  2  0
 16 17  1  0
 18 19  2  0
 19 38  1  0
 20 19  1  0
 20 23  1  0
 21 22  1  0
 21 18  1  0
 22 20  2  0
 23 24  1  0
 24 25  2  0
 26 29  1  0
 26 25  1  0
 27 26  2  0
 28 27  1  0
 28 23  2  0
 29 30  1  0
 30 31  1  0
 31 32  2  0
 33 32  1  0
 33 37  1  0
 34 33  2  0
 35 30  2  0
 35 34  1  0
 36 35  1  0
 38 39  1  0
 39 42  1  0
 39 41  1  0
 40 38  2  0
 43 18  1  0
 43 44  1  0
 45 43  1  0
 46 48  1  0
 46 47  2  0
 47  4  1  0
 49 50  1  0
 49 48  2  0
 50 52  1  0
 51 62  2  0
 52 57  1  0
 53 61  1  0
 53 63  1  0
 54 60  1  0
 54 56  1  0
 55 61  1  0
 56 55  1  0
 57 56  2  0
 58 59  1  0
 58 52  2  0
 59 54  2  0
 60 53  1  0
 61 51  1  0
 63 65  2  0
 64 63  1  0
 66 64  1  0
 67 76  2  0
 67 72  1  0
 68 64  1  0
 68 72  1  0
 69 68  1  0
 70 71  1  0
 70 69  1  0
 71 67  1  0
 72 73  2  0
 73 74  1  0
 75 74  2  0
 76 75  1  0
 77 51  1  0
 77 82  1  0
 77 78  1  0
 78 81  1  1
 78 79  1  0
 80 78  1  0
 82 85  1  0
 83 87  1  0
 83 82  1  0
 84 83  2  0
 87 86  1  0
 89 87  1  0
 89 90  1  0
 89 88  1  0
 91 92  1  0
M  ISO  4   8 100  16 100  49 101  50 101
M  END
>  <TORSDO>  (21) 
F 20

>  <SCORE>  (21) 
-12.781

>  <name>  (21) 
20

>  <ligand_id>  (21) 
20

>  <original_smiles>  (21) 
[H]C(=Nc1c([H])c(OC([H])([H])[H])c(N([H])C(=O)N2C([H])([H])C([H])([H])C([H])([H])C([H])(n3nc(-c4c([H])c([H])c(Oc5c([H])c([H])c(F)c([H])c5F)c([H])c4[H])c(C(=O)N([H])[H])c3N([H])[H])C2([H])[H])c([H])c1C([H])([H])[H])C([H])([H])C([H])([H])Oc1c([H])c([H])c2c(c1[H])C([H])([H])N(C(=O)C([H])(N([H])C(=O)C([H])(N([H])C([H])([H])[H])C([H])([H])[H])C(C([H])([H])[H])(C([H])([H])[H])C([H])([H])[H])C([H])(C(=O)N([H])C1([H])c3c([H])c([H])c([H])c([H])c3C([H])([H])C([H])([H])C1([H])[H])C2([H])[H]

>  <smiles>  (21) 
[H]C(=Nc1c([H])c(OC([H])([H])[H])c(N([H])C(=O)N2C([H])([H])C([H])([H])C([H])([H])C([H])(n3nc(-c4c([H])c([H])c(Oc5c([H])c([H])c(F)c([H])c5F)c([H])c4[H])c(C(=O)N([H])[H])c3N([H])[H])C2([H])[H])c([H])c1C([H])([H])[H])C([H])([H])C([H])([H])Oc1c([H])c([H])c2c(c1[H])C([H])([H])N(C(=O)C([H])(N([H])C(=O)C([H])(N([H])C([H])([H])[H])C([H])([H])[H])C(C([H])([H])[H])(C([H])([H])[H])C([H])([H])[H])C([H])(C(=O)N([H])C1([H])c3c([H])c([H])c([H])c([H])c3C([H])([H])C([H])([H])C1([H])[H])C2([H])[H]

$$$$
21:0:0
     RDKit          3D

 99108  0  0  1  0  0  0  0  0999 V2000
  -28.3940  -24.1520   20.9660 C   0  0  0  0  0  0  0  0  0  0  0  0
  -27.8360  -25.3970   20.8850 C   0  0  0  0  0  3  0  0  0  0  0  0
  -30.5640  -21.0810   20.6230 C   0  0  0  0  0  3  0  0  0  0  0  0
  -27.5110  -22.9680   21.2940 C   0  0  0  0  0  2  0  0  0  0  0  0
  -28.1990  -21.7560   20.6730 C   0  0  0  0  0  2  0  0  0  0  0  0
  -29.8060  -23.6030   20.6970 C   0  0  0  0  0  3  0  0  0  0  0  0
  -30.7890  -24.1020   21.7730 C   0  0  0  0  0  1  0  0  0  0  0  0
  -29.6320  -22.0920   20.6750 N   0  0  0  0  0  0  0  0  0  0  0  0
  -31.8320  -21.3740   20.8860 N   0  0  0  0  0  0  0  0  0  0  0  0
  -32.5360  -20.6600   20.7820 H   0  0  0  0  0  0  0  0  0  0  0  0
  -32.1020  -22.2890   21.2050 H   0  0  0  0  0  0  0  0  0  0  0  0
  -29.8090  -19.5140   18.8780 C   0  0  0  0  0  3  0  0  0  0  0  0
  -29.9290  -17.0940   19.0860 C   0  0  0  0  0  3  0  0  0  0  0  0
  -30.5420  -18.5030   20.9810 C   0  0  0  0  0  3  0  0  0  0  0  0
  -29.6460  -18.2340   18.3070 C   0  0  0  0  0  0  0  0  0  0  0  0
  -30.2700  -19.6770   20.2020 C   0  0  0  0  0  0  0  0  0  0  0  0
  -30.3580  -17.1910   20.4300 C   0  0  0  0  0  0  0  0  0  0  0  0
  -31.1910  -14.8700   20.7850 C   0  0  0  0  0  0  0  0  0  0  0  0
  -30.9390  -12.6610   19.7010 C   0  0  0  0  0  2  0  0  0  0  0  0
  -30.0920  -12.8470   18.4230 C   0  0  0  0  0  2  0  0  0  0  0  0
  -28.5890  -12.7340   18.7450 C   0  0  0  0  0  2  0  0  0  0  0  0
  -28.1720  -13.5890   19.9700 C   0  0  0  0  0  3  0  0  0  0  0  0
  -29.1500  -13.4070   21.1550 C   0  0  0  0  0  2  0  0  0  0  0  0
  -30.5130  -13.6850   20.6740 N   0  0  0  0  0  0  0  0  0  0  0  0
  -32.3600  -14.9890   20.4120 O   0  0  0  0  0  0  0  0  0  0  0  0
  -30.4820  -15.9590   21.1850 N   0  0  0  0  0  0  0  0  0  0  0  0
  -29.6350  -15.6990   21.6690 H   0  0  0  0  0  0  0  0  0  0  0  0
  -25.7480  -14.2470   20.5080 C   0  0  0  0  0  0  0  0  0  0  0  0
  -24.6380  -13.5010   20.7980 C   0  0  0  0  0  0  0  0  0  0  0  0
  -25.0690  -12.1390   20.7990 C   0  0  0  0  0  0  0  0  0  0  0  0
  -26.7860  -13.3420   20.3540 N   0  0  0  0  0  0  0  0  0  0  0  0
  -26.3770  -12.0690   20.5850 N   0  0  0  0  0  0  0  0  0  0  0  0
  -24.3010  -10.8940   20.9330 C   0  0  0  0  0  0  0  0  0  0  0  0
  -24.6450   -9.9150   21.8910 C   0  0  0  0  0  3  0  0  0  0  0  0
  -23.8800   -8.7350   22.0150 C   0  0  0  0  0  3  0  0  0  0  0  0
  -22.7570   -8.5260   21.1790 C   0  0  0  0  0  0  0  0  0  0  0  0
  -22.4340   -9.4930   20.2110 C   0  0  0  0  0  3  0  0  0  0  0  0
  -23.1980  -10.6660   20.0860 C   0  0  0  0  0  3  0  0  0  0  0  0
  -21.9720   -7.4000   21.2100 O   0  0  0  0  0  0  0  0  0  0  0  0
  -21.8080   -6.6690   22.3590 C   0  0  0  0  0  0  0  0  0  0  0  0
  -21.2990   -7.2460   23.5440 C   0  0  0  0  0  3  0  0  0  0  0  0
  -21.0810   -6.4420   24.6810 C   0  0  0  0  0  3  0  0  0  0  0  0
  -21.3620   -5.0630   24.6340 C   0  0  0  0  0  0  0  0  0  0  0  0
  -21.8640   -4.4860   23.4540 C   0  0  0  0  0  3  0  0  0  0  0  0
  -22.0830   -5.2870   22.3190 C   0  0  0  0  0  0  0  0  0  0  0  0
  -22.5460   -4.7220   21.1790 F   0  0  0  0  0  0  0  0  0  0  0  0
  -21.1460   -4.2900   25.7240 F   0  0  0  0  0  0  0  0  0  0  0  0
  -23.2370  -14.0110   20.9720 C   0  0  0  0  0  0  0  0  0  0  0  0
  -22.4370  -13.3400   21.7930 N   0  0  0  0  0  0  0  0  0  0  0  0
  -22.8570  -15.0410   20.4140 O   0  0  0  0  0  0  0  0  0  0  0  0
  -22.7540  -12.5080   22.2670 H   0  0  0  0  0  0  0  0  0  0  0  0
  -21.4940  -13.6650   21.9520 H   0  0  0  0  0  0  0  0  0  0  0  0
  -25.9570  -15.6140   20.3430 N   0  0  0  0  0  0  0  0  0  0  0  0
  -25.1980  -16.2850   20.3960 H   0  0  0  0  0  0  0  0  0  0  0  0
  -26.8380  -16.0360   20.0840 H   0  0  0  0  0  0  0  0  0  0  0  0
  -29.2270  -18.0430   16.9060 C   0  0  0  0  0  3  0  0  0  0  0  0
  -29.0960  -19.0010   15.9700 C   0  0  0  0  0  3  0  0  0  0  0  0
  -28.6650  -18.7360   14.5420 C   0  0  0  0  0  1  0  0  0  0  0  0
  -28.2980  -26.6520   20.4600 O   0  0  0  0  0  0  0  0  0  0  0  0
  -24.5840  -32.0530   23.3670 C   0  0  0  0  0  0  0  0  0  0  0  0
  -27.2550  -27.5690   20.3110 C   0  0  0  0  0  0  0  0  0  0  0  0
  -23.4060  -30.6610   21.7010 C   0  0  0  0  0  3  0  0  0  0  0  0
  -24.8850  -29.1430   20.2710 C   0  0  0  0  0  0  0  0  0  0  0  0
  -25.9440  -31.0020   21.5530 C   0  0  0  0  0  2  0  0  0  0  0  0
  -26.0410  -29.6350   20.8950 C   0  0  0  0  0  0  0  0  0  0  0  0
  -27.2320  -28.8560   20.9170 C   0  0  0  0  0  3  0  0  0  0  0  0
  -26.0930  -27.1380   19.6280 C   0  0  0  0  0  3  0  0  0  0  0  0
  -24.9120  -27.8980   19.6270 C   0  0  0  0  0  3  0  0  0  0  0  0
  -23.6390  -30.0000   20.3170 C   0  0  0  0  0  2  0  0  0  0  0  0
  -24.6620  -31.2540   22.2650 N   0  0  0  0  0  0  0  0  0  0  0  0
  -23.4950  -32.3230   23.8900 O   0  0  0  0  0  0  0  0  0  0  0  0
  -22.7380  -29.6330   22.6450 C   0  0  0  0  0  0  0  0  0  0  0  0
  -21.4170  -29.4440   22.4930 N   0  0  0  0  0  0  0  0  0  0  0  0
  -23.4070  -29.0100   23.4740 O   0  0  0  0  0  0  0  0  0  0  0  0
  -20.9380  -29.9990   21.7980 H   0  0  0  0  0  0  0  0  0  0  0  0
  -18.0350  -28.2400   22.9390 C   0  0  0  0  0  0  0  0  0  0  0  0
  -20.5890  -28.5010   23.2450 C   0  0  0  0  0  3  0  0  0  0  0  0
  -20.7000  -27.0730   22.6630 C   0  0  0  0  0  2  0  0  0  0  0  0
  -19.6130  -26.7560   21.6310 C   0  0  0  0  0  2  0  0  0  0  0  0
  -18.2220  -26.8960   22.2570 C   0  0  0  0  0  2  0  0  0  0  0  0
  -19.1470  -29.0010   23.3880 C   0  0  0  0  0  0  0  0  0  0  0  0
  -18.9180  -30.2600   23.9840 C   0  0  0  0  0  3  0  0  0  0  0  0
  -17.6110  -30.7600   24.1350 C   0  0  0  0  0  3  0  0  0  0  0  0
  -16.5130  -29.9950   23.7020 C   0  0  0  0  0  3  0  0  0  0  0  0
  -16.7260  -28.7380   23.1090 C   0  0  0  0  0  3  0  0  0  0  0  0
  -25.8590  -32.6830   24.0080 C   0  0  0  0  0  3  0  0  0  0  0  0
  -25.5600  -34.0930   24.2960 N   0  0  0  0  0  0  0  0  0  0  0  0
  -25.9190  -35.1220   23.5170 C   0  0  0  0  0  0  0  0  0  0  0  0
  -26.6100  -34.9840   22.5040 O   0  0  0  0  0  0  0  0  0  0  0  0
  -24.9520  -34.2750   25.0810 H   0  0  0  0  0  0  0  0  0  0  0  0
  -24.2130  -36.9180   23.0860 C   0  0  0  0  0  1  0  0  0  0  0  0
  -25.4370  -36.5270   23.9280 C   0  0  0  0  0  3  0  0  0  0  0  0
  -27.5680  -37.4140   24.7660 C   0  0  0  0  0  1  0  0  0  0  0  0
  -26.4810  -37.5680   23.8030 N   0  0  0  0  0  0  0  0  0  0  0  0
  -26.0820  -38.4940   23.9220 H   0  0  0  0  0  0  0  0  0  0  0  0
  -26.3320  -31.9370   25.3160 C   0  0  1  0  0  0  0  0  0  0  0  0
  -25.2010  -31.7120   26.3470 C   0  0  0  0  0  1  0  0  0  0  0  0
  -26.9340  -30.5550   24.9680 C   0  0  0  0  0  1  0  0  0  0  0  0
  -27.4560  -32.7460   26.0050 C   0  0  0  0  0  1  0  0  0  0  0  0
  1  4  1  0
  2  1  2  0
  3  8  1  0
  3  9  1  0
  5  8  1  0
  5  4  1  0
  6  1  1  0
  6  7  1  0
  8  6  1  0
  9 11  1  0
 10  9  1  0
 12 16  1  0
 13 17  2  0
 15 12  2  0
 15 13  1  0
 16  3  1  0
 16 14  2  0
 17 14  1  0
 17 26  1  0
 18 26  1  0
 19 24  1  0
 20 21  1  0
 20 19  1  0
 22 21  1  0
 22 31  1  0
 22 23  1  0
 24 18  1  0
 24 23  1  0
 25 18  2  0
 26 27  1  0
 28 29  2  0
 29 30  1  0
 29 48  1  0
 30 33  1  0
 31 28  1  0
 31 32  1  0
 32 30  2  0
 33 34  1  0
 34 35  2  0
 36 39  1  0
 36 35  1  0
 37 36  2  0
 38 37  1  0
 38 33  2  0
 39 40  1  0
 40 41  1  0
 41 42  2  0
 43 42  1  0
 43 47  1  0
 44 43  2  0
 45 40  2  0
 45 44  1  0
 46 45  1  0
 48 49  1  0
 49 52  1  0
 49 51  1  0
 50 48  2  0
 53 54  1  0
 53 28  1  0
 55 53  1  0
 56 15  1  0
 57 56  2  0
 58 57  1  0
 59  2  1  0
 60 71  2  0
 61 59  1  0
 61 66  1  0
 62 70  1  0
 62 72  1  0
 63 69  1  0
 63 65  1  0
 64 70  1  0
 65 66  2  0
 65 64  1  0
 67 61  2  0
 68 67  1  0
 68 63  2  0
 69 62  1  0
 70 60  1  0
 72 74  2  0
 73 72  1  0
 75 73  1  0
 76 85  2  0
 76 81  1  0
 77 73  1  0
 77 81  1  0
 78 77  1  0
 79 80  1  0
 79 78  1  0
 80 76  1  0
 81 82  2  0
 82 83  1  0
 84 83  2  0
 85 84  1  0
 86 60  1  0
 86 87  1  0
 86 96  1  0
 87 90  1  0
 88 92  1  0
 88 87  1  0
 89 88  2  0
 92 91  1  0
 94 95  1  0
 94 92  1  0
 94 93  1  0
 96 99  1  1
 96 97  1  0
 98 96  1  0
M  ISO  4   2 101  18 100  26 100  59 101
M  END
>  <TORSDO>  (22) 
F 18

>  <SCORE>  (22) 
-14.057

>  <name>  (22) 
21

>  <ligand_id>  (22) 
21

>  <original_smiles>  (22) 
[H]C(Oc1c([H])c([H])c2c(c1[H])C([H])([H])N(C(=O)C([H])(N([H])C(=O)C([H])(N([H])C([H])([H])[H])C([H])([H])[H])C(C([H])([H])[H])(C([H])([H])[H])C([H])([H])[H])C([H])(C(=O)N([H])C1([H])c3c([H])c([H])c([H])c([H])c3C([H])([H])C([H])([H])C1([H])[H])C2([H])[H])=C1C([H])([H])C([H])([H])N(C(c2c([H])c(C([H])=C([H])C([H])([H])[H])c([H])c(N([H])C(=O)N3C([H])([H])C([H])([H])C([H])([H])C([H])(n4nc(-c5c([H])c([H])c(Oc6c([H])c([H])c(F)c([H])c6F)c([H])c5[H])c(C(=O)N([H])[H])c4N([H])[H])C3([H])[H])c2[H])=[N+]([H])[H])C1([H])C([H])([H])[H]

>  <smiles>  (22) 
[H]C(Oc1c([H])c([H])c2c(c1[H])C([H])([H])N(C(=O)C([H])(N([H])C(=O)C([H])(N([H])C([H])([H])[H])C([H])([H])[H])C(C([H])([H])[H])(C([H])([H])[H])C([H])([H])[H])C([H])(C(=O)N([H])C1([H])c3c([H])c([H])c([H])c([H])c3C([H])([H])C([H])([H])C1([H])[H])C2([H])[H])=C1C([H])([H])C([H])([H])N(C(c2c([H])c(C([H])=C([H])C([H])([H])[H])c([H])c(N([H])C(=O)N3C([H])([H])C([H])([H])C([H])([H])C([H])(n4nc(-c5c([H])c([H])c(Oc6c([H])c([H])c(F)c([H])c6F)c([H])c5[H])c(C(=O)N([H])[H])c4N([H])[H])C3([H])[H])c2[H])=[N+]([H])[H])C1([H])C([H])([H])[H]

$$$$
22:0:0
     RDKit          3D

 99108  0  0  1  0  0  0  0  0999 V2000
  -30.0940  -24.3280   20.6910 C   0  0  0  0  0  3  0  0  0  0  0  0
  -29.3030  -23.8200   19.7210 C   0  0  0  0  0  0  0  0  0  0  0  0
  -31.2060  -23.6210   21.3110 C   0  0  0  0  0  0  0  0  0  0  0  0
  -32.2210  -23.0000   20.3640 C   0  0  0  0  0  3  0  0  0  0  0  0
  -31.7840  -21.7010   19.6750 C   0  0  0  0  0  3  0  0  0  0  0  0
  -29.3340  -22.3020   19.2110 C   0  0  0  0  0  3  0  0  0  0  0  0
  -29.3810  -22.2420   17.6740 C   0  0  0  0  0  1  0  0  0  0  0  0
  -30.3580  -21.3380   19.7600 N   0  0  0  0  0  0  0  0  0  0  0  0
  -31.3820  -23.5710   22.5320 O   0  0  0  0  0  0  0  0  0  0  0  0
  -29.0220  -19.2390   20.0950 C   0  0  0  0  0  3  0  0  0  0  0  0
  -31.2810  -19.0330   19.3250 C   0  0  0  0  0  3  0  0  0  0  0  0
  -28.9440  -17.8140   20.2350 C   0  0  0  0  0  0  0  0  0  0  0  0
  -30.2050  -19.8990   19.6830 C   0  0  0  0  0  0  0  0  0  0  0  0
  -30.0550  -16.9670   19.9260 C   0  0  0  0  0  0  0  0  0  0  0  0
  -31.2310  -17.6070   19.4390 C   0  0  0  0  0  0  0  0  0  0  0  0
  -30.6270  -14.4410   19.5980 C   0  0  0  0  0  0  0  0  0  0  0  0
  -30.2390  -12.2630   18.4820 C   0  0  0  0  0  2  0  0  0  0  0  0
  -29.1900  -12.4740   17.3690 C   0  0  0  0  0  2  0  0  0  0  0  0
  -27.7600  -12.3330   17.9300 C   0  0  0  0  0  2  0  0  0  0  0  0
  -27.5450  -13.1580   19.2260 C   0  0  0  0  0  3  0  0  0  0  0  0
  -28.6960  -12.9290   20.2310 C   0  0  0  0  0  2  0  0  0  0  0  0
  -29.9580  -13.2470   19.5440 N   0  0  0  0  0  0  0  0  0  0  0  0
  -31.7780  -14.5430   19.1670 O   0  0  0  0  0  0  0  0  0  0  0  0
  -29.8850  -15.5110   20.0140 N   0  0  0  0  0  0  0  0  0  0  0  0
  -29.0140  -15.2300   20.4350 H   0  0  0  0  0  0  0  0  0  0  0  0
  -25.2250  -13.7940   20.1340 C   0  0  0  0  0  0  0  0  0  0  0  0
  -24.1820  -13.0360   20.5910 C   0  0  0  0  0  0  0  0  0  0  0  0
  -24.6220  -11.6780   20.5310 C   0  0  0  0  0  0  0  0  0  0  0  0
  -26.2350  -12.8990   19.8210 N   0  0  0  0  0  0  0  0  0  0  0  0
  -25.8840  -11.6220   20.1200 N   0  0  0  0  0  0  0  0  0  0  0  0
  -23.8990  -10.4260   20.7850 C   0  0  0  0  0  0  0  0  0  0  0  0
  -24.3190   -9.5200   21.7840 C   0  0  0  0  0  3  0  0  0  0  0  0
  -23.5970   -8.3310   22.0220 C   0  0  0  0  0  3  0  0  0  0  0  0
  -22.4390   -8.0400   21.2640 C   0  0  0  0  0  0  0  0  0  0  0  0
  -22.0370   -8.9340   20.2560 C   0  0  0  0  0  3  0  0  0  0  0  0
  -22.7610  -10.1140   20.0150 C   0  0  0  0  0  3  0  0  0  0  0  0
  -21.6890   -6.8980   21.4090 O   0  0  0  0  0  0  0  0  0  0  0  0
  -21.5290   -6.2930   22.6290 C   0  0  0  0  0  0  0  0  0  0  0  0
  -21.0200   -6.9900   23.7460 C   0  0  0  0  0  3  0  0  0  0  0  0
  -20.8050   -6.3110   24.9630 C   0  0  0  0  0  3  0  0  0  0  0  0
  -21.0900   -4.9350   25.0620 C   0  0  0  0  0  0  0  0  0  0  0  0
  -21.5910   -4.2370   23.9480 C   0  0  0  0  0  3  0  0  0  0  0  0
  -21.8060   -4.9150   22.7340 C   0  0  0  0  0  0  0  0  0  0  0  0
  -22.2700   -4.2330   21.6600 F   0  0  0  0  0  0  0  0  0  0  0  0
  -20.8770   -4.2800   26.2260 F   0  0  0  0  0  0  0  0  0  0  0  0
  -22.8160  -13.5320   20.9730 C   0  0  0  0  0  0  0  0  0  0  0  0
  -22.1680  -12.8700   21.9250 N   0  0  0  0  0  0  0  0  0  0  0  0
  -22.3370  -14.5420   20.4600 O   0  0  0  0  0  0  0  0  0  0  0  0
  -22.5700  -12.0520   22.3570 H   0  0  0  0  0  0  0  0  0  0  0  0
  -21.2560  -13.1860   22.2240 H   0  0  0  0  0  0  0  0  0  0  0  0
  -25.3910  -15.1610   19.9390 N   0  0  0  0  0  0  0  0  0  0  0  0
  -24.6460  -15.8230   20.1230 H   0  0  0  0  0  0  0  0  0  0  0  0
  -26.2210  -15.5950   19.5560 H   0  0  0  0  0  0  0  0  0  0  0  0
  -26.4490  -17.5110   20.2490 C   0  0  0  0  0  2  0  0  0  0  0  0
  -27.6790  -17.1960   20.6870 C   0  0  0  0  0  3  0  0  0  0  0  0
  -33.5890  -17.3870   18.9880 C   0  0  0  0  0  1  0  0  0  0  0  0
  -32.2880  -16.8100   19.0480 O   0  0  0  0  0  0  0  0  0  0  0  0
  -28.2330  -24.7990   19.1200 C   0  0  0  0  0  2  0  0  0  0  0  0
  -28.3520  -26.2480   19.4200 O   0  0  0  0  0  0  0  0  0  0  0  0
  -24.4710  -31.2830   22.8290 C   0  0  0  0  0  0  0  0  0  0  0  0
  -27.1820  -27.0260   19.4480 C   0  0  0  0  0  0  0  0  0  0  0  0
  -23.2690  -29.8880   21.1840 C   0  0  0  0  0  3  0  0  0  0  0  0
  -24.7310  -28.4910   19.6210 C   0  0  0  0  0  0  0  0  0  0  0  0
  -25.7720  -30.3650   20.8950 C   0  0  0  0  0  2  0  0  0  0  0  0
  -25.8960  -29.0230   20.1840 C   0  0  0  0  0  0  0  0  0  0  0  0
  -27.1230  -28.3020   20.0920 C   0  0  0  0  0  3  0  0  0  0  0  0
  -25.9860  -26.5490   18.8590 C   0  0  0  0  0  3  0  0  0  0  0  0
  -24.7750  -27.2600   18.9480 C   0  0  0  0  0  3  0  0  0  0  0  0
  -23.4520  -29.2900   19.7650 C   0  0  0  0  0  2  0  0  0  0  0  0
  -24.5250  -30.5290   21.6930 N   0  0  0  0  0  0  0  0  0  0  0  0
  -23.4020  -31.4710   23.4270 O   0  0  0  0  0  0  0  0  0  0  0  0
  -22.7130  -28.7940   22.1260 C   0  0  0  0  0  0  0  0  0  0  0  0
  -21.4020  -28.5160   22.0250 N   0  0  0  0  0  0  0  0  0  0  0  0
  -23.4600  -28.1990   22.9080 O   0  0  0  0  0  0  0  0  0  0  0  0
  -20.8500  -29.0540   21.3710 H   0  0  0  0  0  0  0  0  0  0  0  0
  -18.1480  -27.0260   22.5480 C   0  0  0  0  0  0  0  0  0  0  0  0
  -20.6790  -27.4950   22.7860 C   0  0  0  0  0  3  0  0  0  0  0  0
  -20.8920  -26.0900   22.1750 C   0  0  0  0  0  2  0  0  0  0  0  0
  -19.8050  -25.6960   21.1710 C   0  0  0  0  0  2  0  0  0  0  0  0
  -18.4260  -25.7120   21.8370 C   0  0  0  0  0  2  0  0  0  0  0  0
  -19.2050  -27.8700   22.9800 C   0  0  0  0  0  0  0  0  0  0  0  0
  -18.8900  -29.0950   23.6040 C   0  0  0  0  0  3  0  0  0  0  0  0
  -17.5510  -29.4840   23.7960 C   0  0  0  0  0  3  0  0  0  0  0  0
  -16.5080  -28.6390   23.3800 C   0  0  0  0  0  3  0  0  0  0  0  0
  -16.8070  -27.4100   22.7650 C   0  0  0  0  0  3  0  0  0  0  0  0
  -25.7460  -31.9630   23.4180 C   0  0  0  0  0  3  0  0  0  0  0  0
  -26.3680  -31.1730   24.6340 C   0  0  1  0  0  0  0  0  0  0  0  0
  -25.3440  -30.8300   25.7400 C   0  0  0  0  0  1  0  0  0  0  0  0
  -27.0050  -29.8490   24.1510 C   0  0  0  0  0  1  0  0  0  0  0  0
  -27.5040  -32.0020   25.2740 C   0  0  0  0  0  1  0  0  0  0  0  0
  -25.3760  -33.3260   23.8250 N   0  0  0  0  0  0  0  0  0  0  0  0
  -25.6180  -34.4280   23.1020 C   0  0  0  0  0  0  0  0  0  0  0  0
  -26.2460  -34.4070   22.0390 O   0  0  0  0  0  0  0  0  0  0  0  0
  -24.8200  -33.4150   24.6610 H   0  0  0  0  0  0  0  0  0  0  0  0
  -23.7740  -36.1230   22.9140 C   0  0  0  0  0  1  0  0  0  0  0  0
  -25.0770  -35.7640   23.6450 C   0  0  0  0  0  3  0  0  0  0  0  0
  -27.1940  -36.7390   24.4140 C   0  0  0  0  0  1  0  0  0  0  0  0
  -26.0390  -36.8810   23.5300 N   0  0  0  0  0  0  0  0  0  0  0  0
  -25.5890  -37.7680   23.7360 H   0  0  0  0  0  0  0  0  0  0  0  0
  1  3  1  0
  2  1  2  0
  3  9  2  0
  4  3  1  0
  5  8  1  0
  5  4  2  0
  6  7  1  0
  6  2  1  0
  6  8  1  0
 10 12  1  0
 11 15  2  0
 11 13  1  0
 12 55  1  0
 13  8  1  0
 13 10  2  0
 14 24  1  0
 14 12  2  0
 15 14  1  0
 16 24  1  0
 17 22  1  0
 18 19  1  0
 18 17  1  0
 20 19  1  0
 20 29  1  0
 20 21  1  0
 22 16  1  0
 22 21  1  0
 23 16  2  0
 24 25  1  0
 26 27  2  0
 27 46  1  0
 28 27  1  0
 28 31  1  0
 29 30  1  0
 29 26  1  0
 30 28  2  0
 31 32  1  0
 32 33  2  0
 34 37  1  0
 34 33  1  0
 35 34  2  0
 36 35  1  0
 36 31  2  0
 37 38  1  0
 38 43  2  0
 38 39  1  0
 39 40  2  0
 40 41  1  0
 41 45  1  0
 42 41  2  0
 43 42  1  0
 44 43  1  0
 46 47  1  0
 47 50  1  0
 47 49  1  0
 48 46  2  0
 51 52  1  0
 51 26  1  0
 53 51  1  0
 54 55  2  0
 56 57  1  0
 57 15  1  0
 58 59  1  0
 58  2  1  0
 59 61  1  0
 60 71  2  0
 61 66  1  0
 62 70  1  0
 62 72  1  0
 63 69  1  0
 63 65  1  0
 64 70  1  0
 65 64  1  0
 66 65  2  0
 67 68  1  0
 67 61  2  0
 68 63  2  0
 69 62  1  0
 70 60  1  0
 72 74  2  0
 73 72  1  0
 75 73  1  0
 76 85  2  0
 76 81  1  0
 77 73  1  0
 77 81  1  0
 78 77  1  0
 79 80  1  0
 79 78  1  0
 80 76  1  0
 81 82  2  0
 82 83  1  0
 84 83  2  0
 85 84  1  0
 86 60  1  0
 86 91  1  0
 86 87  1  0
 87 90  1  1
 87 88  1  0
 89 87  1  0
 91 94  1  0
 92 96  1  0
 92 91  1  0
 93 92  2  0
 96 95  1  0
 98 96  1  0
 98 99  1  0
 98 97  1  0
M  ISO  4  16 100  24 100  58 101  59 101
M  END
>  <TORSDO>  (23) 
F 20

>  <SCORE>  (23) 
-9.940

>  <name>  (23) 
22

>  <ligand_id>  (23) 
22

>  <original_smiles>  (23) 
[H]C([H])=C([H])c1c([H])c(N2C([H])([H])C([H])([H])C(=O)C([H])=C(C([H])([H])Oc3c([H])c([H])c4c(c3[H])C([H])([H])N(C(=O)C([H])(N([H])C(=O)C([H])(N([H])C([H])([H])[H])C([H])([H])[H])C(C([H])([H])[H])(C([H])([H])[H])C([H])([H])[H])C([H])(C(=O)N([H])C3([H])c5c([H])c([H])c([H])c([H])c5C([H])([H])C([H])([H])C3([H])[H])C4([H])[H])C2([H])C([H])([H])[H])c([H])c(OC([H])([H])[H])c1N([H])C(=O)N1C([H])([H])C([H])([H])C([H])([H])C([H])(n2nc(-c3c([H])c([H])c(Oc4c([H])c([H])c(F)c([H])c4F)c([H])c3[H])c(C(=O)N([H])[H])c2N([H])[H])C1([H])[H]

>  <smiles>  (23) 
[H]C([H])=C([H])c1c([H])c(N2C([H])([H])C([H])([H])C(=O)C([H])=C(C([H])([H])Oc3c([H])c([H])c4c(c3[H])C([H])([H])N(C(=O)C([H])(N([H])C(=O)C([H])(N([H])C([H])([H])[H])C([H])([H])[H])C(C([H])([H])[H])(C([H])([H])[H])C([H])([H])[H])C([H])(C(=O)N([H])C3([H])c5c([H])c([H])c([H])c([H])c5C([H])([H])C([H])([H])C3([H])[H])C4([H])[H])C2([H])C([H])([H])[H])c([H])c(OC([H])([H])[H])c1N([H])C(=O)N1C([H])([H])C([H])([H])C([H])([H])C([H])(n2nc(-c3c([H])c([H])c(Oc4c([H])c([H])c(F)c([H])c4F)c([H])c3[H])c(C(=O)N([H])[H])c2N([H])[H])C1([H])[H]

$$$$
23:0:0
     RDKit          3D

 92100  0  0  1  0  0  0  0  0999 V2000
  -28.6540  -22.6110   20.4720 C   0  0  0  0  0  0  0  0  0  0  0  0
  -29.5720  -21.6560   20.0980 N   0  0  0  0  0  0  0  0  0  0  0  0
  -27.6090  -22.2960   21.0450 O   0  0  0  0  0  0  0  0  0  0  0  0
  -30.3910  -22.0300   19.6380 H   0  0  0  0  0  0  0  0  0  0  0  0
  -28.6890  -17.9490   20.8660 C   0  0  0  0  0  3  0  0  0  0  0  0
  -28.5770  -19.3710   20.7870 C   0  0  0  0  0  3  0  0  0  0  0  0
  -30.8550  -18.0340   19.8410 C   0  0  0  0  0  3  0  0  0  0  0  0
  -29.8230  -17.2240   20.3970 C   0  0  0  0  0  0  0  0  0  0  0  0
  -29.6030  -20.1820   20.2280 C   0  0  0  0  0  0  0  0  0  0  0  0
  -30.7440  -19.4630   19.7620 C   0  0  0  0  0  0  0  0  0  0  0  0
  -31.7660  -20.1660   19.2170 F   0  0  0  0  0  0  0  0  0  0  0  0
  -30.6070  -14.7310   20.0350 C   0  0  0  0  0  0  0  0  0  0  0  0
  -30.3670  -12.5060   18.9310 C   0  0  0  0  0  2  0  0  0  0  0  0
  -29.3490  -12.6500   17.7780 C   0  0  0  0  0  2  0  0  0  0  0  0
  -27.9040  -12.4700   18.2880 C   0  0  0  0  0  2  0  0  0  0  0  0
  -27.6170  -13.3000   19.5660 C   0  0  0  0  0  3  0  0  0  0  0  0
  -28.7410  -13.1190   20.6130 C   0  0  0  0  0  2  0  0  0  0  0  0
  -30.0110  -13.4940   19.9710 N   0  0  0  0  0  0  0  0  0  0  0  0
  -31.7360  -14.9160   19.5690 O   0  0  0  0  0  0  0  0  0  0  0  0
  -29.8130  -15.7530   20.5050 N   0  0  0  0  0  0  0  0  0  0  0  0
  -28.9680  -15.3860   20.9170 H   0  0  0  0  0  0  0  0  0  0  0  0
  -25.2740  -13.8820   20.4440 C   0  0  0  0  0  0  0  0  0  0  0  0
  -24.2280  -13.1000   20.8540 C   0  0  0  0  0  0  0  0  0  0  0  0
  -24.6830  -11.7490   20.7560 C   0  0  0  0  0  0  0  0  0  0  0  0
  -26.2990  -13.0070   20.1210 N   0  0  0  0  0  0  0  0  0  0  0  0
  -25.9530  -11.7170   20.3680 N   0  0  0  0  0  0  0  0  0  0  0  0
  -23.9650  -10.4830   20.9510 C   0  0  0  0  0  0  0  0  0  0  0  0
  -24.4070   -9.5190   21.8840 C   0  0  0  0  0  3  0  0  0  0  0  0
  -23.6890   -8.3170   22.0660 C   0  0  0  0  0  3  0  0  0  0  0  0
  -22.5140   -8.0710   21.3170 C   0  0  0  0  0  0  0  0  0  0  0  0
  -22.0920   -9.0230   20.3730 C   0  0  0  0  0  3  0  0  0  0  0  0
  -22.8110  -10.2160   20.1880 C   0  0  0  0  0  3  0  0  0  0  0  0
  -21.7680   -6.9220   21.4090 O   0  0  0  0  0  0  0  0  0  0  0  0
  -21.6670   -6.2210   22.5840 C   0  0  0  0  0  0  0  0  0  0  0  0
  -21.1590   -6.8110   23.7620 C   0  0  0  0  0  3  0  0  0  0  0  0
  -21.0080   -6.0350   24.9290 C   0  0  0  0  0  3  0  0  0  0  0  0
  -21.3550   -4.6710   24.9180 C   0  0  0  0  0  0  0  0  0  0  0  0
  -21.8550   -4.0810   23.7440 C   0  0  0  0  0  3  0  0  0  0  0  0
  -22.0080   -4.8530   22.5790 C   0  0  0  0  0  0  0  0  0  0  0  0
  -22.4700   -4.2750   21.4450 F   0  0  0  0  0  0  0  0  0  0  0  0
  -21.2020   -3.9230   26.0360 F   0  0  0  0  0  0  0  0  0  0  0  0
  -22.8510  -13.5710   21.2250 C   0  0  0  0  0  0  0  0  0  0  0  0
  -22.1740  -12.8510   22.1110 N   0  0  0  0  0  0  0  0  0  0  0  0
  -22.3860  -14.6120   20.7610 O   0  0  0  0  0  0  0  0  0  0  0  0
  -22.5630  -12.0080   22.5070 H   0  0  0  0  0  0  0  0  0  0  0  0
  -21.2520  -13.1470   22.4000 H   0  0  0  0  0  0  0  0  0  0  0  0
  -25.4320  -15.2570   20.2960 N   0  0  0  0  0  0  0  0  0  0  0  0
  -24.6680  -15.9040   20.4590 H   0  0  0  0  0  0  0  0  0  0  0  0
  -26.2440  -15.7000   19.8870 H   0  0  0  0  0  0  0  0  0  0  0  0
  -28.9900  -24.0380   20.1490 C   0  0  0  0  0  3  0  0  0  0  0  0
  -28.1530  -25.1000   20.4320 C   0  0  0  0  0  3  0  0  0  0  0  0
  -28.3660  -26.4790   20.1740 O   0  0  0  0  0  0  0  0  0  0  0  0
  -24.6310  -31.8890   23.2270 C   0  0  0  0  0  0  0  0  0  0  0  0
  -27.2570  -27.3460   20.1550 C   0  0  0  0  0  0  0  0  0  0  0  0
  -23.4320  -30.4960   21.5770 C   0  0  0  0  0  3  0  0  0  0  0  0
  -24.8900  -28.9550   20.1450 C   0  0  0  0  0  0  0  0  0  0  0  0
  -25.9710  -30.8190   21.4010 C   0  0  0  0  0  2  0  0  0  0  0  0
  -26.0560  -29.4420   20.7490 C   0  0  0  0  0  0  0  0  0  0  0  0
  -27.2440  -28.6480   20.7470 C   0  0  0  0  0  3  0  0  0  0  0  0
  -26.0720  -26.9180   19.5200 C   0  0  0  0  0  3  0  0  0  0  0  0
  -24.9000  -27.6970   19.5210 C   0  0  0  0  0  3  0  0  0  0  0  0
  -23.6500  -29.8270   20.1950 C   0  0  0  0  0  2  0  0  0  0  0  0
  -24.6970  -31.0860   22.1250 N   0  0  0  0  0  0  0  0  0  0  0  0
  -23.5460  -32.1620   23.7620 O   0  0  0  0  0  0  0  0  0  0  0  0
  -22.7690  -29.4750   22.5330 C   0  0  0  0  0  0  0  0  0  0  0  0
  -21.4430  -29.2970   22.4040 N   0  0  0  0  0  0  0  0  0  0  0  0
  -23.4480  -28.8450   23.3480 O   0  0  0  0  0  0  0  0  0  0  0  0
  -20.9560  -29.8580   21.7190 H   0  0  0  0  0  0  0  0  0  0  0  0
  -18.0640  -28.1100   22.9090 C   0  0  0  0  0  0  0  0  0  0  0  0
  -20.6250  -28.3550   23.1700 C   0  0  0  0  0  3  0  0  0  0  0  0
  -20.7180  -26.9290   22.5800 C   0  0  0  0  0  2  0  0  0  0  0  0
  -19.6100  -26.6210   21.5670 C   0  0  0  0  0  2  0  0  0  0  0  0
  -18.2310  -26.7660   22.2200 C   0  0  0  0  0  2  0  0  0  0  0  0
  -19.1880  -28.8630   23.3410 C   0  0  0  0  0  0  0  0  0  0  0  0
  -18.9760  -30.1210   23.9470 C   0  0  0  0  0  3  0  0  0  0  0  0
  -17.6740  -30.6250   24.1230 C   0  0  0  0  0  3  0  0  0  0  0  0
  -16.5650  -29.8690   23.7070 C   0  0  0  0  0  3  0  0  0  0  0  0
  -16.7600  -28.6120   23.1060 C   0  0  0  0  0  3  0  0  0  0  0  0
  -25.9120  -32.5200   23.8540 C   0  0  0  0  0  3  0  0  0  0  0  0
  -26.4310  -31.7410   25.1240 C   0  0  1  0  0  0  0  0  0  0  0  0
  -25.3380  -31.4890   26.1890 C   0  0  0  0  0  1  0  0  0  0  0  0
  -27.0210  -30.3690   24.7230 C   0  0  0  0  0  1  0  0  0  0  0  0
  -27.5770  -32.5340   25.7950 C   0  0  0  0  0  1  0  0  0  0  0  0
  -25.5980  -33.9150   24.1950 N   0  0  0  0  0  0  0  0  0  0  0  0
  -25.9180  -34.9750   23.4410 C   0  0  0  0  0  0  0  0  0  0  0  0
  -26.5790  -34.8820   22.4020 O   0  0  0  0  0  0  0  0  0  0  0  0
  -25.0100  -34.0620   25.0030 H   0  0  0  0  0  0  0  0  0  0  0  0
  -24.1770  -36.7610   23.1200 C   0  0  0  0  0  1  0  0  0  0  0  0
  -25.4290  -36.3580   23.9130 C   0  0  0  0  0  3  0  0  0  0  0  0
  -27.5670  -37.2510   24.7270 C   0  0  0  0  0  1  0  0  0  0  0  0
  -26.4550  -37.4180   23.7940 N   0  0  0  0  0  0  0  0  0  0  0  0
  -26.0450  -38.3350   23.9500 H   0  0  0  0  0  0  0  0  0  0  0  0
  1  3  2  0
  2  9  1  0
  2  1  1  0
  4  2  1  0
  6  5  1  0
  7  8  1  0
  8 20  1  0
  8  5  2  0
  9  6  2  0
 10  7  2  0
 10  9  1  0
 11 10  1  0
 12 20  1  0
 13 18  1  0
 14 15  1  0
 14 13  1  0
 16 15  1  0
 16 25  1  0
 16 17  1  0
 18 12  1  0
 18 17  1  0
 19 12  2  0
 20 21  1  0
 22 23  2  0
 23 42  1  0
 24 23  1  0
 24 27  1  0
 25 26  1  0
 25 22  1  0
 26 24  2  0
 27 28  1  0
 28 29  2  0
 30 33  1  0
 30 29  1  0
 31 30  2  0
 32 31  1  0
 32 27  2  0
 33 34  1  0
 34 35  1  0
 35 36  2  0
 37 36  1  0
 37 41  1  0
 38 37  2  0
 39 34  2  0
 39 38  1  0
 40 39  1  0
 42 43  1  0
 43 46  1  0
 43 45  1  0
 44 42  2  0
 47 22  1  0
 47 48  1  0
 49 47  1  0
 50 51  2  0
 50  1  1  0
 52 51  1  0
 53 64  2  0
 54 52  1  0
 54 59  1  0
 55 63  1  0
 55 65  1  0
 56 62  1  0
 56 58  1  0
 57 63  1  0
 58 57  1  0
 59 58  2  0
 60 61  1  0
 60 54  2  0
 61 56  2  0
 62 55  1  0
 63 53  1  0
 65 67  2  0
 66 65  1  0
 68 66  1  0
 69 78  2  0
 69 74  1  0
 70 66  1  0
 70 74  1  0
 71 70  1  0
 72 73  1  0
 72 71  1  0
 73 69  1  0
 74 75  2  0
 75 76  1  0
 77 76  2  0
 78 77  1  0
 79 53  1  0
 79 84  1  0
 79 80  1  0
 80 83  1  1
 80 81  1  0
 82 80  1  0
 84 87  1  0
 85 89  1  0
 85 84  1  0
 86 85  2  0
 89 88  1  0
 91 89  1  0
 91 92  1  0
 91 90  1  0
M  ISO  4  12 100  20 100  51 101  52 101
M  END
>  <TORSDO>  (24) 
F 18

>  <SCORE>  (24) 
-14.351

>  <name>  (24) 
23

>  <ligand_id>  (24) 
23

>  <original_smiles>  (24) 
[H]C(Oc1c([H])c([H])c2c(c1[H])C([H])([H])N(C(=O)C([H])(N([H])C(=O)C([H])(N([H])C([H])([H])[H])C([H])([H])[H])C(C([H])([H])[H])(C([H])([H])[H])C([H])([H])[H])C([H])(C(=O)N([H])C1([H])c3c([H])c([H])c([H])c([H])c3C([H])([H])C([H])([H])C1([H])[H])C2([H])[H])=C([H])C(=O)N([H])c1c([H])c([H])c(N([H])C(=O)N2C([H])([H])C([H])([H])C([H])([H])C([H])(n3nc(-c4c([H])c([H])c(Oc5c([H])c([H])c(F)c([H])c5F)c([H])c4[H])c(C(=O)N([H])[H])c3N([H])[H])C2([H])[H])c([H])c1F

>  <smiles>  (24) 
[H]C(Oc1c([H])c([H])c2c(c1[H])C([H])([H])N(C(=O)C([H])(N([H])C(=O)C([H])(N([H])C([H])([H])[H])C([H])([H])[H])C(C([H])([H])[H])(C([H])([H])[H])C([H])([H])[H])C([H])(C(=O)N([H])C1([H])c3c([H])c([H])c([H])c([H])c3C([H])([H])C([H])([H])C1([H])[H])C2([H])[H])=C([H])C(=O)N([H])c1c([H])c([H])c(N([H])C(=O)N2C([H])([H])C([H])([H])C([H])([H])C([H])(n3nc(-c4c([H])c([H])c(Oc5c([H])c([H])c(F)c([H])c5F)c([H])c4[H])c(C(=O)N([H])[H])c3N([H])[H])C2([H])[H])c([H])c1F

$$$$
24:0:0
     RDKit          3D

 95103  0  0  1  0  0  0  0  0999 V2000
  -30.6630  -18.7220   21.6430 C   0  0  0  0  0  3  0  0  0  0  0  0
  -28.4650  -19.7750   20.2620 C   0  0  0  0  0  3  0  0  0  0  0  0
  -29.7540  -17.8260   21.0370 C   0  0  0  0  0  0  0  0  0  0  0  0
  -30.4450  -20.1200   21.6140 C   0  0  0  0  0  0  0  0  0  0  0  0
  -28.6230  -18.3630   20.3650 C   0  0  0  0  0  0  0  0  0  0  0  0
  -29.3570  -20.6670   20.8920 C   0  0  0  0  0  0  0  0  0  0  0  0
  -31.2650  -20.9570   22.3640 N   0  0  0  0  0  0  0  0  0  0  0  0
  -31.7470  -20.5260   23.1460 H   0  0  0  0  0  0  0  0  0  0  0  0
  -30.8410  -21.8430   22.6340 H   0  0  0  0  0  0  0  0  0  0  0  0
  -26.3980  -18.0070   19.5650 C   0  0  0  0  0  1  0  0  0  0  0  0
  -27.6890  -17.4820   19.8650 O   0  0  0  0  0  0  0  0  0  0  0  0
  -29.9580  -16.3040   21.2080 C   0  0  0  0  0  2  0  0  0  0  0  0
  -30.8490  -14.4730   19.7550 C   0  0  0  0  0  0  0  0  0  0  0  0
  -30.4500  -12.2780   18.6970 C   0  0  0  0  0  2  0  0  0  0  0  0
  -29.4060  -12.4580   17.5760 C   0  0  0  0  0  2  0  0  0  0  0  0
  -27.9750  -12.3480   18.1370 C   0  0  0  0  0  2  0  0  0  0  0  0
  -27.7580  -13.2120   19.4070 C   0  0  0  0  0  3  0  0  0  0  0  0
  -28.9060  -13.0140   20.4210 C   0  0  0  0  0  2  0  0  0  0  0  0
  -30.1670  -13.2950   19.7220 N   0  0  0  0  0  0  0  0  0  0  0  0
  -31.9640  -14.6040   19.2470 O   0  0  0  0  0  0  0  0  0  0  0  0
  -30.0990  -15.5760   19.9400 N   0  0  0  0  0  0  0  0  0  0  0  0
  -30.2920  -16.2420   19.2080 H   0  0  0  0  0  0  0  0  0  0  0  0
  -25.4670  -13.8620   20.3670 C   0  0  0  0  0  0  0  0  0  0  0  0
  -24.4120  -13.1130   20.8110 C   0  0  0  0  0  0  0  0  0  0  0  0
  -24.8200  -11.7500   20.6880 C   0  0  0  0  0  0  0  0  0  0  0  0
  -26.4540  -12.9600   20.0100 N   0  0  0  0  0  0  0  0  0  0  0  0
  -26.0750  -11.6800   20.2590 N   0  0  0  0  0  0  0  0  0  0  0  0
  -24.0720  -10.5050   20.9040 C   0  0  0  0  0  0  0  0  0  0  0  0
  -24.5440   -9.5010   21.7790 C   0  0  0  0  0  3  0  0  0  0  0  0
  -23.7960   -8.3220   21.9830 C   0  0  0  0  0  3  0  0  0  0  0  0
  -22.5620   -8.1390   21.3140 C   0  0  0  0  0  0  0  0  0  0  0  0
  -22.1080   -9.1330   20.4280 C   0  0  0  0  0  3  0  0  0  0  0  0
  -22.8550  -10.3040   20.2220 C   0  0  0  0  0  3  0  0  0  0  0  0
  -21.7790   -7.0190   21.4340 O   0  0  0  0  0  0  0  0  0  0  0  0
  -21.7600   -6.2730   22.5860 C   0  0  0  0  0  0  0  0  0  0  0  0
  -21.4080   -6.8360   23.8330 C   0  0  0  0  0  3  0  0  0  0  0  0
  -21.3380   -6.0190   24.9800 C   0  0  0  0  0  3  0  0  0  0  0  0
  -21.6060   -4.6400   24.8790 C   0  0  0  0  0  0  0  0  0  0  0  0
  -21.9490   -4.0770   23.6370 C   0  0  0  0  0  3  0  0  0  0  0  0
  -22.0260   -4.8920   22.4940 C   0  0  0  0  0  0  0  0  0  0  0  0
  -22.3380   -4.3420   21.2960 F   0  0  0  0  0  0  0  0  0  0  0  0
  -21.5300   -3.8540   25.9770 F   0  0  0  0  0  0  0  0  0  0  0  0
  -23.0670  -13.6230   21.2390 C   0  0  0  0  0  0  0  0  0  0  0  0
  -22.4120  -12.9270   22.1630 N   0  0  0  0  0  0  0  0  0  0  0  0
  -22.6120  -14.6760   20.7920 O   0  0  0  0  0  0  0  0  0  0  0  0
  -22.7980  -12.0780   22.5450 H   0  0  0  0  0  0  0  0  0  0  0  0
  -21.5140  -13.2510   22.4910 H   0  0  0  0  0  0  0  0  0  0  0  0
  -25.6620  -15.2300   20.2220 N   0  0  0  0  0  0  0  0  0  0  0  0
  -24.9420  -15.9010   20.4610 H   0  0  0  0  0  0  0  0  0  0  0  0
  -26.5530  -15.6620   20.0070 H   0  0  0  0  0  0  0  0  0  0  0  0
  -29.0840  -22.0300   20.8990 O   0  0  0  0  0  0  0  0  0  0  0  0
  -29.7000  -22.8240   19.8720 C   0  0  0  0  0  2  0  0  0  0  0  0
  -29.6980  -24.3610   20.1770 C   0  0  0  0  0  2  0  0  0  0  0  0
  -28.5200  -25.1800   19.5750 C   0  0  0  0  0  2  0  0  0  0  0  0
  -28.6150  -26.6140   19.7860 O   0  0  0  0  0  0  0  0  0  0  0  0
  -24.6140  -31.5770   22.9880 C   0  0  0  0  0  0  0  0  0  0  0  0
  -27.4330  -27.3430   19.7500 C   0  0  0  0  0  0  0  0  0  0  0  0
  -23.4740  -30.2110   21.2750 C   0  0  0  0  0  3  0  0  0  0  0  0
  -24.9920  -28.7940   19.7910 C   0  0  0  0  0  0  0  0  0  0  0  0
  -25.9900  -30.6610   21.1200 C   0  0  0  0  0  2  0  0  0  0  0  0
  -26.1290  -29.3250   20.4100 C   0  0  0  0  0  0  0  0  0  0  0  0
  -27.3520  -28.6100   20.3840 C   0  0  0  0  0  3  0  0  0  0  0  0
  -26.2720  -26.8440   19.1140 C   0  0  0  0  0  3  0  0  0  0  0  0
  -25.0590  -27.5530   19.1380 C   0  0  0  0  0  3  0  0  0  0  0  0
  -23.7160  -29.6050   19.8680 C   0  0  0  0  0  2  0  0  0  0  0  0
  -24.7110  -30.8320   21.8510 N   0  0  0  0  0  0  0  0  0  0  0  0
  -23.5180  -31.7810   23.5320 O   0  0  0  0  0  0  0  0  0  0  0  0
  -22.8540  -29.1240   22.1830 C   0  0  0  0  0  0  0  0  0  0  0  0
  -21.5260  -28.9520   22.0890 N   0  0  0  0  0  0  0  0  0  0  0  0
  -23.5630  -28.4430   22.9300 O   0  0  0  0  0  0  0  0  0  0  0  0
  -21.0120  -29.5620   21.4690 H   0  0  0  0  0  0  0  0  0  0  0  0
  -18.1700  -27.7260   22.6290 C   0  0  0  0  0  0  0  0  0  0  0  0
  -20.7360  -27.9580   22.8150 C   0  0  0  0  0  3  0  0  0  0  0  0
  -20.8130  -26.5790   22.1230 C   0  0  0  0  0  2  0  0  0  0  0  0
  -19.6680  -26.3310   21.1390 C   0  0  0  0  0  2  0  0  0  0  0  0
  -18.3150  -26.4340   21.8460 C   0  0  0  0  0  2  0  0  0  0  0  0
  -19.3090  -28.4530   23.0680 C   0  0  0  0  0  0  0  0  0  0  0  0
  -19.1230  -29.6730   23.7530 C   0  0  0  0  0  3  0  0  0  0  0  0
  -17.8310  -30.1660   24.0110 C   0  0  0  0  0  3  0  0  0  0  0  0
  -16.7050  -29.4340   23.5930 C   0  0  0  0  0  3  0  0  0  0  0  0
  -16.8770  -28.2180   22.9080 C   0  0  0  0  0  3  0  0  0  0  0  0
  -25.8690  -32.2280   23.6490 C   0  0  0  0  0  3  0  0  0  0  0  0
  -25.5080  -33.6000   24.0280 N   0  0  0  0  0  0  0  0  0  0  0  0
  -25.8180  -34.6930   23.3170 C   0  0  0  0  0  0  0  0  0  0  0  0
  -26.5070  -34.6540   22.2950 O   0  0  0  0  0  0  0  0  0  0  0  0
  -24.8950  -33.7000   24.8220 H   0  0  0  0  0  0  0  0  0  0  0  0
  -24.0360  -36.4420   22.9980 C   0  0  0  0  0  1  0  0  0  0  0  0
  -25.2750  -36.0460   23.8170 C   0  0  0  0  0  3  0  0  0  0  0  0
  -27.3630  -36.9640   24.7230 C   0  0  0  0  0  1  0  0  0  0  0  0
  -26.2740  -37.1340   23.7660 N   0  0  0  0  0  0  0  0  0  0  0  0
  -25.8360  -38.0330   23.9420 H   0  0  0  0  0  0  0  0  0  0  0  0
  -26.3990  -31.4250   24.8990 C   0  0  1  0  0  0  0  0  0  0  0  0
  -25.3100  -31.1200   25.9540 C   0  0  0  0  0  1  0  0  0  0  0  0
  -27.0210  -30.0770   24.4620 C   0  0  0  0  0  1  0  0  0  0  0  0
  -27.5230  -32.2250   25.5960 C   0  0  0  0  0  1  0  0  0  0  0  0
  2  5  2  0
  2  6  1  0
  3 12  1  0
  3  1  2  0
  4  1  1  0
  4  7  1  0
  5  3  1  0
  6 51  1  0
  6  4  2  0
  7  9  1  0
  7  8  1  0
 10 11  1  0
 11  5  1  0
 13 21  1  0
 14 19  1  0
 15 16  1  0
 15 14  1  0
 17 16  1  0
 17 26  1  0
 17 18  1  0
 19 13  1  0
 19 18  1  0
 20 13  2  0
 21 12  1  0
 22 21  1  0
 23 24  2  0
 24 43  1  0
 25 24  1  0
 25 28  1  0
 26 27  1  0
 26 23  1  0
 27 25  2  0
 28 29  1  0
 29 30  2  0
 31 34  1  0
 31 30  1  0
 32 31  2  0
 33 32  1  0
 33 28  2  0
 34 35  1  0
 35 36  1  0
 36 37  2  0
 38 37  1  0
 38 42  1  0
 39 38  2  0
 40 35  2  0
 40 39  1  0
 41 40  1  0
 43 44  1  0
 44 47  1  0
 44 46  1  0
 45 43  2  0
 48 23  1  0
 48 49  1  0
 50 48  1  0
 52 53  1  0
 52 51  1  0
 54 55  1  0
 54 53  1  0
 56 67  2  0
 57 55  1  0
 57 62  1  0
 58 66  1  0
 58 68  1  0
 59 65  1  0
 59 61  1  0
 60 66  1  0
 61 60  1  0
 62 61  2  0
 63 64  1  0
 63 57  2  0
 64 59  2  0
 65 58  1  0
 66 56  1  0
 68 70  2  0
 69 68  1  0
 71 69  1  0
 72 81  2  0
 72 77  1  0
 73 69  1  0
 73 77  1  0
 74 73  1  0
 75 76  1  0
 75 74  1  0
 76 72  1  0
 77 78  2  0
 78 79  1  0
 80 79  2  0
 81 80  1  0
 82 56  1  0
 82 83  1  0
 82 92  1  0
 83 86  1  0
 84 88  1  0
 84 83  1  0
 85 84  2  0
 88 87  1  0
 90 88  1  0
 90 91  1  0
 90 89  1  0
 92 95  1  1
 92 93  1  0
 94 92  1  0
M  ISO  4  13 100  21 100  54 101  55 101
M  END
>  <TORSDO>  (25) 
F 23

>  <SCORE>  (25) 
-12.316

>  <name>  (25) 
24

>  <ligand_id>  (25) 
24

>  <original_smiles>  (25) 
[H]c1c([H])c([H])c2c(c1[H])C([H])([H])C([H])([H])C([H])([H])C2([H])N([H])C(=O)C1([H])N(C(=O)C([H])(N([H])C(=O)C([H])(N([H])C([H])([H])[H])C([H])([H])[H])C(C([H])([H])[H])(C([H])([H])[H])C([H])([H])[H])C([H])([H])c2c([H])c(OC([H])([H])C([H])([H])C([H])([H])Oc3c([H])c(OC([H])([H])[H])c(C([H])([H])N([H])C(=O)N4C([H])([H])C([H])([H])C([H])([H])C([H])(n5nc(-c6c([H])c([H])c(Oc7c([H])c([H])c(F)c([H])c7F)c([H])c6[H])c(C(=O)N([H])[H])c5N([H])[H])C4([H])[H])c([H])c3N([H])[H])c([H])c([H])c2C1([H])[H]

>  <smiles>  (25) 
[H]c1c([H])c([H])c2c(c1[H])C([H])([H])C([H])([H])C([H])([H])C2([H])N([H])C(=O)C1([H])N(C(=O)C([H])(N([H])C(=O)C([H])(N([H])C([H])([H])[H])C([H])([H])[H])C(C([H])([H])[H])(C([H])([H])[H])C([H])([H])[H])C([H])([H])c2c([H])c(OC([H])([H])C([H])([H])C([H])([H])Oc3c([H])c(OC([H])([H])[H])c(C([H])([H])N([H])C(=O)N4C([H])([H])C([H])([H])C([H])([H])C([H])(n5nc(-c6c([H])c([H])c(Oc7c([H])c([H])c(F)c([H])c7F)c([H])c6[H])c(C(=O)N([H])[H])c5N([H])[H])C4([H])[H])c([H])c3N([H])[H])c([H])c([H])c2C1([H])[H]

$$$$
25:0:0
     RDKit          3D

 92100  0  0  1  0  0  0  0  0999 V2000
  -28.1800  -19.0410   20.0450 C   0  0  0  0  0  3  0  0  0  0  0  0
  -30.2830  -17.9460   20.5920 C   0  0  0  0  0  3  0  0  0  0  0  0
  -27.5260  -17.7950   20.0310 C   0  0  0  0  0  0  0  0  0  0  0  0
  -28.2270  -16.6250   20.4140 C   0  0  0  0  0  0  0  0  0  0  0  0
  -29.5430  -19.2090   20.3840 C   0  0  0  0  0  0  0  0  0  0  0  0
  -29.6470  -16.6180   20.5760 C   0  0  0  0  0  0  0  0  0  0  0  0
  -27.4040  -15.3600   20.7010 C   0  0  0  0  0  2  0  0  0  0  0  0
  -30.8560  -14.1860   20.1630 C   0  0  0  0  0  0  0  0  0  0  0  0
  -30.7060  -11.8000   19.3620 C   0  0  0  0  0  2  0  0  0  0  0  0
  -29.7580  -11.7350   18.1380 C   0  0  0  0  0  2  0  0  0  0  0  0
  -28.2790  -11.6350   18.5650 C   0  0  0  0  0  2  0  0  0  0  0  0
  -27.9150  -12.6460   19.6850 C   0  0  0  0  0  3  0  0  0  0  0  0
  -28.9670  -12.6020   20.8160 C   0  0  0  0  0  2  0  0  0  0  0  0
  -30.2800  -12.9280   20.2250 N   0  0  0  0  0  0  0  0  0  0  0  0
  -31.9640  -14.3360   19.6400 O   0  0  0  0  0  0  0  0  0  0  0  0
  -30.1370  -15.2100   20.7620 N   0  0  0  0  0  0  0  0  0  0  0  0
  -29.4920  -14.7380   21.3740 H   0  0  0  0  0  0  0  0  0  0  0  0
  -25.5830  -13.3930   20.4720 C   0  0  0  0  0  0  0  0  0  0  0  0
  -24.4660  -12.6900   20.8350 C   0  0  0  0  0  0  0  0  0  0  0  0
  -24.8160  -11.3090   20.7260 C   0  0  0  0  0  0  0  0  0  0  0  0
  -26.5530  -12.4450   20.1830 N   0  0  0  0  0  0  0  0  0  0  0  0
  -26.0960  -11.1830   20.3900 N   0  0  0  0  0  0  0  0  0  0  0  0
  -23.9880  -10.1020   20.8650 C   0  0  0  0  0  0  0  0  0  0  0  0
  -24.2540   -9.1320   21.8570 C   0  0  0  0  0  3  0  0  0  0  0  0
  -23.4310   -7.9920   21.9830 C   0  0  0  0  0  3  0  0  0  0  0  0
  -22.3290   -7.8120   21.1130 C   0  0  0  0  0  0  0  0  0  0  0  0
  -22.0830   -8.7680   20.1130 C   0  0  0  0  0  3  0  0  0  0  0  0
  -22.9050   -9.9010   19.9870 C   0  0  0  0  0  3  0  0  0  0  0  0
  -21.4910   -6.7240   21.1420 O   0  0  0  0  0  0  0  0  0  0  0  0
  -21.1490   -6.1120   22.3210 C   0  0  0  0  0  0  0  0  0  0  0  0
  -20.5360   -6.8210   23.3770 C   0  0  0  0  0  3  0  0  0  0  0  0
  -20.1400   -6.1400   24.5460 C   0  0  0  0  0  3  0  0  0  0  0  0
  -20.3430   -4.7510   24.6550 C   0  0  0  0  0  0  0  0  0  0  0  0
  -20.9460   -4.0420   23.6020 C   0  0  0  0  0  3  0  0  0  0  0  0
  -21.3460   -4.7210   22.4380 C   0  0  0  0  0  0  0  0  0  0  0  0
  -21.9080   -4.0300   21.4170 F   0  0  0  0  0  0  0  0  0  0  0  0
  -19.9550   -4.0950   25.7740 F   0  0  0  0  0  0  0  0  0  0  0  0
  -23.1200  -13.2660   21.1650 C   0  0  0  0  0  0  0  0  0  0  0  0
  -22.3720  -12.6070   22.0420 N   0  0  0  0  0  0  0  0  0  0  0  0
  -22.7450  -14.3360   20.6850 O   0  0  0  0  0  0  0  0  0  0  0  0
  -22.6830  -11.7350   22.4450 H   0  0  0  0  0  0  0  0  0  0  0  0
  -21.4720  -12.9780   22.3100 H   0  0  0  0  0  0  0  0  0  0  0  0
  -25.8470  -14.7530   20.3440 N   0  0  0  0  0  2  0  0  0  0  0  0
  -25.1440  -15.4630   20.5160 H   0  0  0  0  0  0  0  0  0  0  0  0
  -26.7360  -15.1420   20.0600 H   0  0  0  0  0  0  0  0  0  0  0  0
  -25.2260  -18.7690   19.6380 C   0  0  0  0  0  2  0  0  0  0  0  0
  -26.0900  -17.7400   19.6680 C   0  0  0  0  0  3  0  0  0  0  0  0
  -29.4210  -21.7150   20.2010 C   0  0  0  0  0  3  0  0  0  0  0  0
  -30.0500  -20.5890   20.5560 N   0  0  0  0  0  0  0  0  0  0  0  0
  -29.7230  -23.2670   20.5490 C   0  0  0  0  0  3  0  0  0  0  0  0
  -28.7420  -24.4430   19.9760 C   0  0  0  0  0  3  0  0  0  0  0  0
  -28.8980  -25.9230   20.2790 O   0  0  0  0  0  0  0  0  0  0  0  0
  -24.8510  -31.3010   23.1010 C   0  0  0  0  0  0  0  0  0  0  0  0
  -27.7710  -26.7870   20.1790 C   0  0  0  0  0  0  0  0  0  0  0  0
  -23.7910  -29.8830   21.3820 C   0  0  0  0  0  3  0  0  0  0  0  0
  -25.3710  -28.3820   20.0360 C   0  0  0  0  0  0  0  0  0  0  0  0
  -26.3330  -30.2600   21.3600 C   0  0  0  0  0  2  0  0  0  0  0  0
  -26.4930  -28.8840   20.7080 C   0  0  0  0  0  0  0  0  0  0  0  0
  -27.6940  -28.0990   20.7690 C   0  0  0  0  0  3  0  0  0  0  0  0
  -26.6150  -26.3560   19.4850 C   0  0  0  0  0  3  0  0  0  0  0  0
  -25.4390  -27.1270   19.4170 C   0  0  0  0  0  3  0  0  0  0  0  0
  -24.1140  -29.2310   20.0130 C   0  0  0  0  0  2  0  0  0  0  0  0
  -25.0070  -30.5000   22.0060 N   0  0  0  0  0  0  0  0  0  0  0  0
  -23.7280  -31.5410   23.5690 O   0  0  0  0  0  0  0  0  0  0  0  0
  -23.0980  -28.8400   22.2930 C   0  0  0  0  0  0  0  0  0  0  0  0
  -21.7940  -28.6060   22.0700 N   0  0  0  0  0  0  0  0  0  0  0  0
  -23.7390  -28.2430   23.1630 O   0  0  0  0  0  0  0  0  0  0  0  0
  -21.3310  -29.1420   21.3490 H   0  0  0  0  0  0  0  0  0  0  0  0
  -18.4290  -27.3030   22.3530 C   0  0  0  0  0  0  0  0  0  0  0  0
  -20.9590  -27.6330   22.7780 C   0  0  0  0  0  3  0  0  0  0  0  0
  -21.1380  -26.2120   22.1940 C   0  0  0  0  0  2  0  0  0  0  0  0
  -20.1090  -25.8720   21.1130 C   0  0  0  0  0  2  0  0  0  0  0  0
  -18.6870  -25.9680   21.6750 C   0  0  0  0  0  2  0  0  0  0  0  0
  -19.4960  -28.0910   22.8590 C   0  0  0  0  0  0  0  0  0  0  0  0
  -19.2040  -29.3400   23.4500 C   0  0  0  0  0  3  0  0  0  0  0  0
  -17.8750  -29.7970   23.5470 C   0  0  0  0  0  3  0  0  0  0  0  0
  -16.8210  -29.0030   23.0620 C   0  0  0  0  0  3  0  0  0  0  0  0
  -17.0990  -27.7610   22.4650 C   0  0  0  0  0  3  0  0  0  0  0  0
  -26.0710  -31.9690   23.8040 C   0  0  0  0  0  3  0  0  0  0  0  0
  -26.5380  -31.1960   25.0970 C   0  0  1  0  0  0  0  0  0  0  0  0
  -25.3840  -30.8580   26.0710 C   0  0  0  0  0  1  0  0  0  0  0  0
  -27.2370  -29.8710   24.7170 C   0  0  0  0  0  1  0  0  0  0  0  0
  -27.5810  -32.0390   25.8660 C   0  0  0  0  0  1  0  0  0  0  0  0
  -25.6940  -33.3510   24.1370 N   0  0  0  0  0  0  0  0  0  0  0  0
  -25.9910  -34.4240   23.3920 C   0  0  0  0  0  0  0  0  0  0  0  0
  -26.6780  -34.3570   22.3690 O   0  0  0  0  0  0  0  0  0  0  0  0
  -25.0830  -33.4720   24.9310 H   0  0  0  0  0  0  0  0  0  0  0  0
  -24.1850  -36.1380   23.0410 C   0  0  0  0  0  1  0  0  0  0  0  0
  -25.4400  -35.7860   23.8550 C   0  0  0  0  0  3  0  0  0  0  0  0
  -27.5240  -36.7720   24.7020 C   0  0  0  0  0  1  0  0  0  0  0  0
  -26.4220  -36.8860   23.7510 N   0  0  0  0  0  0  0  0  0  0  0  0
  -25.9720  -37.7850   23.8960 H   0  0  0  0  0  0  0  0  0  0  0  0
  1  5  1  0
  3  1  2  0
  3  4  1  0
  4  6  2  0
  4  7  1  0
  5 49  1  0
  5  2  2  0
  6  2  1  0
  6 16  1  0
  8 14  1  0
  8 16  1  0
  9 14  1  0
 10 11  1  0
 10  9  1  0
 12 11  1  0
 12 21  1  0
 12 13  1  0
 14 13  1  0
 15  8  2  0
 16 17  1  0
 18 19  2  0
 19 38  1  0
 20 19  1  0
 20 23  1  0
 21 22  1  0
 21 18  1  0
 22 20  2  0
 23 24  1  0
 24 25  2  0
 26 29  1  0
 26 25  1  0
 27 26  2  0
 28 27  1  0
 28 23  2  0
 29 30  1  0
 30 35  2  0
 30 31  1  0
 31 32  2  0
 32 33  1  0
 33 37  1  0
 34 33  2  0
 35 34  1  0
 36 35  1  0
 38 39  1  0
 39 42  1  0
 39 41  1  0
 40 38  2  0
 43 18  1  0
 43 44  1  0
 45  7  1  0
 46 47  2  0
 47  3  1  0
 48 50  1  0
 48 49  2  0
 51 52  1  0
 51 50  2  0
 53 64  2  0
 54 52  1  0
 54 59  1  0
 55 63  1  0
 55 65  1  0
 56 58  1  0
 57 63  1  0
 58 59  2  0
 58 57  1  0
 60 54  2  0
 61 60  1  0
 61 56  2  0
 62 56  1  0
 62 55  1  0
 63 53  1  0
 65 67  2  0
 66 65  1  0
 68 66  1  0
 69 78  2  0
 69 74  1  0
 70 66  1  0
 70 74  1  0
 71 70  1  0
 72 73  1  0
 72 71  1  0
 73 69  1  0
 74 75  2  0
 75 76  1  0
 77 76  2  0
 78 77  1  0
 79 53  1  0
 79 84  1  0
 79 80  1  0
 80 83  1  1
 80 81  1  0
 82 80  1  0
 84 87  1  0
 85 89  1  0
 85 84  1  0
 86 85  2  0
 89 88  1  0
 91 89  1  0
 91 92  1  0
 91 90  1  0
M  ISO  4   8 100  16 100  51 101  52 101
M  END
>  <TORSDO>  (26) 
F 20

>  <SCORE>  (26) 
-10.787

>  <name>  (26) 
25

>  <ligand_id>  (26) 
25

>  <original_smiles>  (26) 
[H]C(=Nc1c([H])c(C([H])=C([H])[H])c(C([H])([H])[H])c(N([H])C(=O)N2C([H])([H])C([H])([H])C([H])([H])C([H])(n3nc(-c4c([H])c([H])c(Oc5c([H])c([H])c(F)c([H])c5F)c([H])c4[H])c(C(=O)N([H])[H])c3N([H])[H])C2([H])[H])c1[H])C([H])([H])C([H])([H])Oc1c([H])c([H])c2c(c1[H])C([H])([H])N(C(=O)C([H])(N([H])C(=O)C([H])(N([H])C([H])([H])[H])C([H])([H])[H])C(C([H])([H])[H])(C([H])([H])[H])C([H])([H])[H])C([H])(C(=O)N([H])C1([H])c3c([H])c([H])c([H])c([H])c3C([H])([H])C([H])([H])C1([H])[H])C2([H])[H]

>  <smiles>  (26) 
[H]C(=Nc1c([H])c(C([H])=C([H])[H])c(C([H])([H])[H])c(N([H])C(=O)N2C([H])([H])C([H])([H])C([H])([H])C([H])(n3nc(-c4c([H])c([H])c(Oc5c([H])c([H])c(F)c([H])c5F)c([H])c4[H])c(C(=O)N([H])[H])c3N([H])[H])C2([H])[H])c1[H])C([H])([H])C([H])([H])Oc1c([H])c([H])c2c(c1[H])C([H])([H])N(C(=O)C([H])(N([H])C(=O)C([H])(N([H])C([H])([H])[H])C([H])([H])[H])C(C([H])([H])[H])(C([H])([H])[H])C([H])([H])[H])C([H])(C(=O)N([H])C1([H])c3c([H])c([H])c([H])c([H])c3C([H])([H])C([H])([H])C1([H])[H])C2([H])[H]

$$$$
26:0:0
     RDKit          3D

 93101  0  0  1  0  0  0  0  0999 V2000
  -28.0300  -23.0130   20.1130 C   0  0  0  0  0  0  0  0  0  0  0  0
  -28.8750  -21.8970   20.5200 N   0  0  0  0  0  0  0  0  0  0  0  0
  -26.8180  -22.7840   19.9960 O   0  0  0  0  0  0  0  0  0  0  0  0
  -29.3700  -17.7070   18.8370 C   0  0  0  0  0  3  0  0  0  0  0  0
  -28.7670  -20.1200   18.6820 C   0  0  0  0  0  3  0  0  0  0  0  0
  -29.3440  -19.1100   20.8070 C   0  0  0  0  0  3  0  0  0  0  0  0
  -28.9670  -18.8420   18.0840 C   0  0  0  0  0  0  0  0  0  0  0  0
  -29.5530  -17.7220   20.2330 C   0  0  0  0  0  0  0  0  0  0  0  0
  -28.9750  -20.3820   20.0580 C   0  0  0  0  0  0  0  0  0  0  0  0
  -30.5010  -15.1020   20.5960 C   0  0  0  0  0  0  0  0  0  0  0  0
  -30.4820  -12.6740   19.7860 C   0  0  0  0  0  2  0  0  0  0  0  0
  -29.6510  -12.6100   18.4810 C   0  0  0  0  0  2  0  0  0  0  0  0
  -28.1660  -12.3650   18.8180 C   0  0  0  0  0  2  0  0  0  0  0  0
  -27.6700  -13.3070   19.9490 C   0  0  0  0  0  3  0  0  0  0  0  0
  -28.6470  -13.3700   21.1430 C   0  0  0  0  0  2  0  0  0  0  0  0
  -29.9470  -13.8050   20.6170 N   0  0  0  0  0  0  0  0  0  0  0  0
  -31.6900  -15.1560   20.2600 O   0  0  0  0  0  0  0  0  0  0  0  0
  -29.7470  -16.3080   20.8920 N   0  0  0  0  0  0  0  0  0  0  0  0
  -28.9920  -16.0890   21.5260 H   0  0  0  0  0  0  0  0  0  0  0  0
  -25.2580  -13.8810   20.5590 C   0  0  0  0  0  0  0  0  0  0  0  0
  -24.1760  -13.1090   20.8820 C   0  0  0  0  0  0  0  0  0  0  0  0
  -24.6440  -11.7590   20.8990 C   0  0  0  0  0  0  0  0  0  0  0  0
  -26.3110  -13.0020   20.3790 N   0  0  0  0  0  0  0  0  0  0  0  0
  -25.9490  -11.7190   20.6480 N   0  0  0  0  0  0  0  0  0  0  0  0
  -23.9110  -10.5000   21.0810 C   0  0  0  0  0  0  0  0  0  0  0  0
  -24.3110   -9.5390   22.0370 C   0  0  0  0  0  3  0  0  0  0  0  0
  -23.5760   -8.3460   22.2050 C   0  0  0  0  0  3  0  0  0  0  0  0
  -22.4290   -8.1030   21.4140 C   0  0  0  0  0  0  0  0  0  0  0  0
  -22.0450   -9.0490   20.4480 C   0  0  0  0  0  3  0  0  0  0  0  0
  -22.7830  -10.2350   20.2780 C   0  0  0  0  0  3  0  0  0  0  0  0
  -21.6680   -6.9610   21.4860 O   0  0  0  0  0  0  0  0  0  0  0  0
  -21.5920   -6.2200   22.6380 C   0  0  0  0  0  0  0  0  0  0  0  0
  -21.1570   -6.7820   23.8570 C   0  0  0  0  0  3  0  0  0  0  0  0
  -21.0270   -5.9670   25.0000 C   0  0  0  0  0  3  0  0  0  0  0  0
  -21.3230   -4.5930   24.9240 C   0  0  0  0  0  0  0  0  0  0  0  0
  -21.7550   -4.0330   23.7080 C   0  0  0  0  0  3  0  0  0  0  0  0
  -21.8850   -4.8430   22.5680 C   0  0  0  0  0  0  0  0  0  0  0  0
  -22.2820   -4.2950   21.3930 F   0  0  0  0  0  0  0  0  0  0  0  0
  -21.1910   -3.8090   26.0170 F   0  0  0  0  0  0  0  0  0  0  0  0
  -22.7680  -13.5920   21.0670 C   0  0  0  0  0  0  0  0  0  0  0  0
  -21.9900  -12.9180   21.9070 N   0  0  0  0  0  0  0  0  0  0  0  0
  -22.3590  -14.6060   20.5000 O   0  0  0  0  0  0  0  0  0  0  0  0
  -22.3300  -12.1010   22.3930 H   0  0  0  0  0  0  0  0  0  0  0  0
  -21.0430  -13.2310   22.0730 H   0  0  0  0  0  0  0  0  0  0  0  0
  -25.4350  -15.2500   20.3860 N   0  0  0  0  0  0  0  0  0  0  0  0
  -24.6710  -15.9110   20.4880 H   0  0  0  0  0  0  0  0  0  0  0  0
  -26.3150  -15.6920   20.1590 H   0  0  0  0  0  0  0  0  0  0  0  0
  -28.5190  -19.5380   15.6930 C   0  0  0  0  0  2  0  0  0  0  0  0
  -28.7660  -18.6150   16.6370 C   0  0  0  0  0  3  0  0  0  0  0  0
  -31.0120  -22.1680   21.6170 C   0  0  0  0  0  2  0  0  0  0  0  0
  -29.6660  -22.2150   21.6180 C   0  0  0  0  0  3  0  0  0  0  0  0
  -28.4700  -24.6040   19.6840 C   0  0  0  0  0  2  0  0  0  0  0  0
  -28.2060  -26.0200   20.3760 O   0  0  0  0  0  0  0  0  0  0  0  0
  -24.6000  -31.8360   23.1800 C   0  0  0  0  0  0  0  0  0  0  0  0
  -27.1900  -27.0480   20.1820 C   0  0  0  0  0  0  0  0  0  0  0  0
  -23.4150  -30.4370   21.5340 C   0  0  0  0  0  3  0  0  0  0  0  0
  -24.8750  -28.8460   20.1110 C   0  0  0  0  0  0  0  0  0  0  0  0
  -25.9750  -30.6760   21.4000 C   0  0  0  0  0  2  0  0  0  0  0  0
  -26.0480  -29.2760   20.7450 C   0  0  0  0  0  0  0  0  0  0  0  0
  -27.1920  -28.3870   20.7750 C   0  0  0  0  0  3  0  0  0  0  0  0
  -26.0040  -26.7400   19.4880 C   0  0  0  0  0  3  0  0  0  0  0  0
  -24.8730  -27.5960   19.4680 C   0  0  0  0  0  3  0  0  0  0  0  0
  -23.6500  -29.7540   20.1570 C   0  0  0  0  0  2  0  0  0  0  0  0
  -24.6840  -31.0090   22.0910 N   0  0  0  0  0  0  0  0  0  0  0  0
  -23.5100  -32.1220   23.6990 O   0  0  0  0  0  0  0  0  0  0  0  0
  -22.7310  -29.4330   22.4940 C   0  0  0  0  0  0  0  0  0  0  0  0
  -21.3990  -29.2780   22.3780 N   0  0  0  0  0  0  0  0  0  0  0  0
  -23.4000  -28.7940   23.3090 O   0  0  0  0  0  0  0  0  0  0  0  0
  -20.9120  -29.8430   21.6950 H   0  0  0  0  0  0  0  0  0  0  0  0
  -18.0110  -28.1140   22.9110 C   0  0  0  0  0  0  0  0  0  0  0  0
  -20.5760  -28.3430   23.1470 C   0  0  0  0  0  3  0  0  0  0  0  0
  -20.6520  -26.9160   22.5550 C   0  0  0  0  0  2  0  0  0  0  0  0
  -19.5330  -26.6200   21.5510 C   0  0  0  0  0  2  0  0  0  0  0  0
  -18.1620  -26.7730   22.2150 C   0  0  0  0  0  2  0  0  0  0  0  0
  -19.1440  -28.8590   23.3370 C   0  0  0  0  0  0  0  0  0  0  0  0
  -18.9470  -30.1140   23.9510 C   0  0  0  0  0  3  0  0  0  0  0  0
  -17.6490  -30.6260   24.1420 C   0  0  0  0  0  3  0  0  0  0  0  0
  -16.5320  -29.8780   23.7330 C   0  0  0  0  0  3  0  0  0  0  0  0
  -16.7130  -28.6240   23.1220 C   0  0  0  0  0  3  0  0  0  0  0  0
  -25.8720  -32.4790   23.8180 C   0  0  0  0  0  3  0  0  0  0  0  0
  -26.3840  -31.7040   25.0960 C   0  0  1  0  0  0  0  0  0  0  0  0
  -25.2890  -31.4590   26.1610 C   0  0  0  0  0  1  0  0  0  0  0  0
  -26.9750  -30.3290   24.7110 C   0  0  0  0  0  1  0  0  0  0  0  0
  -27.5290  -32.5000   25.7650 C   0  0  0  0  0  1  0  0  0  0  0  0
  -25.5440  -33.8720   24.1660 N   0  0  0  0  0  0  0  0  0  0  0  0
  -25.8760  -34.9420   23.4340 C   0  0  0  0  0  0  0  0  0  0  0  0
  -26.5550  -34.8620   22.4060 O   0  0  0  0  0  0  0  0  0  0  0  0
  -24.9390  -34.0040   24.9630 H   0  0  0  0  0  0  0  0  0  0  0  0
  -24.1460  -36.7410   23.1030 C   0  0  0  0  0  1  0  0  0  0  0  0
  -25.3800  -36.3200   23.9150 C   0  0  0  0  0  3  0  0  0  0  0  0
  -27.5030  -37.2010   24.7810 C   0  0  0  0  0  1  0  0  0  0  0  0
  -26.4070  -37.3800   23.8320 N   0  0  0  0  0  0  0  0  0  0  0  0
  -25.9940  -38.2950   23.9900 H   0  0  0  0  0  0  0  0  0  0  0  0
  1  2  1  0
  2 51  1  0
  3  1  2  0
  4  8  1  0
  5  9  2  0
  7  5  1  0
  7  4  2  0
  8  6  2  0
  8 18  1  0
  9  2  1  0
  9  6  1  0
 10 16  1  0
 10 18  1  0
 11 16  1  0
 12 13  1  0
 12 11  1  0
 14 13  1  0
 14 23  1  0
 14 15  1  0
 16 15  1  0
 17 10  2  0
 18 19  1  0
 20 21  2  0
 21 22  1  0
 21 40  1  0
 22 25  1  0
 23 20  1  0
 23 24  1  0
 24 22  2  0
 25 26  1  0
 26 27  2  0
 28 31  1  0
 28 27  1  0
 29 28  2  0
 30 29  1  0
 30 25  2  0
 31 32  1  0
 32 33  1  0
 33 34  2  0
 35 34  1  0
 35 39  1  0
 36 35  2  0
 37 32  2  0
 37 36  1  0
 38 37  1  0
 40 41  1  0
 41 44  1  0
 41 43  1  0
 42 40  2  0
 45 46  1  0
 45 20  1  0
 47 45  1  0
 48 49  2  0
 49  7  1  0
 50 51  2  0
 52  1  1  0
 52 53  1  0
 54 65  2  0
 55 53  1  0
 55 60  1  0
 56 64  1  0
 56 66  1  0
 57 63  1  0
 57 59  1  0
 58 64  1  0
 59 60  2  0
 59 58  1  0
 61 55  2  0
 62 61  1  0
 62 57  2  0
 63 56  1  0
 64 54  1  0
 66 68  2  0
 67 66  1  0
 69 67  1  0
 70 79  2  0
 70 75  1  0
 71 67  1  0
 71 75  1  0
 72 71  1  0
 73 74  1  0
 73 72  1  0
 74 70  1  0
 75 76  2  0
 76 77  1  0
 78 77  2  0
 79 78  1  0
 80 54  1  0
 80 85  1  0
 80 81  1  0
 81 84  1  1
 81 82  1  0
 83 81  1  0
 85 88  1  0
 86 90  1  0
 86 85  1  0
 87 86  2  0
 90 89  1  0
 92 90  1  0
 92 93  1  0
 92 91  1  0
M  ISO  4  10 100  18 100  52 101  53 101
M  END
>  <TORSDO>  (27) 
F 20

>  <SCORE>  (27) 
-14.568

>  <name>  (27) 
26

>  <ligand_id>  (27) 
26

>  <original_smiles>  (27) 
[H]C([H])=C([H])c1c([H])c(N([H])C(=O)N2C([H])([H])C([H])([H])C([H])([H])C([H])(n3nc(-c4c([H])c([H])c(Oc5c([H])c([H])c(F)c([H])c5F)c([H])c4[H])c(C(=O)N([H])[H])c3N([H])[H])C2([H])[H])c([H])c(N(C(=O)C([H])([H])Oc2c([H])c([H])c3c(c2[H])C([H])([H])N(C(=O)C([H])(N([H])C(=O)C([H])(N([H])C([H])([H])[H])C([H])([H])[H])C(C([H])([H])[H])(C([H])([H])[H])C([H])([H])[H])C([H])(C(=O)N([H])C2([H])c4c([H])c([H])c([H])c([H])c4C([H])([H])C([H])([H])C2([H])[H])C3([H])[H])C([H])=C([H])[H])c1[H]

>  <smiles>  (27) 
[H]C([H])=C([H])c1c([H])c(N([H])C(=O)N2C([H])([H])C([H])([H])C([H])([H])C([H])(n3nc(-c4c([H])c([H])c(Oc5c([H])c([H])c(F)c([H])c5F)c([H])c4[H])c(C(=O)N([H])[H])c3N([H])[H])C2([H])[H])c([H])c(N(C(=O)C([H])([H])Oc2c([H])c([H])c3c(c2[H])C([H])([H])N(C(=O)C([H])(N([H])C(=O)C([H])(N([H])C([H])([H])[H])C([H])([H])[H])C(C([H])([H])[H])(C([H])([H])[H])C([H])([H])[H])C([H])(C(=O)N([H])C2([H])c4c([H])c([H])c([H])c([H])c4C([H])([H])C([H])([H])C2([H])[H])C3([H])[H])C([H])=C([H])[H])c1[H]

$$$$
27:0:0
     RDKit          3D

102112  0  0  1  0  0  0  0  0999 V2000
  -29.3730  -24.4820   19.4520 C   0  0  0  0  0  3  0  0  0  0  0  0
  -28.9930  -25.8150   19.4490 C   0  0  0  0  0  2  0  0  0  0  0  0
  -30.5000  -20.8970   20.3460 C   0  0  0  0  0  3  0  0  0  0  0  0
  -30.4880  -24.0510   18.5320 C   0  0  0  0  0  2  0  0  0  0  0  0
  -31.2320  -22.9640   19.3200 C   0  0  0  0  0  2  0  0  0  0  0  0
  -29.0320  -23.1970   20.2990 C   0  0  0  0  0  3  0  0  0  0  0  0
  -30.2140  -22.2500   20.1110 N   0  0  0  0  0  0  0  0  0  0  0  0
  -31.7360  -20.6310   20.7990 N   0  0  0  0  0  0  0  0  0  0  0  0
  -31.8880  -19.6460   20.9890 H   0  0  0  0  0  0  0  0  0  0  0  0
  -32.3670  -21.3220   21.1710 H   0  0  0  0  0  0  0  0  0  0  0  0
  -27.7400  -18.8920   16.3450 C   0  0  0  0  0  3  0  0  0  0  0  0
  -28.0870  -20.2080   16.6910 C   0  0  0  0  0  3  0  0  0  0  0  0
  -28.0690  -17.8390   17.2170 C   0  0  0  0  0  3  0  0  0  0  0  0
  -28.7490  -20.4700   17.9050 C   0  0  0  0  0  3  0  0  0  0  0  0
  -29.1040  -17.0180   19.2370 C   0  0  0  0  0  3  0  0  0  0  0  0
  -28.7300  -18.1020   18.4320 C   0  0  0  0  0  0  0  0  0  0  0  0
  -29.0590  -19.4230   18.8100 C   0  0  0  0  0  0  0  0  0  0  0  0
  -29.7500  -19.6040   20.0340 C   0  0  0  0  0  0  0  0  0  0  0  0
  -29.8090  -17.2020   20.4330 C   0  0  0  0  0  0  0  0  0  0  0  0
  -30.1130  -18.4980   20.8130 N   0  0  0  0  0  0  0  0  0  0  0  0
  -30.8200  -14.9040   20.9700 C   0  0  0  0  0  0  0  0  0  0  0  0
  -30.7610  -12.5910   20.0610 C   0  0  0  0  0  2  0  0  0  0  0  0
  -29.9590  -12.6390   18.7410 C   0  0  0  0  0  2  0  0  0  0  0  0
  -28.4550  -12.4490   19.0210 C   0  0  0  0  0  2  0  0  0  0  0  0
  -27.9370  -13.3600   20.1650 C   0  0  0  0  0  3  0  0  0  0  0  0
  -28.8770  -13.3160   21.3930 C   0  0  0  0  0  2  0  0  0  0  0  0
  -30.2350  -13.6600   20.9360 N   0  0  0  0  0  0  0  0  0  0  0  0
  -32.0140  -15.0410   20.6790 O   0  0  0  0  0  0  0  0  0  0  0  0
  -30.0070  -15.9840   21.2260 N   0  0  0  0  0  0  0  0  0  0  0  0
  -29.1530  -15.6710   21.6580 H   0  0  0  0  0  0  0  0  0  0  0  0
  -25.4800  -13.9480   20.6270 C   0  0  0  0  0  0  0  0  0  0  0  0
  -24.3910  -13.1690   20.9090 C   0  0  0  0  0  0  0  0  0  0  0  0
  -24.8690  -11.8250   20.9570 C   0  0  0  0  0  0  0  0  0  0  0  0
  -26.5510  -13.0740   20.5180 N   0  0  0  0  0  0  0  0  0  0  0  0
  -26.1830  -11.7940   20.7750 N   0  0  0  0  0  0  0  0  0  0  0  0
  -24.1430  -10.5590   21.1090 C   0  0  0  0  0  0  0  0  0  0  0  0
  -24.4930   -9.6190   22.1050 C   0  0  0  0  0  3  0  0  0  0  0  0
  -23.7650   -8.4170   22.2420 C   0  0  0  0  0  3  0  0  0  0  0  0
  -22.6730   -8.1460   21.3840 C   0  0  0  0  0  0  0  0  0  0  0  0
  -22.3430   -9.0750   20.3810 C   0  0  0  0  0  3  0  0  0  0  0  0
  -23.0710  -10.2680   20.2400 C   0  0  0  0  0  3  0  0  0  0  0  0
  -21.9290   -6.9920   21.4260 O   0  0  0  0  0  0  0  0  0  0  0  0
  -21.7680   -6.2830   22.5890 C   0  0  0  0  0  0  0  0  0  0  0  0
  -21.1980   -6.8620   23.7440 C   0  0  0  0  0  3  0  0  0  0  0  0
  -20.9860   -6.0770   24.8950 C   0  0  0  0  0  3  0  0  0  0  0  0
  -21.3350   -4.7140   24.8910 C   0  0  0  0  0  0  0  0  0  0  0  0
  -21.8990   -4.1330   23.7410 C   0  0  0  0  0  3  0  0  0  0  0  0
  -22.1120   -4.9150   22.5920 C   0  0  0  0  0  0  0  0  0  0  0  0
  -22.6370   -4.3490   21.4780 F   0  0  0  0  0  0  0  0  0  0  0  0
  -21.1240   -3.9570   25.9920 F   0  0  0  0  0  0  0  0  0  0  0  0
  -22.9680  -13.6380   21.0290 C   0  0  0  0  0  0  0  0  0  0  0  0
  -22.1610  -12.9600   21.8370 N   0  0  0  0  0  0  0  0  0  0  0  0
  -22.5750  -14.6440   20.4370 O   0  0  0  0  0  0  0  0  0  0  0  0
  -22.4860  -12.1470   22.3410 H   0  0  0  0  0  0  0  0  0  0  0  0
  -21.2040  -13.2600   21.9560 H   0  0  0  0  0  0  0  0  0  0  0  0
  -25.6430  -15.3170   20.4370 N   0  0  0  0  0  0  0  0  0  0  0  0
  -24.8560  -15.9540   20.4870 H   0  0  0  0  0  0  0  0  0  0  0  0
  -26.5020  -15.7740   20.1590 H   0  0  0  0  0  0  0  0  0  0  0  0
  -28.8170  -23.5460   21.7780 C   0  0  0  0  0  0  0  0  0  0  0  0
  -27.4230  -24.0240   22.1810 C   0  0  0  0  0  1  0  0  0  0  0  0
  -29.6960  -23.4610   22.6410 O   0  0  0  0  0  0  0  0  0  0  0  0
  -28.3620  -26.5850   20.4200 O   0  0  0  0  0  0  0  0  0  0  0  0
  -24.5420  -31.9640   23.1750 C   0  0  0  0  0  0  0  0  0  0  0  0
  -27.2980  -27.4580   20.1790 C   0  0  0  0  0  0  0  0  0  0  0  0
  -23.3910  -30.5360   21.5160 C   0  0  0  0  0  3  0  0  0  0  0  0
  -24.8980  -29.0050   20.1130 C   0  0  0  0  0  0  0  0  0  0  0  0
  -25.9230  -30.9030   21.3770 C   0  0  0  0  0  2  0  0  0  0  0  0
  -26.0410  -29.5270   20.7340 C   0  0  0  0  0  0  0  0  0  0  0  0
  -27.2380  -28.7560   20.7710 C   0  0  0  0  0  3  0  0  0  0  0  0
  -26.1440  -26.9840   19.5250 C   0  0  0  0  0  3  0  0  0  0  0  0
  -24.9510  -27.7380   19.5010 C   0  0  0  0  0  3  0  0  0  0  0  0
  -23.6390  -29.8500   20.1430 C   0  0  0  0  0  2  0  0  0  0  0  0
  -24.6350  -31.1530   22.0800 N   0  0  0  0  0  0  0  0  0  0  0  0
  -23.4450  -32.2270   23.6880 O   0  0  0  0  0  0  0  0  0  0  0  0
  -22.7250  -29.5190   22.4730 C   0  0  0  0  0  0  0  0  0  0  0  0
  -21.3970  -29.3550   22.3520 N   0  0  0  0  0  0  0  0  0  0  0  0
  -23.4030  -28.8810   23.2830 O   0  0  0  0  0  0  0  0  0  0  0  0
  -20.9110  -29.9200   21.6700 H   0  0  0  0  0  0  0  0  0  0  0  0
  -18.0060  -28.2230   22.8960 C   0  0  0  0  0  0  0  0  0  0  0  0
  -20.5730  -28.4160   23.1160 C   0  0  0  0  0  3  0  0  0  0  0  0
  -20.6310  -26.9980   22.5030 C   0  0  0  0  0  2  0  0  0  0  0  0
  -19.5000  -26.7270   21.5060 C   0  0  0  0  0  2  0  0  0  0  0  0
  -18.1360  -26.8870   22.1830 C   0  0  0  0  0  2  0  0  0  0  0  0
  -19.1500  -28.9480   23.3220 C   0  0  0  0  0  0  0  0  0  0  0  0
  -18.9730  -30.1990   23.9500 C   0  0  0  0  0  3  0  0  0  0  0  0
  -17.6840  -30.7240   24.1570 C   0  0  0  0  0  3  0  0  0  0  0  0
  -16.5540  -29.9950   23.7480 C   0  0  0  0  0  3  0  0  0  0  0  0
  -16.7150  -28.7460   23.1230 C   0  0  0  0  0  3  0  0  0  0  0  0
  -25.8020  -32.6190   23.8190 C   0  0  0  0  0  3  0  0  0  0  0  0
  -25.4610  -34.0090   24.1520 N   0  0  0  0  0  0  0  0  0  0  0  0
  -25.8200  -35.0760   23.4260 C   0  0  0  0  0  0  0  0  0  0  0  0
  -26.5420  -34.9940   22.4270 O   0  0  0  0  0  0  0  0  0  0  0  0
  -24.8240  -34.1450   24.9220 H   0  0  0  0  0  0  0  0  0  0  0  0
  -24.1100  -36.8700   22.9960 C   0  0  0  0  0  1  0  0  0  0  0  0
  -25.2960  -36.4530   23.8790 C   0  0  0  0  0  3  0  0  0  0  0  0
  -27.3700  -37.3260   24.8630 C   0  0  0  0  0  1  0  0  0  0  0  0
  -26.3290  -37.5120   23.8560 N   0  0  0  0  0  0  0  0  0  0  0  0
  -25.9090  -38.4270   24.0000 H   0  0  0  0  0  0  0  0  0  0  0  0
  -26.3150  -31.8530   25.1000 C   0  0  1  0  0  0  0  0  0  0  0  0
  -25.2120  -31.5930   26.1530 C   0  0  0  0  0  1  0  0  0  0  0  0
  -26.9270  -30.4870   24.7120 C   0  0  0  0  0  1  0  0  0  0  0  0
  -27.4430  -32.6650   25.7800 C   0  0  0  0  0  1  0  0  0  0  0  0
  1  2  1  0
  1  6  1  0
  2 62  1  0
  3  8  1  0
  4  5  1  0
  4  1  1  0
  5  7  1  0
  6 59  1  0
  7  6  1  0
  7  3  1  0
  8  9  1  0
  8 10  1  0
 11 12  2  0
 11 13  1  0
 12 14  1  0
 13 16  2  0
 14 17  2  0
 15 19  2  0
 16 17  1  0
 16 15  1  0
 17 18  1  0
 18  3  1  0
 18 20  2  0
 19 20  1  0
 19 29  1  0
 21 29  1  0
 22 27  1  0
 23 24  1  0
 23 22  1  0
 25 24  1  0
 25 34  1  0
 25 26  1  0
 27 21  1  0
 27 26  1  0
 28 21  2  0
 29 30  1  0
 31 32  2  0
 32 33  1  0
 32 51  1  0
 33 36  1  0
 34 31  1  0
 34 35  1  0
 35 33  2  0
 36 37  1  0
 37 38  2  0
 39 42  1  0
 39 38  1  0
 40 39  2  0
 41 40  1  0
 41 36  2  0
 42 43  1  0
 43 48  2  0
 43 44  1  0
 44 45  2  0
 46 45  1  0
 46 50  1  0
 47 46  2  0
 48 47  1  0
 49 48  1  0
 51 52  1  0
 52 55  1  0
 52 54  1  0
 53 51  2  0
 56 57  1  0
 56 31  1  0
 58 56  1  0
 59 60  1  0
 59 61  2  0
 63 74  2  0
 64 62  1  0
 64 69  1  0
 65 73  1  0
 65 75  1  0
 66 72  1  0
 66 68  1  0
 67 73  1  0
 68 69  2  0
 68 67  1  0
 70 64  2  0
 71 70  1  0
 71 66  2  0
 72 65  1  0
 73 63  1  0
 75 77  2  0
 76 75  1  0
 78 76  1  0
 79 88  2  0
 79 84  1  0
 80 76  1  0
 80 84  1  0
 81 80  1  0
 82 83  1  0
 82 81  1  0
 83 79  1  0
 84 85  2  0
 85 86  1  0
 87 86  2  0
 88 87  1  0
 89 63  1  0
 89 90  1  0
 89 99  1  0
 90 93  1  0
 91 95  1  0
 91 90  1  0
 92 91  2  0
 95 94  1  0
 97 95  1  0
 97 98  1  0
 97 96  1  0
 99102  1  1
 99100  1  0
101 99  1  0
M  ISO  4   2 101  21 100  29 100  62 101
M  END
>  <TORSDO>  (28) 
F 18

>  <SCORE>  (28) 
-14.341

>  <name>  (28) 
27

>  <ligand_id>  (28) 
27

>  <original_smiles>  (28) 
[H]C(Oc1c([H])c([H])c2c(c1[H])C([H])([H])N(C(=O)C([H])(N([H])C(=O)C([H])(N([H])C([H])([H])[H])C([H])([H])[H])C(C([H])([H])[H])(C([H])([H])[H])C([H])([H])[H])C([H])(C(=O)N([H])C1([H])c3c([H])c([H])c([H])c([H])c3C([H])([H])C([H])([H])C1([H])[H])C2([H])[H])=C1C([H])(C(=O)C([H])([H])[H])N(C(c2nc(N([H])C(=O)N3C([H])([H])C([H])([H])C([H])([H])C([H])(n4nc(-c5c([H])c([H])c(Oc6c([H])c([H])c(F)c([H])c6F)c([H])c5[H])c(C(=O)N([H])[H])c4N([H])[H])C3([H])[H])c([H])c3c([H])c([H])c([H])c([H])c23)=[N+]([H])[H])C([H])([H])C1([H])[H]

>  <smiles>  (28) 
[H]C(Oc1c([H])c([H])c2c(c1[H])C([H])([H])N(C(=O)C([H])(N([H])C(=O)C([H])(N([H])C([H])([H])[H])C([H])([H])[H])C(C([H])([H])[H])(C([H])([H])[H])C([H])([H])[H])C([H])(C(=O)N([H])C1([H])c3c([H])c([H])c([H])c([H])c3C([H])([H])C([H])([H])C1([H])[H])C2([H])[H])=C1C([H])(C(=O)C([H])([H])[H])N(C(c2nc(N([H])C(=O)N3C([H])([H])C([H])([H])C([H])([H])C([H])(n4nc(-c5c([H])c([H])c(Oc6c([H])c([H])c(F)c([H])c6F)c([H])c5[H])c(C(=O)N([H])[H])c4N([H])[H])C3([H])[H])c([H])c3c([H])c([H])c([H])c([H])c23)=[N+]([H])[H])C([H])([H])C1([H])[H]

$$$$
28:0:0
     RDKit          3D

 93101  0  0  1  0  0  0  0  0999 V2000
  -29.3280  -20.9220   20.6710 N   0  0  0  0  0  0  0  0  0  0  0  0
  -29.8240  -20.7540   19.8000 H   0  0  0  0  0  0  0  0  0  0  0  0
  -28.7130  -20.1250   22.8820 C   0  0  0  0  0  3  0  0  0  0  0  0
  -29.1960  -19.7650   21.5740 C   0  0  0  0  0  0  0  0  0  0  0  0
  -29.4900  -18.3530   21.5160 C   0  0  0  0  0  0  0  0  0  0  0  0
  -28.6360  -19.1060   23.7870 C   0  0  0  0  0  0  0  0  0  0  0  0
  -28.2410  -19.1670   25.2260 C   0  0  0  0  0  1  0  0  0  0  0  0
  -29.1210  -17.6170   23.0700 S   0  0  0  0  0  0  0  0  0  0  0  0
  -30.6210  -14.7650   20.4620 C   0  0  0  0  0  0  0  0  0  0  0  0
  -30.4370  -12.4700   19.4920 C   0  0  0  0  0  2  0  0  0  0  0  0
  -29.5240  -12.5260   18.2480 C   0  0  0  0  0  2  0  0  0  0  0  0
  -28.0500  -12.3400   18.6570 C   0  0  0  0  0  2  0  0  0  0  0  0
  -27.6470  -13.2390   19.8560 C   0  0  0  0  0  3  0  0  0  0  0  0
  -28.6860  -13.1830   20.9980 C   0  0  0  0  0  2  0  0  0  0  0  0
  -29.9970  -13.5330   20.4310 N   0  0  0  0  0  0  0  0  0  0  0  0
  -31.7840  -14.8440   20.0590 O   0  0  0  0  0  0  0  0  0  0  0  0
  -30.1420  -17.2510   20.6270 C   0  0  0  0  0  0  0  0  0  0  0  0
  -29.8870  -15.8890   20.8330 N   0  0  0  0  0  0  0  0  0  0  0  0
  -30.9030  -17.6340   19.7320 O   0  0  0  0  0  0  0  0  0  0  0  0
  -29.0610  -15.6930   21.3730 H   0  0  0  0  0  0  0  0  0  0  0  0
  -25.2520  -13.8210   20.5690 C   0  0  0  0  0  0  0  0  0  0  0  0
  -24.1800  -13.0450   20.9190 C   0  0  0  0  0  0  0  0  0  0  0  0
  -24.6400  -11.6920   20.8740 C   0  0  0  0  0  0  0  0  0  0  0  0
  -26.2970  -12.9430   20.3290 N   0  0  0  0  0  0  0  0  0  0  0  0
  -25.9340  -11.6560   20.5720 N   0  0  0  0  0  0  0  0  0  0  0  0
  -23.9070  -10.4300   21.0420 C   0  0  0  0  0  0  0  0  0  0  0  0
  -24.3630   -9.4220   21.9190 C   0  0  0  0  0  3  0  0  0  0  0  0
  -23.6300   -8.2250   22.0760 C   0  0  0  0  0  3  0  0  0  0  0  0
  -22.4280   -8.0300   21.3560 C   0  0  0  0  0  0  0  0  0  0  0  0
  -21.9920   -9.0270   20.4660 C   0  0  0  0  0  3  0  0  0  0  0  0
  -22.7250  -10.2150   20.3060 C   0  0  0  0  0  3  0  0  0  0  0  0
  -21.6640   -6.8900   21.4250 O   0  0  0  0  0  0  0  0  0  0  0  0
  -21.6850   -6.0740   22.5280 C   0  0  0  0  0  0  0  0  0  0  0  0
  -21.4010   -6.5640   23.8230 C   0  0  0  0  0  3  0  0  0  0  0  0
  -21.3660   -5.6780   24.9190 C   0  0  0  0  0  3  0  0  0  0  0  0
  -21.6050   -4.3050   24.7230 C   0  0  0  0  0  0  0  0  0  0  0  0
  -21.8810   -3.8150   23.4350 C   0  0  0  0  0  3  0  0  0  0  0  0
  -21.9190   -4.6960   22.3420 C   0  0  0  0  0  0  0  0  0  0  0  0
  -22.1650   -4.2150   21.0990 F   0  0  0  0  0  0  0  0  0  0  0  0
  -21.5630   -3.4530   25.7740 F   0  0  0  0  0  0  0  0  0  0  0  0
  -22.7830  -13.5240   21.1870 C   0  0  0  0  0  0  0  0  0  0  0  0
  -22.0440  -12.8250   22.0420 N   0  0  0  0  0  0  0  0  0  0  0  0
  -22.3520  -14.5550   20.6710 O   0  0  0  0  0  0  0  0  0  0  0  0
  -22.4020  -11.9930   22.4870 H   0  0  0  0  0  0  0  0  0  0  0  0
  -21.1060  -13.1300   22.2590 H   0  0  0  0  0  0  0  0  0  0  0  0
  -25.4190  -15.1940   20.4150 N   0  0  0  0  0  0  0  0  0  0  0  0
  -24.6420  -15.8400   20.5070 H   0  0  0  0  0  0  0  0  0  0  0  0
  -26.2640  -15.6420   20.0860 H   0  0  0  0  0  0  0  0  0  0  0  0
  -28.4250  -22.1660   20.6460 C   0  0  0  0  0  2  0  0  0  0  0  0
  -28.9540  -23.6840   20.5270 C   0  0  0  0  0  0  0  0  0  0  0  0
  -30.1480  -23.9370   20.7270 O   0  0  0  0  0  0  0  0  0  0  0  0
  -27.9170  -24.8530   20.1500 C   0  0  0  0  0  2  0  0  0  0  0  0
  -28.2880  -26.3170   20.2340 O   0  0  0  0  0  0  0  0  0  0  0  0
  -24.6330  -31.8550   23.1990 C   0  0  0  0  0  0  0  0  0  0  0  0
  -27.2190  -27.2480   20.1430 C   0  0  0  0  0  0  0  0  0  0  0  0
  -23.4310  -30.4780   21.5440 C   0  0  0  0  0  3  0  0  0  0  0  0
  -24.8800  -28.9290   20.1100 C   0  0  0  0  0  0  0  0  0  0  0  0
  -25.9780  -30.7670   21.3800 C   0  0  0  0  0  2  0  0  0  0  0  0
  -26.0520  -29.3880   20.7230 C   0  0  0  0  0  0  0  0  0  0  0  0
  -27.2260  -28.5630   20.7240 C   0  0  0  0  0  3  0  0  0  0  0  0
  -26.0220  -26.8690   19.4880 C   0  0  0  0  0  3  0  0  0  0  0  0
  -24.8720  -27.6790   19.4790 C   0  0  0  0  0  3  0  0  0  0  0  0
  -23.6520  -29.8160   20.1580 C   0  0  0  0  0  2  0  0  0  0  0  0
  -24.7000  -31.0500   22.0990 N   0  0  0  0  0  0  0  0  0  0  0  0
  -23.5480  -32.1370   23.7270 O   0  0  0  0  0  0  0  0  0  0  0  0
  -22.7510  -29.4600   22.4910 C   0  0  0  0  0  0  0  0  0  0  0  0
  -21.4220  -29.3060   22.3660 N   0  0  0  0  0  0  0  0  0  0  0  0
  -23.4200  -28.8120   23.3010 O   0  0  0  0  0  0  0  0  0  0  0  0
  -20.9400  -29.8810   21.6890 H   0  0  0  0  0  0  0  0  0  0  0  0
  -18.0300  -28.1380   22.8490 C   0  0  0  0  0  0  0  0  0  0  0  0
  -20.5900  -28.3710   23.1260 C   0  0  0  0  0  3  0  0  0  0  0  0
  -20.6770  -26.9420   22.5400 C   0  0  0  0  0  2  0  0  0  0  0  0
  -19.5750  -26.6390   21.5210 C   0  0  0  0  0  2  0  0  0  0  0  0
  -18.1930  -26.7930   22.1630 C   0  0  0  0  0  2  0  0  0  0  0  0
  -19.1550  -28.8860   23.2880 C   0  0  0  0  0  0  0  0  0  0  0  0
  -18.9470  -30.1460   23.8910 C   0  0  0  0  0  3  0  0  0  0  0  0
  -17.6470  -30.6590   24.0550 C   0  0  0  0  0  3  0  0  0  0  0  0
  -16.5360  -29.9080   23.6320 C   0  0  0  0  0  3  0  0  0  0  0  0
  -16.7290  -28.6480   23.0370 C   0  0  0  0  0  3  0  0  0  0  0  0
  -25.9140  -32.4770   23.8340 C   0  0  0  0  0  3  0  0  0  0  0  0
  -26.4500  -31.6600   25.0740 C   0  0  1  0  0  0  0  0  0  0  0  0
  -25.3710  -31.3760   26.1450 C   0  0  0  0  0  1  0  0  0  0  0  0
  -27.0340  -30.3010   24.6220 C   0  0  0  0  0  1  0  0  0  0  0  0
  -27.6040  -32.4340   25.7530 C   0  0  0  0  0  1  0  0  0  0  0  0
  -25.5930  -33.8570   24.2260 N   0  0  0  0  0  0  0  0  0  0  0  0
  -25.9050  -34.9450   23.5100 C   0  0  0  0  0  0  0  0  0  0  0  0
  -26.5610  -34.8930   22.4670 O   0  0  0  0  0  0  0  0  0  0  0  0
  -25.0090  -33.9710   25.0410 H   0  0  0  0  0  0  0  0  0  0  0  0
  -24.1480  -36.7290   23.2640 C   0  0  0  0  0  1  0  0  0  0  0  0
  -25.4100  -36.3080   24.0330 C   0  0  0  0  0  3  0  0  0  0  0  0
  -27.5570  -37.1810   24.8460 C   0  0  0  0  0  1  0  0  0  0  0  0
  -26.4270  -37.3770   23.9420 N   0  0  0  0  0  0  0  0  0  0  0  0
  -26.0170  -38.2840   24.1420 H   0  0  0  0  0  0  0  0  0  0  0  0
  1  4  1  0
  2  1  1  0
  3  6  2  0
  4  3  1  0
  5  4  2  0
  5  8  1  0
  6  7  1  0
  8  6  1  0
  9 18  1  0
 10 15  1  0
 11 12  1  0
 11 10  1  0
 13 12  1  0
 13 24  1  0
 13 14  1  0
 15  9  1  0
 15 14  1  0
 16  9  2  0
 17 18  1  0
 17  5  1  0
 18 20  1  0
 19 17  2  0
 21 22  2  0
 22 41  1  0
 23 22  1  0
 23 26  1  0
 24 21  1  0
 24 25  1  0
 25 23  2  0
 26 27  1  0
 27 28  2  0
 29 32  1  0
 29 28  1  0
 30 29  2  0
 31 30  1  0
 31 26  2  0
 32 33  1  0
 33 34  1  0
 34 35  2  0
 36 35  1  0
 36 40  1  0
 37 36  2  0
 38 33  2  0
 38 37  1  0
 39 38  1  0
 41 42  1  0
 42 45  1  0
 42 44  1  0
 43 41  2  0
 46 47  1  0
 46 21  1  0
 48 46  1  0
 49  1  1  0
 50 49  1  0
 50 51  2  0
 52 53  1  0
 52 50  1  0
 54 65  2  0
 55 53  1  0
 55 60  1  0
 56 64  1  0
 56 66  1  0
 57 63  1  0
 57 59  1  0
 58 64  1  0
 59 60  2  0
 59 58  1  0
 61 55  2  0
 62 61  1  0
 62 57  2  0
 63 56  1  0
 64 54  1  0
 66 68  2  0
 67 66  1  0
 69 67  1  0
 70 79  2  0
 70 75  1  0
 71 67  1  0
 71 75  1  0
 72 71  1  0
 73 74  1  0
 73 72  1  0
 74 70  1  0
 75 76  2  0
 76 77  1  0
 78 77  2  0
 79 78  1  0
 80 54  1  0
 80 85  1  0
 80 81  1  0
 81 84  1  1
 81 82  1  0
 83 81  1  0
 85 88  1  0
 86 90  1  0
 86 85  1  0
 87 86  2  0
 90 89  1  0
 92 90  1  0
 92 93  1  0
 92 91  1  0
M  ISO  4   9 100  18 100  52 101  53 101
M  END
>  <TORSDO>  (29) 
F 20

>  <SCORE>  (29) 
5.910

>  <name>  (29) 
28

>  <ligand_id>  (29) 
28

>  <original_smiles>  (29) 
[H]c1c([H])c([H])c2c(c1[H])C([H])([H])C([H])([H])C([H])([H])C2([H])N([H])C(=O)C1([H])N(C(=O)C([H])(N([H])C(=O)C([H])(N([H])C([H])([H])[H])C([H])([H])[H])C(C([H])([H])[H])(C([H])([H])[H])C([H])([H])[H])C([H])([H])c2c([H])c(OC([H])([H])C(=O)C([H])([H])N([H])c3c(C(=O)N([H])C(=O)N4C([H])([H])C([H])([H])C([H])([H])C([H])(n5nc(-c6c([H])c([H])c(Oc7c([H])c([H])c(F)c([H])c7F)c([H])c6[H])c(C(=O)N([H])[H])c5N([H])[H])C4([H])[H])sc(C([H])([H])[H])c3[H])c([H])c([H])c2C1([H])[H]

>  <smiles>  (29) 
[H]c1c([H])c([H])c2c(c1[H])C([H])([H])C([H])([H])C([H])([H])C2([H])N([H])C(=O)C1([H])N(C(=O)C([H])(N([H])C(=O)C([H])(N([H])C([H])([H])[H])C([H])([H])[H])C(C([H])([H])[H])(C([H])([H])[H])C([H])([H])[H])C([H])([H])c2c([H])c(OC([H])([H])C(=O)C([H])([H])N([H])c3c(C(=O)N([H])C(=O)N4C([H])([H])C([H])([H])C([H])([H])C([H])(n5nc(-c6c([H])c([H])c(Oc7c([H])c([H])c(F)c([H])c7F)c([H])c6[H])c(C(=O)N([H])[H])c5N([H])[H])C4([H])[H])sc(C([H])([H])[H])c3[H])c([H])c([H])c2C1([H])[H]

$$$$
29:0:0
     RDKit          3D

 91 99  0  0  1  0  0  0  0  0999 V2000
  -30.4840  -15.1110   20.3620 C   0  0  0  0  0  0  0  0  0  0  0  0
  -30.3890  -12.7240   19.4600 C   0  0  0  0  0  2  0  0  0  0  0  0
  -29.4640  -12.6190   18.2250 C   0  0  0  0  0  2  0  0  0  0  0  0
  -28.0050  -12.3890   18.6570 C   0  0  0  0  0  2  0  0  0  0  0  0
  -27.5760  -13.3340   19.8100 C   0  0  0  0  0  3  0  0  0  0  0  0
  -28.6270  -13.4080   20.9380 C   0  0  0  0  0  2  0  0  0  0  0  0
  -29.8860  -13.8430   20.3170 N   0  0  0  0  0  0  0  0  0  0  0  0
  -31.6980  -15.1220   20.1210 O   0  0  0  0  0  0  0  0  0  0  0  0
  -29.1050  -19.0230   20.3450 C   0  0  0  0  0  3  0  0  0  0  0  0
  -29.4890  -20.4790   20.3620 C   0  0  0  0  0  0  0  0  0  0  0  0
  -30.8880  -20.6250   20.5050 C   0  0  0  0  0  0  0  0  0  0  0  0
  -30.0390  -17.8480   20.4450 C   0  0  0  0  0  0  0  0  0  0  0  0
  -31.7390  -19.4970   20.6000 C   0  0  0  0  0  0  0  0  0  0  0  0
  -31.3360  -18.1980   20.5690 N   0  0  0  0  0  0  0  0  0  0  0  0
  -29.7090  -16.3270   20.4460 N   0  0  0  0  0  0  0  0  0  0  0  0
  -31.4440  -21.8600   20.5470 F   0  0  0  0  0  0  0  0  0  0  0  0
  -28.7230  -16.1390   20.5190 H   0  0  0  0  0  0  0  0  0  0  0  0
  -25.2020  -13.8960   20.5720 C   0  0  0  0  0  0  0  0  0  0  0  0
  -24.1400  -13.1170   20.9300 C   0  0  0  0  0  0  0  0  0  0  0  0
  -24.6020  -11.7660   20.8730 C   0  0  0  0  0  0  0  0  0  0  0  0
  -26.2440  -13.0230   20.3110 N   0  0  0  0  0  0  0  0  0  0  0  0
  -25.8930  -11.7340   20.5600 N   0  0  0  0  0  0  0  0  0  0  0  0
  -23.8730  -10.5010   21.0400 C   0  0  0  0  0  0  0  0  0  0  0  0
  -24.2880   -9.5250   21.9710 C   0  0  0  0  0  3  0  0  0  0  0  0
  -23.5570   -8.3270   22.1280 C   0  0  0  0  0  3  0  0  0  0  0  0
  -22.3960   -8.0980   21.3510 C   0  0  0  0  0  0  0  0  0  0  0  0
  -22.0000   -9.0640   20.4090 C   0  0  0  0  0  3  0  0  0  0  0  0
  -22.7320  -10.2520   20.2510 C   0  0  0  0  0  3  0  0  0  0  0  0
  -21.6380   -6.9530   21.4170 O   0  0  0  0  0  0  0  0  0  0  0  0
  -21.5440   -6.2190   22.5710 C   0  0  0  0  0  0  0  0  0  0  0  0
  -21.0670   -6.7800   23.7750 C   0  0  0  0  0  3  0  0  0  0  0  0
  -20.9190   -5.9710   24.9190 C   0  0  0  0  0  3  0  0  0  0  0  0
  -21.2380   -4.6020   24.8610 C   0  0  0  0  0  0  0  0  0  0  0  0
  -21.7090   -4.0400   23.6610 C   0  0  0  0  0  3  0  0  0  0  0  0
  -21.8580   -4.8450   22.5190 C   0  0  0  0  0  0  0  0  0  0  0  0
  -22.2910   -4.2940   21.3600 F   0  0  0  0  0  0  0  0  0  0  0  0
  -21.0900   -3.8230   25.9580 F   0  0  0  0  0  0  0  0  0  0  0  0
  -22.7430  -13.5910   21.2080 C   0  0  0  0  0  0  0  0  0  0  0  0
  -22.0150  -12.8860   22.0660 N   0  0  0  0  0  0  0  0  0  0  0  0
  -22.3080  -14.6240   20.7010 O   0  0  0  0  0  0  0  0  0  0  0  0
  -22.3820  -12.0490   22.4980 H   0  0  0  0  0  0  0  0  0  0  0  0
  -21.0780  -13.1850   22.2950 H   0  0  0  0  0  0  0  0  0  0  0  0
  -25.3640  -15.2710   20.4160 N   0  0  0  0  0  0  0  0  0  0  0  0
  -24.5890  -15.9150   20.5300 H   0  0  0  0  0  0  0  0  0  0  0  0
  -26.1900  -15.7130   20.0350 H   0  0  0  0  0  0  0  0  0  0  0  0
  -28.5970  -21.8430   20.2360 C   0  0  0  0  0  3  0  0  0  0  0  0
  -28.8360  -23.2640   20.2660 C   0  0  0  0  0  3  0  0  0  0  0  0
  -27.8330  -24.5860   20.0630 C   0  0  0  0  0  2  0  0  0  0  0  0
  -28.1720  -26.1210   20.2460 O   0  0  0  0  0  0  0  0  0  0  0  0
  -24.6140  -31.9090   23.2480 C   0  0  0  0  0  0  0  0  0  0  0  0
  -27.1430  -27.1520   20.1870 C   0  0  0  0  0  0  0  0  0  0  0  0
  -23.3980  -30.5220   21.6170 C   0  0  0  0  0  3  0  0  0  0  0  0
  -24.8290  -28.9430   20.1740 C   0  0  0  0  0  0  0  0  0  0  0  0
  -25.9550  -30.7660   21.4350 C   0  0  0  0  0  2  0  0  0  0  0  0
  -26.0190  -29.3720   20.7770 C   0  0  0  0  0  0  0  0  0  0  0  0
  -27.1750  -28.4930   20.7640 C   0  0  0  0  0  3  0  0  0  0  0  0
  -25.9240  -26.8430   19.5400 C   0  0  0  0  0  3  0  0  0  0  0  0
  -24.7980  -27.6940   19.5380 C   0  0  0  0  0  3  0  0  0  0  0  0
  -23.6070  -29.8490   20.2340 C   0  0  0  0  0  2  0  0  0  0  0  0
  -24.6770  -31.0880   22.1540 N   0  0  0  0  0  0  0  0  0  0  0  0
  -23.5330  -32.1970   23.7840 O   0  0  0  0  0  0  0  0  0  0  0  0
  -22.7210  -29.5160   22.5830 C   0  0  0  0  0  0  0  0  0  0  0  0
  -21.3920  -29.3430   22.4600 N   0  0  0  0  0  0  0  0  0  0  0  0
  -23.3940  -28.8920   23.4070 O   0  0  0  0  0  0  0  0  0  0  0  0
  -20.9040  -29.8970   21.7710 H   0  0  0  0  0  0  0  0  0  0  0  0
  -18.0170  -28.1230   22.9670 C   0  0  0  0  0  0  0  0  0  0  0  0
  -20.5740  -28.4050   23.2360 C   0  0  0  0  0  3  0  0  0  0  0  0
  -20.6860  -26.9700   22.6710 C   0  0  0  0  0  2  0  0  0  0  0  0
  -19.5880  -26.6330   21.6570 C   0  0  0  0  0  2  0  0  0  0  0  0
  -18.2040  -26.7720   22.2980 C   0  0  0  0  0  2  0  0  0  0  0  0
  -19.1290  -28.8970   23.3940 C   0  0  0  0  0  0  0  0  0  0  0  0
  -18.8980  -30.1590   23.9820 C   0  0  0  0  0  3  0  0  0  0  0  0
  -17.5890  -30.6490   24.1460 C   0  0  0  0  0  3  0  0  0  0  0  0
  -16.4920  -29.8740   23.7340 C   0  0  0  0  0  3  0  0  0  0  0  0
  -16.7060  -28.6120   23.1510 C   0  0  0  0  0  3  0  0  0  0  0  0
  -25.8970  -32.5420   23.8670 C   0  0  0  0  0  3  0  0  0  0  0  0
  -25.5920  -33.9430   24.1990 N   0  0  0  0  0  0  0  0  0  0  0  0
  -25.9160  -34.9980   23.4400 C   0  0  0  0  0  0  0  0  0  0  0  0
  -26.5690  -34.8940   22.3990 O   0  0  0  0  0  0  0  0  0  0  0  0
  -25.0090  -34.0970   25.0090 H   0  0  0  0  0  0  0  0  0  0  0  0
  -24.1850  -36.7990   23.1260 C   0  0  0  0  0  1  0  0  0  0  0  0
  -25.4440  -36.3890   23.9090 C   0  0  0  0  0  3  0  0  0  0  0  0
  -27.5970  -37.2720   24.6930 C   0  0  0  0  0  1  0  0  0  0  0  0
  -26.4750  -37.4400   23.7730 N   0  0  0  0  0  0  0  0  0  0  0  0
  -26.0750  -38.3610   23.9260 H   0  0  0  0  0  0  0  0  0  0  0  0
  -26.4100  -31.7750   25.1480 C   0  0  1  0  0  0  0  0  0  0  0  0
  -25.3170  -31.5530   26.2210 C   0  0  0  0  0  1  0  0  0  0  0  0
  -26.9820  -30.3890   24.7690 C   0  0  0  0  0  1  0  0  0  0  0  0
  -27.5680  -32.5650   25.8030 C   0  0  0  0  0  1  0  0  0  0  0  0
  -33.9830  -18.6260   20.7770 C   0  0  0  0  0  1  0  0  0  0  0  0
  -33.0930  -19.7380   20.7360 O   0  0  0  0  0  0  0  0  0  0  0  0
  1 15  1  0
  2  7  1  0
  3  4  1  0
  3  2  1  0
  5  4  1  0
  5 21  1  0
  5  6  1  0
  7  1  1  0
  7  6  1  0
  8  1  2  0
  9 10  1  0
  9 12  2  0
 10 11  2  0
 11 16  1  0
 11 13  1  0
 12 15  1  0
 12 14  1  0
 13 91  1  0
 14 13  2  0
 15 17  1  0
 18 19  2  0
 19 38  1  0
 20 19  1  0
 20 23  1  0
 21 22  1  0
 21 18  1  0
 22 20  2  0
 23 24  1  0
 24 25  2  0
 26 29  1  0
 26 25  1  0
 27 26  2  0
 28 27  1  0
 28 23  2  0
 29 30  1  0
 30 31  1  0
 31 32  2  0
 33 32  1  0
 33 37  1  0
 34 33  2  0
 35 30  2  0
 35 34  1  0
 36 35  1  0
 38 39  1  0
 39 42  1  0
 39 41  1  0
 40 38  2  0
 43 44  1  0
 43 18  1  0
 45 43  1  0
 46 47  2  0
 46 10  1  0
 48 49  1  0
 48 47  1  0
 50 61  2  0
 51 49  1  0
 51 56  1  0
 52 60  1  0
 52 62  1  0
 53 59  1  0
 53 55  1  0
 54 60  1  0
 55 54  1  0
 56 55  2  0
 57 51  2  0
 58 57  1  0
 58 53  2  0
 59 52  1  0
 60 50  1  0
 62 64  2  0
 63 62  1  0
 65 63  1  0
 66 75  2  0
 66 71  1  0
 67 63  1  0
 67 71  1  0
 68 67  1  0
 69 70  1  0
 69 68  1  0
 70 66  1  0
 71 72  2  0
 72 73  1  0
 74 73  2  0
 75 74  1  0
 76 50  1  0
 76 77  1  0
 76 86  1  0
 77 80  1  0
 78 82  1  0
 78 77  1  0
 79 78  2  0
 82 81  1  0
 84 82  1  0
 84 85  1  0
 84 83  1  0
 86 89  1  1
 86 87  1  0
 88 86  1  0
 91 90  1  0
M  ISO  4   1 100  15 100  48 101  49 101
M  END
>  <TORSDO>  (30) 
F 18

>  <SCORE>  (30) 
-14.486

>  <name>  (30) 
29

>  <ligand_id>  (30) 
29

>  <original_smiles>  (30) 
[H]C(=C([H])C([H])([H])Oc1c([H])c([H])c2c(c1[H])C([H])([H])N(C(=O)C([H])(N([H])C(=O)C([H])(N([H])C([H])([H])[H])C([H])([H])[H])C(C([H])([H])[H])(C([H])([H])[H])C([H])([H])[H])C([H])(C(=O)N([H])C1([H])c3c([H])c([H])c([H])c([H])c3C([H])([H])C([H])([H])C1([H])[H])C2([H])[H])c1c([H])c(N([H])C(=O)N2C([H])([H])C([H])([H])C([H])([H])C([H])(n3nc(-c4c([H])c([H])c(Oc5c([H])c([H])c(F)c([H])c5F)c([H])c4[H])c(C(=O)N([H])[H])c3N([H])[H])C2([H])[H])nc(OC([H])([H])[H])c1F

>  <smiles>  (30) 
[H]C(=C([H])C([H])([H])Oc1c([H])c([H])c2c(c1[H])C([H])([H])N(C(=O)C([H])(N([H])C(=O)C([H])(N([H])C([H])([H])[H])C([H])([H])[H])C(C([H])([H])[H])(C([H])([H])[H])C([H])([H])[H])C([H])(C(=O)N([H])C1([H])c3c([H])c([H])c([H])c([H])c3C([H])([H])C([H])([H])C1([H])[H])C2([H])[H])c1c([H])c(N([H])C(=O)N2C([H])([H])C([H])([H])C([H])([H])C([H])(n3nc(-c4c([H])c([H])c(Oc5c([H])c([H])c(F)c([H])c5F)c([H])c4[H])c(C(=O)N([H])[H])c3N([H])[H])C2([H])[H])nc(OC([H])([H])[H])c1F

$$$$
30:0:0
     RDKit          3D

100108  0  0  1  0  0  0  0  0999 V2000
  -28.8410  -18.8610   20.8260 C   0  0  0  0  0  3  0  0  0  0  0  0
  -30.2620  -16.8780   20.3190 C   0  0  0  0  0  0  0  0  0  0  0  0
  -29.4880  -19.6650   19.8730 C   0  0  0  0  0  0  0  0  0  0  0  0
  -30.8720  -17.6870   19.2980 C   0  0  0  0  0  0  0  0  0  0  0  0
  -30.4530  -19.0250   19.0480 C   0  0  0  0  0  0  0  0  0  0  0  0
  -29.2000  -17.5100   21.0250 C   0  0  0  0  0  0  0  0  0  0  0  0
  -28.5410  -16.8270   21.9860 F   0  0  0  0  0  0  0  0  0  0  0  0
  -31.9520  -17.2400   18.5260 N   0  0  0  0  0  0  0  0  0  0  0  0
  -32.0850  -16.2380   18.3810 H   0  0  0  0  0  0  0  0  0  0  0  0
  -32.2040  -17.7930   17.7120 H   0  0  0  0  0  0  0  0  0  0  0  0
  -30.0180  -21.9510   19.7450 C   0  0  0  0  0  3  0  0  0  0  0  0
  -29.1210  -21.0320   19.7900 N   0  0  0  0  0  0  0  0  0  0  0  0
  -29.8460  -23.4720   19.6870 C   0  0  0  0  0  0  0  0  0  0  0  0
  -30.7730  -24.2110   19.3320 O   0  0  0  0  0  0  0  0  0  0  0  0
  -28.4830  -24.0820   20.0780 C   0  0  0  0  0  2  0  0  0  0  0  0
  -28.5340  -25.4240   20.8750 C   0  0  0  0  0  2  0  0  0  0  0  0
  -28.5310  -26.6510   20.1160 O   0  0  0  0  0  0  0  0  0  0  0  0
  -24.6960  -31.8310   23.2500 C   0  0  0  0  0  0  0  0  0  0  0  0
  -27.3600  -27.3860   20.1570 C   0  0  0  0  0  0  0  0  0  0  0  0
  -23.4960  -30.4260   21.6050 C   0  0  0  0  0  3  0  0  0  0  0  0
  -24.9570  -28.8880   20.1820 C   0  0  0  0  0  0  0  0  0  0  0  0
  -26.0230  -30.7870   21.4090 C   0  0  0  0  0  2  0  0  0  0  0  0
  -26.1160  -29.4170   20.7640 C   0  0  0  0  0  0  0  0  0  0  0  0
  -27.3210  -28.6740   20.7460 C   0  0  0  0  0  3  0  0  0  0  0  0
  -26.1800  -26.8690   19.5820 C   0  0  0  0  0  3  0  0  0  0  0  0
  -24.9850  -27.6140   19.5880 C   0  0  0  0  0  3  0  0  0  0  0  0
  -23.7110  -29.7450   20.2260 C   0  0  0  0  0  2  0  0  0  0  0  0
  -24.7590  -31.0300   22.1470 N   0  0  0  0  0  0  0  0  0  0  0  0
  -23.6120  -32.1010   23.7850 O   0  0  0  0  0  0  0  0  0  0  0  0
  -22.8410  -29.4040   22.5650 C   0  0  0  0  0  0  0  0  0  0  0  0
  -21.5190  -29.2130   22.4290 N   0  0  0  0  0  0  0  0  0  0  0  0
  -23.5230  -28.7860   23.3880 O   0  0  0  0  0  0  0  0  0  0  0  0
  -21.0300  -29.7680   21.7400 H   0  0  0  0  0  0  0  0  0  0  0  0
  -18.1510  -27.9940   22.9020 C   0  0  0  0  0  0  0  0  0  0  0  0
  -20.7040  -28.2700   23.1930 C   0  0  0  0  0  3  0  0  0  0  0  0
  -20.8220  -26.8400   22.6160 C   0  0  0  0  0  2  0  0  0  0  0  0
  -19.7290  -26.5090   21.5940 C   0  0  0  0  0  2  0  0  0  0  0  0
  -18.3420  -26.6460   22.2290 C   0  0  0  0  0  2  0  0  0  0  0  0
  -19.2600  -28.7640   23.3410 C   0  0  0  0  0  0  0  0  0  0  0  0
  -19.0290  -30.0270   23.9280 C   0  0  0  0  0  3  0  0  0  0  0  0
  -17.7180  -30.5190   24.0830 C   0  0  0  0  0  3  0  0  0  0  0  0
  -16.6230  -29.7450   23.6620 C   0  0  0  0  0  3  0  0  0  0  0  0
  -16.8400  -28.4850   23.0770 C   0  0  0  0  0  3  0  0  0  0  0  0
  -25.9780  -32.4640   23.8750 C   0  0  0  0  0  3  0  0  0  0  0  0
  -26.5150  -31.6720   25.1290 C   0  0  1  0  0  0  0  0  0  0  0  0
  -25.4300  -31.3820   26.1920 C   0  0  0  0  0  1  0  0  0  0  0  0
  -27.1300  -30.3200   24.7000 C   0  0  0  0  0  1  0  0  0  0  0  0
  -27.6490  -32.4750   25.8100 C   0  0  0  0  0  1  0  0  0  0  0  0
  -25.6600  -33.8530   24.2350 N   0  0  0  0  0  0  0  0  0  0  0  0
  -25.9850  -34.9240   23.5000 C   0  0  0  0  0  0  0  0  0  0  0  0
  -26.6570  -34.8460   22.4660 O   0  0  0  0  0  0  0  0  0  0  0  0
  -25.0680  -33.9870   25.0420 H   0  0  0  0  0  0  0  0  0  0  0  0
  -24.2510  -36.7140   23.1720 C   0  0  0  0  0  1  0  0  0  0  0  0
  -25.4870  -36.2980   23.9860 C   0  0  0  0  0  3  0  0  0  0  0  0
  -27.6070  -37.1730   24.8610 C   0  0  0  0  0  1  0  0  0  0  0  0
  -26.5150  -37.3570   23.9090 N   0  0  0  0  0  0  0  0  0  0  0  0
  -26.1040  -38.2730   24.0720 H   0  0  0  0  0  0  0  0  0  0  0  0
  -30.1690  -19.7170   16.8480 C   0  0  0  0  0  1  0  0  0  0  0  0
  -31.0150  -19.6970   17.9930 O   0  0  0  0  0  0  0  0  0  0  0  0
  -30.7130  -15.4950   20.8330 C   0  0  0  0  0  3  0  0  0  0  0  0
  -30.8190  -14.4140   19.7140 C   0  0  0  0  0  0  0  0  0  0  0  0
  -30.2070  -12.3650   18.4700 C   0  0  0  0  0  2  0  0  0  0  0  0
  -29.1570  -12.6400   17.3820 C   0  0  0  0  0  2  0  0  0  0  0  0
  -27.7430  -12.4860   17.9700 C   0  0  0  0  0  2  0  0  0  0  0  0
  -27.5590  -13.2680   19.3010 C   0  0  0  0  0  3  0  0  0  0  0  0
  -28.7410  -13.0400   20.2780 C   0  0  0  0  0  2  0  0  0  0  0  0
  -29.9950  -13.3310   19.5670 N   0  0  0  0  0  0  0  0  0  0  0  0
  -31.7990  -14.5300   18.9740 O   0  0  0  0  0  0  0  0  0  0  0  0
  -25.2570  -13.8390   20.2980 C   0  0  0  0  0  0  0  0  0  0  0  0
  -24.2370  -13.0520   20.7580 C   0  0  0  0  0  0  0  0  0  0  0  0
  -24.6900  -11.7020   20.6380 C   0  0  0  0  0  0  0  0  0  0  0  0
  -26.2710  -12.9690   19.9250 N   0  0  0  0  0  0  0  0  0  0  0  0
  -25.9380  -11.6790   20.1870 N   0  0  0  0  0  0  0  0  0  0  0  0
  -23.9850  -10.4330   20.8670 C   0  0  0  0  0  0  0  0  0  0  0  0
  -24.4560   -9.4830   21.7990 C   0  0  0  0  0  3  0  0  0  0  0  0
  -23.7470   -8.2820   22.0180 C   0  0  0  0  0  3  0  0  0  0  0  0
  -22.5550   -8.0190   21.3040 C   0  0  0  0  0  0  0  0  0  0  0  0
  -22.1010   -8.9570   20.3600 C   0  0  0  0  0  3  0  0  0  0  0  0
  -22.8120  -10.1490   20.1390 C   0  0  0  0  0  3  0  0  0  0  0  0
  -21.8160   -6.8660   21.4310 O   0  0  0  0  0  0  0  0  0  0  0  0
  -21.7390   -6.1870   22.6200 C   0  0  0  0  0  0  0  0  0  0  0  0
  -21.2580   -6.7980   23.7980 C   0  0  0  0  0  3  0  0  0  0  0  0
  -21.1330   -6.0450   24.9820 C   0  0  0  0  0  3  0  0  0  0  0  0
  -21.4770   -4.6800   24.9880 C   0  0  0  0  0  0  0  0  0  0  0  0
  -21.9500   -4.0670   23.8140 C   0  0  0  0  0  3  0  0  0  0  0  0
  -22.0780   -4.8190   22.6330 C   0  0  0  0  0  0  0  0  0  0  0  0
  -22.5160   -4.2180   21.4990 F   0  0  0  0  0  0  0  0  0  0  0  0
  -21.3490   -3.9530   26.1240 F   0  0  0  0  0  0  0  0  0  0  0  0
  -22.8760  -13.5170   21.1940 C   0  0  0  0  0  0  0  0  0  0  0  0
  -22.2470  -12.8020   22.1200 N   0  0  0  0  0  0  0  0  0  0  0  0
  -22.3830  -14.5520   20.7440 O   0  0  0  0  0  0  0  0  0  0  0  0
  -22.6610  -11.9700   22.5110 H   0  0  0  0  0  0  0  0  0  0  0  0
  -21.3370  -13.0990   22.4420 H   0  0  0  0  0  0  0  0  0  0  0  0
  -25.4010  -15.2160   20.1470 N   0  0  0  0  0  0  0  0  0  0  0  0
  -24.6460  -15.8580   20.3650 H   0  0  0  0  0  0  0  0  0  0  0  0
  -26.2160  -15.6800   19.7700 H   0  0  0  0  0  0  0  0  0  0  0  0
  -32.0560  -15.6200   21.4290 N   0  0  0  0  0  4  0  0  0  0  0  0
  -32.3540  -14.7130   21.7400 H   0  0  0  0  0  0  0  0  0  0  0  0
  -32.0910  -16.2680   22.1930 H   0  0  0  0  0  0  0  0  0  0  0  0
  -32.6790  -15.9080   20.6970 H   0  0  0  0  0  0  0  0  0  0  0  0
  1  6  1  0
  2 60  1  0
  2  6  2  0
  3  1  2  0
  4  2  1  0
  5  4  2  0
  5  3  1  0
  6  7  1  0
  8  4  1  0
  9  8  1  0
 10  8  1  0
 11 12  2  0
 12  3  1  0
 13 11  1  0
 13 15  1  0
 14 13  2  0
 15 16  1  0
 17 19  1  0
 17 16  1  0
 18 29  2  0
 19 24  1  0
 20 28  1  0
 20 30  1  0
 21 27  1  0
 21 23  1  0
 22 28  1  0
 23 22  1  0
 24 23  2  0
 25 26  1  0
 25 19  2  0
 26 21  2  0
 27 20  1  0
 28 18  1  0
 30 32  2  0
 31 30  1  0
 33 31  1  0
 34 43  2  0
 34 39  1  0
 35 31  1  0
 35 39  1  0
 36 35  1  0
 37 38  1  0
 37 36  1  0
 38 34  1  0
 39 40  2  0
 40 41  1  0
 42 41  2  0
 43 42  1  0
 44 18  1  0
 44 49  1  0
 44 45  1  0
 45 48  1  1
 45 46  1  0
 47 45  1  0
 49 52  1  0
 50 54  1  0
 50 49  1  0
 51 50  2  0
 54 53  1  0
 56 54  1  0
 56 57  1  0
 56 55  1  0
 58 59  1  0
 59  5  1  0
 60 61  1  0
 60 97  1  0
 62 67  1  0
 63 64  1  0
 63 62  1  0
 65 64  1  0
 65 72  1  0
 65 66  1  0
 67 61  1  0
 67 66  1  0
 68 61  2  0
 69 70  2  0
 70 89  1  0
 71 70  1  0
 71 74  1  0
 72 73  1  0
 72 69  1  0
 73 71  2  0
 74 75  1  0
 75 76  2  0
 77 80  1  0
 77 76  1  0
 78 77  2  0
 79 78  1  0
 79 74  2  0
 80 81  1  0
 81 86  2  0
 81 82  1  0
 82 83  2  0
 83 84  1  0
 84 88  1  0
 85 84  2  0
 86 85  1  0
 87 86  1  0
 89 90  1  0
 90 93  1  0
 90 92  1  0
 91 89  2  0
 94 69  1  0
 94 95  1  0
 96 94  1  0
 97 98  1  0
 97 99  1  0
100 97  1  0
M  ISO  4  16 101  17 101  60 100  61 100
M  END
>  <TORSDO>  (31) 
F 24

>  <SCORE>  (31) 
-11.187

>  <name>  (31) 
30

>  <ligand_id>  (31) 
30

>  <original_smiles>  (31) 
[H]C(=Nc1c([H])c(F)c(C([H])(C(=O)N2C([H])([H])C([H])([H])C([H])([H])C([H])(n3nc(-c4c([H])c([H])c(Oc5c([H])c([H])c(F)c([H])c5F)c([H])c4[H])c(C(=O)N([H])[H])c3N([H])[H])C2([H])[H])[N+]([H])([H])[H])c(N([H])[H])c1OC([H])([H])[H])C(=O)C([H])([H])C([H])([H])Oc1c([H])c([H])c2c(c1[H])C([H])([H])N(C(=O)C([H])(N([H])C(=O)C([H])(N([H])C([H])([H])[H])C([H])([H])[H])C(C([H])([H])[H])(C([H])([H])[H])C([H])([H])[H])C([H])(C(=O)N([H])C1([H])c3c([H])c([H])c([H])c([H])c3C([H])([H])C([H])([H])C1([H])[H])C2([H])[H]

>  <smiles>  (31) 
[H]C(=Nc1c([H])c(F)c(C([H])(C(=O)N2C([H])([H])C([H])([H])C([H])([H])C([H])(n3nc(-c4c([H])c([H])c(Oc5c([H])c([H])c(F)c([H])c5F)c([H])c4[H])c(C(=O)N([H])[H])c3N([H])[H])C2([H])[H])[N+]([H])([H])[H])c(N([H])[H])c1OC([H])([H])[H])C(=O)C([H])([H])C([H])([H])Oc1c([H])c([H])c2c(c1[H])C([H])([H])N(C(=O)C([H])(N([H])C(=O)C([H])(N([H])C([H])([H])[H])C([H])([H])[H])C(C([H])([H])[H])(C([H])([H])[H])C([H])([H])[H])C([H])(C(=O)N([H])C1([H])c3c([H])c([H])c([H])c([H])c3C([H])([H])C([H])([H])C1([H])[H])C2([H])[H]

$$$$
31:0:0
     RDKit          3D

 92100  0  0  1  0  0  0  0  0999 V2000
  -29.4960  -19.4290   19.8500 C   0  0  0  0  0  3  0  0  0  0  0  0
  -28.9770  -20.7850   19.7950 C   0  0  0  0  0  0  0  0  0  0  0  0
  -30.8150  -19.2920   19.4910 C   0  0  0  0  0  0  0  0  0  0  0  0
  -29.8500  -21.7870   19.3890 C   0  0  0  0  0  0  0  0  0  0  0  0
  -31.3920  -20.9440   19.0450 S   0  0  0  0  0  0  0  0  0  0  0  0
  -29.8210  -24.2570   18.5480 C   0  0  0  0  0  0  0  0  0  0  0  0
  -29.5140  -23.1550   19.3250 N   0  0  0  0  0  0  0  0  0  0  0  0
  -30.6020  -24.1970   17.5940 O   0  0  0  0  0  0  0  0  0  0  0  0
  -28.8530  -23.4150   20.0420 H   0  0  0  0  0  0  0  0  0  0  0  0
  -29.1050  -25.6470   18.9280 C   0  0  0  0  0  2  0  0  0  0  0  0
  -28.7340  -26.6540   17.8750 O   0  0  0  0  0  0  0  0  0  0  0  0
  -24.6480  -30.7590   22.2620 C   0  0  0  0  0  0  0  0  0  0  0  0
  -27.5420  -27.3710   18.1080 C   0  0  0  0  0  0  0  0  0  0  0  0
  -23.4920  -29.5360   20.4570 C   0  0  0  0  0  3  0  0  0  0  0  0
  -24.9880  -28.5700   18.6190 C   0  0  0  0  0  0  0  0  0  0  0  0
  -25.9270  -30.2960   20.1540 C   0  0  0  0  0  2  0  0  0  0  0  0
  -26.1360  -29.1070   19.2170 C   0  0  0  0  0  0  0  0  0  0  0  0
  -27.4160  -28.5250   18.9500 C   0  0  0  0  0  3  0  0  0  0  0  0
  -26.3630  -26.9060   17.4860 C   0  0  0  0  0  3  0  0  0  0  0  0
  -25.1040  -27.4800   17.7420 C   0  0  0  0  0  3  0  0  0  0  0  0
  -23.6510  -29.2020   18.9510 C   0  0  0  0  0  2  0  0  0  0  0  0
  -24.7110  -30.2070   21.0140 N   0  0  0  0  0  0  0  0  0  0  0  0
  -23.6000  -30.7390   22.9240 O   0  0  0  0  0  0  0  0  0  0  0  0
  -23.0940  -28.2510   21.2240 C   0  0  0  0  0  0  0  0  0  0  0  0
  -21.8140  -27.8530   21.1180 N   0  0  0  0  0  0  0  0  0  0  0  0
  -23.9310  -27.6240   21.8770 O   0  0  0  0  0  0  0  0  0  0  0  0
  -21.1830  -28.4270   20.5750 H   0  0  0  0  0  0  0  0  0  0  0  0
  -18.7260  -26.0280   21.6130 C   0  0  0  0  0  0  0  0  0  0  0  0
  -21.2340  -26.6510   21.7210 C   0  0  0  0  0  3  0  0  0  0  0  0
  -21.4730  -25.4110   20.8280 C   0  0  0  0  0  2  0  0  0  0  0  0
  -20.3170  -25.1290   19.8620 C   0  0  0  0  0  2  0  0  0  0  0  0
  -19.0140  -24.9020   20.6350 C   0  0  0  0  0  2  0  0  0  0  0  0
  -19.7650  -26.8600   22.1090 C   0  0  0  0  0  0  0  0  0  0  0  0
  -19.4370  -27.9140   22.9890 C   0  0  0  0  0  3  0  0  0  0  0  0
  -18.1020  -28.1420   23.3740 C   0  0  0  0  0  3  0  0  0  0  0  0
  -17.0800  -27.3060   22.8930 C   0  0  0  0  0  3  0  0  0  0  0  0
  -17.3930  -26.2510   22.0190 C   0  0  0  0  0  3  0  0  0  0  0  0
  -25.8830  -31.4610   22.9060 C   0  0  0  0  0  3  0  0  0  0  0  0
  -26.6440  -30.5480   23.9470 C   0  0  1  0  0  0  0  0  0  0  0  0
  -25.7210  -29.9230   25.0200 C   0  0  0  0  0  1  0  0  0  0  0  0
  -27.3810  -29.3930   23.2290 C   0  0  0  0  0  1  0  0  0  0  0  0
  -27.7300  -31.3790   24.6710 C   0  0  0  0  0  1  0  0  0  0  0  0
  -25.4070  -32.6920   23.5520 N   0  0  0  0  0  0  0  0  0  0  0  0
  -25.5280  -33.9210   23.0330 C   0  0  0  0  0  0  0  0  0  0  0  0
  -26.1200  -34.1430   21.9730 O   0  0  0  0  0  0  0  0  0  0  0  0
  -24.8660  -32.5790   24.3970 H   0  0  0  0  0  0  0  0  0  0  0  0
  -23.5540  -35.4770   23.1620 C   0  0  0  0  0  1  0  0  0  0  0  0
  -24.8920  -35.0890   23.8120 C   0  0  0  0  0  3  0  0  0  0  0  0
  -26.9260  -36.0800   24.7640 C   0  0  0  0  0  1  0  0  0  0  0  0
  -25.7630  -36.2810   23.9040 N   0  0  0  0  0  0  0  0  0  0  0  0
  -25.2430  -37.0790   24.2570 H   0  0  0  0  0  0  0  0  0  0  0  0
  -26.6110  -20.2000   20.4570 C   0  0  0  0  0  2  0  0  0  0  0  0
  -27.5800  -21.0920   20.1830 C   0  0  0  0  0  3  0  0  0  0  0  0
  -31.7490  -18.0180   19.5100 C   0  0  0  0  0  2  0  0  0  0  0  0
  -31.9840  -15.4390   19.6640 C   0  0  0  0  0  0  0  0  0  0  0  0
  -31.6790  -13.1120   18.8080 C   0  0  0  0  0  2  0  0  0  0  0  0
  -30.6700  -13.1300   17.6390 C   0  0  0  0  0  2  0  0  0  0  0  0
  -29.2320  -12.9930   18.1720 C   0  0  0  0  0  2  0  0  0  0  0  0
  -28.9420  -13.9570   19.3520 C   0  0  0  0  0  3  0  0  0  0  0  0
  -30.0680  -13.9380   20.4080 C   0  0  0  0  0  2  0  0  0  0  0  0
  -31.3280  -14.2300   19.7160 N   0  0  0  0  0  0  0  0  0  0  0  0
  -33.1350  -15.4880   19.2220 O   0  0  0  0  0  0  0  0  0  0  0  0
  -31.2810  -16.6130   19.8930 N   0  0  0  0  0  0  0  0  0  0  0  0
  -30.3350  -16.5200   20.2310 H   0  0  0  0  0  0  0  0  0  0  0  0
  -26.6940  -14.6280   20.3840 C   0  0  0  0  0  0  0  0  0  0  0  0
  -25.6100  -13.8940   20.7770 C   0  0  0  0  0  0  0  0  0  0  0  0
  -25.9530  -12.5270   20.5500 C   0  0  0  0  0  0  0  0  0  0  0  0
  -27.6330  -13.7100   19.9460 N   0  0  0  0  0  0  0  0  0  0  0  0
  -27.2010  -12.4330   20.1070 N   0  0  0  0  0  0  0  0  0  0  0  0
  -25.1470  -11.3060   20.6770 C   0  0  0  0  0  0  0  0  0  0  0  0
  -25.4670  -10.3010   21.6170 C   0  0  0  0  0  3  0  0  0  0  0  0
  -24.6640   -9.1460   21.7340 C   0  0  0  0  0  3  0  0  0  0  0  0
  -23.5260   -8.9870   20.9060 C   0  0  0  0  0  0  0  0  0  0  0  0
  -23.2240   -9.9790   19.9570 C   0  0  0  0  0  3  0  0  0  0  0  0
  -24.0270  -11.1260   19.8400 C   0  0  0  0  0  3  0  0  0  0  0  0
  -22.7020   -7.8870   20.9310 O   0  0  0  0  0  0  0  0  0  0  0  0
  -22.3430   -7.2830   22.1080 C   0  0  0  0  0  0  0  0  0  0  0  0
  -21.5920   -7.9590   23.0940 C   0  0  0  0  0  3  0  0  0  0  0  0
  -21.1870   -7.2790   24.2590 C   0  0  0  0  0  3  0  0  0  0  0  0
  -21.5210   -5.9230   24.4360 C   0  0  0  0  0  0  0  0  0  0  0  0
  -22.2640   -5.2470   23.4530 C   0  0  0  0  0  3  0  0  0  0  0  0
  -22.6720   -5.9240   22.2910 C   0  0  0  0  0  0  0  0  0  0  0  0
  -23.3700   -5.2630   21.3370 F   0  0  0  0  0  0  0  0  0  0  0  0
  -21.1240   -5.2670   25.5510 F   0  0  0  0  0  0  0  0  0  0  0  0
  -24.2900  -14.4350   21.2440 C   0  0  0  0  0  0  0  0  0  0  0  0
  -23.5950  -13.6990   22.1030 N   0  0  0  0  0  0  0  0  0  0  0  0
  -23.8910  -15.5430   20.8840 O   0  0  0  0  0  0  0  0  0  0  0  0
  -23.9340  -12.8000   22.4120 H   0  0  0  0  0  0  0  0  0  0  0  0
  -22.7150  -14.0420   22.4590 H   0  0  0  0  0  0  0  0  0  0  0  0
  -26.9530  -15.9940   20.3390 N   0  0  0  0  0  0  0  0  0  0  0  0
  -26.2470  -16.6800   20.5850 H   0  0  0  0  0  0  0  0  0  0  0  0
  -27.7900  -16.4100   19.9500 H   0  0  0  0  0  0  0  0  0  0  0  0
  2  1  1  0
  2 53  1  0
  3 54  1  0
  3  1  2  0
  4  2  2  0
  5  4  1  0
  5  3  1  0
  6 10  1  0
  6  7  1  0
  7  4  1  0
  7  9  1  0
  8  6  2  0
 11 13  1  0
 11 10  1  0
 12 23  2  0
 13 18  1  0
 14 22  1  0
 14 24  1  0
 15 21  1  0
 15 17  1  0
 16 22  1  0
 17 16  1  0
 18 17  2  0
 19 20  1  0
 19 13  2  0
 20 15  2  0
 21 14  1  0
 22 12  1  0
 24 26  2  0
 25 24  1  0
 27 25  1  0
 28 37  2  0
 28 33  1  0
 29 25  1  0
 29 33  1  0
 30 29  1  0
 31 32  1  0
 31 30  1  0
 32 28  1  0
 33 34  2  0
 34 35  1  0
 36 35  2  0
 37 36  1  0
 38 12  1  0
 38 43  1  0
 38 39  1  0
 39 42  1  1
 39 40  1  0
 41 39  1  0
 43 46  1  0
 44 43  1  0
 44 48  1  0
 45 44  2  0
 48 47  1  0
 48 50  1  0
 50 51  1  0
 50 49  1  0
 53 52  2  0
 54 63  1  0
 55 61  1  0
 55 63  1  0
 56 61  1  0
 57 58  1  0
 57 56  1  0
 59 58  1  0
 59 68  1  0
 59 60  1  0
 61 60  1  0
 62 55  2  0
 63 64  1  0
 65 66  2  0
 66 85  1  0
 67 70  1  0
 67 66  1  0
 68 69  1  0
 68 65  1  0
 69 67  2  0
 70 71  1  0
 71 72  2  0
 73 76  1  0
 73 72  1  0
 74 73  2  0
 75 74  1  0
 75 70  2  0
 76 77  1  0
 77 82  2  0
 77 78  1  0
 78 79  2  0
 79 80  1  0
 80 84  1  0
 81 80  2  0
 82 81  1  0
 83 82  1  0
 85 86  1  0
 86 88  1  0
 86 89  1  0
 87 85  2  0
 90 65  1  0
 90 91  1  0
 92 90  1  0
M  ISO  4  10 101  11 101  55 100  63 100
M  END
>  <TORSDO>  (32) 
F 20

>  <SCORE>  (32) 
-4.874

>  <name>  (32) 
31

>  <ligand_id>  (32) 
31

>  <original_smiles>  (32) 
[H]C([H])=C([H])c1c(N([H])C(=O)C([H])([H])Oc2c([H])c([H])c3c(c2[H])C([H])([H])N(C(=O)C([H])(N([H])C(=O)C([H])(N([H])C([H])([H])[H])C([H])([H])[H])C(C([H])([H])[H])(C([H])([H])[H])C([H])([H])[H])C([H])(C(=O)N([H])C2([H])c4c([H])c([H])c([H])c([H])c4C([H])([H])C([H])([H])C2([H])[H])C3([H])[H])sc(C([H])([H])N([H])C(=O)N2C([H])([H])C([H])([H])C([H])([H])C([H])(n3nc(-c4c([H])c([H])c(Oc5c([H])c([H])c(F)c([H])c5F)c([H])c4[H])c(C(=O)N([H])[H])c3N([H])[H])C2([H])[H])c1[H]

>  <smiles>  (32) 
[H]C([H])=C([H])c1c(N([H])C(=O)C([H])([H])Oc2c([H])c([H])c3c(c2[H])C([H])([H])N(C(=O)C([H])(N([H])C(=O)C([H])(N([H])C([H])([H])[H])C([H])([H])[H])C(C([H])([H])[H])(C([H])([H])[H])C([H])([H])[H])C([H])(C(=O)N([H])C2([H])c4c([H])c([H])c([H])c([H])c4C([H])([H])C([H])([H])C2([H])[H])C3([H])[H])sc(C([H])([H])N([H])C(=O)N2C([H])([H])C([H])([H])C([H])([H])C([H])(n3nc(-c4c([H])c([H])c(Oc5c([H])c([H])c(F)c([H])c5F)c([H])c4[H])c(C(=O)N([H])[H])c3N([H])[H])C2([H])[H])c1[H]

$$$$
32:0:0
     RDKit          3D

 95103  0  0  1  0  0  0  0  0999 V2000
  -31.2970  -17.8300   21.2370 C   0  0  0  0  0  3  0  0  0  0  0  0
  -31.3760  -17.6420   18.4810 C   0  0  0  0  0  3  0  0  0  0  0  0
  -31.0650  -16.5650   20.6460 C   0  0  0  0  0  0  0  0  0  0  0  0
  -31.1450  -16.4150   19.2360 C   0  0  0  0  0  0  0  0  0  0  0  0
  -31.5730  -19.0070   20.4950 C   0  0  0  0  0  0  0  0  0  0  0  0
  -31.5690  -18.9600   19.0780 C   0  0  0  0  0  0  0  0  0  0  0  0
  -31.3750  -13.9440   18.3160 C   0  0  0  0  0  0  0  0  0  0  0  0
  -30.6120  -11.7970   17.2690 C   0  0  0  0  0  2  0  0  0  0  0  0
  -29.3910  -12.0820   16.3660 C   0  0  0  0  0  2  0  0  0  0  0  0
  -28.0830  -12.0710   17.1850 C   0  0  0  0  0  2  0  0  0  0  0  0
  -28.1880  -12.9060   18.4860 C   0  0  0  0  0  3  0  0  0  0  0  0
  -29.4790  -12.5710   19.2610 C   0  0  0  0  0  2  0  0  0  0  0  0
  -30.6030  -12.8060   18.3470 N   0  0  0  0  0  0  0  0  0  0  0  0
  -32.4700  -13.9440   17.7430 O   0  0  0  0  0  0  0  0  0  0  0  0
  -30.7190  -15.1210   18.6480 N   0  0  0  0  0  0  0  0  0  0  0  0
  -29.7460  -14.9290   18.8280 H   0  0  0  0  0  0  0  0  0  0  0  0
  -26.2040  -13.7760   19.8620 C   0  0  0  0  0  0  0  0  0  0  0  0
  -25.1680  -13.1310   20.4810 C   0  0  0  0  0  0  0  0  0  0  0  0
  -25.3920  -11.7360   20.2760 C   0  0  0  0  0  0  0  0  0  0  0  0
  -26.9970  -12.7780   19.3190 N   0  0  0  0  0  0  0  0  0  0  0  0
  -26.5320  -11.5420   19.6260 N   0  0  0  0  0  0  0  0  0  0  0  0
  -24.5550  -10.5750   20.6080 C   0  0  0  0  0  0  0  0  0  0  0  0
  -24.9190   -9.6710   21.6300 C   0  0  0  0  0  3  0  0  0  0  0  0
  -24.0900   -8.5740   21.9440 C   0  0  0  0  0  3  0  0  0  0  0  0
  -22.8810   -8.3730   21.2370 C   0  0  0  0  0  0  0  0  0  0  0  0
  -22.5350   -9.2630   20.2050 C   0  0  0  0  0  3  0  0  0  0  0  0
  -23.3640  -10.3510   19.8900 C   0  0  0  0  0  3  0  0  0  0  0  0
  -22.0250   -7.3190   21.4550 O   0  0  0  0  0  0  0  0  0  0  0  0
  -21.6850   -6.9230   22.7230 C   0  0  0  0  0  0  0  0  0  0  0  0
  -21.1580   -7.8270   23.6710 C   0  0  0  0  0  3  0  0  0  0  0  0
  -20.7550   -7.3630   24.9400 C   0  0  0  0  0  3  0  0  0  0  0  0
  -20.8690   -5.9970   25.2590 C   0  0  0  0  0  0  0  0  0  0  0  0
  -21.3900   -5.0930   24.3150 C   0  0  0  0  0  3  0  0  0  0  0  0
  -21.7930   -5.5550   23.0500 C   0  0  0  0  0  0  0  0  0  0  0  0
  -22.2730   -4.6790   22.1350 F   0  0  0  0  0  0  0  0  0  0  0  0
  -20.4750   -5.5470   26.4740 F   0  0  0  0  0  0  0  0  0  0  0  0
  -23.9830  -13.7750   21.1400 C   0  0  0  0  0  0  0  0  0  0  0  0
  -23.4970  -13.1900   22.2290 N   0  0  0  0  0  0  0  0  0  0  0  0
  -23.5120  -14.8310   20.7190 O   0  0  0  0  0  0  0  0  0  0  0  0
  -23.8950  -12.3320   22.5830 H   0  0  0  0  0  0  0  0  0  0  0  0
  -22.7140  -13.6030   22.7150 H   0  0  0  0  0  0  0  0  0  0  0  0
  -26.5240  -15.1200   19.6920 N   0  0  0  0  0  0  0  0  0  0  0  0
  -25.9230  -15.8620   20.0290 H   0  0  0  0  0  0  0  0  0  0  0  0
  -27.2910  -15.4660   19.1320 H   0  0  0  0  0  0  0  0  0  0  0  0
  -32.5130  -20.1970   22.3790 C   0  0  0  0  0  1  0  0  0  0  0  0
  -31.8830  -20.2080   21.1030 O   0  0  0  0  0  0  0  0  0  0  0  0
  -30.6380  -15.4470   21.5220 C   0  0  0  0  0  3  0  0  0  0  0  0
  -29.4410  -15.3590   22.1370 C   0  0  0  0  0  3  0  0  0  0  0  0
  -28.9950  -12.8390   22.4280 C   0  0  0  0  0  1  0  0  0  0  0  0
  -28.9750  -14.2420   23.0540 C   0  0  0  0  0  2  0  0  0  0  0  0
  -31.8360  -20.1410   18.3180 O   0  0  0  0  0  0  0  0  0  0  0  0
  -30.8780  -21.2840   18.1470 C   0  0  0  0  0  3  0  0  0  0  0  0
  -31.3770  -22.8270   18.0360 C   0  0  0  0  0  3  0  0  0  0  0  0
  -30.2650  -24.0050   17.9380 C   0  0  0  0  0  2  0  0  0  0  0  0
  -30.4810  -25.4580   18.3050 O   0  0  0  0  0  0  0  0  0  0  0  0
  -26.3520  -28.6640   23.3910 C   0  0  0  0  0  0  0  0  0  0  0  0
  -29.3490  -26.2490   18.6360 C   0  0  0  0  0  0  0  0  0  0  0  0
  -25.3180  -28.2600   21.1890 C   0  0  0  0  0  3  0  0  0  0  0  0
  -26.9220  -27.6570   19.2870 C   0  0  0  0  0  0  0  0  0  0  0  0
  -27.8500  -28.6440   21.3760 C   0  0  0  0  0  2  0  0  0  0  0  0
  -28.0360  -27.7800   20.1270 C   0  0  0  0  0  0  0  0  0  0  0  0
  -29.2520  -27.0960   19.7970 C   0  0  0  0  0  3  0  0  0  0  0  0
  -28.2010  -26.2030   17.8110 C   0  0  0  0  0  3  0  0  0  0  0  0
  -27.0080  -26.8790   18.1260 C   0  0  0  0  0  3  0  0  0  0  0  0
  -25.6450  -28.3720   19.6760 C   0  0  0  0  0  2  0  0  0  0  0  0
  -26.5220  -28.5130   22.0440 N   0  0  0  0  0  0  0  0  0  0  0  0
  -25.2260  -28.6260   23.9080 O   0  0  0  0  0  0  0  0  0  0  0  0
  -24.6480  -26.8920   21.4590 C   0  0  0  0  0  0  0  0  0  0  0  0
  -23.4010  -26.7220   20.9870 N   0  0  0  0  0  0  0  0  0  0  0  0
  -25.2550  -26.0020   22.0620 O   0  0  0  0  0  0  0  0  0  0  0  0
  -22.9660  -27.4980   20.5070 H   0  0  0  0  0  0  0  0  0  0  0  0
  -20.2130  -25.2300   20.1420 C   0  0  0  0  0  0  0  0  0  0  0  0
  -22.6030  -25.4990   21.0920 C   0  0  0  0  0  3  0  0  0  0  0  0
  -23.0300  -24.4630   20.0280 C   0  0  0  0  0  2  0  0  0  0  0  0
  -22.2040  -24.5430   18.7380 C   0  0  0  0  0  2  0  0  0  0  0  0
  -20.7210  -24.3170   19.0380 C   0  0  0  0  0  2  0  0  0  0  0  0
  -21.0990  -25.7970   21.0960 C   0  0  0  0  0  0  0  0  0  0  0  0
  -20.5790  -26.6660   22.0800 C   0  0  0  0  0  3  0  0  0  0  0  0
  -19.2050  -26.9670   22.1220 C   0  0  0  0  0  3  0  0  0  0  0  0
  -18.3310  -26.3910   21.1850 C   0  0  0  0  0  3  0  0  0  0  0  0
  -18.8350  -25.5220   20.2000 C   0  0  0  0  0  3  0  0  0  0  0  0
  -27.5620  -28.9160   24.3430 C   0  0  0  0  0  3  0  0  0  0  0  0
  -27.2010  -30.0240   25.2390 N   0  0  0  0  0  0  0  0  0  0  0  0
  -27.6210  -31.2880   25.0950 C   0  0  0  0  0  0  0  0  0  0  0  0
  -28.4190  -31.6300   24.2200 O   0  0  0  0  0  0  0  0  0  0  0  0
  -26.5090  -29.8270   25.9470 H   0  0  0  0  0  0  0  0  0  0  0  0
  -25.9570  -33.1510   25.3990 C   0  0  0  0  0  1  0  0  0  0  0  0
  -27.0680  -32.3370   26.0810 C   0  0  0  0  0  3  0  0  0  0  0  0
  -29.0400  -32.6050   27.5210 C   0  0  0  0  0  1  0  0  0  0  0  0
  -28.1040  -33.2530   26.6060 N   0  0  0  0  0  0  0  0  0  0  0  0
  -27.6770  -34.0390   27.0900 H   0  0  0  0  0  0  0  0  0  0  0  0
  -27.9720  -27.6390   25.1760 C   0  0  1  0  0  0  0  0  0  0  0  0
  -26.7760  -26.9240   25.8460 C   0  0  0  0  0  1  0  0  0  0  0  0
  -28.6940  -26.6050   24.2820 C   0  0  0  0  0  1  0  0  0  0  0  0
  -28.9790  -28.0410   26.2810 C   0  0  0  0  0  1  0  0  0  0  0  0
  2  6  2  0
  2  4  1  0
  3  1  1  0
  3 47  1  0
  4  3  2  0
  5 46  1  0
  5  1  2  0
  6  5  1  0
  7 13  1  0
  7 15  1  0
  8 13  1  0
  9 10  1  0
  9  8  1  0
 11 10  1  0
 11 12  1  0
 11 20  1  0
 13 12  1  0
 14  7  2  0
 15 16  1  0
 15  4  1  0
 17 18  2  0
 18 37  1  0
 19 18  1  0
 19 22  1  0
 20 21  1  0
 20 17  1  0
 21 19  2  0
 22 23  1  0
 23 24  2  0
 25 28  1  0
 25 24  1  0
 26 25  2  0
 27 26  1  0
 27 22  2  0
 28 29  1  0
 29 34  2  0
 29 30  1  0
 30 31  2  0
 31 32  1  0
 32 36  1  0
 33 32  2  0
 34 33  1  0
 35 34  1  0
 37 38  1  0
 38 40  1  0
 38 41  1  0
 39 37  2  0
 42 17  1  0
 42 43  1  0
 44 42  1  0
 46 45  1  0
 47 48  2  0
 48 50  1  0
 49 50  1  0
 51  6  1  0
 52 51  1  0
 53 52  2  0
 54 53  1  0
 54 55  1  0
 55 57  1  0
 56 67  2  0
 57 62  1  0
 58 68  1  0
 58 66  1  0
 59 65  1  0
 59 61  1  0
 60 66  1  0
 61 60  1  0
 62 61  2  0
 63 64  1  0
 63 57  2  0
 64 59  2  0
 65 58  1  0
 66 56  1  0
 68 70  2  0
 69 68  1  0
 71 69  1  0
 72 81  2  0
 72 77  1  0
 73 69  1  0
 73 77  1  0
 74 73  1  0
 75 76  1  0
 75 74  1  0
 76 72  1  0
 77 78  2  0
 78 79  1  0
 80 79  2  0
 81 80  1  0
 82 56  1  0
 82 92  1  0
 82 83  1  0
 83 86  1  0
 84 83  1  0
 84 88  1  0
 85 84  2  0
 88 87  1  0
 88 90  1  0
 90 91  1  0
 90 89  1  0
 92 93  1  1
 92 95  1  0
 94 92  1  0
M  ISO  4   7 100  15 100  54 101  55 101
M  END
>  <TORSDO>  (33) 
F 23

>  <SCORE>  (33) 
2.192

>  <name>  (33) 
32

>  <ligand_id>  (33) 
32

>  <original_smiles>  (33) 
[H]C(=C([H])C([H])([H])C([H])([H])[H])c1c([H])c(OC([H])([H])[H])c(OC([H])([H])C([H])([H])C([H])([H])Oc2c([H])c([H])c3c(c2[H])C([H])([H])N(C(=O)C([H])(N([H])C(=O)C([H])(N([H])C([H])([H])[H])C([H])([H])[H])C(C([H])([H])[H])(C([H])([H])[H])C([H])([H])[H])C([H])(C(=O)N([H])C2([H])c4c([H])c([H])c([H])c([H])c4C([H])([H])C([H])([H])C2([H])[H])C3([H])[H])c([H])c1N([H])C(=O)N1C([H])([H])C([H])([H])C([H])([H])C([H])(n2nc(-c3c([H])c([H])c(Oc4c([H])c([H])c(F)c([H])c4F)c([H])c3[H])c(C(=O)N([H])[H])c2N([H])[H])C1([H])[H]

>  <smiles>  (33) 
[H]C(=C([H])C([H])([H])C([H])([H])[H])c1c([H])c(OC([H])([H])[H])c(OC([H])([H])C([H])([H])C([H])([H])Oc2c([H])c([H])c3c(c2[H])C([H])([H])N(C(=O)C([H])(N([H])C(=O)C([H])(N([H])C([H])([H])[H])C([H])([H])[H])C(C([H])([H])[H])(C([H])([H])[H])C([H])([H])[H])C([H])(C(=O)N([H])C2([H])c4c([H])c([H])c([H])c([H])c4C([H])([H])C([H])([H])C2([H])[H])C3([H])[H])c([H])c1N([H])C(=O)N1C([H])([H])C([H])([H])C([H])([H])C([H])(n2nc(-c3c([H])c([H])c(Oc4c([H])c([H])c(F)c([H])c4F)c([H])c3[H])c(C(=O)N([H])[H])c2N([H])[H])C1([H])[H]

$$$$
33:0:0
     RDKit          3D

 90 98  0  0  1  0  0  0  0  0999 V2000
  -29.0610  -18.9900   20.2390 C   0  0  0  0  0  3  0  0  0  0  0  0
  -29.9180  -17.8690   20.5220 C   0  0  0  0  0  0  0  0  0  0  0  0
  -29.4470  -20.4990   20.4770 C   0  0  0  0  0  0  0  0  0  0  0  0
  -31.2010  -18.2590   21.1500 C   0  0  0  0  0  0  0  0  0  0  0  0
  -32.7790  -20.0370   21.7530 C   0  0  0  0  0  1  0  0  0  0  0  0
  -30.6400  -20.6750   20.9280 N   0  0  0  0  0  0  0  0  0  0  0  0
  -31.4870  -19.6050   21.2090 N   0  0  0  0  0  0  0  0  0  0  0  0
  -31.9740  -17.4490   21.6620 O   0  0  0  0  0  0  0  0  0  0  0  0
  -30.4410  -15.1550   20.2360 C   0  0  0  0  0  0  0  0  0  0  0  0
  -30.3500  -12.7770   19.2870 C   0  0  0  0  0  2  0  0  0  0  0  0
  -29.3830  -12.6700   18.0840 C   0  0  0  0  0  2  0  0  0  0  0  0
  -27.9440  -12.4170   18.5650 C   0  0  0  0  0  2  0  0  0  0  0  0
  -27.5460  -13.3450   19.7400 C   0  0  0  0  0  3  0  0  0  0  0  0
  -28.6320  -13.4090   20.8350 C   0  0  0  0  0  2  0  0  0  0  0  0
  -29.8630  -13.8760   20.1820 N   0  0  0  0  0  0  0  0  0  0  0  0
  -31.6410  -15.1920   19.9350 O   0  0  0  0  0  0  0  0  0  0  0  0
  -29.6420  -16.3580   20.3900 N   0  0  0  0  0  0  0  0  0  0  0  0
  -28.6600  -16.1400   20.4380 H   0  0  0  0  0  0  0  0  0  0  0  0
  -25.1880  -13.8860   20.5630 C   0  0  0  0  0  0  0  0  0  0  0  0
  -24.1420  -13.0950   20.9520 C   0  0  0  0  0  0  0  0  0  0  0  0
  -24.6170  -11.7490   20.8830 C   0  0  0  0  0  0  0  0  0  0  0  0
  -26.2300  -13.0210   20.2770 N   0  0  0  0  0  0  0  0  0  0  0  0
  -25.8990  -11.7300   20.5380 N   0  0  0  0  0  0  0  0  0  0  0  0
  -23.9050  -10.4780   21.0710 C   0  0  0  0  0  0  0  0  0  0  0  0
  -24.3650   -9.5000   21.9800 C   0  0  0  0  0  3  0  0  0  0  0  0
  -23.6500   -8.2960   22.1580 C   0  0  0  0  0  3  0  0  0  0  0  0
  -22.4610   -8.0610   21.4260 C   0  0  0  0  0  0  0  0  0  0  0  0
  -22.0210   -9.0280   20.5050 C   0  0  0  0  0  3  0  0  0  0  0  0
  -22.7370  -10.2240   20.3250 C   0  0  0  0  0  3  0  0  0  0  0  0
  -21.7170   -6.9090   21.5140 O   0  0  0  0  0  0  0  0  0  0  0  0
  -21.6900   -6.1550   22.6600 C   0  0  0  0  0  0  0  0  0  0  0  0
  -21.2600   -6.6900   23.8950 C   0  0  0  0  0  3  0  0  0  0  0  0
  -21.1830   -5.8600   25.0320 C   0  0  0  0  0  3  0  0  0  0  0  0
  -21.5260   -4.4990   24.9360 C   0  0  0  0  0  0  0  0  0  0  0  0
  -21.9490   -3.9630   23.7070 C   0  0  0  0  0  3  0  0  0  0  0  0
  -22.0280   -4.7890   22.5720 C   0  0  0  0  0  0  0  0  0  0  0  0
  -22.4160   -4.2640   21.3850 F   0  0  0  0  0  0  0  0  0  0  0  0
  -21.4450   -3.7010   26.0270 F   0  0  0  0  0  0  0  0  0  0  0  0
  -22.7500  -13.5570   21.2670 C   0  0  0  0  0  0  0  0  0  0  0  0
  -22.0510  -12.8430   22.1420 N   0  0  0  0  0  0  0  0  0  0  0  0
  -22.2920  -14.5870   20.7730 O   0  0  0  0  0  0  0  0  0  0  0  0
  -22.4340  -12.0100   22.5620 H   0  0  0  0  0  0  0  0  0  0  0  0
  -21.1190  -13.1390   22.4000 H   0  0  0  0  0  0  0  0  0  0  0  0
  -25.3310  -15.2620   20.4010 N   0  0  0  0  0  0  0  0  0  0  0  0
  -24.5500  -15.8960   20.5290 H   0  0  0  0  0  0  0  0  0  0  0  0
  -26.1430  -15.7140   20.0040 H   0  0  0  0  0  0  0  0  0  0  0  0
  -28.5210  -21.7670   20.2200 C   0  0  0  0  0  3  0  0  0  0  0  0
  -28.7640  -23.1820   20.3940 C   0  0  0  0  0  3  0  0  0  0  0  0
  -27.8080  -24.5440   20.1390 C   0  0  0  0  0  2  0  0  0  0  0  0
  -28.1570  -26.0830   20.3550 O   0  0  0  0  0  0  0  0  0  0  0  0
  -24.6240  -31.9510   23.2880 C   0  0  0  0  0  0  0  0  0  0  0  0
  -27.1450  -27.1380   20.2760 C   0  0  0  0  0  0  0  0  0  0  0  0
  -23.4130  -30.5600   21.6540 C   0  0  0  0  0  3  0  0  0  0  0  0
  -24.8470  -28.9590   20.2330 C   0  0  0  0  0  0  0  0  0  0  0  0
  -25.9760  -30.7800   21.4950 C   0  0  0  0  0  2  0  0  0  0  0  0
  -26.0350  -29.3790   20.8460 C   0  0  0  0  0  0  0  0  0  0  0  0
  -27.1850  -28.4860   20.8470 C   0  0  0  0  0  3  0  0  0  0  0  0
  -25.9310  -26.8450   19.6180 C   0  0  0  0  0  3  0  0  0  0  0  0
  -24.8130  -27.7080   19.6020 C   0  0  0  0  0  3  0  0  0  0  0  0
  -23.6310  -29.8760   20.2780 C   0  0  0  0  0  2  0  0  0  0  0  0
  -24.6920  -31.1210   22.2000 N   0  0  0  0  0  0  0  0  0  0  0  0
  -23.5390  -32.2500   23.8110 O   0  0  0  0  0  0  0  0  0  0  0  0
  -22.7190  -29.5670   22.6190 C   0  0  0  0  0  0  0  0  0  0  0  0
  -21.3920  -29.3990   22.4830 N   0  0  0  0  0  0  0  0  0  0  0  0
  -23.3810  -28.9490   23.4580 O   0  0  0  0  0  0  0  0  0  0  0  0
  -20.9140  -29.9470   21.7800 H   0  0  0  0  0  0  0  0  0  0  0  0
  -18.0060  -28.2010   22.9690 C   0  0  0  0  0  0  0  0  0  0  0  0
  -20.5610  -28.4720   23.2570 C   0  0  0  0  0  3  0  0  0  0  0  0
  -20.6700  -27.0330   22.7020 C   0  0  0  0  0  2  0  0  0  0  0  0
  -19.5800  -26.6950   21.6800 C   0  0  0  0  0  2  0  0  0  0  0  0
  -18.1910  -26.8460   22.3070 C   0  0  0  0  0  2  0  0  0  0  0  0
  -19.1180  -28.9710   23.4010 C   0  0  0  0  0  0  0  0  0  0  0  0
  -18.8900  -30.2370   23.9830 C   0  0  0  0  0  3  0  0  0  0  0  0
  -17.5820  -30.7350   24.1320 C   0  0  0  0  0  3  0  0  0  0  0  0
  -16.4840  -29.9630   23.7140 C   0  0  0  0  0  3  0  0  0  0  0  0
  -16.6960  -28.6970   23.1400 C   0  0  0  0  0  3  0  0  0  0  0  0
  -25.9050  -32.5790   23.9160 C   0  0  0  0  0  3  0  0  0  0  0  0
  -25.6070  -33.9830   24.2380 N   0  0  0  0  0  0  0  0  0  0  0  0
  -25.9270  -35.0310   23.4660 C   0  0  0  0  0  0  0  0  0  0  0  0
  -26.5700  -34.9160   22.4190 O   0  0  0  0  0  0  0  0  0  0  0  0
  -25.0360  -34.1480   25.0540 H   0  0  0  0  0  0  0  0  0  0  0  0
  -24.1900  -36.8260   23.1590 C   0  0  0  0  0  1  0  0  0  0  0  0
  -25.4620  -36.4280   23.9250 C   0  0  0  0  0  3  0  0  0  0  0  0
  -27.6270  -37.3210   24.6640 C   0  0  0  0  0  1  0  0  0  0  0  0
  -26.4920  -37.4760   23.7570 N   0  0  0  0  0  0  0  0  0  0  0  0
  -26.0940  -38.4000   23.9050 H   0  0  0  0  0  0  0  0  0  0  0  0
  -26.4010  -31.8150   25.2060 C   0  0  1  0  0  0  0  0  0  0  0  0
  -25.2970  -31.6040   26.2680 C   0  0  0  0  0  1  0  0  0  0  0  0
  -26.9690  -30.4250   24.8390 C   0  0  0  0  0  1  0  0  0  0  0  0
  -27.5590  -32.6020   25.8670 C   0  0  0  0  0  1  0  0  0  0  0  0
  1  3  1  0
  1  2  2  0
  2  4  1  0
  3  6  2  0
  4  7  1  0
  4  8  2  0
  6  7  1  0
  7  5  1  0
  9 17  1  0
 10 15  1  0
 11 12  1  0
 11 10  1  0
 13 12  1  0
 13 22  1  0
 13 14  1  0
 15  9  1  0
 15 14  1  0
 16  9  2  0
 17 18  1  0
 17  2  1  0
 19 20  2  0
 20 39  1  0
 21 20  1  0
 21 24  1  0
 22 23  1  0
 22 19  1  0
 23 21  2  0
 24 25  1  0
 25 26  2  0
 27 30  1  0
 27 26  1  0
 28 27  2  0
 29 28  1  0
 29 24  2  0
 30 31  1  0
 31 32  1  0
 32 33  2  0
 34 33  1  0
 34 38  1  0
 35 34  2  0
 36 31  2  0
 36 35  1  0
 37 36  1  0
 39 40  1  0
 40 43  1  0
 40 42  1  0
 41 39  2  0
 44 45  1  0
 44 19  1  0
 46 44  1  0
 47 48  2  0
 47  3  1  0
 49 50  1  0
 49 48  1  0
 51 62  2  0
 52 50  1  0
 52 57  1  0
 53 61  1  0
 53 63  1  0
 54 60  1  0
 54 56  1  0
 55 61  1  0
 56 57  2  0
 56 55  1  0
 58 52  2  0
 59 58  1  0
 59 54  2  0
 60 53  1  0
 61 51  1  0
 63 65  2  0
 64 63  1  0
 66 64  1  0
 67 76  2  0
 67 72  1  0
 68 64  1  0
 68 72  1  0
 69 68  1  0
 70 71  1  0
 70 69  1  0
 71 67  1  0
 72 73  2  0
 73 74  1  0
 75 74  2  0
 76 75  1  0
 77 51  1  0
 77 78  1  0
 77 87  1  0
 78 81  1  0
 79 83  1  0
 79 78  1  0
 80 79  2  0
 83 82  1  0
 85 86  1  0
 85 83  1  0
 85 84  1  0
 87 90  1  1
 87 88  1  0
 89 87  1  0
M  ISO  4   9 100  17 100  49 101  50 101
M  END
>  <TORSDO>  (34) 
F 18

>  <SCORE>  (34) 
-14.718

>  <name>  (34) 
33

>  <ligand_id>  (34) 
33

>  <original_smiles>  (34) 
[H]C(=C([H])C([H])([H])Oc1c([H])c([H])c2c(c1[H])C([H])([H])N(C(=O)C([H])(N([H])C(=O)C([H])(N([H])C([H])([H])[H])C([H])([H])[H])C(C([H])([H])[H])(C([H])([H])[H])C([H])([H])[H])C([H])(C(=O)N([H])C1([H])c3c([H])c([H])c([H])c([H])c3C([H])([H])C([H])([H])C1([H])[H])C2([H])[H])c1nn(C([H])([H])[H])c(=O)c(N([H])C(=O)N2C([H])([H])C([H])([H])C([H])([H])C([H])(n3nc(-c4c([H])c([H])c(Oc5c([H])c([H])c(F)c([H])c5F)c([H])c4[H])c(C(=O)N([H])[H])c3N([H])[H])C2([H])[H])c1[H]

>  <smiles>  (34) 
[H]C(=C([H])C([H])([H])Oc1c([H])c([H])c2c(c1[H])C([H])([H])N(C(=O)C([H])(N([H])C(=O)C([H])(N([H])C([H])([H])[H])C([H])([H])[H])C(C([H])([H])[H])(C([H])([H])[H])C([H])([H])[H])C([H])(C(=O)N([H])C1([H])c3c([H])c([H])c([H])c([H])c3C([H])([H])C([H])([H])C1([H])[H])C2([H])[H])c1nn(C([H])([H])[H])c(=O)c(N([H])C(=O)N2C([H])([H])C([H])([H])C([H])([H])C([H])(n3nc(-c4c([H])c([H])c(Oc5c([H])c([H])c(F)c([H])c5F)c([H])c4[H])c(C(=O)N([H])[H])c3N([H])[H])C2([H])[H])c1[H]

$$$$
34:0:0
     RDKit          3D

100100  0  0  1  0  0  0  0  0999 V2000
  -25.2460  -13.5020   18.7100 C   0  0  0  0  0 15  0  0  0  0  0  0
  -25.4240  -13.7590   22.8730 C   0  0  0  0  0  1  0  0  0  0  0  0
  -23.5750  -12.4440   19.7170 C   0  0  0  0  0  1  0  0  0  0  0  0
  -26.8490  -14.7860   19.6760 C   0  0  0  0  0  1  0  0  0  0  0  0
  -23.7630  -12.4140   22.2160 C   0  0  0  0  0  1  0  0  0  0  0  0
  -26.7610  -15.0100   21.7030 C   0  0  0  0  0  1  0  0  0  0  0  0
  -22.2780  -12.1380   18.9680 C   0  0  0  0  0  1  0  0  0  0  0  0
  -29.6980  -14.6470   19.9200 C   0  0  0  0  0  0  0  0  0  0  0  0
  -30.4560  -12.4020   19.3210 C   0  0  0  0  0  2  0  0  0  0  0  0
  -29.4150  -12.0180   18.2420 C   0  0  0  0  0  2  0  0  0  0  0  0
  -28.0470  -11.5750   18.9330 C   0  0  0  0  0  2  0  0  0  0  0  0
  -27.6680  -12.5300   20.0940 C   0  0  0  0  0  3  0  0  0  0  0  0
  -28.8280  -12.7560   21.0660 C   0  0  0  0  0  2  0  0  0  0  0  0
  -29.8080  -13.3480   20.2400 N   0  0  0  0  0  0  0  0  0  0  0  0
  -30.8290  -15.2050   19.8780 O   0  0  0  0  0  0  0  0  0  0  0  0
  -28.3910  -15.1300   19.4100 N   0  0  0  0  0  0  0  0  0  0  0  0
  -28.5070  -16.0660   19.0590 H   0  0  0  0  0  0  0  0  0  0  0  0
  -24.8590  -14.5240   20.6680 C   0  0  0  0  0  3  0  0  0  0  0  0
  -24.2390  -14.0790   20.9510 C   0  0  0  0  0  3  0  0  0  0  0  0
  -25.4310  -12.1740   20.8390 C   0  0  0  0  0  3  0  0  0  0  0  0
  -26.1800  -12.9150   20.7450 N   0  0  0  0  0  0  0  0  0  0  0  0
  -26.3750  -11.8840   21.4620 N   0  0  0  0  0  2  0  0  0  0  0  0
  -24.6830  -10.4820   20.8820 C   0  0  0  0  0  0  0  0  0  0  0  0
  -24.6770   -9.5750   22.0200 C   0  0  0  0  0  3  0  0  0  0  0  0
  -23.7860   -8.4470   22.2480 C   0  0  0  0  0  3  0  0  0  0  0  0
  -22.7000   -8.1170   21.3930 C   0  0  0  0  0  0  0  0  0  0  0  0
  -22.6310   -8.9250   20.2650 C   0  0  0  0  0  3  0  0  0  0  0  0
  -23.6540   -9.8920   20.0040 C   0  0  0  0  0  3  0  0  0  0  0  0
  -21.8030   -7.0500   21.4850 O   0  0  0  0  0  0  0  0  0  0  0  0
  -21.7680   -6.1560   22.5380 C   0  0  0  0  0  0  0  0  0  0  0  0
  -21.4570   -6.6060   23.8360 C   0  0  0  0  0  3  0  0  0  0  0  0
  -21.3770   -5.6970   24.9100 C   0  0  0  0  0  3  0  0  0  0  0  0
  -21.5970   -4.3230   24.6940 C   0  0  0  0  0  0  0  0  0  0  0  0
  -21.8760   -3.8590   23.3960 C   0  0  0  0  0  3  0  0  0  0  0  0
  -21.9460   -4.7660   22.3200 C   0  0  0  0  0  0  0  0  0  0  0  0
  -22.1810   -4.2870   21.0740 F   0  0  0  0  0  0  0  0  0  0  0  0
  -21.5460   -3.4530   25.7320 F   0  0  0  0  0  0  0  0  0  0  0  0
  -22.6170  -14.4610   21.0810 C   0  0  0  0  0  0  0  0  0  0  0  0
  -21.6990  -13.7890   21.8320 N   0  0  0  0  0  0  0  0  0  0  0  0
  -22.1050  -15.2450   20.3250 O   0  0  0  0  0  0  0  0  0  0  0  0
  -22.0330  -13.0160   22.4320 H   0  0  0  0  0  0  0  0  0  0  0  0
  -20.7090  -13.9110   21.6980 H   0  0  0  0  0  0  0  0  0  0  0  0
  -24.7230  -15.8960   20.2300 N   0  0  0  0  0  0  0  0  0  0  0  0
  -23.8440  -16.3870   20.3220 H   0  0  0  0  0  0  0  0  0  0  0  0
  -25.5310  -16.5010   20.1160 H   0  0  0  0  0  0  0  0  0  0  0  0
  -22.8960  -11.7550   23.1110 N   0  0  0  0  0  0  0  0  0  0  0  0
  -23.0140  -12.0090   24.0880 H   0  0  0  0  0  0  0  0  0  0  0  0
  -22.9550  -10.7440   23.0360 H   0  0  0  0  0  0  0  0  0  0  0  0
  -25.6400  -13.9780   24.3310 C   0  0  0  0  0  0  0  0  0  0  0  0
  -27.1060  -14.0480   24.7820 C   0  0  0  0  0  1  0  0  0  0  0  0
  -24.7410  -14.0800   25.1700 O   0  0  0  0  0  0  0  0  0  0  0  0
  -26.9930  -16.6260   21.9250 N   0  0  0  0  0  0  0  0  0  0  0  0
  -27.1240  -16.8350   22.9140 H   0  0  0  0  0  0  0  0  0  0  0  0
  -27.2250  -18.1580   21.0820 C   0  0  0  0  0  2  0  0  0  0  0  0
  -26.7860  -19.9940   21.2880 C   0  0  0  0  0  2  0  0  0  0  0  0
  -25.7910  -20.0910   22.0110 O   0  0  0  0  0  1  0  0  0  0  0  0
  -27.3740  -21.8090   20.6540 C   0  0  0  0  0  2  0  0  0  0  0  0
  -28.3010  -21.6930   19.8450 O   0  0  0  0  0  1  0  0  0  0  0  0
  -26.9040  -23.6340   20.8650 C   0  0  0  0  0  2  0  0  0  0  0  0
  -27.6320  -25.2250   20.5000 O   0  0  0  0  0  0  0  0  0  0  0  0
  -24.6820  -31.8050   23.1540 C   0  0  0  0  0  0  0  0  0  0  0  0
  -26.9570  -26.5990   20.3440 C   0  0  0  0  0  0  0  0  0  0  0  0
  -23.5050  -30.4130   21.5050 C   0  0  0  0  0  3  0  0  0  0  0  0
  -24.9300  -28.7710   20.1090 C   0  0  0  0  0  0  0  0  0  0  0  0
  -26.0800  -30.5160   21.4300 C   0  0  0  0  0  2  0  0  0  0  0  0
  -26.1080  -29.0730   20.7980 C   0  0  0  0  0  0  0  0  0  0  0  0
  -27.1430  -28.0070   20.8850 C   0  0  0  0  0  3  0  0  0  0  0  0
  -25.8340  -26.5560   19.5140 C   0  0  0  0  0  3  0  0  0  0  0  0
  -24.8400  -27.5530   19.4270 C   0  0  0  0  0  3  0  0  0  0  0  0
  -23.7610  -29.7450   20.1260 C   0  0  0  0  0  2  0  0  0  0  0  0
  -24.7810  -30.9470   22.0820 N   0  0  0  0  0  0  0  0  0  0  0  0
  -23.5830  -32.1200   23.6420 O   0  0  0  0  0  0  0  0  0  0  0  0
  -22.7730  -29.4300   22.4620 C   0  0  0  0  0  0  0  0  0  0  0  0
  -21.4360  -29.3060   22.3420 N   0  0  0  0  0  0  0  0  0  0  0  0
  -23.4160  -28.7820   23.2910 O   0  0  0  0  0  0  0  0  0  0  0  0
  -20.9650  -29.8810   21.6600 H   0  0  0  0  0  0  0  0  0  0  0  0
  -18.0300  -28.1440   22.8420 C   0  0  0  0  0  0  0  0  0  0  0  0
  -20.5940  -28.3810   23.1090 C   0  0  0  0  0  3  0  0  0  0  0  0
  -20.6790  -26.9470   22.5370 C   0  0  0  0  0  2  0  0  0  0  0  0
  -19.5780  -26.6370   21.5190 C   0  0  0  0  0  2  0  0  0  0  0  0
  -18.1940  -26.7940   22.1590 C   0  0  0  0  0  2  0  0  0  0  0  0
  -19.1570  -28.8950   23.2740 C   0  0  0  0  0  0  0  0  0  0  0  0
  -18.9470  -30.1500   23.8830 C   0  0  0  0  0  3  0  0  0  0  0  0
  -17.6460  -30.6620   24.0540 C   0  0  0  0  0  3  0  0  0  0  0  0
  -16.5350  -29.9110   23.6340 C   0  0  0  0  0  3  0  0  0  0  0  0
  -16.7270  -28.6530   23.0370 C   0  0  0  0  0  3  0  0  0  0  0  0
  -25.9430  -32.4490   23.8110 C   0  0  0  0  0  3  0  0  0  0  0  0
  -25.6020  -33.8330   24.1970 N   0  0  0  0  0  0  0  0  0  0  0  0
  -25.9110  -34.9310   23.4960 C   0  0  0  0  0  0  0  0  0  0  0  0
  -26.5720  -34.8880   22.4550 O   0  0  0  0  0  0  0  0  0  0  0  0
  -25.0120  -33.9400   25.0090 H   0  0  0  0  0  0  0  0  0  0  0  0
  -24.1480  -36.7210   23.2630 C   0  0  0  0  0  1  0  0  0  0  0  0
  -25.4120  -36.2920   24.0280 C   0  0  0  0  0  3  0  0  0  0  0  0
  -27.5560  -37.1720   24.8420 C   0  0  0  0  0  1  0  0  0  0  0  0
  -26.4210  -37.3690   23.9450 N   0  0  0  0  0  0  0  0  0  0  0  0
  -26.0040  -38.2710   24.1600 H   0  0  0  0  0  0  0  0  0  0  0  0
  -26.4600  -31.6500   25.0710 C   0  0  1  0  0  0  0  0  0  0  0  0
  -25.3650  -31.3890   26.1330 C   0  0  0  0  0  1  0  0  0  0  0  0
  -27.0560  -30.2840   24.6620 C   0  0  0  0  0  1  0  0  0  0  0  0
  -27.6030  -32.4370   25.7560 C   0  0  0  0  0  1  0  0  0  0  0  0
  2 49  1  0
  5 46  1  0
  6 52  1  0
  7  3  1  0
  8 14  1  0
  9 14  1  0
 10 11  1  0
 10  9  1  0
 12 11  1  0
 12 21  1  0
 12 13  1  0
 14 13  1  0
 15  8  2  0
 16  4  1  0
 16  8  1  0
 17 16  1  0
 18 19  2  0
 19 38  1  0
 20 23  1  0
 20 22  1  0
 21 20  1  0
 21 22  1  0
 23 24  1  0
 24 25  2  0
 26 29  1  0
 26 25  1  0
 27 26  2  0
 28 27  1  0
 28 23  2  0
 29 30  1  0
 30 31  1  0
 31 32  2  0
 33 32  1  0
 33 37  1  0
 34 33  2  0
 35 30  2  0
 35 34  1  0
 36 35  1  0
 38 39  1  0
 39 41  1  0
 40 38  2  0
 42 39  1  0
 43 44  1  0
 43 18  1  0
 45 43  1  0
 46 47  1  0
 48 46  1  0
 49 50  1  0
 49 51  2  0
 52 53  1  0
 54 55  1  0
 54 52  1  0
 55 56  1  0
 57 59  1  0
 58 57  1  0
 60 59  1  0
 61 72  2  0
 62 60  1  0
 62 67  1  0
 63 71  1  0
 63 73  1  0
 64 70  1  0
 64 66  1  0
 65 71  1  0
 66 67  2  0
 66 65  1  0
 68 62  2  0
 69 68  1  0
 69 64  2  0
 70 63  1  0
 71 61  1  0
 73 75  2  0
 74 73  1  0
 76 74  1  0
 77 86  2  0
 77 82  1  0
 78 74  1  0
 78 82  1  0
 79 78  1  0
 80 81  1  0
 80 79  1  0
 81 77  1  0
 82 83  2  0
 83 84  1  0
 85 84  2  0
 86 85  1  0
 87 61  1  0
 87 88  1  0
 87 97  1  0
 88 91  1  0
 89 93  1  0
 89 88  1  0
 90 89  2  0
 93 92  1  0
 95 93  1  0
 95 96  1  0
 95 94  1  0
 97100  1  1
 97 98  1  0
 99 97  1  0
M  ISO  4   8 100  16 100  59 101  60 101
M  END
>  <TORSDO>  (35) 
F 23

>  <SCORE>  (35) 
27.966

>  <name>  (35) 
34

>  <ligand_id>  (35) 
34

>  <original_smiles>  (35) 
[H]c1c([H])c([H])c2c(c1[H])C([H])([H])C([H])([H])C([H])([H])C2([H])N([H])C(=O)C1([H])N(C(=O)C([H])(N([H])C(=O)C([H])(N([H])C([H])([H])[H])C([H])([H])[H])C(C([H])([H])[H])(C([H])([H])[H])C([H])([H])[H])C([H])([H])c2c([H])c(OC([H])([H])C(=O)C(=O)C([H])([H])N([H])c3c(C(=O)C([H])([H])[H])c(N([H])[H])c(C([H])([H])[H])c([H])c3N([H])C(=O)N3C([H])([H])C([H])([H])C([H])([H])C([H])(n4nc(-c5c([H])c([H])c(Oc6c([H])c([H])c(F)c([H])c6F)c([H])c5[H])c(C(=O)N([H])[H])c4N([H])[H])C3([H])[H])c([H])c([H])c2C1([H])[H]

>  <smiles>  (35) 
[H]c1c([H])c([H])c2c(c1[H])C([H])([H])C([H])([H])C([H])([H])C2([H])N([H])C(=O)C1([H])N(C(=O)C([H])(N([H])C(=O)C([H])(N([H])C([H])([H])[H])C([H])([H])[H])C(C([H])([H])[H])(C([H])([H])[H])C([H])([H])[H])C([H])([H])c2c([H])c(OC([H])([H])C(=O)C(=O)C([H])([H])N([H])c3c(C(=O)C([H])([H])[H])c(N([H])[H])c(C([H])([H])[H])c([H])c3N([H])C(=O)N3C([H])([H])C([H])([H])C([H])([H])C([H])(n4nc(-c5c([H])c([H])c(Oc6c([H])c([H])c(F)c([H])c6F)c([H])c5[H])c(C(=O)N([H])[H])c4N([H])[H])C3([H])[H])c([H])c([H])c2C1([H])[H]

$$$$
35:0:0
     RDKit          3D

 96104  0  0  1  0  0  0  0  0999 V2000
  -29.6430  -19.0510   19.7400 C   0  0  0  0  0  3  0  0  0  0  0  0
  -31.1390  -19.3460   21.9970 C   0  0  0  0  0  3  0  0  0  0  0  0
  -29.6460  -20.4470   20.3330 C   0  0  0  0  0  0  0  0  0  0  0  0
  -30.4110  -20.4820   21.5410 C   0  0  0  0  0  0  0  0  0  0  0  0
  -30.3770  -17.8190   20.2140 C   0  0  0  0  0  0  0  0  0  0  0  0
  -31.1480  -18.0760   21.3720 C   0  0  0  0  0  0  0  0  0  0  0  0
  -31.0000  -15.0980   19.9390 C   0  0  0  0  0  0  0  0  0  0  0  0
  -30.8060  -12.6840   19.1060 C   0  0  0  0  0  2  0  0  0  0  0  0
  -29.8550  -12.5790   17.8950 C   0  0  0  0  0  2  0  0  0  0  0  0
  -28.3890  -12.4410   18.3630 C   0  0  0  0  0  2  0  0  0  0  0  0
  -28.0240  -13.4440   19.4920 C   0  0  0  0  0  3  0  0  0  0  0  0
  -29.1030  -13.4920   20.5900 C   0  0  0  0  0  2  0  0  0  0  0  0
  -30.3570  -13.8540   19.9150 N   0  0  0  0  0  0  0  0  0  0  0  0
  -32.2280  -15.0700   19.7880 O   0  0  0  0  0  0  0  0  0  0  0  0
  -30.2610  -16.3240   19.7700 N   0  0  0  0  0  0  0  0  0  0  0  0
  -29.3370  -16.1200   19.4240 H   0  0  0  0  0  0  0  0  0  0  0  0
  -25.7110  -14.1690   20.3070 C   0  0  0  0  0  0  0  0  0  0  0  0
  -24.6040  -13.4680   20.6870 C   0  0  0  0  0  0  0  0  0  0  0  0
  -24.9710  -12.0870   20.6320 C   0  0  0  0  0  0  0  0  0  0  0  0
  -26.6850  -13.2260   20.0270 N   0  0  0  0  0  0  0  0  0  0  0  0
  -26.2500  -11.9650   20.2930 N   0  0  0  0  0  0  0  0  0  0  0  0
  -24.1580  -10.8780   20.8250 C   0  0  0  0  0  0  0  0  0  0  0  0
  -24.5710   -9.8470   21.6960 C   0  0  0  0  0  3  0  0  0  0  0  0
  -23.7650   -8.7010   21.8810 C   0  0  0  0  0  3  0  0  0  0  0  0
  -22.5340   -8.5790   21.1920 C   0  0  0  0  0  0  0  0  0  0  0  0
  -22.1360   -9.6010   20.3130 C   0  0  0  0  0  3  0  0  0  0  0  0
  -22.9420  -10.7380   20.1260 C   0  0  0  0  0  3  0  0  0  0  0  0
  -21.7000   -7.4910   21.2870 O   0  0  0  0  0  0  0  0  0  0  0  0
  -21.7130   -6.6680   22.3860 C   0  0  0  0  0  0  0  0  0  0  0  0
  -21.4790   -7.1590   23.6880 C   0  0  0  0  0  3  0  0  0  0  0  0
  -21.4320   -6.2680   24.7790 C   0  0  0  0  0  3  0  0  0  0  0  0
  -21.6120   -4.8860   24.5680 C   0  0  0  0  0  0  0  0  0  0  0  0
  -21.8450   -4.3960   23.2700 C   0  0  0  0  0  3  0  0  0  0  0  0
  -21.8930   -5.2850   22.1830 C   0  0  0  0  0  0  0  0  0  0  0  0
  -22.0930   -4.8040   20.9330 F   0  0  0  0  0  0  0  0  0  0  0  0
  -21.5610   -4.0280   25.6140 F   0  0  0  0  0  0  0  0  0  0  0  0
  -23.2490  -14.0420   20.9860 C   0  0  0  0  0  0  0  0  0  0  0  0
  -22.4890  -13.4130   21.8750 N   0  0  0  0  0  0  0  0  0  0  0  0
  -22.8700  -15.0870   20.4580 O   0  0  0  0  0  0  0  0  0  0  0  0
  -22.7990  -12.5700   22.3330 H   0  0  0  0  0  0  0  0  0  0  0  0
  -21.5810  -13.7910   22.1040 H   0  0  0  0  0  0  0  0  0  0  0  0
  -25.9620  -15.5300   20.1470 N   0  0  0  0  0  0  0  0  0  0  0  0
  -25.2360  -16.2220   20.3000 H   0  0  0  0  0  0  0  0  0  0  0  0
  -26.8320  -15.9320   19.8260 H   0  0  0  0  0  0  0  0  0  0  0  0
  -29.8130  -21.6650   23.4110 C   0  0  0  0  0  3  0  0  0  0  0  0
  -29.8500  -22.8410   24.3560 C   0  0  0  0  0  1  0  0  0  0  0  0
  -30.4900  -21.6350   22.3320 N   0  0  0  0  0  0  0  0  0  0  0  0
  -28.8930  -21.8380   19.8070 C   0  0  0  0  0  0  0  0  0  0  0  0
  -28.1340  -21.6870   18.8020 N   0  0  0  0  0  0  0  0  0  0  0  0
  -28.0920  -20.7320   18.4630 H   0  0  0  0  0  0  0  0  0  0  0  0
  -28.9280  -23.4090   20.2890 C   0  0  0  0  0  3  0  0  0  0  0  0
  -28.2100  -24.5910   19.8850 C   0  0  0  0  0  3  0  0  0  0  0  0
  -28.3150  -26.0340   20.2520 O   0  0  0  0  0  0  0  0  0  0  0  0
  -24.6780  -31.7930   23.2180 C   0  0  0  0  0  0  0  0  0  0  0  0
  -27.2690  -27.0480   20.1620 C   0  0  0  0  0  0  0  0  0  0  0  0
  -23.4880  -30.4040   21.5670 C   0  0  0  0  0  3  0  0  0  0  0  0
  -24.9430  -28.8340   20.1350 C   0  0  0  0  0  0  0  0  0  0  0  0
  -26.0470  -30.6550   21.4230 C   0  0  0  0  0  2  0  0  0  0  0  0
  -26.1220  -29.2620   20.7580 C   0  0  0  0  0  0  0  0  0  0  0  0
  -27.2780  -28.3840   20.7600 C   0  0  0  0  0  3  0  0  0  0  0  0
  -26.0620  -26.7410   19.4950 C   0  0  0  0  0  3  0  0  0  0  0  0
  -24.9290  -27.5880   19.4890 C   0  0  0  0  0  3  0  0  0  0  0  0
  -23.7210  -29.7390   20.1830 C   0  0  0  0  0  2  0  0  0  0  0  0
  -24.7580  -30.9760   22.1230 N   0  0  0  0  0  0  0  0  0  0  0  0
  -23.5890  -32.0750   23.7440 O   0  0  0  0  0  0  0  0  0  0  0  0
  -22.8040  -29.3920   22.5230 C   0  0  0  0  0  0  0  0  0  0  0  0
  -21.4840  -29.1940   22.3680 N   0  0  0  0  0  0  0  0  0  0  0  0
  -23.4680  -28.7870   23.3700 O   0  0  0  0  0  0  0  0  0  0  0  0
  -21.0050  -29.7240   21.6560 H   0  0  0  0  0  0  0  0  0  0  0  0
  -18.1270  -27.8840   22.7730 C   0  0  0  0  0  0  0  0  0  0  0  0
  -20.6640  -28.2490   23.1340 C   0  0  0  0  0  3  0  0  0  0  0  0
  -20.8400  -26.8080   22.6030 C   0  0  0  0  0  2  0  0  0  0  0  0
  -19.7910  -26.4170   21.5570 C   0  0  0  0  0  2  0  0  0  0  0  0
  -18.3800  -26.5270   22.1400 C   0  0  0  0  0  2  0  0  0  0  0  0
  -19.1990  -28.7000   23.2260 C   0  0  0  0  0  0  0  0  0  0  0  0
  -18.9070  -29.9660   23.7780 C   0  0  0  0  0  3  0  0  0  0  0  0
  -17.5760  -30.4150   23.8870 C   0  0  0  0  0  3  0  0  0  0  0  0
  -16.5200  -29.5980   23.4490 C   0  0  0  0  0  3  0  0  0  0  0  0
  -16.7960  -28.3350   22.8960 C   0  0  0  0  0  3  0  0  0  0  0  0
  -25.9510  -32.4330   23.8510 C   0  0  0  0  0  3  0  0  0  0  0  0
  -26.4540  -31.6650   25.1370 C   0  0  1  0  0  0  0  0  0  0  0  0
  -25.3520  -31.4390   26.1980 C   0  0  0  0  0  1  0  0  0  0  0  0
  -27.0350  -30.2800   24.7660 C   0  0  0  0  0  1  0  0  0  0  0  0
  -27.6020  -32.4580   25.8030 C   0  0  0  0  0  1  0  0  0  0  0  0
  -25.6370  -33.8320   24.1810 N   0  0  0  0  0  0  0  0  0  0  0  0
  -25.9630  -34.8900   23.4240 C   0  0  0  0  0  0  0  0  0  0  0  0
  -26.6270  -34.7910   22.3900 O   0  0  0  0  0  0  0  0  0  0  0  0
  -25.0550  -33.9810   24.9920 H   0  0  0  0  0  0  0  0  0  0  0  0
  -24.2230  -36.6810   23.0990 C   0  0  0  0  0  1  0  0  0  0  0  0
  -25.4780  -36.2770   23.8910 C   0  0  0  0  0  3  0  0  0  0  0  0
  -27.6210  -37.1710   24.6910 C   0  0  0  0  0  1  0  0  0  0  0  0
  -26.5040  -37.3340   23.7640 N   0  0  0  0  0  0  0  0  0  0  0  0
  -26.0960  -38.2530   23.9160 H   0  0  0  0  0  0  0  0  0  0  0  0
  -31.8860  -17.0550   21.9720 N   0  0  0  0  0  0  0  0  0  0  0  0
  -32.4190  -17.3000   22.7980 H   0  0  0  0  0  0  0  0  0  0  0  0
  -32.4390  -16.4890   21.3360 H   0  0  0  0  0  0  0  0  0  0  0  0
  1  5  2  0
  1  3  1  0
  3  4  2  0
  4  2  1  0
  4 47  1  0
  5  6  1  0
  6 94  1  0
  6  2  2  0
  8 13  1  0
  9 10  1  0
  9  8  1  0
 11 10  1  0
 11 20  1  0
 11 12  1  0
 13  7  1  0
 13 12  1  0
 14  7  2  0
 15  7  1  0
 15  5  1  0
 16 15  1  0
 17 18  2  0
 18 37  1  0
 19 18  1  0
 19 22  1  0
 20 21  1  0
 20 17  1  0
 21 19  2  0
 22 23  1  0
 23 24  2  0
 25 28  1  0
 25 24  1  0
 26 25  2  0
 27 26  1  0
 27 22  2  0
 28 29  1  0
 29 30  1  0
 30 31  2  0
 32 31  1  0
 32 36  1  0
 33 32  2  0
 34 29  2  0
 34 33  1  0
 35 34  1  0
 37 38  1  0
 38 41  1  0
 38 40  1  0
 39 37  2  0
 42 43  1  0
 42 17  1  0
 44 42  1  0
 45 46  1  0
 47 45  2  0
 48 51  1  0
 48  3  1  0
 49 48  2  0
 50 49  1  0
 52 53  1  0
 52 51  2  0
 54 65  2  0
 55 53  1  0
 55 60  1  0
 56 64  1  0
 56 66  1  0
 57 63  1  0
 57 59  1  0
 58 64  1  0
 59 60  2  0
 59 58  1  0
 61 55  2  0
 62 61  1  0
 62 57  2  0
 63 56  1  0
 64 54  1  0
 66 68  2  0
 67 66  1  0
 69 67  1  0
 70 79  2  0
 70 75  1  0
 71 67  1  0
 71 75  1  0
 72 71  1  0
 73 74  1  0
 73 72  1  0
 74 70  1  0
 75 76  2  0
 76 77  1  0
 78 77  2  0
 79 78  1  0
 80 54  1  0
 80 85  1  0
 80 81  1  0
 81 84  1  1
 81 82  1  0
 83 81  1  0
 85 88  1  0
 86 90  1  0
 86 85  1  0
 87 86  2  0
 90 89  1  0
 92 90  1  0
 92 93  1  0
 92 91  1  0
 94 95  1  0
 96 94  1  0
M  ISO  4   7 100  15 100  52 101  53 101
M  END
>  <TORSDO>  (36) 
F 20

>  <SCORE>  (36) 
-13.215

>  <name>  (36) 
35

>  <ligand_id>  (36) 
35

>  <original_smiles>  (36) 
[H]N=C(C([H])=C([H])Oc1c([H])c([H])c2c(c1[H])C([H])([H])N(C(=O)C([H])(N([H])C(=O)C([H])(N([H])C([H])([H])[H])C([H])([H])[H])C(C([H])([H])[H])(C([H])([H])[H])C([H])([H])[H])C([H])(C(=O)N([H])C1([H])c3c([H])c([H])c([H])c([H])c3C([H])([H])C([H])([H])C1([H])[H])C2([H])[H])c1c([H])c(N([H])C(=O)N2C([H])([H])C([H])([H])C([H])([H])C([H])(n3nc(-c4c([H])c([H])c(Oc5c([H])c([H])c(F)c([H])c5F)c([H])c4[H])c(C(=O)N([H])[H])c3N([H])[H])C2([H])[H])c(N([H])[H])c([H])c1N=C([H])C([H])([H])[H]

>  <smiles>  (36) 
[H]N=C(C([H])=C([H])Oc1c([H])c([H])c2c(c1[H])C([H])([H])N(C(=O)C([H])(N([H])C(=O)C([H])(N([H])C([H])([H])[H])C([H])([H])[H])C(C([H])([H])[H])(C([H])([H])[H])C([H])([H])[H])C([H])(C(=O)N([H])C1([H])c3c([H])c([H])c([H])c([H])c3C([H])([H])C([H])([H])C1([H])[H])C2([H])[H])c1c([H])c(N([H])C(=O)N2C([H])([H])C([H])([H])C([H])([H])C([H])(n3nc(-c4c([H])c([H])c(Oc5c([H])c([H])c(F)c([H])c5F)c([H])c4[H])c(C(=O)N([H])[H])c3N([H])[H])C2([H])[H])c(N([H])[H])c([H])c1N=C([H])C([H])([H])[H]

$$$$
36:0:0
     RDKit          3D

 92100  0  0  1  0  0  0  0  0999 V2000
  -28.8780  -22.0120   20.3100 C   0  0  0  0  0  0  0  0  0  0  0  0
  -29.5230  -20.7660   19.9110 N   0  0  0  0  0  0  0  0  0  0  0  0
  -28.1500  -21.9470   21.3060 O   0  0  0  0  0  0  0  0  0  0  0  0
  -29.8990  -20.7710   18.9720 H   0  0  0  0  0  0  0  0  0  0  0  0
  -30.2510  -19.9520   22.0610 C   0  0  0  0  0  3  0  0  0  0  0  0
  -30.2190  -17.9950   20.7810 C   0  0  0  0  0  0  0  0  0  0  0  0
  -29.9440  -19.5390   20.7930 C   0  0  0  0  0  0  0  0  0  0  0  0
  -30.7000  -17.7580   22.0650 C   0  0  0  0  0  0  0  0  0  0  0  0
  -31.1820  -16.5030   22.7560 C   0  0  0  0  0  1  0  0  0  0  0  0
  -30.9520  -19.0110   24.2560 C   0  0  0  0  0  1  0  0  0  0  0  0
  -30.6470  -18.9040   22.8350 N   0  0  0  0  0  0  0  0  0  0  0  0
  -30.0140  -16.6070   19.8540 C   0  0  0  0  0  2  0  0  0  0  0  0
  -30.7730  -15.0840   19.9010 C   0  0  0  0  0  0  0  0  0  0  0  0
  -30.5420  -12.7470   18.9200 C   0  0  0  0  0  2  0  0  0  0  0  0
  -29.5260  -12.7740   17.7520 C   0  0  0  0  0  2  0  0  0  0  0  0
  -28.0880  -12.5850   18.2700 C   0  0  0  0  0  2  0  0  0  0  0  0
  -27.7840  -13.4640   19.5090 C   0  0  0  0  0  3  0  0  0  0  0  0
  -28.9130  -13.4240   20.5530 C   0  0  0  0  0  2  0  0  0  0  0  0
  -30.1540  -13.8250   19.8790 N   0  0  0  0  0  0  0  0  0  0  0  0
  -31.9840  -15.0600   19.6400 O   0  0  0  0  0  0  0  0  0  0  0  0
  -25.4860  -14.0690   20.4380 C   0  0  0  0  0  0  0  0  0  0  0  0
  -24.4310  -13.3140   20.8680 C   0  0  0  0  0  0  0  0  0  0  0  0
  -24.8530  -11.9530   20.7590 C   0  0  0  0  0  0  0  0  0  0  0  0
  -26.4840  -13.1720   20.0990 N   0  0  0  0  0  0  0  0  0  0  0  0
  -26.1190  -11.8890   20.3590 N   0  0  0  0  0  0  0  0  0  0  0  0
  -24.0960  -10.7100   20.9570 C   0  0  0  0  0  0  0  0  0  0  0  0
  -24.5160   -9.7320   21.8860 C   0  0  0  0  0  3  0  0  0  0  0  0
  -23.7660   -8.5520   22.0730 C   0  0  0  0  0  3  0  0  0  0  0  0
  -22.5780   -8.3440   21.3330 C   0  0  0  0  0  0  0  0  0  0  0  0
  -22.1760   -9.3070   20.3920 C   0  0  0  0  0  3  0  0  0  0  0  0
  -22.9280  -10.4790   20.2020 C   0  0  0  0  0  3  0  0  0  0  0  0
  -21.7970   -7.2180   21.4320 O   0  0  0  0  0  0  0  0  0  0  0  0
  -21.6860   -6.5150   22.6040 C   0  0  0  0  0  0  0  0  0  0  0  0
  -21.2200   -7.1190   23.7930 C   0  0  0  0  0  3  0  0  0  0  0  0
  -21.0560   -6.3470   24.9600 C   0  0  0  0  0  3  0  0  0  0  0  0
  -21.3460   -4.9680   24.9380 C   0  0  0  0  0  0  0  0  0  0  0  0
  -21.8010   -4.3630   23.7530 C   0  0  0  0  0  3  0  0  0  0  0  0
  -21.9690   -5.1340   22.5900 C   0  0  0  0  0  0  0  0  0  0  0  0
  -22.3920   -4.5420   21.4470 F   0  0  0  0  0  0  0  0  0  0  0  0
  -21.1810   -4.2220   26.0560 F   0  0  0  0  0  0  0  0  0  0  0  0
  -23.0710  -13.8240   21.2470 C   0  0  0  0  0  0  0  0  0  0  0  0
  -22.3890  -13.1400   22.1570 N   0  0  0  0  0  0  0  0  0  0  0  0
  -22.6230  -14.8650   20.7660 O   0  0  0  0  0  0  0  0  0  0  0  0
  -22.7720  -12.3020   22.5690 H   0  0  0  0  0  0  0  0  0  0  0  0
  -21.4770  -13.4540   22.4510 H   0  0  0  0  0  0  0  0  0  0  0  0
  -25.6660  -15.4380   20.2750 N   0  0  0  0  0  0  0  0  0  0  0  0
  -24.8730  -16.0650   20.3600 H   0  0  0  0  0  0  0  0  0  0  0  0
  -26.4340  -15.8420   19.7550 H   0  0  0  0  0  0  0  0  0  0  0  0
  -28.3910  -24.6510   20.0600 C   0  0  0  0  0  3  0  0  0  0  0  0
  -28.9750  -23.4160   19.5870 C   0  0  0  0  0  0  0  0  0  0  0  0
  -29.7760  -23.4220   18.3000 C   0  0  0  0  0  1  0  0  0  0  0  0
  -28.4450  -26.0760   19.6110 O   0  0  0  0  0  0  0  0  0  0  0  0
  -24.5580  -31.5410   22.9230 C   0  0  0  0  0  0  0  0  0  0  0  0
  -27.3380  -27.0220   19.6890 C   0  0  0  0  0  0  0  0  0  0  0  0
  -23.4060  -30.1000   21.2950 C   0  0  0  0  0  3  0  0  0  0  0  0
  -24.9050  -28.6560   19.7850 C   0  0  0  0  0  0  0  0  0  0  0  0
  -25.9340  -30.5290   21.0540 C   0  0  0  0  0  2  0  0  0  0  0  0
  -26.0780  -29.1540   20.3650 C   0  0  0  0  0  0  0  0  0  0  0  0
  -27.2910  -28.3540   20.3000 C   0  0  0  0  0  3  0  0  0  0  0  0
  -26.1260  -26.6460   19.0730 C   0  0  0  0  0  3  0  0  0  0  0  0
  -24.9420  -27.4160   19.1260 C   0  0  0  0  0  3  0  0  0  0  0  0
  -23.6230  -29.4700   19.8960 C   0  0  0  0  0  2  0  0  0  0  0  0
  -24.6550  -30.7470   21.8100 N   0  0  0  0  0  0  0  0  0  0  0  0
  -23.4720  -31.7390   23.4890 O   0  0  0  0  0  0  0  0  0  0  0  0
  -22.8250  -29.0300   22.2540 C   0  0  0  0  0  0  0  0  0  0  0  0
  -21.5260  -28.7100   22.1140 N   0  0  0  0  0  0  0  0  0  0  0  0
  -23.5500  -28.4860   23.0920 O   0  0  0  0  0  0  0  0  0  0  0  0
  -20.9860  -29.2040   21.4150 H   0  0  0  0  0  0  0  0  0  0  0  0
  -18.3310  -27.0390   22.4830 C   0  0  0  0  0  0  0  0  0  0  0  0
  -20.8030  -27.6900   22.8810 C   0  0  0  0  0  3  0  0  0  0  0  0
  -21.1500  -26.2680   22.3800 C   0  0  0  0  0  2  0  0  0  0  0  0
  -20.1720  -25.7510   21.3210 C   0  0  0  0  0  2  0  0  0  0  0  0
  -18.7460  -25.7090   21.8780 C   0  0  0  0  0  2  0  0  0  0  0  0
  -19.2980  -27.9760   22.9380 C   0  0  0  0  0  0  0  0  0  0  0  0
  -18.8560  -29.2100   23.4610 C   0  0  0  0  0  3  0  0  0  0  0  0
  -17.4840  -29.5140   23.5350 C   0  0  0  0  0  3  0  0  0  0  0  0
  -16.5310  -28.5750   23.0990 C   0  0  0  0  0  3  0  0  0  0  0  0
  -16.9570  -27.3400   22.5780 C   0  0  0  0  0  3  0  0  0  0  0  0
  -25.8050  -32.2550   23.5260 C   0  0  0  0  0  3  0  0  0  0  0  0
  -26.4170  -31.4890   24.7610 C   0  0  1  0  0  0  0  0  0  0  0  0
  -25.3810  -31.1520   25.8590 C   0  0  0  0  0  1  0  0  0  0  0  0
  -27.0790  -30.1630   24.3180 C   0  0  0  0  0  1  0  0  0  0  0  0
  -27.5370  -32.3400   25.4050 C   0  0  0  0  0  1  0  0  0  0  0  0
  -25.4030  -33.6150   23.9190 N   0  0  0  0  0  0  0  0  0  0  0  0
  -25.7210  -34.7330   23.2510 C   0  0  0  0  0  0  0  0  0  0  0  0
  -26.4490  -34.7260   22.2540 O   0  0  0  0  0  0  0  0  0  0  0  0
  -24.7560  -33.6900   24.6910 H   0  0  0  0  0  0  0  0  0  0  0  0
  -23.9300  -36.4660   22.9110 C   0  0  0  0  0  1  0  0  0  0  0  0
  -25.1430  -36.0660   23.7660 C   0  0  0  0  0  3  0  0  0  0  0  0
  -27.1880  -36.9850   24.7650 C   0  0  0  0  0  1  0  0  0  0  0  0
  -26.1280  -37.1690   23.7780 N   0  0  0  0  0  0  0  0  0  0  0  0
  -25.6720  -38.0570   23.9680 H   0  0  0  0  0  0  0  0  0  0  0  0
  1  3  2  0
  2  1  1  0
  2  7  1  0
  4  2  1  0
  5 11  1  0
  6  7  1  0
  6  8  2  0
  7  5  2  0
  8  9  1  0
  8 11  1  0
 11 10  1  0
 12 13  1  0
 12  6  1  0
 14 19  1  0
 15 16  1  0
 15 14  1  0
 17 16  1  0
 17 24  1  0
 17 18  1  0
 19 13  1  0
 19 18  1  0
 20 13  2  0
 21 22  2  0
 22 41  1  0
 23 22  1  0
 23 26  1  0
 24 25  1  0
 24 21  1  0
 25 23  2  0
 26 27  1  0
 27 28  2  0
 29 32  1  0
 29 28  1  0
 30 29  2  0
 31 30  1  0
 31 26  2  0
 32 33  1  0
 33 34  1  0
 34 35  2  0
 36 35  1  0
 36 40  1  0
 37 36  2  0
 38 33  2  0
 38 37  1  0
 39 38  1  0
 41 42  1  0
 42 45  1  0
 42 44  1  0
 43 41  2  0
 46 47  1  0
 46 21  1  0
 48 46  1  0
 50 49  2  0
 50  1  1  0
 51 50  1  0
 52 54  1  0
 52 49  1  0
 53 64  2  0
 54 59  1  0
 55 63  1  0
 55 65  1  0
 56 62  1  0
 56 58  1  0
 57 63  1  0
 58 57  1  0
 59 58  2  0
 60 61  1  0
 60 54  2  0
 61 56  2  0
 62 55  1  0
 63 53  1  0
 65 67  2  0
 66 65  1  0
 68 66  1  0
 69 78  2  0
 69 74  1  0
 70 66  1  0
 70 74  1  0
 71 70  1  0
 72 73  1  0
 72 71  1  0
 73 69  1  0
 74 75  2  0
 75 76  1  0
 77 76  2  0
 78 77  1  0
 79 53  1  0
 79 84  1  0
 79 80  1  0
 80 83  1  1
 80 81  1  0
 82 80  1  0
 84 87  1  0
 85 89  1  0
 85 84  1  0
 86 85  2  0
 89 88  1  0
 89 91  1  0
 91 92  1  0
 91 90  1  0
M  ISO  4  12 100  13 100  49 101  52 101
M  END
>  <TORSDO>  (37) 
F 19

>  <SCORE>  (37) 
-12.097

>  <name>  (37) 
36

>  <ligand_id>  (37) 
36

>  <original_smiles>  (37) 
[H]C(Oc1c([H])c([H])c2c(c1[H])C([H])([H])N(C(=O)C([H])(N([H])C(=O)C([H])(N([H])C([H])([H])[H])C([H])([H])[H])C(C([H])([H])[H])(C([H])([H])[H])C([H])([H])[H])C([H])(C(=O)N([H])C1([H])c3c([H])c([H])c([H])c([H])c3C([H])([H])C([H])([H])C1([H])[H])C2([H])[H])=C(C(=O)N([H])c1c(C([H])([H])C(=O)N2C([H])([H])C([H])([H])C([H])([H])C([H])(n3nc(-c4c([H])c([H])c(Oc5c([H])c([H])c(F)c([H])c5F)c([H])c4[H])c(C(=O)N([H])[H])c3N([H])[H])C2([H])[H])c(C([H])([H])[H])n(C([H])([H])[H])c1[H])C([H])([H])[H]

>  <smiles>  (37) 
[H]C(Oc1c([H])c([H])c2c(c1[H])C([H])([H])N(C(=O)C([H])(N([H])C(=O)C([H])(N([H])C([H])([H])[H])C([H])([H])[H])C(C([H])([H])[H])(C([H])([H])[H])C([H])([H])[H])C([H])(C(=O)N([H])C1([H])c3c([H])c([H])c([H])c([H])c3C([H])([H])C([H])([H])C1([H])[H])C2([H])[H])=C(C(=O)N([H])c1c(C([H])([H])C(=O)N2C([H])([H])C([H])([H])C([H])([H])C([H])(n3nc(-c4c([H])c([H])c(Oc5c([H])c([H])c(F)c([H])c5F)c([H])c4[H])c(C(=O)N([H])[H])c3N([H])[H])C2([H])[H])c(C([H])([H])[H])n(C([H])([H])[H])c1[H])C([H])([H])[H]

$$$$
37:0:0
     RDKit          3D

 93101  0  0  1  0  0  0  0  0999 V2000
  -30.6140  -19.6090   22.1070 C   0  0  0  0  0  3  0  0  0  0  0  0
  -30.9450  -18.7220   19.5220 C   0  0  0  0  0  3  0  0  0  0  0  0
  -30.7960  -18.2050   21.8580 C   0  0  0  0  0  0  0  0  0  0  0  0
  -30.5580  -20.6020   21.0820 C   0  0  0  0  0  0  0  0  0  0  0  0
  -30.9490  -17.7020   20.5310 C   0  0  0  0  0  0  0  0  0  0  0  0
  -30.7580  -20.1060   19.7700 C   0  0  0  0  0  0  0  0  0  0  0  0
  -30.7750  -17.2540   23.0410 C   0  0  0  0  0  1  0  0  0  0  0  0
  -30.7910  -20.9550   18.7140 F   0  0  0  0  0  0  0  0  0  0  0  0
  -31.6200  -15.1880   20.7380 C   0  0  0  0  0  0  0  0  0  0  0  0
  -31.4950  -12.8480   19.9050 C   0  0  0  0  0  2  0  0  0  0  0  0
  -30.6700  -12.7580   18.5990 C   0  0  0  0  0  2  0  0  0  0  0  0
  -29.1570  -12.7020   18.8760 C   0  0  0  0  0  2  0  0  0  0  0  0
  -28.6740  -13.6810   19.9790 C   0  0  0  0  0  3  0  0  0  0  0  0
  -29.6200  -13.6810   21.1960 C   0  0  0  0  0  2  0  0  0  0  0  0
  -30.9710  -13.9760   20.6990 N   0  0  0  0  0  0  0  0  0  0  0  0
  -32.8500  -15.2320   20.8100 O   0  0  0  0  0  0  0  0  0  0  0  0
  -30.9590  -16.2630   20.1410 N   0  0  0  0  0  0  0  0  0  0  0  0
  -26.2390  -14.3400   20.4540 C   0  0  0  0  0  0  0  0  0  0  0  0
  -25.1240  -13.5900   20.7090 C   0  0  0  0  0  0  0  0  0  0  0  0
  -25.5620  -12.2310   20.7500 C   0  0  0  0  0  0  0  0  0  0  0  0
  -27.2850  -13.4350   20.3460 N   0  0  0  0  0  0  0  0  0  0  0  0
  -26.8760  -12.1650   20.5900 N   0  0  0  0  0  0  0  0  0  0  0  0
  -24.7990  -10.9840   20.8720 C   0  0  0  0  0  0  0  0  0  0  0  0
  -25.1660   -9.9830   21.7980 C   0  0  0  0  0  3  0  0  0  0  0  0
  -24.4050   -8.7990   21.9100 C   0  0  0  0  0  3  0  0  0  0  0  0
  -23.2640   -8.6090   21.0940 C   0  0  0  0  0  0  0  0  0  0  0  0
  -22.9200   -9.5970   20.1550 C   0  0  0  0  0  3  0  0  0  0  0  0
  -23.6810  -10.7720   20.0410 C   0  0  0  0  0  3  0  0  0  0  0  0
  -22.4810   -7.4810   21.1170 O   0  0  0  0  0  0  0  0  0  0  0  0
  -22.1950   -6.8290   22.2890 C   0  0  0  0  0  0  0  0  0  0  0  0
  -21.5230   -7.4680   23.3540 C   0  0  0  0  0  3  0  0  0  0  0  0
  -21.1860   -6.7400   24.5130 C   0  0  0  0  0  3  0  0  0  0  0  0
  -21.5120   -5.3750   24.6070 C   0  0  0  0  0  0  0  0  0  0  0  0
  -22.1780   -4.7340   23.5450 C   0  0  0  0  0  3  0  0  0  0  0  0
  -22.5150   -5.4600   22.3890 C   0  0  0  0  0  0  0  0  0  0  0  0
  -23.1370   -4.8330   21.3620 F   0  0  0  0  0  0  0  0  0  0  0  0
  -21.1820   -4.6720   25.7150 F   0  0  0  0  0  0  0  0  0  0  0  0
  -23.7140  -14.0940   20.8150 C   0  0  0  0  0  0  0  0  0  0  0  0
  -22.9090  -13.4830   21.6770 N   0  0  0  0  0  0  0  0  0  0  0  0
  -23.3330  -15.0680   20.1680 O   0  0  0  0  0  0  0  0  0  0  0  0
  -23.2280  -12.6980   22.2250 H   0  0  0  0  0  0  0  0  0  0  0  0
  -21.9590  -13.8070   21.7910 H   0  0  0  0  0  0  0  0  0  0  0  0
  -26.4500  -15.7050   20.2770 N   0  0  0  0  0  0  0  0  0  0  0  0
  -25.6920  -16.3780   20.3060 H   0  0  0  0  0  0  0  0  0  0  0  0
  -27.3490  -16.1290   20.0930 H   0  0  0  0  0  0  0  0  0  0  0  0
  -31.6920  -16.0690   17.8100 C   0  0  0  0  0  3  0  0  0  0  0  0
  -30.7340  -16.1350   18.7570 C   0  0  0  0  0  3  0  0  0  0  0  0
  -31.4100  -15.9650   16.3280 C   0  0  0  0  0  1  0  0  0  0  0  0
  -29.8030  -22.9000   20.6950 C   0  0  0  0  0  3  0  0  0  0  0  0
  -30.4120  -22.0000   21.4140 N   0  0  0  0  0  0  0  0  0  0  0  0
  -29.8130  -24.4550   20.9620 C   0  0  0  0  0  3  0  0  0  0  0  0
  -28.5920  -25.3240   20.4310 C   0  0  0  0  0  3  0  0  0  0  0  0
  -28.7130  -26.8020   20.4520 O   0  0  0  0  0  0  0  0  0  0  0  0
  -24.5380  -31.9610   23.2170 C   0  0  0  0  0  0  0  0  0  0  0  0
  -27.5560  -27.5830   20.2990 C   0  0  0  0  0  0  0  0  0  0  0  0
  -23.5060  -30.5230   21.4940 C   0  0  0  0  0  3  0  0  0  0  0  0
  -25.1170  -29.0650   20.1430 C   0  0  0  0  0  0  0  0  0  0  0  0
  -26.0290  -30.9770   21.4630 C   0  0  0  0  0  2  0  0  0  0  0  0
  -26.2180  -29.6100   20.8160 C   0  0  0  0  0  0  0  0  0  0  0  0
  -27.4390  -28.8800   20.8840 C   0  0  0  0  0  3  0  0  0  0  0  0
  -26.4370  -27.0960   19.5840 C   0  0  0  0  0  3  0  0  0  0  0  0
  -25.2290  -27.8150   19.5160 C   0  0  0  0  0  3  0  0  0  0  0  0
  -23.8350  -29.8730   20.1240 C   0  0  0  0  0  2  0  0  0  0  0  0
  -24.7070  -31.1700   22.1170 N   0  0  0  0  0  0  0  0  0  0  0  0
  -23.4130  -32.1760   23.6900 O   0  0  0  0  0  0  0  0  0  0  0  0
  -22.8410  -29.4630   22.4050 C   0  0  0  0  0  0  0  0  0  0  0  0
  -21.5100  -29.3230   22.2950 N   0  0  0  0  0  0  0  0  0  0  0  0
  -23.5210  -28.7730   23.1680 O   0  0  0  0  0  0  0  0  0  0  0  0
  -21.0200  -29.9340   21.6560 H   0  0  0  0  0  0  0  0  0  0  0  0
  -18.1170  -28.1690   22.7850 C   0  0  0  0  0  0  0  0  0  0  0  0
  -20.6840  -28.3590   23.0240 C   0  0  0  0  0  3  0  0  0  0  0  0
  -20.7450  -26.9620   22.3640 C   0  0  0  0  0  2  0  0  0  0  0  0
  -19.6200  -26.7220   21.3530 C   0  0  0  0  0  2  0  0  0  0  0  0
  -18.2530  -26.8580   22.0290 C   0  0  0  0  0  2  0  0  0  0  0  0
  -19.2590  -28.8810   23.2380 C   0  0  0  0  0  0  0  0  0  0  0  0
  -19.0780  -30.1100   23.9090 C   0  0  0  0  0  3  0  0  0  0  0  0
  -17.7890  -30.6300   24.1250 C   0  0  0  0  0  3  0  0  0  0  0  0
  -16.6600  -29.9140   23.6870 C   0  0  0  0  0  3  0  0  0  0  0  0
  -16.8260  -28.6850   23.0240 C   0  0  0  0  0  3  0  0  0  0  0  0
  -25.7490  -32.6500   23.9190 C   0  0  0  0  0  3  0  0  0  0  0  0
  -26.1790  -31.9340   25.2590 C   0  0  1  0  0  0  0  0  0  0  0  0
  -25.0140  -31.7240   26.2550 C   0  0  0  0  0  1  0  0  0  0  0  0
  -26.8010  -30.5490   24.9620 C   0  0  0  0  0  1  0  0  0  0  0  0
  -27.2710  -32.7650   25.9720 C   0  0  0  0  0  1  0  0  0  0  0  0
  -25.3760  -34.0470   24.1780 N   0  0  0  0  0  0  0  0  0  0  0  0
  -25.7960  -35.0940   23.4540 C   0  0  0  0  0  0  0  0  0  0  0  0
  -26.6030  -34.9850   22.5280 O   0  0  0  0  0  0  0  0  0  0  0  0
  -24.6720  -34.2040   24.8850 H   0  0  0  0  0  0  0  0  0  0  0  0
  -24.0850  -36.8380   22.8540 C   0  0  0  0  0  1  0  0  0  0  0  0
  -25.2300  -36.4810   23.8140 C   0  0  0  0  0  3  0  0  0  0  0  0
  -27.2200  -37.4500   24.8790 C   0  0  0  0  0  1  0  0  0  0  0  0
  -26.2470  -37.5550   23.7960 N   0  0  0  0  0  0  0  0  0  0  0  0
  -25.8080  -38.4690   23.8510 H   0  0  0  0  0  0  0  0  0  0  0  0
  2  6  2  0
  2  5  1  0
  3  1  1  0
  3  7  1  0
  4 50  1  0
  4  1  2  0
  5  3  2  0
  6  4  1  0
  8  6  1  0
  9 16  2  0
 10 15  1  0
 11 12  1  0
 11 10  1  0
 13 12  1  0
 13 21  1  0
 13 14  1  0
 15  9  1  0
 15 14  1  0
 17  5  1  0
 17  9  1  0
 18 19  2  0
 19 20  1  0
 19 38  1  0
 20 23  1  0
 21 18  1  0
 21 22  1  0
 22 20  2  0
 23 24  1  0
 24 25  2  0
 26 29  1  0
 26 25  1  0
 27 26  2  0
 28 27  1  0
 28 23  2  0
 29 30  1  0
 30 35  2  0
 30 31  1  0
 31 32  2  0
 32 33  1  0
 33 37  1  0
 34 33  2  0
 35 34  1  0
 36 35  1  0
 38 39  1  0
 39 42  1  0
 39 41  1  0
 40 38  2  0
 43 44  1  0
 43 18  1  0
 45 43  1  0
 46 47  2  0
 47 17  1  0
 48 46  1  0
 49 51  1  0
 49 50  2  0
 52 53  1  0
 52 51  2  0
 54 65  2  0
 55 53  1  0
 55 60  1  0
 56 64  1  0
 56 66  1  0
 57 59  1  0
 58 64  1  0
 59 60  2  0
 59 58  1  0
 61 55  2  0
 62 61  1  0
 62 57  2  0
 63 57  1  0
 63 56  1  0
 64 54  1  0
 66 68  2  0
 67 66  1  0
 69 67  1  0
 70 79  2  0
 70 75  1  0
 71 67  1  0
 71 75  1  0
 72 71  1  0
 73 74  1  0
 73 72  1  0
 74 70  1  0
 75 76  2  0
 76 77  1  0
 78 77  2  0
 79 78  1  0
 80 54  1  0
 80 85  1  0
 80 81  1  0
 81 84  1  1
 81 82  1  0
 83 81  1  0
 85 88  1  0
 86 90  1  0
 86 85  1  0
 87 86  2  0
 90 89  1  0
 92 90  1  0
 92 93  1  0
 92 91  1  0
M  ISO  4   9 100  17 100  52 101  53 101
M  END
>  <TORSDO>  (38) 
F 20

>  <SCORE>  (38) 
-11.248

>  <name>  (38) 
37

>  <ligand_id>  (38) 
37

>  <original_smiles>  (38) 
[H]C(=Nc1c([H])c(C([H])([H])[H])c(N(C(=O)N2C([H])([H])C([H])([H])C([H])([H])C([H])(n3nc(-c4c([H])c([H])c(Oc5c([H])c([H])c(F)c([H])c5F)c([H])c4[H])c(C(=O)N([H])[H])c3N([H])[H])C2([H])[H])C([H])=C([H])C([H])([H])[H])c([H])c1F)C([H])([H])C([H])([H])Oc1c([H])c([H])c2c(c1[H])C([H])([H])N(C(=O)C([H])(N([H])C(=O)C([H])(N([H])C([H])([H])[H])C([H])([H])[H])C(C([H])([H])[H])(C([H])([H])[H])C([H])([H])[H])C([H])(C(=O)N([H])C1([H])c3c([H])c([H])c([H])c([H])c3C([H])([H])C([H])([H])C1([H])[H])C2([H])[H]

>  <smiles>  (38) 
[H]C(=Nc1c([H])c(C([H])([H])[H])c(N(C(=O)N2C([H])([H])C([H])([H])C([H])([H])C([H])(n3nc(-c4c([H])c([H])c(Oc5c([H])c([H])c(F)c([H])c5F)c([H])c4[H])c(C(=O)N([H])[H])c3N([H])[H])C2([H])[H])C([H])=C([H])C([H])([H])[H])c([H])c1F)C([H])([H])C([H])([H])Oc1c([H])c([H])c2c(c1[H])C([H])([H])N(C(=O)C([H])(N([H])C(=O)C([H])(N([H])C([H])([H])[H])C([H])([H])[H])C(C([H])([H])[H])(C([H])([H])[H])C([H])([H])[H])C([H])(C(=O)N([H])C1([H])c3c([H])c([H])c([H])c([H])c3C([H])([H])C([H])([H])C1([H])[H])C2([H])[H]

$$$$
38:0:0
     RDKit          3D

 93101  0  0  1  0  0  0  0  0999 V2000
  -27.5350  -19.4220   18.0120 C   0  0  0  0  0  3  0  0  0  0  0  0
  -28.7740  -17.6910   19.0860 C   0  0  0  0  0  3  0  0  0  0  0  0
  -28.7640  -20.0670   20.1370 C   0  0  0  0  0  0  0  0  0  0  0  0
  -27.8650  -20.3380   19.0210 C   0  0  0  0  0  0  0  0  0  0  0  0
  -29.2040  -18.4780   20.1900 C   0  0  0  0  0  0  0  0  0  0  0  0
  -27.9950  -18.1230   18.0260 C   0  0  0  0  0  0  0  0  0  0  0  0
  -27.5380  -17.0270   16.7710 Cl  0  0  0  0  0  0  0  0  0  0  0  0
  -30.5970  -15.9130   20.8850 C   0  0  0  0  0  0  0  0  0  0  0  0
  -30.7110  -13.4390   20.0080 C   0  0  0  0  0  2  0  0  0  0  0  0
  -29.9220  -13.0900   18.7200 C   0  0  0  0  0  2  0  0  0  0  0  0
  -28.4660  -12.7350   19.0620 C   0  0  0  0  0  2  0  0  0  0  0  0
  -27.8680  -13.7110   20.1060 C   0  0  0  0  0  3  0  0  0  0  0  0
  -28.8060  -14.0090   21.2950 C   0  0  0  0  0  2  0  0  0  0  0  0
  -30.0300  -14.5990   20.7240 N   0  0  0  0  0  0  0  0  0  0  0  0
  -31.8330  -15.8350   20.7940 O   0  0  0  0  0  0  0  0  0  0  0  0
  -29.9690  -17.3000   21.0510 N   0  0  0  0  0  0  0  0  0  0  0  0
  -30.5270  -17.7540   21.7610 H   0  0  0  0  0  0  0  0  0  0  0  0
  -25.4360  -14.1670   20.6790 C   0  0  0  0  0  0  0  0  0  0  0  0
  -24.3770  -13.3500   20.9620 C   0  0  0  0  0  0  0  0  0  0  0  0
  -24.8980  -12.0200   20.9790 C   0  0  0  0  0  0  0  0  0  0  0  0
  -26.5260  -13.3320   20.5230 N   0  0  0  0  0  0  0  0  0  0  0  0
  -26.2120  -12.0350   20.7750 N   0  0  0  0  0  0  0  0  0  0  0  0
  -24.2060  -10.7340   21.1210 C   0  0  0  0  0  0  0  0  0  0  0  0
  -24.5720   -9.8000   22.1170 C   0  0  0  0  0  3  0  0  0  0  0  0
  -23.8710   -8.5800   22.2470 C   0  0  0  0  0  3  0  0  0  0  0  0
  -22.7940   -8.2840   21.3780 C   0  0  0  0  0  0  0  0  0  0  0  0
  -22.4540   -9.2020   20.3680 C   0  0  0  0  0  3  0  0  0  0  0  0
  -23.1510  -10.4170   20.2400 C   0  0  0  0  0  3  0  0  0  0  0  0
  -22.0750   -7.1130   21.4140 O   0  0  0  0  0  0  0  0  0  0  0  0
  -21.8830   -6.4200   22.5820 C   0  0  0  0  0  0  0  0  0  0  0  0
  -21.2490   -7.0040   23.7020 C   0  0  0  0  0  3  0  0  0  0  0  0
  -21.0110   -6.2330   24.8570 C   0  0  0  0  0  3  0  0  0  0  0  0
  -21.4010   -4.8810   24.8950 C   0  0  0  0  0  0  0  0  0  0  0  0
  -22.0260   -4.2960   23.7790 C   0  0  0  0  0  3  0  0  0  0  0  0
  -22.2640   -5.0650   22.6250 C   0  0  0  0  0  0  0  0  0  0  0  0
  -22.8470   -4.4900   21.5450 F   0  0  0  0  0  0  0  0  0  0  0  0
  -21.1700   -4.1360   26.0010 F   0  0  0  0  0  0  0  0  0  0  0  0
  -22.9450  -13.7760   21.1130 C   0  0  0  0  0  0  0  0  0  0  0  0
  -22.1740  -13.0600   21.9230 N   0  0  0  0  0  0  0  0  0  0  0  0
  -22.5200  -14.7800   20.5440 O   0  0  0  0  0  0  0  0  0  0  0  0
  -22.5270  -12.2440   22.4040 H   0  0  0  0  0  0  0  0  0  0  0  0
  -21.2100  -13.3310   22.0610 H   0  0  0  0  0  0  0  0  0  0  0  0
  -25.5620  -15.5420   20.5130 N   0  0  0  0  0  0  0  0  0  0  0  0
  -24.7690  -16.1710   20.5780 H   0  0  0  0  0  0  0  0  0  0  0  0
  -26.4290  -16.0170   20.2990 H   0  0  0  0  0  0  0  0  0  0  0  0
  -27.1290  -21.5160   18.8120 N   0  0  0  0  0  0  0  0  0  0  0  0
  -26.8890  -22.1110   19.5990 H   0  0  0  0  0  0  0  0  0  0  0  0
  -26.3740  -21.4870   18.1320 H   0  0  0  0  0  0  0  0  0  0  0  0
  -28.8900  -21.6290   20.9570 C   0  0  0  0  0  0  0  0  0  0  0  0
  -29.1970  -21.5260   22.1470 O   0  0  0  0  0  0  0  0  0  0  0  0
  -28.7000  -23.2990   20.4230 C   0  0  0  0  0  3  0  0  0  0  0  0
  -28.1850  -24.6210   20.9200 C   0  0  0  0  0  3  0  0  0  0  0  0
  -28.2450  -26.1310   20.4930 O   0  0  0  0  0  0  0  0  0  0  0  0
  -24.7990  -32.2400   23.6290 C   0  0  0  0  0  0  0  0  0  0  0  0
  -27.2550  -27.2770   20.5730 C   0  0  0  0  0  0  0  0  0  0  0  0
  -23.5920  -30.9040   21.9540 C   0  0  0  0  0  3  0  0  0  0  0  0
  -25.0170  -29.2750   20.5220 C   0  0  0  0  0  0  0  0  0  0  0  0
  -26.1690  -31.0310   21.8460 C   0  0  0  0  0  2  0  0  0  0  0  0
  -26.2100  -29.6200   21.1720 C   0  0  0  0  0  0  0  0  0  0  0  0
  -27.3230  -28.6490   21.1640 C   0  0  0  0  0  3  0  0  0  0  0  0
  -26.0340  -27.1080   19.8800 C   0  0  0  0  0  3  0  0  0  0  0  0
  -24.9610  -28.0410   19.8550 C   0  0  0  0  0  3  0  0  0  0  0  0
  -23.8250  -30.2360   20.5690 C   0  0  0  0  0  2  0  0  0  0  0  0
  -24.8770  -31.4200   22.5290 N   0  0  0  0  0  0  0  0  0  0  0  0
  -23.7090  -32.5490   24.1420 O   0  0  0  0  0  0  0  0  0  0  0  0
  -22.8590  -29.9120   22.8940 C   0  0  0  0  0  0  0  0  0  0  0  0
  -21.5470  -29.7010   22.6820 N   0  0  0  0  0  0  0  0  0  0  0  0
  -23.4830  -29.3300   23.7850 O   0  0  0  0  0  0  0  0  0  0  0  0
  -21.0960  -30.2210   21.9420 H   0  0  0  0  0  0  0  0  0  0  0  0
  -18.2010  -28.3130   22.9240 C   0  0  0  0  0  0  0  0  0  0  0  0
  -20.7040  -28.7520   23.4170 C   0  0  0  0  0  3  0  0  0  0  0  0
  -20.9410  -27.3030   22.9300 C   0  0  0  0  0  2  0  0  0  0  0  0
  -19.9660  -26.8660   21.8330 C   0  0  0  0  0  2  0  0  0  0  0  0
  -18.5210  -26.9510   22.3340 C   0  0  0  0  0  2  0  0  0  0  0  0
  -19.2250  -29.1650   23.4180 C   0  0  0  0  0  0  0  0  0  0  0  0
  -18.8730  -30.4330   23.9290 C   0  0  0  0  0  3  0  0  0  0  0  0
  -17.5290  -30.8530   23.9540 C   0  0  0  0  0  3  0  0  0  0  0  0
  -16.5180  -30.0010   23.4750 C   0  0  0  0  0  3  0  0  0  0  0  0
  -16.8540  -28.7330   22.9670 C   0  0  0  0  0  3  0  0  0  0  0  0
  -26.0740  -32.8470   24.2890 C   0  0  0  0  0  3  0  0  0  0  0  0
  -26.5360  -32.0580   25.5780 C   0  0  1  0  0  0  0  0  0  0  0  0
  -25.4060  -31.8340   26.6100 C   0  0  0  0  0  1  0  0  0  0  0  0
  -27.1090  -30.6730   25.2030 C   0  0  0  0  0  1  0  0  0  0  0  0
  -27.6750  -32.8310   26.2860 C   0  0  0  0  0  1  0  0  0  0  0  0
  -25.7840  -34.2500   24.6370 N   0  0  0  0  0  0  0  0  0  0  0  0
  -26.1840  -35.3170   23.9320 C   0  0  0  0  0  0  0  0  0  0  0  0
  -26.8960  -35.2210   22.9300 O   0  0  0  0  0  0  0  0  0  0  0  0
  -25.1570  -34.3990   25.4140 H   0  0  0  0  0  0  0  0  0  0  0  0
  -24.5450  -37.1960   23.5550 C   0  0  0  0  0  1  0  0  0  0  0  0
  -25.7240  -36.7090   24.4140 C   0  0  0  0  0  3  0  0  0  0  0  0
  -27.8390  -37.4910   25.3910 C   0  0  0  0  0  1  0  0  0  0  0  0
  -26.7980  -37.7260   24.3930 N   0  0  0  0  0  0  0  0  0  0  0  0
  -26.4170  -38.6560   24.5470 H   0  0  0  0  0  0  0  0  0  0  0  0
  1  6  2  0
  1  4  1  0
  2  5  2  0
  3  5  1  0
  3 49  1  0
  4  3  2  0
  5 16  1  0
  6  2  1  0
  7  6  1  0
  8 16  1  0
  9 14  1  0
 10 11  1  0
 10  9  1  0
 12 11  1  0
 12 21  1  0
 12 13  1  0
 14  8  1  0
 14 13  1  0
 15  8  2  0
 16 17  1  0
 18 19  2  0
 19 20  1  0
 19 38  1  0
 20 23  1  0
 21 18  1  0
 21 22  1  0
 22 20  2  0
 23 24  1  0
 24 25  2  0
 26 29  1  0
 26 25  1  0
 27 26  2  0
 28 27  1  0
 28 23  2  0
 29 30  1  0
 30 35  2  0
 30 31  1  0
 31 32  2  0
 32 33  1  0
 33 37  1  0
 34 33  2  0
 35 34  1  0
 36 35  1  0
 38 39  1  0
 39 42  1  0
 39 41  1  0
 40 38  2  0
 43 44  1  0
 43 18  1  0
 45 43  1  0
 46  4  1  0
 46 47  1  0
 48 46  1  0
 49 50  2  0
 51 52  2  0
 51 49  1  0
 53 55  1  0
 53 52  1  0
 54 65  2  0
 55 60  1  0
 56 64  1  0
 56 66  1  0
 57 63  1  0
 57 59  1  0
 58 64  1  0
 59 58  1  0
 60 59  2  0
 61 55  2  0
 62 61  1  0
 62 57  2  0
 63 56  1  0
 64 54  1  0
 66 68  2  0
 67 66  1  0
 69 67  1  0
 70 79  2  0
 70 75  1  0
 71 67  1  0
 71 75  1  0
 72 71  1  0
 73 74  1  0
 73 72  1  0
 74 70  1  0
 75 76  2  0
 76 77  1  0
 78 77  2  0
 79 78  1  0
 80 54  1  0
 80 85  1  0
 80 81  1  0
 81 84  1  1
 81 82  1  0
 83 81  1  0
 85 88  1  0
 86 90  1  0
 86 85  1  0
 87 86  2  0
 90 89  1  0
 92 90  1  0
 92 93  1  0
 92 91  1  0
M  ISO  4   8 100  16 100  52 101  53 101
M  END
>  <TORSDO>  (39) 
F 19

>  <SCORE>  (39) 
-11.238

>  <name>  (39) 
38

>  <ligand_id>  (39) 
38

>  <original_smiles>  (39) 
[H]C(Oc1c([H])c([H])c2c(c1[H])C([H])([H])N(C(=O)C([H])(N([H])C(=O)C([H])(N([H])C([H])([H])[H])C([H])([H])[H])C(C([H])([H])[H])(C([H])([H])[H])C([H])([H])[H])C([H])(C(=O)N([H])C1([H])c3c([H])c([H])c([H])c([H])c3C([H])([H])C([H])([H])C1([H])[H])C2([H])[H])=C([H])C(=O)c1c(N([H])[H])c([H])c(Cl)c([H])c1N([H])C(=O)N1C([H])([H])C([H])([H])C([H])([H])C([H])(n2nc(-c3c([H])c([H])c(Oc4c([H])c([H])c(F)c([H])c4F)c([H])c3[H])c(C(=O)N([H])[H])c2N([H])[H])C1([H])[H]

>  <smiles>  (39) 
[H]C(Oc1c([H])c([H])c2c(c1[H])C([H])([H])N(C(=O)C([H])(N([H])C(=O)C([H])(N([H])C([H])([H])[H])C([H])([H])[H])C(C([H])([H])[H])(C([H])([H])[H])C([H])([H])[H])C([H])(C(=O)N([H])C1([H])c3c([H])c([H])c([H])c([H])c3C([H])([H])C([H])([H])C1([H])[H])C2([H])[H])=C([H])C(=O)c1c(N([H])[H])c([H])c(Cl)c([H])c1N([H])C(=O)N1C([H])([H])C([H])([H])C([H])([H])C([H])(n2nc(-c3c([H])c([H])c(Oc4c([H])c([H])c(F)c([H])c4F)c([H])c3[H])c(C(=O)N([H])[H])c2N([H])[H])C1([H])[H]

$$$$
39:0:0
     RDKit          3D

 96104  0  0  1  0  0  0  0  0999 V2000
  -30.9670  -20.1080   19.7250 C   0  0  0  0  0  0  0  0  0  0  0  0
  -30.7050  -22.5180   19.4800 C   0  0  0  0  0  0  0  0  0  0  0  0
  -30.7750  -21.3640   20.1700 N   0  0  0  0  0  0  0  0  0  0  0  0
  -31.0490  -19.7770   18.5360 O   0  0  0  0  0  0  0  0  0  0  0  0
  -30.7610  -22.6100   18.2480 O   0  0  0  0  0  0  0  0  0  0  0  0
  -30.7030  -21.4430   21.1690 H   0  0  0  0  0  0  0  0  0  0  0  0
  -31.3970  -19.3740   22.1320 C   0  0  0  0  0  3  0  0  0  0  0  0
  -31.4320  -18.3800   23.1270 C   0  0  0  0  0  3  0  0  0  0  0  0
  -30.7570  -17.6970   20.4870 C   0  0  0  0  0  3  0  0  0  0  0  0
  -31.0330  -19.0500   20.8020 C   0  0  0  0  0  0  0  0  0  0  0  0
  -31.1230  -17.0420   22.8150 C   0  0  0  0  0  0  0  0  0  0  0  0
  -30.8080  -16.6910   21.4820 C   0  0  0  0  0  0  0  0  0  0  0  0
  -31.1460  -15.9920   23.9130 C   0  0  0  0  0  1  0  0  0  0  0  0
  -30.9430  -14.5530   20.2260 C   0  0  0  0  0  0  0  0  0  0  0  0
  -30.5670  -12.4690   18.9550 C   0  0  0  0  0  2  0  0  0  0  0  0
  -29.6060  -12.7240   17.7760 C   0  0  0  0  0  2  0  0  0  0  0  0
  -28.1370  -12.6050   18.2260 C   0  0  0  0  0  2  0  0  0  0  0  0
  -27.8400  -13.4200   19.5110 C   0  0  0  0  0  3  0  0  0  0  0  0
  -28.8980  -13.1230   20.5960 C   0  0  0  0  0  2  0  0  0  0  0  0
  -30.2340  -13.4080   20.0340 N   0  0  0  0  0  0  0  0  0  0  0  0
  -31.9660  -14.8330   19.5910 O   0  0  0  0  0  0  0  0  0  0  0  0
  -30.4580  -15.3470   21.1930 N   0  0  0  0  0  0  0  0  0  0  0  0
  -29.7460  -14.9320   21.7740 H   0  0  0  0  0  0  0  0  0  0  0  0
  -25.4480  -14.0700   20.2190 C   0  0  0  0  0  0  0  0  0  0  0  0
  -24.3740  -13.3170   20.6100 C   0  0  0  0  0  0  0  0  0  0  0  0
  -24.8220  -11.9600   20.6030 C   0  0  0  0  0  0  0  0  0  0  0  0
  -26.4840  -13.1740   19.9990 N   0  0  0  0  0  0  0  0  0  0  0  0
  -26.1080  -11.9010   20.2850 N   0  0  0  0  0  0  0  0  0  0  0  0
  -24.0850  -10.7090   20.8250 C   0  0  0  0  0  0  0  0  0  0  0  0
  -24.4960   -9.7740   21.8010 C   0  0  0  0  0  3  0  0  0  0  0  0
  -23.7620   -8.5860   22.0070 C   0  0  0  0  0  3  0  0  0  0  0  0
  -22.6030   -8.3260   21.2380 C   0  0  0  0  0  0  0  0  0  0  0  0
  -22.2110   -9.2490   20.2520 C   0  0  0  0  0  3  0  0  0  0  0  0
  -22.9460  -10.4280   20.0440 C   0  0  0  0  0  3  0  0  0  0  0  0
  -21.8410   -7.1880   21.3520 O   0  0  0  0  0  0  0  0  0  0  0  0
  -21.7340   -6.5100   22.5390 C   0  0  0  0  0  0  0  0  0  0  0  0
  -21.2430   -7.1280   23.7100 C   0  0  0  0  0  3  0  0  0  0  0  0
  -21.0830   -6.3740   24.8900 C   0  0  0  0  0  3  0  0  0  0  0  0
  -21.4060   -5.0050   24.9010 C   0  0  0  0  0  0  0  0  0  0  0  0
  -21.8890   -4.3860   23.7360 C   0  0  0  0  0  3  0  0  0  0  0  0
  -22.0520   -5.1360   22.5580 C   0  0  0  0  0  0  0  0  0  0  0  0
  -22.4990   -4.5300   21.4320 F   0  0  0  0  0  0  0  0  0  0  0  0
  -21.2450   -4.2790   26.0330 F   0  0  0  0  0  0  0  0  0  0  0  0
  -22.9840  -13.8120   20.8860 C   0  0  0  0  0  0  0  0  0  0  0  0
  -22.2600  -13.1480   21.7800 N   0  0  0  0  0  0  0  0  0  0  0  0
  -22.5470  -14.8260   20.3420 O   0  0  0  0  0  0  0  0  0  0  0  0
  -22.6250  -12.3310   22.2470 H   0  0  0  0  0  0  0  0  0  0  0  0
  -21.3270  -13.4670   22.0060 H   0  0  0  0  0  0  0  0  0  0  0  0
  -25.6240  -15.4350   20.0130 N   0  0  0  0  0  0  0  0  0  0  0  0
  -24.8660  -16.1020   20.1200 H   0  0  0  0  0  0  0  0  0  0  0  0
  -26.4830  -15.8620   19.6890 H   0  0  0  0  0  0  0  0  0  0  0  0
  -30.5750  -23.6560   20.3830 C   0  0  0  0  0  3  0  0  0  0  0  0
  -30.6580  -24.9300   19.9420 C   0  0  0  0  0  3  0  0  0  0  0  0
  -30.5750  -26.1460   20.8540 C   0  0  0  0  0  2  0  0  0  0  0  0
  -29.7060  -27.3040   20.3300 C   0  0  0  0  0  2  0  0  0  0  0  0
  -28.4160  -26.8120   19.9710 O   0  0  0  0  0  0  0  0  0  0  0  0
  -24.5580  -31.9080   23.2300 C   0  0  0  0  0  0  0  0  0  0  0  0
  -27.2900  -27.6090   20.0460 C   0  0  0  0  0  0  0  0  0  0  0  0
  -23.3660  -30.5200   21.5630 C   0  0  0  0  0  3  0  0  0  0  0  0
  -24.8450  -29.0390   20.1040 C   0  0  0  0  0  0  0  0  0  0  0  0
  -25.8800  -30.9380   21.3580 C   0  0  0  0  0  2  0  0  0  0  0  0
  -25.9920  -29.5850   20.6920 C   0  0  0  0  0  0  0  0  0  0  0  0
  -27.2150  -28.8830   20.6620 C   0  0  0  0  0  3  0  0  0  0  0  0
  -26.1200  -27.0710   19.4710 C   0  0  0  0  0  3  0  0  0  0  0  0
  -24.9020  -27.7770   19.4890 C   0  0  0  0  0  3  0  0  0  0  0  0
  -23.5810  -29.8680   20.1700 C   0  0  0  0  0  2  0  0  0  0  0  0
  -24.6190  -31.1360   22.1090 N   0  0  0  0  0  0  0  0  0  0  0  0
  -23.4750  -32.1500   23.7820 O   0  0  0  0  0  0  0  0  0  0  0  0
  -22.7380  -29.4700   22.5050 C   0  0  0  0  0  0  0  0  0  0  0  0
  -21.4270  -29.2290   22.3440 N   0  0  0  0  0  0  0  0  0  0  0  0
  -23.4290  -28.8730   23.3360 O   0  0  0  0  0  0  0  0  0  0  0  0
  -20.9320  -29.7650   21.6450 H   0  0  0  0  0  0  0  0  0  0  0  0
  -18.1100  -27.8500   22.7100 C   0  0  0  0  0  0  0  0  0  0  0  0
  -20.6340  -28.2550   23.0910 C   0  0  0  0  0  3  0  0  0  0  0  0
  -20.8420  -26.8250   22.5390 C   0  0  0  0  0  2  0  0  0  0  0  0
  -19.8060  -26.4300   21.4820 C   0  0  0  0  0  2  0  0  0  0  0  0
  -18.3910  -26.5050   22.0620 C   0  0  0  0  0  2  0  0  0  0  0  0
  -19.1630  -28.6790   23.1780 C   0  0  0  0  0  0  0  0  0  0  0  0
  -18.8480  -29.9360   23.7400 C   0  0  0  0  0  3  0  0  0  0  0  0
  -17.5120  -30.3650   23.8400 C   0  0  0  0  0  3  0  0  0  0  0  0
  -16.4720  -29.5330   23.3890 C   0  0  0  0  0  3  0  0  0  0  0  0
  -16.7720  -28.2790   22.8280 C   0  0  0  0  0  3  0  0  0  0  0  0
  -25.8380  -32.5450   23.8560 C   0  0  0  0  0  3  0  0  0  0  0  0
  -26.3730  -31.7620   25.1180 C   0  0  1  0  0  0  0  0  0  0  0  0
  -25.2840  -31.4790   26.1790 C   0  0  0  0  0  1  0  0  0  0  0  0
  -26.9910  -30.4060   24.6990 C   0  0  0  0  0  1  0  0  0  0  0  0
  -27.5030  -32.5710   25.7960 C   0  0  0  0  0  1  0  0  0  0  0  0
  -25.5150  -33.9340   24.2040 N   0  0  0  0  0  0  0  0  0  0  0  0
  -25.8350  -35.0000   23.4570 C   0  0  0  0  0  0  0  0  0  0  0  0
  -26.5040  -34.9160   22.4230 O   0  0  0  0  0  0  0  0  0  0  0  0
  -24.9150  -34.0720   25.0040 H   0  0  0  0  0  0  0  0  0  0  0  0
  -24.0780  -36.7700   23.1360 C   0  0  0  0  0  1  0  0  0  0  0  0
  -25.3320  -36.3750   23.9320 C   0  0  0  0  0  3  0  0  0  0  0  0
  -27.4610  -37.2850   24.7520 C   0  0  0  0  0  1  0  0  0  0  0  0
  -26.3490  -37.4440   23.8180 N   0  0  0  0  0  0  0  0  0  0  0  0
  -25.9310  -38.3580   23.9740 H   0  0  0  0  0  0  0  0  0  0  0  0
  1  3  1  0
  1 10  1  0
  2  3  1  0
  2 52  1  0
  3  6  1  0
  4  1  2  0
  5  2  2  0
  7  8  1  0
  9 10  1  0
  9 12  2  0
 10  7  2  0
 11  8  2  0
 11 13  1  0
 12 11  1  0
 14 22  1  0
 15 20  1  0
 16 17  1  0
 16 15  1  0
 18 17  1  0
 18 27  1  0
 18 19  1  0
 20 14  1  0
 20 19  1  0
 21 14  2  0
 22 12  1  0
 22 23  1  0
 24 25  2  0
 25 44  1  0
 26 25  1  0
 26 29  1  0
 27 24  1  0
 27 28  1  0
 28 26  2  0
 29 30  1  0
 30 31  2  0
 32 35  1  0
 32 31  1  0
 33 32  2  0
 34 33  1  0
 34 29  2  0
 35 36  1  0
 36 41  2  0
 36 37  1  0
 37 38  2  0
 38 39  1  0
 39 43  1  0
 40 39  2  0
 41 40  1  0
 42 41  1  0
 44 45  1  0
 45 48  1  0
 45 47  1  0
 46 44  2  0
 49 50  1  0
 49 24  1  0
 51 49  1  0
 53 52  2  0
 53 54  1  0
 55 54  1  0
 56 58  1  0
 56 55  1  0
 57 68  2  0
 58 63  1  0
 59 67  1  0
 59 69  1  0
 60 66  1  0
 60 62  1  0
 61 67  1  0
 62 61  1  0
 63 62  2  0
 64 65  1  0
 64 58  2  0
 65 60  2  0
 66 59  1  0
 67 57  1  0
 69 71  2  0
 70 69  1  0
 72 70  1  0
 73 82  2  0
 73 78  1  0
 74 70  1  0
 74 78  1  0
 75 74  1  0
 76 77  1  0
 76 75  1  0
 77 73  1  0
 78 79  2  0
 79 80  1  0
 81 80  2  0
 82 81  1  0
 83 57  1  0
 83 88  1  0
 83 84  1  0
 84 87  1  1
 84 85  1  0
 86 84  1  0
 88 91  1  0
 89 93  1  0
 89 88  1  0
 90 89  2  0
 93 92  1  0
 95 93  1  0
 95 96  1  0
 95 94  1  0
M  ISO  4  14 100  22 100  55 101  56 101
M  END
>  <TORSDO>  (40) 
F 20

>  <SCORE>  (40) 
-9.965

>  <name>  (40) 
39

>  <ligand_id>  (40) 
39

>  <original_smiles>  (40) 
[H]C(C(=O)N([H])C(=O)c1c([H])c([H])c(C([H])([H])[H])c(N([H])C(=O)N2C([H])([H])C([H])([H])C([H])([H])C([H])(n3nc(-c4c([H])c([H])c(Oc5c([H])c([H])c(F)c([H])c5F)c([H])c4[H])c(C(=O)N([H])[H])c3N([H])[H])C2([H])[H])c1[H])=C([H])C([H])([H])C([H])([H])Oc1c([H])c([H])c2c(c1[H])C([H])([H])N(C(=O)C([H])(N([H])C(=O)C([H])(N([H])C([H])([H])[H])C([H])([H])[H])C(C([H])([H])[H])(C([H])([H])[H])C([H])([H])[H])C([H])(C(=O)N([H])C1([H])c3c([H])c([H])c([H])c([H])c3C([H])([H])C([H])([H])C1([H])[H])C2([H])[H]

>  <smiles>  (40) 
[H]C(C(=O)N([H])C(=O)c1c([H])c([H])c(C([H])([H])[H])c(N([H])C(=O)N2C([H])([H])C([H])([H])C([H])([H])C([H])(n3nc(-c4c([H])c([H])c(Oc5c([H])c([H])c(F)c([H])c5F)c([H])c4[H])c(C(=O)N([H])[H])c3N([H])[H])C2([H])[H])c1[H])=C([H])C([H])([H])C([H])([H])Oc1c([H])c([H])c2c(c1[H])C([H])([H])N(C(=O)C([H])(N([H])C(=O)C([H])(N([H])C([H])([H])[H])C([H])([H])[H])C(C([H])([H])[H])(C([H])([H])[H])C([H])([H])[H])C([H])(C(=O)N([H])C1([H])c3c([H])c([H])c([H])c([H])c3C([H])([H])C([H])([H])C1([H])[H])C2([H])[H]

$$$$
40:0:0
     RDKit          3D

 92100  0  0  1  0  0  0  0  0999 V2000
  -30.6980  -14.5220   20.5240 C   0  0  0  0  0  0  0  0  0  0  0  0
  -30.4320  -12.3690   19.3380 C   0  0  0  0  0  2  0  0  0  0  0  0
  -29.5050  -12.5850   18.1240 C   0  0  0  0  0  2  0  0  0  0  0  0
  -28.0190  -12.4540   18.5220 C   0  0  0  0  0  2  0  0  0  0  0  0
  -27.6660  -13.2700   19.7940 C   0  0  0  0  0  3  0  0  0  0  0  0
  -28.7040  -13.0210   20.9120 C   0  0  0  0  0  2  0  0  0  0  0  0
  -30.0430  -13.3370   20.3760 N   0  0  0  0  0  0  0  0  0  0  0  0
  -31.7990  -14.7530   20.0140 O   0  0  0  0  0  0  0  0  0  0  0  0
  -30.7510  -18.8440   22.2410 C   0  0  0  0  0  3  0  0  0  0  0  0
  -29.4890  -17.6360   20.1880 C   0  0  0  0  0  3  0  0  0  0  0  0
  -29.9980  -19.6100   21.3120 C   0  0  0  0  0  0  0  0  0  0  0  0
  -30.1790  -16.8630   21.1670 C   0  0  0  0  0  0  0  0  0  0  0  0
  -31.4710  -19.5000   23.4070 C   0  0  0  0  0  1  0  0  0  0  0  0
  -28.7470  -17.0050   19.0220 C   0  0  0  0  0  1  0  0  0  0  0  0
  -29.3980  -18.9900   20.2620 N   0  0  0  0  0  0  0  0  0  0  0  0
  -30.8330  -17.4910   22.1750 N   0  0  0  0  0  0  0  0  0  0  0  0
  -30.0060  -15.4550   21.1960 N   0  0  0  0  0  0  0  0  0  0  0  0
  -29.1380  -15.1310   21.5930 H   0  0  0  0  0  0  0  0  0  0  0  0
  -25.2500  -13.8880   20.4390 C   0  0  0  0  0  0  0  0  0  0  0  0
  -24.1740  -13.1210   20.7950 C   0  0  0  0  0  0  0  0  0  0  0  0
  -24.6370  -11.7700   20.7960 C   0  0  0  0  0  0  0  0  0  0  0  0
  -26.3010  -13.0040   20.2450 N   0  0  0  0  0  0  0  0  0  0  0  0
  -25.9340  -11.7260   20.5150 N   0  0  0  0  0  0  0  0  0  0  0  0
  -23.9090  -10.5110   20.9940 C   0  0  0  0  0  0  0  0  0  0  0  0
  -24.3310   -9.5550   21.9450 C   0  0  0  0  0  3  0  0  0  0  0  0
  -23.6030   -8.3600   22.1280 C   0  0  0  0  0  3  0  0  0  0  0  0
  -22.4410   -8.1120   21.3610 C   0  0  0  0  0  0  0  0  0  0  0  0
  -22.0380   -9.0560   20.4000 C   0  0  0  0  0  3  0  0  0  0  0  0
  -22.7660  -10.2440   20.2150 C   0  0  0  0  0  3  0  0  0  0  0  0
  -21.6880   -6.9660   21.4520 O   0  0  0  0  0  0  0  0  0  0  0  0
  -21.6230   -6.2370   22.6110 C   0  0  0  0  0  0  0  0  0  0  0  0
  -21.1760   -6.8050   23.8250 C   0  0  0  0  0  3  0  0  0  0  0  0
  -21.0600   -6.0020   24.9770 C   0  0  0  0  0  3  0  0  0  0  0  0
  -21.3820   -4.6320   24.9170 C   0  0  0  0  0  0  0  0  0  0  0  0
  -21.8210   -4.0640   23.7080 C   0  0  0  0  0  3  0  0  0  0  0  0
  -21.9390   -4.8650   22.5590 C   0  0  0  0  0  0  0  0  0  0  0  0
  -22.3450   -4.3070   21.3920 F   0  0  0  0  0  0  0  0  0  0  0  0
  -21.2630   -3.8590   26.0220 F   0  0  0  0  0  0  0  0  0  0  0  0
  -22.7720  -13.6030   21.0340 C   0  0  0  0  0  0  0  0  0  0  0  0
  -22.0290  -12.9220   21.9000 N   0  0  0  0  0  0  0  0  0  0  0  0
  -22.3430  -14.6220   20.4920 O   0  0  0  0  0  0  0  0  0  0  0  0
  -22.3870  -12.0970   22.3560 H   0  0  0  0  0  0  0  0  0  0  0  0
  -21.0910  -13.2330   22.1120 H   0  0  0  0  0  0  0  0  0  0  0  0
  -25.4170  -15.2550   20.2510 N   0  0  0  0  0  0  0  0  0  0  0  0
  -24.6500  -15.9120   20.3490 H   0  0  0  0  0  0  0  0  0  0  0  0
  -26.2820  -15.6960   19.9680 H   0  0  0  0  0  0  0  0  0  0  0  0
  -29.0810  -21.7600   20.8680 C   0  0  0  0  0  3  0  0  0  0  0  0
  -29.8050  -20.9810   21.5750 N   0  0  0  0  0  0  0  0  0  0  0  0
  -28.7020  -23.1530   21.3640 C   0  0  0  0  0  2  0  0  0  0  0  0
  -28.7610  -24.2990   20.3250 C   0  0  0  0  0  2  0  0  0  0  0  0
  -28.3070  -25.6420   20.9460 C   0  0  0  0  0  2  0  0  0  0  0  0
  -28.3200  -26.7370   20.0190 O   0  0  0  0  0  0  0  0  0  0  0  0
  -24.5320  -31.8740   23.1800 C   0  0  0  0  0  0  0  0  0  0  0  0
  -27.1660  -27.4880   20.0310 C   0  0  0  0  0  0  0  0  0  0  0  0
  -23.3150  -30.4880   21.5300 C   0  0  0  0  0  3  0  0  0  0  0  0
  -24.7640  -28.9710   20.0760 C   0  0  0  0  0  0  0  0  0  0  0  0
  -25.8360  -30.8620   21.3130 C   0  0  0  0  0  2  0  0  0  0  0  0
  -25.9240  -29.4990   20.6580 C   0  0  0  0  0  0  0  0  0  0  0  0
  -27.1330  -28.7650   20.6310 C   0  0  0  0  0  3  0  0  0  0  0  0
  -25.9940  -26.9680   19.4450 C   0  0  0  0  0  3  0  0  0  0  0  0
  -24.7930  -27.7030   19.4660 C   0  0  0  0  0  3  0  0  0  0  0  0
  -23.5160  -29.8230   20.1420 C   0  0  0  0  0  2  0  0  0  0  0  0
  -24.5790  -31.0880   22.0680 N   0  0  0  0  0  0  0  0  0  0  0  0
  -23.4540  -32.1390   23.7320 O   0  0  0  0  0  0  0  0  0  0  0  0
  -22.6750  -29.4540   22.4840 C   0  0  0  0  0  0  0  0  0  0  0  0
  -21.3470  -29.2830   22.3750 N   0  0  0  0  0  0  0  0  0  0  0  0
  -23.3690  -28.8100   23.2750 O   0  0  0  0  0  0  0  0  0  0  0  0
  -20.8500  -29.8580   21.7080 H   0  0  0  0  0  0  0  0  0  0  0  0
  -17.9740  -28.1070   22.9070 C   0  0  0  0  0  0  0  0  0  0  0  0
  -20.5370  -28.3350   23.1370 C   0  0  0  0  0  3  0  0  0  0  0  0
  -20.6170  -26.9170   22.5260 C   0  0  0  0  0  2  0  0  0  0  0  0
  -19.4930  -26.6290   21.5270 C   0  0  0  0  0  2  0  0  0  0  0  0
  -18.1240  -26.7720   22.1970 C   0  0  0  0  0  2  0  0  0  0  0  0
  -19.1070  -28.8490   23.3330 C   0  0  0  0  0  0  0  0  0  0  0  0
  -18.9120  -30.1020   23.9540 C   0  0  0  0  0  3  0  0  0  0  0  0
  -17.6160  -30.6120   24.1540 C   0  0  0  0  0  3  0  0  0  0  0  0
  -16.4970  -29.8670   23.7440 C   0  0  0  0  0  3  0  0  0  0  0  0
  -16.6770  -28.6170   23.1250 C   0  0  0  0  0  3  0  0  0  0  0  0
  -25.8230  -32.4980   23.7980 C   0  0  0  0  0  3  0  0  0  0  0  0
  -26.3530  -31.7090   25.0570 C   0  0  1  0  0  0  0  0  0  0  0  0
  -25.2730  -31.4590   26.1340 C   0  0  0  0  0  1  0  0  0  0  0  0
  -26.9310  -30.3370   24.6390 C   0  0  0  0  0  1  0  0  0  0  0  0
  -27.5100  -32.4940   25.7200 C   0  0  0  0  0  1  0  0  0  0  0  0
  -25.5160  -33.8910   24.1470 N   0  0  0  0  0  0  0  0  0  0  0  0
  -25.8430  -34.9520   23.3980 C   0  0  0  0  0  0  0  0  0  0  0  0
  -26.5080  -34.8600   22.3610 O   0  0  0  0  0  0  0  0  0  0  0  0
  -24.9280  -34.0350   24.9550 H   0  0  0  0  0  0  0  0  0  0  0  0
  -24.1170  -36.7500   23.0650 C   0  0  0  0  0  1  0  0  0  0  0  0
  -25.3550  -36.3330   23.8740 C   0  0  0  0  0  3  0  0  0  0  0  0
  -27.4880  -37.2050   24.7200 C   0  0  0  0  0  1  0  0  0  0  0  0
  -26.3890  -37.3860   23.7770 N   0  0  0  0  0  0  0  0  0  0  0  0
  -25.9830  -38.3040   23.9340 H   0  0  0  0  0  0  0  0  0  0  0  0
  1 17  1  0
  2  7  1  0
  3  4  1  0
  3  2  1  0
  5  4  1  0
  5 22  1  0
  5  6  1  0
  7  1  1  0
  7  6  1  0
  8  1  2  0
  9 13  1  0
 10 14  1  0
 10 15  1  0
 10 12  1  0
 11 48  1  0
 11  9  1  0
 12 17  1  0
 12 16  2  0
 15 11  2  0
 16  9  1  0
 17 18  1  0
 19 20  2  0
 20 21  1  0
 20 39  1  0
 21 24  1  0
 22 19  1  0
 22 23  1  0
 23 21  2  0
 24 25  1  0
 25 26  2  0
 27 30  1  0
 27 26  1  0
 28 27  2  0
 29 28  1  0
 29 24  2  0
 30 31  1  0
 31 32  1  0
 32 33  2  0
 34 33  1  0
 34 38  1  0
 35 34  2  0
 36 31  2  0
 36 35  1  0
 37 36  1  0
 39 40  1  0
 40 43  1  0
 40 42  1  0
 41 39  2  0
 44 45  1  0
 44 19  1  0
 46 44  1  0
 47 49  1  0
 47 48  2  0
 50 51  1  0
 50 49  1  0
 52 54  1  0
 52 51  1  0
 53 64  2  0
 54 59  1  0
 55 63  1  0
 55 65  1  0
 56 62  1  0
 56 58  1  0
 57 63  1  0
 58 57  1  0
 59 58  2  0
 60 61  1  0
 60 54  2  0
 61 56  2  0
 62 55  1  0
 63 53  1  0
 65 67  2  0
 66 65  1  0
 68 66  1  0
 69 78  2  0
 69 74  1  0
 70 66  1  0
 70 74  1  0
 71 70  1  0
 72 73  1  0
 72 71  1  0
 73 69  1  0
 74 75  2  0
 75 76  1  0
 77 76  2  0
 78 77  1  0
 79 53  1  0
 79 84  1  0
 79 80  1  0
 80 83  1  1
 80 81  1  0
 82 80  1  0
 84 87  1  0
 85 89  1  0
 85 84  1  0
 86 85  2  0
 89 88  1  0
 91 89  1  0
 91 92  1  0
 91 90  1  0
M  ISO  4   1 100  17 100  51 101  52 101
M  END
>  <TORSDO>  (41) 
F 19

>  <SCORE>  (41) 
-14.335

>  <name>  (41) 
40

>  <ligand_id>  (41) 
40

>  <original_smiles>  (41) 
[H]C(=Nc1nc(C([H])([H])[H])c(N([H])C(=O)N2C([H])([H])C([H])([H])C([H])([H])C([H])(n3nc(-c4c([H])c([H])c(Oc5c([H])c([H])c(F)c([H])c5F)c([H])c4[H])c(C(=O)N([H])[H])c3N([H])[H])C2([H])[H])nc1C([H])([H])[H])C([H])([H])C([H])([H])C([H])([H])Oc1c([H])c([H])c2c(c1[H])C([H])([H])N(C(=O)C([H])(N([H])C(=O)C([H])(N([H])C([H])([H])[H])C([H])([H])[H])C(C([H])([H])[H])(C([H])([H])[H])C([H])([H])[H])C([H])(C(=O)N([H])C1([H])c3c([H])c([H])c([H])c([H])c3C([H])([H])C([H])([H])C1([H])[H])C2([H])[H]

>  <smiles>  (41) 
[H]C(=Nc1nc(C([H])([H])[H])c(N([H])C(=O)N2C([H])([H])C([H])([H])C([H])([H])C([H])(n3nc(-c4c([H])c([H])c(Oc5c([H])c([H])c(F)c([H])c5F)c([H])c4[H])c(C(=O)N([H])[H])c3N([H])[H])C2([H])[H])nc1C([H])([H])[H])C([H])([H])C([H])([H])C([H])([H])Oc1c([H])c([H])c2c(c1[H])C([H])([H])N(C(=O)C([H])(N([H])C(=O)C([H])(N([H])C([H])([H])[H])C([H])([H])[H])C(C([H])([H])[H])(C([H])([H])[H])C([H])([H])[H])C([H])(C(=O)N([H])C1([H])c3c([H])c([H])c([H])c([H])c3C([H])([H])C([H])([H])C1([H])[H])C2([H])[H]

$$$$
41:0:0
     RDKit          3D

 96106  0  0  1  0  0  0  0  0999 V2000
  -29.9310  -18.3760   20.1770 C   0  0  0  0  0  3  0  0  0  0  0  0
  -27.8730  -19.5650   20.0210 C   0  0  0  0  0  3  0  0  0  0  0  0
  -29.2740  -17.0620   20.3180 C   0  0  0  0  0  0  0  0  0  0  0  0
  -29.2630  -19.6890   20.0750 C   0  0  0  0  0  0  0  0  0  0  0  0
  -27.8320  -17.1900   20.3920 C   0  0  0  0  0  0  0  0  0  0  0  0
  -26.9200  -15.2080   21.7170 C   0  0  0  0  0  0  0  0  0  0  0  0
  -25.6370  -14.3940   21.8040 C   0  0  0  0  0  2  0  0  0  0  0  0
  -24.7360  -15.0280   20.7590 C   0  0  0  0  0  3  0  0  0  0  0  0
  -25.4580  -16.3270   20.4080 C   0  0  0  0  0  2  0  0  0  0  0  0
  -27.2240  -18.3940   20.1590 N   0  0  0  0  0  0  0  0  0  0  0  0
  -26.8810  -16.1440   20.7400 N   0  0  0  0  0  0  0  0  0  0  0  0
  -27.8280  -14.9780   22.5120 O   0  0  0  0  0  0  0  0  0  0  0  0
  -30.0950  -15.7460   20.7180 C   0  0  0  0  0  0  0  0  0  0  0  0
  -30.7380  -15.8660   21.8070 N   0  0  0  0  0  0  0  0  0  0  0  0
  -30.5410  -16.7370   22.2850 H   0  0  0  0  0  0  0  0  0  0  0  0
  -30.5000  -14.3880   19.8970 C   0  0  0  0  0  0  0  0  0  0  0  0
  -30.4210  -12.0170   19.0450 C   0  0  0  0  0  2  0  0  0  0  0  0
  -29.5610  -11.9020   17.7700 C   0  0  0  0  0  2  0  0  0  0  0  0
  -28.0990  -11.6240   18.1510 C   0  0  0  0  0  2  0  0  0  0  0  0
  -27.6030  -12.5710   19.2750 C   0  0  0  0  0  3  0  0  0  0  0  0
  -28.6030  -12.7060   20.4480 C   0  0  0  0  0  2  0  0  0  0  0  0
  -29.8880  -13.1350   19.8910 N   0  0  0  0  0  0  0  0  0  0  0  0
  -31.5990  -14.4610   19.3350 O   0  0  0  0  0  0  0  0  0  0  0  0
  -25.1320  -12.9880   19.7640 C   0  0  0  0  0  0  0  0  0  0  0  0
  -24.1270  -12.1800   20.2160 C   0  0  0  0  0  0  0  0  0  0  0  0
  -24.7170  -10.8930   20.4110 C   0  0  0  0  0  0  0  0  0  0  0  0
  -26.2690  -12.2060   19.7320 N   0  0  0  0  0  0  0  0  0  0  0  0
  -26.0240  -10.9440   20.1770 N   0  0  0  0  0  0  0  0  0  0  0  0
  -24.0970   -9.6040   20.7450 C   0  0  0  0  0  0  0  0  0  0  0  0
  -24.5520   -8.8230   21.8310 C   0  0  0  0  0  3  0  0  0  0  0  0
  -23.9260   -7.5970   22.1420 C   0  0  0  0  0  3  0  0  0  0  0  0
  -22.8330   -7.1410   21.3680 C   0  0  0  0  0  0  0  0  0  0  0  0
  -22.3980   -7.9110   20.2740 C   0  0  0  0  0  3  0  0  0  0  0  0
  -23.0250   -9.1300   19.9630 C   0  0  0  0  0  3  0  0  0  0  0  0
  -22.1810   -5.9520   21.5830 O   0  0  0  0  0  0  0  0  0  0  0  0
  -22.0220   -5.4340   22.8430 C   0  0  0  0  0  0  0  0  0  0  0  0
  -21.3550   -6.1480   23.8630 C   0  0  0  0  0  3  0  0  0  0  0  0
  -21.1530   -5.5510   25.1240 C   0  0  0  0  0  3  0  0  0  0  0  0
  -21.6080   -4.2400   25.3650 C   0  0  0  0  0  0  0  0  0  0  0  0
  -22.2680   -3.5260   24.3490 C   0  0  0  0  0  3  0  0  0  0  0  0
  -22.4730   -4.1210   23.0910 C   0  0  0  0  0  0  0  0  0  0  0  0
  -23.0880   -3.4200   22.1090 F   0  0  0  0  0  0  0  0  0  0  0  0
  -21.4070   -3.6640   26.5720 F   0  0  0  0  0  0  0  0  0  0  0  0
  -22.6800  -12.5530   20.3510 C   0  0  0  0  0  0  0  0  0  0  0  0
  -21.9810  -11.9660   21.3150 N   0  0  0  0  0  0  0  0  0  0  0  0
  -22.1720  -13.4120   19.6330 O   0  0  0  0  0  0  0  0  0  0  0  0
  -22.4010  -11.2810   21.9250 H   0  0  0  0  0  0  0  0  0  0  0  0
  -21.0110  -12.2110   21.4490 H   0  0  0  0  0  0  0  0  0  0  0  0
  -25.1720  -14.3120   19.3450 N   0  0  0  0  0  4  0  0  0  0  0  0
  -24.3270  -14.8660   19.2670 H   0  0  0  0  0  0  0  0  0  0  0  0
  -25.9740  -14.7550   18.9190 H   0  0  0  0  0  0  0  0  0  0  0  0
  -29.6720  -22.3160   20.1760 C   0  0  0  0  0  3  0  0  0  0  0  0
  -29.9400  -21.0010   19.9960 N   0  0  0  0  0  0  0  0  0  0  0  0
  -28.4800  -23.2040   20.6330 C   0  0  0  0  0  3  0  0  0  0  0  0
  -28.0790  -24.5630   20.6410 C   0  0  0  0  0  3  0  0  0  0  0  0
  -28.5510  -25.8740   20.2390 O   0  0  0  0  0  0  0  0  0  0  0  0
  -25.0460  -31.6280   23.1690 C   0  0  0  0  0  0  0  0  0  0  0  0
  -27.5670  -26.9150   20.1550 C   0  0  0  0  0  0  0  0  0  0  0  0
  -23.8410  -30.2700   21.5020 C   0  0  0  0  0  3  0  0  0  0  0  0
  -25.2790  -28.6830   20.0870 C   0  0  0  0  0  0  0  0  0  0  0  0
  -26.4000  -30.4910   21.3790 C   0  0  0  0  0  2  0  0  0  0  0  0
  -26.4560  -29.1060   20.7200 C   0  0  0  0  0  0  0  0  0  0  0  0
  -27.6060  -28.2350   20.7450 C   0  0  0  0  0  3  0  0  0  0  0  0
  -26.3760  -26.5910   19.4710 C   0  0  0  0  0  3  0  0  0  0  0  0
  -25.2490  -27.4360   19.4470 C   0  0  0  0  0  3  0  0  0  0  0  0
  -24.0680  -29.6000   20.1220 C   0  0  0  0  0  2  0  0  0  0  0  0
  -25.1150  -30.8160   22.0710 N   0  0  0  0  0  0  0  0  0  0  0  0
  -23.9590  -31.9320   23.6820 O   0  0  0  0  0  0  0  0  0  0  0  0
  -23.1280  -29.2690   22.4450 C   0  0  0  0  0  0  0  0  0  0  0  0
  -21.7960  -29.1460   22.3140 N   0  0  0  0  0  0  0  0  0  0  0  0
  -23.7770  -28.6060   23.2580 O   0  0  0  0  0  0  0  0  0  0  0  0
  -21.3300  -29.7340   21.6370 H   0  0  0  0  0  0  0  0  0  0  0  0
  -18.3620  -28.1240   22.8510 C   0  0  0  0  0  0  0  0  0  0  0  0
  -20.9390  -28.2280   23.0680 C   0  0  0  0  0  3  0  0  0  0  0  0
  -20.9440  -26.8150   22.4380 C   0  0  0  0  0  2  0  0  0  0  0  0
  -19.8040  -26.5980   21.4380 C   0  0  0  0  0  2  0  0  0  0  0  0
  -18.4460  -26.7950   22.1200 C   0  0  0  0  0  2  0  0  0  0  0  0
  -19.5330  -28.8050   23.2820 C   0  0  0  0  0  0  0  0  0  0  0  0
  -19.4000  -30.0530   23.9270 C   0  0  0  0  0  3  0  0  0  0  0  0
  -18.1290  -30.6190   24.1450 C   0  0  0  0  0  3  0  0  0  0  0  0
  -16.9750  -29.9340   23.7290 C   0  0  0  0  0  3  0  0  0  0  0  0
  -17.0920  -28.6880   23.0870 C   0  0  0  0  0  3  0  0  0  0  0  0
  -26.3290  -32.2290   23.8200 C   0  0  0  0  0  3  0  0  0  0  0  0
  -26.8800  -31.3640   25.0200 C   0  0  1  0  0  0  0  0  0  0  0  0
  -25.8060  -31.0030   26.0730 C   0  0  0  0  0  1  0  0  0  0  0  0
  -27.4960  -30.0400   24.5080 C   0  0  0  0  0  1  0  0  0  0  0  0
  -28.0150  -32.1290   25.7400 C   0  0  0  0  0  1  0  0  0  0  0  0
  -26.0040  -33.5900   24.2750 N   0  0  0  0  0  0  0  0  0  0  0  0
  -26.2700  -34.7080   23.5870 C   0  0  0  0  0  0  0  0  0  0  0  0
  -26.8830  -34.7050   22.5170 O   0  0  0  0  0  0  0  0  0  0  0  0
  -25.4520  -33.6650   25.1170 H   0  0  0  0  0  0  0  0  0  0  0  0
  -24.4710  -36.4660   23.4930 C   0  0  0  0  0  1  0  0  0  0  0  0
  -25.7790  -36.0430   24.1800 C   0  0  0  0  0  3  0  0  0  0  0  0
  -27.9430  -36.9390   24.9230 C   0  0  0  0  0  1  0  0  0  0  0  0
  -26.7710  -37.1370   24.0730 N   0  0  0  0  0  0  0  0  0  0  0  0
  -26.3500  -38.0300   24.3170 H   0  0  0  0  0  0  0  0  0  0  0  0
  1  3  1  0
  2  4  1  0
  2 10  2  0
  3  5  2  0
  3 13  1  0
  4  1  2  0
  5 11  1  0
  6  7  1  0
  6 12  2  0
  8  9  1  0
  8  7  1  0
  9 11  1  0
 10  5  1  0
 11  6  1  0
 13 14  2  0
 14 15  1  0
 16 13  1  0
 17 22  1  0
 18 19  1  0
 18 17  1  0
 20 19  1  0
 20 27  1  0
 20 21  1  0
 22 16  1  0
 22 21  1  0
 23 16  2  0
 24 25  2  0
 25 44  1  0
 25 26  1  0
 26 29  1  0
 27 24  1  0
 27 28  1  0
 28 26  2  0
 29 30  1  0
 30 31  2  0
 32 35  1  0
 32 31  1  0
 33 32  2  0
 34 33  1  0
 34 29  2  0
 35 36  1  0
 36 41  2  0
 36 37  1  0
 37 38  2  0
 38 39  1  0
 39 43  1  0
 40 39  2  0
 41 40  1  0
 42 41  1  0
 44 45  1  0
 45 48  1  0
 45 47  1  0
 46 44  2  0
 49 24  1  0
 49  8  1  0
 50 49  1  0
 51 49  1  0
 52 54  1  0
 53  4  1  0
 53 52  2  0
 54 55  2  0
 56 55  1  0
 57 68  2  0
 58 56  1  0
 58 63  1  0
 59 67  1  0
 59 69  1  0
 60 66  1  0
 60 62  1  0
 61 67  1  0
 62 63  2  0
 62 61  1  0
 64 58  2  0
 65 64  1  0
 65 60  2  0
 66 59  1  0
 67 57  1  0
 69 71  2  0
 70 69  1  0
 72 70  1  0
 73 82  2  0
 73 78  1  0
 74 70  1  0
 74 78  1  0
 75 74  1  0
 76 77  1  0
 76 75  1  0
 77 73  1  0
 78 79  2  0
 79 80  1  0
 81 80  2  0
 82 81  1  0
 83 57  1  0
 83 88  1  0
 83 84  1  0
 84 87  1  1
 84 85  1  0
 86 84  1  0
 88 91  1  0
 89 93  1  0
 89 88  1  0
 90 89  2  0
 93 92  1  0
 95 93  1  0
 95 96  1  0
 95 94  1  0
M  ISO  4  13 100  16 100  55 101  56 101
M  END
>  <TORSDO>  (42) 
F 19

>  <SCORE>  (42) 
-5.173

>  <name>  (42) 
41

>  <ligand_id>  (42) 
41

>  <original_smiles>  (42) 
[H]N=C(C(=O)N1C([H])([H])C([H])([H])C([H])([H])C([H])(n2nc(-c3c([H])c([H])c(Oc4c([H])c([H])c(F)c([H])c4F)c([H])c3[H])c(C(=O)N([H])[H])c2N([H])[H])C1([H])[H])c1c(N2C(=O)C([H])([H])C([H])([H])C2([H])[H])nc([H])c(N=C([H])C([H])=C([H])Oc2c([H])c([H])c3c(c2[H])C([H])([H])N(C(=O)C([H])(N([H])C(=O)C([H])(N([H])C([H])([H])[H])C([H])([H])[H])C(C([H])([H])[H])(C([H])([H])[H])C([H])([H])[H])C([H])(C(=O)N([H])C2([H])c4c([H])c([H])c([H])c([H])c4C([H])([H])C([H])([H])C2([H])[H])C3([H])[H])c1[H]

>  <smiles>  (42) 
[H]N=C(C(=O)N1C([H])([H])C([H])([H])C([H])([H])C([H])(n2nc(-c3c([H])c([H])c(Oc4c([H])c([H])c(F)c([H])c4F)c([H])c3[H])c(C(=O)N([H])[H])c2N([H])[H])C1([H])[H])c1c(N2C(=O)C([H])([H])C([H])([H])C2([H])[H])nc([H])c(N=C([H])C([H])=C([H])Oc2c([H])c([H])c3c(c2[H])C([H])([H])N(C(=O)C([H])(N([H])C(=O)C([H])(N([H])C([H])([H])[H])C([H])([H])[H])C(C([H])([H])[H])(C([H])([H])[H])C([H])([H])[H])C([H])(C(=O)N([H])C2([H])c4c([H])c([H])c([H])c([H])c4C([H])([H])C([H])([H])C2([H])[H])C3([H])[H])c1[H]

$$$$
42:0:0
     RDKit          3D

 95103  0  0  1  0  0  0  0  0999 V2000
  -28.9950  -22.3940   21.0950 C   0  0  0  0  0  0  0  0  0  0  0  0
  -29.4850  -21.2620   20.4490 N   0  0  0  0  0  0  0  0  0  0  0  0
  -28.5510  -22.3300   22.2460 O   0  0  0  0  0  0  0  0  0  0  0  0
  -29.7030  -21.4350   19.4780 H   0  0  0  0  0  0  0  0  0  0  0  0
  -31.1660  -17.4750   21.8830 C   0  0  0  0  0  3  0  0  0  0  0  0
  -31.5280  -18.7200   22.4340 C   0  0  0  0  0  3  0  0  0  0  0  0
  -29.5850  -18.6300   20.4450 C   0  0  0  0  0  3  0  0  0  0  0  0
  -30.1910  -17.3670   20.8690 C   0  0  0  0  0  0  0  0  0  0  0  0
  -30.9480  -19.9290   22.0020 C   0  0  0  0  0  0  0  0  0  0  0  0
  -29.9500  -19.9450   20.9840 C   0  0  0  0  0  0  0  0  0  0  0  0
  -30.5780  -14.8590   20.1480 C   0  0  0  0  0  0  0  0  0  0  0  0
  -30.3450  -12.6150   19.0290 C   0  0  0  0  0  2  0  0  0  0  0  0
  -29.3580  -12.7070   17.8430 C   0  0  0  0  0  2  0  0  0  0  0  0
  -27.9060  -12.5110   18.3250 C   0  0  0  0  0  2  0  0  0  0  0  0
  -27.5760  -13.3520   19.5890 C   0  0  0  0  0  3  0  0  0  0  0  0
  -28.6790  -13.2410   20.6610 C   0  0  0  0  0  2  0  0  0  0  0  0
  -29.9410  -13.6380   20.0240 N   0  0  0  0  0  0  0  0  0  0  0  0
  -31.7530  -14.9620   19.7890 O   0  0  0  0  0  0  0  0  0  0  0  0
  -29.8110  -15.9940   20.4180 N   0  0  0  0  0  0  0  0  0  0  0  0
  -28.8170  -15.8230   20.3940 H   0  0  0  0  0  0  0  0  0  0  0  0
  -25.2160  -13.9090   20.4230 C   0  0  0  0  0  0  0  0  0  0  0  0
  -24.1730  -13.1200   20.8230 C   0  0  0  0  0  0  0  0  0  0  0  0
  -24.6450  -11.7750   20.7560 C   0  0  0  0  0  0  0  0  0  0  0  0
  -26.2550  -13.0420   20.1260 N   0  0  0  0  0  0  0  0  0  0  0  0
  -25.9220  -11.7510   20.3870 N   0  0  0  0  0  0  0  0  0  0  0  0
  -23.9400  -10.5040   20.9660 C   0  0  0  0  0  0  0  0  0  0  0  0
  -24.3940   -9.5450   21.8990 C   0  0  0  0  0  3  0  0  0  0  0  0
  -23.6820   -8.3410   22.0960 C   0  0  0  0  0  3  0  0  0  0  0  0
  -22.5000   -8.0890   21.3560 C   0  0  0  0  0  0  0  0  0  0  0  0
  -22.0640   -9.0370   20.4150 C   0  0  0  0  0  3  0  0  0  0  0  0
  -22.7780  -10.2310   20.2170 C   0  0  0  0  0  3  0  0  0  0  0  0
  -21.7620   -6.9330   21.4590 O   0  0  0  0  0  0  0  0  0  0  0  0
  -21.7220   -6.2060   22.6210 C   0  0  0  0  0  0  0  0  0  0  0  0
  -21.2690   -6.7660   23.8340 C   0  0  0  0  0  3  0  0  0  0  0  0
  -21.1740   -5.9630   24.9890 C   0  0  0  0  0  3  0  0  0  0  0  0
  -21.5230   -4.5990   24.9280 C   0  0  0  0  0  0  0  0  0  0  0  0
  -21.9730   -4.0400   23.7200 C   0  0  0  0  0  3  0  0  0  0  0  0
  -22.0680   -4.8390   22.5690 C   0  0  0  0  0  0  0  0  0  0  0  0
  -22.4790   -4.2900   21.4010 F   0  0  0  0  0  0  0  0  0  0  0  0
  -21.4280   -3.8260   26.0350 F   0  0  0  0  0  0  0  0  0  0  0  0
  -22.7830  -13.5860   21.1510 C   0  0  0  0  0  0  0  0  0  0  0  0
  -22.0870  -12.8760   22.0290 N   0  0  0  0  0  0  0  0  0  0  0  0
  -22.3260  -14.6190   20.6650 O   0  0  0  0  0  0  0  0  0  0  0  0
  -22.4680  -12.0450   22.4550 H   0  0  0  0  0  0  0  0  0  0  0  0
  -21.1570  -13.1800   22.2880 H   0  0  0  0  0  0  0  0  0  0  0  0
  -25.3610  -15.2820   20.2680 N   0  0  0  0  0  0  0  0  0  0  0  0
  -24.5950  -15.9200   20.4620 H   0  0  0  0  0  0  0  0  0  0  0  0
  -26.1880  -15.7500   19.9230 H   0  0  0  0  0  0  0  0  0  0  0  0
  -31.4290  -21.1030   22.5840 N   0  0  0  0  0  0  0  0  0  0  0  0
  -32.0170  -21.0150   23.4060 H   0  0  0  0  0  0  0  0  0  0  0  0
  -30.7580  -21.8590   22.6800 H   0  0  0  0  0  0  0  0  0  0  0  0
  -29.0190  -23.8420   20.3120 C   0  0  0  0  0  0  0  0  0  0  0  0
  -29.8140  -24.0170   19.3800 O   0  0  0  0  0  0  0  0  0  0  0  0
  -28.0570  -25.0460   20.7680 C   0  0  0  0  0  2  0  0  0  0  0  0
  -28.3340  -26.4510   20.2880 O   0  0  0  0  0  0  0  0  0  0  0  0
  -24.5810  -31.9120   23.2430 C   0  0  0  0  0  0  0  0  0  0  0  0
  -27.2380  -27.3430   20.2290 C   0  0  0  0  0  0  0  0  0  0  0  0
  -23.3940  -30.5060   21.5920 C   0  0  0  0  0  3  0  0  0  0  0  0
  -24.8710  -28.9660   20.1750 C   0  0  0  0  0  0  0  0  0  0  0  0
  -25.9340  -30.8430   21.4220 C   0  0  0  0  0  2  0  0  0  0  0  0
  -26.0330  -29.4590   20.7830 C   0  0  0  0  0  0  0  0  0  0  0  0
  -27.2210  -28.6610   20.7960 C   0  0  0  0  0  3  0  0  0  0  0  0
  -26.0610  -26.9190   19.5760 C   0  0  0  0  0  3  0  0  0  0  0  0
  -24.8900  -27.7050   19.5570 C   0  0  0  0  0  3  0  0  0  0  0  0
  -23.6230  -29.8300   20.2140 C   0  0  0  0  0  2  0  0  0  0  0  0
  -24.6530  -31.1030   22.1430 N   0  0  0  0  0  0  0  0  0  0  0  0
  -23.4920  -32.1800   23.7740 O   0  0  0  0  0  0  0  0  0  0  0  0
  -22.7290  -29.4890   22.5500 C   0  0  0  0  0  0  0  0  0  0  0  0
  -21.4060  -29.2980   22.4120 N   0  0  0  0  0  0  0  0  0  0  0  0
  -23.4050  -28.8740   23.3780 O   0  0  0  0  0  0  0  0  0  0  0  0
  -20.9140  -29.8460   21.7200 H   0  0  0  0  0  0  0  0  0  0  0  0
  -18.0410  -28.0520   22.8750 C   0  0  0  0  0  0  0  0  0  0  0  0
  -20.5910  -28.3520   23.1780 C   0  0  0  0  0  3  0  0  0  0  0  0
  -20.7240  -26.9180   22.6140 C   0  0  0  0  0  2  0  0  0  0  0  0
  -19.6410  -26.5720   21.5860 C   0  0  0  0  0  2  0  0  0  0  0  0
  -18.2470  -26.7010   22.2110 C   0  0  0  0  0  2  0  0  0  0  0  0
  -19.1430  -28.8330   23.3170 C   0  0  0  0  0  0  0  0  0  0  0  0
  -18.8960  -30.0950   23.9010 C   0  0  0  0  0  3  0  0  0  0  0  0
  -17.5820  -30.5780   24.0460 C   0  0  0  0  0  3  0  0  0  0  0  0
  -16.4950  -29.7920   23.6240 C   0  0  0  0  0  3  0  0  0  0  0  0
  -16.7250  -28.5330   23.0420 C   0  0  0  0  0  3  0  0  0  0  0  0
  -25.8550  -32.5560   23.8720 C   0  0  0  0  0  3  0  0  0  0  0  0
  -26.3570  -31.7980   25.1620 C   0  0  1  0  0  0  0  0  0  0  0  0
  -25.2530  -31.5720   26.2210 C   0  0  0  0  0  1  0  0  0  0  0  0
  -26.9430  -30.4150   24.7940 C   0  0  0  0  0  1  0  0  0  0  0  0
  -27.5020  -32.5980   25.8290 C   0  0  0  0  0  1  0  0  0  0  0  0
  -25.5370  -33.9570   24.1860 N   0  0  0  0  0  0  0  0  0  0  0  0
  -25.8880  -35.0040   23.4270 C   0  0  0  0  0  0  0  0  0  0  0  0
  -26.5760  -34.8920   22.4090 O   0  0  0  0  0  0  0  0  0  0  0  0
  -24.9260  -34.1170   24.9730 H   0  0  0  0  0  0  0  0  0  0  0  0
  -24.1810  -36.8080   23.0210 C   0  0  0  0  0  1  0  0  0  0  0  0
  -25.3980  -36.3970   23.8670 C   0  0  0  0  0  3  0  0  0  0  0  0
  -27.5130  -37.2780   24.7510 C   0  0  0  0  0  1  0  0  0  0  0  0
  -26.4390  -37.4440   23.7760 N   0  0  0  0  0  0  0  0  0  0  0  0
  -26.0320  -38.3660   23.9040 H   0  0  0  0  0  0  0  0  0  0  0  0
  1  3  2  0
  2 10  1  0
  2  1  1  0
  4  2  1  0
  5  6  1  0
  7  8  1  0
  7 10  2  0
  8  5  2  0
  9  6  2  0
  9 49  1  0
 10  9  1  0
 11 19  1  0
 12 17  1  0
 13 14  1  0
 13 12  1  0
 15 14  1  0
 15 24  1  0
 15 16  1  0
 17 11  1  0
 17 16  1  0
 18 11  2  0
 19  8  1  0
 20 19  1  0
 21 22  2  0
 22 41  1  0
 23 22  1  0
 23 26  1  0
 24 25  1  0
 24 21  1  0
 25 23  2  0
 26 27  1  0
 27 28  2  0
 29 32  1  0
 29 28  1  0
 30 29  2  0
 31 30  1  0
 31 26  2  0
 32 33  1  0
 33 34  1  0
 34 35  2  0
 36 35  1  0
 36 40  1  0
 37 36  2  0
 38 33  2  0
 38 37  1  0
 39 38  1  0
 41 42  1  0
 42 45  1  0
 42 44  1  0
 43 41  2  0
 46 21  1  0
 46 47  1  0
 48 46  1  0
 49 51  1  0
 49 50  1  0
 52 54  1  0
 52  1  1  0
 53 52  2  0
 55 54  1  0
 56 67  2  0
 57 55  1  0
 57 62  1  0
 58 66  1  0
 58 68  1  0
 59 65  1  0
 59 61  1  0
 60 66  1  0
 61 62  2  0
 61 60  1  0
 63 57  2  0
 64 63  1  0
 64 59  2  0
 65 58  1  0
 66 56  1  0
 68 70  2  0
 69 68  1  0
 71 69  1  0
 72 81  2  0
 72 77  1  0
 73 69  1  0
 73 77  1  0
 74 73  1  0
 75 76  1  0
 75 74  1  0
 76 72  1  0
 77 78  2  0
 78 79  1  0
 80 79  2  0
 81 80  1  0
 82 56  1  0
 82 87  1  0
 82 83  1  0
 83 86  1  1
 83 84  1  0
 85 83  1  0
 87 90  1  0
 88 92  1  0
 88 87  1  0
 89 88  2  0
 92 91  1  0
 94 92  1  0
 94 95  1  0
 94 93  1  0
M  ISO  4  11 100  19 100  54 101  55 101
M  END
>  <TORSDO>  (43) 
F 20

>  <SCORE>  (43) 
-14.204

>  <name>  (43) 
42

>  <ligand_id>  (43) 
42

>  <original_smiles>  (43) 
[H]c1c([H])c([H])c2c(c1[H])C([H])([H])C([H])([H])C([H])([H])C2([H])N([H])C(=O)C1([H])N(C(=O)C([H])(N([H])C(=O)C([H])(N([H])C([H])([H])[H])C([H])([H])[H])C(C([H])([H])[H])(C([H])([H])[H])C([H])([H])[H])C([H])([H])c2c([H])c(OC([H])([H])C(=O)C(=O)N([H])c3c([H])c(N([H])C(=O)N4C([H])([H])C([H])([H])C([H])([H])C([H])(n5nc(-c6c([H])c([H])c(Oc7c([H])c([H])c(F)c([H])c7F)c([H])c6[H])c(C(=O)N([H])[H])c5N([H])[H])C4([H])[H])c([H])c([H])c3N([H])[H])c([H])c([H])c2C1([H])[H]

>  <smiles>  (43) 
[H]c1c([H])c([H])c2c(c1[H])C([H])([H])C([H])([H])C([H])([H])C2([H])N([H])C(=O)C1([H])N(C(=O)C([H])(N([H])C(=O)C([H])(N([H])C([H])([H])[H])C([H])([H])[H])C(C([H])([H])[H])(C([H])([H])[H])C([H])([H])[H])C([H])([H])c2c([H])c(OC([H])([H])C(=O)C(=O)N([H])c3c([H])c(N([H])C(=O)N4C([H])([H])C([H])([H])C([H])([H])C([H])(n5nc(-c6c([H])c([H])c(Oc7c([H])c([H])c(F)c([H])c7F)c([H])c6[H])c(C(=O)N([H])[H])c5N([H])[H])C4([H])[H])c([H])c([H])c3N([H])[H])c([H])c([H])c2C1([H])[H]

$$$$
43:0:0
     RDKit          3D

 94100  0  0  1  0  0  0  0  0999 V2000
  -26.7220  -15.0410   18.6770 C   0  0  0  0  0  2  0  0  0  0  0  0
  -25.3530  -15.9880   19.6170 C   0  0  0  0  0  3  0  0  0  0  0  0
  -28.3090  -15.0670   19.5320 C   0  0  0  0  0  2  0  0  0  0  0  0
  -25.8920  -16.7490   21.1260 C   0  0  0  0  0  2  0  0  0  0  0  0
  -27.8640  -16.0980   21.3060 O   0  0  0  0  0  1  0  0  0  0  0  0
  -24.0720  -16.1760   19.0910 N   0  0  0  0  0  0  0  0  0  0  0  0
  -23.3990  -16.0410   19.8450 H   0  0  0  0  0  0  0  0  0  0  0  0
  -23.9190  -17.1410   18.8240 H   0  0  0  0  0  0  0  0  0  0  0  0
  -29.7480  -15.1730   18.9730 C   0  0  0  0  0  0  0  0  0  0  0  0
  -30.0290  -16.2060   18.2940 N   0  0  0  0  0  0  0  0  0  0  0  0
  -29.2280  -16.8020   18.1500 H   0  0  0  0  0  0  0  0  0  0  0  0
  -30.8900  -14.0510   19.0110 C   0  0  0  0  0  0  0  0  0  0  0  0
  -30.6790  -11.7900   18.1320 C   0  0  0  0  0  2  0  0  0  0  0  0
  -29.4370  -11.7430   17.2020 C   0  0  0  0  0  2  0  0  0  0  0  0
  -28.1180  -11.5070   18.0260 C   0  0  0  0  0  2  0  0  0  0  0  0
  -28.1000  -12.4850   19.1940 C   0  0  0  0  0  3  0  0  0  0  0  0
  -29.3680  -12.4570   20.0700 C   0  0  0  0  0  2  0  0  0  0  0  0
  -30.4600  -12.7970   19.1860 N   0  0  0  0  0  0  0  0  0  0  0  0
  -32.0420  -14.2750   18.5750 O   0  0  0  0  0  0  0  0  0  0  0  0
  -26.4140  -14.2810   20.4720 C   0  0  0  0  0  3  0  0  0  0  0  0
  -25.2100  -13.5230   20.9810 C   0  0  0  0  0  0  0  0  0  0  0  0
  -25.2430  -12.0430   20.7990 C   0  0  0  0  0  0  0  0  0  0  0  0
  -26.9210  -12.9160   19.9750 N   0  0  0  0  0  0  0  0  0  0  0  0
  -26.3470  -11.7450   20.2610 N   0  0  0  0  0  0  0  0  0  0  0  0
  -24.3480  -10.8070   21.0060 C   0  0  0  0  0  0  0  0  0  0  0  0
  -24.7820   -9.6540   21.7320 C   0  0  0  0  0  3  0  0  0  0  0  0
  -23.9600   -8.5040   21.9220 C   0  0  0  0  0  3  0  0  0  0  0  0
  -22.6600   -8.4520   21.3670 C   0  0  0  0  0  0  0  0  0  0  0  0
  -22.2430   -9.5530   20.5920 C   0  0  0  0  0  3  0  0  0  0  0  0
  -23.0660  -10.6920   20.4060 C   0  0  0  0  0  3  0  0  0  0  0  0
  -21.7950   -7.3770   21.4700 O   0  0  0  0  0  0  0  0  0  0  0  0
  -21.7690   -6.5440   22.5670 C   0  0  0  0  0  0  0  0  0  0  0  0
  -21.5770   -7.0410   23.8750 C   0  0  0  0  0  3  0  0  0  0  0  0
  -21.4890   -6.1530   24.9670 C   0  0  0  0  0  3  0  0  0  0  0  0
  -21.5840   -4.7640   24.7570 C   0  0  0  0  0  0  0  0  0  0  0  0
  -21.7660   -4.2610   23.4570 C   0  0  0  0  0  3  0  0  0  0  0  0
  -21.8490   -5.1470   22.3660 C   0  0  0  0  0  0  0  0  0  0  0  0
  -21.9910   -4.6480   21.1150 F   0  0  0  0  0  0  0  0  0  0  0  0
  -21.5040   -3.9100   25.8060 F   0  0  0  0  0  0  0  0  0  0  0  0
  -23.8780  -14.0050   21.5300 C   0  0  0  0  0  0  0  0  0  0  0  0
  -23.2790  -13.2830   22.4870 N   0  0  0  0  0  0  0  0  0  0  0  0
  -23.3120  -15.0030   21.1120 O   0  0  0  0  0  0  0  0  0  0  0  0
  -23.7060  -12.4570   22.8810 H   0  0  0  0  0  0  0  0  0  0  0  0
  -22.3770  -13.5860   22.8220 H   0  0  0  0  0  0  0  0  0  0  0  0
  -27.5750  -16.9400   19.8830 N   0  0  0  0  0  0  0  0  0  0  0  0
  -27.0700  -17.7630   20.1910 H   0  0  0  0  0  0  0  0  0  0  0  0
  -28.5290  -17.1410   19.6270 H   0  0  0  0  0  0  0  0  0  0  0  0
  -25.8670  -18.2900   21.1560 O   0  0  0  0  0  0  0  0  0  0  0  0
  -26.9160  -19.5330   20.6510 C   0  0  0  0  0  3  0  0  0  0  0  0
  -26.7840  -21.1980   19.8870 C   0  0  0  0  0  3  0  0  0  0  0  0
  -27.8460  -22.6240   19.7250 C   0  0  0  0  0  0  0  0  0  0  0  0
  -29.0380  -22.4090   19.9760 O   0  0  0  0  0  0  0  0  0  0  0  0
  -27.4940  -24.2920   19.2430 C   0  0  0  0  0  2  0  0  0  0  0  0
  -28.3340  -25.7530   19.3280 O   0  0  0  0  0  0  0  0  0  0  0  0
  -24.9220  -31.2370   22.9980 C   0  0  0  0  0  0  0  0  0  0  0  0
  -27.6090  -27.0390   19.2950 C   0  0  0  0  0  0  0  0  0  0  0  0
  -23.8440  -30.0080   21.1720 C   0  0  0  0  0  3  0  0  0  0  0  0
  -25.3780  -28.8700   19.4590 C   0  0  0  0  0  0  0  0  0  0  0  0
  -26.3800  -30.4640   21.0630 C   0  0  0  0  0  2  0  0  0  0  0  0
  -26.5310  -29.1920   20.1820 C   0  0  0  0  0  0  0  0  0  0  0  0
  -27.6720  -28.2800   20.1000 C   0  0  0  0  0  3  0  0  0  0  0  0
  -26.5280  -26.9970   18.4170 C   0  0  0  0  0  3  0  0  0  0  0  0
  -25.4130  -27.8290   18.5350 C   0  0  0  0  0  3  0  0  0  0  0  0
  -24.0990  -29.6480   19.6860 C   0  0  0  0  0  2  0  0  0  0  0  0
  -25.0700  -30.5940   21.7980 N   0  0  0  0  0  0  0  0  0  0  0  0
  -23.8200  -31.3190   23.5620 O   0  0  0  0  0  0  0  0  0  0  0  0
  -23.3060  -28.7740   21.9440 C   0  0  0  0  0  0  0  0  0  0  0  0
  -22.0130  -28.4490   21.7680 N   0  0  0  0  0  0  0  0  0  0  0  0
  -24.0500  -28.1250   22.6830 O   0  0  0  0  0  0  0  0  0  0  0  0
  -21.4570  -29.0340   21.1610 H   0  0  0  0  0  0  0  0  0  0  0  0
  -18.8470  -26.6870   21.9460 C   0  0  0  0  0  0  0  0  0  0  0  0
  -21.3190  -27.3100   22.3800 C   0  0  0  0  0  3  0  0  0  0  0  0
  -21.6720  -25.9910   21.6530 C   0  0  0  0  0  2  0  0  0  0  0  0
  -20.6750  -25.6280   20.5490 C   0  0  0  0  0  2  0  0  0  0  0  0
  -19.2640  -25.4760   21.1270 C   0  0  0  0  0  2  0  0  0  0  0  0
  -19.8120  -27.5570   22.5190 C   0  0  0  0  0  0  0  0  0  0  0  0
  -19.3700  -28.6830   23.2460 C   0  0  0  0  0  3  0  0  0  0  0  0
  -17.9960  -28.9470   23.4020 C   0  0  0  0  0  3  0  0  0  0  0  0
  -17.0450  -28.0760   22.8400 C   0  0  0  0  0  3  0  0  0  0  0  0
  -17.4710  -26.9470   22.1170 C   0  0  0  0  0  3  0  0  0  0  0  0
  -26.1330  -31.9100   23.7110 C   0  0  0  0  0  3  0  0  0  0  0  0
  -25.6900  -33.2310   24.1900 N   0  0  0  0  0  0  0  0  0  0  0  0
  -25.9630  -34.3980   23.5930 C   0  0  0  0  0  0  0  0  0  0  0  0
  -26.6820  -34.4830   22.5940 O   0  0  0  0  0  0  0  0  0  0  0  0
  -25.0530  -33.2300   24.9740 H   0  0  0  0  0  0  0  0  0  0  0  0
  -24.1180  -36.1020   23.3740 C   0  0  0  0  0  1  0  0  0  0  0  0
  -25.3430  -35.6740   24.2000 C   0  0  0  0  0  3  0  0  0  0  0  0
  -27.3570  -36.5860   25.2710 C   0  0  0  0  0  1  0  0  0  0  0  0
  -26.2940  -36.8040   24.2920 N   0  0  0  0  0  0  0  0  0  0  0  0
  -25.8110  -37.6640   24.5380 H   0  0  0  0  0  0  0  0  0  0  0  0
  -26.6930  -31.0570   24.9160 C   0  0  1  0  0  0  0  0  0  0  0  0
  -25.6090  -30.6270   25.9330 C   0  0  0  0  0  1  0  0  0  0  0  0
  -27.3960  -29.7750   24.4160 C   0  0  0  0  0  1  0  0  0  0  0  0
  -27.7650  -31.8710   25.6800 C   0  0  0  0  0  1  0  0  0  0  0  0
  1  3  1  0
  2  1  1  0
  2  4  1  0
  4 48  1  0
  6  2  1  0
  6  7  1  0
  8  6  1  0
  9 12  1  0
  9  3  1  0
 10  9  2  0
 11 10  1  0
 12 18  1  0
 13 18  1  0
 14 15  1  0
 14 13  1  0
 16 15  1  0
 16 23  1  0
 16 17  1  0
 18 17  1  0
 19 12  2  0
 20 21  2  0
 21 40  1  0
 22 21  1  0
 22 25  1  0
 23 24  1  0
 23 20  1  0
 24 22  2  0
 25 26  1  0
 26 27  2  0
 28 31  1  0
 28 27  1  0
 29 28  2  0
 30 29  1  0
 30 25  2  0
 31 32  1  0
 32 33  1  0
 33 34  2  0
 35 34  1  0
 35 39  1  0
 36 35  2  0
 37 32  2  0
 37 36  1  0
 38 37  1  0
 40 41  1  0
 41 44  1  0
 41 43  1  0
 42 40  2  0
 45 46  1  0
 45  5  1  0
 47 45  1  0
 49 48  1  0
 50 49  2  0
 51 50  1  0
 51 52  2  0
 53 54  1  0
 53 51  1  0
 55 66  2  0
 56 54  1  0
 56 61  1  0
 57 65  1  0
 57 67  1  0
 58 64  1  0
 58 60  1  0
 59 65  1  0
 60 59  1  0
 61 60  2  0
 62 63  1  0
 62 56  2  0
 63 58  2  0
 64 57  1  0
 65 55  1  0
 67 69  2  0
 68 67  1  0
 70 68  1  0
 71 80  2  0
 71 76  1  0
 72 68  1  0
 72 76  1  0
 73 72  1  0
 74 75  1  0
 74 73  1  0
 75 71  1  0
 76 77  2  0
 77 78  1  0
 79 78  2  0
 80 79  1  0
 81 55  1  0
 81 82  1  0
 81 91  1  0
 82 85  1  0
 83 82  1  0
 83 87  1  0
 84 83  2  0
 87 86  1  0
 87 89  1  0
 89 90  1  0
 89 88  1  0
 91 94  1  1
 91 92  1  0
 93 91  1  0
M  ISO  4   9 100  12 100  53 101  54 101
M  END
>  <TORSDO>  (44) 
F 23

>  <SCORE>  (44) 
-1.731

>  <name>  (44) 
43

>  <ligand_id>  (44) 
43

>  <original_smiles>  (44) 
[H]N=C(C(=O)N1C([H])([H])C([H])([H])C([H])([H])C([H])(n2nc(-c3c([H])c([H])c(Oc4c([H])c([H])c(F)c([H])c4F)c([H])c3[H])c(C(=O)N([H])[H])c2N([H])[H])C1([H])[H])c1oc(OC([H])([H])C([H])([H])C(=O)C([H])([H])Oc2c([H])c([H])c3c(c2[H])C([H])([H])N(C(=O)C([H])(N([H])C(=O)C([H])(N([H])C([H])([H])[H])C([H])([H])[H])C(C([H])([H])[H])(C([H])([H])[H])C([H])([H])[H])C([H])(C(=O)N([H])C2([H])c4c([H])c([H])c([H])c([H])c4C([H])([H])C([H])([H])C2([H])[H])C3([H])[H])c(N([H])[H])c1[H]

>  <smiles>  (44) 
[H]N=C(C(=O)N1C([H])([H])C([H])([H])C([H])([H])C([H])(n2nc(-c3c([H])c([H])c(Oc4c([H])c([H])c(F)c([H])c4F)c([H])c3[H])c(C(=O)N([H])[H])c2N([H])[H])C1([H])[H])c1oc(OC([H])([H])C([H])([H])C(=O)C([H])([H])Oc2c([H])c([H])c3c(c2[H])C([H])([H])N(C(=O)C([H])(N([H])C(=O)C([H])(N([H])C([H])([H])[H])C([H])([H])[H])C(C([H])([H])[H])(C([H])([H])[H])C([H])([H])[H])C([H])(C(=O)N([H])C2([H])c4c([H])c([H])c([H])c([H])c4C([H])([H])C([H])([H])C2([H])[H])C3([H])[H])c(N([H])[H])c1[H]

$$$$
44:0:0
     RDKit          3D

 87 95  0  0  1  0  0  0  0  0999 V2000
  -28.6180  -21.6890   20.2810 C   0  0  0  0  0  3  0  0  0  0  0  0
  -28.8560  -23.1220   20.2560 C   0  0  0  0  0  3  0  0  0  0  0  0
  -30.7490  -19.9910   20.2960 C   0  0  0  0  0  3  0  0  0  0  0  0
  -31.0030  -18.5510   20.3140 C   0  0  0  0  0  3  0  0  0  0  0  0
  -29.4020  -20.3070   20.3180 C   0  0  0  0  0  0  0  0  0  0  0  0
  -29.8190  -17.8540   20.3630 C   0  0  0  0  0  0  0  0  0  0  0  0
  -28.8240  -18.9470   20.3680 O   0  0  0  0  0  0  0  0  0  0  0  0
  -30.4420  -15.1900   20.2740 C   0  0  0  0  0  0  0  0  0  0  0  0
  -30.3800  -12.7950   19.3500 C   0  0  0  0  0  2  0  0  0  0  0  0
  -29.4330  -12.6770   18.1310 C   0  0  0  0  0  2  0  0  0  0  0  0
  -27.9840  -12.4230   18.5860 C   0  0  0  0  0  2  0  0  0  0  0  0
  -27.5680  -13.3530   19.7560 C   0  0  0  0  0  3  0  0  0  0  0  0
  -28.6380  -13.4270   20.8650 C   0  0  0  0  0  2  0  0  0  0  0  0
  -29.8770  -13.9000   20.2300 N   0  0  0  0  0  0  0  0  0  0  0  0
  -31.6500  -15.2340   20.0030 O   0  0  0  0  0  0  0  0  0  0  0  0
  -29.6350  -16.3930   20.4160 N   0  0  0  0  0  0  0  0  0  0  0  0
  -28.6710  -16.1420   20.5700 H   0  0  0  0  0  0  0  0  0  0  0  0
  -25.2000  -13.8960   20.5470 C   0  0  0  0  0  0  0  0  0  0  0  0
  -24.1500  -13.1090   20.9260 C   0  0  0  0  0  0  0  0  0  0  0  0
  -24.6250  -11.7620   20.8730 C   0  0  0  0  0  0  0  0  0  0  0  0
  -26.2460  -13.0300   20.2780 N   0  0  0  0  0  0  0  0  0  0  0  0
  -25.9110  -11.7400   20.5420 N   0  0  0  0  0  0  0  0  0  0  0  0
  -23.9090  -10.4940   21.0620 C   0  0  0  0  0  0  0  0  0  0  0  0
  -24.3540   -9.5220   21.9850 C   0  0  0  0  0  3  0  0  0  0  0  0
  -23.6350   -8.3200   22.1620 C   0  0  0  0  0  3  0  0  0  0  0  0
  -22.4570   -8.0800   21.4150 C   0  0  0  0  0  0  0  0  0  0  0  0
  -22.0310   -9.0400   20.4810 C   0  0  0  0  0  3  0  0  0  0  0  0
  -22.7510  -10.2340   20.3020 C   0  0  0  0  0  3  0  0  0  0  0  0
  -21.7090   -6.9310   21.5020 O   0  0  0  0  0  0  0  0  0  0  0  0
  -21.6660   -6.1860   22.6530 C   0  0  0  0  0  0  0  0  0  0  0  0
  -21.2120   -6.7280   23.8760 C   0  0  0  0  0  3  0  0  0  0  0  0
  -21.1180   -5.9090   25.0180 C   0  0  0  0  0  3  0  0  0  0  0  0
  -21.4680   -4.5470   24.9400 C   0  0  0  0  0  0  0  0  0  0  0  0
  -21.9150   -4.0030   23.7220 C   0  0  0  0  0  3  0  0  0  0  0  0
  -22.0100   -4.8210   22.5810 C   0  0  0  0  0  0  0  0  0  0  0  0
  -22.4210   -4.2880   21.4060 F   0  0  0  0  0  0  0  0  0  0  0  0
  -21.3700   -3.7580   26.0340 F   0  0  0  0  0  0  0  0  0  0  0  0
  -22.7530  -13.5740   21.2200 C   0  0  0  0  0  0  0  0  0  0  0  0
  -22.0430  -12.8700   22.0940 N   0  0  0  0  0  0  0  0  0  0  0  0
  -22.3020  -14.6000   20.7110 O   0  0  0  0  0  0  0  0  0  0  0  0
  -22.4220  -12.0410   22.5270 H   0  0  0  0  0  0  0  0  0  0  0  0
  -21.1080  -13.1650   22.3340 H   0  0  0  0  0  0  0  0  0  0  0  0
  -25.3470  -15.2710   20.3770 N   0  0  0  0  0  0  0  0  0  0  0  0
  -24.5660  -15.9070   20.4960 H   0  0  0  0  0  0  0  0  0  0  0  0
  -26.1630  -15.7200   19.9840 H   0  0  0  0  0  0  0  0  0  0  0  0
  -27.8520  -24.4850   20.1320 C   0  0  0  0  0  2  0  0  0  0  0  0
  -28.1910  -26.0460   20.2960 O   0  0  0  0  0  0  0  0  0  0  0  0
  -24.6370  -31.9240   23.2460 C   0  0  0  0  0  0  0  0  0  0  0  0
  -27.1750  -27.1060   20.2290 C   0  0  0  0  0  0  0  0  0  0  0  0
  -23.4330  -30.5350   21.6070 C   0  0  0  0  0  3  0  0  0  0  0  0
  -24.8730  -28.9370   20.1860 C   0  0  0  0  0  0  0  0  0  0  0  0
  -25.9960  -30.7560   21.4540 C   0  0  0  0  0  2  0  0  0  0  0  0
  -26.0600  -29.3540   20.8010 C   0  0  0  0  0  0  0  0  0  0  0  0
  -27.2100  -28.4580   20.7990 C   0  0  0  0  0  3  0  0  0  0  0  0
  -25.9580  -26.8190   19.5690 C   0  0  0  0  0  3  0  0  0  0  0  0
  -24.8420  -27.6870   19.5510 C   0  0  0  0  0  3  0  0  0  0  0  0
  -23.6560  -29.8530   20.2310 C   0  0  0  0  0  2  0  0  0  0  0  0
  -24.7100  -31.0950   22.1560 N   0  0  0  0  0  0  0  0  0  0  0  0
  -23.5510  -32.2180   23.7690 O   0  0  0  0  0  0  0  0  0  0  0  0
  -22.7390  -29.5370   22.5710 C   0  0  0  0  0  0  0  0  0  0  0  0
  -21.4090  -29.3740   22.4400 N   0  0  0  0  0  0  0  0  0  0  0  0
  -23.4020  -28.9130   23.4030 O   0  0  0  0  0  0  0  0  0  0  0  0
  -20.9300  -29.9290   21.7450 H   0  0  0  0  0  0  0  0  0  0  0  0
  -18.0210  -28.1860   22.9400 C   0  0  0  0  0  0  0  0  0  0  0  0
  -20.5800  -28.4420   23.2110 C   0  0  0  0  0  3  0  0  0  0  0  0
  -20.6780  -27.0080   22.6410 C   0  0  0  0  0  2  0  0  0  0  0  0
  -19.5780  -26.6860   21.6250 C   0  0  0  0  0  2  0  0  0  0  0  0
  -18.1950  -26.8360   22.2660 C   0  0  0  0  0  2  0  0  0  0  0  0
  -19.1400  -28.9470   23.3700 C   0  0  0  0  0  0  0  0  0  0  0  0
  -18.9220  -30.2090   23.9630 C   0  0  0  0  0  3  0  0  0  0  0  0
  -17.6170  -30.7120   24.1300 C   0  0  0  0  0  3  0  0  0  0  0  0
  -16.5120  -29.9480   23.7140 C   0  0  0  0  0  3  0  0  0  0  0  0
  -16.7150  -28.6880   23.1250 C   0  0  0  0  0  3  0  0  0  0  0  0
  -25.9150  -32.5550   23.8770 C   0  0  0  0  0  3  0  0  0  0  0  0
  -25.6090  -33.9570   24.2050 N   0  0  0  0  0  0  0  0  0  0  0  0
  -25.9290  -35.0120   23.4420 C   0  0  0  0  0  0  0  0  0  0  0  0
  -26.5780  -34.9050   22.3980 O   0  0  0  0  0  0  0  0  0  0  0  0
  -25.0300  -34.1130   25.0180 H   0  0  0  0  0  0  0  0  0  0  0  0
  -24.1900  -36.8080   23.1390 C   0  0  0  0  0  1  0  0  0  0  0  0
  -25.4580  -36.4040   23.9110 C   0  0  0  0  0  3  0  0  0  0  0  0
  -27.6150  -37.2980   24.6720 C   0  0  0  0  0  1  0  0  0  0  0  0
  -26.4860  -37.4570   23.7590 N   0  0  0  0  0  0  0  0  0  0  0  0
  -26.0840  -38.3780   23.9100 H   0  0  0  0  0  0  0  0  0  0  0  0
  -26.4130  -31.7890   25.1630 C   0  0  1  0  0  0  0  0  0  0  0  0
  -25.3100  -31.5670   26.2240 C   0  0  0  0  0  1  0  0  0  0  0  0
  -26.9900  -30.4040   24.7910 C   0  0  0  0  0  1  0  0  0  0  0  0
  -27.5650  -32.5790   25.8300 C   0  0  0  0  0  1  0  0  0  0  0  0
  1  5  1  0
  2  1  2  0
  3  4  1  0
  3  5  2  0
  4  6  2  0
  5  7  1  0
  6  7  1  0
  6 16  1  0
  8 16  1  0
  9 14  1  0
 10 11  1  0
 10  9  1  0
 12 11  1  0
 12 21  1  0
 12 13  1  0
 14  8  1  0
 14 13  1  0
 15  8  2  0
 16 17  1  0
 18 19  2  0
 19 38  1  0
 20 19  1  0
 20 23  1  0
 21 22  1  0
 21 18  1  0
 22 20  2  0
 23 24  1  0
 24 25  2  0
 26 29  1  0
 26 25  1  0
 27 26  2  0
 28 27  1  0
 28 23  2  0
 29 30  1  0
 30 31  1  0
 31 32  2  0
 33 32  1  0
 33 37  1  0
 34 33  2  0
 35 30  2  0
 35 34  1  0
 36 35  1  0
 38 39  1  0
 39 42  1  0
 39 41  1  0
 40 38  2  0
 43 44  1  0
 43 18  1  0
 45 43  1  0
 46  2  1  0
 46 47  1  0
 48 59  2  0
 49 47  1  0
 49 54  1  0
 50 58  1  0
 50 60  1  0
 51 57  1  0
 51 53  1  0
 52 58  1  0
 53 52  1  0
 54 53  2  0
 55 49  2  0
 56 55  1  0
 56 51  2  0
 57 50  1  0
 58 48  1  0
 60 62  2  0
 61 60  1  0
 63 61  1  0
 64 73  2  0
 64 69  1  0
 65 61  1  0
 65 69  1  0
 66 65  1  0
 67 68  1  0
 67 66  1  0
 68 64  1  0
 69 70  2  0
 70 71  1  0
 72 71  2  0
 73 72  1  0
 74 48  1  0
 74 75  1  0
 74 84  1  0
 75 78  1  0
 76 80  1  0
 76 75  1  0
 77 76  2  0
 80 79  1  0
 82 83  1  0
 82 80  1  0
 82 81  1  0
 84 87  1  1
 84 85  1  0
 86 84  1  0
M  ISO  4   8 100  16 100  46 101  47 101
M  END
>  <TORSDO>  (45) 
F 18

>  <SCORE>  (45) 
-15.236

>  <name>  (45) 
44

>  <ligand_id>  (45) 
44

>  <original_smiles>  (45) 
[H]C(=C([H])C([H])([H])Oc1c([H])c([H])c2c(c1[H])C([H])([H])N(C(=O)C([H])(N([H])C(=O)C([H])(N([H])C([H])([H])[H])C([H])([H])[H])C(C([H])([H])[H])(C([H])([H])[H])C([H])([H])[H])C([H])(C(=O)N([H])C1([H])c3c([H])c([H])c([H])c([H])c3C([H])([H])C([H])([H])C1([H])[H])C2([H])[H])c1oc(N([H])C(=O)N2C([H])([H])C([H])([H])C([H])([H])C([H])(n3nc(-c4c([H])c([H])c(Oc5c([H])c([H])c(F)c([H])c5F)c([H])c4[H])c(C(=O)N([H])[H])c3N([H])[H])C2([H])[H])c([H])c1[H]

>  <smiles>  (45) 
[H]C(=C([H])C([H])([H])Oc1c([H])c([H])c2c(c1[H])C([H])([H])N(C(=O)C([H])(N([H])C(=O)C([H])(N([H])C([H])([H])[H])C([H])([H])[H])C(C([H])([H])[H])(C([H])([H])[H])C([H])([H])[H])C([H])(C(=O)N([H])C1([H])c3c([H])c([H])c([H])c([H])c3C([H])([H])C([H])([H])C1([H])[H])C2([H])[H])c1oc(N([H])C(=O)N2C([H])([H])C([H])([H])C([H])([H])C([H])(n3nc(-c4c([H])c([H])c(Oc5c([H])c([H])c(F)c([H])c5F)c([H])c4[H])c(C(=O)N([H])[H])c3N([H])[H])C2([H])[H])c([H])c1[H]

$$$$
45:0:0
     RDKit          3D

 95103  0  0  1  0  0  0  0  0999 V2000
  -29.4870  -18.5420   20.3020 C   0  0  0  0  0  0  0  0  0  0  0  0
  -30.5190  -19.0320   19.5100 C   0  0  0  0  0  0  0  0  0  0  0  0
  -29.1060  -20.9300   20.3610 C   0  0  0  0  0  0  0  0  0  0  0  0
  -28.6860  -19.6790   20.7510 N   0  0  0  0  0  0  0  0  0  0  0  0
  -28.5320  -22.2390   20.6120 N   0  0  0  0  0  0  0  0  0  0  0  0
  -30.5600  -20.7950   19.3960 S   0  0  0  0  0  0  0  0  0  0  0  0
  -27.6690  -22.1850   21.1430 H   0  0  0  0  0  0  0  0  0  0  0  0
  -30.7040  -14.8230   20.4050 C   0  0  0  0  0  0  0  0  0  0  0  0
  -30.3700  -12.5660   19.3970 C   0  0  0  0  0  2  0  0  0  0  0  0
  -29.4690  -12.5940   18.1490 C   0  0  0  0  0  2  0  0  0  0  0  0
  -27.9990  -12.4210   18.5640 C   0  0  0  0  0  2  0  0  0  0  0  0
  -27.6020  -13.3310   19.7580 C   0  0  0  0  0  3  0  0  0  0  0  0
  -28.6500  -13.3370   20.8930 C   0  0  0  0  0  2  0  0  0  0  0  0
  -29.9300  -13.6850   20.2760 N   0  0  0  0  0  0  0  0  0  0  0  0
  -31.9070  -14.7150   20.1760 O   0  0  0  0  0  0  0  0  0  0  0  0
  -29.2090  -16.9870   20.5330 C   0  0  0  0  0  0  0  0  0  0  0  0
  -30.3070  -16.1550   20.5080 N   0  0  0  0  0  0  0  0  0  0  0  0
  -28.0680  -16.5670   20.7330 O   0  0  0  0  0  0  0  0  0  0  0  0
  -31.1290  -16.7310   20.4340 H   0  0  0  0  0  0  0  0  0  0  0  0
  -25.2060  -13.9050   20.4440 C   0  0  0  0  0  0  0  0  0  0  0  0
  -24.1390  -13.1270   20.7950 C   0  0  0  0  0  0  0  0  0  0  0  0
  -24.6150  -11.7790   20.7970 C   0  0  0  0  0  0  0  0  0  0  0  0
  -26.2610  -13.0330   20.2440 N   0  0  0  0  0  0  0  0  0  0  0  0
  -25.9130  -11.7490   20.5210 N   0  0  0  0  0  0  0  0  0  0  0  0
  -23.8930  -10.5140   20.9880 C   0  0  0  0  0  0  0  0  0  0  0  0
  -24.3090   -9.5600   21.9430 C   0  0  0  0  0  3  0  0  0  0  0  0
  -23.5850   -8.3620   22.1200 C   0  0  0  0  0  3  0  0  0  0  0  0
  -22.4310   -8.1080   21.3420 C   0  0  0  0  0  0  0  0  0  0  0  0
  -22.0350   -9.0500   20.3760 C   0  0  0  0  0  3  0  0  0  0  0  0
  -22.7590  -10.2390   20.1980 C   0  0  0  0  0  3  0  0  0  0  0  0
  -21.6770   -6.9630   21.4290 O   0  0  0  0  0  0  0  0  0  0  0  0
  -21.6000   -6.2410   22.5930 C   0  0  0  0  0  0  0  0  0  0  0  0
  -21.1310   -6.8130   23.7960 C   0  0  0  0  0  3  0  0  0  0  0  0
  -21.0010   -6.0160   24.9510 C   0  0  0  0  0  3  0  0  0  0  0  0
  -21.3290   -4.6480   24.9040 C   0  0  0  0  0  0  0  0  0  0  0  0
  -21.7910   -4.0760   23.7050 C   0  0  0  0  0  3  0  0  0  0  0  0
  -21.9220   -4.8700   22.5530 C   0  0  0  0  0  0  0  0  0  0  0  0
  -22.3480   -4.3080   21.3950 F   0  0  0  0  0  0  0  0  0  0  0  0
  -21.1970   -3.8800   26.0100 F   0  0  0  0  0  0  0  0  0  0  0  0
  -22.7340  -13.5980   21.0300 C   0  0  0  0  0  0  0  0  0  0  0  0
  -21.9940  -12.9100   21.8920 N   0  0  0  0  0  0  0  0  0  0  0  0
  -22.3040  -14.6160   20.4880 O   0  0  0  0  0  0  0  0  0  0  0  0
  -22.3580  -12.0910   22.3550 H   0  0  0  0  0  0  0  0  0  0  0  0
  -21.0500  -13.2090   22.0930 H   0  0  0  0  0  0  0  0  0  0  0  0
  -25.3670  -15.2750   20.2580 N   0  0  0  0  0  0  0  0  0  0  0  0
  -24.6040  -15.9320   20.3760 H   0  0  0  0  0  0  0  0  0  0  0  0
  -26.2780  -15.7290   20.2130 H   0  0  0  0  0  0  0  0  0  0  0  0
  -31.4900  -18.2880   18.7580 C   0  0  0  0  0  3  0  0  0  0  0  0
  -32.8140  -18.4600   18.5580 C   0  0  0  0  0  0  0  0  0  0  0  0
  -33.5790  -17.5550   17.6120 C   0  0  0  0  0  1  0  0  0  0  0  0
  -33.6560  -19.5430   19.2150 C   0  0  0  0  0  1  0  0  0  0  0  0
  -28.9020  -23.6760   20.2440 C   0  0  0  0  0  2  0  0  0  0  0  0
  -27.9350  -24.9970   22.2490 C   0  0  0  0  0  1  0  0  0  0  0  0
  -27.9780  -24.9330   20.7140 C   0  0  0  0  0  3  0  0  0  0  0  0
  -28.2810  -26.3520   20.2640 O   0  0  0  0  0  0  0  0  0  0  0  0
  -24.6240  -31.9020   23.2240 C   0  0  0  0  0  0  0  0  0  0  0  0
  -27.2170  -27.2850   20.1970 C   0  0  0  0  0  0  0  0  0  0  0  0
  -23.4260  -30.4960   21.5890 C   0  0  0  0  0  3  0  0  0  0  0  0
  -24.8790  -28.9500   20.1550 C   0  0  0  0  0  0  0  0  0  0  0  0
  -25.9690  -30.8050   21.4120 C   0  0  0  0  0  2  0  0  0  0  0  0
  -26.0490  -29.4220   20.7660 C   0  0  0  0  0  0  0  0  0  0  0  0
  -27.2260  -28.6020   20.7740 C   0  0  0  0  0  3  0  0  0  0  0  0
  -26.0370  -26.9000   19.5270 C   0  0  0  0  0  3  0  0  0  0  0  0
  -24.8810  -27.7010   19.5200 C   0  0  0  0  0  3  0  0  0  0  0  0
  -23.6430  -29.8260   20.2070 C   0  0  0  0  0  2  0  0  0  0  0  0
  -24.6920  -31.0870   22.1310 N   0  0  0  0  0  0  0  0  0  0  0  0
  -23.5400  -32.1780   23.7580 O   0  0  0  0  0  0  0  0  0  0  0  0
  -22.7660  -29.4780   22.5500 C   0  0  0  0  0  0  0  0  0  0  0  0
  -21.4400  -29.2960   22.4280 N   0  0  0  0  0  0  0  0  0  0  0  0
  -23.4490  -28.8550   23.3690 O   0  0  0  0  0  0  0  0  0  0  0  0
  -20.9500  -29.8520   21.7410 H   0  0  0  0  0  0  0  0  0  0  0  0
  -18.0660  -28.0930   22.9470 C   0  0  0  0  0  0  0  0  0  0  0  0
  -20.6260  -28.3560   23.2010 C   0  0  0  0  0  3  0  0  0  0  0  0
  -20.7260  -26.9260   22.6230 C   0  0  0  0  0  2  0  0  0  0  0  0
  -19.6170  -26.6040   21.6140 C   0  0  0  0  0  2  0  0  0  0  0  0
  -18.2390  -26.7470   22.2670 C   0  0  0  0  0  2  0  0  0  0  0  0
  -19.1860  -28.8570   23.3710 C   0  0  0  0  0  0  0  0  0  0  0  0
  -18.9700  -30.1170   23.9680 C   0  0  0  0  0  3  0  0  0  0  0  0
  -17.6650  -30.6160   24.1440 C   0  0  0  0  0  3  0  0  0  0  0  0
  -16.5590  -29.8500   23.7360 C   0  0  0  0  0  3  0  0  0  0  0  0
  -16.7610  -28.5910   23.1430 C   0  0  0  0  0  3  0  0  0  0  0  0
  -25.9040  -32.5410   23.8460 C   0  0  0  0  0  3  0  0  0  0  0  0
  -26.4220  -31.7760   25.1260 C   0  0  1  0  0  0  0  0  0  0  0  0
  -25.3300  -31.5340   26.1930 C   0  0  0  0  0  1  0  0  0  0  0  0
  -27.0120  -30.3990   24.7390 C   0  0  0  0  0  1  0  0  0  0  0  0
  -27.5710  -32.5750   25.7840 C   0  0  0  0  0  1  0  0  0  0  0  0
  -25.5870  -33.9390   24.1750 N   0  0  0  0  0  0  0  0  0  0  0  0
  -25.9160  -34.9930   23.4160 C   0  0  0  0  0  0  0  0  0  0  0  0
  -26.5850  -34.8930   22.3830 O   0  0  0  0  0  0  0  0  0  0  0  0
  -24.9940  -34.0930   24.9770 H   0  0  0  0  0  0  0  0  0  0  0  0
  -24.1850  -36.7850   23.0580 C   0  0  0  0  0  1  0  0  0  0  0  0
  -25.4250  -36.3820   23.8720 C   0  0  0  0  0  3  0  0  0  0  0  0
  -27.5530  -37.2720   24.7130 C   0  0  0  0  0  1  0  0  0  0  0  0
  -26.4550  -37.4370   23.7650 N   0  0  0  0  0  0  0  0  0  0  0  0
  -26.0470  -38.3560   23.9080 H   0  0  0  0  0  0  0  0  0  0  0  0
  1 16  1  0
  1  4  1  0
  2  1  2  0
  3  5  1  0
  3  4  2  0
  5  7  1  0
  6  2  1  0
  6  3  1  0
  8 17  1  0
  9 14  1  0
 10 11  1  0
 10  9  1  0
 12 11  1  0
 12 23  1  0
 12 13  1  0
 14  8  1  0
 14 13  1  0
 15  8  2  0
 16 18  2  0
 17 16  1  0
 19 17  1  0
 20 21  2  0
 21 22  1  0
 21 40  1  0
 22 25  1  0
 23 20  1  0
 23 24  1  0
 24 22  2  0
 25 26  1  0
 26 27  2  0
 28 31  1  0
 28 27  1  0
 29 28  2  0
 30 29  1  0
 30 25  2  0
 31 32  1  0
 32 33  1  0
 33 34  2  0
 35 34  1  0
 35 39  1  0
 36 35  2  0
 37 32  2  0
 37 36  1  0
 38 37  1  0
 40 41  1  0
 41 44  1  0
 41 43  1  0
 42 40  2  0
 45 46  1  0
 45 20  1  0
 47 45  1  0
 48  2  1  0
 49 48  2  0
 49 51  1  0
 50 49  1  0
 52  5  1  0
 52 54  1  0
 54 53  1  0
 55 54  1  0
 56 67  2  0
 57 55  1  0
 57 62  1  0
 58 66  1  0
 58 68  1  0
 59 65  1  0
 59 61  1  0
 60 66  1  0
 61 62  2  0
 61 60  1  0
 63 57  2  0
 64 63  1  0
 64 59  2  0
 65 58  1  0
 66 56  1  0
 68 70  2  0
 69 68  1  0
 71 69  1  0
 72 81  2  0
 72 77  1  0
 73 69  1  0
 73 77  1  0
 74 73  1  0
 75 76  1  0
 75 74  1  0
 76 72  1  0
 77 78  2  0
 78 79  1  0
 80 79  2  0
 81 80  1  0
 82 56  1  0
 82 87  1  0
 82 83  1  0
 83 86  1  1
 83 84  1  0
 85 83  1  0
 87 90  1  0
 88 92  1  0
 88 87  1  0
 89 88  2  0
 92 91  1  0
 94 92  1  0
 94 95  1  0
 94 93  1  0
M  ISO  4   8 100  17 100  54 101  55 101
M  END
>  <TORSDO>  (46) 
F 19

>  <SCORE>  (46) 
-14.361

>  <name>  (46) 
45

>  <ligand_id>  (46) 
45

>  <original_smiles>  (46) 
[H]C(=C(C([H])([H])[H])C([H])([H])[H])c1sc(N([H])C([H])([H])C([H])(Oc2c([H])c([H])c3c(c2[H])C([H])([H])N(C(=O)C([H])(N([H])C(=O)C([H])(N([H])C([H])([H])[H])C([H])([H])[H])C(C([H])([H])[H])(C([H])([H])[H])C([H])([H])[H])C([H])(C(=O)N([H])C2([H])c4c([H])c([H])c([H])c([H])c4C([H])([H])C([H])([H])C2([H])[H])C3([H])[H])C([H])([H])[H])nc1C(=O)N([H])C(=O)N1C([H])([H])C([H])([H])C([H])([H])C([H])(n2nc(-c3c([H])c([H])c(Oc4c([H])c([H])c(F)c([H])c4F)c([H])c3[H])c(C(=O)N([H])[H])c2N([H])[H])C1([H])[H]

>  <smiles>  (46) 
[H]C(=C(C([H])([H])[H])C([H])([H])[H])c1sc(N([H])C([H])([H])C([H])(Oc2c([H])c([H])c3c(c2[H])C([H])([H])N(C(=O)C([H])(N([H])C(=O)C([H])(N([H])C([H])([H])[H])C([H])([H])[H])C(C([H])([H])[H])(C([H])([H])[H])C([H])([H])[H])C([H])(C(=O)N([H])C2([H])c4c([H])c([H])c([H])c([H])c4C([H])([H])C([H])([H])C2([H])[H])C3([H])[H])C([H])([H])[H])nc1C(=O)N([H])C(=O)N1C([H])([H])C([H])([H])C([H])([H])C([H])(n2nc(-c3c([H])c([H])c(Oc4c([H])c([H])c(F)c([H])c4F)c([H])c3[H])c(C(=O)N([H])[H])c2N([H])[H])C1([H])[H]

$$$$
46:0:0
     RDKit          3D

 94102  0  0  1  0  0  0  0  0999 V2000
  -29.6590  -19.4630   19.2480 C   0  0  0  0  0  3  0  0  0  0  0  0
  -30.4930  -18.3790   21.6560 C   0  0  0  0  0  3  0  0  0  0  0  0
  -30.0930  -20.3980   20.2310 C   0  0  0  0  0  0  0  0  0  0  0  0
  -30.5200  -19.8040   21.4550 C   0  0  0  0  0  0  0  0  0  0  0  0
  -30.1190  -17.4480   20.6380 C   0  0  0  0  0  0  0  0  0  0  0  0
  -29.6630  -18.0330   19.4230 C   0  0  0  0  0  0  0  0  0  0  0  0
  -30.7810  -14.9380   20.3840 C   0  0  0  0  0  0  0  0  0  0  0  0
  -30.5910  -12.7180   19.2640 C   0  0  0  0  0  2  0  0  0  0  0  0
  -29.6380  -12.8480   18.0570 C   0  0  0  0  0  2  0  0  0  0  0  0
  -28.1740  -12.6560   18.4900 C   0  0  0  0  0  2  0  0  0  0  0  0
  -27.8080  -13.4940   19.7440 C   0  0  0  0  0  3  0  0  0  0  0  0
  -28.8710  -13.3290   20.8570 C   0  0  0  0  0  2  0  0  0  0  0  0
  -30.1730  -13.7060   20.2860 N   0  0  0  0  0  0  0  0  0  0  0  0
  -31.9280  -15.1010   19.9570 O   0  0  0  0  0  0  0  0  0  0  0  0
  -30.0380  -15.9880   20.8810 N   0  0  0  0  0  0  0  0  0  0  0  0
  -29.1820  -15.6910   21.3260 H   0  0  0  0  0  0  0  0  0  0  0  0
  -25.4080  -14.0570   20.4740 C   0  0  0  0  0  0  0  0  0  0  0  0
  -24.3490  -13.2700   20.8370 C   0  0  0  0  0  0  0  0  0  0  0  0
  -24.8240  -11.9230   20.7940 C   0  0  0  0  0  0  0  0  0  0  0  0
  -26.4610  -13.1900   20.2280 N   0  0  0  0  0  0  0  0  0  0  0  0
  -26.1150  -11.9010   20.4810 N   0  0  0  0  0  0  0  0  0  0  0  0
  -24.1110  -10.6510   20.9770 C   0  0  0  0  0  0  0  0  0  0  0  0
  -24.5310   -9.6970   21.9320 C   0  0  0  0  0  3  0  0  0  0  0  0
  -23.8160   -8.4920   22.0990 C   0  0  0  0  0  3  0  0  0  0  0  0
  -22.6690   -8.2310   21.3140 C   0  0  0  0  0  0  0  0  0  0  0  0
  -22.2680   -9.1730   20.3500 C   0  0  0  0  0  3  0  0  0  0  0  0
  -22.9830  -10.3690   20.1790 C   0  0  0  0  0  3  0  0  0  0  0  0
  -21.9330   -7.0720   21.3860 O   0  0  0  0  0  0  0  0  0  0  0  0
  -21.8390   -6.3500   22.5480 C   0  0  0  0  0  0  0  0  0  0  0  0
  -21.3080   -6.9070   23.7330 C   0  0  0  0  0  3  0  0  0  0  0  0
  -21.1700   -6.1090   24.8860 C   0  0  0  0  0  3  0  0  0  0  0  0
  -21.5540   -4.7540   24.8540 C   0  0  0  0  0  0  0  0  0  0  0  0
  -22.0790   -4.1960   23.6760 C   0  0  0  0  0  3  0  0  0  0  0  0
  -22.2180   -4.9920   22.5250 C   0  0  0  0  0  0  0  0  0  0  0  0
  -22.7060   -4.4460   21.3860 F   0  0  0  0  0  0  0  0  0  0  0  0
  -21.4140   -3.9840   25.9580 F   0  0  0  0  0  0  0  0  0  0  0  0
  -22.9490  -13.7310   21.1130 C   0  0  0  0  0  0  0  0  0  0  0  0
  -22.2240  -13.0210   21.9720 N   0  0  0  0  0  0  0  0  0  0  0  0
  -22.4990  -14.7560   20.6000 O   0  0  0  0  0  0  0  0  0  0  0  0
  -22.5940  -12.1920   22.4160 H   0  0  0  0  0  0  0  0  0  0  0  0
  -21.2870  -13.3190   22.2020 H   0  0  0  0  0  0  0  0  0  0  0  0
  -25.5580  -15.4310   20.3100 N   0  0  0  0  0  0  0  0  0  0  0  0
  -24.7880  -16.0770   20.4450 H   0  0  0  0  0  0  0  0  0  0  0  0
  -26.3910  -15.8800   19.9440 H   0  0  0  0  0  0  0  0  0  0  0  0
  -31.0670  -20.6190   22.4410 N   0  0  0  0  0  0  0  0  0  0  0  0
  -31.1550  -20.2960   23.3990 H   0  0  0  0  0  0  0  0  0  0  0  0
  -31.0520  -21.6290   22.3210 H   0  0  0  0  0  0  0  0  0  0  0  0
  -30.0470  -22.9910   19.8990 C   0  0  0  0  0  3  0  0  0  0  0  0
  -30.4420  -21.7360   19.8000 N   0  0  0  0  0  0  0  0  0  0  0  0
  -28.9160  -23.8970   20.5540 C   0  0  0  0  0  2  0  0  0  0  0  0
  -28.6140  -25.3150   19.8080 C   0  0  0  0  0  2  0  0  0  0  0  0
  -28.4230  -26.6340   20.5020 O   0  0  0  0  0  0  0  0  0  0  0  0
  -24.5450  -32.0400   23.3590 C   0  0  0  0  0  0  0  0  0  0  0  0
  -27.2800  -27.4590   20.3890 C   0  0  0  0  0  0  0  0  0  0  0  0
  -23.3970  -30.6210   21.6980 C   0  0  0  0  0  3  0  0  0  0  0  0
  -24.8950  -29.0700   20.3180 C   0  0  0  0  0  0  0  0  0  0  0  0
  -25.9390  -30.9550   21.5770 C   0  0  0  0  0  2  0  0  0  0  0  0
  -26.0440  -29.5690   20.9430 C   0  0  0  0  0  0  0  0  0  0  0  0
  -27.2330  -28.7740   20.9700 C   0  0  0  0  0  3  0  0  0  0  0  0
  -26.0990  -27.0210   19.7460 C   0  0  0  0  0  3  0  0  0  0  0  0
  -24.9290  -27.8060   19.7100 C   0  0  0  0  0  3  0  0  0  0  0  0
  -23.6520  -29.9350   20.3290 C   0  0  0  0  0  2  0  0  0  0  0  0
  -24.6450  -31.2240   22.2690 N   0  0  0  0  0  0  0  0  0  0  0  0
  -23.4450  -32.3080   23.8640 O   0  0  0  0  0  0  0  0  0  0  0  0
  -22.7140  -29.6110   22.6500 C   0  0  0  0  0  0  0  0  0  0  0  0
  -21.3910  -29.4240   22.4920 N   0  0  0  0  0  0  0  0  0  0  0  0
  -23.3740  -28.9980   23.4920 O   0  0  0  0  0  0  0  0  0  0  0  0
  -20.9160  -29.9670   21.7850 H   0  0  0  0  0  0  0  0  0  0  0  0
  -18.0070  -28.2350   22.9540 C   0  0  0  0  0  0  0  0  0  0  0  0
  -20.5630  -28.4900   23.2510 C   0  0  0  0  0  3  0  0  0  0  0  0
  -20.6680  -27.0580   22.6720 C   0  0  0  0  0  2  0  0  0  0  0  0
  -19.5760  -26.7430   21.6440 C   0  0  0  0  0  2  0  0  0  0  0  0
  -18.1890  -26.8880   22.2740 C   0  0  0  0  0  2  0  0  0  0  0  0
  -19.1220  -28.9930   23.3990 C   0  0  0  0  0  0  0  0  0  0  0  0
  -18.8980  -30.2520   23.9960 C   0  0  0  0  0  3  0  0  0  0  0  0
  -17.5920  -30.7550   24.1500 C   0  0  0  0  0  3  0  0  0  0  0  0
  -16.4910  -29.9950   23.7160 C   0  0  0  0  0  3  0  0  0  0  0  0
  -16.6990  -28.7350   23.1250 C   0  0  0  0  0  3  0  0  0  0  0  0
  -25.8060  -32.6910   24.0070 C   0  0  0  0  0  3  0  0  0  0  0  0
  -25.4890  -34.1020   24.2700 N   0  0  0  0  0  0  0  0  0  0  0  0
  -25.8590  -35.1250   23.4890 C   0  0  0  0  0  0  0  0  0  0  0  0
  -26.5680  -34.9800   22.4890 O   0  0  0  0  0  0  0  0  0  0  0  0
  -24.8610  -34.2840   25.0370 H   0  0  0  0  0  0  0  0  0  0  0  0
  -24.1620  -36.9170   22.9970 C   0  0  0  0  0  1  0  0  0  0  0  0
  -25.3630  -36.5330   23.8770 C   0  0  0  0  0  3  0  0  0  0  0  0
  -27.4620  -37.4360   24.7790 C   0  0  0  0  0  1  0  0  0  0  0  0
  -26.4100  -37.5750   23.7750 N   0  0  0  0  0  0  0  0  0  0  0  0
  -26.0040  -38.5020   23.8660 H   0  0  0  0  0  0  0  0  0  0  0  0
  -26.2590  -31.9720   25.3370 C   0  0  1  0  0  0  0  0  0  0  0  0
  -25.1130  -31.7750   26.3560 C   0  0  0  0  0  1  0  0  0  0  0  0
  -26.8640  -30.5820   25.0310 C   0  0  0  0  0  1  0  0  0  0  0  0
  -27.3780  -32.7930   26.0250 C   0  0  0  0  0  1  0  0  0  0  0  0
  -28.7130  -17.6770   17.2380 C   0  0  0  0  0  1  0  0  0  0  0  0
  -29.2420  -17.1510   18.4500 O   0  0  0  0  0  0  0  0  0  0  0  0
  1  6  2  0
  1  3  1  0
  3  4  2  0
  4  2  1  0
  4 45  1  0
  5 15  1  0
  5  2  2  0
  6  5  1  0
  7 15  1  0
  8 13  1  0
  9 10  1  0
  9  8  1  0
 11 10  1  0
 11 20  1  0
 11 12  1  0
 13  7  1  0
 13 12  1  0
 14  7  2  0
 15 16  1  0
 17 18  2  0
 18 37  1  0
 19 18  1  0
 19 22  1  0
 20 17  1  0
 20 21  1  0
 21 19  2  0
 22 23  1  0
 23 24  2  0
 25 28  1  0
 25 24  1  0
 26 25  2  0
 27 26  1  0
 27 22  2  0
 28 29  1  0
 29 30  1  0
 30 31  2  0
 32 31  1  0
 32 36  1  0
 33 32  2  0
 34 29  2  0
 34 33  1  0
 35 34  1  0
 37 38  1  0
 38 41  1  0
 38 40  1  0
 39 37  2  0
 42 43  1  0
 42 17  1  0
 44 42  1  0
 45 46  1  0
 47 45  1  0
 48 50  1  0
 49 48  2  0
 49  3  1  0
 51 52  1  0
 51 50  1  0
 53 64  2  0
 54 52  1  0
 54 59  1  0
 55 63  1  0
 55 65  1  0
 56 62  1  0
 56 58  1  0
 57 63  1  0
 58 59  2  0
 58 57  1  0
 60 54  2  0
 61 60  1  0
 61 56  2  0
 62 55  1  0
 63 53  1  0
 65 67  2  0
 66 65  1  0
 68 66  1  0
 69 78  2  0
 69 74  1  0
 70 66  1  0
 70 74  1  0
 71 70  1  0
 72 73  1  0
 72 71  1  0
 73 69  1  0
 74 75  2  0
 75 76  1  0
 77 76  2  0
 78 77  1  0
 79 53  1  0
 79 80  1  0
 79 89  1  0
 80 83  1  0
 81 85  1  0
 81 80  1  0
 82 81  2  0
 85 84  1  0
 87 88  1  0
 87 85  1  0
 87 86  1  0
 89 92  1  1
 89 90  1  0
 91 89  1  0
 93 94  1  0
 94  6  1  0
M  ISO  4   7 100  15 100  51 101  52 101
M  END
>  <TORSDO>  (47) 
F 21

>  <SCORE>  (47) 
-12.874

>  <name>  (47) 
46

>  <ligand_id>  (47) 
46

>  <original_smiles>  (47) 
[H]C(=Nc1c([H])c(OC([H])([H])[H])c(N([H])C(=O)N2C([H])([H])C([H])([H])C([H])([H])C([H])(n3nc(-c4c([H])c([H])c(Oc5c([H])c([H])c(F)c([H])c5F)c([H])c4[H])c(C(=O)N([H])[H])c3N([H])[H])C2([H])[H])c([H])c1N([H])[H])C([H])([H])C([H])([H])Oc1c([H])c([H])c2c(c1[H])C([H])([H])N(C(=O)C([H])(N([H])C(=O)C([H])(N([H])C([H])([H])[H])C([H])([H])[H])C(C([H])([H])[H])(C([H])([H])[H])C([H])([H])[H])C([H])(C(=O)N([H])C1([H])c3c([H])c([H])c([H])c([H])c3C([H])([H])C([H])([H])C1([H])[H])C2([H])[H]

>  <smiles>  (47) 
[H]C(=Nc1c([H])c(OC([H])([H])[H])c(N([H])C(=O)N2C([H])([H])C([H])([H])C([H])([H])C([H])(n3nc(-c4c([H])c([H])c(Oc5c([H])c([H])c(F)c([H])c5F)c([H])c4[H])c(C(=O)N([H])[H])c3N([H])[H])C2([H])[H])c([H])c1N([H])[H])C([H])([H])C([H])([H])Oc1c([H])c([H])c2c(c1[H])C([H])([H])N(C(=O)C([H])(N([H])C(=O)C([H])(N([H])C([H])([H])[H])C([H])([H])[H])C(C([H])([H])[H])(C([H])([H])[H])C([H])([H])[H])C([H])(C(=O)N([H])C1([H])c3c([H])c([H])c([H])c([H])c3C([H])([H])C([H])([H])C1([H])[H])C2([H])[H]

$$$$
47:0:0
     RDKit          3D

 95104  0  0  1  0  0  0  0  0999 V2000
  -28.1910  -24.0770   19.4040 C   0  0  0  0  0  0  0  0  0  0  0  0
  -27.3170  -23.3080   18.7280 C   0  0  0  0  0  0  0  0  0  0  0  0
  -28.9420  -23.1650   20.2840 C   0  0  0  0  0  0  0  0  0  0  0  0
  -27.4180  -21.8550   19.1340 C   0  0  0  0  0  2  0  0  0  0  0  0
  -28.5170  -21.8760   20.0940 N   0  0  0  0  0  0  0  0  0  0  0  0
  -29.8100  -23.4950   21.0970 O   0  0  0  0  0  0  0  0  0  0  0  0
  -24.9030  -23.3640   17.8950 C   0  0  0  0  0  1  0  0  0  0  0  0
  -26.3760  -23.6970   17.5880 C   0  0  0  0  0  2  0  0  0  0  0  0
  -28.7940  -20.6720   20.9560 C   0  0  0  0  0  2  0  0  0  0  0  0
  -30.6200  -14.6440   20.2240 C   0  0  0  0  0  0  0  0  0  0  0  0
  -30.3790  -12.4470   19.1120 C   0  0  0  0  0  2  0  0  0  0  0  0
  -29.3980  -12.6190   17.9340 C   0  0  0  0  0  2  0  0  0  0  0  0
  -27.9360  -12.4580   18.3860 C   0  0  0  0  0  2  0  0  0  0  0  0
  -27.6150  -13.2850   19.6580 C   0  0  0  0  0  3  0  0  0  0  0  0
  -28.6950  -13.0870   20.7420 C   0  0  0  0  0  2  0  0  0  0  0  0
  -29.9970  -13.4300   20.1450 N   0  0  0  0  0  0  0  0  0  0  0  0
  -31.7880  -14.7780   19.8350 O   0  0  0  0  0  0  0  0  0  0  0  0
  -29.5380  -19.4300   20.3900 C   0  0  0  0  0  0  0  0  0  0  0  0
  -30.6770  -19.4240   19.6140 C   0  0  0  0  0  0  0  0  0  0  0  0
  -30.0060  -17.1200   20.3000 C   0  0  0  0  0  0  0  0  0  0  0  0
  -31.4710  -20.5920   19.1330 C   0  0  0  0  0  1  0  0  0  0  0  0
  -29.1810  -18.0930   20.7700 N   0  0  0  0  0  0  0  0  0  0  0  0
  -29.8400  -15.7060   20.5990 N   0  0  0  0  0  0  0  0  0  0  0  0
  -31.2590  -17.8050   19.2690 S   0  0  0  0  0  0  0  0  0  0  0  0
  -28.9560  -15.4520   21.0090 H   0  0  0  0  0  0  0  0  0  0  0  0
  -25.2420  -13.8880   20.4290 C   0  0  0  0  0  0  0  0  0  0  0  0
  -24.1820  -13.1160   20.8200 C   0  0  0  0  0  0  0  0  0  0  0  0
  -24.6400  -11.7630   20.7700 C   0  0  0  0  0  0  0  0  0  0  0  0
  -26.2780  -13.0030   20.1670 N   0  0  0  0  0  0  0  0  0  0  0  0
  -25.9230  -11.7210   20.4320 N   0  0  0  0  0  0  0  0  0  0  0  0
  -23.9150  -10.5030   20.9700 C   0  0  0  0  0  0  0  0  0  0  0  0
  -24.3500   -9.5400   21.9070 C   0  0  0  0  0  3  0  0  0  0  0  0
  -23.6250   -8.3440   22.0900 C   0  0  0  0  0  3  0  0  0  0  0  0
  -22.4520   -8.1020   21.3400 C   0  0  0  0  0  0  0  0  0  0  0  0
  -22.0370   -9.0540   20.3910 C   0  0  0  0  0  3  0  0  0  0  0  0
  -22.7620  -10.2420   20.2060 C   0  0  0  0  0  3  0  0  0  0  0  0
  -21.7010   -6.9560   21.4340 O   0  0  0  0  0  0  0  0  0  0  0  0
  -21.6350   -6.2290   22.5980 C   0  0  0  0  0  0  0  0  0  0  0  0
  -21.1760   -6.7970   23.8040 C   0  0  0  0  0  3  0  0  0  0  0  0
  -21.0620   -5.9980   24.9590 C   0  0  0  0  0  3  0  0  0  0  0  0
  -21.3910   -4.6320   24.9060 C   0  0  0  0  0  0  0  0  0  0  0  0
  -21.8420   -4.0620   23.7020 C   0  0  0  0  0  3  0  0  0  0  0  0
  -21.9590   -4.8590   22.5500 C   0  0  0  0  0  0  0  0  0  0  0  0
  -22.3730   -4.3000   21.3850 F   0  0  0  0  0  0  0  0  0  0  0  0
  -21.2730   -3.8610   26.0130 F   0  0  0  0  0  0  0  0  0  0  0  0
  -22.7930  -13.5940   21.1280 C   0  0  0  0  0  0  0  0  0  0  0  0
  -22.0810  -12.8890   22.0020 N   0  0  0  0  0  0  0  0  0  0  0  0
  -22.3480  -14.6280   20.6310 O   0  0  0  0  0  0  0  0  0  0  0  0
  -22.4520  -12.0500   22.4230 H   0  0  0  0  0  0  0  0  0  0  0  0
  -21.1520  -13.1940   22.2550 H   0  0  0  0  0  0  0  0  0  0  0  0
  -25.4090  -15.2600   20.2540 N   0  0  0  0  0  0  0  0  0  0  0  0
  -24.6510  -15.9220   20.3730 H   0  0  0  0  0  0  0  0  0  0  0  0
  -26.2480  -15.6940   19.8900 H   0  0  0  0  0  0  0  0  0  0  0  0
  -28.5630  -25.5750   19.1200 C   0  0  0  0  0  2  0  0  0  0  0  0
  -28.3240  -26.6080   20.1290 O   0  0  0  0  0  0  0  0  0  0  0  0
  -24.5470  -31.8890   23.1930 C   0  0  0  0  0  0  0  0  0  0  0  0
  -27.1830  -27.4040   20.0880 C   0  0  0  0  0  0  0  0  0  0  0  0
  -23.3460  -30.4850   21.5540 C   0  0  0  0  0  3  0  0  0  0  0  0
  -24.7990  -28.9600   20.1070 C   0  0  0  0  0  0  0  0  0  0  0  0
  -25.8730  -30.8380   21.3540 C   0  0  0  0  0  2  0  0  0  0  0  0
  -25.9600  -29.4650   20.7060 C   0  0  0  0  0  0  0  0  0  0  0  0
  -27.1530  -28.6900   20.7000 C   0  0  0  0  0  3  0  0  0  0  0  0
  -26.0000  -26.9380   19.4780 C   0  0  0  0  0  3  0  0  0  0  0  0
  -24.8200  -27.7040   19.4820 C   0  0  0  0  0  3  0  0  0  0  0  0
  -23.5510  -29.8180   20.1680 C   0  0  0  0  0  2  0  0  0  0  0  0
  -24.6080  -31.0850   22.0910 N   0  0  0  0  0  0  0  0  0  0  0  0
  -23.4650  -32.1560   23.7330 O   0  0  0  0  0  0  0  0  0  0  0  0
  -22.6970  -29.4620   22.5130 C   0  0  0  0  0  0  0  0  0  0  0  0
  -21.3700  -29.2820   22.3900 N   0  0  0  0  0  0  0  0  0  0  0  0
  -23.3800  -28.8320   23.3240 O   0  0  0  0  0  0  0  0  0  0  0  0
  -20.8800  -29.8420   21.7060 H   0  0  0  0  0  0  0  0  0  0  0  0
  -17.9910  -28.0990   22.9100 C   0  0  0  0  0  0  0  0  0  0  0  0
  -20.5520  -28.3430   23.1600 C   0  0  0  0  0  3  0  0  0  0  0  0
  -20.6450  -26.9170   22.5690 C   0  0  0  0  0  2  0  0  0  0  0  0
  -19.5300  -26.6090   21.5630 C   0  0  0  0  0  2  0  0  0  0  0  0
  -18.1550  -26.7560   22.2210 C   0  0  0  0  0  2  0  0  0  0  0  0
  -19.1180  -28.8510   23.3370 C   0  0  0  0  0  0  0  0  0  0  0  0
  -18.9110  -30.1090   23.9420 C   0  0  0  0  0  3  0  0  0  0  0  0
  -17.6100  -30.6180   24.1200 C   0  0  0  0  0  3  0  0  0  0  0  0
  -16.4980  -29.8620   23.7110 C   0  0  0  0  0  3  0  0  0  0  0  0
  -16.6910  -28.6030   23.1140 C   0  0  0  0  0  3  0  0  0  0  0  0
  -25.8320  -32.5210   23.8140 C   0  0  0  0  0  3  0  0  0  0  0  0
  -26.3580  -31.7420   25.0820 C   0  0  1  0  0  0  0  0  0  0  0  0
  -25.2700  -31.4870   26.1500 C   0  0  0  0  0  1  0  0  0  0  0  0
  -26.9460  -30.3720   24.6740 C   0  0  0  0  0  1  0  0  0  0  0  0
  -27.5040  -32.5390   25.7520 C   0  0  0  0  0  1  0  0  0  0  0  0
  -25.5150  -33.9170   24.1550 N   0  0  0  0  0  0  0  0  0  0  0  0
  -25.8370  -34.9770   23.4030 C   0  0  0  0  0  0  0  0  0  0  0  0
  -26.5090  -34.8860   22.3710 O   0  0  0  0  0  0  0  0  0  0  0  0
  -24.9160  -34.0610   24.9540 H   0  0  0  0  0  0  0  0  0  0  0  0
  -24.1030  -36.7680   23.0600 C   0  0  0  0  0  1  0  0  0  0  0  0
  -25.3410  -36.3580   23.8710 C   0  0  0  0  0  3  0  0  0  0  0  0
  -27.4640  -37.2470   24.7280 C   0  0  0  0  0  1  0  0  0  0  0  0
  -26.3690  -37.4170   23.7780 N   0  0  0  0  0  0  0  0  0  0  0  0
  -25.9570  -38.3330   23.9330 H   0  0  0  0  0  0  0  0  0  0  0  0
  1  3  1  0
  2  4  1  0
  2  1  2  0
  3  6  2  0
  4  5  1  0
  5  3  1  0
  5  9  1  0
  8  7  1  0
  8  2  1  0
 10 23  1  0
 11 16  1  0
 12 13  1  0
 12 11  1  0
 14 13  1  0
 14 29  1  0
 14 15  1  0
 16 10  1  0
 16 15  1  0
 17 10  2  0
 18 22  1  0
 18  9  1  0
 19 18  2  0
 20 23  1  0
 20 22  2  0
 21 19  1  0
 23 25  1  0
 24 19  1  0
 24 20  1  0
 26 27  2  0
 27 46  1  0
 28 27  1  0
 28 31  1  0
 29 26  1  0
 29 30  1  0
 30 28  2  0
 31 32  1  0
 32 33  2  0
 34 37  1  0
 34 33  1  0
 35 34  2  0
 36 35  1  0
 36 31  2  0
 37 38  1  0
 38 39  1  0
 39 40  2  0
 41 40  1  0
 41 45  1  0
 42 41  2  0
 43 38  2  0
 43 42  1  0
 44 43  1  0
 46 47  1  0
 47 50  1  0
 47 49  1  0
 48 46  2  0
 51 52  1  0
 51 26  1  0
 53 51  1  0
 54  1  1  0
 54 55  1  0
 56 67  2  0
 57 55  1  0
 57 62  1  0
 58 66  1  0
 58 68  1  0
 59 65  1  0
 59 61  1  0
 60 66  1  0
 61 60  1  0
 62 61  2  0
 63 64  1  0
 63 57  2  0
 64 59  2  0
 65 58  1  0
 66 56  1  0
 68 70  2  0
 69 68  1  0
 71 69  1  0
 72 81  2  0
 72 77  1  0
 73 69  1  0
 73 77  1  0
 74 73  1  0
 75 76  1  0
 75 74  1  0
 76 72  1  0
 77 78  2  0
 78 79  1  0
 80 79  2  0
 81 80  1  0
 82 56  1  0
 82 87  1  0
 82 83  1  0
 83 86  1  1
 83 84  1  0
 85 83  1  0
 87 90  1  0
 88 92  1  0
 88 87  1  0
 89 88  2  0
 92 91  1  0
 94 92  1  0
 94 95  1  0
 94 93  1  0
M  ISO  4  10 100  23 100  54 101  55 101
M  END
>  <TORSDO>  (48) 
F 19

>  <SCORE>  (48) 
-14.527

>  <name>  (48) 
47

>  <ligand_id>  (48) 
47

>  <original_smiles>  (48) 
[H]c1c([H])c([H])c2c(c1[H])C([H])([H])C([H])([H])C([H])([H])C2([H])N([H])C(=O)C1([H])N(C(=O)C([H])(N([H])C(=O)C([H])(N([H])C([H])([H])[H])C([H])([H])[H])C(C([H])([H])[H])(C([H])([H])[H])C([H])([H])[H])C([H])([H])c2c([H])c(OC([H])([H])C3=C(C([H])([H])C([H])([H])[H])C([H])([H])N(C([H])([H])c4nc(N([H])C(=O)N5C([H])([H])C([H])([H])C([H])([H])C([H])(n6nc(-c7c([H])c([H])c(Oc8c([H])c([H])c(F)c([H])c8F)c([H])c7[H])c(C(=O)N([H])[H])c6N([H])[H])C5([H])[H])sc4C([H])([H])[H])C3=O)c([H])c([H])c2C1([H])[H]

>  <smiles>  (48) 
[H]c1c([H])c([H])c2c(c1[H])C([H])([H])C([H])([H])C([H])([H])C2([H])N([H])C(=O)C1([H])N(C(=O)C([H])(N([H])C(=O)C([H])(N([H])C([H])([H])[H])C([H])([H])[H])C(C([H])([H])[H])(C([H])([H])[H])C([H])([H])[H])C([H])([H])c2c([H])c(OC([H])([H])C3=C(C([H])([H])C([H])([H])[H])C([H])([H])N(C([H])([H])c4nc(N([H])C(=O)N5C([H])([H])C([H])([H])C([H])([H])C([H])(n6nc(-c7c([H])c([H])c(Oc8c([H])c([H])c(F)c([H])c8F)c([H])c7[H])c(C(=O)N([H])[H])c6N([H])[H])C5([H])[H])sc4C([H])([H])[H])C3=O)c([H])c([H])c2C1([H])[H]

$$$$
48:0:0
     RDKit          3D

 90 98  0  0  1  0  0  0  0  0999 V2000
  -30.4650  -18.7380   19.3160 C   0  0  0  0  0  0  0  0  0  0  0  0
  -29.7950  -17.9640   20.2680 C   0  0  0  0  0  0  0  0  0  0  0  0
  -29.2900  -20.6400   20.1820 C   0  0  0  0  0  0  0  0  0  0  0  0
  -30.1980  -20.1640   19.3050 N   0  0  0  0  0  0  0  0  0  0  0  0
  -28.8050  -22.0360   20.3500 N   0  0  0  0  0  0  0  0  0  0  0  0
  -28.7530  -19.1790   21.1390 S   0  0  0  0  0  0  0  0  0  0  0  0
  -28.0630  -22.0280   21.0430 H   0  0  0  0  0  0  0  0  0  0  0  0
  -30.7450  -18.2190   16.8760 C   0  0  0  0  0  1  0  0  0  0  0  0
  -31.4020  -18.2310   18.2620 C   0  0  0  0  0  2  0  0  0  0  0  0
  -29.7030  -16.3630   20.6360 C   0  0  0  0  0  2  0  0  0  0  0  0
  -30.5550  -15.0320   20.1370 C   0  0  0  0  0  0  0  0  0  0  0  0
  -30.4630  -12.6920   19.1470 C   0  0  0  0  0  2  0  0  0  0  0  0
  -29.4980  -12.6910   17.9370 C   0  0  0  0  0  2  0  0  0  0  0  0
  -28.0420  -12.4670   18.3930 C   0  0  0  0  0  2  0  0  0  0  0  0
  -27.6630  -13.3620   19.6010 C   0  0  0  0  0  3  0  0  0  0  0  0
  -28.7430  -13.3240   20.7030 C   0  0  0  0  0  2  0  0  0  0  0  0
  -30.0110  -13.7490   20.0920 N   0  0  0  0  0  0  0  0  0  0  0  0
  -31.7200  -15.1530   19.7410 O   0  0  0  0  0  0  0  0  0  0  0  0
  -25.2860  -13.9290   20.3740 C   0  0  0  0  0  0  0  0  0  0  0  0
  -24.2340  -13.1460   20.7650 C   0  0  0  0  0  0  0  0  0  0  0  0
  -24.7110  -11.7990   20.7330 C   0  0  0  0  0  0  0  0  0  0  0  0
  -26.3330  -13.0580   20.1200 N   0  0  0  0  0  0  0  0  0  0  0  0
  -25.9960  -11.7730   20.3990 N   0  0  0  0  0  0  0  0  0  0  0  0
  -23.9980  -10.5320   20.9420 C   0  0  0  0  0  0  0  0  0  0  0  0
  -24.4390   -9.5850   21.8930 C   0  0  0  0  0  3  0  0  0  0  0  0
  -23.7270   -8.3820   22.0890 C   0  0  0  0  0  3  0  0  0  0  0  0
  -22.5580   -8.1180   21.3350 C   0  0  0  0  0  0  0  0  0  0  0  0
  -22.1380   -9.0530   20.3720 C   0  0  0  0  0  3  0  0  0  0  0  0
  -22.8520  -10.2470   20.1750 C   0  0  0  0  0  3  0  0  0  0  0  0
  -21.8170   -6.9660   21.4390 O   0  0  0  0  0  0  0  0  0  0  0  0
  -21.7580   -6.2520   22.6080 C   0  0  0  0  0  0  0  0  0  0  0  0
  -21.2590   -6.8170   23.8030 C   0  0  0  0  0  3  0  0  0  0  0  0
  -21.1500   -6.0270   24.9640 C   0  0  0  0  0  3  0  0  0  0  0  0
  -21.5300   -4.6720   24.9320 C   0  0  0  0  0  0  0  0  0  0  0  0
  -22.0210   -4.1050   23.7430 C   0  0  0  0  0  3  0  0  0  0  0  0
  -22.1320   -4.8940   22.5840 C   0  0  0  0  0  0  0  0  0  0  0  0
  -22.5860   -4.3370   21.4350 F   0  0  0  0  0  0  0  0  0  0  0  0
  -21.4180   -3.9100   26.0450 F   0  0  0  0  0  0  0  0  0  0  0  0
  -22.8380  -13.6120   21.0570 C   0  0  0  0  0  0  0  0  0  0  0  0
  -22.1300  -12.9090   21.9330 N   0  0  0  0  0  0  0  0  0  0  0  0
  -22.3850  -14.6340   20.5450 O   0  0  0  0  0  0  0  0  0  0  0  0
  -22.5130  -12.0830   22.3690 H   0  0  0  0  0  0  0  0  0  0  0  0
  -21.1930  -13.2000   22.1710 H   0  0  0  0  0  0  0  0  0  0  0  0
  -25.4330  -15.3000   20.1900 N   0  0  0  0  0  0  0  0  0  0  0  0
  -24.6580  -15.9440   20.3140 H   0  0  0  0  0  0  0  0  0  0  0  0
  -26.2670  -15.7500   19.8360 H   0  0  0  0  0  0  0  0  0  0  0  0
  -29.0700  -23.5170   19.9320 C   0  0  0  0  0  2  0  0  0  0  0  0
  -27.7670  -24.7220   21.8400 C   0  0  0  0  0  1  0  0  0  0  0  0
  -28.0440  -24.7890   20.3310 C   0  0  0  0  0  3  0  0  0  0  0  0
  -28.2970  -26.3020   20.0670 O   0  0  0  0  0  0  0  0  0  0  0  0
  -24.7010  -31.8800   23.2880 C   0  0  0  0  0  0  0  0  0  0  0  0
  -27.2300  -27.2710   20.0810 C   0  0  0  0  0  0  0  0  0  0  0  0
  -23.4760  -30.5390   21.6210 C   0  0  0  0  0  3  0  0  0  0  0  0
  -24.9020  -29.0070   20.1330 C   0  0  0  0  0  0  0  0  0  0  0  0
  -26.0270  -30.8070   21.4320 C   0  0  0  0  0  2  0  0  0  0  0  0
  -26.0900  -29.4370   20.7390 C   0  0  0  0  0  0  0  0  0  0  0  0
  -27.2570  -28.5870   20.6940 C   0  0  0  0  0  3  0  0  0  0  0  0
  -26.0170  -26.9430   19.4370 C   0  0  0  0  0  3  0  0  0  0  0  0
  -24.8760  -27.7730   19.4680 C   0  0  0  0  0  3  0  0  0  0  0  0
  -23.6780  -29.9040   20.2200 C   0  0  0  0  0  2  0  0  0  0  0  0
  -24.7560  -31.0940   22.1690 N   0  0  0  0  0  0  0  0  0  0  0  0
  -23.6220  -32.1520   23.8370 O   0  0  0  0  0  0  0  0  0  0  0  0
  -22.8060  -29.5050   22.5590 C   0  0  0  0  0  0  0  0  0  0  0  0
  -21.4760  -29.3410   22.4390 N   0  0  0  0  0  0  0  0  0  0  0  0
  -23.4830  -28.8530   23.3580 O   0  0  0  0  0  0  0  0  0  0  0  0
  -20.9860  -29.9200   21.7710 H   0  0  0  0  0  0  0  0  0  0  0  0
  -18.0940  -28.1460   22.9470 C   0  0  0  0  0  0  0  0  0  0  0  0
  -20.6580  -28.3850   23.1890 C   0  0  0  0  0  3  0  0  0  0  0  0
  -20.7440  -26.9710   22.5670 C   0  0  0  0  0  2  0  0  0  0  0  0
  -19.6260  -26.6870   21.5570 C   0  0  0  0  0  2  0  0  0  0  0  0
  -18.2550  -26.8190   22.2230 C   0  0  0  0  0  2  0  0  0  0  0  0
  -19.2240  -28.8880   23.3870 C   0  0  0  0  0  0  0  0  0  0  0  0
  -19.0200  -30.1300   24.0250 C   0  0  0  0  0  3  0  0  0  0  0  0
  -17.7190  -30.6320   24.2260 C   0  0  0  0  0  3  0  0  0  0  0  0
  -16.6050  -29.8870   23.8020 C   0  0  0  0  0  3  0  0  0  0  0  0
  -16.7940  -28.6450   23.1680 C   0  0  0  0  0  3  0  0  0  0  0  0
  -25.9900  -32.4900   23.9190 C   0  0  0  0  0  3  0  0  0  0  0  0
  -26.5000  -31.6890   25.1810 C   0  0  1  0  0  0  0  0  0  0  0  0
  -25.4040  -31.4400   26.2440 C   0  0  0  0  0  1  0  0  0  0  0  0
  -27.0710  -30.3130   24.7650 C   0  0  0  0  0  1  0  0  0  0  0  0
  -27.6580  -32.4600   25.8580 C   0  0  0  0  0  1  0  0  0  0  0  0
  -25.6930  -33.8840   24.2830 N   0  0  0  0  0  0  0  0  0  0  0  0
  -26.0270  -34.9530   23.5470 C   0  0  0  0  0  0  0  0  0  0  0  0
  -26.6840  -34.8680   22.5070 O   0  0  0  0  0  0  0  0  0  0  0  0
  -25.1070  -34.0250   25.0920 H   0  0  0  0  0  0  0  0  0  0  0  0
  -24.3230  -36.7810   23.2460 C   0  0  0  0  0  1  0  0  0  0  0  0
  -25.5590  -36.3360   24.0430 C   0  0  0  0  0  3  0  0  0  0  0  0
  -27.7000  -37.1770   24.9040 C   0  0  0  0  0  1  0  0  0  0  0  0
  -26.6060  -37.3780   23.9590 N   0  0  0  0  0  0  0  0  0  0  0  0
  -26.2110  -38.3000   24.1240 H   0  0  0  0  0  0  0  0  0  0  0  0
  1  2  2  0
  2 10  1  0
  2  6  1  0
  3  5  1  0
  3  6  1  0
  4  1  1  0
  4  3  2  0
  5  7  1  0
  8  9  1  0
  9  1  1  0
 11 10  1  0
 12 17  1  0
 13 14  1  0
 13 12  1  0
 15 14  1  0
 15 22  1  0
 15 16  1  0
 17 11  1  0
 17 16  1  0
 18 11  2  0
 19 20  2  0
 20 39  1  0
 21 20  1  0
 21 24  1  0
 22 19  1  0
 22 23  1  0
 23 21  2  0
 24 25  1  0
 25 26  2  0
 27 30  1  0
 27 26  1  0
 28 27  2  0
 29 28  1  0
 29 24  2  0
 30 31  1  0
 31 32  1  0
 32 33  2  0
 34 33  1  0
 34 38  1  0
 35 34  2  0
 36 31  2  0
 36 35  1  0
 37 36  1  0
 39 40  1  0
 40 43  1  0
 40 42  1  0
 41 39  2  0
 44 45  1  0
 44 19  1  0
 46 44  1  0
 47 49  1  0
 47  5  1  0
 49 48  1  0
 50 52  1  0
 50 49  1  0
 51 62  2  0
 52 57  1  0
 53 61  1  0
 53 63  1  0
 54 60  1  0
 54 56  1  0
 55 61  1  0
 56 55  1  0
 57 56  2  0
 58 59  1  0
 58 52  2  0
 59 54  2  0
 60 53  1  0
 61 51  1  0
 63 65  2  0
 64 63  1  0
 66 64  1  0
 67 76  2  0
 67 72  1  0
 68 64  1  0
 68 72  1  0
 69 68  1  0
 70 71  1  0
 70 69  1  0
 71 67  1  0
 72 73  2  0
 73 74  1  0
 75 74  2  0
 76 75  1  0
 77 51  1  0
 77 82  1  0
 77 78  1  0
 78 81  1  1
 78 79  1  0
 80 78  1  0
 82 85  1  0
 83 87  1  0
 83 82  1  0
 84 83  2  0
 87 86  1  0
 89 87  1  0
 89 90  1  0
 89 88  1  0
M  ISO  4  10 100  11 100  49 101  50 101
M  END
>  <TORSDO>  (49) 
F 20

>  <SCORE>  (49) 
-13.110

>  <name>  (49) 
48

>  <ligand_id>  (49) 
48

>  <original_smiles>  (49) 
[H]c1c([H])c([H])c2c(c1[H])C([H])([H])C([H])([H])C([H])([H])C2([H])N([H])C(=O)C1([H])N(C(=O)C([H])(N([H])C(=O)C([H])(N([H])C([H])([H])[H])C([H])([H])[H])C(C([H])([H])[H])(C([H])([H])[H])C([H])([H])[H])C([H])([H])c2c([H])c(OC([H])(C([H])([H])[H])C([H])([H])N([H])c3nc(C([H])([H])C([H])([H])[H])c(C([H])([H])C(=O)N4C([H])([H])C([H])([H])C([H])([H])C([H])(n5nc(-c6c([H])c([H])c(Oc7c([H])c([H])c(F)c([H])c7F)c([H])c6[H])c(C(=O)N([H])[H])c5N([H])[H])C4([H])[H])s3)c([H])c([H])c2C1([H])[H]

>  <smiles>  (49) 
[H]c1c([H])c([H])c2c(c1[H])C([H])([H])C([H])([H])C([H])([H])C2([H])N([H])C(=O)C1([H])N(C(=O)C([H])(N([H])C(=O)C([H])(N([H])C([H])([H])[H])C([H])([H])[H])C(C([H])([H])[H])(C([H])([H])[H])C([H])([H])[H])C([H])([H])c2c([H])c(OC([H])(C([H])([H])[H])C([H])([H])N([H])c3nc(C([H])([H])C([H])([H])[H])c(C([H])([H])C(=O)N4C([H])([H])C([H])([H])C([H])([H])C([H])(n5nc(-c6c([H])c([H])c(Oc7c([H])c([H])c(F)c([H])c7F)c([H])c6[H])c(C(=O)N([H])[H])c5N([H])[H])C4([H])[H])s3)c([H])c([H])c2C1([H])[H]

$$$$
49:0:0
     RDKit          3D

 97106  0  0  1  0  0  0  0  0999 V2000
  -29.0930  -23.2570   19.9250 C   0  0  0  0  0  0  0  0  0  0  0  0
  -28.7570  -24.0500   20.9760 C   0  0  0  0  0  0  0  0  0  0  0  0
  -29.7370  -20.8010   19.6770 C   0  0  0  0  0  3  0  0  0  0  0  0
  -29.0510  -23.3440   22.2810 C   0  0  0  0  0  3  0  0  0  0  0  0
  -29.6230  -21.9870   21.8460 C   0  0  0  0  0  3  0  0  0  0  0  0
  -29.5520  -21.9840   20.3760 N   0  0  0  0  0  0  0  0  0  0  0  0
  -29.6280  -20.7450   18.3410 N   0  0  0  0  0  0  0  0  0  0  0  0
  -29.7740  -19.8760   17.8520 H   0  0  0  0  0  0  0  0  0  0  0  0
  -29.6470  -21.6070   17.7960 H   0  0  0  0  0  0  0  0  0  0  0  0
  -31.1240  -19.1300   21.0820 C   0  0  0  0  0  3  0  0  0  0  0  0
  -31.1970  -17.7170   21.3460 C   0  0  0  0  0  3  0  0  0  0  0  0
  -30.0670  -19.4980   20.2860 C   0  0  0  0  0  0  0  0  0  0  0  0
  -30.1840  -16.9760   20.7790 C   0  0  0  0  0  0  0  0  0  0  0  0
  -29.1090  -18.0670   19.9080 S   0  0  0  0  0  0  0  0  0  0  0  0
  -30.7190  -14.5890   20.5140 C   0  0  0  0  0  0  0  0  0  0  0  0
  -30.4910  -12.3900   19.4040 C   0  0  0  0  0  2  0  0  0  0  0  0
  -29.5610  -12.5520   18.1820 C   0  0  0  0  0  2  0  0  0  0  0  0
  -28.0820  -12.3960   18.5910 C   0  0  0  0  0  2  0  0  0  0  0  0
  -27.7120  -13.2470   19.8360 C   0  0  0  0  0  3  0  0  0  0  0  0
  -28.7560  -13.0650   20.9620 C   0  0  0  0  0  2  0  0  0  0  0  0
  -30.0800  -13.3890   20.4060 N   0  0  0  0  0  0  0  0  0  0  0  0
  -31.8820  -14.7570   20.1360 O   0  0  0  0  0  0  0  0  0  0  0  0
  -29.9280  -15.6310   20.8760 N   0  0  0  0  0  0  0  0  0  0  0  0
  -28.9640  -15.3750   21.0270 H   0  0  0  0  0  0  0  0  0  0  0  0
  -25.3030  -13.8430   20.5130 C   0  0  0  0  0  0  0  0  0  0  0  0
  -24.2330  -13.0660   20.8680 C   0  0  0  0  0  0  0  0  0  0  0  0
  -24.7010  -11.7160   20.8450 C   0  0  0  0  0  0  0  0  0  0  0  0
  -26.3550  -12.9650   20.2980 N   0  0  0  0  0  0  0  0  0  0  0  0
  -25.9960  -11.6820   20.5570 N   0  0  0  0  0  0  0  0  0  0  0  0
  -23.9780  -10.4510   21.0250 C   0  0  0  0  0  0  0  0  0  0  0  0
  -24.3790   -9.5010   21.9890 C   0  0  0  0  0  3  0  0  0  0  0  0
  -23.6560   -8.3000   22.1550 C   0  0  0  0  0  3  0  0  0  0  0  0
  -22.5160   -8.0410   21.3560 C   0  0  0  0  0  0  0  0  0  0  0  0
  -22.1350   -8.9810   20.3820 C   0  0  0  0  0  3  0  0  0  0  0  0
  -22.8590  -10.1720   20.2140 C   0  0  0  0  0  3  0  0  0  0  0  0
  -21.7690   -6.8910   21.4300 O   0  0  0  0  0  0  0  0  0  0  0  0
  -21.6550   -6.1800   22.5970 C   0  0  0  0  0  0  0  0  0  0  0  0
  -21.1070   -6.7500   23.7670 C   0  0  0  0  0  3  0  0  0  0  0  0
  -20.9460   -5.9620   24.9240 C   0  0  0  0  0  3  0  0  0  0  0  0
  -21.3210   -4.6050   24.9130 C   0  0  0  0  0  0  0  0  0  0  0  0
  -21.8630   -4.0350   23.7460 C   0  0  0  0  0  3  0  0  0  0  0  0
  -22.0260   -4.8190   22.5920 C   0  0  0  0  0  0  0  0  0  0  0  0
  -22.5280   -4.2600   21.4650 F   0  0  0  0  0  0  0  0  0  0  0  0
  -21.1600   -3.8470   26.0220 F   0  0  0  0  0  0  0  0  0  0  0  0
  -22.8300  -13.5370   21.1180 C   0  0  0  0  0  0  0  0  0  0  0  0
  -22.0880  -12.8330   21.9660 N   0  0  0  0  0  0  0  0  0  0  0  0
  -22.3980  -14.5650   20.5980 O   0  0  0  0  0  0  0  0  0  0  0  0
  -22.4490  -12.0020   22.4080 H   0  0  0  0  0  0  0  0  0  0  0  0
  -21.1460  -13.1310   22.1750 H   0  0  0  0  0  0  0  0  0  0  0  0
  -25.4640  -15.2140   20.3350 N   0  0  0  0  0  0  0  0  0  0  0  0
  -24.6860  -15.8600   20.4270 H   0  0  0  0  0  0  0  0  0  0  0  0
  -26.3050  -15.6570   19.9910 H   0  0  0  0  0  0  0  0  0  0  0  0
  -28.9370  -23.6290   18.5000 C   0  0  0  0  0  0  0  0  0  0  0  0
  -27.6010  -24.1340   17.9890 C   0  0  0  0  0  1  0  0  0  0  0  0
  -29.8450  -23.4970   17.6740 O   0  0  0  0  0  0  0  0  0  0  0  0
  -28.0290  -25.4220   21.1190 C   0  0  0  0  0  2  0  0  0  0  0  0
  -28.2940  -26.5470   20.2330 O   0  0  0  0  0  0  0  0  0  0  0  0
  -24.5390  -31.8810   23.2460 C   0  0  0  0  0  0  0  0  0  0  0  0
  -27.2010  -27.4080   20.1740 C   0  0  0  0  0  0  0  0  0  0  0  0
  -23.3540  -30.4920   21.5820 C   0  0  0  0  0  3  0  0  0  0  0  0
  -24.8250  -28.9700   20.1590 C   0  0  0  0  0  0  0  0  0  0  0  0
  -25.8910  -30.8350   21.4240 C   0  0  0  0  0  2  0  0  0  0  0  0
  -25.9840  -29.4690   20.7680 C   0  0  0  0  0  0  0  0  0  0  0  0
  -27.1810  -28.6980   20.7710 C   0  0  0  0  0  3  0  0  0  0  0  0
  -26.0200  -26.9500   19.5500 C   0  0  0  0  0  3  0  0  0  0  0  0
  -24.8410  -27.7110   19.5430 C   0  0  0  0  0  3  0  0  0  0  0  0
  -23.5820  -29.8310   20.1990 C   0  0  0  0  0  2  0  0  0  0  0  0
  -24.6130  -31.0830   22.1420 N   0  0  0  0  0  0  0  0  0  0  0  0
  -23.4500  -32.1500   23.7720 O   0  0  0  0  0  0  0  0  0  0  0  0
  -22.6870  -29.4640   22.5260 C   0  0  0  0  0  0  0  0  0  0  0  0
  -21.3600  -29.3000   22.3940 N   0  0  0  0  0  0  0  0  0  0  0  0
  -23.3610  -28.8180   23.3330 O   0  0  0  0  0  0  0  0  0  0  0  0
  -20.8770  -29.8720   21.7160 H   0  0  0  0  0  0  0  0  0  0  0  0
  -17.9640  -28.1660   22.9040 C   0  0  0  0  0  0  0  0  0  0  0  0
  -20.5300  -28.3610   23.1510 C   0  0  0  0  0  3  0  0  0  0  0  0
  -20.5940  -26.9420   22.5380 C   0  0  0  0  0  2  0  0  0  0  0  0
  -19.4740  -26.6700   21.5310 C   0  0  0  0  0  2  0  0  0  0  0  0
  -18.1030  -26.8300   22.1940 C   0  0  0  0  0  2  0  0  0  0  0  0
  -19.1040  -28.8920   23.3400 C   0  0  0  0  0  0  0  0  0  0  0  0
  -18.9210  -30.1440   23.9640 C   0  0  0  0  0  3  0  0  0  0  0  0
  -17.6300  -30.6710   24.1570 C   0  0  0  0  0  3  0  0  0  0  0  0
  -16.5040  -29.9410   23.7370 C   0  0  0  0  0  3  0  0  0  0  0  0
  -16.6720  -28.6910   23.1170 C   0  0  0  0  0  3  0  0  0  0  0  0
  -25.8160  -32.5070   23.8860 C   0  0  0  0  0  3  0  0  0  0  0  0
  -26.3010  -31.7430   25.1780 C   0  0  1  0  0  0  0  0  0  0  0  0
  -25.1860  -31.5180   26.2250 C   0  0  0  0  0  1  0  0  0  0  0  0
  -26.8860  -30.3600   24.8080 C   0  0  0  0  0  1  0  0  0  0  0  0
  -27.4410  -32.5380   25.8590 C   0  0  0  0  0  1  0  0  0  0  0  0
  -25.5120  -33.9110   24.1950 N   0  0  0  0  0  0  0  0  0  0  0  0
  -25.8680  -34.9530   23.4330 C   0  0  0  0  0  0  0  0  0  0  0  0
  -26.5580  -34.8330   22.4170 O   0  0  0  0  0  0  0  0  0  0  0  0
  -24.9020  -34.0780   24.9830 H   0  0  0  0  0  0  0  0  0  0  0  0
  -24.1730  -36.7630   23.0110 C   0  0  0  0  0  1  0  0  0  0  0  0
  -25.3820  -36.3500   23.8650 C   0  0  0  0  0  3  0  0  0  0  0  0
  -27.4950  -37.2180   24.7660 C   0  0  0  0  0  1  0  0  0  0  0  0
  -26.4300  -37.3900   23.7800 N   0  0  0  0  0  0  0  0  0  0  0  0
  -26.0300  -38.3150   23.9060 H   0  0  0  0  0  0  0  0  0  0  0  0
  1  6  1  0
  1  2  2  0
  2 56  1  0
  2  4  1  0
  3  7  1  0
  3 12  1  0
  3  6  1  0
  5  4  2  0
  6  5  1  0
  8  7  1  0
  9  7  1  0
 10 11  1  0
 12 10  2  0
 13 23  1  0
 13 11  2  0
 14 12  1  0
 14 13  1  0
 15 23  1  0
 16 21  1  0
 17 18  1  0
 17 16  1  0
 19 18  1  0
 19 28  1  0
 19 20  1  0
 21 15  1  0
 21 20  1  0
 22 15  2  0
 23 24  1  0
 25 26  2  0
 26 45  1  0
 27 26  1  0
 27 30  1  0
 28 25  1  0
 28 29  1  0
 29 27  2  0
 30 31  1  0
 31 32  2  0
 33 36  1  0
 33 32  1  0
 34 33  2  0
 35 34  1  0
 35 30  2  0
 36 37  1  0
 37 38  1  0
 38 39  2  0
 40 39  1  0
 40 44  1  0
 41 40  2  0
 42 37  2  0
 42 41  1  0
 43 42  1  0
 45 46  1  0
 46 49  1  0
 46 48  1  0
 47 45  2  0
 50 51  1  0
 50 25  1  0
 52 50  1  0
 53  1  1  0
 54 53  1  0
 55 53  2  0
 57 56  1  0
 58 69  2  0
 59 57  1  0
 59 64  1  0
 60 68  1  0
 60 70  1  0
 61 67  1  0
 61 63  1  0
 62 68  1  0
 63 64  2  0
 63 62  1  0
 65 59  2  0
 66 65  1  0
 66 61  2  0
 67 60  1  0
 68 58  1  0
 70 72  2  0
 71 70  1  0
 73 71  1  0
 74 83  2  0
 74 79  1  0
 75 71  1  0
 75 79  1  0
 76 75  1  0
 77 78  1  0
 77 76  1  0
 78 74  1  0
 79 80  2  0
 80 81  1  0
 82 81  2  0
 83 82  1  0
 84 58  1  0
 84 89  1  0
 84 85  1  0
 85 88  1  1
 85 86  1  0
 87 85  1  0
 89 92  1  0
 90 94  1  0
 90 89  1  0
 91 90  2  0
 94 93  1  0
 96 94  1  0
 96 97  1  0
 96 95  1  0
M  ISO  4  15 100  23 100  56 101  57 101
M  END
>  <TORSDO>  (50) 
F 19

>  <SCORE>  (50) 
-14.602

>  <name>  (50) 
49

>  <ligand_id>  (50) 
49

>  <original_smiles>  (50) 
[H]c1c(C(N2C(C(=O)C([H])([H])[H])=C(C([H])([H])Oc3c([H])c([H])c4c(c3[H])C([H])([H])N(C(=O)C([H])(N([H])C(=O)C([H])(N([H])C([H])([H])[H])C([H])([H])[H])C(C([H])([H])[H])(C([H])([H])[H])C([H])([H])[H])C([H])(C(=O)N([H])C3([H])c5c([H])c([H])c([H])c([H])c5C([H])([H])C([H])([H])C3([H])[H])C4([H])[H])C([H])([H])C2([H])[H])=[N+]([H])[H])sc(N([H])C(=O)N2C([H])([H])C([H])([H])C([H])([H])C([H])(n3nc(-c4c([H])c([H])c(Oc5c([H])c([H])c(F)c([H])c5F)c([H])c4[H])c(C(=O)N([H])[H])c3N([H])[H])C2([H])[H])c1[H]

>  <smiles>  (50) 
[H]c1c(C(N2C(C(=O)C([H])([H])[H])=C(C([H])([H])Oc3c([H])c([H])c4c(c3[H])C([H])([H])N(C(=O)C([H])(N([H])C(=O)C([H])(N([H])C([H])([H])[H])C([H])([H])[H])C(C([H])([H])[H])(C([H])([H])[H])C([H])([H])[H])C([H])(C(=O)N([H])C3([H])c5c([H])c([H])c([H])c([H])c5C([H])([H])C([H])([H])C3([H])[H])C4([H])[H])C([H])([H])C2([H])[H])=[N+]([H])[H])sc(N([H])C(=O)N2C([H])([H])C([H])([H])C([H])([H])C([H])(n3nc(-c4c([H])c([H])c(Oc5c([H])c([H])c(F)c([H])c5F)c([H])c4[H])c(C(=O)N([H])[H])c3N([H])[H])C2([H])[H])c1[H]

$$$$
50:0:0
     RDKit          3D

 96105  0  0  1  0  0  0  0  0999 V2000
  -28.2810  -23.8590   20.6130 C   0  0  0  0  0  0  0  0  0  0  0  0
  -27.4860  -23.1820   21.6840 C   0  0  0  0  0  0  0  0  0  0  0  0
  -28.0020  -25.2430   20.5560 C   0  0  0  0  0  3  0  0  0  0  0  0
  -29.1630  -22.7740   19.8180 C   0  0  0  0  0  2  0  0  0  0  0  0
  -28.0990  -22.0220   22.4800 C   0  0  0  0  0  2  0  0  0  0  0  0
  -29.4050  -21.4750   21.8900 C   0  0  0  0  0  2  0  0  0  0  0  0
  -29.3180  -21.3690   20.4380 N   0  0  0  0  0  0  0  0  0  0  0  0
  -26.3240  -23.5040   21.9610 O   0  0  0  0  0  0  0  0  0  0  0  0
  -31.4060  -19.3020   18.0980 C   0  0  0  0  0  3  0  0  0  0  0  0
  -30.7800  -20.3700   18.7600 C   0  0  0  0  0  3  0  0  0  0  0  0
  -31.2250  -17.9460   18.4630 C   0  0  0  0  0  0  0  0  0  0  0  0
  -29.7340  -18.7430   20.2390 C   0  0  0  0  0  0  0  0  0  0  0  0
  -29.9090  -20.1610   19.8440 C   0  0  0  0  0  0  0  0  0  0  0  0
  -30.4380  -17.6090   19.6110 C   0  0  0  0  0  0  0  0  0  0  0  0
  -28.7220  -18.3720   21.3150 C   0  0  0  0  0  1  0  0  0  0  0  0
  -31.0270  -15.0140   19.9200 C   0  0  0  0  0  0  0  0  0  0  0  0
  -30.7970  -12.7230   18.9540 C   0  0  0  0  0  2  0  0  0  0  0  0
  -29.8120  -12.7830   17.7660 C   0  0  0  0  0  2  0  0  0  0  0  0
  -28.3600  -12.6100   18.2510 C   0  0  0  0  0  2  0  0  0  0  0  0
  -28.0280  -13.4920   19.4840 C   0  0  0  0  0  3  0  0  0  0  0  0
  -29.1330  -13.4240   20.5600 C   0  0  0  0  0  2  0  0  0  0  0  0
  -30.3980  -13.7860   19.9080 N   0  0  0  0  0  0  0  0  0  0  0  0
  -32.2270  -15.0660   19.6440 O   0  0  0  0  0  0  0  0  0  0  0  0
  -30.2500  -16.1710   20.0490 N   0  0  0  0  0  0  0  0  0  0  0  0
  -29.3440  -15.9800   20.4450 H   0  0  0  0  0  0  0  0  0  0  0  0
  -25.6830  -14.0660   20.3480 C   0  0  0  0  0  0  0  0  0  0  0  0
  -24.6310  -13.2860   20.7430 C   0  0  0  0  0  0  0  0  0  0  0  0
  -25.0840  -11.9340   20.6470 C   0  0  0  0  0  0  0  0  0  0  0  0
  -26.7090  -13.1900   20.0320 N   0  0  0  0  0  0  0  0  0  0  0  0
  -26.3580  -11.9000   20.2740 N   0  0  0  0  0  0  0  0  0  0  0  0
  -24.3570  -10.6700   20.8280 C   0  0  0  0  0  0  0  0  0  0  0  0
  -24.7580   -9.7170   21.7890 C   0  0  0  0  0  3  0  0  0  0  0  0
  -24.0290   -8.5200   21.9570 C   0  0  0  0  0  3  0  0  0  0  0  0
  -22.8840   -8.2680   21.1650 C   0  0  0  0  0  0  0  0  0  0  0  0
  -22.5040   -9.2090   20.1920 C   0  0  0  0  0  3  0  0  0  0  0  0
  -23.2350  -10.3970   20.0220 C   0  0  0  0  0  3  0  0  0  0  0  0
  -22.1300   -7.1220   21.2430 O   0  0  0  0  0  0  0  0  0  0  0  0
  -21.9410   -6.4630   22.4310 C   0  0  0  0  0  0  0  0  0  0  0  0
  -21.3590   -7.0970   23.5520 C   0  0  0  0  0  3  0  0  0  0  0  0
  -21.1200   -6.3630   24.7300 C   0  0  0  0  0  3  0  0  0  0  0  0
  -21.4510   -4.9960   24.7880 C   0  0  0  0  0  0  0  0  0  0  0  0
  -22.0230   -4.3620   23.6730 C   0  0  0  0  0  3  0  0  0  0  0  0
  -22.2650   -5.0930   22.4960 C   0  0  0  0  0  0  0  0  0  0  0  0
  -22.7980   -4.4710   21.4170 F   0  0  0  0  0  0  0  0  0  0  0  0
  -21.2130   -4.2880   25.9180 F   0  0  0  0  0  0  0  0  0  0  0  0
  -23.2510  -13.7620   21.0900 C   0  0  0  0  0  0  0  0  0  0  0  0
  -22.5650  -13.0530   21.9820 N   0  0  0  0  0  0  0  0  0  0  0  0
  -22.7930  -14.7970   20.6090 O   0  0  0  0  0  0  0  0  0  0  0  0
  -22.9510  -12.2170   22.3930 H   0  0  0  0  0  0  0  0  0  0  0  0
  -21.6400  -13.3520   22.2540 H   0  0  0  0  0  0  0  0  0  0  0  0
  -25.8460  -15.4410   20.2030 N   0  0  0  0  0  0  0  0  0  0  0  0
  -25.0780  -16.0880   20.3530 H   0  0  0  0  0  0  0  0  0  0  0  0
  -26.6550  -15.8810   19.7840 H   0  0  0  0  0  0  0  0  0  0  0  0
  -32.9680  -17.1060   16.8450 C   0  0  0  0  0  2  0  0  0  0  0  0
  -31.8500  -16.9410   17.5750 C   0  0  0  0  0  3  0  0  0  0  0  0
  -28.3230  -26.4030   19.7850 O   0  0  0  0  0  0  0  0  0  0  0  0
  -24.7350  -31.8570   23.0510 C   0  0  0  0  0  0  0  0  0  0  0  0
  -27.2940  -27.3850   19.7630 C   0  0  0  0  0  0  0  0  0  0  0  0
  -23.4990  -30.4910   21.4100 C   0  0  0  0  0  3  0  0  0  0  0  0
  -24.9270  -29.0100   19.8770 C   0  0  0  0  0  0  0  0  0  0  0  0
  -26.0330  -30.8390   21.1570 C   0  0  0  0  0  2  0  0  0  0  0  0
  -26.1130  -29.4810   20.4570 C   0  0  0  0  0  0  0  0  0  0  0  0
  -27.3030  -28.6780   20.3960 C   0  0  0  0  0  3  0  0  0  0  0  0
  -26.0880  -26.9960   19.1450 C   0  0  0  0  0  3  0  0  0  0  0  0
  -24.9180  -27.7770   19.2100 C   0  0  0  0  0  3  0  0  0  0  0  0
  -23.6790  -29.8670   20.0010 C   0  0  0  0  0  2  0  0  0  0  0  0
  -24.7770  -31.0820   21.9280 N   0  0  0  0  0  0  0  0  0  0  0  0
  -23.6670  -32.0980   23.6320 O   0  0  0  0  0  0  0  0  0  0  0  0
  -22.8860  -29.4330   22.3590 C   0  0  0  0  0  0  0  0  0  0  0  0
  -21.5560  -29.2440   22.2820 N   0  0  0  0  0  0  0  0  0  0  0  0
  -23.6030  -28.7880   23.1290 O   0  0  0  0  0  0  0  0  0  0  0  0
  -21.0330  -29.8180   21.6350 H   0  0  0  0  0  0  0  0  0  0  0  0
  -18.2180  -27.9850   22.8830 C   0  0  0  0  0  0  0  0  0  0  0  0
  -20.7820  -28.2710   23.0540 C   0  0  0  0  0  3  0  0  0  0  0  0
  -20.8740  -26.8620   22.4230 C   0  0  0  0  0  2  0  0  0  0  0  0
  -19.7340  -26.5600   21.4450 C   0  0  0  0  0  2  0  0  0  0  0  0
  -18.3800  -26.6630   22.1520 C   0  0  0  0  0  2  0  0  0  0  0  0
  -19.3430  -28.7470   23.2920 C   0  0  0  0  0  0  0  0  0  0  0  0
  -19.1330  -29.9850   23.9390 C   0  0  0  0  0  3  0  0  0  0  0  0
  -17.8290  -30.4610   24.1770 C   0  0  0  0  0  3  0  0  0  0  0  0
  -16.7190  -29.6950   23.7810 C   0  0  0  0  0  3  0  0  0  0  0  0
  -16.9140  -28.4590   23.1410 C   0  0  0  0  0  3  0  0  0  0  0  0
  -26.0260  -32.4930   23.6500 C   0  0  0  0  0  3  0  0  0  0  0  0
  -25.7010  -33.8700   24.0490 N   0  0  0  0  0  0  0  0  0  0  0  0
  -25.9950  -34.9610   23.3280 C   0  0  0  0  0  0  0  0  0  0  0  0
  -26.6370  -34.9140   22.2760 O   0  0  0  0  0  0  0  0  0  0  0  0
  -25.1260  -33.9780   24.8710 H   0  0  0  0  0  0  0  0  0  0  0  0
  -24.2300  -36.7360   23.1010 C   0  0  0  0  0  1  0  0  0  0  0  0
  -25.4990  -36.3190   23.8600 C   0  0  0  0  0  3  0  0  0  0  0  0
  -27.6420  -37.2020   24.6730 C   0  0  0  0  0  1  0  0  0  0  0  0
  -26.5110  -37.3940   23.7690 N   0  0  0  0  0  0  0  0  0  0  0  0
  -26.0940  -38.3000   23.9700 H   0  0  0  0  0  0  0  0  0  0  0  0
  -26.6050  -31.6850   24.8780 C   0  0  1  0  0  0  0  0  0  0  0  0
  -25.5560  -31.3870   25.9760 C   0  0  0  0  0  1  0  0  0  0  0  0
  -27.1970  -30.3350   24.4140 C   0  0  0  0  0  1  0  0  0  0  0  0
  -27.7660  -32.4750   25.5240 C   0  0  0  0  0  1  0  0  0  0  0  0
  1  2  1  0
  2  8  2  0
  2  5  1  0
  3  1  2  0
  4  7  1  0
  4  1  1  0
  6  5  1  0
  7  6  1  0
  9 11  2  0
  9 10  1  0
 10 13  2  0
 11 14  1  0
 12 15  1  0
 13 12  1  0
 13  7  1  0
 14 24  1  0
 14 12  2  0
 16 24  1  0
 17 22  1  0
 18 19  1  0
 18 17  1  0
 20 19  1  0
 20 29  1  0
 20 21  1  0
 22 16  1  0
 22 21  1  0
 23 16  2  0
 24 25  1  0
 26 27  2  0
 27 46  1  0
 28 27  1  0
 28 31  1  0
 29 30  1  0
 29 26  1  0
 30 28  2  0
 31 32  1  0
 32 33  2  0
 34 37  1  0
 34 33  1  0
 35 34  2  0
 36 35  1  0
 36 31  2  0
 37 38  1  0
 38 43  2  0
 38 39  1  0
 39 40  2  0
 40 41  1  0
 41 45  1  0
 42 41  2  0
 43 42  1  0
 44 43  1  0
 46 47  1  0
 47 50  1  0
 47 49  1  0
 48 46  2  0
 51 26  1  0
 51 52  1  0
 53 51  1  0
 54 55  2  0
 55 11  1  0
 56  3  1  0
 57 68  2  0
 58 56  1  0
 58 63  1  0
 59 67  1  0
 59 69  1  0
 60 66  1  0
 60 62  1  0
 61 67  1  0
 62 61  1  0
 63 62  2  0
 64 65  1  0
 64 58  2  0
 65 60  2  0
 66 59  1  0
 67 57  1  0
 69 71  2  0
 70 69  1  0
 72 70  1  0
 73 82  2  0
 73 78  1  0
 74 70  1  0
 74 78  1  0
 75 74  1  0
 76 77  1  0
 76 75  1  0
 77 73  1  0
 78 79  2  0
 79 80  1  0
 81 80  2  0
 82 81  1  0
 83 57  1  0
 83 84  1  0
 83 93  1  0
 84 87  1  0
 85 89  1  0
 85 84  1  0
 86 85  2  0
 89 88  1  0
 91 89  1  0
 91 92  1  0
 91 90  1  0
 93 96  1  1
 93 94  1  0
 95 93  1  0
M  ISO  4   3 101  16 100  24 100  56 101
M  END
>  <TORSDO>  (51) 
F 18

>  <SCORE>  (51) 
-12.764

>  <name>  (51) 
50

>  <ligand_id>  (51) 
50

>  <original_smiles>  (51) 
[H]C([H])=C([H])c1c([H])c([H])c(N2C([H])([H])C(=C([H])Oc3c([H])c([H])c4c(c3[H])C([H])([H])N(C(=O)C([H])(N([H])C(=O)C([H])(N([H])C([H])([H])[H])C([H])([H])[H])C(C([H])([H])[H])(C([H])([H])[H])C([H])([H])[H])C([H])(C(=O)N([H])C3([H])c5c([H])c([H])c([H])c([H])c5C([H])([H])C([H])([H])C3([H])[H])C4([H])[H])C(=O)C([H])([H])C2([H])[H])c(C([H])([H])[H])c1N([H])C(=O)N1C([H])([H])C([H])([H])C([H])([H])C([H])(n2nc(-c3c([H])c([H])c(Oc4c([H])c([H])c(F)c([H])c4F)c([H])c3[H])c(C(=O)N([H])[H])c2N([H])[H])C1([H])[H]

>  <smiles>  (51) 
[H]C([H])=C([H])c1c([H])c([H])c(N2C([H])([H])C(=C([H])Oc3c([H])c([H])c4c(c3[H])C([H])([H])N(C(=O)C([H])(N([H])C(=O)C([H])(N([H])C([H])([H])[H])C([H])([H])[H])C(C([H])([H])[H])(C([H])([H])[H])C([H])([H])[H])C([H])(C(=O)N([H])C3([H])c5c([H])c([H])c([H])c([H])c5C([H])([H])C([H])([H])C3([H])[H])C4([H])[H])C(=O)C([H])([H])C2([H])[H])c(C([H])([H])[H])c1N([H])C(=O)N1C([H])([H])C([H])([H])C([H])([H])C([H])(n2nc(-c3c([H])c([H])c(Oc4c([H])c([H])c(F)c([H])c4F)c([H])c3[H])c(C(=O)N([H])[H])c2N([H])[H])C1([H])[H]

$$$$
51:0:0
     RDKit          3D

 96104  0  0  1  0  0  0  0  0999 V2000
  -30.5360  -20.8800   21.6100 C   0  0  0  0  0  2  0  0  0  0  0  0
  -30.4700  -18.4090   20.9520 C   0  0  0  0  0  3  0  0  0  0  0  0
  -32.3120  -17.4030   19.7350 C   0  0  0  0  0  3  0  0  0  0  0  0
  -32.4250  -19.7470   20.4100 C   0  0  0  0  0  3  0  0  0  0  0  0
  -31.0210  -17.2520   20.3250 C   0  0  0  0  0  0  0  0  0  0  0  0
  -31.1640  -19.6320   21.0100 C   0  0  0  0  0  0  0  0  0  0  0  0
  -32.9960  -18.6530   19.7360 C   0  0  0  0  0  0  0  0  0  0  0  0
  -30.1250  -16.0180   20.1940 C   0  0  0  0  0  0  0  0  0  0  0  0
  -28.8940  -16.2180   19.9350 N   0  0  0  0  0  0  0  0  0  0  0  0
  -28.7160  -17.2110   19.8160 H   0  0  0  0  0  0  0  0  0  0  0  0
  -30.7690  -14.5900   20.3110 C   0  0  0  0  0  0  0  0  0  0  0  0
  -30.3540  -12.3820   19.3200 C   0  0  0  0  0  2  0  0  0  0  0  0
  -29.4270  -12.5380   18.0950 C   0  0  0  0  0  2  0  0  0  0  0  0
  -27.9630  -12.3460   18.5340 C   0  0  0  0  0  2  0  0  0  0  0  0
  -27.6000  -13.2440   19.7440 C   0  0  0  0  0  3  0  0  0  0  0  0
  -28.6710  -13.2020   20.8560 C   0  0  0  0  0  2  0  0  0  0  0  0
  -29.9890  -13.4630   20.2560 N   0  0  0  0  0  0  0  0  0  0  0  0
  -31.9840  -14.5130   20.1540 O   0  0  0  0  0  0  0  0  0  0  0  0
  -25.2220  -13.8590   20.4850 C   0  0  0  0  0  0  0  0  0  0  0  0
  -24.1530  -13.0940   20.8700 C   0  0  0  0  0  0  0  0  0  0  0  0
  -24.6100  -11.7390   20.8400 C   0  0  0  0  0  0  0  0  0  0  0  0
  -26.2630  -12.9740   20.2560 N   0  0  0  0  0  0  0  0  0  0  0  0
  -25.9030  -11.6980   20.5390 N   0  0  0  0  0  0  0  0  0  0  0  0
  -23.8840  -10.4800   21.0380 C   0  0  0  0  0  0  0  0  0  0  0  0
  -24.3230   -9.5180   21.9670 C   0  0  0  0  0  3  0  0  0  0  0  0
  -23.6030   -8.3180   22.1510 C   0  0  0  0  0  3  0  0  0  0  0  0
  -22.4240   -8.0760   21.4100 C   0  0  0  0  0  0  0  0  0  0  0  0
  -22.0020   -9.0290   20.4640 C   0  0  0  0  0  3  0  0  0  0  0  0
  -22.7250  -10.2200   20.2810 C   0  0  0  0  0  3  0  0  0  0  0  0
  -21.6720   -6.9340   21.5010 O   0  0  0  0  0  0  0  0  0  0  0  0
  -21.6360   -6.1830   22.6470 C   0  0  0  0  0  0  0  0  0  0  0  0
  -21.2410   -6.7320   23.8870 C   0  0  0  0  0  3  0  0  0  0  0  0
  -21.1600   -5.9100   25.0260 C   0  0  0  0  0  3  0  0  0  0  0  0
  -21.4620   -4.5370   24.9300 C   0  0  0  0  0  0  0  0  0  0  0  0
  -21.8480   -3.9900   23.6940 C   0  0  0  0  0  3  0  0  0  0  0  0
  -21.9350   -4.8110   22.5560 C   0  0  0  0  0  0  0  0  0  0  0  0
  -22.2920   -4.2750   21.3640 F   0  0  0  0  0  0  0  0  0  0  0  0
  -21.3780   -3.7420   26.0220 F   0  0  0  0  0  0  0  0  0  0  0  0
  -22.7570  -13.5740   21.1380 C   0  0  0  0  0  0  0  0  0  0  0  0
  -22.0300  -12.8740   22.0010 N   0  0  0  0  0  0  0  0  0  0  0  0
  -22.3190  -14.5950   20.6070 O   0  0  0  0  0  0  0  0  0  0  0  0
  -22.4010  -12.0470   22.4460 H   0  0  0  0  0  0  0  0  0  0  0  0
  -21.0800  -13.1520   22.2040 H   0  0  0  0  0  0  0  0  0  0  0  0
  -25.3970  -15.2250   20.2840 N   0  0  0  0  0  0  0  0  0  0  0  0
  -24.6370  -15.8870   20.3580 H   0  0  0  0  0  0  0  0  0  0  0  0
  -26.2850  -15.6310   19.9950 H   0  0  0  0  0  0  0  0  0  0  0  0
  -34.5930  -20.1030   18.6320 C   0  0  0  0  0  1  0  0  0  0  0  0
  -34.1940  -18.7820   19.0600 O   0  0  0  0  0  0  0  0  0  0  0  0
  -30.5800  -23.1370   20.5340 C   0  0  0  0  0  0  0  0  0  0  0  0
  -30.2480  -21.8410   20.5460 N   0  0  0  0  0  0  0  0  0  0  0  0
  -31.1070  -23.6930   21.4960 O   0  0  0  0  0  0  0  0  0  0  0  0
  -29.8400  -21.4510   19.7090 H   0  0  0  0  0  0  0  0  0  0  0  0
  -30.3460  -23.9090   19.2320 C   0  0  0  0  0  2  0  0  0  0  0  0
  -28.9810  -24.6400   19.0730 C   0  0  0  0  0  2  0  0  0  0  0  0
  -28.4370  -25.4140   20.2950 C   0  0  0  0  0  2  0  0  0  0  0  0
  -28.4200  -26.8220   20.0810 O   0  0  0  0  0  0  0  0  0  0  0  0
  -24.5770  -31.9050   23.2380 C   0  0  0  0  0  0  0  0  0  0  0  0
  -27.2120  -27.4790   20.1320 C   0  0  0  0  0  0  0  0  0  0  0  0
  -23.3570  -30.5080   21.5900 C   0  0  0  0  0  3  0  0  0  0  0  0
  -24.7980  -28.9510   20.1670 C   0  0  0  0  0  0  0  0  0  0  0  0
  -25.8690  -30.8550   21.3860 C   0  0  0  0  0  2  0  0  0  0  0  0
  -25.9510  -29.4780   20.7660 C   0  0  0  0  0  0  0  0  0  0  0  0
  -27.1520  -28.7430   20.7540 C   0  0  0  0  0  3  0  0  0  0  0  0
  -26.0430  -26.9620   19.5230 C   0  0  0  0  0  3  0  0  0  0  0  0
  -24.8380  -27.6920   19.5480 C   0  0  0  0  0  3  0  0  0  0  0  0
  -23.5630  -29.8120   20.2100 C   0  0  0  0  0  2  0  0  0  0  0  0
  -24.6230  -31.1060   22.1330 N   0  0  0  0  0  0  0  0  0  0  0  0
  -23.5010  -32.1770   23.7900 O   0  0  0  0  0  0  0  0  0  0  0  0
  -22.7050  -29.4960   22.5560 C   0  0  0  0  0  0  0  0  0  0  0  0
  -21.3790  -29.3230   22.4260 N   0  0  0  0  0  0  0  0  0  0  0  0
  -23.3790  -28.8680   23.3760 O   0  0  0  0  0  0  0  0  0  0  0  0
  -20.8830  -29.8690   21.7370 H   0  0  0  0  0  0  0  0  0  0  0  0
  -18.0050  -28.1300   22.9360 C   0  0  0  0  0  0  0  0  0  0  0  0
  -20.5650  -28.3870   23.2040 C   0  0  0  0  0  3  0  0  0  0  0  0
  -20.6640  -26.9550   22.6350 C   0  0  0  0  0  2  0  0  0  0  0  0
  -19.5600  -26.6280   21.6240 C   0  0  0  0  0  2  0  0  0  0  0  0
  -18.1790  -26.7760   22.2680 C   0  0  0  0  0  2  0  0  0  0  0  0
  -19.1250  -28.8900   23.3630 C   0  0  0  0  0  0  0  0  0  0  0  0
  -18.9110  -30.1550   23.9490 C   0  0  0  0  0  3  0  0  0  0  0  0
  -17.6070  -30.6570   24.1250 C   0  0  0  0  0  3  0  0  0  0  0  0
  -16.5020  -29.8980   23.7020 C   0  0  0  0  0  3  0  0  0  0  0  0
  -16.7000  -28.6380   23.1120 C   0  0  0  0  0  3  0  0  0  0  0  0
  -25.8700  -32.5290   23.8520 C   0  0  0  0  0  3  0  0  0  0  0  0
  -25.5780  -33.9300   24.1860 N   0  0  0  0  0  0  0  0  0  0  0  0
  -25.9080  -34.9800   23.4260 C   0  0  0  0  0  0  0  0  0  0  0  0
  -26.5660  -34.8740   22.3830 O   0  0  0  0  0  0  0  0  0  0  0  0
  -25.0290  -34.0990   25.0170 H   0  0  0  0  0  0  0  0  0  0  0  0
  -24.1850  -36.7690   23.0480 C   0  0  0  0  0  1  0  0  0  0  0  0
  -25.4190  -36.3700   23.8750 C   0  0  0  0  0  3  0  0  0  0  0  0
  -27.5540  -37.2300   24.7170 C   0  0  0  0  0  1  0  0  0  0  0  0
  -26.4590  -37.4190   23.7750 N   0  0  0  0  0  0  0  0  0  0  0  0
  -26.0580  -38.3450   23.9280 H   0  0  0  0  0  0  0  0  0  0  0  0
  -26.3940  -31.7460   25.1190 C   0  0  1  0  0  0  0  0  0  0  0  0
  -25.3120  -31.5050   26.1940 C   0  0  0  0  0  1  0  0  0  0  0  0
  -26.9670  -30.3680   24.7140 C   0  0  0  0  0  1  0  0  0  0  0  0
  -27.5570  -32.5240   25.7750 C   0  0  0  0  0  1  0  0  0  0  0  0
  2  6  1  0
  3  7  2  0
  3  5  1  0
  4  6  2  0
  5  2  2  0
  6  1  1  0
  7  4  1  0
  8 11  1  0
  8  5  1  0
  9  8  2  0
 10  9  1  0
 12 17  1  0
 13 14  1  0
 13 12  1  0
 15 14  1  0
 15 22  1  0
 15 16  1  0
 17 11  1  0
 17 16  1  0
 18 11  2  0
 19 20  2  0
 20 39  1  0
 21 20  1  0
 21 24  1  0
 22 19  1  0
 22 23  1  0
 23 21  2  0
 24 25  1  0
 25 26  2  0
 27 30  1  0
 27 26  1  0
 28 27  2  0
 29 28  1  0
 29 24  2  0
 30 31  1  0
 31 32  1  0
 32 33  2  0
 34 33  1  0
 34 38  1  0
 35 34  2  0
 36 31  2  0
 36 35  1  0
 37 36  1  0
 39 40  1  0
 40 43  1  0
 40 42  1  0
 41 39  2  0
 44 45  1  0
 44 19  1  0
 46 44  1  0
 47 48  1  0
 48  7  1  0
 49 50  1  0
 49 51  2  0
 50  1  1  0
 52 50  1  0
 53 49  1  0
 54 53  1  0
 54 55  1  0
 56 58  1  0
 56 55  1  0
 57 68  2  0
 58 63  1  0
 59 67  1  0
 59 69  1  0
 60 66  1  0
 60 62  1  0
 61 67  1  0
 62 61  1  0
 63 62  2  0
 64 65  1  0
 64 58  2  0
 65 60  2  0
 66 59  1  0
 67 57  1  0
 69 71  2  0
 70 69  1  0
 72 70  1  0
 73 82  2  0
 73 78  1  0
 74 70  1  0
 74 78  1  0
 75 74  1  0
 76 77  1  0
 76 75  1  0
 77 73  1  0
 78 79  2  0
 79 80  1  0
 81 80  2  0
 82 81  1  0
 83 57  1  0
 83 84  1  0
 83 93  1  0
 84 87  1  0
 85 89  1  0
 85 84  1  0
 86 85  2  0
 89 88  1  0
 91 89  1  0
 91 92  1  0
 91 90  1  0
 93 96  1  1
 93 94  1  0
 95 93  1  0
M  ISO  4   8 100  11 100  55 101  56 101
M  END
>  <TORSDO>  (52) 
F 23

>  <SCORE>  (52) 
-13.010

>  <name>  (52) 
51

>  <ligand_id>  (52) 
51

>  <original_smiles>  (52) 
[H]N=C(C(=O)N1C([H])([H])C([H])([H])C([H])([H])C([H])(n2nc(-c3c([H])c([H])c(Oc4c([H])c([H])c(F)c([H])c4F)c([H])c3[H])c(C(=O)N([H])[H])c2N([H])[H])C1([H])[H])c1c([H])c(OC([H])([H])[H])c([H])c(C([H])([H])N([H])C(=O)C([H])([H])C([H])([H])C([H])([H])Oc2c([H])c([H])c3c(c2[H])C([H])([H])N(C(=O)C([H])(N([H])C(=O)C([H])(N([H])C([H])([H])[H])C([H])([H])[H])C(C([H])([H])[H])(C([H])([H])[H])C([H])([H])[H])C([H])(C(=O)N([H])C2([H])c4c([H])c([H])c([H])c([H])c4C([H])([H])C([H])([H])C2([H])[H])C3([H])[H])c1[H]

>  <smiles>  (52) 
[H]N=C(C(=O)N1C([H])([H])C([H])([H])C([H])([H])C([H])(n2nc(-c3c([H])c([H])c(Oc4c([H])c([H])c(F)c([H])c4F)c([H])c3[H])c(C(=O)N([H])[H])c2N([H])[H])C1([H])[H])c1c([H])c(OC([H])([H])[H])c([H])c(C([H])([H])N([H])C(=O)C([H])([H])C([H])([H])C([H])([H])Oc2c([H])c([H])c3c(c2[H])C([H])([H])N(C(=O)C([H])(N([H])C(=O)C([H])(N([H])C([H])([H])[H])C([H])([H])[H])C(C([H])([H])[H])(C([H])([H])[H])C([H])([H])[H])C([H])(C(=O)N([H])C2([H])c4c([H])c([H])c([H])c([H])c4C([H])([H])C([H])([H])C2([H])[H])C3([H])[H])c1[H]

$$$$
52:0:0
     RDKit          3D

 99107  0  0  1  0  0  0  0  0999 V2000
  -29.8090  -22.2830   19.6130 C   0  0  0  0  0  0  0  0  0  0  0  0
  -28.9090  -21.2720   19.6440 N   0  0  0  0  0  0  0  0  0  0  0  0
  -31.0320  -22.1360   19.5490 O   0  0  0  0  0  0  0  0  0  0  0  0
  -27.9620  -21.5940   19.7960 H   0  0  0  0  0  0  0  0  0  0  0  0
  -28.4270  -19.1310   20.7180 C   0  0  0  0  0  3  0  0  0  0  0  0
  -30.0870  -18.9970   19.1680 C   0  0  0  0  0  0  0  0  0  0  0  0
  -29.1460  -19.8680   19.8190 C   0  0  0  0  0  0  0  0  0  0  0  0
  -30.0410  -17.8010   19.8590 C   0  0  0  0  0  0  0  0  0  0  0  0
  -28.5240  -16.7990   21.6560 C   0  0  0  0  0  1  0  0  0  0  0  0
  -28.9800  -17.8580   20.7660 N   0  0  0  0  0  0  0  0  0  0  0  0
  -31.0730  -14.3230   19.1300 C   0  0  0  0  0  0  0  0  0  0  0  0
  -30.5860  -12.1010   18.1730 C   0  0  0  0  0  2  0  0  0  0  0  0
  -29.4350  -12.2210   17.1530 C   0  0  0  0  0  2  0  0  0  0  0  0
  -28.0670  -12.1030   17.8570 C   0  0  0  0  0  2  0  0  0  0  0  0
  -27.9580  -13.0110   19.1110 C   0  0  0  0  0  3  0  0  0  0  0  0
  -29.2050  -12.8760   20.0100 C   0  0  0  0  0  2  0  0  0  0  0  0
  -30.3830  -13.1510   19.1790 N   0  0  0  0  0  0  0  0  0  0  0  0
  -32.1180  -14.4260   18.4800 O   0  0  0  0  0  0  0  0  0  0  0  0
  -30.9660  -16.6280   19.8140 C   0  0  0  0  0  0  0  0  0  0  0  0
  -30.4380  -15.3960   19.6550 N   0  0  0  0  0  0  0  0  0  0  0  0
  -32.1760  -16.8530   19.9110 O   0  0  0  0  0  0  0  0  0  0  0  0
  -29.4610  -15.2910   19.8610 H   0  0  0  0  0  0  0  0  0  0  0  0
  -25.8520  -13.6630   20.4330 C   0  0  0  0  0  0  0  0  0  0  0  0
  -24.8240  -12.9160   20.9450 C   0  0  0  0  0  0  0  0  0  0  0  0
  -25.1320  -11.5560   20.6330 C   0  0  0  0  0  0  0  0  0  0  0  0
  -26.7260  -12.7580   19.8530 N   0  0  0  0  0  0  0  0  0  0  0  0
  -26.3110  -11.4780   20.0270 N   0  0  0  0  0  0  0  0  0  0  0  0
  -24.3430  -10.3310   20.8220 C   0  0  0  0  0  0  0  0  0  0  0  0
  -24.7510   -9.3230   21.7240 C   0  0  0  0  0  3  0  0  0  0  0  0
  -23.9660   -8.1630   21.9010 C   0  0  0  0  0  3  0  0  0  0  0  0
  -22.7610   -8.0030   21.1770 C   0  0  0  0  0  0  0  0  0  0  0  0
  -22.3710   -9.0000   20.2650 C   0  0  0  0  0  3  0  0  0  0  0  0
  -23.1550  -10.1520   20.0840 C   0  0  0  0  0  3  0  0  0  0  0  0
  -21.9470   -6.9000   21.2690 O   0  0  0  0  0  0  0  0  0  0  0  0
  -21.7190   -6.2700   22.4670 C   0  0  0  0  0  0  0  0  0  0  0  0
  -21.1490   -6.9470   23.5670 C   0  0  0  0  0  3  0  0  0  0  0  0
  -20.8670   -6.2440   24.7560 C   0  0  0  0  0  3  0  0  0  0  0  0
  -21.1460   -4.8670   24.8450 C   0  0  0  0  0  0  0  0  0  0  0  0
  -21.7090   -4.1910   23.7480 C   0  0  0  0  0  3  0  0  0  0  0  0
  -21.9920   -4.8910   22.5620 C   0  0  0  0  0  0  0  0  0  0  0  0
  -22.5150   -4.2300   21.5010 F   0  0  0  0  0  0  0  0  0  0  0  0
  -20.8700   -4.1910   25.9850 F   0  0  0  0  0  0  0  0  0  0  0  0
  -23.5770  -13.4400   21.5950 C   0  0  0  0  0  0  0  0  0  0  0  0
  -23.0260  -12.6980   22.5490 N   0  0  0  0  0  0  0  0  0  0  0  0
  -23.1090  -14.5370   21.2900 O   0  0  0  0  0  0  0  0  0  0  0  0
  -23.4200  -11.8080   22.8160 H   0  0  0  0  0  0  0  0  0  0  0  0
  -22.1950  -13.0270   23.0200 H   0  0  0  0  0  0  0  0  0  0  0  0
  -26.0990  -15.0320   20.3880 N   0  0  0  0  0  0  0  0  0  0  0  0
  -25.3880  -15.6960   20.6720 H   0  0  0  0  0  0  0  0  0  0  0  0
  -26.8090  -15.4540   19.8020 H   0  0  0  0  0  0  0  0  0  0  0  0
  -31.0120  -19.1890   18.0120 C   0  0  0  0  0  0  0  0  0  0  0  0
  -30.4360  -19.8800   16.7850 C   0  0  0  0  0  1  0  0  0  0  0  0
  -32.1580  -18.7380   17.9690 O   0  0  0  0  0  0  0  0  0  0  0  0
  -29.1520  -23.7050   19.7110 C   0  0  0  0  0  0  0  0  0  0  0  0
  -28.5040  -23.9770   20.7280 O   0  0  0  0  0  0  0  0  0  0  0  0
  -29.1180  -26.0120   18.7250 C   0  0  0  0  0  3  0  0  0  0  0  0
  -29.3340  -24.6790   18.5820 C   0  0  0  0  0  0  0  0  0  0  0  0
  -29.7610  -24.1280   17.2260 C   0  0  0  0  0  1  0  0  0  0  0  0
  -28.7330  -26.6540   19.8780 O   0  0  0  0  0  0  0  0  0  0  0  0
  -24.7070  -31.6730   22.9460 C   0  0  0  0  0  0  0  0  0  0  0  0
  -27.5450  -27.3540   19.8560 C   0  0  0  0  0  0  0  0  0  0  0  0
  -23.5690  -30.2330   21.2900 C   0  0  0  0  0  3  0  0  0  0  0  0
  -25.0910  -28.7640   19.8700 C   0  0  0  0  0  0  0  0  0  0  0  0
  -26.0830  -30.6900   21.1140 C   0  0  0  0  0  2  0  0  0  0  0  0
  -26.2260  -29.3300   20.4640 C   0  0  0  0  0  0  0  0  0  0  0  0
  -27.4550  -28.6330   20.4550 C   0  0  0  0  0  3  0  0  0  0  0  0
  -26.3820  -26.7900   19.2830 C   0  0  0  0  0  3  0  0  0  0  0  0
  -25.1630  -27.4930   19.2780 C   0  0  0  0  0  3  0  0  0  0  0  0
  -23.8180  -29.5780   19.9060 C   0  0  0  0  0  2  0  0  0  0  0  0
  -24.8030  -30.8810   21.8400 N   0  0  0  0  0  0  0  0  0  0  0  0
  -23.6130  -31.8970   23.4810 O   0  0  0  0  0  0  0  0  0  0  0  0
  -22.9560  -29.1790   22.2430 C   0  0  0  0  0  0  0  0  0  0  0  0
  -21.6400  -28.9410   22.1110 N   0  0  0  0  0  0  0  0  0  0  0  0
  -23.6600  -28.5780   23.0590 O   0  0  0  0  0  0  0  0  0  0  0  0
  -21.1270  -29.4720   21.4210 H   0  0  0  0  0  0  0  0  0  0  0  0
  -18.3090  -27.6270   22.5990 C   0  0  0  0  0  0  0  0  0  0  0  0
  -20.8580  -27.9690   22.8750 C   0  0  0  0  0  3  0  0  0  0  0  0
  -21.0100  -26.5470   22.2840 C   0  0  0  0  0  2  0  0  0  0  0  0
  -19.9180  -26.1950   21.2700 C   0  0  0  0  0  2  0  0  0  0  0  0
  -18.5320  -26.2890   21.9150 C   0  0  0  0  0  2  0  0  0  0  0  0
  -19.4020  -28.4220   23.0380 C   0  0  0  0  0  0  0  0  0  0  0  0
  -19.1430  -29.6720   23.6410 C   0  0  0  0  0  3  0  0  0  0  0  0
  -17.8220  -30.1270   23.8110 C   0  0  0  0  0  3  0  0  0  0  0  0
  -16.7450  -29.3270   23.3920 C   0  0  0  0  0  3  0  0  0  0  0  0
  -16.9860  -28.0800   22.7890 C   0  0  0  0  0  3  0  0  0  0  0  0
  -25.9620  -32.3560   23.5750 C   0  0  0  0  0  3  0  0  0  0  0  0
  -26.5910  -31.5290   24.7620 C   0  0  1  0  0  0  0  0  0  0  0  0
  -25.5620  -31.0880   25.8260 C   0  0  0  0  0  1  0  0  0  0  0  0
  -27.2990  -30.2600   24.2320 C   0  0  0  0  0  1  0  0  0  0  0  0
  -27.6710  -32.3740   25.4780 C   0  0  0  0  0  1  0  0  0  0  0  0
  -25.5560  -33.6890   24.0370 N   0  0  0  0  0  0  0  0  0  0  0  0
  -25.7590  -34.8220   23.3540 C   0  0  0  0  0  0  0  0  0  0  0  0
  -26.3780  -34.8610   22.2880 O   0  0  0  0  0  0  0  0  0  0  0  0
  -25.0020  -33.7250   24.8800 H   0  0  0  0  0  0  0  0  0  0  0  0
  -23.8720  -36.4810   23.2200 C   0  0  0  0  0  1  0  0  0  0  0  0
  -25.1790  -36.1220   23.9480 C   0  0  0  0  0  3  0  0  0  0  0  0
  -27.2710  -37.1170   24.7650 C   0  0  0  0  0  1  0  0  0  0  0  0
  -26.1150  -37.2660   23.8840 N   0  0  0  0  0  0  0  0  0  0  0  0
  -25.6430  -38.1340   24.1200 H   0  0  0  0  0  0  0  0  0  0  0  0
  1  2  1  0
  1 54  1  0
  2  4  1  0
  2  7  1  0
  3  1  2  0
  5 10  1  0
  6  7  1  0
  6  8  2  0
  7  5  2  0
  8 10  1  0
 10  9  1  0
 11 17  1  0
 11 20  1  0
 12 17  1  0
 13 14  1  0
 13 12  1  0
 15 14  1  0
 15 26  1  0
 15 16  1  0
 17 16  1  0
 18 11  2  0
 19  8  1  0
 19 21  2  0
 20 19  1  0
 20 22  1  0
 23 24  2  0
 24 43  1  0
 25 28  1  0
 25 24  1  0
 26 27  1  0
 26 23  1  0
 27 25  2  0
 28 29  1  0
 29 30  2  0
 31 34  1  0
 31 30  1  0
 32 31  2  0
 33 32  1  0
 33 28  2  0
 34 35  1  0
 35 40  2  0
 35 36  1  0
 36 37  2  0
 37 38  1  0
 38 42  1  0
 39 38  2  0
 40 39  1  0
 41 40  1  0
 43 44  1  0
 44 46  1  0
 44 47  1  0
 45 43  2  0
 48 23  1  0
 48 49  1  0
 50 48  1  0
 51  6  1  0
 52 51  1  0
 53 51  2  0
 54 55  2  0
 56 59  1  0
 57 56  2  0
 57 54  1  0
 58 57  1  0
 60 71  2  0
 61 59  1  0
 61 66  1  0
 62 70  1  0
 62 72  1  0
 63 69  1  0
 63 65  1  0
 64 70  1  0
 65 64  1  0
 66 65  2  0
 67 61  2  0
 68 67  1  0
 68 63  2  0
 69 62  1  0
 70 60  1  0
 72 74  2  0
 73 72  1  0
 75 73  1  0
 76 85  2  0
 76 81  1  0
 77 73  1  0
 77 81  1  0
 78 77  1  0
 79 80  1  0
 79 78  1  0
 80 76  1  0
 81 82  2  0
 82 83  1  0
 84 83  2  0
 85 84  1  0
 86 60  1  0
 86 91  1  0
 86 87  1  0
 87 90  1  1
 87 88  1  0
 89 87  1  0
 91 94  1  0
 92 96  1  0
 92 91  1  0
 93 92  2  0
 96 95  1  0
 98 96  1  0
 98 99  1  0
 98 97  1  0
M  ISO  4  11 100  20 100  56 101  59 101
M  END
>  <TORSDO>  (53) 
F 20

>  <SCORE>  (53) 
-10.079

>  <name>  (53) 
52

>  <ligand_id>  (53) 
52

>  <original_smiles>  (53) 
[H]C(Oc1c([H])c([H])c2c(c1[H])C([H])([H])N(C(=O)C([H])(N([H])C(=O)C([H])(N([H])C([H])([H])[H])C([H])([H])[H])C(C([H])([H])[H])(C([H])([H])[H])C([H])([H])[H])C([H])(C(=O)N([H])C1([H])c3c([H])c([H])c([H])c([H])c3C([H])([H])C([H])([H])C1([H])[H])C2([H])[H])=C(C(=O)C(=O)N([H])c1c(C(=O)C([H])([H])[H])c(C(=O)N([H])C(=O)N2C([H])([H])C([H])([H])C([H])([H])C([H])(n3nc(-c4c([H])c([H])c(Oc5c([H])c([H])c(F)c([H])c5F)c([H])c4[H])c(C(=O)N([H])[H])c3N([H])[H])C2([H])[H])n(C([H])([H])[H])c1[H])C([H])([H])[H]

>  <smiles>  (53) 
[H]C(Oc1c([H])c([H])c2c(c1[H])C([H])([H])N(C(=O)C([H])(N([H])C(=O)C([H])(N([H])C([H])([H])[H])C([H])([H])[H])C(C([H])([H])[H])(C([H])([H])[H])C([H])([H])[H])C([H])(C(=O)N([H])C1([H])c3c([H])c([H])c([H])c([H])c3C([H])([H])C([H])([H])C1([H])[H])C2([H])[H])=C(C(=O)C(=O)N([H])c1c(C(=O)C([H])([H])[H])c(C(=O)N([H])C(=O)N2C([H])([H])C([H])([H])C([H])([H])C([H])(n3nc(-c4c([H])c([H])c(Oc5c([H])c([H])c(F)c([H])c5F)c([H])c4[H])c(C(=O)N([H])[H])c3N([H])[H])C2([H])[H])n(C([H])([H])[H])c1[H])C([H])([H])[H]

$$$$
53:0:0
     RDKit          3D

 89 97  0  0  1  0  0  0  0  0999 V2000
  -28.8090  -19.9930   20.8670 C   0  0  0  0  0  3  0  0  0  0  0  0
  -29.0450  -18.5700   21.0300 C   0  0  0  0  0  3  0  0  0  0  0  0
  -30.4370  -18.5300   19.1490 C   0  0  0  0  0  3  0  0  0  0  0  0
  -30.1950  -19.9680   18.9690 C   0  0  0  0  0  0  0  0  0  0  0  0
  -29.3580  -20.7930   19.8200 C   0  0  0  0  0  0  0  0  0  0  0  0
  -29.8680  -17.7210   20.1950 C   0  0  0  0  0  0  0  0  0  0  0  0
  -30.8720  -20.6500   17.7910 C   0  0  0  0  0  1  0  0  0  0  0  0
  -30.6530  -15.0860   19.8340 C   0  0  0  0  0  0  0  0  0  0  0  0
  -30.4220  -12.7870   18.7490 C   0  0  0  0  0  2  0  0  0  0  0  0
  -29.3750  -12.7980   17.6080 C   0  0  0  0  0  2  0  0  0  0  0  0
  -27.9530  -12.5620   18.1510 C   0  0  0  0  0  2  0  0  0  0  0  0
  -27.6670  -13.4180   19.4090 C   0  0  0  0  0  3  0  0  0  0  0  0
  -28.8170  -13.3320   20.4290 C   0  0  0  0  0  2  0  0  0  0  0  0
  -30.0410  -13.8200   19.7630 N   0  0  0  0  0  0  0  0  0  0  0  0
  -31.7460  -15.1990   19.2630 O   0  0  0  0  0  0  0  0  0  0  0  0
  -29.8580  -15.9210   21.9390 C   0  0  0  0  0  1  0  0  0  0  0  0
  -30.0520  -16.2040   20.5050 N   0  0  0  0  0  0  0  0  0  0  0  0
  -25.3690  -13.9760   20.3880 C   0  0  0  0  0  0  0  0  0  0  0  0
  -24.3350  -13.1900   20.8170 C   0  0  0  0  0  0  0  0  0  0  0  0
  -24.7830  -11.8390   20.6830 C   0  0  0  0  0  0  0  0  0  0  0  0
  -26.3770  -13.1030   20.0120 N   0  0  0  0  0  0  0  0  0  0  0  0
  -26.0400  -11.8100   20.2550 N   0  0  0  0  0  0  0  0  0  0  0  0
  -24.0650  -10.5730   20.8830 C   0  0  0  0  0  0  0  0  0  0  0  0
  -24.5080   -9.6100   21.8140 C   0  0  0  0  0  3  0  0  0  0  0  0
  -23.7900   -8.4090   22.0010 C   0  0  0  0  0  3  0  0  0  0  0  0
  -22.6120   -8.1630   21.2550 C   0  0  0  0  0  0  0  0  0  0  0  0
  -22.1870   -9.1160   20.3130 C   0  0  0  0  0  3  0  0  0  0  0  0
  -22.9050  -10.3080   20.1260 C   0  0  0  0  0  3  0  0  0  0  0  0
  -21.8650   -7.0140   21.3500 O   0  0  0  0  0  0  0  0  0  0  0  0
  -21.7380   -6.3330   22.5340 C   0  0  0  0  0  0  0  0  0  0  0  0
  -21.2060   -6.9440   23.6900 C   0  0  0  0  0  3  0  0  0  0  0  0
  -21.0270   -6.1910   24.8670 C   0  0  0  0  0  3  0  0  0  0  0  0
  -21.3690   -4.8250   24.8870 C   0  0  0  0  0  0  0  0  0  0  0  0
  -21.8920   -4.2130   23.7360 C   0  0  0  0  0  3  0  0  0  0  0  0
  -22.0730   -4.9640   22.5610 C   0  0  0  0  0  0  0  0  0  0  0  0
  -22.5570   -4.3640   21.4470 F   0  0  0  0  0  0  0  0  0  0  0  0
  -21.1910   -4.0980   26.0150 F   0  0  0  0  0  0  0  0  0  0  0  0
  -22.9720  -13.6620   21.2350 C   0  0  0  0  0  0  0  0  0  0  0  0
  -22.3220  -12.9350   22.1350 N   0  0  0  0  0  0  0  0  0  0  0  0
  -22.4980  -14.7080   20.7970 O   0  0  0  0  0  0  0  0  0  0  0  0
  -22.7200  -12.0840   22.5050 H   0  0  0  0  0  0  0  0  0  0  0  0
  -21.4130  -13.2330   22.4600 H   0  0  0  0  0  0  0  0  0  0  0  0
  -25.5320  -15.3520   20.2610 N   0  0  0  0  0  0  0  0  0  0  0  0
  -24.7860  -16.0100   20.4670 H   0  0  0  0  0  0  0  0  0  0  0  0
  -26.3710  -15.7990   19.9130 H   0  0  0  0  0  0  0  0  0  0  0  0
  -28.8040  -23.3530   20.2030 C   0  0  0  0  0  3  0  0  0  0  0  0
  -28.9510  -22.2070   19.4980 N   0  0  0  0  0  0  0  0  0  0  0  0
  -28.0340  -24.7630   19.7200 C   0  0  0  0  0  2  0  0  0  0  0  0
  -28.2390  -26.2240   20.2420 O   0  0  0  0  0  0  0  0  0  0  0  0
  -24.6190  -31.9290   23.2360 C   0  0  0  0  0  0  0  0  0  0  0  0
  -27.1920  -27.2230   20.1650 C   0  0  0  0  0  0  0  0  0  0  0  0
  -23.4110  -30.5340   21.6060 C   0  0  0  0  0  3  0  0  0  0  0  0
  -24.8550  -28.9700   20.1610 C   0  0  0  0  0  0  0  0  0  0  0  0
  -25.9620  -30.8040   21.4200 C   0  0  0  0  0  2  0  0  0  0  0  0
  -26.0370  -29.4110   20.7690 C   0  0  0  0  0  0  0  0  0  0  0  0
  -27.2010  -28.5510   20.7640 C   0  0  0  0  0  3  0  0  0  0  0  0
  -25.9860  -26.9030   19.4970 C   0  0  0  0  0  3  0  0  0  0  0  0
  -24.8430  -27.7290   19.5100 C   0  0  0  0  0  3  0  0  0  0  0  0
  -23.6230  -29.8620   20.2230 C   0  0  0  0  0  2  0  0  0  0  0  0
  -24.6860  -31.1100   22.1420 N   0  0  0  0  0  0  0  0  0  0  0  0
  -23.5360  -32.2100   23.7710 O   0  0  0  0  0  0  0  0  0  0  0  0
  -22.7420  -29.5220   22.5700 C   0  0  0  0  0  0  0  0  0  0  0  0
  -21.4200  -29.3180   22.4250 N   0  0  0  0  0  0  0  0  0  0  0  0
  -23.4160  -28.9220   23.4110 O   0  0  0  0  0  0  0  0  0  0  0  0
  -20.9290  -29.8610   21.7270 H   0  0  0  0  0  0  0  0  0  0  0  0
  -18.0660  -28.0220   22.8740 C   0  0  0  0  0  0  0  0  0  0  0  0
  -20.6100  -28.3710   23.1950 C   0  0  0  0  0  3  0  0  0  0  0  0
  -20.7690  -26.9310   22.6550 C   0  0  0  0  0  2  0  0  0  0  0  0
  -19.7030  -26.5520   21.6230 C   0  0  0  0  0  2  0  0  0  0  0  0
  -18.3010  -26.6660   22.2290 C   0  0  0  0  0  2  0  0  0  0  0  0
  -19.1500  -28.8280   23.3130 C   0  0  0  0  0  0  0  0  0  0  0  0
  -18.8770  -30.0940   23.8760 C   0  0  0  0  0  3  0  0  0  0  0  0
  -17.5530  -30.5570   24.0000 C   0  0  0  0  0  3  0  0  0  0  0  0
  -16.4840  -29.7490   23.5760 C   0  0  0  0  0  3  0  0  0  0  0  0
  -16.7410  -28.4830   23.0210 C   0  0  0  0  0  3  0  0  0  0  0  0
  -25.8990  -32.5680   23.8550 C   0  0  0  0  0  3  0  0  0  0  0  0
  -25.5950  -33.9760   24.1650 N   0  0  0  0  0  0  0  0  0  0  0  0
  -25.9160  -35.0150   23.3830 C   0  0  0  0  0  0  0  0  0  0  0  0
  -26.5650  -34.8910   22.3410 O   0  0  0  0  0  0  0  0  0  0  0  0
  -25.0200  -34.1450   24.9750 H   0  0  0  0  0  0  0  0  0  0  0  0
  -24.1750  -36.8010   23.0460 C   0  0  0  0  0  1  0  0  0  0  0  0
  -25.4410  -36.4130   23.8260 C   0  0  0  0  0  3  0  0  0  0  0  0
  -27.5980  -37.3210   24.5740 C   0  0  0  0  0  1  0  0  0  0  0  0
  -26.4680  -37.4660   23.6590 N   0  0  0  0  0  0  0  0  0  0  0  0
  -26.0640  -38.3880   23.7970 H   0  0  0  0  0  0  0  0  0  0  0  0
  -26.4030  -31.8180   25.1500 C   0  0  1  0  0  0  0  0  0  0  0  0
  -25.2970  -31.5960   26.2080 C   0  0  0  0  0  1  0  0  0  0  0  0
  -26.9900  -30.4350   24.7870 C   0  0  0  0  0  1  0  0  0  0  0  0
  -27.5480  -32.6190   25.8110 C   0  0  0  0  0  1  0  0  0  0  0  0
  1  2  1  0
  3  6  1  0
  4  3  2  0
  4  5  1  0
  5  1  2  0
  6 17  1  0
  6  2  2  0
  7  4  1  0
  8 17  1  0
  9 14  1  0
 10 11  1  0
 10  9  1  0
 12 11  1  0
 12 21  1  0
 12 13  1  0
 14  8  1  0
 14 13  1  0
 15  8  2  0
 17 16  1  0
 18 19  2  0
 19 38  1  0
 20 19  1  0
 20 23  1  0
 21 22  1  0
 21 18  1  0
 22 20  2  0
 23 24  1  0
 24 25  2  0
 26 29  1  0
 26 25  1  0
 27 26  2  0
 28 27  1  0
 28 23  2  0
 29 30  1  0
 30 35  2  0
 30 31  1  0
 31 32  2  0
 32 33  1  0
 33 37  1  0
 34 33  2  0
 35 34  1  0
 36 35  1  0
 38 39  1  0
 39 42  1  0
 39 41  1  0
 40 38  2  0
 43 18  1  0
 43 44  1  0
 45 43  1  0
 47  5  1  0
 47 46  2  0
 48 46  1  0
 48 49  1  0
 50 61  2  0
 51 49  1  0
 51 56  1  0
 52 60  1  0
 52 62  1  0
 53 59  1  0
 53 55  1  0
 54 60  1  0
 55 54  1  0
 56 55  2  0
 57 58  1  0
 57 51  2  0
 58 53  2  0
 59 52  1  0
 60 50  1  0
 62 64  2  0
 63 62  1  0
 65 63  1  0
 66 75  2  0
 66 71  1  0
 67 63  1  0
 67 71  1  0
 68 67  1  0
 69 70  1  0
 69 68  1  0
 70 66  1  0
 71 72  2  0
 72 73  1  0
 74 73  2  0
 75 74  1  0
 76 50  1  0
 76 77  1  0
 76 86  1  0
 77 80  1  0
 78 82  1  0
 78 77  1  0
 79 78  2  0
 82 81  1  0
 84 85  1  0
 84 82  1  0
 84 83  1  0
 86 89  1  1
 86 87  1  0
 88 86  1  0
M  ISO  4   8 100  17 100  48 101  49 101
M  END
>  <TORSDO>  (54) 
F 18

>  <SCORE>  (54) 
-13.515

>  <name>  (54) 
53

>  <ligand_id>  (54) 
53

>  <original_smiles>  (54) 
[H]C(=Nc1c([H])c([H])c(N(C(=O)N2C([H])([H])C([H])([H])C([H])([H])C([H])(n3nc(-c4c([H])c([H])c(Oc5c([H])c([H])c(F)c([H])c5F)c([H])c4[H])c(C(=O)N([H])[H])c3N([H])[H])C2([H])[H])C([H])([H])[H])c([H])c1C([H])([H])[H])C([H])([H])Oc1c([H])c([H])c2c(c1[H])C([H])([H])N(C(=O)C([H])(N([H])C(=O)C([H])(N([H])C([H])([H])[H])C([H])([H])[H])C(C([H])([H])[H])(C([H])([H])[H])C([H])([H])[H])C([H])(C(=O)N([H])C1([H])c3c([H])c([H])c([H])c([H])c3C([H])([H])C([H])([H])C1([H])[H])C2([H])[H]

>  <smiles>  (54) 
[H]C(=Nc1c([H])c([H])c(N(C(=O)N2C([H])([H])C([H])([H])C([H])([H])C([H])(n3nc(-c4c([H])c([H])c(Oc5c([H])c([H])c(F)c([H])c5F)c([H])c4[H])c(C(=O)N([H])[H])c3N([H])[H])C2([H])[H])C([H])([H])[H])c([H])c1C([H])([H])[H])C([H])([H])Oc1c([H])c([H])c2c(c1[H])C([H])([H])N(C(=O)C([H])(N([H])C(=O)C([H])(N([H])C([H])([H])[H])C([H])([H])[H])C(C([H])([H])[H])(C([H])([H])[H])C([H])([H])[H])C([H])(C(=O)N([H])C1([H])c3c([H])c([H])c([H])c([H])c3C([H])([H])C([H])([H])C1([H])[H])C2([H])[H]

$$$$
54:0:0
     RDKit          3D

 99107  0  0  1  0  0  0  0  0999 V2000
  -28.5530  -18.8980   20.3140 C   0  0  0  0  0  3  0  0  0  0  0  0
  -28.2210  -20.2750   20.5010 C   0  0  0  0  0  3  0  0  0  0  0  0
  -29.8620  -18.4810   19.9450 C   0  0  0  0  0  0  0  0  0  0  0  0
  -30.8430  -19.5240   19.8400 C   0  0  0  0  0  0  0  0  0  0  0  0
  -29.1830  -21.3140   20.3810 C   0  0  0  0  0  0  0  0  0  0  0  0
  -30.5150  -20.9020   20.0940 C   0  0  0  0  0  0  0  0  0  0  0  0
  -28.5720  -23.8040   19.9970 C   0  0  0  0  0  0  0  0  0  0  0  0
  -28.8780  -22.6970   20.7500 N   0  0  0  0  0  0  0  0  0  0  0  0
  -28.4450  -23.7490   18.7700 O   0  0  0  0  0  0  0  0  0  0  0  0
  -28.9660  -22.8900   21.7400 H   0  0  0  0  0  0  0  0  0  0  0  0
  -28.3530  -25.1850   20.7520 C   0  0  0  0  0  2  0  0  0  0  0  0
  -28.4030  -26.4290   19.9530 O   0  0  0  0  0  0  0  0  0  0  0  0
  -24.5710  -31.6970   23.0790 C   0  0  0  0  0  0  0  0  0  0  0  0
  -27.2660  -27.2420   19.9690 C   0  0  0  0  0  0  0  0  0  0  0  0
  -23.3880  -30.2950   21.4210 C   0  0  0  0  0  3  0  0  0  0  0  0
  -24.8670  -28.7840   19.9740 C   0  0  0  0  0  0  0  0  0  0  0  0
  -25.9170  -30.6710   21.2320 C   0  0  0  0  0  2  0  0  0  0  0  0
  -26.0240  -29.3000   20.5720 C   0  0  0  0  0  0  0  0  0  0  0  0
  -27.2320  -28.5450   20.5510 C   0  0  0  0  0  3  0  0  0  0  0  0
  -26.0870  -26.7640   19.3620 C   0  0  0  0  0  3  0  0  0  0  0  0
  -24.8970  -27.5220   19.3590 C   0  0  0  0  0  3  0  0  0  0  0  0
  -23.6100  -29.6310   20.0340 C   0  0  0  0  0  2  0  0  0  0  0  0
  -24.6440  -30.9050   21.9690 N   0  0  0  0  0  0  0  0  0  0  0  0
  -23.4840  -31.9500   23.6210 O   0  0  0  0  0  0  0  0  0  0  0  0
  -22.7440  -29.2610   22.3720 C   0  0  0  0  0  0  0  0  0  0  0  0
  -21.4210  -29.0640   22.2440 N   0  0  0  0  0  0  0  0  0  0  0  0
  -23.4350  -28.6370   23.1820 O   0  0  0  0  0  0  0  0  0  0  0  0
  -20.9250  -29.6250   21.5640 H   0  0  0  0  0  0  0  0  0  0  0  0
  -18.0630  -27.8090   22.7280 C   0  0  0  0  0  0  0  0  0  0  0  0
  -20.6160  -28.1050   23.0020 C   0  0  0  0  0  3  0  0  0  0  0  0
  -20.7400  -26.6820   22.4090 C   0  0  0  0  0  2  0  0  0  0  0  0
  -19.6450  -26.3550   21.3900 C   0  0  0  0  0  2  0  0  0  0  0  0
  -18.2600  -26.4700   22.0350 C   0  0  0  0  0  2  0  0  0  0  0  0
  -19.1690  -28.5830   23.1660 C   0  0  0  0  0  0  0  0  0  0  0  0
  -18.9300  -29.8360   23.7710 C   0  0  0  0  0  3  0  0  0  0  0  0
  -17.6180  -30.3150   23.9430 C   0  0  0  0  0  3  0  0  0  0  0  0
  -16.5260  -29.5370   23.5200 C   0  0  0  0  0  3  0  0  0  0  0  0
  -16.7500  -28.2860   22.9170 C   0  0  0  0  0  3  0  0  0  0  0  0
  -25.8470  -32.3400   23.7070 C   0  0  0  0  0  3  0  0  0  0  0  0
  -25.5070  -33.7200   24.0820 N   0  0  0  0  0  0  0  0  0  0  0  0
  -25.8060  -34.8030   23.3520 C   0  0  0  0  0  0  0  0  0  0  0  0
  -26.4670  -34.7490   22.3120 O   0  0  0  0  0  0  0  0  0  0  0  0
  -24.9170  -33.8340   24.8940 H   0  0  0  0  0  0  0  0  0  0  0  0
  -24.0340  -36.5670   23.0700 C   0  0  0  0  0  1  0  0  0  0  0  0
  -25.2920  -36.1670   23.8570 C   0  0  0  0  0  3  0  0  0  0  0  0
  -27.4160  -37.0690   24.6950 C   0  0  0  0  0  1  0  0  0  0  0  0
  -26.3000  -37.2450   23.7700 N   0  0  0  0  0  0  0  0  0  0  0  0
  -25.8750  -38.1490   23.9580 H   0  0  0  0  0  0  0  0  0  0  0  0
  -26.3920  -31.5440   24.9550 C   0  0  1  0  0  0  0  0  0  0  0  0
  -25.3150  -31.2520   26.0270 C   0  0  0  0  0  1  0  0  0  0  0  0
  -27.0010  -30.1900   24.5170 C   0  0  0  0  0  1  0  0  0  0  0  0
  -27.5290  -32.3440   25.6320 C   0  0  0  0  0  1  0  0  0  0  0  0
  -32.2350  -21.9720   21.2790 C   0  0  0  0  0  1  0  0  0  0  0  0
  -31.4940  -21.8670   20.0660 O   0  0  0  0  0  0  0  0  0  0  0  0
  -30.2550  -17.0270   19.6650 C   0  0  0  0  0  3  0  0  0  0  0  0
  -29.7840  -15.7890   20.0400 C   0  0  0  0  0  3  0  0  0  0  0  0
  -30.4800  -14.5480   19.5640 C   0  0  0  0  0  0  0  0  0  0  0  0
  -30.0530  -12.3550   18.4880 C   0  0  0  0  0  2  0  0  0  0  0  0
  -28.9760  -12.5600   17.4000 C   0  0  0  0  0  2  0  0  0  0  0  0
  -27.5650  -12.4160   18.0030 C   0  0  0  0  0  2  0  0  0  0  0  0
  -27.3840  -13.2310   19.3150 C   0  0  0  0  0  3  0  0  0  0  0  0
  -28.5710  -13.0140   20.2760 C   0  0  0  0  0  2  0  0  0  0  0  0
  -29.8040  -13.3530   19.5520 N   0  0  0  0  0  0  0  0  0  0  0  0
  -31.5980  -14.6070   19.0430 O   0  0  0  0  0  0  0  0  0  0  0  0
  -25.1260  -13.8220   20.3830 C   0  0  0  0  0  0  0  0  0  0  0  0
  -24.1010  -13.0450   20.8520 C   0  0  0  0  0  0  0  0  0  0  0  0
  -24.5250  -11.6890   20.6900 C   0  0  0  0  0  0  0  0  0  0  0  0
  -26.1080  -12.9410   19.9630 N   0  0  0  0  0  0  0  0  0  0  0  0
  -25.7600  -11.6500   20.2060 N   0  0  0  0  0  0  0  0  0  0  0  0
  -23.8050  -10.4280   20.9080 C   0  0  0  0  0  0  0  0  0  0  0  0
  -24.2840   -9.4480   21.8040 C   0  0  0  0  0  3  0  0  0  0  0  0
  -23.5590   -8.2550   22.0080 C   0  0  0  0  0  3  0  0  0  0  0  0
  -22.3440   -8.0310   21.3150 C   0  0  0  0  0  0  0  0  0  0  0  0
  -21.8870   -9.0010   20.4050 C   0  0  0  0  0  3  0  0  0  0  0  0
  -22.6120  -10.1860   20.2000 C   0  0  0  0  0  3  0  0  0  0  0  0
  -21.5880   -6.8900   21.4340 O   0  0  0  0  0  0  0  0  0  0  0  0
  -21.5320   -6.1800   22.6060 C   0  0  0  0  0  0  0  0  0  0  0  0
  -21.0980   -6.7710   23.8130 C   0  0  0  0  0  3  0  0  0  0  0  0
  -20.9940   -5.9890   24.9790 C   0  0  0  0  0  3  0  0  0  0  0  0
  -21.3070   -4.6180   24.9430 C   0  0  0  0  0  0  0  0  0  0  0  0
  -21.7320   -4.0270   23.7400 C   0  0  0  0  0  3  0  0  0  0  0  0
  -21.8430   -4.8040   22.5750 C   0  0  0  0  0  0  0  0  0  0  0  0
  -22.2350   -4.2250   21.4140 F   0  0  0  0  0  0  0  0  0  0  0  0
  -21.1990   -3.8670   26.0630 F   0  0  0  0  0  0  0  0  0  0  0  0
  -22.7640  -13.5280   21.3310 C   0  0  0  0  0  0  0  0  0  0  0  0
  -22.1460  -12.8100   22.2610 N   0  0  0  0  0  0  0  0  0  0  0  0
  -22.2800  -14.5770   20.9110 O   0  0  0  0  0  0  0  0  0  0  0  0
  -22.5540  -11.9550   22.6100 H   0  0  0  0  0  0  0  0  0  0  0  0
  -21.2560  -13.1150   22.6280 H   0  0  0  0  0  0  0  0  0  0  0  0
  -25.2980  -15.2000   20.2560 N   0  0  0  0  0  0  0  0  0  0  0  0
  -24.5800  -15.8710   20.5030 H   0  0  0  0  0  0  0  0  0  0  0  0
  -26.1150  -15.6340   19.8450 H   0  0  0  0  0  0  0  0  0  0  0  0
  -32.2760  -19.1780   19.4130 C   0  0  0  0  0  2  0  0  0  0  0  0
  -33.3830  -17.0930   19.1260 C   0  0  0  0  0  0  0  0  0  0  0  0
  -33.9620  -17.4540   17.7630 C   0  0  0  0  0  1  0  0  0  0  0  0
  -32.6550  -17.8430   19.8620 N   0  0  0  0  0  0  0  0  0  0  0  0
  -33.7160  -15.7680   19.5910 C   0  0  0  0  0  0  0  0  0  0  0  0
  -33.9570  -14.6440   20.0090 C   0  0  0  0  0  0  0  0  0  0  0  0
  -34.2580  -13.3020   20.5300 C   0  0  0  0  0  1  0  0  0  0  0  0
  1  2  1  0
  3  1  2  0
  4  3  1  0
  4  6  2  0
  5  2  2  0
  5  8  1  0
  6  5  1  0
  7  8  1  0
  7 11  1  0
  8 10  1  0
  9  7  2  0
 12 14  1  0
 12 11  1  0
 13 24  2  0
 14 19  1  0
 15 23  1  0
 15 25  1  0
 16 22  1  0
 16 18  1  0
 17 23  1  0
 18 17  1  0
 19 18  2  0
 20 14  2  0
 21 20  1  0
 21 16  2  0
 22 15  1  0
 23 13  1  0
 25 27  2  0
 26 25  1  0
 28 26  1  0
 29 38  2  0
 29 34  1  0
 30 26  1  0
 30 34  1  0
 31 30  1  0
 32 33  1  0
 32 31  1  0
 33 29  1  0
 34 35  2  0
 35 36  1  0
 37 36  2  0
 38 37  1  0
 39 13  1  0
 39 40  1  0
 39 49  1  0
 40 43  1  0
 41 45  1  0
 41 40  1  0
 42 41  2  0
 45 44  1  0
 47 45  1  0
 47 48  1  0
 47 46  1  0
 49 52  1  1
 49 50  1  0
 51 49  1  0
 54  6  1  0
 54 53  1  0
 55  3  1  0
 55 56  2  0
 57 56  1  0
 58 63  1  0
 59 60  1  0
 59 58  1  0
 61 60  1  0
 61 68  1  0
 61 62  1  0
 63 57  1  0
 63 62  1  0
 64 57  2  0
 65 66  2  0
 66 85  1  0
 67 66  1  0
 67 70  1  0
 68 69  1  0
 68 65  1  0
 69 67  2  0
 70 71  1  0
 71 72  2  0
 73 76  1  0
 73 72  1  0
 74 73  2  0
 75 74  1  0
 75 70  2  0
 76 77  1  0
 77 78  1  0
 78 79  2  0
 80 79  1  0
 80 84  1  0
 81 80  2  0
 82 77  2  0
 82 81  1  0
 83 82  1  0
 85 86  1  0
 86 88  1  0
 86 89  1  0
 87 85  2  0
 90 65  1  0
 90 91  1  0
 92 90  1  0
 93  4  1  0
 93 96  1  0
 94 97  1  0
 94 96  2  0
 95 94  1  0
 97 98  3  0
 98 99  1  0
M  ISO  4  11 101  12 101  56 100  57 100
M  END
>  <TORSDO>  (55) 
F 23

>  <SCORE>  (55) 
-11.875

>  <name>  (55) 
54

>  <ligand_id>  (55) 
54

>  <original_smiles>  (55) 
[H]C(C(=O)N1C([H])([H])C([H])([H])C([H])([H])C([H])(n2nc(-c3c([H])c([H])c(Oc4c([H])c([H])c(F)c([H])c4F)c([H])c3[H])c(C(=O)N([H])[H])c2N([H])[H])C1([H])[H])=C([H])c1c([H])c([H])c(N([H])C(=O)C([H])([H])Oc2c([H])c([H])c3c(c2[H])C([H])([H])N(C(=O)C([H])(N([H])C(=O)C([H])(N([H])C([H])([H])[H])C([H])([H])[H])C(C([H])([H])[H])(C([H])([H])[H])C([H])([H])[H])C([H])(C(=O)N([H])C2([H])c4c([H])c([H])c([H])c([H])c4C([H])([H])C([H])([H])C2([H])[H])C3([H])[H])c(OC([H])([H])[H])c1C([H])([H])N=C(C#CC([H])([H])[H])C([H])([H])[H]

>  <smiles>  (55) 
[H]C(C(=O)N1C([H])([H])C([H])([H])C([H])([H])C([H])(n2nc(-c3c([H])c([H])c(Oc4c([H])c([H])c(F)c([H])c4F)c([H])c3[H])c(C(=O)N([H])[H])c2N([H])[H])C1([H])[H])=C([H])c1c([H])c([H])c(N([H])C(=O)C([H])([H])Oc2c([H])c([H])c3c(c2[H])C([H])([H])N(C(=O)C([H])(N([H])C(=O)C([H])(N([H])C([H])([H])[H])C([H])([H])[H])C(C([H])([H])[H])(C([H])([H])[H])C([H])([H])[H])C([H])(C(=O)N([H])C2([H])c4c([H])c([H])c([H])c([H])c4C([H])([H])C([H])([H])C2([H])[H])C3([H])[H])c(OC([H])([H])[H])c1C([H])([H])N=C(C#CC([H])([H])[H])C([H])([H])[H]

$$$$
55:0:0
     RDKit          3D

 94102  0  0  1  0  0  0  0  0999 V2000
  -30.0960  -20.2960   18.7180 C   0  0  0  0  0  3  0  0  0  0  0  0
  -30.1520  -18.9800   18.2470 C   0  0  0  0  0  3  0  0  0  0  0  0
  -30.3170  -18.1110   20.5320 C   0  0  0  0  0  0  0  0  0  0  0  0
  -30.3040  -19.4840   21.0130 C   0  0  0  0  0  0  0  0  0  0  0  0
  -30.1610  -20.5920   20.0970 C   0  0  0  0  0  0  0  0  0  0  0  0
  -30.2640  -17.8810   19.1300 C   0  0  0  0  0  0  0  0  0  0  0  0
  -30.3490  -16.9660   21.5320 C   0  0  0  0  0  3  0  0  0  0  0  0
  -30.6840  -15.6400   21.6110 C   0  0  0  0  0  3  0  0  0  0  0  0
  -31.2830  -14.7030   20.6490 C   0  0  0  0  0  0  0  0  0  0  0  0
  -30.9460  -12.5870   19.3810 C   0  0  0  0  0  2  0  0  0  0  0  0
  -30.0330  -12.8210   18.1580 C   0  0  0  0  0  2  0  0  0  0  0  0
  -28.5460  -12.7170   18.5440 C   0  0  0  0  0  2  0  0  0  0  0  0
  -28.2030  -13.5360   19.8150 C   0  0  0  0  0  3  0  0  0  0  0  0
  -29.2190  -13.2460   20.9410 C   0  0  0  0  0  2  0  0  0  0  0  0
  -30.5710  -13.5520   20.4310 N   0  0  0  0  0  0  0  0  0  0  0  0
  -32.3770  -14.8960   20.1130 O   0  0  0  0  0  0  0  0  0  0  0  0
  -25.8010  -14.2080   20.4440 C   0  0  0  0  0  0  0  0  0  0  0  0
  -24.7000  -13.4660   20.7800 C   0  0  0  0  0  0  0  0  0  0  0  0
  -25.1260  -12.1030   20.7700 C   0  0  0  0  0  0  0  0  0  0  0  0
  -26.8290  -13.2990   20.2510 N   0  0  0  0  0  0  0  0  0  0  0  0
  -26.4240  -12.0280   20.5040 N   0  0  0  0  0  0  0  0  0  0  0  0
  -24.3600  -10.8610   20.9400 C   0  0  0  0  0  0  0  0  0  0  0  0
  -24.7330   -9.8880   21.8940 C   0  0  0  0  0  3  0  0  0  0  0  0
  -23.9710   -8.7110   22.0530 C   0  0  0  0  0  3  0  0  0  0  0  0
  -22.8230   -8.4970   21.2540 C   0  0  0  0  0  0  0  0  0  0  0  0
  -22.4680   -9.4560   20.2890 C   0  0  0  0  0  3  0  0  0  0  0  0
  -23.2310  -10.6260   20.1300 C   0  0  0  0  0  3  0  0  0  0  0  0
  -22.0380   -7.3710   21.3190 O   0  0  0  0  0  0  0  0  0  0  0  0
  -21.9120   -6.6470   22.4760 C   0  0  0  0  0  0  0  0  0  0  0  0
  -21.4540   -7.2350   23.6760 C   0  0  0  0  0  3  0  0  0  0  0  0
  -21.2700   -6.4400   24.8250 C   0  0  0  0  0  3  0  0  0  0  0  0
  -21.5370   -5.0580   24.7750 C   0  0  0  0  0  0  0  0  0  0  0  0
  -21.9890   -4.4700   23.5810 C   0  0  0  0  0  3  0  0  0  0  0  0
  -22.1720   -5.2630   22.4340 C   0  0  0  0  0  0  0  0  0  0  0  0
  -22.5870   -4.6880   21.2790 F   0  0  0  0  0  0  0  0  0  0  0  0
  -21.3540   -4.2930   25.8760 F   0  0  0  0  0  0  0  0  0  0  0  0
  -23.3080  -13.9820   21.0050 C   0  0  0  0  0  0  0  0  0  0  0  0
  -22.5380  -13.3130   21.8560 N   0  0  0  0  0  0  0  0  0  0  0  0
  -22.9110  -15.0130   20.4640 O   0  0  0  0  0  0  0  0  0  0  0  0
  -22.8720  -12.4800   22.3180 H   0  0  0  0  0  0  0  0  0  0  0  0
  -21.6010  -13.6390   22.0510 H   0  0  0  0  0  0  0  0  0  0  0  0
  -26.0070  -15.5750   20.2710 N   0  0  0  0  0  0  0  0  0  0  0  0
  -25.2580  -16.2510   20.3670 H   0  0  0  0  0  0  0  0  0  0  0  0
  -26.8880  -15.9920   20.0000 H   0  0  0  0  0  0  0  0  0  0  0  0
  -29.4670  -22.8810   19.9310 C   0  0  0  0  0  3  0  0  0  0  0  0
  -30.1750  -21.9590   20.4920 N   0  0  0  0  0  0  0  0  0  0  0  0
  -30.9000  -24.9390   19.5980 C   0  0  0  0  0  1  0  0  0  0  0  0
  -29.6060  -24.3970   20.2350 C   0  0  0  0  0  3  0  0  0  0  0  0
  -28.3640  -25.2460   19.8000 C   0  0  0  0  0  2  0  0  0  0  0  0
  -28.4460  -26.6750   20.0730 O   0  0  0  0  0  0  0  0  0  0  0  0
  -24.5410  -31.8330   23.1410 C   0  0  0  0  0  0  0  0  0  0  0  0
  -27.2710  -27.4210   20.0350 C   0  0  0  0  0  0  0  0  0  0  0  0
  -23.3660  -30.4220   21.4890 C   0  0  0  0  0  3  0  0  0  0  0  0
  -24.8500  -28.9220   20.0530 C   0  0  0  0  0  0  0  0  0  0  0  0
  -25.8910  -30.8160   21.3050 C   0  0  0  0  0  2  0  0  0  0  0  0
  -26.0030  -29.4500   20.6470 C   0  0  0  0  0  0  0  0  0  0  0  0
  -27.2130  -28.7100   20.6320 C   0  0  0  0  0  3  0  0  0  0  0  0
  -26.0930  -26.9280   19.4240 C   0  0  0  0  0  3  0  0  0  0  0  0
  -24.8930  -27.6600   19.4390 C   0  0  0  0  0  3  0  0  0  0  0  0
  -23.5920  -29.7580   20.1050 C   0  0  0  0  0  2  0  0  0  0  0  0
  -24.6170  -31.0390   22.0350 N   0  0  0  0  0  0  0  0  0  0  0  0
  -23.4530  -32.0820   23.6800 O   0  0  0  0  0  0  0  0  0  0  0  0
  -22.7290  -29.3820   22.4400 C   0  0  0  0  0  0  0  0  0  0  0  0
  -21.4100  -29.1710   22.3020 N   0  0  0  0  0  0  0  0  0  0  0  0
  -23.4200  -28.7690   23.2590 O   0  0  0  0  0  0  0  0  0  0  0  0
  -20.9130  -29.7180   21.6140 H   0  0  0  0  0  0  0  0  0  0  0  0
  -18.0640  -27.8760   22.7500 C   0  0  0  0  0  0  0  0  0  0  0  0
  -20.6090  -28.2110   23.0630 C   0  0  0  0  0  3  0  0  0  0  0  0
  -20.7620  -26.7820   22.4920 C   0  0  0  0  0  2  0  0  0  0  0  0
  -19.6870  -26.4250   21.4610 C   0  0  0  0  0  2  0  0  0  0  0  0
  -18.2920  -26.5310   22.0830 C   0  0  0  0  0  2  0  0  0  0  0  0
  -19.1520  -28.6720   23.1970 C   0  0  0  0  0  0  0  0  0  0  0  0
  -18.8870  -29.9300   23.7800 C   0  0  0  0  0  3  0  0  0  0  0  0
  -17.5660  -30.3940   23.9230 C   0  0  0  0  0  3  0  0  0  0  0  0
  -16.4920  -29.5950   23.4940 C   0  0  0  0  0  3  0  0  0  0  0  0
  -16.7410  -28.3390   22.9130 C   0  0  0  0  0  3  0  0  0  0  0  0
  -25.8120  -32.4830   23.7690 C   0  0  0  0  0  3  0  0  0  0  0  0
  -25.4730  -33.8690   24.1190 N   0  0  0  0  0  0  0  0  0  0  0  0
  -25.7910  -34.9400   23.3800 C   0  0  0  0  0  0  0  0  0  0  0  0
  -26.4730  -34.8660   22.3540 O   0  0  0  0  0  0  0  0  0  0  0  0
  -24.8640  -33.9990   24.9140 H   0  0  0  0  0  0  0  0  0  0  0  0
  -24.0300  -36.7020   23.0430 C   0  0  0  0  0  1  0  0  0  0  0  0
  -25.2730  -36.3110   23.8560 C   0  0  0  0  0  3  0  0  0  0  0  0
  -27.3850  -37.2220   24.7140 C   0  0  0  0  0  1  0  0  0  0  0  0
  -26.2840  -37.3850   23.7680 N   0  0  0  0  0  0  0  0  0  0  0  0
  -25.8600  -38.2940   23.9300 H   0  0  0  0  0  0  0  0  0  0  0  0
  -26.3490  -31.7050   25.0330 C   0  0  1  0  0  0  0  0  0  0  0  0
  -25.2650  -31.4310   26.1010 C   0  0  0  0  0  1  0  0  0  0  0  0
  -26.9590  -30.3440   24.6210 C   0  0  0  0  0  1  0  0  0  0  0  0
  -27.4860  -32.5150   25.7020 C   0  0  0  0  0  1  0  0  0  0  0  0
  -30.7920  -21.0560   23.1470 C   0  0  0  0  0  1  0  0  0  0  0  0
  -30.4220  -19.6890   22.5460 C   0  0  0  0  0  2  0  0  0  0  0  0
  -30.6400  -16.3720   17.2950 C   0  0  0  0  0  1  0  0  0  0  0  0
  -30.2710  -16.5880   18.6550 O   0  0  0  0  0  0  0  0  0  0  0  0
  1  5  1  0
  2  1  2  0
  2  6  1  0
  3  4  1  0
  3  7  1  0
  4 92  1  0
  5 46  1  0
  5  4  2  0
  6  3  2  0
  7  8  2  0
  9  8  1  0
 10 15  1  0
 11 12  1  0
 11 10  1  0
 13 12  1  0
 13 20  1  0
 13 14  1  0
 15  9  1  0
 15 14  1  0
 16  9  2  0
 17 18  2  0
 18 37  1  0
 19 18  1  0
 19 22  1  0
 20 17  1  0
 20 21  1  0
 21 19  2  0
 22 23  1  0
 23 24  2  0
 25 28  1  0
 25 24  1  0
 26 25  2  0
 27 26  1  0
 27 22  2  0
 28 29  1  0
 29 30  1  0
 30 31  2  0
 32 31  1  0
 32 36  1  0
 33 32  2  0
 34 29  2  0
 34 33  1  0
 35 34  1  0
 37 38  1  0
 38 41  1  0
 38 40  1  0
 39 37  2  0
 42 43  1  0
 42 17  1  0
 44 42  1  0
 45 48  1  0
 45 46  2  0
 48 47  1  0
 49 50  1  0
 49 48  1  0
 51 62  2  0
 52 50  1  0
 52 57  1  0
 53 61  1  0
 53 63  1  0
 54 60  1  0
 54 56  1  0
 55 61  1  0
 56 55  1  0
 57 56  2  0
 58 59  1  0
 58 52  2  0
 59 54  2  0
 60 53  1  0
 61 51  1  0
 63 65  2  0
 64 63  1  0
 66 64  1  0
 67 76  2  0
 67 72  1  0
 68 64  1  0
 68 72  1  0
 69 68  1  0
 70 71  1  0
 70 69  1  0
 71 67  1  0
 72 73  2  0
 73 74  1  0
 75 74  2  0
 76 75  1  0
 77 51  1  0
 77 78  1  0
 77 87  1  0
 78 81  1  0
 79 83  1  0
 79 78  1  0
 80 79  2  0
 83 82  1  0
 85 83  1  0
 85 86  1  0
 85 84  1  0
 87 90  1  1
 87 88  1  0
 89 87  1  0
 92 91  1  0
 93 94  1  0
 94  6  1  0
M  ISO  4   8 100   9 100  49 101  50 101
M  END
>  <TORSDO>  (56) 
F 22

>  <SCORE>  (56) 
-11.922

>  <name>  (56) 
55

>  <ligand_id>  (56) 
55

>  <original_smiles>  (56) 
[H]C(=Nc1c([H])c([H])c(OC([H])([H])[H])c(C([H])=C([H])C(=O)N2C([H])([H])C([H])([H])C([H])([H])C([H])(n3nc(-c4c([H])c([H])c(Oc5c([H])c([H])c(F)c([H])c5F)c([H])c4[H])c(C(=O)N([H])[H])c3N([H])[H])C2([H])[H])c1C([H])([H])C([H])([H])[H])C([H])(C([H])([H])[H])C([H])([H])Oc1c([H])c([H])c2c(c1[H])C([H])([H])N(C(=O)C([H])(N([H])C(=O)C([H])(N([H])C([H])([H])[H])C([H])([H])[H])C(C([H])([H])[H])(C([H])([H])[H])C([H])([H])[H])C([H])(C(=O)N([H])C1([H])c3c([H])c([H])c([H])c([H])c3C([H])([H])C([H])([H])C1([H])[H])C2([H])[H]

>  <smiles>  (56) 
[H]C(=Nc1c([H])c([H])c(OC([H])([H])[H])c(C([H])=C([H])C(=O)N2C([H])([H])C([H])([H])C([H])([H])C([H])(n3nc(-c4c([H])c([H])c(Oc5c([H])c([H])c(F)c([H])c5F)c([H])c4[H])c(C(=O)N([H])[H])c3N([H])[H])C2([H])[H])c1C([H])([H])C([H])([H])[H])C([H])(C([H])([H])[H])C([H])([H])Oc1c([H])c([H])c2c(c1[H])C([H])([H])N(C(=O)C([H])(N([H])C(=O)C([H])(N([H])C([H])([H])[H])C([H])([H])[H])C(C([H])([H])[H])(C([H])([H])[H])C([H])([H])[H])C([H])(C(=O)N([H])C1([H])c3c([H])c([H])c([H])c([H])c3C([H])([H])C([H])([H])C1([H])[H])C2([H])[H]

$$$$
56:0:0
     RDKit          3D

 94102  0  0  1  0  0  0  0  0999 V2000
  -29.4910  -19.7470   19.3800 C   0  0  0  0  0  3  0  0  0  0  0  0
  -29.7760  -18.4540   21.4180 C   0  0  0  0  0  3  0  0  0  0  0  0
  -29.8530  -17.3190   19.2530 C   0  0  0  0  0  0  0  0  0  0  0  0
  -29.6250  -18.5740   18.6200 C   0  0  0  0  0  0  0  0  0  0  0  0
  -29.8970  -17.2340   20.6800 C   0  0  0  0  0  0  0  0  0  0  0  0
  -29.5650  -19.7150   20.7830 C   0  0  0  0  0  0  0  0  0  0  0  0
  -29.4620  -18.7370   17.1120 C   0  0  0  0  0  1  0  0  0  0  0  0
  -30.7510  -14.9100   21.3140 C   0  0  0  0  0  0  0  0  0  0  0  0
  -30.7590  -12.5650   20.5520 C   0  0  0  0  0  2  0  0  0  0  0  0
  -30.0050  -12.4850   19.2080 C   0  0  0  0  0  2  0  0  0  0  0  0
  -28.4880  -12.3440   19.4280 C   0  0  0  0  0  2  0  0  0  0  0  0
  -27.9190  -13.3390   20.4700 C   0  0  0  0  0  3  0  0  0  0  0  0
  -28.7960  -13.3570   21.7430 C   0  0  0  0  0  2  0  0  0  0  0  0
  -30.1760  -13.6720   21.3300 N   0  0  0  0  0  0  0  0  0  0  0  0
  -31.9600  -15.0750   21.1250 O   0  0  0  0  0  0  0  0  0  0  0  0
  -29.8770  -15.9540   21.3760 N   0  0  0  0  0  0  0  0  0  0  0  0
  -28.9550  -15.6480   21.6400 H   0  0  0  0  0  0  0  0  0  0  0  0
  -25.4450  -13.9390   20.8220 C   0  0  0  0  0  0  0  0  0  0  0  0
  -24.3370  -13.1640   21.0480 C   0  0  0  0  0  0  0  0  0  0  0  0
  -24.8070  -11.8160   21.1030 C   0  0  0  0  0  0  0  0  0  0  0  0
  -26.5160  -13.0610   20.7590 N   0  0  0  0  0  0  0  0  0  0  0  0
  -26.1270  -11.7820   20.9850 N   0  0  0  0  0  0  0  0  0  0  0  0
  -24.0730  -10.5470   21.2030 C   0  0  0  0  0  0  0  0  0  0  0  0
  -24.3980   -9.5800   22.1810 C   0  0  0  0  0  3  0  0  0  0  0  0
  -23.6660   -8.3750   22.2700 C   0  0  0  0  0  3  0  0  0  0  0  0
  -22.5950   -8.1300   21.3770 C   0  0  0  0  0  0  0  0  0  0  0  0
  -22.2920   -9.0850   20.3900 C   0  0  0  0  0  3  0  0  0  0  0  0
  -23.0250  -10.2810   20.3020 C   0  0  0  0  0  3  0  0  0  0  0  0
  -21.8450   -6.9790   21.3730 O   0  0  0  0  0  0  0  0  0  0  0  0
  -21.6640   -6.2370   22.5130 C   0  0  0  0  0  0  0  0  0  0  0  0
  -21.0820   -6.7870   23.6780 C   0  0  0  0  0  3  0  0  0  0  0  0
  -20.8580   -5.9710   24.8050 C   0  0  0  0  0  3  0  0  0  0  0  0
  -21.1950   -4.6030   24.7640 C   0  0  0  0  0  0  0  0  0  0  0  0
  -21.7630   -4.0540   23.6020 C   0  0  0  0  0  3  0  0  0  0  0  0
  -21.9960   -4.8670   22.4810 C   0  0  0  0  0  0  0  0  0  0  0  0
  -22.5270   -4.3280   21.3560 F   0  0  0  0  0  0  0  0  0  0  0  0
  -20.9690   -3.8170   25.8420 F   0  0  0  0  0  0  0  0  0  0  0  0
  -22.9120  -13.6300   21.1110 C   0  0  0  0  0  0  0  0  0  0  0  0
  -22.0750  -12.9470   21.8860 N   0  0  0  0  0  0  0  0  0  0  0  0
  -22.5410  -14.6390   20.5120 O   0  0  0  0  0  0  0  0  0  0  0  0
  -22.3790  -12.1300   22.3930 H   0  0  0  0  0  0  0  0  0  0  0  0
  -21.1140  -13.2440   21.9740 H   0  0  0  0  0  0  0  0  0  0  0  0
  -25.6320  -15.3100   20.6470 N   0  0  0  0  0  0  0  0  0  0  0  0
  -24.8710  -15.9800   20.6660 H   0  0  0  0  0  0  0  0  0  0  0  0
  -26.5200  -15.7390   20.4230 H   0  0  0  0  0  0  0  0  0  0  0  0
  -31.0860  -15.7630   17.7820 C   0  0  0  0  0  2  0  0  0  0  0  0
  -29.9550  -16.1210   18.4130 C   0  0  0  0  0  3  0  0  0  0  0  0
  -29.4340  -20.8770   21.5350 O   0  0  0  0  0  0  0  0  0  0  0  0
  -28.6780  -22.0120   21.0250 C   0  0  0  0  0  2  0  0  0  0  0  0
  -29.4740  -23.0920   20.2230 C   0  0  0  0  0  2  0  0  0  0  0  0
  -29.1790  -24.5750   20.5840 C   0  0  0  0  0  0  0  0  0  0  0  0
  -29.7340  -25.0800   21.5670 O   0  0  0  0  0  0  0  0  0  0  0  0
  -28.2200  -25.4230   19.6980 C   0  0  0  0  0  2  0  0  0  0  0  0
  -28.3150  -26.8510   19.9900 O   0  0  0  0  0  0  0  0  0  0  0  0
  -24.6580  -31.9900   23.3700 C   0  0  0  0  0  0  0  0  0  0  0  0
  -27.1530  -27.6170   20.0140 C   0  0  0  0  0  0  0  0  0  0  0  0
  -23.3910  -30.6760   21.7030 C   0  0  0  0  0  3  0  0  0  0  0  0
  -24.7820  -29.1870   20.1660 C   0  0  0  0  0  0  0  0  0  0  0  0
  -25.9180  -31.0020   21.4520 C   0  0  0  0  0  2  0  0  0  0  0  0
  -25.9660  -29.6560   20.7500 C   0  0  0  0  0  0  0  0  0  0  0  0
  -27.1480  -28.8770   20.6720 C   0  0  0  0  0  3  0  0  0  0  0  0
  -25.9500  -27.1860   19.4050 C   0  0  0  0  0  3  0  0  0  0  0  0
  -24.7750  -27.9570   19.4890 C   0  0  0  0  0  3  0  0  0  0  0  0
  -23.5470  -30.0550   20.2900 C   0  0  0  0  0  2  0  0  0  0  0  0
  -24.6760  -31.2350   22.2350 N   0  0  0  0  0  0  0  0  0  0  0  0
  -23.5950  -32.2500   23.9510 O   0  0  0  0  0  0  0  0  0  0  0  0
  -22.7540  -29.6200   22.6350 C   0  0  0  0  0  0  0  0  0  0  0  0
  -21.4310  -29.4300   22.5120 N   0  0  0  0  0  0  0  0  0  0  0  0
  -23.4470  -28.9770   23.4270 O   0  0  0  0  0  0  0  0  0  0  0  0
  -20.9300  -30.0170   21.8600 H   0  0  0  0  0  0  0  0  0  0  0  0
  -18.0870  -28.1350   22.9430 C   0  0  0  0  0  0  0  0  0  0  0  0
  -20.6350  -28.4560   23.2540 C   0  0  0  0  0  3  0  0  0  0  0  0
  -20.7890  -27.0410   22.6480 C   0  0  0  0  0  2  0  0  0  0  0  0
  -19.7070  -26.7150   21.6160 C   0  0  0  0  0  2  0  0  0  0  0  0
  -18.3130  -26.8080   22.2420 C   0  0  0  0  0  2  0  0  0  0  0  0
  -19.1820  -28.9180   23.4010 C   0  0  0  0  0  0  0  0  0  0  0  0
  -18.9260  -30.1660   24.0040 C   0  0  0  0  0  3  0  0  0  0  0  0
  -17.6080  -30.6390   24.1510 C   0  0  0  0  0  3  0  0  0  0  0  0
  -16.5270  -29.8510   23.7150 C   0  0  0  0  0  3  0  0  0  0  0  0
  -16.7680  -28.5970   23.1270 C   0  0  0  0  0  3  0  0  0  0  0  0
  -25.9650  -32.5780   23.9860 C   0  0  0  0  0  3  0  0  0  0  0  0
  -25.6980  -33.9790   24.3400 N   0  0  0  0  0  0  0  0  0  0  0  0
  -26.0630  -35.0340   23.5990 C   0  0  0  0  0  0  0  0  0  0  0  0
  -26.7280  -34.9260   22.5650 O   0  0  0  0  0  0  0  0  0  0  0  0
  -25.1060  -34.1410   25.1410 H   0  0  0  0  0  0  0  0  0  0  0  0
  -24.3880  -36.8810   23.2690 C   0  0  0  0  0  1  0  0  0  0  0  0
  -25.6130  -36.4270   24.0780 C   0  0  0  0  0  3  0  0  0  0  0  0
  -27.7680  -37.2330   24.9290 C   0  0  0  0  0  1  0  0  0  0  0  0
  -26.6740  -37.4510   23.9860 N   0  0  0  0  0  0  0  0  0  0  0  0
  -26.2960  -38.3800   24.1450 H   0  0  0  0  0  0  0  0  0  0  0  0
  -26.4800  -31.7740   25.2430 C   0  0  1  0  0  0  0  0  0  0  0  0
  -25.3960  -31.5460   26.3230 C   0  0  0  0  0  1  0  0  0  0  0  0
  -27.0210  -30.3890   24.8180 C   0  0  0  0  0  1  0  0  0  0  0  0
  -27.6610  -32.5290   25.8980 C   0  0  0  0  0  1  0  0  0  0  0  0
  1  6  1  0
  3  5  2  0
  4  3  1  0
  4  1  2  0
  5 16  1  0
  5  2  1  0
  6  2  2  0
  6 48  1  0
  7  4  1  0
  8 14  1  0
  8 16  1  0
  9 14  1  0
 10 11  1  0
 10  9  1  0
 12 11  1  0
 12 21  1  0
 12 13  1  0
 14 13  1  0
 15  8  2  0
 16 17  1  0
 18 19  2  0
 19 20  1  0
 19 38  1  0
 20 23  1  0
 21 18  1  0
 21 22  1  0
 22 20  2  0
 23 24  1  0
 24 25  2  0
 26 25  1  0
 27 26  2  0
 28 27  1  0
 28 23  2  0
 29 26  1  0
 29 30  1  0
 30 31  1  0
 31 32  2  0
 33 32  1  0
 33 37  1  0
 34 33  2  0
 35 30  2  0
 35 34  1  0
 36 35  1  0
 38 39  1  0
 39 42  1  0
 39 41  1  0
 40 38  2  0
 43 44  1  0
 43 18  1  0
 45 43  1  0
 46 47  2  0
 47  3  1  0
 49 48  1  0
 50 51  1  0
 50 49  1  0
 51 52  2  0
 53 54  1  0
 53 51  1  0
 54 56  1  0
 55 66  2  0
 56 61  1  0
 57 65  1  0
 57 67  1  0
 58 64  1  0
 58 60  1  0
 59 65  1  0
 60 59  1  0
 61 60  2  0
 62 63  1  0
 62 56  2  0
 63 58  2  0
 64 57  1  0
 65 55  1  0
 67 69  2  0
 68 67  1  0
 70 68  1  0
 71 80  2  0
 71 76  1  0
 72 68  1  0
 72 76  1  0
 73 72  1  0
 74 75  1  0
 74 73  1  0
 75 71  1  0
 76 77  2  0
 77 78  1  0
 79 78  2  0
 80 79  1  0
 81 55  1  0
 81 82  1  0
 81 91  1  0
 82 85  1  0
 83 87  1  0
 83 82  1  0
 84 83  2  0
 87 86  1  0
 89 87  1  0
 89 90  1  0
 89 88  1  0
 91 94  1  1
 91 92  1  0
 93 91  1  0
M  ISO  4   8 100  16 100  53 101  54 101
M  END
>  <TORSDO>  (57) 
F 22

>  <SCORE>  (57) 
-11.713

>  <name>  (57) 
56

>  <ligand_id>  (57) 
56

>  <original_smiles>  (57) 
[H]C([H])=C([H])c1c(N([H])C(=O)N2C([H])([H])C([H])([H])C([H])([H])C([H])(n3nc(-c4c([H])c([H])c(Oc5c([H])c([H])c(F)c([H])c5F)c([H])c4[H])c(C(=O)N([H])[H])c3N([H])[H])C2([H])[H])c([H])c(OC([H])([H])C([H])([H])C(=O)C([H])([H])Oc2c([H])c([H])c3c(c2[H])C([H])([H])N(C(=O)C([H])(N([H])C(=O)C([H])(N([H])C([H])([H])[H])C([H])([H])[H])C(C([H])([H])[H])(C([H])([H])[H])C([H])([H])[H])C([H])(C(=O)N([H])C2([H])c4c([H])c([H])c([H])c([H])c4C([H])([H])C([H])([H])C2([H])[H])C3([H])[H])c([H])c1C([H])([H])[H]

>  <smiles>  (57) 
[H]C([H])=C([H])c1c(N([H])C(=O)N2C([H])([H])C([H])([H])C([H])([H])C([H])(n3nc(-c4c([H])c([H])c(Oc5c([H])c([H])c(F)c([H])c5F)c([H])c4[H])c(C(=O)N([H])[H])c3N([H])[H])C2([H])[H])c([H])c(OC([H])([H])C([H])([H])C(=O)C([H])([H])Oc2c([H])c([H])c3c(c2[H])C([H])([H])N(C(=O)C([H])(N([H])C(=O)C([H])(N([H])C([H])([H])[H])C([H])([H])[H])C(C([H])([H])[H])(C([H])([H])[H])C([H])([H])[H])C([H])(C(=O)N([H])C2([H])c4c([H])c([H])c([H])c([H])c4C([H])([H])C([H])([H])C2([H])[H])C3([H])[H])c([H])c1C([H])([H])[H]

$$$$
57:0:0
     RDKit          3D

 90 98  0  0  1  0  0  0  0  0999 V2000
  -30.1360  -19.2090   20.0600 C   0  0  0  0  0  3  0  0  0  0  0  0
  -29.4700  -17.8650   20.1090 C   0  0  0  0  0  0  0  0  0  0  0  0
  -29.2340  -20.3180   19.8710 C   0  0  0  0  0  0  0  0  0  0  0  0
  -28.1600  -18.2950   19.9400 C   0  0  0  0  0  0  0  0  0  0  0  0
  -28.0270  -19.6830   19.8190 O   0  0  0  0  0  0  0  0  0  0  0  0
  -29.8030  -16.2930   20.5530 C   0  0  0  0  0  0  0  0  0  0  0  0
  -29.5000  -16.0660   21.7640 N   0  0  0  0  0  0  0  0  0  0  0  0
  -29.1230  -16.8940   22.2090 H   0  0  0  0  0  0  0  0  0  0  0  0
  -30.4610  -14.9320   19.7960 C   0  0  0  0  0  0  0  0  0  0  0  0
  -30.3510  -12.5050   18.9890 C   0  0  0  0  0  2  0  0  0  0  0  0
  -29.3490  -12.3620   17.8150 C   0  0  0  0  0  2  0  0  0  0  0  0
  -27.9210  -12.1330   18.3390 C   0  0  0  0  0  2  0  0  0  0  0  0
  -27.5640  -13.1040   19.4940 C   0  0  0  0  0  3  0  0  0  0  0  0
  -28.6810  -13.1910   20.5560 C   0  0  0  0  0  2  0  0  0  0  0  0
  -29.9090  -13.6350   19.8750 N   0  0  0  0  0  0  0  0  0  0  0  0
  -31.5570  -15.0160   19.2260 O   0  0  0  0  0  0  0  0  0  0  0  0
  -25.2490  -13.6820   20.4140 C   0  0  0  0  0  0  0  0  0  0  0  0
  -24.2120  -12.9140   20.8610 C   0  0  0  0  0  0  0  0  0  0  0  0
  -24.6570  -11.5600   20.7660 C   0  0  0  0  0  0  0  0  0  0  0  0
  -26.2640  -12.8020   20.0820 N   0  0  0  0  0  0  0  0  0  0  0  0
  -25.9200  -11.5170   20.3540 N   0  0  0  0  0  0  0  0  0  0  0  0
  -23.9290  -10.3030   20.9850 C   0  0  0  0  0  0  0  0  0  0  0  0
  -24.4020   -9.3210   21.8820 C   0  0  0  0  0  3  0  0  0  0  0  0
  -23.6730   -8.1310   22.0920 C   0  0  0  0  0  3  0  0  0  0  0  0
  -22.4550   -7.9140   21.4040 C   0  0  0  0  0  0  0  0  0  0  0  0
  -22.0000   -8.8850   20.4940 C   0  0  0  0  0  3  0  0  0  0  0  0
  -22.7310  -10.0660   20.2830 C   0  0  0  0  0  3  0  0  0  0  0  0
  -21.6930   -6.7780   21.5240 O   0  0  0  0  0  0  0  0  0  0  0  0
  -21.6830   -6.0370   22.6790 C   0  0  0  0  0  0  0  0  0  0  0  0
  -21.3050   -6.5970   23.9190 C   0  0  0  0  0  3  0  0  0  0  0  0
  -21.2420   -5.7830   25.0680 C   0  0  0  0  0  3  0  0  0  0  0  0
  -21.5480   -4.4110   24.9790 C   0  0  0  0  0  0  0  0  0  0  0  0
  -21.9190   -3.8530   23.7420 C   0  0  0  0  0  3  0  0  0  0  0  0
  -21.9830   -4.6630   22.5960 C   0  0  0  0  0  0  0  0  0  0  0  0
  -22.3210   -4.1150   21.4040 F   0  0  0  0  0  0  0  0  0  0  0  0
  -21.4790   -3.6280   26.0800 F   0  0  0  0  0  0  0  0  0  0  0  0
  -22.8480  -13.4040   21.2510 C   0  0  0  0  0  0  0  0  0  0  0  0
  -22.1890  -12.7090   22.1710 N   0  0  0  0  0  0  0  0  0  0  0  0
  -22.3790  -14.4370   20.7770 O   0  0  0  0  0  0  0  0  0  0  0  0
  -22.5830  -11.8710   22.5760 H   0  0  0  0  0  0  0  0  0  0  0  0
  -21.2770  -13.0180   22.4770 H   0  0  0  0  0  0  0  0  0  0  0  0
  -25.4020  -15.0500   20.2310 N   0  0  0  0  0  0  0  0  0  0  0  0
  -24.6430  -15.7010   20.4000 H   0  0  0  0  0  0  0  0  0  0  0  0
  -26.1980  -15.4820   19.7830 H   0  0  0  0  0  0  0  0  0  0  0  0
  -25.6900  -18.0760   19.6630 C   0  0  0  0  0  2  0  0  0  0  0  0
  -26.9140  -17.5910   19.9270 C   0  0  0  0  0  3  0  0  0  0  0  0
  -29.2240  -21.8810   19.6820 C   0  0  0  0  0  3  0  0  0  0  0  0
  -28.4120  -23.0420   19.9380 C   0  0  0  0  0  3  0  0  0  0  0  0
  -28.4790  -24.6280   19.3890 C   0  0  0  0  0  2  0  0  0  0  0  0
  -28.3120  -25.9980   20.1640 O   0  0  0  0  0  0  0  0  0  0  0  0
  -24.6470  -31.7240   23.0930 C   0  0  0  0  0  0  0  0  0  0  0  0
  -27.2600  -27.0030   20.0310 C   0  0  0  0  0  0  0  0  0  0  0  0
  -23.4650  -30.3450   21.4260 C   0  0  0  0  0  3  0  0  0  0  0  0
  -24.9310  -28.7830   19.9920 C   0  0  0  0  0  0  0  0  0  0  0  0
  -26.0240  -30.6010   21.2950 C   0  0  0  0  0  2  0  0  0  0  0  0
  -26.1030  -29.2120   20.6240 C   0  0  0  0  0  0  0  0  0  0  0  0
  -27.2610  -28.3360   20.6310 C   0  0  0  0  0  3  0  0  0  0  0  0
  -26.0590  -26.6910   19.3550 C   0  0  0  0  0  3  0  0  0  0  0  0
  -24.9250  -27.5390   19.3420 C   0  0  0  0  0  3  0  0  0  0  0  0
  -23.7030  -29.6830   20.0410 C   0  0  0  0  0  2  0  0  0  0  0  0
  -24.7320  -30.9140   21.9930 N   0  0  0  0  0  0  0  0  0  0  0  0
  -23.5540  -32.0030   23.6140 O   0  0  0  0  0  0  0  0  0  0  0  0
  -22.7760  -29.3310   22.3720 C   0  0  0  0  0  0  0  0  0  0  0  0
  -21.4410  -29.1970   22.2640 N   0  0  0  0  0  0  0  0  0  0  0  0
  -23.4440  -28.6670   23.1690 O   0  0  0  0  0  0  0  0  0  0  0  0
  -20.9570  -29.7820   21.5970 H   0  0  0  0  0  0  0  0  0  0  0  0
  -18.0360  -28.0890   22.8260 C   0  0  0  0  0  0  0  0  0  0  0  0
  -20.6100  -28.2570   23.0230 C   0  0  0  0  0  3  0  0  0  0  0  0
  -20.6450  -26.8470   22.3890 C   0  0  0  0  0  2  0  0  0  0  0  0
  -19.5030  -26.6020   21.3970 C   0  0  0  0  0  2  0  0  0  0  0  0
  -18.1470  -26.7650   22.0890 C   0  0  0  0  0  2  0  0  0  0  0  0
  -19.1920  -28.7960   23.2500 C   0  0  0  0  0  0  0  0  0  0  0  0
  -19.0310  -30.0390   23.9030 C   0  0  0  0  0  3  0  0  0  0  0  0
  -17.7490  -30.5720   24.1320 C   0  0  0  0  0  3  0  0  0  0  0  0
  -16.6090  -29.8610   23.7210 C   0  0  0  0  0  3  0  0  0  0  0  0
  -16.7540  -28.6200   23.0750 C   0  0  0  0  0  3  0  0  0  0  0  0
  -25.9160  -32.3570   23.7410 C   0  0  0  0  0  3  0  0  0  0  0  0
  -26.4210  -31.5680   25.0110 C   0  0  1  0  0  0  0  0  0  0  0  0
  -25.3190  -31.3150   26.0670 C   0  0  0  0  0  1  0  0  0  0  0  0
  -27.0090  -30.1970   24.6100 C   0  0  0  0  0  1  0  0  0  0  0  0
  -27.5660  -32.3540   25.6940 C   0  0  0  0  0  1  0  0  0  0  0  0
  -25.5930  -33.7480   24.1010 N   0  0  0  0  0  0  0  0  0  0  0  0
  -25.9210  -34.8230   23.3730 C   0  0  0  0  0  0  0  0  0  0  0  0
  -26.5940  -34.7500   22.3420 O   0  0  0  0  0  0  0  0  0  0  0  0
  -24.9970  -33.8780   24.9060 H   0  0  0  0  0  0  0  0  0  0  0  0
  -24.1830  -36.6170   23.0680 C   0  0  0  0  0  1  0  0  0  0  0  0
  -25.4280  -36.2000   23.8660 C   0  0  0  0  0  3  0  0  0  0  0  0
  -27.5590  -37.0770   24.7140 C   0  0  0  0  0  1  0  0  0  0  0  0
  -26.4540  -37.2610   23.7760 N   0  0  0  0  0  0  0  0  0  0  0  0
  -26.0440  -38.1760   23.9450 H   0  0  0  0  0  0  0  0  0  0  0  0
  1  2  1  0
  2  6  1  0
  3  1  2  0
  4  2  2  0
  5  3  1  0
  5  4  1  0
  6  7  2  0
  7  8  1  0
  9 15  1  0
  9  6  1  0
 10 15  1  0
 11 12  1  0
 11 10  1  0
 13 12  1  0
 13 20  1  0
 13 14  1  0
 15 14  1  0
 16  9  2  0
 17 18  2  0
 18 37  1  0
 19 18  1  0
 19 22  1  0
 20 21  1  0
 20 17  1  0
 21 19  2  0
 22 23  1  0
 23 24  2  0
 25 28  1  0
 25 24  1  0
 26 25  2  0
 27 26  1  0
 27 22  2  0
 28 29  1  0
 29 30  1  0
 30 31  2  0
 32 31  1  0
 32 36  1  0
 33 32  2  0
 34 29  2  0
 34 33  1  0
 35 34  1  0
 37 38  1  0
 38 41  1  0
 38 40  1  0
 39 37  2  0
 42 43  1  0
 42 17  1  0
 44 42  1  0
 45 46  2  0
 46  4  1  0
 47  3  1  0
 47 48  2  0
 49 48  1  0
 49 50  1  0
 51 62  2  0
 52 50  1  0
 52 57  1  0
 53 61  1  0
 53 63  1  0
 54 60  1  0
 54 56  1  0
 55 61  1  0
 56 57  2  0
 56 55  1  0
 58 52  2  0
 59 58  1  0
 59 54  2  0
 60 53  1  0
 61 51  1  0
 63 65  2  0
 64 63  1  0
 66 64  1  0
 67 76  2  0
 67 72  1  0
 68 64  1  0
 68 72  1  0
 69 68  1  0
 70 71  1  0
 70 69  1  0
 71 67  1  0
 72 73  2  0
 73 74  1  0
 75 74  2  0
 76 75  1  0
 77 51  1  0
 77 82  1  0
 77 78  1  0
 78 81  1  1
 78 79  1  0
 80 78  1  0
 82 85  1  0
 83 87  1  0
 83 82  1  0
 84 83  2  0
 87 86  1  0
 89 87  1  0
 89 90  1  0
 89 88  1  0
M  ISO  4   6 100   9 100  49 101  50 101
M  END
>  <TORSDO>  (58) 
F 20

>  <SCORE>  (58) 
-13.483

>  <name>  (58) 
57

>  <ligand_id>  (58) 
57

>  <original_smiles>  (58) 
[H]N=C(C(=O)N1C([H])([H])C([H])([H])C([H])([H])C([H])(n2nc(-c3c([H])c([H])c(Oc4c([H])c([H])c(F)c([H])c4F)c([H])c3[H])c(C(=O)N([H])[H])c2N([H])[H])C1([H])[H])c1c(C([H])=C([H])[H])oc(C([H])=C([H])C([H])([H])Oc2c([H])c([H])c3c(c2[H])C([H])([H])N(C(=O)C([H])(N([H])C(=O)C([H])(N([H])C([H])([H])[H])C([H])([H])[H])C(C([H])([H])[H])(C([H])([H])[H])C([H])([H])[H])C([H])(C(=O)N([H])C2([H])c4c([H])c([H])c([H])c([H])c4C([H])([H])C([H])([H])C2([H])[H])C3([H])[H])c1[H]

>  <smiles>  (58) 
[H]N=C(C(=O)N1C([H])([H])C([H])([H])C([H])([H])C([H])(n2nc(-c3c([H])c([H])c(Oc4c([H])c([H])c(F)c([H])c4F)c([H])c3[H])c(C(=O)N([H])[H])c2N([H])[H])C1([H])[H])c1c(C([H])=C([H])[H])oc(C([H])=C([H])C([H])([H])Oc2c([H])c([H])c3c(c2[H])C([H])([H])N(C(=O)C([H])(N([H])C(=O)C([H])(N([H])C([H])([H])[H])C([H])([H])[H])C(C([H])([H])[H])(C([H])([H])[H])C([H])([H])[H])C([H])(C(=O)N([H])C2([H])c4c([H])c([H])c([H])c([H])c4C([H])([H])C([H])([H])C2([H])[H])C3([H])[H])c1[H]

$$$$
58:0:0
     RDKit          3D

 95103  0  0  1  0  0  0  0  0999 V2000
  -29.4670  -22.3510   21.0990 C   0  0  0  0  0  0  0  0  0  0  0  0
  -30.1510  -21.4330   20.3820 N   0  0  0  0  0  0  0  0  0  0  0  0
  -28.7460  -22.0590   22.0550 O   0  0  0  0  0  0  0  0  0  0  0  0
  -30.6280  -21.8050   19.5710 H   0  0  0  0  0  0  0  0  0  0  0  0
  -29.9620  -19.2080   19.4000 C   0  0  0  0  0  3  0  0  0  0  0  0
  -30.5320  -19.3570   21.7470 C   0  0  0  0  0  3  0  0  0  0  0  0
  -29.9650  -17.7950   19.4660 C   0  0  0  0  0  0  0  0  0  0  0  0
  -30.5850  -17.9430   21.8250 C   0  0  0  0  0  0  0  0  0  0  0  0
  -30.2090  -20.0080   20.5340 C   0  0  0  0  0  0  0  0  0  0  0  0
  -30.3190  -17.1390   20.6830 C   0  0  0  0  0  0  0  0  0  0  0  0
  -30.9260  -17.2980   23.1580 C   0  0  0  0  0  1  0  0  0  0  0  0
  -31.0580  -14.7460   20.3100 C   0  0  0  0  0  0  0  0  0  0  0  0
  -30.8360  -12.5490   19.2060 C   0  0  0  0  0  2  0  0  0  0  0  0
  -29.8630  -12.7040   18.0180 C   0  0  0  0  0  2  0  0  0  0  0  0
  -28.3960  -12.5570   18.4710 C   0  0  0  0  0  2  0  0  0  0  0  0
  -28.0650  -13.3980   19.7340 C   0  0  0  0  0  3  0  0  0  0  0  0
  -29.1430  -13.1900   20.8210 C   0  0  0  0  0  2  0  0  0  0  0  0
  -30.4510  -13.5300   20.2320 N   0  0  0  0  0  0  0  0  0  0  0  0
  -32.1790  -14.9670   19.8380 O   0  0  0  0  0  0  0  0  0  0  0  0
  -30.2910  -15.7130   20.8580 N   0  0  0  0  0  0  0  0  0  0  0  0
  -29.4970  -15.3620   21.3680 H   0  0  0  0  0  0  0  0  0  0  0  0
  -25.6850  -13.9780   20.5260 C   0  0  0  0  0  0  0  0  0  0  0  0
  -24.6280  -13.1920   20.8960 C   0  0  0  0  0  0  0  0  0  0  0  0
  -25.0880  -11.8430   20.8060 C   0  0  0  0  0  0  0  0  0  0  0  0
  -26.7250  -13.1070   20.2370 N   0  0  0  0  0  0  0  0  0  0  0  0
  -26.3700  -11.8160   20.4610 N   0  0  0  0  0  0  0  0  0  0  0  0
  -24.3690  -10.5730   20.9710 C   0  0  0  0  0  0  0  0  0  0  0  0
  -24.7200   -9.6530   21.9830 C   0  0  0  0  0  3  0  0  0  0  0  0
  -24.0030   -8.4460   22.1340 C   0  0  0  0  0  3  0  0  0  0  0  0
  -22.9210   -8.1520   21.2700 C   0  0  0  0  0  0  0  0  0  0  0  0
  -22.5910   -9.0610   20.2500 C   0  0  0  0  0  3  0  0  0  0  0  0
  -23.3100  -10.2580   20.0980 C   0  0  0  0  0  3  0  0  0  0  0  0
  -22.1840   -6.9940   21.3250 O   0  0  0  0  0  0  0  0  0  0  0  0
  -21.8550   -6.4050   22.5210 C   0  0  0  0  0  0  0  0  0  0  0  0
  -21.1140   -7.0890   23.5080 C   0  0  0  0  0  3  0  0  0  0  0  0
  -20.7390   -6.4240   24.6940 C   0  0  0  0  0  3  0  0  0  0  0  0
  -21.0950   -5.0750   24.8880 C   0  0  0  0  0  0  0  0  0  0  0  0
  -21.8290   -4.3910   23.9020 C   0  0  0  0  0  3  0  0  0  0  0  0
  -22.2050   -5.0540   22.7200 C   0  0  0  0  0  0  0  0  0  0  0  0
  -22.8930   -4.3850   21.7650 F   0  0  0  0  0  0  0  0  0  0  0  0
  -20.7280   -4.4340   26.0210 F   0  0  0  0  0  0  0  0  0  0  0  0
  -23.2370  -13.6560   21.2260 C   0  0  0  0  0  0  0  0  0  0  0  0
  -22.5420  -12.9380   22.1000 N   0  0  0  0  0  0  0  0  0  0  0  0
  -22.7770  -14.6890   20.7410 O   0  0  0  0  0  0  0  0  0  0  0  0
  -22.9280  -12.1010   22.5130 H   0  0  0  0  0  0  0  0  0  0  0  0
  -21.6110  -13.2300   22.3620 H   0  0  0  0  0  0  0  0  0  0  0  0
  -25.8440  -15.3550   20.3930 N   0  0  0  0  0  0  0  0  0  0  0  0
  -25.0820  -16.0040   20.5490 H   0  0  0  0  0  0  0  0  0  0  0  0
  -26.6900  -15.8070   20.0680 H   0  0  0  0  0  0  0  0  0  0  0  0
  -28.3800  -16.5090   18.0650 C   0  0  0  0  0  2  0  0  0  0  0  0
  -29.5770  -17.0890   18.2400 C   0  0  0  0  0  3  0  0  0  0  0  0
  -29.6090  -23.8280   20.6580 C   0  0  0  0  0  2  0  0  0  0  0  0
  -28.8070  -24.8490   21.5150 C   0  0  0  0  0  2  0  0  0  0  0  0
  -29.1770  -26.3430   21.3130 C   0  0  0  0  0  2  0  0  0  0  0  0
  -28.7160  -26.8820   20.0700 O   0  0  0  0  0  0  0  0  0  0  0  0
  -24.6670  -31.8930   23.1910 C   0  0  0  0  0  0  0  0  0  0  0  0
  -27.5380  -27.5930   20.1170 C   0  0  0  0  0  0  0  0  0  0  0  0
  -23.5460  -30.4660   21.5080 C   0  0  0  0  0  3  0  0  0  0  0  0
  -25.0860  -29.0000   20.0960 C   0  0  0  0  0  0  0  0  0  0  0  0
  -26.0580  -30.9240   21.3630 C   0  0  0  0  0  2  0  0  0  0  0  0
  -26.2100  -29.5610   20.7190 C   0  0  0  0  0  0  0  0  0  0  0  0
  -27.4390  -28.8630   20.7330 C   0  0  0  0  0  3  0  0  0  0  0  0
  -26.4050  -27.0490   19.4820 C   0  0  0  0  0  3  0  0  0  0  0  0
  -25.1770  -27.7400   19.4780 C   0  0  0  0  0  3  0  0  0  0  0  0
  -23.8080  -29.8100   20.1270 C   0  0  0  0  0  2  0  0  0  0  0  0
  -24.7730  -31.1100   22.0800 N   0  0  0  0  0  0  0  0  0  0  0  0
  -23.5680  -32.1170   23.7140 O   0  0  0  0  0  0  0  0  0  0  0  0
  -22.9170  -29.4090   22.4460 C   0  0  0  0  0  0  0  0  0  0  0  0
  -21.6070  -29.1680   22.2810 N   0  0  0  0  0  0  0  0  0  0  0  0
  -23.6060  -28.8110   23.2760 O   0  0  0  0  0  0  0  0  0  0  0  0
  -21.1100  -29.7060   21.5850 H   0  0  0  0  0  0  0  0  0  0  0  0
  -18.2800  -27.8140   22.6720 C   0  0  0  0  0  0  0  0  0  0  0  0
  -20.8130  -28.1870   23.0220 C   0  0  0  0  0  3  0  0  0  0  0  0
  -21.0000  -26.7670   22.4410 C   0  0  0  0  0  2  0  0  0  0  0  0
  -19.9440  -26.4010   21.3920 C   0  0  0  0  0  2  0  0  0  0  0  0
  -18.5390  -26.4780   21.9960 C   0  0  0  0  0  2  0  0  0  0  0  0
  -19.3480  -28.6230   23.1410 C   0  0  0  0  0  0  0  0  0  0  0  0
  -19.0540  -29.8710   23.7300 C   0  0  0  0  0  3  0  0  0  0  0  0
  -17.7230  -30.3120   23.8590 C   0  0  0  0  0  3  0  0  0  0  0  0
  -16.6680  -29.4990   23.4090 C   0  0  0  0  0  3  0  0  0  0  0  0
  -16.9470  -28.2520   22.8210 C   0  0  0  0  0  3  0  0  0  0  0  0
  -25.9180  -32.5640   23.8410 C   0  0  0  0  0  3  0  0  0  0  0  0
  -25.5570  -33.9490   24.1670 N   0  0  0  0  0  0  0  0  0  0  0  0
  -25.8790  -35.0140   23.4200 C   0  0  0  0  0  0  0  0  0  0  0  0
  -26.5800  -34.9350   22.4080 O   0  0  0  0  0  0  0  0  0  0  0  0
  -24.9350  -34.0820   24.9520 H   0  0  0  0  0  0  0  0  0  0  0  0
  -24.1120  -36.7560   23.0130 C   0  0  0  0  0  1  0  0  0  0  0  0
  -25.3340  -36.3850   23.8660 C   0  0  0  0  0  3  0  0  0  0  0  0
  -27.4090  -37.3290   24.7790 C   0  0  0  0  0  1  0  0  0  0  0  0
  -26.3390  -37.4680   23.7950 N   0  0  0  0  0  0  0  0  0  0  0  0
  -25.9010  -38.3760   23.9300 H   0  0  0  0  0  0  0  0  0  0  0  0
  -26.4340  -31.8040   25.1240 C   0  0  1  0  0  0  0  0  0  0  0  0
  -25.3250  -31.5090   26.1600 C   0  0  0  0  0  1  0  0  0  0  0  0
  -27.0880  -30.4570   24.7340 C   0  0  0  0  0  1  0  0  0  0  0  0
  -27.5320  -32.6410   25.8240 C   0  0  0  0  0  1  0  0  0  0  0  0
  1  3  2  0
  2  9  1  0
  2  1  1  0
  4  2  1  0
  5  7  2  0
  5  9  1  0
  6  8  1  0
  7 10  1  0
  8 11  1  0
  9  6  2  0
 10 20  1  0
 10  8  2  0
 12 20  1  0
 13 18  1  0
 14 15  1  0
 14 13  1  0
 16 15  1  0
 16 25  1  0
 16 17  1  0
 18 12  1  0
 18 17  1  0
 19 12  2  0
 20 21  1  0
 22 23  2  0
 23 42  1  0
 24 23  1  0
 24 27  1  0
 25 26  1  0
 25 22  1  0
 26 24  2  0
 27 28  1  0
 28 29  2  0
 30 33  1  0
 30 29  1  0
 31 30  2  0
 32 31  1  0
 32 27  2  0
 33 34  1  0
 34 39  2  0
 34 35  1  0
 35 36  2  0
 36 37  1  0
 37 41  1  0
 38 37  2  0
 39 38  1  0
 40 39  1  0
 42 43  1  0
 43 46  1  0
 43 45  1  0
 44 42  2  0
 47 22  1  0
 47 48  1  0
 49 47  1  0
 50 51  2  0
 51  7  1  0
 52  1  1  0
 52 53  1  0
 54 53  1  0
 55 57  1  0
 55 54  1  0
 56 67  2  0
 57 62  1  0
 58 66  1  0
 58 68  1  0
 59 65  1  0
 59 61  1  0
 60 66  1  0
 61 62  2  0
 61 60  1  0
 63 57  2  0
 64 63  1  0
 64 59  2  0
 65 58  1  0
 66 56  1  0
 68 70  2  0
 69 68  1  0
 71 69  1  0
 72 81  2  0
 72 77  1  0
 73 69  1  0
 73 77  1  0
 74 73  1  0
 75 76  1  0
 75 74  1  0
 76 72  1  0
 77 78  2  0
 78 79  1  0
 80 79  2  0
 81 80  1  0
 82 56  1  0
 82 83  1  0
 82 92  1  0
 83 86  1  0
 84 88  1  0
 84 83  1  0
 85 84  2  0
 88 87  1  0
 90 88  1  0
 90 91  1  0
 90 89  1  0
 92 95  1  1
 92 93  1  0
 94 92  1  0
M  ISO  4  12 100  20 100  54 101  55 101
M  END
>  <TORSDO>  (59) 
F 21

>  <SCORE>  (59) 
-11.395

>  <name>  (59) 
58

>  <ligand_id>  (59) 
58

>  <original_smiles>  (59) 
[H]C([H])=C([H])c1c([H])c(N([H])C(=O)C([H])([H])C([H])([H])C([H])([H])Oc2c([H])c([H])c3c(c2[H])C([H])([H])N(C(=O)C([H])(N([H])C(=O)C([H])(N([H])C([H])([H])[H])C([H])([H])[H])C(C([H])([H])[H])(C([H])([H])[H])C([H])([H])[H])C([H])(C(=O)N([H])C2([H])c4c([H])c([H])c([H])c([H])c4C([H])([H])C([H])([H])C2([H])[H])C3([H])[H])c([H])c(C([H])([H])[H])c1N([H])C(=O)N1C([H])([H])C([H])([H])C([H])([H])C([H])(n2nc(-c3c([H])c([H])c(Oc4c([H])c([H])c(F)c([H])c4F)c([H])c3[H])c(C(=O)N([H])[H])c2N([H])[H])C1([H])[H]

>  <smiles>  (59) 
[H]C([H])=C([H])c1c([H])c(N([H])C(=O)C([H])([H])C([H])([H])C([H])([H])Oc2c([H])c([H])c3c(c2[H])C([H])([H])N(C(=O)C([H])(N([H])C(=O)C([H])(N([H])C([H])([H])[H])C([H])([H])[H])C(C([H])([H])[H])(C([H])([H])[H])C([H])([H])[H])C([H])(C(=O)N([H])C2([H])c4c([H])c([H])c([H])c([H])c4C([H])([H])C([H])([H])C2([H])[H])C3([H])[H])c([H])c(C([H])([H])[H])c1N([H])C(=O)N1C([H])([H])C([H])([H])C([H])([H])C([H])(n2nc(-c3c([H])c([H])c(Oc4c([H])c([H])c(F)c([H])c4F)c([H])c3[H])c(C(=O)N([H])[H])c2N([H])[H])C1([H])[H]

$$$$
59:0:0
     RDKit          3D

103112  0  0  1  0  0  0  0  0999 V2000
  -27.4230  -24.0950   20.1670 C   0  0  0  0  0  3  0  0  0  0  0  0
  -29.4980  -23.0050   19.5350 C   0  0  0  0  0  3  0  0  0  0  0  0
  -28.7270  -24.2590   19.6720 C   0  0  0  0  0  0  0  0  0  0  0  0
  -27.6450  -21.6210   20.2880 C   0  0  0  0  0  0  0  0  0  0  0  0
  -26.8900  -22.8190   20.4600 C   0  0  0  0  0  0  0  0  0  0  0  0
  -29.0000  -21.6560   19.8640 C   0  0  0  0  0  0  0  0  0  0  0  0
  -26.9890  -20.2680   20.5440 C   0  0  0  0  0  1  0  0  0  0  0  0
  -25.5730  -22.7640   20.9200 N   0  0  0  0  0  0  0  0  0  0  0  0
  -24.9710  -23.5780   20.8410 H   0  0  0  0  0  0  0  0  0  0  0  0
  -25.0710  -21.8840   20.9170 H   0  0  0  0  0  0  0  0  0  0  0  0
  -29.1720  -25.7420   19.1810 C   0  0  0  0  0  2  0  0  0  0  0  0
  -28.9630  -27.0550   19.9470 O   0  0  0  0  0  0  0  0  0  0  0  0
  -24.8520  -31.9760   23.4410 C   0  0  0  0  0  0  0  0  0  0  0  0
  -27.7980  -27.8820   19.9340 C   0  0  0  0  0  0  0  0  0  0  0  0
  -23.7610  -30.6670   21.6570 C   0  0  0  0  0  3  0  0  0  0  0  0
  -25.3260  -29.3810   20.0770 C   0  0  0  0  0  0  0  0  0  0  0  0
  -26.2780  -31.1700   21.5300 C   0  0  0  0  0  2  0  0  0  0  0  0
  -26.4610  -29.8700   20.7350 C   0  0  0  0  0  0  0  0  0  0  0  0
  -27.6930  -29.1340   20.6520 C   0  0  0  0  0  3  0  0  0  0  0  0
  -26.6300  -27.4710   19.2600 C   0  0  0  0  0  3  0  0  0  0  0  0
  -25.4190  -28.1960   19.3300 C   0  0  0  0  0  3  0  0  0  0  0  0
  -24.0260  -30.1570   20.2150 C   0  0  0  0  0  2  0  0  0  0  0  0
  -24.9820  -31.2880   22.2660 N   0  0  0  0  0  0  0  0  0  0  0  0
  -23.7500  -32.1160   23.9930 O   0  0  0  0  0  0  0  0  0  0  0  0
  -23.1770  -29.5110   22.5060 C   0  0  0  0  0  0  0  0  0  0  0  0
  -21.8890  -29.1920   22.2970 N   0  0  0  0  0  0  0  0  0  0  0  0
  -23.8860  -28.9060   23.3140 O   0  0  0  0  0  0  0  0  0  0  0  0
  -21.3690  -29.7400   21.6250 H   0  0  0  0  0  0  0  0  0  0  0  0
  -18.6740  -27.5350   22.4860 C   0  0  0  0  0  0  0  0  0  0  0  0
  -21.1540  -28.1060   22.9500 C   0  0  0  0  0  3  0  0  0  0  0  0
  -21.4800  -26.7410   22.3000 C   0  0  0  0  0  2  0  0  0  0  0  0
  -20.4970  -26.3490   21.1920 C   0  0  0  0  0  2  0  0  0  0  0  0
  -19.0710  -26.2680   21.7440 C   0  0  0  0  0  2  0  0  0  0  0  0
  -19.6520  -28.4050   23.0370 C   0  0  0  0  0  0  0  0  0  0  0  0
  -19.2280  -29.5850   23.6870 C   0  0  0  0  0  3  0  0  0  0  0  0
  -17.8600  -29.8970   23.7920 C   0  0  0  0  0  3  0  0  0  0  0  0
  -16.8960  -29.0240   23.2580 C   0  0  0  0  0  3  0  0  0  0  0  0
  -17.3050  -27.8440   22.6100 C   0  0  0  0  0  3  0  0  0  0  0  0
  -26.0800  -32.6430   24.1360 C   0  0  0  0  0  3  0  0  0  0  0  0
  -25.6950  -34.0140   24.5050 N   0  0  0  0  0  0  0  0  0  0  0  0
  -26.0260  -35.1140   23.8150 C   0  0  0  0  0  0  0  0  0  0  0  0
  -26.7560  -35.0820   22.8200 O   0  0  0  0  0  0  0  0  0  0  0  0
  -25.0520  -34.1080   25.2780 H   0  0  0  0  0  0  0  0  0  0  0  0
  -24.2590  -36.8660   23.4330 C   0  0  0  0  0  1  0  0  0  0  0  0
  -25.4590  -36.4620   24.3050 C   0  0  0  0  0  3  0  0  0  0  0  0
  -27.5000  -37.3770   25.3190 C   0  0  0  0  0  1  0  0  0  0  0  0
  -26.4580  -37.5540   24.3110 N   0  0  0  0  0  0  0  0  0  0  0  0
  -26.0090  -38.4510   24.4750 H   0  0  0  0  0  0  0  0  0  0  0  0
  -26.5780  -31.8530   25.4090 C   0  0  1  0  0  0  0  0  0  0  0  0
  -25.4500  -31.4990   26.4060 C   0  0  0  0  0  1  0  0  0  0  0  0
  -27.2730  -30.5340   24.9990 C   0  0  0  0  0  1  0  0  0  0  0  0
  -27.6370  -32.6910   26.1630 C   0  0  0  0  0  1  0  0  0  0  0  0
  -29.7080  -20.3830   19.7480 O   0  0  0  0  0  0  0  0  0  0  0  0
  -30.4330  -17.6730   22.4670 C   0  0  0  0  0  3  0  0  0  0  0  0
  -30.6570  -20.3770   21.8960 C   0  0  0  0  0  3  0  0  0  0  0  0
  -30.9340  -18.5410   23.4410 C   0  0  0  0  0  0  0  0  0  0  0  0
  -30.0520  -18.0740   21.1520 C   0  0  0  0  0  0  0  0  0  0  0  0
  -31.0730  -19.8960   23.1460 C   0  0  0  0  0  0  0  0  0  0  0  0
  -30.0890  -19.5620   20.8740 C   0  0  0  0  0  0  0  0  0  0  0  0
  -30.4140  -15.7130   20.0550 C   0  0  0  0  0  0  0  0  0  0  0  0
  -30.3150  -13.4780   18.8960 C   0  0  0  0  0  2  0  0  0  0  0  0
  -29.2900  -13.4950   17.7440 C   0  0  0  0  0  2  0  0  0  0  0  0
  -27.8800  -13.1610   18.2700 C   0  0  0  0  0  2  0  0  0  0  0  0
  -27.5160  -13.9610   19.5510 C   0  0  0  0  0  3  0  0  0  0  0  0
  -28.6570  -13.9390   20.5870 C   0  0  0  0  0  2  0  0  0  0  0  0
  -29.8500  -14.4580   19.9110 N   0  0  0  0  0  0  0  0  0  0  0  0
  -31.5880  -15.8610   19.6960 O   0  0  0  0  0  0  0  0  0  0  0  0
  -29.6310  -16.8500   20.3760 N   0  0  0  0  0  0  0  0  0  0  0  0
  -28.6350  -16.7240   20.2830 H   0  0  0  0  0  0  0  0  0  0  0  0
  -25.1650  -14.3090   20.5070 C   0  0  0  0  0  0  0  0  0  0  0  0
  -24.1900  -13.4300   20.8960 C   0  0  0  0  0  0  0  0  0  0  0  0
  -24.7460  -12.1240   20.7310 C   0  0  0  0  0  0  0  0  0  0  0  0
  -26.2460  -13.5310   20.1260 N   0  0  0  0  0  0  0  0  0  0  0  0
  -26.0090  -12.2090   20.3280 N   0  0  0  0  0  0  0  0  0  0  0  0
  -24.1290  -10.7990   20.8780 C   0  0  0  0  0  0  0  0  0  0  0  0
  -24.5690   -9.8810   21.8570 C   0  0  0  0  0  3  0  0  0  0  0  0
  -23.9420   -8.6230   21.9890 C   0  0  0  0  0  3  0  0  0  0  0  0
  -22.8640   -8.2730   21.1420 C   0  0  0  0  0  0  0  0  0  0  0  0
  -22.4470   -9.1820   20.1540 C   0  0  0  0  0  3  0  0  0  0  0  0
  -23.0750  -10.4310   20.0190 C   0  0  0  0  0  3  0  0  0  0  0  0
  -22.2110   -7.0640   21.1830 O   0  0  0  0  0  0  0  0  0  0  0  0
  -22.0150   -6.3920   22.3630 C   0  0  0  0  0  0  0  0  0  0  0  0
  -21.3040   -6.9660   23.4400 C   0  0  0  0  0  3  0  0  0  0  0  0
  -21.0670   -6.2120   24.6070 C   0  0  0  0  0  3  0  0  0  0  0  0
  -21.5300   -4.8870   24.6970 C   0  0  0  0  0  0  0  0  0  0  0  0
  -22.2340   -4.3120   23.6240 C   0  0  0  0  0  3  0  0  0  0  0  0
  -22.4730   -5.0610   22.4600 C   0  0  0  0  0  0  0  0  0  0  0  0
  -23.1330   -4.4960   21.4210 F   0  0  0  0  0  0  0  0  0  0  0  0
  -21.2950   -4.1610   25.8150 F   0  0  0  0  0  0  0  0  0  0  0  0
  -22.7870  -13.7800   21.2960 C   0  0  0  0  0  0  0  0  0  0  0  0
  -22.1870  -12.9930   22.1840 N   0  0  0  0  0  0  0  0  0  0  0  0
  -22.2290  -14.7850   20.8570 O   0  0  0  0  0  0  0  0  0  0  0  0
  -22.6500  -12.1820   22.5670 H   0  0  0  0  0  0  0  0  0  0  0  0
  -21.2480  -13.2080   22.4870 H   0  0  0  0  0  0  0  0  0  0  0  0
  -25.2140  -15.6970   20.4170 N   0  0  0  0  0  0  0  0  0  0  0  0
  -24.4060  -16.2760   20.6170 H   0  0  0  0  0  0  0  0  0  0  0  0
  -25.9890  -16.2250   20.0360 H   0  0  0  0  0  0  0  0  0  0  0  0
  -31.3170  -18.0680   24.6970 N   0  0  0  0  0  0  0  0  0  0  0  0
  -31.4920  -17.0720   24.7680 H   0  0  0  0  0  0  0  0  0  0  0  0
  -32.0550  -18.6050   25.1380 H   0  0  0  0  0  0  0  0  0  0  0  0
  -31.6000  -20.7450   24.1190 N   0  0  0  0  0  0  0  0  0  0  0  0
  -31.3360  -21.7230   24.0680 H   0  0  0  0  0  0  0  0  0  0  0  0
  -31.5180  -20.3820   25.0630 H   0  0  0  0  0  0  0  0  0  0  0  0
  1  5  1  0
  2  3  1  0
  2  6  2  0
  3  1  2  0
  4  5  2  0
  4  7  1  0
  5  8  1  0
  6  4  1  0
  9  8  1  0
 10  8  1  0
 11  3  1  0
 11 12  1  0
 13 24  2  0
 14 12  1  0
 14 19  1  0
 15 23  1  0
 15 25  1  0
 16 22  1  0
 16 18  1  0
 17 23  1  0
 18 17  1  0
 19 18  2  0
 20 21  1  0
 20 14  2  0
 21 16  2  0
 22 15  1  0
 23 13  1  0
 25 27  2  0
 26 25  1  0
 28 26  1  0
 29 38  2  0
 29 34  1  0
 30 26  1  0
 30 34  1  0
 31 30  1  0
 32 33  1  0
 32 31  1  0
 33 29  1  0
 34 35  2  0
 35 36  1  0
 37 36  2  0
 38 37  1  0
 39 13  1  0
 39 40  1  0
 39 49  1  0
 40 43  1  0
 41 45  1  0
 41 40  1  0
 42 41  2  0
 45 44  1  0
 45 47  1  0
 47 48  1  0
 47 46  1  0
 49 52  1  1
 49 50  1  0
 51 49  1  0
 53  6  1  0
 53 59  1  0
 54 56  1  0
 55 58  1  0
 56 98  1  0
 57 54  2  0
 58 56  2  0
 58101  1  0
 59 57  1  0
 59 55  2  0
 60 68  1  0
 61 66  1  0
 62 63  1  0
 62 61  1  0
 64 63  1  0
 64 73  1  0
 64 65  1  0
 66 60  1  0
 66 65  1  0
 67 60  2  0
 68 57  1  0
 69 68  1  0
 70 71  2  0
 71 90  1  0
 72 75  1  0
 72 71  1  0
 73 74  1  0
 73 70  1  0
 74 72  2  0
 75 76  1  0
 76 77  2  0
 78 81  1  0
 78 77  1  0
 79 78  2  0
 80 79  1  0
 80 75  2  0
 81 82  1  0
 82 87  2  0
 82 83  1  0
 83 84  2  0
 84 85  1  0
 85 89  1  0
 86 85  2  0
 87 86  1  0
 88 87  1  0
 90 91  1  0
 91 94  1  0
 91 93  1  0
 92 90  2  0
 95 70  1  0
 95 96  1  0
 97 95  1  0
 98 99  1  0
 98100  1  0
101103  1  0
102101  1  0
M  ISO  4  11 101  12 101  60 100  68 100
M  END
>  <TORSDO>  (60) 
F 22

>  <SCORE>  (60) 
-8.906

>  <name>  (60) 
59

>  <ligand_id>  (60) 
59

>  <original_smiles>  (60) 
[H]c1c([H])c([H])c2c(c1[H])C([H])([H])C([H])([H])C([H])([H])C2([H])N([H])C(=O)C1([H])N(C(=O)C([H])(N([H])C(=O)C([H])(N([H])C([H])([H])[H])C([H])([H])[H])C(C([H])([H])[H])(C([H])([H])[H])C([H])([H])[H])C([H])([H])c2c([H])c(OC([H])([H])c3c([H])c(Oc4c([H])c(N([H])[H])c(N([H])[H])c([H])c4N([H])C(=O)N4C([H])([H])C([H])([H])C([H])([H])C([H])(n5nc(-c6c([H])c([H])c(Oc7c([H])c([H])c(F)c([H])c7F)c([H])c6[H])c(C(=O)N([H])[H])c5N([H])[H])C4([H])[H])c(C([H])([H])[H])c(N([H])[H])c3[H])c([H])c([H])c2C1([H])[H]

>  <smiles>  (60) 
[H]c1c([H])c([H])c2c(c1[H])C([H])([H])C([H])([H])C([H])([H])C2([H])N([H])C(=O)C1([H])N(C(=O)C([H])(N([H])C(=O)C([H])(N([H])C([H])([H])[H])C([H])([H])[H])C(C([H])([H])[H])(C([H])([H])[H])C([H])([H])[H])C([H])([H])c2c([H])c(OC([H])([H])c3c([H])c(Oc4c([H])c(N([H])[H])c(N([H])[H])c([H])c4N([H])C(=O)N4C([H])([H])C([H])([H])C([H])([H])C([H])(n5nc(-c6c([H])c([H])c(Oc7c([H])c([H])c(F)c([H])c7F)c([H])c6[H])c(C(=O)N([H])[H])c5N([H])[H])C4([H])[H])c(C([H])([H])[H])c(N([H])[H])c3[H])c([H])c([H])c2C1([H])[H]

$$$$
60:0:0
     RDKit          3D

 94102  0  0  1  0  0  0  0  0999 V2000
  -29.6590  -19.4630   19.2480 C   0  0  0  0  0  3  0  0  0  0  0  0
  -30.4930  -18.3790   21.6560 C   0  0  0  0  0  3  0  0  0  0  0  0
  -30.0930  -20.3980   20.2310 C   0  0  0  0  0  0  0  0  0  0  0  0
  -30.5200  -19.8040   21.4550 C   0  0  0  0  0  0  0  0  0  0  0  0
  -30.1190  -17.4480   20.6380 C   0  0  0  0  0  0  0  0  0  0  0  0
  -29.6630  -18.0330   19.4230 C   0  0  0  0  0  0  0  0  0  0  0  0
  -30.7810  -14.9380   20.3840 C   0  0  0  0  0  0  0  0  0  0  0  0
  -30.5910  -12.7180   19.2640 C   0  0  0  0  0  2  0  0  0  0  0  0
  -29.6380  -12.8480   18.0570 C   0  0  0  0  0  2  0  0  0  0  0  0
  -28.1740  -12.6560   18.4900 C   0  0  0  0  0  2  0  0  0  0  0  0
  -27.8080  -13.4940   19.7440 C   0  0  0  0  0  3  0  0  0  0  0  0
  -28.8710  -13.3290   20.8570 C   0  0  0  0  0  2  0  0  0  0  0  0
  -30.1730  -13.7060   20.2860 N   0  0  0  0  0  0  0  0  0  0  0  0
  -31.9280  -15.1010   19.9570 O   0  0  0  0  0  0  0  0  0  0  0  0
  -30.0380  -15.9880   20.8810 N   0  0  0  0  0  0  0  0  0  0  0  0
  -29.1820  -15.6910   21.3260 H   0  0  0  0  0  0  0  0  0  0  0  0
  -25.4080  -14.0570   20.4740 C   0  0  0  0  0  0  0  0  0  0  0  0
  -24.3490  -13.2700   20.8370 C   0  0  0  0  0  0  0  0  0  0  0  0
  -24.8240  -11.9230   20.7940 C   0  0  0  0  0  0  0  0  0  0  0  0
  -26.4610  -13.1900   20.2280 N   0  0  0  0  0  0  0  0  0  0  0  0
  -26.1150  -11.9010   20.4810 N   0  0  0  0  0  0  0  0  0  0  0  0
  -24.1110  -10.6510   20.9770 C   0  0  0  0  0  0  0  0  0  0  0  0
  -24.5310   -9.6970   21.9320 C   0  0  0  0  0  3  0  0  0  0  0  0
  -23.8160   -8.4920   22.0990 C   0  0  0  0  0  3  0  0  0  0  0  0
  -22.6690   -8.2310   21.3140 C   0  0  0  0  0  0  0  0  0  0  0  0
  -22.2680   -9.1730   20.3500 C   0  0  0  0  0  3  0  0  0  0  0  0
  -22.9830  -10.3690   20.1790 C   0  0  0  0  0  3  0  0  0  0  0  0
  -21.9330   -7.0720   21.3860 O   0  0  0  0  0  0  0  0  0  0  0  0
  -21.8390   -6.3500   22.5480 C   0  0  0  0  0  0  0  0  0  0  0  0
  -21.3080   -6.9070   23.7330 C   0  0  0  0  0  3  0  0  0  0  0  0
  -21.1700   -6.1090   24.8860 C   0  0  0  0  0  3  0  0  0  0  0  0
  -21.5540   -4.7540   24.8540 C   0  0  0  0  0  0  0  0  0  0  0  0
  -22.0790   -4.1960   23.6760 C   0  0  0  0  0  3  0  0  0  0  0  0
  -22.2180   -4.9920   22.5250 C   0  0  0  0  0  0  0  0  0  0  0  0
  -22.7060   -4.4460   21.3860 F   0  0  0  0  0  0  0  0  0  0  0  0
  -21.4140   -3.9840   25.9580 F   0  0  0  0  0  0  0  0  0  0  0  0
  -22.9490  -13.7310   21.1130 C   0  0  0  0  0  0  0  0  0  0  0  0
  -22.2240  -13.0210   21.9720 N   0  0  0  0  0  0  0  0  0  0  0  0
  -22.4990  -14.7560   20.6000 O   0  0  0  0  0  0  0  0  0  0  0  0
  -22.5940  -12.1920   22.4160 H   0  0  0  0  0  0  0  0  0  0  0  0
  -21.2870  -13.3190   22.2020 H   0  0  0  0  0  0  0  0  0  0  0  0
  -25.5580  -15.4310   20.3100 N   0  0  0  0  0  0  0  0  0  0  0  0
  -24.7880  -16.0770   20.4450 H   0  0  0  0  0  0  0  0  0  0  0  0
  -26.3910  -15.8800   19.9440 H   0  0  0  0  0  0  0  0  0  0  0  0
  -31.0670  -20.6190   22.4410 N   0  0  0  0  0  0  0  0  0  0  0  0
  -31.1550  -20.2960   23.3990 H   0  0  0  0  0  0  0  0  0  0  0  0
  -31.0520  -21.6290   22.3210 H   0  0  0  0  0  0  0  0  0  0  0  0
  -30.0470  -22.9910   19.8990 C   0  0  0  0  0  3  0  0  0  0  0  0
  -30.4420  -21.7360   19.8000 N   0  0  0  0  0  0  0  0  0  0  0  0
  -28.9160  -23.8970   20.5540 C   0  0  0  0  0  2  0  0  0  0  0  0
  -28.6140  -25.3150   19.8080 C   0  0  0  0  0  2  0  0  0  0  0  0
  -28.4230  -26.6340   20.5020 O   0  0  0  0  0  0  0  0  0  0  0  0
  -24.5450  -32.0400   23.3590 C   0  0  0  0  0  0  0  0  0  0  0  0
  -27.2800  -27.4590   20.3890 C   0  0  0  0  0  0  0  0  0  0  0  0
  -23.3970  -30.6210   21.6980 C   0  0  0  0  0  3  0  0  0  0  0  0
  -24.8950  -29.0700   20.3180 C   0  0  0  0  0  0  0  0  0  0  0  0
  -25.9390  -30.9550   21.5770 C   0  0  0  0  0  2  0  0  0  0  0  0
  -26.0440  -29.5690   20.9430 C   0  0  0  0  0  0  0  0  0  0  0  0
  -27.2330  -28.7740   20.9700 C   0  0  0  0  0  3  0  0  0  0  0  0
  -26.0990  -27.0210   19.7460 C   0  0  0  0  0  3  0  0  0  0  0  0
  -24.9290  -27.8060   19.7100 C   0  0  0  0  0  3  0  0  0  0  0  0
  -23.6520  -29.9350   20.3290 C   0  0  0  0  0  2  0  0  0  0  0  0
  -24.6450  -31.2240   22.2690 N   0  0  0  0  0  0  0  0  0  0  0  0
  -23.4450  -32.3080   23.8640 O   0  0  0  0  0  0  0  0  0  0  0  0
  -22.7140  -29.6110   22.6500 C   0  0  0  0  0  0  0  0  0  0  0  0
  -21.3910  -29.4240   22.4920 N   0  0  0  0  0  0  0  0  0  0  0  0
  -23.3740  -28.9980   23.4920 O   0  0  0  0  0  0  0  0  0  0  0  0
  -20.9160  -29.9670   21.7850 H   0  0  0  0  0  0  0  0  0  0  0  0
  -18.0070  -28.2350   22.9540 C   0  0  0  0  0  0  0  0  0  0  0  0
  -20.5630  -28.4900   23.2510 C   0  0  0  0  0  3  0  0  0  0  0  0
  -20.6680  -27.0580   22.6720 C   0  0  0  0  0  2  0  0  0  0  0  0
  -19.5760  -26.7430   21.6440 C   0  0  0  0  0  2  0  0  0  0  0  0
  -18.1890  -26.8880   22.2740 C   0  0  0  0  0  2  0  0  0  0  0  0
  -19.1220  -28.9930   23.3990 C   0  0  0  0  0  0  0  0  0  0  0  0
  -18.8980  -30.2520   23.9960 C   0  0  0  0  0  3  0  0  0  0  0  0
  -17.5920  -30.7550   24.1500 C   0  0  0  0  0  3  0  0  0  0  0  0
  -16.4910  -29.9950   23.7160 C   0  0  0  0  0  3  0  0  0  0  0  0
  -16.6990  -28.7350   23.1250 C   0  0  0  0  0  3  0  0  0  0  0  0
  -25.8060  -32.6910   24.0070 C   0  0  0  0  0  3  0  0  0  0  0  0
  -25.4890  -34.1020   24.2700 N   0  0  0  0  0  0  0  0  0  0  0  0
  -25.8590  -35.1250   23.4890 C   0  0  0  0  0  0  0  0  0  0  0  0
  -26.5680  -34.9800   22.4890 O   0  0  0  0  0  0  0  0  0  0  0  0
  -24.8610  -34.2840   25.0370 H   0  0  0  0  0  0  0  0  0  0  0  0
  -24.1620  -36.9170   22.9970 C   0  0  0  0  0  1  0  0  0  0  0  0
  -25.3630  -36.5330   23.8770 C   0  0  0  0  0  3  0  0  0  0  0  0
  -27.4620  -37.4360   24.7790 C   0  0  0  0  0  1  0  0  0  0  0  0
  -26.4100  -37.5750   23.7750 N   0  0  0  0  0  0  0  0  0  0  0  0
  -26.0040  -38.5020   23.8660 H   0  0  0  0  0  0  0  0  0  0  0  0
  -26.2590  -31.9720   25.3370 C   0  0  1  0  0  0  0  0  0  0  0  0
  -25.1130  -31.7750   26.3560 C   0  0  0  0  0  1  0  0  0  0  0  0
  -26.8640  -30.5820   25.0310 C   0  0  0  0  0  1  0  0  0  0  0  0
  -27.3780  -32.7930   26.0250 C   0  0  0  0  0  1  0  0  0  0  0  0
  -28.7130  -17.6770   17.2380 C   0  0  0  0  0  1  0  0  0  0  0  0
  -29.2420  -17.1510   18.4500 O   0  0  0  0  0  0  0  0  0  0  0  0
  1  6  2  0
  1  3  1  0
  3  4  2  0
  4  2  1  0
  4 45  1  0
  5 15  1  0
  5  2  2  0
  6  5  1  0
  7 15  1  0
  8 13  1  0
  9 10  1  0
  9  8  1  0
 11 10  1  0
 11 20  1  0
 11 12  1  0
 13  7  1  0
 13 12  1  0
 14  7  2  0
 15 16  1  0
 17 18  2  0
 18 37  1  0
 19 18  1  0
 19 22  1  0
 20 17  1  0
 20 21  1  0
 21 19  2  0
 22 23  1  0
 23 24  2  0
 25 28  1  0
 25 24  1  0
 26 25  2  0
 27 26  1  0
 27 22  2  0
 28 29  1  0
 29 30  1  0
 30 31  2  0
 32 31  1  0
 32 36  1  0
 33 32  2  0
 34 29  2  0
 34 33  1  0
 35 34  1  0
 37 38  1  0
 38 41  1  0
 38 40  1  0
 39 37  2  0
 42 43  1  0
 42 17  1  0
 44 42  1  0
 45 46  1  0
 47 45  1  0
 48 50  1  0
 49 48  2  0
 49  3  1  0
 51 52  1  0
 51 50  1  0
 53 64  2  0
 54 52  1  0
 54 59  1  0
 55 63  1  0
 55 65  1  0
 56 62  1  0
 56 58  1  0
 57 63  1  0
 58 59  2  0
 58 57  1  0
 60 54  2  0
 61 60  1  0
 61 56  2  0
 62 55  1  0
 63 53  1  0
 65 67  2  0
 66 65  1  0
 68 66  1  0
 69 78  2  0
 69 74  1  0
 70 66  1  0
 70 74  1  0
 71 70  1  0
 72 73  1  0
 72 71  1  0
 73 69  1  0
 74 75  2  0
 75 76  1  0
 77 76  2  0
 78 77  1  0
 79 53  1  0
 79 80  1  0
 79 89  1  0
 80 83  1  0
 81 85  1  0
 81 80  1  0
 82 81  2  0
 85 84  1  0
 87 88  1  0
 87 85  1  0
 87 86  1  0
 89 92  1  1
 89 90  1  0
 91 89  1  0
 93 94  1  0
 94  6  1  0
M  ISO  4   7 100  15 100  51 101  52 101
M  END
>  <TORSDO>  (61) 
F 21

>  <SCORE>  (61) 
-12.874

>  <name>  (61) 
60

>  <ligand_id>  (61) 
60

>  <original_smiles>  (61) 
[H]C(=Nc1c([H])c(OC([H])([H])[H])c(N([H])C(=O)N2C([H])([H])C([H])([H])C([H])([H])C([H])(n3nc(-c4c([H])c([H])c(Oc5c([H])c([H])c(F)c([H])c5F)c([H])c4[H])c(C(=O)N([H])[H])c3N([H])[H])C2([H])[H])c([H])c1N([H])[H])C([H])([H])C([H])([H])Oc1c([H])c([H])c2c(c1[H])C([H])([H])N(C(=O)C([H])(N([H])C(=O)C([H])(N([H])C([H])([H])[H])C([H])([H])[H])C(C([H])([H])[H])(C([H])([H])[H])C([H])([H])[H])C([H])(C(=O)N([H])C1([H])c3c([H])c([H])c([H])c([H])c3C([H])([H])C([H])([H])C1([H])[H])C2([H])[H]

>  <smiles>  (61) 
[H]C(=Nc1c([H])c(OC([H])([H])[H])c(N([H])C(=O)N2C([H])([H])C([H])([H])C([H])([H])C([H])(n3nc(-c4c([H])c([H])c(Oc5c([H])c([H])c(F)c([H])c5F)c([H])c4[H])c(C(=O)N([H])[H])c3N([H])[H])C2([H])[H])c([H])c1N([H])[H])C([H])([H])C([H])([H])Oc1c([H])c([H])c2c(c1[H])C([H])([H])N(C(=O)C([H])(N([H])C(=O)C([H])(N([H])C([H])([H])[H])C([H])([H])[H])C(C([H])([H])[H])(C([H])([H])[H])C([H])([H])[H])C([H])(C(=O)N([H])C1([H])c3c([H])c([H])c([H])c([H])c3C([H])([H])C([H])([H])C1([H])[H])C2([H])[H]

$$$$
61:0:0
     RDKit          3D

 95103  0  0  1  0  0  0  0  0999 V2000
  -30.3040  -19.8180   20.8570 C   0  0  0  0  0  3  0  0  0  0  0  0
  -29.5110  -17.8250   19.0570 C   0  0  0  0  0  3  0  0  0  0  0  0
  -30.6510  -18.4360   21.0730 C   0  0  0  0  0  0  0  0  0  0  0  0
  -29.5560  -20.2550   19.7360 C   0  0  0  0  0  0  0  0  0  0  0  0
  -30.2160  -17.3650   20.2040 C   0  0  0  0  0  0  0  0  0  0  0  0
  -29.2110  -19.2150   18.8230 C   0  0  0  0  0  0  0  0  0  0  0  0
  -31.5570  -18.1530   22.2620 C   0  0  0  0  0  1  0  0  0  0  0  0
  -30.8310  -14.8810   19.7120 C   0  0  0  0  0  0  0  0  0  0  0  0
  -30.4270  -12.7200   18.4890 C   0  0  0  0  0  2  0  0  0  0  0  0
  -29.3540  -12.8940   17.3900 C   0  0  0  0  0  2  0  0  0  0  0  0
  -27.9380  -12.7070   17.9680 C   0  0  0  0  0  2  0  0  0  0  0  0
  -27.7270  -13.4920   19.2870 C   0  0  0  0  0  3  0  0  0  0  0  0
  -28.8960  -13.2720   20.2590 C   0  0  0  0  0  2  0  0  0  0  0  0
  -30.1380  -13.6860   19.5810 N   0  0  0  0  0  0  0  0  0  0  0  0
  -31.8690  -15.0460   19.0600 O   0  0  0  0  0  0  0  0  0  0  0  0
  -30.3530  -15.9050   20.5390 N   0  0  0  0  0  0  0  0  0  0  0  0
  -25.4440  -14.0550   20.3160 C   0  0  0  0  0  0  0  0  0  0  0  0
  -24.4190  -13.2670   20.7650 C   0  0  0  0  0  0  0  0  0  0  0  0
  -24.8600  -11.9170   20.6100 C   0  0  0  0  0  0  0  0  0  0  0  0
  -26.4420  -13.1840   19.9090 N   0  0  0  0  0  0  0  0  0  0  0  0
  -26.1040  -11.8890   20.1470 N   0  0  0  0  0  0  0  0  0  0  0  0
  -24.1460  -10.6490   20.8160 C   0  0  0  0  0  0  0  0  0  0  0  0
  -24.6280   -9.6660   21.7090 C   0  0  0  0  0  3  0  0  0  0  0  0
  -23.9160   -8.4630   21.9050 C   0  0  0  0  0  3  0  0  0  0  0  0
  -22.7050   -8.2330   21.2080 C   0  0  0  0  0  0  0  0  0  0  0  0
  -22.2400   -9.2040   20.3030 C   0  0  0  0  0  3  0  0  0  0  0  0
  -22.9540  -10.4000   20.1060 C   0  0  0  0  0  3  0  0  0  0  0  0
  -21.9580   -7.0850   21.3160 O   0  0  0  0  0  0  0  0  0  0  0  0
  -21.9090   -6.3650   22.4820 C   0  0  0  0  0  0  0  0  0  0  0  0
  -21.4850   -6.9440   23.6990 C   0  0  0  0  0  3  0  0  0  0  0  0
  -21.3810   -6.1500   24.8590 C   0  0  0  0  0  3  0  0  0  0  0  0
  -21.6930   -4.7780   24.8030 C   0  0  0  0  0  0  0  0  0  0  0  0
  -22.1110   -4.2000   23.5920 C   0  0  0  0  0  3  0  0  0  0  0  0
  -22.2160   -4.9900   22.4350 C   0  0  0  0  0  0  0  0  0  0  0  0
  -22.5980   -4.4200   21.2660 F   0  0  0  0  0  0  0  0  0  0  0  0
  -21.5870   -4.0130   25.9160 F   0  0  0  0  0  0  0  0  0  0  0  0
  -23.0670  -13.7330   21.2190 C   0  0  0  0  0  0  0  0  0  0  0  0
  -22.4520  -13.0140   22.1520 N   0  0  0  0  0  0  0  0  0  0  0  0
  -22.5670  -14.7680   20.7810 O   0  0  0  0  0  0  0  0  0  0  0  0
  -22.8710  -12.1740   22.5200 H   0  0  0  0  0  0  0  0  0  0  0  0
  -21.5500  -13.3090   22.4980 H   0  0  0  0  0  0  0  0  0  0  0  0
  -25.6080  -15.4330   20.1960 N   0  0  0  0  0  0  0  0  0  0  0  0
  -24.8770  -16.0890   20.4470 H   0  0  0  0  0  0  0  0  0  0  0  0
  -26.4490  -15.8840   19.8630 H   0  0  0  0  0  0  0  0  0  0  0  0
  -30.8040  -14.6690   22.6430 C   0  0  0  0  0  2  0  0  0  0  0  0
  -30.2440  -15.6670   21.9290 C   0  0  0  0  0  3  0  0  0  0  0  0
  -29.1400  -21.6130   19.4250 N   0  0  0  0  0  0  0  0  0  0  0  0
  -28.5310  -21.6240   18.6100 H   0  0  0  0  0  0  0  0  0  0  0  0
  -29.2280  -22.9440   20.1470 C   0  0  0  0  0  2  0  0  0  0  0  0
  -29.0780  -24.2090   19.2050 C   0  0  0  0  0  3  0  0  0  0  0  0
  -28.7800  -25.5690   19.2700 C   0  0  0  0  0  3  0  0  0  0  0  0
  -28.4960  -26.5030   20.2920 O   0  0  0  0  0  0  0  0  0  0  0  0
  -24.6270  -31.9320   23.1650 C   0  0  0  0  0  0  0  0  0  0  0  0
  -27.3970  -27.3870   20.1740 C   0  0  0  0  0  0  0  0  0  0  0  0
  -23.4830  -30.4970   21.5160 C   0  0  0  0  0  3  0  0  0  0  0  0
  -24.9940  -28.9660   20.1200 C   0  0  0  0  0  0  0  0  0  0  0  0
  -26.0220  -30.8580   21.3780 C   0  0  0  0  0  2  0  0  0  0  0  0
  -26.1450  -29.4770   20.7360 C   0  0  0  0  0  0  0  0  0  0  0  0
  -27.3460  -28.6970   20.7590 C   0  0  0  0  0  3  0  0  0  0  0  0
  -26.2150  -26.9340   19.5430 C   0  0  0  0  0  3  0  0  0  0  0  0
  -25.0340  -27.7000   19.5160 C   0  0  0  0  0  3  0  0  0  0  0  0
  -23.7380  -29.8150   20.1450 C   0  0  0  0  0  2  0  0  0  0  0  0
  -24.7280  -31.1160   22.0750 N   0  0  0  0  0  0  0  0  0  0  0  0
  -23.5270  -32.1920   23.6760 O   0  0  0  0  0  0  0  0  0  0  0  0
  -22.8240  -29.4750   22.4720 C   0  0  0  0  0  0  0  0  0  0  0  0
  -21.5110  -29.2450   22.3010 N   0  0  0  0  0  0  0  0  0  0  0  0
  -23.4930  -28.8900   23.3270 O   0  0  0  0  0  0  0  0  0  0  0  0
  -21.0280  -29.7720   21.5860 H   0  0  0  0  0  0  0  0  0  0  0  0
  -18.1730  -27.8960   22.6810 C   0  0  0  0  0  0  0  0  0  0  0  0
  -20.6990  -28.2890   23.0580 C   0  0  0  0  0  3  0  0  0  0  0  0
  -20.8950  -26.8490   22.5300 C   0  0  0  0  0  2  0  0  0  0  0  0
  -19.8590  -26.4460   21.4740 C   0  0  0  0  0  2  0  0  0  0  0  0
  -18.4450  -26.5390   22.0510 C   0  0  0  0  0  2  0  0  0  0  0  0
  -19.2320  -28.7240   23.1370 C   0  0  0  0  0  0  0  0  0  0  0  0
  -18.9250  -29.9910   23.6780 C   0  0  0  0  0  3  0  0  0  0  0  0
  -17.5920  -30.4310   23.7720 C   0  0  0  0  0  3  0  0  0  0  0  0
  -16.5450  -29.6020   23.3320 C   0  0  0  0  0  3  0  0  0  0  0  0
  -16.8360  -28.3360   22.7920 C   0  0  0  0  0  3  0  0  0  0  0  0
  -25.8810  -32.5970   23.8070 C   0  0  0  0  0  3  0  0  0  0  0  0
  -25.5270  -33.9830   24.1470 N   0  0  0  0  0  0  0  0  0  0  0  0
  -25.8280  -35.0530   23.3980 C   0  0  0  0  0  0  0  0  0  0  0  0
  -26.5030  -34.9790   22.3680 O   0  0  0  0  0  0  0  0  0  0  0  0
  -24.9230  -34.1110   24.9450 H   0  0  0  0  0  0  0  0  0  0  0  0
  -24.0480  -36.7970   23.0540 C   0  0  0  0  0  1  0  0  0  0  0  0
  -25.2980  -36.4220   23.8660 C   0  0  0  0  0  3  0  0  0  0  0  0
  -27.4020  -37.3630   24.7130 C   0  0  0  0  0  1  0  0  0  0  0  0
  -26.2990  -37.5070   23.7670 N   0  0  0  0  0  0  0  0  0  0  0  0
  -25.8660  -38.4130   23.9190 H   0  0  0  0  0  0  0  0  0  0  0  0
  -26.4050  -31.8310   25.0840 C   0  0  1  0  0  0  0  0  0  0  0  0
  -25.3000  -31.5230   26.1230 C   0  0  0  0  0  1  0  0  0  0  0  0
  -27.0640  -30.4900   24.6880 C   0  0  0  0  0  1  0  0  0  0  0  0
  -27.4990  -32.6700   25.7840 C   0  0  0  0  0  1  0  0  0  0  0  0
  -28.5940  -19.6160   17.6630 O   0  0  0  0  0  0  0  0  0  0  0  0
  -26.3440  -20.2280   17.2630 C   0  0  0  0  0  1  0  0  0  0  0  0
  -27.3210  -19.0570   17.3870 C   0  0  0  0  0  2  0  0  0  0  0  0
  1  3  1  0
  2  5  1  0
  3  7  1  0
  4  1  2  0
  5 16  1  0
  5  3  2  0
  6  2  2  0
  6  4  1  0
  8 16  1  0
  9 14  1  0
 10 11  1  0
 10  9  1  0
 12 11  1  0
 12 20  1  0
 12 13  1  0
 14  8  1  0
 14 13  1  0
 15  8  2  0
 16 46  1  0
 17 18  2  0
 18 37  1  0
 19 18  1  0
 19 22  1  0
 20 21  1  0
 20 17  1  0
 21 19  2  0
 22 23  1  0
 23 24  2  0
 25 28  1  0
 25 24  1  0
 26 25  2  0
 27 26  1  0
 27 22  2  0
 28 29  1  0
 29 30  1  0
 30 31  2  0
 32 31  1  0
 32 36  1  0
 33 32  2  0
 34 29  2  0
 34 33  1  0
 35 34  1  0
 37 38  1  0
 38 41  1  0
 38 40  1  0
 39 37  2  0
 42 17  1  0
 42 43  1  0
 44 42  1  0
 46 45  2  0
 47  4  1  0
 47 49  1  0
 48 47  1  0
 50 51  2  0
 50 49  1  0
 51 52  1  0
 53 64  2  0
 54 52  1  0
 54 59  1  0
 55 63  1  0
 55 65  1  0
 56 62  1  0
 56 58  1  0
 57 63  1  0
 58 59  2  0
 58 57  1  0
 60 54  2  0
 61 60  1  0
 61 56  2  0
 62 55  1  0
 63 53  1  0
 65 67  2  0
 66 65  1  0
 68 66  1  0
 69 78  2  0
 69 74  1  0
 70 66  1  0
 70 74  1  0
 71 70  1  0
 72 73  1  0
 72 71  1  0
 73 69  1  0
 74 75  2  0
 75 76  1  0
 77 76  2  0
 78 77  1  0
 79 53  1  0
 79 80  1  0
 79 89  1  0
 80 83  1  0
 81 85  1  0
 81 80  1  0
 82 81  2  0
 85 84  1  0
 87 85  1  0
 87 88  1  0
 87 86  1  0
 89 92  1  1
 89 90  1  0
 91 89  1  0
 93  6  1  0
 94 95  1  0
 95 93  1  0
M  ISO  4   8 100  16 100  51 101  52 101
M  END
>  <TORSDO>  (62) 
F 22

>  <SCORE>  (62) 
-10.228

>  <name>  (62) 
61

>  <ligand_id>  (62) 
61

>  <original_smiles>  (62) 
[H]C([H])=C([H])N(C(=O)N1C([H])([H])C([H])([H])C([H])([H])C([H])(n2nc(-c3c([H])c([H])c(Oc4c([H])c([H])c(F)c([H])c4F)c([H])c3[H])c(C(=O)N([H])[H])c2N([H])[H])C1([H])[H])c1c([H])c(OC([H])([H])C([H])([H])[H])c(N([H])C([H])([H])C([H])=C([H])Oc2c([H])c([H])c3c(c2[H])C([H])([H])N(C(=O)C([H])(N([H])C(=O)C([H])(N([H])C([H])([H])[H])C([H])([H])[H])C(C([H])([H])[H])(C([H])([H])[H])C([H])([H])[H])C([H])(C(=O)N([H])C2([H])c4c([H])c([H])c([H])c([H])c4C([H])([H])C([H])([H])C2([H])[H])C3([H])[H])c([H])c1C([H])([H])[H]

>  <smiles>  (62) 
[H]C([H])=C([H])N(C(=O)N1C([H])([H])C([H])([H])C([H])([H])C([H])(n2nc(-c3c([H])c([H])c(Oc4c([H])c([H])c(F)c([H])c4F)c([H])c3[H])c(C(=O)N([H])[H])c2N([H])[H])C1([H])[H])c1c([H])c(OC([H])([H])C([H])([H])[H])c(N([H])C([H])([H])C([H])=C([H])Oc2c([H])c([H])c3c(c2[H])C([H])([H])N(C(=O)C([H])(N([H])C(=O)C([H])(N([H])C([H])([H])[H])C([H])([H])[H])C(C([H])([H])[H])(C([H])([H])[H])C([H])([H])[H])C([H])(C(=O)N([H])C2([H])c4c([H])c([H])c([H])c([H])c4C([H])([H])C([H])([H])C2([H])[H])C3([H])[H])c([H])c1C([H])([H])[H]

$$$$
62:0:0
     RDKit          3D

 94102  0  0  1  0  0  0  0  0999 V2000
  -30.4900  -19.9590   19.8640 C   0  0  0  0  0  3  0  0  0  0  0  0
  -30.3680  -19.9460   22.2860 C   0  0  0  0  0  3  0  0  0  0  0  0
  -30.7130  -18.5720   19.8730 C   0  0  0  0  0  0  0  0  0  0  0  0
  -30.7420  -17.8390   21.0920 C   0  0  0  0  0  0  0  0  0  0  0  0
  -30.5660  -18.5400   22.3150 C   0  0  0  0  0  0  0  0  0  0  0  0
  -30.2970  -20.6660   21.0670 C   0  0  0  0  0  0  0  0  0  0  0  0
  -30.5810  -17.8350   23.6640 C   0  0  0  0  0  1  0  0  0  0  0  0
  -29.8350  -22.9460   20.0820 C   0  0  0  0  0  0  0  0  0  0  0  0
  -30.0880  -22.0880   21.0950 N   0  0  0  0  0  0  0  0  0  0  0  0
  -29.6270  -22.5920   18.9180 O   0  0  0  0  0  0  0  0  0  0  0  0
  -30.1250  -22.5130   22.0130 H   0  0  0  0  0  0  0  0  0  0  0  0
  -29.8120  -24.4520   20.4100 C   0  0  0  0  0  2  0  0  0  0  0  0
  -28.5820  -25.1980   19.8340 C   0  0  0  0  0  2  0  0  0  0  0  0
  -28.6160  -26.6130   20.1290 O   0  0  0  0  0  0  0  0  0  0  0  0
  -24.6320  -31.6540   23.2090 C   0  0  0  0  0  0  0  0  0  0  0  0
  -27.4280  -27.3230   20.0790 C   0  0  0  0  0  0  0  0  0  0  0  0
  -23.4820  -30.2470   21.5340 C   0  0  0  0  0  3  0  0  0  0  0  0
  -24.9940  -28.7820   20.0930 C   0  0  0  0  0  0  0  0  0  0  0  0
  -26.0040  -30.6720   21.3750 C   0  0  0  0  0  2  0  0  0  0  0  0
  -26.1330  -29.3170   20.7070 C   0  0  0  0  0  0  0  0  0  0  0  0
  -27.3500  -28.5950   20.6950 C   0  0  0  0  0  3  0  0  0  0  0  0
  -26.2670  -26.8150   19.4480 C   0  0  0  0  0  3  0  0  0  0  0  0
  -25.0580  -27.5290   19.4630 C   0  0  0  0  0  3  0  0  0  0  0  0
  -23.7260  -29.6030   20.1450 C   0  0  0  0  0  2  0  0  0  0  0  0
  -24.7230  -30.8720   22.0970 N   0  0  0  0  0  0  0  0  0  0  0  0
  -23.5380  -31.8870   23.7430 O   0  0  0  0  0  0  0  0  0  0  0  0
  -22.8530  -29.1900   22.4710 C   0  0  0  0  0  0  0  0  0  0  0  0
  -21.5450  -28.9380   22.2960 N   0  0  0  0  0  0  0  0  0  0  0  0
  -23.5410  -28.5970   23.3070 O   0  0  0  0  0  0  0  0  0  0  0  0
  -21.0510  -29.4700   21.5930 H   0  0  0  0  0  0  0  0  0  0  0  0
  -18.2290  -27.5470   22.6630 C   0  0  0  0  0  0  0  0  0  0  0  0
  -20.7530  -27.9590   23.0400 C   0  0  0  0  0  3  0  0  0  0  0  0
  -20.9670  -26.5340   22.4810 C   0  0  0  0  0  2  0  0  0  0  0  0
  -19.9300  -26.1400   21.4240 C   0  0  0  0  0  2  0  0  0  0  0  0
  -18.5170  -26.2040   22.0110 C   0  0  0  0  0  2  0  0  0  0  0  0
  -19.2810  -28.3770   23.1320 C   0  0  0  0  0  0  0  0  0  0  0  0
  -18.9620  -29.6300   23.6990 C   0  0  0  0  0  3  0  0  0  0  0  0
  -17.6240  -30.0540   23.8030 C   0  0  0  0  0  3  0  0  0  0  0  0
  -16.5860  -29.2220   23.3520 C   0  0  0  0  0  3  0  0  0  0  0  0
  -16.8900  -27.9700   22.7880 C   0  0  0  0  0  3  0  0  0  0  0  0
  -25.8950  -32.3130   23.8500 C   0  0  0  0  0  3  0  0  0  0  0  0
  -25.5430  -33.6950   24.1980 N   0  0  0  0  0  0  0  0  0  0  0  0
  -25.8350  -34.7670   23.4490 C   0  0  0  0  0  0  0  0  0  0  0  0
  -26.5000  -34.6980   22.4120 O   0  0  0  0  0  0  0  0  0  0  0  0
  -24.9500  -33.8230   25.0070 H   0  0  0  0  0  0  0  0  0  0  0  0
  -24.0370  -36.4970   23.1340 C   0  0  0  0  0  1  0  0  0  0  0  0
  -25.3030  -36.1320   23.9260 C   0  0  0  0  0  3  0  0  0  0  0  0
  -27.4110  -37.0900   24.7390 C   0  0  0  0  0  1  0  0  0  0  0  0
  -26.2940  -37.2230   23.8080 N   0  0  0  0  0  0  0  0  0  0  0  0
  -25.8550  -38.1270   23.9670 H   0  0  0  0  0  0  0  0  0  0  0  0
  -26.4250  -31.5370   25.1170 C   0  0  1  0  0  0  0  0  0  0  0  0
  -25.3320  -31.2440   26.1710 C   0  0  0  0  0  1  0  0  0  0  0  0
  -27.0590  -30.1880   24.7100 C   0  0  0  0  0  1  0  0  0  0  0  0
  -27.5410  -32.3590   25.8040 C   0  0  0  0  0  1  0  0  0  0  0  0
  -30.0380  -18.0090   17.5510 C   0  0  0  0  0  2  0  0  0  0  0  0
  -30.8670  -17.8670   18.5910 C   0  0  0  0  0  3  0  0  0  0  0  0
  -30.7660  -16.3690   20.8970 C   0  0  0  0  0  2  0  0  0  0  0  0
  -31.8940  -15.6330   20.9220 C   0  0  0  0  0  2  0  0  0  0  0  0
  -32.0950  -14.5020   20.0240 C   0  0  0  0  0  0  0  0  0  0  0  0
  -31.3260  -12.5310   18.7660 C   0  0  0  0  0  2  0  0  0  0  0  0
  -30.3750  -12.9130   17.6190 C   0  0  0  0  0  2  0  0  0  0  0  0
  -28.9210  -12.9180   18.1210 C   0  0  0  0  0  2  0  0  0  0  0  0
  -28.7500  -13.7520   19.4200 C   0  0  0  0  0  3  0  0  0  0  0  0
  -29.8390  -13.4080   20.4740 C   0  0  0  0  0  2  0  0  0  0  0  0
  -31.1590  -13.5300   19.8420 N   0  0  0  0  0  0  0  0  0  0  0  0
  -33.1180  -14.5290   19.3410 O   0  0  0  0  0  0  0  0  0  0  0  0
  -26.4720  -14.5780   20.2730 C   0  0  0  0  0  0  0  0  0  0  0  0
  -25.3480  -13.9080   20.6800 C   0  0  0  0  0  0  0  0  0  0  0  0
  -25.6590  -12.5180   20.5870 C   0  0  0  0  0  0  0  0  0  0  0  0
  -27.4020  -13.5990   19.9660 N   0  0  0  0  0  0  0  0  0  0  0  0
  -26.9190  -12.3500   20.2090 N   0  0  0  0  0  0  0  0  0  0  0  0
  -24.8090  -11.3320   20.7830 C   0  0  0  0  0  0  0  0  0  0  0  0
  -25.1380  -10.3390   21.7300 C   0  0  0  0  0  3  0  0  0  0  0  0
  -24.2970   -9.2200   21.9190 C   0  0  0  0  0  3  0  0  0  0  0  0
  -23.1130   -9.0860   21.1580 C   0  0  0  0  0  0  0  0  0  0  0  0
  -22.7970  -10.0700   20.2020 C   0  0  0  0  0  3  0  0  0  0  0  0
  -23.6390  -11.1790   20.0130 C   0  0  0  0  0  3  0  0  0  0  0  0
  -22.2500   -8.0220   21.2530 O   0  0  0  0  0  0  0  0  0  0  0  0
  -22.0260   -7.3810   22.4460 C   0  0  0  0  0  0  0  0  0  0  0  0
  -21.5470   -8.0660   23.5830 C   0  0  0  0  0  3  0  0  0  0  0  0
  -21.2690   -7.3570   24.7680 C   0  0  0  0  0  3  0  0  0  0  0  0
  -21.4590   -5.9620   24.8150 C   0  0  0  0  0  0  0  0  0  0  0  0
  -21.9250   -5.2760   23.6790 C   0  0  0  0  0  3  0  0  0  0  0  0
  -22.2070   -5.9830   22.4970 C   0  0  0  0  0  0  0  0  0  0  0  0
  -22.6400   -5.3160   21.4000 F   0  0  0  0  0  0  0  0  0  0  0  0
  -21.1820   -5.2760   25.9490 F   0  0  0  0  0  0  0  0  0  0  0  0
  -24.0270  -14.5260   21.0410 C   0  0  0  0  0  0  0  0  0  0  0  0
  -23.2860  -13.8950   21.9480 N   0  0  0  0  0  0  0  0  0  0  0  0
  -23.6580  -15.5920   20.5540 O   0  0  0  0  0  0  0  0  0  0  0  0
  -23.5990  -13.0340   22.3680 H   0  0  0  0  0  0  0  0  0  0  0  0
  -22.4000  -14.2850   22.2380 H   0  0  0  0  0  0  0  0  0  0  0  0
  -26.7780  -15.9240   20.1310 N   0  0  0  0  0  0  0  0  0  0  0  0
  -26.1160  -16.6660   20.3360 H   0  0  0  0  0  0  0  0  0  0  0  0
  -27.6870  -16.2690   19.8420 H   0  0  0  0  0  0  0  0  0  0  0  0
  1  3  2  0
  1  6  1  0
  2  5  1  0
  3  4  1  0
  4  5  2  0
  5  7  1  0
  6  9  1  0
  6  2  2  0
  8 12  1  0
  8  9  1  0
  9 11  1  0
 10  8  2  0
 13 14  1  0
 13 12  1  0
 15 26  2  0
 16 14  1  0
 16 21  1  0
 17 25  1  0
 17 27  1  0
 18 24  1  0
 18 20  1  0
 19 25  1  0
 20 19  1  0
 21 20  2  0
 22 23  1  0
 22 16  2  0
 23 18  2  0
 24 17  1  0
 25 15  1  0
 27 29  2  0
 28 27  1  0
 30 28  1  0
 31 40  2  0
 31 36  1  0
 32 28  1  0
 32 36  1  0
 33 32  1  0
 34 35  1  0
 34 33  1  0
 35 31  1  0
 36 37  2  0
 37 38  1  0
 39 38  2  0
 40 39  1  0
 41 15  1  0
 41 42  1  0
 41 51  1  0
 42 45  1  0
 43 47  1  0
 43 42  1  0
 44 43  2  0
 47 46  1  0
 49 47  1  0
 49 50  1  0
 49 48  1  0
 51 54  1  1
 51 52  1  0
 53 51  1  0
 55 56  2  0
 56  3  1  0
 57 58  1  0
 57  4  1  0
 59 58  1  0
 60 65  1  0
 61 62  1  0
 61 60  1  0
 63 62  1  0
 63 70  1  0
 63 64  1  0
 65 59  1  0
 65 64  1  0
 66 59  2  0
 67 68  2  0
 68 87  1  0
 69 68  1  0
 69 72  1  0
 70 71  1  0
 70 67  1  0
 71 69  2  0
 72 73  1  0
 73 74  2  0
 75 78  1  0
 75 74  1  0
 76 75  2  0
 77 76  1  0
 77 72  2  0
 78 79  1  0
 79 84  2  0
 79 80  1  0
 80 81  2  0
 81 82  1  0
 82 86  1  0
 83 82  2  0
 84 83  1  0
 85 84  1  0
 87 88  1  0
 88 91  1  0
 88 90  1  0
 89 87  2  0
 92 67  1  0
 92 93  1  0
 94 92  1  0
M  ISO  4  13 101  14 101  58 100  59 100
M  END
>  <TORSDO>  (63) 
F 21

>  <SCORE>  (63) 
-10.365

>  <name>  (63) 
62

>  <ligand_id>  (63) 
62

>  <original_smiles>  (63) 
[H]C([H])=C([H])c1c([H])c(N([H])C(=O)C([H])([H])C([H])([H])Oc2c([H])c([H])c3c(c2[H])C([H])([H])N(C(=O)C([H])(N([H])C(=O)C([H])(N([H])C([H])([H])[H])C([H])([H])[H])C(C([H])([H])[H])(C([H])([H])[H])C([H])([H])[H])C([H])(C(=O)N([H])C2([H])c4c([H])c([H])c([H])c([H])c4C([H])([H])C([H])([H])C2([H])[H])C3([H])[H])c([H])c(C([H])([H])[H])c1C([H])=C([H])C(=O)N1C([H])([H])C([H])([H])C([H])([H])C([H])(n2nc(-c3c([H])c([H])c(Oc4c([H])c([H])c(F)c([H])c4F)c([H])c3[H])c(C(=O)N([H])[H])c2N([H])[H])C1([H])[H]

>  <smiles>  (63) 
[H]C([H])=C([H])c1c([H])c(N([H])C(=O)C([H])([H])C([H])([H])Oc2c([H])c([H])c3c(c2[H])C([H])([H])N(C(=O)C([H])(N([H])C(=O)C([H])(N([H])C([H])([H])[H])C([H])([H])[H])C(C([H])([H])[H])(C([H])([H])[H])C([H])([H])[H])C([H])(C(=O)N([H])C2([H])c4c([H])c([H])c([H])c([H])c4C([H])([H])C([H])([H])C2([H])[H])C3([H])[H])c([H])c(C([H])([H])[H])c1C([H])=C([H])C(=O)N1C([H])([H])C([H])([H])C([H])([H])C([H])(n2nc(-c3c([H])c([H])c(Oc4c([H])c([H])c(F)c([H])c4F)c([H])c3[H])c(C(=O)N([H])[H])c2N([H])[H])C1([H])[H]

$$$$
63:0:0
     RDKit          3D

 92100  0  0  1  0  0  0  0  0999 V2000
  -29.9340  -18.3560   20.3920 C   0  0  0  0  0  3  0  0  0  0  0  0
  -28.8530  -19.2150   18.3840 C   0  0  0  0  0  3  0  0  0  0  0  0
  -29.0490  -16.8110   18.7370 C   0  0  0  0  0  3  0  0  0  0  0  0
  -29.5210  -19.4820   19.6060 C   0  0  0  0  0  0  0  0  0  0  0  0
  -29.7120  -17.0010   19.9690 C   0  0  0  0  0  0  0  0  0  0  0  0
  -28.6180  -17.8880   17.9440 C   0  0  0  0  0  0  0  0  0  0  0  0
  -30.7440  -14.7440   20.2760 C   0  0  0  0  0  0  0  0  0  0  0  0
  -30.3500  -12.6350   19.0370 C   0  0  0  0  0  2  0  0  0  0  0  0
  -29.3740  -12.8810   17.8700 C   0  0  0  0  0  2  0  0  0  0  0  0
  -27.9130  -12.7480   18.3490 C   0  0  0  0  0  2  0  0  0  0  0  0
  -27.6230  -13.5110   19.6710 C   0  0  0  0  0  3  0  0  0  0  0  0
  -28.7250  -13.2720   20.7230 C   0  0  0  0  0  2  0  0  0  0  0  0
  -30.0130  -13.6010   20.0970 N   0  0  0  0  0  0  0  0  0  0  0  0
  -31.9060  -14.8330   19.8840 O   0  0  0  0  0  0  0  0  0  0  0  0
  -30.1250  -15.8560   20.7590 N   0  0  0  0  0  0  0  0  0  0  0  0
  -30.5800  -16.1440   21.6140 H   0  0  0  0  0  0  0  0  0  0  0  0
  -25.2290  -14.0910   20.3900 C   0  0  0  0  0  0  0  0  0  0  0  0
  -24.1780  -13.3130   20.7820 C   0  0  0  0  0  0  0  0  0  0  0  0
  -24.6610  -11.9670   20.7850 C   0  0  0  0  0  0  0  0  0  0  0  0
  -26.2880  -13.2210   20.1780 N   0  0  0  0  0  0  0  0  0  0  0  0
  -25.9500  -11.9410   20.4710 N   0  0  0  0  0  0  0  0  0  0  0  0
  -23.9550  -10.7000   21.0110 C   0  0  0  0  0  0  0  0  0  0  0  0
  -24.3970   -9.7720   21.9820 C   0  0  0  0  0  3  0  0  0  0  0  0
  -23.6930   -8.5670   22.1940 C   0  0  0  0  0  3  0  0  0  0  0  0
  -22.5330   -8.2820   21.4370 C   0  0  0  0  0  0  0  0  0  0  0  0
  -22.1100   -9.1950   20.4540 C   0  0  0  0  0  3  0  0  0  0  0  0
  -22.8160  -10.3900   20.2410 C   0  0  0  0  0  3  0  0  0  0  0  0
  -21.7980   -7.1260   21.5560 O   0  0  0  0  0  0  0  0  0  0  0  0
  -21.7400   -6.4310   22.7350 C   0  0  0  0  0  0  0  0  0  0  0  0
  -21.2970   -7.0320   23.9320 C   0  0  0  0  0  3  0  0  0  0  0  0
  -21.1870   -6.2630   25.1070 C   0  0  0  0  0  3  0  0  0  0  0  0
  -21.5080   -4.8920   25.0870 C   0  0  0  0  0  0  0  0  0  0  0  0
  -21.9470   -4.2920   23.8940 C   0  0  0  0  0  3  0  0  0  0  0  0
  -22.0600   -5.0580   22.7210 C   0  0  0  0  0  0  0  0  0  0  0  0
  -22.4630   -4.4690   21.5700 F   0  0  0  0  0  0  0  0  0  0  0  0
  -21.3950   -4.1510   26.2150 F   0  0  0  0  0  0  0  0  0  0  0  0
  -22.7710  -13.7720   21.0450 C   0  0  0  0  0  0  0  0  0  0  0  0
  -22.0570  -13.0970   21.9380 N   0  0  0  0  0  0  0  0  0  0  0  0
  -22.3150  -14.7740   20.4930 O   0  0  0  0  0  0  0  0  0  0  0  0
  -22.4420  -12.2930   22.4140 H   0  0  0  0  0  0  0  0  0  0  0  0
  -21.1150  -13.3900   22.1530 H   0  0  0  0  0  0  0  0  0  0  0  0
  -25.3720  -15.4610   20.1800 N   0  0  0  0  0  0  0  0  0  0  0  0
  -24.5990  -16.1070   20.2870 H   0  0  0  0  0  0  0  0  0  0  0  0
  -26.2220  -15.9100   19.8730 H   0  0  0  0  0  0  0  0  0  0  0  0
  -29.8360  -20.9260   19.9570 C   0  0  0  0  0  3  0  0  0  0  0  0
  -28.9650  -21.8800   20.1510 N   0  0  0  0  0  0  0  0  0  0  0  0
  -28.6090  -24.3140   19.8790 C   0  0  0  0  0  3  0  0  0  0  0  0
  -29.3660  -23.2370   20.2580 C   0  0  0  0  0  3  0  0  0  0  0  0
  -29.1130  -25.7750   19.6700 C   0  0  0  0  0  2  0  0  0  0  0  0
  -28.7640  -26.8290   20.6210 O   0  0  0  0  0  0  0  0  0  0  0  0
  -24.6460  -32.0590   23.3570 C   0  0  0  0  0  0  0  0  0  0  0  0
  -27.5910  -27.5750   20.5010 C   0  0  0  0  0  0  0  0  0  0  0  0
  -23.5840  -30.5910   21.6790 C   0  0  0  0  0  3  0  0  0  0  0  0
  -25.1570  -29.0600   20.3700 C   0  0  0  0  0  0  0  0  0  0  0  0
  -26.1140  -30.9920   21.6330 C   0  0  0  0  0  2  0  0  0  0  0  0
  -26.2710  -29.6080   21.0200 C   0  0  0  0  0  0  0  0  0  0  0  0
  -27.4830  -28.8680   21.0890 C   0  0  0  0  0  3  0  0  0  0  0  0
  -26.4490  -27.0540   19.8530 C   0  0  0  0  0  3  0  0  0  0  0  0
  -25.2450  -27.7820   19.7910 C   0  0  0  0  0  3  0  0  0  0  0  0
  -23.8950  -29.8950   20.3280 C   0  0  0  0  0  2  0  0  0  0  0  0
  -24.7970  -31.2340   22.2810 N   0  0  0  0  0  0  0  0  0  0  0  0
  -23.5250  -32.3120   23.8210 O   0  0  0  0  0  0  0  0  0  0  0  0
  -22.9060  -29.5680   22.6220 C   0  0  0  0  0  0  0  0  0  0  0  0
  -21.5970  -29.3390   22.4160 N   0  0  0  0  0  0  0  0  0  0  0  0
  -23.5550  -28.9820   23.4920 O   0  0  0  0  0  0  0  0  0  0  0  0
  -21.1350  -29.8700   21.6910 H   0  0  0  0  0  0  0  0  0  0  0  0
  -18.2340  -28.0500   22.7490 C   0  0  0  0  0  0  0  0  0  0  0  0
  -20.7650  -28.3870   23.1540 C   0  0  0  0  0  3  0  0  0  0  0  0
  -20.9380  -26.9520   22.6040 C   0  0  0  0  0  2  0  0  0  0  0  0
  -19.9020  -26.5860   21.5360 C   0  0  0  0  0  2  0  0  0  0  0  0
  -18.4850  -26.6980   22.1030 C   0  0  0  0  0  2  0  0  0  0  0  0
  -19.3060  -28.8490   23.2280 C   0  0  0  0  0  0  0  0  0  0  0  0
  -19.0210  -30.1140   23.7910 C   0  0  0  0  0  3  0  0  0  0  0  0
  -17.6940  -30.5770   23.8820 C   0  0  0  0  0  3  0  0  0  0  0  0
  -16.6360  -29.7740   23.4170 C   0  0  0  0  0  3  0  0  0  0  0  0
  -16.9080  -28.5120   22.8590 C   0  0  0  0  0  3  0  0  0  0  0  0
  -25.8690  -32.7470   24.0400 C   0  0  0  0  0  3  0  0  0  0  0  0
  -26.3150  -32.0310   25.3760 C   0  0  1  0  0  0  0  0  0  0  0  0
  -25.1520  -31.7670   26.3610 C   0  0  0  0  0  1  0  0  0  0  0  0
  -26.9920  -30.6750   25.0680 C   0  0  0  0  0  1  0  0  0  0  0  0
  -27.3680  -32.8990   26.1060 C   0  0  0  0  0  1  0  0  0  0  0  0
  -25.5010  -34.1450   24.3030 N   0  0  0  0  0  0  0  0  0  0  0  0
  -25.8470  -35.1840   23.5270 C   0  0  0  0  0  0  0  0  0  0  0  0
  -26.5790  -35.0660   22.5420 O   0  0  0  0  0  0  0  0  0  0  0  0
  -24.8600  -34.3070   25.0660 H   0  0  0  0  0  0  0  0  0  0  0  0
  -24.0930  -36.9150   23.0140 C   0  0  0  0  0  1  0  0  0  0  0  0
  -25.2960  -36.5730   23.9080 C   0  0  0  0  0  3  0  0  0  0  0  0
  -27.3590  -37.5470   24.8210 C   0  0  0  0  0  1  0  0  0  0  0  0
  -26.3050  -37.6510   23.8160 N   0  0  0  0  0  0  0  0  0  0  0  0
  -25.8660  -38.5630   23.9040 H   0  0  0  0  0  0  0  0  0  0  0  0
  -27.9130  -18.4820   15.7130 C   0  0  0  0  0  1  0  0  0  0  0  0
  -27.9790  -17.5370   16.7750 O   0  0  0  0  0  0  0  0  0  0  0  0
  2  4  1  0
  3  5  2  0
  4 45  1  0
  4  1  2  0
  5  1  1  0
  5 15  1  0
  6  2  2  0
  6  3  1  0
  7 15  1  0
  8 13  1  0
  9 10  1  0
  9  8  1  0
 11 10  1  0
 11 20  1  0
 11 12  1  0
 13  7  1  0
 13 12  1  0
 14  7  2  0
 15 16  1  0
 17 18  2  0
 18 19  1  0
 18 37  1  0
 19 22  1  0
 20 17  1  0
 20 21  1  0
 21 19  2  0
 22 23  1  0
 23 24  2  0
 25 28  1  0
 25 24  1  0
 26 25  2  0
 27 26  1  0
 27 22  2  0
 28 29  1  0
 29 30  1  0
 30 31  2  0
 32 31  1  0
 32 36  1  0
 33 32  2  0
 34 29  2  0
 34 33  1  0
 35 34  1  0
 37 38  1  0
 38 41  1  0
 38 40  1  0
 39 37  2  0
 42 43  1  0
 42 17  1  0
 44 42  1  0
 45 46  2  0
 46 48  1  0
 47 48  2  0
 49 47  1  0
 49 50  1  0
 51 62  2  0
 52 50  1  0
 52 57  1  0
 53 61  1  0
 53 63  1  0
 54 56  1  0
 55 61  1  0
 56 57  2  0
 56 55  1  0
 58 52  2  0
 59 58  1  0
 59 54  2  0
 60 54  1  0
 60 53  1  0
 61 51  1  0
 63 65  2  0
 64 63  1  0
 66 64  1  0
 67 76  2  0
 67 72  1  0
 68 64  1  0
 68 72  1  0
 69 68  1  0
 70 71  1  0
 70 69  1  0
 71 67  1  0
 72 73  2  0
 73 74  1  0
 75 74  2  0
 76 75  1  0
 77 51  1  0
 77 82  1  0
 77 78  1  0
 78 81  1  1
 78 79  1  0
 80 78  1  0
 82 85  1  0
 83 87  1  0
 83 82  1  0
 84 83  2  0
 87 86  1  0
 89 90  1  0
 89 87  1  0
 89 88  1  0
 91 92  1  0
 92  6  1  0
M  ISO  4   7 100  15 100  49 101  50 101
M  END
>  <TORSDO>  (64) 
F 20

>  <SCORE>  (64) 
-12.014

>  <name>  (64) 
63

>  <ligand_id>  (64) 
63

>  <original_smiles>  (64) 
[H]C(=NC([H])=C([H])C([H])([H])Oc1c([H])c([H])c2c(c1[H])C([H])([H])N(C(=O)C([H])(N([H])C(=O)C([H])(N([H])C([H])([H])[H])C([H])([H])[H])C(C([H])([H])[H])(C([H])([H])[H])C([H])([H])[H])C([H])(C(=O)N([H])C1([H])c3c([H])c([H])c([H])c([H])c3C([H])([H])C([H])([H])C1([H])[H])C2([H])[H])c1c([H])c(OC([H])([H])[H])c([H])c(N([H])C(=O)N2C([H])([H])C([H])([H])C([H])([H])C([H])(n3nc(-c4c([H])c([H])c(Oc5c([H])c([H])c(F)c([H])c5F)c([H])c4[H])c(C(=O)N([H])[H])c3N([H])[H])C2([H])[H])c1[H]

>  <smiles>  (64) 
[H]C(=NC([H])=C([H])C([H])([H])Oc1c([H])c([H])c2c(c1[H])C([H])([H])N(C(=O)C([H])(N([H])C(=O)C([H])(N([H])C([H])([H])[H])C([H])([H])[H])C(C([H])([H])[H])(C([H])([H])[H])C([H])([H])[H])C([H])(C(=O)N([H])C1([H])c3c([H])c([H])c([H])c([H])c3C([H])([H])C([H])([H])C1([H])[H])C2([H])[H])c1c([H])c(OC([H])([H])[H])c([H])c(N([H])C(=O)N2C([H])([H])C([H])([H])C([H])([H])C([H])(n3nc(-c4c([H])c([H])c(Oc5c([H])c([H])c(F)c([H])c5F)c([H])c4[H])c(C(=O)N([H])[H])c3N([H])[H])C2([H])[H])c1[H]

$$$$
64:0:0
     RDKit          3D

 91 99  0  0  1  0  0  0  0  0999 V2000
  -30.0110  -19.4230   20.2550 C   0  0  0  0  0  3  0  0  0  0  0  0
  -29.5970  -18.0440   20.2820 C   0  0  0  0  0  0  0  0  0  0  0  0
  -28.9200  -20.1290   19.8200 C   0  0  0  0  0  0  0  0  0  0  0  0
  -26.5490  -19.4210   19.1610 C   0  0  0  0  0  1  0  0  0  0  0  0
  -28.3070  -17.9380   19.9500 N   0  0  0  0  0  0  0  0  0  0  0  0
  -27.8970  -19.2070   19.6520 N   0  0  0  0  0  0  0  0  0  0  0  0
  -30.9090  -14.5150   20.6160 C   0  0  0  0  0  0  0  0  0  0  0  0
  -30.6860  -12.1760   19.8310 C   0  0  0  0  0  2  0  0  0  0  0  0
  -29.8430  -12.1700   18.5400 C   0  0  0  0  0  2  0  0  0  0  0  0
  -28.3430  -12.0710   18.8830 C   0  0  0  0  0  2  0  0  0  0  0  0
  -27.9070  -13.0860   19.9750 C   0  0  0  0  0  3  0  0  0  0  0  0
  -28.8880  -13.0960   21.1700 C   0  0  0  0  0  2  0  0  0  0  0  0
  -30.2330  -13.3280   20.6350 N   0  0  0  0  0  0  0  0  0  0  0  0
  -32.1120  -14.5370   20.3440 O   0  0  0  0  0  0  0  0  0  0  0  0
  -30.6040  -16.9390   20.6100 C   0  0  0  0  0  0  0  0  0  0  0  0
  -30.1570  -15.6540   20.6710 N   0  0  0  0  0  0  0  0  0  0  0  0
  -31.7870  -17.2680   20.7650 O   0  0  0  0  0  0  0  0  0  0  0  0
  -29.1570  -15.5550   20.6610 H   0  0  0  0  0  0  0  0  0  0  0  0
  -25.5070  -13.7770   20.5710 C   0  0  0  0  0  0  0  0  0  0  0  0
  -24.3980  -13.0450   20.8990 C   0  0  0  0  0  0  0  0  0  0  0  0
  -24.8130  -11.6800   20.9130 C   0  0  0  0  0  0  0  0  0  0  0  0
  -26.5300  -12.8570   20.4020 N   0  0  0  0  0  0  0  0  0  0  0  0
  -26.1160  -11.5920   20.6700 N   0  0  0  0  0  0  0  0  0  0  0  0
  -24.0370  -10.4450   21.0890 C   0  0  0  0  0  0  0  0  0  0  0  0
  -24.4080   -9.4670   22.0380 C   0  0  0  0  0  3  0  0  0  0  0  0
  -23.6340   -8.2990   22.2010 C   0  0  0  0  0  3  0  0  0  0  0  0
  -22.4740   -8.0990   21.4150 C   0  0  0  0  0  0  0  0  0  0  0  0
  -22.1220   -9.0650   20.4550 C   0  0  0  0  0  3  0  0  0  0  0  0
  -22.8970  -10.2260   20.2910 C   0  0  0  0  0  3  0  0  0  0  0  0
  -21.6760   -6.9840   21.4850 O   0  0  0  0  0  0  0  0  0  0  0  0
  -21.5860   -6.2350   22.6300 C   0  0  0  0  0  0  0  0  0  0  0  0
  -21.1350   -6.7870   23.8490 C   0  0  0  0  0  3  0  0  0  0  0  0
  -20.9960   -5.9660   24.9850 C   0  0  0  0  0  3  0  0  0  0  0  0
  -21.2910   -4.5920   24.9030 C   0  0  0  0  0  0  0  0  0  0  0  0
  -21.7330   -4.0380   23.6890 C   0  0  0  0  0  3  0  0  0  0  0  0
  -21.8780   -4.8580   22.5550 C   0  0  0  0  0  0  0  0  0  0  0  0
  -22.2840   -4.3160   21.3820 F   0  0  0  0  0  0  0  0  0  0  0  0
  -21.1480   -3.8010   25.9920 F   0  0  0  0  0  0  0  0  0  0  0  0
  -23.0060  -13.5750   21.0960 C   0  0  0  0  0  0  0  0  0  0  0  0
  -22.2210  -12.9300   21.9520 N   0  0  0  0  0  0  0  0  0  0  0  0
  -22.6240  -14.5950   20.5240 O   0  0  0  0  0  0  0  0  0  0  0  0
  -22.5410  -12.1050   22.4370 H   0  0  0  0  0  0  0  0  0  0  0  0
  -21.2870  -13.2700   22.1280 H   0  0  0  0  0  0  0  0  0  0  0  0
  -25.7230  -15.1390   20.3860 N   0  0  0  0  0  0  0  0  0  0  0  0
  -24.9750  -15.8170   20.4800 H   0  0  0  0  0  0  0  0  0  0  0  0
  -26.6090  -15.5680   20.1470 H   0  0  0  0  0  0  0  0  0  0  0  0
  -28.8430  -21.4360   19.4070 O   0  0  0  0  0  0  0  0  0  0  0  0
  -28.2360  -22.4290   20.2650 C   0  0  0  0  0  2  0  0  0  0  0  0
  -28.5850  -23.8870   19.7700 C   0  0  0  0  0  3  0  0  0  0  0  0
  -28.1360  -25.0930   20.6700 C   0  0  0  0  0  3  0  0  0  0  0  0
  -28.3860  -26.4430   20.1500 O   0  0  0  0  0  0  0  0  0  0  0  0
  -24.5910  -31.6860   23.2100 C   0  0  0  0  0  0  0  0  0  0  0  0
  -27.2780  -27.2730   20.0890 C   0  0  0  0  0  0  0  0  0  0  0  0
  -23.4270  -30.3300   21.5050 C   0  0  0  0  0  3  0  0  0  0  0  0
  -24.9110  -28.8360   20.0580 C   0  0  0  0  0  0  0  0  0  0  0  0
  -25.9600  -30.6840   21.3730 C   0  0  0  0  0  2  0  0  0  0  0  0
  -26.0610  -29.3290   20.6900 C   0  0  0  0  0  0  0  0  0  0  0  0
  -27.2550  -28.5600   20.6930 C   0  0  0  0  0  3  0  0  0  0  0  0
  -26.1180  -26.8160   19.4320 C   0  0  0  0  0  3  0  0  0  0  0  0
  -24.9400  -27.5870   19.4140 C   0  0  0  0  0  3  0  0  0  0  0  0
  -23.6670  -29.6960   20.1090 C   0  0  0  0  0  2  0  0  0  0  0  0
  -24.6780  -30.9120   22.0900 N   0  0  0  0  0  0  0  0  0  0  0  0
  -23.4970  -31.9410   23.7340 O   0  0  0  0  0  0  0  0  0  0  0  0
  -22.7560  -29.2800   22.4210 C   0  0  0  0  0  0  0  0  0  0  0  0
  -21.4320  -29.1060   22.2670 N   0  0  0  0  0  0  0  0  0  0  0  0
  -23.4220  -28.6260   23.2270 O   0  0  0  0  0  0  0  0  0  0  0  0
  -20.9550  -29.6840   21.5870 H   0  0  0  0  0  0  0  0  0  0  0  0
  -18.0440  -27.9210   22.6930 C   0  0  0  0  0  0  0  0  0  0  0  0
  -20.6020  -28.1450   22.9940 C   0  0  0  0  0  3  0  0  0  0  0  0
  -20.6980  -26.7400   22.3580 C   0  0  0  0  0  2  0  0  0  0  0  0
  -19.5990  -26.4660   21.3250 C   0  0  0  0  0  2  0  0  0  0  0  0
  -18.2150  -26.5990   21.9640 C   0  0  0  0  0  2  0  0  0  0  0  0
  -19.1650  -28.6550   23.1620 C   0  0  0  0  0  0  0  0  0  0  0  0
  -18.9540  -29.8960   23.8010 C   0  0  0  0  0  3  0  0  0  0  0  0
  -17.6530  -30.4030   23.9780 C   0  0  0  0  0  3  0  0  0  0  0  0
  -16.5460  -29.6640   23.5280 C   0  0  0  0  0  3  0  0  0  0  0  0
  -16.7420  -28.4260   22.8910 C   0  0  0  0  0  3  0  0  0  0  0  0
  -25.8590  -32.3050   23.8760 C   0  0  0  0  0  3  0  0  0  0  0  0
  -26.3210  -31.5310   25.1710 C   0  0  1  0  0  0  0  0  0  0  0  0
  -25.1880  -31.3110   26.2000 C   0  0  0  0  0  1  0  0  0  0  0  0
  -26.8980  -30.1450   24.8020 C   0  0  0  0  0  1  0  0  0  0  0  0
  -27.4620  -32.3110   25.8650 C   0  0  0  0  0  1  0  0  0  0  0  0
  -25.5580  -33.7090   24.1890 N   0  0  0  0  0  0  0  0  0  0  0  0
  -25.9300  -34.7540   23.4390 C   0  0  0  0  0  0  0  0  0  0  0  0
  -26.6330  -34.6370   22.4320 O   0  0  0  0  0  0  0  0  0  0  0  0
  -24.9390  -33.8760   24.9700 H   0  0  0  0  0  0  0  0  0  0  0  0
  -24.2360  -36.5640   23.0200 C   0  0  0  0  0  1  0  0  0  0  0  0
  -25.4440  -36.1490   23.8750 C   0  0  0  0  0  3  0  0  0  0  0  0
  -27.5570  -37.0170   24.7800 C   0  0  0  0  0  1  0  0  0  0  0  0
  -26.4940  -37.1900   23.7930 N   0  0  0  0  0  0  0  0  0  0  0  0
  -26.0940  -38.1160   23.9170 H   0  0  0  0  0  0  0  0  0  0  0  0
  1  2  1  0
  2 15  1  0
  3  1  2  0
  4  6  1  0
  5  2  2  0
  6  3  1  0
  6  5  1  0
  7 13  1  0
  7 16  1  0
  8 13  1  0
  9 10  1  0
  9  8  1  0
 11 10  1  0
 11 22  1  0
 11 12  1  0
 13 12  1  0
 14  7  2  0
 15 16  1  0
 15 17  2  0
 18 16  1  0
 19 20  2  0
 20 21  1  0
 20 39  1  0
 21 24  1  0
 22 19  1  0
 22 23  1  0
 23 21  2  0
 24 25  1  0
 25 26  2  0
 27 30  1  0
 27 26  1  0
 28 27  2  0
 29 28  1  0
 29 24  2  0
 30 31  1  0
 31 32  1  0
 32 33  2  0
 34 33  1  0
 34 38  1  0
 35 34  2  0
 36 31  2  0
 36 35  1  0
 37 36  1  0
 39 40  1  0
 40 43  1  0
 40 42  1  0
 41 39  2  0
 44 45  1  0
 44 19  1  0
 46 44  1  0
 47  3  1  0
 47 48  1  0
 49 48  1  0
 49 50  2  0
 51 50  1  0
 52 63  2  0
 53 51  1  0
 53 58  1  0
 54 62  1  0
 54 64  1  0
 55 61  1  0
 55 57  1  0
 56 62  1  0
 57 58  2  0
 57 56  1  0
 59 53  2  0
 60 59  1  0
 60 55  2  0
 61 54  1  0
 62 52  1  0
 64 66  2  0
 65 64  1  0
 67 65  1  0
 68 77  2  0
 68 73  1  0
 69 65  1  0
 69 73  1  0
 70 69  1  0
 71 72  1  0
 71 70  1  0
 72 68  1  0
 73 74  2  0
 74 75  1  0
 76 75  2  0
 77 76  1  0
 78 52  1  0
 78 83  1  0
 78 79  1  0
 79 82  1  1
 79 80  1  0
 81 79  1  0
 83 86  1  0
 84 88  1  0
 84 83  1  0
 85 84  2  0
 88 87  1  0
 90 88  1  0
 90 91  1  0
 90 89  1  0
M  ISO  4   7 100  16 100  50 101  51 101
M  END
>  <TORSDO>  (65) 
F 20

>  <SCORE>  (65) 
-13.343

>  <name>  (65) 
64

>  <ligand_id>  (65) 
64

>  <original_smiles>  (65) 
[H]c1c([H])c([H])c2c(c1[H])C([H])([H])C([H])([H])C([H])([H])C2([H])N([H])C(=O)C1([H])N(C(=O)C([H])(N([H])C(=O)C([H])(N([H])C([H])([H])[H])C([H])([H])[H])C(C([H])([H])[H])(C([H])([H])[H])C([H])([H])[H])C([H])([H])c2c([H])c(OC([H])([H])C([H])([H])C([H])([H])Oc3c([H])c(C(=O)N([H])C(=O)N4C([H])([H])C([H])([H])C([H])([H])C([H])(n5nc(-c6c([H])c([H])c(Oc7c([H])c([H])c(F)c([H])c7F)c([H])c6[H])c(C(=O)N([H])[H])c5N([H])[H])C4([H])[H])nn3C([H])([H])[H])c([H])c([H])c2C1([H])[H]

>  <smiles>  (65) 
[H]c1c([H])c([H])c2c(c1[H])C([H])([H])C([H])([H])C([H])([H])C2([H])N([H])C(=O)C1([H])N(C(=O)C([H])(N([H])C(=O)C([H])(N([H])C([H])([H])[H])C([H])([H])[H])C(C([H])([H])[H])(C([H])([H])[H])C([H])([H])[H])C([H])([H])c2c([H])c(OC([H])([H])C([H])([H])C([H])([H])Oc3c([H])c(C(=O)N([H])C(=O)N4C([H])([H])C([H])([H])C([H])([H])C([H])(n5nc(-c6c([H])c([H])c(Oc7c([H])c([H])c(F)c([H])c7F)c([H])c6[H])c(C(=O)N([H])[H])c5N([H])[H])C4([H])[H])nn3C([H])([H])[H])c([H])c([H])c2C1([H])[H]

$$$$
65:0:0
     RDKit          3D

 90 98  0  0  1  0  0  0  0  0999 V2000
  -28.5440  -21.6470   20.0240 C   0  0  0  0  0  2  0  0  0  0  0  0
  -29.7430  -17.8240   20.3950 C   0  0  0  0  0  0  0  0  0  0  0  0
  -30.8840  -18.6820   20.5480 C   0  0  0  0  0  0  0  0  0  0  0  0
  -28.7470  -18.8310   20.2270 C   0  0  0  0  0  0  0  0  0  0  0  0
  -32.3070  -18.2750   20.7920 C   0  0  0  0  0  1  0  0  0  0  0  0
  -27.2920  -18.6000   19.9840 C   0  0  0  0  0  1  0  0  0  0  0  0
  -30.5950  -20.0170   20.4630 N   0  0  0  0  0  0  0  0  0  0  0  0
  -29.2480  -20.2060   20.2830 N   0  0  0  0  0  0  0  0  0  0  0  0
  -30.4520  -15.0990   20.3020 C   0  0  0  0  0  0  0  0  0  0  0  0
  -30.3700  -12.7280   19.3600 C   0  0  0  0  0  2  0  0  0  0  0  0
  -29.4190  -12.6510   18.1410 C   0  0  0  0  0  2  0  0  0  0  0  0
  -27.9650  -12.4200   18.5940 C   0  0  0  0  0  2  0  0  0  0  0  0
  -27.5620  -13.3400   19.7760 C   0  0  0  0  0  3  0  0  0  0  0  0
  -28.6340  -13.3700   20.8860 C   0  0  0  0  0  2  0  0  0  0  0  0
  -29.8850  -13.8180   20.2570 N   0  0  0  0  0  0  0  0  0  0  0  0
  -31.6560  -15.1720   20.0270 O   0  0  0  0  0  0  0  0  0  0  0  0
  -29.6190  -16.2650   20.4380 N   0  0  0  0  0  0  0  0  0  0  0  0
  -28.6650  -15.9670   20.5660 H   0  0  0  0  0  0  0  0  0  0  0  0
  -25.1930  -13.9000   20.5600 C   0  0  0  0  0  0  0  0  0  0  0  0
  -24.1360  -13.1170   20.9330 C   0  0  0  0  0  0  0  0  0  0  0  0
  -24.6040  -11.7680   20.8770 C   0  0  0  0  0  0  0  0  0  0  0  0
  -26.2340  -13.0280   20.2920 N   0  0  0  0  0  0  0  0  0  0  0  0
  -25.8910  -11.7390   20.5500 N   0  0  0  0  0  0  0  0  0  0  0  0
  -23.8810  -10.5020   21.0570 C   0  0  0  0  0  0  0  0  0  0  0  0
  -24.3100   -9.5310   21.9880 C   0  0  0  0  0  3  0  0  0  0  0  0
  -23.5850   -8.3320   22.1570 C   0  0  0  0  0  3  0  0  0  0  0  0
  -22.4160   -8.0950   21.3940 C   0  0  0  0  0  0  0  0  0  0  0  0
  -22.0070   -9.0550   20.4520 C   0  0  0  0  0  3  0  0  0  0  0  0
  -22.7320  -10.2460   20.2820 C   0  0  0  0  0  3  0  0  0  0  0  0
  -21.6630   -6.9490   21.4740 O   0  0  0  0  0  0  0  0  0  0  0  0
  -21.5890   -6.2150   22.6300 C   0  0  0  0  0  0  0  0  0  0  0  0
  -21.0890   -6.7650   23.8310 C   0  0  0  0  0  3  0  0  0  0  0  0
  -20.9630   -5.9560   24.9760 C   0  0  0  0  0  3  0  0  0  0  0  0
  -21.3290   -4.5970   24.9240 C   0  0  0  0  0  0  0  0  0  0  0  0
  -21.8230   -4.0460   23.7280 C   0  0  0  0  0  3  0  0  0  0  0  0
  -21.9490   -4.8520   22.5840 C   0  0  0  0  0  0  0  0  0  0  0  0
  -22.4050   -4.3120   21.4280 F   0  0  0  0  0  0  0  0  0  0  0  0
  -21.2020   -3.8170   26.0230 F   0  0  0  0  0  0  0  0  0  0  0  0
  -22.7420  -13.5890   21.2260 C   0  0  0  0  0  0  0  0  0  0  0  0
  -22.0290  -12.8880   22.1010 N   0  0  0  0  0  0  0  0  0  0  0  0
  -22.2950  -14.6140   20.7140 O   0  0  0  0  0  0  0  0  0  0  0  0
  -22.4050  -12.0590   22.5360 H   0  0  0  0  0  0  0  0  0  0  0  0
  -21.0940  -13.1870   22.3400 H   0  0  0  0  0  0  0  0  0  0  0  0
  -25.3460  -15.2730   20.3960 N   0  0  0  0  0  0  0  0  0  0  0  0
  -24.5650  -15.9080   20.5120 H   0  0  0  0  0  0  0  0  0  0  0  0
  -26.1570  -15.7140   19.9850 H   0  0  0  0  0  0  0  0  0  0  0  0
  -28.9020  -23.2630   20.3660 C   0  0  0  0  0  0  0  0  0  0  0  0
  -29.9690  -23.5070   20.9380 O   0  0  0  0  0  0  0  0  0  0  0  0
  -27.9110  -24.5770   19.9890 C   0  0  0  0  0  2  0  0  0  0  0  0
  -28.2180  -26.1080   20.2770 O   0  0  0  0  0  0  0  0  0  0  0  0
  -24.6190  -31.9040   23.2300 C   0  0  0  0  0  0  0  0  0  0  0  0
  -27.1860  -27.1370   20.2020 C   0  0  0  0  0  0  0  0  0  0  0  0
  -23.4210  -30.5090   21.5910 C   0  0  0  0  0  3  0  0  0  0  0  0
  -24.8680  -28.9260   20.1660 C   0  0  0  0  0  0  0  0  0  0  0  0
  -25.9780  -30.7560   21.4320 C   0  0  0  0  0  2  0  0  0  0  0  0
  -26.0510  -29.3580   20.7800 C   0  0  0  0  0  0  0  0  0  0  0  0
  -27.2090  -28.4810   20.7800 C   0  0  0  0  0  3  0  0  0  0  0  0
  -25.9750  -26.8250   19.5440 C   0  0  0  0  0  3  0  0  0  0  0  0
  -24.8460  -27.6750   19.5320 C   0  0  0  0  0  3  0  0  0  0  0  0
  -23.6440  -29.8320   20.2130 C   0  0  0  0  0  2  0  0  0  0  0  0
  -24.6940  -31.0790   22.1400 N   0  0  0  0  0  0  0  0  0  0  0  0
  -23.5320  -32.1920   23.7550 O   0  0  0  0  0  0  0  0  0  0  0  0
  -22.7360  -29.5060   22.5540 C   0  0  0  0  0  0  0  0  0  0  0  0
  -21.4070  -29.3380   22.4260 N   0  0  0  0  0  0  0  0  0  0  0  0
  -23.4040  -28.8830   23.3820 O   0  0  0  0  0  0  0  0  0  0  0  0
  -20.9230  -29.8910   21.7330 H   0  0  0  0  0  0  0  0  0  0  0  0
  -18.0220  -28.1490   22.9410 C   0  0  0  0  0  0  0  0  0  0  0  0
  -20.5830  -28.4030   23.2000 C   0  0  0  0  0  3  0  0  0  0  0  0
  -20.6770  -26.9710   22.6230 C   0  0  0  0  0  2  0  0  0  0  0  0
  -19.5710  -26.6540   21.6110 C   0  0  0  0  0  2  0  0  0  0  0  0
  -18.1920  -26.8010   22.2610 C   0  0  0  0  0  2  0  0  0  0  0  0
  -19.1450  -28.9080   23.3680 C   0  0  0  0  0  0  0  0  0  0  0  0
  -18.9280  -30.1680   23.9680 C   0  0  0  0  0  3  0  0  0  0  0  0
  -17.6250  -30.6690   24.1420 C   0  0  0  0  0  3  0  0  0  0  0  0
  -16.5180  -29.9080   23.7290 C   0  0  0  0  0  3  0  0  0  0  0  0
  -16.7170  -28.6500   23.1340 C   0  0  0  0  0  3  0  0  0  0  0  0
  -25.8970  -32.5400   23.8580 C   0  0  0  0  0  3  0  0  0  0  0  0
  -26.4040  -31.7720   25.1400 C   0  0  1  0  0  0  0  0  0  0  0  0
  -25.3050  -31.5370   26.2030 C   0  0  0  0  0  1  0  0  0  0  0  0
  -26.9900  -30.3920   24.7590 C   0  0  0  0  0  1  0  0  0  0  0  0
  -27.5520  -32.5660   25.8060 C   0  0  0  0  0  1  0  0  0  0  0  0
  -25.5830  -33.9400   24.1930 N   0  0  0  0  0  0  0  0  0  0  0  0
  -25.8900  -34.9970   23.4290 C   0  0  0  0  0  0  0  0  0  0  0  0
  -26.5320  -34.8970   22.3810 O   0  0  0  0  0  0  0  0  0  0  0  0
  -25.0070  -34.0890   25.0080 H   0  0  0  0  0  0  0  0  0  0  0  0
  -24.1350  -36.7790   23.1410 C   0  0  0  0  0  1  0  0  0  0  0  0
  -25.4110  -36.3840   23.9020 C   0  0  0  0  0  3  0  0  0  0  0  0
  -27.5660  -37.2950   24.6500 C   0  0  0  0  0  1  0  0  0  0  0  0
  -26.4290  -37.4460   23.7450 N   0  0  0  0  0  0  0  0  0  0  0  0
  -26.0200  -38.3630   23.9030 H   0  0  0  0  0  0  0  0  0  0  0  0
  1  8  1  0
  1 47  1  0
  2 17  1  0
  2  3  1  0
  3  5  1  0
  4  8  1  0
  4  2  2  0
  6  4  1  0
  7  3  2  0
  8  7  1  0
  9 17  1  0
 10 15  1  0
 11 12  1  0
 11 10  1  0
 13 12  1  0
 13 22  1  0
 13 14  1  0
 15  9  1  0
 15 14  1  0
 16  9  2  0
 17 18  1  0
 19 20  2  0
 20 39  1  0
 21 20  1  0
 21 24  1  0
 22 23  1  0
 22 19  1  0
 23 21  2  0
 24 25  1  0
 25 26  2  0
 27 30  1  0
 27 26  1  0
 28 27  2  0
 29 28  1  0
 29 24  2  0
 30 31  1  0
 31 32  1  0
 32 33  2  0
 34 33  1  0
 34 38  1  0
 35 34  2  0
 36 31  2  0
 36 35  1  0
 37 36  1  0
 39 40  1  0
 40 43  1  0
 40 42  1  0
 41 39  2  0
 44 45  1  0
 44 19  1  0
 46 44  1  0
 47 48  2  0
 49 50  1  0
 49 47  1  0
 51 62  2  0
 52 50  1  0
 52 57  1  0
 53 61  1  0
 53 63  1  0
 54 60  1  0
 54 56  1  0
 55 61  1  0
 56 55  1  0
 57 56  2  0
 58 52  2  0
 59 58  1  0
 59 54  2  0
 60 53  1  0
 61 51  1  0
 63 65  2  0
 64 63  1  0
 66 64  1  0
 67 76  2  0
 67 72  1  0
 68 64  1  0
 68 72  1  0
 69 68  1  0
 70 71  1  0
 70 69  1  0
 71 67  1  0
 72 73  2  0
 73 74  1  0
 75 74  2  0
 76 75  1  0
 77 51  1  0
 77 82  1  0
 77 78  1  0
 78 81  1  1
 78 79  1  0
 80 78  1  0
 82 85  1  0
 83 87  1  0
 83 82  1  0
 84 83  2  0
 87 86  1  0
 89 87  1  0
 89 90  1  0
 89 88  1  0
M  ISO  4   9 100  17 100  49 101  50 101
M  END
>  <TORSDO>  (66) 
F 19

>  <SCORE>  (66) 
-14.417

>  <name>  (66) 
65

>  <ligand_id>  (66) 
65

>  <original_smiles>  (66) 
[H]c1c([H])c([H])c2c(c1[H])C([H])([H])C([H])([H])C([H])([H])C2([H])N([H])C(=O)C1([H])N(C(=O)C([H])(N([H])C(=O)C([H])(N([H])C([H])([H])[H])C([H])([H])[H])C(C([H])([H])[H])(C([H])([H])[H])C([H])([H])[H])C([H])([H])c2c([H])c(OC([H])([H])C(=O)C([H])([H])n3nc(C([H])([H])[H])c(N([H])C(=O)N4C([H])([H])C([H])([H])C([H])([H])C([H])(n5nc(-c6c([H])c([H])c(Oc7c([H])c([H])c(F)c([H])c7F)c([H])c6[H])c(C(=O)N([H])[H])c5N([H])[H])C4([H])[H])c3C([H])([H])[H])c([H])c([H])c2C1([H])[H]

>  <smiles>  (66) 
[H]c1c([H])c([H])c2c(c1[H])C([H])([H])C([H])([H])C([H])([H])C2([H])N([H])C(=O)C1([H])N(C(=O)C([H])(N([H])C(=O)C([H])(N([H])C([H])([H])[H])C([H])([H])[H])C(C([H])([H])[H])(C([H])([H])[H])C([H])([H])[H])C([H])([H])c2c([H])c(OC([H])([H])C(=O)C([H])([H])n3nc(C([H])([H])[H])c(N([H])C(=O)N4C([H])([H])C([H])([H])C([H])([H])C([H])(n5nc(-c6c([H])c([H])c(Oc7c([H])c([H])c(F)c([H])c7F)c([H])c6[H])c(C(=O)N([H])[H])c5N([H])[H])C4([H])[H])c3C([H])([H])[H])c([H])c([H])c2C1([H])[H]

$$$$
66:0:0
     RDKit          3D

 97105  0  0  1  0  0  0  0  0999 V2000
  -31.3180  -17.8030   19.4980 C   0  0  0  0  0  3  0  0  0  0  0  0
  -30.3000  -19.5480   21.4210 C   0  0  0  0  0  3  0  0  0  0  0  0
  -31.0380  -17.2290   20.7700 C   0  0  0  0  0  0  0  0  0  0  0  0
  -30.4760  -18.1570   21.7260 C   0  0  0  0  0  0  0  0  0  0  0  0
  -31.1180  -19.1850   19.2060 C   0  0  0  0  0  0  0  0  0  0  0  0
  -30.6270  -20.1090   20.1650 C   0  0  0  0  0  0  0  0  0  0  0  0
  -31.4310  -19.6610   17.9350 N   0  0  0  0  0  0  0  0  0  0  0  0
  -31.4080  -19.0080   17.1570 H   0  0  0  0  0  0  0  0  0  0  0  0
  -31.0340  -20.5660   17.6940 H   0  0  0  0  0  0  0  0  0  0  0  0
  -31.4300  -15.7620   21.1330 C   0  0  0  0  0  0  0  0  0  0  0  0
  -31.5310  -15.4250   22.3530 N   0  0  0  0  0  0  0  0  0  0  0  0
  -31.3000  -16.2020   22.9590 H   0  0  0  0  0  0  0  0  0  0  0  0
  -31.8070  -14.6900   20.0470 C   0  0  0  0  0  0  0  0  0  0  0  0
  -31.2450  -12.6390   18.7490 C   0  0  0  0  0  2  0  0  0  0  0  0
  -30.2700  -12.9990   17.6070 C   0  0  0  0  0  2  0  0  0  0  0  0
  -28.8110  -12.9340   18.0990 C   0  0  0  0  0  2  0  0  0  0  0  0
  -28.6080  -13.6920   19.4370 C   0  0  0  0  0  3  0  0  0  0  0  0
  -29.6890  -13.3040   20.4680 C   0  0  0  0  0  2  0  0  0  0  0  0
  -31.0110  -13.5760   19.8720 N   0  0  0  0  0  0  0  0  0  0  0  0
  -32.8580  -14.8220   19.4100 O   0  0  0  0  0  0  0  0  0  0  0  0
  -26.2990  -14.4450   20.2740 C   0  0  0  0  0  0  0  0  0  0  0  0
  -25.1930  -13.7420   20.6720 C   0  0  0  0  0  0  0  0  0  0  0  0
  -25.5510  -12.3620   20.5860 C   0  0  0  0  0  0  0  0  0  0  0  0
  -27.2620  -13.4970   19.9690 N   0  0  0  0  0  0  0  0  0  0  0  0
  -26.8190  -12.2370   20.2150 N   0  0  0  0  0  0  0  0  0  0  0  0
  -24.7400  -11.1520   20.7790 C   0  0  0  0  0  0  0  0  0  0  0  0
  -25.1150  -10.1500   21.7010 C   0  0  0  0  0  3  0  0  0  0  0  0
  -24.3090   -9.0040   21.8790 C   0  0  0  0  0  3  0  0  0  0  0  0
  -23.1140   -8.8540   21.1370 C   0  0  0  0  0  0  0  0  0  0  0  0
  -22.7570   -9.8440   20.2030 C   0  0  0  0  0  3  0  0  0  0  0  0
  -23.5640  -10.9800   20.0220 C   0  0  0  0  0  3  0  0  0  0  0  0
  -22.2820   -7.7640   21.2270 O   0  0  0  0  0  0  0  0  0  0  0  0
  -22.1470   -7.0550   22.3930 C   0  0  0  0  0  0  0  0  0  0  0  0
  -21.7180   -7.6660   23.5910 C   0  0  0  0  0  3  0  0  0  0  0  0
  -21.5270   -6.8870   24.7500 C   0  0  0  0  0  3  0  0  0  0  0  0
  -21.7560   -5.4990   24.7100 C   0  0  0  0  0  0  0  0  0  0  0  0
  -22.1780   -4.8880   23.5170 C   0  0  0  0  0  3  0  0  0  0  0  0
  -22.3700   -5.6630   22.3610 C   0  0  0  0  0  0  0  0  0  0  0  0
  -22.7570   -5.0670   21.2080 F   0  0  0  0  0  0  0  0  0  0  0  0
  -21.5640   -4.7480   25.8210 F   0  0  0  0  0  0  0  0  0  0  0  0
  -23.8500  -14.3130   21.0220 C   0  0  0  0  0  0  0  0  0  0  0  0
  -23.1170  -13.6550   21.9140 N   0  0  0  0  0  0  0  0  0  0  0  0
  -23.4610  -15.3760   20.5400 O   0  0  0  0  0  0  0  0  0  0  0  0
  -23.4450  -12.7910   22.3230 H   0  0  0  0  0  0  0  0  0  0  0  0
  -22.2190  -14.0190   22.1950 H   0  0  0  0  0  0  0  0  0  0  0  0
  -26.5610  -15.8040   20.1250 N   0  0  0  0  0  0  0  0  0  0  0  0
  -25.8540  -16.5130   20.2820 H   0  0  0  0  0  0  0  0  0  0  0  0
  -27.4270  -16.1820   19.7650 H   0  0  0  0  0  0  0  0  0  0  0  0
  -30.0980  -17.7330   23.0900 C   0  0  0  0  0  3  0  0  0  0  0  0
  -30.5090  -18.3260   24.2260 C   0  0  0  0  0  3  0  0  0  0  0  0
  -30.1050  -17.8900   25.6160 C   0  0  0  0  0  1  0  0  0  0  0  0
  -30.4970  -21.4740   19.8140 O   0  0  0  0  0  0  0  0  0  0  0  0
  -29.8080  -22.4460   20.6680 C   0  0  0  0  0  2  0  0  0  0  0  0
  -29.9550  -23.9560   20.2000 C   0  0  0  0  0  0  0  0  0  0  0  0
  -30.8670  -24.2930   19.4360 O   0  0  0  0  0  0  0  0  0  0  0  0
  -28.9220  -25.0250   20.7290 C   0  0  0  0  0  2  0  0  0  0  0  0
  -29.1420  -26.4480   20.3470 O   0  0  0  0  0  0  0  0  0  0  0  0
  -25.1310  -31.6660   23.3320 C   0  0  0  0  0  0  0  0  0  0  0  0
  -27.9910  -27.2500   20.3020 C   0  0  0  0  0  0  0  0  0  0  0  0
  -24.0100  -30.2090   21.6870 C   0  0  0  0  0  3  0  0  0  0  0  0
  -25.5490  -28.7370   20.2720 C   0  0  0  0  0  0  0  0  0  0  0  0
  -26.5320  -30.6580   21.5190 C   0  0  0  0  0  2  0  0  0  0  0  0
  -26.6880  -29.2870   20.8730 C   0  0  0  0  0  0  0  0  0  0  0  0
  -27.9140  -28.5550   20.8780 C   0  0  0  0  0  3  0  0  0  0  0  0
  -26.8300  -26.7600   19.6660 C   0  0  0  0  0  3  0  0  0  0  0  0
  -25.6190  -27.4770   19.6610 C   0  0  0  0  0  3  0  0  0  0  0  0
  -24.2680  -29.5450   20.3100 C   0  0  0  0  0  2  0  0  0  0  0  0
  -25.2410  -30.8610   22.2350 N   0  0  0  0  0  0  0  0  0  0  0  0
  -24.0320  -31.8910   23.8590 O   0  0  0  0  0  0  0  0  0  0  0  0
  -23.3930  -29.1590   22.6430 C   0  0  0  0  0  0  0  0  0  0  0  0
  -22.0930  -28.8690   22.4630 N   0  0  0  0  0  0  0  0  0  0  0  0
  -24.0860  -28.6080   23.5030 O   0  0  0  0  0  0  0  0  0  0  0  0
  -21.5920  -29.3700   21.7430 H   0  0  0  0  0  0  0  0  0  0  0  0
  -18.8210  -27.3600   22.8080 C   0  0  0  0  0  0  0  0  0  0  0  0
  -21.3190  -27.8840   23.2220 C   0  0  0  0  0  3  0  0  0  0  0  0
  -21.5960  -26.4480   22.7170 C   0  0  0  0  0  2  0  0  0  0  0  0
  -20.6000  -25.9800   21.6520 C   0  0  0  0  0  2  0  0  0  0  0  0
  -19.1710  -26.0110   22.2030 C   0  0  0  0  0  2  0  0  0  0  0  0
  -19.8300  -28.2460   23.2700 C   0  0  0  0  0  0  0  0  0  0  0  0
  -19.4530  -29.5040   23.7900 C   0  0  0  0  0  3  0  0  0  0  0  0
  -18.0980  -29.8800   23.8520 C   0  0  0  0  0  3  0  0  0  0  0  0
  -17.1010  -28.9930   23.4070 C   0  0  0  0  0  3  0  0  0  0  0  0
  -17.4630  -27.7350   22.8930 C   0  0  0  0  0  3  0  0  0  0  0  0
  -26.3770  -32.3630   23.9620 C   0  0  0  0  0  3  0  0  0  0  0  0
  -25.9980  -33.7480   24.2770 N   0  0  0  0  0  0  0  0  0  0  0  0
  -26.2910  -34.8080   23.5130 C   0  0  0  0  0  0  0  0  0  0  0  0
  -26.9800  -34.7290   22.4910 O   0  0  0  0  0  0  0  0  0  0  0  0
  -25.3870  -33.8800   25.0690 H   0  0  0  0  0  0  0  0  0  0  0  0
  -24.4810  -36.5130   23.1300 C   0  0  0  0  0  1  0  0  0  0  0  0
  -25.7350  -36.1760   23.9520 C   0  0  0  0  0  3  0  0  0  0  0  0
  -27.8190  -37.1720   24.7850 C   0  0  0  0  0  1  0  0  0  0  0  0
  -26.7170  -37.2760   23.8320 N   0  0  0  0  0  0  0  0  0  0  0  0
  -26.2650  -38.1760   23.9680 H   0  0  0  0  0  0  0  0  0  0  0  0
  -26.9140  -31.6260   25.2500 C   0  0  1  0  0  0  0  0  0  0  0  0
  -25.8210  -31.3360   26.3070 C   0  0  0  0  0  1  0  0  0  0  0  0
  -27.5760  -30.2790   24.8770 C   0  0  0  0  0  1  0  0  0  0  0  0
  -28.0170  -32.4820   25.9170 C   0  0  0  0  0  1  0  0  0  0  0  0
  1  3  1  0
  2  4  1  0
  3 10  1  0
  3  4  2  0
  4 49  1  0
  5  1  2  0
  5  6  1  0
  6  2  2  0
  7  5  1  0
  8  7  1  0
  9  7  1  0
 10 11  2  0
 11 12  1  0
 13 10  1  0
 14 19  1  0
 15 16  1  0
 15 14  1  0
 17 16  1  0
 17 24  1  0
 17 18  1  0
 19 13  1  0
 19 18  1  0
 20 13  2  0
 21 22  2  0
 22 41  1  0
 23 22  1  0
 23 26  1  0
 24 25  1  0
 24 21  1  0
 25 23  2  0
 26 27  1  0
 27 28  2  0
 29 32  1  0
 29 28  1  0
 30 29  2  0
 31 30  1  0
 31 26  2  0
 32 33  1  0
 33 34  1  0
 34 35  2  0
 36 35  1  0
 36 40  1  0
 37 36  2  0
 38 33  2  0
 38 37  1  0
 39 38  1  0
 41 42  1  0
 42 45  1  0
 42 44  1  0
 43 41  2  0
 46 21  1  0
 46 47  1  0
 48 46  1  0
 49 50  2  0
 50 51  1  0
 52  6  1  0
 52 53  1  0
 54 53  1  0
 54 56  1  0
 55 54  2  0
 57 56  1  0
 58 69  2  0
 59 57  1  0
 59 64  1  0
 60 68  1  0
 60 70  1  0
 61 67  1  0
 61 63  1  0
 62 68  1  0
 63 64  2  0
 63 62  1  0
 65 59  2  0
 66 65  1  0
 66 61  2  0
 67 60  1  0
 68 58  1  0
 70 72  2  0
 71 70  1  0
 73 71  1  0
 74 83  2  0
 74 79  1  0
 75 71  1  0
 75 79  1  0
 76 75  1  0
 77 78  1  0
 77 76  1  0
 78 74  1  0
 79 80  2  0
 80 81  1  0
 82 81  2  0
 83 82  1  0
 84 58  1  0
 84 85  1  0
 84 94  1  0
 85 88  1  0
 86 90  1  0
 86 85  1  0
 87 86  2  0
 90 89  1  0
 92 90  1  0
 92 93  1  0
 92 91  1  0
 94 97  1  1
 94 95  1  0
 96 94  1  0
M  ISO  4  10 100  13 100  56 101  57 101
M  END
>  <TORSDO>  (67) 
F 23

>  <SCORE>  (67) 
-6.364

>  <name>  (67) 
66

>  <ligand_id>  (67) 
66

>  <original_smiles>  (67) 
[H]N=C(C(=O)N1C([H])([H])C([H])([H])C([H])([H])C([H])(n2nc(-c3c([H])c([H])c(Oc4c([H])c([H])c(F)c([H])c4F)c([H])c3[H])c(C(=O)N([H])[H])c2N([H])[H])C1([H])[H])c1c([H])c(N([H])[H])c(OC([H])([H])C(=O)C([H])([H])Oc2c([H])c([H])c3c(c2[H])C([H])([H])N(C(=O)C([H])(N([H])C(=O)C([H])(N([H])C([H])([H])[H])C([H])([H])[H])C(C([H])([H])[H])(C([H])([H])[H])C([H])([H])[H])C([H])(C(=O)N([H])C2([H])c4c([H])c([H])c([H])c([H])c4C([H])([H])C([H])([H])C2([H])[H])C3([H])[H])c([H])c1C([H])=C([H])C([H])([H])[H]

>  <smiles>  (67) 
[H]N=C(C(=O)N1C([H])([H])C([H])([H])C([H])([H])C([H])(n2nc(-c3c([H])c([H])c(Oc4c([H])c([H])c(F)c([H])c4F)c([H])c3[H])c(C(=O)N([H])[H])c2N([H])[H])C1([H])[H])c1c([H])c(N([H])[H])c(OC([H])([H])C(=O)C([H])([H])Oc2c([H])c([H])c3c(c2[H])C([H])([H])N(C(=O)C([H])(N([H])C(=O)C([H])(N([H])C([H])([H])[H])C([H])([H])[H])C(C([H])([H])[H])(C([H])([H])[H])C([H])([H])[H])C([H])(C(=O)N([H])C2([H])c4c([H])c([H])c([H])c([H])c4C([H])([H])C([H])([H])C2([H])[H])C3([H])[H])c([H])c1C([H])=C([H])C([H])([H])[H]

$$$$
67:0:0
     RDKit          3D

101109  0  0  1  0  0  0  0  0999 V2000
  -30.3660  -20.2750   20.7660 C   0  0  0  0  0  3  0  0  0  0  0  0
  -28.8140  -20.2800   18.9010 C   0  0  0  0  0  3  0  0  0  0  0  0
  -30.5530  -18.8810   20.6260 C   0  0  0  0  0  0  0  0  0  0  0  0
  -29.8890  -18.1830   19.5770 C   0  0  0  0  0  0  0  0  0  0  0  0
  -29.5260  -20.9930   19.8870 C   0  0  0  0  0  0  0  0  0  0  0  0
  -28.9760  -18.8800   18.7400 C   0  0  0  0  0  0  0  0  0  0  0  0
  -30.7960  -14.6050   19.9620 C   0  0  0  0  0  0  0  0  0  0  0  0
  -30.3830  -12.4560   18.9030 C   0  0  0  0  0  2  0  0  0  0  0  0
  -29.4120  -12.7110   17.7320 C   0  0  0  0  0  2  0  0  0  0  0  0
  -27.9570  -12.5760   18.2170 C   0  0  0  0  0  2  0  0  0  0  0  0
  -27.6720  -13.3960   19.5050 C   0  0  0  0  0  3  0  0  0  0  0  0
  -28.7770  -13.2120   20.5730 C   0  0  0  0  0  2  0  0  0  0  0  0
  -30.0780  -13.4540   19.9380 N   0  0  0  0  0  0  0  0  0  0  0  0
  -31.9900  -14.6300   19.6570 O   0  0  0  0  0  0  0  0  0  0  0  0
  -30.3340  -16.7950   19.1870 C   0  0  0  0  0  0  0  0  0  0  0  0
  -30.0800  -15.7480   20.0090 N   0  0  0  0  0  0  0  0  0  0  0  0
  -30.9350  -16.6880   18.1080 O   0  0  0  0  0  0  0  0  0  0  0  0
  -29.2850  -15.8040   20.6220 H   0  0  0  0  0  0  0  0  0  0  0  0
  -25.2870  -13.9650   20.2800 C   0  0  0  0  0  0  0  0  0  0  0  0
  -24.2470  -13.1770   20.6930 C   0  0  0  0  0  0  0  0  0  0  0  0
  -24.7360  -11.8350   20.6780 C   0  0  0  0  0  0  0  0  0  0  0  0
  -26.3440  -13.1010   20.0370 N   0  0  0  0  0  0  0  0  0  0  0  0
  -26.0180  -11.8170   20.3360 N   0  0  0  0  0  0  0  0  0  0  0  0
  -24.0410  -10.5620   20.9120 C   0  0  0  0  0  0  0  0  0  0  0  0
  -24.4830   -9.6480   21.8940 C   0  0  0  0  0  3  0  0  0  0  0  0
  -23.7870   -8.4410   22.1110 C   0  0  0  0  0  3  0  0  0  0  0  0
  -22.6350   -8.1360   21.3490 C   0  0  0  0  0  0  0  0  0  0  0  0
  -22.2140   -9.0380   20.3560 C   0  0  0  0  0  3  0  0  0  0  0  0
  -22.9100  -10.2370   20.1370 C   0  0  0  0  0  3  0  0  0  0  0  0
  -21.9110   -6.9750   21.4730 O   0  0  0  0  0  0  0  0  0  0  0  0
  -21.8200   -6.3060   22.6670 C   0  0  0  0  0  0  0  0  0  0  0  0
  -21.3080   -6.9230   23.8300 C   0  0  0  0  0  3  0  0  0  0  0  0
  -21.1710   -6.1810   25.0190 C   0  0  0  0  0  3  0  0  0  0  0  0
  -21.5360   -4.8210   25.0470 C   0  0  0  0  0  0  0  0  0  0  0  0
  -22.0410   -4.2040   23.8890 C   0  0  0  0  0  3  0  0  0  0  0  0
  -22.1800   -4.9440   22.7030 C   0  0  0  0  0  0  0  0  0  0  0  0
  -22.6490   -4.3400   21.5840 F   0  0  0  0  0  0  0  0  0  0  0  0
  -21.3960   -4.1050   26.1860 F   0  0  0  0  0  0  0  0  0  0  0  0
  -22.8490  -13.6330   20.9960 C   0  0  0  0  0  0  0  0  0  0  0  0
  -22.1590  -12.9350   21.8920 N   0  0  0  0  0  0  0  0  0  0  0  0
  -22.3760  -14.6400   20.4700 O   0  0  0  0  0  0  0  0  0  0  0  0
  -22.5550  -12.1200   22.3340 H   0  0  0  0  0  0  0  0  0  0  0  0
  -21.2230  -13.2240   22.1390 H   0  0  0  0  0  0  0  0  0  0  0  0
  -25.4190  -15.3340   20.0680 N   0  0  0  0  0  0  0  0  0  0  0  0
  -24.6410  -15.9740   20.1910 H   0  0  0  0  0  0  0  0  0  0  0  0
  -26.2490  -15.7840   19.7040 H   0  0  0  0  0  0  0  0  0  0  0  0
  -31.5230  -18.2370   21.5380 C   0  0  0  0  0  0  0  0  0  0  0  0
  -31.2390  -18.0700   22.8560 C   0  0  0  0  0  0  0  0  0  0  0  0
  -32.8260  -17.8320   20.8560 C   0  0  0  0  0  1  0  0  0  0  0  0
  -32.1840  -17.4510   23.8820 C   0  0  0  0  0  1  0  0  0  0  0  0
  -30.0790  -19.6380   24.4960 C   0  0  0  0  0  1  0  0  0  0  0  0
  -29.9110  -18.5060   23.4740 C   0  0  0  0  0  2  0  0  0  0  0  0
  -29.7200  -23.3110   20.8330 C   0  0  0  0  0  0  0  0  0  0  0  0
  -29.4320  -22.4170   19.8690 N   0  0  0  0  0  0  0  0  0  0  0  0
  -29.9250  -23.0090   22.0120 O   0  0  0  0  0  0  0  0  0  0  0  0
  -29.1440  -22.8190   18.9870 H   0  0  0  0  0  0  0  0  0  0  0  0
  -29.7780  -24.7890   20.4140 C   0  0  0  0  0  2  0  0  0  0  0  0
  -28.3890  -25.4230   20.2050 C   0  0  0  0  0  2  0  0  0  0  0  0
  -28.4830  -26.8540   20.1170 O   0  0  0  0  0  0  0  0  0  0  0  0
  -24.6880  -32.0040   23.2310 C   0  0  0  0  0  0  0  0  0  0  0  0
  -27.3000  -27.5650   20.1170 C   0  0  0  0  0  0  0  0  0  0  0  0
  -23.4580  -30.6010   21.6010 C   0  0  0  0  0  3  0  0  0  0  0  0
  -24.8970  -29.0620   20.1600 C   0  0  0  0  0  0  0  0  0  0  0  0
  -25.9790  -30.9630   21.3700 C   0  0  0  0  0  2  0  0  0  0  0  0
  -26.0600  -29.5910   20.7320 C   0  0  0  0  0  0  0  0  0  0  0  0
  -27.2640  -28.8520   20.7020 C   0  0  0  0  0  3  0  0  0  0  0  0
  -26.1140  -27.0480   19.5400 C   0  0  0  0  0  3  0  0  0  0  0  0
  -24.9200  -27.7900   19.5630 C   0  0  0  0  0  3  0  0  0  0  0  0
  -23.6480  -29.9130   20.2250 C   0  0  0  0  0  2  0  0  0  0  0  0
  -24.7280  -31.2040   22.1260 N   0  0  0  0  0  0  0  0  0  0  0  0
  -23.6140  -32.2780   23.7830 O   0  0  0  0  0  0  0  0  0  0  0  0
  -22.8150  -29.5830   22.5690 C   0  0  0  0  0  0  0  0  0  0  0  0
  -21.4970  -29.3740   22.4230 N   0  0  0  0  0  0  0  0  0  0  0  0
  -23.4980  -28.9830   23.4030 O   0  0  0  0  0  0  0  0  0  0  0  0
  -21.0070  -29.9050   21.7170 H   0  0  0  0  0  0  0  0  0  0  0  0
  -18.1480  -28.0840   22.8500 C   0  0  0  0  0  0  0  0  0  0  0  0
  -20.6870  -28.4300   23.1920 C   0  0  0  0  0  3  0  0  0  0  0  0
  -20.8510  -26.9890   22.6550 C   0  0  0  0  0  2  0  0  0  0  0  0
  -19.7920  -26.6080   21.6150 C   0  0  0  0  0  2  0  0  0  0  0  0
  -18.3880  -26.7250   22.2150 C   0  0  0  0  0  2  0  0  0  0  0  0
  -19.2290  -28.8920   23.2930 C   0  0  0  0  0  0  0  0  0  0  0  0
  -18.9530  -30.1630   23.8420 C   0  0  0  0  0  3  0  0  0  0  0  0
  -17.6300  -30.6280   23.9560 C   0  0  0  0  0  3  0  0  0  0  0  0
  -16.5630  -29.8150   23.5370 C   0  0  0  0  0  3  0  0  0  0  0  0
  -16.8210  -28.5480   22.9860 C   0  0  0  0  0  3  0  0  0  0  0  0
  -25.9830  -32.6300   23.8380 C   0  0  0  0  0  3  0  0  0  0  0  0
  -25.6760  -34.0230   24.1960 N   0  0  0  0  0  0  0  0  0  0  0  0
  -25.9980  -35.0870   23.4480 C   0  0  0  0  0  0  0  0  0  0  0  0
  -26.6600  -35.0030   22.4090 O   0  0  0  0  0  0  0  0  0  0  0  0
  -25.0900  -34.1690   25.0040 H   0  0  0  0  0  0  0  0  0  0  0  0
  -24.2670  -36.8860   23.1290 C   0  0  0  0  0  1  0  0  0  0  0  0
  -25.5080  -36.4640   23.9310 C   0  0  0  0  0  3  0  0  0  0  0  0
  -27.6410  -37.3330   24.7790 C   0  0  0  0  0  1  0  0  0  0  0  0
  -26.5380  -37.5210   23.8410 N   0  0  0  0  0  0  0  0  0  0  0  0
  -26.1270  -38.4350   24.0140 H   0  0  0  0  0  0  0  0  0  0  0  0
  -26.5330  -31.8380   25.0890 C   0  0  1  0  0  0  0  0  0  0  0  0
  -25.4570  -31.5460   26.1610 C   0  0  0  0  0  1  0  0  0  0  0  0
  -27.1400  -30.4820   24.6580 C   0  0  0  0  0  1  0  0  0  0  0  0
  -27.6770  -32.6390   25.7590 C   0  0  0  0  0  1  0  0  0  0  0  0
  -27.5170  -18.8550   16.8110 C   0  0  0  0  0  1  0  0  0  0  0  0
  -28.3040  -18.1570   17.7700 O   0  0  0  0  0  0  0  0  0  0  0  0
  2  5  1  0
  3  1  1  0
  3 47  1  0
  4  3  2  0
  5  1  2  0
  6  2  2  0
  6  4  1  0
  7 16  1  0
  8 13  1  0
  9 10  1  0
  9  8  1  0
 11 10  1  0
 11 22  1  0
 11 12  1  0
 13  7  1  0
 13 12  1  0
 14  7  2  0
 15  4  1  0
 15 16  1  0
 16 18  1  0
 17 15  2  0
 19 20  2  0
 20 39  1  0
 21 20  1  0
 21 24  1  0
 22 19  1  0
 22 23  1  0
 23 21  2  0
 24 25  1  0
 25 26  2  0
 27 30  1  0
 27 26  1  0
 28 27  2  0
 29 28  1  0
 29 24  2  0
 30 31  1  0
 31 36  2  0
 31 32  1  0
 32 33  2  0
 33 34  1  0
 34 38  1  0
 35 34  2  0
 36 35  1  0
 37 36  1  0
 39 40  1  0
 40 43  1  0
 40 42  1  0
 41 39  2  0
 44 45  1  0
 44 19  1  0
 46 44  1  0
 47 48  2  0
 48 52  1  0
 48 50  1  0
 49 47  1  0
 52 51  1  0
 53 55  2  0
 54  5  1  0
 54 53  1  0
 56 54  1  0
 57 53  1  0
 58 57  1  0
 59 58  1  0
 60 71  2  0
 61 59  1  0
 61 66  1  0
 62 70  1  0
 62 72  1  0
 63 69  1  0
 63 65  1  0
 64 70  1  0
 65 64  1  0
 66 65  2  0
 67 68  1  0
 67 61  2  0
 68 63  2  0
 69 62  1  0
 70 60  1  0
 72 74  2  0
 73 72  1  0
 75 73  1  0
 76 85  2  0
 76 81  1  0
 77 73  1  0
 77 81  1  0
 78 77  1  0
 79 80  1  0
 79 78  1  0
 80 76  1  0
 81 82  2  0
 82 83  1  0
 84 83  2  0
 85 84  1  0
 86 60  1  0
 86 87  1  0
 86 96  1  0
 87 90  1  0
 88 92  1  0
 88 87  1  0
 89 88  2  0
 92 91  1  0
 94 92  1  0
 94 95  1  0
 94 93  1  0
 96 99  1  1
 96 97  1  0
 98 96  1  0
100101  1  0
101  6  1  0
M  ISO  4   7 100  16 100  58 101  59 101
M  END
>  <TORSDO>  (68) 
F 22

>  <SCORE>  (68) 
-6.893

>  <name>  (68) 
67

>  <ligand_id>  (68) 
67

>  <original_smiles>  (68) 
[H]c1c([H])c([H])c2c(c1[H])C([H])([H])C([H])([H])C([H])([H])C2([H])N([H])C(=O)C1([H])N(C(=O)C([H])(N([H])C(=O)C([H])(N([H])C([H])([H])[H])C([H])([H])[H])C(C([H])([H])[H])(C([H])([H])[H])C([H])([H])[H])C([H])([H])c2c([H])c(OC([H])([H])C([H])([H])C(=O)N([H])c3c([H])c(OC([H])([H])[H])c(C(=O)N([H])C(=O)N4C([H])([H])C([H])([H])C([H])([H])C([H])(n5nc(-c6c([H])c([H])c(Oc7c([H])c([H])c(F)c([H])c7F)c([H])c6[H])c(C(=O)N([H])[H])c5N([H])[H])C4([H])[H])c(C(=C(C([H])([H])[H])C([H])([H])C([H])([H])[H])C([H])([H])[H])c3[H])c([H])c([H])c2C1([H])[H]

>  <smiles>  (68) 
[H]c1c([H])c([H])c2c(c1[H])C([H])([H])C([H])([H])C([H])([H])C2([H])N([H])C(=O)C1([H])N(C(=O)C([H])(N([H])C(=O)C([H])(N([H])C([H])([H])[H])C([H])([H])[H])C(C([H])([H])[H])(C([H])([H])[H])C([H])([H])[H])C([H])([H])c2c([H])c(OC([H])([H])C([H])([H])C(=O)N([H])c3c([H])c(OC([H])([H])[H])c(C(=O)N([H])C(=O)N4C([H])([H])C([H])([H])C([H])([H])C([H])(n5nc(-c6c([H])c([H])c(Oc7c([H])c([H])c(F)c([H])c7F)c([H])c6[H])c(C(=O)N([H])[H])c5N([H])[H])C4([H])[H])c(C(=C(C([H])([H])[H])C([H])([H])C([H])([H])[H])C([H])([H])[H])c3[H])c([H])c([H])c2C1([H])[H]

$$$$
68:0:0
     RDKit          3D

 95103  0  0  1  0  0  0  0  0999 V2000
  -28.1380  -17.0730   20.6860 C   0  0  0  0  0  3  0  0  0  0  0  0
  -27.7710  -18.2830   18.6390 C   0  0  0  0  0  3  0  0  0  0  0  0
  -29.4240  -16.6970   20.2500 C   0  0  0  0  0  0  0  0  0  0  0  0
  -27.2720  -17.7510   19.8310 C   0  0  0  0  0  0  0  0  0  0  0  0
  -29.8010  -16.8910   18.8760 C   0  0  0  0  0  0  0  0  0  0  0  0
  -29.1170  -18.1250   18.2130 C   0  0  0  0  0  0  0  0  0  0  0  0
  -31.2160  -14.4100   18.7200 C   0  0  0  0  0  0  0  0  0  0  0  0
  -31.0870  -11.8590   18.5580 C   0  0  0  0  0  2  0  0  0  0  0  0
  -30.0540  -11.3480   17.5270 C   0  0  0  0  0  2  0  0  0  0  0  0
  -28.6680  -11.2170   18.1810 C   0  0  0  0  0  2  0  0  0  0  0  0
  -28.3100  -12.4520   19.0440 C   0  0  0  0  0  3  0  0  0  0  0  0
  -29.4650  -12.9040   19.9560 C   0  0  0  0  0  2  0  0  0  0  0  0
  -30.6100  -13.1860   19.0810 N   0  0  0  0  0  0  0  0  0  0  0  0
  -32.4080  -14.2940   18.4130 O   0  0  0  0  0  0  0  0  0  0  0  0
  -30.5640  -15.6530   18.3000 N   0  0  0  0  0  0  0  0  0  0  0  0
  -31.0420  -15.9470   17.4620 H   0  0  0  0  0  0  0  0  0  0  0  0
  -26.2100  -13.2590   20.2460 C   0  0  0  0  0  0  0  0  0  0  0  0
  -25.1320  -12.6020   20.7680 C   0  0  0  0  0  0  0  0  0  0  0  0
  -25.3970  -11.2090   20.5960 C   0  0  0  0  0  0  0  0  0  0  0  0
  -27.0630  -12.2770   19.7770 N   0  0  0  0  0  0  0  0  0  0  0  0
  -26.5970  -11.0320   20.0540 N   0  0  0  0  0  0  0  0  0  0  0  0
  -24.5490  -10.0400   20.8610 C   0  0  0  0  0  0  0  0  0  0  0  0
  -24.8880   -9.0870   21.8480 C   0  0  0  0  0  3  0  0  0  0  0  0
  -24.0440   -7.9820   22.0940 C   0  0  0  0  0  3  0  0  0  0  0  0
  -22.8460   -7.8250   21.3570 C   0  0  0  0  0  0  0  0  0  0  0  0
  -22.5250   -8.7630   20.3610 C   0  0  0  0  0  3  0  0  0  0  0  0
  -23.3680   -9.8590   20.1130 C   0  0  0  0  0  3  0  0  0  0  0  0
  -21.9770   -6.7720   21.5110 O   0  0  0  0  0  0  0  0  0  0  0  0
  -21.6750   -6.2630   22.7480 C   0  0  0  0  0  0  0  0  0  0  0  0
  -21.0730   -7.0530   23.7530 C   0  0  0  0  0  3  0  0  0  0  0  0
  -20.7170   -6.4710   24.9850 C   0  0  0  0  0  3  0  0  0  0  0  0
  -20.9560   -5.1030   25.2160 C   0  0  0  0  0  0  0  0  0  0  0  0
  -21.5510   -4.3150   24.2140 C   0  0  0  0  0  3  0  0  0  0  0  0
  -21.9060   -4.8930   22.9830 C   0  0  0  0  0  0  0  0  0  0  0  0
  -22.4620   -4.1260   22.0160 F   0  0  0  0  0  0  0  0  0  0  0  0
  -20.6080   -4.5420   26.3980 F   0  0  0  0  0  0  0  0  0  0  0  0
  -23.8820  -13.2340   21.3060 C   0  0  0  0  0  0  0  0  0  0  0  0
  -23.2280  -12.5820   22.2610 N   0  0  0  0  0  0  0  0  0  0  0  0
  -23.5040  -14.3370   20.9140 O   0  0  0  0  0  0  0  0  0  0  0  0
  -23.5480  -11.6840   22.5960 H   0  0  0  0  0  0  0  0  0  0  0  0
  -22.3990  -12.9900   22.6670 H   0  0  0  0  0  0  0  0  0  0  0  0
  -26.5320  -14.6040   20.1030 N   0  0  0  0  0  0  0  0  0  0  0  0
  -27.4080  -14.9430   19.7260 H   0  0  0  0  0  0  0  0  0  0  0  0
  -25.9410  -15.3530   20.4450 H   0  0  0  0  0  0  0  0  0  0  0  0
  -30.3710  -16.2000   21.3020 C   0  0  0  0  0  0  0  0  0  0  0  0
  -29.8440  -15.2460   22.3740 C   0  0  0  0  0  1  0  0  0  0  0  0
  -31.5580  -16.5300   21.3560 O   0  0  0  0  0  0  0  0  0  0  0  0
  -25.9630  -18.0150   20.2260 N   0  0  0  0  0  0  0  0  0  0  0  0
  -25.6400  -17.7940   21.1620 H   0  0  0  0  0  0  0  0  0  0  0  0
  -25.3790  -18.6790   19.7240 H   0  0  0  0  0  0  0  0  0  0  0  0
  -29.5140  -19.2980   17.3610 O   0  0  0  0  0  0  0  0  0  0  0  0
  -28.7270  -20.7100   17.3530 C   0  0  0  0  0  2  0  0  0  0  0  0
  -29.2600  -22.3210   17.3890 C   0  0  0  0  0  3  0  0  0  0  0  0
  -28.5840  -23.5540   17.7510 C   0  0  0  0  0  3  0  0  0  0  0  0
  -28.9620  -25.0070   17.8260 O   0  0  0  0  0  0  0  0  0  0  0  0
  -26.1560  -29.3740   23.2230 C   0  0  0  0  0  0  0  0  0  0  0  0
  -28.0860  -26.0830   18.3050 C   0  0  0  0  0  0  0  0  0  0  0  0
  -24.7980  -28.9800   21.2070 C   0  0  0  0  0  3  0  0  0  0  0  0
  -26.0340  -28.0010   19.1660 C   0  0  0  0  0  0  0  0  0  0  0  0
  -27.3680  -28.9480   21.0400 C   0  0  0  0  0  2  0  0  0  0  0  0
  -27.2570  -27.9680   19.8460 C   0  0  0  0  0  0  0  0  0  0  0  0
  -28.2840  -27.0310   19.4080 C   0  0  0  0  0  3  0  0  0  0  0  0
  -26.8570  -26.2650   17.6340 C   0  0  0  0  0  3  0  0  0  0  0  0
  -25.8520  -27.1700   18.0520 C   0  0  0  0  0  3  0  0  0  0  0  0
  -24.9400  -28.9420   19.6620 C   0  0  0  0  0  2  0  0  0  0  0  0
  -26.1300  -29.0970   21.8810 N   0  0  0  0  0  0  0  0  0  0  0  0
  -25.1120  -29.5360   23.8740 O   0  0  0  0  0  0  0  0  0  0  0  0
  -23.9800  -27.7510   21.6810 C   0  0  0  0  0  0  0  0  0  0  0  0
  -22.6500  -27.7780   21.4780 N   0  0  0  0  0  0  0  0  0  0  0  0
  -24.5480  -26.7870   22.2010 O   0  0  0  0  0  0  0  0  0  0  0  0
  -22.2510  -28.6060   21.0570 H   0  0  0  0  0  0  0  0  0  0  0  0
  -19.1700  -26.7730   21.3240 C   0  0  0  0  0  0  0  0  0  0  0  0
  -21.7110  -26.6980   21.8000 C   0  0  0  0  0  3  0  0  0  0  0  0
  -21.7710  -25.5760   20.7370 C   0  0  0  0  0  2  0  0  0  0  0  0
  -20.7350  -25.7480   19.6210 C   0  0  0  0  0  2  0  0  0  0  0  0
  -19.3170  -25.7610   20.2000 C   0  0  0  0  0  2  0  0  0  0  0  0
  -20.2950  -27.2240   22.0650 C   0  0  0  0  0  0  0  0  0  0  0  0
  -20.1050  -28.1880   23.0770 C   0  0  0  0  0  3  0  0  0  0  0  0
  -18.8220  -28.6990   23.3560 C   0  0  0  0  0  3  0  0  0  0  0  0
  -17.7100  -28.2380   22.6280 C   0  0  0  0  0  3  0  0  0  0  0  0
  -17.8850  -27.2750   21.6190 C   0  0  0  0  0  3  0  0  0  0  0  0
  -27.5000  -29.5180   24.0000 C   0  0  0  0  0  3  0  0  0  0  0  0
  -27.3470  -30.6230   24.9610 N   0  0  0  0  0  0  0  0  0  0  0  0
  -27.8680  -31.8480   24.8110 C   0  0  0  0  0  0  0  0  0  0  0  0
  -28.5920  -32.1510   23.8590 O   0  0  0  0  0  0  0  0  0  0  0  0
  -26.7190  -30.4630   25.7360 H   0  0  0  0  0  0  0  0  0  0  0  0
  -26.4570  -33.8610   25.3590 C   0  0  0  0  0  1  0  0  0  0  0  0
  -27.5390  -32.9050   25.8870 C   0  0  0  0  0  3  0  0  0  0  0  0
  -29.6740  -32.8990   27.1000 C   0  0  0  0  0  1  0  0  0  0  0  0
  -28.7160  -33.6850   26.3280 N   0  0  0  0  0  0  0  0  0  0  0  0
  -28.4300  -34.4790   26.8930 H   0  0  0  0  0  0  0  0  0  0  0  0
  -27.9260  -28.1970   24.7510 C   0  0  1  0  0  0  0  0  0  0  0  0
  -26.8180  -27.6100   25.6570 C   0  0  0  0  0  1  0  0  0  0  0  0
  -28.3360  -27.0980   23.7450 C   0  0  0  0  0  1  0  0  0  0  0  0
  -29.1680  -28.4720   25.6310 C   0  0  0  0  0  1  0  0  0  0  0  0
  2  4  1  0
  3  1  1  0
  3 45  1  0
  4 48  1  0
  4  1  2  0
  5  3  2  0
  6  2  2  0
  6  5  1  0
  7 13  1  0
  8 13  1  0
  9 10  1  0
  9  8  1  0
 11 10  1  0
 11 20  1  0
 11 12  1  0
 13 12  1  0
 14  7  2  0
 15  7  1  0
 15  5  1  0
 16 15  1  0
 17 18  2  0
 18 37  1  0
 19 18  1  0
 19 22  1  0
 20 21  1  0
 20 17  1  0
 21 19  2  0
 22 23  1  0
 23 24  2  0
 25 28  1  0
 25 24  1  0
 26 25  2  0
 27 26  1  0
 27 22  2  0
 28 29  1  0
 29 34  2  0
 29 30  1  0
 30 31  2  0
 31 32  1  0
 32 36  1  0
 33 32  2  0
 34 33  1  0
 35 34  1  0
 37 38  1  0
 38 40  1  0
 38 41  1  0
 39 37  2  0
 42 17  1  0
 42 44  1  0
 43 42  1  0
 45 47  2  0
 45 46  1  0
 48 49  1  0
 50 48  1  0
 51  6  1  0
 52 51  1  0
 52 53  1  0
 53 54  2  0
 54 55  1  0
 55 57  1  0
 56 67  2  0
 57 62  1  0
 58 68  1  0
 58 66  1  0
 59 65  1  0
 59 61  1  0
 60 66  1  0
 61 60  1  0
 62 61  2  0
 63 64  1  0
 63 57  2  0
 64 59  2  0
 65 58  1  0
 66 56  1  0
 68 70  2  0
 69 68  1  0
 71 69  1  0
 72 81  2  0
 72 77  1  0
 73 69  1  0
 73 77  1  0
 74 73  1  0
 75 76  1  0
 75 74  1  0
 76 72  1  0
 77 78  2  0
 78 79  1  0
 80 79  2  0
 81 80  1  0
 82 56  1  0
 82 92  1  0
 82 83  1  0
 83 86  1  0
 84 83  1  0
 84 88  1  0
 85 84  2  0
 88 87  1  0
 88 90  1  0
 90 91  1  0
 90 89  1  0
 92 95  1  1
 92 93  1  0
 94 92  1  0
M  ISO  4   7 100  15 100  54 101  55 101
M  END
>  <TORSDO>  (69) 
F 21

>  <SCORE>  (69) 
-7.729

>  <name>  (69) 
68

>  <ligand_id>  (69) 
68

>  <original_smiles>  (69) 
[H]C(Oc1c([H])c([H])c2c(c1[H])C([H])([H])N(C(=O)C([H])(N([H])C(=O)C([H])(N([H])C([H])([H])[H])C([H])([H])[H])C(C([H])([H])[H])(C([H])([H])[H])C([H])([H])[H])C([H])(C(=O)N([H])C1([H])c3c([H])c([H])c([H])c([H])c3C([H])([H])C([H])([H])C1([H])[H])C2([H])[H])=C([H])C([H])([H])Oc1c([H])c(N([H])[H])c([H])c(C(=O)C([H])([H])[H])c1N([H])C(=O)N1C([H])([H])C([H])([H])C([H])([H])C([H])(n2nc(-c3c([H])c([H])c(Oc4c([H])c([H])c(F)c([H])c4F)c([H])c3[H])c(C(=O)N([H])[H])c2N([H])[H])C1([H])[H]

>  <smiles>  (69) 
[H]C(Oc1c([H])c([H])c2c(c1[H])C([H])([H])N(C(=O)C([H])(N([H])C(=O)C([H])(N([H])C([H])([H])[H])C([H])([H])[H])C(C([H])([H])[H])(C([H])([H])[H])C([H])([H])[H])C([H])(C(=O)N([H])C1([H])c3c([H])c([H])c([H])c([H])c3C([H])([H])C([H])([H])C1([H])[H])C2([H])[H])=C([H])C([H])([H])Oc1c([H])c(N([H])[H])c([H])c(C(=O)C([H])([H])[H])c1N([H])C(=O)N1C([H])([H])C([H])([H])C([H])([H])C([H])(n2nc(-c3c([H])c([H])c(Oc4c([H])c([H])c(F)c([H])c4F)c([H])c3[H])c(C(=O)N([H])[H])c2N([H])[H])C1([H])[H]

$$$$
69:0:0
     RDKit          3D

 95103  0  0  1  0  0  0  0  0999 V2000
  -31.1080  -19.3690   19.4490 C   0  0  0  0  0  3  0  0  0  0  0  0
  -29.9350  -20.1140   19.7300 C   0  0  0  0  0  0  0  0  0  0  0  0
  -31.1860  -17.9520   19.5640 C   0  0  0  0  0  0  0  0  0  0  0  0
  -30.0730  -17.1820   20.0110 C   0  0  0  0  0  0  0  0  0  0  0  0
  -28.8670  -17.9070   20.2690 C   0  0  0  0  0  0  0  0  0  0  0  0
  -28.8060  -19.3470   20.1370 C   0  0  0  0  0  0  0  0  0  0  0  0
  -27.6690  -20.0250   20.4320 F   0  0  0  0  0  0  0  0  0  0  0  0
  -30.7890  -14.6570   19.7350 C   0  0  0  0  0  0  0  0  0  0  0  0
  -30.4790  -12.4150   18.7080 C   0  0  0  0  0  2  0  0  0  0  0  0
  -29.4140  -12.5460   17.5960 C   0  0  0  0  0  2  0  0  0  0  0  0
  -27.9940  -12.3800   18.1740 C   0  0  0  0  0  2  0  0  0  0  0  0
  -27.7640  -13.2400   19.4450 C   0  0  0  0  0  3  0  0  0  0  0  0
  -28.9320  -13.0910   20.4450 C   0  0  0  0  0  2  0  0  0  0  0  0
  -30.1730  -13.4330   19.7350 N   0  0  0  0  0  0  0  0  0  0  0  0
  -31.9170  -14.7910   19.2540 O   0  0  0  0  0  0  0  0  0  0  0  0
  -30.0210  -15.7150   20.1530 N   0  0  0  0  0  0  0  0  0  0  0  0
  -29.1900  -15.4130   20.6380 H   0  0  0  0  0  0  0  0  0  0  0  0
  -25.4860  -13.8370   20.4720 C   0  0  0  0  0  0  0  0  0  0  0  0
  -24.4480  -13.0630   20.9150 C   0  0  0  0  0  0  0  0  0  0  0  0
  -24.8700  -11.7080   20.7500 C   0  0  0  0  0  0  0  0  0  0  0  0
  -26.4730  -12.9530   20.0660 N   0  0  0  0  0  0  0  0  0  0  0  0
  -26.1150  -11.6640   20.2930 N   0  0  0  0  0  0  0  0  0  0  0  0
  -24.1370  -10.4500   20.9500 C   0  0  0  0  0  0  0  0  0  0  0  0
  -24.5750   -9.4800   21.8780 C   0  0  0  0  0  3  0  0  0  0  0  0
  -23.8440   -8.2860   22.0640 C   0  0  0  0  0  3  0  0  0  0  0  0
  -22.6620   -8.0550   21.3210 C   0  0  0  0  0  0  0  0  0  0  0  0
  -22.2430   -9.0140   20.3810 C   0  0  0  0  0  3  0  0  0  0  0  0
  -22.9750  -10.1990   20.1940 C   0  0  0  0  0  3  0  0  0  0  0  0
  -21.9020   -6.9150   21.4170 O   0  0  0  0  0  0  0  0  0  0  0  0
  -21.7860   -6.2240   22.5970 C   0  0  0  0  0  0  0  0  0  0  0  0
  -21.2440   -6.8170   23.7570 C   0  0  0  0  0  3  0  0  0  0  0  0
  -21.0780   -6.0500   24.9280 C   0  0  0  0  0  3  0  0  0  0  0  0
  -21.4440   -4.6900   24.9380 C   0  0  0  0  0  0  0  0  0  0  0  0
  -21.9790   -4.0980   23.7810 C   0  0  0  0  0  3  0  0  0  0  0  0
  -22.1460   -4.8610   22.6130 C   0  0  0  0  0  0  0  0  0  0  0  0
  -22.6420   -4.2780   21.4960 F   0  0  0  0  0  0  0  0  0  0  0  0
  -21.2790   -3.9520   26.0600 F   0  0  0  0  0  0  0  0  0  0  0  0
  -23.1050  -13.5490   21.3770 C   0  0  0  0  0  0  0  0  0  0  0  0
  -22.4630  -12.8160   22.2800 N   0  0  0  0  0  0  0  0  0  0  0  0
  -22.6370  -14.6120   20.9720 O   0  0  0  0  0  0  0  0  0  0  0  0
  -22.8570  -11.9540   22.6290 H   0  0  0  0  0  0  0  0  0  0  0  0
  -21.5660  -13.1230   22.6290 H   0  0  0  0  0  0  0  0  0  0  0  0
  -25.6650  -15.2130   20.3610 N   0  0  0  0  0  0  0  0  0  0  0  0
  -24.9330  -15.8710   20.6030 H   0  0  0  0  0  0  0  0  0  0  0  0
  -26.4860  -15.6600   19.9730 H   0  0  0  0  0  0  0  0  0  0  0  0
  -32.3800  -17.3410   19.1960 N   0  0  0  0  0  0  0  0  0  0  0  0
  -33.2280  -17.8980   19.2370 H   0  0  0  0  0  0  0  0  0  0  0  0
  -32.5170  -16.4010   19.5860 H   0  0  0  0  0  0  0  0  0  0  0  0
  -29.0550  -22.4260   19.7220 C   0  0  0  0  0  3  0  0  0  0  0  0
  -30.0200  -21.5560   19.6790 N   0  0  0  0  0  0  0  0  0  0  0  0
  -29.2800  -23.9880   19.7760 C   0  0  0  0  0  3  0  0  0  0  0  0
  -28.0430  -24.9510   19.5240 C   0  0  0  0  0  3  0  0  0  0  0  0
  -28.2450  -26.4190   19.6040 O   0  0  0  0  0  0  0  0  0  0  0  0
  -24.5480  -31.6290   22.9530 C   0  0  0  0  0  0  0  0  0  0  0  0
  -27.1060  -27.2420   19.6230 C   0  0  0  0  0  0  0  0  0  0  0  0
  -23.2990  -30.2680   21.3160 C   0  0  0  0  0  3  0  0  0  0  0  0
  -24.7130  -28.8020   19.7720 C   0  0  0  0  0  0  0  0  0  0  0  0
  -25.8220  -30.6450   21.0340 C   0  0  0  0  0  2  0  0  0  0  0  0
  -25.8970  -29.2940   20.3330 C   0  0  0  0  0  0  0  0  0  0  0  0
  -27.0970  -28.5270   20.2470 C   0  0  0  0  0  3  0  0  0  0  0  0
  -25.8940  -26.8020   19.0410 C   0  0  0  0  0  3  0  0  0  0  0  0
  -24.7120  -27.5620   19.1160 C   0  0  0  0  0  3  0  0  0  0  0  0
  -23.4640  -29.6490   19.9030 C   0  0  0  0  0  2  0  0  0  0  0  0
  -24.5770  -30.8630   21.8240 N   0  0  0  0  0  0  0  0  0  0  0  0
  -23.4850  -31.8660   23.5420 O   0  0  0  0  0  0  0  0  0  0  0  0
  -22.6990  -29.2040   22.2650 C   0  0  0  0  0  0  0  0  0  0  0  0
  -21.3710  -29.0110   22.1940 N   0  0  0  0  0  0  0  0  0  0  0  0
  -23.4250  -28.5560   23.0250 O   0  0  0  0  0  0  0  0  0  0  0  0
  -20.8430  -29.5870   21.5530 H   0  0  0  0  0  0  0  0  0  0  0  0
  -18.0450  -27.7010   22.7540 C   0  0  0  0  0  0  0  0  0  0  0  0
  -20.6010  -28.0340   22.9650 C   0  0  0  0  0  3  0  0  0  0  0  0
  -20.7320  -26.6170   22.3580 C   0  0  0  0  0  2  0  0  0  0  0  0
  -19.6140  -26.2810   21.3660 C   0  0  0  0  0  2  0  0  0  0  0  0
  -18.2450  -26.3700   22.0470 C   0  0  0  0  0  2  0  0  0  0  0  0
  -19.1510  -28.4890   23.1710 C   0  0  0  0  0  0  0  0  0  0  0  0
  -18.9090  -29.7320   23.7930 C   0  0  0  0  0  3  0  0  0  0  0  0
  -17.5940  -30.1890   24.0020 C   0  0  0  0  0  3  0  0  0  0  0  0
  -16.5030  -29.3980   23.6000 C   0  0  0  0  0  3  0  0  0  0  0  0
  -16.7300  -28.1560   22.9820 C   0  0  0  0  0  3  0  0  0  0  0  0
  -25.8460  -32.2630   23.5420 C   0  0  0  0  0  3  0  0  0  0  0  0
  -25.5170  -33.6300   23.9700 N   0  0  0  0  0  0  0  0  0  0  0  0
  -25.8620  -34.7400   23.3060 C   0  0  0  0  0  0  0  0  0  0  0  0
  -26.5600  -34.7220   22.2900 O   0  0  0  0  0  0  0  0  0  0  0  0
  -24.8980  -33.7170   24.7640 H   0  0  0  0  0  0  0  0  0  0  0  0
  -24.1400  -36.5550   23.0360 C   0  0  0  0  0  1  0  0  0  0  0  0
  -25.3510  -36.0870   23.8570 C   0  0  0  0  0  3  0  0  0  0  0  0
  -27.4410  -36.9120   24.8480 C   0  0  0  0  0  1  0  0  0  0  0  0
  -26.3830  -37.1470   23.8690 N   0  0  0  0  0  0  0  0  0  0  0  0
  -25.9670  -38.0540   24.0620 H   0  0  0  0  0  0  0  0  0  0  0  0
  -26.4520  -31.4360   24.7410 C   0  0  1  0  0  0  0  0  0  0  0  0
  -25.4340  -31.1300   25.8640 C   0  0  0  0  0  1  0  0  0  0  0  0
  -27.0220  -30.0870   24.2430 C   0  0  0  0  0  1  0  0  0  0  0  0
  -27.6350  -32.2100   25.3670 C   0  0  0  0  0  1  0  0  0  0  0  0
  -26.4720  -17.4980   20.3620 C   0  0  0  0  0  1  0  0  0  0  0  0
  -27.8050  -17.1030   20.6560 O   0  0  0  0  0  0  0  0  0  0  0  0
  1  3  2  0
  1  2  1  0
  2  6  2  0
  3  4  1  0
  4 16  1  0
  4  5  2  0
  5 95  1  0
  6  5  1  0
  6  7  1  0
  8 16  1  0
  9 14  1  0
 10 11  1  0
 10  9  1  0
 12 11  1  0
 12 21  1  0
 12 13  1  0
 14  8  1  0
 14 13  1  0
 15  8  2  0
 16 17  1  0
 18 19  2  0
 19 38  1  0
 20 19  1  0
 20 23  1  0
 21 22  1  0
 21 18  1  0
 22 20  2  0
 23 24  1  0
 24 25  2  0
 26 29  1  0
 26 25  1  0
 27 26  2  0
 28 27  1  0
 28 23  2  0
 29 30  1  0
 30 35  2  0
 30 31  1  0
 31 32  2  0
 32 33  1  0
 33 37  1  0
 34 33  2  0
 35 34  1  0
 36 35  1  0
 38 39  1  0
 39 41  1  0
 39 42  1  0
 40 38  2  0
 43 18  1  0
 43 44  1  0
 45 43  1  0
 46 47  1  0
 46  3  1  0
 46 48  1  0
 49 51  1  0
 50 49  2  0
 50  2  1  0
 52 53  1  0
 52 51  2  0
 53 55  1  0
 54 65  2  0
 55 60  1  0
 56 64  1  0
 56 66  1  0
 57 63  1  0
 57 59  1  0
 58 64  1  0
 59 58  1  0
 60 59  2  0
 61 62  1  0
 61 55  2  0
 62 57  2  0
 63 56  1  0
 64 54  1  0
 66 68  2  0
 67 66  1  0
 69 67  1  0
 70 79  2  0
 70 75  1  0
 71 67  1  0
 71 75  1  0
 72 71  1  0
 73 74  1  0
 73 72  1  0
 74 70  1  0
 75 76  2  0
 76 77  1  0
 78 77  2  0
 79 78  1  0
 80 54  1  0
 80 81  1  0
 80 90  1  0
 81 84  1  0
 82 86  1  0
 82 81  1  0
 83 82  2  0
 86 85  1  0
 86 88  1  0
 88 89  1  0
 88 87  1  0
 90 93  1  1
 90 91  1  0
 92 90  1  0
 94 95  1  0
M  ISO  4   8 100  16 100  52 101  53 101
M  END
>  <TORSDO>  (70) 
F 21

>  <SCORE>  (70) 
-12.753

>  <name>  (70) 
69

>  <ligand_id>  (70) 
69

>  <original_smiles>  (70) 
[H]C(=Nc1c([H])c(N([H])[H])c(N([H])C(=O)N2C([H])([H])C([H])([H])C([H])([H])C([H])(n3nc(-c4c([H])c([H])c(Oc5c([H])c([H])c(F)c([H])c5F)c([H])c4[H])c(C(=O)N([H])[H])c3N([H])[H])C2([H])[H])c(OC([H])([H])[H])c1F)C([H])([H])C([H])([H])Oc1c([H])c([H])c2c(c1[H])C([H])([H])N(C(=O)C([H])(N([H])C(=O)C([H])(N([H])C([H])([H])[H])C([H])([H])[H])C(C([H])([H])[H])(C([H])([H])[H])C([H])([H])[H])C([H])(C(=O)N([H])C1([H])c3c([H])c([H])c([H])c([H])c3C([H])([H])C([H])([H])C1([H])[H])C2([H])[H]

>  <smiles>  (70) 
[H]C(=Nc1c([H])c(N([H])[H])c(N([H])C(=O)N2C([H])([H])C([H])([H])C([H])([H])C([H])(n3nc(-c4c([H])c([H])c(Oc5c([H])c([H])c(F)c([H])c5F)c([H])c4[H])c(C(=O)N([H])[H])c3N([H])[H])C2([H])[H])c(OC([H])([H])[H])c1F)C([H])([H])C([H])([H])Oc1c([H])c([H])c2c(c1[H])C([H])([H])N(C(=O)C([H])(N([H])C(=O)C([H])(N([H])C([H])([H])[H])C([H])([H])[H])C(C([H])([H])[H])(C([H])([H])[H])C([H])([H])[H])C([H])(C(=O)N([H])C1([H])c3c([H])c([H])c([H])c([H])c3C([H])([H])C([H])([H])C1([H])[H])C2([H])[H]

$$$$
70:0:0
     RDKit          3D

 89 97  0  0  1  0  0  0  0  0999 V2000
  -28.9760  -22.2880   20.3010 C   0  0  0  0  0  3  0  0  0  0  0  0
  -29.8160  -21.2720   20.1850 N   0  0  0  0  0  0  0  0  0  0  0  0
  -28.3210  -19.2550   20.6400 C   0  0  0  0  0  3  0  0  0  0  0  0
  -28.3730  -17.8130   20.7240 C   0  0  0  0  0  3  0  0  0  0  0  0
  -29.5010  -19.8820   20.3050 C   0  0  0  0  0  0  0  0  0  0  0  0
  -29.5800  -17.1970   20.4540 C   0  0  0  0  0  0  0  0  0  0  0  0
  -30.7070  -18.5460   20.0770 S   0  0  0  0  0  0  0  0  0  0  0  0
  -30.5830  -14.8040   20.0680 C   0  0  0  0  0  0  0  0  0  0  0  0
  -30.4230  -12.5340   19.0110 C   0  0  0  0  0  2  0  0  0  0  0  0
  -29.4090  -12.6110   17.8440 C   0  0  0  0  0  2  0  0  0  0  0  0
  -27.9630  -12.4190   18.3460 C   0  0  0  0  0  2  0  0  0  0  0  0
  -27.6490  -13.2780   19.5980 C   0  0  0  0  0  3  0  0  0  0  0  0
  -28.7640  -13.1390   20.6580 C   0  0  0  0  0  2  0  0  0  0  0  0
  -30.0310  -13.5420   20.0220 N   0  0  0  0  0  0  0  0  0  0  0  0
  -31.7160  -15.0130   19.6180 O   0  0  0  0  0  0  0  0  0  0  0  0
  -29.7280  -15.7980   20.5120 N   0  0  0  0  0  0  0  0  0  0  0  0
  -28.9060  -15.3540   20.8930 H   0  0  0  0  0  0  0  0  0  0  0  0
  -25.3020  -13.8600   20.4660 C   0  0  0  0  0  0  0  0  0  0  0  0
  -24.2540  -13.0790   20.8720 C   0  0  0  0  0  0  0  0  0  0  0  0
  -24.7090  -11.7280   20.7740 C   0  0  0  0  0  0  0  0  0  0  0  0
  -26.3280  -12.9840   20.1470 N   0  0  0  0  0  0  0  0  0  0  0  0
  -25.9790  -11.6950   20.3920 N   0  0  0  0  0  0  0  0  0  0  0  0
  -23.9890  -10.4620   20.9640 C   0  0  0  0  0  0  0  0  0  0  0  0
  -24.4330   -9.4920   21.8890 C   0  0  0  0  0  3  0  0  0  0  0  0
  -23.7140   -8.2910   22.0670 C   0  0  0  0  0  3  0  0  0  0  0  0
  -22.5360   -8.0530   21.3210 C   0  0  0  0  0  0  0  0  0  0  0  0
  -22.1100   -9.0110   20.3850 C   0  0  0  0  0  3  0  0  0  0  0  0
  -22.8310  -10.2030   20.2040 C   0  0  0  0  0  3  0  0  0  0  0  0
  -21.7860   -6.9040   21.4100 O   0  0  0  0  0  0  0  0  0  0  0  0
  -21.6980   -6.1900   22.5780 C   0  0  0  0  0  0  0  0  0  0  0  0
  -21.2030   -6.7670   23.7690 C   0  0  0  0  0  3  0  0  0  0  0  0
  -21.0650   -5.9780   24.9280 C   0  0  0  0  0  3  0  0  0  0  0  0
  -21.4110   -4.6150   24.8990 C   0  0  0  0  0  0  0  0  0  0  0  0
  -21.8970   -4.0370   23.7130 C   0  0  0  0  0  3  0  0  0  0  0  0
  -22.0380   -4.8230   22.5560 C   0  0  0  0  0  0  0  0  0  0  0  0
  -22.4890   -4.2560   21.4100 F   0  0  0  0  0  0  0  0  0  0  0  0
  -21.2700   -3.8540   26.0100 F   0  0  0  0  0  0  0  0  0  0  0  0
  -22.8750  -13.5510   21.2350 C   0  0  0  0  0  0  0  0  0  0  0  0
  -22.1960  -12.8340   22.1240 N   0  0  0  0  0  0  0  0  0  0  0  0
  -22.4110  -14.5890   20.7660 O   0  0  0  0  0  0  0  0  0  0  0  0
  -22.5860  -11.9930   22.5250 H   0  0  0  0  0  0  0  0  0  0  0  0
  -21.2740  -13.1300   22.4080 H   0  0  0  0  0  0  0  0  0  0  0  0
  -25.4610  -15.2350   20.3170 N   0  0  0  0  0  0  0  0  0  0  0  0
  -24.6870  -15.8760   20.4620 H   0  0  0  0  0  0  0  0  0  0  0  0
  -26.2570  -15.6720   19.8710 H   0  0  0  0  0  0  0  0  0  0  0  0
  -30.5150  -24.1500   19.3660 C   0  0  0  0  0  1  0  0  0  0  0  0
  -29.3260  -23.8660   20.3040 C   0  0  0  0  0  3  0  0  0  0  0  0
  -28.1520  -24.9540   20.0290 C   0  0  0  0  0  2  0  0  0  0  0  0
  -28.3680  -26.4370   20.2180 O   0  0  0  0  0  0  0  0  0  0  0  0
  -24.6520  -31.8890   23.2720 C   0  0  0  0  0  0  0  0  0  0  0  0
  -27.2620  -27.3210   20.1720 C   0  0  0  0  0  0  0  0  0  0  0  0
  -23.4540  -30.5190   21.6040 C   0  0  0  0  0  3  0  0  0  0  0  0
  -24.9070  -28.9770   20.1670 C   0  0  0  0  0  0  0  0  0  0  0  0
  -26.0000  -30.8170   21.4450 C   0  0  0  0  0  2  0  0  0  0  0  0
  -26.0780  -29.4440   20.7760 C   0  0  0  0  0  0  0  0  0  0  0  0
  -27.2580  -28.6310   20.7640 C   0  0  0  0  0  3  0  0  0  0  0  0
  -26.0610  -26.9210   19.5390 C   0  0  0  0  0  3  0  0  0  0  0  0
  -24.9030  -27.7230   19.5370 C   0  0  0  0  0  3  0  0  0  0  0  0
  -23.6750  -29.8610   20.2180 C   0  0  0  0  0  2  0  0  0  0  0  0
  -24.7210  -31.0930   22.1630 N   0  0  0  0  0  0  0  0  0  0  0  0
  -23.5660  -32.1650   23.8010 O   0  0  0  0  0  0  0  0  0  0  0  0
  -22.7760  -29.4960   22.5460 C   0  0  0  0  0  0  0  0  0  0  0  0
  -21.4480  -29.3320   22.4120 N   0  0  0  0  0  0  0  0  0  0  0  0
  -23.4450  -28.8530   23.3590 O   0  0  0  0  0  0  0  0  0  0  0  0
  -20.9690  -29.9020   21.7300 H   0  0  0  0  0  0  0  0  0  0  0  0
  -18.0550  -28.1720   22.9000 C   0  0  0  0  0  0  0  0  0  0  0  0
  -20.6180  -28.3890   23.1630 C   0  0  0  0  0  3  0  0  0  0  0  0
  -20.6970  -26.9690   22.5560 C   0  0  0  0  0  2  0  0  0  0  0  0
  -19.5860  -26.6860   21.5400 C   0  0  0  0  0  2  0  0  0  0  0  0
  -18.2090  -26.8350   22.1930 C   0  0  0  0  0  2  0  0  0  0  0  0
  -19.1860  -28.9090   23.3420 C   0  0  0  0  0  0  0  0  0  0  0  0
  -18.9880  -30.1590   23.9640 C   0  0  0  0  0  3  0  0  0  0  0  0
  -17.6900  -30.6750   24.1480 C   0  0  0  0  0  3  0  0  0  0  0  0
  -16.5740  -29.9340   23.7210 C   0  0  0  0  0  3  0  0  0  0  0  0
  -16.7560  -28.6850   23.1030 C   0  0  0  0  0  3  0  0  0  0  0  0
  -25.9340  -32.5060   23.9120 C   0  0  0  0  0  3  0  0  0  0  0  0
  -26.4220  -31.7290   25.1960 C   0  0  1  0  0  0  0  0  0  0  0  0
  -25.3100  -31.5020   26.2470 C   0  0  0  0  0  1  0  0  0  0  0  0
  -26.9970  -30.3450   24.8150 C   0  0  0  0  0  1  0  0  0  0  0  0
  -27.5700  -32.5110   25.8770 C   0  0  0  0  0  1  0  0  0  0  0  0
  -25.6350  -33.9080   24.2400 N   0  0  0  0  0  0  0  0  0  0  0  0
  -25.9600  -34.9570   23.4720 C   0  0  0  0  0  0  0  0  0  0  0  0
  -26.6130  -34.8460   22.4310 O   0  0  0  0  0  0  0  0  0  0  0  0
  -25.0540  -34.0690   25.0500 H   0  0  0  0  0  0  0  0  0  0  0  0
  -24.2200  -36.7470   23.1600 C   0  0  0  0  0  1  0  0  0  0  0  0
  -25.4890  -36.3500   23.9320 C   0  0  0  0  0  3  0  0  0  0  0  0
  -27.6460  -37.2490   24.6860 C   0  0  0  0  0  1  0  0  0  0  0  0
  -26.5160  -37.4020   23.7730 N   0  0  0  0  0  0  0  0  0  0  0  0
  -26.1140  -38.3240   23.9170 H   0  0  0  0  0  0  0  0  0  0  0  0
  1 47  1  0
  2  1  2  0
  2  5  1  0
  3  4  1  0
  5  3  2  0
  6 16  1  0
  6  4  2  0
  7  5  1  0
  7  6  1  0
  8 16  1  0
  9 14  1  0
 10 11  1  0
 10  9  1  0
 12 11  1  0
 12 21  1  0
 12 13  1  0
 14  8  1  0
 14 13  1  0
 15  8  2  0
 16 17  1  0
 18 19  2  0
 19 38  1  0
 20 19  1  0
 20 23  1  0
 21 22  1  0
 21 18  1  0
 22 20  2  0
 23 24  1  0
 24 25  2  0
 26 29  1  0
 26 25  1  0
 27 26  2  0
 28 27  1  0
 28 23  2  0
 29 30  1  0
 30 31  1  0
 31 32  2  0
 33 32  1  0
 33 37  1  0
 34 33  2  0
 35 30  2  0
 35 34  1  0
 36 35  1  0
 38 39  1  0
 39 42  1  0
 39 41  1  0
 40 38  2  0
 43 44  1  0
 43 18  1  0
 45 43  1  0
 47 46  1  0
 48 49  1  0
 48 47  1  0
 50 61  2  0
 51 49  1  0
 51 56  1  0
 52 60  1  0
 52 62  1  0
 53 59  1  0
 53 55  1  0
 54 60  1  0
 55 54  1  0
 56 55  2  0
 57 51  2  0
 58 57  1  0
 58 53  2  0
 59 52  1  0
 60 50  1  0
 62 64  2  0
 63 62  1  0
 65 63  1  0
 66 75  2  0
 66 71  1  0
 67 63  1  0
 67 71  1  0
 68 67  1  0
 69 70  1  0
 69 68  1  0
 70 66  1  0
 71 72  2  0
 72 73  1  0
 74 73  2  0
 75 74  1  0
 76 50  1  0
 76 81  1  0
 76 77  1  0
 77 80  1  1
 77 78  1  0
 79 77  1  0
 81 84  1  0
 82 86  1  0
 82 81  1  0
 83 82  2  0
 86 85  1  0
 88 89  1  0
 88 86  1  0
 88 87  1  0
M  ISO  4   8 100  16 100  48 101  49 101
M  END
>  <TORSDO>  (71) 
F 19

>  <SCORE>  (71) 
-13.924

>  <name>  (71) 
70

>  <ligand_id>  (71) 
70

>  <original_smiles>  (71) 
[H]C(=Nc1sc(N([H])C(=O)N2C([H])([H])C([H])([H])C([H])([H])C([H])(n3nc(-c4c([H])c([H])c(Oc5c([H])c([H])c(F)c([H])c5F)c([H])c4[H])c(C(=O)N([H])[H])c3N([H])[H])C2([H])[H])c([H])c1[H])C([H])(C([H])([H])[H])C([H])([H])Oc1c([H])c([H])c2c(c1[H])C([H])([H])N(C(=O)C([H])(N([H])C(=O)C([H])(N([H])C([H])([H])[H])C([H])([H])[H])C(C([H])([H])[H])(C([H])([H])[H])C([H])([H])[H])C([H])(C(=O)N([H])C1([H])c3c([H])c([H])c([H])c([H])c3C([H])([H])C([H])([H])C1([H])[H])C2([H])[H]

>  <smiles>  (71) 
[H]C(=Nc1sc(N([H])C(=O)N2C([H])([H])C([H])([H])C([H])([H])C([H])(n3nc(-c4c([H])c([H])c(Oc5c([H])c([H])c(F)c([H])c5F)c([H])c4[H])c(C(=O)N([H])[H])c3N([H])[H])C2([H])[H])c([H])c1[H])C([H])(C([H])([H])[H])C([H])([H])Oc1c([H])c([H])c2c(c1[H])C([H])([H])N(C(=O)C([H])(N([H])C(=O)C([H])(N([H])C([H])([H])[H])C([H])([H])[H])C(C([H])([H])[H])(C([H])([H])[H])C([H])([H])[H])C([H])(C(=O)N([H])C1([H])c3c([H])c([H])c([H])c([H])c3C([H])([H])C([H])([H])C1([H])[H])C2([H])[H]

$$$$
71:0:0
     RDKit          3D

 99108  0  0  1  0  0  0  0  0999 V2000
  -28.6610  -23.1020   20.9260 N   0  0  0  0  0  0  0  0  0  0  0  0
  -28.4780  -22.6780   21.8290 H   0  0  0  0  0  0  0  0  0  0  0  0
  -25.9000  -25.8810   20.9610 C   0  0  0  0  0  3  0  0  0  0  0  0
  -25.0920  -25.6520   19.8030 C   0  0  0  0  0  0  0  0  0  0  0  0
  -27.0510  -25.0560   21.3000 C   0  0  0  0  0  0  0  0  0  0  0  0
  -25.6380  -24.5400   19.0650 C   0  0  0  0  0  0  0  0  0  0  0  0
  -27.4760  -23.9210   20.5170 C   0  0  0  0  0  0  0  0  0  0  0  0
  -26.7170  -23.7200   19.3900 N   0  0  0  0  0  0  0  0  0  0  0  0
  -25.0410  -24.2150   17.8590 N   0  0  0  0  0  0  0  0  0  0  0  0
  -27.9540  -25.4730   22.7150 Cl  0  0  0  0  0  0  0  0  0  0  0  0
  -24.7280  -24.9970   17.3000 H   0  0  0  0  0  0  0  0  0  0  0  0
  -25.5660  -23.5570   17.2990 H   0  0  0  0  0  0  0  0  0  0  0  0
  -22.8720  -27.3290   19.8260 C   0  0  0  0  0  0  0  0  0  0  0  0
  -20.3850  -27.8620   19.7280 C   0  0  0  0  0  2  0  0  0  0  0  0
  -19.5470  -26.5620   19.8200 C   0  0  0  0  0  2  0  0  0  0  0  0
  -19.3840  -25.9110   18.4310 C   0  0  0  0  0  2  0  0  0  0  0  0
  -20.7310  -25.8460   17.6610 C   0  0  0  0  0  3  0  0  0  0  0  0
  -21.4700  -27.2020   17.6930 C   0  0  0  0  0  2  0  0  0  0  0  0
  -21.6970  -27.5370   19.1010 N   0  0  0  0  0  0  0  0  0  0  0  0
  -22.9590  -27.8550   20.9410 O   0  0  0  0  0  0  0  0  0  0  0  0
  -23.8380  -26.4130   19.3250 N   0  0  0  0  0  0  0  0  0  0  0  0
  -23.5660  -26.1140   18.4000 H   0  0  0  0  0  0  0  0  0  0  0  0
  -21.4860  -24.6900   15.5070 C   0  0  0  0  0  0  0  0  0  0  0  0
  -20.8230  -24.3550   14.3620 C   0  0  0  0  0  0  0  0  0  0  0  0
  -19.4830  -24.8240   14.5290 C   0  0  0  0  0  0  0  0  0  0  0  0
  -20.5630  -25.3440   16.3060 N   0  0  0  0  0  0  0  0  0  0  0  0
  -19.3650  -25.4750   15.6820 N   0  0  0  0  0  0  0  0  0  0  0  0
  -18.3000  -24.6430   13.6810 C   0  0  0  0  0  0  0  0  0  0  0  0
  -17.7010  -25.7300   13.0050 C   0  0  0  0  0  3  0  0  0  0  0  0
  -16.5750  -25.5230   12.1810 C   0  0  0  0  0  3  0  0  0  0  0  0
  -16.0390  -24.2240   12.0190 C   0  0  0  0  0  0  0  0  0  0  0  0
  -16.6260  -23.1500   12.7120 C   0  0  0  0  0  3  0  0  0  0  0  0
  -17.7440  -23.3560   13.5380 C   0  0  0  0  0  3  0  0  0  0  0  0
  -14.9310  -23.9340   11.2610 O   0  0  0  0  0  0  0  0  0  0  0  0
  -14.5180  -24.7620   10.2490 C   0  0  0  0  0  0  0  0  0  0  0  0
  -15.0610  -24.6770    8.9480 C   0  0  0  0  0  3  0  0  0  0  0  0
  -14.5570  -25.4990    7.9210 C   0  0  0  0  0  3  0  0  0  0  0  0
  -13.5080  -26.3990    8.1870 C   0  0  0  0  0  0  0  0  0  0  0  0
  -12.9640  -26.4830    9.4820 C   0  0  0  0  0  3  0  0  0  0  0  0
  -13.4650  -25.6630   10.5080 C   0  0  0  0  0  0  0  0  0  0  0  0
  -12.9220  -25.7290   11.7480 F   0  0  0  0  0  0  0  0  0  0  0  0
  -13.0190  -27.1870    7.2000 F   0  0  0  0  0  0  0  0  0  0  0  0
  -21.3730  -23.5520   13.2200 C   0  0  0  0  0  0  0  0  0  0  0  0
  -21.3690  -24.1140   12.0160 N   0  0  0  0  0  0  0  0  0  0  0  0
  -21.8650  -22.4390   13.4010 O   0  0  0  0  0  0  0  0  0  0  0  0
  -20.9790  -25.0340   11.8730 H   0  0  0  0  0  0  0  0  0  0  0  0
  -21.7610  -23.6140   11.2320 H   0  0  0  0  0  0  0  0  0  0  0  0
  -22.7860  -24.4680   15.9490 N   0  0  0  0  0  0  0  0  0  0  0  0
  -23.4340  -23.9120   15.4020 H   0  0  0  0  0  0  0  0  0  0  0  0
  -23.1670  -24.7170   16.8540 H   0  0  0  0  0  0  0  0  0  0  0  0
  -29.9850  -22.5660   20.2830 C   0  0  0  0  0  3  0  0  0  0  0  0
  -31.5590  -23.8110   18.7220 C   0  0  0  0  0  3  0  0  0  0  0  0
  -30.8860  -23.7590   19.8900 C   0  0  0  0  0  0  0  0  0  0  0  0
  -32.5400  -24.9200   18.3310 C   0  0  0  0  0  2  0  0  0  0  0  0
  -31.0490  -24.8690   20.9320 C   0  0  0  0  0  2  0  0  0  0  0  0
  -32.8360  -25.9180   19.4700 C   0  0  0  0  0  2  0  0  0  0  0  0
  -31.6020  -26.1810   20.3400 C   0  0  0  0  0  2  0  0  0  0  0  0
  -30.9720  -21.4450   21.0990 C   0  0  0  0  0  2  0  0  0  0  0  0
  -31.5930  -20.0480   20.7880 O   0  0  0  0  0  0  0  0  0  0  0  0
  -38.9730  -19.6420   20.8190 C   0  0  0  0  0  0  0  0  0  0  0  0
  -32.8630  -19.7570   20.1830 C   0  0  0  0  0  0  0  0  0  0  0  0
  -37.8280  -19.5470   18.6400 C   0  0  0  0  0  3  0  0  0  0  0  0
  -35.2910  -19.1430   18.7130 C   0  0  0  0  0  0  0  0  0  0  0  0
  -36.6460  -18.6780   20.7520 C   0  0  0  0  0  2  0  0  0  0  0  0
  -35.2970  -19.0560   20.1110 C   0  0  0  0  0  0  0  0  0  0  0  0
  -34.0850  -19.3350   20.8430 C   0  0  0  0  0  3  0  0  0  0  0  0
  -32.9200  -19.7670   18.7750 C   0  0  0  0  0  3  0  0  0  0  0  0
  -34.0990  -19.4810   18.0490 C   0  0  0  0  0  3  0  0  0  0  0  0
  -36.5930  -18.8860   17.9650 C   0  0  0  0  0  2  0  0  0  0  0  0
  -37.8490  -19.3070   20.1200 N   0  0  0  0  0  0  0  0  0  0  0  0
  -39.9750  -20.1140   20.2570 O   0  0  0  0  0  0  0  0  0  0  0  0
  -37.8690  -21.0500   18.2650 C   0  0  0  0  0  0  0  0  0  0  0  0
  -38.5790  -21.3940   17.1790 N   0  0  0  0  0  0  0  0  0  0  0  0
  -37.2440  -21.8780   18.9350 O   0  0  0  0  0  0  0  0  0  0  0  0
  -39.0650  -20.6650   16.6770 H   0  0  0  0  0  0  0  0  0  0  0  0
  -40.4720  -23.4510   14.8770 C   0  0  0  0  0  0  0  0  0  0  0  0
  -38.7050  -22.7470   16.6310 C   0  0  0  0  0  3  0  0  0  0  0  0
  -37.6550  -22.9890   15.5210 C   0  0  0  0  0  2  0  0  0  0  0  0
  -38.1780  -22.6870   14.1170 C   0  0  0  0  0  2  0  0  0  0  0  0
  -39.4080  -23.5410   13.7970 C   0  0  0  0  0  2  0  0  0  0  0  0
  -40.1450  -23.0630   16.2050 C   0  0  0  0  0  0  0  0  0  0  0  0
  -41.1750  -22.9600   17.1630 C   0  0  0  0  0  3  0  0  0  0  0  0
  -42.5120  -23.2400   16.8170 C   0  0  0  0  0  3  0  0  0  0  0  0
  -42.8280  -23.6360   15.5060 C   0  0  0  0  0  3  0  0  0  0  0  0
  -41.8130  -23.7410   14.5390 C   0  0  0  0  0  3  0  0  0  0  0  0
  -39.0670  -19.4260   22.3610 C   0  0  0  0  0  3  0  0  0  0  0  0
  -39.2040  -20.7740   23.1720 C   0  0  1  0  0  0  0  0  0  0  0  0
  -40.5890  -21.4450   23.0260 C   0  0  0  0  0  1  0  0  0  0  0  0
  -38.1320  -21.7990   22.7290 C   0  0  0  0  0  1  0  0  0  0  0  0
  -38.9580  -20.5050   24.6780 C   0  0  0  0  0  1  0  0  0  0  0  0
  -40.2260  -18.5590   22.6190 N   0  0  0  0  0  0  0  0  0  0  0  0
  -40.1520  -17.2550   22.9230 C   0  0  0  0  0  0  0  0  0  0  0  0
  -39.0800  -16.6660   23.0880 O   0  0  0  0  0  0  0  0  0  0  0  0
  -41.1360  -18.9620   22.4650 H   0  0  0  0  0  0  0  0  0  0  0  0
  -41.6510  -15.5100   21.9130 C   0  0  0  0  0  1  0  0  0  0  0  0
  -41.4780  -16.4920   23.0830 C   0  0  0  0  0  3  0  0  0  0  0  0
  -42.0670  -16.5860   25.4650 C   0  0  0  0  0  1  0  0  0  0  0  0
  -41.5910  -15.7570   24.3600 N   0  0  0  0  0  0  0  0  0  0  0  0
  -42.2220  -14.9670   24.2620 H   0  0  0  0  0  0  0  0  0  0  0  0
  1  2  1  0
  3  5  1  0
  4  3  2  0
  5 10  1  0
  6  8  2  0
  6  4  1  0
  7  1  1  0
  7  5  2  0
  8  7  1  0
  9  6  1  0
 11  9  1  0
 12  9  1  0
 13 20  2  0
 14 15  1  0
 16 15  1  0
 17 26  1  0
 17 18  1  0
 17 16  1  0
 18 19  1  0
 19 14  1  0
 19 13  1  0
 21  4  1  0
 21 13  1  0
 22 21  1  0
 23 48  1  0
 23 26  1  0
 24 25  1  0
 24 23  2  0
 25 27  2  0
 27 26  1  0
 28 25  1  0
 29 28  2  0
 30 29  1  0
 31 30  2  0
 31 32  1  0
 32 33  2  0
 33 28  1  0
 34 31  1  0
 35 40  1  0
 35 34  1  0
 36 35  2  0
 37 38  2  0
 37 36  1  0
 38 39  1  0
 39 40  2  0
 40 41  1  0
 42 38  1  0
 43 45  2  0
 43 24  1  0
 44 43  1  0
 46 44  1  0
 47 44  1  0
 48 50  1  0
 49 48  1  0
 51  1  1  0
 51 58  1  0
 52 53  2  0
 53 51  1  0
 53 55  1  0
 54 52  1  0
 54 56  1  0
 56 57  1  0
 57 55  1  0
 59 58  1  0
 61 59  1  0
 61 66  1  0
 62 72  1  0
 62 70  1  0
 63 65  1  0
 65 64  1  0
 65 66  2  0
 67 61  2  0
 68 63  2  0
 68 67  1  0
 69 62  1  0
 69 63  1  0
 70 64  1  0
 70 60  1  0
 71 60  2  0
 72 74  2  0
 73 72  1  0
 75 73  1  0
 76 81  1  0
 77 73  1  0
 78 77  1  0
 79 78  1  0
 80 79  1  0
 80 76  1  0
 81 77  1  0
 81 82  2  0
 83 82  1  0
 84 83  2  0
 85 76  2  0
 85 84  1  0
 86 60  1  0
 86 91  1  0
 86 87  1  0
 87 90  1  1
 88 87  1  0
 89 87  1  0
 91 92  1  0
 92 96  1  0
 92 93  2  0
 94 91  1  0
 96 95  1  0
 96 98  1  0
 98 97  1  0
 99 98  1  0
M  ISO  4  13 100  21 100  58 101  59 101
M  END
>  <TORSDO>  (72) 
F 20

>  <SCORE>  (72) 
-5.504

>  <name>  (72) 
71

>  <ligand_id>  (72) 
71

>  <original_smiles>  (72) 
[H]C1=C(C([H])(N([H])c2nc(N([H])[H])c(N([H])C(=O)N3C([H])([H])C([H])([H])C([H])([H])C([H])(n4nc(-c5c([H])c([H])c(Oc6c([H])c([H])c(F)c([H])c6F)c([H])c5[H])c(C(=O)N([H])[H])c4N([H])[H])C3([H])[H])c([H])c2Cl)C([H])([H])Oc2c([H])c([H])c3c(c2[H])C([H])([H])N(C(=O)C([H])(N([H])C(=O)C([H])(N([H])C([H])([H])[H])C([H])([H])[H])C(C([H])([H])[H])(C([H])([H])[H])C([H])([H])[H])C([H])(C(=O)N([H])C2([H])c4c([H])c([H])c([H])c([H])c4C([H])([H])C([H])([H])C2([H])[H])C3([H])[H])C([H])([H])C([H])([H])C([H])([H])C1([H])[H]

>  <smiles>  (72) 
[H]C1=C(C([H])(N([H])c2nc(N([H])[H])c(N([H])C(=O)N3C([H])([H])C([H])([H])C([H])([H])C([H])(n4nc(-c5c([H])c([H])c(Oc6c([H])c([H])c(F)c([H])c6F)c([H])c5[H])c(C(=O)N([H])[H])c4N([H])[H])C3([H])[H])c([H])c2Cl)C([H])([H])Oc2c([H])c([H])c3c(c2[H])C([H])([H])N(C(=O)C([H])(N([H])C(=O)C([H])(N([H])C([H])([H])[H])C([H])([H])[H])C(C([H])([H])[H])(C([H])([H])[H])C([H])([H])[H])C([H])(C(=O)N([H])C2([H])c4c([H])c([H])c([H])c([H])c4C([H])([H])C([H])([H])C2([H])[H])C3([H])[H])C([H])([H])C([H])([H])C([H])([H])C1([H])[H]

$$$$
72:0:0
     RDKit          3D

 96105  0  0  1  0  0  0  0  0999 V2000
  -30.0060  -18.5500   19.8370 C   0  0  0  0  0  3  0  0  0  0  0  0
  -27.8970  -19.7150   19.4770 C   0  0  0  0  0  3  0  0  0  0  0  0
  -29.3840  -17.2140   19.8890 C   0  0  0  0  0  0  0  0  0  0  0  0
  -27.9500  -17.2500   19.6950 C   0  0  0  0  0  0  0  0  0  0  0  0
  -27.2510  -18.4730   19.4780 C   0  0  0  0  0  0  0  0  0  0  0  0
  -29.2790  -19.8220   19.6500 C   0  0  0  0  0  0  0  0  0  0  0  0
  -25.8690  -18.5000   19.2690 N   0  0  0  0  0  0  0  0  0  0  0  0
  -25.3650  -19.3700   19.3950 H   0  0  0  0  0  0  0  0  0  0  0  0
  -25.3270  -17.6830   19.5250 H   0  0  0  0  0  0  0  0  0  0  0  0
  -30.0190  -15.8360   20.4210 C   0  0  0  0  0  0  0  0  0  0  0  0
  -30.1860  -15.7770   21.6760 N   0  0  0  0  0  0  0  0  0  0  0  0
  -29.8570  -16.6280   22.1170 H   0  0  0  0  0  0  0  0  0  0  0  0
  -30.5470  -14.5170   19.6400 C   0  0  0  0  0  0  0  0  0  0  0  0
  -30.4540  -12.0730   19.0200 C   0  0  0  0  0  2  0  0  0  0  0  0
  -29.4870  -11.8650   17.8320 C   0  0  0  0  0  2  0  0  0  0  0  0
  -28.0340  -11.7090   18.3230 C   0  0  0  0  0  2  0  0  0  0  0  0
  -27.6540  -12.7750   19.3860 C   0  0  0  0  0  3  0  0  0  0  0  0
  -28.7440  -12.8760   20.4790 C   0  0  0  0  0  2  0  0  0  0  0  0
  -29.9930  -13.2510   19.8070 N   0  0  0  0  0  0  0  0  0  0  0  0
  -31.6140  -14.6040   19.0170 O   0  0  0  0  0  0  0  0  0  0  0  0
  -25.3000  -13.4360   20.1570 C   0  0  0  0  0  0  0  0  0  0  0  0
  -24.2450  -12.7010   20.6240 C   0  0  0  0  0  0  0  0  0  0  0  0
  -24.6890  -11.3440   20.6480 C   0  0  0  0  0  0  0  0  0  0  0  0
  -26.3270  -12.5320   19.9410 N   0  0  0  0  0  0  0  0  0  0  0  0
  -25.9660  -11.2700   20.2890 N   0  0  0  0  0  0  0  0  0  0  0  0
  -23.9540  -10.1060   20.9380 C   0  0  0  0  0  0  0  0  0  0  0  0
  -24.4160   -9.1810   21.9010 C   0  0  0  0  0  3  0  0  0  0  0  0
  -23.6800   -8.0080   22.1750 C   0  0  0  0  0  3  0  0  0  0  0  0
  -22.4700   -7.7510   21.4890 C   0  0  0  0  0  0  0  0  0  0  0  0
  -22.0270   -8.6630   20.5140 C   0  0  0  0  0  3  0  0  0  0  0  0
  -22.7630   -9.8270   20.2380 C   0  0  0  0  0  3  0  0  0  0  0  0
  -21.7030   -6.6250   21.6720 O   0  0  0  0  0  0  0  0  0  0  0  0
  -21.6910   -5.9500   22.8660 C   0  0  0  0  0  0  0  0  0  0  0  0
  -21.3150   -6.5770   24.0730 C   0  0  0  0  0  3  0  0  0  0  0  0
  -21.2500   -5.8270   25.2650 C   0  0  0  0  0  3  0  0  0  0  0  0
  -21.5500   -4.4530   25.2510 C   0  0  0  0  0  0  0  0  0  0  0  0
  -21.9210   -3.8250   24.0480 C   0  0  0  0  0  3  0  0  0  0  0  0
  -21.9870   -4.5720   22.8580 C   0  0  0  0  0  0  0  0  0  0  0  0
  -22.3240   -3.9580   21.6980 F   0  0  0  0  0  0  0  0  0  0  0  0
  -21.4810   -3.7300   26.3940 F   0  0  0  0  0  0  0  0  0  0  0  0
  -22.8690  -13.2160   20.9330 C   0  0  0  0  0  0  0  0  0  0  0  0
  -22.1800  -12.5910   21.8810 N   0  0  0  0  0  0  0  0  0  0  0  0
  -22.4140  -14.2090   20.3670 O   0  0  0  0  0  0  0  0  0  0  0  0
  -22.5610  -11.7880   22.3610 H   0  0  0  0  0  0  0  0  0  0  0  0
  -21.2590  -12.9200   22.1340 H   0  0  0  0  0  0  0  0  0  0  0  0
  -25.4630  -14.7870   19.8750 N   0  0  0  0  0  4  0  0  0  0  0  0
  -24.7060  -15.4530   19.9820 H   0  0  0  0  0  0  0  0  0  0  0  0
  -26.2960  -15.2000   19.4790 H   0  0  0  0  0  0  0  0  0  0  0  0
  -26.3610  -15.7620   21.0900 C   0  0  0  0  0  2  0  0  0  0  0  0
  -27.0720  -15.9880   19.7430 C   0  0  0  0  0  2  0  0  0  0  0  0
  -29.8210  -21.1430   19.5220 O   0  0  0  0  0  0  0  0  0  0  0  0
  -29.3990  -22.3410   20.3580 C   0  0  0  0  0  2  0  0  0  0  0  0
  -28.4110  -23.5030   19.8020 C   0  0  0  0  0  0  0  0  0  0  0  0
  -27.2190  -23.2210   19.6370 O   0  0  0  0  0  0  0  0  0  0  0  0
  -28.8890  -25.0110   19.4440 C   0  0  0  0  0  2  0  0  0  0  0  0
  -28.5150  -26.2200   20.2840 O   0  0  0  0  0  0  0  0  0  0  0  0
  -24.5580  -31.6020   23.1120 C   0  0  0  0  0  0  0  0  0  0  0  0
  -27.3880  -27.0680   20.1220 C   0  0  0  0  0  0  0  0  0  0  0  0
  -23.4490  -30.1840   21.4210 C   0  0  0  0  0  3  0  0  0  0  0  0
  -24.9880  -28.6680   20.0300 C   0  0  0  0  0  0  0  0  0  0  0  0
  -25.9880  -30.5480   21.3340 C   0  0  0  0  0  2  0  0  0  0  0  0
  -26.1220  -29.1700   20.6790 C   0  0  0  0  0  0  0  0  0  0  0  0
  -27.3170  -28.3780   20.7180 C   0  0  0  0  0  3  0  0  0  0  0  0
  -26.2310  -26.6350   19.4400 C   0  0  0  0  0  3  0  0  0  0  0  0
  -25.0490  -27.4120   19.4010 C   0  0  0  0  0  3  0  0  0  0  0  0
  -23.7290  -29.5190   20.0460 C   0  0  0  0  0  2  0  0  0  0  0  0
  -24.6810  -30.7990   22.0120 N   0  0  0  0  0  0  0  0  0  0  0  0
  -23.4500  -31.8510   23.6100 O   0  0  0  0  0  0  0  0  0  0  0  0
  -22.7730  -29.1520   22.3560 C   0  0  0  0  0  0  0  0  0  0  0  0
  -21.4480  -28.9790   22.2140 N   0  0  0  0  0  0  0  0  0  0  0  0
  -23.4430  -28.5100   23.1700 O   0  0  0  0  0  0  0  0  0  0  0  0
  -20.9660  -29.5480   21.5330 H   0  0  0  0  0  0  0  0  0  0  0  0
  -18.0590  -27.8010   22.6980 C   0  0  0  0  0  0  0  0  0  0  0  0
  -20.6230  -28.0220   22.9550 C   0  0  0  0  0  3  0  0  0  0  0  0
  -20.7030  -26.6120   22.3250 C   0  0  0  0  0  2  0  0  0  0  0  0
  -19.5900  -26.3410   21.3080 C   0  0  0  0  0  2  0  0  0  0  0  0
  -18.2150  -26.4770   21.9690 C   0  0  0  0  0  2  0  0  0  0  0  0
  -19.1900  -28.5330   23.1470 C   0  0  0  0  0  0  0  0  0  0  0  0
  -18.9900  -29.7740   23.7910 C   0  0  0  0  0  3  0  0  0  0  0  0
  -17.6920  -30.2820   23.9880 C   0  0  0  0  0  3  0  0  0  0  0  0
  -16.5760  -29.5450   23.5540 C   0  0  0  0  0  3  0  0  0  0  0  0
  -16.7600  -28.3070   22.9150 C   0  0  0  0  0  3  0  0  0  0  0  0
  -25.8010  -32.2650   23.7840 C   0  0  0  0  0  3  0  0  0  0  0  0
  -25.4460  -33.6540   24.1100 N   0  0  0  0  0  0  0  0  0  0  0  0
  -25.7710  -34.7200   23.3660 C   0  0  0  0  0  0  0  0  0  0  0  0
  -26.4700  -34.6380   22.3520 O   0  0  0  0  0  0  0  0  0  0  0  0
  -24.8260  -33.7900   24.8960 H   0  0  0  0  0  0  0  0  0  0  0  0
  -23.9950  -36.4640   22.9920 C   0  0  0  0  0  1  0  0  0  0  0  0
  -25.2390  -36.0950   23.8170 C   0  0  0  0  0  3  0  0  0  0  0  0
  -27.3370  -37.0440   24.6720 C   0  0  0  0  0  1  0  0  0  0  0  0
  -26.2420  -37.1770   23.7140 N   0  0  0  0  0  0  0  0  0  0  0  0
  -25.8070  -38.0850   23.8540 H   0  0  0  0  0  0  0  0  0  0  0  0
  -26.2860  -31.5030   25.0790 C   0  0  1  0  0  0  0  0  0  0  0  0
  -25.1600  -31.2400   26.1060 C   0  0  0  0  0  1  0  0  0  0  0  0
  -26.9130  -30.1380   24.7090 C   0  0  0  0  0  1  0  0  0  0  0  0
  -27.3960  -32.3200   25.7830 C   0  0  0  0  0  1  0  0  0  0  0  0
  1  3  1  0
  2  5  2  0
  2  6  1  0
  3 10  1  0
  4 50  1  0
  4  3  2  0
  5  4  1  0
  6  1  2  0
  7  8  1  0
  7  5  1  0
  7  9  1  0
 10 11  2  0
 11 12  1  0
 13 19  1  0
 13 10  1  0
 14 19  1  0
 15 16  1  0
 15 14  1  0
 17 16  1  0
 17 24  1  0
 17 18  1  0
 19 18  1  0
 20 13  2  0
 21 22  2  0
 22 23  1  0
 22 41  1  0
 23 26  1  0
 24 21  1  0
 24 25  1  0
 25 23  2  0
 26 27  1  0
 27 28  2  0
 29 32  1  0
 29 28  1  0
 30 29  2  0
 31 30  1  0
 31 26  2  0
 32 33  1  0
 33 34  1  0
 34 35  2  0
 36 35  1  0
 36 40  1  0
 37 36  2  0
 38 33  2  0
 38 37  1  0
 39 38  1  0
 41 42  1  0
 42 45  1  0
 42 44  1  0
 43 41  2  0
 46 47  1  0
 46 21  1  0
 46 49  1  0
 48 46  1  0
 50 49  1  0
 51  6  1  0
 51 52  1  0
 53 52  1  0
 54 53  2  0
 55 53  1  0
 55 56  1  0
 57 68  2  0
 58 56  1  0
 58 63  1  0
 59 67  1  0
 59 69  1  0
 60 66  1  0
 60 62  1  0
 61 67  1  0
 62 63  2  0
 62 61  1  0
 64 58  2  0
 65 64  1  0
 65 60  2  0
 66 59  1  0
 67 57  1  0
 69 71  2  0
 70 69  1  0
 72 70  1  0
 73 82  2  0
 73 78  1  0
 74 70  1  0
 74 78  1  0
 75 74  1  0
 76 77  1  0
 76 75  1  0
 77 73  1  0
 78 79  2  0
 79 80  1  0
 81 80  2  0
 82 81  1  0
 83 57  1  0
 83 84  1  0
 83 93  1  0
 84 87  1  0
 85 89  1  0
 85 84  1  0
 86 85  2  0
 89 88  1  0
 91 89  1  0
 91 92  1  0
 91 90  1  0
 93 96  1  1
 93 94  1  0
 95 93  1  0
M  ISO  4  10 100  13 100  55 101  56 101
M  END
>  <TORSDO>  (73) 
F 23

>  <SCORE>  (73) 
-11.842

>  <name>  (73) 
72

>  <ligand_id>  (73) 
72

>  <original_smiles>  (73) 
[H]N=C(C(=O)N1C([H])([H])C([H])([H])C([H])([H])C([H])(n2nc(-c3c([H])c([H])c(Oc4c([H])c([H])c(F)c([H])c4F)c([H])c3[H])c(C(=O)N([H])[H])c2N([H])[H])C1([H])[H])c1c([H])c(OC([H])([H])C(=O)C([H])([H])Oc2c([H])c([H])c3c(c2[H])C([H])([H])N(C(=O)C([H])(N([H])C(=O)C([H])(N([H])C([H])([H])[H])C([H])([H])[H])C(C([H])([H])[H])(C([H])([H])[H])C([H])([H])[H])C([H])(C(=O)N([H])C2([H])c4c([H])c([H])c([H])c([H])c4C([H])([H])C([H])([H])C2([H])[H])C3([H])[H])c([H])c(N([H])[H])c1C([H])([H])C([H])([H])[H]

>  <smiles>  (73) 
[H]N=C(C(=O)N1C([H])([H])C([H])([H])C([H])([H])C([H])(n2nc(-c3c([H])c([H])c(Oc4c([H])c([H])c(F)c([H])c4F)c([H])c3[H])c(C(=O)N([H])[H])c2N([H])[H])C1([H])[H])c1c([H])c(OC([H])([H])C(=O)C([H])([H])Oc2c([H])c([H])c3c(c2[H])C([H])([H])N(C(=O)C([H])(N([H])C(=O)C([H])(N([H])C([H])([H])[H])C([H])([H])[H])C(C([H])([H])[H])(C([H])([H])[H])C([H])([H])[H])C([H])(C(=O)N([H])C2([H])c4c([H])c([H])c([H])c([H])c4C([H])([H])C([H])([H])C2([H])[H])C3([H])[H])c([H])c(N([H])[H])c1C([H])([H])C([H])([H])[H]

$$$$
73:0:0
     RDKit          3D

 94102  0  0  1  0  0  0  0  0999 V2000
  -31.2110  -18.9940   22.3340 C   0  0  0  0  0  3  0  0  0  0  0  0
  -30.5830  -20.1090   21.7480 C   0  0  0  0  0  3  0  0  0  0  0  0
  -30.9460  -17.6720   21.9180 C   0  0  0  0  0  0  0  0  0  0  0  0
  -29.6450  -19.9690   20.7050 C   0  0  0  0  0  0  0  0  0  0  0  0
  -30.0530  -17.4090   20.8440 C   0  0  0  0  0  0  0  0  0  0  0  0
  -29.4000  -18.5890   20.2640 C   0  0  0  0  0  0  0  0  0  0  0  0
  -28.5060  -18.3920   19.2640 F   0  0  0  0  0  0  0  0  0  0  0  0
  -30.5250  -14.8710   20.2410 C   0  0  0  0  0  0  0  0  0  0  0  0
  -30.3230  -12.6170   19.1520 C   0  0  0  0  0  2  0  0  0  0  0  0
  -29.3540  -12.6960   17.9520 C   0  0  0  0  0  2  0  0  0  0  0  0
  -27.8980  -12.4950   18.4140 C   0  0  0  0  0  2  0  0  0  0  0  0
  -27.5430  -13.3550   19.6560 C   0  0  0  0  0  3  0  0  0  0  0  0
  -28.6260  -13.2560   20.7500 C   0  0  0  0  0  2  0  0  0  0  0  0
  -29.9010  -13.6450   20.1320 N   0  0  0  0  0  0  0  0  0  0  0  0
  -31.7050  -14.9780   19.8940 O   0  0  0  0  0  0  0  0  0  0  0  0
  -29.7330  -15.9910   20.4890 N   0  0  0  0  0  0  0  0  0  0  0  0
  -28.7450  -15.7980   20.4580 H   0  0  0  0  0  0  0  0  0  0  0  0
  -25.1600  -13.9110   20.4190 C   0  0  0  0  0  0  0  0  0  0  0  0
  -24.1110  -13.1220   20.8070 C   0  0  0  0  0  0  0  0  0  0  0  0
  -24.5950  -11.7790   20.7740 C   0  0  0  0  0  0  0  0  0  0  0  0
  -26.2130  -13.0470   20.1690 N   0  0  0  0  0  0  0  0  0  0  0  0
  -25.8820  -11.7600   20.4470 N   0  0  0  0  0  0  0  0  0  0  0  0
  -23.8910  -10.5050   20.9760 C   0  0  0  0  0  0  0  0  0  0  0  0
  -24.3410   -9.5540   21.9170 C   0  0  0  0  0  3  0  0  0  0  0  0
  -23.6340   -8.3470   22.1070 C   0  0  0  0  0  3  0  0  0  0  0  0
  -22.4640   -8.0830   21.3550 C   0  0  0  0  0  0  0  0  0  0  0  0
  -22.0340   -9.0240   20.4040 C   0  0  0  0  0  3  0  0  0  0  0  0
  -22.7410  -10.2220   20.2120 C   0  0  0  0  0  3  0  0  0  0  0  0
  -21.7300   -6.9250   21.4550 O   0  0  0  0  0  0  0  0  0  0  0  0
  -21.6880   -6.1970   22.6170 C   0  0  0  0  0  0  0  0  0  0  0  0
  -21.2470   -6.7590   23.8340 C   0  0  0  0  0  3  0  0  0  0  0  0
  -21.1540   -5.9550   24.9880 C   0  0  0  0  0  3  0  0  0  0  0  0
  -21.4920   -4.5910   24.9250 C   0  0  0  0  0  0  0  0  0  0  0  0
  -21.9260   -4.0270   23.7120 C   0  0  0  0  0  3  0  0  0  0  0  0
  -22.0210   -4.8280   22.5610 C   0  0  0  0  0  0  0  0  0  0  0  0
  -22.4200   -4.2750   21.3900 F   0  0  0  0  0  0  0  0  0  0  0  0
  -21.3950   -3.8160   26.0310 F   0  0  0  0  0  0  0  0  0  0  0  0
  -22.7110  -13.5790   21.0950 C   0  0  0  0  0  0  0  0  0  0  0  0
  -22.0010  -12.8720   21.9660 N   0  0  0  0  0  0  0  0  0  0  0  0
  -22.2540  -14.6000   20.5810 O   0  0  0  0  0  0  0  0  0  0  0  0
  -22.3830  -12.0460   22.4030 H   0  0  0  0  0  0  0  0  0  0  0  0
  -21.0630  -13.1610   22.2010 H   0  0  0  0  0  0  0  0  0  0  0  0
  -25.2980  -15.2840   20.2350 N   0  0  0  0  0  0  0  0  0  0  0  0
  -24.5170  -15.9200   20.3530 H   0  0  0  0  0  0  0  0  0  0  0  0
  -26.1180  -15.7370   19.8540 H   0  0  0  0  0  0  0  0  0  0  0  0
  -31.5420  -16.6420   22.6480 N   0  0  0  0  0  0  0  0  0  0  0  0
  -31.9350  -16.8600   23.5580 H   0  0  0  0  0  0  0  0  0  0  0  0
  -31.1210  -15.7240   22.6130 H   0  0  0  0  0  0  0  0  0  0  0  0
  -29.0490  -21.1800   20.1400 N   0  0  0  0  0  0  0  0  0  0  0  0
  -28.4380  -20.9880   19.3480 H   0  0  0  0  0  0  0  0  0  0  0  0
  -28.7120  -22.4580   20.9080 C   0  0  0  0  0  2  0  0  0  0  0  0
  -28.8670  -23.9400   20.3140 C   0  0  0  0  0  3  0  0  0  0  0  0
  -28.1090  -25.0730   20.6100 C   0  0  0  0  0  3  0  0  0  0  0  0
  -28.3040  -26.4350   20.2070 O   0  0  0  0  0  0  0  0  0  0  0  0
  -24.6080  -31.9530   23.2340 C   0  0  0  0  0  0  0  0  0  0  0  0
  -27.2140  -27.3400   20.2020 C   0  0  0  0  0  0  0  0  0  0  0  0
  -23.4060  -30.5470   21.6020 C   0  0  0  0  0  3  0  0  0  0  0  0
  -24.8580  -28.9880   20.1780 C   0  0  0  0  0  0  0  0  0  0  0  0
  -25.9480  -30.8570   21.4160 C   0  0  0  0  0  2  0  0  0  0  0  0
  -26.0310  -29.4700   20.7750 C   0  0  0  0  0  0  0  0  0  0  0  0
  -27.2140  -28.6590   20.7760 C   0  0  0  0  0  3  0  0  0  0  0  0
  -26.0200  -26.9260   19.5770 C   0  0  0  0  0  3  0  0  0  0  0  0
  -24.8580  -27.7230   19.5670 C   0  0  0  0  0  3  0  0  0  0  0  0
  -23.6210  -29.8660   20.2230 C   0  0  0  0  0  2  0  0  0  0  0  0
  -24.6730  -31.1380   22.1400 N   0  0  0  0  0  0  0  0  0  0  0  0
  -23.5250  -32.2310   23.7690 O   0  0  0  0  0  0  0  0  0  0  0  0
  -22.7450  -29.5330   22.5680 C   0  0  0  0  0  0  0  0  0  0  0  0
  -21.4190  -29.3520   22.4440 N   0  0  0  0  0  0  0  0  0  0  0  0
  -23.4260  -28.9130   23.3890 O   0  0  0  0  0  0  0  0  0  0  0  0
  -20.9280  -29.9030   21.7550 H   0  0  0  0  0  0  0  0  0  0  0  0
  -18.0450  -28.1470   22.9590 C   0  0  0  0  0  0  0  0  0  0  0  0
  -20.6040  -28.4150   23.2200 C   0  0  0  0  0  3  0  0  0  0  0  0
  -20.7080  -26.9810   22.6490 C   0  0  0  0  0  2  0  0  0  0  0  0
  -19.6030  -26.6540   21.6390 C   0  0  0  0  0  2  0  0  0  0  0  0
  -18.2240  -26.7970   22.2860 C   0  0  0  0  0  2  0  0  0  0  0  0
  -19.1630  -28.9140   23.3830 C   0  0  0  0  0  0  0  0  0  0  0  0
  -18.9410  -30.1770   23.9720 C   0  0  0  0  0  3  0  0  0  0  0  0
  -17.6340  -30.6740   24.1420 C   0  0  0  0  0  3  0  0  0  0  0  0
  -16.5320  -29.9030   23.7330 C   0  0  0  0  0  3  0  0  0  0  0  0
  -16.7390  -28.6430   23.1470 C   0  0  0  0  0  3  0  0  0  0  0  0
  -25.8890  -32.5930   23.8520 C   0  0  0  0  0  3  0  0  0  0  0  0
  -26.4080  -31.8300   25.1340 C   0  0  1  0  0  0  0  0  0  0  0  0
  -25.3140  -31.5940   26.2020 C   0  0  0  0  0  1  0  0  0  0  0  0
  -26.9980  -30.4530   24.7510 C   0  0  0  0  0  1  0  0  0  0  0  0
  -27.5530  -32.6340   25.7940 C   0  0  0  0  0  1  0  0  0  0  0  0
  -25.5760  -33.9920   24.1780 N   0  0  0  0  0  0  0  0  0  0  0  0
  -25.9070  -35.0440   23.4180 C   0  0  0  0  0  0  0  0  0  0  0  0
  -26.5760  -34.9400   22.3860 O   0  0  0  0  0  0  0  0  0  0  0  0
  -24.9800  -34.1470   24.9780 H   0  0  0  0  0  0  0  0  0  0  0  0
  -24.1800  -36.8400   23.0590 C   0  0  0  0  0  1  0  0  0  0  0  0
  -25.4180  -36.4340   23.8740 C   0  0  0  0  0  3  0  0  0  0  0  0
  -27.5510  -37.3180   24.7110 C   0  0  0  0  0  1  0  0  0  0  0  0
  -26.4510  -37.4870   23.7640 N   0  0  0  0  0  0  0  0  0  0  0  0
  -26.0440  -38.4060   23.9120 H   0  0  0  0  0  0  0  0  0  0  0  0
  2  1  2  0
  3  1  1  0
  3 46  1  0
  4  2  1  0
  5  3  2  0
  6  4  2  0
  6  5  1  0
  7  6  1  0
  8 16  1  0
  9 14  1  0
 10 11  1  0
 10  9  1  0
 12 11  1  0
 12 21  1  0
 12 13  1  0
 14  8  1  0
 14 13  1  0
 15  8  2  0
 16  5  1  0
 17 16  1  0
 18 19  2  0
 19 38  1  0
 20 19  1  0
 20 23  1  0
 21 18  1  0
 21 22  1  0
 22 20  2  0
 23 24  1  0
 24 25  2  0
 26 29  1  0
 26 25  1  0
 27 26  2  0
 28 27  1  0
 28 23  2  0
 29 30  1  0
 30 31  1  0
 31 32  2  0
 33 32  1  0
 33 37  1  0
 34 33  2  0
 35 30  2  0
 35 34  1  0
 36 35  1  0
 38 39  1  0
 39 42  1  0
 39 41  1  0
 40 38  2  0
 43 44  1  0
 43 18  1  0
 45 43  1  0
 46 47  1  0
 48 46  1  0
 49  4  1  0
 49 51  1  0
 50 49  1  0
 52 53  2  0
 52 51  1  0
 54 53  1  0
 55 66  2  0
 56 54  1  0
 56 61  1  0
 57 65  1  0
 57 67  1  0
 58 64  1  0
 58 60  1  0
 59 65  1  0
 60 61  2  0
 60 59  1  0
 62 56  2  0
 63 62  1  0
 63 58  2  0
 64 57  1  0
 65 55  1  0
 67 69  2  0
 68 67  1  0
 70 68  1  0
 71 80  2  0
 71 76  1  0
 72 68  1  0
 72 76  1  0
 73 72  1  0
 74 75  1  0
 74 73  1  0
 75 71  1  0
 76 77  2  0
 77 78  1  0
 79 78  2  0
 80 79  1  0
 81 55  1  0
 81 86  1  0
 81 82  1  0
 82 85  1  1
 82 83  1  0
 84 82  1  0
 86 89  1  0
 87 91  1  0
 87 86  1  0
 88 87  2  0
 91 90  1  0
 93 91  1  0
 93 94  1  0
 93 92  1  0
M  ISO  4   8 100  16 100  53 101  54 101
M  END
>  <TORSDO>  (74) 
F 20

>  <SCORE>  (74) 
-13.630

>  <name>  (74) 
73

>  <ligand_id>  (74) 
73

>  <original_smiles>  (74) 
[H]C(Oc1c([H])c([H])c2c(c1[H])C([H])([H])N(C(=O)C([H])(N([H])C(=O)C([H])(N([H])C([H])([H])[H])C([H])([H])[H])C(C([H])([H])[H])(C([H])([H])[H])C([H])([H])[H])C([H])(C(=O)N([H])C1([H])c3c([H])c([H])c([H])c([H])c3C([H])([H])C([H])([H])C1([H])[H])C2([H])[H])=C([H])C([H])([H])N([H])c1c([H])c([H])c(N([H])[H])c(N([H])C(=O)N2C([H])([H])C([H])([H])C([H])([H])C([H])(n3nc(-c4c([H])c([H])c(Oc5c([H])c([H])c(F)c([H])c5F)c([H])c4[H])c(C(=O)N([H])[H])c3N([H])[H])C2([H])[H])c1F

>  <smiles>  (74) 
[H]C(Oc1c([H])c([H])c2c(c1[H])C([H])([H])N(C(=O)C([H])(N([H])C(=O)C([H])(N([H])C([H])([H])[H])C([H])([H])[H])C(C([H])([H])[H])(C([H])([H])[H])C([H])([H])[H])C([H])(C(=O)N([H])C1([H])c3c([H])c([H])c([H])c([H])c3C([H])([H])C([H])([H])C1([H])[H])C2([H])[H])=C([H])C([H])([H])N([H])c1c([H])c([H])c(N([H])[H])c(N([H])C(=O)N2C([H])([H])C([H])([H])C([H])([H])C([H])(n3nc(-c4c([H])c([H])c(Oc5c([H])c([H])c(F)c([H])c5F)c([H])c4[H])c(C(=O)N([H])[H])c3N([H])[H])C2([H])[H])c1F

$$$$
74:0:0
     RDKit          3D

 99107  0  0  1  0  0  0  0  0999 V2000
  -31.4110  -20.1030   20.8660 C   0  0  0  0  0  3  0  0  0  0  0  0
  -29.6060  -18.4850   20.7010 C   0  0  0  0  0  3  0  0  0  0  0  0
  -31.9040  -17.7170   20.9770 C   0  0  0  0  0  3  0  0  0  0  0  0
  -30.0270  -19.8620   20.7310 C   0  0  0  0  0  0  0  0  0  0  0  0
  -32.3400  -19.0570   21.0010 C   0  0  0  0  0  0  0  0  0  0  0  0
  -30.5420  -17.3950   20.7880 C   0  0  0  0  0  0  0  0  0  0  0  0
  -30.9420  -14.8990   20.5450 C   0  0  0  0  0  0  0  0  0  0  0  0
  -30.7870  -12.5930   19.6490 C   0  0  0  0  0  2  0  0  0  0  0  0
  -29.9070  -12.6120   18.3810 C   0  0  0  0  0  2  0  0  0  0  0  0
  -28.4200  -12.4600   18.7550 C   0  0  0  0  0  2  0  0  0  0  0  0
  -27.9860  -13.4200   19.8970 C   0  0  0  0  0  3  0  0  0  0  0  0
  -28.9900  -13.3840   21.0720 C   0  0  0  0  0  2  0  0  0  0  0  0
  -30.3190  -13.6840   20.5240 N   0  0  0  0  0  0  0  0  0  0  0  0
  -32.1240  -15.0170   20.2040 O   0  0  0  0  0  0  0  0  0  0  0  0
  -30.1470  -15.9950   20.7450 N   0  0  0  0  0  0  0  0  0  0  0  0
  -29.1620  -15.7960   20.8430 H   0  0  0  0  0  0  0  0  0  0  0  0
  -25.5870  -14.0370   20.5800 C   0  0  0  0  0  0  0  0  0  0  0  0
  -24.5010  -13.2690   20.9020 C   0  0  0  0  0  0  0  0  0  0  0  0
  -24.9410  -11.9130   20.8360 C   0  0  0  0  0  0  0  0  0  0  0  0
  -26.6220  -13.1470   20.3400 N   0  0  0  0  0  0  0  0  0  0  0  0
  -26.2370  -11.8640   20.5530 N   0  0  0  0  0  0  0  0  0  0  0  0
  -24.1910  -10.6570   20.9660 C   0  0  0  0  0  0  0  0  0  0  0  0
  -24.6030   -9.6370   21.8500 C   0  0  0  0  0  3  0  0  0  0  0  0
  -23.8520   -8.4470   21.9710 C   0  0  0  0  0  3  0  0  0  0  0  0
  -22.6750   -8.2700   21.2060 C   0  0  0  0  0  0  0  0  0  0  0  0
  -22.2830   -9.2790   20.3080 C   0  0  0  0  0  3  0  0  0  0  0  0
  -23.0350  -10.4600   20.1850 C   0  0  0  0  0  3  0  0  0  0  0  0
  -21.8960   -7.1390   21.2380 O   0  0  0  0  0  0  0  0  0  0  0  0
  -21.7820   -6.3780   22.3740 C   0  0  0  0  0  0  0  0  0  0  0  0
  -21.2980   -6.9160   23.5860 C   0  0  0  0  0  3  0  0  0  0  0  0
  -21.1300   -6.0820   24.7100 C   0  0  0  0  0  3  0  0  0  0  0  0
  -21.4370   -4.7100   24.6210 C   0  0  0  0  0  0  0  0  0  0  0  0
  -21.9140   -4.1720   23.4140 C   0  0  0  0  0  3  0  0  0  0  0  0
  -22.0830   -5.0030   22.2920 C   0  0  0  0  0  0  0  0  0  0  0  0
  -22.5230   -4.4760   21.1240 F   0  0  0  0  0  0  0  0  0  0  0  0
  -21.2690   -3.9070   25.6970 F   0  0  0  0  0  0  0  0  0  0  0  0
  -23.1060  -13.7620   21.1580 C   0  0  0  0  0  0  0  0  0  0  0  0
  -22.3520  -13.0590   21.9950 N   0  0  0  0  0  0  0  0  0  0  0  0
  -22.6930  -14.8050   20.6510 O   0  0  0  0  0  0  0  0  0  0  0  0
  -22.6970  -12.2130   22.4260 H   0  0  0  0  0  0  0  0  0  0  0  0
  -21.4150  -13.3710   22.2100 H   0  0  0  0  0  0  0  0  0  0  0  0
  -25.7790  -15.4090   20.4480 N   0  0  0  0  0  0  0  0  0  0  0  0
  -25.0160  -16.0720   20.5430 H   0  0  0  0  0  0  0  0  0  0  0  0
  -26.6320  -15.8380   20.1150 H   0  0  0  0  0  0  0  0  0  0  0  0
  -29.1010  -21.0600   20.6620 C   0  0  0  0  0  3  0  0  0  0  0  0
  -29.4480  -22.3580   20.9400 C   0  0  0  0  0  3  0  0  0  0  0  0
  -28.5850  -23.5900   20.8370 C   0  0  0  0  0  0  0  0  0  0  0  0
  -27.5150  -23.5870   20.2210 O   0  0  0  0  0  0  0  0  0  0  0  0
  -29.0880  -24.8080   21.5600 C   0  0  0  0  0  3  0  0  0  0  0  0
  -29.0210  -26.1440   21.2620 C   0  0  0  0  0  3  0  0  0  0  0  0
  -28.5390  -26.7740   20.1310 O   0  0  0  0  0  0  0  0  0  0  0  0
  -24.7280  -32.0070   23.3640 C   0  0  0  0  0  0  0  0  0  0  0  0
  -27.4170  -27.5830   20.2380 C   0  0  0  0  0  0  0  0  0  0  0  0
  -23.5370  -30.5940   21.7250 C   0  0  0  0  0  3  0  0  0  0  0  0
  -25.0090  -29.0870   20.2800 C   0  0  0  0  0  0  0  0  0  0  0  0
  -26.0630  -30.9830   21.5150 C   0  0  0  0  0  2  0  0  0  0  0  0
  -26.1690  -29.6120   20.8700 C   0  0  0  0  0  0  0  0  0  0  0  0
  -27.3810  -28.8660   20.8530 C   0  0  0  0  0  3  0  0  0  0  0  0
  -26.2440  -27.0920   19.6400 C   0  0  0  0  0  3  0  0  0  0  0  0
  -25.0420  -27.8250   19.6650 C   0  0  0  0  0  3  0  0  0  0  0  0
  -23.7520  -29.9290   20.3400 C   0  0  0  0  0  2  0  0  0  0  0  0
  -24.7940  -31.2120   22.2590 N   0  0  0  0  0  0  0  0  0  0  0  0
  -23.6460  -32.2540   23.9130 O   0  0  0  0  0  0  0  0  0  0  0  0
  -22.9110  -29.5550   22.6850 C   0  0  0  0  0  0  0  0  0  0  0  0
  -21.6000  -29.3040   22.5330 N   0  0  0  0  0  0  0  0  0  0  0  0
  -23.6050  -28.9730   23.5250 O   0  0  0  0  0  0  0  0  0  0  0  0
  -21.0970  -29.8260   21.8290 H   0  0  0  0  0  0  0  0  0  0  0  0
  -18.2920  -27.9070   22.9430 C   0  0  0  0  0  0  0  0  0  0  0  0
  -20.8160  -28.3350   23.2990 C   0  0  0  0  0  3  0  0  0  0  0  0
  -21.0330  -26.9010   22.7650 C   0  0  0  0  0  2  0  0  0  0  0  0
  -19.9910  -26.4820   21.7210 C   0  0  0  0  0  2  0  0  0  0  0  0
  -18.5800  -26.5560   22.3110 C   0  0  0  0  0  2  0  0  0  0  0  0
  -19.3440  -28.7490   23.3920 C   0  0  0  0  0  0  0  0  0  0  0  0
  -19.0250  -30.0090   23.9430 C   0  0  0  0  0  3  0  0  0  0  0  0
  -17.6870  -30.4310   24.0480 C   0  0  0  0  0  3  0  0  0  0  0  0
  -16.6480  -29.5880   23.6150 C   0  0  0  0  0  3  0  0  0  0  0  0
  -16.9520  -28.3280   23.0700 C   0  0  0  0  0  3  0  0  0  0  0  0
  -26.0030  -32.6640   23.9780 C   0  0  0  0  0  3  0  0  0  0  0  0
  -25.6760  -34.0630   24.2830 N   0  0  0  0  0  0  0  0  0  0  0  0
  -25.9920  -35.1080   23.5050 C   0  0  0  0  0  0  0  0  0  0  0  0
  -26.6570  -34.9960   22.4710 O   0  0  0  0  0  0  0  0  0  0  0  0
  -25.0890  -34.2250   25.0890 H   0  0  0  0  0  0  0  0  0  0  0  0
  -24.2250  -36.8600   23.1450 C   0  0  0  0  0  1  0  0  0  0  0  0
  -25.4890  -36.4970   23.9410 C   0  0  0  0  0  3  0  0  0  0  0  0
  -27.6220  -37.4350   24.7110 C   0  0  0  0  0  1  0  0  0  0  0  0
  -26.5010  -37.5640   23.7850 N   0  0  0  0  0  0  0  0  0  0  0  0
  -26.0820  -38.4800   23.9200 H   0  0  0  0  0  0  0  0  0  0  0  0
  -26.5290  -31.9180   25.2660 C   0  0  1  0  0  0  0  0  0  0  0  0
  -25.4300  -31.6540   26.3220 C   0  0  0  0  0  1  0  0  0  0  0  0
  -27.1580  -30.5560   24.8900 C   0  0  0  0  0  1  0  0  0  0  0  0
  -27.6470  -32.7500   25.9350 C   0  0  0  0  0  1  0  0  0  0  0  0
  -33.7880  -19.3810   21.2090 C   0  0  0  0  0  0  0  0  0  0  0  0
  -34.1320  -19.9490   22.2480 O   0  0  0  0  0  0  0  0  0  0  0  0
  -35.8870  -18.9730   20.3470 C   0  0  0  0  0  0  0  0  0  0  0  0
  -36.5880  -19.0940   21.7140 C   0  0  0  0  0  1  0  0  0  0  0  0
  -34.6170  -19.0460   20.1590 N   0  0  0  0  0  0  0  0  0  0  0  0
  -36.8200  -18.7220   19.1720 C   0  0  0  0  0  0  0  0  0  0  0  0
  -38.3220  -18.8930   19.3840 C   0  0  0  0  0  1  0  0  0  0  0  0
  -36.4040  -18.4130   18.0480 O   0  0  0  0  0  0  0  0  0  0  0  0
  1  5  1  0
  2  4  1  0
  2  6  2  0
  3  5  2  0
  4  1  2  0
  5 92  1  0
  6  3  1  0
  7 15  1  0
  8 13  1  0
  9 10  1  0
  9  8  1  0
 11 10  1  0
 11 20  1  0
 11 12  1  0
 13  7  1  0
 13 12  1  0
 14  7  2  0
 15  6  1  0
 15 16  1  0
 17 18  2  0
 18 37  1  0
 19 18  1  0
 19 22  1  0
 20 21  1  0
 20 17  1  0
 21 19  2  0
 22 23  1  0
 23 24  2  0
 25 28  1  0
 25 24  1  0
 26 25  2  0
 27 26  1  0
 27 22  2  0
 28 29  1  0
 29 30  1  0
 30 31  2  0
 32 31  1  0
 32 36  1  0
 33 32  2  0
 34 29  2  0
 34 33  1  0
 35 34  1  0
 37 38  1  0
 38 41  1  0
 38 40  1  0
 39 37  2  0
 42 43  1  0
 42 17  1  0
 44 42  1  0
 45  4  1  0
 45 46  2  0
 47 46  1  0
 47 49  1  0
 48 47  2  0
 50 49  2  0
 51 53  1  0
 51 50  1  0
 52 63  2  0
 53 58  1  0
 54 62  1  0
 54 64  1  0
 55 61  1  0
 55 57  1  0
 56 62  1  0
 57 56  1  0
 58 57  2  0
 59 60  1  0
 59 53  2  0
 60 55  2  0
 61 54  1  0
 62 52  1  0
 64 66  2  0
 65 64  1  0
 67 65  1  0
 68 77  2  0
 68 73  1  0
 69 65  1  0
 69 73  1  0
 70 69  1  0
 71 72  1  0
 71 70  1  0
 72 68  1  0
 73 74  2  0
 74 75  1  0
 76 75  2  0
 77 76  1  0
 78 52  1  0
 78 79  1  0
 78 88  1  0
 79 82  1  0
 80 84  1  0
 80 79  1  0
 81 80  2  0
 84 83  1  0
 86 87  1  0
 86 84  1  0
 86 85  1  0
 88 91  1  1
 88 89  1  0
 90 88  1  0
 92 93  2  0
 94 95  1  0
 96 94  2  0
 96 92  1  0
 97 98  1  0
 97 94  1  0
 99 97  2  0
M  ISO  4   7 100  15 100  50 101  51 101
M  END
>  <TORSDO>  (75) 
F 22

>  <SCORE>  (75) 
-13.316

>  <name>  (75) 
74

>  <ligand_id>  (75) 
74

>  <original_smiles>  (75) 
[H]C(Oc1c([H])c([H])c2c(c1[H])C([H])([H])N(C(=O)C([H])(N([H])C(=O)C([H])(N([H])C([H])([H])[H])C([H])([H])[H])C(C([H])([H])[H])(C([H])([H])[H])C([H])([H])[H])C([H])(C(=O)N([H])C1([H])c3c([H])c([H])c([H])c([H])c3C([H])([H])C([H])([H])C1([H])[H])C2([H])[H])=C([H])C(=O)C([H])=C([H])c1c([H])c(C(=O)N=C(C(=O)C([H])([H])[H])C([H])([H])[H])c([H])c(N([H])C(=O)N2C([H])([H])C([H])([H])C([H])([H])C([H])(n3nc(-c4c([H])c([H])c(Oc5c([H])c([H])c(F)c([H])c5F)c([H])c4[H])c(C(=O)N([H])[H])c3N([H])[H])C2([H])[H])c1[H]

>  <smiles>  (75) 
[H]C(Oc1c([H])c([H])c2c(c1[H])C([H])([H])N(C(=O)C([H])(N([H])C(=O)C([H])(N([H])C([H])([H])[H])C([H])([H])[H])C(C([H])([H])[H])(C([H])([H])[H])C([H])([H])[H])C([H])(C(=O)N([H])C1([H])c3c([H])c([H])c([H])c([H])c3C([H])([H])C([H])([H])C1([H])[H])C2([H])[H])=C([H])C(=O)C([H])=C([H])c1c([H])c(C(=O)N=C(C(=O)C([H])([H])[H])C([H])([H])[H])c([H])c(N([H])C(=O)N2C([H])([H])C([H])([H])C([H])([H])C([H])(n3nc(-c4c([H])c([H])c(Oc5c([H])c([H])c(F)c([H])c5F)c([H])c4[H])c(C(=O)N([H])[H])c3N([H])[H])C2([H])[H])c1[H]

$$$$
75:0:0
     RDKit          3D

 95103  0  0  1  0  0  0  0  0999 V2000
  -28.7910  -22.2770   20.5090 C   0  0  0  0  0  0  0  0  0  0  0  0
  -29.7030  -21.3560   20.1420 N   0  0  0  0  0  0  0  0  0  0  0  0
  -27.7150  -21.9740   21.0260 O   0  0  0  0  0  0  0  0  0  0  0  0
  -30.4680  -21.6970   19.5780 H   0  0  0  0  0  0  0  0  0  0  0  0
  -29.8070  -19.0450   19.3680 C   0  0  0  0  0  3  0  0  0  0  0  0
  -30.0930  -18.0570   21.9440 C   0  0  0  0  0  3  0  0  0  0  0  0
  -30.0430  -17.6590   19.5530 C   0  0  0  0  0  0  0  0  0  0  0  0
  -29.7400  -19.9560   20.4380 C   0  0  0  0  0  0  0  0  0  0  0  0
  -30.2960  -17.1390   20.8700 C   0  0  0  0  0  0  0  0  0  0  0  0
  -29.8380  -19.4360   21.7460 C   0  0  0  0  0  0  0  0  0  0  0  0
  -29.7590  -20.2610   22.8200 F   0  0  0  0  0  0  0  0  0  0  0  0
  -31.2110  -14.8730   20.2870 C   0  0  0  0  0  0  0  0  0  0  0  0
  -30.8250  -12.7900   19.0050 C   0  0  0  0  0  2  0  0  0  0  0  0
  -29.8340  -12.9880   17.8450 C   0  0  0  0  0  2  0  0  0  0  0  0
  -28.3940  -12.7760   18.3410 C   0  0  0  0  0  2  0  0  0  0  0  0
  -28.0820  -13.6120   19.6080 C   0  0  0  0  0  3  0  0  0  0  0  0
  -29.1740  -13.4280   20.6830 C   0  0  0  0  0  2  0  0  0  0  0  0
  -30.4810  -13.7420   20.0780 N   0  0  0  0  0  0  0  0  0  0  0  0
  -32.2860  -15.0760   19.7080 O   0  0  0  0  0  0  0  0  0  0  0  0
  -31.1960  -15.4940   22.5700 C   0  0  0  0  0  1  0  0  0  0  0  0
  -30.7400  -15.7760   21.1900 N   0  0  0  0  0  0  0  0  0  0  0  0
  -25.7300  -14.1750   20.4880 C   0  0  0  0  0  0  0  0  0  0  0  0
  -24.6780  -13.3770   20.8540 C   0  0  0  0  0  0  0  0  0  0  0  0
  -25.1320  -12.0310   20.7070 C   0  0  0  0  0  0  0  0  0  0  0  0
  -26.7550  -13.3090   20.1350 N   0  0  0  0  0  0  0  0  0  0  0  0
  -26.4030  -12.0130   20.3280 N   0  0  0  0  0  0  0  0  0  0  0  0
  -24.4150  -10.7570   20.8500 C   0  0  0  0  0  0  0  0  0  0  0  0
  -24.7570   -9.8250   21.8550 C   0  0  0  0  0  3  0  0  0  0  0  0
  -24.0420   -8.6150   21.9810 C   0  0  0  0  0  3  0  0  0  0  0  0
  -22.9710   -8.3280   21.0990 C   0  0  0  0  0  0  0  0  0  0  0  0
  -22.6540   -9.2490   20.0850 C   0  0  0  0  0  3  0  0  0  0  0  0
  -23.3690  -10.4500   19.9590 C   0  0  0  0  0  3  0  0  0  0  0  0
  -22.2350   -7.1690   21.1300 O   0  0  0  0  0  0  0  0  0  0  0  0
  -21.8730   -6.5780   22.3130 C   0  0  0  0  0  0  0  0  0  0  0  0
  -21.1030   -7.2610   23.2820 C   0  0  0  0  0  3  0  0  0  0  0  0
  -20.6950   -6.5940   24.4530 C   0  0  0  0  0  3  0  0  0  0  0  0
  -21.0440   -5.2460   24.6550 C   0  0  0  0  0  0  0  0  0  0  0  0
  -21.8010   -4.5610   23.6860 C   0  0  0  0  0  3  0  0  0  0  0  0
  -22.2120   -5.2260   22.5170 C   0  0  0  0  0  0  0  0  0  0  0  0
  -22.9260   -4.5590   21.5800 F   0  0  0  0  0  0  0  0  0  0  0  0
  -20.6430   -4.5990   25.7740 F   0  0  0  0  0  0  0  0  0  0  0  0
  -23.3000  -13.8360   21.2350 C   0  0  0  0  0  0  0  0  0  0  0  0
  -22.6410  -13.0990   22.1220 N   0  0  0  0  0  0  0  0  0  0  0  0
  -22.8210  -14.8730   20.7820 O   0  0  0  0  0  0  0  0  0  0  0  0
  -23.0450  -12.2500   22.4900 H   0  0  0  0  0  0  0  0  0  0  0  0
  -21.7230  -13.3800   22.4350 H   0  0  0  0  0  0  0  0  0  0  0  0
  -25.9050  -15.5530   20.4050 N   0  0  0  0  0  0  0  0  0  0  0  0
  -25.1810  -16.2220   20.6470 H   0  0  0  0  0  0  0  0  0  0  0  0
  -26.7680  -15.9930   20.1080 H   0  0  0  0  0  0  0  0  0  0  0  0
  -28.9950  -16.9590   17.4170 C   0  0  0  0  0  2  0  0  0  0  0  0
  -30.0010  -16.8830   18.3020 C   0  0  0  0  0  3  0  0  0  0  0  0
  -29.1180  -23.7610   20.1980 C   0  0  0  0  0  2  0  0  0  0  0  0
  -28.3980  -24.7770   21.1320 C   0  0  0  0  0  2  0  0  0  0  0  0
  -28.9600  -26.2280   21.1600 C   0  0  0  0  0  2  0  0  0  0  0  0
  -28.7060  -27.0160   19.9870 O   0  0  0  0  0  0  0  0  0  0  0  0
  -24.7270  -32.0190   23.1750 C   0  0  0  0  0  0  0  0  0  0  0  0
  -27.5360  -27.7380   20.0240 C   0  0  0  0  0  0  0  0  0  0  0  0
  -23.5760  -30.6030   21.5030 C   0  0  0  0  0  3  0  0  0  0  0  0
  -25.0890  -29.1490   20.0490 C   0  0  0  0  0  0  0  0  0  0  0  0
  -26.0840  -31.0670   21.3090 C   0  0  0  0  0  2  0  0  0  0  0  0
  -26.2250  -29.7090   20.6510 C   0  0  0  0  0  0  0  0  0  0  0  0
  -27.4550  -29.0100   20.6370 C   0  0  0  0  0  3  0  0  0  0  0  0
  -26.3900  -27.1910   19.4150 C   0  0  0  0  0  3  0  0  0  0  0  0
  -25.1680  -27.8900   19.4280 C   0  0  0  0  0  3  0  0  0  0  0  0
  -23.8120  -29.9580   20.1120 C   0  0  0  0  0  2  0  0  0  0  0  0
  -24.8150  -31.2430   22.0570 N   0  0  0  0  0  0  0  0  0  0  0  0
  -23.6360  -32.2370   23.7200 O   0  0  0  0  0  0  0  0  0  0  0  0
  -22.9730  -29.5370   22.4490 C   0  0  0  0  0  0  0  0  0  0  0  0
  -21.6560  -29.2970   22.3170 N   0  0  0  0  0  0  0  0  0  0  0  0
  -23.6830  -28.9270   23.2520 O   0  0  0  0  0  0  0  0  0  0  0  0
  -21.1380  -29.8480   21.6480 H   0  0  0  0  0  0  0  0  0  0  0  0
  -18.3340  -27.9670   22.7960 C   0  0  0  0  0  0  0  0  0  0  0  0
  -20.8850  -28.3030   23.0590 C   0  0  0  0  0  3  0  0  0  0  0  0
  -21.0350  -26.9030   22.4210 C   0  0  0  0  0  2  0  0  0  0  0  0
  -19.9270  -26.5850   21.4170 C   0  0  0  0  0  2  0  0  0  0  0  0
  -18.5560  -26.6430   22.0870 C   0  0  0  0  0  2  0  0  0  0  0  0
  -19.4300  -28.7520   23.2460 C   0  0  0  0  0  0  0  0  0  0  0  0
  -19.1710  -29.9840   23.8810 C   0  0  0  0  0  3  0  0  0  0  0  0
  -17.8510  -30.4370   24.0690 C   0  0  0  0  0  3  0  0  0  0  0  0
  -16.7710  -29.6510   23.6320 C   0  0  0  0  0  3  0  0  0  0  0  0
  -17.0130  -28.4170   23.0010 C   0  0  0  0  0  3  0  0  0  0  0  0
  -25.9850  -32.6880   23.8080 C   0  0  0  0  0  3  0  0  0  0  0  0
  -25.6210  -34.0680   24.1600 N   0  0  0  0  0  0  0  0  0  0  0  0
  -25.9290  -35.1450   23.4230 C   0  0  0  0  0  0  0  0  0  0  0  0
  -26.6170  -35.0830   22.4020 O   0  0  0  0  0  0  0  0  0  0  0  0
  -25.0040  -34.1890   24.9500 H   0  0  0  0  0  0  0  0  0  0  0  0
  -24.1510  -36.8890   23.0640 C   0  0  0  0  0  1  0  0  0  0  0  0
  -25.3840  -36.5070   23.8970 C   0  0  0  0  0  3  0  0  0  0  0  0
  -27.4680  -37.4430   24.8000 C   0  0  0  0  0  1  0  0  0  0  0  0
  -26.3850  -37.5930   23.8300 N   0  0  0  0  0  0  0  0  0  0  0  0
  -25.9460  -38.4970   23.9840 H   0  0  0  0  0  0  0  0  0  0  0  0
  -26.5330  -31.9140   25.0680 C   0  0  1  0  0  0  0  0  0  0  0  0
  -25.4470  -31.5860   26.1200 C   0  0  0  0  0  1  0  0  0  0  0  0
  -27.1910  -30.5810   24.6370 C   0  0  0  0  0  1  0  0  0  0  0  0
  -27.6330  -32.7530   25.7600 C   0  0  0  0  0  1  0  0  0  0  0  0
  1  3  2  0
  2  8  1  0
  2  1  1  0
  4  2  1  0
  5  7  2  0
  5  8  1  0
  7  9  1  0
  8 10  2  0
  9 21  1  0
  9  6  2  0
 10  6  1  0
 10 11  1  0
 12 21  1  0
 13 18  1  0
 14 15  1  0
 14 13  1  0
 16 15  1  0
 16 25  1  0
 16 17  1  0
 18 12  1  0
 18 17  1  0
 19 12  2  0
 21 20  1  0
 22 23  2  0
 23 42  1  0
 24 27  1  0
 24 23  1  0
 25 26  1  0
 25 22  1  0
 26 24  2  0
 27 28  1  0
 28 29  2  0
 30 33  1  0
 30 29  1  0
 31 30  2  0
 32 31  1  0
 32 27  2  0
 33 34  1  0
 34 39  2  0
 34 35  1  0
 35 36  2  0
 36 37  1  0
 37 41  1  0
 38 37  2  0
 39 38  1  0
 40 39  1  0
 42 43  1  0
 43 46  1  0
 43 45  1  0
 44 42  2  0
 47 22  1  0
 47 48  1  0
 49 47  1  0
 50 51  2  0
 51  7  1  0
 52  1  1  0
 52 53  1  0
 53 54  1  0
 55 57  1  0
 55 54  1  0
 56 67  2  0
 57 62  1  0
 58 66  1  0
 58 68  1  0
 59 65  1  0
 59 61  1  0
 60 66  1  0
 61 60  1  0
 62 61  2  0
 63 64  1  0
 63 57  2  0
 64 59  2  0
 65 58  1  0
 66 56  1  0
 68 70  2  0
 69 68  1  0
 71 69  1  0
 72 81  2  0
 72 77  1  0
 73 69  1  0
 73 77  1  0
 74 73  1  0
 75 76  1  0
 75 74  1  0
 76 72  1  0
 77 78  2  0
 78 79  1  0
 80 79  2  0
 81 80  1  0
 82 56  1  0
 82 83  1  0
 82 92  1  0
 83 86  1  0
 84 88  1  0
 84 83  1  0
 85 84  2  0
 88 87  1  0
 90 88  1  0
 90 91  1  0
 90 89  1  0
 92 95  1  1
 92 93  1  0
 94 92  1  0
M  ISO  4  12 100  21 100  54 101  55 101
M  END
>  <TORSDO>  (76) 
F 21

>  <SCORE>  (76) 
-9.215

>  <name>  (76) 
75

>  <ligand_id>  (76) 
75

>  <original_smiles>  (76) 
[H]C([H])=C([H])c1c([H])c(N([H])C(=O)C([H])([H])C([H])([H])C([H])([H])Oc2c([H])c([H])c3c(c2[H])C([H])([H])N(C(=O)C([H])(N([H])C(=O)C([H])(N([H])C([H])([H])[H])C([H])([H])[H])C(C([H])([H])[H])(C([H])([H])[H])C([H])([H])[H])C([H])(C(=O)N([H])C2([H])c4c([H])c([H])c([H])c([H])c4C([H])([H])C([H])([H])C2([H])[H])C3([H])[H])c(F)c([H])c1N(C(=O)N1C([H])([H])C([H])([H])C([H])([H])C([H])(n2nc(-c3c([H])c([H])c(Oc4c([H])c([H])c(F)c([H])c4F)c([H])c3[H])c(C(=O)N([H])[H])c2N([H])[H])C1([H])[H])C([H])([H])[H]

>  <smiles>  (76) 
[H]C([H])=C([H])c1c([H])c(N([H])C(=O)C([H])([H])C([H])([H])C([H])([H])Oc2c([H])c([H])c3c(c2[H])C([H])([H])N(C(=O)C([H])(N([H])C(=O)C([H])(N([H])C([H])([H])[H])C([H])([H])[H])C(C([H])([H])[H])(C([H])([H])[H])C([H])([H])[H])C([H])(C(=O)N([H])C2([H])c4c([H])c([H])c([H])c([H])c4C([H])([H])C([H])([H])C2([H])[H])C3([H])[H])c(F)c([H])c1N(C(=O)N1C([H])([H])C([H])([H])C([H])([H])C([H])(n2nc(-c3c([H])c([H])c(Oc4c([H])c([H])c(F)c([H])c4F)c([H])c3[H])c(C(=O)N([H])[H])c2N([H])[H])C1([H])[H])C([H])([H])[H]

$$$$
76:0:0
     RDKit          3D

 91 99  0  0  1  0  0  0  0  0999 V2000
  -30.7110  -18.2610   20.9000 C   0  0  0  0  0  0  0  0  0  0  0  0
  -30.5260  -19.7020   20.7110 C   0  0  0  0  0  0  0  0  0  0  0  0
  -29.3410  -20.0380   20.0730 C   0  0  0  0  0  0  0  0  0  0  0  0
  -29.7170  -17.4350   20.3900 C   0  0  0  0  0  0  0  0  0  0  0  0
  -31.4940  -20.7640   21.1740 C   0  0  0  0  0  1  0  0  0  0  0  0
  -28.4630  -18.5230   19.7460 S   0  0  0  0  0  0  0  0  0  0  0  0
  -30.4280  -14.9950   20.1940 C   0  0  0  0  0  0  0  0  0  0  0  0
  -30.3430  -12.7070   19.1930 C   0  0  0  0  0  2  0  0  0  0  0  0
  -29.3850  -12.7240   17.9830 C   0  0  0  0  0  2  0  0  0  0  0  0
  -27.9330  -12.4700   18.4340 C   0  0  0  0  0  2  0  0  0  0  0  0
  -27.5230  -13.3600   19.6360 C   0  0  0  0  0  3  0  0  0  0  0  0
  -28.5950  -13.3340   20.7470 C   0  0  0  0  0  2  0  0  0  0  0  0
  -29.8730  -13.7390   20.1440 N   0  0  0  0  0  0  0  0  0  0  0  0
  -31.5940  -15.1760   19.8360 O   0  0  0  0  0  0  0  0  0  0  0  0
  -29.5620  -16.0450   20.4310 N   0  0  0  0  0  0  0  0  0  0  0  0
  -28.6060  -15.7340   20.5280 H   0  0  0  0  0  0  0  0  0  0  0  0
  -25.1100  -13.8370   20.3750 C   0  0  0  0  0  0  0  0  0  0  0  0
  -24.0910  -13.0130   20.7670 C   0  0  0  0  0  0  0  0  0  0  0  0
  -24.6310  -11.6910   20.7580 C   0  0  0  0  0  0  0  0  0  0  0  0
  -26.2000  -13.0140   20.1460 N   0  0  0  0  0  0  0  0  0  0  0  0
  -25.9190  -11.7190   20.4390 N   0  0  0  0  0  0  0  0  0  0  0  0
  -23.9770  -10.3940   20.9770 C   0  0  0  0  0  0  0  0  0  0  0  0
  -24.4310   -9.4940   21.9670 C   0  0  0  0  0  3  0  0  0  0  0  0
  -23.7730   -8.2610   22.1700 C   0  0  0  0  0  3  0  0  0  0  0  0
  -22.6490   -7.9180   21.3840 C   0  0  0  0  0  0  0  0  0  0  0  0
  -22.2160   -8.8070   20.3830 C   0  0  0  0  0  3  0  0  0  0  0  0
  -22.8740  -10.0300   20.1790 C   0  0  0  0  0  3  0  0  0  0  0  0
  -21.9630   -6.7330   21.4920 O   0  0  0  0  0  0  0  0  0  0  0  0
  -21.8690   -6.0640   22.6850 C   0  0  0  0  0  0  0  0  0  0  0  0
  -21.2770   -6.6530   23.8250 C   0  0  0  0  0  3  0  0  0  0  0  0
  -21.1360   -5.9040   25.0110 C   0  0  0  0  0  3  0  0  0  0  0  0
  -21.5780   -4.5690   25.0570 C   0  0  0  0  0  0  0  0  0  0  0  0
  -22.1610   -3.9800   23.9230 C   0  0  0  0  0  3  0  0  0  0  0  0
  -22.3040   -4.7250   22.7400 C   0  0  0  0  0  0  0  0  0  0  0  0
  -22.8490   -4.1460   21.6420 F   0  0  0  0  0  0  0  0  0  0  0  0
  -21.4370   -3.8480   26.1950 F   0  0  0  0  0  0  0  0  0  0  0  0
  -22.6710  -13.4160   21.0430 C   0  0  0  0  0  0  0  0  0  0  0  0
  -21.9900  -12.6930   21.9240 N   0  0  0  0  0  0  0  0  0  0  0  0
  -22.1740  -14.4100   20.5130 O   0  0  0  0  0  0  0  0  0  0  0  0
  -22.4050  -11.8880   22.3720 H   0  0  0  0  0  0  0  0  0  0  0  0
  -21.0420  -12.9510   22.1580 H   0  0  0  0  0  0  0  0  0  0  0  0
  -25.1940  -15.2110   20.1710 N   0  0  0  0  0  0  0  0  0  0  0  0
  -24.3840  -15.8140   20.2650 H   0  0  0  0  0  0  0  0  0  0  0  0
  -25.9990  -15.6970   19.8000 H   0  0  0  0  0  0  0  0  0  0  0  0
  -33.1570  -17.9460   21.4740 C   0  0  0  0  0  2  0  0  0  0  0  0
  -31.8510  -17.6670   21.6260 C   0  0  0  0  0  3  0  0  0  0  0  0
  -28.8610  -21.4360   19.5400 C   0  0  0  0  0  2  0  0  0  0  0  0
  -28.3040  -22.6210   20.4660 C   0  0  0  0  0  2  0  0  0  0  0  0
  -28.3580  -24.1190   19.8810 C   0  0  0  0  0  3  0  0  0  0  0  0
  -27.7700  -25.3270   20.7490 C   0  0  0  0  0  3  0  0  0  0  0  0
  -27.9860  -26.7160   20.2770 O   0  0  0  0  0  0  0  0  0  0  0  0
  -24.4760  -32.1870   23.4040 C   0  0  0  0  0  0  0  0  0  0  0  0
  -26.8900  -27.5880   20.2820 C   0  0  0  0  0  0  0  0  0  0  0  0
  -23.1910  -30.8280   21.7860 C   0  0  0  0  0  3  0  0  0  0  0  0
  -24.5670  -29.2480   20.3200 C   0  0  0  0  0  0  0  0  0  0  0  0
  -25.7290  -31.0900   21.5390 C   0  0  0  0  0  2  0  0  0  0  0  0
  -25.7610  -29.7140   20.8880 C   0  0  0  0  0  0  0  0  0  0  0  0
  -26.9280  -28.8930   20.8580 C   0  0  0  0  0  3  0  0  0  0  0  0
  -25.6810  -27.1750   19.6860 C   0  0  0  0  0  3  0  0  0  0  0  0
  -24.5310  -27.9850   19.7100 C   0  0  0  0  0  3  0  0  0  0  0  0
  -23.3530  -30.1480   20.4010 C   0  0  0  0  0  2  0  0  0  0  0  0
  -24.4850  -31.3860   22.2990 N   0  0  0  0  0  0  0  0  0  0  0  0
  -23.4170  -32.4900   23.9710 O   0  0  0  0  0  0  0  0  0  0  0  0
  -22.5310  -29.8250   22.7630 C   0  0  0  0  0  0  0  0  0  0  0  0
  -21.2080  -29.6300   22.6240 N   0  0  0  0  0  0  0  0  0  0  0  0
  -23.2060  -29.2290   23.6060 O   0  0  0  0  0  0  0  0  0  0  0  0
  -20.7270  -30.1680   21.9170 H   0  0  0  0  0  0  0  0  0  0  0  0
  -17.8540  -28.3420   23.0330 C   0  0  0  0  0  0  0  0  0  0  0  0
  -20.3900  -28.6980   23.3990 C   0  0  0  0  0  3  0  0  0  0  0  0
  -20.5630  -27.2480   22.8910 C   0  0  0  0  0  2  0  0  0  0  0  0
  -19.5140  -26.8430   21.8520 C   0  0  0  0  0  2  0  0  0  0  0  0
  -18.1000  -26.9700   22.4280 C   0  0  0  0  0  2  0  0  0  0  0  0
  -18.9290  -29.1580   23.4760 C   0  0  0  0  0  0  0  0  0  0  0  0
  -18.6460  -30.4360   24.0060 C   0  0  0  0  0  3  0  0  0  0  0  0
  -17.3210  -30.9000   24.0940 C   0  0  0  0  0  3  0  0  0  0  0  0
  -16.2590  -30.0820   23.6730 C   0  0  0  0  0  3  0  0  0  0  0  0
  -16.5270  -28.8060   23.1480 C   0  0  0  0  0  3  0  0  0  0  0  0
  -25.7930  -32.7810   23.9990 C   0  0  0  0  0  3  0  0  0  0  0  0
  -25.5540  -34.2020   24.2790 N   0  0  0  0  0  0  0  0  0  0  0  0
  -25.9370  -35.2120   23.4850 C   0  0  0  0  0  0  0  0  0  0  0  0
  -26.5940  -35.0370   22.4550 O   0  0  0  0  0  0  0  0  0  0  0  0
  -24.9780  -34.4160   25.0800 H   0  0  0  0  0  0  0  0  0  0  0  0
  -24.3010  -37.0730   23.0670 C   0  0  0  0  0  1  0  0  0  0  0  0
  -25.5210  -36.6370   23.8940 C   0  0  0  0  0  3  0  0  0  0  0  0
  -27.6980  -37.4420   24.6930 C   0  0  0  0  0  1  0  0  0  0  0  0
  -26.6050  -37.6310   23.7420 N   0  0  0  0  0  0  0  0  0  0  0  0
  -26.2490  -38.5760   23.8510 H   0  0  0  0  0  0  0  0  0  0  0  0
  -26.2810  -32.0310   25.3000 C   0  0  1  0  0  0  0  0  0  0  0  0
  -25.1780  -31.8740   26.3750 C   0  0  0  0  0  1  0  0  0  0  0  0
  -26.8070  -30.6200   24.9520 C   0  0  0  0  0  1  0  0  0  0  0  0
  -27.4690  -32.7960   25.9290 C   0  0  0  0  0  1  0  0  0  0  0  0
  1 46  1  0
  2  1  1  0
  2  5  1  0
  3  2  2  0
  4 15  1  0
  4  1  2  0
  6  3  1  0
  6  4  1  0
  7 15  1  0
  8 13  1  0
  9 10  1  0
  9  8  1  0
 11 10  1  0
 11 20  1  0
 11 12  1  0
 13  7  1  0
 13 12  1  0
 14  7  2  0
 15 16  1  0
 17 18  2  0
 18 37  1  0
 19 18  1  0
 19 22  1  0
 20 17  1  0
 20 21  1  0
 21 19  2  0
 22 23  1  0
 23 24  2  0
 25 28  1  0
 25 24  1  0
 26 25  2  0
 27 26  1  0
 27 22  2  0
 28 29  1  0
 29 34  2  0
 29 30  1  0
 30 31  2  0
 31 32  1  0
 32 36  1  0
 33 32  2  0
 34 33  1  0
 35 34  1  0
 37 38  1  0
 38 41  1  0
 38 40  1  0
 39 37  2  0
 42 43  1  0
 42 17  1  0
 44 42  1  0
 45 46  2  0
 47  3  1  0
 47 48  1  0
 49 48  1  0
 49 50  2  0
 51 53  1  0
 51 50  1  0
 52 63  2  0
 53 58  1  0
 54 62  1  0
 54 64  1  0
 55 61  1  0
 55 57  1  0
 56 62  1  0
 57 56  1  0
 58 57  2  0
 59 60  1  0
 59 53  2  0
 60 55  2  0
 61 54  1  0
 62 52  1  0
 64 66  2  0
 65 64  1  0
 67 65  1  0
 68 77  2  0
 68 73  1  0
 69 65  1  0
 69 73  1  0
 70 69  1  0
 71 72  1  0
 71 70  1  0
 72 68  1  0
 73 74  2  0
 74 75  1  0
 76 75  2  0
 77 76  1  0
 78 52  1  0
 78 79  1  0
 78 88  1  0
 79 82  1  0
 80 84  1  0
 80 79  1  0
 81 80  2  0
 84 83  1  0
 86 87  1  0
 86 84  1  0
 86 85  1  0
 88 91  1  1
 88 89  1  0
 90 88  1  0
M  ISO  4   7 100  15 100  50 101  51 101
M  END
>  <TORSDO>  (77) 
F 21

>  <SCORE>  (77) 
-11.438

>  <name>  (77) 
76

>  <ligand_id>  (77) 
76

>  <original_smiles>  (77) 
[H]C([H])=C([H])c1c(N([H])C(=O)N2C([H])([H])C([H])([H])C([H])([H])C([H])(n3nc(-c4c([H])c([H])c(Oc5c([H])c([H])c(F)c([H])c5F)c([H])c4[H])c(C(=O)N([H])[H])c3N([H])[H])C2([H])[H])sc(C([H])([H])C([H])([H])C([H])([H])C([H])([H])Oc2c([H])c([H])c3c(c2[H])C([H])([H])N(C(=O)C([H])(N([H])C(=O)C([H])(N([H])C([H])([H])[H])C([H])([H])[H])C(C([H])([H])[H])(C([H])([H])[H])C([H])([H])[H])C([H])(C(=O)N([H])C2([H])c4c([H])c([H])c([H])c([H])c4C([H])([H])C([H])([H])C2([H])[H])C3([H])[H])c1C([H])([H])[H]

>  <smiles>  (77) 
[H]C([H])=C([H])c1c(N([H])C(=O)N2C([H])([H])C([H])([H])C([H])([H])C([H])(n3nc(-c4c([H])c([H])c(Oc5c([H])c([H])c(F)c([H])c5F)c([H])c4[H])c(C(=O)N([H])[H])c3N([H])[H])C2([H])[H])sc(C([H])([H])C([H])([H])C([H])([H])C([H])([H])Oc2c([H])c([H])c3c(c2[H])C([H])([H])N(C(=O)C([H])(N([H])C(=O)C([H])(N([H])C([H])([H])[H])C([H])([H])[H])C(C([H])([H])[H])(C([H])([H])[H])C([H])([H])[H])C([H])(C(=O)N([H])C2([H])c4c([H])c([H])c([H])c([H])c4C([H])([H])C([H])([H])C2([H])[H])C3([H])[H])c1C([H])([H])[H]

$$$$
77:0:0
     RDKit          3D

 86 93  0  0  1  0  0  0  0  0999 V2000
  -28.1310  -24.2710   19.8950 C   0  0  0  0  0  3  0  0  0  0  0  0
  -28.4440  -24.2110   18.4000 C   0  0  0  0  0  3  0  0  0  0  0  0
  -29.3900  -24.8430   17.9190 O   0  0  0  0  0  0  0  0  0  0  0  0
  -28.2130  -25.8730   20.3120 O   0  0  0  0  0  0  0  0  0  0  0  0
  -24.6210  -31.8440   23.1820 C   0  0  0  0  0  0  0  0  0  0  0  0
  -27.1950  -26.9590   20.1910 C   0  0  0  0  0  0  0  0  0  0  0  0
  -23.4290  -30.4340   21.5540 C   0  0  0  0  0  3  0  0  0  0  0  0
  -24.8830  -28.8260   20.1370 C   0  0  0  0  0  0  0  0  0  0  0  0
  -25.9930  -30.6540   21.4030 C   0  0  0  0  0  2  0  0  0  0  0  0
  -26.0680  -29.2410   20.7560 C   0  0  0  0  0  0  0  0  0  0  0  0
  -27.2140  -28.3270   20.7620 C   0  0  0  0  0  3  0  0  0  0  0  0
  -25.9820  -26.6990   19.5130 C   0  0  0  0  0  3  0  0  0  0  0  0
  -24.8660  -27.5760   19.4950 C   0  0  0  0  0  3  0  0  0  0  0  0
  -23.6600  -29.7420   20.1820 C   0  0  0  0  0  2  0  0  0  0  0  0
  -24.7030  -31.0040   22.1010 N   0  0  0  0  0  0  0  0  0  0  0  0
  -23.5310  -32.1340   23.7040 O   0  0  0  0  0  0  0  0  0  0  0  0
  -22.7390  -29.4420   22.5290 C   0  0  0  0  0  0  0  0  0  0  0  0
  -21.4070  -29.2870   22.4170 N   0  0  0  0  0  0  0  0  0  0  0  0
  -23.4090  -28.8170   23.3540 O   0  0  0  0  0  0  0  0  0  0  0  0
  -20.9200  -29.8440   21.7290 H   0  0  0  0  0  0  0  0  0  0  0  0
  -18.0240  -28.0900   22.9520 C   0  0  0  0  0  0  0  0  0  0  0  0
  -20.5860  -28.3530   23.1960 C   0  0  0  0  0  3  0  0  0  0  0  0
  -20.6810  -26.9180   22.6250 C   0  0  0  0  0  2  0  0  0  0  0  0
  -19.5710  -26.5950   21.6190 C   0  0  0  0  0  2  0  0  0  0  0  0
  -18.1950  -26.7410   22.2740 C   0  0  0  0  0  2  0  0  0  0  0  0
  -19.1470  -28.8530   23.3700 C   0  0  0  0  0  0  0  0  0  0  0  0
  -18.9320  -30.1140   23.9680 C   0  0  0  0  0  3  0  0  0  0  0  0
  -17.6270  -30.6120   24.1500 C   0  0  0  0  0  3  0  0  0  0  0  0
  -16.5200  -29.8470   23.7470 C   0  0  0  0  0  3  0  0  0  0  0  0
  -16.7200  -28.5870   23.1520 C   0  0  0  0  0  3  0  0  0  0  0  0
  -25.8910  -32.4960   23.8100 C   0  0  0  0  0  3  0  0  0  0  0  0
  -25.5640  -33.8930   24.1500 N   0  0  0  0  0  0  0  0  0  0  0  0
  -25.8870  -34.9610   23.4080 C   0  0  0  0  0  0  0  0  0  0  0  0
  -26.5530  -34.8740   22.3740 O   0  0  0  0  0  0  0  0  0  0  0  0
  -24.9700  -34.0310   24.9550 H   0  0  0  0  0  0  0  0  0  0  0  0
  -24.1460  -36.7540   23.0910 C   0  0  0  0  0  1  0  0  0  0  0  0
  -25.3960  -36.3430   23.8870 C   0  0  0  0  0  3  0  0  0  0  0  0
  -27.5320  -37.2350   24.7120 C   0  0  0  0  0  1  0  0  0  0  0  0
  -26.4210  -37.4050   23.7770 N   0  0  0  0  0  0  0  0  0  0  0  0
  -26.0110  -38.3210   23.9360 H   0  0  0  0  0  0  0  0  0  0  0  0
  -26.4080  -31.7330   25.0910 C   0  0  1  0  0  0  0  0  0  0  0  0
  -25.3160  -31.4960   26.1610 C   0  0  0  0  0  1  0  0  0  0  0  0
  -26.9970  -30.3550   24.7140 C   0  0  0  0  0  1  0  0  0  0  0  0
  -27.5560  -32.5350   25.7510 C   0  0  0  0  0  1  0  0  0  0  0  0
  -28.7170  -22.7020   20.5960 C   0  0  0  0  0  2  0  0  0  0  0  0
  -29.1880  -21.1520   19.9110 C   0  0  0  0  0  0  0  0  0  0  0  0
  -29.5870  -21.2420   18.7520 O   0  0  0  0  0  0  0  0  0  0  0  0
  -29.6930  -18.5150   20.1130 C   0  0  0  0  0  3  0  0  0  0  0  0
  -29.1920  -19.7570   20.5820 N   0  0  0  0  0  0  0  0  0  0  0  0
  -29.6160  -16.8170   20.6700 C   0  0  0  0  0  2  0  0  0  0  0  0
  -30.4360  -15.3120   20.2620 C   0  0  0  0  0  0  0  0  0  0  0  0
  -30.4500  -12.8590   19.3750 C   0  0  0  0  0  2  0  0  0  0  0  0
  -29.5280  -12.6790   18.1410 C   0  0  0  0  0  2  0  0  0  0  0  0
  -28.0740  -12.4090   18.5690 C   0  0  0  0  0  2  0  0  0  0  0  0
  -27.6260  -13.3540   19.7120 C   0  0  0  0  0  3  0  0  0  0  0  0
  -28.6740  -13.4760   20.8380 C   0  0  0  0  0  2  0  0  0  0  0  0
  -29.9170  -13.9830   20.2310 N   0  0  0  0  0  0  0  0  0  0  0  0
  -31.6310  -15.3370   19.9290 O   0  0  0  0  0  0  0  0  0  0  0  0
  -25.2480  -13.9000   20.4530 C   0  0  0  0  0  0  0  0  0  0  0  0
  -24.1910  -13.1200   20.8260 C   0  0  0  0  0  0  0  0  0  0  0  0
  -24.6660  -11.7720   20.8070 C   0  0  0  0  0  0  0  0  0  0  0  0
  -26.2980  -13.0320   20.2170 N   0  0  0  0  0  0  0  0  0  0  0  0
  -25.9600  -11.7450   20.4990 N   0  0  0  0  0  0  0  0  0  0  0  0
  -23.9460  -10.5070   21.0070 C   0  0  0  0  0  0  0  0  0  0  0  0
  -24.3830   -9.5450   21.9440 C   0  0  0  0  0  3  0  0  0  0  0  0
  -23.6590   -8.3470   22.1330 C   0  0  0  0  0  3  0  0  0  0  0  0
  -22.4840   -8.1020   21.3830 C   0  0  0  0  0  0  0  0  0  0  0  0
  -22.0650   -9.0530   20.4360 C   0  0  0  0  0  3  0  0  0  0  0  0
  -22.7900  -10.2420   20.2460 C   0  0  0  0  0  3  0  0  0  0  0  0
  -21.7320   -6.9560   21.4810 O   0  0  0  0  0  0  0  0  0  0  0  0
  -21.6960   -6.2140   22.6340 C   0  0  0  0  0  0  0  0  0  0  0  0
  -21.2880   -6.7710   23.8660 C   0  0  0  0  0  3  0  0  0  0  0  0
  -21.1990   -5.9550   25.0110 C   0  0  0  0  0  3  0  0  0  0  0  0
  -21.5070   -4.5850   24.9270 C   0  0  0  0  0  0  0  0  0  0  0  0
  -21.9090   -4.0270   23.7000 C   0  0  0  0  0  3  0  0  0  0  0  0
  -22.0000   -4.8400   22.5560 C   0  0  0  0  0  0  0  0  0  0  0  0
  -22.3660   -4.2920   21.3720 F   0  0  0  0  0  0  0  0  0  0  0  0
  -21.4140   -3.8000   26.0260 F   0  0  0  0  0  0  0  0  0  0  0  0
  -22.7890  -13.5900   21.0840 C   0  0  0  0  0  0  0  0  0  0  0  0
  -22.0600  -12.9010   21.9540 N   0  0  0  0  0  0  0  0  0  0  0  0
  -22.3490  -14.6070   20.5490 O   0  0  0  0  0  0  0  0  0  0  0  0
  -22.4280  -12.0790   22.4090 H   0  0  0  0  0  0  0  0  0  0  0  0
  -21.1210  -13.2010   22.1700 H   0  0  0  0  0  0  0  0  0  0  0  0
  -25.4000  -15.2720   20.2650 N   0  0  0  0  0  0  0  0  0  0  0  0
  -24.6260  -15.9190   20.3750 H   0  0  0  0  0  0  0  0  0  0  0  0
  -26.2410  -15.7180   19.9250 H   0  0  0  0  0  0  0  0  0  0  0  0
  1  2  1  0
  1  4  1  0
  1 45  1  0
  3  2  2  0
  5 16  2  0
  6  4  1  0
  6 11  1  0
  7 15  1  0
  7 17  1  0
  8 14  1  0
  8 10  1  0
  9 15  1  0
 10 11  2  0
 10  9  1  0
 12  6  2  0
 13 12  1  0
 13  8  2  0
 14  7  1  0
 15  5  1  0
 17 19  2  0
 18 17  1  0
 20 18  1  0
 21 30  2  0
 21 26  1  0
 22 18  1  0
 22 26  1  0
 23 22  1  0
 24 25  1  0
 24 23  1  0
 25 21  1  0
 26 27  2  0
 27 28  1  0
 29 28  2  0
 30 29  1  0
 31  5  1  0
 31 32  1  0
 31 41  1  0
 32 35  1  0
 33 37  1  0
 33 32  1  0
 34 33  2  0
 37 36  1  0
 39 37  1  0
 39 40  1  0
 39 38  1  0
 41 44  1  1
 41 42  1  0
 43 41  1  0
 46 49  1  0
 46 45  1  0
 47 46  2  0
 48 49  2  0
 48 50  1  0
 51 50  1  0
 52 57  1  0
 53 54  1  0
 53 52  1  0
 55 54  1  0
 55 62  1  0
 55 56  1  0
 57 51  1  0
 57 56  1  0
 58 51  2  0
 59 60  2  0
 60 79  1  0
 61 60  1  0
 61 64  1  0
 62 59  1  0
 62 63  1  0
 63 61  2  0
 64 65  1  0
 65 66  2  0
 67 70  1  0
 67 66  1  0
 68 67  2  0
 69 68  1  0
 69 64  2  0
 70 71  1  0
 71 72  1  0
 72 73  2  0
 74 73  1  0
 74 78  1  0
 75 74  2  0
 76 71  2  0
 76 75  1  0
 77 76  1  0
 79 80  1  0
 80 83  1  0
 80 82  1  0
 81 79  2  0
 84 85  1  0
 84 59  1  0
 86 84  1  0
M  ISO  4   1 101   4 101  50 100  51 100
M  END
>  <TORSDO>  (78) 
F 21

>  <SCORE>  (78) 
-15.729

>  <name>  (78) 
77

>  <ligand_id>  (78) 
77

>  <original_smiles>  (78) 
[H]C(=O)C([H])(Oc1c([H])c([H])c2c(c1[H])C([H])([H])N(C(=O)C([H])(N([H])C(=O)C([H])(N([H])C([H])([H])[H])C([H])([H])[H])C(C([H])([H])[H])(C([H])([H])[H])C([H])([H])[H])C([H])(C(=O)N([H])C1([H])c3c([H])c([H])c([H])c([H])c3C([H])([H])C([H])([H])C1([H])[H])C2([H])[H])C([H])([H])C(=O)N=C([H])C([H])([H])C(=O)N1C([H])([H])C([H])([H])C([H])([H])C([H])(n2nc(-c3c([H])c([H])c(Oc4c([H])c([H])c(F)c([H])c4F)c([H])c3[H])c(C(=O)N([H])[H])c2N([H])[H])C1([H])[H]

>  <smiles>  (78) 
[H]C(=O)C([H])(Oc1c([H])c([H])c2c(c1[H])C([H])([H])N(C(=O)C([H])(N([H])C(=O)C([H])(N([H])C([H])([H])[H])C([H])([H])[H])C(C([H])([H])[H])(C([H])([H])[H])C([H])([H])[H])C([H])(C(=O)N([H])C1([H])c3c([H])c([H])c([H])c([H])c3C([H])([H])C([H])([H])C1([H])[H])C2([H])[H])C([H])([H])C(=O)N=C([H])C([H])([H])C(=O)N1C([H])([H])C([H])([H])C([H])([H])C([H])(n2nc(-c3c([H])c([H])c(Oc4c([H])c([H])c(F)c([H])c4F)c([H])c3[H])c(C(=O)N([H])[H])c2N([H])[H])C1([H])[H]

$$$$
78:0:0
     RDKit          3D

 93101  0  0  1  0  0  0  0  0999 V2000
  -29.1280  -19.3920   19.5360 C   0  0  0  0  0  3  0  0  0  0  0  0
  -30.2870  -19.7450   21.6030 C   0  0  0  0  0  3  0  0  0  0  0  0
  -29.4280  -17.9890   19.5830 C   0  0  0  0  0  0  0  0  0  0  0  0
  -29.5290  -20.3120   20.5460 C   0  0  0  0  0  0  0  0  0  0  0  0
  -30.1480  -17.4260   20.6810 C   0  0  0  0  0  0  0  0  0  0  0  0
  -30.5710  -18.3470   21.6800 C   0  0  0  0  0  0  0  0  0  0  0  0
  -31.1980  -17.8690   22.7850 F   0  0  0  0  0  0  0  0  0  0  0  0
  -30.9880  -14.9570   20.5090 C   0  0  0  0  0  0  0  0  0  0  0  0
  -30.8540  -12.6860   19.4850 C   0  0  0  0  0  2  0  0  0  0  0  0
  -29.9420  -12.7580   18.2370 C   0  0  0  0  0  2  0  0  0  0  0  0
  -28.4580  -12.5860   18.6280 C   0  0  0  0  0  2  0  0  0  0  0  0
  -28.0500  -13.4840   19.8290 C   0  0  0  0  0  3  0  0  0  0  0  0
  -29.0770  -13.3640   20.9780 C   0  0  0  0  0  2  0  0  0  0  0  0
  -30.4020  -13.7170   20.4450 N   0  0  0  0  0  0  0  0  0  0  0  0
  -32.1340  -15.1440   20.0870 O   0  0  0  0  0  0  0  0  0  0  0  0
  -30.1890  -15.9790   20.9550 N   0  0  0  0  0  0  0  0  0  0  0  0
  -29.3690  -15.6390   21.4290 H   0  0  0  0  0  0  0  0  0  0  0  0
  -25.6510  -14.0860   20.5310 C   0  0  0  0  0  0  0  0  0  0  0  0
  -24.5740  -13.3130   20.8740 C   0  0  0  0  0  0  0  0  0  0  0  0
  -25.0290  -11.9590   20.8300 C   0  0  0  0  0  0  0  0  0  0  0  0
  -26.6910  -13.2030   20.2900 N   0  0  0  0  0  0  0  0  0  0  0  0
  -26.3230  -11.9180   20.5340 N   0  0  0  0  0  0  0  0  0  0  0  0
  -24.2970  -10.7000   21.0000 C   0  0  0  0  0  0  0  0  0  0  0  0
  -24.6740   -9.7520   21.9800 C   0  0  0  0  0  3  0  0  0  0  0  0
  -23.9470   -8.5510   22.1310 C   0  0  0  0  0  3  0  0  0  0  0  0
  -22.8300   -8.2900   21.3030 C   0  0  0  0  0  0  0  0  0  0  0  0
  -22.4730   -9.2240   20.3160 C   0  0  0  0  0  3  0  0  0  0  0  0
  -23.1990  -10.4170   20.1620 C   0  0  0  0  0  3  0  0  0  0  0  0
  -22.0740   -7.1430   21.3630 O   0  0  0  0  0  0  0  0  0  0  0  0
  -21.8830   -6.4670   22.5420 C   0  0  0  0  0  0  0  0  0  0  0  0
  -21.2430   -7.0650   23.6480 C   0  0  0  0  0  3  0  0  0  0  0  0
  -21.0060   -6.3110   24.8150 C   0  0  0  0  0  3  0  0  0  0  0  0
  -21.3980   -4.9580   24.8740 C   0  0  0  0  0  0  0  0  0  0  0  0
  -22.0310   -4.3620   23.7690 C   0  0  0  0  0  3  0  0  0  0  0  0
  -22.2710   -5.1140   22.6050 C   0  0  0  0  0  0  0  0  0  0  0  0
  -22.8630   -4.5270   21.5370 F   0  0  0  0  0  0  0  0  0  0  0  0
  -21.1640   -4.2320   25.9900 F   0  0  0  0  0  0  0  0  0  0  0  0
  -23.1740  -13.7920   21.1310 C   0  0  0  0  0  0  0  0  0  0  0  0
  -22.4280  -13.0910   21.9770 N   0  0  0  0  0  0  0  0  0  0  0  0
  -22.7460  -14.8200   20.6100 O   0  0  0  0  0  0  0  0  0  0  0  0
  -22.7810  -12.2570   22.4220 H   0  0  0  0  0  0  0  0  0  0  0  0
  -21.4860  -13.3930   22.1810 H   0  0  0  0  0  0  0  0  0  0  0  0
  -25.8320  -15.4590   20.3950 N   0  0  0  0  0  0  0  0  0  0  0  0
  -25.0870  -16.1240   20.5700 H   0  0  0  0  0  0  0  0  0  0  0  0
  -26.7070  -15.9000   20.1400 H   0  0  0  0  0  0  0  0  0  0  0  0
  -27.6380  -17.2290   18.0120 C   0  0  0  0  0  2  0  0  0  0  0  0
  -28.8510  -17.0890   18.5720 C   0  0  0  0  0  3  0  0  0  0  0  0
  -29.3970  -22.7550   20.1420 C   0  0  0  0  0  3  0  0  0  0  0  0
  -28.9520  -21.6290   20.6300 N   0  0  0  0  0  0  0  0  0  0  0  0
  -27.0840  -23.8110   20.4190 C   0  0  0  0  0  1  0  0  0  0  0  0
  -28.5620  -24.1180   20.0790 C   0  0  0  0  0  3  0  0  0  0  0  0
  -29.0870  -25.3980   20.9000 C   0  0  0  0  0  2  0  0  0  0  0  0
  -28.9800  -26.8130   20.4290 O   0  0  0  0  0  0  0  0  0  0  0  0
  -24.8110  -31.9750   23.4030 C   0  0  0  0  0  0  0  0  0  0  0  0
  -27.7890  -27.5580   20.4530 C   0  0  0  0  0  0  0  0  0  0  0  0
  -23.7620  -30.5370   21.6950 C   0  0  0  0  0  3  0  0  0  0  0  0
  -25.3510  -29.0600   20.3470 C   0  0  0  0  0  0  0  0  0  0  0  0
  -26.2900  -30.9730   21.6370 C   0  0  0  0  0  2  0  0  0  0  0  0
  -26.4640  -29.5940   21.0070 C   0  0  0  0  0  0  0  0  0  0  0  0
  -27.6850  -28.8510   21.0590 C   0  0  0  0  0  3  0  0  0  0  0  0
  -26.6660  -27.0980   19.7400 C   0  0  0  0  0  3  0  0  0  0  0  0
  -25.4540  -27.8160   19.7060 C   0  0  0  0  0  3  0  0  0  0  0  0
  -24.0780  -29.8820   20.3260 C   0  0  0  0  0  2  0  0  0  0  0  0
  -24.9700  -31.1810   22.3030 N   0  0  0  0  0  0  0  0  0  0  0  0
  -23.6900  -32.1920   23.8840 O   0  0  0  0  0  0  0  0  0  0  0  0
  -23.1000  -29.4820   22.6160 C   0  0  0  0  0  0  0  0  0  0  0  0
  -21.7960  -29.2270   22.4130 N   0  0  0  0  0  0  0  0  0  0  0  0
  -23.7620  -28.8940   23.4720 O   0  0  0  0  0  0  0  0  0  0  0  0
  -21.3150  -29.7560   21.7000 H   0  0  0  0  0  0  0  0  0  0  0  0
  -18.4750  -27.8300   22.7050 C   0  0  0  0  0  0  0  0  0  0  0  0
  -20.9920  -28.2440   23.1400 C   0  0  0  0  0  3  0  0  0  0  0  0
  -21.2210  -26.8190   22.5850 C   0  0  0  0  0  2  0  0  0  0  0  0
  -20.2070  -26.4270   21.5060 C   0  0  0  0  0  2  0  0  0  0  0  0
  -18.7780  -26.4930   22.0520 C   0  0  0  0  0  2  0  0  0  0  0  0
  -19.5160  -28.6580   23.2050 C   0  0  0  0  0  0  0  0  0  0  0  0
  -19.1770  -29.9070   23.7710 C   0  0  0  0  0  3  0  0  0  0  0  0
  -17.8350  -30.3280   23.8440 C   0  0  0  0  0  3  0  0  0  0  0  0
  -16.8100  -29.4970   23.3600 C   0  0  0  0  0  3  0  0  0  0  0  0
  -17.1330  -28.2500   22.7950 C   0  0  0  0  0  3  0  0  0  0  0  0
  -26.0260  -32.6650   24.0940 C   0  0  0  0  0  3  0  0  0  0  0  0
  -26.4720  -31.9500   25.4280 C   0  0  1  0  0  0  0  0  0  0  0  0
  -25.3090  -31.7010   26.4170 C   0  0  0  0  0  1  0  0  0  0  0  0
  -27.1300  -30.5870   25.1180 C   0  0  0  0  0  1  0  0  0  0  0  0
  -27.5450  -32.8000   26.1490 C   0  0  0  0  0  1  0  0  0  0  0  0
  -25.6540  -34.0630   24.3550 N   0  0  0  0  0  0  0  0  0  0  0  0
  -25.9830  -35.0950   23.5670 C   0  0  0  0  0  0  0  0  0  0  0  0
  -26.6920  -34.9720   22.5670 O   0  0  0  0  0  0  0  0  0  0  0  0
  -25.0210  -34.2250   25.1250 H   0  0  0  0  0  0  0  0  0  0  0  0
  -24.1940  -36.8010   23.0930 C   0  0  0  0  0  1  0  0  0  0  0  0
  -25.4320  -36.4850   23.9480 C   0  0  0  0  0  3  0  0  0  0  0  0
  -27.5080  -37.4990   24.7850 C   0  0  0  0  0  1  0  0  0  0  0  0
  -26.4250  -37.5710   23.8060 N   0  0  0  0  0  0  0  0  0  0  0  0
  -25.9800  -38.4800   23.8930 H   0  0  0  0  0  0  0  0  0  0  0  0
  1  3  2  0
  1  4  1  0
  2  6  1  0
  3  5  1  0
  4 49  1  0
  4  2  2  0
  5 16  1  0
  5  6  2  0
  6  7  1  0
  8 16  1  0
  9 14  1  0
 10 11  1  0
 10  9  1  0
 12 11  1  0
 12 21  1  0
 12 13  1  0
 14  8  1  0
 14 13  1  0
 15  8  2  0
 16 17  1  0
 18 19  2  0
 19 38  1  0
 20 19  1  0
 20 23  1  0
 21 18  1  0
 21 22  1  0
 22 20  2  0
 23 24  1  0
 24 25  2  0
 26 29  1  0
 26 25  1  0
 27 26  2  0
 28 27  1  0
 28 23  2  0
 29 30  1  0
 30 35  2  0
 30 31  1  0
 31 32  2  0
 32 33  1  0
 33 37  1  0
 34 33  2  0
 35 34  1  0
 36 35  1  0
 38 39  1  0
 39 42  1  0
 39 41  1  0
 40 38  2  0
 43 18  1  0
 43 44  1  0
 45 43  1  0
 46 47  2  0
 47  3  1  0
 48 49  2  0
 51 48  1  0
 51 50  1  0
 51 52  1  0
 53 55  1  0
 53 52  1  0
 54 65  2  0
 55 60  1  0
 56 64  1  0
 56 66  1  0
 57 59  1  0
 58 64  1  0
 59 60  2  0
 59 58  1  0
 61 55  2  0
 62 61  1  0
 62 57  2  0
 63 57  1  0
 63 56  1  0
 64 54  1  0
 66 68  2  0
 67 66  1  0
 69 67  1  0
 70 79  2  0
 70 75  1  0
 71 67  1  0
 71 75  1  0
 72 71  1  0
 73 74  1  0
 73 72  1  0
 74 70  1  0
 75 76  2  0
 76 77  1  0
 78 77  2  0
 79 78  1  0
 80 54  1  0
 80 85  1  0
 80 81  1  0
 81 84  1  1
 81 82  1  0
 83 81  1  0
 85 88  1  0
 86 90  1  0
 86 85  1  0
 87 86  2  0
 90 89  1  0
 92 93  1  0
 92 90  1  0
 92 91  1  0
M  ISO  4   8 100  16 100  52 101  53 101
M  END
>  <TORSDO>  (79) 
F 20

>  <SCORE>  (79) 
-12.649

>  <name>  (79) 
78

>  <ligand_id>  (79) 
78

>  <original_smiles>  (79) 
[H]C(=Nc1c([H])c(F)c(N([H])C(=O)N2C([H])([H])C([H])([H])C([H])([H])C([H])(n3nc(-c4c([H])c([H])c(Oc5c([H])c([H])c(F)c([H])c5F)c([H])c4[H])c(C(=O)N([H])[H])c3N([H])[H])C2([H])[H])c(C([H])=C([H])[H])c1[H])C([H])(C([H])([H])[H])C([H])([H])Oc1c([H])c([H])c2c(c1[H])C([H])([H])N(C(=O)C([H])(N([H])C(=O)C([H])(N([H])C([H])([H])[H])C([H])([H])[H])C(C([H])([H])[H])(C([H])([H])[H])C([H])([H])[H])C([H])(C(=O)N([H])C1([H])c3c([H])c([H])c([H])c([H])c3C([H])([H])C([H])([H])C1([H])[H])C2([H])[H]

>  <smiles>  (79) 
[H]C(=Nc1c([H])c(F)c(N([H])C(=O)N2C([H])([H])C([H])([H])C([H])([H])C([H])(n3nc(-c4c([H])c([H])c(Oc5c([H])c([H])c(F)c([H])c5F)c([H])c4[H])c(C(=O)N([H])[H])c3N([H])[H])C2([H])[H])c(C([H])=C([H])[H])c1[H])C([H])(C([H])([H])[H])C([H])([H])Oc1c([H])c([H])c2c(c1[H])C([H])([H])N(C(=O)C([H])(N([H])C(=O)C([H])(N([H])C([H])([H])[H])C([H])([H])[H])C(C([H])([H])[H])(C([H])([H])[H])C([H])([H])[H])C([H])(C(=O)N([H])C1([H])c3c([H])c([H])c([H])c([H])c3C([H])([H])C([H])([H])C1([H])[H])C2([H])[H]

$$$$
79:0:0
     RDKit          3D

 94102  0  0  1  0  0  0  0  0999 V2000
  -31.6470  -19.7610   19.4140 C   0  0  0  0  0  3  0  0  0  0  0  0
  -29.7910  -20.9850   20.4010 C   0  0  0  0  0  3  0  0  0  0  0  0
  -32.1120  -20.9470   18.8120 C   0  0  0  0  0  0  0  0  0  0  0  0
  -30.4610  -19.7230   20.1910 C   0  0  0  0  0  0  0  0  0  0  0  0
  -30.2500  -22.2180   19.8130 C   0  0  0  0  0  0  0  0  0  0  0  0
  -31.3980  -22.1550   18.9820 C   0  0  0  0  0  0  0  0  0  0  0  0
  -33.3790  -20.8840   17.9650 C   0  0  0  0  0  1  0  0  0  0  0  0
  -31.8170  -23.3070   18.3050 N   0  0  0  0  0  0  0  0  0  0  0  0
  -32.5290  -23.1430   17.6020 H   0  0  0  0  0  0  0  0  0  0  0  0
  -31.0620  -23.8510   17.9050 H   0  0  0  0  0  0  0  0  0  0  0  0
  -30.3770  -17.2970   20.4140 C   0  0  0  0  0  3  0  0  0  0  0  0
  -29.9790  -18.4900   20.7700 N   0  0  0  0  0  0  0  0  0  0  0  0
  -29.9150  -15.9280   21.0300 C   0  0  0  0  0  2  0  0  0  0  0  0
  -30.6440  -14.6310   20.4900 C   0  0  0  0  0  0  0  0  0  0  0  0
  -30.3850  -12.4120   19.3920 C   0  0  0  0  0  2  0  0  0  0  0  0
  -29.4680  -12.5670   18.1590 C   0  0  0  0  0  2  0  0  0  0  0  0
  -27.9890  -12.4180   18.5690 C   0  0  0  0  0  2  0  0  0  0  0  0
  -27.6200  -13.2800   19.8060 C   0  0  0  0  0  3  0  0  0  0  0  0
  -28.6630  -13.1240   20.9380 C   0  0  0  0  0  2  0  0  0  0  0  0
  -29.9870  -13.4310   20.3800 N   0  0  0  0  0  0  0  0  0  0  0  0
  -31.8000  -14.7380   20.0700 O   0  0  0  0  0  0  0  0  0  0  0  0
  -25.2140  -13.8900   20.4720 C   0  0  0  0  0  0  0  0  0  0  0  0
  -24.1380  -13.1230   20.8310 C   0  0  0  0  0  0  0  0  0  0  0  0
  -24.5980  -11.7700   20.8240 C   0  0  0  0  0  0  0  0  0  0  0  0
  -26.2620  -13.0060   20.2690 N   0  0  0  0  0  0  0  0  0  0  0  0
  -25.8940  -11.7270   20.5420 N   0  0  0  0  0  0  0  0  0  0  0  0
  -23.8650  -10.5130   21.0170 C   0  0  0  0  0  0  0  0  0  0  0  0
  -24.2820   -9.5530   21.9640 C   0  0  0  0  0  3  0  0  0  0  0  0
  -23.5520   -8.3600   22.1450 C   0  0  0  0  0  3  0  0  0  0  0  0
  -22.3880   -8.1170   21.3760 C   0  0  0  0  0  0  0  0  0  0  0  0
  -21.9890   -9.0640   20.4180 C   0  0  0  0  0  3  0  0  0  0  0  0
  -22.7210  -10.2500   20.2350 C   0  0  0  0  0  3  0  0  0  0  0  0
  -21.6310   -6.9740   21.4630 O   0  0  0  0  0  0  0  0  0  0  0  0
  -21.5700   -6.2360   22.6170 C   0  0  0  0  0  0  0  0  0  0  0  0
  -21.1420   -6.8000   23.8390 C   0  0  0  0  0  3  0  0  0  0  0  0
  -21.0300   -5.9890   24.9860 C   0  0  0  0  0  3  0  0  0  0  0  0
  -21.3340   -4.6180   24.9120 C   0  0  0  0  0  0  0  0  0  0  0  0
  -21.7520   -4.0520   23.6950 C   0  0  0  0  0  3  0  0  0  0  0  0
  -21.8670   -4.8610   22.5510 C   0  0  0  0  0  0  0  0  0  0  0  0
  -22.2510   -4.3080   21.3750 F   0  0  0  0  0  0  0  0  0  0  0  0
  -21.2170   -3.8380   26.0110 F   0  0  0  0  0  0  0  0  0  0  0  0
  -22.7360  -13.6050   21.0700 C   0  0  0  0  0  0  0  0  0  0  0  0
  -21.9910  -12.9210   21.9300 N   0  0  0  0  0  0  0  0  0  0  0  0
  -22.3110  -14.6270   20.5310 O   0  0  0  0  0  0  0  0  0  0  0  0
  -22.3510  -12.0950   22.3860 H   0  0  0  0  0  0  0  0  0  0  0  0
  -21.0500  -13.2250   22.1340 H   0  0  0  0  0  0  0  0  0  0  0  0
  -25.3770  -15.2600   20.2840 N   0  0  0  0  0  0  0  0  0  0  0  0
  -24.5970  -15.9020   20.3690 H   0  0  0  0  0  0  0  0  0  0  0  0
  -26.2320  -15.7100   19.9820 H   0  0  0  0  0  0  0  0  0  0  0  0
  -29.6910  -23.5340   19.9600 N   0  0  0  0  0  0  0  0  0  0  0  0
  -30.2620  -24.2190   19.4740 H   0  0  0  0  0  0  0  0  0  0  0  0
  -28.6580  -24.0300   20.7660 C   0  0  0  0  0  3  0  0  0  0  0  0
  -28.1090  -25.2800   20.9010 C   0  0  0  0  0  3  0  0  0  0  0  0
  -28.3770  -26.5010   20.2640 O   0  0  0  0  0  0  0  0  0  0  0  0
  -24.6270  -31.8920   23.2390 C   0  0  0  0  0  0  0  0  0  0  0  0
  -27.2870  -27.3730   20.1960 C   0  0  0  0  0  0  0  0  0  0  0  0
  -23.4340  -30.4830   21.5960 C   0  0  0  0  0  3  0  0  0  0  0  0
  -24.9010  -28.9360   20.1810 C   0  0  0  0  0  0  0  0  0  0  0  0
  -25.9700  -30.8260   21.4180 C   0  0  0  0  0  2  0  0  0  0  0  0
  -26.0650  -29.4480   20.7750 C   0  0  0  0  0  0  0  0  0  0  0  0
  -27.2620  -28.6760   20.7760 C   0  0  0  0  0  3  0  0  0  0  0  0
  -26.1070  -26.9100   19.5740 C   0  0  0  0  0  3  0  0  0  0  0  0
  -24.9220  -27.6690   19.5750 C   0  0  0  0  0  3  0  0  0  0  0  0
  -23.6580  -29.7990   20.2210 C   0  0  0  0  0  2  0  0  0  0  0  0
  -24.6960  -31.0830   22.1420 N   0  0  0  0  0  0  0  0  0  0  0  0
  -23.5420  -32.1630   23.7720 O   0  0  0  0  0  0  0  0  0  0  0  0
  -22.7710  -29.4670   22.5600 C   0  0  0  0  0  0  0  0  0  0  0  0
  -21.4450  -29.2870   22.4290 N   0  0  0  0  0  0  0  0  0  0  0  0
  -23.4490  -28.8480   23.3850 O   0  0  0  0  0  0  0  0  0  0  0  0
  -20.9630  -29.8400   21.7350 H   0  0  0  0  0  0  0  0  0  0  0  0
  -18.0660  -28.1030   22.9320 C   0  0  0  0  0  0  0  0  0  0  0  0
  -20.6250  -28.3540   23.2040 C   0  0  0  0  0  3  0  0  0  0  0  0
  -20.7230  -26.9220   22.6300 C   0  0  0  0  0  2  0  0  0  0  0  0
  -19.6200  -26.6020   21.6170 C   0  0  0  0  0  2  0  0  0  0  0  0
  -18.2370  -26.7540   22.2580 C   0  0  0  0  0  2  0  0  0  0  0  0
  -19.1860  -28.8610   23.3620 C   0  0  0  0  0  0  0  0  0  0  0  0
  -18.9710  -30.1250   23.9510 C   0  0  0  0  0  3  0  0  0  0  0  0
  -17.6680  -30.6310   24.1200 C   0  0  0  0  0  3  0  0  0  0  0  0
  -16.5610  -29.8690   23.7090 C   0  0  0  0  0  3  0  0  0  0  0  0
  -16.7610  -28.6070   23.1220 C   0  0  0  0  0  3  0  0  0  0  0  0
  -25.9050  -32.5320   23.8650 C   0  0  0  0  0  3  0  0  0  0  0  0
  -25.5870  -33.9300   24.1870 N   0  0  0  0  0  0  0  0  0  0  0  0
  -25.9220  -34.9810   23.4270 C   0  0  0  0  0  0  0  0  0  0  0  0
  -26.6000  -34.8780   22.4000 O   0  0  0  0  0  0  0  0  0  0  0  0
  -24.9880  -34.0860   24.9820 H   0  0  0  0  0  0  0  0  0  0  0  0
  -24.1890  -36.7630   23.0520 C   0  0  0  0  0  1  0  0  0  0  0  0
  -25.4250  -36.3680   23.8760 C   0  0  0  0  0  3  0  0  0  0  0  0
  -27.5480  -37.2550   24.7270 C   0  0  0  0  0  1  0  0  0  0  0  0
  -26.4530  -37.4270   23.7760 N   0  0  0  0  0  0  0  0  0  0  0  0
  -26.0420  -38.3440   23.9290 H   0  0  0  0  0  0  0  0  0  0  0  0
  -26.4170  -31.7720   25.1490 C   0  0  1  0  0  0  0  0  0  0  0  0
  -25.3210  -31.5370   26.2130 C   0  0  0  0  0  1  0  0  0  0  0  0
  -27.0070  -30.3950   24.7670 C   0  0  0  0  0  1  0  0  0  0  0  0
  -27.5590  -32.5760   25.8130 C   0  0  0  0  0  1  0  0  0  0  0  0
  1  4  1  0
  3  6  1  0
  3  1  2  0
  4  2  2  0
  4 12  1  0
  5 50  1  0
  5  2  1  0
  6  5  2  0
  7  3  1  0
  8  6  1  0
  9  8  1  0
 10  8  1  0
 11 12  2  0
 11 13  1  0
 14 13  1  0
 15 20  1  0
 16 17  1  0
 16 15  1  0
 18 17  1  0
 18 25  1  0
 18 19  1  0
 20 14  1  0
 20 19  1  0
 21 14  2  0
 22 23  2  0
 23 42  1  0
 24 23  1  0
 24 27  1  0
 25 22  1  0
 25 26  1  0
 26 24  2  0
 27 28  1  0
 28 29  2  0
 30 33  1  0
 30 29  1  0
 31 30  2  0
 32 31  1  0
 32 27  2  0
 33 34  1  0
 34 35  1  0
 35 36  2  0
 37 36  1  0
 37 41  1  0
 38 37  2  0
 39 34  2  0
 39 38  1  0
 40 39  1  0
 42 43  1  0
 43 46  1  0
 43 45  1  0
 44 42  2  0
 47 48  1  0
 47 22  1  0
 49 47  1  0
 50 52  1  0
 51 50  1  0
 52 53  2  0
 54 53  1  0
 55 66  2  0
 56 54  1  0
 56 61  1  0
 57 65  1  0
 57 67  1  0
 58 64  1  0
 58 60  1  0
 59 65  1  0
 60 61  2  0
 60 59  1  0
 62 63  1  0
 62 56  2  0
 63 58  2  0
 64 57  1  0
 65 55  1  0
 67 69  2  0
 68 67  1  0
 70 68  1  0
 71 80  2  0
 71 76  1  0
 72 68  1  0
 72 76  1  0
 73 72  1  0
 74 75  1  0
 74 73  1  0
 75 71  1  0
 76 77  2  0
 77 78  1  0
 79 78  2  0
 80 79  1  0
 81 55  1  0
 81 82  1  0
 81 91  1  0
 82 85  1  0
 83 87  1  0
 83 82  1  0
 84 83  2  0
 87 86  1  0
 89 87  1  0
 89 90  1  0
 89 88  1  0
 91 94  1  1
 91 92  1  0
 93 91  1  0
M  ISO  4  13 100  14 100  53 101  54 101
M  END
>  <TORSDO>  (80) 
F 21

>  <SCORE>  (80) 
-13.604

>  <name>  (80) 
79

>  <ligand_id>  (80) 
79

>  <original_smiles>  (80) 
[H]C(=Nc1c([H])c(N([H])C([H])=C([H])Oc2c([H])c([H])c3c(c2[H])C([H])([H])N(C(=O)C([H])(N([H])C(=O)C([H])(N([H])C([H])([H])[H])C([H])([H])[H])C(C([H])([H])[H])(C([H])([H])[H])C([H])([H])[H])C([H])(C(=O)N([H])C2([H])c4c([H])c([H])c([H])c([H])c4C([H])([H])C([H])([H])C2([H])[H])C3([H])[H])c(N([H])[H])c(C([H])([H])[H])c1[H])C([H])([H])C(=O)N1C([H])([H])C([H])([H])C([H])([H])C([H])(n2nc(-c3c([H])c([H])c(Oc4c([H])c([H])c(F)c([H])c4F)c([H])c3[H])c(C(=O)N([H])[H])c2N([H])[H])C1([H])[H]

>  <smiles>  (80) 
[H]C(=Nc1c([H])c(N([H])C([H])=C([H])Oc2c([H])c([H])c3c(c2[H])C([H])([H])N(C(=O)C([H])(N([H])C(=O)C([H])(N([H])C([H])([H])[H])C([H])([H])[H])C(C([H])([H])[H])(C([H])([H])[H])C([H])([H])[H])C([H])(C(=O)N([H])C2([H])c4c([H])c([H])c([H])c([H])c4C([H])([H])C([H])([H])C2([H])[H])C3([H])[H])c(N([H])[H])c(C([H])([H])[H])c1[H])C([H])([H])C(=O)N1C([H])([H])C([H])([H])C([H])([H])C([H])(n2nc(-c3c([H])c([H])c(Oc4c([H])c([H])c(F)c([H])c4F)c([H])c3[H])c(C(=O)N([H])[H])c2N([H])[H])C1([H])[H]

$$$$
80:0:0
     RDKit          3D

 91100  0  0  1  0  0  0  0  0999 V2000
  -28.9080  -24.2590   20.2560 C   0  0  0  0  0  0  0  0  0  0  0  0
  -28.5940  -22.9510   20.8240 C   0  0  0  0  0  0  0  0  0  0  0  0
  -28.2550  -25.3860   20.6390 C   0  0  0  0  0  3  0  0  0  0  0  0
  -29.9760  -24.1290   19.2130 C   0  0  0  0  0  3  0  0  0  0  0  0
  -30.2350  -22.6140   19.1840 C   0  0  0  0  0  3  0  0  0  0  0  0
  -29.3410  -22.0100   20.1840 N   0  0  0  0  0  0  0  0  0  0  0  0
  -27.7850  -22.7330   21.7320 O   0  0  0  0  0  0  0  0  0  0  0  0
  -28.8220  -18.4680   21.2150 C   0  0  0  0  0  3  0  0  0  0  0  0
  -28.6090  -19.8860   21.2980 C   0  0  0  0  0  3  0  0  0  0  0  0
  -29.6990  -18.1060   20.2270 C   0  0  0  0  0  0  0  0  0  0  0  0
  -29.3130  -20.6410   20.3780 C   0  0  0  0  0  0  0  0  0  0  0  0
  -30.2600  -19.5350   19.3800 S   0  0  0  0  0  0  0  0  0  0  0  0
  -30.2100  -16.7860   19.8210 C   0  0  0  0  0  3  0  0  0  0  0  0
  -30.0560  -15.6470   20.4110 N   0  0  0  0  0  0  0  0  0  0  0  0
  -30.7500  -14.5680   19.8390 C   0  0  0  0  0  0  0  0  0  0  0  0
  -30.3500  -12.4090   18.7030 C   0  0  0  0  0  2  0  0  0  0  0  0
  -29.3080  -12.6320   17.5890 C   0  0  0  0  0  2  0  0  0  0  0  0
  -27.8800  -12.4700   18.1450 C   0  0  0  0  0  2  0  0  0  0  0  0
  -27.6520  -13.2800   19.4490 C   0  0  0  0  0  3  0  0  0  0  0  0
  -28.8070  -13.0700   20.4520 C   0  0  0  0  0  2  0  0  0  0  0  0
  -30.0690  -13.3870   19.7690 N   0  0  0  0  0  0  0  0  0  0  0  0
  -31.8460  -14.6790   19.2800 O   0  0  0  0  0  0  0  0  0  0  0  0
  -25.3440  -13.8480   20.4310 C   0  0  0  0  0  0  0  0  0  0  0  0
  -24.3110  -13.0590   20.8630 C   0  0  0  0  0  0  0  0  0  0  0  0
  -24.7570  -11.7100   20.7120 C   0  0  0  0  0  0  0  0  0  0  0  0
  -26.3530  -12.9790   20.0490 N   0  0  0  0  0  0  0  0  0  0  0  0
  -26.0090  -11.6840   20.2750 N   0  0  0  0  0  0  0  0  0  0  0  0
  -24.0420  -10.4410   20.9060 C   0  0  0  0  0  0  0  0  0  0  0  0
  -24.5070   -9.4620   21.8110 C   0  0  0  0  0  3  0  0  0  0  0  0
  -23.7920   -8.2590   21.9940 C   0  0  0  0  0  3  0  0  0  0  0  0
  -22.5980   -8.0250   21.2700 C   0  0  0  0  0  0  0  0  0  0  0  0
  -22.1510   -8.9940   20.3540 C   0  0  0  0  0  3  0  0  0  0  0  0
  -22.8670  -10.1890   20.1700 C   0  0  0  0  0  3  0  0  0  0  0  0
  -21.8530   -6.8740   21.3620 O   0  0  0  0  0  0  0  0  0  0  0  0
  -21.7680   -6.1630   22.5320 C   0  0  0  0  0  0  0  0  0  0  0  0
  -21.2930   -6.7480   23.7260 C   0  0  0  0  0  3  0  0  0  0  0  0
  -21.1550   -5.9630   24.8880 C   0  0  0  0  0  3  0  0  0  0  0  0
  -21.4850   -4.5940   24.8570 C   0  0  0  0  0  0  0  0  0  0  0  0
  -21.9530   -4.0090   23.6670 C   0  0  0  0  0  3  0  0  0  0  0  0
  -22.0920   -4.7920   22.5080 C   0  0  0  0  0  0  0  0  0  0  0  0
  -22.5230   -4.2190   21.3580 F   0  0  0  0  0  0  0  0  0  0  0  0
  -21.3460   -3.8370   25.9700 F   0  0  0  0  0  0  0  0  0  0  0  0
  -22.9520  -13.5250   21.3010 C   0  0  0  0  0  0  0  0  0  0  0  0
  -22.3130  -12.7880   22.2020 N   0  0  0  0  0  0  0  0  0  0  0  0
  -22.4700  -14.5740   20.8790 O   0  0  0  0  0  0  0  0  0  0  0  0
  -22.7170  -11.9370   22.5640 H   0  0  0  0  0  0  0  0  0  0  0  0
  -21.4060  -13.0810   22.5370 H   0  0  0  0  0  0  0  0  0  0  0  0
  -25.5030  -15.2260   20.3120 N   0  0  0  0  0  0  0  0  0  0  0  0
  -24.7640  -15.8850   20.5280 H   0  0  0  0  0  0  0  0  0  0  0  0
  -26.3420  -15.6680   19.9550 H   0  0  0  0  0  0  0  0  0  0  0  0
  -28.4420  -26.6600   20.1240 O   0  0  0  0  0  0  0  0  0  0  0  0
  -24.6210  -31.8600   23.2090 C   0  0  0  0  0  0  0  0  0  0  0  0
  -27.3090  -27.4540   20.0980 C   0  0  0  0  0  0  0  0  0  0  0  0
  -23.4320  -30.4590   21.5530 C   0  0  0  0  0  3  0  0  0  0  0  0
  -24.9070  -28.9560   20.1100 C   0  0  0  0  0  0  0  0  0  0  0  0
  -25.9580  -30.8440   21.3620 C   0  0  0  0  0  2  0  0  0  0  0  0
  -26.0610  -29.4790   20.7080 C   0  0  0  0  0  0  0  0  0  0  0  0
  -27.2680  -28.7370   20.6990 C   0  0  0  0  0  3  0  0  0  0  0  0
  -26.1390  -26.9570   19.4840 C   0  0  0  0  0  3  0  0  0  0  0  0
  -24.9420  -27.6940   19.4930 C   0  0  0  0  0  3  0  0  0  0  0  0
  -23.6520  -29.7990   20.1660 C   0  0  0  0  0  2  0  0  0  0  0  0
  -24.6890  -31.0690   22.0990 N   0  0  0  0  0  0  0  0  0  0  0  0
  -23.5370  -32.1150   23.7500 O   0  0  0  0  0  0  0  0  0  0  0  0
  -22.7900  -29.4220   22.5030 C   0  0  0  0  0  0  0  0  0  0  0  0
  -21.4710  -29.2130   22.3610 N   0  0  0  0  0  0  0  0  0  0  0  0
  -23.4780  -28.8070   23.3230 O   0  0  0  0  0  0  0  0  0  0  0  0
  -20.9760  -29.7610   21.6700 H   0  0  0  0  0  0  0  0  0  0  0  0
  -18.1190  -27.9420   22.8120 C   0  0  0  0  0  0  0  0  0  0  0  0
  -20.6650  -28.2570   23.1210 C   0  0  0  0  0  3  0  0  0  0  0  0
  -20.8090  -26.8300   22.5460 C   0  0  0  0  0  2  0  0  0  0  0  0
  -19.7290  -26.4830   21.5160 C   0  0  0  0  0  2  0  0  0  0  0  0
  -18.3350  -26.5960   22.1400 C   0  0  0  0  0  2  0  0  0  0  0  0
  -19.2120  -28.7280   23.2590 C   0  0  0  0  0  0  0  0  0  0  0  0
  -18.9570  -29.9860   23.8470 C   0  0  0  0  0  3  0  0  0  0  0  0
  -17.6390  -30.4600   23.9910 C   0  0  0  0  0  3  0  0  0  0  0  0
  -16.5590  -29.6690   23.5630 C   0  0  0  0  0  3  0  0  0  0  0  0
  -16.7990  -28.4130   22.9790 C   0  0  0  0  0  3  0  0  0  0  0  0
  -25.9000  -32.4980   23.8350 C   0  0  0  0  0  3  0  0  0  0  0  0
  -25.5830  -33.8970   24.1540 N   0  0  0  0  0  0  0  0  0  0  0  0
  -25.9160  -34.9450   23.3890 C   0  0  0  0  0  0  0  0  0  0  0  0
  -26.5930  -34.8380   22.3620 O   0  0  0  0  0  0  0  0  0  0  0  0
  -24.9820  -34.0550   24.9500 H   0  0  0  0  0  0  0  0  0  0  0  0
  -24.1820  -36.7260   23.0100 C   0  0  0  0  0  1  0  0  0  0  0  0
  -25.4190  -36.3330   23.8340 C   0  0  0  0  0  3  0  0  0  0  0  0
  -27.5440  -37.2330   24.6710 C   0  0  0  0  0  1  0  0  0  0  0  0
  -26.4460  -37.3910   23.7220 N   0  0  0  0  0  0  0  0  0  0  0  0
  -26.0350  -38.3090   23.8640 H   0  0  0  0  0  0  0  0  0  0  0  0
  -26.4130  -31.7340   25.1160 C   0  0  1  0  0  0  0  0  0  0  0  0
  -25.3170  -31.4990   26.1800 C   0  0  0  0  0  1  0  0  0  0  0  0
  -27.0010  -30.3550   24.7310 C   0  0  0  0  0  1  0  0  0  0  0  0
  -27.5580  -32.5340   25.7800 C   0  0  0  0  0  1  0  0  0  0  0  0
  1  3  2  0
  1  2  1  0
  2  7  2  0
  4  1  1  0
  5  4  2  0
  5  6  1  0
  6 11  1  0
  6  2  1  0
  8  9  1  0
 10  8  2  0
 11  9  2  0
 12 10  1  0
 12 11  1  0
 13 10  1  0
 13 14  2  0
 15 14  1  0
 16 21  1  0
 17 18  1  0
 17 16  1  0
 19 18  1  0
 19 26  1  0
 19 20  1  0
 21 15  1  0
 21 20  1  0
 22 15  2  0
 23 24  2  0
 24 43  1  0
 25 24  1  0
 25 28  1  0
 26 27  1  0
 26 23  1  0
 27 25  2  0
 28 29  1  0
 29 30  2  0
 31 34  1  0
 31 30  1  0
 32 31  2  0
 33 32  1  0
 33 28  2  0
 34 35  1  0
 35 36  1  0
 36 37  2  0
 38 37  1  0
 38 42  1  0
 39 38  2  0
 40 35  2  0
 40 39  1  0
 41 40  1  0
 43 44  1  0
 44 47  1  0
 44 46  1  0
 45 43  2  0
 48 23  1  0
 48 49  1  0
 50 48  1  0
 51  3  1  0
 52 63  2  0
 53 51  1  0
 53 58  1  0
 54 62  1  0
 54 64  1  0
 55 61  1  0
 55 57  1  0
 56 62  1  0
 57 56  1  0
 58 57  2  0
 59 60  1  0
 59 53  2  0
 60 55  2  0
 61 54  1  0
 62 52  1  0
 64 66  2  0
 65 64  1  0
 67 65  1  0
 68 77  2  0
 68 73  1  0
 69 65  1  0
 69 73  1  0
 70 69  1  0
 71 72  1  0
 71 70  1  0
 72 68  1  0
 73 74  2  0
 74 75  1  0
 76 75  2  0
 77 76  1  0
 78 52  1  0
 78 79  1  0
 78 88  1  0
 79 82  1  0
 80 84  1  0
 80 79  1  0
 81 80  2  0
 84 83  1  0
 86 84  1  0
 86 87  1  0
 86 85  1  0
 88 91  1  1
 88 89  1  0
 90 88  1  0
M  ISO  4   3 101  14 100  15 100  51 101
M  END
>  <TORSDO>  (81) 
F 18

>  <SCORE>  (81) 
-13.167

>  <name>  (81) 
80

>  <ligand_id>  (81) 
80

>  <original_smiles>  (81) 
[H]C(=NC(=O)N1C([H])([H])C([H])([H])C([H])([H])C([H])(n2nc(-c3c([H])c([H])c(Oc4c([H])c([H])c(F)c([H])c4F)c([H])c3[H])c(C(=O)N([H])[H])c2N([H])[H])C1([H])[H])c1sc(N2C(=O)C(=C([H])Oc3c([H])c([H])c4c(c3[H])C([H])([H])N(C(=O)C([H])(N([H])C(=O)C([H])(N([H])C([H])([H])[H])C([H])([H])[H])C(C([H])([H])[H])(C([H])([H])[H])C([H])([H])[H])C([H])(C(=O)N([H])C3([H])c5c([H])c([H])c([H])c([H])c5C([H])([H])C([H])([H])C3([H])[H])C4([H])[H])C([H])([H])C2([H])[H])c([H])c1[H]

>  <smiles>  (81) 
[H]C(=NC(=O)N1C([H])([H])C([H])([H])C([H])([H])C([H])(n2nc(-c3c([H])c([H])c(Oc4c([H])c([H])c(F)c([H])c4F)c([H])c3[H])c(C(=O)N([H])[H])c2N([H])[H])C1([H])[H])c1sc(N2C(=O)C(=C([H])Oc3c([H])c([H])c4c(c3[H])C([H])([H])N(C(=O)C([H])(N([H])C(=O)C([H])(N([H])C([H])([H])[H])C([H])([H])[H])C(C([H])([H])[H])(C([H])([H])[H])C([H])([H])[H])C([H])(C(=O)N([H])C3([H])c5c([H])c([H])c([H])c([H])c5C([H])([H])C([H])([H])C3([H])[H])C4([H])[H])C([H])([H])C2([H])[H])c([H])c1[H]

$$$$
81:0:0
     RDKit          3D

 96104  0  0  1  0  0  0  0  0999 V2000
  -30.1290  -19.2940   19.8240 C   0  0  0  0  0  3  0  0  0  0  0  0
  -27.5950  -18.9820   18.6990 C   0  0  0  0  0  3  0  0  0  0  0  0
  -29.6420  -17.9640   19.6240 C   0  0  0  0  0  0  0  0  0  0  0  0
  -29.3790  -20.4550   19.4840 C   0  0  0  0  0  0  0  0  0  0  0  0
  -28.3280  -17.8350   19.0760 C   0  0  0  0  0  0  0  0  0  0  0  0
  -28.1130  -20.2750   18.8810 C   0  0  0  0  0  0  0  0  0  0  0  0
  -27.3920  -21.3440   18.4590 F   0  0  0  0  0  0  0  0  0  0  0  0
  -30.5250  -16.7680   19.9530 C   0  0  0  0  0  3  0  0  0  0  0  0
  -31.8320  -17.1550   20.6520 C   0  0  0  0  0  1  0  0  0  0  0  0
  -30.1640  -15.5480   19.6840 N   0  0  0  0  0  2  0  0  0  0  0  0
  -31.0310  -14.4410   19.7040 C   0  0  0  0  0  0  0  0  0  0  0  0
  -30.8480  -11.9920   19.4110 C   0  0  0  0  0  2  0  0  0  0  0  0
  -29.9400  -11.7380   18.1870 C   0  0  0  0  0  2  0  0  0  0  0  0
  -28.4550  -11.7090   18.6010 C   0  0  0  0  0  2  0  0  0  0  0  0
  -28.0600  -12.9150   19.4970 C   0  0  0  0  0  3  0  0  0  0  0  0
  -29.0880  -13.1230   20.6310 C   0  0  0  0  0  2  0  0  0  0  0  0
  -30.4200  -13.2620   20.0220 N   0  0  0  0  0  0  0  0  0  0  0  0
  -32.1970  -14.4440   19.3020 O   0  0  0  0  0  0  0  0  0  0  0  0
  -25.7480  -13.7590   20.2500 C   0  0  0  0  0  0  0  0  0  0  0  0
  -24.6240  -13.1010   20.6690 C   0  0  0  0  0  0  0  0  0  0  0  0
  -24.9580  -11.7120   20.6680 C   0  0  0  0  0  0  0  0  0  0  0  0
  -26.7010  -12.7790   20.0190 N   0  0  0  0  0  0  0  0  0  0  0  0
  -26.2290  -11.5430   20.3280 N   0  0  0  0  0  0  0  0  0  0  0  0
  -24.1230  -10.5280   20.9150 C   0  0  0  0  0  0  0  0  0  0  0  0
  -24.5150   -9.5260   21.8290 C   0  0  0  0  0  3  0  0  0  0  0  0
  -23.6860   -8.4080   22.0640 C   0  0  0  0  0  3  0  0  0  0  0  0
  -22.4500   -8.2860   21.3850 C   0  0  0  0  0  0  0  0  0  0  0  0
  -22.0760   -9.2750   20.4590 C   0  0  0  0  0  3  0  0  0  0  0  0
  -22.9050  -10.3850   20.2210 C   0  0  0  0  0  3  0  0  0  0  0  0
  -21.5930   -7.2220   21.5280 O   0  0  0  0  0  0  0  0  0  0  0  0
  -21.5850   -6.4520   22.6640 C   0  0  0  0  0  0  0  0  0  0  0  0
  -21.3250   -7.0050   23.9380 C   0  0  0  0  0  3  0  0  0  0  0  0
  -21.2570   -6.1660   25.0690 C   0  0  0  0  0  3  0  0  0  0  0  0
  -21.4390   -4.7780   24.9280 C   0  0  0  0  0  0  0  0  0  0  0  0
  -21.6910   -4.2240   23.6600 C   0  0  0  0  0  3  0  0  0  0  0  0
  -21.7610   -5.0600   22.5320 C   0  0  0  0  0  0  0  0  0  0  0  0
  -21.9850   -4.5190   21.3100 F   0  0  0  0  0  0  0  0  0  0  0  0
  -21.3650   -3.9710   26.0130 F   0  0  0  0  0  0  0  0  0  0  0  0
  -23.2870  -13.7150   20.9640 C   0  0  0  0  0  0  0  0  0  0  0  0
  -22.5330  -13.1310   21.8900 N   0  0  0  0  0  0  0  0  0  0  0  0
  -22.9210  -14.7490   20.4070 O   0  0  0  0  0  0  0  0  0  0  0  0
  -22.8440  -12.2950   22.3620 H   0  0  0  0  0  0  0  0  0  0  0  0
  -21.6360  -13.5280   22.1300 H   0  0  0  0  0  0  0  0  0  0  0  0
  -26.0310  -15.1030   20.0280 N   0  0  0  0  0  0  0  0  0  0  0  0
  -25.3380  -15.8320   20.1500 H   0  0  0  0  0  0  0  0  0  0  0  0
  -26.9340  -15.4560   19.7350 H   0  0  0  0  0  0  0  0  0  0  0  0
  -27.7110  -16.5950   18.8930 N   0  0  0  0  0  0  0  0  0  0  0  0
  -27.0240  -16.5180   18.1490 H   0  0  0  0  0  0  0  0  0  0  0  0
  -28.3430  -15.7970   18.8980 H   0  0  0  0  0  0  0  0  0  0  0  0
  -29.9130  -21.7510   19.6970 N   0  0  0  0  0  0  0  0  0  0  0  0
  -30.1870  -22.2060   18.8290 H   0  0  0  0  0  0  0  0  0  0  0  0
  -29.1100  -22.7070   20.4960 C   0  0  0  0  0  2  0  0  0  0  0  0
  -29.1540  -24.1870   20.0180 C   0  0  0  0  0  0  0  0  0  0  0  0
  -29.7530  -24.4960   18.9820 O   0  0  0  0  0  0  0  0  0  0  0  0
  -28.4050  -25.2380   20.8780 C   0  0  0  0  0  2  0  0  0  0  0  0
  -28.5890  -26.6060   20.4340 O   0  0  0  0  0  0  0  0  0  0  0  0
  -24.5760  -31.7670   23.3320 C   0  0  0  0  0  0  0  0  0  0  0  0
  -27.4340  -27.3580   20.3820 C   0  0  0  0  0  0  0  0  0  0  0  0
  -23.4850  -30.3780   21.6030 C   0  0  0  0  0  3  0  0  0  0  0  0
  -25.0350  -28.8600   20.2550 C   0  0  0  0  0  0  0  0  0  0  0  0
  -26.0180  -30.7510   21.5650 C   0  0  0  0  0  2  0  0  0  0  0  0
  -26.1540  -29.3860   20.9140 C   0  0  0  0  0  0  0  0  0  0  0  0
  -27.3610  -28.6470   20.9650 C   0  0  0  0  0  3  0  0  0  0  0  0
  -26.2970  -26.8480   19.7200 C   0  0  0  0  0  3  0  0  0  0  0  0
  -25.1030  -27.5930   19.6520 C   0  0  0  0  0  3  0  0  0  0  0  0
  -23.7820  -29.7100   20.2340 C   0  0  0  0  0  2  0  0  0  0  0  0
  -24.7070  -30.9790   22.2250 N   0  0  0  0  0  0  0  0  0  0  0  0
  -23.4600  -32.0250   23.8070 O   0  0  0  0  0  0  0  0  0  0  0  0
  -22.7800  -29.3430   22.5100 C   0  0  0  0  0  0  0  0  0  0  0  0
  -21.4550  -29.1990   22.3380 N   0  0  0  0  0  0  0  0  0  0  0  0
  -23.4220  -28.6740   23.3240 O   0  0  0  0  0  0  0  0  0  0  0  0
  -20.9980  -29.7930   21.6610 H   0  0  0  0  0  0  0  0  0  0  0  0
  -18.0300  -28.1290   22.7490 C   0  0  0  0  0  0  0  0  0  0  0  0
  -20.5940  -28.2530   23.0470 C   0  0  0  0  0  3  0  0  0  0  0  0
  -20.6360  -26.8530   22.3920 C   0  0  0  0  0  2  0  0  0  0  0  0
  -19.5300  -26.6370   21.3550 C   0  0  0  0  0  2  0  0  0  0  0  0
  -18.1500  -26.8130   21.9950 C   0  0  0  0  0  2  0  0  0  0  0  0
  -19.1790  -28.8120   23.2290 C   0  0  0  0  0  0  0  0  0  0  0  0
  -19.0130  -30.0470   23.8910 C   0  0  0  0  0  3  0  0  0  0  0  0
  -17.7330  -30.6030   24.0760 C   0  0  0  0  0  3  0  0  0  0  0  0
  -16.5990  -29.9130   23.6150 C   0  0  0  0  0  3  0  0  0  0  0  0
  -16.7480  -28.6800   22.9570 C   0  0  0  0  0  3  0  0  0  0  0  0
  -25.8170  -32.3970   24.0390 C   0  0  0  0  0  3  0  0  0  0  0  0
  -25.5130  -33.8130   24.2830 N   0  0  0  0  0  0  0  0  0  0  0  0
  -25.9310  -34.8250   23.5100 C   0  0  0  0  0  0  0  0  0  0  0  0
  -26.6820  -34.6630   22.5430 O   0  0  0  0  0  0  0  0  0  0  0  0
  -24.8570  -34.0140   25.0230 H   0  0  0  0  0  0  0  0  0  0  0  0
  -24.2720  -36.6260   22.9400 C   0  0  0  0  0  1  0  0  0  0  0  0
  -25.4380  -36.2400   23.8640 C   0  0  0  0  0  3  0  0  0  0  0  0
  -27.5180  -37.1280   24.8190 C   0  0  0  0  0  1  0  0  0  0  0  0
  -26.4980  -37.2700   23.7830 N   0  0  0  0  0  0  0  0  0  0  0  0
  -26.1010  -38.2030   23.8550 H   0  0  0  0  0  0  0  0  0  0  0  0
  -26.2000  -31.6690   25.3850 C   0  0  1  0  0  0  0  0  0  0  0  0
  -25.0090  -31.4830   26.3540 C   0  0  0  0  0  1  0  0  0  0  0  0
  -26.7980  -30.2720   25.0980 C   0  0  0  0  0  1  0  0  0  0  0  0
  -27.2960  -32.4740   26.1230 C   0  0  0  0  0  1  0  0  0  0  0  0
  2  6  2  0
  2  5  1  0
  3  1  1  0
  3  8  1  0
  4 50  1  0
  4  1  2  0
  5  3  2  0
  6  4  1  0
  7  6  1  0
  8  9  1  0
 10 11  1  0
 10  8  1  0
 11 17  1  0
 12 17  1  0
 13 14  1  0
 13 12  1  0
 15 14  1  0
 15 22  1  0
 15 16  1  0
 17 16  1  0
 18 11  2  0
 19 20  2  0
 20 39  1  0
 21 20  1  0
 21 24  1  0
 22 19  1  0
 22 23  1  0
 23 21  2  0
 24 25  1  0
 25 26  2  0
 27 30  1  0
 27 26  1  0
 28 27  2  0
 29 28  1  0
 29 24  2  0
 30 31  1  0
 31 32  1  0
 32 33  2  0
 34 33  1  0
 34 38  1  0
 35 34  2  0
 36 31  2  0
 36 35  1  0
 37 36  1  0
 39 40  1  0
 40 43  1  0
 40 42  1  0
 41 39  2  0
 44 45  1  0
 44 19  1  0
 46 44  1  0
 47 49  1  0
 47  5  1  0
 48 47  1  0
 50 52  1  0
 51 50  1  0
 53 52  1  0
 53 55  1  0
 54 53  2  0
 56 55  1  0
 57 68  2  0
 58 56  1  0
 58 63  1  0
 59 67  1  0
 59 69  1  0
 60 62  1  0
 61 67  1  0
 62 63  2  0
 62 61  1  0
 64 58  2  0
 65 64  1  0
 65 60  2  0
 66 60  1  0
 66 59  1  0
 67 57  1  0
 69 71  2  0
 70 69  1  0
 72 70  1  0
 73 82  2  0
 73 78  1  0
 74 70  1  0
 74 78  1  0
 75 74  1  0
 76 77  1  0
 76 75  1  0
 77 73  1  0
 78 79  2  0
 79 80  1  0
 81 80  2  0
 82 81  1  0
 83 57  1  0
 83 84  1  0
 83 93  1  0
 84 87  1  0
 85 89  1  0
 85 84  1  0
 86 85  2  0
 89 88  1  0
 91 92  1  0
 91 89  1  0
 91 90  1  0
 93 96  1  1
 93 94  1  0
 95 93  1  0
M  ISO  4  10 100  11 100  55 101  56 101
M  END
>  <TORSDO>  (82) 
F 22

>  <SCORE>  (82) 
-13.362

>  <name>  (82) 
81

>  <ligand_id>  (82) 
81

>  <original_smiles>  (82) 
[H]c1c([H])c([H])c2c(c1[H])C([H])([H])C([H])([H])C([H])([H])C2([H])N([H])C(=O)C1([H])N(C(=O)C([H])(N([H])C(=O)C([H])(N([H])C([H])([H])[H])C([H])([H])[H])C(C([H])([H])[H])(C([H])([H])[H])C([H])([H])[H])C([H])([H])c2c([H])c(OC([H])([H])C(=O)C([H])([H])N([H])c3c([H])c(C(=NC(=O)N4C([H])([H])C([H])([H])C([H])([H])C([H])(n5nc(-c6c([H])c([H])c(Oc7c([H])c([H])c(F)c([H])c7F)c([H])c6[H])c(C(=O)N([H])[H])c5N([H])[H])C4([H])[H])C([H])([H])[H])c(N([H])[H])c([H])c3F)c([H])c([H])c2C1([H])[H]

>  <smiles>  (82) 
[H]c1c([H])c([H])c2c(c1[H])C([H])([H])C([H])([H])C([H])([H])C2([H])N([H])C(=O)C1([H])N(C(=O)C([H])(N([H])C(=O)C([H])(N([H])C([H])([H])[H])C([H])([H])[H])C(C([H])([H])[H])(C([H])([H])[H])C([H])([H])[H])C([H])([H])c2c([H])c(OC([H])([H])C(=O)C([H])([H])N([H])c3c([H])c(C(=NC(=O)N4C([H])([H])C([H])([H])C([H])([H])C([H])(n5nc(-c6c([H])c([H])c(Oc7c([H])c([H])c(F)c([H])c7F)c([H])c6[H])c(C(=O)N([H])[H])c5N([H])[H])C4([H])[H])C([H])([H])[H])c(N([H])[H])c([H])c3F)c([H])c([H])c2C1([H])[H]

$$$$
82:0:0
     RDKit          3D

 94102  0  0  1  0  0  0  0  0999 V2000
  -30.0750  -21.5880   19.3480 C   0  0  0  0  0  0  0  0  0  0  0  0
  -30.6060  -20.3790   19.7550 N   0  0  0  0  0  0  0  0  0  0  0  0
  -30.2960  -22.0330   18.2160 O   0  0  0  0  0  0  0  0  0  0  0  0
  -28.2490  -16.7900   20.2030 C   0  0  0  0  0  3  0  0  0  0  0  0
  -28.4360  -19.1770   19.7690 C   0  0  0  0  0  3  0  0  0  0  0  0
  -30.4500  -17.8250   20.0850 C   0  0  0  0  0  3  0  0  0  0  0  0
  -27.6470  -18.0300   19.9450 C   0  0  0  0  0  0  0  0  0  0  0  0
  -29.6500  -16.6460   20.2690 C   0  0  0  0  0  0  0  0  0  0  0  0
  -29.8500  -19.1240   19.8530 C   0  0  0  0  0  0  0  0  0  0  0  0
  -26.1360  -18.1360   19.8930 C   0  0  0  0  0  1  0  0  0  0  0  0
  -30.7130  -14.3100   19.9260 C   0  0  0  0  0  0  0  0  0  0  0  0
  -30.5110  -11.9480   19.1690 C   0  0  0  0  0  2  0  0  0  0  0  0
  -29.5150  -11.8960   17.9880 C   0  0  0  0  0  2  0  0  0  0  0  0
  -28.0610  -11.7900   18.4870 C   0  0  0  0  0  2  0  0  0  0  0  0
  -27.7380  -12.8190   19.6010 C   0  0  0  0  0  3  0  0  0  0  0  0
  -28.8340  -12.7960   20.6900 C   0  0  0  0  0  2  0  0  0  0  0  0
  -30.1320  -13.0750   20.0390 N   0  0  0  0  0  0  0  0  0  0  0  0
  -31.7620  -14.4980   19.2990 O   0  0  0  0  0  0  0  0  0  0  0  0
  -30.0530  -15.2910   20.5840 N   0  0  0  0  0  0  0  0  0  0  0  0
  -29.4200  -14.8630   21.2410 H   0  0  0  0  0  0  0  0  0  0  0  0
  -25.4250  -13.5390   20.4770 C   0  0  0  0  0  0  0  0  0  0  0  0
  -24.3410  -12.8190   20.9030 C   0  0  0  0  0  0  0  0  0  0  0  0
  -24.7220  -11.4460   20.8150 C   0  0  0  0  0  0  0  0  0  0  0  0
  -26.4030  -12.6090   20.1620 N   0  0  0  0  0  0  0  0  0  0  0  0
  -25.9850  -11.3430   20.4180 N   0  0  0  0  0  0  0  0  0  0  0  0
  -23.9410  -10.2220   21.0340 C   0  0  0  0  0  0  0  0  0  0  0  0
  -24.3830   -9.2110   21.9170 C   0  0  0  0  0  3  0  0  0  0  0  0
  -23.6050   -8.0510   22.1250 C   0  0  0  0  0  3  0  0  0  0  0  0
  -22.3700   -7.8940   21.4520 C   0  0  0  0  0  0  0  0  0  0  0  0
  -21.9460   -8.8930   20.5580 C   0  0  0  0  0  3  0  0  0  0  0  0
  -22.7230  -10.0450   20.3490 C   0  0  0  0  0  3  0  0  0  0  0  0
  -21.5630   -6.7880   21.5700 O   0  0  0  0  0  0  0  0  0  0  0  0
  -21.5560   -6.0220   22.7080 C   0  0  0  0  0  0  0  0  0  0  0  0
  -21.2590   -6.5710   23.9740 C   0  0  0  0  0  3  0  0  0  0  0  0
  -21.1930   -5.7340   25.1060 C   0  0  0  0  0  3  0  0  0  0  0  0
  -21.4130   -4.3500   24.9750 C   0  0  0  0  0  0  0  0  0  0  0  0
  -21.7030   -3.8010   23.7120 C   0  0  0  0  0  3  0  0  0  0  0  0
  -21.7710   -4.6350   22.5830 C   0  0  0  0  0  0  0  0  0  0  0  0
  -22.0300   -4.0970   21.3650 F   0  0  0  0  0  0  0  0  0  0  0  0
  -21.3420   -3.5450   26.0600 F   0  0  0  0  0  0  0  0  0  0  0  0
  -22.9950  -13.3690   21.2770 C   0  0  0  0  0  0  0  0  0  0  0  0
  -22.2950  -12.7080   22.1940 N   0  0  0  0  0  0  0  0  0  0  0  0
  -22.5760  -14.4190   20.7930 O   0  0  0  0  0  0  0  0  0  0  0  0
  -22.6480  -11.8600   22.6120 H   0  0  0  0  0  0  0  0  0  0  0  0
  -21.3940  -13.0630   22.4850 H   0  0  0  0  0  0  0  0  0  0  0  0
  -25.6540  -14.9020   20.3170 N   0  0  0  0  0  0  0  0  0  0  0  0
  -24.9390  -15.5970   20.4960 H   0  0  0  0  0  0  0  0  0  0  0  0
  -26.5140  -15.3050   19.9660 H   0  0  0  0  0  0  0  0  0  0  0  0
  -32.9400  -21.2340   19.8340 C   0  0  0  0  0  2  0  0  0  0  0  0
  -31.9990  -20.2820   19.9980 C   0  0  0  0  0  3  0  0  0  0  0  0
  -29.2030  -22.4700   20.3050 C   0  0  0  0  0  2  0  0  0  0  0  0
  -29.4610  -24.0370   20.3540 C   0  0  0  0  0  3  0  0  0  0  0  0
  -28.2040  -24.9620   20.1410 C   0  0  0  0  0  3  0  0  0  0  0  0
  -28.3720  -26.4100   20.2980 O   0  0  0  0  0  0  0  0  0  0  0  0
  -24.5830  -31.7720   23.2470 C   0  0  0  0  0  0  0  0  0  0  0  0
  -27.2230  -27.2100   20.2560 C   0  0  0  0  0  0  0  0  0  0  0  0
  -23.3890  -30.3700   21.6020 C   0  0  0  0  0  3  0  0  0  0  0  0
  -24.8480  -28.7980   20.2150 C   0  0  0  0  0  0  0  0  0  0  0  0
  -25.9300  -30.6820   21.4450 C   0  0  0  0  0  2  0  0  0  0  0  0
  -26.0110  -29.2990   20.8140 C   0  0  0  0  0  0  0  0  0  0  0  0
  -27.2010  -28.5180   20.8210 C   0  0  0  0  0  3  0  0  0  0  0  0
  -26.0300  -26.7450   19.6510 C   0  0  0  0  0  3  0  0  0  0  0  0
  -24.8580  -27.5240   19.6290 C   0  0  0  0  0  3  0  0  0  0  0  0
  -23.6140  -29.6750   20.2340 C   0  0  0  0  0  2  0  0  0  0  0  0
  -24.6520  -30.9580   22.1550 N   0  0  0  0  0  0  0  0  0  0  0  0
  -23.4950  -32.0640   23.7650 O   0  0  0  0  0  0  0  0  0  0  0  0
  -22.7060  -29.3680   22.5620 C   0  0  0  0  0  0  0  0  0  0  0  0
  -21.3780  -29.2150   22.4270 N   0  0  0  0  0  0  0  0  0  0  0  0
  -23.3690  -28.7310   23.3860 O   0  0  0  0  0  0  0  0  0  0  0  0
  -20.9070  -29.7760   21.7320 H   0  0  0  0  0  0  0  0  0  0  0  0
  -17.9720  -28.1040   22.9180 C   0  0  0  0  0  0  0  0  0  0  0  0
  -20.5350  -28.2970   23.1940 C   0  0  0  0  0  3  0  0  0  0  0  0
  -20.6020  -26.8650   22.6140 C   0  0  0  0  0  2  0  0  0  0  0  0
  -19.4930  -26.5730   21.5970 C   0  0  0  0  0  2  0  0  0  0  0  0
  -18.1140  -26.7520   22.2390 C   0  0  0  0  0  2  0  0  0  0  0  0
  -19.1080  -28.8360   23.3510 C   0  0  0  0  0  0  0  0  0  0  0  0
  -18.9210  -30.1040   23.9430 C   0  0  0  0  0  3  0  0  0  0  0  0
  -17.6280  -30.6390   24.1080 C   0  0  0  0  0  3  0  0  0  0  0  0
  -16.5070  -29.9020   23.6900 C   0  0  0  0  0  3  0  0  0  0  0  0
  -16.6790  -28.6370   23.1020 C   0  0  0  0  0  3  0  0  0  0  0  0
  -25.8640  -32.3950   23.8830 C   0  0  0  0  0  3  0  0  0  0  0  0
  -25.5600  -33.7950   24.2070 N   0  0  0  0  0  0  0  0  0  0  0  0
  -25.9080  -34.8450   23.4510 C   0  0  0  0  0  0  0  0  0  0  0  0
  -26.5880  -34.7360   22.4270 O   0  0  0  0  0  0  0  0  0  0  0  0
  -24.9550  -33.9540   24.9990 H   0  0  0  0  0  0  0  0  0  0  0  0
  -24.1930  -36.6480   23.0810 C   0  0  0  0  0  1  0  0  0  0  0  0
  -25.4260  -36.2380   23.9010 C   0  0  0  0  0  3  0  0  0  0  0  0
  -27.5620  -37.1110   24.7440 C   0  0  0  0  0  1  0  0  0  0  0  0
  -26.4660  -37.2840   23.7930 N   0  0  0  0  0  0  0  0  0  0  0  0
  -26.0650  -38.2070   23.9350 H   0  0  0  0  0  0  0  0  0  0  0  0
  -26.3600  -31.6200   25.1650 C   0  0  1  0  0  0  0  0  0  0  0  0
  -25.2500  -31.3860   26.2160 C   0  0  0  0  0  1  0  0  0  0  0  0
  -26.9460  -30.2410   24.7800 C   0  0  0  0  0  1  0  0  0  0  0  0
  -27.5020  -32.4120   25.8450 C   0  0  0  0  0  1  0  0  0  0  0  0
  1  2  1  0
  1 51  1  0
  2  9  1  0
  2 50  1  0
  3  1  2  0
  4  8  1  0
  5  9  2  0
  5  7  1  0
  6  8  2  0
  7  4  2  0
  8 19  1  0
  9  6  1  0
 10  7  1  0
 11 17  1  0
 11 19  1  0
 12 17  1  0
 13 14  1  0
 13 12  1  0
 15 14  1  0
 15 24  1  0
 15 16  1  0
 17 16  1  0
 18 11  2  0
 19 20  1  0
 21 22  2  0
 22 41  1  0
 23 22  1  0
 23 26  1  0
 24 25  1  0
 24 21  1  0
 25 23  2  0
 26 27  1  0
 27 28  2  0
 29 32  1  0
 29 28  1  0
 30 29  2  0
 31 30  1  0
 31 26  2  0
 32 33  1  0
 33 34  1  0
 34 35  2  0
 36 35  1  0
 36 40  1  0
 37 36  2  0
 38 33  2  0
 38 37  1  0
 39 38  1  0
 41 42  1  0
 42 45  1  0
 42 44  1  0
 43 41  2  0
 46 21  1  0
 46 47  1  0
 48 46  1  0
 49 50  2  0
 51 52  1  0
 53 54  1  0
 53 52  2  0
 55 66  2  0
 56 54  1  0
 56 61  1  0
 57 65  1  0
 57 67  1  0
 58 64  1  0
 58 60  1  0
 59 65  1  0
 60 61  2  0
 60 59  1  0
 62 56  2  0
 63 62  1  0
 63 58  2  0
 64 57  1  0
 65 55  1  0
 67 69  2  0
 68 67  1  0
 70 68  1  0
 71 80  2  0
 71 76  1  0
 72 68  1  0
 72 76  1  0
 73 72  1  0
 74 75  1  0
 74 73  1  0
 75 71  1  0
 76 77  2  0
 77 78  1  0
 79 78  2  0
 80 79  1  0
 81 55  1  0
 81 82  1  0
 81 91  1  0
 82 85  1  0
 83 87  1  0
 83 82  1  0
 84 83  2  0
 87 86  1  0
 89 87  1  0
 89 90  1  0
 89 88  1  0
 91 94  1  1
 91 92  1  0
 93 91  1  0
M  ISO  4  11 100  19 100  53 101  54 101
M  END
>  <TORSDO>  (83) 
F 21

>  <SCORE>  (83) 
-13.191

>  <name>  (83) 
82

>  <ligand_id>  (83) 
82

>  <original_smiles>  (83) 
[H]C([H])=C([H])N(C(=O)C([H])([H])C([H])([H])C([H])([H])Oc1c([H])c([H])c2c(c1[H])C([H])([H])N(C(=O)C([H])(N([H])C(=O)C([H])(N([H])C([H])([H])[H])C([H])([H])[H])C(C([H])([H])[H])(C([H])([H])[H])C([H])([H])[H])C([H])(C(=O)N([H])C1([H])c3c([H])c([H])c([H])c([H])c3C([H])([H])C([H])([H])C1([H])[H])C2([H])[H])c1c([H])c(N([H])C(=O)N2C([H])([H])C([H])([H])C([H])([H])C([H])(n3nc(-c4c([H])c([H])c(Oc5c([H])c([H])c(F)c([H])c5F)c([H])c4[H])c(C(=O)N([H])[H])c3N([H])[H])C2([H])[H])c([H])c(C([H])([H])[H])c1[H]

>  <smiles>  (83) 
[H]C([H])=C([H])N(C(=O)C([H])([H])C([H])([H])C([H])([H])Oc1c([H])c([H])c2c(c1[H])C([H])([H])N(C(=O)C([H])(N([H])C(=O)C([H])(N([H])C([H])([H])[H])C([H])([H])[H])C(C([H])([H])[H])(C([H])([H])[H])C([H])([H])[H])C([H])(C(=O)N([H])C1([H])c3c([H])c([H])c([H])c([H])c3C([H])([H])C([H])([H])C1([H])[H])C2([H])[H])c1c([H])c(N([H])C(=O)N2C([H])([H])C([H])([H])C([H])([H])C([H])(n3nc(-c4c([H])c([H])c(Oc5c([H])c([H])c(F)c([H])c5F)c([H])c4[H])c(C(=O)N([H])[H])c3N([H])[H])C2([H])[H])c([H])c(C([H])([H])[H])c1[H]

$$$$
83:0:0
     RDKit          3D

 93101  0  0  1  0  0  0  0  0999 V2000
  -29.4890  -17.7250   19.5290 C   0  0  0  0  0  3  0  0  0  0  0  0
  -30.5880  -19.7780   21.0760 C   0  0  0  0  0  3  0  0  0  0  0  0
  -30.2830  -17.3260   20.6350 C   0  0  0  0  0  0  0  0  0  0  0  0
  -29.7680  -20.1730   19.9850 C   0  0  0  0  0  0  0  0  0  0  0  0
  -29.2330  -19.0990   19.2100 C   0  0  0  0  0  0  0  0  0  0  0  0
  -30.8380  -18.4060   21.3870 C   0  0  0  0  0  0  0  0  0  0  0  0
  -31.6220  -18.1390   22.4600 F   0  0  0  0  0  0  0  0  0  0  0  0
  -30.3970  -15.8580   21.1050 C   0  0  0  0  0  0  0  0  0  0  0  0
  -30.0890  -15.5930   22.3090 N   0  0  0  0  0  0  0  0  0  0  0  0
  -29.7870  -16.4200   22.8090 H   0  0  0  0  0  0  0  0  0  0  0  0
  -30.9510  -14.7240   20.1560 C   0  0  0  0  0  0  0  0  0  0  0  0
  -30.6080  -12.5630   18.9530 C   0  0  0  0  0  2  0  0  0  0  0  0
  -29.6250  -12.7560   17.7740 C   0  0  0  0  0  2  0  0  0  0  0  0
  -28.1620  -12.6100   18.2380 C   0  0  0  0  0  2  0  0  0  0  0  0
  -27.8710  -13.4280   19.5210 C   0  0  0  0  0  3  0  0  0  0  0  0
  -28.9500  -13.1640   20.5890 C   0  0  0  0  0  2  0  0  0  0  0  0
  -30.2620  -13.5340   20.0190 N   0  0  0  0  0  0  0  0  0  0  0  0
  -32.0140  -14.9080   19.5520 O   0  0  0  0  0  0  0  0  0  0  0  0
  -25.5050  -14.0670   20.2950 C   0  0  0  0  0  0  0  0  0  0  0  0
  -24.4360  -13.3100   20.6970 C   0  0  0  0  0  0  0  0  0  0  0  0
  -24.8800  -11.9520   20.6620 C   0  0  0  0  0  0  0  0  0  0  0  0
  -26.5300  -13.1700   20.0380 N   0  0  0  0  0  0  0  0  0  0  0  0
  -26.1600  -11.8940   20.3170 N   0  0  0  0  0  0  0  0  0  0  0  0
  -24.1420  -10.7010   20.8800 C   0  0  0  0  0  0  0  0  0  0  0  0
  -24.5720   -9.7460   21.8270 C   0  0  0  0  0  3  0  0  0  0  0  0
  -23.8360   -8.5590   22.0320 C   0  0  0  0  0  3  0  0  0  0  0  0
  -22.6570   -8.3190   21.2890 C   0  0  0  0  0  0  0  0  0  0  0  0
  -22.2440   -9.2630   20.3320 C   0  0  0  0  0  3  0  0  0  0  0  0
  -22.9800  -10.4410   20.1260 C   0  0  0  0  0  3  0  0  0  0  0  0
  -21.8930   -7.1820   21.4020 O   0  0  0  0  0  0  0  0  0  0  0  0
  -21.8250   -6.4740   22.5750 C   0  0  0  0  0  0  0  0  0  0  0  0
  -21.3860   -7.0660   23.7800 C   0  0  0  0  0  3  0  0  0  0  0  0
  -21.2650   -6.2850   24.9450 C   0  0  0  0  0  3  0  0  0  0  0  0
  -21.5710   -4.9120   24.9090 C   0  0  0  0  0  0  0  0  0  0  0  0
  -22.0030   -4.3180   23.7090 C   0  0  0  0  0  3  0  0  0  0  0  0
  -22.1260   -5.0970   22.5450 C   0  0  0  0  0  0  0  0  0  0  0  0
  -22.5220   -4.5160   21.3870 F   0  0  0  0  0  0  0  0  0  0  0  0
  -21.4490   -4.1580   26.0260 F   0  0  0  0  0  0  0  0  0  0  0  0
  -23.0540  -13.8090   21.0050 C   0  0  0  0  0  0  0  0  0  0  0  0
  -22.3440  -13.1310   21.9010 N   0  0  0  0  0  0  0  0  0  0  0  0
  -22.6120  -14.8330   20.4850 O   0  0  0  0  0  0  0  0  0  0  0  0
  -22.7140  -12.2990   22.3370 H   0  0  0  0  0  0  0  0  0  0  0  0
  -21.4200  -13.4490   22.1550 H   0  0  0  0  0  0  0  0  0  0  0  0
  -25.6880  -15.4330   20.1090 N   0  0  0  0  0  0  0  0  0  0  0  0
  -24.9460  -16.1080   20.2600 H   0  0  0  0  0  0  0  0  0  0  0  0
  -26.5520  -15.8560   19.7960 H   0  0  0  0  0  0  0  0  0  0  0  0
  -29.4570  -22.6050   20.3300 C   0  0  0  0  0  3  0  0  0  0  0  0
  -29.5100  -21.5380   19.5830 N   0  0  0  0  0  0  0  0  0  0  0  0
  -29.2870  -24.0820   19.7800 C   0  0  0  0  0  3  0  0  0  0  0  0
  -28.4520  -25.1510   20.6140 C   0  0  0  0  0  3  0  0  0  0  0  0
  -28.5560  -26.5760   20.2160 O   0  0  0  0  0  0  0  0  0  0  0  0
  -24.6310  -31.8320   23.2320 C   0  0  0  0  0  0  0  0  0  0  0  0
  -27.3990  -27.3650   20.2010 C   0  0  0  0  0  0  0  0  0  0  0  0
  -23.4810  -30.4150   21.5650 C   0  0  0  0  0  3  0  0  0  0  0  0
  -24.9890  -28.9010   20.1570 C   0  0  0  0  0  0  0  0  0  0  0  0
  -26.0110  -30.8040   21.4100 C   0  0  0  0  0  2  0  0  0  0  0  0
  -26.1360  -29.4260   20.7670 C   0  0  0  0  0  0  0  0  0  0  0  0
  -27.3460  -28.6730   20.7710 C   0  0  0  0  0  3  0  0  0  0  0  0
  -26.2310  -26.8840   19.5710 C   0  0  0  0  0  3  0  0  0  0  0  0
  -25.0390  -27.6360   19.5470 C   0  0  0  0  0  3  0  0  0  0  0  0
  -23.7300  -29.7440   20.1850 C   0  0  0  0  0  2  0  0  0  0  0  0
  -24.7250  -31.0340   22.1280 N   0  0  0  0  0  0  0  0  0  0  0  0
  -23.5350  -32.0830   23.7520 O   0  0  0  0  0  0  0  0  0  0  0  0
  -22.8250  -29.3810   22.5110 C   0  0  0  0  0  0  0  0  0  0  0  0
  -21.5080  -29.1700   22.3510 N   0  0  0  0  0  0  0  0  0  0  0  0
  -23.5020  -28.7700   23.3420 O   0  0  0  0  0  0  0  0  0  0  0  0
  -21.0250  -29.7200   21.6540 H   0  0  0  0  0  0  0  0  0  0  0  0
  -18.1550  -27.8640   22.7400 C   0  0  0  0  0  0  0  0  0  0  0  0
  -20.6930  -28.2110   23.0980 C   0  0  0  0  0  3  0  0  0  0  0  0
  -20.8610  -26.7810   22.5330 C   0  0  0  0  0  2  0  0  0  0  0  0
  -19.8090  -26.4160   21.4830 C   0  0  0  0  0  2  0  0  0  0  0  0
  -18.4010  -26.5170   22.0800 C   0  0  0  0  0  2  0  0  0  0  0  0
  -19.2320  -28.6660   23.2020 C   0  0  0  0  0  0  0  0  0  0  0  0
  -18.9540  -29.9240   23.7790 C   0  0  0  0  0  3  0  0  0  0  0  0
  -17.6290  -30.3850   23.8950 C   0  0  0  0  0  3  0  0  0  0  0  0
  -16.5640  -29.5800   23.4510 C   0  0  0  0  0  3  0  0  0  0  0  0
  -16.8270  -28.3220   22.8800 C   0  0  0  0  0  3  0  0  0  0  0  0
  -25.8920  -32.4850   23.8780 C   0  0  0  0  0  3  0  0  0  0  0  0
  -25.5600  -33.8830   24.1890 N   0  0  0  0  0  0  0  0  0  0  0  0
  -25.8940  -34.9320   23.4260 C   0  0  0  0  0  0  0  0  0  0  0  0
  -26.5860  -34.8270   22.4080 O   0  0  0  0  0  0  0  0  0  0  0  0
  -24.9480  -34.0380   24.9760 H   0  0  0  0  0  0  0  0  0  0  0  0
  -24.1480  -36.6960   23.0230 C   0  0  0  0  0  1  0  0  0  0  0  0
  -25.3820  -36.3200   23.8580 C   0  0  0  0  0  3  0  0  0  0  0  0
  -27.4910  -37.2440   24.7080 C   0  0  0  0  0  1  0  0  0  0  0  0
  -26.4030  -37.3840   23.7450 N   0  0  0  0  0  0  0  0  0  0  0  0
  -25.9830  -38.3010   23.8750 H   0  0  0  0  0  0  0  0  0  0  0  0
  -26.3840  -31.7320   25.1740 C   0  0  1  0  0  0  0  0  0  0  0  0
  -25.2680  -31.4870   26.2180 C   0  0  0  0  0  1  0  0  0  0  0  0
  -26.9930  -30.3590   24.8030 C   0  0  0  0  0  1  0  0  0  0  0  0
  -27.5110  -32.5430   25.8580 C   0  0  0  0  0  1  0  0  0  0  0  0
  -27.1890  -18.7960   18.0580 C   0  0  0  0  0  1  0  0  0  0  0  0
  -28.4620  -19.4290   18.1220 O   0  0  0  0  0  0  0  0  0  0  0  0
  1  3  1  0
  2  6  1  0
  3  8  1  0
  3  6  2  0
  4  2  2  0
  5  1  2  0
  5  4  1  0
  6  7  1  0
  8  9  2  0
  9 10  1  0
 11  8  1  0
 12 17  1  0
 13 14  1  0
 13 12  1  0
 15 14  1  0
 15 22  1  0
 15 16  1  0
 17 11  1  0
 17 16  1  0
 18 11  2  0
 19 20  2  0
 20 39  1  0
 21 20  1  0
 21 24  1  0
 22 19  1  0
 22 23  1  0
 23 21  2  0
 24 25  1  0
 25 26  2  0
 27 30  1  0
 27 26  1  0
 28 27  2  0
 29 28  1  0
 29 24  2  0
 30 31  1  0
 31 32  1  0
 32 33  2  0
 34 33  1  0
 34 38  1  0
 35 34  2  0
 36 31  2  0
 36 35  1  0
 37 36  1  0
 39 40  1  0
 40 43  1  0
 40 42  1  0
 41 39  2  0
 44 45  1  0
 44 19  1  0
 46 44  1  0
 48  4  1  0
 48 47  2  0
 49 47  1  0
 49 50  2  0
 51 50  1  0
 52 63  2  0
 53 51  1  0
 53 58  1  0
 54 62  1  0
 54 64  1  0
 55 61  1  0
 55 57  1  0
 56 62  1  0
 57 58  2  0
 57 56  1  0
 59 53  2  0
 60 59  1  0
 60 55  2  0
 61 54  1  0
 62 52  1  0
 64 66  2  0
 65 64  1  0
 67 65  1  0
 68 77  2  0
 68 73  1  0
 69 65  1  0
 69 73  1  0
 70 69  1  0
 71 72  1  0
 71 70  1  0
 72 68  1  0
 73 74  2  0
 74 75  1  0
 76 75  2  0
 77 76  1  0
 78 52  1  0
 78 79  1  0
 78 88  1  0
 79 82  1  0
 80 84  1  0
 80 79  1  0
 81 80  2  0
 84 83  1  0
 86 84  1  0
 86 87  1  0
 86 85  1  0
 88 91  1  1
 88 89  1  0
 90 88  1  0
 92 93  1  0
 93  5  1  0
M  ISO  4   8 100  11 100  50 101  51 101
M  END
>  <TORSDO>  (84) 
F 21

>  <SCORE>  (84) 
-12.798

>  <name>  (84) 
83

>  <ligand_id>  (84) 
83

>  <original_smiles>  (84) 
[H]N=C(C(=O)N1C([H])([H])C([H])([H])C([H])([H])C([H])(n2nc(-c3c([H])c([H])c(Oc4c([H])c([H])c(F)c([H])c4F)c([H])c3[H])c(C(=O)N([H])[H])c2N([H])[H])C1([H])[H])c1c([H])c(OC([H])([H])[H])c(N=C([H])C([H])([H])C([H])([H])Oc2c([H])c([H])c3c(c2[H])C([H])([H])N(C(=O)C([H])(N([H])C(=O)C([H])(N([H])C([H])([H])[H])C([H])([H])[H])C(C([H])([H])[H])(C([H])([H])[H])C([H])([H])[H])C([H])(C(=O)N([H])C2([H])c4c([H])c([H])c([H])c([H])c4C([H])([H])C([H])([H])C2([H])[H])C3([H])[H])c([H])c1F

>  <smiles>  (84) 
[H]N=C(C(=O)N1C([H])([H])C([H])([H])C([H])([H])C([H])(n2nc(-c3c([H])c([H])c(Oc4c([H])c([H])c(F)c([H])c4F)c([H])c3[H])c(C(=O)N([H])[H])c2N([H])[H])C1([H])[H])c1c([H])c(OC([H])([H])[H])c(N=C([H])C([H])([H])C([H])([H])Oc2c([H])c([H])c3c(c2[H])C([H])([H])N(C(=O)C([H])(N([H])C(=O)C([H])(N([H])C([H])([H])[H])C([H])([H])[H])C(C([H])([H])[H])(C([H])([H])[H])C([H])([H])[H])C([H])(C(=O)N([H])C2([H])c4c([H])c([H])c([H])c([H])c4C([H])([H])C([H])([H])C2([H])[H])C3([H])[H])c([H])c1F

$$$$
84:0:0
     RDKit          3D

 95103  0  0  1  0  0  0  0  0999 V2000
  -29.5960  -19.4840   19.4170 C   0  0  0  0  0  0  0  0  0  0  0  0
  -30.2060  -18.3490   20.1560 C   0  0  0  0  0  0  0  0  0  0  0  0
  -29.6810  -20.7520   20.0570 C   0  0  0  0  0  0  0  0  0  0  0  0
  -30.7790  -19.0240   21.2100 C   0  0  0  0  0  0  0  0  0  0  0  0
  -30.4330  -20.4080   21.1990 N   0  0  0  0  0  0  0  0  0  0  0  0
  -29.8460  -16.7760   20.1150 C   0  0  0  0  0  0  0  0  0  0  0  0
  -28.5910  -16.6440   20.1070 N   0  0  0  0  0  0  0  0  0  0  0  0
  -28.1490  -17.5550   20.1150 H   0  0  0  0  0  0  0  0  0  0  0  0
  -30.7990  -15.3900   20.0460 C   0  0  0  0  0  0  0  0  0  0  0  0
  -30.6620  -13.0580   19.0400 C   0  0  0  0  0  2  0  0  0  0  0  0
  -29.6630  -13.0030   17.8570 C   0  0  0  0  0  2  0  0  0  0  0  0
  -28.2240  -12.7440   18.3500 C   0  0  0  0  0  2  0  0  0  0  0  0
  -27.8560  -13.6570   19.5390 C   0  0  0  0  0  3  0  0  0  0  0  0
  -28.9590  -13.6790   20.6220 C   0  0  0  0  0  2  0  0  0  0  0  0
  -30.2090  -14.1200   19.9840 N   0  0  0  0  0  0  0  0  0  0  0  0
  -32.0090  -15.4580   19.7910 O   0  0  0  0  0  0  0  0  0  0  0  0
  -25.5230  -14.2670   20.3980 C   0  0  0  0  0  0  0  0  0  0  0  0
  -24.4640  -13.4950   20.7890 C   0  0  0  0  0  0  0  0  0  0  0  0
  -24.9180  -12.1430   20.7140 C   0  0  0  0  0  0  0  0  0  0  0  0
  -26.5420  -13.3780   20.0960 N   0  0  0  0  0  0  0  0  0  0  0  0
  -26.1940  -12.0970   20.3570 N   0  0  0  0  0  0  0  0  0  0  0  0
  -24.1950  -10.8830   20.8980 C   0  0  0  0  0  0  0  0  0  0  0  0
  -24.6360   -9.9130   21.8230 C   0  0  0  0  0  3  0  0  0  0  0  0
  -23.9140   -8.7130   21.9990 C   0  0  0  0  0  3  0  0  0  0  0  0
  -22.7390   -8.4780   21.2460 C   0  0  0  0  0  0  0  0  0  0  0  0
  -22.3180   -9.4370   20.3080 C   0  0  0  0  0  3  0  0  0  0  0  0
  -23.0420  -10.6280   20.1320 C   0  0  0  0  0  3  0  0  0  0  0  0
  -21.9840   -7.3330   21.3330 O   0  0  0  0  0  0  0  0  0  0  0  0
  -21.8960   -6.6170   22.5000 C   0  0  0  0  0  0  0  0  0  0  0  0
  -21.4140   -7.1940   23.6950 C   0  0  0  0  0  3  0  0  0  0  0  0
  -21.2680   -6.4010   24.8510 C   0  0  0  0  0  3  0  0  0  0  0  0
  -21.6010   -5.0340   24.8150 C   0  0  0  0  0  0  0  0  0  0  0  0
  -22.0800   -4.4580   23.6250 C   0  0  0  0  0  3  0  0  0  0  0  0
  -22.2230   -5.2460   22.4700 C   0  0  0  0  0  0  0  0  0  0  0  0
  -22.6620   -4.6810   21.3210 F   0  0  0  0  0  0  0  0  0  0  0  0
  -21.4570   -4.2700   25.9230 F   0  0  0  0  0  0  0  0  0  0  0  0
  -23.0820  -13.9760   21.1200 C   0  0  0  0  0  0  0  0  0  0  0  0
  -22.3830  -13.2670   22.0010 N   0  0  0  0  0  0  0  0  0  0  0  0
  -22.6300  -15.0120   20.6350 O   0  0  0  0  0  0  0  0  0  0  0  0
  -22.7620  -12.4290   22.4160 H   0  0  0  0  0  0  0  0  0  0  0  0
  -21.4570  -13.5690   22.2720 H   0  0  0  0  0  0  0  0  0  0  0  0
  -25.7010  -15.6380   20.2510 N   0  0  0  0  0  0  0  0  0  0  0  0
  -24.9710  -16.3200   20.4240 H   0  0  0  0  0  0  0  0  0  0  0  0
  -26.6050  -16.0500   20.0190 H   0  0  0  0  0  0  0  0  0  0  0  0
  -28.9430  -19.3390   18.1050 C   0  0  0  0  0  3  0  0  0  0  0  0
  -29.4090  -18.5640   17.1070 C   0  0  0  0  0  3  0  0  0  0  0  0
  -28.7590  -18.4200   15.7460 C   0  0  0  0  0  1  0  0  0  0  0  0
  -29.5260  -21.8050   23.0410 C   0  0  0  0  0  1  0  0  0  0  0  0
  -30.7710  -21.3330   22.2740 C   0  0  0  0  0  2  0  0  0  0  0  0
  -32.7070  -17.9390   21.9580 C   0  0  0  0  0  1  0  0  0  0  0  0
  -31.4430  -18.5140   22.2730 O   0  0  0  0  0  0  0  0  0  0  0  0
  -28.9300  -22.2020   19.7970 C   0  0  0  0  0  2  0  0  0  0  0  0
  -29.3370  -23.7900   20.1650 C   0  0  0  0  0  3  0  0  0  0  0  0
  -28.2780  -25.0710   19.8900 C   0  0  0  0  0  3  0  0  0  0  0  0
  -28.4630  -26.5790   20.1980 O   0  0  0  0  0  0  0  0  0  0  0  0
  -24.6960  -32.0310   23.3800 C   0  0  0  0  0  0  0  0  0  0  0  0
  -27.3710  -27.5160   20.1570 C   0  0  0  0  0  0  0  0  0  0  0  0
  -23.5180  -30.6770   21.6890 C   0  0  0  0  0  3  0  0  0  0  0  0
  -24.9930  -29.1880   20.1980 C   0  0  0  0  0  0  0  0  0  0  0  0
  -26.0630  -31.0030   21.5270 C   0  0  0  0  0  2  0  0  0  0  0  0
  -26.1620  -29.6410   20.8220 C   0  0  0  0  0  0  0  0  0  0  0  0
  -27.3490  -28.8230   20.7860 C   0  0  0  0  0  3  0  0  0  0  0  0
  -26.1750  -27.1640   19.4910 C   0  0  0  0  0  3  0  0  0  0  0  0
  -25.0100  -27.9610   19.5180 C   0  0  0  0  0  3  0  0  0  0  0  0
  -23.7480  -30.0550   20.2860 C   0  0  0  0  0  2  0  0  0  0  0  0
  -24.7790  -31.2570   22.2540 N   0  0  0  0  0  0  0  0  0  0  0  0
  -23.6050  -32.2800   23.9140 O   0  0  0  0  0  0  0  0  0  0  0  0
  -22.8600  -29.6200   22.6120 C   0  0  0  0  0  0  0  0  0  0  0  0
  -21.5380  -29.4210   22.4650 N   0  0  0  0  0  0  0  0  0  0  0  0
  -23.5430  -28.9820   23.4170 O   0  0  0  0  0  0  0  0  0  0  0  0
  -21.0450  -29.9980   21.7980 H   0  0  0  0  0  0  0  0  0  0  0  0
  -18.1830  -28.1130   22.8970 C   0  0  0  0  0  0  0  0  0  0  0  0
  -20.7320  -28.4380   23.1940 C   0  0  0  0  0  3  0  0  0  0  0  0
  -20.8740  -27.0250   22.5790 C   0  0  0  0  0  2  0  0  0  0  0  0
  -19.7890  -26.7070   21.5450 C   0  0  0  0  0  2  0  0  0  0  0  0
  -18.3990  -26.7910   22.1810 C   0  0  0  0  0  2  0  0  0  0  0  0
  -19.2770  -28.8950   23.3570 C   0  0  0  0  0  0  0  0  0  0  0  0
  -19.0130  -30.1320   23.9830 C   0  0  0  0  0  3  0  0  0  0  0  0
  -17.6900  -30.5820   24.1650 C   0  0  0  0  0  3  0  0  0  0  0  0
  -16.6120  -29.7980   23.7160 C   0  0  0  0  0  3  0  0  0  0  0  0
  -16.8610  -28.5690   23.0830 C   0  0  0  0  0  3  0  0  0  0  0  0
  -25.9650  -32.6630   24.0320 C   0  0  0  0  0  3  0  0  0  0  0  0
  -25.6550  -34.0680   24.3400 N   0  0  0  0  0  0  0  0  0  0  0  0
  -25.9890  -35.1110   23.5650 C   0  0  0  0  0  0  0  0  0  0  0  0
  -26.6600  -34.9890   22.5370 O   0  0  0  0  0  0  0  0  0  0  0  0
  -25.0620  -34.2320   25.1390 H   0  0  0  0  0  0  0  0  0  0  0  0
  -24.2590  -36.9020   23.2000 C   0  0  0  0  0  1  0  0  0  0  0  0
  -25.5100  -36.5080   24.0010 C   0  0  0  0  0  3  0  0  0  0  0  0
  -27.6530  -37.4080   24.7930 C   0  0  0  0  0  1  0  0  0  0  0  0
  -26.5430  -37.5570   23.8550 N   0  0  0  0  0  0  0  0  0  0  0  0
  -26.1400  -38.4810   23.9870 H   0  0  0  0  0  0  0  0  0  0  0  0
  -26.4360  -31.9070   25.3370 C   0  0  1  0  0  0  0  0  0  0  0  0
  -25.3070  -31.6880   26.3770 C   0  0  0  0  0  1  0  0  0  0  0  0
  -27.0240  -30.5190   24.9900 C   0  0  0  0  0  1  0  0  0  0  0  0
  -27.5780  -32.7030   26.0130 C   0  0  0  0  0  1  0  0  0  0  0  0
  1  3  2  0
  1  2  1  0
  2  4  2  0
  3  5  1  0
  4 51  1  0
  5  4  1  0
  5 49  1  0
  6  2  1  0
  7  6  2  0
  7  8  1  0
  9  6  1  0
 10 15  1  0
 11 12  1  0
 11 10  1  0
 13 12  1  0
 13 20  1  0
 13 14  1  0
 15  9  1  0
 15 14  1  0
 16  9  2  0
 17 18  2  0
 18 37  1  0
 19 18  1  0
 19 22  1  0
 20 21  1  0
 20 17  1  0
 21 19  2  0
 22 23  1  0
 23 24  2  0
 25 28  1  0
 25 24  1  0
 26 25  2  0
 27 26  1  0
 27 22  2  0
 28 29  1  0
 29 30  1  0
 30 31  2  0
 32 31  1  0
 32 36  1  0
 33 32  2  0
 34 29  2  0
 34 33  1  0
 35 34  1  0
 37 38  1  0
 38 41  1  0
 38 40  1  0
 39 37  2  0
 42 17  1  0
 42 43  1  0
 44 42  1  0
 45  1  1  0
 46 45  2  0
 47 46  1  0
 49 48  1  0
 50 51  1  0
 52  3  1  0
 52 53  1  0
 54 53  2  0
 54 55  1  0
 56 67  2  0
 57 55  1  0
 57 62  1  0
 58 66  1  0
 58 68  1  0
 59 65  1  0
 59 61  1  0
 60 66  1  0
 61 60  1  0
 62 61  2  0
 63 64  1  0
 63 57  2  0
 64 59  2  0
 65 58  1  0
 66 56  1  0
 68 70  2  0
 69 68  1  0
 71 69  1  0
 72 81  2  0
 72 77  1  0
 73 69  1  0
 73 77  1  0
 74 73  1  0
 75 76  1  0
 75 74  1  0
 76 72  1  0
 77 78  2  0
 78 79  1  0
 80 79  2  0
 81 80  1  0
 82 56  1  0
 82 83  1  0
 82 92  1  0
 83 86  1  0
 84 88  1  0
 84 83  1  0
 85 84  2  0
 88 87  1  0
 90 91  1  0
 90 88  1  0
 90 89  1  0
 92 95  1  1
 92 93  1  0
 94 92  1  0
M  ISO  4   6 100   9 100  54 101  55 101
M  END
>  <TORSDO>  (85) 
F 23

>  <SCORE>  (85) 
-11.331

>  <name>  (85) 
84

>  <ligand_id>  (85) 
84

>  <original_smiles>  (85) 
[H]N=C(C(=O)N1C([H])([H])C([H])([H])C([H])([H])C([H])(n2nc(-c3c([H])c([H])c(Oc4c([H])c([H])c(F)c([H])c4F)c([H])c3[H])c(C(=O)N([H])[H])c2N([H])[H])C1([H])[H])c1c(C([H])=C([H])C([H])([H])[H])c(C([H])([H])C([H])([H])C([H])([H])Oc2c([H])c([H])c3c(c2[H])C([H])([H])N(C(=O)C([H])(N([H])C(=O)C([H])(N([H])C([H])([H])[H])C([H])([H])[H])C(C([H])([H])[H])(C([H])([H])[H])C([H])([H])[H])C([H])(C(=O)N([H])C2([H])c4c([H])c([H])c([H])c([H])c4C([H])([H])C([H])([H])C2([H])[H])C3([H])[H])n(C([H])([H])C([H])([H])[H])c1OC([H])([H])[H]

>  <smiles>  (85) 
[H]N=C(C(=O)N1C([H])([H])C([H])([H])C([H])([H])C([H])(n2nc(-c3c([H])c([H])c(Oc4c([H])c([H])c(F)c([H])c4F)c([H])c3[H])c(C(=O)N([H])[H])c2N([H])[H])C1([H])[H])c1c(C([H])=C([H])C([H])([H])[H])c(C([H])([H])C([H])([H])C([H])([H])Oc2c([H])c([H])c3c(c2[H])C([H])([H])N(C(=O)C([H])(N([H])C(=O)C([H])(N([H])C([H])([H])[H])C([H])([H])[H])C(C([H])([H])[H])(C([H])([H])[H])C([H])([H])[H])C([H])(C(=O)N([H])C2([H])c4c([H])c([H])c([H])c([H])c4C([H])([H])C([H])([H])C2([H])[H])C3([H])[H])n(C([H])([H])C([H])([H])[H])c1OC([H])([H])[H]

$$$$
85:0:0
     RDKit          3D

 95103  0  0  1  0  0  0  0  0999 V2000
  -28.0030  -20.0160   20.0560 C   0  0  0  0  0  3  0  0  0  0  0  0
  -27.4220  -18.8020   19.6720 C   0  0  0  0  0  3  0  0  0  0  0  0
  -29.5120  -17.5020   20.0720 C   0  0  0  0  0  0  0  0  0  0  0  0
  -29.3670  -20.0870   20.3800 C   0  0  0  0  0  0  0  0  0  0  0  0
  -28.1670  -17.6100   19.5960 C   0  0  0  0  0  0  0  0  0  0  0  0
  -30.0990  -18.7960   20.4400 C   0  0  0  0  0  0  0  0  0  0  0  0
  -30.2810  -16.1430   19.7680 C   0  0  0  0  0  0  0  0  0  0  0  0
  -30.5670  -15.9650   18.5390 N   0  0  0  0  0  0  0  0  0  0  0  0
  -30.2370  -16.7370   17.9730 H   0  0  0  0  0  0  0  0  0  0  0  0
  -30.8040  -14.9730   20.7630 C   0  0  0  0  0  0  0  0  0  0  0  0
  -30.6960  -12.6040   19.9480 C   0  0  0  0  0  2  0  0  0  0  0  0
  -29.8510  -12.5040   18.6610 C   0  0  0  0  0  2  0  0  0  0  0  0
  -28.3570  -12.3360   19.0000 C   0  0  0  0  0  2  0  0  0  0  0  0
  -27.8670  -13.3190   20.0950 C   0  0  0  0  0  3  0  0  0  0  0  0
  -28.8450  -13.4140   21.2790 C   0  0  0  0  0  2  0  0  0  0  0  0
  -30.1650  -13.7450   20.7260 N   0  0  0  0  0  0  0  0  0  0  0  0
  -32.0310  -14.9740   20.9070 O   0  0  0  0  0  0  0  0  0  0  0  0
  -25.4360  -13.9240   20.6650 C   0  0  0  0  0  0  0  0  0  0  0  0
  -24.3440  -13.1570   20.9510 C   0  0  0  0  0  0  0  0  0  0  0  0
  -24.8100  -11.8080   20.9770 C   0  0  0  0  0  0  0  0  0  0  0  0
  -26.4960  -13.0430   20.5080 N   0  0  0  0  0  0  0  0  0  0  0  0
  -26.1210  -11.7660   20.7710 N   0  0  0  0  0  0  0  0  0  0  0  0
  -24.0700  -10.5530   21.1260 C   0  0  0  0  0  0  0  0  0  0  0  0
  -24.4420   -9.5880   22.0870 C   0  0  0  0  0  3  0  0  0  0  0  0
  -23.7000   -8.3970   22.2280 C   0  0  0  0  0  3  0  0  0  0  0  0
  -22.5730   -8.1620   21.4060 C   0  0  0  0  0  0  0  0  0  0  0  0
  -22.2200   -9.1150   20.4340 C   0  0  0  0  0  3  0  0  0  0  0  0
  -22.9630  -10.2990   20.2910 C   0  0  0  0  0  3  0  0  0  0  0  0
  -21.8090   -7.0220   21.4560 O   0  0  0  0  0  0  0  0  0  0  0  0
  -21.7040   -6.2750   22.6010 C   0  0  0  0  0  0  0  0  0  0  0  0
  -21.2270   -6.8280   23.8100 C   0  0  0  0  0  3  0  0  0  0  0  0
  -21.0670   -6.0080   24.9430 C   0  0  0  0  0  3  0  0  0  0  0  0
  -21.3770   -4.6370   24.8700 C   0  0  0  0  0  0  0  0  0  0  0  0
  -21.8480   -4.0830   23.6670 C   0  0  0  0  0  3  0  0  0  0  0  0
  -22.0080   -4.9000   22.5340 C   0  0  0  0  0  0  0  0  0  0  0  0
  -22.4410   -4.3590   21.3710 F   0  0  0  0  0  0  0  0  0  0  0  0
  -21.2170   -3.8460   25.9580 F   0  0  0  0  0  0  0  0  0  0  0  0
  -22.9310  -13.6410   21.0910 C   0  0  0  0  0  0  0  0  0  0  0  0
  -22.1350  -12.9720   21.9160 N   0  0  0  0  0  0  0  0  0  0  0  0
  -22.5370  -14.6480   20.5030 O   0  0  0  0  0  0  0  0  0  0  0  0
  -22.4660  -12.1590   22.4140 H   0  0  0  0  0  0  0  0  0  0  0  0
  -21.1820  -13.2780   22.0550 H   0  0  0  0  0  0  0  0  0  0  0  0
  -25.5910  -15.2920   20.5040 N   0  0  0  0  0  0  0  0  0  0  0  0
  -24.7950  -15.9170   20.5270 H   0  0  0  0  0  0  0  0  0  0  0  0
  -26.4140  -15.7330   20.0760 H   0  0  0  0  0  0  0  0  0  0  0  0
  -27.5410  -16.5890   18.8850 N   0  0  0  0  0  0  0  0  0  0  0  0
  -26.7840  -16.8820   18.2740 H   0  0  0  0  0  0  0  0  0  0  0  0
  -28.1640  -15.9540   18.3940 H   0  0  0  0  0  0  0  0  0  0  0  0
  -29.6000  -22.6810   20.5620 C   0  0  0  0  0  3  0  0  0  0  0  0
  -29.9640  -21.3970   20.6020 N   0  0  0  0  0  0  0  0  0  0  0  0
  -28.3010  -23.6000   20.3490 C   0  0  0  0  0  2  0  0  0  0  0  0
  -28.4590  -25.0850   19.6720 C   0  0  0  0  0  2  0  0  0  0  0  0
  -28.3030  -26.4310   20.3400 O   0  0  0  0  0  0  0  0  0  0  0  0
  -24.5730  -31.9350   23.2430 C   0  0  0  0  0  0  0  0  0  0  0  0
  -27.1770  -27.2880   20.2380 C   0  0  0  0  0  0  0  0  0  0  0  0
  -23.3670  -30.5230   21.6170 C   0  0  0  0  0  3  0  0  0  0  0  0
  -24.8150  -28.9400   20.2070 C   0  0  0  0  0  0  0  0  0  0  0  0
  -25.9100  -30.8150   21.4380 C   0  0  0  0  0  2  0  0  0  0  0  0
  -25.9850  -29.4250   20.8040 C   0  0  0  0  0  0  0  0  0  0  0  0
  -27.1630  -28.6090   20.8090 C   0  0  0  0  0  3  0  0  0  0  0  0
  -25.9770  -26.8650   19.6230 C   0  0  0  0  0  3  0  0  0  0  0  0
  -24.8170  -27.6690   19.6090 C   0  0  0  0  0  3  0  0  0  0  0  0
  -23.5820  -29.8260   20.2460 C   0  0  0  0  0  2  0  0  0  0  0  0
  -24.6360  -31.1120   22.1550 N   0  0  0  0  0  0  0  0  0  0  0  0
  -23.4900  -32.2250   23.7720 O   0  0  0  0  0  0  0  0  0  0  0  0
  -22.6960  -29.5240   22.5890 C   0  0  0  0  0  0  0  0  0  0  0  0
  -21.3690  -29.3540   22.4640 N   0  0  0  0  0  0  0  0  0  0  0  0
  -23.3700  -28.9040   23.4160 O   0  0  0  0  0  0  0  0  0  0  0  0
  -20.8850  -29.9050   21.7700 H   0  0  0  0  0  0  0  0  0  0  0  0
  -17.9850  -28.1780   22.9790 C   0  0  0  0  0  0  0  0  0  0  0  0
  -20.5450  -28.4290   23.2450 C   0  0  0  0  0  3  0  0  0  0  0  0
  -20.6400  -26.9910   22.6850 C   0  0  0  0  0  2  0  0  0  0  0  0
  -19.5370  -26.6620   21.6740 C   0  0  0  0  0  2  0  0  0  0  0  0
  -18.1560  -26.8210   22.3150 C   0  0  0  0  0  2  0  0  0  0  0  0
  -19.1070  -28.9390   23.4000 C   0  0  0  0  0  0  0  0  0  0  0  0
  -18.8930  -30.2080   23.9810 C   0  0  0  0  0  3  0  0  0  0  0  0
  -17.5910  -30.7150   24.1430 C   0  0  0  0  0  3  0  0  0  0  0  0
  -16.4830  -29.9520   23.7350 C   0  0  0  0  0  3  0  0  0  0  0  0
  -16.6810  -28.6840   23.1600 C   0  0  0  0  0  3  0  0  0  0  0  0
  -25.8560  -32.5720   23.8610 C   0  0  0  0  0  3  0  0  0  0  0  0
  -25.5500  -33.9740   24.1790 N   0  0  0  0  0  0  0  0  0  0  0  0
  -25.8970  -35.0220   23.4210 C   0  0  0  0  0  0  0  0  0  0  0  0
  -26.5790  -34.9090   22.3980 O   0  0  0  0  0  0  0  0  0  0  0  0
  -24.9450  -34.1350   24.9730 H   0  0  0  0  0  0  0  0  0  0  0  0
  -24.1930  -36.8310   23.0290 C   0  0  0  0  0  1  0  0  0  0  0  0
  -25.4140  -36.4160   23.8660 C   0  0  0  0  0  3  0  0  0  0  0  0
  -27.5390  -37.2830   24.7390 C   0  0  0  0  0  1  0  0  0  0  0  0
  -26.4580  -37.4590   23.7720 N   0  0  0  0  0  0  0  0  0  0  0  0
  -26.0580  -38.3830   23.9100 H   0  0  0  0  0  0  0  0  0  0  0  0
  -26.3670  -31.8130   25.1490 C   0  0  1  0  0  0  0  0  0  0  0  0
  -25.2700  -31.5920   26.2170 C   0  0  0  0  0  1  0  0  0  0  0  0
  -26.9460  -30.4290   24.7770 C   0  0  0  0  0  1  0  0  0  0  0  0
  -27.5190  -32.6100   25.8050 C   0  0  0  0  0  1  0  0  0  0  0  0
  -32.3390  -19.6350   20.2160 C   0  0  0  0  0  1  0  0  0  0  0  0
  -31.4250  -18.7280   20.8170 O   0  0  0  0  0  0  0  0  0  0  0  0
  1  4  1  0
  2  1  2  0
  3  6  1  0
  4  6  2  0
  4 50  1  0
  5  2  1  0
  5  3  2  0
  6 95  1  0
  7  3  1  0
  7 10  1  0
  8  7  2  0
  9  8  1  0
 10 17  2  0
 11 16  1  0
 12 13  1  0
 12 11  1  0
 14 13  1  0
 14 21  1  0
 14 15  1  0
 16 10  1  0
 16 15  1  0
 18 19  2  0
 19 20  1  0
 19 38  1  0
 20 23  1  0
 21 18  1  0
 21 22  1  0
 22 20  2  0
 23 24  1  0
 24 25  2  0
 26 29  1  0
 26 25  1  0
 27 26  2  0
 28 27  1  0
 28 23  2  0
 29 30  1  0
 30 31  1  0
 31 32  2  0
 33 32  1  0
 33 37  1  0
 34 33  2  0
 35 30  2  0
 35 34  1  0
 36 35  1  0
 38 39  1  0
 39 42  1  0
 39 41  1  0
 40 38  2  0
 43 44  1  0
 43 18  1  0
 45 43  1  0
 46  5  1  0
 47 46  1  0
 48 46  1  0
 49 50  2  0
 51 49  1  0
 52 53  1  0
 52 51  1  0
 54 65  2  0
 55 53  1  0
 55 60  1  0
 56 64  1  0
 56 66  1  0
 57 63  1  0
 57 59  1  0
 58 64  1  0
 59 60  2  0
 59 58  1  0
 61 55  2  0
 62 61  1  0
 62 57  2  0
 63 56  1  0
 64 54  1  0
 66 68  2  0
 67 66  1  0
 69 67  1  0
 70 79  2  0
 70 75  1  0
 71 67  1  0
 71 75  1  0
 72 71  1  0
 73 74  1  0
 73 72  1  0
 74 70  1  0
 75 76  2  0
 76 77  1  0
 78 77  2  0
 79 78  1  0
 80 54  1  0
 80 81  1  0
 80 90  1  0
 81 84  1  0
 82 86  1  0
 82 81  1  0
 83 82  2  0
 86 85  1  0
 88 86  1  0
 88 89  1  0
 88 87  1  0
 90 93  1  1
 90 91  1  0
 92 90  1  0
 94 95  1  0
M  ISO  4   7 100  10 100  52 101  53 101
M  END
>  <TORSDO>  (86) 
F 22

>  <SCORE>  (86) 
-13.586

>  <name>  (86) 
85

>  <ligand_id>  (86) 
85

>  <original_smiles>  (86) 
[H]N=C(C(=O)N1C([H])([H])C([H])([H])C([H])([H])C([H])(n2nc(-c3c([H])c([H])c(Oc4c([H])c([H])c(F)c([H])c4F)c([H])c3[H])c(C(=O)N([H])[H])c2N([H])[H])C1([H])[H])c1c(OC([H])([H])[H])c(N=C([H])C([H])([H])C([H])([H])Oc2c([H])c([H])c3c(c2[H])C([H])([H])N(C(=O)C([H])(N([H])C(=O)C([H])(N([H])C([H])([H])[H])C([H])([H])[H])C(C([H])([H])[H])(C([H])([H])[H])C([H])([H])[H])C([H])(C(=O)N([H])C2([H])c4c([H])c([H])c([H])c([H])c4C([H])([H])C([H])([H])C2([H])[H])C3([H])[H])c([H])c([H])c1N([H])[H]

>  <smiles>  (86) 
[H]N=C(C(=O)N1C([H])([H])C([H])([H])C([H])([H])C([H])(n2nc(-c3c([H])c([H])c(Oc4c([H])c([H])c(F)c([H])c4F)c([H])c3[H])c(C(=O)N([H])[H])c2N([H])[H])C1([H])[H])c1c(OC([H])([H])[H])c(N=C([H])C([H])([H])C([H])([H])Oc2c([H])c([H])c3c(c2[H])C([H])([H])N(C(=O)C([H])(N([H])C(=O)C([H])(N([H])C([H])([H])[H])C([H])([H])[H])C(C([H])([H])[H])(C([H])([H])[H])C([H])([H])[H])C([H])(C(=O)N([H])C2([H])c4c([H])c([H])c([H])c([H])c4C([H])([H])C([H])([H])C2([H])[H])C3([H])[H])c([H])c([H])c1N([H])[H]

$$$$
86:0:0
     RDKit          3D

 88 96  0  0  1  0  0  0  0  0999 V2000
  -30.2090  -17.8840   18.1440 C   0  0  0  0  0  3  0  0  0  0  0  0
  -29.6930  -18.2250   19.4520 C   0  0  0  0  0  0  0  0  0  0  0  0
  -30.2460  -18.8720   17.2130 C   0  0  0  0  0  0  0  0  0  0  0  0
  -29.3400  -19.7610   19.4790 C   0  0  0  0  0  0  0  0  0  0  0  0
  -30.5720  -18.7640   15.7610 C   0  0  0  0  0  1  0  0  0  0  0  0
  -29.7840  -20.3740   17.8740 S   0  0  0  0  0  0  0  0  0  0  0  0
  -30.3450  -15.4340   20.2010 C   0  0  0  0  0  0  0  0  0  0  0  0
  -30.3870  -12.9120   19.5000 C   0  0  0  0  0  2  0  0  0  0  0  0
  -29.4990  -12.6390   18.2610 C   0  0  0  0  0  2  0  0  0  0  0  0
  -28.0490  -12.3620   18.6890 C   0  0  0  0  0  2  0  0  0  0  0  0
  -27.5620  -13.3460   19.7850 C   0  0  0  0  0  3  0  0  0  0  0  0
  -28.5960  -13.5770   20.9030 C   0  0  0  0  0  2  0  0  0  0  0  0
  -29.8090  -14.0980   20.2490 N   0  0  0  0  0  0  0  0  0  0  0  0
  -31.5750  -15.3910   20.0420 O   0  0  0  0  0  0  0  0  0  0  0  0
  -29.5860  -16.7550   20.2080 N   0  0  0  0  0  0  0  0  0  0  0  0
  -28.6270  -16.5820   20.4760 H   0  0  0  0  0  0  0  0  0  0  0  0
  -25.1900  -13.8840   20.5220 C   0  0  0  0  0  0  0  0  0  0  0  0
  -24.1280  -13.1010   20.8770 C   0  0  0  0  0  0  0  0  0  0  0  0
  -24.6050  -11.7530   20.8600 C   0  0  0  0  0  0  0  0  0  0  0  0
  -26.2370  -13.0150   20.2960 N   0  0  0  0  0  0  0  0  0  0  0  0
  -25.9020  -11.7300   20.5690 N   0  0  0  0  0  0  0  0  0  0  0  0
  -23.8820  -10.4900   21.0530 C   0  0  0  0  0  0  0  0  0  0  0  0
  -24.3160   -9.5200   21.9830 C   0  0  0  0  0  3  0  0  0  0  0  0
  -23.5840   -8.3260   22.1610 C   0  0  0  0  0  3  0  0  0  0  0  0
  -22.4090   -8.0890   21.4110 C   0  0  0  0  0  0  0  0  0  0  0  0
  -21.9910   -9.0490   20.4730 C   0  0  0  0  0  3  0  0  0  0  0  0
  -22.7200  -10.2390   20.2960 C   0  0  0  0  0  3  0  0  0  0  0  0
  -21.6490   -6.9470   21.5030 O   0  0  0  0  0  0  0  0  0  0  0  0
  -21.6160   -6.1910   22.6470 C   0  0  0  0  0  0  0  0  0  0  0  0
  -21.2320   -6.7390   23.8910 C   0  0  0  0  0  3  0  0  0  0  0  0
  -21.1430   -5.9100   25.0270 C   0  0  0  0  0  3  0  0  0  0  0  0
  -21.4340   -4.5360   24.9240 C   0  0  0  0  0  0  0  0  0  0  0  0
  -21.8100   -3.9890   23.6850 C   0  0  0  0  0  3  0  0  0  0  0  0
  -21.9010   -4.8140   22.5510 C   0  0  0  0  0  0  0  0  0  0  0  0
  -22.2480   -4.2780   21.3570 F   0  0  0  0  0  0  0  0  0  0  0  0
  -21.3450   -3.7380   26.0130 F   0  0  0  0  0  0  0  0  0  0  0  0
  -22.7290  -13.5730   21.1250 C   0  0  0  0  0  0  0  0  0  0  0  0
  -21.9880  -12.8830   21.9830 N   0  0  0  0  0  0  0  0  0  0  0  0
  -22.2940  -14.5950   20.5880 O   0  0  0  0  0  0  0  0  0  0  0  0
  -22.3570  -12.0570   22.4350 H   0  0  0  0  0  0  0  0  0  0  0  0
  -21.0420  -13.1800   22.1810 H   0  0  0  0  0  0  0  0  0  0  0  0
  -25.3500  -15.2560   20.3470 N   0  0  0  0  0  0  0  0  0  0  0  0
  -24.5700  -15.8980   20.4540 H   0  0  0  0  0  0  0  0  0  0  0  0
  -26.2000  -15.7090   20.0320 H   0  0  0  0  0  0  0  0  0  0  0  0
  -28.7860  -22.4630   19.8580 C   0  0  0  0  0  2  0  0  0  0  0  0
  -28.6980  -21.0350   20.1340 N   0  0  0  0  0  2  0  0  0  0  0  0
  -27.8390  -24.0190   20.1470 C   0  0  0  0  0  2  0  0  0  0  0  0
  -28.1650  -25.6890   20.1600 O   0  0  0  0  0  0  0  0  0  0  0  0
  -24.6750  -31.8410   23.1660 C   0  0  0  0  0  0  0  0  0  0  0  0
  -27.1830  -26.8480   20.1580 C   0  0  0  0  0  0  0  0  0  0  0  0
  -23.4700  -30.4390   21.5470 C   0  0  0  0  0  3  0  0  0  0  0  0
  -24.9060  -28.8070   20.1320 C   0  0  0  0  0  0  0  0  0  0  0  0
  -26.0450  -30.6040   21.4030 C   0  0  0  0  0  2  0  0  0  0  0  0
  -26.1030  -29.1830   20.7500 C   0  0  0  0  0  0  0  0  0  0  0  0
  -27.2330  -28.2300   20.7350 C   0  0  0  0  0  3  0  0  0  0  0  0
  -25.9460  -26.6460   19.5010 C   0  0  0  0  0  3  0  0  0  0  0  0
  -24.8580  -27.5630   19.4830 C   0  0  0  0  0  3  0  0  0  0  0  0
  -23.6920  -29.7450   20.1760 C   0  0  0  0  0  2  0  0  0  0  0  0
  -24.7530  -30.9950   22.0870 N   0  0  0  0  0  0  0  0  0  0  0  0
  -23.5860  -32.1420   23.6810 O   0  0  0  0  0  0  0  0  0  0  0  0
  -22.7690  -29.4590   22.5250 C   0  0  0  0  0  0  0  0  0  0  0  0
  -21.4370  -29.2970   22.4100 N   0  0  0  0  0  0  0  0  0  0  0  0
  -23.4360  -28.8380   23.3570 O   0  0  0  0  0  0  0  0  0  0  0  0
  -20.9500  -29.8480   21.7220 H   0  0  0  0  0  0  0  0  0  0  0  0
  -18.0530  -28.0940   22.9500 C   0  0  0  0  0  0  0  0  0  0  0  0
  -20.6160  -28.3700   23.1980 C   0  0  0  0  0  3  0  0  0  0  0  0
  -20.7180  -26.9330   22.6400 C   0  0  0  0  0  2  0  0  0  0  0  0
  -19.6130  -26.5960   21.6310 C   0  0  0  0  0  2  0  0  0  0  0  0
  -18.2330  -26.7400   22.2820 C   0  0  0  0  0  2  0  0  0  0  0  0
  -19.1710  -28.8670   23.3620 C   0  0  0  0  0  0  0  0  0  0  0  0
  -18.9490  -30.1320   23.9510 C   0  0  0  0  0  3  0  0  0  0  0  0
  -17.6410  -30.6220   24.1270 C   0  0  0  0  0  3  0  0  0  0  0  0
  -16.5380  -29.8510   23.7230 C   0  0  0  0  0  3  0  0  0  0  0  0
  -16.7450  -28.5880   23.1400 C   0  0  0  0  0  3  0  0  0  0  0  0
  -25.9400  -32.4950   23.7960 C   0  0  0  0  0  3  0  0  0  0  0  0
  -25.6090  -33.8930   24.1380 N   0  0  0  0  0  0  0  0  0  0  0  0
  -25.9310  -34.9650   23.4030 C   0  0  0  0  0  0  0  0  0  0  0  0
  -26.5960  -34.8840   22.3660 O   0  0  0  0  0  0  0  0  0  0  0  0
  -25.0100  -34.0310   24.9410 H   0  0  0  0  0  0  0  0  0  0  0  0
  -24.1920  -36.7680   23.1100 C   0  0  0  0  0  1  0  0  0  0  0  0
  -25.4450  -36.3480   23.8950 C   0  0  0  0  0  3  0  0  0  0  0  0
  -27.5860  -37.2400   24.7110 C   0  0  0  0  0  1  0  0  0  0  0  0
  -26.4730  -37.4100   23.7810 N   0  0  0  0  0  0  0  0  0  0  0  0
  -26.0630  -38.3290   23.9320 H   0  0  0  0  0  0  0  0  0  0  0  0
  -26.4610  -31.7300   25.0730 C   0  0  1  0  0  0  0  0  0  0  0  0
  -25.3700  -31.4950   26.1440 C   0  0  0  0  0  1  0  0  0  0  0  0
  -27.0480  -30.3540   24.6940 C   0  0  0  0  0  1  0  0  0  0  0  0
  -27.6080  -32.5340   25.7260 C   0  0  0  0  0  1  0  0  0  0  0  0
  1  2  1  0
  2  4  2  0
  2 15  1  0
  3  6  1  0
  3  1  2  0
  4 46  1  0
  5  3  1  0
  6  4  1  0
  7 15  1  0
  7 13  1  0
  8 13  1  0
  9 10  1  0
  9  8  1  0
 11 10  1  0
 11 20  1  0
 11 12  1  0
 13 12  1  0
 14  7  2  0
 15 16  1  0
 17 18  2  0
 18 37  1  0
 19 18  1  0
 19 22  1  0
 20 17  1  0
 20 21  1  0
 21 19  2  0
 22 23  1  0
 23 24  2  0
 25 28  1  0
 25 24  1  0
 26 25  2  0
 27 26  1  0
 27 22  2  0
 28 29  1  0
 29 30  1  0
 30 31  2  0
 32 31  1  0
 32 36  1  0
 33 32  2  0
 34 29  2  0
 34 33  1  0
 35 34  1  0
 37 38  1  0
 38 41  1  0
 38 40  1  0
 39 37  2  0
 42 43  1  0
 42 17  1  0
 44 42  1  0
 45 46  1  0
 45 47  1  0
 47 48  1  0
 49 60  2  0
 50 48  1  0
 50 55  1  0
 51 59  1  0
 51 61  1  0
 52 58  1  0
 52 54  1  0
 53 59  1  0
 54 53  1  0
 55 54  2  0
 56 50  2  0
 57 56  1  0
 57 52  2  0
 58 51  1  0
 59 49  1  0
 61 63  2  0
 62 61  1  0
 64 62  1  0
 65 74  2  0
 65 70  1  0
 66 62  1  0
 66 70  1  0
 67 66  1  0
 68 69  1  0
 68 67  1  0
 69 65  1  0
 70 71  2  0
 71 72  1  0
 73 72  2  0
 74 73  1  0
 75 49  1  0
 75 76  1  0
 75 85  1  0
 76 79  1  0
 77 81  1  0
 77 76  1  0
 78 77  2  0
 81 80  1  0
 83 81  1  0
 83 84  1  0
 83 82  1  0
 85 88  1  1
 85 86  1  0
 87 85  1  0
M  ISO  4   7 100  15 100  47 101  48 101
M  END
>  <TORSDO>  (87) 
F 18

>  <SCORE>  (87) 
-15.481

>  <name>  (87) 
86

>  <ligand_id>  (87) 
86

>  <original_smiles>  (87) 
[H]C(=Nc1sc(C([H])([H])[H])c([H])c1N([H])C(=O)N1C([H])([H])C([H])([H])C([H])([H])C([H])(n2nc(-c3c([H])c([H])c(Oc4c([H])c([H])c(F)c([H])c4F)c([H])c3[H])c(C(=O)N([H])[H])c2N([H])[H])C1([H])[H])C([H])([H])Oc1c([H])c([H])c2c(c1[H])C([H])([H])N(C(=O)C([H])(N([H])C(=O)C([H])(N([H])C([H])([H])[H])C([H])([H])[H])C(C([H])([H])[H])(C([H])([H])[H])C([H])([H])[H])C([H])(C(=O)N([H])C1([H])c3c([H])c([H])c([H])c([H])c3C([H])([H])C([H])([H])C1([H])[H])C2([H])[H]

>  <smiles>  (87) 
[H]C(=Nc1sc(C([H])([H])[H])c([H])c1N([H])C(=O)N1C([H])([H])C([H])([H])C([H])([H])C([H])(n2nc(-c3c([H])c([H])c(Oc4c([H])c([H])c(F)c([H])c4F)c([H])c3[H])c(C(=O)N([H])[H])c2N([H])[H])C1([H])[H])C([H])([H])Oc1c([H])c([H])c2c(c1[H])C([H])([H])N(C(=O)C([H])(N([H])C(=O)C([H])(N([H])C([H])([H])[H])C([H])([H])[H])C(C([H])([H])[H])(C([H])([H])[H])C([H])([H])[H])C([H])(C(=O)N([H])C1([H])c3c([H])c([H])c([H])c([H])c3C([H])([H])C([H])([H])C1([H])[H])C2([H])[H]

$$$$
87:0:0
     RDKit          3D

 93101  0  0  1  0  0  0  0  0999 V2000
  -30.4890  -20.0740   18.7670 C   0  0  0  0  0  3  0  0  0  0  0  0
  -29.6560  -18.5840   20.4630 C   0  0  0  0  0  0  0  0  0  0  0  0
  -29.7560  -19.9640   19.9630 C   0  0  0  0  0  0  0  0  0  0  0  0
  -30.2190  -17.4240   19.7560 C   0  0  0  0  0  0  0  0  0  0  0  0
  -30.8240  -17.7560   18.5040 C   0  0  0  0  0  0  0  0  0  0  0  0
  -28.9150  -18.3330   21.7650 C   0  0  0  0  0  1  0  0  0  0  0  0
  -30.9950  -19.0310   18.0820 N   0  0  0  0  0  0  0  0  0  0  0  0
  -30.8340  -14.8370   19.9630 C   0  0  0  0  0  0  0  0  0  0  0  0
  -30.5680  -12.5720   18.9330 C   0  0  0  0  0  2  0  0  0  0  0  0
  -29.5530  -12.6670   17.7720 C   0  0  0  0  0  2  0  0  0  0  0  0
  -28.1140  -12.4870   18.2930 C   0  0  0  0  0  2  0  0  0  0  0  0
  -27.8220  -13.3460   19.5510 C   0  0  0  0  0  3  0  0  0  0  0  0
  -28.9520  -13.2380   20.6000 C   0  0  0  0  0  2  0  0  0  0  0  0
  -30.2050  -13.6080   19.9310 N   0  0  0  0  0  0  0  0  0  0  0  0
  -32.0100  -14.9170   19.6010 O   0  0  0  0  0  0  0  0  0  0  0  0
  -30.0730  -15.9870   20.2070 N   0  0  0  0  0  0  0  0  0  0  0  0
  -29.2030  -15.7840   20.6740 H   0  0  0  0  0  0  0  0  0  0  0  0
  -25.4990  -13.9260   20.4660 C   0  0  0  0  0  0  0  0  0  0  0  0
  -24.4510  -13.1460   20.8760 C   0  0  0  0  0  0  0  0  0  0  0  0
  -24.8960  -11.7930   20.7610 C   0  0  0  0  0  0  0  0  0  0  0  0
  -26.5130  -13.0480   20.1230 N   0  0  0  0  0  0  0  0  0  0  0  0
  -26.1620  -11.7580   20.3640 N   0  0  0  0  0  0  0  0  0  0  0  0
  -24.1680  -10.5320   20.9490 C   0  0  0  0  0  0  0  0  0  0  0  0
  -24.6150   -9.5490   21.8600 C   0  0  0  0  0  3  0  0  0  0  0  0
  -23.8860   -8.3530   22.0370 C   0  0  0  0  0  3  0  0  0  0  0  0
  -22.6970   -8.1300   21.3040 C   0  0  0  0  0  0  0  0  0  0  0  0
  -22.2700   -9.1010   20.3800 C   0  0  0  0  0  3  0  0  0  0  0  0
  -22.9980  -10.2890   20.2010 C   0  0  0  0  0  3  0  0  0  0  0  0
  -21.9390   -6.9880   21.3910 O   0  0  0  0  0  0  0  0  0  0  0  0
  -21.8610   -6.2640   22.5540 C   0  0  0  0  0  0  0  0  0  0  0  0
  -21.3710   -6.8280   23.7510 C   0  0  0  0  0  3  0  0  0  0  0  0
  -21.2420   -6.0280   24.9050 C   0  0  0  0  0  3  0  0  0  0  0  0
  -21.5920   -4.6660   24.8620 C   0  0  0  0  0  0  0  0  0  0  0  0
  -22.0750   -4.1010   23.6680 C   0  0  0  0  0  3  0  0  0  0  0  0
  -22.2060   -4.8970   22.5160 C   0  0  0  0  0  0  0  0  0  0  0  0
  -22.6510   -4.3430   21.3630 F   0  0  0  0  0  0  0  0  0  0  0  0
  -21.4620   -3.8960   25.9670 F   0  0  0  0  0  0  0  0  0  0  0  0
  -23.0800  -13.6250   21.2580 C   0  0  0  0  0  0  0  0  0  0  0  0
  -22.4040  -12.9050   22.1450 N   0  0  0  0  0  0  0  0  0  0  0  0
  -22.6210  -14.6730   20.8040 O   0  0  0  0  0  0  0  0  0  0  0  0
  -22.7910  -12.0580   22.5320 H   0  0  0  0  0  0  0  0  0  0  0  0
  -21.4870  -13.2070   22.4420 H   0  0  0  0  0  0  0  0  0  0  0  0
  -25.6650  -15.3010   20.3310 N   0  0  0  0  0  0  0  0  0  0  0  0
  -24.9090  -15.9520   20.5090 H   0  0  0  0  0  0  0  0  0  0  0  0
  -26.4800  -15.7450   19.9270 H   0  0  0  0  0  0  0  0  0  0  0  0
  -32.1810  -16.9510   16.5450 C   0  0  0  0  0  2  0  0  0  0  0  0
  -31.2720  -16.7520   17.5150 C   0  0  0  0  0  3  0  0  0  0  0  0
  -29.1880  -21.1720   20.5690 N   0  0  0  0  0  0  0  0  0  0  0  0
  -28.6710  -21.0300   21.4330 H   0  0  0  0  0  0  0  0  0  0  0  0
  -29.2540  -22.6290   20.0820 C   0  0  0  0  0  2  0  0  0  0  0  0
  -28.4180  -23.7130   20.8990 C   0  0  0  0  0  3  0  0  0  0  0  0
  -28.1220  -25.0850   20.9500 C   0  0  0  0  0  3  0  0  0  0  0  0
  -28.4470  -26.2960   20.2640 O   0  0  0  0  0  0  0  0  0  0  0  0
  -24.6840  -31.8240   23.2090 C   0  0  0  0  0  0  0  0  0  0  0  0
  -27.4040  -27.2580   20.1920 C   0  0  0  0  0  0  0  0  0  0  0  0
  -23.5360  -30.4210   21.5360 C   0  0  0  0  0  3  0  0  0  0  0  0
  -25.0380  -28.8930   20.1280 C   0  0  0  0  0  0  0  0  0  0  0  0
  -26.0810  -30.7540   21.4160 C   0  0  0  0  0  2  0  0  0  0  0  0
  -26.1930  -29.3760   20.7600 C   0  0  0  0  0  0  0  0  0  0  0  0
  -27.3830  -28.5700   20.7820 C   0  0  0  0  0  3  0  0  0  0  0  0
  -26.2300  -26.8520   19.5260 C   0  0  0  0  0  3  0  0  0  0  0  0
  -25.0630  -27.6390   19.4980 C   0  0  0  0  0  3  0  0  0  0  0  0
  -23.7910  -29.7570   20.1570 C   0  0  0  0  0  2  0  0  0  0  0  0
  -24.7850  -31.0180   22.1100 N   0  0  0  0  0  0  0  0  0  0  0  0
  -23.5850  -32.0860   23.7200 O   0  0  0  0  0  0  0  0  0  0  0  0
  -22.8600  -29.3930   22.4770 C   0  0  0  0  0  0  0  0  0  0  0  0
  -21.5330  -29.2200   22.3390 N   0  0  0  0  0  0  0  0  0  0  0  0
  -23.5300  -28.7550   23.2930 O   0  0  0  0  0  0  0  0  0  0  0  0
  -21.0510  -29.7870   21.6550 H   0  0  0  0  0  0  0  0  0  0  0  0
  -18.1460  -28.0370   22.8220 C   0  0  0  0  0  0  0  0  0  0  0  0
  -20.7070  -28.2720   23.0900 C   0  0  0  0  0  3  0  0  0  0  0  0
  -20.7960  -26.8530   22.4830 C   0  0  0  0  0  2  0  0  0  0  0  0
  -19.6900  -26.5620   21.4640 C   0  0  0  0  0  2  0  0  0  0  0  0
  -18.3110  -26.7020   22.1150 C   0  0  0  0  0  2  0  0  0  0  0  0
  -19.2710  -28.7810   23.2660 C   0  0  0  0  0  0  0  0  0  0  0  0
  -19.0630  -30.0310   23.8890 C   0  0  0  0  0  3  0  0  0  0  0  0
  -17.7620  -30.5360   24.0710 C   0  0  0  0  0  3  0  0  0  0  0  0
  -16.6510  -29.7900   23.6420 C   0  0  0  0  0  3  0  0  0  0  0  0
  -16.8440  -28.5410   23.0230 C   0  0  0  0  0  3  0  0  0  0  0  0
  -25.9430  -32.4710   23.8640 C   0  0  0  0  0  3  0  0  0  0  0  0
  -26.4300  -31.7090   25.1570 C   0  0  1  0  0  0  0  0  0  0  0  0
  -25.3090  -31.4640   26.1940 C   0  0  0  0  0  1  0  0  0  0  0  0
  -27.0380  -30.3360   24.7900 C   0  0  0  0  0  1  0  0  0  0  0  0
  -27.5520  -32.5180   25.8490 C   0  0  0  0  0  1  0  0  0  0  0  0
  -25.6110  -33.8680   24.1820 N   0  0  0  0  0  0  0  0  0  0  0  0
  -25.9420  -34.9230   23.4240 C   0  0  0  0  0  0  0  0  0  0  0  0
  -26.6260  -34.8230   22.4030 O   0  0  0  0  0  0  0  0  0  0  0  0
  -25.0040  -34.0190   24.9740 H   0  0  0  0  0  0  0  0  0  0  0  0
  -24.2000  -36.6970   23.0430 C   0  0  0  0  0  1  0  0  0  0  0  0
  -25.4350  -36.3070   23.8710 C   0  0  0  0  0  3  0  0  0  0  0  0
  -27.5440  -37.2230   24.7320 C   0  0  0  0  0  1  0  0  0  0  0  0
  -26.4580  -37.3710   23.7670 N   0  0  0  0  0  0  0  0  0  0  0  0
  -26.0400  -38.2880   23.8990 H   0  0  0  0  0  0  0  0  0  0  0  0
  1  3  1  0
  2  6  1  0
  3  2  2  0
  3 48  1  0
  4 16  1  0
  4  2  1  0
  5  4  2  0
  7  5  1  0
  7  1  2  0
  8 16  1  0
  9 14  1  0
 10 11  1  0
 10  9  1  0
 12 11  1  0
 12 21  1  0
 12 13  1  0
 14  8  1  0
 14 13  1  0
 15  8  2  0
 16 17  1  0
 18 19  2  0
 19 38  1  0
 20 19  1  0
 20 23  1  0
 21 22  1  0
 21 18  1  0
 22 20  2  0
 23 24  1  0
 24 25  2  0
 26 29  1  0
 26 25  1  0
 27 26  2  0
 28 27  1  0
 28 23  2  0
 29 30  1  0
 30 31  1  0
 31 32  2  0
 33 32  1  0
 33 37  1  0
 34 33  2  0
 35 30  2  0
 35 34  1  0
 36 35  1  0
 38 39  1  0
 39 42  1  0
 39 41  1  0
 40 38  2  0
 43 18  1  0
 43 44  1  0
 45 43  1  0
 46 47  2  0
 47  5  1  0
 48 49  1  0
 50 48  1  0
 50 51  1  0
 51 52  2  0
 53 52  1  0
 54 65  2  0
 55 53  1  0
 55 60  1  0
 56 64  1  0
 56 66  1  0
 57 63  1  0
 57 59  1  0
 58 64  1  0
 59 60  2  0
 59 58  1  0
 61 55  2  0
 62 61  1  0
 62 57  2  0
 63 56  1  0
 64 54  1  0
 66 68  2  0
 67 66  1  0
 69 67  1  0
 70 79  2  0
 70 75  1  0
 71 67  1  0
 71 75  1  0
 72 71  1  0
 73 74  1  0
 73 72  1  0
 74 70  1  0
 75 76  2  0
 76 77  1  0
 78 77  2  0
 79 78  1  0
 80 54  1  0
 80 85  1  0
 80 81  1  0
 81 84  1  1
 81 82  1  0
 83 81  1  0
 85 88  1  0
 86 90  1  0
 86 85  1  0
 87 86  2  0
 90 89  1  0
 92 90  1  0
 92 93  1  0
 92 91  1  0
M  ISO  4   8 100  16 100  52 101  53 101
M  END
>  <TORSDO>  (88) 
F 20

>  <SCORE>  (88) 
-12.118

>  <name>  (88) 
87

>  <ligand_id>  (88) 
87

>  <original_smiles>  (88) 
[H]C([H])=C([H])c1nc([H])c(N([H])C([H])([H])C([H])=C([H])Oc2c([H])c([H])c3c(c2[H])C([H])([H])N(C(=O)C([H])(N([H])C(=O)C([H])(N([H])C([H])([H])[H])C([H])([H])[H])C(C([H])([H])[H])(C([H])([H])[H])C([H])([H])[H])C([H])(C(=O)N([H])C2([H])c4c([H])c([H])c([H])c([H])c4C([H])([H])C([H])([H])C2([H])[H])C3([H])[H])c(C([H])([H])[H])c1N([H])C(=O)N1C([H])([H])C([H])([H])C([H])([H])C([H])(n2nc(-c3c([H])c([H])c(Oc4c([H])c([H])c(F)c([H])c4F)c([H])c3[H])c(C(=O)N([H])[H])c2N([H])[H])C1([H])[H]

>  <smiles>  (88) 
[H]C([H])=C([H])c1nc([H])c(N([H])C([H])([H])C([H])=C([H])Oc2c([H])c([H])c3c(c2[H])C([H])([H])N(C(=O)C([H])(N([H])C(=O)C([H])(N([H])C([H])([H])[H])C([H])([H])[H])C(C([H])([H])[H])(C([H])([H])[H])C([H])([H])[H])C([H])(C(=O)N([H])C2([H])c4c([H])c([H])c([H])c([H])c4C([H])([H])C([H])([H])C2([H])[H])C3([H])[H])c(C([H])([H])[H])c1N([H])C(=O)N1C([H])([H])C([H])([H])C([H])([H])C([H])(n2nc(-c3c([H])c([H])c(Oc4c([H])c([H])c(F)c([H])c4F)c([H])c3[H])c(C(=O)N([H])[H])c2N([H])[H])C1([H])[H]

$$$$
88:0:0
     RDKit          3D

 97106  0  0  1  0  0  0  0  0999 V2000
  -30.5440  -21.0460   19.7840 C   0  0  0  0  0  2  0  0  0  0  0  0
  -29.6020  -24.6240   19.3840 C   0  0  0  0  0  3  0  0  0  0  0  0
  -29.2370  -25.9570   19.3700 C   0  0  0  0  0  2  0  0  0  0  0  0
  -30.8820  -24.1870   18.7400 C   0  0  0  0  0  2  0  0  0  0  0  0
  -29.1360  -23.3330   20.1360 C   0  0  0  0  0  2  0  0  0  0  0  0
  -31.4760  -23.3010   19.8490 C   0  0  0  0  0  2  0  0  0  0  0  0
  -30.3630  -22.4530   20.3650 N   0  0  2  0  0  4  0  0  0  0  0  0
  -30.4870  -22.3580   21.3620 H   0  0  0  0  0  0  0  0  0  0  0  0
  -28.5010  -26.6670   20.3040 O   0  0  0  0  0  0  0  0  0  0  0  0
  -24.5850  -31.8840   23.1720 C   0  0  0  0  0  0  0  0  0  0  0  0
  -27.4450  -27.5390   20.0410 C   0  0  0  0  0  0  0  0  0  0  0  0
  -23.4580  -30.4500   21.5020 C   0  0  0  0  0  3  0  0  0  0  0  0
  -24.9950  -29.0060   20.0400 C   0  0  0  0  0  0  0  0  0  0  0  0
  -25.9740  -30.9090   21.3330 C   0  0  0  0  0  2  0  0  0  0  0  0
  -26.1280  -29.5530   20.6550 C   0  0  0  0  0  0  0  0  0  0  0  0
  -27.3520  -28.8230   20.6590 C   0  0  0  0  0  3  0  0  0  0  0  0
  -26.2980  -27.0400   19.3950 C   0  0  0  0  0  3  0  0  0  0  0  0
  -25.0810  -27.7570   19.3970 C   0  0  0  0  0  3  0  0  0  0  0  0
  -23.7080  -29.8070   20.1100 C   0  0  0  0  0  2  0  0  0  0  0  0
  -24.6880  -31.0980   22.0600 N   0  0  0  0  0  0  0  0  0  0  0  0
  -23.4890  -32.0980   23.7080 O   0  0  0  0  0  0  0  0  0  0  0  0
  -22.8430  -29.3900   22.4470 C   0  0  0  0  0  0  0  0  0  0  0  0
  -21.5300  -29.1420   22.3070 N   0  0  0  0  0  0  0  0  0  0  0  0
  -23.5480  -28.7940   23.2650 O   0  0  0  0  0  0  0  0  0  0  0  0
  -21.0170  -29.6790   21.6220 H   0  0  0  0  0  0  0  0  0  0  0  0
  -18.2230  -27.7450   22.7440 C   0  0  0  0  0  0  0  0  0  0  0  0
  -20.7560  -28.1540   23.0600 C   0  0  0  0  0  3  0  0  0  0  0  0
  -20.9510  -26.7330   22.4820 C   0  0  0  0  0  2  0  0  0  0  0  0
  -19.8890  -26.3510   21.4470 C   0  0  0  0  0  2  0  0  0  0  0  0
  -18.4910  -26.4110   22.0670 C   0  0  0  0  0  2  0  0  0  0  0  0
  -19.2880  -28.5690   23.1960 C   0  0  0  0  0  0  0  0  0  0  0  0
  -18.9840  -29.8140   23.7900 C   0  0  0  0  0  3  0  0  0  0  0  0
  -17.6490  -30.2360   23.9350 C   0  0  0  0  0  3  0  0  0  0  0  0
  -16.6000  -29.4090   23.5000 C   0  0  0  0  0  3  0  0  0  0  0  0
  -16.8870  -28.1650   22.9100 C   0  0  0  0  0  3  0  0  0  0  0  0
  -25.8350  -32.5690   23.8080 C   0  0  0  0  0  3  0  0  0  0  0  0
  -26.3720  -31.8190   25.0890 C   0  0  1  0  0  0  0  0  0  0  0  0
  -25.2820  -31.5330   26.1470 C   0  0  0  0  0  1  0  0  0  0  0  0
  -27.0170  -30.4680   24.6990 C   0  0  0  0  0  1  0  0  0  0  0  0
  -27.4820  -32.6600   25.7620 C   0  0  0  0  0  1  0  0  0  0  0  0
  -25.4640  -33.9530   24.1370 N   0  0  0  0  0  0  0  0  0  0  0  0
  -25.7530  -35.0200   23.3800 C   0  0  0  0  0  0  0  0  0  0  0  0
  -26.4300  -34.9460   22.3500 O   0  0  0  0  0  0  0  0  0  0  0  0
  -24.8620  -34.0800   24.9380 H   0  0  0  0  0  0  0  0  0  0  0  0
  -23.9480  -36.7350   23.0260 C   0  0  0  0  0  1  0  0  0  0  0  0
  -25.2050  -36.3850   23.8390 C   0  0  0  0  0  3  0  0  0  0  0  0
  -27.2980  -37.3620   24.6700 C   0  0  0  0  0  1  0  0  0  0  0  0
  -26.1900  -37.4830   23.7270 N   0  0  0  0  0  0  0  0  0  0  0  0
  -25.7440  -38.3840   23.8750 H   0  0  0  0  0  0  0  0  0  0  0  0
  -28.3700  -19.8070   19.5260 C   0  0  0  0  0  3  0  0  0  0  0  0
  -28.1160  -17.4050   19.8390 C   0  0  0  0  0  3  0  0  0  0  0  0
  -30.1870  -18.4770   20.4940 C   0  0  0  0  0  3  0  0  0  0  0  0
  -27.5940  -18.6390   19.3970 C   0  0  0  0  0  0  0  0  0  0  0  0
  -29.6730  -19.7650   20.0530 C   0  0  0  0  0  0  0  0  0  0  0  0
  -29.4100  -17.2600   20.3910 C   0  0  0  0  0  0  0  0  0  0  0  0
  -30.5160  -14.9040   20.3960 C   0  0  0  0  0  0  0  0  0  0  0  0
  -30.3510  -12.7180   19.2110 C   0  0  0  0  0  2  0  0  0  0  0  0
  -29.3960  -12.9060   18.0090 C   0  0  0  0  0  2  0  0  0  0  0  0
  -27.9330  -12.6660   18.4330 C   0  0  0  0  0  2  0  0  0  0  0  0
  -27.5630  -13.4230   19.7340 C   0  0  0  0  0  3  0  0  0  0  0  0
  -28.6370  -13.2440   20.8310 C   0  0  0  0  0  2  0  0  0  0  0  0
  -29.9300  -13.6660   20.2670 N   0  0  0  0  0  0  0  0  0  0  0  0
  -31.6600  -15.1060   19.9800 O   0  0  0  0  0  0  0  0  0  0  0  0
  -29.7440  -15.9200   20.9200 N   0  0  0  0  0  0  0  0  0  0  0  0
  -28.9450  -15.4950   21.3690 H   0  0  0  0  0  0  0  0  0  0  0  0
  -25.1390  -13.9400   20.4270 C   0  0  0  0  0  0  0  0  0  0  0  0
  -24.0970  -13.1290   20.7860 C   0  0  0  0  0  0  0  0  0  0  0  0
  -24.6140  -11.7960   20.7650 C   0  0  0  0  0  0  0  0  0  0  0  0
  -26.2200  -13.0980   20.2070 N   0  0  0  0  0  0  0  0  0  0  0  0
  -25.9080  -11.8050   20.4700 N   0  0  0  0  0  0  0  0  0  0  0  0
  -23.9370  -10.5090   20.9540 C   0  0  0  0  0  0  0  0  0  0  0  0
  -24.3700   -9.5830   21.9270 C   0  0  0  0  0  3  0  0  0  0  0  0
  -23.6940   -8.3580   22.1020 C   0  0  0  0  0  3  0  0  0  0  0  0
  -22.5690   -8.0490   21.3010 C   0  0  0  0  0  0  0  0  0  0  0  0
  -22.1550   -8.9640   20.3160 C   0  0  0  0  0  3  0  0  0  0  0  0
  -22.8340  -10.1810   20.1400 C   0  0  0  0  0  3  0  0  0  0  0  0
  -21.8660   -6.8720   21.3790 O   0  0  0  0  0  0  0  0  0  0  0  0
  -21.7720   -6.1680   22.5530 C   0  0  0  0  0  0  0  0  0  0  0  0
  -21.2350   -6.7430   23.7250 C   0  0  0  0  0  3  0  0  0  0  0  0
  -21.0930   -5.9630   24.8910 C   0  0  0  0  0  3  0  0  0  0  0  0
  -21.4780   -4.6090   24.8830 C   0  0  0  0  0  0  0  0  0  0  0  0
  -22.0080   -4.0340   23.7160 C   0  0  0  0  0  3  0  0  0  0  0  0
  -22.1520   -4.8120   22.5530 C   0  0  0  0  0  0  0  0  0  0  0  0
  -22.6440   -4.2470   21.4240 F   0  0  0  0  0  0  0  0  0  0  0  0
  -21.3350   -3.8570   26.0000 F   0  0  0  0  0  0  0  0  0  0  0  0
  -22.6800  -13.5540   21.0420 C   0  0  0  0  0  0  0  0  0  0  0  0
  -21.9730  -12.8410   21.9120 N   0  0  0  0  0  0  0  0  0  0  0  0
  -22.2050  -14.5550   20.5070 O   0  0  0  0  0  0  0  0  0  0  0  0
  -22.3700  -12.0330   22.3670 H   0  0  0  0  0  0  0  0  0  0  0  0
  -21.0230  -13.1100   22.1260 H   0  0  0  0  0  0  0  0  0  0  0  0
  -25.2510  -15.3160   20.2570 N   0  0  0  0  0  0  0  0  0  0  0  0
  -24.4540  -15.9340   20.3710 H   0  0  0  0  0  0  0  0  0  0  0  0
  -26.0960  -15.8030   19.9990 H   0  0  0  0  0  0  0  0  0  0  0  0
  -26.2970  -18.6450   18.6950 C   0  0  0  0  0  3  0  0  0  0  0  0
  -25.7930  -19.6710   17.9840 C   0  0  0  0  0  3  0  0  0  0  0  0
  -24.0310  -20.6460   16.6000 C   0  0  0  0  0  2  0  0  0  0  0  0
  -24.5220  -19.6060   17.2920 C   0  0  0  0  0  3  0  0  0  0  0  0
  1 54  1  0
  1  7  1  0
  2  3  1  0
  2  5  1  0
  3  9  1  0
  4  2  1  0
  4  6  1  0
  5  7  1  0
  6  7  1  0
  7  8  1  1
 10 21  2  0
 11  9  1  0
 11 16  1  0
 12 20  1  0
 12 22  1  0
 13 19  1  0
 13 15  1  0
 14 20  1  0
 15 16  2  0
 15 14  1  0
 17 18  1  0
 17 11  2  0
 18 13  2  0
 19 12  1  0
 20 10  1  0
 22 24  2  0
 23 22  1  0
 25 23  1  0
 26 35  2  0
 26 31  1  0
 27 23  1  0
 27 31  1  0
 28 27  1  0
 29 30  1  0
 29 28  1  0
 30 26  1  0
 31 32  2  0
 32 33  1  0
 34 33  2  0
 35 34  1  0
 36 10  1  0
 36 41  1  0
 36 37  1  0
 37 40  1  1
 37 38  1  0
 39 37  1  0
 41 44  1  0
 42 46  1  0
 42 41  1  0
 43 42  2  0
 46 45  1  0
 48 46  1  0
 48 49  1  0
 48 47  1  0
 50 54  1  0
 51 55  2  0
 53 50  2  0
 53 51  1  0
 54 52  2  0
 55 52  1  0
 55 64  1  0
 56 64  1  0
 57 62  1  0
 58 59  1  0
 58 57  1  0
 60 59  1  0
 60 69  1  0
 60 61  1  0
 62 56  1  0
 62 61  1  0
 63 56  2  0
 64 65  1  0
 66 67  2  0
 67 86  1  0
 68 67  1  0
 68 71  1  0
 69 66  1  0
 69 70  1  0
 70 68  2  0
 71 72  1  0
 72 73  2  0
 74 77  1  0
 74 73  1  0
 75 74  2  0
 76 75  1  0
 76 71  2  0
 77 78  1  0
 78 79  1  0
 79 80  2  0
 81 80  1  0
 81 85  1  0
 82 81  2  0
 83 78  2  0
 83 82  1  0
 84 83  1  0
 86 87  1  0
 87 90  1  0
 87 89  1  0
 88 86  2  0
 91 92  1  0
 91 66  1  0
 93 91  1  0
 94 53  1  0
 95 94  2  0
 96 97  2  0
 97 95  1  0
M  ISO  4   3 101   9 101  56 100  64 100
M  END
>  <TORSDO>  (89) 
F 20

>  <SCORE>  (89) 
-12.290

>  <name>  (89) 
88

>  <ligand_id>  (89) 
88

>  <original_smiles>  (89) 
[H]C([H])=C([H])C([H])=C([H])c1c([H])c(N([H])C(=O)N2C([H])([H])C([H])([H])C([H])([H])C([H])(n3nc(-c4c([H])c([H])c(Oc5c([H])c([H])c(F)c([H])c5F)c([H])c4[H])c(C(=O)N([H])[H])c3N([H])[H])C2([H])[H])c([H])c(C([H])([H])[N+]2([H])C([H])([H])C(=C([H])Oc3c([H])c([H])c4c(c3[H])C([H])([H])N(C(=O)C([H])(N([H])C(=O)C([H])(N([H])C([H])([H])[H])C([H])([H])[H])C(C([H])([H])[H])(C([H])([H])[H])C([H])([H])[H])C([H])(C(=O)N([H])C3([H])c5c([H])c([H])c([H])c([H])c5C([H])([H])C([H])([H])C3([H])[H])C4([H])[H])C([H])([H])C2([H])[H])c1[H]

>  <smiles>  (89) 
[H]C([H])=C([H])C([H])=C([H])c1c([H])c(N([H])C(=O)N2C([H])([H])C([H])([H])C([H])([H])C([H])(n3nc(-c4c([H])c([H])c(Oc5c([H])c([H])c(F)c([H])c5F)c([H])c4[H])c(C(=O)N([H])[H])c3N([H])[H])C2([H])[H])c([H])c(C([H])([H])[N+]2([H])C([H])([H])C(=C([H])Oc3c([H])c([H])c4c(c3[H])C([H])([H])N(C(=O)C([H])(N([H])C(=O)C([H])(N([H])C([H])([H])[H])C([H])([H])[H])C(C([H])([H])[H])(C([H])([H])[H])C([H])([H])[H])C([H])(C(=O)N([H])C3([H])c5c([H])c([H])c([H])c([H])c5C([H])([H])C([H])([H])C3([H])[H])C4([H])[H])C([H])([H])C2([H])[H])c1[H]

$$$$
89:0:0
     RDKit          3D

 94102  0  0  1  0  0  0  0  0999 V2000
  -31.1690  -18.0580   19.6200 C   0  0  0  0  0  3  0  0  0  0  0  0
  -29.9180  -19.8780   21.3220 C   0  0  0  0  0  3  0  0  0  0  0  0
  -30.7930  -17.5260   20.8890 C   0  0  0  0  0  0  0  0  0  0  0  0
  -30.1250  -18.5100   21.7240 C   0  0  0  0  0  0  0  0  0  0  0  0
  -30.3310  -20.3940   20.0690 C   0  0  0  0  0  0  0  0  0  0  0  0
  -30.9490  -19.4210   19.2300 C   0  0  0  0  0  0  0  0  0  0  0  0
  -31.3700  -19.8050   18.0000 F   0  0  0  0  0  0  0  0  0  0  0  0
  -31.1960  -16.0740   21.3690 C   0  0  0  0  0  0  0  0  0  0  0  0
  -31.1770  -15.8350   22.6140 N   0  0  0  0  0  0  0  0  0  0  0  0
  -30.8620  -16.6480   23.1270 H   0  0  0  0  0  0  0  0  0  0  0  0
  -31.7300  -14.9050   20.4200 C   0  0  0  0  0  0  0  0  0  0  0  0
  -31.3520  -12.7500   19.1940 C   0  0  0  0  0  2  0  0  0  0  0  0
  -30.4460  -12.9960   17.9660 C   0  0  0  0  0  2  0  0  0  0  0  0
  -28.9580  -12.9040   18.3550 C   0  0  0  0  0  2  0  0  0  0  0  0
  -28.6370  -13.7180   19.6340 C   0  0  0  0  0  3  0  0  0  0  0  0
  -29.6540  -13.4240   20.7560 C   0  0  0  0  0  2  0  0  0  0  0  0
  -30.9990  -13.7400   20.2430 N   0  0  0  0  0  0  0  0  0  0  0  0
  -32.8400  -15.0180   19.8840 O   0  0  0  0  0  0  0  0  0  0  0  0
  -26.2620  -14.4490   20.2800 C   0  0  0  0  0  0  0  0  0  0  0  0
  -25.1460  -13.7370   20.6270 C   0  0  0  0  0  0  0  0  0  0  0  0
  -25.5360  -12.3640   20.6210 C   0  0  0  0  0  0  0  0  0  0  0  0
  -27.2620  -13.5110   20.0800 N   0  0  0  0  0  0  0  0  0  0  0  0
  -26.8290  -12.2520   20.3470 N   0  0  0  0  0  0  0  0  0  0  0  0
  -24.7360  -11.1430   20.8030 C   0  0  0  0  0  0  0  0  0  0  0  0
  -25.0810  -10.1720   21.7680 C   0  0  0  0  0  3  0  0  0  0  0  0
  -24.2860   -9.0180   21.9380 C   0  0  0  0  0  3  0  0  0  0  0  0
  -23.1320   -8.8270   21.1400 C   0  0  0  0  0  0  0  0  0  0  0  0
  -22.8070   -9.7860   20.1660 C   0  0  0  0  0  3  0  0  0  0  0  0
  -23.6010  -10.9320   19.9950 C   0  0  0  0  0  3  0  0  0  0  0  0
  -22.3160   -7.7250   21.2160 O   0  0  0  0  0  0  0  0  0  0  0  0
  -22.1400   -7.0380   22.3910 C   0  0  0  0  0  0  0  0  0  0  0  0
  -21.6590   -7.6710   23.5580 C   0  0  0  0  0  3  0  0  0  0  0  0
  -21.4260   -6.9140   24.7240 C   0  0  0  0  0  3  0  0  0  0  0  0
  -21.6650   -5.5260   24.7230 C   0  0  0  0  0  0  0  0  0  0  0  0
  -22.1400   -4.8940   23.5600 C   0  0  0  0  0  3  0  0  0  0  0  0
  -22.3730   -5.6480   22.3970 C   0  0  0  0  0  0  0  0  0  0  0  0
  -22.8100   -5.0300   21.2730 F   0  0  0  0  0  0  0  0  0  0  0  0
  -21.4350   -4.7980   25.8410 F   0  0  0  0  0  0  0  0  0  0  0  0
  -23.7690  -14.2920   20.8560 C   0  0  0  0  0  0  0  0  0  0  0  0
  -22.9900  -13.6570   21.7240 N   0  0  0  0  0  0  0  0  0  0  0  0
  -23.3950  -15.3250   20.3010 O   0  0  0  0  0  0  0  0  0  0  0  0
  -23.3050  -12.8220   22.1950 H   0  0  0  0  0  0  0  0  0  0  0  0
  -22.0650  -14.0120   21.9220 H   0  0  0  0  0  0  0  0  0  0  0  0
  -26.5050  -15.8060   20.0970 N   0  0  0  0  0  0  0  0  0  0  0  0
  -25.7700  -16.5000   20.1810 H   0  0  0  0  0  0  0  0  0  0  0  0
  -27.3840  -16.1950   19.7800 H   0  0  0  0  0  0  0  0  0  0  0  0
  -29.5840  -18.1800   23.1170 C   0  0  0  0  0  2  0  0  0  0  0  0
  -30.0520  -18.2190   25.6300 C   0  0  0  0  0  1  0  0  0  0  0  0
  -30.6020  -18.5020   24.2260 C   0  0  0  0  0  2  0  0  0  0  0  0
  -30.1710  -21.7310   19.5930 O   0  0  0  0  0  0  0  0  0  0  0  0
  -29.4140  -22.8410   20.2280 C   0  0  0  0  0  2  0  0  0  0  0  0
  -28.9930  -23.9670   19.2050 C   0  0  0  0  0  3  0  0  0  0  0  0
  -28.6190  -25.3080   19.1840 C   0  0  0  0  0  3  0  0  0  0  0  0
  -28.4640  -26.3250   20.1470 O   0  0  0  0  0  0  0  0  0  0  0  0
  -24.6700  -31.6630   23.2580 C   0  0  0  0  0  0  0  0  0  0  0  0
  -27.3770  -27.2260   20.0640 C   0  0  0  0  0  0  0  0  0  0  0  0
  -23.5110  -30.3260   21.5370 C   0  0  0  0  0  3  0  0  0  0  0  0
  -25.0010  -28.8420   20.0750 C   0  0  0  0  0  0  0  0  0  0  0  0
  -26.0540  -30.6560   21.4270 C   0  0  0  0  0  2  0  0  0  0  0  0
  -26.1570  -29.3060   20.7190 C   0  0  0  0  0  0  0  0  0  0  0  0
  -27.3450  -28.5070   20.7090 C   0  0  0  0  0  3  0  0  0  0  0  0
  -26.1920  -26.8220   19.4040 C   0  0  0  0  0  3  0  0  0  0  0  0
  -25.0240  -27.6080   19.4090 C   0  0  0  0  0  3  0  0  0  0  0  0
  -23.7590  -29.7070   20.1360 C   0  0  0  0  0  2  0  0  0  0  0  0
  -24.7610  -30.8980   22.1300 N   0  0  0  0  0  0  0  0  0  0  0  0
  -23.5740  -31.9180   23.7790 O   0  0  0  0  0  0  0  0  0  0  0  0
  -22.8330  -29.2690   22.4430 C   0  0  0  0  0  0  0  0  0  0  0  0
  -21.5160  -29.0710   22.2630 N   0  0  0  0  0  0  0  0  0  0  0  0
  -23.4920  -28.6330   23.2710 O   0  0  0  0  0  0  0  0  0  0  0  0
  -21.0460  -29.6330   21.5680 H   0  0  0  0  0  0  0  0  0  0  0  0
  -18.1510  -27.7760   22.5870 C   0  0  0  0  0  0  0  0  0  0  0  0
  -20.6880  -28.0960   22.9750 C   0  0  0  0  0  3  0  0  0  0  0  0
  -20.8520  -26.6820   22.3740 C   0  0  0  0  0  2  0  0  0  0  0  0
  -19.8060  -26.3540   21.3050 C   0  0  0  0  0  2  0  0  0  0  0  0
  -18.3940  -26.4470   21.8890 C   0  0  0  0  0  2  0  0  0  0  0  0
  -19.2300  -28.5570   23.0820 C   0  0  0  0  0  0  0  0  0  0  0  0
  -18.9520  -29.8000   23.6910 C   0  0  0  0  0  3  0  0  0  0  0  0
  -17.6280  -30.2630   23.8120 C   0  0  0  0  0  3  0  0  0  0  0  0
  -16.5630  -29.4790   23.3330 C   0  0  0  0  0  3  0  0  0  0  0  0
  -16.8260  -28.2380   22.7260 C   0  0  0  0  0  3  0  0  0  0  0  0
  -25.9340  -32.2780   23.9310 C   0  0  0  0  0  3  0  0  0  0  0  0
  -25.5910  -33.6430   24.3580 N   0  0  0  0  0  0  0  0  0  0  0  0
  -25.8960  -34.7540   23.6740 C   0  0  0  0  0  0  0  0  0  0  0  0
  -26.5690  -34.7390   22.6380 O   0  0  0  0  0  0  0  0  0  0  0  0
  -24.9880  -33.7240   25.1630 H   0  0  0  0  0  0  0  0  0  0  0  0
  -24.1190  -36.5230   23.4560 C   0  0  0  0  0  1  0  0  0  0  0  0
  -25.3780  -36.0960   24.2270 C   0  0  0  0  0  3  0  0  0  0  0  0
  -27.4980  -36.9840   25.0950 C   0  0  0  0  0  1  0  0  0  0  0  0
  -26.3820  -37.1830   24.1740 N   0  0  0  0  0  0  0  0  0  0  0  0
  -25.9530  -38.0800   24.3830 H   0  0  0  0  0  0  0  0  0  0  0  0
  -26.4620  -31.4300   25.1550 C   0  0  1  0  0  0  0  0  0  0  0  0
  -25.3690  -31.0880   26.1950 C   0  0  0  0  0  1  0  0  0  0  0  0
  -27.0820  -30.0960   24.6760 C   0  0  0  0  0  1  0  0  0  0  0  0
  -27.5910  -32.2020   25.8770 C   0  0  0  0  0  1  0  0  0  0  0  0
  1  3  1  0
  2  4  1  0
  3  8  1  0
  3  4  2  0
  4 47  1  0
  5  2  2  0
  6  1  2  0
  6  5  1  0
  7  6  1  0
  8  9  2  0
  9 10  1  0
 11  8  1  0
 12 17  1  0
 13 14  1  0
 13 12  1  0
 15 14  1  0
 15 22  1  0
 15 16  1  0
 17 11  1  0
 17 16  1  0
 18 11  2  0
 19 20  2  0
 20 39  1  0
 21 20  1  0
 21 24  1  0
 22 19  1  0
 22 23  1  0
 23 21  2  0
 24 25  1  0
 25 26  2  0
 27 30  1  0
 27 26  1  0
 28 27  2  0
 29 28  1  0
 29 24  2  0
 30 31  1  0
 31 36  2  0
 31 32  1  0
 32 33  2  0
 34 33  1  0
 34 38  1  0
 35 34  2  0
 36 35  1  0
 37 36  1  0
 39 40  1  0
 40 43  1  0
 40 42  1  0
 41 39  2  0
 44 45  1  0
 44 19  1  0
 46 44  1  0
 47 49  1  0
 49 48  1  0
 50  5  1  0
 50 51  1  0
 52 51  1  0
 53 52  2  0
 53 54  1  0
 55 66  2  0
 56 54  1  0
 56 61  1  0
 57 65  1  0
 57 67  1  0
 58 64  1  0
 58 60  1  0
 59 65  1  0
 60 59  1  0
 61 60  2  0
 62 63  1  0
 62 56  2  0
 63 58  2  0
 64 57  1  0
 65 55  1  0
 67 69  2  0
 68 67  1  0
 70 68  1  0
 71 80  2  0
 71 76  1  0
 72 68  1  0
 72 76  1  0
 73 72  1  0
 74 75  1  0
 74 73  1  0
 75 71  1  0
 76 77  2  0
 77 78  1  0
 79 78  2  0
 80 79  1  0
 81 55  1  0
 81 82  1  0
 81 91  1  0
 82 85  1  0
 83 87  1  0
 83 82  1  0
 84 83  2  0
 87 86  1  0
 89 87  1  0
 89 90  1  0
 89 88  1  0
 91 94  1  1
 91 92  1  0
 93 91  1  0
M  ISO  4   8 100  11 100  53 101  54 101
M  END
>  <TORSDO>  (90) 
F 22

>  <SCORE>  (90) 
-6.636

>  <name>  (90) 
89

>  <ligand_id>  (90) 
89

>  <original_smiles>  (90) 
[H]N=C(C(=O)N1C([H])([H])C([H])([H])C([H])([H])C([H])(n2nc(-c3c([H])c([H])c(Oc4c([H])c([H])c(F)c([H])c4F)c([H])c3[H])c(C(=O)N([H])[H])c2N([H])[H])C1([H])[H])c1c([H])c(F)c(OC([H])([H])C([H])=C([H])Oc2c([H])c([H])c3c(c2[H])C([H])([H])N(C(=O)C([H])(N([H])C(=O)C([H])(N([H])C([H])([H])[H])C([H])([H])[H])C(C([H])([H])[H])(C([H])([H])[H])C([H])([H])[H])C([H])(C(=O)N([H])C2([H])c4c([H])c([H])c([H])c([H])c4C([H])([H])C([H])([H])C2([H])[H])C3([H])[H])c([H])c1C([H])([H])C([H])([H])C([H])([H])[H]

>  <smiles>  (90) 
[H]N=C(C(=O)N1C([H])([H])C([H])([H])C([H])([H])C([H])(n2nc(-c3c([H])c([H])c(Oc4c([H])c([H])c(F)c([H])c4F)c([H])c3[H])c(C(=O)N([H])[H])c2N([H])[H])C1([H])[H])c1c([H])c(F)c(OC([H])([H])C([H])=C([H])Oc2c([H])c([H])c3c(c2[H])C([H])([H])N(C(=O)C([H])(N([H])C(=O)C([H])(N([H])C([H])([H])[H])C([H])([H])[H])C(C([H])([H])[H])(C([H])([H])[H])C([H])([H])[H])C([H])(C(=O)N([H])C2([H])c4c([H])c([H])c([H])c([H])c4C([H])([H])C([H])([H])C2([H])[H])C3([H])[H])c([H])c1C([H])([H])C([H])([H])C([H])([H])[H]

$$$$
90:0:0
     RDKit          3D

 99108  0  0  1  0  0  0  0  0999 V2000
  -28.8630  -23.9200   19.9750 C   0  0  0  0  0  0  0  0  0  0  0  0
  -29.1630  -22.6710   20.5180 C   0  0  0  0  0  0  0  0  0  0  0  0
  -29.2310  -21.9120   17.4470 C   0  0  0  0  0  0  0  0  0  0  0  0
  -29.0310  -24.2670   18.4920 C   0  0  0  0  0  2  0  0  0  0  0  0
  -28.4670  -23.2290   17.5000 C   0  0  0  0  0  2  0  0  0  0  0  0
  -30.3150  -21.6810   18.4960 C   0  0  0  0  0  2  0  0  0  0  0  0
  -28.9040  -22.4230   21.9990 C   0  0  0  0  0  1  0  0  0  0  0  0
  -29.7630  -21.5430   19.8490 N   0  0  0  0  0  0  0  0  0  0  0  0
  -28.9710  -21.0600   16.5940 O   0  0  0  0  0  0  0  0  0  0  0  0
  -31.1020  -18.0150   20.6040 C   0  0  0  0  0  3  0  0  0  0  0  0
  -28.7140  -17.9000   20.4030 C   0  0  0  0  0  3  0  0  0  0  0  0
  -29.8020  -20.1350   20.2120 C   0  0  0  0  0  0  0  0  0  0  0  0
  -29.9410  -17.1970   20.5680 C   0  0  0  0  0  0  0  0  0  0  0  0
  -31.0370  -19.4370   20.4430 C   0  0  0  0  0  0  0  0  0  0  0  0
  -28.6390  -19.3140   20.2180 C   0  0  0  0  0  0  0  0  0  0  0  0
  -27.4250  -19.8790   20.0000 F   0  0  0  0  0  0  0  0  0  0  0  0
  -30.7330  -14.7110   20.3080 C   0  0  0  0  0  0  0  0  0  0  0  0
  -30.5250  -12.5010   19.1780 C   0  0  0  0  0  2  0  0  0  0  0  0
  -29.5400  -12.6600   17.9970 C   0  0  0  0  0  2  0  0  0  0  0  0
  -28.0820  -12.4750   18.4640 C   0  0  0  0  0  2  0  0  0  0  0  0
  -27.7570  -13.2910   19.7430 C   0  0  0  0  0  3  0  0  0  0  0  0
  -28.8490  -13.1010   20.8190 C   0  0  0  0  0  2  0  0  0  0  0  0
  -30.1390  -13.4780   20.2170 N   0  0  0  0  0  0  0  0  0  0  0  0
  -31.8820  -14.8990   19.8940 O   0  0  0  0  0  0  0  0  0  0  0  0
  -29.9100  -15.7320   20.7190 N   0  0  0  0  0  0  0  0  0  0  0  0
  -29.0230  -15.3720   21.0360 H   0  0  0  0  0  0  0  0  0  0  0  0
  -25.3800  -13.8590   20.5390 C   0  0  0  0  0  0  0  0  0  0  0  0
  -24.3290  -13.0700   20.9230 C   0  0  0  0  0  0  0  0  0  0  0  0
  -24.7990  -11.7230   20.8470 C   0  0  0  0  0  0  0  0  0  0  0  0
  -26.4240  -12.9900   20.2550 N   0  0  0  0  0  0  0  0  0  0  0  0
  -26.0800  -11.7000   20.5000 N   0  0  0  0  0  0  0  0  0  0  0  0
  -24.0850  -10.4520   21.0260 C   0  0  0  0  0  0  0  0  0  0  0  0
  -24.5020   -9.5000   21.9810 C   0  0  0  0  0  3  0  0  0  0  0  0
  -23.7900   -8.2930   22.1480 C   0  0  0  0  0  3  0  0  0  0  0  0
  -22.6450   -8.0300   21.3580 C   0  0  0  0  0  0  0  0  0  0  0  0
  -22.2480   -8.9710   20.3930 C   0  0  0  0  0  3  0  0  0  0  0  0
  -22.9610  -10.1690   20.2230 C   0  0  0  0  0  3  0  0  0  0  0  0
  -21.9060   -6.8740   21.4330 O   0  0  0  0  0  0  0  0  0  0  0  0
  -21.7720   -6.1800   22.6090 C   0  0  0  0  0  0  0  0  0  0  0  0
  -21.1390   -6.7450   23.7380 C   0  0  0  0  0  3  0  0  0  0  0  0
  -20.9600   -5.9720   24.9040 C   0  0  0  0  0  3  0  0  0  0  0  0
  -21.4040   -4.6380   24.9400 C   0  0  0  0  0  0  0  0  0  0  0  0
  -22.0290   -4.0720   23.8140 C   0  0  0  0  0  3  0  0  0  0  0  0
  -22.2100   -4.8420   22.6510 C   0  0  0  0  0  0  0  0  0  0  0  0
  -22.7940   -4.2870   21.5620 F   0  0  0  0  0  0  0  0  0  0  0  0
  -21.2260   -3.8920   26.0560 F   0  0  0  0  0  0  0  0  0  0  0  0
  -22.9370  -13.5320   21.2440 C   0  0  0  0  0  0  0  0  0  0  0  0
  -22.2340  -12.8070   22.1070 N   0  0  0  0  0  0  0  0  0  0  0  0
  -22.4810  -14.5700   20.7640 O   0  0  0  0  0  0  0  0  0  0  0  0
  -22.6160  -11.9670   22.5160 H   0  0  0  0  0  0  0  0  0  0  0  0
  -21.3010  -13.0960   22.3630 H   0  0  0  0  0  0  0  0  0  0  0  0
  -25.5300  -15.2330   20.3840 N   0  0  0  0  0  0  0  0  0  0  0  0
  -24.7480  -15.8680   20.5010 H   0  0  0  0  0  0  0  0  0  0  0  0
  -26.3300  -15.6690   19.9440 H   0  0  0  0  0  0  0  0  0  0  0  0
  -32.2290  -20.1650   20.5140 N   0  0  0  0  0  0  0  0  0  0  0  0
  -32.9920  -19.7700   21.0530 H   0  0  0  0  0  0  0  0  0  0  0  0
  -32.1140  -21.1610   20.6810 H   0  0  0  0  0  0  0  0  0  0  0  0
  -28.2600  -25.1340   20.7910 C   0  0  0  0  0  2  0  0  0  0  0  0
  -28.4390  -26.5210   20.2880 O   0  0  0  0  0  0  0  0  0  0  0  0
  -24.5590  -31.8640   23.2250 C   0  0  0  0  0  0  0  0  0  0  0  0
  -27.3090  -27.3490   20.2440 C   0  0  0  0  0  0  0  0  0  0  0  0
  -23.4170  -30.4560   21.5470 C   0  0  0  0  0  3  0  0  0  0  0  0
  -24.9250  -28.9210   20.1630 C   0  0  0  0  0  0  0  0  0  0  0  0
  -25.9540  -30.8060   21.4340 C   0  0  0  0  0  2  0  0  0  0  0  0
  -26.0690  -29.4300   20.7900 C   0  0  0  0  0  0  0  0  0  0  0  0
  -27.2680  -28.6570   20.8160 C   0  0  0  0  0  3  0  0  0  0  0  0
  -26.1450  -26.8870   19.5950 C   0  0  0  0  0  3  0  0  0  0  0  0
  -24.9640  -27.6550   19.5550 C   0  0  0  0  0  3  0  0  0  0  0  0
  -23.6770  -29.7810   20.1740 C   0  0  0  0  0  2  0  0  0  0  0  0
  -24.6610  -31.0590   22.1260 N   0  0  0  0  0  0  0  0  0  0  0  0
  -23.4580  -32.1280   23.7290 O   0  0  0  0  0  0  0  0  0  0  0  0
  -22.7360  -29.4330   22.4860 C   0  0  0  0  0  0  0  0  0  0  0  0
  -21.4130  -29.2600   22.3360 N   0  0  0  0  0  0  0  0  0  0  0  0
  -23.4000  -28.7970   23.3090 O   0  0  0  0  0  0  0  0  0  0  0  0
  -20.9370  -29.8240   21.6450 H   0  0  0  0  0  0  0  0  0  0  0  0
  -18.0140  -28.1230   22.8210 C   0  0  0  0  0  0  0  0  0  0  0  0
  -20.5770  -28.3180   23.0820 C   0  0  0  0  0  3  0  0  0  0  0  0
  -20.6450  -26.9020   22.4630 C   0  0  0  0  0  2  0  0  0  0  0  0
  -19.5310  -26.6350   21.4470 C   0  0  0  0  0  2  0  0  0  0  0  0
  -18.1560  -26.7910   22.1030 C   0  0  0  0  0  2  0  0  0  0  0  0
  -19.1510  -28.8470   23.2660 C   0  0  0  0  0  0  0  0  0  0  0  0
  -18.9630  -30.0950   23.8980 C   0  0  0  0  0  3  0  0  0  0  0  0
  -17.6700  -30.6200   24.0860 C   0  0  0  0  0  3  0  0  0  0  0  0
  -16.5470  -29.8910   23.6570 C   0  0  0  0  0  3  0  0  0  0  0  0
  -16.7190  -28.6450   23.0300 C   0  0  0  0  0  3  0  0  0  0  0  0
  -25.8180  -32.5060   23.8850 C   0  0  0  0  0  3  0  0  0  0  0  0
  -26.2810  -31.7590   25.1960 C   0  0  1  0  0  0  0  0  0  0  0  0
  -25.1430  -31.5330   26.2190 C   0  0  0  0  0  1  0  0  0  0  0  0
  -26.8880  -30.3790   24.8540 C   0  0  0  0  0  1  0  0  0  0  0  0
  -27.3970  -32.5700   25.8950 C   0  0  0  0  0  1  0  0  0  0  0  0
  -25.4980  -33.9110   24.1760 N   0  0  0  0  0  0  0  0  0  0  0  0
  -25.8650  -34.9500   23.4140 C   0  0  0  0  0  0  0  0  0  0  0  0
  -26.5760  -34.8260   22.4130 O   0  0  0  0  0  0  0  0  0  0  0  0
  -24.8720  -34.0820   24.9500 H   0  0  0  0  0  0  0  0  0  0  0  0
  -24.1820  -36.7560   22.9300 C   0  0  0  0  0  1  0  0  0  0  0  0
  -25.3620  -36.3470   23.8250 C   0  0  0  0  0  3  0  0  0  0  0  0
  -27.4340  -37.2340   24.8020 C   0  0  0  0  0  1  0  0  0  0  0  0
  -26.4110  -37.3890   23.7700 N   0  0  0  0  0  0  0  0  0  0  0  0
  -26.0040  -38.3160   23.8640 H   0  0  0  0  0  0  0  0  0  0  0  0
  1  2  2  0
  1 58  1  0
  2  7  1  0
  3  5  1  0
  3  6  1  0
  4  1  1  0
  5  4  1  0
  6  8  1  0
  8 12  1  0
  8  2  1  0
  9  3  2  0
 11 13  2  0
 12 15  2  0
 12 14  1  0
 13 10  1  0
 13 25  1  0
 14 55  1  0
 14 10  2  0
 15 11  1  0
 16 15  1  0
 17 25  1  0
 18 23  1  0
 19 20  1  0
 19 18  1  0
 21 20  1  0
 21 30  1  0
 21 22  1  0
 23 17  1  0
 23 22  1  0
 24 17  2  0
 25 26  1  0
 27 28  2  0
 28 47  1  0
 29 28  1  0
 29 32  1  0
 30 31  1  0
 30 27  1  0
 31 29  2  0
 32 33  1  0
 33 34  2  0
 35 38  1  0
 35 34  1  0
 36 35  2  0
 37 36  1  0
 37 32  2  0
 38 39  1  0
 39 44  2  0
 39 40  1  0
 40 41  2  0
 41 42  1  0
 42 46  1  0
 43 42  2  0
 44 43  1  0
 45 44  1  0
 47 48  1  0
 48 51  1  0
 48 50  1  0
 49 47  2  0
 52 53  1  0
 52 27  1  0
 54 52  1  0
 55 57  1  0
 55 56  1  0
 59 58  1  0
 60 71  2  0
 61 59  1  0
 61 66  1  0
 62 70  1  0
 62 72  1  0
 63 69  1  0
 63 65  1  0
 64 70  1  0
 65 66  2  0
 65 64  1  0
 67 61  2  0
 68 67  1  0
 68 63  2  0
 69 62  1  0
 70 60  1  0
 72 74  2  0
 73 72  1  0
 75 73  1  0
 76 85  2  0
 76 81  1  0
 77 73  1  0
 77 81  1  0
 78 77  1  0
 79 80  1  0
 79 78  1  0
 80 76  1  0
 81 82  2  0
 82 83  1  0
 84 83  2  0
 85 84  1  0
 86 60  1  0
 86 91  1  0
 86 87  1  0
 87 90  1  1
 87 88  1  0
 89 87  1  0
 91 94  1  0
 92 96  1  0
 92 91  1  0
 93 92  2  0
 96 95  1  0
 98 96  1  0
 98 99  1  0
 98 97  1  0
M  ISO  4  17 100  25 100  58 101  59 101
M  END
>  <TORSDO>  (91) 
F 19

>  <SCORE>  (91) 
-14.984

>  <name>  (91) 
90

>  <ligand_id>  (91) 
90

>  <original_smiles>  (91) 
[H]c1c([H])c([H])c2c(c1[H])C([H])([H])C([H])([H])C([H])([H])C2([H])N([H])C(=O)C1([H])N(C(=O)C([H])(N([H])C(=O)C([H])(N([H])C([H])([H])[H])C([H])([H])[H])C(C([H])([H])[H])(C([H])([H])[H])C([H])([H])[H])C([H])([H])c2c([H])c(OC([H])([H])C3=C(C([H])([H])[H])N(c4c(F)c([H])c(N([H])C(=O)N5C([H])([H])C([H])([H])C([H])([H])C([H])(n6nc(-c7c([H])c([H])c(Oc8c([H])c([H])c(F)c([H])c8F)c([H])c7[H])c(C(=O)N([H])[H])c6N([H])[H])C5([H])[H])c([H])c4N([H])[H])C([H])([H])C(=O)C([H])([H])C3([H])[H])c([H])c([H])c2C1([H])[H]

>  <smiles>  (91) 
[H]c1c([H])c([H])c2c(c1[H])C([H])([H])C([H])([H])C([H])([H])C2([H])N([H])C(=O)C1([H])N(C(=O)C([H])(N([H])C(=O)C([H])(N([H])C([H])([H])[H])C([H])([H])[H])C(C([H])([H])[H])(C([H])([H])[H])C([H])([H])[H])C([H])([H])c2c([H])c(OC([H])([H])C3=C(C([H])([H])[H])N(c4c(F)c([H])c(N([H])C(=O)N5C([H])([H])C([H])([H])C([H])([H])C([H])(n6nc(-c7c([H])c([H])c(Oc8c([H])c([H])c(F)c([H])c8F)c([H])c7[H])c(C(=O)N([H])[H])c6N([H])[H])C5([H])[H])c([H])c4N([H])[H])C([H])([H])C(=O)C([H])([H])C3([H])[H])c([H])c([H])c2C1([H])[H]

$$$$
91:0:0
     RDKit          3D

 95103  0  0  1  0  0  0  0  0999 V2000
  -29.5620  -21.3790   22.1120 C   0  0  0  0  0  3  0  0  0  0  0  0
  -30.2460  -20.8530   23.2030 C   0  0  0  0  0  3  0  0  0  0  0  0
  -29.4470  -20.7480   20.8430 C   0  0  0  0  0  0  0  0  0  0  0  0
  -29.9990  -19.3000   20.7700 C   0  0  0  0  0  0  0  0  0  0  0  0
  -30.8850  -18.9390   21.8510 C   0  0  0  0  0  0  0  0  0  0  0  0
  -30.9520  -19.6690   23.0600 C   0  0  0  0  0  0  0  0  0  0  0  0
  -31.8670  -17.7700   21.7400 C   0  0  0  0  0  1  0  0  0  0  0  0
  -31.7100  -19.2380   24.1470 N   0  0  0  0  0  0  0  0  0  0  0  0
  -31.8850  -19.8570   24.9330 H   0  0  0  0  0  0  0  0  0  0  0  0
  -32.3800  -18.4840   24.0490 H   0  0  0  0  0  0  0  0  0  0  0  0
  -28.6950  -21.8730   19.9210 C   0  0  0  0  0  0  0  0  0  0  0  0
  -27.9300  -21.4590   19.0470 O   0  0  0  0  0  0  0  0  0  0  0  0
  -30.1530  -23.8820   20.3650 C   0  0  0  0  0  2  0  0  0  0  0  0
  -28.8980  -23.5010   20.0620 C   0  0  0  0  0  0  0  0  0  0  0  0
  -27.7860  -24.7190   19.8430 C   0  0  0  0  0  2  0  0  0  0  0  0
  -28.0790  -26.2700   19.9820 O   0  0  0  0  0  0  0  0  0  0  0  0
  -24.6310  -31.9670   23.2580 C   0  0  0  0  0  0  0  0  0  0  0  0
  -27.0370  -27.2860   19.9870 C   0  0  0  0  0  0  0  0  0  0  0  0
  -23.3510  -30.6220   21.6380 C   0  0  0  0  0  3  0  0  0  0  0  0
  -24.7240  -29.0740   20.1070 C   0  0  0  0  0  0  0  0  0  0  0  0
  -25.9010  -30.8650   21.3710 C   0  0  0  0  0  2  0  0  0  0  0  0
  -25.9360  -29.4880   20.6760 C   0  0  0  0  0  0  0  0  0  0  0  0
  -27.0900  -28.6120   20.5950 C   0  0  0  0  0  3  0  0  0  0  0  0
  -25.7940  -26.9870   19.3840 C   0  0  0  0  0  3  0  0  0  0  0  0
  -24.6680  -27.8380   19.4470 C   0  0  0  0  0  3  0  0  0  0  0  0
  -23.5080  -29.9790   20.2330 C   0  0  0  0  0  2  0  0  0  0  0  0
  -24.6500  -31.1730   22.1430 N   0  0  0  0  0  0  0  0  0  0  0  0
  -23.5720  -32.2460   23.8410 O   0  0  0  0  0  0  0  0  0  0  0  0
  -22.7040  -29.5980   22.6030 C   0  0  0  0  0  0  0  0  0  0  0  0
  -21.3850  -29.3690   22.4660 N   0  0  0  0  0  0  0  0  0  0  0  0
  -23.3910  -29.0090   23.4410 O   0  0  0  0  0  0  0  0  0  0  0  0
  -20.8840  -29.8970   21.7660 H   0  0  0  0  0  0  0  0  0  0  0  0
  -18.0710  -27.9670   22.8950 C   0  0  0  0  0  0  0  0  0  0  0  0
  -20.5980  -28.4030   23.2370 C   0  0  0  0  0  3  0  0  0  0  0  0
  -20.8110  -26.9650   22.7060 C   0  0  0  0  0  2  0  0  0  0  0  0
  -19.7640  -26.5430   21.6690 C   0  0  0  0  0  2  0  0  0  0  0  0
  -18.3570  -26.6130   22.2670 C   0  0  0  0  0  2  0  0  0  0  0  0
  -19.1220  -28.8130   23.3380 C   0  0  0  0  0  0  0  0  0  0  0  0
  -18.8010  -30.0730   23.8860 C   0  0  0  0  0  3  0  0  0  0  0  0
  -17.4610  -30.4920   23.9980 C   0  0  0  0  0  3  0  0  0  0  0  0
  -16.4250  -29.6440   23.5690 C   0  0  0  0  0  3  0  0  0  0  0  0
  -16.7290  -28.3840   23.0240 C   0  0  0  0  0  3  0  0  0  0  0  0
  -25.9390  -32.5790   23.8470 C   0  0  0  0  0  3  0  0  0  0  0  0
  -25.6600  -33.9790   24.2070 N   0  0  0  0  0  0  0  0  0  0  0  0
  -25.9700  -35.0400   23.4500 C   0  0  0  0  0  0  0  0  0  0  0  0
  -26.5870  -34.9440   22.3860 O   0  0  0  0  0  0  0  0  0  0  0  0
  -25.1080  -34.1290   25.0390 H   0  0  0  0  0  0  0  0  0  0  0  0
  -24.2400  -36.8550   23.2230 C   0  0  0  0  0  1  0  0  0  0  0  0
  -25.5260  -36.4290   23.9510 C   0  0  0  0  0  3  0  0  0  0  0  0
  -27.7120  -37.2940   24.6610 C   0  0  0  0  0  1  0  0  0  0  0  0
  -26.5590  -37.4750   23.7830 N   0  0  0  0  0  0  0  0  0  0  0  0
  -26.1690  -38.3970   23.9600 H   0  0  0  0  0  0  0  0  0  0  0  0
  -26.4830  -31.7890   25.1020 C   0  0  1  0  0  0  0  0  0  0  0  0
  -25.4140  -31.5370   26.1920 C   0  0  0  0  0  1  0  0  0  0  0  0
  -27.0580  -30.4160   24.6840 C   0  0  0  0  0  1  0  0  0  0  0  0
  -27.6500  -32.5750   25.7480 C   0  0  0  0  0  1  0  0  0  0  0  0
  -29.8570  -18.0320   19.6970 C   0  0  0  0  0  2  0  0  0  0  0  0
  -30.5570  -15.2750   19.7950 C   0  0  0  0  0  0  0  0  0  0  0  0
  -30.4490  -12.8900   18.9020 C   0  0  0  0  0  2  0  0  0  0  0  0
  -29.4510  -12.7950   17.7240 C   0  0  0  0  0  2  0  0  0  0  0  0
  -28.0220  -12.5500   18.2410 C   0  0  0  0  0  2  0  0  0  0  0  0
  -27.6570  -13.4790   19.4270 C   0  0  0  0  0  3  0  0  0  0  0  0
  -28.7730  -13.5440   20.4950 C   0  0  0  0  0  2  0  0  0  0  0  0
  -29.9960  -13.9890   19.8120 N   0  0  0  0  0  0  0  0  0  0  0  0
  -31.7180  -15.3520   19.3840 O   0  0  0  0  0  0  0  0  0  0  0  0
  -29.7780  -16.4540   20.0510 N   0  0  0  0  0  0  0  0  0  0  0  0
  -28.8790  -16.2160   20.4380 H   0  0  0  0  0  0  0  0  0  0  0  0
  -25.3160  -14.0100   20.3120 C   0  0  0  0  0  0  0  0  0  0  0  0
  -24.2870  -13.2160   20.7350 C   0  0  0  0  0  0  0  0  0  0  0  0
  -24.7670  -11.8710   20.6610 C   0  0  0  0  0  0  0  0  0  0  0  0
  -26.3560  -13.1500   20.0020 N   0  0  0  0  0  0  0  0  0  0  0  0
  -26.0380  -11.8580   20.2750 N   0  0  0  0  0  0  0  0  0  0  0  0
  -24.0690  -10.5970   20.8770 C   0  0  0  0  0  0  0  0  0  0  0  0
  -24.4830   -9.6870   21.8750 C   0  0  0  0  0  3  0  0  0  0  0  0
  -23.7820   -8.4790   22.0780 C   0  0  0  0  0  3  0  0  0  0  0  0
  -22.6520   -8.1710   21.2830 C   0  0  0  0  0  0  0  0  0  0  0  0
  -22.2570   -9.0700   20.2760 C   0  0  0  0  0  3  0  0  0  0  0  0
  -22.9600  -10.2700   20.0720 C   0  0  0  0  0  3  0  0  0  0  0  0
  -21.9260   -7.0090   21.3920 O   0  0  0  0  0  0  0  0  0  0  0  0
  -21.7430   -6.3860   22.6000 C   0  0  0  0  0  0  0  0  0  0  0  0
  -21.1080   -7.0310   23.6850 C   0  0  0  0  0  3  0  0  0  0  0  0
  -20.8780   -6.3290   24.8850 C   0  0  0  0  0  3  0  0  0  0  0  0
  -21.2730   -4.9830   25.0010 C   0  0  0  0  0  0  0  0  0  0  0  0
  -21.8990   -4.3370   23.9190 C   0  0  0  0  0  3  0  0  0  0  0  0
  -22.1300   -5.0350   22.7220 C   0  0  0  0  0  0  0  0  0  0  0  0
  -22.7140   -4.4020   21.6770 F   0  0  0  0  0  0  0  0  0  0  0  0
  -21.0470   -4.3060   26.1510 F   0  0  0  0  0  0  0  0  0  0  0  0
  -22.9020  -13.6690   21.0940 C   0  0  0  0  0  0  0  0  0  0  0  0
  -22.2320  -12.9530   21.9900 N   0  0  0  0  0  0  0  0  0  0  0  0
  -22.4220  -14.6960   20.6120 O   0  0  0  0  0  0  0  0  0  0  0  0
  -22.6330  -12.1230   22.4000 H   0  0  0  0  0  0  0  0  0  0  0  0
  -21.3060  -13.2410   22.2710 H   0  0  0  0  0  0  0  0  0  0  0  0
  -25.4470  -15.3860   20.1390 N   0  0  0  0  0  0  0  0  0  0  0  0
  -24.6780  -16.0240   20.3100 H   0  0  0  0  0  0  0  0  0  0  0  0
  -26.2540  -15.8380   19.7290 H   0  0  0  0  0  0  0  0  0  0  0  0
  1  2  1  0
  3  1  2  0
  4  3  1  0
  4  5  2  0
  5  6  1  0
  6  2  2  0
  6  8  1  0
  7  5  1  0
  8  9  1  0
 10  8  1  0
 11 14  1  0
 11  3  1  0
 12 11  2  0
 14 13  2  0
 15 16  1  0
 15 14  1  0
 16 18  1  0
 17 28  2  0
 18 23  1  0
 19 27  1  0
 19 29  1  0
 20 26  1  0
 20 22  1  0
 21 27  1  0
 22 21  1  0
 23 22  2  0
 24 25  1  0
 24 18  2  0
 25 20  2  0
 26 19  1  0
 27 17  1  0
 29 31  2  0
 30 29  1  0
 32 30  1  0
 33 42  2  0
 33 38  1  0
 34 30  1  0
 34 38  1  0
 35 34  1  0
 36 37  1  0
 36 35  1  0
 37 33  1  0
 38 39  2  0
 39 40  1  0
 41 40  2  0
 42 41  1  0
 43 17  1  0
 43 44  1  0
 43 53  1  0
 44 47  1  0
 45 49  1  0
 45 44  1  0
 46 45  2  0
 49 48  1  0
 51 49  1  0
 51 52  1  0
 51 50  1  0
 53 56  1  1
 53 54  1  0
 55 53  1  0
 57 66  1  0
 57  4  1  0
 58 64  1  0
 58 66  1  0
 59 64  1  0
 60 61  1  0
 60 59  1  0
 62 61  1  0
 62 71  1  0
 62 63  1  0
 64 63  1  0
 65 58  2  0
 66 67  1  0
 68 69  2  0
 69 88  1  0
 70 69  1  0
 70 73  1  0
 71 72  1  0
 71 68  1  0
 72 70  2  0
 73 74  1  0
 74 75  2  0
 76 79  1  0
 76 75  1  0
 77 76  2  0
 78 77  1  0
 78 73  2  0
 79 80  1  0
 80 85  2  0
 80 81  1  0
 81 82  2  0
 82 83  1  0
 83 87  1  0
 84 83  2  0
 85 84  1  0
 86 85  1  0
 88 89  1  0
 89 92  1  0
 89 91  1  0
 90 88  2  0
 93 94  1  0
 93 68  1  0
 95 93  1  0
M  ISO  4  15 101  16 101  58 100  66 100
M  END
>  <TORSDO>  (92) 
F 21

>  <SCORE>  (92) 
-12.331

>  <name>  (92) 
91

>  <ligand_id>  (92) 
91

>  <original_smiles>  (92) 
[H]C([H])=C(C(=O)c1c([H])c([H])c(N([H])[H])c(C([H])([H])[H])c1C([H])([H])N([H])C(=O)N1C([H])([H])C([H])([H])C([H])([H])C([H])(n2nc(-c3c([H])c([H])c(Oc4c([H])c([H])c(F)c([H])c4F)c([H])c3[H])c(C(=O)N([H])[H])c2N([H])[H])C1([H])[H])C([H])([H])Oc1c([H])c([H])c2c(c1[H])C([H])([H])N(C(=O)C([H])(N([H])C(=O)C([H])(N([H])C([H])([H])[H])C([H])([H])[H])C(C([H])([H])[H])(C([H])([H])[H])C([H])([H])[H])C([H])(C(=O)N([H])C1([H])c3c([H])c([H])c([H])c([H])c3C([H])([H])C([H])([H])C1([H])[H])C2([H])[H]

>  <smiles>  (92) 
[H]C([H])=C(C(=O)c1c([H])c([H])c(N([H])[H])c(C([H])([H])[H])c1C([H])([H])N([H])C(=O)N1C([H])([H])C([H])([H])C([H])([H])C([H])(n2nc(-c3c([H])c([H])c(Oc4c([H])c([H])c(F)c([H])c4F)c([H])c3[H])c(C(=O)N([H])[H])c2N([H])[H])C1([H])[H])C([H])([H])Oc1c([H])c([H])c2c(c1[H])C([H])([H])N(C(=O)C([H])(N([H])C(=O)C([H])(N([H])C([H])([H])[H])C([H])([H])[H])C(C([H])([H])[H])(C([H])([H])[H])C([H])([H])[H])C([H])(C(=O)N([H])C1([H])c3c([H])c([H])c([H])c([H])c3C([H])([H])C([H])([H])C1([H])[H])C2([H])[H]

$$$$
92:0:0
     RDKit          3D

 96105  0  0  1  0  0  0  0  0999 V2000
  -28.8260  -19.2830   20.8710 C   0  0  0  0  0  3  0  0  0  0  0  0
  -30.7860  -18.1160   19.3120 C   0  0  0  0  0  2  0  0  0  0  0  0
  -28.9820  -17.8670   20.8640 C   0  0  0  0  0  0  0  0  0  0  0  0
  -29.9870  -17.2250   20.0890 C   0  0  0  0  0  0  0  0  0  0  0  0
  -29.6500  -20.1480   20.0980 C   0  0  0  0  0  0  0  0  0  0  0  0
  -28.9960  -23.9930   19.8060 C   0  0  0  0  0  0  0  0  0  0  0  0
  -28.7520  -25.2230   19.2120 C   0  0  0  0  0  3  0  0  0  0  0  0
  -29.0960  -23.7320   21.2910 C   0  0  0  0  0  2  0  0  0  0  0  0
  -29.1290  -22.1910   21.4500 C   0  0  0  0  0  2  0  0  0  0  0  0
  -29.2230  -22.5920   19.1340 C   0  0  0  0  0  3  0  0  0  0  0  0
  -30.2260  -22.6560   17.9710 C   0  0  0  0  0  1  0  0  0  0  0  0
  -30.5890  -19.4880   19.3450 N   0  0  0  0  0  0  0  0  0  0  0  0
  -29.5980  -21.6010   20.1920 N   0  0  0  0  0  0  0  0  0  0  0  0
  -31.2270  -20.0630   18.7860 H   0  0  0  0  0  0  0  0  0  0  0  0
  -30.8140  -14.7650   19.5740 C   0  0  0  0  0  0  0  0  0  0  0  0
  -30.5440  -12.5340   18.4830 C   0  0  0  0  0  2  0  0  0  0  0  0
  -29.4420  -12.6580   17.4040 C   0  0  0  0  0  2  0  0  0  0  0  0
  -28.0310  -12.4890   18.0090 C   0  0  0  0  0  2  0  0  0  0  0  0
  -27.8330  -13.3140   19.3060 C   0  0  0  0  0  3  0  0  0  0  0  0
  -29.0250  -13.1140   20.2670 C   0  0  0  0  0  2  0  0  0  0  0  0
  -30.2450  -13.5140   19.5460 N   0  0  0  0  0  0  0  0  0  0  0  0
  -31.9020  -14.9870   19.0320 O   0  0  0  0  0  0  0  0  0  0  0  0
  -30.0250  -15.7520   20.1140 N   0  0  0  0  0  0  0  0  0  0  0  0
  -29.2290  -15.3690   20.6000 H   0  0  0  0  0  0  0  0  0  0  0  0
  -25.5780  -13.9020   20.3940 C   0  0  0  0  0  0  0  0  0  0  0  0
  -24.5500  -13.1210   20.8490 C   0  0  0  0  0  0  0  0  0  0  0  0
  -24.9670  -11.7680   20.6560 C   0  0  0  0  0  0  0  0  0  0  0  0
  -26.5550  -13.0230   19.9510 N   0  0  0  0  0  0  0  0  0  0  0  0
  -26.2010  -11.7310   20.1700 N   0  0  0  0  0  0  0  0  0  0  0  0
  -24.2400  -10.5080   20.8530 C   0  0  0  0  0  0  0  0  0  0  0  0
  -24.6900   -9.5300   21.7710 C   0  0  0  0  0  3  0  0  0  0  0  0
  -23.9640   -8.3350   21.9570 C   0  0  0  0  0  3  0  0  0  0  0  0
  -22.7740   -8.1060   21.2240 C   0  0  0  0  0  0  0  0  0  0  0  0
  -22.3430   -9.0710   20.2980 C   0  0  0  0  0  3  0  0  0  0  0  0
  -23.0700  -10.2590   20.1100 C   0  0  0  0  0  3  0  0  0  0  0  0
  -22.0180   -6.9620   21.3200 O   0  0  0  0  0  0  0  0  0  0  0  0
  -21.8490   -6.3090   22.5150 C   0  0  0  0  0  0  0  0  0  0  0  0
  -21.2650   -6.9440   23.6340 C   0  0  0  0  0  3  0  0  0  0  0  0
  -21.0450   -6.2150   24.8200 C   0  0  0  0  0  3  0  0  0  0  0  0
  -21.3980   -4.8530   24.8870 C   0  0  0  0  0  0  0  0  0  0  0  0
  -21.9740   -4.2200   23.7720 C   0  0  0  0  0  3  0  0  0  0  0  0
  -22.1960   -4.9450   22.5890 C   0  0  0  0  0  0  0  0  0  0  0  0
  -22.7310   -4.3240   21.5090 F   0  0  0  0  0  0  0  0  0  0  0  0
  -21.1790   -4.1520   26.0240 F   0  0  0  0  0  0  0  0  0  0  0  0
  -23.2160  -13.6000   21.3480 C   0  0  0  0  0  0  0  0  0  0  0  0
  -22.6040  -12.8590   22.2660 N   0  0  0  0  0  0  0  0  0  0  0  0
  -22.7320  -14.6610   20.9600 O   0  0  0  0  0  0  0  0  0  0  0  0
  -23.0100  -11.9980   22.5980 H   0  0  0  0  0  0  0  0  0  0  0  0
  -21.7130  -13.1570   22.6370 H   0  0  0  0  0  0  0  0  0  0  0  0
  -25.7580  -15.2780   20.3020 N   0  0  0  0  0  0  0  0  0  0  0  0
  -25.0630  -15.9370   20.6310 H   0  0  0  0  0  0  0  0  0  0  0  0
  -26.6070  -15.7300   19.9890 H   0  0  0  0  0  0  0  0  0  0  0  0
  -28.1240  -17.0760   21.6380 N   0  0  0  0  0  0  0  0  0  0  0  0
  -27.5370  -17.5810   22.2900 H   0  0  0  0  0  0  0  0  0  0  0  0
  -28.5490  -16.2760   22.0880 H   0  0  0  0  0  0  0  0  0  0  0  0
  -28.6780  -26.5010   19.8220 O   0  0  0  0  0  0  0  0  0  0  0  0
  -24.7700  -31.6110   23.1100 C   0  0  0  0  0  0  0  0  0  0  0  0
  -27.5320  -27.3220   19.7750 C   0  0  0  0  0  0  0  0  0  0  0  0
  -23.6080  -30.2640   21.3950 C   0  0  0  0  0  3  0  0  0  0  0  0
  -25.1060  -28.8500   19.8700 C   0  0  0  0  0  0  0  0  0  0  0  0
  -26.1320  -30.6830   21.2200 C   0  0  0  0  0  2  0  0  0  0  0  0
  -26.2580  -29.3480   20.4910 C   0  0  0  0  0  0  0  0  0  0  0  0
  -27.4680  -28.5910   20.4330 C   0  0  0  0  0  3  0  0  0  0  0  0
  -26.3520  -26.8810   19.1350 C   0  0  0  0  0  3  0  0  0  0  0  0
  -25.1550  -27.6260   19.1830 C   0  0  0  0  0  3  0  0  0  0  0  0
  -23.8380  -29.6740   19.9780 C   0  0  0  0  0  2  0  0  0  0  0  0
  -24.8560  -30.8690   21.9660 N   0  0  0  0  0  0  0  0  0  0  0  0
  -23.6790  -31.8160   23.6650 O   0  0  0  0  0  0  0  0  0  0  0  0
  -22.9860  -29.1730   22.2990 C   0  0  0  0  0  0  0  0  0  0  0  0
  -21.6710  -28.9360   22.1460 N   0  0  0  0  0  0  0  0  0  0  0  0
  -23.6840  -28.5420   23.0950 O   0  0  0  0  0  0  0  0  0  0  0  0
  -21.1640  -29.5000   21.4790 H   0  0  0  0  0  0  0  0  0  0  0  0
  -18.3530  -27.5490   22.5390 C   0  0  0  0  0  0  0  0  0  0  0  0
  -20.8930  -27.9240   22.8590 C   0  0  0  0  0  3  0  0  0  0  0  0
  -21.0710  -26.5290   22.2170 C   0  0  0  0  0  2  0  0  0  0  0  0
  -20.0000  -26.2010   21.1710 C   0  0  0  0  0  2  0  0  0  0  0  0
  -18.6060  -26.2450   21.8020 C   0  0  0  0  0  2  0  0  0  0  0  0
  -19.4260  -28.3470   23.0200 C   0  0  0  0  0  0  0  0  0  0  0  0
  -19.1330  -29.5670   23.6670 C   0  0  0  0  0  3  0  0  0  0  0  0
  -17.8010  -29.9900   23.8360 C   0  0  0  0  0  3  0  0  0  0  0  0
  -16.7440  -29.1900   23.3680 C   0  0  0  0  0  3  0  0  0  0  0  0
  -17.0210  -27.9710   22.7260 C   0  0  0  0  0  3  0  0  0  0  0  0
  -26.0310  -32.2500   23.7650 C   0  0  0  0  0  3  0  0  0  0  0  0
  -25.6930  -33.6350   24.1280 N   0  0  0  0  0  0  0  0  0  0  0  0
  -25.9650  -34.7080   23.3730 C   0  0  0  0  0  0  0  0  0  0  0  0
  -26.5970  -34.6380   22.3140 O   0  0  0  0  0  0  0  0  0  0  0  0
  -25.1250  -33.7580   24.9540 H   0  0  0  0  0  0  0  0  0  0  0  0
  -24.1550  -36.4350   23.1330 C   0  0  0  0  0  1  0  0  0  0  0  0
  -25.4560  -36.0750   23.8690 C   0  0  0  0  0  3  0  0  0  0  0  0
  -27.5960  -37.0340   24.5950 C   0  0  0  0  0  1  0  0  0  0  0  0
  -26.4430  -37.1670   23.7080 N   0  0  0  0  0  0  0  0  0  0  0  0
  -26.0120  -38.0690   23.8830 H   0  0  0  0  0  0  0  0  0  0  0  0
  -26.5450  -31.4580   25.0310 C   0  0  1  0  0  0  0  0  0  0  0  0
  -25.4420  -31.1690   26.0770 C   0  0  0  0  0  1  0  0  0  0  0  0
  -27.1600  -30.1030   24.6120 C   0  0  0  0  0  1  0  0  0  0  0  0
  -27.6690  -32.2570   25.7290 C   0  0  0  0  0  1  0  0  0  0  0  0
  2 12  1  0
  2  4  1  0
  3  1  1  0
  3 53  1  0
  4 23  1  0
  4  3  2  0
  5 13  1  0
  5  1  2  0
  6  8  1  0
  7  6  2  0
  7 56  1  0
  8  9  1  0
 10 11  1  0
 10  6  1  0
 10 13  1  0
 12  5  1  0
 13  9  1  0
 14 12  1  0
 15 23  1  0
 16 21  1  0
 17 18  1  0
 17 16  1  0
 19 18  1  0
 19 28  1  0
 19 20  1  0
 21 15  1  0
 21 20  1  0
 22 15  2  0
 23 24  1  0
 25 26  2  0
 26 45  1  0
 27 26  1  0
 27 30  1  0
 28 29  1  0
 28 25  1  0
 29 27  2  0
 30 31  1  0
 31 32  2  0
 33 36  1  0
 33 32  1  0
 34 33  2  0
 35 34  1  0
 35 30  2  0
 36 37  1  0
 37 42  2  0
 37 38  1  0
 38 39  2  0
 39 40  1  0
 40 44  1  0
 41 40  2  0
 42 41  1  0
 43 42  1  0
 45 46  1  0
 46 48  1  0
 46 49  1  0
 47 45  2  0
 50 25  1  0
 50 51  1  0
 52 50  1  0
 53 55  1  0
 53 54  1  0
 57 68  2  0
 58 56  1  0
 58 63  1  0
 59 67  1  0
 59 69  1  0
 60 66  1  0
 60 62  1  0
 61 67  1  0
 62 61  1  0
 63 62  2  0
 64 65  1  0
 64 58  2  0
 65 60  2  0
 66 59  1  0
 67 57  1  0
 69 71  2  0
 70 69  1  0
 72 70  1  0
 73 82  2  0
 73 78  1  0
 74 70  1  0
 74 78  1  0
 75 74  1  0
 76 77  1  0
 76 75  1  0
 77 73  1  0
 78 79  2  0
 79 80  1  0
 81 80  2  0
 82 81  1  0
 83 57  1  0
 83 84  1  0
 83 93  1  0
 84 87  1  0
 85 89  1  0
 85 84  1  0
 86 85  2  0
 89 88  1  0
 91 89  1  0
 91 92  1  0
 91 90  1  0
 93 96  1  1
 93 94  1  0
 95 93  1  0
M  ISO  4   7 101  15 100  23 100  56 101
M  END
>  <TORSDO>  (93) 
F 17

>  <SCORE>  (93) 
-12.155

>  <name>  (93) 
92

>  <ligand_id>  (93) 
92

>  <original_smiles>  (93) 
[H]C(Oc1c([H])c([H])c2c(c1[H])C([H])([H])N(C(=O)C([H])(N([H])C(=O)C([H])(N([H])C([H])([H])[H])C([H])([H])[H])C(C([H])([H])[H])(C([H])([H])[H])C([H])([H])[H])C([H])(C(=O)N([H])C1([H])c3c([H])c([H])c([H])c([H])c3C([H])([H])C([H])([H])C1([H])[H])C2([H])[H])=C1C([H])([H])C([H])([H])N(c2c([H])c(N([H])[H])c(N([H])C(=O)N3C([H])([H])C([H])([H])C([H])([H])C([H])(n4nc(-c5c([H])c([H])c(Oc6c([H])c([H])c(F)c([H])c6F)c([H])c5[H])c(C(=O)N([H])[H])c4N([H])[H])C3([H])[H])c([H])[n+]2[H])C1([H])C([H])([H])[H]

>  <smiles>  (93) 
[H]C(Oc1c([H])c([H])c2c(c1[H])C([H])([H])N(C(=O)C([H])(N([H])C(=O)C([H])(N([H])C([H])([H])[H])C([H])([H])[H])C(C([H])([H])[H])(C([H])([H])[H])C([H])([H])[H])C([H])(C(=O)N([H])C1([H])c3c([H])c([H])c([H])c([H])c3C([H])([H])C([H])([H])C1([H])[H])C2([H])[H])=C1C([H])([H])C([H])([H])N(c2c([H])c(N([H])[H])c(N([H])C(=O)N3C([H])([H])C([H])([H])C([H])([H])C([H])(n4nc(-c5c([H])c([H])c(Oc6c([H])c([H])c(F)c([H])c6F)c([H])c5[H])c(C(=O)N([H])[H])c4N([H])[H])C3([H])[H])c([H])[n+]2[H])C1([H])C([H])([H])[H]

$$$$
93:0:0
     RDKit          3D

 95104  0  0  1  0  0  0  0  0999 V2000
  -30.2060  -18.5260   20.1200 C   0  0  0  0  0  3  0  0  0  0  0  0
  -27.9480  -18.3160   18.5620 C   0  0  0  0  0  3  0  0  0  0  0  0
  -29.6870  -17.1670   19.8870 C   0  0  0  0  0  0  0  0  0  0  0  0
  -28.4230  -17.1710   19.2220 C   0  0  0  0  0  0  0  0  0  0  0  0
  -29.6120  -19.7720   19.6000 C   0  0  0  0  0  0  0  0  0  0  0  0
  -28.5570  -19.5790   18.6630 C   0  0  0  0  0  0  0  0  0  0  0  0
  -30.1620  -15.7990   20.5330 C   0  0  0  0  0  0  0  0  0  0  0  0
  -30.2150  -15.7610   21.8000 N   0  0  0  0  0  0  0  0  0  0  0  0
  -29.9200  -16.6430   22.1940 H   0  0  0  0  0  0  0  0  0  0  0  0
  -30.6290  -14.4640   19.7800 C   0  0  0  0  0  0  0  0  0  0  0  0
  -30.5010  -12.0170   19.2190 C   0  0  0  0  0  2  0  0  0  0  0  0
  -29.5200  -11.7800   18.0480 C   0  0  0  0  0  2  0  0  0  0  0  0
  -28.0710  -11.6370   18.5540 C   0  0  0  0  0  2  0  0  0  0  0  0
  -27.6980  -12.7340   19.5890 C   0  0  0  0  0  3  0  0  0  0  0  0
  -28.8010  -12.8510   20.6670 C   0  0  0  0  0  2  0  0  0  0  0  0
  -30.0530  -13.2130   19.9830 N   0  0  0  0  0  0  0  0  0  0  0  0
  -31.6600  -14.5380   19.1020 O   0  0  0  0  0  0  0  0  0  0  0  0
  -25.3770  -13.4160   20.4520 C   0  0  0  0  0  0  0  0  0  0  0  0
  -24.3120  -12.6840   20.9100 C   0  0  0  0  0  0  0  0  0  0  0  0
  -24.7180  -11.3180   20.8440 C   0  0  0  0  0  0  0  0  0  0  0  0
  -26.3740  -12.4980   20.1630 N   0  0  0  0  0  0  0  0  0  0  0  0
  -25.9830  -11.2290   20.4460 N   0  0  0  0  0  0  0  0  0  0  0  0
  -23.9540  -10.0840   21.0790 C   0  0  0  0  0  0  0  0  0  0  0  0
  -24.4170   -9.0850   21.9640 C   0  0  0  0  0  3  0  0  0  0  0  0
  -23.6520   -7.9200   22.1900 C   0  0  0  0  0  3  0  0  0  0  0  0
  -22.4120   -7.7450   21.5330 C   0  0  0  0  0  0  0  0  0  0  0  0
  -21.9680   -8.7310   20.6340 C   0  0  0  0  0  3  0  0  0  0  0  0
  -22.7310   -9.8870   20.4050 C   0  0  0  0  0  3  0  0  0  0  0  0
  -21.6180   -6.6330   21.6700 O   0  0  0  0  0  0  0  0  0  0  0  0
  -21.6320   -5.8730   22.8130 C   0  0  0  0  0  0  0  0  0  0  0  0
  -21.3200   -6.4240   24.0750 C   0  0  0  0  0  3  0  0  0  0  0  0
  -21.2810   -5.5950   25.2140 C   0  0  0  0  0  3  0  0  0  0  0  0
  -21.5400   -4.2170   25.0930 C   0  0  0  0  0  0  0  0  0  0  0  0
  -21.8460   -3.6650   23.8360 C   0  0  0  0  0  3  0  0  0  0  0  0
  -21.8890   -4.4920   22.6990 C   0  0  0  0  0  0  0  0  0  0  0  0
  -22.1620   -3.9540   21.4860 F   0  0  0  0  0  0  0  0  0  0  0  0
  -21.4960   -3.4170   26.1840 F   0  0  0  0  0  0  0  0  0  0  0  0
  -22.9620  -13.2190   21.2880 C   0  0  0  0  0  0  0  0  0  0  0  0
  -22.2830  -12.5580   22.2220 N   0  0  0  0  0  0  0  0  0  0  0  0
  -22.5220  -14.2560   20.7960 O   0  0  0  0  0  0  0  0  0  0  0  0
  -22.6540  -11.7190   22.6410 H   0  0  0  0  0  0  0  0  0  0  0  0
  -21.3820  -12.9010   22.5260 H   0  0  0  0  0  0  0  0  0  0  0  0
  -25.5680  -14.7730   20.2340 N   0  0  0  0  0  4  0  0  0  0  0  0
  -24.8290  -15.4530   20.3850 H   0  0  0  0  0  0  0  0  0  0  0  0
  -26.4020  -15.1810   19.8310 H   0  0  0  0  0  0  0  0  0  0  0  0
  -29.3020  -22.2450   20.0100 C   0  0  0  0  0  3  0  0  0  0  0  0
  -30.0580  -21.1420   19.9440 N   0  0  0  0  0  0  0  0  0  0  0  0
  -29.5920  -23.8050   20.2790 C   0  0  0  0  0  0  0  0  0  0  0  0
  -30.7190  -24.1830   20.6260 O   0  0  0  0  0  0  0  0  0  0  0  0
  -28.4480  -24.9080   20.0230 C   0  0  0  0  0  2  0  0  0  0  0  0
  -28.6780  -26.3750   20.3200 O   0  0  0  0  0  0  0  0  0  0  0  0
  -24.6810  -31.7210   23.2680 C   0  0  0  0  0  0  0  0  0  0  0  0
  -27.5550  -27.2470   20.2480 C   0  0  0  0  0  0  0  0  0  0  0  0
  -23.5970  -30.3450   21.5260 C   0  0  0  0  0  3  0  0  0  0  0  0
  -25.1570  -28.8510   20.1490 C   0  0  0  0  0  0  0  0  0  0  0  0
  -26.1410  -30.6990   21.5000 C   0  0  0  0  0  2  0  0  0  0  0  0
  -26.2850  -29.3370   20.8210 C   0  0  0  0  0  0  0  0  0  0  0  0
  -27.4870  -28.5510   20.8550 C   0  0  0  0  0  3  0  0  0  0  0  0
  -26.3930  -26.8340   19.5520 C   0  0  0  0  0  3  0  0  0  0  0  0
  -25.2170  -27.6060   19.5060 C   0  0  0  0  0  3  0  0  0  0  0  0
  -23.9050  -29.7060   20.1450 C   0  0  0  0  0  2  0  0  0  0  0  0
  -24.8210  -30.9420   22.1550 N   0  0  0  0  0  0  0  0  0  0  0  0
  -23.5640  -31.9640   23.7490 O   0  0  0  0  0  0  0  0  0  0  0  0
  -22.8970  -29.2970   22.4250 C   0  0  0  0  0  0  0  0  0  0  0  0
  -21.5750  -29.1350   22.2510 N   0  0  0  0  0  0  0  0  0  0  0  0
  -23.5460  -28.6380   23.2420 O   0  0  0  0  0  0  0  0  0  0  0  0
  -21.1110  -29.7180   21.5700 H   0  0  0  0  0  0  0  0  0  0  0  0
  -18.1720  -27.9730   22.6830 C   0  0  0  0  0  0  0  0  0  0  0  0
  -20.7360  -28.1700   22.9620 C   0  0  0  0  0  3  0  0  0  0  0  0
  -20.8120  -26.7690   22.3130 C   0  0  0  0  0  2  0  0  0  0  0  0
  -19.7030  -26.5130   21.2850 C   0  0  0  0  0  2  0  0  0  0  0  0
  -18.3240  -26.6570   21.9380 C   0  0  0  0  0  2  0  0  0  0  0  0
  -19.3060  -28.6890   23.1520 C   0  0  0  0  0  0  0  0  0  0  0  0
  -19.1130  -29.9200   23.8170 C   0  0  0  0  0  3  0  0  0  0  0  0
  -17.8190  -30.4370   24.0180 C   0  0  0  0  0  3  0  0  0  0  0  0
  -16.6980  -29.7200   23.5610 C   0  0  0  0  0  3  0  0  0  0  0  0
  -16.8770  -28.4890   22.9020 C   0  0  0  0  0  3  0  0  0  0  0  0
  -25.9120  -32.3620   23.9780 C   0  0  0  0  0  3  0  0  0  0  0  0
  -25.5690  -33.7570   24.2910 N   0  0  0  0  0  0  0  0  0  0  0  0
  -25.9210  -34.8170   23.5520 C   0  0  0  0  0  0  0  0  0  0  0  0
  -26.6420  -34.7250   22.5540 O   0  0  0  0  0  0  0  0  0  0  0  0
  -24.9330  -33.9020   25.0620 H   0  0  0  0  0  0  0  0  0  0  0  0
  -24.1800  -36.5870   23.1320 C   0  0  0  0  0  1  0  0  0  0  0  0
  -25.3960  -36.1980   23.9890 C   0  0  0  0  0  3  0  0  0  0  0  0
  -27.4820  -37.1210   24.9030 C   0  0  0  0  0  1  0  0  0  0  0  0
  -26.4160  -37.2660   23.9130 N   0  0  0  0  0  0  0  0  0  0  0  0
  -25.9890  -38.1800   24.0390 H   0  0  0  0  0  0  0  0  0  0  0  0
  -26.3510  -31.5930   25.2850 C   0  0  1  0  0  0  0  0  0  0  0  0
  -25.1940  -31.3440   26.2790 C   0  0  0  0  0  1  0  0  0  0  0  0
  -26.9700  -30.2190   24.9360 C   0  0  0  0  0  1  0  0  0  0  0  0
  -27.4470  -32.3980   26.0240 C   0  0  0  0  0  1  0  0  0  0  0  0
  -26.3060  -16.3070   20.3210 C   0  0  0  0  0  2  0  0  0  0  0  0
  -27.4060  -16.0330   19.2880 C   0  0  0  0  0  2  0  0  0  0  0  0
  -27.5480  -20.3590   16.6160 C   0  0  0  0  0  1  0  0  0  0  0  0
  -28.1000  -20.6330   17.9000 O   0  0  0  0  0  0  0  0  0  0  0  0
  2  6  2  0
  2  4  1  0
  3  1  1  0
  3  7  1  0
  4 93  1  0
  4  3  2  0
  5 47  1  0
  5  1  2  0
  6  5  1  0
  7  8  2  0
  8  9  1  0
 10 16  1  0
 10  7  1  0
 11 16  1  0
 12 13  1  0
 12 11  1  0
 14 13  1  0
 14 21  1  0
 14 15  1  0
 16 15  1  0
 17 10  2  0
 18 19  2  0
 19 38  1  0
 20 19  1  0
 20 23  1  0
 21 22  1  0
 21 18  1  0
 22 20  2  0
 23 24  1  0
 24 25  2  0
 26 29  1  0
 26 25  1  0
 27 26  2  0
 28 27  1  0
 28 23  2  0
 29 30  1  0
 30 31  1  0
 31 32  2  0
 33 32  1  0
 33 37  1  0
 34 33  2  0
 35 30  2  0
 35 34  1  0
 36 35  1  0
 38 39  1  0
 39 42  1  0
 39 41  1  0
 40 38  2  0
 43 92  1  0
 43 44  1  0
 43 18  1  0
 45 43  1  0
 46 48  1  0
 47 46  2  0
 48 49  2  0
 50 48  1  0
 50 51  1  0
 52 63  2  0
 53 51  1  0
 53 58  1  0
 54 62  1  0
 54 64  1  0
 55 57  1  0
 56 62  1  0
 57 58  2  0
 57 56  1  0
 59 53  2  0
 60 59  1  0
 60 55  2  0
 61 55  1  0
 61 54  1  0
 62 52  1  0
 64 66  2  0
 65 64  1  0
 67 65  1  0
 68 77  2  0
 68 73  1  0
 69 65  1  0
 69 73  1  0
 70 69  1  0
 71 72  1  0
 71 70  1  0
 72 68  1  0
 73 74  2  0
 74 75  1  0
 76 75  2  0
 77 76  1  0
 78 52  1  0
 78 79  1  0
 78 88  1  0
 79 82  1  0
 80 84  1  0
 80 79  1  0
 81 80  2  0
 84 83  1  0
 86 84  1  0
 86 87  1  0
 86 85  1  0
 88 91  1  1
 88 89  1  0
 90 88  1  0
 93 92  1  0
 94 95  1  0
 95  6  1  0
M  ISO  4   7 100  10 100  50 101  51 101
M  END
>  <TORSDO>  (94) 
F 22

>  <SCORE>  (94) 
-12.786

>  <name>  (94) 
93

>  <ligand_id>  (94) 
93

>  <original_smiles>  (94) 
[H]N=C(C(=O)N1C([H])([H])C([H])([H])C([H])([H])C([H])(n2nc(-c3c([H])c([H])c(Oc4c([H])c([H])c(F)c([H])c4F)c([H])c3[H])c(C(=O)N([H])[H])c2N([H])[H])C1([H])[H])c1c([H])c(N=C([H])C(=O)C([H])([H])Oc2c([H])c([H])c3c(c2[H])C([H])([H])N(C(=O)C([H])(N([H])C(=O)C([H])(N([H])C([H])([H])[H])C([H])([H])[H])C(C([H])([H])[H])(C([H])([H])[H])C([H])([H])[H])C([H])(C(=O)N([H])C2([H])c4c([H])c([H])c([H])c([H])c4C([H])([H])C([H])([H])C2([H])[H])C3([H])[H])c(OC([H])([H])[H])c([H])c1C([H])([H])C([H])([H])[H]

>  <smiles>  (94) 
[H]N=C(C(=O)N1C([H])([H])C([H])([H])C([H])([H])C([H])(n2nc(-c3c([H])c([H])c(Oc4c([H])c([H])c(F)c([H])c4F)c([H])c3[H])c(C(=O)N([H])[H])c2N([H])[H])C1([H])[H])c1c([H])c(N=C([H])C(=O)C([H])([H])Oc2c([H])c([H])c3c(c2[H])C([H])([H])N(C(=O)C([H])(N([H])C(=O)C([H])(N([H])C([H])([H])[H])C([H])([H])[H])C(C([H])([H])[H])(C([H])([H])[H])C([H])([H])[H])C([H])(C(=O)N([H])C2([H])c4c([H])c([H])c([H])c([H])c4C([H])([H])C([H])([H])C2([H])[H])C3([H])[H])c(OC([H])([H])[H])c([H])c1C([H])([H])C([H])([H])[H]

$$$$
94:0:0
     RDKit          3D

 95104  0  0  1  0  0  0  0  0999 V2000
  -28.6780  -22.4490   21.9250 C   0  0  0  0  0  0  0  0  0  0  0  0
  -29.3920  -23.8030   21.8400 C   0  0  0  0  0  2  0  0  0  0  0  0
  -27.9610  -21.9740   20.6510 C   0  0  0  0  0  2  0  0  0  0  0  0
  -30.1090  -23.9920   20.4810 C   0  0  0  0  0  2  0  0  0  0  0  0
  -29.2110  -23.6370   19.2770 C   0  0  0  0  0  3  0  0  0  0  0  0
  -28.8210  -22.1040   19.4710 N   0  0  0  0  0  0  0  0  0  0  0  0
  -28.6720  -21.7850   22.9610 O   0  0  0  0  0  0  0  0  0  0  0  0
  -29.3600  -19.4040   19.5920 C   0  0  0  0  0  3  0  0  0  0  0  0
  -30.9030  -21.0020   18.6380 C   0  0  0  0  0  3  0  0  0  0  0  0
  -31.4390  -18.5760   18.6910 C   0  0  0  0  0  3  0  0  0  0  0  0
  -29.6430  -20.8490   19.2560 C   0  0  0  0  0  0  0  0  0  0  0  0
  -30.2340  -18.2070   19.3310 C   0  0  0  0  0  0  0  0  0  0  0  0
  -31.7800  -19.9110   18.3640 C   0  0  0  0  0  0  0  0  0  0  0  0
  -30.7930  -15.4890   19.6050 C   0  0  0  0  0  0  0  0  0  0  0  0
  -30.7280  -13.0270   18.9500 C   0  0  0  0  0  2  0  0  0  0  0  0
  -29.7530  -12.7760   17.7760 C   0  0  0  0  0  2  0  0  0  0  0  0
  -28.3260  -12.5430   18.3010 C   0  0  0  0  0  2  0  0  0  0  0  0
  -27.9150  -13.5940   19.3660 C   0  0  0  0  0  3  0  0  0  0  0  0
  -29.0090  -13.8120   20.4330 C   0  0  0  0  0  2  0  0  0  0  0  0
  -30.2320  -14.2100   19.7210 N   0  0  0  0  0  0  0  0  0  0  0  0
  -31.9900  -15.5130   19.2950 O   0  0  0  0  0  0  0  0  0  0  0  0
  -29.9940  -16.6930   19.6450 N   0  0  0  0  0  0  0  0  0  0  0  0
  -29.0400  -16.4850   19.8970 H   0  0  0  0  0  0  0  0  0  0  0  0
  -25.6350  -14.1940   20.3550 C   0  0  0  0  0  0  0  0  0  0  0  0
  -24.5720  -13.4310   20.7510 C   0  0  0  0  0  0  0  0  0  0  0  0
  -24.9710  -12.0710   20.5730 C   0  0  0  0  0  0  0  0  0  0  0  0
  -26.6140  -13.3010   19.9560 N   0  0  0  0  0  0  0  0  0  0  0  0
  -26.2310  -12.0130   20.1550 N   0  0  0  0  0  0  0  0  0  0  0  0
  -24.2060  -10.8260   20.7210 C   0  0  0  0  0  0  0  0  0  0  0  0
  -24.6280   -9.7960   21.5900 C   0  0  0  0  0  3  0  0  0  0  0  0
  -23.8630   -8.6170   21.7300 C   0  0  0  0  0  3  0  0  0  0  0  0
  -22.6610   -8.4610   21.0010 C   0  0  0  0  0  0  0  0  0  0  0  0
  -22.2550   -9.4790   20.1200 C   0  0  0  0  0  3  0  0  0  0  0  0
  -23.0200  -10.6490   19.9790 C   0  0  0  0  0  3  0  0  0  0  0  0
  -21.8670   -7.3410   21.0560 O   0  0  0  0  0  0  0  0  0  0  0  0
  -21.7370   -6.6050   22.2060 C   0  0  0  0  0  0  0  0  0  0  0  0
  -21.2030   -7.1620   23.3890 C   0  0  0  0  0  3  0  0  0  0  0  0
  -21.0230   -6.3520   24.5290 C   0  0  0  0  0  3  0  0  0  0  0  0
  -21.3660   -4.9880   24.4840 C   0  0  0  0  0  0  0  0  0  0  0  0
  -21.8930   -4.4300   23.3050 C   0  0  0  0  0  3  0  0  0  0  0  0
  -22.0740   -5.2380   22.1680 C   0  0  0  0  0  0  0  0  0  0  0  0
  -22.5610   -4.6910   21.0280 F   0  0  0  0  0  0  0  0  0  0  0  0
  -21.1860   -4.2070   25.5760 F   0  0  0  0  0  0  0  0  0  0  0  0
  -23.2230  -13.9380   21.1730 C   0  0  0  0  0  0  0  0  0  0  0  0
  -22.5480  -13.2230   22.0650 N   0  0  0  0  0  0  0  0  0  0  0  0
  -22.7800  -15.0040   20.7440 O   0  0  0  0  0  0  0  0  0  0  0  0
  -22.9200  -12.3610   22.4340 H   0  0  0  0  0  0  0  0  0  0  0  0
  -21.6470  -13.5460   22.3870 H   0  0  0  0  0  0  0  0  0  0  0  0
  -25.8430  -15.5680   20.2690 N   0  0  0  0  0  0  0  0  0  0  0  0
  -25.1080  -16.2330   20.4810 H   0  0  0  0  0  0  0  0  0  0  0  0
  -26.6570  -15.9990   19.8530 H   0  0  0  0  0  0  0  0  0  0  0  0
  -33.5290  -21.3840   17.5970 C   0  0  0  0  0  1  0  0  0  0  0  0
  -33.0140  -20.0690   17.7670 O   0  0  0  0  0  0  0  0  0  0  0  0
  -28.0930  -24.9340   19.1030 C   0  0  0  0  0  2  0  0  0  0  0  0
  -28.2980  -26.4800   19.3540 O   0  0  0  0  0  0  0  0  0  0  0  0
  -24.5760  -31.6520   23.1290 C   0  0  0  0  0  0  0  0  0  0  0  0
  -27.2050  -27.4340   19.4450 C   0  0  0  0  0  0  0  0  0  0  0  0
  -23.3620  -30.4140   21.3770 C   0  0  0  0  0  3  0  0  0  0  0  0
  -24.8080  -29.0860   19.7130 C   0  0  0  0  0  0  0  0  0  0  0  0
  -25.8940  -30.8080   21.1440 C   0  0  0  0  0  2  0  0  0  0  0  0
  -25.9970  -29.5050   20.3250 C   0  0  0  0  0  0  0  0  0  0  0  0
  -27.1920  -28.6980   20.1740 C   0  0  0  0  0  3  0  0  0  0  0  0
  -25.9840  -27.1310   18.8050 C   0  0  0  0  0  3  0  0  0  0  0  0
  -24.8170  -27.9180   18.9360 C   0  0  0  0  0  3  0  0  0  0  0  0
  -23.5490  -29.9170   19.9190 C   0  0  0  0  0  2  0  0  0  0  0  0
  -24.6330  -30.9750   21.9400 N   0  0  0  0  0  0  0  0  0  0  0  0
  -23.5040  -31.8200   23.7300 O   0  0  0  0  0  0  0  0  0  0  0  0
  -22.7660  -29.2700   22.2360 C   0  0  0  0  0  0  0  0  0  0  0  0
  -21.4440  -29.0450   22.1280 N   0  0  0  0  0  0  0  0  0  0  0  0
  -23.4950  -28.5910   22.9650 O   0  0  0  0  0  0  0  0  0  0  0  0
  -20.9090  -29.6500   21.5210 H   0  0  0  0  0  0  0  0  0  0  0  0
  -18.1540  -27.5830   22.5420 C   0  0  0  0  0  0  0  0  0  0  0  0
  -20.6960  -27.9820   22.8070 C   0  0  0  0  0  3  0  0  0  0  0  0
  -20.8770  -26.6250   22.0860 C   0  0  0  0  0  2  0  0  0  0  0  0
  -19.7800  -26.3400   21.0560 C   0  0  0  0  0  2  0  0  0  0  0  0
  -18.4040  -26.3250   21.7270 C   0  0  0  0  0  2  0  0  0  0  0  0
  -19.2290  -28.3690   23.0360 C   0  0  0  0  0  0  0  0  0  0  0  0
  -18.9400  -29.5460   23.7610 C   0  0  0  0  0  3  0  0  0  0  0  0
  -17.6090  -29.9380   23.9960 C   0  0  0  0  0  3  0  0  0  0  0  0
  -16.5490  -29.1500   23.5150 C   0  0  0  0  0  3  0  0  0  0  0  0
  -16.8220  -27.9740   22.7950 C   0  0  0  0  0  3  0  0  0  0  0  0
  -25.8520  -32.2690   23.7790 C   0  0  0  0  0  3  0  0  0  0  0  0
  -26.3610  -31.4560   25.0330 C   0  0  1  0  0  0  0  0  0  0  0  0
  -25.2660  -31.2010   26.0960 C   0  0  0  0  0  1  0  0  0  0  0  0
  -26.9360  -30.0860   24.6070 C   0  0  0  0  0  1  0  0  0  0  0  0
  -27.5160  -32.2230   25.7160 C   0  0  0  0  0  1  0  0  0  0  0  0
  -25.5360  -33.6560   24.1600 N   0  0  0  0  0  0  0  0  0  0  0  0
  -25.8230  -34.7350   23.4210 C   0  0  0  0  0  0  0  0  0  0  0  0
  -26.4430  -34.6700   22.3570 O   0  0  0  0  0  0  0  0  0  0  0  0
  -24.9700  -33.7770   24.9860 H   0  0  0  0  0  0  0  0  0  0  0  0
  -24.0400  -36.5050   23.2420 C   0  0  0  0  0  1  0  0  0  0  0  0
  -25.3480  -36.1070   23.9440 C   0  0  0  0  0  3  0  0  0  0  0  0
  -27.5090  -37.0380   24.6460 C   0  0  0  0  0  1  0  0  0  0  0  0
  -26.3490  -37.1820   23.7710 N   0  0  0  0  0  0  0  0  0  0  0  0
  -25.9330  -38.0930   23.9430 H   0  0  0  0  0  0  0  0  0  0  0  0
  1  7  2  0
  2  1  1  0
  3  1  1  0
  4  2  1  0
  5 54  1  0
  5  6  1  0
  5  4  1  0
  6  3  1  0
  9 11  1  0
 10 12  2  0
 11  6  1  0
 11  8  2  0
 12  8  1  0
 12 22  1  0
 13  9  2  0
 13 10  1  0
 14 22  1  0
 14 20  1  0
 15 20  1  0
 16 17  1  0
 16 15  1  0
 18 17  1  0
 18 27  1  0
 18 19  1  0
 20 19  1  0
 21 14  2  0
 22 23  1  0
 24 25  2  0
 25 44  1  0
 26 29  1  0
 26 25  1  0
 27 28  1  0
 27 24  1  0
 28 26  2  0
 29 30  1  0
 30 31  2  0
 32 35  1  0
 32 31  1  0
 33 32  2  0
 34 33  1  0
 34 29  2  0
 35 36  1  0
 36 37  1  0
 37 38  2  0
 39 38  1  0
 39 43  1  0
 40 39  2  0
 41 36  2  0
 41 40  1  0
 42 41  1  0
 44 45  1  0
 45 48  1  0
 45 47  1  0
 46 44  2  0
 49 24  1  0
 49 50  1  0
 51 49  1  0
 52 53  1  0
 53 13  1  0
 54 55  1  0
 55 57  1  0
 56 67  2  0
 57 62  1  0
 58 66  1  0
 58 68  1  0
 59 65  1  0
 59 61  1  0
 60 66  1  0
 61 60  1  0
 62 61  2  0
 63 64  1  0
 63 57  2  0
 64 59  2  0
 65 58  1  0
 66 56  1  0
 68 70  2  0
 69 68  1  0
 71 69  1  0
 72 81  2  0
 72 77  1  0
 73 69  1  0
 73 77  1  0
 74 73  1  0
 75 76  1  0
 75 74  1  0
 76 72  1  0
 77 78  2  0
 78 79  1  0
 80 79  2  0
 81 80  1  0
 82 56  1  0
 82 87  1  0
 82 83  1  0
 83 86  1  1
 83 84  1  0
 85 83  1  0
 87 90  1  0
 88 92  1  0
 88 87  1  0
 89 88  2  0
 92 91  1  0
 94 95  1  0
 94 92  1  0
 94 93  1  0
M  ISO  4  14 100  22 100  54 101  55 101
M  END
>  <TORSDO>  (95) 
F 19

>  <SCORE>  (95) 
-13.509

>  <name>  (95) 
94

>  <ligand_id>  (95) 
94

>  <original_smiles>  (95) 
[H]c1c([H])c([H])c2c(c1[H])C([H])([H])C([H])([H])C([H])([H])C2([H])N([H])C(=O)C1([H])N(C(=O)C([H])(N([H])C(=O)C([H])(N([H])C([H])([H])[H])C([H])([H])[H])C(C([H])([H])[H])(C([H])([H])[H])C([H])([H])[H])C([H])([H])c2c([H])c(OC([H])([H])C3([H])N(c4c([H])c(OC([H])([H])[H])c([H])c(N([H])C(=O)N5C([H])([H])C([H])([H])C([H])([H])C([H])(n6nc(-c7c([H])c([H])c(Oc8c([H])c([H])c(F)c([H])c8F)c([H])c7[H])c(C(=O)N([H])[H])c6N([H])[H])C5([H])[H])c4[H])C([H])([H])C(=O)C([H])([H])C3([H])[H])c([H])c([H])c2C1([H])[H]

>  <smiles>  (95) 
[H]c1c([H])c([H])c2c(c1[H])C([H])([H])C([H])([H])C([H])([H])C2([H])N([H])C(=O)C1([H])N(C(=O)C([H])(N([H])C(=O)C([H])(N([H])C([H])([H])[H])C([H])([H])[H])C(C([H])([H])[H])(C([H])([H])[H])C([H])([H])[H])C([H])([H])c2c([H])c(OC([H])([H])C3([H])N(c4c([H])c(OC([H])([H])[H])c([H])c(N([H])C(=O)N5C([H])([H])C([H])([H])C([H])([H])C([H])(n6nc(-c7c([H])c([H])c(Oc8c([H])c([H])c(F)c([H])c8F)c([H])c7[H])c(C(=O)N([H])[H])c6N([H])[H])C5([H])[H])c4[H])C([H])([H])C(=O)C([H])([H])C3([H])[H])c([H])c([H])c2C1([H])[H]

$$$$
95:0:0
     RDKit          3D

 94 99  0  0  1  0  0  0  0  0999 V2000
  -32.7400  -13.9160   19.4060 C   0  0  0  0  0  3  0  0  0  0  0  0
  -30.3430  -12.2760   19.6110 C   0  0  0  0  0  2  0  0  0  0  0  0
  -30.3680  -15.8450   19.0150 C   0  0  0  0  0  0  0  0  0  0  0  0
  -32.0060  -15.4000   19.0720 C   0  0  0  0  0  0  0  0  0  0  0  0
  -29.4290  -14.4380   19.4150 C   0  0  0  0  0  2  0  0  0  0  0  0
  -32.0380  -12.4010   19.6290 C   0  0  0  0  0  0  0  0  0  0  0  0
  -32.8080  -11.3000   19.8060 F   0  0  0  0  0  0  0  0  0  0  0  0
  -30.4830  -14.8960   21.5130 C   0  0  0  0  0  3  0  0  0  0  0  0
  -30.8660  -13.4170   18.1160 C   0  0  0  0  0  2  0  0  0  0  0  0
  -29.2790  -12.7430   17.5180 C   0  0  0  0  0  3  0  0  0  0  0  0
  -27.8730  -12.4500   18.5940 C   0  0  0  0  0  3  0  0  0  0  0  0
  -27.6960  -12.8980   20.3110 C   0  0  0  0  0  3  0  0  0  0  0  0
  -29.0090  -13.1310   21.5870 C   0  0  0  0  0  2  0  0  0  0  0  0
  -30.6130  -13.8070   20.9910 N   0  0  0  0  0  2  0  0  0  0  0  0
  -31.5490  -15.4330   21.7480 O   0  0  0  0  0  1  0  0  0  0  0  0
  -29.5050  -15.2960   20.6440 N   0  0  0  0  0  0  0  0  0  0  0  0
  -29.3050  -16.2800   20.5810 H   0  0  0  0  0  0  0  0  0  0  0  0
  -25.3030  -13.6650   20.6940 C   0  0  0  0  0  0  0  0  0  0  0  0
  -24.1750  -12.9590   20.9520 C   0  0  0  0  0  0  0  0  0  0  0  0
  -24.5710  -11.5880   20.9850 C   0  0  0  0  0  0  0  0  0  0  0  0
  -26.3270  -12.7090   20.6750 N   0  0  0  0  0  0  0  0  0  0  0  0
  -25.8800  -11.4550   20.8320 N   0  0  0  0  0  0  0  0  0  0  0  0
  -23.7680  -10.3830   21.1270 C   0  0  0  0  0  0  0  0  0  0  0  0
  -24.1010   -9.4040   22.0850 C   0  0  0  0  0  3  0  0  0  0  0  0
  -23.2960   -8.2600   22.2350 C   0  0  0  0  0  3  0  0  0  0  0  0
  -22.1480   -8.0930   21.4250 C   0  0  0  0  0  0  0  0  0  0  0  0
  -21.8380   -9.0610   20.4550 C   0  0  0  0  0  3  0  0  0  0  0  0
  -22.6440  -10.1980   20.3010 C   0  0  0  0  0  3  0  0  0  0  0  0
  -21.3160   -7.0040   21.4890 O   0  0  0  0  0  0  0  0  0  0  0  0
  -21.2430   -6.2270   22.6150 C   0  0  0  0  0  0  0  0  0  0  0  0
  -20.8430   -6.7570   23.8610 C   0  0  0  0  0  3  0  0  0  0  0  0
  -20.7130   -5.9080   24.9770 C   0  0  0  0  0  3  0  0  0  0  0  0
  -20.9740   -4.5300   24.8470 C   0  0  0  0  0  0  0  0  0  0  0  0
  -21.3700   -4.0010   23.6050 C   0  0  0  0  0  3  0  0  0  0  0  0
  -21.5020   -4.8490   22.4920 C   0  0  0  0  0  0  0  0  0  0  0  0
  -21.8660   -4.3340   21.2920 F   0  0  0  0  0  0  0  0  0  0  0  0
  -20.8380   -3.7110   25.9140 F   0  0  0  0  0  0  0  0  0  0  0  0
  -22.7980  -13.5330   21.0810 C   0  0  0  0  0  0  0  0  0  0  0  0
  -21.9620  -12.9100   21.9010 N   0  0  0  0  0  0  0  0  0  0  0  0
  -22.4810  -14.5740   20.5070 O   0  0  0  0  0  0  0  0  0  0  0  0
  -22.2390  -12.0740   22.3940 H   0  0  0  0  0  0  0  0  0  0  0  0
  -21.0330  -13.2810   22.0450 H   0  0  0  0  0  0  0  0  0  0  0  0
  -25.5030  -15.0330   20.4690 N   0  0  0  0  0  0  0  0  0  0  0  0
  -24.7280  -15.6870   20.4480 H   0  0  0  0  0  0  0  0  0  0  0  0
  -26.3920  -15.4650   20.2530 H   0  0  0  0  0  0  0  0  0  0  0  0
  -32.9460  -16.3930   18.7680 N   0  0  0  0  0  0  0  0  0  0  0  0
  -33.9270  -16.3060   19.0090 H   0  0  0  0  0  0  0  0  0  0  0  0
  -32.6410  -17.3350   18.5270 H   0  0  0  0  0  0  0  0  0  0  0  0
  -29.9520  -17.7350   18.7820 C   0  0  0  0  0  0  0  0  0  0  0  0
  -30.6780  -18.1810   17.8890 O   0  0  0  0  0  0  0  0  0  0  0  0
  -28.9300  -19.2930   19.3170 C   0  0  0  0  0  1  0  0  0  0  0  0
  -28.9960  -21.3310   19.3160 C   0  0  0  0  0 15  0  0  0  0  0  0
  -27.9940  -23.0690   19.6680 C   0  0  0  0  0  1  0  0  0  0  0  0
  -28.1140  -24.8840   19.9210 O   0  0  0  0  0  0  0  0  0  0  0  0
  -24.6020  -31.4020   22.9260 C   0  0  0  0  0  0  0  0  0  0  0  0
  -27.1430  -26.1490   19.9660 C   0  0  0  0  0  0  0  0  0  0  0  0
  -23.4340  -29.9780   21.3040 C   0  0  0  0  0  3  0  0  0  0  0  0
  -24.8850  -28.2650   19.9480 C   0  0  0  0  0  0  0  0  0  0  0  0
  -26.0240  -30.0510   21.2310 C   0  0  0  0  0  2  0  0  0  0  0  0
  -26.0870  -28.5960   20.5840 C   0  0  0  0  0  0  0  0  0  0  0  0
  -27.1940  -27.5680   20.5610 C   0  0  0  0  0  3  0  0  0  0  0  0
  -25.8840  -26.0520   19.3180 C   0  0  0  0  0  3  0  0  0  0  0  0
  -24.8240  -27.0160   19.3060 C   0  0  0  0  0  3  0  0  0  0  0  0
  -23.6910  -29.2420   19.9580 C   0  0  0  0  0  2  0  0  0  0  0  0
  -24.7130  -30.5130   21.8740 N   0  0  0  0  0  0  0  0  0  0  0  0
  -23.5000  -31.7290   23.4020 O   0  0  0  0  0  0  0  0  0  0  0  0
  -22.6790  -29.0400   22.2870 C   0  0  0  0  0  0  0  0  0  0  0  0
  -21.3360  -28.9660   22.1960 N   0  0  0  0  0  0  0  0  0  0  0  0
  -23.3150  -28.3740   23.1050 O   0  0  0  0  0  0  0  0  0  0  0  0
  -20.8700  -29.5540   21.5180 H   0  0  0  0  0  0  0  0  0  0  0  0
  -17.8990  -27.9520   22.8110 C   0  0  0  0  0  0  0  0  0  0  0  0
  -20.4790  -28.0650   22.9790 C   0  0  0  0  0  3  0  0  0  0  0  0
  -20.4700  -26.6410   22.3750 C   0  0  0  0  0  2  0  0  0  0  0  0
  -19.3170  -26.4070   21.3960 C   0  0  0  0  0  2  0  0  0  0  0  0
  -17.9700  -26.6150   22.0930 C   0  0  0  0  0  2  0  0  0  0  0  0
  -19.0740  -28.6410   23.2120 C   0  0  0  0  0  0  0  0  0  0  0  0
  -18.9460  -29.8940   23.8500 C   0  0  0  0  0  3  0  0  0  0  0  0
  -17.6770  -30.4570   24.0840 C   0  0  0  0  0  3  0  0  0  0  0  0
  -16.5160  -29.7650   23.6930 C   0  0  0  0  0  3  0  0  0  0  0  0
  -16.6290  -28.5130   23.0630 C   0  0  0  0  0  3  0  0  0  0  0  0
  -25.8510  -32.0630   23.5850 C   0  0  0  0  0  3  0  0  0  0  0  0
  -25.5090  -33.4580   23.9350 N   0  0  0  0  0  0  0  0  0  0  0  0
  -25.9000  -34.5460   23.2590 C   0  0  0  0  0  0  0  0  0  0  0  0
  -26.6370  -34.4830   22.2720 O   0  0  0  0  0  0  0  0  0  0  0  0
  -24.8580  -33.5810   24.6950 H   0  0  0  0  0  0  0  0  0  0  0  0
  -24.2300  -36.3970   22.8690 C   0  0  0  0  0  1  0  0  0  0  0  0
  -25.3960  -35.9210   23.7490 C   0  0  0  0  0  3  0  0  0  0  0  0
  -27.4620  -36.7450   24.7960 C   0  0  0  0  0  1  0  0  0  0  0  0
  -26.4450  -36.9640   23.7720 N   0  0  0  0  0  0  0  0  0  0  0  0
  -26.0350  -37.8810   23.9250 H   0  0  0  0  0  0  0  0  0  0  0  0
  -26.3450  -31.3000   24.8760 C   0  0  1  0  0  0  0  0  0  0  0  0
  -25.2360  -31.0650   25.9290 C   0  0  0  0  0  1  0  0  0  0  0  0
  -26.9340  -29.9220   24.5110 C   0  0  0  0  0  1  0  0  0  0  0  0
  -27.4820  -32.1010   25.5550 C   0  0  0  0  0  1  0  0  0  0  0  0
  1  6  2  0
  2  6  1  0
  3  4  2  0
  3  5  1  0
  4  1  1  0
  5 16  1  0
  6  7  1  0
  8 15  1  0
  9  2  1  0
 10  9  1  0
 10 11  2  0
 12 11  1  0
 12 21  1  0
 12 13  1  0
 14  8  1  0
 14 13  1  0
 16  8  1  0
 17 16  1  0
 18 19  2  0
 19 20  1  0
 19 38  1  0
 20 23  1  0
 21 18  1  0
 21 22  1  0
 22 20  2  0
 23 24  1  0
 24 25  2  0
 26 29  1  0
 26 25  1  0
 27 26  2  0
 28 27  1  0
 28 23  2  0
 29 30  1  0
 30 31  1  0
 31 32  2  0
 33 32  1  0
 33 37  1  0
 34 33  2  0
 35 30  2  0
 35 34  1  0
 36 35  1  0
 38 39  1  0
 39 42  1  0
 39 41  1  0
 40 38  2  0
 43 18  1  0
 44 43  1  0
 45 43  1  0
 46 47  1  0
 46  4  1  0
 48 46  1  0
 49  3  1  0
 49 51  1  0
 50 49  2  0
 53 54  1  0
 54 56  1  0
 55 66  2  0
 56 61  1  0
 57 65  1  0
 57 67  1  0
 58 64  1  0
 58 60  1  0
 59 65  1  0
 60 59  1  0
 61 60  2  0
 62 56  2  0
 63 62  1  0
 63 58  2  0
 64 57  1  0
 65 55  1  0
 67 69  2  0
 68 67  1  0
 70 68  1  0
 71 80  2  0
 71 76  1  0
 72 68  1  0
 72 76  1  0
 73 72  1  0
 74 75  1  0
 74 73  1  0
 75 71  1  0
 76 77  2  0
 77 78  1  0
 79 78  2  0
 80 79  1  0
 81 55  1  0
 81 82  1  0
 81 91  1  0
 82 85  1  0
 83 87  1  0
 83 82  1  0
 84 83  2  0
 87 86  1  0
 87 89  1  0
 89 90  1  0
 89 88  1  0
 91 94  1  1
 91 92  1  0
 93 91  1  0
M  ISO  4   8 100  16 100  53 101  54 101
M  END
>  <TORSDO>  (96) 
F 21

>  <SCORE>  (96) 
-14.432

>  <name>  (96) 
95

>  <ligand_id>  (96) 
95

>  <original_smiles>  (96) 
[H]c1c([H])c([H])c2c(c1[H])C([H])([H])C([H])([H])C([H])([H])C2([H])N([H])C(=O)C1([H])N(C(=O)C([H])(N([H])C(=O)C([H])(N([H])C([H])([H])[H])C([H])([H])[H])C(C([H])([H])[H])(C([H])([H])[H])C([H])([H])[H])C([H])([H])c2c([H])c(OC([H])([H])C([H])([H])C([H])([H])C(=O)c3c(N([H])[H])c([H])c(F)c([H])c3N([H])C(=O)N3C([H])([H])C([H])([H])C([H])([H])C([H])(n4nc(-c5c([H])c([H])c(Oc6c([H])c([H])c(F)c([H])c6F)c([H])c5[H])c(C(=O)N([H])[H])c4N([H])[H])C3([H])[H])c([H])c([H])c2C1([H])[H]

>  <smiles>  (96) 
[H]c1c([H])c([H])c2c(c1[H])C([H])([H])C([H])([H])C([H])([H])C2([H])N([H])C(=O)C1([H])N(C(=O)C([H])(N([H])C(=O)C([H])(N([H])C([H])([H])[H])C([H])([H])[H])C(C([H])([H])[H])(C([H])([H])[H])C([H])([H])[H])C([H])([H])c2c([H])c(OC([H])([H])C([H])([H])C([H])([H])C(=O)c3c(N([H])[H])c([H])c(F)c([H])c3N([H])C(=O)N3C([H])([H])C([H])([H])C([H])([H])C([H])(n4nc(-c5c([H])c([H])c(Oc6c([H])c([H])c(F)c([H])c6F)c([H])c5[H])c(C(=O)N([H])[H])c4N([H])[H])C3([H])[H])c([H])c([H])c2C1([H])[H]

$$$$
96:0:0
     RDKit          3D

 93101  0  0  1  0  0  0  0  0999 V2000
  -30.9790  -19.5940   20.4940 C   0  0  0  0  0  3  0  0  0  0  0  0
  -28.7600  -18.0510   19.9700 C   0  0  0  0  0  3  0  0  0  0  0  0
  -31.1150  -18.1730   20.4850 C   0  0  0  0  0  0  0  0  0  0  0  0
  -29.7730  -20.2960   20.2220 C   0  0  0  0  0  0  0  0  0  0  0  0
  -29.9740  -17.3460   20.2250 C   0  0  0  0  0  0  0  0  0  0  0  0
  -28.6300  -19.4850   19.9470 C   0  0  0  0  0  0  0  0  0  0  0  0
  -30.6280  -14.7940   19.8920 C   0  0  0  0  0  0  0  0  0  0  0  0
  -30.3110  -12.5540   18.8520 C   0  0  0  0  0  2  0  0  0  0  0  0
  -29.2840  -12.6940   17.7030 C   0  0  0  0  0  2  0  0  0  0  0  0
  -27.8480  -12.5340   18.2370 C   0  0  0  0  0  2  0  0  0  0  0  0
  -27.5860  -13.3960   19.5010 C   0  0  0  0  0  3  0  0  0  0  0  0
  -28.7220  -13.2530   20.5410 C   0  0  0  0  0  2  0  0  0  0  0  0
  -29.9870  -13.5800   19.8650 N   0  0  0  0  0  0  0  0  0  0  0  0
  -31.7560  -14.8950   19.4130 O   0  0  0  0  0  0  0  0  0  0  0  0
  -29.8670  -15.8690   20.2860 N   0  0  0  0  0  0  0  0  0  0  0  0
  -28.9520  -15.5520   20.5740 H   0  0  0  0  0  0  0  0  0  0  0  0
  -25.2650  -13.9950   20.4170 C   0  0  0  0  0  0  0  0  0  0  0  0
  -24.2250  -13.2240   20.8520 C   0  0  0  0  0  0  0  0  0  0  0  0
  -24.6660  -11.8680   20.7480 C   0  0  0  0  0  0  0  0  0  0  0  0
  -26.2780  -13.1130   20.0810 N   0  0  0  0  0  0  0  0  0  0  0  0
  -25.9290  -11.8270   20.3430 N   0  0  0  0  0  0  0  0  0  0  0  0
  -23.9410  -10.6090   20.9550 C   0  0  0  0  0  0  0  0  0  0  0  0
  -24.4070   -9.6300   21.8600 C   0  0  0  0  0  3  0  0  0  0  0  0
  -23.6800   -8.4360   22.0550 C   0  0  0  0  0  3  0  0  0  0  0  0
  -22.4740   -8.2120   21.3480 C   0  0  0  0  0  0  0  0  0  0  0  0
  -22.0280   -9.1810   20.4340 C   0  0  0  0  0  3  0  0  0  0  0  0
  -22.7540  -10.3670   20.2350 C   0  0  0  0  0  3  0  0  0  0  0  0
  -21.7170   -7.0720   21.4570 O   0  0  0  0  0  0  0  0  0  0  0  0
  -21.6710   -6.3480   22.6220 C   0  0  0  0  0  0  0  0  0  0  0  0
  -21.2370   -6.9180   23.8380 C   0  0  0  0  0  3  0  0  0  0  0  0
  -21.1370   -6.1180   24.9930 C   0  0  0  0  0  3  0  0  0  0  0  0
  -21.4620   -4.7490   24.9330 C   0  0  0  0  0  0  0  0  0  0  0  0
  -21.8920   -4.1790   23.7230 C   0  0  0  0  0  3  0  0  0  0  0  0
  -21.9930   -4.9760   22.5690 C   0  0  0  0  0  0  0  0  0  0  0  0
  -22.3850   -4.4170   21.3980 F   0  0  0  0  0  0  0  0  0  0  0  0
  -21.3600   -3.9780   26.0410 F   0  0  0  0  0  0  0  0  0  0  0  0
  -22.8600  -13.7070   21.2410 C   0  0  0  0  0  0  0  0  0  0  0  0
  -22.2030  -13.0060   22.1550 N   0  0  0  0  0  0  0  0  0  0  0  0
  -22.3880  -14.7430   20.7710 O   0  0  0  0  0  0  0  0  0  0  0  0
  -22.5960  -12.1620   22.5490 H   0  0  0  0  0  0  0  0  0  0  0  0
  -21.2950  -13.3160   22.4690 H   0  0  0  0  0  0  0  0  0  0  0  0
  -25.4230  -15.3690   20.2500 N   0  0  0  0  0  0  0  0  0  0  0  0
  -24.6260  -15.9890   20.3500 H   0  0  0  0  0  0  0  0  0  0  0  0
  -26.1780  -15.7770   19.7170 H   0  0  0  0  0  0  0  0  0  0  0  0
  -33.3030  -18.1670   21.6960 C   0  0  0  0  0  2  0  0  0  0  0  0
  -32.4620  -17.6540   20.7840 C   0  0  0  0  0  3  0  0  0  0  0  0
  -29.0260  -22.6330   19.8350 C   0  0  0  0  0  3  0  0  0  0  0  0
  -29.8370  -21.7360   20.3120 N   0  0  0  0  0  0  0  0  0  0  0  0
  -29.2550  -24.1880   19.9840 C   0  0  0  0  0  3  0  0  0  0  0  0
  -28.0940  -25.1640   19.5190 C   0  0  0  0  0  3  0  0  0  0  0  0
  -28.2610  -26.6240   19.7060 O   0  0  0  0  0  0  0  0  0  0  0  0
  -24.4270  -31.6980   23.0790 C   0  0  0  0  0  0  0  0  0  0  0  0
  -27.1050  -27.4190   19.7150 C   0  0  0  0  0  0  0  0  0  0  0  0
  -23.2210  -30.3480   21.4010 C   0  0  0  0  0  3  0  0  0  0  0  0
  -24.6790  -28.9300   19.8520 C   0  0  0  0  0  0  0  0  0  0  0  0
  -25.7390  -30.7660   21.1660 C   0  0  0  0  0  2  0  0  0  0  0  0
  -25.8460  -29.4320   20.4400 C   0  0  0  0  0  0  0  0  0  0  0  0
  -27.0600  -28.6910   20.3600 C   0  0  0  0  0  3  0  0  0  0  0  0
  -25.9110  -26.9680   19.1040 C   0  0  0  0  0  3  0  0  0  0  0  0
  -24.7140  -27.7030   19.1720 C   0  0  0  0  0  3  0  0  0  0  0  0
  -23.4140  -29.7510   19.9850 C   0  0  0  0  0  2  0  0  0  0  0  0
  -24.4820  -30.9530   21.9380 N   0  0  0  0  0  0  0  0  0  0  0  0
  -23.3510  -31.9060   23.6580 O   0  0  0  0  0  0  0  0  0  0  0  0
  -22.6220  -29.2610   22.3220 C   0  0  0  0  0  0  0  0  0  0  0  0
  -21.3060  -29.0240   22.2020 N   0  0  0  0  0  0  0  0  0  0  0  0
  -23.3400  -28.6300   23.1040 O   0  0  0  0  0  0  0  0  0  0  0  0
  -20.7820  -29.5790   21.5420 H   0  0  0  0  0  0  0  0  0  0  0  0
  -17.9960  -27.6490   22.6810 C   0  0  0  0  0  0  0  0  0  0  0  0
  -20.5420  -28.0200   22.9430 C   0  0  0  0  0  3  0  0  0  0  0  0
  -20.7100  -26.6200   22.3090 C   0  0  0  0  0  2  0  0  0  0  0  0
  -19.6150  -26.2830   21.2930 C   0  0  0  0  0  2  0  0  0  0  0  0
  -18.2320  -26.3370   21.9500 C   0  0  0  0  0  2  0  0  0  0  0  0
  -19.0810  -28.4460   23.1320 C   0  0  0  0  0  0  0  0  0  0  0  0
  -18.8070  -29.6750   23.7720 C   0  0  0  0  0  3  0  0  0  0  0  0
  -17.4810  -30.1020   23.9750 C   0  0  0  0  0  3  0  0  0  0  0  0
  -16.4110  -29.3010   23.5390 C   0  0  0  0  0  3  0  0  0  0  0  0
  -16.6700  -28.0770   22.8950 C   0  0  0  0  0  3  0  0  0  0  0  0
  -25.7060  -32.3410   23.6950 C   0  0  0  0  0  3  0  0  0  0  0  0
  -25.3760  -33.7260   24.0600 N   0  0  0  0  0  0  0  0  0  0  0  0
  -25.6710  -34.8000   23.3150 C   0  0  0  0  0  0  0  0  0  0  0  0
  -26.3180  -34.7320   22.2670 O   0  0  0  0  0  0  0  0  0  0  0  0
  -24.8050  -33.8490   24.8830 H   0  0  0  0  0  0  0  0  0  0  0  0
  -23.8920  -36.5540   23.0500 C   0  0  0  0  0  1  0  0  0  0  0  0
  -25.1680  -36.1690   23.8140 C   0  0  0  0  0  3  0  0  0  0  0  0
  -27.3060  -37.0940   24.5920 C   0  0  0  0  0  1  0  0  0  0  0  0
  -26.1720  -37.2480   23.6830 N   0  0  0  0  0  0  0  0  0  0  0  0
  -25.7510  -38.1560   23.8570 H   0  0  0  0  0  0  0  0  0  0  0  0
  -26.2500  -31.5520   24.9490 C   0  0  1  0  0  0  0  0  0  0  0  0
  -25.1740  -31.2800   26.0250 C   0  0  0  0  0  1  0  0  0  0  0  0
  -26.8520  -30.1930   24.5230 C   0  0  0  0  0  1  0  0  0  0  0  0
  -27.3990  -32.3520   25.6060 C   0  0  0  0  0  1  0  0  0  0  0  0
  -26.3740  -19.4640   18.9980 C   0  0  0  0  0  1  0  0  0  0  0  0
  -27.4160  -20.1180   19.7350 O   0  0  0  0  0  0  0  0  0  0  0  0
  2  5  1  0
  3  1  1  0
  3 46  1  0
  4 48  1  0
  4  1  2  0
  5 15  1  0
  5  3  2  0
  6  2  2  0
  6  4  1  0
  7 15  1  0
  8 13  1  0
  9 10  1  0
  9  8  1  0
 11 10  1  0
 11 20  1  0
 11 12  1  0
 13  7  1  0
 13 12  1  0
 14  7  2  0
 15 16  1  0
 17 18  2  0
 18 37  1  0
 19 18  1  0
 19 22  1  0
 20 21  1  0
 20 17  1  0
 21 19  2  0
 22 23  1  0
 23 24  2  0
 25 28  1  0
 25 24  1  0
 26 25  2  0
 27 26  1  0
 27 22  2  0
 28 29  1  0
 29 30  1  0
 30 31  2  0
 32 31  1  0
 32 36  1  0
 33 32  2  0
 34 29  2  0
 34 33  1  0
 35 34  1  0
 37 38  1  0
 38 41  1  0
 38 40  1  0
 39 37  2  0
 42 43  1  0
 42 17  1  0
 44 42  1  0
 46 45  2  0
 47 49  1  0
 47 48  2  0
 50 51  1  0
 50 49  2  0
 51 53  1  0
 52 63  2  0
 53 58  1  0
 54 62  1  0
 54 64  1  0
 55 61  1  0
 55 57  1  0
 56 62  1  0
 57 56  1  0
 58 57  2  0
 59 60  1  0
 59 53  2  0
 60 55  2  0
 61 54  1  0
 62 52  1  0
 64 66  2  0
 65 64  1  0
 67 65  1  0
 68 77  2  0
 68 73  1  0
 69 65  1  0
 69 73  1  0
 70 69  1  0
 71 72  1  0
 71 70  1  0
 72 68  1  0
 73 74  2  0
 74 75  1  0
 76 75  2  0
 77 76  1  0
 78 52  1  0
 78 79  1  0
 78 88  1  0
 79 82  1  0
 80 84  1  0
 80 79  1  0
 81 80  2  0
 84 83  1  0
 86 84  1  0
 86 87  1  0
 86 85  1  0
 88 91  1  1
 88 89  1  0
 90 88  1  0
 92 93  1  0
 93  6  1  0
M  ISO  4   7 100  15 100  50 101  51 101
M  END
>  <TORSDO>  (97) 
F 21

>  <SCORE>  (97) 
-11.443

>  <name>  (97) 
96

>  <ligand_id>  (97) 
96

>  <original_smiles>  (97) 
[H]C(=Nc1c([H])c(C([H])=C([H])[H])c(N([H])C(=O)N2C([H])([H])C([H])([H])C([H])([H])C([H])(n3nc(-c4c([H])c([H])c(Oc5c([H])c([H])c(F)c([H])c5F)c([H])c4[H])c(C(=O)N([H])[H])c3N([H])[H])C2([H])[H])c([H])c1OC([H])([H])[H])C([H])([H])C([H])([H])Oc1c([H])c([H])c2c(c1[H])C([H])([H])N(C(=O)C([H])(N([H])C(=O)C([H])(N([H])C([H])([H])[H])C([H])([H])[H])C(C([H])([H])[H])(C([H])([H])[H])C([H])([H])[H])C([H])(C(=O)N([H])C1([H])c3c([H])c([H])c([H])c([H])c3C([H])([H])C([H])([H])C1([H])[H])C2([H])[H]

>  <smiles>  (97) 
[H]C(=Nc1c([H])c(C([H])=C([H])[H])c(N([H])C(=O)N2C([H])([H])C([H])([H])C([H])([H])C([H])(n3nc(-c4c([H])c([H])c(Oc5c([H])c([H])c(F)c([H])c5F)c([H])c4[H])c(C(=O)N([H])[H])c3N([H])[H])C2([H])[H])c([H])c1OC([H])([H])[H])C([H])([H])C([H])([H])Oc1c([H])c([H])c2c(c1[H])C([H])([H])N(C(=O)C([H])(N([H])C(=O)C([H])(N([H])C([H])([H])[H])C([H])([H])[H])C(C([H])([H])[H])(C([H])([H])[H])C([H])([H])[H])C([H])(C(=O)N([H])C1([H])c3c([H])c([H])c([H])c([H])c3C([H])([H])C([H])([H])C1([H])[H])C2([H])[H]

$$$$
97:0:0
     RDKit          3D

 91 99  0  0  1  0  0  0  0  0999 V2000
  -30.8630  -18.3580   20.7200 C   0  0  0  0  0  0  0  0  0  0  0  0
  -29.8090  -17.4590   20.5450 C   0  0  0  0  0  0  0  0  0  0  0  0
  -29.2750  -20.0580   20.4150 C   0  0  0  0  0  0  0  0  0  0  0  0
  -30.5680  -19.7590   20.6080 N   0  0  0  0  0  0  0  0  0  0  0  0
  -28.6740  -21.3830   20.3210 N   0  0  0  0  0  0  0  0  0  0  0  0
  -28.3600  -18.5020   20.3100 S   0  0  0  0  0  0  0  0  0  0  0  0
  -27.6730  -21.2660   20.1870 H   0  0  0  0  0  0  0  0  0  0  0  0
  -30.5310  -14.9680   20.3390 C   0  0  0  0  0  0  0  0  0  0  0  0
  -30.4010  -12.6610   19.3610 C   0  0  0  0  0  2  0  0  0  0  0  0
  -29.4490  -12.6820   18.1440 C   0  0  0  0  0  2  0  0  0  0  0  0
  -27.9850  -12.4780   18.5890 C   0  0  0  0  0  2  0  0  0  0  0  0
  -27.5990  -13.3730   19.7960 C   0  0  0  0  0  3  0  0  0  0  0  0
  -28.6710  -13.3260   20.9090 C   0  0  0  0  0  2  0  0  0  0  0  0
  -29.9530  -13.7150   20.3030 N   0  0  0  0  0  0  0  0  0  0  0  0
  -31.6940  -15.1090   19.9530 O   0  0  0  0  0  0  0  0  0  0  0  0
  -29.7010  -16.0480   20.6280 N   0  0  0  0  0  0  0  0  0  0  0  0
  -28.7650  -15.7340   20.8310 H   0  0  0  0  0  0  0  0  0  0  0  0
  -25.2170  -13.9250   20.5710 C   0  0  0  0  0  0  0  0  0  0  0  0
  -24.1660  -13.1330   20.9440 C   0  0  0  0  0  0  0  0  0  0  0  0
  -24.6410  -11.7870   20.8800 C   0  0  0  0  0  0  0  0  0  0  0  0
  -26.2660  -13.0610   20.3010 N   0  0  0  0  0  0  0  0  0  0  0  0
  -25.9270  -11.7690   20.5490 N   0  0  0  0  0  0  0  0  0  0  0  0
  -23.9310  -10.5150   21.0580 C   0  0  0  0  0  0  0  0  0  0  0  0
  -24.3670   -9.5470   21.9890 C   0  0  0  0  0  3  0  0  0  0  0  0
  -23.6540   -8.3400   22.1550 C   0  0  0  0  0  3  0  0  0  0  0  0
  -22.4900   -8.0920   21.3890 C   0  0  0  0  0  0  0  0  0  0  0  0
  -22.0730   -9.0480   20.4470 C   0  0  0  0  0  3  0  0  0  0  0  0
  -22.7860  -10.2470   20.2800 C   0  0  0  0  0  3  0  0  0  0  0  0
  -21.7490   -6.9370   21.4640 O   0  0  0  0  0  0  0  0  0  0  0  0
  -21.6790   -6.2000   22.6200 C   0  0  0  0  0  0  0  0  0  0  0  0
  -21.1710   -6.7440   23.8200 C   0  0  0  0  0  3  0  0  0  0  0  0
  -21.0530   -5.9320   24.9660 C   0  0  0  0  0  3  0  0  0  0  0  0
  -21.4310   -4.5780   24.9120 C   0  0  0  0  0  0  0  0  0  0  0  0
  -21.9310   -4.0330   23.7160 C   0  0  0  0  0  3  0  0  0  0  0  0
  -22.0520   -4.8420   22.5730 C   0  0  0  0  0  0  0  0  0  0  0  0
  -22.5150   -4.3080   21.4180 F   0  0  0  0  0  0  0  0  0  0  0  0
  -21.3090   -3.7950   26.0100 F   0  0  0  0  0  0  0  0  0  0  0  0
  -22.7690  -13.5910   21.2470 C   0  0  0  0  0  0  0  0  0  0  0  0
  -22.0580  -12.8660   22.1040 N   0  0  0  0  0  0  0  0  0  0  0  0
  -22.3160  -14.6260   20.7600 O   0  0  0  0  0  0  0  0  0  0  0  0
  -22.4360  -12.0270   22.5200 H   0  0  0  0  0  0  0  0  0  0  0  0
  -21.1210  -13.1540   22.3490 H   0  0  0  0  0  0  0  0  0  0  0  0
  -25.3630  -15.3010   20.4160 N   0  0  0  0  0  0  0  0  0  0  0  0
  -24.5840  -15.9380   20.5430 H   0  0  0  0  0  0  0  0  0  0  0  0
  -26.1850  -15.7540   20.0380 H   0  0  0  0  0  0  0  0  0  0  0  0
  -33.2960  -18.7850   21.1240 C   0  0  0  0  0  2  0  0  0  0  0  0
  -32.2340  -17.9610   21.0810 C   0  0  0  0  0  3  0  0  0  0  0  0
  -29.0280  -22.8660   20.2190 C   0  0  0  0  0  2  0  0  0  0  0  0
  -28.0420  -23.9080   20.8970 C   0  0  0  0  0  3  0  0  0  0  0  0
  -27.6810  -25.2600   20.8630 C   0  0  0  0  0  3  0  0  0  0  0  0
  -28.0330  -26.4570   20.1680 O   0  0  0  0  0  0  0  0  0  0  0  0
  -24.5370  -32.0510   23.2530 C   0  0  0  0  0  0  0  0  0  0  0  0
  -27.0120  -27.4390   20.1170 C   0  0  0  0  0  0  0  0  0  0  0  0
  -23.2780  -30.6750   21.6360 C   0  0  0  0  0  3  0  0  0  0  0  0
  -24.6800  -29.1170   20.1580 C   0  0  0  0  0  0  0  0  0  0  0  0
  -25.8200  -30.9550   21.3940 C   0  0  0  0  0  2  0  0  0  0  0  0
  -25.8720  -29.5770   20.7370 C   0  0  0  0  0  0  0  0  0  0  0  0
  -27.0430  -28.7470   20.7100 C   0  0  0  0  0  3  0  0  0  0  0  0
  -25.8030  -27.0550   19.4990 C   0  0  0  0  0  3  0  0  0  0  0  0
  -24.6500  -27.8650   19.5260 C   0  0  0  0  0  3  0  0  0  0  0  0
  -23.4540  -30.0070   20.2450 C   0  0  0  0  0  2  0  0  0  0  0  0
  -24.5650  -31.2450   22.1500 N   0  0  0  0  0  0  0  0  0  0  0  0
  -23.4690  -32.3390   23.8140 O   0  0  0  0  0  0  0  0  0  0  0  0
  -22.6250  -29.6610   22.6070 C   0  0  0  0  0  0  0  0  0  0  0  0
  -21.3000  -29.4680   22.4850 N   0  0  0  0  0  0  0  0  0  0  0  0
  -23.3100  -29.0530   23.4330 O   0  0  0  0  0  0  0  0  0  0  0  0
  -20.8050  -30.0140   21.7940 H   0  0  0  0  0  0  0  0  0  0  0  0
  -17.9430  -28.2090   22.9780 C   0  0  0  0  0  0  0  0  0  0  0  0
  -20.4930  -28.5280   23.2660 C   0  0  0  0  0  3  0  0  0  0  0  0
  -20.6310  -27.0880   22.7210 C   0  0  0  0  0  2  0  0  0  0  0  0
  -19.5460  -26.7220   21.7030 C   0  0  0  0  0  2  0  0  0  0  0  0
  -18.1550  -26.8500   22.3320 C   0  0  0  0  0  2  0  0  0  0  0  0
  -19.0410  -29.0020   23.4030 C   0  0  0  0  0  0  0  0  0  0  0  0
  -18.7900  -30.2710   23.9690 C   0  0  0  0  0  3  0  0  0  0  0  0
  -17.4720  -30.7460   24.1160 C   0  0  0  0  0  3  0  0  0  0  0  0
  -16.3890  -29.9500   23.7080 C   0  0  0  0  0  3  0  0  0  0  0  0
  -16.6250  -28.6830   23.1440 C   0  0  0  0  0  3  0  0  0  0  0  0
  -25.8390  -32.6680   23.8460 C   0  0  0  0  0  3  0  0  0  0  0  0
  -26.3650  -31.8990   25.1200 C   0  0  1  0  0  0  0  0  0  0  0  0
  -25.2820  -31.6720   26.2000 C   0  0  0  0  0  1  0  0  0  0  0  0
  -26.9370  -30.5160   24.7280 C   0  0  0  0  0  1  0  0  0  0  0  0
  -27.5280  -32.6880   25.7660 C   0  0  0  0  0  1  0  0  0  0  0  0
  -25.5580  -34.0740   24.1720 N   0  0  0  0  0  0  0  0  0  0  0  0
  -25.9090  -35.1190   23.4100 C   0  0  0  0  0  0  0  0  0  0  0  0
  -26.5700  -34.9980   22.3740 O   0  0  0  0  0  0  0  0  0  0  0  0
  -24.9740  -34.2430   24.9780 H   0  0  0  0  0  0  0  0  0  0  0  0
  -24.2320  -36.9600   23.0430 C   0  0  0  0  0  1  0  0  0  0  0  0
  -25.4540  -36.5190   23.8660 C   0  0  0  0  0  3  0  0  0  0  0  0
  -27.5980  -37.3490   24.7270 C   0  0  0  0  0  1  0  0  0  0  0  0
  -26.5150  -37.5440   23.7680 N   0  0  0  0  0  0  0  0  0  0  0  0
  -26.1310  -38.4750   23.9090 H   0  0  0  0  0  0  0  0  0  0  0  0
  1 47  1  0
  2 16  1  0
  2  1  2  0
  3  4  2  0
  4  1  1  0
  5  3  1  0
  6  3  1  0
  6  2  1  0
  7  5  1  0
  8 16  1  0
  9 14  1  0
 10 11  1  0
 10  9  1  0
 12 11  1  0
 12 21  1  0
 12 13  1  0
 14  8  1  0
 14 13  1  0
 15  8  2  0
 16 17  1  0
 18 19  2  0
 19 38  1  0
 20 19  1  0
 20 23  1  0
 21 22  1  0
 21 18  1  0
 22 20  2  0
 23 24  1  0
 24 25  2  0
 26 29  1  0
 26 25  1  0
 27 26  2  0
 28 27  1  0
 28 23  2  0
 29 30  1  0
 30 31  1  0
 31 32  2  0
 33 32  1  0
 33 37  1  0
 34 33  2  0
 35 30  2  0
 35 34  1  0
 36 35  1  0
 38 39  1  0
 39 42  1  0
 39 41  1  0
 40 38  2  0
 43 44  1  0
 43 18  1  0
 45 43  1  0
 47 46  2  0
 48  5  1  0
 48 49  1  0
 50 49  2  0
 51 50  1  0
 52 63  2  0
 53 51  1  0
 53 58  1  0
 54 62  1  0
 54 64  1  0
 55 61  1  0
 55 57  1  0
 56 62  1  0
 57 56  1  0
 58 57  2  0
 59 60  1  0
 59 53  2  0
 60 55  2  0
 61 54  1  0
 62 52  1  0
 64 66  2  0
 65 64  1  0
 67 65  1  0
 68 77  2  0
 68 73  1  0
 69 65  1  0
 69 73  1  0
 70 69  1  0
 71 72  1  0
 71 70  1  0
 72 68  1  0
 73 74  2  0
 74 75  1  0
 76 75  2  0
 77 76  1  0
 78 52  1  0
 78 83  1  0
 78 79  1  0
 79 82  1  1
 79 80  1  0
 81 79  1  0
 83 86  1  0
 84 88  1  0
 84 83  1  0
 85 84  2  0
 88 87  1  0
 90 88  1  0
 90 91  1  0
 90 89  1  0
M  ISO  4   8 100  16 100  50 101  51 101
M  END
>  <TORSDO>  (98) 
F 19

>  <SCORE>  (98) 
-14.089

>  <name>  (98) 
97

>  <ligand_id>  (98) 
97

>  <original_smiles>  (98) 
[H]C([H])=C([H])c1nc(N([H])C([H])([H])C([H])=C([H])Oc2c([H])c([H])c3c(c2[H])C([H])([H])N(C(=O)C([H])(N([H])C(=O)C([H])(N([H])C([H])([H])[H])C([H])([H])[H])C(C([H])([H])[H])(C([H])([H])[H])C([H])([H])[H])C([H])(C(=O)N([H])C2([H])c4c([H])c([H])c([H])c([H])c4C([H])([H])C([H])([H])C2([H])[H])C3([H])[H])sc1N([H])C(=O)N1C([H])([H])C([H])([H])C([H])([H])C([H])(n2nc(-c3c([H])c([H])c(Oc4c([H])c([H])c(F)c([H])c4F)c([H])c3[H])c(C(=O)N([H])[H])c2N([H])[H])C1([H])[H]

>  <smiles>  (98) 
[H]C([H])=C([H])c1nc(N([H])C([H])([H])C([H])=C([H])Oc2c([H])c([H])c3c(c2[H])C([H])([H])N(C(=O)C([H])(N([H])C(=O)C([H])(N([H])C([H])([H])[H])C([H])([H])[H])C(C([H])([H])[H])(C([H])([H])[H])C([H])([H])[H])C([H])(C(=O)N([H])C2([H])c4c([H])c([H])c([H])c([H])c4C([H])([H])C([H])([H])C2([H])[H])C3([H])[H])sc1N([H])C(=O)N1C([H])([H])C([H])([H])C([H])([H])C([H])(n2nc(-c3c([H])c([H])c(Oc4c([H])c([H])c(F)c([H])c4F)c([H])c3[H])c(C(=O)N([H])[H])c2N([H])[H])C1([H])[H]

$$$$
