0:0:0
     RDKit          3D

 95103  0  0  1  0  0  0  0  0999 V2000
  -29.8510  -19.9110   20.7810 C   0  0  0  0  0  3  0  0  0  0  0  0
  -30.7310  -19.6720   18.6270 C   0  0  0  0  0  3  0  0  0  0  0  0
  -30.0600  -20.5570   19.5380 C   0  0  0  0  0  0  0  0  0  0  0  0
  -30.2090  -18.5350   21.0770 C   0  0  0  0  0  0  0  0  0  0  0  0
  -30.9250  -17.6380   20.1670 C   0  0  0  0  0  0  0  0  0  0  0  0
  -31.1350  -18.2970   18.9030 C   0  0  0  0  0  0  0  0  0  0  0  0
  -31.4190  -16.1370   20.5920 C   0  0  0  0  0  0  0  0  0  0  0  0
  -31.5630  -15.9060   21.8290 N   0  0  0  0  0  0  0  0  0  0  0  0
  -31.3120  -16.7240   22.3740 H   0  0  0  0  0  0  0  0  0  0  0  0
  -31.8850  -14.8740   19.6550 C   0  0  0  0  0  0  0  0  0  0  0  0
  -31.4200  -12.6340   18.5680 C   0  0  0  0  0  2  0  0  0  0  0  0
  -30.3760  -12.7870   17.4370 C   0  0  0  0  0  2  0  0  0  0  0  0
  -28.9390  -12.7080   17.9900 C   0  0  0  0  0  2  0  0  0  0  0  0
  -28.7540  -13.5810   19.2560 C   0  0  0  0  0  3  0  0  0  0  0  0
  -29.8900  -13.3390   20.2700 C   0  0  0  0  0  2  0  0  0  0  0  0
  -31.1610  -13.6780   19.6030 N   0  0  0  0  0  0  0  0  0  0  0  0
  -32.9610  -14.9180   19.0450 O   0  0  0  0  0  0  0  0  0  0  0  0
  -26.5250  -14.3670   20.2510 C   0  0  0  0  0  0  0  0  0  0  0  0
  -25.4170  -13.6850   20.6750 C   0  0  0  0  0  0  0  0  0  0  0  0
  -25.7210  -12.2980   20.5170 C   0  0  0  0  0  0  0  0  0  0  0  0
  -27.4360  -13.4020   19.8570 N   0  0  0  0  0  0  0  0  0  0  0  0
  -26.9650  -12.1470   20.0780 N   0  0  0  0  0  0  0  0  0  0  0  0
  -24.8770  -11.1090   20.7030 C   0  0  0  0  0  0  0  0  0  0  0  0
  -25.2110  -10.1040   21.6380 C   0  0  0  0  0  3  0  0  0  0  0  0
  -24.3730   -8.9820   21.8120 C   0  0  0  0  0  3  0  0  0  0  0  0
  -23.1870   -8.8570   21.0520 C   0  0  0  0  0  0  0  0  0  0  0  0
  -22.8690   -9.8510   20.1080 C   0  0  0  0  0  3  0  0  0  0  0  0
  -23.7060  -10.9640   19.9320 C   0  0  0  0  0  3  0  0  0  0  0  0
  -22.3270   -7.7880   21.1340 O   0  0  0  0  0  0  0  0  0  0  0  0
  -22.0580   -7.1720   22.3290 C   0  0  0  0  0  0  0  0  0  0  0  0
  -21.5710   -7.8900   23.4440 C   0  0  0  0  0  3  0  0  0  0  0  0
  -21.2420   -7.2070   24.6320 C   0  0  0  0  0  3  0  0  0  0  0  0
  -21.3870   -5.8080   24.7040 C   0  0  0  0  0  0  0  0  0  0  0  0
  -21.8660   -5.0910   23.5930 C   0  0  0  0  0  3  0  0  0  0  0  0
  -22.1970   -5.7710   22.4080 C   0  0  0  0  0  0  0  0  0  0  0  0
  -22.6370   -5.0740   21.3330 F   0  0  0  0  0  0  0  0  0  0  0  0
  -21.0630   -5.1510   25.8420 F   0  0  0  0  0  0  0  0  0  0  0  0
  -24.1130  -14.2890   21.1130 C   0  0  0  0  0  0  0  0  0  0  0  0
  -23.4330  -13.6550   22.0610 N   0  0  0  0  0  0  0  0  0  0  0  0
  -23.7150  -15.3560   20.6500 O   0  0  0  0  0  0  0  0  0  0  0  0
  -23.7700  -12.7910   22.4590 H   0  0  0  0  0  0  0  0  0  0  0  0
  -22.5630  -14.0430   22.3980 H   0  0  0  0  0  0  0  0  0  0  0  0
  -26.8240  -15.7210   20.1440 N   0  0  0  0  0  0  0  0  0  0  0  0
  -26.1520  -16.4430   20.3840 H   0  0  0  0  0  0  0  0  0  0  0  0
  -27.6890  -16.0940   19.7750 H   0  0  0  0  0  0  0  0  0  0  0  0
  -29.5440  -22.0020   19.1370 C   0  0  0  0  0  3  0  0  0  0  0  0
  -29.1330  -23.1780   19.7910 C   0  0  0  0  0  3  0  0  0  0  0  0
  -28.3540  -24.4560   19.1510 C   0  0  0  0  0  2  0  0  0  0  0  0
  -28.5000  -25.9390   19.5470 O   0  0  0  0  0  0  0  0  0  0  0  0
  -24.7720  -31.3240   22.8550 C   0  0  0  0  0  0  0  0  0  0  0  0
  -27.3960  -26.8630   19.5240 C   0  0  0  0  0  0  0  0  0  0  0  0
  -23.5520  -29.9360   21.2240 C   0  0  0  0  0  3  0  0  0  0  0  0
  -24.9950  -28.4900   19.6740 C   0  0  0  0  0  0  0  0  0  0  0  0
  -26.0810  -30.3230   20.9520 C   0  0  0  0  0  2  0  0  0  0  0  0
  -26.1790  -28.9600   20.2520 C   0  0  0  0  0  0  0  0  0  0  0  0
  -27.3750  -28.1580   20.1770 C   0  0  0  0  0  3  0  0  0  0  0  0
  -26.1830  -26.5100   18.8830 C   0  0  0  0  0  3  0  0  0  0  0  0
  -25.0070  -27.2760   18.9770 C   0  0  0  0  0  3  0  0  0  0  0  0
  -23.7320  -29.3210   19.8130 C   0  0  0  0  0  2  0  0  0  0  0  0
  -24.8230  -30.5470   21.7310 N   0  0  0  0  0  0  0  0  0  0  0  0
  -23.7030  -31.5430   23.4450 O   0  0  0  0  0  0  0  0  0  0  0  0
  -22.9660  -28.8650   22.1770 C   0  0  0  0  0  0  0  0  0  0  0  0
  -21.6690  -28.5500   22.0210 N   0  0  0  0  0  0  0  0  0  0  0  0
  -23.6800  -28.3220   23.0240 O   0  0  0  0  0  0  0  0  0  0  0  0
  -21.1440  -29.0420   21.3100 H   0  0  0  0  0  0  0  0  0  0  0  0
  -18.4570  -26.9110   22.3680 C   0  0  0  0  0  0  0  0  0  0  0  0
  -20.9330  -27.5360   22.7830 C   0  0  0  0  0  3  0  0  0  0  0  0
  -21.2690  -26.1110   22.2840 C   0  0  0  0  0  2  0  0  0  0  0  0
  -20.2930  -25.6000   21.2200 C   0  0  0  0  0  2  0  0  0  0  0  0
  -18.8630  -25.5750   21.7680 C   0  0  0  0  0  2  0  0  0  0  0  0
  -19.4290  -27.8380   22.8310 C   0  0  0  0  0  0  0  0  0  0  0  0
  -18.9980  -29.0770   23.3510 C   0  0  0  0  0  3  0  0  0  0  0  0
  -17.6280  -29.3950   23.4140 C   0  0  0  0  0  3  0  0  0  0  0  0
  -16.6710  -28.4680   22.9700 C   0  0  0  0  0  3  0  0  0  0  0  0
  -17.0860  -27.2270   22.4520 C   0  0  0  0  0  3  0  0  0  0  0  0
  -26.0550  -31.9910   23.4420 C   0  0  0  0  0  3  0  0  0  0  0  0
  -25.6650  -33.3020   23.9860 N   0  0  0  0  0  0  0  0  0  0  0  0
  -25.8620  -34.4740   23.3680 C   0  0  0  0  0  0  0  0  0  0  0  0
  -26.4570  -34.5690   22.2920 O   0  0  0  0  0  0  0  0  0  0  0  0
  -25.1250  -33.2930   24.8390 H   0  0  0  0  0  0  0  0  0  0  0  0
  -23.9900  -36.1560   23.3890 C   0  0  0  0  0  1  0  0  0  0  0  0
  -25.3120  -35.7420   24.0520 C   0  0  0  0  0  3  0  0  0  0  0  0
  -27.4320  -36.6720   24.8740 C   0  0  0  0  0  1  0  0  0  0  0  0
  -26.2560  -36.8800   24.0310 N   0  0  0  0  0  0  0  0  0  0  0  0
  -25.7970  -37.7340   24.3350 H   0  0  0  0  0  0  0  0  0  0  0  0
  -26.7530  -31.1180   24.5560 C   0  0  1  0  0  0  0  0  0  0  0  0
  -25.7810  -30.5950   25.6390 C   0  0  0  0  0  1  0  0  0  0  0  0
  -27.4610  -29.8920   23.9320 C   0  0  0  0  0  1  0  0  0  0  0  0
  -27.8550  -31.9480   25.2550 C   0  0  0  0  0  1  0  0  0  0  0  0
  -30.1940  -18.5360   23.5890 C   0  0  0  0  0  2  0  0  0  0  0  0
  -29.7310  -18.0950   22.4060 C   0  0  0  0  0  3  0  0  0  0  0  0
  -31.7610  -17.5820   17.9140 O   0  0  0  0  0  0  0  0  0  0  0  0
  -31.2210  -17.7450   16.6070 C   0  0  0  0  0  2  0  0  0  0  0  0
  -31.6960  -17.1830   14.1720 C   0  0  0  0  0  1  0  0  0  0  0  0
  -32.1260  -16.9840   15.6300 C   0  0  0  0  0  2  0  0  0  0  0  0
  1  4  1  0
  2  6  2  0
  2  3  1  0
  3  1  2  0
  4 91  1  0
  5  7  1  0
  5  4  2  0
  6  5  1  0
  7  8  2  0
  8  9  1  0
 10  7  1  0
 11 16  1  0
 12 13  1  0
 12 11  1  0
 14 13  1  0
 14 21  1  0
 14 15  1  0
 16 10  1  0
 16 15  1  0
 17 10  2  0
 18 19  2  0
 19 38  1  0
 20 19  1  0
 20 23  1  0
 21 22  1  0
 21 18  1  0
 22 20  2  0
 23 24  1  0
 24 25  2  0
 26 29  1  0
 26 25  1  0
 27 26  2  0
 28 27  1  0
 28 23  2  0
 29 30  1  0
 30 35  2  0
 30 31  1  0
 31 32  2  0
 32 33  1  0
 33 37  1  0
 34 33  2  0
 35 34  1  0
 36 35  1  0
 38 39  1  0
 39 42  1  0
 39 41  1  0
 40 38  2  0
 43 18  1  0
 43 44  1  0
 45 43  1  0
 46  3  1  0
 46 47  2  0
 48 49  1  0
 48 47  1  0
 50 61  2  0
 51 49  1  0
 51 56  1  0
 52 60  1  0
 52 62  1  0
 53 59  1  0
 53 55  1  0
 54 60  1  0
 55 54  1  0
 56 55  2  0
 57 58  1  0
 57 51  2  0
 58 53  2  0
 59 52  1  0
 60 50  1  0
 62 64  2  0
 63 62  1  0
 65 63  1  0
 66 75  2  0
 66 71  1  0
 67 63  1  0
 67 71  1  0
 68 67  1  0
 69 70  1  0
 69 68  1  0
 70 66  1  0
 71 72  2  0
 72 73  1  0
 74 73  2  0
 75 74  1  0
 76 50  1  0
 76 77  1  0
 76 86  1  0
 77 80  1  0
 78 77  1  0
 78 82  1  0
 79 78  2  0
 82 81  1  0
 84 82  1  0
 84 85  1  0
 84 83  1  0
 86 89  1  1
 86 87  1  0
 88 86  1  0
 91 90  2  0
 92  6  1  0
 93 92  1  0
 94 95  1  0
 95 93  1  0
M  ISO  4   7 100  10 100  48 101  49 101
M  END
>  <TORSDO>  (1) 
F 23

>  <SCORE>  (1) 
-8.184

>  <name>  (1) 
0

>  <ligand_id>  (1) 
0

>  <original_smiles>  (1) 
[H]N=C(C(=O)N1C([H])([H])C([H])([H])C([H])([H])C([H])(n2nc(-c3c([H])c([H])c(Oc4c([H])c([H])c(F)c([H])c4F)c([H])c3[H])c(C(=O)N([H])[H])c2N([H])[H])C1([H])[H])c1c(OC([H])([H])C([H])([H])C([H])([H])[H])c([H])c(C([H])=C([H])C([H])([H])Oc2c([H])c([H])c3c(c2[H])C([H])([H])N(C(=O)C([H])(N([H])C(=O)C([H])(N([H])C([H])([H])[H])C([H])([H])[H])C(C([H])([H])[H])(C([H])([H])[H])C([H])([H])[H])C([H])(C(=O)N([H])C2([H])c4c([H])c([H])c([H])c([H])c4C([H])([H])C([H])([H])C2([H])[H])C3([H])[H])c([H])c1C([H])=C([H])[H]

>  <smiles>  (1) 
[H]N=C(C(=O)N1C([H])([H])C([H])([H])C([H])([H])C([H])(n2nc(-c3c([H])c([H])c(Oc4c([H])c([H])c(F)c([H])c4F)c([H])c3[H])c(C(=O)N([H])[H])c2N([H])[H])C1([H])[H])c1c(OC([H])([H])C([H])([H])C([H])([H])[H])c([H])c(C([H])=C([H])C([H])([H])Oc2c([H])c([H])c3c(c2[H])C([H])([H])N(C(=O)C([H])(N([H])C(=O)C([H])(N([H])C([H])([H])[H])C([H])([H])[H])C(C([H])([H])[H])(C([H])([H])[H])C([H])([H])[H])C([H])(C(=O)N([H])C2([H])c4c([H])c([H])c([H])c([H])c4C([H])([H])C([H])([H])C2([H])[H])C3([H])[H])c([H])c1C([H])=C([H])[H]

$$$$
1:0:0
     RDKit          3D

 92100  0  0  1  0  0  0  0  0999 V2000
  -29.7470  -17.7630   19.1260 C   0  0  0  0  0  3  0  0  0  0  0  0
  -29.9350  -18.3110   21.4360 C   0  0  0  0  0  3  0  0  0  0  0  0
  -29.5320  -19.1480   18.8130 C   0  0  0  0  0  0  0  0  0  0  0  0
  -29.5720  -20.1950   19.8070 C   0  0  0  0  0  0  0  0  0  0  0  0
  -29.9480  -17.2830   20.4460 C   0  0  0  0  0  0  0  0  0  0  0  0
  -29.7710  -19.7100   21.1340 C   0  0  0  0  0  0  0  0  0  0  0  0
  -29.8030  -20.5990   22.1560 F   0  0  0  0  0  0  0  0  0  0  0  0
  -30.7060  -14.7670   20.3450 C   0  0  0  0  0  0  0  0  0  0  0  0
  -30.5270  -12.4940   19.3280 C   0  0  0  0  0  2  0  0  0  0  0  0
  -29.5980  -12.6050   18.0990 C   0  0  0  0  0  2  0  0  0  0  0  0
  -28.1230  -12.4340   18.5090 C   0  0  0  0  0  2  0  0  0  0  0  0
  -27.7470  -13.2960   19.7450 C   0  0  0  0  0  3  0  0  0  0  0  0
  -28.7990  -13.1690   20.8690 C   0  0  0  0  0  2  0  0  0  0  0  0
  -30.1080  -13.5270   20.3030 N   0  0  0  0  0  0  0  0  0  0  0  0
  -31.8560  -14.9180   19.9210 O   0  0  0  0  0  0  0  0  0  0  0  0
  -29.9480  -15.8370   20.7850 N   0  0  0  0  0  0  0  0  0  0  0  0
  -29.1410  -15.5400   21.3150 H   0  0  0  0  0  0  0  0  0  0  0  0
  -25.3470  -13.8830   20.4400 C   0  0  0  0  0  0  0  0  0  0  0  0
  -24.2800  -13.1100   20.8080 C   0  0  0  0  0  0  0  0  0  0  0  0
  -24.7470  -11.7600   20.7930 C   0  0  0  0  0  0  0  0  0  0  0  0
  -26.3980  -13.0060   20.2210 N   0  0  0  0  0  0  0  0  0  0  0  0
  -26.0420  -11.7230   20.4940 N   0  0  0  0  0  0  0  0  0  0  0  0
  -24.0240  -10.4980   20.9900 C   0  0  0  0  0  0  0  0  0  0  0  0
  -24.4420   -9.5480   21.9490 C   0  0  0  0  0  3  0  0  0  0  0  0
  -23.7180   -8.3490   22.1330 C   0  0  0  0  0  3  0  0  0  0  0  0
  -22.5620   -8.0930   21.3590 C   0  0  0  0  0  0  0  0  0  0  0  0
  -22.1630   -9.0300   20.3900 C   0  0  0  0  0  3  0  0  0  0  0  0
  -22.8860  -10.2200   20.2050 C   0  0  0  0  0  3  0  0  0  0  0  0
  -21.8120   -6.9450   21.4510 O   0  0  0  0  0  0  0  0  0  0  0  0
  -21.7240   -6.2330   22.6200 C   0  0  0  0  0  0  0  0  0  0  0  0
  -21.2230   -6.8100   23.8080 C   0  0  0  0  0  3  0  0  0  0  0  0
  -21.0830   -6.0230   24.9690 C   0  0  0  0  0  3  0  0  0  0  0  0
  -21.4350   -4.6600   24.9430 C   0  0  0  0  0  0  0  0  0  0  0  0
  -21.9290   -4.0830   23.7610 C   0  0  0  0  0  3  0  0  0  0  0  0
  -22.0690   -4.8670   22.6020 C   0  0  0  0  0  0  0  0  0  0  0  0
  -22.5250   -4.2990   21.4590 F   0  0  0  0  0  0  0  0  0  0  0  0
  -21.2950   -3.9030   26.0570 F   0  0  0  0  0  0  0  0  0  0  0  0
  -22.8780  -13.5860   21.0650 C   0  0  0  0  0  0  0  0  0  0  0  0
  -22.1430  -12.8950   21.9290 N   0  0  0  0  0  0  0  0  0  0  0  0
  -22.4420  -14.6060   20.5330 O   0  0  0  0  0  0  0  0  0  0  0  0
  -22.5090  -12.0730   22.3870 H   0  0  0  0  0  0  0  0  0  0  0  0
  -21.2010  -13.1930   22.1330 H   0  0  0  0  0  0  0  0  0  0  0  0
  -25.5090  -15.2540   20.2530 N   0  0  0  0  0  0  0  0  0  0  0  0
  -24.7420  -15.9090   20.3430 H   0  0  0  0  0  0  0  0  0  0  0  0
  -26.3640  -15.6900   19.9290 H   0  0  0  0  0  0  0  0  0  0  0  0
  -28.1310  -20.1080   16.9610 C   0  0  0  0  0  2  0  0  0  0  0  0
  -29.1820  -19.3930   17.3980 C   0  0  0  0  0  3  0  0  0  0  0  0
  -29.4020  -21.6890   19.4000 C   0  0  0  0  0  3  0  0  0  0  0  0
  -29.0980  -22.9140   19.9830 C   0  0  0  0  0  3  0  0  0  0  0  0
  -28.9740  -24.1590   19.1350 C   0  0  0  0  0  3  0  0  0  0  0  0
  -28.6670  -25.5120   19.2380 C   0  0  0  0  0  3  0  0  0  0  0  0
  -28.3630  -26.4120   20.2760 O   0  0  0  0  0  0  0  0  0  0  0  0
  -24.5900  -31.8630   23.2100 C   0  0  0  0  0  0  0  0  0  0  0  0
  -27.2800  -27.3120   20.1600 C   0  0  0  0  0  0  0  0  0  0  0  0
  -23.4170  -30.4560   21.5540 C   0  0  0  0  0  3  0  0  0  0  0  0
  -24.8990  -28.9190   20.1360 C   0  0  0  0  0  0  0  0  0  0  0  0
  -25.9560  -30.7880   21.4050 C   0  0  0  0  0  2  0  0  0  0  0  0
  -26.0580  -29.4100   20.7500 C   0  0  0  0  0  0  0  0  0  0  0  0
  -27.2470  -28.6160   20.7610 C   0  0  0  0  0  3  0  0  0  0  0  0
  -26.0950  -26.8790   19.5250 C   0  0  0  0  0  3  0  0  0  0  0  0
  -24.9220  -27.6600   19.5140 C   0  0  0  0  0  3  0  0  0  0  0  0
  -23.6520  -29.7820   20.1750 C   0  0  0  0  0  2  0  0  0  0  0  0
  -24.6720  -31.0550   22.1120 N   0  0  0  0  0  0  0  0  0  0  0  0
  -23.4990  -32.1330   23.7340 O   0  0  0  0  0  0  0  0  0  0  0  0
  -22.7460  -29.4380   22.5080 C   0  0  0  0  0  0  0  0  0  0  0  0
  -21.4190  -29.2660   22.3790 N   0  0  0  0  0  0  0  0  0  0  0  0
  -23.4210  -28.8040   23.3240 O   0  0  0  0  0  0  0  0  0  0  0  0
  -20.9330  -29.8290   21.6940 H   0  0  0  0  0  0  0  0  0  0  0  0
  -18.0370  -28.0820   22.8800 C   0  0  0  0  0  0  0  0  0  0  0  0
  -20.5970  -28.3240   23.1430 C   0  0  0  0  0  3  0  0  0  0  0  0
  -20.6890  -26.8990   22.5510 C   0  0  0  0  0  2  0  0  0  0  0  0
  -19.5820  -26.5940   21.5380 C   0  0  0  0  0  2  0  0  0  0  0  0
  -18.2040  -26.7400   22.1890 C   0  0  0  0  0  2  0  0  0  0  0  0
  -19.1610  -28.8340   23.3150 C   0  0  0  0  0  0  0  0  0  0  0  0
  -18.9510  -30.0900   23.9230 C   0  0  0  0  0  3  0  0  0  0  0  0
  -17.6490  -30.5970   24.0990 C   0  0  0  0  0  3  0  0  0  0  0  0
  -16.5390  -29.8430   23.6790 C   0  0  0  0  0  3  0  0  0  0  0  0
  -16.7340  -28.5870   23.0760 C   0  0  0  0  0  3  0  0  0  0  0  0
  -25.8610  -32.5040   23.8470 C   0  0  0  0  0  3  0  0  0  0  0  0
  -26.3640  -31.7380   25.1340 C   0  0  1  0  0  0  0  0  0  0  0  0
  -25.2570  -31.5000   26.1870 C   0  0  0  0  0  1  0  0  0  0  0  0
  -26.9580  -30.3620   24.7580 C   0  0  0  0  0  1  0  0  0  0  0  0
  -27.5050  -32.5380   25.8060 C   0  0  0  0  0  1  0  0  0  0  0  0
  -25.5390  -33.9020   24.1710 N   0  0  0  0  0  0  0  0  0  0  0  0
  -25.8650  -34.9540   23.4090 C   0  0  0  0  0  0  0  0  0  0  0  0
  -26.5370  -34.8510   22.3790 O   0  0  0  0  0  0  0  0  0  0  0  0
  -24.9380  -34.0530   24.9680 H   0  0  0  0  0  0  0  0  0  0  0  0
  -24.1220  -36.7350   23.0480 C   0  0  0  0  0  1  0  0  0  0  0  0
  -25.3670  -36.3420   23.8600 C   0  0  0  0  0  3  0  0  0  0  0  0
  -27.4910  -37.2490   24.6920 C   0  0  0  0  0  1  0  0  0  0  0  0
  -26.3900  -37.4020   23.7440 N   0  0  0  0  0  0  0  0  0  0  0  0
  -25.9770  -38.3190   23.8860 H   0  0  0  0  0  0  0  0  0  0  0  0
  1  5  1  0
  3  1  2  0
  3  4  1  0
  4  6  2  0
  5 16  1  0
  5  2  2  0
  6  2  1  0
  6  7  1  0
  8 16  1  0
  9 14  1  0
 10 11  1  0
 10  9  1  0
 12 11  1  0
 12 21  1  0
 12 13  1  0
 14  8  1  0
 14 13  1  0
 15  8  2  0
 16 17  1  0
 18 19  2  0
 19 38  1  0
 20 19  1  0
 20 23  1  0
 21 18  1  0
 21 22  1  0
 22 20  2  0
 23 24  1  0
 24 25  2  0
 26 29  1  0
 26 25  1  0
 27 26  2  0
 28 27  1  0
 28 23  2  0
 29 30  1  0
 30 31  1  0
 31 32  2  0
 33 32  1  0
 33 37  1  0
 34 33  2  0
 35 30  2  0
 35 34  1  0
 36 35  1  0
 38 39  1  0
 39 42  1  0
 39 41  1  0
 40 38  2  0
 43 44  1  0
 43 18  1  0
 45 43  1  0
 46 47  2  0
 47  3  1  0
 48  4  1  0
 48 49  2  0
 50 51  2  0
 50 49  1  0
 51 52  1  0
 53 64  2  0
 54 52  1  0
 54 59  1  0
 55 63  1  0
 55 65  1  0
 56 62  1  0
 56 58  1  0
 57 63  1  0
 58 59  2  0
 58 57  1  0
 60 54  2  0
 61 60  1  0
 61 56  2  0
 62 55  1  0
 63 53  1  0
 65 67  2  0
 66 65  1  0
 68 66  1  0
 69 78  2  0
 69 74  1  0
 70 66  1  0
 70 74  1  0
 71 70  1  0
 72 73  1  0
 72 71  1  0
 73 69  1  0
 74 75  2  0
 75 76  1  0
 77 76  2  0
 78 77  1  0
 79 53  1  0
 79 84  1  0
 79 80  1  0
 80 83  1  1
 80 81  1  0
 82 80  1  0
 84 87  1  0
 85 89  1  0
 85 84  1  0
 86 85  2  0
 89 88  1  0
 91 89  1  0
 91 92  1  0
 91 90  1  0
M  ISO  4   8 100  16 100  51 101  52 101
M  END
>  <TORSDO>  (2) 
F 19

>  <SCORE>  (2) 
-14.144

>  <name>  (2) 
1

>  <ligand_id>  (2) 
1

>  <original_smiles>  (2) 
[H]C([H])=C([H])c1c([H])c(N([H])C(=O)N2C([H])([H])C([H])([H])C([H])([H])C([H])(n3nc(-c4c([H])c([H])c(Oc5c([H])c([H])c(F)c([H])c5F)c([H])c4[H])c(C(=O)N([H])[H])c3N([H])[H])C2([H])[H])c([H])c(F)c1C([H])=C([H])C([H])=C([H])Oc1c([H])c([H])c2c(c1[H])C([H])([H])N(C(=O)C([H])(N([H])C(=O)C([H])(N([H])C([H])([H])[H])C([H])([H])[H])C(C([H])([H])[H])(C([H])([H])[H])C([H])([H])[H])C([H])(C(=O)N([H])C1([H])c3c([H])c([H])c([H])c([H])c3C([H])([H])C([H])([H])C1([H])[H])C2([H])[H]

>  <smiles>  (2) 
[H]C([H])=C([H])c1c([H])c(N([H])C(=O)N2C([H])([H])C([H])([H])C([H])([H])C([H])(n3nc(-c4c([H])c([H])c(Oc5c([H])c([H])c(F)c([H])c5F)c([H])c4[H])c(C(=O)N([H])[H])c3N([H])[H])C2([H])[H])c([H])c(F)c1C([H])=C([H])C([H])=C([H])Oc1c([H])c([H])c2c(c1[H])C([H])([H])N(C(=O)C([H])(N([H])C(=O)C([H])(N([H])C([H])([H])[H])C([H])([H])[H])C(C([H])([H])[H])(C([H])([H])[H])C([H])([H])[H])C([H])(C(=O)N([H])C1([H])c3c([H])c([H])c([H])c([H])c3C([H])([H])C([H])([H])C1([H])[H])C2([H])[H]

$$$$
2:0:0
     RDKit          3D

 96104  0  0  1  0  0  0  0  0999 V2000
  -30.2750  -21.4150   21.1590 C   0  0  0  0  0  3  0  0  0  0  0  0
  -31.9360  -22.9140   20.2180 C   0  0  0  0  0  3  0  0  0  0  0  0
  -31.1870  -20.3340   21.1240 C   0  0  0  0  0  0  0  0  0  0  0  0
  -32.8890  -21.8730   20.2400 C   0  0  0  0  0  0  0  0  0  0  0  0
  -32.5140  -20.5620   20.6580 C   0  0  0  0  0  0  0  0  0  0  0  0
  -30.6200  -22.6960   20.6760 C   0  0  0  0  0  0  0  0  0  0  0  0
  -33.5090  -19.4000   20.5810 C   0  0  0  0  0  1  0  0  0  0  0  0
  -34.2530  -22.2220   19.7650 C   0  0  0  0  0  0  0  0  0  0  0  0
  -35.3720  -22.1430   20.7930 C   0  0  0  0  0  1  0  0  0  0  0  0
  -34.4930  -22.6370   18.6280 O   0  0  0  0  0  0  0  0  0  0  0  0
  -30.7050  -18.9980   21.5560 C   0  0  0  0  0  3  0  0  0  0  0  0
  -30.7610  -17.8950   20.7790 C   0  0  0  0  0  3  0  0  0  0  0  0
  -30.7340  -14.5420   20.1030 C   0  0  0  0  0  0  0  0  0  0  0  0
  -30.3340  -12.3670   19.0120 C   0  0  0  0  0  2  0  0  0  0  0  0
  -29.3340  -12.5430   17.8520 C   0  0  0  0  0  2  0  0  0  0  0  0
  -27.8710  -12.4860   18.3470 C   0  0  0  0  0  2  0  0  0  0  0  0
  -27.6090  -13.2930   19.6500 C   0  0  0  0  0  3  0  0  0  0  0  0
  -28.7390  -13.1040   20.6900 C   0  0  0  0  0  2  0  0  0  0  0  0
  -30.0130  -13.3870   20.0220 N   0  0  0  0  0  0  0  0  0  0  0  0
  -31.9040  -14.6130   19.7210 O   0  0  0  0  0  0  0  0  0  0  0  0
  -30.3470  -16.5580   21.2240 C   0  0  0  0  0  0  0  0  0  0  0  0
  -29.5330  -16.2410   18.9350 C   0  0  0  0  0  1  0  0  0  0  0  0
  -30.0260  -15.6930   20.2200 N   0  0  0  0  0  0  0  0  0  0  0  0
  -30.3690  -16.2020   22.4080 O   0  0  0  0  0  0  0  0  0  0  0  0
  -25.2550  -13.8840   20.5110 C   0  0  0  0  0  0  0  0  0  0  0  0
  -24.2030  -13.1010   20.9060 C   0  0  0  0  0  0  0  0  0  0  0  0
  -24.6580  -11.7500   20.8110 C   0  0  0  0  0  0  0  0  0  0  0  0
  -26.2870  -13.0070   20.2010 N   0  0  0  0  0  0  0  0  0  0  0  0
  -25.9330  -11.7180   20.4410 N   0  0  0  0  0  0  0  0  0  0  0  0
  -23.9360  -10.4850   21.0000 C   0  0  0  0  0  0  0  0  0  0  0  0
  -24.3860   -9.5100   21.9180 C   0  0  0  0  0  3  0  0  0  0  0  0
  -23.6630   -8.3110   22.0990 C   0  0  0  0  0  3  0  0  0  0  0  0
  -22.4760   -8.0790   21.3630 C   0  0  0  0  0  0  0  0  0  0  0  0
  -22.0480   -9.0440   20.4330 C   0  0  0  0  0  3  0  0  0  0  0  0
  -22.7690  -10.2350   20.2500 C   0  0  0  0  0  3  0  0  0  0  0  0
  -21.7210   -6.9340   21.4520 O   0  0  0  0  0  0  0  0  0  0  0  0
  -21.6570   -6.2010   22.6100 C   0  0  0  0  0  0  0  0  0  0  0  0
  -21.1810   -6.7560   23.8180 C   0  0  0  0  0  3  0  0  0  0  0  0
  -21.0690   -5.9470   24.9680 C   0  0  0  0  0  3  0  0  0  0  0  0
  -21.4210   -4.5860   24.9090 C   0  0  0  0  0  0  0  0  0  0  0  0
  -21.8860   -4.0310   23.7040 C   0  0  0  0  0  3  0  0  0  0  0  0
  -22.0010   -4.8350   22.5570 C   0  0  0  0  0  0  0  0  0  0  0  0
  -22.4280   -4.2890   21.3920 F   0  0  0  0  0  0  0  0  0  0  0  0
  -21.3070   -3.8060   26.0100 F   0  0  0  0  0  0  0  0  0  0  0  0
  -22.8230  -13.5740   21.2580 C   0  0  0  0  0  0  0  0  0  0  0  0
  -22.1310  -12.8510   22.1340 N   0  0  0  0  0  0  0  0  0  0  0  0
  -22.3640  -14.6160   20.7940 O   0  0  0  0  0  0  0  0  0  0  0  0
  -22.5150  -12.0060   22.5270 H   0  0  0  0  0  0  0  0  0  0  0  0
  -21.2080  -13.1520   22.4140 H   0  0  0  0  0  0  0  0  0  0  0  0
  -25.4170  -15.2610   20.3770 N   0  0  0  0  0  0  0  0  0  0  0  0
  -24.6860  -15.9210   20.6230 H   0  0  0  0  0  0  0  0  0  0  0  0
  -26.2880  -15.7160   20.1350 H   0  0  0  0  0  0  0  0  0  0  0  0
  -29.6420  -23.6720   20.6810 O   0  0  0  0  0  0  0  0  0  0  0  0
  -29.7980  -24.8040   19.8180 C   0  0  0  0  0  2  0  0  0  0  0  0
  -28.4310  -25.4920   19.6280 C   0  0  0  0  0  2  0  0  0  0  0  0
  -28.4000  -26.7980   20.2140 O   0  0  0  0  0  0  0  0  0  0  0  0
  -24.5510  -31.9420   23.2800 C   0  0  0  0  0  0  0  0  0  0  0  0
  -27.2060  -27.4970   20.1980 C   0  0  0  0  0  0  0  0  0  0  0  0
  -23.3510  -30.5430   21.6330 C   0  0  0  0  0  3  0  0  0  0  0  0
  -24.8060  -29.0050   20.2140 C   0  0  0  0  0  0  0  0  0  0  0  0
  -25.8790  -30.8930   21.4500 C   0  0  0  0  0  2  0  0  0  0  0  0
  -25.9620  -29.5230   20.8090 C   0  0  0  0  0  0  0  0  0  0  0  0
  -27.1610  -28.7740   20.8020 C   0  0  0  0  0  3  0  0  0  0  0  0
  -26.0240  -26.9940   19.6010 C   0  0  0  0  0  3  0  0  0  0  0  0
  -24.8300  -27.7380   19.6090 C   0  0  0  0  0  3  0  0  0  0  0  0
  -23.5640  -29.8680   20.2530 C   0  0  0  0  0  2  0  0  0  0  0  0
  -24.6120  -31.1390   22.1800 N   0  0  0  0  0  0  0  0  0  0  0  0
  -23.4670  -32.2190   23.8120 O   0  0  0  0  0  0  0  0  0  0  0  0
  -22.6920  -29.5210   22.5870 C   0  0  0  0  0  0  0  0  0  0  0  0
  -21.3700  -29.3340   22.4420 N   0  0  0  0  0  0  0  0  0  0  0  0
  -23.3670  -28.9010   23.4120 O   0  0  0  0  0  0  0  0  0  0  0  0
  -20.8880  -29.8870   21.7480 H   0  0  0  0  0  0  0  0  0  0  0  0
  -17.9910  -28.1420   22.9020 C   0  0  0  0  0  0  0  0  0  0  0  0
  -20.5450  -28.3980   23.2050 C   0  0  0  0  0  3  0  0  0  0  0  0
  -20.6540  -26.9660   22.6330 C   0  0  0  0  0  2  0  0  0  0  0  0
  -19.5640  -26.6420   21.6070 C   0  0  0  0  0  2  0  0  0  0  0  0
  -18.1740  -26.7910   22.2340 C   0  0  0  0  0  2  0  0  0  0  0  0
  -19.1050  -28.9030   23.3450 C   0  0  0  0  0  0  0  0  0  0  0  0
  -18.8800  -30.1690   23.9280 C   0  0  0  0  0  3  0  0  0  0  0  0
  -17.5740  -30.6720   24.0780 C   0  0  0  0  0  3  0  0  0  0  0  0
  -16.4740  -29.9060   23.6530 C   0  0  0  0  0  3  0  0  0  0  0  0
  -16.6830  -28.6430   23.0710 C   0  0  0  0  0  3  0  0  0  0  0  0
  -25.8350  -32.5700   23.9070 C   0  0  0  0  0  3  0  0  0  0  0  0
  -25.5350  -33.9730   24.2140 N   0  0  0  0  0  0  0  0  0  0  0  0
  -25.8940  -35.0130   23.4490 C   0  0  0  0  0  0  0  0  0  0  0  0
  -26.5850  -34.8890   22.4340 O   0  0  0  0  0  0  0  0  0  0  0  0
  -24.9270  -34.1460   25.0020 H   0  0  0  0  0  0  0  0  0  0  0  0
  -24.2030  -36.8250   23.0240 C   0  0  0  0  0  1  0  0  0  0  0  0
  -25.4100  -36.4110   23.8790 C   0  0  0  0  0  3  0  0  0  0  0  0
  -27.5280  -37.2730   24.7750 C   0  0  0  0  0  1  0  0  0  0  0  0
  -26.4620  -37.4480   23.7930 N   0  0  0  0  0  0  0  0  0  0  0  0
  -26.0630  -38.3760   23.9210 H   0  0  0  0  0  0  0  0  0  0  0  0
  -26.3330  -31.8080   25.1960 C   0  0  1  0  0  0  0  0  0  0  0  0
  -25.2260  -31.5860   26.2530 C   0  0  0  0  0  1  0  0  0  0  0  0
  -26.9150  -30.4250   24.8230 C   0  0  0  0  0  1  0  0  0  0  0  0
  -27.4780  -32.6050   25.8650 C   0  0  0  0  0  1  0  0  0  0  0  0
  2  4  2  0
  2  6  1  0
  3  1  1  0
  3 11  1  0
  4  5  1  0
  5  3  2  0
  6 53  1  0
  6  1  2  0
  7  5  1  0
  8  4  1  0
  8  9  1  0
 10  8  2  0
 12 21  1  0
 12 11  2  0
 13 23  1  0
 14 19  1  0
 15 16  1  0
 15 14  1  0
 17 16  1  0
 17 28  1  0
 17 18  1  0
 19 13  1  0
 19 18  1  0
 20 13  2  0
 21 24  2  0
 22 23  1  0
 23 21  1  0
 25 26  2  0
 26 45  1  0
 27 26  1  0
 27 30  1  0
 28 29  1  0
 28 25  1  0
 29 27  2  0
 30 31  1  0
 31 32  2  0
 33 36  1  0
 33 32  1  0
 34 33  2  0
 35 34  1  0
 35 30  2  0
 36 37  1  0
 37 38  1  0
 38 39  2  0
 40 39  1  0
 40 44  1  0
 41 40  2  0
 42 37  2  0
 42 41  1  0
 43 42  1  0
 45 46  1  0
 46 49  1  0
 46 48  1  0
 47 45  2  0
 50 25  1  0
 50 51  1  0
 52 50  1  0
 54 53  1  0
 55 54  1  0
 55 56  1  0
 57 68  2  0
 58 56  1  0
 58 63  1  0
 59 67  1  0
 59 69  1  0
 60 66  1  0
 60 62  1  0
 61 67  1  0
 62 61  1  0
 63 62  2  0
 64 65  1  0
 64 58  2  0
 65 60  2  0
 66 59  1  0
 67 57  1  0
 69 71  2  0
 70 69  1  0
 72 70  1  0
 73 82  2  0
 73 78  1  0
 74 70  1  0
 74 78  1  0
 75 74  1  0
 76 77  1  0
 76 75  1  0
 77 73  1  0
 78 79  2  0
 79 80  1  0
 81 80  2  0
 82 81  1  0
 83 57  1  0
 83 84  1  0
 83 93  1  0
 84 87  1  0
 85 89  1  0
 85 84  1  0
 86 85  2  0
 89 88  1  0
 91 89  1  0
 91 92  1  0
 91 90  1  0
 93 96  1  1
 93 94  1  0
 95 93  1  0
M  ISO  4  13 100  23 100  55 101  56 101
M  END
>  <TORSDO>  (3) 
F 21

>  <SCORE>  (3) 
-13.836

>  <name>  (3) 
2

>  <ligand_id>  (3) 
2

>  <original_smiles>  (3) 
[H]C(C(=O)N(C(=O)N1C([H])([H])C([H])([H])C([H])([H])C([H])(n2nc(-c3c([H])c([H])c(Oc4c([H])c([H])c(F)c([H])c4F)c([H])c3[H])c(C(=O)N([H])[H])c2N([H])[H])C1([H])[H])C([H])([H])[H])=C([H])c1c([H])c(OC([H])([H])C([H])([H])Oc2c([H])c([H])c3c(c2[H])C([H])([H])N(C(=O)C([H])(N([H])C(=O)C([H])(N([H])C([H])([H])[H])C([H])([H])[H])C(C([H])([H])[H])(C([H])([H])[H])C([H])([H])[H])C([H])(C(=O)N([H])C2([H])c4c([H])c([H])c([H])c([H])c4C([H])([H])C([H])([H])C2([H])[H])C3([H])[H])c([H])c(C(=O)C([H])([H])[H])c1C([H])([H])[H]

>  <smiles>  (3) 
[H]C(C(=O)N(C(=O)N1C([H])([H])C([H])([H])C([H])([H])C([H])(n2nc(-c3c([H])c([H])c(Oc4c([H])c([H])c(F)c([H])c4F)c([H])c3[H])c(C(=O)N([H])[H])c2N([H])[H])C1([H])[H])C([H])([H])[H])=C([H])c1c([H])c(OC([H])([H])C([H])([H])Oc2c([H])c([H])c3c(c2[H])C([H])([H])N(C(=O)C([H])(N([H])C(=O)C([H])(N([H])C([H])([H])[H])C([H])([H])[H])C(C([H])([H])[H])(C([H])([H])[H])C([H])([H])[H])C([H])(C(=O)N([H])C2([H])c4c([H])c([H])c([H])c([H])c4C([H])([H])C([H])([H])C2([H])[H])C3([H])[H])c([H])c(C(=O)C([H])([H])[H])c1C([H])([H])[H]

$$$$
3:0:0
     RDKit          3D

 97105  0  0  1  0  0  0  0  0999 V2000
  -29.5700  -18.5840   22.4300 C   0  0  0  0  0  3  0  0  0  0  0  0
  -30.6530  -19.2830   22.9740 C   0  0  0  0  0  3  0  0  0  0  0  0
  -29.6620  -17.9660   21.1640 C   0  0  0  0  0  0  0  0  0  0  0  0
  -30.9050  -18.0390   20.4580 C   0  0  0  0  0  0  0  0  0  0  0  0
  -31.7400  -19.6420   22.1560 C   0  0  0  0  0  0  0  0  0  0  0  0
  -31.7420  -19.2280   20.7950 C   0  0  0  0  0  0  0  0  0  0  0  0
  -31.9010  -14.2210   20.1660 C   0  0  0  0  0  0  0  0  0  0  0  0
  -31.5820  -11.8000   19.6040 C   0  0  0  0  0  2  0  0  0  0  0  0
  -30.6520  -11.7230   18.3740 C   0  0  0  0  0  2  0  0  0  0  0  0
  -29.1760  -11.7020   18.8160 C   0  0  0  0  0  2  0  0  0  0  0  0
  -28.8600  -12.7960   19.8750 C   0  0  0  0  0  3  0  0  0  0  0  0
  -29.9180  -12.8350   20.9990 C   0  0  0  0  0  2  0  0  0  0  0  0
  -31.2280  -13.0270   20.3650 N   0  0  0  0  0  0  0  0  0  0  0  0
  -33.0650  -14.1710   19.7550 O   0  0  0  0  0  0  0  0  0  0  0  0
  -31.4360  -16.7110   19.7790 C   0  0  0  0  0  0  0  0  0  0  0  0
  -31.2150  -15.4310   20.3190 N   0  0  0  0  0  0  0  0  0  0  0  0
  -32.1110  -16.8480   18.7540 O   0  0  0  0  0  0  0  0  0  0  0  0
  -30.4370  -15.3830   20.9490 H   0  0  0  0  0  0  0  0  0  0  0  0
  -26.6280  -13.6710   20.7770 C   0  0  0  0  0  0  0  0  0  0  0  0
  -25.4640  -13.0400   21.1240 C   0  0  0  0  0  0  0  0  0  0  0  0
  -25.7010  -11.6440   20.9360 C   0  0  0  0  0  0  0  0  0  0  0  0
  -27.5050  -12.6680   20.4010 N   0  0  0  0  0  0  0  0  0  0  0  0
  -26.9570  -11.4360   20.5570 N   0  0  0  0  0  0  0  0  0  0  0  0
  -24.7850  -10.5000   21.0350 C   0  0  0  0  0  0  0  0  0  0  0  0
  -25.0810   -9.3880   21.8520 C   0  0  0  0  0  3  0  0  0  0  0  0
  -24.1760   -8.3090   21.9520 C   0  0  0  0  0  3  0  0  0  0  0  0
  -22.9580   -8.3360   21.2310 C   0  0  0  0  0  0  0  0  0  0  0  0
  -22.6790   -9.4360   20.4010 C   0  0  0  0  0  3  0  0  0  0  0  0
  -23.5820  -10.5060   20.2990 C   0  0  0  0  0  3  0  0  0  0  0  0
  -22.0270   -7.3250   21.2450 O   0  0  0  0  0  0  0  0  0  0  0  0
  -21.7990   -6.5740   22.3680 C   0  0  0  0  0  0  0  0  0  0  0  0
  -21.4450   -7.1630   23.6030 C   0  0  0  0  0  3  0  0  0  0  0  0
  -21.1490   -6.3490   24.7150 C   0  0  0  0  0  3  0  0  0  0  0  0
  -21.2010   -4.9470   24.5940 C   0  0  0  0  0  0  0  0  0  0  0  0
  -21.5480   -4.3570   23.3650 C   0  0  0  0  0  3  0  0  0  0  0  0
  -21.8440   -5.1690   22.2560 C   0  0  0  0  0  0  0  0  0  0  0  0
  -22.1570   -4.5960   21.0680 F   0  0  0  0  0  0  0  0  0  0  0  0
  -20.9110   -4.1630   25.6590 F   0  0  0  0  0  0  0  0  0  0  0  0
  -24.1740  -13.7030   21.5120 C   0  0  0  0  0  0  0  0  0  0  0  0
  -23.3870  -13.0650   22.3730 N   0  0  0  0  0  0  0  0  0  0  0  0
  -23.8780  -14.8180   21.0860 O   0  0  0  0  0  0  0  0  0  0  0  0
  -23.6360  -12.1580   22.7410 H   0  0  0  0  0  0  0  0  0  0  0  0
  -22.5220  -13.4940   22.6640 H   0  0  0  0  0  0  0  0  0  0  0  0
  -27.0090  -15.0080   20.7250 N   0  0  0  0  0  0  0  0  0  0  0  0
  -26.3630  -15.7560   20.9460 H   0  0  0  0  0  0  0  0  0  0  0  0
  -27.8840  -15.3440   20.3430 H   0  0  0  0  0  0  0  0  0  0  0  0
  -32.8230  -20.7610   24.0070 C   0  0  0  0  0  1  0  0  0  0  0  0
  -32.7680  -20.4330   22.6230 O   0  0  0  0  0  0  0  0  0  0  0  0
  -28.4300  -17.3400   20.6050 C   0  0  0  0  0  3  0  0  0  0  0  0
  -27.2550  -17.9580   20.3790 C   0  0  0  0  0  3  0  0  0  0  0  0
  -25.0330  -17.9130   19.3620 C   0  0  0  0  0  2  0  0  0  0  0  0
  -26.1010  -17.2630   19.8480 C   0  0  0  0  0  3  0  0  0  0  0  0
  -32.3360  -20.1310   19.8540 O   0  0  0  0  0  0  0  0  0  0  0  0
  -32.6750  -21.6130   20.0170 C   0  0  0  0  0  2  0  0  0  0  0  0
  -31.7490  -22.8890   20.4980 C   0  0  0  0  0  2  0  0  0  0  0  0
  -32.0270  -24.4040   19.9010 C   0  0  0  0  0  2  0  0  0  0  0  0
  -31.7080  -25.7380   20.5640 O   0  0  0  0  0  0  0  0  0  0  0  0
  -26.8820  -30.0390   23.9090 C   0  0  0  0  0  0  0  0  0  0  0  0
  -30.4930  -26.4740   20.4720 C   0  0  0  0  0  0  0  0  0  0  0  0
  -26.1010  -28.8540   21.8880 C   0  0  0  0  0  3  0  0  0  0  0  0
  -27.9300  -27.8040   20.4200 C   0  0  0  0  0  0  0  0  0  0  0  0
  -28.5730  -29.4980   22.1310 C   0  0  0  0  0  2  0  0  0  0  0  0
  -28.9360  -28.2880   21.2640 C   0  0  0  0  0  0  0  0  0  0  0  0
  -30.2130  -27.6330   21.2850 C   0  0  0  0  0  3  0  0  0  0  0  0
  -29.4530  -26.0640   19.6090 C   0  0  0  0  0  3  0  0  0  0  0  0
  -28.1960  -26.7060   19.5830 C   0  0  0  0  0  3  0  0  0  0  0  0
  -26.5770  -28.4920   20.4530 C   0  0  0  0  0  2  0  0  0  0  0  0
  -27.1940  -29.4740   22.7030 N   0  0  0  0  0  0  0  0  0  0  0  0
  -25.7130  -30.0700   24.3230 O   0  0  0  0  0  0  0  0  0  0  0  0
  -25.4830  -27.5970   22.5480 C   0  0  0  0  0  0  0  0  0  0  0  0
  -24.2780  -27.2050   22.1000 N   0  0  0  0  0  0  0  0  0  0  0  0
  -26.0960  -26.9850   23.4270 O   0  0  0  0  0  0  0  0  0  0  0  0
  -23.8330  -27.7650   21.3850 H   0  0  0  0  0  0  0  0  0  0  0  0
  -21.2510  -25.2870   21.5880 C   0  0  0  0  0  0  0  0  0  0  0  0
  -23.5390  -26.0220   22.5460 C   0  0  0  0  0  3  0  0  0  0  0  0
  -24.1060  -24.7360   21.8990 C   0  0  0  0  0  2  0  0  0  0  0  0
  -23.3840  -24.3430   20.6060 C   0  0  0  0  0  2  0  0  0  0  0  0
  -21.8930  -24.1110   20.8710 C   0  0  0  0  0  2  0  0  0  0  0  0
  -22.0270  -26.1930   22.3610 C   0  0  0  0  0  0  0  0  0  0  0  0
  -21.3840  -27.2880   22.9790 C   0  0  0  0  0  3  0  0  0  0  0  0
  -19.9980  -27.4840   22.8360 C   0  0  0  0  0  3  0  0  0  0  0  0
  -19.2340  -26.5760   22.0830 C   0  0  0  0  0  3  0  0  0  0  0  0
  -19.8590  -25.4790   21.4660 C   0  0  0  0  0  3  0  0  0  0  0  0
  -27.9720  -30.6890   24.8140 C   0  0  0  0  0  3  0  0  0  0  0  0
  -27.4990  -32.0310   25.1920 N   0  0  0  0  0  0  0  0  0  0  0  0
  -27.8910  -33.1700   24.6080 C   0  0  0  0  0  0  0  0  0  0  0  0
  -28.7540  -33.2060   23.7270 O   0  0  0  0  0  0  0  0  0  0  0  0
  -26.7490  -32.0690   25.8660 H   0  0  0  0  0  0  0  0  0  0  0  0
  -26.1320  -34.8880   24.0740 C   0  0  0  0  0  1  0  0  0  0  0  0
  -27.2230  -34.4770   25.0760 C   0  0  0  0  0  3  0  0  0  0  0  0
  -29.0820  -35.4060   26.3850 C   0  0  0  0  0  1  0  0  0  0  0  0
  -28.1750  -35.5960   25.2560 N   0  0  0  0  0  0  0  0  0  0  0  0
  -27.6780  -36.4710   25.3930 H   0  0  0  0  0  0  0  0  0  0  0  0
  -28.3000  -29.8370   26.1030 C   0  0  1  0  0  0  0  0  0  0  0  0
  -27.0490  -29.4450   26.9230 C   0  0  0  0  0  1  0  0  0  0  0  0
  -29.0410  -28.5330   25.7230 C   0  0  0  0  0  1  0  0  0  0  0  0
  -29.2510  -30.6310   27.0290 C   0  0  0  0  0  1  0  0  0  0  0  0
  1  2  1  0
  3  1  2  0
  4  6  2  0
  4  3  1  0
  5 48  1  0
  5  2  2  0
  6  5  1  0
  7 16  1  0
  7 13  1  0
  8 13  1  0
  9 10  1  0
  9  8  1  0
 11 10  1  0
 11 22  1  0
 11 12  1  0
 13 12  1  0
 14  7  2  0
 15 16  1  0
 15  4  1  0
 16 18  1  0
 17 15  2  0
 19 20  2  0
 20 39  1  0
 21 24  1  0
 21 20  1  0
 22 23  1  0
 22 19  1  0
 23 21  2  0
 24 25  1  0
 25 26  2  0
 27 30  1  0
 27 26  1  0
 28 27  2  0
 29 28  1  0
 29 24  2  0
 30 31  1  0
 31 32  1  0
 32 33  2  0
 34 33  1  0
 34 38  1  0
 35 34  2  0
 36 31  2  0
 36 35  1  0
 37 36  1  0
 39 40  1  0
 40 43  1  0
 40 42  1  0
 41 39  2  0
 44 19  1  0
 44 45  1  0
 46 44  1  0
 48 47  1  0
 49  3  1  0
 50 49  2  0
 51 52  2  0
 52 50  1  0
 53 54  1  0
 53  6  1  0
 54 55  1  0
 56 55  1  0
 56 57  1  0
 58 69  2  0
 59 57  1  0
 59 64  1  0
 60 70  1  0
 60 68  1  0
 61 67  1  0
 61 63  1  0
 62 68  1  0
 63 64  2  0
 63 62  1  0
 65 59  2  0
 66 65  1  0
 66 61  2  0
 67 60  1  0
 68 58  1  0
 70 72  2  0
 71 70  1  0
 73 71  1  0
 74 79  1  0
 75 71  1  0
 76 75  1  0
 77 78  1  0
 77 76  1  0
 78 74  1  0
 79 75  1  0
 79 80  2  0
 81 80  1  0
 82 81  2  0
 83 74  2  0
 83 82  1  0
 84 58  1  0
 84 85  1  0
 84 94  1  0
 85 88  1  0
 86 90  1  0
 86 85  1  0
 87 86  2  0
 90 89  1  0
 90 92  1  0
 92 93  1  0
 92 91  1  0
 94 95  1  1
 94 97  1  0
 96 94  1  0
M  ISO  4   7 100  16 100  56 101  57 101
M  END
>  <TORSDO>  (4) 
F 23

>  <SCORE>  (4) 
-6.982

>  <name>  (4) 
3

>  <ligand_id>  (4) 
3

>  <original_smiles>  (4) 
[H]C([H])=C([H])C([H])=C([H])c1c([H])c([H])c(OC([H])([H])[H])c(OC([H])([H])C([H])([H])C([H])([H])Oc2c([H])c([H])c3c(c2[H])C([H])([H])N(C(=O)C([H])(N([H])C(=O)C([H])(N([H])C([H])([H])[H])C([H])([H])[H])C(C([H])([H])[H])(C([H])([H])[H])C([H])([H])[H])C([H])(C(=O)N([H])C2([H])c4c([H])c([H])c([H])c([H])c4C([H])([H])C([H])([H])C2([H])[H])C3([H])[H])c1C(=O)N([H])C(=O)N1C([H])([H])C([H])([H])C([H])([H])C([H])(n2nc(-c3c([H])c([H])c(Oc4c([H])c([H])c(F)c([H])c4F)c([H])c3[H])c(C(=O)N([H])[H])c2N([H])[H])C1([H])[H]

>  <smiles>  (4) 
[H]C([H])=C([H])C([H])=C([H])c1c([H])c([H])c(OC([H])([H])[H])c(OC([H])([H])C([H])([H])C([H])([H])Oc2c([H])c([H])c3c(c2[H])C([H])([H])N(C(=O)C([H])(N([H])C(=O)C([H])(N([H])C([H])([H])[H])C([H])([H])[H])C(C([H])([H])[H])(C([H])([H])[H])C([H])([H])[H])C([H])(C(=O)N([H])C2([H])c4c([H])c([H])c([H])c([H])c4C([H])([H])C([H])([H])C2([H])[H])C3([H])[H])c1C(=O)N([H])C(=O)N1C([H])([H])C([H])([H])C([H])([H])C([H])(n2nc(-c3c([H])c([H])c(Oc4c([H])c([H])c(F)c([H])c4F)c([H])c3[H])c(C(=O)N([H])[H])c2N([H])[H])C1([H])[H]

$$$$
4:0:0
     RDKit          3D

 96104  0  0  1  0  0  0  0  0999 V2000
  -30.3980  -18.2710   20.4640 C   0  0  0  0  0  3  0  0  0  0  0  0
  -28.5990  -18.5460   18.3790 C   0  0  0  0  0  3  0  0  0  0  0  0
  -30.3810  -17.2520   19.4550 C   0  0  0  0  0  0  0  0  0  0  0  0
  -29.6320  -17.5900   18.2870 C   0  0  0  0  0  0  0  0  0  0  0  0
  -29.5850  -19.4530   20.4010 C   0  0  0  0  0  0  0  0  0  0  0  0
  -28.5260  -19.4560   19.4570 C   0  0  0  0  0  0  0  0  0  0  0  0
  -31.3620  -16.0800   19.4790 C   0  0  0  0  0  0  0  0  0  0  0  0
  -32.0230  -15.8650   18.4150 N   0  0  0  0  0  0  0  0  0  0  0  0
  -31.7330  -16.4990   17.6820 H   0  0  0  0  0  0  0  0  0  0  0  0
  -31.6900  -15.2110   20.7570 C   0  0  0  0  0  0  0  0  0  0  0  0
  -31.4310  -12.7860   20.4090 C   0  0  0  0  0  2  0  0  0  0  0  0
  -30.7280  -12.5600   19.0540 C   0  0  0  0  0  2  0  0  0  0  0  0
  -29.1930  -12.6140   19.2040 C   0  0  0  0  0  2  0  0  0  0  0  0
  -28.6920  -13.7920   20.0870 C   0  0  0  0  0  3  0  0  0  0  0  0
  -29.5410  -13.9750   21.3550 C   0  0  0  0  0  2  0  0  0  0  0  0
  -30.9430  -14.0720   20.9320 N   0  0  0  0  0  0  0  0  0  0  0  0
  -32.8880  -15.2150   21.0420 O   0  0  0  0  0  0  0  0  0  0  0  0
  -26.3100  -14.6980   20.4740 C   0  0  0  0  0  0  0  0  0  0  0  0
  -25.1080  -14.0690   20.6050 C   0  0  0  0  0  0  0  0  0  0  0  0
  -25.3970  -12.6720   20.6260 C   0  0  0  0  0  0  0  0  0  0  0  0
  -27.2620  -13.6950   20.3650 N   0  0  0  0  0  0  0  0  0  0  0  0
  -26.7060  -12.4680   20.5330 N   0  0  0  0  0  0  0  0  0  0  0  0
  -24.4990  -11.5170   20.6810 C   0  0  0  0  0  0  0  0  0  0  0  0
  -24.7260  -10.4490   21.5750 C   0  0  0  0  0  3  0  0  0  0  0  0
  -23.8310   -9.3580   21.6250 C   0  0  0  0  0  3  0  0  0  0  0  0
  -22.6970   -9.3320   20.7790 C   0  0  0  0  0  0  0  0  0  0  0  0
  -22.4910  -10.3880   19.8750 C   0  0  0  0  0  3  0  0  0  0  0  0
  -23.3850  -11.4700   19.8230 C   0  0  0  0  0  3  0  0  0  0  0  0
  -21.7890   -8.3030   20.7410 O   0  0  0  0  0  0  0  0  0  0  0  0
  -21.6170   -7.4550   21.8040 C   0  0  0  0  0  0  0  0  0  0  0  0
  -21.2830   -7.9310   23.0920 C   0  0  0  0  0  3  0  0  0  0  0  0
  -21.0450   -7.0180   24.1390 C   0  0  0  0  0  3  0  0  0  0  0  0
  -21.1350   -5.6340   23.9010 C   0  0  0  0  0  0  0  0  0  0  0  0
  -21.4650   -5.1590   22.6190 C   0  0  0  0  0  3  0  0  0  0  0  0
  -21.7020   -6.0670   21.5740 C   0  0  0  0  0  0  0  0  0  0  0  0
  -21.9980   -5.6060   20.3350 F   0  0  0  0  0  0  0  0  0  0  0  0
  -20.8990   -4.7560   24.9050 F   0  0  0  0  0  0  0  0  0  0  0  0
  -23.7600  -14.7290   20.6460 C   0  0  0  0  0  0  0  0  0  0  0  0
  -22.8280  -14.1620   21.4030 N   0  0  0  0  0  0  0  0  0  0  0  0
  -23.5400  -15.7790   20.0440 O   0  0  0  0  0  0  0  0  0  0  0  0
  -23.0190  -13.3110   21.9120 H   0  0  0  0  0  0  0  0  0  0  0  0
  -21.9080  -14.5780   21.4720 H   0  0  0  0  0  0  0  0  0  0  0  0
  -26.6470  -16.0400   20.4440 N   0  0  0  0  0  0  0  0  0  0  0  0
  -25.9370  -16.7480   20.5930 H   0  0  0  0  0  0  0  0  0  0  0  0
  -27.5910  -16.3950   20.5360 H   0  0  0  0  0  0  0  0  0  0  0  0
  -26.3740  -20.2480   18.7070 C   0  0  0  0  0  1  0  0  0  0  0  0
  -27.5130  -20.3920   19.5450 O   0  0  0  0  0  0  0  0  0  0  0  0
  -30.0020  -17.1300   16.8630 C   0  0  0  0  0  2  0  0  0  0  0  0
  -31.3100  -19.2290   16.2690 C   0  0  0  0  0  2  0  0  0  0  0  0
  -30.4320  -18.2650   15.9450 C   0  0  0  0  0  3  0  0  0  0  0  0
  -29.8680  -20.5510   21.2370 O   0  0  0  0  0  0  0  0  0  0  0  0
  -29.1700  -21.8220   21.0430 C   0  0  0  0  0  3  0  0  0  0  0  0
  -29.9820  -23.1300   21.2980 C   0  0  0  0  0  3  0  0  0  0  0  0
  -29.1590  -24.4710   21.4260 C   0  0  0  0  0  2  0  0  0  0  0  0
  -29.2120  -25.4660   20.2210 C   0  0  0  0  0  2  0  0  0  0  0  0
  -28.9600  -26.8470   20.6040 O   0  0  0  0  0  0  0  0  0  0  0  0
  -24.5630  -31.7480   23.3230 C   0  0  0  0  0  0  0  0  0  0  0  0
  -27.7240  -27.4720   20.4670 C   0  0  0  0  0  0  0  0  0  0  0  0
  -23.5860  -30.2960   21.5770 C   0  0  0  0  0  3  0  0  0  0  0  0
  -25.2430  -28.8590   20.2710 C   0  0  0  0  0  0  0  0  0  0  0  0
  -26.0930  -30.8030   21.5930 C   0  0  0  0  0  2  0  0  0  0  0  0
  -26.3130  -29.4400   20.9570 C   0  0  0  0  0  0  0  0  0  0  0  0
  -27.5490  -28.7540   21.0500 C   0  0  0  0  0  3  0  0  0  0  0  0
  -26.6260  -26.9120   19.7710 C   0  0  0  0  0  3  0  0  0  0  0  0
  -25.3970  -27.5930   19.6770 C   0  0  0  0  0  3  0  0  0  0  0  0
  -23.9500  -29.6440   20.2150 C   0  0  0  0  0  2  0  0  0  0  0  0
  -24.7600  -30.9670   22.2230 N   0  0  0  0  0  0  0  0  0  0  0  0
  -23.4260  -31.9500   23.7710 O   0  0  0  0  0  0  0  0  0  0  0  0
  -22.9220  -29.2280   22.4750 C   0  0  0  0  0  0  0  0  0  0  0  0
  -21.6160  -28.9920   22.2600 N   0  0  0  0  0  0  0  0  0  0  0  0
  -23.5780  -28.6160   23.3200 O   0  0  0  0  0  0  0  0  0  0  0  0
  -21.1420  -29.5520   21.5660 H   0  0  0  0  0  0  0  0  0  0  0  0
  -18.2740  -27.6390   22.5100 C   0  0  0  0  0  0  0  0  0  0  0  0
  -20.7980  -27.9920   22.9480 C   0  0  0  0  0  3  0  0  0  0  0  0
  -20.9950  -26.5880   22.3310 C   0  0  0  0  0  2  0  0  0  0  0  0
  -19.9700  -26.2620   21.2370 C   0  0  0  0  0  2  0  0  0  0  0  0
  -18.5490  -26.3220   21.8040 C   0  0  0  0  0  2  0  0  0  0  0  0
  -19.3320  -28.4330   23.0290 C   0  0  0  0  0  0  0  0  0  0  0  0
  -19.0220  -29.6730   23.6300 C   0  0  0  0  0  3  0  0  0  0  0  0
  -17.6900  -30.1210   23.7230 C   0  0  0  0  0  3  0  0  0  0  0  0
  -16.6470  -29.3180   23.2280 C   0  0  0  0  0  3  0  0  0  0  0  0
  -16.9390  -28.0820   22.6260 C   0  0  0  0  0  3  0  0  0  0  0  0
  -25.7520  -32.4490   24.0510 C   0  0  0  0  0  3  0  0  0  0  0  0
  -26.1640  -31.7380   25.4000 C   0  0  1  0  0  0  0  0  0  0  0  0
  -24.9770  -31.4850   26.3580 C   0  0  0  0  0  1  0  0  0  0  0  0
  -26.8350  -30.3750   25.1140 C   0  0  0  0  0  1  0  0  0  0  0  0
  -27.2060  -32.5990   26.1540 C   0  0  0  0  0  1  0  0  0  0  0  0
  -25.3620  -33.8430   24.2990 N   0  0  0  0  0  0  0  0  0  0  0  0
  -25.7310  -34.8830   23.5380 C   0  0  0  0  0  0  0  0  0  0  0  0
  -26.5060  -34.7730   22.5830 O   0  0  0  0  0  0  0  0  0  0  0  0
  -24.6870  -34.0010   25.0330 H   0  0  0  0  0  0  0  0  0  0  0  0
  -23.9740  -36.5850   22.9590 C   0  0  0  0  0  1  0  0  0  0  0  0
  -25.1500  -36.2650   23.8950 C   0  0  0  0  0  3  0  0  0  0  0  0
  -27.1630  -37.2710   24.8780 C   0  0  0  0  0  1  0  0  0  0  0  0
  -26.1470  -37.3560   23.8320 N   0  0  0  0  0  0  0  0  0  0  0  0
  -25.6920  -38.2640   23.9040 H   0  0  0  0  0  0  0  0  0  0  0  0
  2  6  1  0
  3  7  1  0
  3  1  2  0
  4  2  2  0
  4  3  1  0
  5  1  1  0
  5 51  1  0
  6 47  1  0
  6  5  2  0
  7 10  1  0
  8  7  2  0
  9  8  1  0
 10 16  1  0
 10 17  2  0
 11 16  1  0
 12 13  1  0
 12 11  1  0
 14 13  1  0
 14 21  1  0
 14 15  1  0
 16 15  1  0
 18 19  2  0
 19 20  1  0
 19 38  1  0
 20 23  1  0
 21 18  1  0
 21 22  1  0
 22 20  2  0
 23 24  1  0
 24 25  2  0
 26 25  1  0
 27 26  2  0
 28 27  1  0
 28 23  2  0
 29 26  1  0
 29 30  1  0
 30 31  1  0
 31 32  2  0
 33 32  1  0
 33 37  1  0
 34 33  2  0
 35 30  2  0
 35 34  1  0
 36 35  1  0
 38 39  1  0
 39 42  1  0
 39 41  1  0
 40 38  2  0
 43 18  1  0
 43 45  1  0
 43 44  1  0
 46 47  1  0
 48  4  1  0
 50 49  2  0
 50 48  1  0
 52 51  1  0
 52 53  2  0
 53 54  1  0
 55 56  1  0
 55 54  1  0
 57 68  2  0
 58 56  1  0
 58 63  1  0
 59 67  1  0
 59 69  1  0
 60 62  1  0
 61 67  1  0
 62 63  2  0
 62 61  1  0
 64 58  2  0
 65 64  1  0
 65 60  2  0
 66 60  1  0
 66 59  1  0
 67 57  1  0
 69 71  2  0
 70 69  1  0
 72 70  1  0
 73 82  2  0
 73 78  1  0
 74 70  1  0
 74 78  1  0
 75 74  1  0
 76 77  1  0
 76 75  1  0
 77 73  1  0
 78 79  2  0
 79 80  1  0
 81 80  2  0
 82 81  1  0
 83 57  1  0
 83 88  1  0
 83 84  1  0
 84 87  1  1
 84 85  1  0
 86 84  1  0
 88 91  1  0
 89 93  1  0
 89 88  1  0
 90 89  2  0
 93 92  1  0
 95 93  1  0
 95 96  1  0
 95 94  1  0
M  ISO  4   7 100  10 100  55 101  56 101
M  END
>  <TORSDO>  (5) 
F 25

>  <SCORE>  (5) 
-8.497

>  <name>  (5) 
4

>  <ligand_id>  (5) 
4

>  <original_smiles>  (5) 
[H]N=C(C(=O)N1C([H])([H])C([H])([H])C([H])([H])C([H])(n2nc(-c3c([H])c([H])c(Oc4c([H])c([H])c(F)c([H])c4F)c([H])c3[H])c(C(=O)N([H])[H])c2N([H])[H])C1([H])[H])c1c([H])c(OC([H])([H])C([H])([H])C([H])([H])C([H])([H])Oc2c([H])c([H])c3c(c2[H])C([H])([H])N(C(=O)C([H])(N([H])C(=O)C([H])(N([H])C([H])([H])[H])C([H])([H])[H])C(C([H])([H])[H])(C([H])([H])[H])C([H])([H])[H])C([H])(C(=O)N([H])C2([H])c4c([H])c([H])c([H])c([H])c4C([H])([H])C([H])([H])C2([H])[H])C3([H])[H])c(OC([H])([H])[H])c([H])c1C([H])([H])C([H])=C([H])[H]

>  <smiles>  (5) 
[H]N=C(C(=O)N1C([H])([H])C([H])([H])C([H])([H])C([H])(n2nc(-c3c([H])c([H])c(Oc4c([H])c([H])c(F)c([H])c4F)c([H])c3[H])c(C(=O)N([H])[H])c2N([H])[H])C1([H])[H])c1c([H])c(OC([H])([H])C([H])([H])C([H])([H])C([H])([H])Oc2c([H])c([H])c3c(c2[H])C([H])([H])N(C(=O)C([H])(N([H])C(=O)C([H])(N([H])C([H])([H])[H])C([H])([H])[H])C(C([H])([H])[H])(C([H])([H])[H])C([H])([H])[H])C([H])(C(=O)N([H])C2([H])c4c([H])c([H])c([H])c([H])c4C([H])([H])C([H])([H])C2([H])[H])C3([H])[H])c(OC([H])([H])[H])c([H])c1C([H])([H])C([H])=C([H])[H]

$$$$
5:0:0
     RDKit          3D

 89 97  0  0  1  0  0  0  0  0999 V2000
  -28.7550  -17.6220   18.9940 C   0  0  0  0  0  3  0  0  0  0  0  0
  -29.6520  -19.1610   20.6200 C   0  0  0  0  0  3  0  0  0  0  0  0
  -29.5110  -17.6760   20.1090 C   0  0  0  0  0  0  0  0  0  0  0  0
  -28.9750  -20.3130   20.0920 C   0  0  0  0  0  0  0  0  0  0  0  0
  -28.0740  -18.8000   18.3730 C   0  0  0  0  0  0  0  0  0  0  0  0
  -27.4330  -18.6840   17.3270 O   0  0  0  0  0  0  0  0  0  0  0  0
  -28.1350  -20.0290   19.0330 O   0  0  0  0  0  0  0  0  0  0  0  0
  -30.5120  -15.1090   20.3540 C   0  0  0  0  0  0  0  0  0  0  0  0
  -30.4310  -12.7110   19.4660 C   0  0  0  0  0  2  0  0  0  0  0  0
  -29.5240  -12.6570   18.2130 C   0  0  0  0  0  2  0  0  0  0  0  0
  -28.0570  -12.4280   18.6180 C   0  0  0  0  0  2  0  0  0  0  0  0
  -27.6310  -13.3440   19.7940 C   0  0  0  0  0  3  0  0  0  0  0  0
  -28.6690  -13.3810   20.9390 C   0  0  0  0  0  2  0  0  0  0  0  0
  -29.9460  -13.8190   20.3590 N   0  0  0  0  0  0  0  0  0  0  0  0
  -31.6710  -15.1750   19.9280 O   0  0  0  0  0  0  0  0  0  0  0  0
  -29.7880  -16.3020   20.7350 N   0  0  0  0  0  0  0  0  0  0  0  0
  -29.0270  -16.0380   21.3440 H   0  0  0  0  0  0  0  0  0  0  0  0
  -25.2400  -13.9080   20.4990 C   0  0  0  0  0  0  0  0  0  0  0  0
  -24.1740  -13.1300   20.8580 C   0  0  0  0  0  0  0  0  0  0  0  0
  -24.6430  -11.7800   20.8400 C   0  0  0  0  0  0  0  0  0  0  0  0
  -26.2890  -13.0330   20.2740 N   0  0  0  0  0  0  0  0  0  0  0  0
  -25.9390  -11.7490   20.5440 N   0  0  0  0  0  0  0  0  0  0  0  0
  -23.9150  -10.5170   21.0280 C   0  0  0  0  0  0  0  0  0  0  0  0
  -24.3330   -9.5560   21.9760 C   0  0  0  0  0  3  0  0  0  0  0  0
  -23.6030   -8.3610   22.1540 C   0  0  0  0  0  3  0  0  0  0  0  0
  -22.4410   -8.1170   21.3820 C   0  0  0  0  0  0  0  0  0  0  0  0
  -22.0440   -9.0660   20.4240 C   0  0  0  0  0  3  0  0  0  0  0  0
  -22.7740  -10.2520   20.2450 C   0  0  0  0  0  3  0  0  0  0  0  0
  -21.6860   -6.9720   21.4650 O   0  0  0  0  0  0  0  0  0  0  0  0
  -21.6120   -6.2430   22.6240 C   0  0  0  0  0  0  0  0  0  0  0  0
  -21.1490   -6.8080   23.8310 C   0  0  0  0  0  3  0  0  0  0  0  0
  -21.0210   -6.0040   24.9820 C   0  0  0  0  0  3  0  0  0  0  0  0
  -21.3490   -4.6350   24.9250 C   0  0  0  0  0  0  0  0  0  0  0  0
  -21.8060   -4.0710   23.7220 C   0  0  0  0  0  3  0  0  0  0  0  0
  -21.9340   -4.8710   22.5740 C   0  0  0  0  0  0  0  0  0  0  0  0
  -22.3560   -4.3180   21.4120 F   0  0  0  0  0  0  0  0  0  0  0  0
  -21.2200   -3.8610   26.0280 F   0  0  0  0  0  0  0  0  0  0  0  0
  -22.7720  -13.6070   21.1100 C   0  0  0  0  0  0  0  0  0  0  0  0
  -22.0310  -12.9100   21.9620 N   0  0  0  0  0  0  0  0  0  0  0  0
  -22.3420  -14.6330   20.5840 O   0  0  0  0  0  0  0  0  0  0  0  0
  -22.3900  -12.0810   22.4110 H   0  0  0  0  0  0  0  0  0  0  0  0
  -21.0900  -13.2130   22.1730 H   0  0  0  0  0  0  0  0  0  0  0  0
  -25.4020  -15.2780   20.3190 N   0  0  0  0  0  0  0  0  0  0  0  0
  -24.6350  -15.9320   20.4370 H   0  0  0  0  0  0  0  0  0  0  0  0
  -26.2500  -15.7190   19.9930 H   0  0  0  0  0  0  0  0  0  0  0  0
  -29.1940  -21.8900   20.2660 C   0  0  0  0  0  2  0  0  0  0  0  0
  -28.3510  -23.0540   20.0960 C   0  0  0  0  0  2  0  0  0  0  0  0
  -28.6110  -24.6950   19.7510 C   0  0  0  0  0  2  0  0  0  0  0  0
  -28.2920  -26.0700   20.4830 O   0  0  0  0  0  0  0  0  0  0  0  0
  -24.6120  -31.8690   23.2350 C   0  0  0  0  0  0  0  0  0  0  0  0
  -27.2590  -27.0850   20.2740 C   0  0  0  0  0  0  0  0  0  0  0  0
  -23.4460  -30.4540   21.5860 C   0  0  0  0  0  3  0  0  0  0  0  0
  -24.9280  -28.8660   20.1790 C   0  0  0  0  0  0  0  0  0  0  0  0
  -26.0020  -30.7100   21.4680 C   0  0  0  0  0  2  0  0  0  0  0  0
  -26.0900  -29.3080   20.8210 C   0  0  0  0  0  0  0  0  0  0  0  0
  -27.2440  -28.4280   20.8590 C   0  0  0  0  0  3  0  0  0  0  0  0
  -26.0780  -26.7660   19.5730 C   0  0  0  0  0  3  0  0  0  0  0  0
  -24.9400  -27.6140   19.5380 C   0  0  0  0  0  3  0  0  0  0  0  0
  -23.6930  -29.7650   20.2130 C   0  0  0  0  0  2  0  0  0  0  0  0
  -24.7060  -31.0360   22.1510 N   0  0  0  0  0  0  0  0  0  0  0  0
  -23.5160  -32.1550   23.7430 O   0  0  0  0  0  0  0  0  0  0  0  0
  -22.7530  -29.4570   22.5480 C   0  0  0  0  0  0  0  0  0  0  0  0
  -21.4250  -29.2870   22.4100 N   0  0  0  0  0  0  0  0  0  0  0  0
  -23.4130  -28.8360   23.3850 O   0  0  0  0  0  0  0  0  0  0  0  0
  -20.9470  -29.8360   21.7100 H   0  0  0  0  0  0  0  0  0  0  0  0
  -18.0390  -28.0930   22.9010 C   0  0  0  0  0  0  0  0  0  0  0  0
  -20.5980  -28.3520   23.1790 C   0  0  0  0  0  3  0  0  0  0  0  0
  -20.6980  -26.9200   22.6050 C   0  0  0  0  0  2  0  0  0  0  0  0
  -19.6010  -26.6000   21.5850 C   0  0  0  0  0  2  0  0  0  0  0  0
  -18.2160  -26.7460   22.2220 C   0  0  0  0  0  2  0  0  0  0  0  0
  -19.1570  -28.8540   23.3360 C   0  0  0  0  0  0  0  0  0  0  0  0
  -18.9340  -30.1130   23.9340 C   0  0  0  0  0  3  0  0  0  0  0  0
  -17.6280  -30.6120   24.0980 C   0  0  0  0  0  3  0  0  0  0  0  0
  -16.5250  -29.8490   23.6770 C   0  0  0  0  0  3  0  0  0  0  0  0
  -16.7320  -28.5900   23.0840 C   0  0  0  0  0  3  0  0  0  0  0  0
  -25.8740  -32.5190   23.8790 C   0  0  0  0  0  3  0  0  0  0  0  0
  -25.5540  -33.9230   24.1850 N   0  0  0  0  0  0  0  0  0  0  0  0
  -25.8990  -34.9720   23.4260 C   0  0  0  0  0  0  0  0  0  0  0  0
  -26.5870  -34.8590   22.4080 O   0  0  0  0  0  0  0  0  0  0  0  0
  -24.9440  -34.0840   24.9740 H   0  0  0  0  0  0  0  0  0  0  0  0
  -24.1830  -36.7690   23.0290 C   0  0  0  0  0  1  0  0  0  0  0  0
  -25.4080  -36.3660   23.8650 C   0  0  0  0  0  3  0  0  0  0  0  0
  -27.5270  -37.2580   24.7290 C   0  0  0  0  0  1  0  0  0  0  0  0
  -26.4450  -37.4170   23.7610 N   0  0  0  0  0  0  0  0  0  0  0  0
  -26.0370  -38.3390   23.8890 H   0  0  0  0  0  0  0  0  0  0  0  0
  -26.3580  -31.7730   25.1840 C   0  0  1  0  0  0  0  0  0  0  0  0
  -25.2400  -31.5590   26.2310 C   0  0  0  0  0  1  0  0  0  0  0  0
  -26.9480  -30.3860   24.8400 C   0  0  0  0  0  1  0  0  0  0  0  0
  -27.4950  -32.5790   25.8560 C   0  0  0  0  0  1  0  0  0  0  0  0
  1  3  2  0
  3  2  1  0
  3 16  1  0
  4 46  1  0
  4  2  2  0
  5  1  1  0
  5  7  1  0
  6  5  2  0
  7  4  1  0
  8 14  1  0
  8 16  1  0
  9 14  1  0
 10 11  1  0
 10  9  1  0
 12 11  1  0
 12 21  1  0
 12 13  1  0
 14 13  1  0
 15  8  2  0
 16 17  1  0
 18 19  2  0
 19 38  1  0
 20 19  1  0
 20 23  1  0
 21 18  1  0
 21 22  1  0
 22 20  2  0
 23 24  1  0
 24 25  2  0
 26 29  1  0
 26 25  1  0
 27 26  2  0
 28 27  1  0
 28 23  2  0
 29 30  1  0
 30 31  1  0
 31 32  2  0
 33 32  1  0
 33 37  1  0
 34 33  2  0
 35 30  2  0
 35 34  1  0
 36 35  1  0
 38 39  1  0
 39 42  1  0
 39 41  1  0
 40 38  2  0
 43 44  1  0
 43 18  1  0
 45 43  1  0
 47 46  1  0
 48 47  1  0
 48 49  1  0
 50 61  2  0
 51 49  1  0
 51 56  1  0
 52 60  1  0
 52 62  1  0
 53 59  1  0
 53 55  1  0
 54 60  1  0
 55 56  2  0
 55 54  1  0
 57 51  2  0
 58 57  1  0
 58 53  2  0
 59 52  1  0
 60 50  1  0
 62 64  2  0
 63 62  1  0
 65 63  1  0
 66 75  2  0
 66 71  1  0
 67 63  1  0
 67 71  1  0
 68 67  1  0
 69 70  1  0
 69 68  1  0
 70 66  1  0
 71 72  2  0
 72 73  1  0
 74 73  2  0
 75 74  1  0
 76 50  1  0
 76 77  1  0
 76 86  1  0
 77 80  1  0
 78 82  1  0
 78 77  1  0
 79 78  2  0
 82 81  1  0
 84 82  1  0
 84 85  1  0
 84 83  1  0
 86 89  1  1
 86 87  1  0
 88 86  1  0
M  ISO  4   8 100  16 100  48 101  49 101
M  END
>  <TORSDO>  (6) 
F 18

>  <SCORE>  (6) 
-15.216

>  <name>  (6) 
5

>  <ligand_id>  (6) 
5

>  <original_smiles>  (6) 
[H]C(=C([H])C([H])([H])Oc1c([H])c([H])c2c(c1[H])C([H])([H])N(C(=O)C([H])(N([H])C(=O)C([H])(N([H])C([H])([H])[H])C([H])([H])[H])C(C([H])([H])[H])(C([H])([H])[H])C([H])([H])[H])C([H])(C(=O)N([H])C1([H])c3c([H])c([H])c([H])c([H])c3C([H])([H])C([H])([H])C1([H])[H])C2([H])[H])c1oc(=O)c([H])c(N([H])C(=O)N2C([H])([H])C([H])([H])C([H])([H])C([H])(n3nc(-c4c([H])c([H])c(Oc5c([H])c([H])c(F)c([H])c5F)c([H])c4[H])c(C(=O)N([H])[H])c3N([H])[H])C2([H])[H])c1[H]

>  <smiles>  (6) 
[H]C(=C([H])C([H])([H])Oc1c([H])c([H])c2c(c1[H])C([H])([H])N(C(=O)C([H])(N([H])C(=O)C([H])(N([H])C([H])([H])[H])C([H])([H])[H])C(C([H])([H])[H])(C([H])([H])[H])C([H])([H])[H])C([H])(C(=O)N([H])C1([H])c3c([H])c([H])c([H])c([H])c3C([H])([H])C([H])([H])C1([H])[H])C2([H])[H])c1oc(=O)c([H])c(N([H])C(=O)N2C([H])([H])C([H])([H])C([H])([H])C([H])(n3nc(-c4c([H])c([H])c(Oc5c([H])c([H])c(F)c([H])c5F)c([H])c4[H])c(C(=O)N([H])[H])c3N([H])[H])C2([H])[H])c1[H]

$$$$
6:0:0
     RDKit          3D

 90 95  0  0  1  0  0  0  0  0999 V2000
  -29.7630  -16.2450   20.6360 C   0  0  0  0  0  0  0  0  0  0  0  0
  -29.3630  -15.2410   19.6230 C   0  0  0  0  0  3  0  0  0  0  0  0
  -28.8590  -18.1220   19.4320 C   0  0  0  0  0  0  0  0  0  0  0  0
  -29.2570  -12.4190   19.4220 C   0  0  0  0  0 15  0  0  0  0  0  0
  -29.5700  -17.6840   20.4600 N   0  0  0  0  0  0  0  0  0  0  0  0
  -28.7080  -16.6270   18.8990 O   0  0  0  0  0  0  0  0  0  0  0  0
  -31.6760  -14.3880   21.2320 C   0  0  0  0  0  0  0  0  0  0  0  0
  -31.0920  -13.5780   19.0000 C   0  0  0  0  0  2  0  0  0  0  0  0
  -29.6680  -13.8140   17.7010 C   0  0  0  0  0  1  0  0  0  0  0  0
  -27.8080  -13.8750   18.3490 C   0  0  0  0  0 15  0  0  0  0  0  0
  -27.5620  -13.8270   20.3200 C   0  0  0  0  0  2  0  0  0  0  0  0
  -29.0780  -13.5570   21.4770 C   0  0  0  0  0  2  0  0  0  0  0  0
  -30.7310  -13.6030   20.7400 N   0  0  0  0  0  0  0  0  0  0  0  0
  -32.7360  -14.5900   20.6580 O   0  0  0  0  0  0  0  0  0  0  0  0
  -30.3760  -16.1000   22.0330 C   0  0  0  0  0  0  0  0  0  0  0  0
  -31.3090  -15.1750   22.2220 N   0  0  0  0  0  0  0  0  0  0  0  0
  -30.0840  -16.8670   22.9600 O   0  0  0  0  0  0  0  0  0  0  0  0
  -31.9780  -15.3920   22.9390 H   0  0  0  0  0  0  0  0  0  0  0  0
  -25.2610  -13.9400   20.7800 C   0  0  0  0  0  0  0  0  0  0  0  0
  -24.2970  -13.0760   21.1190 C   0  0  0  0  0  0  0  0  0  0  0  0
  -24.8490  -11.7580   21.0230 C   0  0  0  0  0  0  0  0  0  0  0  0
  -26.3660  -13.1750   20.6410 N   0  0  0  0  0  0  0  0  0  0  0  0
  -26.1550  -11.8290   20.7470 N   0  0  0  0  0  0  0  0  0  0  0  0
  -24.1520  -10.4730   21.1490 C   0  0  0  0  0  0  0  0  0  0  0  0
  -24.5560   -9.4850   22.0730 C   0  0  0  0  0  3  0  0  0  0  0  0
  -23.8030   -8.2980   22.2220 C   0  0  0  0  0  3  0  0  0  0  0  0
  -22.6360   -8.0950   21.4440 C   0  0  0  0  0  0  0  0  0  0  0  0
  -22.2540   -9.0720   20.5070 C   0  0  0  0  0  3  0  0  0  0  0  0
  -23.0100  -10.2460   20.3560 C   0  0  0  0  0  3  0  0  0  0  0  0
  -21.8550   -6.9660   21.4990 O   0  0  0  0  0  0  0  0  0  0  0  0
  -21.7220   -6.2340   22.6510 C   0  0  0  0  0  0  0  0  0  0  0  0
  -21.1930   -6.7940   23.8340 C   0  0  0  0  0  3  0  0  0  0  0  0
  -21.0080   -5.9850   24.9730 C   0  0  0  0  0  3  0  0  0  0  0  0
  -21.3480   -4.6190   24.9320 C   0  0  0  0  0  0  0  0  0  0  0  0
  -21.8730   -4.0600   23.7530 C   0  0  0  0  0  3  0  0  0  0  0  0
  -22.0540   -4.8650   22.6150 C   0  0  0  0  0  0  0  0  0  0  0  0
  -22.5390   -4.3170   21.4740 F   0  0  0  0  0  0  0  0  0  0  0  0
  -21.1660   -3.8400   26.0230 F   0  0  0  0  0  0  0  0  0  0  0  0
  -22.9140  -13.5180   21.4300 C   0  0  0  0  0  0  0  0  0  0  0  0
  -22.2570  -12.8260   22.3420 N   0  0  0  0  0  0  0  0  0  0  0  0
  -22.4590  -14.5480   20.9320 O   0  0  0  0  0  0  0  0  0  0  0  0
  -22.6680  -12.0050   22.7600 H   0  0  0  0  0  0  0  0  0  0  0  0
  -21.3290  -13.1140   22.6190 H   0  0  0  0  0  0  0  0  0  0  0  0
  -25.2730  -15.3260   20.5980 N   0  0  0  0  0  0  0  0  0  0  0  0
  -24.4000  -15.8410   20.6440 H   0  0  0  0  0  0  0  0  0  0  0  0
  -26.0450  -15.8730   20.2370 H   0  0  0  0  0  0  0  0  0  0  0  0
  -28.3740  -19.9170   19.1220 C   0  0  0  0  0  3  0  0  0  0  0  0
  -28.4140  -21.4430   19.6110 C   0  0  0  0  0  3  0  0  0  0  0  0
  -27.8170  -23.2760   19.2510 C   0  0  0  0  0  2  0  0  0  0  0  0
  -28.0610  -25.0690   19.6970 O   0  0  0  0  0  0  0  0  0  0  0  0
  -24.5740  -31.5850   22.8170 C   0  0  0  0  0  0  0  0  0  0  0  0
  -27.1750  -26.4080   19.7150 C   0  0  0  0  0  0  0  0  0  0  0  0
  -23.4490  -30.1670   21.1710 C   0  0  0  0  0  3  0  0  0  0  0  0
  -24.9300  -28.5400   19.7480 C   0  0  0  0  0  0  0  0  0  0  0  0
  -26.0370  -30.2910   21.1020 C   0  0  0  0  0  2  0  0  0  0  0  0
  -26.1230  -28.8550   20.4040 C   0  0  0  0  0  0  0  0  0  0  0  0
  -27.2310  -27.8160   20.3550 C   0  0  0  0  0  3  0  0  0  0  0  0
  -25.9470  -26.3660   19.0180 C   0  0  0  0  0  3  0  0  0  0  0  0
  -24.8910  -27.3300   19.0380 C   0  0  0  0  0  3  0  0  0  0  0  0
  -23.7190  -29.4910   19.7980 C   0  0  0  0  0  2  0  0  0  0  0  0
  -24.7140  -30.7210   21.7490 N   0  0  0  0  0  0  0  0  0  0  0  0
  -23.4610  -31.8640   23.3010 O   0  0  0  0  0  0  0  0  0  0  0  0
  -22.7310  -29.1760   22.1290 C   0  0  0  0  0  0  0  0  0  0  0  0
  -21.3910  -29.0550   22.0400 N   0  0  0  0  0  0  0  0  0  0  0  0
  -23.3930  -28.5120   22.9310 O   0  0  0  0  0  0  0  0  0  0  0  0
  -20.9030  -29.6370   21.3730 H   0  0  0  0  0  0  0  0  0  0  0  0
  -17.9880  -27.9360   22.6790 C   0  0  0  0  0  0  0  0  0  0  0  0
  -20.5680  -28.1070   22.8050 C   0  0  0  0  0  3  0  0  0  0  0  0
  -20.5840  -26.7060   22.1480 C   0  0  0  0  0  2  0  0  0  0  0  0
  -19.4170  -26.4820   21.1810 C   0  0  0  0  0  2  0  0  0  0  0  0
  -18.0800  -26.6290   21.9110 C   0  0  0  0  0  2  0  0  0  0  0  0
  -19.1560  -28.6380   23.0840 C   0  0  0  0  0  0  0  0  0  0  0  0
  -19.0120  -29.8620   23.7730 C   0  0  0  0  0  3  0  0  0  0  0  0
  -17.7350  -30.3850   24.0550 C   0  0  0  0  0  3  0  0  0  0  0  0
  -16.5850  -29.6810   23.6620 C   0  0  0  0  0  3  0  0  0  0  0  0
  -16.7120  -28.4570   22.9800 C   0  0  0  0  0  3  0  0  0  0  0  0
  -25.7970  -32.2800   23.4870 C   0  0  0  0  0  3  0  0  0  0  0  0
  -25.3900  -33.6380   23.9070 N   0  0  0  0  0  0  0  0  0  0  0  0
  -25.7030  -34.7780   23.2730 C   0  0  0  0  0  0  0  0  0  0  0  0
  -26.4220  -34.7990   22.2720 O   0  0  0  0  0  0  0  0  0  0  0  0
  -24.7500  -33.6910   24.6850 H   0  0  0  0  0  0  0  0  0  0  0  0
  -23.9360  -36.5570   22.9990 C   0  0  0  0  0  1  0  0  0  0  0  0
  -25.1400  -36.1010   23.8380 C   0  0  0  0  0  3  0  0  0  0  0  0
  -27.1800  -36.9750   24.8950 C   0  0  0  0  0  1  0  0  0  0  0  0
  -26.1370  -37.1940   23.8970 N   0  0  0  0  0  0  0  0  0  0  0  0
  -25.6860  -38.0810   24.1000 H   0  0  0  0  0  0  0  0  0  0  0  0
  -26.3460  -31.4880   24.7380 C   0  0  1  0  0  0  0  0  0  0  0  0
  -25.2660  -31.1580   25.7950 C   0  0  0  0  0  1  0  0  0  0  0  0
  -26.9990  -30.1550   24.3130 C   0  0  0  0  0  1  0  0  0  0  0  0
  -27.4530  -32.3140   25.4360 C   0  0  0  0  0  1  0  0  0  0  0  0
  1 15  1  0
  2  1  2  0
  3  5  2  0
  5  1  1  0
  6  3  1  0
  6  2  1  0
  7 16  1  0
  8 13  1  0
  9  8  1  0
 11 22  1  0
 11 12  1  0
 13  7  1  0
 13 12  1  0
 14  7  2  0
 15 16  1  0
 15 17  2  0
 16 18  1  0
 19 20  2  0
 20 39  1  0
 21 20  1  0
 21 24  1  0
 22 23  1  0
 22 19  1  0
 23 21  2  0
 24 25  1  0
 25 26  2  0
 27 30  1  0
 27 26  1  0
 28 27  2  0
 29 28  1  0
 29 24  2  0
 30 31  1  0
 31 32  1  0
 32 33  2  0
 34 33  1  0
 34 38  1  0
 35 34  2  0
 36 31  2  0
 36 35  1  0
 37 36  1  0
 39 40  1  0
 40 43  1  0
 40 42  1  0
 41 39  2  0
 44 45  1  0
 44 19  1  0
 46 44  1  0
 47  3  1  0
 47 48  2  0
 49 48  1  0
 49 50  1  0
 50 52  1  0
 51 62  2  0
 52 57  1  0
 53 61  1  0
 53 63  1  0
 54 60  1  0
 54 56  1  0
 55 61  1  0
 56 55  1  0
 57 56  2  0
 58 59  1  0
 58 52  2  0
 59 54  2  0
 60 53  1  0
 61 51  1  0
 63 65  2  0
 64 63  1  0
 66 64  1  0
 67 76  2  0
 67 72  1  0
 68 64  1  0
 68 72  1  0
 69 68  1  0
 70 71  1  0
 70 69  1  0
 71 67  1  0
 72 73  2  0
 73 74  1  0
 75 74  2  0
 76 75  1  0
 77 51  1  0
 77 78  1  0
 77 87  1  0
 78 81  1  0
 79 83  1  0
 79 78  1  0
 80 79  2  0
 83 82  1  0
 83 85  1  0
 85 86  1  0
 85 84  1  0
 87 90  1  1
 87 88  1  0
 89 87  1  0
M  ISO  4   7 100  16 100  49 101  50 101
M  END
>  <TORSDO>  (7) 
F 18

>  <SCORE>  (7) 
-14.004

>  <name>  (7) 
6

>  <ligand_id>  (7) 
6

>  <original_smiles>  (7) 
[H]C(=C([H])C([H])([H])Oc1c([H])c([H])c2c(c1[H])C([H])([H])N(C(=O)C([H])(N([H])C(=O)C([H])(N([H])C([H])([H])[H])C([H])([H])[H])C(C([H])([H])[H])(C([H])([H])[H])C([H])([H])[H])C([H])(C(=O)N([H])C1([H])c3c([H])c([H])c([H])c([H])c3C([H])([H])C([H])([H])C1([H])[H])C2([H])[H])c1nc(C(=O)N([H])C(=O)N2C([H])([H])C([H])([H])C([H])([H])C([H])(n3nc(-c4c([H])c([H])c(Oc5c([H])c([H])c(F)c([H])c5F)c([H])c4[H])c(C(=O)N([H])[H])c3N([H])[H])C2([H])[H])c(C([H])([H])[H])o1

>  <smiles>  (7) 
[H]C(=C([H])C([H])([H])Oc1c([H])c([H])c2c(c1[H])C([H])([H])N(C(=O)C([H])(N([H])C(=O)C([H])(N([H])C([H])([H])[H])C([H])([H])[H])C(C([H])([H])[H])(C([H])([H])[H])C([H])([H])[H])C([H])(C(=O)N([H])C1([H])c3c([H])c([H])c([H])c([H])c3C([H])([H])C([H])([H])C1([H])[H])C2([H])[H])c1nc(C(=O)N([H])C(=O)N2C([H])([H])C([H])([H])C([H])([H])C([H])(n3nc(-c4c([H])c([H])c(Oc5c([H])c([H])c(F)c([H])c5F)c([H])c4[H])c(C(=O)N([H])[H])c3N([H])[H])C2([H])[H])c(C([H])([H])[H])o1

$$$$
7:0:0
     RDKit          3D

 93102  0  0  1  0  0  0  0  0999 V2000
  -28.3410  -16.1360   20.7990 C   0  0  0  0  0  3  0  0  0  0  0  0
  -27.9180  -18.5340   19.5260 C   0  0  0  0  0  3  0  0  0  0  0  0
  -27.0270  -16.5690   20.6040 C   0  0  0  0  0  0  0  0  0  0  0  0
  -29.2980  -18.2180   19.7460 C   0  0  0  0  0  0  0  0  0  0  0  0
  -29.4980  -16.7640   20.2750 C   0  0  0  0  0  0  0  0  0  0  0  0
  -26.8190  -17.7480   19.8940 C   0  0  0  0  0  0  0  0  0  0  0  0
  -25.8620  -15.7500   21.1370 C   0  0  0  0  0  2  0  0  0  0  0  0
  -31.0820  -14.6110   21.2210 C   0  0  0  0  0  0  0  0  0  0  0  0
  -31.1850  -12.0700   21.4020 C   0  0  0  0  0  2  0  0  0  0  0  0
  -30.7210  -11.3300   20.1240 C   0  0  0  0  0  2  0  0  0  0  0  0
  -29.1950  -11.1260   20.1330 C   0  0  0  0  0  2  0  0  0  0  0  0
  -28.4340  -12.3960   20.5870 C   0  0  0  0  0  3  0  0  0  0  0  0
  -29.0620  -13.0110   21.8480 C   0  0  0  0  0  2  0  0  0  0  0  0
  -30.4420  -13.3770   21.4790 N   0  0  0  0  0  0  0  0  0  0  0  0
  -32.2910  -14.6020   21.4760 O   0  0  0  0  0  0  0  0  0  0  0  0
  -30.6430  -15.7380   20.3940 N   0  0  0  0  0  0  0  0  0  0  0  0
  -31.4730  -16.1070   19.9530 H   0  0  0  0  0  0  0  0  0  0  0  0
  -25.9690  -13.0340   20.4410 C   0  0  0  0  0  0  0  0  0  0  0  0
  -24.8190  -12.3320   20.6600 C   0  0  0  0  0  0  0  0  0  0  0  0
  -25.2240  -11.0280   21.0810 C   0  0  0  0  0  0  0  0  0  0  0  0
  -27.0040  -12.1650   20.7350 N   0  0  0  0  0  0  0  0  0  0  0  0
  -26.5480  -10.9670   21.1820 N   0  0  0  0  0  0  0  0  0  0  0  0
  -24.4300   -9.8180   21.3290 C   0  0  0  0  0  0  0  0  0  0  0  0
  -24.4650   -9.1570   22.5780 C   0  0  0  0  0  3  0  0  0  0  0  0
  -23.6750   -8.0080   22.8030 C   0  0  0  0  0  3  0  0  0  0  0  0
  -22.8400   -7.5110   21.7750 C   0  0  0  0  0  0  0  0  0  0  0  0
  -22.8270   -8.1580   20.5280 C   0  0  0  0  0  3  0  0  0  0  0  0
  -23.6140   -9.2990   20.3040 C   0  0  0  0  0  3  0  0  0  0  0  0
  -22.0540   -6.3900   21.8920 O   0  0  0  0  0  0  0  0  0  0  0  0
  -21.3820   -6.1040   23.0520 C   0  0  0  0  0  0  0  0  0  0  0  0
  -20.4740   -7.0150   23.6340 C   0  0  0  0  0  3  0  0  0  0  0  0
  -19.7550   -6.6530   24.7900 C   0  0  0  0  0  3  0  0  0  0  0  0
  -19.9330   -5.3760   25.3580 C   0  0  0  0  0  0  0  0  0  0  0  0
  -20.8300   -4.4640   24.7750 C   0  0  0  0  0  3  0  0  0  0  0  0
  -21.5500   -4.8270   23.6250 C   0  0  0  0  0  0  0  0  0  0  0  0
  -22.4000   -3.9370   23.0550 F   0  0  0  0  0  0  0  0  0  0  0  0
  -19.2370   -5.0230   26.4640 F   0  0  0  0  0  0  0  0  0  0  0  0
  -23.4220  -12.8040   20.3840 C   0  0  0  0  0  0  0  0  0  0  0  0
  -22.4450  -12.3190   21.1410 N   0  0  0  0  0  0  0  0  0  0  0  0
  -23.1960  -13.6480   19.5150 O   0  0  0  0  0  0  0  0  0  0  0  0
  -22.6310  -11.6330   21.8600 H   0  0  0  0  0  0  0  0  0  0  0  0
  -21.4980  -12.6430   21.0030 H   0  0  0  0  0  0  0  0  0  0  0  0
  -26.2310  -14.3210   19.9840 N   0  0  0  0  0  4  0  0  0  0  0  0
  -25.4970  -14.9720   19.7340 H   0  0  0  0  0  0  0  0  0  0  0  0
  -27.1600  -14.7060   19.8780 H   0  0  0  0  0  0  0  0  0  0  0  0
  -25.5290  -18.1920   19.6100 N   0  0  0  0  0  0  0  0  0  0  0  0
  -24.7660  -17.5300   19.6940 H   0  0  0  0  0  0  0  0  0  0  0  0
  -25.4000  -18.8410   18.8390 H   0  0  0  0  0  0  0  0  0  0  0  0
  -29.7450  -20.7720   19.2370 C   0  0  0  0  0  3  0  0  0  0  0  0
  -30.1620  -19.4710   19.5110 N   0  0  0  0  0  0  0  0  0  0  0  0
  -30.3980  -22.3510   19.3170 C   0  0  0  0  0  3  0  0  0  0  0  0
  -29.5200  -23.8440   19.2940 C   0  0  0  0  0  3  0  0  0  0  0  0
  -29.9320  -25.3350   19.6850 O   0  0  0  0  0  0  0  0  0  0  0  0
  -26.4300  -30.4960   23.7650 C   0  0  0  0  0  0  0  0  0  0  0  0
  -28.9790  -26.4350   19.8210 C   0  0  0  0  0  0  0  0  0  0  0  0
  -25.3330  -29.7010   21.7080 C   0  0  0  0  0  3  0  0  0  0  0  0
  -26.8180  -28.4010   20.0530 C   0  0  0  0  0  0  0  0  0  0  0  0
  -27.9060  -29.7190   21.8620 C   0  0  0  0  0  2  0  0  0  0  0  0
  -27.9520  -28.5390   20.8650 C   0  0  0  0  0  0  0  0  0  0  0  0
  -29.0360  -27.5780   20.7320 C   0  0  0  0  0  3  0  0  0  0  0  0
  -27.8270  -26.4260   19.0030 C   0  0  0  0  0  3  0  0  0  0  0  0
  -26.7750  -27.3630   19.1120 C   0  0  0  0  0  3  0  0  0  0  0  0
  -25.6650  -29.3820   20.2260 C   0  0  0  0  0  2  0  0  0  0  0  0
  -26.5720  -29.9780   22.5050 N   0  0  0  0  0  0  0  0  0  0  0  0
  -25.3120  -30.7440   24.2440 O   0  0  0  0  0  0  0  0  0  0  0  0
  -24.4720  -28.5560   22.2980 C   0  0  0  0  0  0  0  0  0  0  0  0
  -23.1570  -28.5600   22.0060 N   0  0  0  0  0  0  0  0  0  0  0  0
  -24.9920  -27.6750   22.9870 O   0  0  0  0  0  0  0  0  0  0  0  0
  -22.8000  -29.3200   21.4450 H   0  0  0  0  0  0  0  0  0  0  0  0
  -19.6620  -27.6130   21.8450 C   0  0  0  0  0  0  0  0  0  0  0  0
  -22.1850  -27.5430   22.4180 C   0  0  0  0  0  3  0  0  0  0  0  0
  -22.2510  -26.3040   21.4970 C   0  0  0  0  0  2  0  0  0  0  0  0
  -21.2570  -26.3610   20.3320 C   0  0  0  0  0  2  0  0  0  0  0  0
  -19.8230  -26.4710   20.8550 C   0  0  0  0  0  2  0  0  0  0  0  0
  -20.7730  -28.1250   22.5670 C   0  0  0  0  0  0  0  0  0  0  0  0
  -20.5730  -29.2060   23.4530 C   0  0  0  0  0  3  0  0  0  0  0  0
  -19.2940  -29.7710   23.6220 C   0  0  0  0  0  3  0  0  0  0  0  0
  -18.1960  -29.2520   22.9160 C   0  0  0  0  0  3  0  0  0  0  0  0
  -18.3810  -28.1710   22.0350 C   0  0  0  0  0  3  0  0  0  0  0  0
  -27.6670  -30.8180   24.6570 C   0  0  0  0  0  3  0  0  0  0  0  0
  -27.8890  -29.7610   25.8100 C   0  0  1  0  0  0  0  0  0  0  0  0
  -26.6280  -29.5020   26.6690 C   0  0  0  0  0  1  0  0  0  0  0  0
  -28.3510  -28.4030   25.2340 C   0  0  0  0  0  1  0  0  0  0  0  0
  -29.0160  -30.2460   26.7520 C   0  0  0  0  0  1  0  0  0  0  0  0
  -27.4710  -32.1600   25.2280 N   0  0  0  0  0  0  0  0  0  0  0  0
  -28.0770  -33.2740   24.7930 C   0  0  0  0  0  0  0  0  0  0  0  0
  -28.9210  -33.2650   23.8930 O   0  0  0  0  0  0  0  0  0  0  0  0
  -26.7510  -32.2500   25.9290 H   0  0  0  0  0  0  0  0  0  0  0  0
  -26.7400  -35.3910   24.5410 C   0  0  0  0  0  1  0  0  0  0  0  0
  -27.6900  -34.6080   25.4620 C   0  0  0  0  0  3  0  0  0  0  0  0
  -29.6650  -34.9050   26.8910 C   0  0  0  0  0  1  0  0  0  0  0  0
  -28.8520  -35.4550   25.8090 N   0  0  0  0  0  0  0  0  0  0  0  0
  -28.5510  -36.3870   26.0790 H   0  0  0  0  0  0  0  0  0  0  0  0
  2  4  2  0
  2  6  1  0
  3  1  1  0
  3  7  1  0
  4  5  1  0
  5 16  1  0
  5  1  2  0
  6  3  2  0
  8 15  2  0
  8 14  1  0
  9 14  1  0
 10 11  1  0
 10  9  1  0
 12 11  1  0
 12 21  1  0
 12 13  1  0
 14 13  1  0
 16  8  1  0
 17 16  1  0
 18 19  2  0
 18 21  1  0
 19 20  1  0
 20 22  2  0
 20 23  1  0
 21 22  1  0
 23 24  1  0
 24 25  2  0
 26 29  1  0
 26 25  1  0
 27 26  2  0
 28 27  1  0
 28 23  2  0
 29 30  1  0
 30 35  2  0
 30 31  1  0
 31 32  2  0
 32 33  1  0
 33 37  1  0
 34 33  2  0
 35 34  1  0
 36 35  1  0
 38 19  1  0
 38 39  1  0
 39 41  1  0
 40 38  2  0
 42 39  1  0
 43 18  1  0
 43  7  1  0
 44 43  1  0
 45 43  1  0
 46 47  1  0
 46  6  1  0
 48 46  1  0
 49 51  1  0
 49 50  2  0
 50  4  1  0
 52 51  2  0
 52 53  1  0
 53 55  1  0
 54 65  2  0
 55 60  1  0
 56 66  1  0
 56 64  1  0
 57 63  1  0
 57 59  1  0
 58 64  1  0
 59 58  1  0
 60 59  2  0
 61 62  1  0
 61 55  2  0
 62 57  2  0
 63 56  1  0
 64 54  1  0
 66 68  2  0
 67 66  1  0
 69 67  1  0
 70 79  2  0
 70 75  1  0
 71 67  1  0
 71 75  1  0
 72 71  1  0
 73 74  1  0
 73 72  1  0
 74 70  1  0
 75 76  2  0
 76 77  1  0
 78 77  2  0
 79 78  1  0
 80 54  1  0
 80 85  1  0
 80 81  1  0
 81 82  1  1
 81 84  1  0
 83 81  1  0
 85 88  1  0
 86 85  1  0
 86 90  1  0
 87 86  2  0
 90 89  1  0
 90 92  1  0
 92 93  1  0
 92 91  1  0
M  ISO  4   8 100  16 100  52 101  53 101
M  END
>  <TORSDO>  (8) 
F 20

>  <SCORE>  (8) 
-6.988

>  <name>  (8) 
7

>  <ligand_id>  (8) 
7

>  <original_smiles>  (8) 
[H]C(=Nc1c([H])c(N([H])[H])c(C([H])([H])[H])c([H])c1N([H])C(=O)N1C([H])([H])C([H])([H])C([H])([H])C([H])(n2nc(-c3c([H])c([H])c(Oc4c([H])c([H])c(F)c([H])c4F)c([H])c3[H])c(C(=O)N([H])[H])c2N([H])[H])C1([H])[H])C([H])([H])C([H])([H])Oc1c([H])c([H])c2c(c1[H])C([H])([H])N(C(=O)C([H])(N([H])C(=O)C([H])(N([H])C([H])([H])[H])C([H])([H])[H])C(C([H])([H])[H])(C([H])([H])[H])C([H])([H])[H])C([H])(C(=O)N([H])C1([H])c3c([H])c([H])c([H])c([H])c3C([H])([H])C([H])([H])C1([H])[H])C2([H])[H]

>  <smiles>  (8) 
[H]C(=Nc1c([H])c(N([H])[H])c(C([H])([H])[H])c([H])c1N([H])C(=O)N1C([H])([H])C([H])([H])C([H])([H])C([H])(n2nc(-c3c([H])c([H])c(Oc4c([H])c([H])c(F)c([H])c4F)c([H])c3[H])c(C(=O)N([H])[H])c2N([H])[H])C1([H])[H])C([H])([H])C([H])([H])Oc1c([H])c([H])c2c(c1[H])C([H])([H])N(C(=O)C([H])(N([H])C(=O)C([H])(N([H])C([H])([H])[H])C([H])([H])[H])C(C([H])([H])[H])(C([H])([H])[H])C([H])([H])[H])C([H])(C(=O)N([H])C1([H])c3c([H])c([H])c([H])c([H])c3C([H])([H])C([H])([H])C1([H])[H])C2([H])[H]

$$$$
8:0:0
     RDKit          3D

 88 96  0  0  1  0  0  0  0  0999 V2000
  -29.2120  -20.3960   18.8610 C   0  0  0  0  0  3  0  0  0  0  0  0
  -29.5350  -18.9960   18.9470 C   0  0  0  0  0  3  0  0  0  0  0  0
  -29.1130  -20.9210   20.1240 C   0  0  0  0  0  0  0  0  0  0  0  0
  -29.6890  -18.6540   20.2650 C   0  0  0  0  0  0  0  0  0  0  0  0
  -29.4240  -19.8460   20.9930 O   0  0  0  0  0  0  0  0  0  0  0  0
  -28.7590  -22.2940   20.6210 C   0  0  0  0  0  3  0  0  0  0  0  0
  -28.6980  -23.5570   20.0330 C   0  0  0  0  0  3  0  0  0  0  0  0
  -28.1300  -24.9350   20.6350 C   0  0  0  0  0  2  0  0  0  0  0  0
  -28.3430  -26.3770   20.2180 O   0  0  0  0  0  0  0  0  0  0  0  0
  -24.6160  -31.8940   23.2140 C   0  0  0  0  0  0  0  0  0  0  0  0
  -27.2400  -27.2730   20.2010 C   0  0  0  0  0  0  0  0  0  0  0  0
  -23.4280  -30.4930   21.5690 C   0  0  0  0  0  3  0  0  0  0  0  0
  -24.8880  -28.9340   20.1610 C   0  0  0  0  0  0  0  0  0  0  0  0
  -25.9740  -30.7960   21.4100 C   0  0  0  0  0  2  0  0  0  0  0  0
  -26.0590  -29.4100   20.7660 C   0  0  0  0  0  0  0  0  0  0  0  0
  -27.2400  -28.5950   20.7680 C   0  0  0  0  0  3  0  0  0  0  0  0
  -26.0420  -26.8680   19.5710 C   0  0  0  0  0  3  0  0  0  0  0  0
  -24.8860  -27.6710   19.5510 C   0  0  0  0  0  3  0  0  0  0  0  0
  -23.6550  -29.8150   20.1930 C   0  0  0  0  0  2  0  0  0  0  0  0
  -24.6920  -31.0800   22.1200 N   0  0  0  0  0  0  0  0  0  0  0  0
  -23.5260  -32.1740   23.7380 O   0  0  0  0  0  0  0  0  0  0  0  0
  -22.7530  -29.4800   22.5260 C   0  0  0  0  0  0  0  0  0  0  0  0
  -21.4250  -29.3130   22.3970 N   0  0  0  0  0  0  0  0  0  0  0  0
  -23.4250  -28.8470   23.3450 O   0  0  0  0  0  0  0  0  0  0  0  0
  -20.9420  -29.8740   21.7110 H   0  0  0  0  0  0  0  0  0  0  0  0
  -18.0360  -28.1510   22.9080 C   0  0  0  0  0  0  0  0  0  0  0  0
  -20.5990  -28.3790   23.1650 C   0  0  0  0  0  3  0  0  0  0  0  0
  -20.6800  -26.9510   22.5790 C   0  0  0  0  0  2  0  0  0  0  0  0
  -19.5690  -26.6480   21.5680 C   0  0  0  0  0  2  0  0  0  0  0  0
  -18.1930  -26.8050   22.2200 C   0  0  0  0  0  2  0  0  0  0  0  0
  -19.1660  -28.8960   23.3380 C   0  0  0  0  0  0  0  0  0  0  0  0
  -18.9640  -30.1560   23.9420 C   0  0  0  0  0  3  0  0  0  0  0  0
  -17.6660  -30.6710   24.1200 C   0  0  0  0  0  3  0  0  0  0  0  0
  -16.5510  -29.9220   23.7060 C   0  0  0  0  0  3  0  0  0  0  0  0
  -16.7360  -28.6630   23.1060 C   0  0  0  0  0  3  0  0  0  0  0  0
  -25.8900  -32.5310   23.8470 C   0  0  0  0  0  3  0  0  0  0  0  0
  -26.3960  -31.7630   25.1300 C   0  0  1  0  0  0  0  0  0  0  0  0
  -25.2930  -31.5260   26.1870 C   0  0  0  0  0  1  0  0  0  0  0  0
  -26.9850  -30.3850   24.7470 C   0  0  0  0  0  1  0  0  0  0  0  0
  -27.5380  -32.5600   25.8010 C   0  0  0  0  0  1  0  0  0  0  0  0
  -25.5740  -33.9290   24.1740 N   0  0  0  0  0  0  0  0  0  0  0  0
  -25.9080  -34.9840   23.4190 C   0  0  0  0  0  0  0  0  0  0  0  0
  -26.5830  -34.8830   22.3910 O   0  0  0  0  0  0  0  0  0  0  0  0
  -24.9760  -34.0810   24.9720 H   0  0  0  0  0  0  0  0  0  0  0  0
  -24.1820  -36.7780   23.0550 C   0  0  0  0  0  1  0  0  0  0  0  0
  -25.4160  -36.3710   23.8750 C   0  0  0  0  0  3  0  0  0  0  0  0
  -27.5420  -37.2580   24.7300 C   0  0  0  0  0  1  0  0  0  0  0  0
  -26.4500  -37.4250   23.7730 N   0  0  0  0  0  0  0  0  0  0  0  0
  -26.0420  -38.3450   23.9160 H   0  0  0  0  0  0  0  0  0  0  0  0
  -30.2100  -17.3490   20.9960 C   0  0  0  0  0  2  0  0  0  0  0  0
  -30.5610  -14.7860   20.3970 C   0  0  0  0  0  0  0  0  0  0  0  0
  -30.3630  -12.5070   19.3700 C   0  0  0  0  0  2  0  0  0  0  0  0
  -29.4240  -12.5630   18.1450 C   0  0  0  0  0  2  0  0  0  0  0  0
  -27.9540  -12.3900   18.5770 C   0  0  0  0  0  2  0  0  0  0  0  0
  -27.5780  -13.2870   19.7860 C   0  0  0  0  0  3  0  0  0  0  0  0
  -28.6340  -13.2060   20.9060 C   0  0  0  0  0  2  0  0  0  0  0  0
  -29.9260  -13.5660   20.3080 N   0  0  0  0  0  0  0  0  0  0  0  0
  -31.7590  -14.8730   20.1170 O   0  0  0  0  0  0  0  0  0  0  0  0
  -29.7930  -15.9220   20.6220 N   0  0  0  0  0  0  0  0  0  0  0  0
  -28.8050  -15.7420   20.7160 H   0  0  0  0  0  0  0  0  0  0  0  0
  -25.1920  -13.8890   20.5100 C   0  0  0  0  0  0  0  0  0  0  0  0
  -24.1230  -13.1200   20.8790 C   0  0  0  0  0  0  0  0  0  0  0  0
  -24.5810  -11.7660   20.8530 C   0  0  0  0  0  0  0  0  0  0  0  0
  -26.2320  -13.0040   20.2770 N   0  0  0  0  0  0  0  0  0  0  0  0
  -25.8730  -11.7240   20.5480 N   0  0  0  0  0  0  0  0  0  0  0  0
  -23.8490  -10.5070   21.0410 C   0  0  0  0  0  0  0  0  0  0  0  0
  -24.2730   -9.5390   21.9780 C   0  0  0  0  0  3  0  0  0  0  0  0
  -23.5400   -8.3450   22.1540 C   0  0  0  0  0  3  0  0  0  0  0  0
  -22.3700   -8.1120   21.3940 C   0  0  0  0  0  0  0  0  0  0  0  0
  -21.9650   -9.0680   20.4470 C   0  0  0  0  0  3  0  0  0  0  0  0
  -22.6980  -10.2530   20.2690 C   0  0  0  0  0  3  0  0  0  0  0  0
  -21.6090   -6.9700   21.4800 O   0  0  0  0  0  0  0  0  0  0  0  0
  -21.5510   -6.2290   22.6330 C   0  0  0  0  0  0  0  0  0  0  0  0
  -21.1090   -6.7850   23.8540 C   0  0  0  0  0  3  0  0  0  0  0  0
  -20.9990   -5.9700   24.9980 C   0  0  0  0  0  3  0  0  0  0  0  0
  -21.3190   -4.6010   24.9240 C   0  0  0  0  0  0  0  0  0  0  0  0
  -21.7540   -4.0460   23.7070 C   0  0  0  0  0  3  0  0  0  0  0  0
  -21.8660   -4.8570   22.5650 C   0  0  0  0  0  0  0  0  0  0  0  0
  -22.2660   -4.3120   21.3910 F   0  0  0  0  0  0  0  0  0  0  0  0
  -21.2060   -3.8170   26.0210 F   0  0  0  0  0  0  0  0  0  0  0  0
  -22.7260  -13.6030   21.1430 C   0  0  0  0  0  0  0  0  0  0  0  0
  -21.9900  -12.9100   22.0050 N   0  0  0  0  0  0  0  0  0  0  0  0
  -22.2950  -14.6310   20.6200 O   0  0  0  0  0  0  0  0  0  0  0  0
  -22.3510  -12.0790   22.4500 H   0  0  0  0  0  0  0  0  0  0  0  0
  -21.0520  -13.2150   22.2250 H   0  0  0  0  0  0  0  0  0  0  0  0
  -25.3600  -15.2580   20.3290 N   0  0  0  0  0  0  0  0  0  0  0  0
  -24.5870  -15.9090   20.4250 H   0  0  0  0  0  0  0  0  0  0  0  0
  -26.1950  -15.6930   19.9590 H   0  0  0  0  0  0  0  0  0  0  0  0
  1  2  1  0
  1  3  2  0
  2  4  2  0
  3  6  1  0
  3  5  1  0
  4  5  1  0
  4 50  1  0
  7  6  2  0
  7  8  1  0
  9  8  1  0
 10 21  2  0
 11  9  1  0
 11 16  1  0
 12 20  1  0
 12 22  1  0
 13 19  1  0
 13 15  1  0
 14 20  1  0
 15 16  2  0
 15 14  1  0
 17 11  2  0
 18 17  1  0
 18 13  2  0
 19 12  1  0
 20 10  1  0
 22 24  2  0
 23 22  1  0
 25 23  1  0
 26 35  2  0
 26 31  1  0
 27 23  1  0
 27 31  1  0
 28 27  1  0
 29 30  1  0
 29 28  1  0
 30 26  1  0
 31 32  2  0
 32 33  1  0
 34 33  2  0
 35 34  1  0
 36 10  1  0
 36 41  1  0
 36 37  1  0
 37 40  1  1
 37 38  1  0
 39 37  1  0
 41 44  1  0
 42 46  1  0
 42 41  1  0
 43 42  2  0
 46 45  1  0
 48 46  1  0
 48 49  1  0
 48 47  1  0
 51 59  1  0
 52 57  1  0
 53 54  1  0
 53 52  1  0
 55 54  1  0
 55 64  1  0
 55 56  1  0
 57 51  1  0
 57 56  1  0
 58 51  2  0
 59 60  1  0
 59 50  1  0
 61 62  2  0
 62 81  1  0
 63 62  1  0
 63 66  1  0
 64 61  1  0
 64 65  1  0
 65 63  2  0
 66 67  1  0
 67 68  2  0
 69 72  1  0
 69 68  1  0
 70 69  2  0
 71 70  1  0
 71 66  2  0
 72 73  1  0
 73 74  1  0
 74 75  2  0
 76 75  1  0
 76 80  1  0
 77 76  2  0
 78 73  2  0
 78 77  1  0
 79 78  1  0
 81 82  1  0
 82 85  1  0
 82 84  1  0
 83 81  2  0
 86 87  1  0
 86 61  1  0
 88 86  1  0
M  ISO  4   8 101   9 101  51 100  59 100
M  END
>  <TORSDO>  (9) 
F 19

>  <SCORE>  (9) 
-14.161

>  <name>  (9) 
8

>  <ligand_id>  (9) 
8

>  <original_smiles>  (9) 
[H]C(=C([H])C([H])([H])Oc1c([H])c([H])c2c(c1[H])C([H])([H])N(C(=O)C([H])(N([H])C(=O)C([H])(N([H])C([H])([H])[H])C([H])([H])[H])C(C([H])([H])[H])(C([H])([H])[H])C([H])([H])[H])C([H])(C(=O)N([H])C1([H])c3c([H])c([H])c([H])c([H])c3C([H])([H])C([H])([H])C1([H])[H])C2([H])[H])c1oc(C([H])([H])N([H])C(=O)N2C([H])([H])C([H])([H])C([H])([H])C([H])(n3nc(-c4c([H])c([H])c(Oc5c([H])c([H])c(F)c([H])c5F)c([H])c4[H])c(C(=O)N([H])[H])c3N([H])[H])C2([H])[H])c([H])c1[H]

>  <smiles>  (9) 
[H]C(=C([H])C([H])([H])Oc1c([H])c([H])c2c(c1[H])C([H])([H])N(C(=O)C([H])(N([H])C(=O)C([H])(N([H])C([H])([H])[H])C([H])([H])[H])C(C([H])([H])[H])(C([H])([H])[H])C([H])([H])[H])C([H])(C(=O)N([H])C1([H])c3c([H])c([H])c([H])c([H])c3C([H])([H])C([H])([H])C1([H])[H])C2([H])[H])c1oc(C([H])([H])N([H])C(=O)N2C([H])([H])C([H])([H])C([H])([H])C([H])(n3nc(-c4c([H])c([H])c(Oc5c([H])c([H])c(F)c([H])c5F)c([H])c4[H])c(C(=O)N([H])[H])c3N([H])[H])C2([H])[H])c([H])c1[H]

$$$$
9:0:0
     RDKit          3D

 96105  0  0  1  0  0  0  0  0999 V2000
  -28.7830  -21.3120   20.4350 C   0  0  0  0  0  2  0  0  0  0  0  0
  -30.5850  -22.8400   21.2410 C   0  0  0  0  0  0  0  0  0  0  0  0
  -31.3070  -24.1040   20.8100 C   0  0  0  0  0  2  0  0  0  0  0  0
  -30.5180  -24.5270   19.5710 C   0  0  0  0  0  2  0  0  0  0  0  0
  -29.1090  -23.9560   19.8080 C   0  0  0  0  0  3  0  0  0  0  0  0
  -29.4400  -22.6740   20.5570 N   0  0  0  0  0  0  0  0  0  0  0  0
  -31.0660  -22.0550   22.0600 O   0  0  0  0  0  0  0  0  0  0  0  0
  -28.2310  -25.0710   20.5680 C   0  0  0  0  0  2  0  0  0  0  0  0
  -28.3520  -26.5020   20.1660 O   0  0  0  0  0  0  0  0  0  0  0  0
  -24.5960  -31.8810   23.2330 C   0  0  0  0  0  0  0  0  0  0  0  0
  -27.2180  -27.3290   20.1750 C   0  0  0  0  0  0  0  0  0  0  0  0
  -23.3930  -30.4800   21.5910 C   0  0  0  0  0  3  0  0  0  0  0  0
  -24.8460  -28.9290   20.1670 C   0  0  0  0  0  0  0  0  0  0  0  0
  -25.9300  -30.8060   21.4030 C   0  0  0  0  0  2  0  0  0  0  0  0
  -26.0140  -29.4250   20.7600 C   0  0  0  0  0  0  0  0  0  0  0  0
  -27.2050  -28.6390   20.7480 C   0  0  0  0  0  3  0  0  0  0  0  0
  -26.0300  -26.8820   19.5620 C   0  0  0  0  0  3  0  0  0  0  0  0
  -24.8550  -27.6620   19.5600 C   0  0  0  0  0  3  0  0  0  0  0  0
  -23.6080  -29.8010   20.2120 C   0  0  0  0  0  2  0  0  0  0  0  0
  -24.6590  -31.0740   22.1320 N   0  0  0  0  0  0  0  0  0  0  0  0
  -23.5130  -32.1550   23.7690 O   0  0  0  0  0  0  0  0  0  0  0  0
  -22.7320  -29.4630   22.5520 C   0  0  0  0  0  0  0  0  0  0  0  0
  -21.4070  -29.2820   22.4240 N   0  0  0  0  0  0  0  0  0  0  0  0
  -23.4120  -28.8400   23.3720 O   0  0  0  0  0  0  0  0  0  0  0  0
  -20.9190  -29.8360   21.7360 H   0  0  0  0  0  0  0  0  0  0  0  0
  -18.0330  -28.0780   22.9190 C   0  0  0  0  0  0  0  0  0  0  0  0
  -20.5900  -28.3430   23.1930 C   0  0  0  0  0  3  0  0  0  0  0  0
  -20.6960  -26.9110   22.6180 C   0  0  0  0  0  2  0  0  0  0  0  0
  -19.5960  -26.5860   21.6020 C   0  0  0  0  0  2  0  0  0  0  0  0
  -18.2130  -26.7280   22.2430 C   0  0  0  0  0  2  0  0  0  0  0  0
  -19.1490  -28.8410   23.3500 C   0  0  0  0  0  0  0  0  0  0  0  0
  -18.9250  -30.1040   23.9420 C   0  0  0  0  0  3  0  0  0  0  0  0
  -17.6190  -30.6020   24.1060 C   0  0  0  0  0  3  0  0  0  0  0  0
  -16.5170  -29.8340   23.6910 C   0  0  0  0  0  3  0  0  0  0  0  0
  -16.7250  -28.5730   23.1030 C   0  0  0  0  0  3  0  0  0  0  0  0
  -25.8770  -32.5140   23.8560 C   0  0  0  0  0  3  0  0  0  0  0  0
  -25.5690  -33.9140   24.1800 N   0  0  0  0  0  0  0  0  0  0  0  0
  -25.9070  -34.9650   23.4210 C   0  0  0  0  0  0  0  0  0  0  0  0
  -26.5830  -34.8580   22.3940 O   0  0  0  0  0  0  0  0  0  0  0  0
  -24.9690  -34.0710   24.9760 H   0  0  0  0  0  0  0  0  0  0  0  0
  -24.1900  -36.7650   23.0510 C   0  0  0  0  0  1  0  0  0  0  0  0
  -25.4210  -36.3560   23.8740 C   0  0  0  0  0  3  0  0  0  0  0  0
  -27.5520  -37.2330   24.7240 C   0  0  0  0  0  1  0  0  0  0  0  0
  -26.4590  -37.4050   23.7700 N   0  0  0  0  0  0  0  0  0  0  0  0
  -26.0560  -38.3270   23.9130 H   0  0  0  0  0  0  0  0  0  0  0  0
  -26.3890  -31.7480   25.1370 C   0  0  1  0  0  0  0  0  0  0  0  0
  -25.2930  -31.5170   26.2030 C   0  0  0  0  0  1  0  0  0  0  0  0
  -26.9700  -30.3670   24.7520 C   0  0  0  0  0  1  0  0  0  0  0  0
  -27.5390  -32.5440   25.7980 C   0  0  0  0  0  1  0  0  0  0  0  0
  -29.3640  -18.6900   20.4700 C   0  0  0  0  0  3  0  0  0  0  0  0
  -31.1020  -17.7690   19.0700 C   0  0  0  0  0  3  0  0  0  0  0  0
  -30.6570  -20.1840   19.0620 C   0  0  0  0  0  3  0  0  0  0  0  0
  -30.0890  -17.5070   20.0260 C   0  0  0  0  0  0  0  0  0  0  0  0
  -29.6240  -20.0350   20.0060 C   0  0  0  0  0  0  0  0  0  0  0  0
  -31.3980  -19.0680   18.5980 C   0  0  0  0  0  0  0  0  0  0  0  0
  -29.7480  -16.0600   20.5170 C   0  0  0  0  0  0  0  0  0  0  0  0
  -28.7710  -15.9700   21.3180 N   0  0  0  0  0  0  0  0  0  0  0  0
  -28.3760  -16.8810   21.5120 H   0  0  0  0  0  0  0  0  0  0  0  0
  -30.5640  -14.7430   20.0460 C   0  0  0  0  0  0  0  0  0  0  0  0
  -30.3150  -12.5150   18.9550 C   0  0  0  0  0  2  0  0  0  0  0  0
  -29.3000  -12.6570   17.7950 C   0  0  0  0  0  2  0  0  0  0  0  0
  -27.8510  -12.4750   18.2960 C   0  0  0  0  0  2  0  0  0  0  0  0
  -27.5640  -13.2860   19.5880 C   0  0  0  0  0  3  0  0  0  0  0  0
  -28.6870  -13.0660   20.6220 C   0  0  0  0  0  2  0  0  0  0  0  0
  -29.9470  -13.5040   19.9970 N   0  0  0  0  0  0  0  0  0  0  0  0
  -31.7190  -14.8450   19.6150 O   0  0  0  0  0  0  0  0  0  0  0  0
  -25.2160  -13.8640   20.4500 C   0  0  0  0  0  0  0  0  0  0  0  0
  -24.1710  -13.0800   20.8550 C   0  0  0  0  0  0  0  0  0  0  0  0
  -24.6320  -11.7310   20.7700 C   0  0  0  0  0  0  0  0  0  0  0  0
  -26.2460  -12.9900   20.1390 N   0  0  0  0  0  0  0  0  0  0  0  0
  -25.9040  -11.7010   20.3910 N   0  0  0  0  0  0  0  0  0  0  0  0
  -23.9200  -10.4640   20.9730 C   0  0  0  0  0  0  0  0  0  0  0  0
  -24.3840   -9.4950   21.8900 C   0  0  0  0  0  3  0  0  0  0  0  0
  -23.6730   -8.2910   22.0810 C   0  0  0  0  0  3  0  0  0  0  0  0
  -22.4830   -8.0480   21.3540 C   0  0  0  0  0  0  0  0  0  0  0  0
  -22.0380   -9.0060   20.4260 C   0  0  0  0  0  3  0  0  0  0  0  0
  -22.7500  -10.2010   20.2340 C   0  0  0  0  0  3  0  0  0  0  0  0
  -21.7380   -6.8970   21.4550 O   0  0  0  0  0  0  0  0  0  0  0  0
  -21.6990   -6.1660   22.6150 C   0  0  0  0  0  0  0  0  0  0  0  0
  -21.2660   -6.7280   23.8360 C   0  0  0  0  0  3  0  0  0  0  0  0
  -21.1750   -5.9220   24.9880 C   0  0  0  0  0  3  0  0  0  0  0  0
  -21.5050   -4.5550   24.9200 C   0  0  0  0  0  0  0  0  0  0  0  0
  -21.9310   -3.9930   23.7040 C   0  0  0  0  0  3  0  0  0  0  0  0
  -22.0240   -4.7960   22.5540 C   0  0  0  0  0  0  0  0  0  0  0  0
  -22.4150   -4.2450   21.3790 F   0  0  0  0  0  0  0  0  0  0  0  0
  -21.4100   -3.7780   26.0250 F   0  0  0  0  0  0  0  0  0  0  0  0
  -22.7900  -13.5480   21.2160 C   0  0  0  0  0  0  0  0  0  0  0  0
  -22.1160  -12.8330   22.1100 N   0  0  0  0  0  0  0  0  0  0  0  0
  -22.3200  -14.5820   20.7420 O   0  0  0  0  0  0  0  0  0  0  0  0
  -22.5110  -11.9970   22.5150 H   0  0  0  0  0  0  0  0  0  0  0  0
  -21.1920  -13.1270   22.3950 H   0  0  0  0  0  0  0  0  0  0  0  0
  -25.3750  -15.2380   20.3020 N   0  0  0  0  0  0  0  0  0  0  0  0
  -24.6460  -15.9050   20.5300 H   0  0  0  0  0  0  0  0  0  0  0  0
  -26.2720  -15.6720   20.1150 H   0  0  0  0  0  0  0  0  0  0  0  0
  -32.8010  -20.4590   17.2270 C   0  0  0  0  0  1  0  0  0  0  0  0
  -32.4160  -19.1630   17.6740 O   0  0  0  0  0  0  0  0  0  0  0  0
  1  6  1  0
  2  7  2  0
  3  2  1  0
  4  5  1  0
  4  3  1  0
  5  6  1  0
  5  8  1  0
  6  2  1  0
  9 11  1  0
  9  8  1  0
 10 21  2  0
 11 16  1  0
 12 20  1  0
 12 22  1  0
 13 19  1  0
 13 15  1  0
 14 20  1  0
 15 14  1  0
 16 15  2  0
 17 11  2  0
 18 17  1  0
 18 13  2  0
 19 12  1  0
 20 10  1  0
 22 24  2  0
 23 22  1  0
 25 23  1  0
 26 35  2  0
 26 31  1  0
 27 23  1  0
 27 31  1  0
 28 27  1  0
 29 30  1  0
 29 28  1  0
 30 26  1  0
 31 32  2  0
 32 33  1  0
 34 33  2  0
 35 34  1  0
 36 10  1  0
 36 37  1  0
 36 46  1  0
 37 40  1  0
 38 42  1  0
 38 37  1  0
 39 38  2  0
 42 41  1  0
 44 42  1  0
 44 45  1  0
 44 43  1  0
 46 49  1  1
 46 47  1  0
 48 46  1  0
 51 53  2  0
 52 54  1  0
 53 50  1  0
 53 56  1  0
 54  1  1  0
 54 50  2  0
 55 52  2  0
 55 51  1  0
 56 57  2  0
 57 58  1  0
 59 56  1  0
 60 65  1  0
 61 62  1  0
 61 60  1  0
 63 62  1  0
 63 70  1  0
 63 64  1  0
 65 59  1  0
 65 64  1  0
 66 59  2  0
 67 68  2  0
 68 87  1  0
 69 68  1  0
 69 72  1  0
 70 71  1  0
 70 67  1  0
 71 69  2  0
 72 73  1  0
 73 74  2  0
 75 78  1  0
 75 74  1  0
 76 75  2  0
 77 76  1  0
 77 72  2  0
 78 79  1  0
 79 80  1  0
 80 81  2  0
 82 81  1  0
 82 86  1  0
 83 82  2  0
 84 79  2  0
 84 83  1  0
 85 84  1  0
 87 88  1  0
 88 91  1  0
 88 90  1  0
 89 87  2  0
 92 67  1  0
 92 93  1  0
 94 92  1  0
 95 96  1  0
 96 55  1  0
M  ISO  4   8 101   9 101  56 100  59 100
M  END
>  <TORSDO>  (10) 
F 21

>  <SCORE>  (10) 
-13.674

>  <name>  (10) 
9

>  <ligand_id>  (10) 
9

>  <original_smiles>  (10) 
[H]N=C(C(=O)N1C([H])([H])C([H])([H])C([H])([H])C([H])(n2nc(-c3c([H])c([H])c(Oc4c([H])c([H])c(F)c([H])c4F)c([H])c3[H])c(C(=O)N([H])[H])c2N([H])[H])C1([H])[H])c1c([H])c(OC([H])([H])[H])c([H])c(C([H])([H])N2C(=O)C([H])([H])C([H])([H])C2([H])C([H])([H])Oc2c([H])c([H])c3c(c2[H])C([H])([H])N(C(=O)C([H])(N([H])C(=O)C([H])(N([H])C([H])([H])[H])C([H])([H])[H])C(C([H])([H])[H])(C([H])([H])[H])C([H])([H])[H])C([H])(C(=O)N([H])C2([H])c4c([H])c([H])c([H])c([H])c4C([H])([H])C([H])([H])C2([H])[H])C3([H])[H])c1[H]

>  <smiles>  (10) 
[H]N=C(C(=O)N1C([H])([H])C([H])([H])C([H])([H])C([H])(n2nc(-c3c([H])c([H])c(Oc4c([H])c([H])c(F)c([H])c4F)c([H])c3[H])c(C(=O)N([H])[H])c2N([H])[H])C1([H])[H])c1c([H])c(OC([H])([H])[H])c([H])c(C([H])([H])N2C(=O)C([H])([H])C([H])([H])C2([H])C([H])([H])Oc2c([H])c([H])c3c(c2[H])C([H])([H])N(C(=O)C([H])(N([H])C(=O)C([H])(N([H])C([H])([H])[H])C([H])([H])[H])C(C([H])([H])[H])(C([H])([H])[H])C([H])([H])[H])C([H])(C(=O)N([H])C2([H])c4c([H])c([H])c([H])c([H])c4C([H])([H])C([H])([H])C2([H])[H])C3([H])[H])c1[H]

$$$$
10:0:0
     RDKit          3D

 94102  0  0  1  0  0  0  0  0999 V2000
  -28.9910  -18.6600   20.6900 C   0  0  0  0  0  3  0  0  0  0  0  0
  -31.1610  -18.5730   21.7810 C   0  0  0  0  0  3  0  0  0  0  0  0
  -29.0760  -20.0710   20.5860 C   0  0  0  0  0  0  0  0  0  0  0  0
  -30.0330  -17.8990   21.2670 C   0  0  0  0  0  0  0  0  0  0  0  0
  -30.2280  -20.7310   21.0820 C   0  0  0  0  0  0  0  0  0  0  0  0
  -31.2580  -19.9760   21.6900 C   0  0  0  0  0  0  0  0  0  0  0  0
  -32.3650  -20.5990   22.1640 F   0  0  0  0  0  0  0  0  0  0  0  0
  -27.0580  -20.4020   19.1090 C   0  0  0  0  0  2  0  0  0  0  0  0
  -28.0080  -20.8650   19.9400 C   0  0  0  0  0  3  0  0  0  0  0  0
  -29.9550  -16.3640   21.3000 C   0  0  0  0  0  2  0  0  0  0  0  0
  -31.0570  -14.5650   19.9990 C   0  0  0  0  0  0  0  0  0  0  0  0
  -30.7000  -12.3690   18.9420 C   0  0  0  0  0  2  0  0  0  0  0  0
  -29.7110  -12.5510   17.7710 C   0  0  0  0  0  2  0  0  0  0  0  0
  -28.2550  -12.4390   18.2650 C   0  0  0  0  0  2  0  0  0  0  0  0
  -27.9750  -13.3060   19.5230 C   0  0  0  0  0  3  0  0  0  0  0  0
  -29.0780  -13.1140   20.5880 C   0  0  0  0  0  2  0  0  0  0  0  0
  -30.3720  -13.3890   19.9490 N   0  0  0  0  0  0  0  0  0  0  0  0
  -32.2110  -14.6750   19.5730 O   0  0  0  0  0  0  0  0  0  0  0  0
  -30.2320  -16.4900   18.8100 C   0  0  0  0  0  1  0  0  0  0  0  0
  -30.2690  -15.6680   20.0310 N   0  0  0  0  0  0  0  0  0  0  0  0
  -25.6410  -13.9540   20.3880 C   0  0  0  0  0  0  0  0  0  0  0  0
  -24.5700  -13.2000   20.7840 C   0  0  0  0  0  0  0  0  0  0  0  0
  -24.9870  -11.8370   20.6780 C   0  0  0  0  0  0  0  0  0  0  0  0
  -26.6440  -13.0520   20.0670 N   0  0  0  0  0  0  0  0  0  0  0  0
  -26.2580  -11.7720   20.2990 N   0  0  0  0  0  0  0  0  0  0  0  0
  -24.2340  -10.5890   20.8580 C   0  0  0  0  0  0  0  0  0  0  0  0
  -24.6650   -9.5900   21.7590 C   0  0  0  0  0  3  0  0  0  0  0  0
  -23.9150   -8.4060   21.9290 C   0  0  0  0  0  3  0  0  0  0  0  0
  -22.7190   -8.2140   21.1980 C   0  0  0  0  0  0  0  0  0  0  0  0
  -22.3060   -9.2010   20.2850 C   0  0  0  0  0  3  0  0  0  0  0  0
  -23.0580  -10.3760   20.1120 C   0  0  0  0  0  3  0  0  0  0  0  0
  -21.9400   -7.0850   21.2780 O   0  0  0  0  0  0  0  0  0  0  0  0
  -21.8630   -6.3430   22.4300 C   0  0  0  0  0  0  0  0  0  0  0  0
  -21.4190   -6.9020   23.6480 C   0  0  0  0  0  3  0  0  0  0  0  0
  -21.2890   -6.0870   24.7910 C   0  0  0  0  0  3  0  0  0  0  0  0
  -21.5950   -4.7150   24.7170 C   0  0  0  0  0  0  0  0  0  0  0  0
  -22.0360   -4.1570   23.5040 C   0  0  0  0  0  3  0  0  0  0  0  0
  -22.1660   -4.9680   22.3630 C   0  0  0  0  0  0  0  0  0  0  0  0
  -22.5690   -4.4190   21.1920 F   0  0  0  0  0  0  0  0  0  0  0  0
  -21.4640   -3.9310   25.8130 F   0  0  0  0  0  0  0  0  0  0  0  0
  -23.2040  -13.7050   21.1530 C   0  0  0  0  0  0  0  0  0  0  0  0
  -22.5060  -12.9960   22.0340 N   0  0  0  0  0  0  0  0  0  0  0  0
  -22.7660  -14.7600   20.6960 O   0  0  0  0  0  0  0  0  0  0  0  0
  -22.8740  -12.1400   22.4240 H   0  0  0  0  0  0  0  0  0  0  0  0
  -21.5910  -13.3110   22.3240 H   0  0  0  0  0  0  0  0  0  0  0  0
  -25.8470  -15.3250   20.2530 N   0  0  0  0  0  0  0  0  0  0  0  0
  -25.1210  -16.0120   20.4230 H   0  0  0  0  0  0  0  0  0  0  0  0
  -26.7030  -15.7320   19.9020 H   0  0  0  0  0  0  0  0  0  0  0  0
  -30.3780  -22.0910   20.9090 O   0  0  0  0  0  0  0  0  0  0  0  0
  -30.1440  -22.8730   22.0770 C   0  0  0  0  0  2  0  0  0  0  0  0
  -30.2600  -24.3750   21.7510 C   0  0  0  0  0  2  0  0  0  0  0  0
  -29.2030  -24.9080   20.7630 C   0  0  0  0  0  2  0  0  0  0  0  0
  -29.2830  -26.4340   20.5570 C   0  0  0  0  0  2  0  0  0  0  0  0
  -28.5000  -26.7760   19.4190 O   0  0  0  0  0  0  0  0  0  0  0  0
  -24.6460  -31.6350   23.0150 C   0  0  0  0  0  0  0  0  0  0  0  0
  -27.3270  -27.4610   19.6190 C   0  0  0  0  0  0  0  0  0  0  0  0
  -23.4330  -30.3030   21.3180 C   0  0  0  0  0  3  0  0  0  0  0  0
  -24.8920  -28.8810   19.7810 C   0  0  0  0  0  0  0  0  0  0  0  0
  -25.9450  -30.7300   21.0940 C   0  0  0  0  0  2  0  0  0  0  0  0
  -26.0480  -29.4000   20.3800 C   0  0  0  0  0  0  0  0  0  0  0  0
  -27.2700  -28.6940   20.3080 C   0  0  0  0  0  3  0  0  0  0  0  0
  -26.1600  -26.9500   19.0190 C   0  0  0  0  0  3  0  0  0  0  0  0
  -24.9400  -27.6490   19.1040 C   0  0  0  0  0  3  0  0  0  0  0  0
  -23.6290  -29.7070   19.8970 C   0  0  0  0  0  2  0  0  0  0  0  0
  -24.6930  -30.9020   21.8670 N   0  0  0  0  0  0  0  0  0  0  0  0
  -23.5720  -31.8500   23.5940 O   0  0  0  0  0  0  0  0  0  0  0  0
  -22.8260  -29.2120   22.2280 C   0  0  0  0  0  0  0  0  0  0  0  0
  -21.4990  -29.0250   22.1310 N   0  0  0  0  0  0  0  0  0  0  0  0
  -23.5420  -28.5420   22.9750 O   0  0  0  0  0  0  0  0  0  0  0  0
  -20.9810  -29.6240   21.5050 H   0  0  0  0  0  0  0  0  0  0  0  0
  -18.1560  -27.7620   22.6590 C   0  0  0  0  0  0  0  0  0  0  0  0
  -20.7180  -28.0280   22.8630 C   0  0  0  0  0  3  0  0  0  0  0  0
  -20.8120  -26.6370   22.1900 C   0  0  0  0  0  2  0  0  0  0  0  0
  -19.6810  -26.3710   21.1930 C   0  0  0  0  0  2  0  0  0  0  0  0
  -18.3210  -26.4610   21.8900 C   0  0  0  0  0  2  0  0  0  0  0  0
  -19.2810  -28.5060   23.1010 C   0  0  0  0  0  0  0  0  0  0  0  0
  -19.0730  -29.7270   23.7770 C   0  0  0  0  0  3  0  0  0  0  0  0
  -17.7700  -30.2020   24.0200 C   0  0  0  0  0  3  0  0  0  0  0  0
  -16.6590  -29.4540   23.5930 C   0  0  0  0  0  3  0  0  0  0  0  0
  -16.8530  -28.2360   22.9180 C   0  0  0  0  0  3  0  0  0  0  0  0
  -25.9330  -32.2570   23.6410 C   0  0  0  0  0  3  0  0  0  0  0  0
  -25.6110  -33.6340   24.0360 N   0  0  0  0  0  0  0  0  0  0  0  0
  -25.9260  -34.7230   23.3230 C   0  0  0  0  0  0  0  0  0  0  0  0
  -26.5910  -34.6760   22.2850 O   0  0  0  0  0  0  0  0  0  0  0  0
  -25.0190  -33.7420   24.8470 H   0  0  0  0  0  0  0  0  0  0  0  0
  -24.1750  -36.5110   23.0570 C   0  0  0  0  0  1  0  0  0  0  0  0
  -25.4220  -36.0840   23.8440 C   0  0  0  0  0  3  0  0  0  0  0  0
  -27.5450  -36.9600   24.7150 C   0  0  0  0  0  1  0  0  0  0  0  0
  -26.4420  -37.1530   23.7760 N   0  0  0  0  0  0  0  0  0  0  0  0
  -26.0240  -38.0600   23.9630 H   0  0  0  0  0  0  0  0  0  0  0  0
  -26.4850  -31.4360   24.8710 C   0  0  1  0  0  0  0  0  0  0  0  0
  -25.4190  -31.1430   25.9520 C   0  0  0  0  0  1  0  0  0  0  0  0
  -27.0700  -30.0820   24.4050 C   0  0  0  0  0  1  0  0  0  0  0  0
  -27.6450  -32.2090   25.5400 C   0  0  0  0  0  1  0  0  0  0  0  0
  1  4  1  0
  3  1  2  0
  3  5  1  0
  4 10  1  0
  4  2  2  0
  5  6  2  0
  6  2  1  0
  6  7  1  0
  8  9  2  0
  9  3  1  0
 11 20  1  0
 12 17  1  0
 13 14  1  0
 13 12  1  0
 15 14  1  0
 15 24  1  0
 15 16  1  0
 17 11  1  0
 17 16  1  0
 18 11  2  0
 19 20  1  0
 20 10  1  0
 21 22  2  0
 22 41  1  0
 23 22  1  0
 23 26  1  0
 24 25  1  0
 24 21  1  0
 25 23  2  0
 26 27  1  0
 27 28  2  0
 29 32  1  0
 29 28  1  0
 30 29  2  0
 31 30  1  0
 31 26  2  0
 32 33  1  0
 33 34  1  0
 34 35  2  0
 36 35  1  0
 36 40  1  0
 37 36  2  0
 38 33  2  0
 38 37  1  0
 39 38  1  0
 41 42  1  0
 42 45  1  0
 42 44  1  0
 43 41  2  0
 46 21  1  0
 46 47  1  0
 48 46  1  0
 49  5  1  0
 49 50  1  0
 51 50  1  0
 52 51  1  0
 53 52  1  0
 54 56  1  0
 54 53  1  0
 55 66  2  0
 56 61  1  0
 57 65  1  0
 57 67  1  0
 58 64  1  0
 58 60  1  0
 59 65  1  0
 60 59  1  0
 61 60  2  0
 62 63  1  0
 62 56  2  0
 63 58  2  0
 64 57  1  0
 65 55  1  0
 67 69  2  0
 68 67  1  0
 70 68  1  0
 71 80  2  0
 71 76  1  0
 72 68  1  0
 72 76  1  0
 73 72  1  0
 74 75  1  0
 74 73  1  0
 75 71  1  0
 76 77  2  0
 77 78  1  0
 79 78  2  0
 80 79  1  0
 81 55  1  0
 81 82  1  0
 81 91  1  0
 82 85  1  0
 83 87  1  0
 83 82  1  0
 84 83  2  0
 87 86  1  0
 89 87  1  0
 89 90  1  0
 89 88  1  0
 91 94  1  1
 91 92  1  0
 93 91  1  0
M  ISO  4  11 100  20 100  53 101  54 101
M  END
>  <TORSDO>  (11) 
F 23

>  <SCORE>  (11) 
-12.374

>  <name>  (11) 
10

>  <ligand_id>  (11) 
10

>  <original_smiles>  (11) 
[H]C([H])=C([H])c1c([H])c(C([H])([H])N(C(=O)N2C([H])([H])C([H])([H])C([H])([H])C([H])(n3nc(-c4c([H])c([H])c(Oc5c([H])c([H])c(F)c([H])c5F)c([H])c4[H])c(C(=O)N([H])[H])c3N([H])[H])C2([H])[H])C([H])([H])[H])c([H])c(F)c1OC([H])([H])C([H])([H])C([H])([H])C([H])([H])Oc1c([H])c([H])c2c(c1[H])C([H])([H])N(C(=O)C([H])(N([H])C(=O)C([H])(N([H])C([H])([H])[H])C([H])([H])[H])C(C([H])([H])[H])(C([H])([H])[H])C([H])([H])[H])C([H])(C(=O)N([H])C1([H])c3c([H])c([H])c([H])c([H])c3C([H])([H])C([H])([H])C1([H])[H])C2([H])[H]

>  <smiles>  (11) 
[H]C([H])=C([H])c1c([H])c(C([H])([H])N(C(=O)N2C([H])([H])C([H])([H])C([H])([H])C([H])(n3nc(-c4c([H])c([H])c(Oc5c([H])c([H])c(F)c([H])c5F)c([H])c4[H])c(C(=O)N([H])[H])c3N([H])[H])C2([H])[H])C([H])([H])[H])c([H])c(F)c1OC([H])([H])C([H])([H])C([H])([H])C([H])([H])Oc1c([H])c([H])c2c(c1[H])C([H])([H])N(C(=O)C([H])(N([H])C(=O)C([H])(N([H])C([H])([H])[H])C([H])([H])[H])C(C([H])([H])[H])(C([H])([H])[H])C([H])([H])[H])C([H])(C(=O)N([H])C1([H])c3c([H])c([H])c([H])c([H])c3C([H])([H])C([H])([H])C1([H])[H])C2([H])[H]

$$$$
11:0:0
     RDKit          3D

 93101  0  0  1  0  0  0  0  0999 V2000
  -30.7930  -18.0100   22.2820 C   0  0  0  0  0  3  0  0  0  0  0  0
  -30.3020  -20.3000   21.6320 C   0  0  0  0  0  3  0  0  0  0  0  0
  -30.6730  -19.3720   22.6130 C   0  0  0  0  0  0  0  0  0  0  0  0
  -30.5230  -17.4440   20.9980 C   0  0  0  0  0  0  0  0  0  0  0  0
  -30.0300  -19.9220   20.3090 C   0  0  0  0  0  0  0  0  0  0  0  0
  -30.1520  -18.4700   20.0010 C   0  0  0  0  0  0  0  0  0  0  0  0
  -29.8710  -18.0570   18.7430 F   0  0  0  0  0  0  0  0  0  0  0  0
  -30.9600  -14.9860   19.9500 C   0  0  0  0  0  0  0  0  0  0  0  0
  -30.6550  -12.7230   18.8320 C   0  0  0  0  0  2  0  0  0  0  0  0
  -29.6330  -12.7580   17.6740 C   0  0  0  0  0  2  0  0  0  0  0  0
  -28.2010  -12.5510   18.1990 C   0  0  0  0  0  2  0  0  0  0  0  0
  -27.9000  -13.4570   19.4170 C   0  0  0  0  0  3  0  0  0  0  0  0
  -29.0180  -13.3770   20.4670 C   0  0  0  0  0  2  0  0  0  0  0  0
  -30.2930  -13.7660   19.8310 N   0  0  0  0  0  0  0  0  0  0  0  0
  -31.9700  -15.1770   19.2630 O   0  0  0  0  0  0  0  0  0  0  0  0
  -30.7380  -15.2410   22.2640 C   0  0  0  0  0  1  0  0  0  0  0  0
  -30.5720  -15.9040   20.9390 N   0  0  0  0  0  0  0  0  0  0  0  0
  -25.6060  -14.0770   20.3830 C   0  0  0  0  0  0  0  0  0  0  0  0
  -24.5540  -13.3140   20.8110 C   0  0  0  0  0  0  0  0  0  0  0  0
  -24.9740  -11.9560   20.6830 C   0  0  0  0  0  0  0  0  0  0  0  0
  -26.5950  -13.1810   20.0110 N   0  0  0  0  0  0  0  0  0  0  0  0
  -26.2300  -11.8970   20.2590 N   0  0  0  0  0  0  0  0  0  0  0  0
  -24.2310  -10.7050   20.8860 C   0  0  0  0  0  0  0  0  0  0  0  0
  -24.6600   -9.7300   21.8140 C   0  0  0  0  0  3  0  0  0  0  0  0
  -23.9180   -8.5430   22.0010 C   0  0  0  0  0  3  0  0  0  0  0  0
  -22.7310   -8.3240   21.2620 C   0  0  0  0  0  0  0  0  0  0  0  0
  -22.3190   -9.2890   20.3260 C   0  0  0  0  0  3  0  0  0  0  0  0
  -23.0620  -10.4670   20.1370 C   0  0  0  0  0  3  0  0  0  0  0  0
  -21.9590   -7.1920   21.3600 O   0  0  0  0  0  0  0  0  0  0  0  0
  -21.8390   -6.5010   22.5400 C   0  0  0  0  0  0  0  0  0  0  0  0
  -21.3260   -7.1060   23.7080 C   0  0  0  0  0  3  0  0  0  0  0  0
  -21.1560   -6.3390   24.8790 C   0  0  0  0  0  3  0  0  0  0  0  0
  -21.4880   -4.9720   24.8800 C   0  0  0  0  0  0  0  0  0  0  0  0
  -21.9950   -4.3690   23.7160 C   0  0  0  0  0  3  0  0  0  0  0  0
  -22.1680   -5.1310   22.5480 C   0  0  0  0  0  0  0  0  0  0  0  0
  -22.6350   -4.5390   21.4220 F   0  0  0  0  0  0  0  0  0  0  0  0
  -21.3180   -4.2340   26.0020 F   0  0  0  0  0  0  0  0  0  0  0  0
  -23.1990  -13.8160   21.2200 C   0  0  0  0  0  0  0  0  0  0  0  0
  -22.5330  -13.1120   22.1310 N   0  0  0  0  0  0  0  0  0  0  0  0
  -22.7410  -14.8640   20.7680 O   0  0  0  0  0  0  0  0  0  0  0  0
  -22.9180  -12.2620   22.5150 H   0  0  0  0  0  0  0  0  0  0  0  0
  -21.6280  -13.4290   22.4480 H   0  0  0  0  0  0  0  0  0  0  0  0
  -25.7980  -15.4490   20.2550 N   0  0  0  0  0  0  0  0  0  0  0  0
  -25.0700  -16.1230   20.4690 H   0  0  0  0  0  0  0  0  0  0  0  0
  -26.6410  -15.8790   19.8960 H   0  0  0  0  0  0  0  0  0  0  0  0
  -31.0300  -21.0510   24.4630 C   0  0  0  0  0  2  0  0  0  0  0  0
  -30.9600  -19.7910   23.9990 C   0  0  0  0  0  3  0  0  0  0  0  0
  -29.7330  -21.0170   19.4170 O   0  0  0  0  0  0  0  0  0  0  0  0
  -28.8220  -22.1840   19.7920 C   0  0  0  0  0  2  0  0  0  0  0  0
  -29.2710  -23.7400   19.5950 C   0  0  0  0  0  0  0  0  0  0  0  0
  -30.4720  -24.0230   19.5210 O   0  0  0  0  0  0  0  0  0  0  0  0
  -28.1560  -24.9210   19.4860 C   0  0  0  0  0  2  0  0  0  0  0  0
  -28.4690  -26.4100   19.6650 O   0  0  0  0  0  0  0  0  0  0  0  0
  -24.6350  -31.6420   23.0780 C   0  0  0  0  0  0  0  0  0  0  0  0
  -27.3650  -27.3200   19.6840 C   0  0  0  0  0  0  0  0  0  0  0  0
  -23.4690  -30.3160   21.3610 C   0  0  0  0  0  3  0  0  0  0  0  0
  -24.9600  -28.9220   19.8130 C   0  0  0  0  0  0  0  0  0  0  0  0
  -26.0050  -30.7170   21.1830 C   0  0  0  0  0  2  0  0  0  0  0  0
  -26.1280  -29.3850   20.4310 C   0  0  0  0  0  0  0  0  0  0  0  0
  -27.3350  -28.6030   20.3490 C   0  0  0  0  0  3  0  0  0  0  0  0
  -26.1620  -26.9440   19.0410 C   0  0  0  0  0  3  0  0  0  0  0  0
  -24.9860  -27.7130   19.1060 C   0  0  0  0  0  3  0  0  0  0  0  0
  -23.6940  -29.7510   19.9350 C   0  0  0  0  0  2  0  0  0  0  0  0
  -24.7220  -30.9070   21.9290 N   0  0  0  0  0  0  0  0  0  0  0  0
  -23.5470  -31.8420   23.6370 O   0  0  0  0  0  0  0  0  0  0  0  0
  -22.8510  -29.2110   22.2540 C   0  0  0  0  0  0  0  0  0  0  0  0
  -21.5330  -28.9820   22.1170 N   0  0  0  0  0  0  0  0  0  0  0  0
  -23.5590  -28.5660   23.0310 O   0  0  0  0  0  0  0  0  0  0  0  0
  -21.0150  -29.5510   21.4620 H   0  0  0  0  0  0  0  0  0  0  0  0
  -18.2170  -27.5960   22.5510 C   0  0  0  0  0  0  0  0  0  0  0  0
  -20.7620  -27.9620   22.8310 C   0  0  0  0  0  3  0  0  0  0  0  0
  -20.9290  -26.5730   22.1690 C   0  0  0  0  0  2  0  0  0  0  0  0
  -19.8400  -26.2620   21.1400 C   0  0  0  0  0  2  0  0  0  0  0  0
  -18.4550  -26.3010   21.7920 C   0  0  0  0  0  2  0  0  0  0  0  0
  -19.3010  -28.3830   23.0260 C   0  0  0  0  0  0  0  0  0  0  0  0
  -19.0240  -29.5940   23.6970 C   0  0  0  0  0  3  0  0  0  0  0  0
  -17.6970  -30.0180   23.8970 C   0  0  0  0  0  3  0  0  0  0  0  0
  -16.6290  -29.2280   23.4400 C   0  0  0  0  0  3  0  0  0  0  0  0
  -16.8900  -28.0190   22.7710 C   0  0  0  0  0  3  0  0  0  0  0  0
  -25.8960  -32.2850   23.7300 C   0  0  0  0  0  3  0  0  0  0  0  0
  -25.5530  -33.6690   24.0940 N   0  0  0  0  0  0  0  0  0  0  0  0
  -25.8810  -34.7500   23.3740 C   0  0  0  0  0  0  0  0  0  0  0  0
  -26.5730  -34.6890   22.3530 O   0  0  0  0  0  0  0  0  0  0  0  0
  -24.9380  -33.7900   24.8850 H   0  0  0  0  0  0  0  0  0  0  0  0
  -24.1310  -36.5270   23.0420 C   0  0  0  0  0  1  0  0  0  0  0  0
  -25.3640  -36.1160   23.8650 C   0  0  0  0  0  3  0  0  0  0  0  0
  -27.4610  -37.0150   24.7720 C   0  0  0  0  0  1  0  0  0  0  0  0
  -26.3800  -37.1890   23.8040 N   0  0  0  0  0  0  0  0  0  0  0  0
  -25.9550  -38.0980   23.9660 H   0  0  0  0  0  0  0  0  0  0  0  0
  -26.4110  -31.4930   24.9950 C   0  0  1  0  0  0  0  0  0  0  0  0
  -25.3100  -31.2080   26.0430 C   0  0  0  0  0  1  0  0  0  0  0  0
  -27.0280  -30.1360   24.5830 C   0  0  0  0  0  1  0  0  0  0  0  0
  -27.5370  -32.2950   25.6900 C   0  0  0  0  0  1  0  0  0  0  0  0
  1  3  1  0
  2  3  2  0
  3 47  1  0
  4  1  2  0
  5  2  1  0
  6  5  2  0
  6  4  1  0
  7  6  1  0
  8 17  1  0
  9 14  1  0
 10 11  1  0
 10  9  1  0
 12 11  1  0
 12 21  1  0
 12 13  1  0
 14  8  1  0
 14 13  1  0
 15  8  2  0
 17  4  1  0
 17 16  1  0
 18 19  2  0
 19 38  1  0
 20 19  1  0
 20 23  1  0
 21 22  1  0
 21 18  1  0
 22 20  2  0
 23 24  1  0
 24 25  2  0
 26 29  1  0
 26 25  1  0
 27 26  2  0
 28 27  1  0
 28 23  2  0
 29 30  1  0
 30 35  2  0
 30 31  1  0
 31 32  2  0
 32 33  1  0
 33 37  1  0
 34 33  2  0
 35 34  1  0
 36 35  1  0
 38 39  1  0
 39 42  1  0
 39 41  1  0
 40 38  2  0
 43 18  1  0
 43 44  1  0
 45 43  1  0
 47 46  2  0
 48 49  1  0
 48  5  1  0
 50 49  1  0
 51 50  2  0
 52 50  1  0
 52 53  1  0
 53 55  1  0
 54 65  2  0
 55 60  1  0
 56 64  1  0
 56 66  1  0
 57 63  1  0
 57 59  1  0
 58 64  1  0
 59 58  1  0
 60 59  2  0
 61 62  1  0
 61 55  2  0
 62 57  2  0
 63 56  1  0
 64 54  1  0
 66 68  2  0
 67 66  1  0
 69 67  1  0
 70 79  2  0
 70 75  1  0
 71 67  1  0
 71 75  1  0
 72 71  1  0
 73 74  1  0
 73 72  1  0
 74 70  1  0
 75 76  2  0
 76 77  1  0
 78 77  2  0
 79 78  1  0
 80 54  1  0
 80 81  1  0
 80 90  1  0
 81 84  1  0
 82 86  1  0
 82 81  1  0
 83 82  2  0
 86 85  1  0
 88 86  1  0
 88 89  1  0
 88 87  1  0
 90 93  1  1
 90 91  1  0
 92 90  1  0
M  ISO  4   8 100  17 100  52 101  53 101
M  END
>  <TORSDO>  (12) 
F 21

>  <SCORE>  (12) 
-12.135

>  <name>  (12) 
11

>  <ligand_id>  (12) 
11

>  <original_smiles>  (12) 
[H]C([H])=C([H])c1c([H])c(OC([H])([H])C(=O)C([H])([H])Oc2c([H])c([H])c3c(c2[H])C([H])([H])N(C(=O)C([H])(N([H])C(=O)C([H])(N([H])C([H])([H])[H])C([H])([H])[H])C(C([H])([H])[H])(C([H])([H])[H])C([H])([H])[H])C([H])(C(=O)N([H])C2([H])c4c([H])c([H])c([H])c([H])c4C([H])([H])C([H])([H])C2([H])[H])C3([H])[H])c(F)c(N(C(=O)N2C([H])([H])C([H])([H])C([H])([H])C([H])(n3nc(-c4c([H])c([H])c(Oc5c([H])c([H])c(F)c([H])c5F)c([H])c4[H])c(C(=O)N([H])[H])c3N([H])[H])C2([H])[H])C([H])([H])[H])c1[H]

>  <smiles>  (12) 
[H]C([H])=C([H])c1c([H])c(OC([H])([H])C(=O)C([H])([H])Oc2c([H])c([H])c3c(c2[H])C([H])([H])N(C(=O)C([H])(N([H])C(=O)C([H])(N([H])C([H])([H])[H])C([H])([H])[H])C(C([H])([H])[H])(C([H])([H])[H])C([H])([H])[H])C([H])(C(=O)N([H])C2([H])c4c([H])c([H])c([H])c([H])c4C([H])([H])C([H])([H])C2([H])[H])C3([H])[H])c(F)c(N(C(=O)N2C([H])([H])C([H])([H])C([H])([H])C([H])(n3nc(-c4c([H])c([H])c(Oc5c([H])c([H])c(F)c([H])c5F)c([H])c4[H])c(C(=O)N([H])[H])c3N([H])[H])C2([H])[H])C([H])([H])[H])c1[H]

$$$$
12:0:0
     RDKit          3D

 94102  0  0  1  0  0  0  0  0999 V2000
  -30.9550  -17.9010   20.0190 C   0  0  0  0  0  3  0  0  0  0  0  0
  -30.9400  -19.3070   19.8050 C   0  0  0  0  0  3  0  0  0  0  0  0
  -28.5490  -19.2810   19.7120 C   0  0  0  0  0  3  0  0  0  0  0  0
  -29.7710  -17.1190   20.1060 C   0  0  0  0  0  0  0  0  0  0  0  0
  -28.5430  -17.8550   19.8940 C   0  0  0  0  0  0  0  0  0  0  0  0
  -29.7400  -20.0480   19.6840 C   0  0  0  0  0  0  0  0  0  0  0  0
  -27.2230  -17.1710   19.9060 C   0  0  0  0  0  3  0  0  0  0  0  0
  -26.0160  -17.7500   20.0530 C   0  0  0  0  0  3  0  0  0  0  0  0
  -24.6910  -17.0100   20.0280 C   0  0  0  0  0  1  0  0  0  0  0  0
  -29.8140  -15.6360   20.5660 C   0  0  0  0  0  0  0  0  0  0  0  0
  -29.4480  -15.3620   21.7510 N   0  0  0  0  0  0  0  0  0  0  0  0
  -29.1450  -16.1980   22.2350 H   0  0  0  0  0  0  0  0  0  0  0  0
  -30.3720  -14.4800   19.6490 C   0  0  0  0  0  0  0  0  0  0  0  0
  -30.1270  -12.1890   18.6970 C   0  0  0  0  0  2  0  0  0  0  0  0
  -29.0420  -12.1990   17.5980 C   0  0  0  0  0  2  0  0  0  0  0  0
  -27.6430  -11.9760   18.2040 C   0  0  0  0  0  2  0  0  0  0  0  0
  -27.3880  -12.8870   19.4330 C   0  0  0  0  0  3  0  0  0  0  0  0
  -28.5700  -12.8310   20.4190 C   0  0  0  0  0  2  0  0  0  0  0  0
  -29.7890  -13.2320   19.6920 N   0  0  0  0  0  0  0  0  0  0  0  0
  -31.3560  -14.6910   18.9300 O   0  0  0  0  0  0  0  0  0  0  0  0
  -25.1300  -13.4280   20.5310 C   0  0  0  0  0  0  0  0  0  0  0  0
  -24.1320  -12.6270   21.0160 C   0  0  0  0  0  0  0  0  0  0  0  0
  -24.5800  -11.2840   20.8330 C   0  0  0  0  0  0  0  0  0  0  0  0
  -26.1230  -12.5710   20.0890 N   0  0  0  0  0  0  0  0  0  0  0  0
  -25.8070  -11.2730   20.3260 N   0  0  0  0  0  0  0  0  0  0  0  0
  -23.8900  -10.0070   21.0540 C   0  0  0  0  0  0  0  0  0  0  0  0
  -24.4050   -9.0300   21.9360 C   0  0  0  0  0  3  0  0  0  0  0  0
  -23.7110   -7.8180   22.1450 C   0  0  0  0  0  3  0  0  0  0  0  0
  -22.4910   -7.5740   21.4720 C   0  0  0  0  0  0  0  0  0  0  0  0
  -21.9950   -8.5390   20.5790 C   0  0  0  0  0  3  0  0  0  0  0  0
  -22.6890   -9.7420   20.3680 C   0  0  0  0  0  3  0  0  0  0  0  0
  -21.7620   -6.4150   21.5940 O   0  0  0  0  0  0  0  0  0  0  0  0
  -21.7340   -5.7020   22.7650 C   0  0  0  0  0  0  0  0  0  0  0  0
  -21.2900   -6.2760   23.9760 C   0  0  0  0  0  3  0  0  0  0  0  0
  -21.2120   -5.4890   25.1410 C   0  0  0  0  0  3  0  0  0  0  0  0
  -21.5680   -4.1280   25.0980 C   0  0  0  0  0  0  0  0  0  0  0  0
  -22.0050   -3.5520   23.8920 C   0  0  0  0  0  3  0  0  0  0  0  0
  -22.0860   -4.3370   22.7290 C   0  0  0  0  0  0  0  0  0  0  0  0
  -22.4880   -3.7740   21.5640 F   0  0  0  0  0  0  0  0  0  0  0  0
  -21.4850   -3.3690   26.2160 F   0  0  0  0  0  0  0  0  0  0  0  0
  -22.7940  -13.0760   21.5280 C   0  0  0  0  0  0  0  0  0  0  0  0
  -22.2120  -12.3200   22.4520 N   0  0  0  0  0  0  0  0  0  0  0  0
  -22.2820  -14.1270   21.1470 O   0  0  0  0  0  0  0  0  0  0  0  0
  -22.6420  -11.4650   22.7720 H   0  0  0  0  0  0  0  0  0  0  0  0
  -21.3250  -12.6010   22.8470 H   0  0  0  0  0  0  0  0  0  0  0  0
  -25.2670  -14.8060   20.4040 N   0  0  0  0  0  0  0  0  0  0  0  0
  -24.5420  -15.4580   20.6810 H   0  0  0  0  0  0  0  0  0  0  0  0
  -26.0490  -15.2590   19.9500 H   0  0  0  0  0  0  0  0  0  0  0  0
  -29.8300  -21.4490   19.5460 O   0  0  0  0  0  0  0  0  0  0  0  0
  -28.7020  -22.3430   19.8030 C   0  0  0  0  0  2  0  0  0  0  0  0
  -29.0650  -23.8810   19.7040 C   0  0  0  0  0  0  0  0  0  0  0  0
  -30.2300  -24.2480   19.5000 O   0  0  0  0  0  0  0  0  0  0  0  0
  -27.9070  -24.9350   19.8640 C   0  0  0  0  0  2  0  0  0  0  0  0
  -28.2530  -26.3780   19.7720 O   0  0  0  0  0  0  0  0  0  0  0  0
  -24.6640  -31.6750   23.1370 C   0  0  0  0  0  0  0  0  0  0  0  0
  -27.1590  -27.2580   19.7970 C   0  0  0  0  0  0  0  0  0  0  0  0
  -23.4110  -30.3760   21.4550 C   0  0  0  0  0  3  0  0  0  0  0  0
  -24.8160  -28.8950   19.9220 C   0  0  0  0  0  0  0  0  0  0  0  0
  -25.9510  -30.6770   21.2390 C   0  0  0  0  0  2  0  0  0  0  0  0
  -26.0030  -29.3360   20.5200 C   0  0  0  0  0  0  0  0  0  0  0  0
  -27.1810  -28.5300   20.4500 C   0  0  0  0  0  3  0  0  0  0  0  0
  -25.9500  -26.8810   19.1670 C   0  0  0  0  0  3  0  0  0  0  0  0
  -24.7910  -27.6720   19.2390 C   0  0  0  0  0  3  0  0  0  0  0  0
  -23.5890  -29.7750   20.0400 C   0  0  0  0  0  2  0  0  0  0  0  0
  -24.6940  -30.9230   22.0000 N   0  0  0  0  0  0  0  0  0  0  0  0
  -23.5940  -31.9410   23.7040 O   0  0  0  0  0  0  0  0  0  0  0  0
  -22.7580  -29.3160   22.3740 C   0  0  0  0  0  0  0  0  0  0  0  0
  -21.4250  -29.1710   22.2750 N   0  0  0  0  0  0  0  0  0  0  0  0
  -23.4460  -28.6320   23.1350 O   0  0  0  0  0  0  0  0  0  0  0  0
  -20.9290  -29.7740   21.6340 H   0  0  0  0  0  0  0  0  0  0  0  0
  -18.0380  -28.0210   22.8140 C   0  0  0  0  0  0  0  0  0  0  0  0
  -20.6080  -28.2090   23.0160 C   0  0  0  0  0  3  0  0  0  0  0  0
  -20.6590  -26.8120   22.3560 C   0  0  0  0  0  2  0  0  0  0  0  0
  -19.5200  -26.5730   21.3620 C   0  0  0  0  0  2  0  0  0  0  0  0
  -18.1610  -26.7110   22.0560 C   0  0  0  0  0  2  0  0  0  0  0  0
  -19.1870  -28.7340   23.2490 C   0  0  0  0  0  0  0  0  0  0  0  0
  -19.0180  -29.9640   23.9180 C   0  0  0  0  0  3  0  0  0  0  0  0
  -17.7310  -30.4850   24.1570 C   0  0  0  0  0  3  0  0  0  0  0  0
  -16.5970  -29.7690   23.7360 C   0  0  0  0  0  3  0  0  0  0  0  0
  -16.7510  -28.5400   23.0730 C   0  0  0  0  0  3  0  0  0  0  0  0
  -25.9650  -32.2610   23.7650 C   0  0  0  0  0  3  0  0  0  0  0  0
  -25.6810  -33.6490   24.1570 N   0  0  0  0  0  0  0  0  0  0  0  0
  -26.0030  -34.7280   23.4320 C   0  0  0  0  0  0  0  0  0  0  0  0
  -26.6420  -34.6580   22.3770 O   0  0  0  0  0  0  0  0  0  0  0  0
  -25.1120  -33.7800   24.9820 H   0  0  0  0  0  0  0  0  0  0  0  0
  -24.2780  -36.5450   23.2100 C   0  0  0  0  0  1  0  0  0  0  0  0
  -25.5440  -36.1020   23.9590 C   0  0  0  0  0  3  0  0  0  0  0  0
  -27.7210  -36.9330   24.7350 C   0  0  0  0  0  1  0  0  0  0  0  0
  -26.5800  -37.1550   23.8510 N   0  0  0  0  0  0  0  0  0  0  0  0
  -26.1850  -38.0660   24.0650 H   0  0  0  0  0  0  0  0  0  0  0  0
  -26.4920  -31.4310   24.9990 C   0  0  1  0  0  0  0  0  0  0  0  0
  -25.4160  -31.1710   26.0800 C   0  0  0  0  0  1  0  0  0  0  0  0
  -27.0390  -30.0570   24.5420 C   0  0  0  0  0  1  0  0  0  0  0  0
  -27.6740  -32.1750   25.6620 C   0  0  0  0  0  1  0  0  0  0  0  0
  1  4  1  0
  2  1  2  0
  3  5  1  0
  4 10  1  0
  5  7  1  0
  5  4  2  0
  6  3  2  0
  6  2  1  0
  7  8  2  0
  9  8  1  0
 10 11  2  0
 11 12  1  0
 13 19  1  0
 13 10  1  0
 14 19  1  0
 15 16  1  0
 15 14  1  0
 17 16  1  0
 17 24  1  0
 17 18  1  0
 19 18  1  0
 20 13  2  0
 21 22  2  0
 22 41  1  0
 23 22  1  0
 23 26  1  0
 24 25  1  0
 24 21  1  0
 25 23  2  0
 26 27  1  0
 27 28  2  0
 29 32  1  0
 29 28  1  0
 30 29  2  0
 31 30  1  0
 31 26  2  0
 32 33  1  0
 33 34  1  0
 34 35  2  0
 36 35  1  0
 36 40  1  0
 37 36  2  0
 38 33  2  0
 38 37  1  0
 39 38  1  0
 41 42  1  0
 42 44  1  0
 42 45  1  0
 43 41  2  0
 46 21  1  0
 46 47  1  0
 48 46  1  0
 49  6  1  0
 49 50  1  0
 51 50  1  0
 51 53  1  0
 52 51  2  0
 54 56  1  0
 54 53  1  0
 55 66  2  0
 56 61  1  0
 57 65  1  0
 57 67  1  0
 58 64  1  0
 58 60  1  0
 59 65  1  0
 60 59  1  0
 61 60  2  0
 62 63  1  0
 62 56  2  0
 63 58  2  0
 64 57  1  0
 65 55  1  0
 67 69  2  0
 68 67  1  0
 70 68  1  0
 71 80  2  0
 71 76  1  0
 72 68  1  0
 72 76  1  0
 73 72  1  0
 74 75  1  0
 74 73  1  0
 75 71  1  0
 76 77  2  0
 77 78  1  0
 79 78  2  0
 80 79  1  0
 81 55  1  0
 81 82  1  0
 81 91  1  0
 82 85  1  0
 83 87  1  0
 83 82  1  0
 84 83  2  0
 87 86  1  0
 89 87  1  0
 89 90  1  0
 89 88  1  0
 91 94  1  1
 91 92  1  0
 93 91  1  0
M  ISO  4  10 100  13 100  53 101  54 101
M  END
>  <TORSDO>  (13) 
F 22

>  <SCORE>  (13) 
-11.858

>  <name>  (13) 
12

>  <ligand_id>  (13) 
12

>  <original_smiles>  (13) 
[H]N=C(C(=O)N1C([H])([H])C([H])([H])C([H])([H])C([H])(n2nc(-c3c([H])c([H])c(Oc4c([H])c([H])c(F)c([H])c4F)c([H])c3[H])c(C(=O)N([H])[H])c2N([H])[H])C1([H])[H])c1c([H])c([H])c(OC([H])([H])C(=O)C([H])([H])Oc2c([H])c([H])c3c(c2[H])C([H])([H])N(C(=O)C([H])(N([H])C(=O)C([H])(N([H])C([H])([H])[H])C([H])([H])[H])C(C([H])([H])[H])(C([H])([H])[H])C([H])([H])[H])C([H])(C(=O)N([H])C2([H])c4c([H])c([H])c([H])c([H])c4C([H])([H])C([H])([H])C2([H])[H])C3([H])[H])c([H])c1C([H])=C([H])C([H])([H])[H]

>  <smiles>  (13) 
[H]N=C(C(=O)N1C([H])([H])C([H])([H])C([H])([H])C([H])(n2nc(-c3c([H])c([H])c(Oc4c([H])c([H])c(F)c([H])c4F)c([H])c3[H])c(C(=O)N([H])[H])c2N([H])[H])C1([H])[H])c1c([H])c([H])c(OC([H])([H])C(=O)C([H])([H])Oc2c([H])c([H])c3c(c2[H])C([H])([H])N(C(=O)C([H])(N([H])C(=O)C([H])(N([H])C([H])([H])[H])C([H])([H])[H])C(C([H])([H])[H])(C([H])([H])[H])C([H])([H])[H])C([H])(C(=O)N([H])C2([H])c4c([H])c([H])c([H])c([H])c4C([H])([H])C([H])([H])C2([H])[H])C3([H])[H])c([H])c1C([H])=C([H])C([H])([H])[H]

$$$$
13:0:0
     RDKit          3D

 90 98  0  0  1  0  0  0  0  0999 V2000
  -29.1830  -22.6910   19.7620 C   0  0  0  0  0  2  0  0  0  0  0  0
  -28.4560  -23.9840   20.3000 C   0  0  0  0  0  0  0  0  0  0  0  0
  -27.8240  -23.9470   21.3610 O   0  0  0  0  0  0  0  0  0  0  0  0
  -28.5610  -25.3240   19.4740 C   0  0  0  0  0  2  0  0  0  0  0  0
  -28.3780  -26.5800   20.2180 O   0  0  0  0  0  0  0  0  0  0  0  0
  -24.6030  -31.8780   23.2210 C   0  0  0  0  0  0  0  0  0  0  0  0
  -27.2160  -27.3520   20.1480 C   0  0  0  0  0  0  0  0  0  0  0  0
  -23.3890  -30.4790   21.5850 C   0  0  0  0  0  3  0  0  0  0  0  0
  -24.8350  -28.9280   20.1470 C   0  0  0  0  0  0  0  0  0  0  0  0
  -25.9200  -30.8090   21.3820 C   0  0  0  0  0  2  0  0  0  0  0  0
  -25.9960  -29.4280   20.7460 C   0  0  0  0  0  0  0  0  0  0  0  0
  -27.1850  -28.6470   20.7440 C   0  0  0  0  0  3  0  0  0  0  0  0
  -26.0300  -26.8880   19.5330 C   0  0  0  0  0  3  0  0  0  0  0  0
  -24.8520  -27.6650   19.5290 C   0  0  0  0  0  3  0  0  0  0  0  0
  -23.5950  -29.7980   20.2030 C   0  0  0  0  0  2  0  0  0  0  0  0
  -24.6570  -31.0710   22.1200 N   0  0  0  0  0  0  0  0  0  0  0  0
  -23.5240  -32.1570   23.7630 O   0  0  0  0  0  0  0  0  0  0  0  0
  -22.7340  -29.4630   22.5510 C   0  0  0  0  0  0  0  0  0  0  0  0
  -21.4060  -29.2900   22.4340 N   0  0  0  0  0  0  0  0  0  0  0  0
  -23.4150  -28.8340   23.3650 O   0  0  0  0  0  0  0  0  0  0  0  0
  -20.9180  -29.8600   21.7580 H   0  0  0  0  0  0  0  0  0  0  0  0
  -18.0270  -28.1030   22.9460 C   0  0  0  0  0  0  0  0  0  0  0  0
  -20.5870  -28.3550   23.2080 C   0  0  0  0  0  3  0  0  0  0  0  0
  -20.6810  -26.9230   22.6350 C   0  0  0  0  0  2  0  0  0  0  0  0
  -19.5750  -26.6020   21.6240 C   0  0  0  0  0  2  0  0  0  0  0  0
  -18.1960  -26.7510   22.2730 C   0  0  0  0  0  2  0  0  0  0  0  0
  -19.1510  -28.8640   23.3710 C   0  0  0  0  0  0  0  0  0  0  0  0
  -18.9370  -30.1270   23.9630 C   0  0  0  0  0  3  0  0  0  0  0  0
  -17.6350  -30.6330   24.1340 C   0  0  0  0  0  3  0  0  0  0  0  0
  -16.5270  -29.8710   23.7220 C   0  0  0  0  0  3  0  0  0  0  0  0
  -16.7240  -28.6080   23.1350 C   0  0  0  0  0  3  0  0  0  0  0  0
  -25.8910  -32.5060   23.8390 C   0  0  0  0  0  3  0  0  0  0  0  0
  -25.5840  -33.9040   24.1720 N   0  0  0  0  0  0  0  0  0  0  0  0
  -25.9200  -34.9610   23.4210 C   0  0  0  0  0  0  0  0  0  0  0  0
  -26.5890  -34.8600   22.3870 O   0  0  0  0  0  0  0  0  0  0  0  0
  -24.9860  -34.0570   24.9720 H   0  0  0  0  0  0  0  0  0  0  0  0
  -24.1950  -36.7630   23.0770 C   0  0  0  0  0  1  0  0  0  0  0  0
  -25.4370  -36.3490   23.8840 C   0  0  0  0  0  3  0  0  0  0  0  0
  -27.5780  -37.2210   24.7130 C   0  0  0  0  0  1  0  0  0  0  0  0
  -26.4720  -37.4010   23.7740 N   0  0  0  0  0  0  0  0  0  0  0  0
  -26.0700  -38.3210   23.9320 H   0  0  0  0  0  0  0  0  0  0  0  0
  -26.4160  -31.7330   25.1110 C   0  0  1  0  0  0  0  0  0  0  0  0
  -25.3280  -31.4970   26.1860 C   0  0  0  0  0  1  0  0  0  0  0  0
  -26.9910  -30.3560   24.7090 C   0  0  0  0  0  1  0  0  0  0  0  0
  -27.5750  -32.5240   25.7660 C   0  0  0  0  0  1  0  0  0  0  0  0
  -28.5560  -21.4160   20.1230 O   0  0  0  0  0  0  0  0  0  0  0  0
  -30.5750  -18.9180   21.7180 C   0  0  0  0  0  3  0  0  0  0  0  0
  -30.2500  -20.3110   21.5950 C   0  0  0  0  0  0  0  0  0  0  0  0
  -29.9360  -18.2100   20.7280 C   0  0  0  0  0  0  0  0  0  0  0  0
  -29.3410  -20.3760   20.5740 C   0  0  0  0  0  0  0  0  0  0  0  0
  -30.7830  -21.4560   22.4220 C   0  0  0  0  0  1  0  0  0  0  0  0
  -29.1460  -19.1140   20.0230 O   0  0  0  0  0  0  0  0  0  0  0  0
  -30.0210  -16.7870   20.2550 C   0  0  0  0  0  2  0  0  0  0  0  0
  -30.1790  -15.7090   20.9700 N   0  0  0  0  0  2  0  0  0  0  0  0
  -30.7860  -14.6020   20.3310 C   0  0  0  0  0  0  0  0  0  0  0  0
  -30.4460  -12.4130   19.2090 C   0  0  0  0  0  2  0  0  0  0  0  0
  -29.5110  -12.6260   18.0040 C   0  0  0  0  0  2  0  0  0  0  0  0
  -28.0360  -12.4810   18.4350 C   0  0  0  0  0  2  0  0  0  0  0  0
  -27.7090  -13.3040   19.7110 C   0  0  0  0  0  3  0  0  0  0  0  0
  -28.7800  -13.1120   20.8090 C   0  0  0  0  0  2  0  0  0  0  0  0
  -30.0880  -13.4270   20.2220 N   0  0  0  0  0  0  0  0  0  0  0  0
  -31.8890  -14.7030   19.7870 O   0  0  0  0  0  0  0  0  0  0  0  0
  -25.3280  -13.9180   20.4450 C   0  0  0  0  0  0  0  0  0  0  0  0
  -24.2590  -13.1530   20.8260 C   0  0  0  0  0  0  0  0  0  0  0  0
  -24.7120  -11.7970   20.7930 C   0  0  0  0  0  0  0  0  0  0  0  0
  -26.3640  -13.0280   20.2050 N   0  0  0  0  0  0  0  0  0  0  0  0
  -25.9970  -11.7460   20.4700 N   0  0  0  0  0  0  0  0  0  0  0  0
  -23.9780  -10.5410   20.9980 C   0  0  0  0  0  0  0  0  0  0  0  0
  -24.4150   -9.5710   21.9280 C   0  0  0  0  0  3  0  0  0  0  0  0
  -23.6830   -8.3800   22.1170 C   0  0  0  0  0  3  0  0  0  0  0  0
  -22.4980   -8.1480   21.3780 C   0  0  0  0  0  0  0  0  0  0  0  0
  -22.0820   -9.1060   20.4370 C   0  0  0  0  0  3  0  0  0  0  0  0
  -22.8150  -10.2900   20.2450 C   0  0  0  0  0  3  0  0  0  0  0  0
  -21.7370   -7.0090   21.4790 O   0  0  0  0  0  0  0  0  0  0  0  0
  -21.7000   -6.2670   22.6320 C   0  0  0  0  0  0  0  0  0  0  0  0
  -21.2970   -6.8250   23.8650 C   0  0  0  0  0  3  0  0  0  0  0  0
  -21.2100   -6.0100   25.0100 C   0  0  0  0  0  3  0  0  0  0  0  0
  -21.5090   -4.6370   24.9230 C   0  0  0  0  0  0  0  0  0  0  0  0
  -21.8990   -4.0770   23.6930 C   0  0  0  0  0  3  0  0  0  0  0  0
  -21.9930   -4.8900   22.5500 C   0  0  0  0  0  0  0  0  0  0  0  0
  -22.3520   -4.3430   21.3650 F   0  0  0  0  0  0  0  0  0  0  0  0
  -21.4150   -3.8510   26.0200 F   0  0  0  0  0  0  0  0  0  0  0  0
  -22.8680  -13.6400   21.1160 C   0  0  0  0  0  0  0  0  0  0  0  0
  -22.1470  -12.9500   21.9920 N   0  0  0  0  0  0  0  0  0  0  0  0
  -22.4320  -14.6680   20.6000 O   0  0  0  0  0  0  0  0  0  0  0  0
  -22.5170  -12.1230   22.4380 H   0  0  0  0  0  0  0  0  0  0  0  0
  -21.2100  -13.2540   22.2220 H   0  0  0  0  0  0  0  0  0  0  0  0
  -25.5050  -15.2870   20.2670 N   0  0  0  0  0  0  0  0  0  0  0  0
  -24.7630  -15.9640   20.4050 H   0  0  0  0  0  0  0  0  0  0  0  0
  -26.3820  -15.7100   19.9890 H   0  0  0  0  0  0  0  0  0  0  0  0
  1 46  1  0
  1  2  1  0
  2  3  2  0
  4  5  1  0
  4  2  1  0
  6 17  2  0
  7  5  1  0
  7 12  1  0
  8 16  1  0
  8 18  1  0
  9 15  1  0
  9 11  1  0
 10 16  1  0
 11 10  1  0
 12 11  2  0
 13  7  2  0
 14 13  1  0
 14  9  2  0
 15  8  1  0
 16  6  1  0
 18 20  2  0
 19 18  1  0
 21 19  1  0
 22 31  2  0
 22 27  1  0
 23 19  1  0
 23 27  1  0
 24 23  1  0
 25 26  1  0
 25 24  1  0
 26 22  1  0
 27 28  2  0
 28 29  1  0
 30 29  2  0
 31 30  1  0
 32  6  1  0
 32 33  1  0
 32 42  1  0
 33 36  1  0
 34 38  1  0
 34 33  1  0
 35 34  2  0
 38 37  1  0
 40 38  1  0
 40 41  1  0
 40 39  1  0
 42 45  1  1
 42 43  1  0
 44 42  1  0
 46 50  1  0
 48 47  1  0
 48 51  1  0
 49 47  2  0
 50 48  2  0
 52 50  1  0
 52 49  1  0
 53 49  1  0
 53 54  1  0
 55 54  1  0
 56 61  1  0
 57 58  1  0
 57 56  1  0
 59 58  1  0
 59 66  1  0
 59 60  1  0
 61 55  1  0
 61 60  1  0
 62 55  2  0
 63 64  2  0
 64 83  1  0
 65 64  1  0
 65 68  1  0
 66 63  1  0
 66 67  1  0
 67 65  2  0
 68 69  1  0
 69 70  2  0
 71 74  1  0
 71 70  1  0
 72 71  2  0
 73 72  1  0
 73 68  2  0
 74 75  1  0
 75 76  1  0
 76 77  2  0
 78 77  1  0
 78 82  1  0
 79 78  2  0
 80 75  2  0
 80 79  1  0
 81 80  1  0
 83 84  1  0
 84 87  1  0
 84 86  1  0
 85 83  2  0
 88 89  1  0
 88 63  1  0
 90 88  1  0
M  ISO  4   4 101   5 101  54 100  55 100
M  END
>  <TORSDO>  (14) 
F 21

>  <SCORE>  (14) 
-13.580

>  <name>  (14) 
13

>  <ligand_id>  (14) 
13

>  <original_smiles>  (14) 
[H]C(=NC(=O)N1C([H])([H])C([H])([H])C([H])([H])C([H])(n2nc(-c3c([H])c([H])c(Oc4c([H])c([H])c(F)c([H])c4F)c([H])c3[H])c(C(=O)N([H])[H])c2N([H])[H])C1([H])[H])c1oc(OC([H])([H])C(=O)C([H])([H])Oc2c([H])c([H])c3c(c2[H])C([H])([H])N(C(=O)C([H])(N([H])C(=O)C([H])(N([H])C([H])([H])[H])C([H])([H])[H])C(C([H])([H])[H])(C([H])([H])[H])C([H])([H])[H])C([H])(C(=O)N([H])C2([H])c4c([H])c([H])c([H])c([H])c4C([H])([H])C([H])([H])C2([H])[H])C3([H])[H])c(C([H])([H])[H])c1[H]

>  <smiles>  (14) 
[H]C(=NC(=O)N1C([H])([H])C([H])([H])C([H])([H])C([H])(n2nc(-c3c([H])c([H])c(Oc4c([H])c([H])c(F)c([H])c4F)c([H])c3[H])c(C(=O)N([H])[H])c2N([H])[H])C1([H])[H])c1oc(OC([H])([H])C(=O)C([H])([H])Oc2c([H])c([H])c3c(c2[H])C([H])([H])N(C(=O)C([H])(N([H])C(=O)C([H])(N([H])C([H])([H])[H])C([H])([H])[H])C(C([H])([H])[H])(C([H])([H])[H])C([H])([H])[H])C([H])(C(=O)N([H])C2([H])c4c([H])c([H])c([H])c([H])c4C([H])([H])C([H])([H])C2([H])[H])C3([H])[H])c(C([H])([H])[H])c1[H]

$$$$
14:0:0
     RDKit          3D

 92100  0  0  1  0  0  0  0  0999 V2000
  -30.1230  -19.3970   19.1540 C   0  0  0  0  0  3  0  0  0  0  0  0
  -29.1230  -20.4210   19.1640 C   0  0  0  0  0  0  0  0  0  0  0  0
  -29.5070  -18.1720   19.0980 C   0  0  0  0  0  0  0  0  0  0  0  0
  -27.9250  -19.7300   19.1160 C   0  0  0  0  0  0  0  0  0  0  0  0
  -28.1640  -18.3750   19.0950 O   0  0  0  0  0  0  0  0  0  0  0  0
  -26.5480  -20.1280   19.0140 C   0  0  0  0  0  3  0  0  0  0  0  0
  -25.5410  -19.7200   18.2110 C   0  0  0  0  0  0  0  0  0  0  0  0
  -24.1490  -20.3090   18.3420 C   0  0  0  0  0  1  0  0  0  0  0  0
  -25.6520  -18.6550   17.1320 C   0  0  0  0  0  1  0  0  0  0  0  0
  -30.0030  -16.7810   19.0380 C   0  0  0  0  0  3  0  0  0  0  0  0
  -29.5670  -15.7160   19.6320 N   0  0  0  0  0  0  0  0  0  0  0  0
  -30.3380  -14.5560   19.4340 C   0  0  0  0  0  0  0  0  0  0  0  0
  -30.0590  -12.1610   18.8850 C   0  0  0  0  0  2  0  0  0  0  0  0
  -29.0560  -12.0520   17.7180 C   0  0  0  0  0  2  0  0  0  0  0  0
  -27.6120  -11.9800   18.2530 C   0  0  0  0  0  2  0  0  0  0  0  0
  -27.3060  -13.0780   19.3080 C   0  0  0  0  0  3  0  0  0  0  0  0
  -28.4290  -13.1810   20.3640 C   0  0  0  0  0  2  0  0  0  0  0  0
  -29.7040  -13.3660   19.6570 N   0  0  0  0  0  0  0  0  0  0  0  0
  -31.4620  -14.5640   18.9240 O   0  0  0  0  0  0  0  0  0  0  0  0
  -25.0770  -13.8280   20.3380 C   0  0  0  0  0  0  0  0  0  0  0  0
  -23.9860  -13.1270   20.7750 C   0  0  0  0  0  0  0  0  0  0  0  0
  -24.3090  -11.7450   20.6030 C   0  0  0  0  0  0  0  0  0  0  0  0
  -25.9980  -12.8790   19.9260 N   0  0  0  0  0  0  0  0  0  0  0  0
  -25.5470  -11.6160   20.1440 N   0  0  0  0  0  0  0  0  0  0  0  0
  -23.4910  -10.5420   20.7950 C   0  0  0  0  0  0  0  0  0  0  0  0
  -23.9140   -9.4860   21.6330 C   0  0  0  0  0  3  0  0  0  0  0  0
  -23.1010   -8.3470   21.8170 C   0  0  0  0  0  3  0  0  0  0  0  0
  -21.8490   -8.2570   21.1640 C   0  0  0  0  0  0  0  0  0  0  0  0
  -21.4420   -9.3000   20.3140 C   0  0  0  0  0  3  0  0  0  0  0  0
  -22.2540  -10.4300   20.1280 C   0  0  0  0  0  3  0  0  0  0  0  0
  -21.0050   -7.1770   21.2630 O   0  0  0  0  0  0  0  0  0  0  0  0
  -20.9690   -6.3920   22.3860 C   0  0  0  0  0  0  0  0  0  0  0  0
  -20.6350   -6.9180   23.6530 C   0  0  0  0  0  3  0  0  0  0  0  0
  -20.5420   -6.0630   24.7700 C   0  0  0  0  0  3  0  0  0  0  0  0
  -20.7710   -4.6820   24.6200 C   0  0  0  0  0  0  0  0  0  0  0  0
  -21.0980   -4.1550   23.3580 C   0  0  0  0  0  3  0  0  0  0  0  0
  -21.1930   -5.0080   22.2450 C   0  0  0  0  0  0  0  0  0  0  0  0
  -21.4870   -4.4900   21.0270 F   0  0  0  0  0  0  0  0  0  0  0  0
  -20.6760   -3.8590   25.6900 F   0  0  0  0  0  0  0  0  0  0  0  0
  -22.6790  -13.7030   21.2390 C   0  0  0  0  0  0  0  0  0  0  0  0
  -21.9960  -13.0170   22.1470 N   0  0  0  0  0  0  0  0  0  0  0  0
  -22.2800  -14.7950   20.8340 O   0  0  0  0  0  0  0  0  0  0  0  0
  -22.3350  -12.1320   22.4940 H   0  0  0  0  0  0  0  0  0  0  0  0
  -21.1230  -13.3810   22.5000 H   0  0  0  0  0  0  0  0  0  0  0  0
  -25.3600  -15.1870   20.2410 N   0  0  0  0  0  0  0  0  0  0  0  0
  -24.7150  -15.9070   20.5450 H   0  0  0  0  0  0  0  0  0  0  0  0
  -26.2580  -15.5530   19.9500 H   0  0  0  0  0  0  0  0  0  0  0  0
  -29.4180  -21.7860   19.1390 O   0  0  0  0  0  0  0  0  0  0  0  0
  -28.6510  -22.7560   19.8830 C   0  0  0  0  0  2  0  0  0  0  0  0
  -29.1040  -24.2190   19.5500 C   0  0  0  0  0  3  0  0  0  0  0  0
  -28.4590  -25.3410   20.4240 C   0  0  0  0  0  3  0  0  0  0  0  0
  -28.5590  -26.6920   19.8950 O   0  0  0  0  0  0  0  0  0  0  0  0
  -24.3690  -31.5610   23.0340 C   0  0  0  0  0  0  0  0  0  0  0  0
  -27.3760  -27.4080   19.8650 C   0  0  0  0  0  0  0  0  0  0  0  0
  -23.3140  -30.1760   21.2780 C   0  0  0  0  0  3  0  0  0  0  0  0
  -24.9090  -28.8000   19.8380 C   0  0  0  0  0  0  0  0  0  0  0  0
  -25.8210  -30.6860   21.2000 C   0  0  0  0  0  2  0  0  0  0  0  0
  -26.0140  -29.3530   20.4960 C   0  0  0  0  0  0  0  0  0  0  0  0
  -27.2540  -28.6680   20.5020 C   0  0  0  0  0  3  0  0  0  0  0  0
  -26.2580  -26.8790   19.1880 C   0  0  0  0  0  3  0  0  0  0  0  0
  -25.0280  -27.5670   19.1740 C   0  0  0  0  0  3  0  0  0  0  0  0
  -23.6160  -29.5830   19.8760 C   0  0  0  0  0  2  0  0  0  0  0  0
  -24.5180  -30.8210   21.8980 N   0  0  0  0  0  0  0  0  0  0  0  0
  -23.2550  -31.7410   23.5430 O   0  0  0  0  0  0  0  0  0  0  0  0
  -22.6880  -29.0730   22.1620 C   0  0  0  0  0  0  0  0  0  0  0  0
  -21.3760  -28.8440   21.9970 N   0  0  0  0  0  0  0  0  0  0  0  0
  -23.3810  -28.4290   22.9540 O   0  0  0  0  0  0  0  0  0  0  0  0
  -20.8760  -29.4200   21.3340 H   0  0  0  0  0  0  0  0  0  0  0  0
  -18.0350  -27.5210   22.3870 C   0  0  0  0  0  0  0  0  0  0  0  0
  -20.5850  -27.8280   22.6900 C   0  0  0  0  0  3  0  0  0  0  0  0
  -20.7300  -26.4490   22.0080 C   0  0  0  0  0  2  0  0  0  0  0  0
  -19.6400  -26.1740   20.9670 C   0  0  0  0  0  2  0  0  0  0  0  0
  -18.2520  -26.2320   21.6130 C   0  0  0  0  0  2  0  0  0  0  0  0
  -19.1310  -28.2780   22.8800 C   0  0  0  0  0  0  0  0  0  0  0  0
  -18.8770  -29.4860   23.5650 C   0  0  0  0  0  3  0  0  0  0  0  0
  -17.5580  -29.9350   23.7630 C   0  0  0  0  0  3  0  0  0  0  0  0
  -16.4770  -29.1740   23.2890 C   0  0  0  0  0  3  0  0  0  0  0  0
  -16.7170  -27.9700   22.6050 C   0  0  0  0  0  3  0  0  0  0  0  0
  -25.5920  -32.2340   23.7350 C   0  0  0  0  0  3  0  0  0  0  0  0
  -25.2020  -33.6040   24.0890 N   0  0  0  0  0  0  0  0  0  0  0  0
  -25.5020  -34.6920   23.3680 C   0  0  0  0  0  0  0  0  0  0  0  0
  -26.2080  -34.6500   22.3560 O   0  0  0  0  0  0  0  0  0  0  0  0
  -24.5720  -33.7070   24.8720 H   0  0  0  0  0  0  0  0  0  0  0  0
  -23.6820  -36.3920   23.0110 C   0  0  0  0  0  1  0  0  0  0  0  0
  -24.9260  -36.0400   23.8420 C   0  0  0  0  0  3  0  0  0  0  0  0
  -26.9820  -37.0320   24.7440 C   0  0  0  0  0  1  0  0  0  0  0  0
  -25.8980  -37.1540   23.7740 N   0  0  0  0  0  0  0  0  0  0  0  0
  -25.4350  -38.0450   23.9250 H   0  0  0  0  0  0  0  0  0  0  0  0
  -26.0860  -31.4480   25.0110 C   0  0  1  0  0  0  0  0  0  0  0  0
  -24.9610  -31.1340   26.0240 C   0  0  0  0  0  1  0  0  0  0  0  0
  -26.7440  -30.1100   24.6050 C   0  0  0  0  0  1  0  0  0  0  0  0
  -27.1710  -32.2690   25.7450 C   0  0  0  0  0  1  0  0  0  0  0  0
  1  2  1  0
  3  1  2  0
  4  2  2  0
  5  3  1  0
  5  4  1  0
  6  4  1  0
  7  8  1  0
  7  6  2  0
  9  7  1  0
 10  3  1  0
 10 11  2  0
 12 11  1  0
 12 18  1  0
 13 18  1  0
 14 15  1  0
 14 13  1  0
 16 15  1  0
 16 23  1  0
 16 17  1  0
 18 17  1  0
 19 12  2  0
 20 21  2  0
 21 40  1  0
 22 21  1  0
 22 25  1  0
 23 24  1  0
 23 20  1  0
 24 22  2  0
 25 26  1  0
 26 27  2  0
 28 31  1  0
 28 27  1  0
 29 28  2  0
 30 29  1  0
 30 25  2  0
 31 32  1  0
 32 33  1  0
 33 34  2  0
 35 34  1  0
 35 39  1  0
 36 35  2  0
 37 32  2  0
 37 36  1  0
 38 37  1  0
 40 41  1  0
 41 43  1  0
 41 44  1  0
 42 40  2  0
 45 20  1  0
 45 46  1  0
 47 45  1  0
 48  2  1  0
 48 49  1  0
 50 49  1  0
 50 51  2  0
 52 51  1  0
 53 64  2  0
 54 52  1  0
 54 59  1  0
 55 63  1  0
 55 65  1  0
 56 62  1  0
 56 58  1  0
 57 63  1  0
 58 59  2  0
 58 57  1  0
 60 54  2  0
 61 60  1  0
 61 56  2  0
 62 55  1  0
 63 53  1  0
 65 67  2  0
 66 65  1  0
 68 66  1  0
 69 78  2  0
 69 74  1  0
 70 66  1  0
 70 74  1  0
 71 70  1  0
 72 73  1  0
 72 71  1  0
 73 69  1  0
 74 75  2  0
 75 76  1  0
 77 76  2  0
 78 77  1  0
 79 53  1  0
 79 80  1  0
 79 89  1  0
 80 83  1  0
 81 85  1  0
 81 80  1  0
 82 81  2  0
 85 84  1  0
 87 85  1  0
 87 88  1  0
 87 86  1  0
 89 92  1  1
 89 90  1  0
 91 89  1  0
M  ISO  4  11 100  12 100  51 101  52 101
M  END
>  <TORSDO>  (15) 
F 22

>  <SCORE>  (15) 
-7.666

>  <name>  (15) 
14

>  <ligand_id>  (15) 
14

>  <original_smiles>  (15) 
[H]C(=NC(=O)N1C([H])([H])C([H])([H])C([H])([H])C([H])(n2nc(-c3c([H])c([H])c(Oc4c([H])c([H])c(F)c([H])c4F)c([H])c3[H])c(C(=O)N([H])[H])c2N([H])[H])C1([H])[H])c1oc(C([H])=C(C([H])([H])[H])C([H])([H])[H])c(OC([H])([H])C([H])([H])C([H])([H])Oc2c([H])c([H])c3c(c2[H])C([H])([H])N(C(=O)C([H])(N([H])C(=O)C([H])(N([H])C([H])([H])[H])C([H])([H])[H])C(C([H])([H])[H])(C([H])([H])[H])C([H])([H])[H])C([H])(C(=O)N([H])C2([H])c4c([H])c([H])c([H])c([H])c4C([H])([H])C([H])([H])C2([H])[H])C3([H])[H])c1[H]

>  <smiles>  (15) 
[H]C(=NC(=O)N1C([H])([H])C([H])([H])C([H])([H])C([H])(n2nc(-c3c([H])c([H])c(Oc4c([H])c([H])c(F)c([H])c4F)c([H])c3[H])c(C(=O)N([H])[H])c2N([H])[H])C1([H])[H])c1oc(C([H])=C(C([H])([H])[H])C([H])([H])[H])c(OC([H])([H])C([H])([H])C([H])([H])Oc2c([H])c([H])c3c(c2[H])C([H])([H])N(C(=O)C([H])(N([H])C(=O)C([H])(N([H])C([H])([H])[H])C([H])([H])[H])C(C([H])([H])[H])(C([H])([H])[H])C([H])([H])[H])C([H])(C(=O)N([H])C2([H])c4c([H])c([H])c([H])c([H])c4C([H])([H])C([H])([H])C2([H])[H])C3([H])[H])c1[H]

$$$$
15:0:0
     RDKit          3D

 95104  0  0  1  0  0  0  0  0999 V2000
  -27.9540  -17.5870   20.5920 C   0  0  0  0  0  3  0  0  0  0  0  0
  -30.7020  -17.4910   20.1890 C   0  0  0  0  0  3  0  0  0  0  0  0
  -28.6310  -16.3680   20.8330 C   0  0  0  0  0  0  0  0  0  0  0  0
  -30.0310  -16.2750   20.5460 C   0  0  0  0  0  0  0  0  0  0  0  0
  -28.6220  -18.7710   20.2010 C   0  0  0  0  0  0  0  0  0  0  0  0
  -30.0320  -18.7540   20.0780 C   0  0  0  0  0  0  0  0  0  0  0  0
  -30.7950  -14.9760   20.7970 C   0  0  0  0  0  0  0  0  0  0  0  0
  -31.2530  -14.7290   21.9550 N   0  0  0  0  0  0  0  0  0  0  0  0
  -31.0190  -15.4730   22.6030 H   0  0  0  0  0  0  0  0  0  0  0  0
  -31.0720  -13.9720   19.6490 C   0  0  0  0  0  0  0  0  0  0  0  0
  -30.6270  -11.7870   18.5480 C   0  0  0  0  0  2  0  0  0  0  0  0
  -29.5990  -11.9360   17.4080 C   0  0  0  0  0  2  0  0  0  0  0  0
  -28.1610  -11.8300   17.9480 C   0  0  0  0  0  2  0  0  0  0  0  0
  -27.9340  -12.7210   19.1980 C   0  0  0  0  0  3  0  0  0  0  0  0
  -29.0610  -12.5140   20.2330 C   0  0  0  0  0  2  0  0  0  0  0  0
  -30.3420  -12.8110   19.5740 N   0  0  0  0  0  0  0  0  0  0  0  0
  -32.0500  -14.1720   18.9180 O   0  0  0  0  0  0  0  0  0  0  0  0
  -25.6010  -13.4100   20.0300 C   0  0  0  0  0  0  0  0  0  0  0  0
  -24.5490  -12.6810   20.5180 C   0  0  0  0  0  0  0  0  0  0  0  0
  -24.9750  -11.3180   20.5070 C   0  0  0  0  0  0  0  0  0  0  0  0
  -26.6110  -12.4960   19.7770 N   0  0  0  0  0  0  0  0  0  0  0  0
  -26.2390  -11.2330   20.1110 N   0  0  0  0  0  0  0  0  0  0  0  0
  -24.2330  -10.0830   20.7930 C   0  0  0  0  0  0  0  0  0  0  0  0
  -24.6500   -9.1870   21.8010 C   0  0  0  0  0  3  0  0  0  0  0  0
  -23.9090   -8.0150   22.0700 C   0  0  0  0  0  3  0  0  0  0  0  0
  -22.7360   -7.7330   21.3310 C   0  0  0  0  0  0  0  0  0  0  0  0
  -22.3380   -8.6170   20.3120 C   0  0  0  0  0  3  0  0  0  0  0  0
  -23.0800   -9.7790   20.0420 C   0  0  0  0  0  3  0  0  0  0  0  0
  -21.9680   -6.6080   21.5050 O   0  0  0  0  0  0  0  0  0  0  0  0
  -21.8420   -6.0040   22.7310 C   0  0  0  0  0  0  0  0  0  0  0  0
  -21.3360   -6.6970   23.8530 C   0  0  0  0  0  3  0  0  0  0  0  0
  -21.1590   -6.0200   25.0770 C   0  0  0  0  0  3  0  0  0  0  0  0
  -21.4760   -4.6530   25.1780 C   0  0  0  0  0  0  0  0  0  0  0  0
  -21.9750   -3.9600   24.0600 C   0  0  0  0  0  3  0  0  0  0  0  0
  -22.1540   -4.6340   22.8390 C   0  0  0  0  0  0  0  0  0  0  0  0
  -22.6150   -3.9570   21.7600 F   0  0  0  0  0  0  0  0  0  0  0  0
  -21.2990   -3.9990   26.3500 F   0  0  0  0  0  0  0  0  0  0  0  0
  -23.1890  -13.2060   20.8770 C   0  0  0  0  0  0  0  0  0  0  0  0
  -22.5180  -12.5700   21.8320 N   0  0  0  0  0  0  0  0  0  0  0  0
  -22.7320  -14.2160   20.3440 O   0  0  0  0  0  0  0  0  0  0  0  0
  -22.9020  -11.7560   22.2880 H   0  0  0  0  0  0  0  0  0  0  0  0
  -21.6070  -12.9050   22.1110 H   0  0  0  0  0  0  0  0  0  0  0  0
  -25.7670  -14.7620   19.7550 N   0  0  0  0  0  4  0  0  0  0  0  0
  -25.0180  -15.4320   19.8790 H   0  0  0  0  0  0  0  0  0  0  0  0
  -26.6010  -15.1690   19.3520 H   0  0  0  0  0  0  0  0  0  0  0  0
  -26.5440  -19.9400   19.8170 C   0  0  0  0  0  1  0  0  0  0  0  0
  -27.9620  -19.9500   19.9200 O   0  0  0  0  0  0  0  0  0  0  0  0
  -26.5320  -14.9910   21.2350 C   0  0  0  0  0  2  0  0  0  0  0  0
  -27.8460  -15.2350   21.3910 C   0  0  0  0  0  2  0  0  0  0  0  0
  -30.7420  -19.9290   19.7990 O   0  0  0  0  0  0  0  0  0  0  0  0
  -30.4410  -21.1590   20.5330 C   0  0  0  0  0  3  0  0  0  0  0  0
  -30.1550  -22.4370   19.6580 C   0  0  0  0  0  3  0  0  0  0  0  0
  -29.7710  -23.7600   20.4320 C   0  0  0  0  0  3  0  0  0  0  0  0
  -29.6320  -25.0700   19.5700 C   0  0  0  0  0  3  0  0  0  0  0  0
  -29.3180  -26.3030   20.2970 O   0  0  0  0  0  0  0  0  0  0  0  0
  -24.9400  -31.2620   23.0810 C   0  0  0  0  0  0  0  0  0  0  0  0
  -28.1030  -26.9820   20.1700 C   0  0  0  0  0  0  0  0  0  0  0  0
  -23.9740  -29.8380   21.3100 C   0  0  0  0  0  3  0  0  0  0  0  0
  -25.6350  -28.4100   19.9970 C   0  0  0  0  0  0  0  0  0  0  0  0
  -26.4910  -30.3170   21.3630 C   0  0  0  0  0  2  0  0  0  0  0  0
  -26.7100  -28.9650   20.7000 C   0  0  0  0  0  0  0  0  0  0  0  0
  -27.9420  -28.2600   20.7810 C   0  0  0  0  0  3  0  0  0  0  0  0
  -26.9910  -26.4550   19.4710 C   0  0  0  0  0  3  0  0  0  0  0  0
  -25.7750  -27.1570   19.3820 C   0  0  0  0  0  3  0  0  0  0  0  0
  -24.3490  -29.2050   19.9450 C   0  0  0  0  0  2  0  0  0  0  0  0
  -25.1470  -30.4890   21.9770 N   0  0  0  0  0  0  0  0  0  0  0  0
  -23.7990  -31.4640   23.5200 O   0  0  0  0  0  0  0  0  0  0  0  0
  -23.2910  -28.7600   22.1850 C   0  0  0  0  0  0  0  0  0  0  0  0
  -21.9860  -28.5370   21.9560 N   0  0  0  0  0  0  0  0  0  0  0  0
  -23.9360  -28.1300   23.0270 O   0  0  0  0  0  0  0  0  0  0  0  0
  -21.5240  -29.1020   21.2570 H   0  0  0  0  0  0  0  0  0  0  0  0
  -18.6210  -27.2440   22.2130 C   0  0  0  0  0  0  0  0  0  0  0  0
  -21.1540  -27.5410   22.6320 C   0  0  0  0  0  3  0  0  0  0  0  0
  -21.3200  -26.1460   21.9860 C   0  0  0  0  0  2  0  0  0  0  0  0
  -20.2790  -25.8550   20.9000 C   0  0  0  0  0  2  0  0  0  0  0  0
  -18.8620  -25.9370   21.4750 C   0  0  0  0  0  2  0  0  0  0  0  0
  -19.6960  -28.0040   22.7410 C   0  0  0  0  0  0  0  0  0  0  0  0
  -19.4190  -29.2300   23.3850 C   0  0  0  0  0  3  0  0  0  0  0  0
  -18.0960  -29.6940   23.5090 C   0  0  0  0  0  3  0  0  0  0  0  0
  -17.0320  -28.9290   22.9990 C   0  0  0  0  0  3  0  0  0  0  0  0
  -17.2950  -27.7060   22.3560 C   0  0  0  0  0  3  0  0  0  0  0  0
  -26.1230  -31.9480   23.8320 C   0  0  0  0  0  3  0  0  0  0  0  0
  -25.7210  -33.3310   24.1220 N   0  0  0  0  0  0  0  0  0  0  0  0
  -26.0860  -34.3970   23.3970 C   0  0  0  0  0  0  0  0  0  0  0  0
  -26.8630  -34.3240   22.4430 O   0  0  0  0  0  0  0  0  0  0  0  0
  -25.0400  -33.4590   24.8570 H   0  0  0  0  0  0  0  0  0  0  0  0
  -24.3300  -36.1160   22.8550 C   0  0  0  0  0  1  0  0  0  0  0  0
  -25.4940  -35.7640   23.7960 C   0  0  0  0  0  3  0  0  0  0  0  0
  -27.4860  -36.7420   24.8460 C   0  0  0  0  0  1  0  0  0  0  0  0
  -26.4870  -36.8610   23.7870 N   0  0  0  0  0  0  0  0  0  0  0  0
  -26.0290  -37.7640   23.8840 H   0  0  0  0  0  0  0  0  0  0  0  0
  -26.5340  -31.2000   25.1600 C   0  0  1  0  0  0  0  0  0  0  0  0
  -25.3470  -30.9150   26.1090 C   0  0  0  0  0  1  0  0  0  0  0  0
  -27.2140  -29.8490   24.8370 C   0  0  0  0  0  1  0  0  0  0  0  0
  -27.5730  -32.0440   25.9350 C   0  0  0  0  0  1  0  0  0  0  0  0
  1  3  1  0
  2  4  1  0
  3 49  1  0
  4  7  1  0
  4  3  2  0
  5  1  2  0
  6  2  2  0
  6  5  1  0
  7  8  2  0
  8  9  1  0
 10  7  1  0
 11 16  1  0
 12 13  1  0
 12 11  1  0
 14 13  1  0
 14 21  1  0
 14 15  1  0
 16 10  1  0
 16 15  1  0
 17 10  2  0
 18 19  2  0
 19 38  1  0
 20 19  1  0
 20 23  1  0
 21 18  1  0
 21 22  1  0
 22 20  2  0
 23 24  1  0
 24 25  2  0
 26 29  1  0
 26 25  1  0
 27 26  2  0
 28 27  1  0
 28 23  2  0
 29 30  1  0
 30 35  2  0
 30 31  1  0
 31 32  2  0
 32 33  1  0
 33 37  1  0
 34 33  2  0
 35 34  1  0
 36 35  1  0
 38 39  1  0
 39 42  1  0
 39 41  1  0
 40 38  2  0
 43 44  1  0
 43 18  1  0
 43 48  1  0
 45 43  1  0
 46 47  1  0
 47  5  1  0
 48 49  1  0
 50  6  1  0
 50 51  1  0
 52 53  1  0
 52 51  2  0
 54 55  1  0
 54 53  2  0
 56 67  2  0
 57 55  1  0
 57 62  1  0
 58 66  1  0
 58 68  1  0
 59 61  1  0
 60 66  1  0
 61 62  2  0
 61 60  1  0
 63 57  2  0
 64 63  1  0
 64 59  2  0
 65 59  1  0
 65 58  1  0
 66 56  1  0
 68 70  2  0
 69 68  1  0
 71 69  1  0
 72 81  2  0
 72 77  1  0
 73 69  1  0
 73 77  1  0
 74 73  1  0
 75 76  1  0
 75 74  1  0
 76 72  1  0
 77 78  2  0
 78 79  1  0
 80 79  2  0
 81 80  1  0
 82 56  1  0
 82 83  1  0
 82 92  1  0
 83 86  1  0
 84 88  1  0
 84 83  1  0
 85 84  2  0
 88 87  1  0
 90 88  1  0
 90 91  1  0
 90 89  1  0
 92 95  1  1
 92 93  1  0
 94 92  1  0
M  ISO  4   7 100  10 100  54 101  55 101
M  END
>  <TORSDO>  (16) 
F 24

>  <SCORE>  (16) 
-8.080

>  <name>  (16) 
15

>  <ligand_id>  (16) 
15

>  <original_smiles>  (16) 
[H]N=C(C(=O)N1C([H])([H])C([H])([H])C([H])([H])C([H])(n2nc(-c3c([H])c([H])c(Oc4c([H])c([H])c(F)c([H])c4F)c([H])c3[H])c(C(=O)N([H])[H])c2N([H])[H])C1([H])[H])c1c([H])c(OC([H])([H])C([H])([H])C([H])([H])C([H])([H])Oc2c([H])c([H])c3c(c2[H])C([H])([H])N(C(=O)C([H])(N([H])C(=O)C([H])(N([H])C([H])([H])[H])C([H])([H])[H])C(C([H])([H])[H])(C([H])([H])[H])C([H])([H])[H])C([H])(C(=O)N([H])C2([H])c4c([H])c([H])c([H])c([H])c4C([H])([H])C([H])([H])C2([H])[H])C3([H])[H])c(OC([H])([H])[H])c([H])c1C([H])=C([H])[H]

>  <smiles>  (16) 
[H]N=C(C(=O)N1C([H])([H])C([H])([H])C([H])([H])C([H])(n2nc(-c3c([H])c([H])c(Oc4c([H])c([H])c(F)c([H])c4F)c([H])c3[H])c(C(=O)N([H])[H])c2N([H])[H])C1([H])[H])c1c([H])c(OC([H])([H])C([H])([H])C([H])([H])C([H])([H])Oc2c([H])c([H])c3c(c2[H])C([H])([H])N(C(=O)C([H])(N([H])C(=O)C([H])(N([H])C([H])([H])[H])C([H])([H])[H])C(C([H])([H])[H])(C([H])([H])[H])C([H])([H])[H])C([H])(C(=O)N([H])C2([H])c4c([H])c([H])c([H])c([H])c4C([H])([H])C([H])([H])C2([H])[H])C3([H])[H])c(OC([H])([H])[H])c([H])c1C([H])=C([H])[H]

$$$$
16:0:0
     RDKit          3D

 92100  0  0  1  0  0  0  0  0999 V2000
  -30.6160  -18.0220   20.0340 C   0  0  0  0  0  3  0  0  0  0  0  0
  -30.3210  -19.4340   20.2610 C   0  0  0  0  0  0  0  0  0  0  0  0
  -30.7640  -17.2540   21.1830 C   0  0  0  0  0  0  0  0  0  0  0  0
  -30.2210  -19.6950   21.6130 C   0  0  0  0  0  0  0  0  0  0  0  0
  -30.5700  -18.2930   22.5790 S   0  0  0  0  0  0  0  0  0  0  0  0
  -31.0410  -15.8100   21.4840 C   0  0  0  0  0  0  0  0  0  0  0  0
  -30.9820  -15.3770   22.6780 N   0  0  0  0  0  0  0  0  0  0  0  0
  -30.7360  -16.1210   23.3210 H   0  0  0  0  0  0  0  0  0  0  0  0
  -31.4210  -14.8160   20.3700 C   0  0  0  0  0  0  0  0  0  0  0  0
  -31.0930  -12.5690   19.3560 C   0  0  0  0  0  2  0  0  0  0  0  0
  -30.1720  -12.6370   18.1220 C   0  0  0  0  0  2  0  0  0  0  0  0
  -28.6920  -12.5420   18.5350 C   0  0  0  0  0  2  0  0  0  0  0  0
  -28.3400  -13.5140   19.6910 C   0  0  0  0  0  3  0  0  0  0  0  0
  -29.3630  -13.3870   20.8400 C   0  0  0  0  0  2  0  0  0  0  0  0
  -30.7110  -13.6440   20.2930 N   0  0  0  0  0  0  0  0  0  0  0  0
  -32.4320  -15.0240   19.6890 O   0  0  0  0  0  0  0  0  0  0  0  0
  -25.9910  -14.2610   20.4330 C   0  0  0  0  0  0  0  0  0  0  0  0
  -24.8690  -13.5520   20.7710 C   0  0  0  0  0  0  0  0  0  0  0  0
  -25.2300  -12.1730   20.6780 C   0  0  0  0  0  0  0  0  0  0  0  0
  -26.9690  -13.3170   20.1590 N   0  0  0  0  0  0  0  0  0  0  0  0
  -26.5140  -12.0530   20.3620 N   0  0  0  0  0  0  0  0  0  0  0  0
  -24.4150  -10.9600   20.8150 C   0  0  0  0  0  0  0  0  0  0  0  0
  -24.8040   -9.8990   21.6640 C   0  0  0  0  0  3  0  0  0  0  0  0
  -23.9930   -8.7510   21.7930 C   0  0  0  0  0  3  0  0  0  0  0  0
  -22.7790   -8.6550   21.0720 C   0  0  0  0  0  0  0  0  0  0  0  0
  -22.4080   -9.7020   20.2120 C   0  0  0  0  0  3  0  0  0  0  0  0
  -23.2180  -10.8430   20.0800 C   0  0  0  0  0  3  0  0  0  0  0  0
  -21.9410   -7.5670   21.1150 O   0  0  0  0  0  0  0  0  0  0  0  0
  -21.9090   -6.7260   22.1990 C   0  0  0  0  0  0  0  0  0  0  0  0
  -21.6260   -7.1970   23.4990 C   0  0  0  0  0  3  0  0  0  0  0  0
  -21.5340   -6.2880   24.5720 C   0  0  0  0  0  3  0  0  0  0  0  0
  -21.7140   -4.9100   24.3470 C   0  0  0  0  0  0  0  0  0  0  0  0
  -21.9910   -4.4390   23.0510 C   0  0  0  0  0  3  0  0  0  0  0  0
  -22.0840   -5.3440   21.9800 C   0  0  0  0  0  0  0  0  0  0  0  0
  -22.3300   -4.8830   20.7300 F   0  0  0  0  0  0  0  0  0  0  0  0
  -21.6180   -4.0360   25.3760 F   0  0  0  0  0  0  0  0  0  0  0  0
  -23.5100  -14.1160   21.0720 C   0  0  0  0  0  0  0  0  0  0  0  0
  -22.7400  -13.4420   21.9190 N   0  0  0  0  0  0  0  0  0  0  0  0
  -23.1430  -15.1870   20.5930 O   0  0  0  0  0  0  0  0  0  0  0  0
  -23.0520  -12.5750   22.3320 H   0  0  0  0  0  0  0  0  0  0  0  0
  -21.8270  -13.7990   22.1610 H   0  0  0  0  0  0  0  0  0  0  0  0
  -26.2510  -15.6230   20.3180 N   0  0  0  0  0  0  0  0  0  0  0  0
  -25.5310  -16.3210   20.4670 H   0  0  0  0  0  0  0  0  0  0  0  0
  -27.1340  -16.0200   20.0230 H   0  0  0  0  0  0  0  0  0  0  0  0
  -28.9390  -21.8270   21.9210 C   0  0  0  0  0  2  0  0  0  0  0  0
  -29.7630  -20.8490   22.3270 C   0  0  0  0  0  3  0  0  0  0  0  0
  -30.0820  -20.3630   19.2730 O   0  0  0  0  0  0  0  0  0  0  0  0
  -30.6260  -21.7090   19.3920 C   0  0  0  0  0  2  0  0  0  0  0  0
  -29.6160  -22.8160   18.9140 C   0  0  0  0  0  2  0  0  0  0  0  0
  -29.9290  -24.3220   19.2540 C   0  0  0  0  0  2  0  0  0  0  0  0
  -28.7200  -25.2880   18.9990 C   0  0  0  0  0  2  0  0  0  0  0  0
  -28.8380  -26.6970   19.3800 O   0  0  0  0  0  0  0  0  0  0  0  0
  -24.8440  -31.3510   23.1200 C   0  0  0  0  0  0  0  0  0  0  0  0
  -27.6560  -27.4400   19.4460 C   0  0  0  0  0  0  0  0  0  0  0  0
  -23.6880  -30.1170   21.3190 C   0  0  0  0  0  3  0  0  0  0  0  0
  -25.1960  -28.8670   19.6830 C   0  0  0  0  0  0  0  0  0  0  0  0
  -26.1990  -30.6120   21.1530 C   0  0  0  0  0  2  0  0  0  0  0  0
  -26.3440  -29.3450   20.3280 C   0  0  0  0  0  0  0  0  0  0  0  0
  -27.5750  -28.6420   20.2050 C   0  0  0  0  0  3  0  0  0  0  0  0
  -26.4810  -27.0110   18.7820 C   0  0  0  0  0  3  0  0  0  0  0  0
  -25.2640  -27.7030   18.9040 C   0  0  0  0  0  3  0  0  0  0  0  0
  -23.9120  -29.6490   19.8590 C   0  0  0  0  0  2  0  0  0  0  0  0
  -24.9290  -30.7020   21.9220 N   0  0  0  0  0  0  0  0  0  0  0  0
  -23.7570  -31.4930   23.6970 O   0  0  0  0  0  0  0  0  0  0  0  0
  -23.1040  -28.9420   22.1380 C   0  0  0  0  0  0  0  0  0  0  0  0
  -21.7990  -28.6740   21.9620 N   0  0  0  0  0  0  0  0  0  0  0  0
  -23.8240  -28.2790   22.8910 O   0  0  0  0  0  0  0  0  0  0  0  0
  -21.2750  -29.2690   21.3370 H   0  0  0  0  0  0  0  0  0  0  0  0
  -18.5460  -27.1140   22.1790 C   0  0  0  0  0  0  0  0  0  0  0  0
  -21.0500  -27.5920   22.6020 C   0  0  0  0  0  3  0  0  0  0  0  0
  -21.3210  -26.2380   21.9050 C   0  0  0  0  0  2  0  0  0  0  0  0
  -20.3000  -25.9090   20.8110 C   0  0  0  0  0  2  0  0  0  0  0  0
  -18.8850  -25.8590   21.3940 C   0  0  0  0  0  2  0  0  0  0  0  0
  -19.5620  -27.9360   22.7330 C   0  0  0  0  0  0  0  0  0  0  0  0
  -19.1930  -29.1110   23.4240 C   0  0  0  0  0  3  0  0  0  0  0  0
  -17.8380  -29.4660   23.5670 C   0  0  0  0  0  3  0  0  0  0  0  0
  -16.8350  -28.6400   23.0310 C   0  0  0  0  0  3  0  0  0  0  0  0
  -17.1880  -27.4660   22.3430 C   0  0  0  0  0  3  0  0  0  0  0  0
  -26.1020  -31.9660   23.8050 C   0  0  0  0  0  3  0  0  0  0  0  0
  -25.7290  -33.2980   24.3010 N   0  0  0  0  0  0  0  0  0  0  0  0
  -26.0180  -34.4490   23.6800 C   0  0  0  0  0  0  0  0  0  0  0  0
  -26.6970  -34.5030   22.6510 O   0  0  0  0  0  0  0  0  0  0  0  0
  -25.1220  -33.3260   25.1060 H   0  0  0  0  0  0  0  0  0  0  0  0
  -24.2090  -36.1910   23.5350 C   0  0  0  0  0  1  0  0  0  0  0  0
  -25.4660  -35.7470   24.2990 C   0  0  0  0  0  3  0  0  0  0  0  0
  -27.5580  -36.6190   25.2450 C   0  0  0  0  0  1  0  0  0  0  0  0
  -26.4490  -36.8520   24.3230 N   0  0  0  0  0  0  0  0  0  0  0  0
  -26.0000  -37.7260   24.5840 H   0  0  0  0  0  0  0  0  0  0  0  0
  -26.6700  -31.0750   24.9770 C   0  0  1  0  0  0  0  0  0  0  0  0
  -25.6020  -30.6630   26.0170 C   0  0  0  0  0  1  0  0  0  0  0  0
  -27.3100  -29.7810   24.4220 C   0  0  0  0  0  1  0  0  0  0  0  0
  -27.7930  -31.8380   25.7180 C   0  0  0  0  0  1  0  0  0  0  0  0
  1  2  1  0
  1  3  2  0
  2  4  2  0
  3  6  1  0
  3  5  1  0
  4 46  1  0
  4  5  1  0
  6  7  2  0
  7  8  1  0
  9  6  1  0
 10 15  1  0
 11 12  1  0
 11 10  1  0
 13 12  1  0
 13 20  1  0
 13 14  1  0
 15  9  1  0
 15 14  1  0
 16  9  2  0
 17 18  2  0
 18 37  1  0
 19 18  1  0
 19 22  1  0
 20 21  1  0
 20 17  1  0
 21 19  2  0
 22 23  1  0
 23 24  2  0
 25 28  1  0
 25 24  1  0
 26 25  2  0
 27 26  1  0
 27 22  2  0
 28 29  1  0
 29 30  1  0
 30 31  2  0
 32 31  1  0
 32 36  1  0
 33 32  2  0
 34 29  2  0
 34 33  1  0
 35 34  1  0
 37 38  1  0
 38 41  1  0
 38 40  1  0
 39 37  2  0
 42 17  1  0
 42 43  1  0
 44 42  1  0
 45 46  2  0
 47 48  1  0
 47  2  1  0
 49 50  1  0
 49 48  1  0
 51 50  1  0
 51 52  1  0
 52 54  1  0
 53 64  2  0
 54 59  1  0
 55 63  1  0
 55 65  1  0
 56 62  1  0
 56 58  1  0
 57 63  1  0
 58 57  1  0
 59 58  2  0
 60 61  1  0
 60 54  2  0
 61 56  2  0
 62 55  1  0
 63 53  1  0
 65 67  2  0
 66 65  1  0
 68 66  1  0
 69 78  2  0
 69 74  1  0
 70 66  1  0
 70 74  1  0
 71 70  1  0
 72 73  1  0
 72 71  1  0
 73 69  1  0
 74 75  2  0
 75 76  1  0
 77 76  2  0
 78 77  1  0
 79 53  1  0
 79 80  1  0
 79 89  1  0
 80 83  1  0
 81 85  1  0
 81 80  1  0
 82 81  2  0
 85 84  1  0
 85 87  1  0
 87 88  1  0
 87 86  1  0
 89 92  1  1
 89 90  1  0
 91 89  1  0
M  ISO  4   6 100   9 100  51 101  52 101
M  END
>  <TORSDO>  (17) 
F 23

>  <SCORE>  (17) 
-9.739

>  <name>  (17) 
16

>  <ligand_id>  (17) 
16

>  <original_smiles>  (17) 
[H]N=C(C(=O)N1C([H])([H])C([H])([H])C([H])([H])C([H])(n2nc(-c3c([H])c([H])c(Oc4c([H])c([H])c(F)c([H])c4F)c([H])c3[H])c(C(=O)N([H])[H])c2N([H])[H])C1([H])[H])c1sc(C([H])=C([H])[H])c(OC([H])([H])C([H])([H])C([H])([H])C([H])([H])Oc2c([H])c([H])c3c(c2[H])C([H])([H])N(C(=O)C([H])(N([H])C(=O)C([H])(N([H])C([H])([H])[H])C([H])([H])[H])C(C([H])([H])[H])(C([H])([H])[H])C([H])([H])[H])C([H])(C(=O)N([H])C2([H])c4c([H])c([H])c([H])c([H])c4C([H])([H])C([H])([H])C2([H])[H])C3([H])[H])c1[H]

>  <smiles>  (17) 
[H]N=C(C(=O)N1C([H])([H])C([H])([H])C([H])([H])C([H])(n2nc(-c3c([H])c([H])c(Oc4c([H])c([H])c(F)c([H])c4F)c([H])c3[H])c(C(=O)N([H])[H])c2N([H])[H])C1([H])[H])c1sc(C([H])=C([H])[H])c(OC([H])([H])C([H])([H])C([H])([H])C([H])([H])Oc2c([H])c([H])c3c(c2[H])C([H])([H])N(C(=O)C([H])(N([H])C(=O)C([H])(N([H])C([H])([H])[H])C([H])([H])[H])C(C([H])([H])[H])(C([H])([H])[H])C([H])([H])[H])C([H])(C(=O)N([H])C2([H])c4c([H])c([H])c([H])c([H])c4C([H])([H])C([H])([H])C2([H])[H])C3([H])[H])c1[H]

$$$$
17:0:0
     RDKit          3D

 95103  0  0  1  0  0  0  0  0999 V2000
  -28.0950  -19.2730   18.8750 C   0  0  0  0  0  3  0  0  0  0  0  0
  -28.3200  -20.5940   19.3050 C   0  0  0  0  0  3  0  0  0  0  0  0
  -28.8430  -18.1820   19.3820 C   0  0  0  0  0  0  0  0  0  0  0  0
  -29.7910  -18.4330   20.4290 C   0  0  0  0  0  0  0  0  0  0  0  0
  -29.3420  -20.8810   20.2290 C   0  0  0  0  0  0  0  0  0  0  0  0
  -30.0470  -19.7950   20.7990 C   0  0  0  0  0  0  0  0  0  0  0  0
  -31.0290  -20.0970   21.6880 F   0  0  0  0  0  0  0  0  0  0  0  0
  -30.8640  -14.9140   21.2010 C   0  0  0  0  0  0  0  0  0  0  0  0
  -30.6670  -12.6730   20.2120 C   0  0  0  0  0  2  0  0  0  0  0  0
  -29.8790  -12.7730   18.8910 C   0  0  0  0  0  2  0  0  0  0  0  0
  -28.3710  -12.6100   19.1660 C   0  0  0  0  0  2  0  0  0  0  0  0
  -27.8640  -13.5140   20.3240 C   0  0  0  0  0  3  0  0  0  0  0  0
  -28.7990  -13.4750   21.5550 C   0  0  0  0  0  2  0  0  0  0  0  0
  -30.1700  -13.7440   21.0940 N   0  0  0  0  0  0  0  0  0  0  0  0
  -32.0860  -14.9230   21.0530 O   0  0  0  0  0  0  0  0  0  0  0  0
  -30.6650  -17.3270   21.0130 C   0  0  0  0  0  0  0  0  0  0  0  0
  -30.1450  -16.0680   21.1590 N   0  0  0  0  0  0  0  0  0  0  0  0
  -31.8260  -17.6240   21.3100 O   0  0  0  0  0  0  0  0  0  0  0  0
  -29.1480  -15.9860   21.0540 H   0  0  0  0  0  0  0  0  0  0  0  0
  -25.4030  -14.0570   20.7890 C   0  0  0  0  0  0  0  0  0  0  0  0
  -24.3230  -13.2640   21.0550 C   0  0  0  0  0  0  0  0  0  0  0  0
  -24.8160  -11.9220   21.0990 C   0  0  0  0  0  0  0  0  0  0  0  0
  -26.4850  -13.2010   20.6800 N   0  0  0  0  0  0  0  0  0  0  0  0
  -26.1320  -11.9120   20.9320 N   0  0  0  0  0  0  0  0  0  0  0  0
  -24.1040  -10.6450   21.2340 C   0  0  0  0  0  0  0  0  0  0  0  0
  -24.4750   -9.6910   22.2080 C   0  0  0  0  0  3  0  0  0  0  0  0
  -23.7600   -8.4810   22.3330 C   0  0  0  0  0  3  0  0  0  0  0  0
  -22.6650   -8.2100   21.4810 C   0  0  0  0  0  0  0  0  0  0  0  0
  -22.3170   -9.1510   20.4950 C   0  0  0  0  0  3  0  0  0  0  0  0
  -23.0320  -10.3530   20.3690 C   0  0  0  0  0  3  0  0  0  0  0  0
  -21.9340   -7.0480   21.5070 O   0  0  0  0  0  0  0  0  0  0  0  0
  -21.7900   -6.3150   22.6580 C   0  0  0  0  0  0  0  0  0  0  0  0
  -21.2150   -6.8630   23.8250 C   0  0  0  0  0  3  0  0  0  0  0  0
  -21.0260   -6.0560   24.9640 C   0  0  0  0  0  3  0  0  0  0  0  0
  -21.4020   -4.6990   24.9350 C   0  0  0  0  0  0  0  0  0  0  0  0
  -21.9740   -4.1500   23.7740 C   0  0  0  0  0  3  0  0  0  0  0  0
  -22.1630   -4.9560   22.6370 C   0  0  0  0  0  0  0  0  0  0  0  0
  -22.6950   -4.4160   21.5130 F   0  0  0  0  0  0  0  0  0  0  0  0
  -21.2130   -3.9200   26.0260 F   0  0  0  0  0  0  0  0  0  0  0  0
  -22.8930  -13.7070   21.1660 C   0  0  0  0  0  0  0  0  0  0  0  0
  -22.0920  -13.0070   21.9600 N   0  0  0  0  0  0  0  0  0  0  0  0
  -22.4900  -14.7110   20.5760 O   0  0  0  0  0  0  0  0  0  0  0  0
  -22.4270  -12.1930   22.4560 H   0  0  0  0  0  0  0  0  0  0  0  0
  -21.1300  -13.2890   22.0800 H   0  0  0  0  0  0  0  0  0  0  0  0
  -25.5570  -15.4290   20.6010 N   0  0  0  0  0  0  0  0  0  0  0  0
  -24.7690  -16.0680   20.5930 H   0  0  0  0  0  0  0  0  0  0  0  0
  -26.4270  -15.8680   20.3250 H   0  0  0  0  0  0  0  0  0  0  0  0
  -27.5010  -16.3900   18.1910 C   0  0  0  0  0  2  0  0  0  0  0  0
  -28.6220  -16.8380   18.7830 C   0  0  0  0  0  3  0  0  0  0  0  0
  -29.6600  -22.1850   20.6060 O   0  0  0  0  0  0  0  0  0  0  0  0
  -29.5470  -23.2240   19.6040 C   0  0  0  0  0  2  0  0  0  0  0  0
  -29.4840  -24.6450   20.2140 C   0  0  0  0  0  0  0  0  0  0  0  0
  -30.0800  -24.9430   21.2570 O   0  0  0  0  0  0  0  0  0  0  0  0
  -28.6330  -25.6690   19.4280 C   0  0  0  0  0  2  0  0  0  0  0  0
  -28.5820  -26.9880   20.0320 O   0  0  0  0  0  0  0  0  0  0  0  0
  -24.6880  -31.9120   23.4410 C   0  0  0  0  0  0  0  0  0  0  0  0
  -27.3920  -27.7090   20.0350 C   0  0  0  0  0  0  0  0  0  0  0  0
  -23.4950  -30.5970   21.7200 C   0  0  0  0  0  3  0  0  0  0  0  0
  -24.9680  -29.1930   20.1840 C   0  0  0  0  0  0  0  0  0  0  0  0
  -26.0170  -31.0140   21.5280 C   0  0  0  0  0  2  0  0  0  0  0  0
  -26.1250  -29.6900   20.7920 C   0  0  0  0  0  0  0  0  0  0  0  0
  -27.3360  -28.9550   20.7160 C   0  0  0  0  0  3  0  0  0  0  0  0
  -26.2080  -27.2550   19.4040 C   0  0  0  0  0  3  0  0  0  0  0  0
  -25.0050  -27.9760   19.4900 C   0  0  0  0  0  3  0  0  0  0  0  0
  -23.7110  -30.0220   20.2970 C   0  0  0  0  0  2  0  0  0  0  0  0
  -24.7510  -31.1850   22.2890 N   0  0  0  0  0  0  0  0  0  0  0  0
  -23.6060  -32.1240   24.0070 O   0  0  0  0  0  0  0  0  0  0  0  0
  -22.8740  -29.5000   22.6120 C   0  0  0  0  0  0  0  0  0  0  0  0
  -21.5550  -29.2900   22.4750 N   0  0  0  0  0  0  0  0  0  0  0  0
  -23.5750  -28.8450   23.3880 O   0  0  0  0  0  0  0  0  0  0  0  0
  -21.0470  -29.8920   21.8420 H   0  0  0  0  0  0  0  0  0  0  0  0
  -18.2250  -27.9130   22.8600 C   0  0  0  0  0  0  0  0  0  0  0  0
  -20.7650  -28.2740   23.1700 C   0  0  0  0  0  3  0  0  0  0  0  0
  -20.9420  -26.8860   22.5090 C   0  0  0  0  0  2  0  0  0  0  0  0
  -19.8480  -26.5590   21.4860 C   0  0  0  0  0  2  0  0  0  0  0  0
  -18.4740  -26.5930   22.1570 C   0  0  0  0  0  2  0  0  0  0  0  0
  -19.3030  -28.7100   23.3300 C   0  0  0  0  0  0  0  0  0  0  0  0
  -19.0190  -29.9420   23.9600 C   0  0  0  0  0  3  0  0  0  0  0  0
  -17.6900  -30.3800   24.1170 C   0  0  0  0  0  3  0  0  0  0  0  0
  -16.6280  -29.5840   23.6550 C   0  0  0  0  0  3  0  0  0  0  0  0
  -16.8940  -28.3500   23.0370 C   0  0  0  0  0  3  0  0  0  0  0  0
  -25.9660  -32.5290   24.0900 C   0  0  0  0  0  3  0  0  0  0  0  0
  -25.6640  -33.9260   24.4270 N   0  0  0  0  0  0  0  0  0  0  0  0
  -26.0360  -34.9820   23.6910 C   0  0  0  0  0  0  0  0  0  0  0  0
  -26.7390  -34.8830   22.6830 O   0  0  0  0  0  0  0  0  0  0  0  0
  -25.0490  -34.0780   25.2120 H   0  0  0  0  0  0  0  0  0  0  0  0
  -24.3530  -36.8030   23.2890 C   0  0  0  0  0  1  0  0  0  0  0  0
  -25.5510  -36.3700   24.1490 C   0  0  0  0  0  3  0  0  0  0  0  0
  -27.6560  -37.2120   25.0910 C   0  0  0  0  0  1  0  0  0  0  0  0
  -26.6020  -37.4090   24.0990 N   0  0  0  0  0  0  0  0  0  0  0  0
  -26.2030  -38.3340   24.2390 H   0  0  0  0  0  0  0  0  0  0  0  0
  -26.4590  -31.7380   25.3620 C   0  0  1  0  0  0  0  0  0  0  0  0
  -25.3460  -31.4940   26.4080 C   0  0  0  0  0  1  0  0  0  0  0  0
  -27.0360  -30.3620   24.9600 C   0  0  0  0  0  1  0  0  0  0  0  0
  -27.6040  -32.5140   26.0530 C   0  0  0  0  0  1  0  0  0  0  0  0
  1  2  2  0
  1  3  1  0
  2  5  1  0
  3  4  2  0
  4  6  1  0
  4 16  1  0
  5 50  1  0
  5  6  2  0
  6  7  1  0
  9 14  1  0
 10 11  1  0
 10  9  1  0
 12 11  1  0
 12 23  1  0
 12 13  1  0
 14  8  1  0
 14 13  1  0
 15  8  2  0
 16 17  1  0
 16 18  2  0
 17  8  1  0
 19 17  1  0
 20 21  2  0
 21 22  1  0
 21 40  1  0
 22 25  1  0
 23 20  1  0
 23 24  1  0
 24 22  2  0
 25 26  1  0
 26 27  2  0
 28 31  1  0
 28 27  1  0
 29 28  2  0
 30 29  1  0
 30 25  2  0
 31 32  1  0
 32 33  1  0
 33 34  2  0
 35 34  1  0
 35 39  1  0
 36 35  2  0
 37 32  2  0
 37 36  1  0
 38 37  1  0
 40 41  1  0
 41 44  1  0
 41 43  1  0
 42 40  2  0
 45 20  1  0
 46 45  1  0
 47 45  1  0
 48 49  2  0
 49  3  1  0
 51 52  1  0
 51 50  1  0
 52 53  2  0
 54 55  1  0
 54 52  1  0
 55 57  1  0
 56 67  2  0
 57 62  1  0
 58 66  1  0
 58 68  1  0
 59 65  1  0
 59 61  1  0
 60 66  1  0
 61 60  1  0
 62 61  2  0
 63 64  1  0
 63 57  2  0
 64 59  2  0
 65 58  1  0
 66 56  1  0
 68 70  2  0
 69 68  1  0
 71 69  1  0
 72 81  2  0
 72 77  1  0
 73 69  1  0
 73 77  1  0
 74 73  1  0
 75 76  1  0
 75 74  1  0
 76 72  1  0
 77 78  2  0
 78 79  1  0
 80 79  2  0
 81 80  1  0
 82 56  1  0
 82 83  1  0
 82 92  1  0
 83 86  1  0
 84 88  1  0
 84 83  1  0
 85 84  2  0
 88 87  1  0
 90 88  1  0
 90 91  1  0
 90 89  1  0
 92 95  1  1
 92 93  1  0
 94 92  1  0
M  ISO  4   8 100  17 100  54 101  55 101
M  END
>  <TORSDO>  (18) 
F 21

>  <SCORE>  (18) 
-12.261

>  <name>  (18) 
17

>  <ligand_id>  (18) 
17

>  <original_smiles>  (18) 
[H]C([H])=C([H])c1c([H])c([H])c(OC([H])([H])C(=O)C([H])([H])Oc2c([H])c([H])c3c(c2[H])C([H])([H])N(C(=O)C([H])(N([H])C(=O)C([H])(N([H])C([H])([H])[H])C([H])([H])[H])C(C([H])([H])[H])(C([H])([H])[H])C([H])([H])[H])C([H])(C(=O)N([H])C2([H])c4c([H])c([H])c([H])c([H])c4C([H])([H])C([H])([H])C2([H])[H])C3([H])[H])c(F)c1C(=O)N([H])C(=O)N1C([H])([H])C([H])([H])C([H])([H])C([H])(n2nc(-c3c([H])c([H])c(Oc4c([H])c([H])c(F)c([H])c4F)c([H])c3[H])c(C(=O)N([H])[H])c2N([H])[H])C1([H])[H]

>  <smiles>  (18) 
[H]C([H])=C([H])c1c([H])c([H])c(OC([H])([H])C(=O)C([H])([H])Oc2c([H])c([H])c3c(c2[H])C([H])([H])N(C(=O)C([H])(N([H])C(=O)C([H])(N([H])C([H])([H])[H])C([H])([H])[H])C(C([H])([H])[H])(C([H])([H])[H])C([H])([H])[H])C([H])(C(=O)N([H])C2([H])c4c([H])c([H])c([H])c([H])c4C([H])([H])C([H])([H])C2([H])[H])C3([H])[H])c(F)c1C(=O)N([H])C(=O)N1C([H])([H])C([H])([H])C([H])([H])C([H])(n2nc(-c3c([H])c([H])c(Oc4c([H])c([H])c(F)c([H])c4F)c([H])c3[H])c(C(=O)N([H])[H])c2N([H])[H])C1([H])[H]

$$$$
18:0:0
     RDKit          3D

 95103  0  0  1  0  0  0  0  0999 V2000
  -28.8780  -18.3250   20.4040 C   0  0  0  0  0  3  0  0  0  0  0  0
  -30.3630  -20.6920   20.6250 C   0  0  0  0  0  3  0  0  0  0  0  0
  -28.2970  -19.5720   20.0210 C   0  0  0  0  0  0  0  0  0  0  0  0
  -30.1950  -18.2370   20.9160 C   0  0  0  0  0  0  0  0  0  0  0  0
  -29.0440  -20.7870   20.1330 C   0  0  0  0  0  0  0  0  0  0  0  0
  -30.9290  -19.4520   21.0030 C   0  0  0  0  0  0  0  0  0  0  0  0
  -32.2100  -19.4600   21.4500 F   0  0  0  0  0  0  0  0  0  0  0  0
  -30.9420  -14.5570   21.0290 C   0  0  0  0  0  0  0  0  0  0  0  0
  -30.7200  -12.2580   20.1370 C   0  0  0  0  0  2  0  0  0  0  0  0
  -29.9280  -12.2690   18.8150 C   0  0  0  0  0  2  0  0  0  0  0  0
  -28.4200  -12.1570   19.0990 C   0  0  0  0  0  2  0  0  0  0  0  0
  -27.9340  -13.1510   20.1890 C   0  0  0  0  0  3  0  0  0  0  0  0
  -28.8650  -13.1550   21.4210 C   0  0  0  0  0  2  0  0  0  0  0  0
  -30.2310  -13.3950   20.9390 N   0  0  0  0  0  0  0  0  0  0  0  0
  -32.1520  -14.5630   20.7920 O   0  0  0  0  0  0  0  0  0  0  0  0
  -30.8020  -16.9340   21.4390 C   0  0  0  0  0  0  0  0  0  0  0  0
  -30.2470  -15.7250   21.1350 N   0  0  0  0  0  0  0  0  0  0  0  0
  -31.8240  -17.0160   22.1330 O   0  0  0  0  0  0  0  0  0  0  0  0
  -29.2750  -15.7050   20.8850 H   0  0  0  0  0  0  0  0  0  0  0  0
  -25.4990  -13.8120   20.6600 C   0  0  0  0  0  0  0  0  0  0  0  0
  -24.3850  -13.0700   20.9460 C   0  0  0  0  0  0  0  0  0  0  0  0
  -24.8190  -11.7100   20.9960 C   0  0  0  0  0  0  0  0  0  0  0  0
  -26.5420  -12.9070   20.5530 N   0  0  0  0  0  0  0  0  0  0  0  0
  -26.1320  -11.6390   20.8160 N   0  0  0  0  0  0  0  0  0  0  0  0
  -24.0500  -10.4690   21.1440 C   0  0  0  0  0  0  0  0  0  0  0  0
  -24.3940   -9.4980   22.1110 C   0  0  0  0  0  3  0  0  0  0  0  0
  -23.6270   -8.3220   22.2480 C   0  0  0  0  0  3  0  0  0  0  0  0
  -22.5010   -8.1070   21.4160 C   0  0  0  0  0  0  0  0  0  0  0  0
  -22.1770   -9.0650   20.4390 C   0  0  0  0  0  3  0  0  0  0  0  0
  -22.9450  -10.2340   20.3010 C   0  0  0  0  0  3  0  0  0  0  0  0
  -21.7140   -6.9820   21.4600 O   0  0  0  0  0  0  0  0  0  0  0  0
  -21.5980   -6.2290   22.6010 C   0  0  0  0  0  0  0  0  0  0  0  0
  -21.1140   -6.7770   23.8090 C   0  0  0  0  0  3  0  0  0  0  0  0
  -20.9450   -5.9510   24.9380 C   0  0  0  0  0  3  0  0  0  0  0  0
  -21.2500   -4.5800   24.8610 C   0  0  0  0  0  0  0  0  0  0  0  0
  -21.7270   -4.0310   23.6570 C   0  0  0  0  0  3  0  0  0  0  0  0
  -21.8970   -4.8540   22.5290 C   0  0  0  0  0  0  0  0  0  0  0  0
  -22.3370   -4.3170   21.3660 F   0  0  0  0  0  0  0  0  0  0  0  0
  -21.0810   -3.7840   25.9430 F   0  0  0  0  0  0  0  0  0  0  0  0
  -22.9790  -13.5830   21.0650 C   0  0  0  0  0  0  0  0  0  0  0  0
  -22.1600  -12.9380   21.8870 N   0  0  0  0  0  0  0  0  0  0  0  0
  -22.6140  -14.5940   20.4650 O   0  0  0  0  0  0  0  0  0  0  0  0
  -22.4650  -12.1220   22.3960 H   0  0  0  0  0  0  0  0  0  0  0  0
  -21.2130  -13.2680   22.0120 H   0  0  0  0  0  0  0  0  0  0  0  0
  -25.7080  -15.1710   20.4570 N   0  0  0  0  0  0  0  0  0  0  0  0
  -24.9360  -15.8280   20.4400 H   0  0  0  0  0  0  0  0  0  0  0  0
  -26.5740  -15.5630   20.1150 H   0  0  0  0  0  0  0  0  0  0  0  0
  -26.3330  -18.6100   18.7760 C   0  0  0  0  0  2  0  0  0  0  0  0
  -26.9250  -19.5970   19.4700 C   0  0  0  0  0  3  0  0  0  0  0  0
  -28.4760  -22.0280   19.7220 N   0  0  0  0  0  0  0  0  0  0  0  0
  -27.5350  -21.9860   19.3390 H   0  0  0  0  0  0  0  0  0  0  0  0
  -28.9510  -23.3770   20.0990 C   0  0  0  0  0  2  0  0  0  0  0  0
  -28.9050  -24.3830   18.9430 C   0  0  0  0  0  3  0  0  0  0  0  0
  -28.6480  -25.7190   18.9330 C   0  0  0  0  0  3  0  0  0  0  0  0
  -28.3740  -26.5420   20.0080 O   0  0  0  0  0  0  0  0  0  0  0  0
  -24.5360  -31.6930   23.1660 C   0  0  0  0  0  0  0  0  0  0  0  0
  -27.2330  -27.3330   19.9690 C   0  0  0  0  0  0  0  0  0  0  0  0
  -23.3560  -30.3380   21.4680 C   0  0  0  0  0  3  0  0  0  0  0  0
  -24.8340  -28.8560   20.0070 C   0  0  0  0  0  0  0  0  0  0  0  0
  -25.8860  -30.7070   21.3130 C   0  0  0  0  0  2  0  0  0  0  0  0
  -25.9880  -29.3570   20.6240 C   0  0  0  0  0  0  0  0  0  0  0  0
  -27.1890  -28.6020   20.6040 C   0  0  0  0  0  3  0  0  0  0  0  0
  -26.0520  -26.8520   19.3580 C   0  0  0  0  0  3  0  0  0  0  0  0
  -24.8630  -27.6030   19.3720 C   0  0  0  0  0  3  0  0  0  0  0  0
  -23.5850  -29.7060   20.0700 C   0  0  0  0  0  2  0  0  0  0  0  0
  -24.6110  -30.9250   22.0410 N   0  0  0  0  0  0  0  0  0  0  0  0
  -23.4460  -31.9450   23.7010 O   0  0  0  0  0  0  0  0  0  0  0  0
  -22.6980  -29.2830   22.3880 C   0  0  0  0  0  0  0  0  0  0  0  0
  -21.3710  -29.1250   22.2680 N   0  0  0  0  0  0  0  0  0  0  0  0
  -23.3800  -28.6130   23.1680 O   0  0  0  0  0  0  0  0  0  0  0  0
  -20.8810  -29.7200   21.6120 H   0  0  0  0  0  0  0  0  0  0  0  0
  -17.9800  -27.9870   22.7870 C   0  0  0  0  0  0  0  0  0  0  0  0
  -20.5490  -28.1630   23.0030 C   0  0  0  0  0  3  0  0  0  0  0  0
  -20.5980  -26.7680   22.3410 C   0  0  0  0  0  2  0  0  0  0  0  0
  -19.4620  -26.5340   21.3400 C   0  0  0  0  0  2  0  0  0  0  0  0
  -18.1020  -26.6760   22.0280 C   0  0  0  0  0  2  0  0  0  0  0  0
  -19.1280  -28.6930   23.2310 C   0  0  0  0  0  0  0  0  0  0  0  0
  -18.9600  -29.9250   23.9010 C   0  0  0  0  0  3  0  0  0  0  0  0
  -17.6750  -30.4500   24.1310 C   0  0  0  0  0  3  0  0  0  0  0  0
  -16.5400  -29.7390   23.7040 C   0  0  0  0  0  3  0  0  0  0  0  0
  -16.6940  -28.5090   23.0390 C   0  0  0  0  0  3  0  0  0  0  0  0
  -25.8110  -32.3130   23.8200 C   0  0  0  0  0  3  0  0  0  0  0  0
  -26.2930  -31.5330   25.1040 C   0  0  1  0  0  0  0  0  0  0  0  0
  -25.1750  -31.3050   26.1500 C   0  0  0  0  0  1  0  0  0  0  0  0
  -26.8690  -30.1510   24.7190 C   0  0  0  0  0  1  0  0  0  0  0  0
  -27.4390  -32.3130   25.7920 C   0  0  0  0  0  1  0  0  0  0  0  0
  -25.5050  -33.7120   24.1470 N   0  0  0  0  0  0  0  0  0  0  0  0
  -25.8730  -34.7650   23.4060 C   0  0  0  0  0  0  0  0  0  0  0  0
  -26.5770  -34.6610   22.3980 O   0  0  0  0  0  0  0  0  0  0  0  0
  -24.8860  -33.8700   24.9290 H   0  0  0  0  0  0  0  0  0  0  0  0
  -24.1700  -36.5730   23.0090 C   0  0  0  0  0  1  0  0  0  0  0  0
  -25.3840  -36.1560   23.8540 C   0  0  0  0  0  3  0  0  0  0  0  0
  -27.4940  -37.0240   24.7600 C   0  0  0  0  0  1  0  0  0  0  0  0
  -26.4280  -37.2010   23.7770 N   0  0  0  0  0  0  0  0  0  0  0  0
  -26.0230  -38.1240   23.9120 H   0  0  0  0  0  0  0  0  0  0  0  0
  1  4  1  0
  2  6  1  0
  3  5  1  0
  3  1  2  0
  4  6  2  0
  4 16  1  0
  5  2  2  0
  6  7  1  0
  8 17  1  0
  9 14  1  0
 10 11  1  0
 10  9  1  0
 12 11  1  0
 12 23  1  0
 12 13  1  0
 14  8  1  0
 14 13  1  0
 15  8  2  0
 16 18  2  0
 17 16  1  0
 19 17  1  0
 20 21  2  0
 21 22  1  0
 21 40  1  0
 22 25  1  0
 23 20  1  0
 23 24  1  0
 24 22  2  0
 25 26  1  0
 26 27  2  0
 28 31  1  0
 28 27  1  0
 29 28  2  0
 30 29  1  0
 30 25  2  0
 31 32  1  0
 32 33  1  0
 33 34  2  0
 35 34  1  0
 35 39  1  0
 36 35  2  0
 37 32  2  0
 37 36  1  0
 38 37  1  0
 40 41  1  0
 41 44  1  0
 41 43  1  0
 42 40  2  0
 45 20  1  0
 46 45  1  0
 47 45  1  0
 48 49  2  0
 49  3  1  0
 50 52  1  0
 50  5  1  0
 51 50  1  0
 53 52  1  0
 54 53  2  0
 54 55  1  0
 56 67  2  0
 57 55  1  0
 57 62  1  0
 58 66  1  0
 58 68  1  0
 59 65  1  0
 59 61  1  0
 60 66  1  0
 61 60  1  0
 62 61  2  0
 63 64  1  0
 63 57  2  0
 64 59  2  0
 65 58  1  0
 66 56  1  0
 68 70  2  0
 69 68  1  0
 71 69  1  0
 72 81  2  0
 72 77  1  0
 73 69  1  0
 73 77  1  0
 74 73  1  0
 75 76  1  0
 75 74  1  0
 76 72  1  0
 77 78  2  0
 78 79  1  0
 80 79  2  0
 81 80  1  0
 82 56  1  0
 82 87  1  0
 82 83  1  0
 83 86  1  1
 83 84  1  0
 85 83  1  0
 87 90  1  0
 88 92  1  0
 88 87  1  0
 89 88  2  0
 92 91  1  0
 94 92  1  0
 94 95  1  0
 94 93  1  0
M  ISO  4   8 100  17 100  54 101  55 101
M  END
>  <TORSDO>  (19) 
F 20

>  <SCORE>  (19) 
-12.766

>  <name>  (19) 
18

>  <ligand_id>  (19) 
18

>  <original_smiles>  (19) 
[H]C([H])=C([H])c1c([H])c(C(=O)N([H])C(=O)N2C([H])([H])C([H])([H])C([H])([H])C([H])(n3nc(-c4c([H])c([H])c(Oc5c([H])c([H])c(F)c([H])c5F)c([H])c4[H])c(C(=O)N([H])[H])c3N([H])[H])C2([H])[H])c(F)c([H])c1N([H])C([H])([H])C([H])=C([H])Oc1c([H])c([H])c2c(c1[H])C([H])([H])N(C(=O)C([H])(N([H])C(=O)C([H])(N([H])C([H])([H])[H])C([H])([H])[H])C(C([H])([H])[H])(C([H])([H])[H])C([H])([H])[H])C([H])(C(=O)N([H])C1([H])c3c([H])c([H])c([H])c([H])c3C([H])([H])C([H])([H])C1([H])[H])C2([H])[H]

>  <smiles>  (19) 
[H]C([H])=C([H])c1c([H])c(C(=O)N([H])C(=O)N2C([H])([H])C([H])([H])C([H])([H])C([H])(n3nc(-c4c([H])c([H])c(Oc5c([H])c([H])c(F)c([H])c5F)c([H])c4[H])c(C(=O)N([H])[H])c3N([H])[H])C2([H])[H])c(F)c([H])c1N([H])C([H])([H])C([H])=C([H])Oc1c([H])c([H])c2c(c1[H])C([H])([H])N(C(=O)C([H])(N([H])C(=O)C([H])(N([H])C([H])([H])[H])C([H])([H])[H])C(C([H])([H])[H])(C([H])([H])[H])C([H])([H])[H])C([H])(C(=O)N([H])C1([H])c3c([H])c([H])c([H])c([H])c3C([H])([H])C([H])([H])C1([H])[H])C2([H])[H]

$$$$
19:0:0
     RDKit          3D

 96104  0  0  1  0  0  0  0  0999 V2000
  -30.2230  -20.1420   21.0250 C   0  0  0  0  0  3  0  0  0  0  0  0
  -27.9690  -20.8980   20.6670 C   0  0  0  0  0  3  0  0  0  0  0  0
  -29.8800  -18.7270   20.7610 C   0  0  0  0  0  0  0  0  0  0  0  0
  -28.5900  -18.5490   20.1640 C   0  0  0  0  0  0  0  0  0  0  0  0
  -29.3040  -21.2820   20.8810 C   0  0  0  0  0  0  0  0  0  0  0  0
  -27.6290  -19.5940   20.2710 C   0  0  0  0  0  0  0  0  0  0  0  0
  -31.2660  -15.0150   21.3380 C   0  0  0  0  0  0  0  0  0  0  0  0
  -31.2630  -12.5760   20.7020 C   0  0  0  0  0  2  0  0  0  0  0  0
  -30.5820  -12.3480   19.3370 C   0  0  0  0  0  2  0  0  0  0  0  0
  -29.0640  -12.1610   19.5110 C   0  0  0  0  0  2  0  0  0  0  0  0
  -28.4360  -13.2260   20.4530 C   0  0  0  0  0  3  0  0  0  0  0  0
  -29.2590  -13.4690   21.7410 C   0  0  0  0  0  2  0  0  0  0  0  0
  -30.6420  -13.7730   21.3400 N   0  0  0  0  0  0  0  0  0  0  0  0
  -32.4950  -15.0260   21.1980 O   0  0  0  0  0  0  0  0  0  0  0  0
  -30.8900  -17.5170   20.9240 C   0  0  0  0  0  0  0  0  0  0  0  0
  -30.5160  -16.2040   21.2960 N   0  0  0  0  0  0  0  0  0  0  0  0
  -32.0750  -17.8000   20.7080 O   0  0  0  0  0  0  0  0  0  0  0  0
  -29.5370  -16.0790   21.4980 H   0  0  0  0  0  0  0  0  0  0  0  0
  -25.9680  -13.8260   20.8260 C   0  0  0  0  0  0  0  0  0  0  0  0
  -24.8500  -13.0630   20.9950 C   0  0  0  0  0  0  0  0  0  0  0  0
  -25.3100  -11.7190   21.0540 C   0  0  0  0  0  0  0  0  0  0  0  0
  -27.0310  -12.9450   20.7380 N   0  0  0  0  0  0  0  0  0  0  0  0
  -26.6320  -11.6660   20.9490 N   0  0  0  0  0  0  0  0  0  0  0  0
  -24.5550  -10.4680   21.1540 C   0  0  0  0  0  0  0  0  0  0  0  0
  -24.8570   -9.4990   22.1360 C   0  0  0  0  0  3  0  0  0  0  0  0
  -24.0970   -8.3140   22.2250 C   0  0  0  0  0  3  0  0  0  0  0  0
  -23.0190   -8.0920   21.3340 C   0  0  0  0  0  0  0  0  0  0  0  0
  -22.7410   -9.0530   20.3430 C   0  0  0  0  0  3  0  0  0  0  0  0
  -23.5040  -10.2290   20.2520 C   0  0  0  0  0  3  0  0  0  0  0  0
  -22.2430   -6.9600   21.3300 O   0  0  0  0  0  0  0  0  0  0  0  0
  -22.0460   -6.2170   22.4680 C   0  0  0  0  0  0  0  0  0  0  0  0
  -21.4810   -6.7760   23.6350 C   0  0  0  0  0  3  0  0  0  0  0  0
  -21.2300   -5.9590   24.7550 C   0  0  0  0  0  3  0  0  0  0  0  0
  -21.5360   -4.5860   24.7110 C   0  0  0  0  0  0  0  0  0  0  0  0
  -22.0950   -4.0280   23.5460 C   0  0  0  0  0  3  0  0  0  0  0  0
  -22.3480   -4.8410   22.4290 C   0  0  0  0  0  0  0  0  0  0  0  0
  -22.8640   -4.2920   21.3020 F   0  0  0  0  0  0  0  0  0  0  0  0
  -21.2910   -3.7990   25.7830 F   0  0  0  0  0  0  0  0  0  0  0  0
  -23.4370  -13.5640   21.0180 C   0  0  0  0  0  0  0  0  0  0  0  0
  -22.5730  -12.9100   21.7830 N   0  0  0  0  0  0  0  0  0  0  0  0
  -23.0970  -14.5650   20.3850 O   0  0  0  0  0  0  0  0  0  0  0  0
  -22.8560  -12.1070   22.3180 H   0  0  0  0  0  0  0  0  0  0  0  0
  -21.6150  -13.2300   21.8410 H   0  0  0  0  0  0  0  0  0  0  0  0
  -26.1400  -15.1970   20.7440 N   0  0  0  0  0  0  0  0  0  0  0  0
  -25.3310  -15.7740   20.5540 H   0  0  0  0  0  0  0  0  0  0  0  0
  -26.9810  -15.6020   20.3530 H   0  0  0  0  0  0  0  0  0  0  0  0
  -28.3030  -17.3700   19.3010 C   0  0  0  0  0  3  0  0  0  0  0  0
  -27.5900  -17.3350   18.1550 C   0  0  0  0  0  3  0  0  0  0  0  0
  -27.4160  -16.0860   17.3070 C   0  0  0  0  0  1  0  0  0  0  0  0
  -26.2880  -19.3780   19.9640 N   0  0  0  0  0  0  0  0  0  0  0  0
  -25.6150  -19.8840   20.5250 H   0  0  0  0  0  0  0  0  0  0  0  0
  -26.0260  -18.4040   19.8620 H   0  0  0  0  0  0  0  0  0  0  0  0
  -28.8140  -23.7160   20.5490 C   0  0  0  0  0  3  0  0  0  0  0  0
  -29.5790  -22.7250   21.0310 N   0  0  0  0  0  0  0  0  0  0  0  0
  -28.7980  -25.3070   20.8950 C   0  0  0  0  0  2  0  0  0  0  0  0
  -28.4850  -26.3890   19.8700 O   0  0  0  0  0  0  0  0  0  0  0  0
  -24.6700  -31.7170   23.0660 C   0  0  0  0  0  0  0  0  0  0  0  0
  -27.3460  -27.2390   19.9290 C   0  0  0  0  0  0  0  0  0  0  0  0
  -23.4750  -30.3370   21.4000 C   0  0  0  0  0  3  0  0  0  0  0  0
  -24.9470  -28.8430   19.9190 C   0  0  0  0  0  0  0  0  0  0  0  0
  -26.0010  -30.7130   21.1920 C   0  0  0  0  0  2  0  0  0  0  0  0
  -26.1090  -29.3380   20.5270 C   0  0  0  0  0  0  0  0  0  0  0  0
  -27.3090  -28.5500   20.5160 C   0  0  0  0  0  3  0  0  0  0  0  0
  -26.1640  -26.8160   19.2760 C   0  0  0  0  0  3  0  0  0  0  0  0
  -24.9830  -27.5940   19.2730 C   0  0  0  0  0  3  0  0  0  0  0  0
  -23.6900  -29.6930   20.0010 C   0  0  0  0  0  2  0  0  0  0  0  0
  -24.7350  -30.9410   21.9430 N   0  0  0  0  0  0  0  0  0  0  0  0
  -23.5890  -31.9470   23.6300 O   0  0  0  0  0  0  0  0  0  0  0  0
  -22.8480  -29.2840   22.3430 C   0  0  0  0  0  0  0  0  0  0  0  0
  -21.5180  -29.1040   22.2510 N   0  0  0  0  0  0  0  0  0  0  0  0
  -23.5480  -28.6320   23.1190 O   0  0  0  0  0  0  0  0  0  0  0  0
  -21.0070  -29.6900   21.6060 H   0  0  0  0  0  0  0  0  0  0  0  0
  -18.1660  -27.8430   22.8080 C   0  0  0  0  0  0  0  0  0  0  0  0
  -20.7270  -28.1220   23.0030 C   0  0  0  0  0  3  0  0  0  0  0  0
  -20.8170  -26.7200   22.3600 C   0  0  0  0  0  2  0  0  0  0  0  0
  -19.6870  -26.4220   21.3700 C   0  0  0  0  0  2  0  0  0  0  0  0
  -18.3330  -26.5280   22.0650 C   0  0  0  0  0  2  0  0  0  0  0  0
  -19.2910  -28.5970   23.2350 C   0  0  0  0  0  0  0  0  0  0  0  0
  -19.0750  -29.8270   23.8970 C   0  0  0  0  0  3  0  0  0  0  0  0
  -17.7700  -30.2980   24.1440 C   0  0  0  0  0  3  0  0  0  0  0  0
  -16.6630  -29.5360   23.7300 C   0  0  0  0  0  3  0  0  0  0  0  0
  -16.8630  -28.3160   23.0590 C   0  0  0  0  0  3  0  0  0  0  0  0
  -25.9450  -32.3610   23.6900 C   0  0  0  0  0  3  0  0  0  0  0  0
  -26.5040  -31.5670   24.9360 C   0  0  1  0  0  0  0  0  0  0  0  0
  -25.4450  -31.2740   26.0240 C   0  0  0  0  0  1  0  0  0  0  0  0
  -27.0940  -30.2110   24.4940 C   0  0  0  0  0  1  0  0  0  0  0  0
  -27.6620  -32.3590   25.5890 C   0  0  0  0  0  1  0  0  0  0  0  0
  -25.6110  -33.7440   24.0710 N   0  0  0  0  0  0  0  0  0  0  0  0
  -25.9390  -34.8290   23.3590 C   0  0  0  0  0  0  0  0  0  0  0  0
  -26.6200  -34.7760   22.3310 O   0  0  0  0  0  0  0  0  0  0  0  0
  -25.0150  -33.8580   24.8790 H   0  0  0  0  0  0  0  0  0  0  0  0
  -24.1900  -36.6070   23.0560 C   0  0  0  0  0  1  0  0  0  0  0  0
  -25.4320  -36.1950   23.8630 C   0  0  0  0  0  3  0  0  0  0  0  0
  -27.5480  -37.0730   24.7480 C   0  0  0  0  0  1  0  0  0  0  0  0
  -26.4550  -37.2640   23.7970 N   0  0  0  0  0  0  0  0  0  0  0  0
  -26.0400  -38.1750   23.9720 H   0  0  0  0  0  0  0  0  0  0  0  0
  2  5  2  0
  3 15  1  0
  3  1  2  0
  4  6  2  0
  4  3  1  0
  5  1  1  0
  5 54  1  0
  6  2  1  0
  7 13  1  0
  8 13  1  0
  9 10  1  0
  9  8  1  0
 11 10  1  0
 11 22  1  0
 11 12  1  0
 13 12  1  0
 14  7  2  0
 15 16  1  0
 16  7  1  0
 16 18  1  0
 17 15  2  0
 19 20  2  0
 20 39  1  0
 20 21  1  0
 21 24  1  0
 22 19  1  0
 22 23  1  0
 23 21  2  0
 24 25  1  0
 25 26  2  0
 27 26  1  0
 28 27  2  0
 29 28  1  0
 29 24  2  0
 30 27  1  0
 30 31  1  0
 31 32  1  0
 32 33  2  0
 34 33  1  0
 34 38  1  0
 35 34  2  0
 36 31  2  0
 36 35  1  0
 37 36  1  0
 39 40  1  0
 40 43  1  0
 40 42  1  0
 41 39  2  0
 44 19  1  0
 45 44  1  0
 46 44  1  0
 47  4  1  0
 48 47  2  0
 49 48  1  0
 50  6  1  0
 50 51  1  0
 52 50  1  0
 53 55  1  0
 53 54  2  0
 56 58  1  0
 56 55  1  0
 57 68  2  0
 58 63  1  0
 59 67  1  0
 59 69  1  0
 60 66  1  0
 60 62  1  0
 61 67  1  0
 62 61  1  0
 63 62  2  0
 64 58  2  0
 65 64  1  0
 65 60  2  0
 66 59  1  0
 67 57  1  0
 69 71  2  0
 70 69  1  0
 72 70  1  0
 73 82  2  0
 73 78  1  0
 74 70  1  0
 74 78  1  0
 75 74  1  0
 76 77  1  0
 76 75  1  0
 77 73  1  0
 78 79  2  0
 79 80  1  0
 81 80  2  0
 82 81  1  0
 83 57  1  0
 83 88  1  0
 83 84  1  0
 84 87  1  1
 84 85  1  0
 86 84  1  0
 88 91  1  0
 89 93  1  0
 89 88  1  0
 90 89  2  0
 93 92  1  0
 95 93  1  0
 95 96  1  0
 95 94  1  0
M  ISO  4   7 100  16 100  55 101  56 101
M  END
>  <TORSDO>  (20) 
F 20

>  <SCORE>  (20) 
-6.981

>  <name>  (20) 
19

>  <ligand_id>  (20) 
19

>  <original_smiles>  (20) 
[H]C(=Nc1c([H])c(C(=O)N([H])C(=O)N2C([H])([H])C([H])([H])C([H])([H])C([H])(n3nc(-c4c([H])c([H])c(Oc5c([H])c([H])c(F)c([H])c5F)c([H])c4[H])c(C(=O)N([H])[H])c3N([H])[H])C2([H])[H])c(C([H])=C([H])C([H])([H])[H])c(N([H])[H])c1[H])C([H])([H])Oc1c([H])c([H])c2c(c1[H])C([H])([H])N(C(=O)C([H])(N([H])C(=O)C([H])(N([H])C([H])([H])[H])C([H])([H])[H])C(C([H])([H])[H])(C([H])([H])[H])C([H])([H])[H])C([H])(C(=O)N([H])C1([H])c3c([H])c([H])c([H])c([H])c3C([H])([H])C([H])([H])C1([H])[H])C2([H])[H]

>  <smiles>  (20) 
[H]C(=Nc1c([H])c(C(=O)N([H])C(=O)N2C([H])([H])C([H])([H])C([H])([H])C([H])(n3nc(-c4c([H])c([H])c(Oc5c([H])c([H])c(F)c([H])c5F)c([H])c4[H])c(C(=O)N([H])[H])c3N([H])[H])C2([H])[H])c(C([H])=C([H])C([H])([H])[H])c(N([H])[H])c1[H])C([H])([H])Oc1c([H])c([H])c2c(c1[H])C([H])([H])N(C(=O)C([H])(N([H])C(=O)C([H])(N([H])C([H])([H])[H])C([H])([H])[H])C(C([H])([H])[H])(C([H])([H])[H])C([H])([H])[H])C([H])(C(=O)N([H])C1([H])c3c([H])c([H])c([H])c([H])c3C([H])([H])C([H])([H])C1([H])[H])C2([H])[H]

$$$$
20:0:0
     RDKit          3D

 92100  0  0  1  0  0  0  0  0999 V2000
  -29.8290  -18.6050   20.7210 C   0  0  0  0  0  3  0  0  0  0  0  0
  -29.4830  -19.5050   18.4900 C   0  0  0  0  0  3  0  0  0  0  0  0
  -30.0280  -17.1360   18.7950 C   0  0  0  0  0  3  0  0  0  0  0  0
  -29.5580  -19.7670   19.8820 C   0  0  0  0  0  0  0  0  0  0  0  0
  -30.0910  -17.2670   20.1960 C   0  0  0  0  0  0  0  0  0  0  0  0
  -29.6640  -18.2040   17.9440 C   0  0  0  0  0  0  0  0  0  0  0  0
  -30.9730  -14.8690   20.6620 C   0  0  0  0  0  0  0  0  0  0  0  0
  -30.7750  -12.5750   19.6820 C   0  0  0  0  0  2  0  0  0  0  0  0
  -29.9220  -12.6920   18.4020 C   0  0  0  0  0  2  0  0  0  0  0  0
  -28.4270  -12.5850   18.7410 C   0  0  0  0  0  2  0  0  0  0  0  0
  -28.0110  -13.4500   19.9580 C   0  0  0  0  0  3  0  0  0  0  0  0
  -29.0050  -13.3360   21.1370 C   0  0  0  0  0  2  0  0  0  0  0  0
  -30.3410  -13.6460   20.6150 N   0  0  0  0  0  0  0  0  0  0  0  0
  -32.1540  -14.9610   20.3170 O   0  0  0  0  0  0  0  0  0  0  0  0
  -30.2360  -16.0050   20.9710 N   0  0  0  0  0  0  0  0  0  0  0  0
  -29.4420  -15.8050   21.5610 H   0  0  0  0  0  0  0  0  0  0  0  0
  -25.5770  -14.0480   20.5080 C   0  0  0  0  0  0  0  0  0  0  0  0
  -24.4900  -13.2820   20.8240 C   0  0  0  0  0  0  0  0  0  0  0  0
  -24.9480  -11.9290   20.8510 C   0  0  0  0  0  0  0  0  0  0  0  0
  -26.6340  -13.1680   20.3620 N   0  0  0  0  0  0  0  0  0  0  0  0
  -26.2570  -11.8880   20.6280 N   0  0  0  0  0  0  0  0  0  0  0  0
  -24.2030  -10.6730   21.0230 C   0  0  0  0  0  0  0  0  0  0  0  0
  -24.5560   -9.7310   22.0150 C   0  0  0  0  0  3  0  0  0  0  0  0
  -23.8150   -8.5410   22.1730 C   0  0  0  0  0  3  0  0  0  0  0  0
  -22.6990   -8.2820   21.3390 C   0  0  0  0  0  0  0  0  0  0  0  0
  -22.3650   -9.2120   20.3360 C   0  0  0  0  0  3  0  0  0  0  0  0
  -23.1090  -10.3930   20.1800 C   0  0  0  0  0  3  0  0  0  0  0  0
  -21.9330   -7.1450   21.4070 O   0  0  0  0  0  0  0  0  0  0  0  0
  -21.7920   -6.4410   22.5770 C   0  0  0  0  0  0  0  0  0  0  0  0
  -21.2620   -7.0330   23.7430 C   0  0  0  0  0  3  0  0  0  0  0  0
  -21.0630   -6.2510   24.9000 C   0  0  0  0  0  3  0  0  0  0  0  0
  -21.3890   -4.8820   24.8900 C   0  0  0  0  0  0  0  0  0  0  0  0
  -21.9100   -4.2910   23.7280 C   0  0  0  0  0  3  0  0  0  0  0  0
  -22.1090   -5.0690   22.5730 C   0  0  0  0  0  0  0  0  0  0  0  0
  -22.5980   -4.4890   21.4500 F   0  0  0  0  0  0  0  0  0  0  0  0
  -21.1900   -4.1310   25.9990 F   0  0  0  0  0  0  0  0  0  0  0  0
  -23.0780  -13.7630   20.9880 C   0  0  0  0  0  0  0  0  0  0  0  0
  -22.3140  -13.1340   21.8740 N   0  0  0  0  0  0  0  0  0  0  0  0
  -22.6620  -14.7420   20.3630 O   0  0  0  0  0  0  0  0  0  0  0  0
  -22.6610  -12.3510   22.4070 H   0  0  0  0  0  0  0  0  0  0  0  0
  -21.3670  -13.4430   22.0310 H   0  0  0  0  0  0  0  0  0  0  0  0
  -25.7390  -15.4160   20.3010 N   0  0  0  0  0  0  0  0  0  0  0  0
  -24.9540  -16.0530   20.3660 H   0  0  0  0  0  0  0  0  0  0  0  0
  -26.5700  -15.8520   19.9240 H   0  0  0  0  0  0  0  0  0  0  0  0
  -29.3550  -21.2250   20.3770 C   0  0  0  0  0  3  0  0  0  0  0  0
  -29.5430  -22.4610   19.7670 C   0  0  0  0  0  3  0  0  0  0  0  0
  -29.3750  -23.9210   20.4000 C   0  0  0  0  0  3  0  0  0  0  0  0
  -28.6060  -25.1270   19.6380 C   0  0  0  0  0  3  0  0  0  0  0  0
  -28.6140  -26.5320   20.1950 O   0  0  0  0  0  0  0  0  0  0  0  0
  -24.6500  -31.8770   23.2400 C   0  0  0  0  0  0  0  0  0  0  0  0
  -27.4600  -27.3680   20.1660 C   0  0  0  0  0  0  0  0  0  0  0  0
  -23.5230  -30.4590   21.5720 C   0  0  0  0  0  3  0  0  0  0  0  0
  -25.0410  -28.9380   20.1770 C   0  0  0  0  0  0  0  0  0  0  0  0
  -26.0680  -30.8160   21.4600 C   0  0  0  0  0  2  0  0  0  0  0  0
  -26.1920  -29.4440   20.7930 C   0  0  0  0  0  0  0  0  0  0  0  0
  -27.4000  -28.6670   20.7850 C   0  0  0  0  0  3  0  0  0  0  0  0
  -26.2740  -26.9360   19.5290 C   0  0  0  0  0  3  0  0  0  0  0  0
  -25.0770  -27.6850   19.5530 C   0  0  0  0  0  3  0  0  0  0  0  0
  -23.7860  -29.7920   20.2000 C   0  0  0  0  0  2  0  0  0  0  0  0
  -24.7650  -31.0710   22.1470 N   0  0  0  0  0  0  0  0  0  0  0  0
  -23.5430  -32.1260   23.7480 O   0  0  0  0  0  0  0  0  0  0  0  0
  -22.8670  -29.4200   22.5120 C   0  0  0  0  0  0  0  0  0  0  0  0
  -21.5460  -29.2160   22.3630 N   0  0  0  0  0  0  0  0  0  0  0  0
  -23.5450  -28.7990   23.3320 O   0  0  0  0  0  0  0  0  0  0  0  0
  -21.0520  -29.7910   21.6950 H   0  0  0  0  0  0  0  0  0  0  0  0
  -18.1720  -27.9870   22.8760 C   0  0  0  0  0  0  0  0  0  0  0  0
  -20.7360  -28.2410   23.0950 C   0  0  0  0  0  3  0  0  0  0  0  0
  -20.8320  -26.8380   22.4460 C   0  0  0  0  0  2  0  0  0  0  0  0
  -19.6920  -26.5350   21.4700 C   0  0  0  0  0  2  0  0  0  0  0  0
  -18.3380  -26.6510   22.1700 C   0  0  0  0  0  2  0  0  0  0  0  0
  -19.3010  -28.7350   23.3050 C   0  0  0  0  0  0  0  0  0  0  0  0
  -19.0930  -29.9800   23.9410 C   0  0  0  0  0  3  0  0  0  0  0  0
  -17.7920  -30.4770   24.1450 C   0  0  0  0  0  3  0  0  0  0  0  0
  -16.6790  -29.7280   23.7240 C   0  0  0  0  0  3  0  0  0  0  0  0
  -16.8690  -28.4840   23.0970 C   0  0  0  0  0  3  0  0  0  0  0  0
  -25.8970  -32.5430   23.8960 C   0  0  0  0  0  3  0  0  0  0  0  0
  -25.5420  -33.9350   24.2000 N   0  0  0  0  0  0  0  0  0  0  0  0
  -25.8880  -34.9940   23.4550 C   0  0  0  0  0  0  0  0  0  0  0  0
  -26.6110  -34.9010   22.4580 O   0  0  0  0  0  0  0  0  0  0  0  0
  -24.9040  -34.0770   24.9690 H   0  0  0  0  0  0  0  0  0  0  0  0
  -24.1640  -36.7650   22.9900 C   0  0  0  0  0  1  0  0  0  0  0  0
  -25.3520  -36.3740   23.8860 C   0  0  0  0  0  3  0  0  0  0  0  0
  -27.4070  -37.2870   24.8680 C   0  0  0  0  0  1  0  0  0  0  0  0
  -26.3730  -37.4420   23.8480 N   0  0  0  0  0  0  0  0  0  0  0  0
  -25.9450  -38.3560   23.9650 H   0  0  0  0  0  0  0  0  0  0  0  0
  -26.3840  -31.7990   25.1990 C   0  0  1  0  0  0  0  0  0  0  0  0
  -25.2450  -31.4720   26.1920 C   0  0  0  0  0  1  0  0  0  0  0  0
  -27.0920  -30.4720   24.8420 C   0  0  0  0  0  1  0  0  0  0  0  0
  -27.4300  -32.6700   25.9320 C   0  0  0  0  0  1  0  0  0  0  0  0
  -29.5180  -17.8740   16.6040 O   0  0  0  0  0  0  0  0  0  0  0  0
  -27.7000  -19.0870   15.4560 C   0  0  0  0  0  1  0  0  0  0  0  0
  -29.2150  -18.8720   15.6230 C   0  0  0  0  0  2  0  0  0  0  0  0
  2  4  1  0
  3  5  2  0
  4 45  1  0
  4  1  2  0
  5  1  1  0
  5 15  1  0
  6  2  2  0
  6  3  1  0
  7 15  1  0
  8 13  1  0
  9 10  1  0
  9  8  1  0
 11 10  1  0
 11 20  1  0
 11 12  1  0
 13  7  1  0
 13 12  1  0
 14  7  2  0
 15 16  1  0
 17 18  2  0
 18 19  1  0
 18 37  1  0
 19 22  1  0
 20 17  1  0
 20 21  1  0
 21 19  2  0
 22 23  1  0
 23 24  2  0
 25 28  1  0
 25 24  1  0
 26 25  2  0
 27 26  1  0
 27 22  2  0
 28 29  1  0
 29 30  1  0
 30 31  2  0
 32 31  1  0
 32 36  1  0
 33 32  2  0
 34 29  2  0
 34 33  1  0
 35 34  1  0
 37 38  1  0
 38 41  1  0
 38 40  1  0
 39 37  2  0
 42 43  1  0
 42 17  1  0
 44 42  1  0
 46 45  2  0
 46 47  1  0
 48 49  1  0
 48 47  2  0
 50 61  2  0
 51 49  1  0
 51 56  1  0
 52 60  1  0
 52 62  1  0
 53 59  1  0
 53 55  1  0
 54 60  1  0
 55 54  1  0
 56 55  2  0
 57 58  1  0
 57 51  2  0
 58 53  2  0
 59 52  1  0
 60 50  1  0
 62 64  2  0
 63 62  1  0
 65 63  1  0
 66 75  2  0
 66 71  1  0
 67 63  1  0
 67 71  1  0
 68 67  1  0
 69 70  1  0
 69 68  1  0
 70 66  1  0
 71 72  2  0
 72 73  1  0
 74 73  2  0
 75 74  1  0
 76 50  1  0
 76 77  1  0
 76 86  1  0
 77 80  1  0
 78 82  1  0
 78 77  1  0
 79 78  2  0
 82 81  1  0
 84 82  1  0
 84 85  1  0
 84 83  1  0
 86 89  1  1
 86 87  1  0
 88 86  1  0
 90  6  1  0
 91 92  1  0
 92 90  1  0
M  ISO  4   7 100  15 100  48 101  49 101
M  END
>  <TORSDO>  (21) 
F 21

>  <SCORE>  (21) 
-12.820

>  <name>  (21) 
20

>  <ligand_id>  (21) 
20

>  <original_smiles>  (21) 
[H]C(=C([H])C([H])([H])C([H])([H])Oc1c([H])c([H])c2c(c1[H])C([H])([H])N(C(=O)C([H])(N([H])C(=O)C([H])(N([H])C([H])([H])[H])C([H])([H])[H])C(C([H])([H])[H])(C([H])([H])[H])C([H])([H])[H])C([H])(C(=O)N([H])C1([H])c3c([H])c([H])c([H])c([H])c3C([H])([H])C([H])([H])C1([H])[H])C2([H])[H])c1c([H])c(OC([H])([H])C([H])([H])[H])c([H])c(N([H])C(=O)N2C([H])([H])C([H])([H])C([H])([H])C([H])(n3nc(-c4c([H])c([H])c(Oc5c([H])c([H])c(F)c([H])c5F)c([H])c4[H])c(C(=O)N([H])[H])c3N([H])[H])C2([H])[H])c1[H]

>  <smiles>  (21) 
[H]C(=C([H])C([H])([H])C([H])([H])Oc1c([H])c([H])c2c(c1[H])C([H])([H])N(C(=O)C([H])(N([H])C(=O)C([H])(N([H])C([H])([H])[H])C([H])([H])[H])C(C([H])([H])[H])(C([H])([H])[H])C([H])([H])[H])C([H])(C(=O)N([H])C1([H])c3c([H])c([H])c([H])c([H])c3C([H])([H])C([H])([H])C1([H])[H])C2([H])[H])c1c([H])c(OC([H])([H])C([H])([H])[H])c([H])c(N([H])C(=O)N2C([H])([H])C([H])([H])C([H])([H])C([H])(n3nc(-c4c([H])c([H])c(Oc5c([H])c([H])c(F)c([H])c5F)c([H])c4[H])c(C(=O)N([H])[H])c3N([H])[H])C2([H])[H])c1[H]

$$$$
21:0:0
     RDKit          3D

 94102  0  0  1  0  0  0  0  0999 V2000
  -29.1420  -22.9500   20.2080 C   0  0  0  0  0  0  0  0  0  0  0  0
  -29.1490  -21.6500   19.6930 N   0  0  0  0  0  0  0  0  0  0  0  0
  -29.5300  -23.1980   21.3520 O   0  0  0  0  0  0  0  0  0  0  0  0
  -28.7230  -21.6670   18.7730 H   0  0  0  0  0  0  0  0  0  0  0  0
  -30.6160  -19.9840   20.9500 C   0  0  0  0  0  3  0  0  0  0  0  0
  -30.8190  -18.5450   21.1400 C   0  0  0  0  0  0  0  0  0  0  0  0
  -29.9720  -17.7210   20.4090 C   0  0  0  0  0  0  0  0  0  0  0  0
  -29.5940  -20.3740   20.1050 C   0  0  0  0  0  0  0  0  0  0  0  0
  -31.8270  -18.0410   22.1340 C   0  0  0  0  0  1  0  0  0  0  0  0
  -28.9240  -18.8370   19.4660 S   0  0  0  0  0  0  0  0  0  0  0  0
  -29.5970  -16.2280   20.5650 C   0  0  0  0  0  0  0  0  0  0  0  0
  -28.4810  -16.0780   21.1390 N   0  0  0  0  0  0  0  0  0  0  0  0
  -28.0970  -16.9780   21.3980 H   0  0  0  0  0  0  0  0  0  0  0  0
  -30.4750  -14.9290   20.0790 C   0  0  0  0  0  0  0  0  0  0  0  0
  -30.3140  -12.6440   19.0240 C   0  0  0  0  0  2  0  0  0  0  0  0
  -29.2940  -12.7020   17.8590 C   0  0  0  0  0  2  0  0  0  0  0  0
  -27.8500  -12.4850   18.3560 C   0  0  0  0  0  2  0  0  0  0  0  0
  -27.5390  -13.3260   19.6210 C   0  0  0  0  0  3  0  0  0  0  0  0
  -28.6640  -13.1690   20.6680 C   0  0  0  0  0  2  0  0  0  0  0  0
  -29.9070  -13.6540   20.0400 N   0  0  0  0  0  0  0  0  0  0  0  0
  -31.6180  -15.0770   19.6280 O   0  0  0  0  0  0  0  0  0  0  0  0
  -25.1920  -13.9000   20.4790 C   0  0  0  0  0  0  0  0  0  0  0  0
  -24.1450  -13.1140   20.8760 C   0  0  0  0  0  0  0  0  0  0  0  0
  -24.6070  -11.7650   20.7870 C   0  0  0  0  0  0  0  0  0  0  0  0
  -26.2230  -13.0260   20.1710 N   0  0  0  0  0  0  0  0  0  0  0  0
  -25.8790  -11.7350   20.4100 N   0  0  0  0  0  0  0  0  0  0  0  0
  -23.8950  -10.4960   20.9870 C   0  0  0  0  0  0  0  0  0  0  0  0
  -24.3580   -9.5250   21.9030 C   0  0  0  0  0  3  0  0  0  0  0  0
  -23.6450   -8.3220   22.0920 C   0  0  0  0  0  3  0  0  0  0  0  0
  -22.4530   -8.0830   21.3670 C   0  0  0  0  0  0  0  0  0  0  0  0
  -22.0080   -9.0430   20.4420 C   0  0  0  0  0  3  0  0  0  0  0  0
  -22.7240  -10.2370   20.2500 C   0  0  0  0  0  3  0  0  0  0  0  0
  -21.7080   -6.9330   21.4650 O   0  0  0  0  0  0  0  0  0  0  0  0
  -21.6700   -6.1980   22.6220 C   0  0  0  0  0  0  0  0  0  0  0  0
  -21.2170   -6.7480   23.8410 C   0  0  0  0  0  3  0  0  0  0  0  0
  -21.1270   -5.9360   24.9890 C   0  0  0  0  0  3  0  0  0  0  0  0
  -21.4840   -4.5750   24.9190 C   0  0  0  0  0  0  0  0  0  0  0  0
  -21.9320   -4.0250   23.7060 C   0  0  0  0  0  3  0  0  0  0  0  0
  -22.0220   -4.8340   22.5590 C   0  0  0  0  0  0  0  0  0  0  0  0
  -22.4330   -4.2950   21.3860 F   0  0  0  0  0  0  0  0  0  0  0  0
  -21.3910   -3.7920   26.0200 F   0  0  0  0  0  0  0  0  0  0  0  0
  -22.7650  -13.5810   21.2400 C   0  0  0  0  0  0  0  0  0  0  0  0
  -22.0860  -12.8550   22.1220 N   0  0  0  0  0  0  0  0  0  0  0  0
  -22.2990  -14.6220   20.7780 O   0  0  0  0  0  0  0  0  0  0  0  0
  -22.4760  -12.0100   22.5130 H   0  0  0  0  0  0  0  0  0  0  0  0
  -21.1610  -13.1440   22.4080 H   0  0  0  0  0  0  0  0  0  0  0  0
  -25.3520  -15.2750   20.3390 N   0  0  0  0  0  0  0  0  0  0  0  0
  -24.6290  -15.9350   20.6040 H   0  0  0  0  0  0  0  0  0  0  0  0
  -26.2670  -15.7030   20.2360 H   0  0  0  0  0  0  0  0  0  0  0  0
  -28.3110  -25.3540   19.2850 C   0  0  0  0  0  3  0  0  0  0  0  0
  -28.6350  -23.9860   19.2220 C   0  0  0  0  0  0  0  0  0  0  0  0
  -28.4560  -23.4790   17.9870 O   0  0  0  0  0  0  0  0  0  0  0  0
  -28.1340  -24.1790   17.4350 H   0  0  0  0  0  0  0  0  0  0  0  0
  -28.2480  -26.4120   20.2350 O   0  0  0  0  0  0  0  0  0  0  0  0
  -24.5870  -31.9600   23.2530 C   0  0  0  0  0  0  0  0  0  0  0  0
  -27.1710  -27.3470   20.1680 C   0  0  0  0  0  0  0  0  0  0  0  0
  -23.3720  -30.5710   21.6150 C   0  0  0  0  0  3  0  0  0  0  0  0
  -24.8160  -29.0200   20.1750 C   0  0  0  0  0  0  0  0  0  0  0  0
  -25.9190  -30.8670   21.4280 C   0  0  0  0  0  2  0  0  0  0  0  0
  -25.9950  -29.4860   20.7700 C   0  0  0  0  0  0  0  0  0  0  0  0
  -27.1740  -28.6610   20.7590 C   0  0  0  0  0  3  0  0  0  0  0  0
  -25.9510  -26.9530   19.5630 C   0  0  0  0  0  3  0  0  0  0  0  0
  -24.7980  -27.7610   19.5600 C   0  0  0  0  0  3  0  0  0  0  0  0
  -23.5840  -29.9040   20.2310 C   0  0  0  0  0  2  0  0  0  0  0  0
  -24.6450  -31.1490   22.1550 N   0  0  0  0  0  0  0  0  0  0  0  0
  -23.5060  -32.2420   23.7920 O   0  0  0  0  0  0  0  0  0  0  0  0
  -22.7080  -29.5530   22.5740 C   0  0  0  0  0  0  0  0  0  0  0  0
  -21.3810  -29.3750   22.4480 N   0  0  0  0  0  0  0  0  0  0  0  0
  -23.3850  -28.9290   23.3930 O   0  0  0  0  0  0  0  0  0  0  0  0
  -20.8910  -29.9300   21.7630 H   0  0  0  0  0  0  0  0  0  0  0  0
  -18.0030  -28.1750   22.9540 C   0  0  0  0  0  0  0  0  0  0  0  0
  -20.5630  -28.4360   23.2190 C   0  0  0  0  0  3  0  0  0  0  0  0
  -20.6630  -27.0050   22.6430 C   0  0  0  0  0  2  0  0  0  0  0  0
  -19.5600  -26.6820   21.6290 C   0  0  0  0  0  2  0  0  0  0  0  0
  -18.1790  -26.8270   22.2780 C   0  0  0  0  0  2  0  0  0  0  0  0
  -19.1230  -28.9370   23.3810 C   0  0  0  0  0  0  0  0  0  0  0  0
  -18.9030  -30.1990   23.9750 C   0  0  0  0  0  3  0  0  0  0  0  0
  -17.5990  -30.6990   24.1460 C   0  0  0  0  0  3  0  0  0  0  0  0
  -16.4950  -29.9340   23.7350 C   0  0  0  0  0  3  0  0  0  0  0  0
  -16.6970  -28.6730   23.1440 C   0  0  0  0  0  3  0  0  0  0  0  0
  -25.8730  -32.5900   23.8710 C   0  0  0  0  0  3  0  0  0  0  0  0
  -26.3840  -31.8240   25.1530 C   0  0  1  0  0  0  0  0  0  0  0  0
  -25.2880  -31.5990   26.2220 C   0  0  0  0  0  1  0  0  0  0  0  0
  -26.9610  -30.4410   24.7740 C   0  0  0  0  0  1  0  0  0  0  0  0
  -27.5380  -32.6160   25.8130 C   0  0  0  0  0  1  0  0  0  0  0  0
  -25.5740  -33.9920   24.1940 N   0  0  0  0  0  0  0  0  0  0  0  0
  -25.9030  -35.0370   23.4230 C   0  0  0  0  0  0  0  0  0  0  0  0
  -26.5620  -34.9220   22.3860 O   0  0  0  0  0  0  0  0  0  0  0  0
  -24.9970  -34.1580   25.0060 H   0  0  0  0  0  0  0  0  0  0  0  0
  -24.1820  -36.8350   23.0630 C   0  0  0  0  0  1  0  0  0  0  0  0
  -25.4260  -36.4330   23.8740 C   0  0  0  0  0  3  0  0  0  0  0  0
  -27.5690  -37.3090   24.6890 C   0  0  0  0  0  1  0  0  0  0  0  0
  -26.4630  -37.4810   23.7520 N   0  0  0  0  0  0  0  0  0  0  0  0
  -26.0600  -38.4020   23.9070 H   0  0  0  0  0  0  0  0  0  0  0  0
  1  3  2  0
  2  8  1  0
  2  1  1  0
  4  2  1  0
  5  6  1  0
  6  9  1  0
  7 11  1  0
  7  6  2  0
  8  5  2  0
 10  8  1  0
 10  7  1  0
 11 12  2  0
 12 13  1  0
 14 11  1  0
 15 20  1  0
 16 17  1  0
 16 15  1  0
 18 17  1  0
 18 25  1  0
 18 19  1  0
 20 14  1  0
 20 19  1  0
 21 14  2  0
 22 23  2  0
 23 42  1  0
 24 23  1  0
 24 27  1  0
 25 26  1  0
 25 22  1  0
 26 24  2  0
 27 28  1  0
 28 29  2  0
 30 33  1  0
 30 29  1  0
 31 30  2  0
 32 31  1  0
 32 27  2  0
 33 34  1  0
 34 35  1  0
 35 36  2  0
 37 36  1  0
 37 41  1  0
 38 37  2  0
 39 34  2  0
 39 38  1  0
 40 39  1  0
 42 43  1  0
 43 46  1  0
 43 45  1  0
 44 42  2  0
 47 22  1  0
 47 48  1  0
 49 47  1  0
 50 54  1  0
 51 50  2  0
 51  1  1  0
 52 51  1  0
 53 52  1  0
 55 66  2  0
 56 54  1  0
 56 61  1  0
 57 65  1  0
 57 67  1  0
 58 64  1  0
 58 60  1  0
 59 65  1  0
 60 59  1  0
 61 60  2  0
 62 56  2  0
 63 62  1  0
 63 58  2  0
 64 57  1  0
 65 55  1  0
 67 69  2  0
 68 67  1  0
 70 68  1  0
 71 80  2  0
 71 76  1  0
 72 68  1  0
 72 76  1  0
 73 72  1  0
 74 75  1  0
 74 73  1  0
 75 71  1  0
 76 77  2  0
 77 78  1  0
 79 78  2  0
 80 79  1  0
 81 55  1  0
 81 86  1  0
 81 82  1  0
 82 85  1  1
 82 83  1  0
 84 82  1  0
 86 89  1  0
 87 91  1  0
 87 86  1  0
 88 87  2  0
 91 90  1  0
 93 91  1  0
 93 94  1  0
 93 92  1  0
M  ISO  4  11 100  14 100  50 101  54 101
M  END
>  <TORSDO>  (22) 
F 20

>  <SCORE>  (22) 
-13.693

>  <name>  (22) 
21

>  <ligand_id>  (22) 
21

>  <original_smiles>  (22) 
[H]N=C(C(=O)N1C([H])([H])C([H])([H])C([H])([H])C([H])(n2nc(-c3c([H])c([H])c(Oc4c([H])c([H])c(F)c([H])c4F)c([H])c3[H])c(C(=O)N([H])[H])c2N([H])[H])C1([H])[H])c1sc(N([H])C(=O)C(O[H])=C([H])Oc2c([H])c([H])c3c(c2[H])C([H])([H])N(C(=O)C([H])(N([H])C(=O)C([H])(N([H])C([H])([H])[H])C([H])([H])[H])C(C([H])([H])[H])(C([H])([H])[H])C([H])([H])[H])C([H])(C(=O)N([H])C2([H])c4c([H])c([H])c([H])c([H])c4C([H])([H])C([H])([H])C2([H])[H])C3([H])[H])c([H])c1C([H])([H])[H]

>  <smiles>  (22) 
[H]N=C(C(=O)N1C([H])([H])C([H])([H])C([H])([H])C([H])(n2nc(-c3c([H])c([H])c(Oc4c([H])c([H])c(F)c([H])c4F)c([H])c3[H])c(C(=O)N([H])[H])c2N([H])[H])C1([H])[H])c1sc(N([H])C(=O)C(O[H])=C([H])Oc2c([H])c([H])c3c(c2[H])C([H])([H])N(C(=O)C([H])(N([H])C(=O)C([H])(N([H])C([H])([H])[H])C([H])([H])[H])C(C([H])([H])[H])(C([H])([H])[H])C([H])([H])[H])C([H])(C(=O)N([H])C2([H])c4c([H])c([H])c([H])c([H])c4C([H])([H])C([H])([H])C2([H])[H])C3([H])[H])c([H])c1C([H])([H])[H]

$$$$
22:0:0
     RDKit          3D

 93101  0  0  1  0  0  0  0  0999 V2000
  -27.7230  -17.7290   20.4740 C   0  0  0  0  0  3  0  0  0  0  0  0
  -27.6010  -20.0650   19.8460 C   0  0  0  0  0  3  0  0  0  0  0  0
  -29.7580  -19.0130   20.2750 C   0  0  0  0  0  3  0  0  0  0  0  0
  -26.9670  -18.8300   20.0400 C   0  0  0  0  0  0  0  0  0  0  0  0
  -29.1220  -17.7400   20.4930 C   0  0  0  0  0  0  0  0  0  0  0  0
  -29.0000  -20.2110   20.0230 C   0  0  0  0  0  0  0  0  0  0  0  0
  -25.5220  -18.6920   19.8120 C   0  0  0  0  0  3  0  0  0  0  0  0
  -25.0250  -18.0550   18.7370 C   0  0  0  0  0  3  0  0  0  0  0  0
  -23.5560  -17.8650   18.4330 C   0  0  0  0  0  1  0  0  0  0  0  0
  -29.7650  -16.3680   20.6800 C   0  0  0  0  0  3  0  0  0  0  0  0
  -30.5210  -15.8010   19.8110 N   0  0  0  0  0  0  0  0  0  0  0  0
  -31.1050  -14.5170   19.8970 C   0  0  0  0  0  0  0  0  0  0  0  0
  -30.6370  -12.3100   18.9170 C   0  0  0  0  0  2  0  0  0  0  0  0
  -29.6460  -12.4930   17.7510 C   0  0  0  0  0  2  0  0  0  0  0  0
  -28.1960  -12.3800   18.2560 C   0  0  0  0  0  2  0  0  0  0  0  0
  -27.9380  -13.2420   19.5210 C   0  0  0  0  0  3  0  0  0  0  0  0
  -29.0640  -13.0950   20.5620 C   0  0  0  0  0  2  0  0  0  0  0  0
  -30.3480  -13.3690   19.9100 N   0  0  0  0  0  0  0  0  0  0  0  0
  -32.2840  -14.4470   19.5660 O   0  0  0  0  0  0  0  0  0  0  0  0
  -25.6190  -13.8730   20.4170 C   0  0  0  0  0  0  0  0  0  0  0  0
  -24.5660  -13.1420   20.8760 C   0  0  0  0  0  0  0  0  0  0  0  0
  -24.9740  -11.7770   20.7710 C   0  0  0  0  0  0  0  0  0  0  0  0
  -26.6230  -12.9760   20.0960 N   0  0  0  0  0  0  0  0  0  0  0  0
  -26.2370  -11.7040   20.3630 N   0  0  0  0  0  0  0  0  0  0  0  0
  -24.2140  -10.5380   20.9560 C   0  0  0  0  0  0  0  0  0  0  0  0
  -24.6330   -9.5380   21.8610 C   0  0  0  0  0  3  0  0  0  0  0  0
  -23.8660   -8.3670   22.0440 C   0  0  0  0  0  3  0  0  0  0  0  0
  -22.6610   -8.1900   21.3240 C   0  0  0  0  0  0  0  0  0  0  0  0
  -22.2620   -9.1750   20.4040 C   0  0  0  0  0  3  0  0  0  0  0  0
  -23.0300  -10.3350   20.2190 C   0  0  0  0  0  3  0  0  0  0  0  0
  -21.8710   -7.0710   21.4170 O   0  0  0  0  0  0  0  0  0  0  0  0
  -21.7750   -6.3520   22.5800 C   0  0  0  0  0  0  0  0  0  0  0  0
  -21.2910   -6.9330   23.7750 C   0  0  0  0  0  3  0  0  0  0  0  0
  -21.1500   -6.1450   24.9350 C   0  0  0  0  0  3  0  0  0  0  0  0
  -21.4790   -4.7770   24.8980 C   0  0  0  0  0  0  0  0  0  0  0  0
  -21.9560   -4.1940   23.7130 C   0  0  0  0  0  3  0  0  0  0  0  0
  -22.0970   -4.9810   22.5550 C   0  0  0  0  0  0  0  0  0  0  0  0
  -22.5380   -4.4110   21.4060 F   0  0  0  0  0  0  0  0  0  0  0  0
  -21.3320   -4.0180   26.0110 F   0  0  0  0  0  0  0  0  0  0  0  0
  -23.2150  -13.6750   21.2590 C   0  0  0  0  0  0  0  0  0  0  0  0
  -22.5180  -13.0070   22.1680 N   0  0  0  0  0  0  0  0  0  0  0  0
  -22.7880  -14.7310   20.7940 O   0  0  0  0  0  0  0  0  0  0  0  0
  -22.8690  -12.1620   22.5850 H   0  0  0  0  0  0  0  0  0  0  0  0
  -21.6180  -13.3610   22.4580 H   0  0  0  0  0  0  0  0  0  0  0  0
  -25.7870  -15.2290   20.2130 N   0  0  0  0  0  0  0  0  0  0  0  0
  -24.9890  -15.8500   20.2710 H   0  0  0  0  0  0  0  0  0  0  0  0
  -26.5420  -15.6070   19.6540 H   0  0  0  0  0  0  0  0  0  0  0  0
  -29.5930  -21.4760   19.9030 O   0  0  0  0  0  0  0  0  0  0  0  0
  -28.8170  -22.6380   20.3500 C   0  0  0  0  0  2  0  0  0  0  0  0
  -29.3970  -24.0460   20.0040 C   0  0  0  0  0  0  0  0  0  0  0  0
  -30.1720  -24.2180   19.0560 O   0  0  0  0  0  0  0  0  0  0  0  0
  -28.8880  -25.2270   20.8920 C   0  0  0  0  0  2  0  0  0  0  0  0
  -29.0090  -26.5690   20.3360 O   0  0  0  0  0  0  0  0  0  0  0  0
  -24.7820  -31.6320   23.2220 C   0  0  0  0  0  0  0  0  0  0  0  0
  -27.8280  -27.3020   20.2970 C   0  0  0  0  0  0  0  0  0  0  0  0
  -23.7610  -30.1980   21.4860 C   0  0  0  0  0  3  0  0  0  0  0  0
  -25.3770  -28.7360   20.1590 C   0  0  0  0  0  0  0  0  0  0  0  0
  -26.2810  -30.6540   21.4830 C   0  0  0  0  0  2  0  0  0  0  0  0
  -26.4750  -29.2940   20.8290 C   0  0  0  0  0  0  0  0  0  0  0  0
  -27.7050  -28.5900   20.8870 C   0  0  0  0  0  3  0  0  0  0  0  0
  -26.7110  -26.7720   19.6130 C   0  0  0  0  0  3  0  0  0  0  0  0
  -25.4950  -27.4770   19.5470 C   0  0  0  0  0  3  0  0  0  0  0  0
  -24.1030  -29.5490   20.1170 C   0  0  0  0  0  2  0  0  0  0  0  0
  -24.9560  -30.8430   22.1220 N   0  0  0  0  0  0  0  0  0  0  0  0
  -23.6540  -31.8470   23.6880 O   0  0  0  0  0  0  0  0  0  0  0  0
  -23.0810  -29.1410   22.3860 C   0  0  0  0  0  0  0  0  0  0  0  0
  -21.7640  -28.9530   22.2040 N   0  0  0  0  0  0  0  0  0  0  0  0
  -23.7390  -28.4960   23.2060 O   0  0  0  0  0  0  0  0  0  0  0  0
  -21.2910  -29.5250   21.5200 H   0  0  0  0  0  0  0  0  0  0  0  0
  -18.3720  -27.7680   22.6090 C   0  0  0  0  0  0  0  0  0  0  0  0
  -20.9300  -27.9780   22.9150 C   0  0  0  0  0  3  0  0  0  0  0  0
  -21.0210  -26.5810   22.2610 C   0  0  0  0  0  2  0  0  0  0  0  0
  -19.9240  -26.3310   21.2210 C   0  0  0  0  0  2  0  0  0  0  0  0
  -18.5390  -26.4560   21.8610 C   0  0  0  0  0  2  0  0  0  0  0  0
  -19.4950  -28.4900   23.0910 C   0  0  0  0  0  0  0  0  0  0  0  0
  -19.2850  -29.7210   23.7490 C   0  0  0  0  0  3  0  0  0  0  0  0
  -17.9830  -30.2280   23.9310 C   0  0  0  0  0  3  0  0  0  0  0  0
  -16.8740  -29.5000   23.4670 C   0  0  0  0  0  3  0  0  0  0  0  0
  -17.0690  -28.2700   22.8120 C   0  0  0  0  0  3  0  0  0  0  0  0
  -25.9870  -32.3140   23.9370 C   0  0  0  0  0  3  0  0  0  0  0  0
  -25.6050  -33.7020   24.2270 N   0  0  0  0  0  0  0  0  0  0  0  0
  -25.9450  -34.7570   23.4750 C   0  0  0  0  0  0  0  0  0  0  0  0
  -26.6810  -34.6660   22.4890 O   0  0  0  0  0  0  0  0  0  0  0  0
  -24.9520  -33.8420   24.9840 H   0  0  0  0  0  0  0  0  0  0  0  0
  -24.1640  -36.4660   22.9930 C   0  0  0  0  0  1  0  0  0  0  0  0
  -25.3760  -36.1290   23.8760 C   0  0  0  0  0  3  0  0  0  0  0  0
  -27.4180  -37.1270   24.8090 C   0  0  0  0  0  1  0  0  0  0  0  0
  -26.3690  -37.2230   23.7980 N   0  0  0  0  0  0  0  0  0  0  0  0
  -25.9190  -38.1290   23.8940 H   0  0  0  0  0  0  0  0  0  0  0  0
  -26.4270  -31.5720   25.2600 C   0  0  1  0  0  0  0  0  0  0  0  0
  -25.2590  -31.3080   26.2420 C   0  0  0  0  0  1  0  0  0  0  0  0
  -27.0790  -30.2070   24.9350 C   0  0  0  0  0  1  0  0  0  0  0  0
  -27.4980  -32.4070   26.0010 C   0  0  0  0  0  1  0  0  0  0  0  0
  1  5  1  0
  2  6  2  0
  2  4  1  0
  3  5  2  0
  4  1  2  0
  5 10  1  0
  6  3  1  0
  7  4  1  0
  8  7  2  0
  9  8  1  0
 11 12  1  0
 11 10  2  0
 12 18  1  0
 13 18  1  0
 14 15  1  0
 14 13  1  0
 16 15  1  0
 16 23  1  0
 16 17  1  0
 18 17  1  0
 19 12  2  0
 20 21  2  0
 21 40  1  0
 22 21  1  0
 22 25  1  0
 23 24  1  0
 23 20  1  0
 24 22  2  0
 25 26  1  0
 26 27  2  0
 28 31  1  0
 28 27  1  0
 29 28  2  0
 30 29  1  0
 30 25  2  0
 31 32  1  0
 32 33  1  0
 33 34  2  0
 35 34  1  0
 35 39  1  0
 36 35  2  0
 37 32  2  0
 37 36  1  0
 38 37  1  0
 40 41  1  0
 41 44  1  0
 41 43  1  0
 42 40  2  0
 45 46  1  0
 45 20  1  0
 47 45  1  0
 48  6  1  0
 48 49  1  0
 50 49  1  0
 50 52  1  0
 51 50  2  0
 53 52  1  0
 54 65  2  0
 55 53  1  0
 55 60  1  0
 56 64  1  0
 56 66  1  0
 57 59  1  0
 58 64  1  0
 59 60  2  0
 59 58  1  0
 61 55  2  0
 62 61  1  0
 62 57  2  0
 63 57  1  0
 63 56  1  0
 64 54  1  0
 66 68  2  0
 67 66  1  0
 69 67  1  0
 70 79  2  0
 70 75  1  0
 71 67  1  0
 71 75  1  0
 72 71  1  0
 73 74  1  0
 73 72  1  0
 74 70  1  0
 75 76  2  0
 76 77  1  0
 78 77  2  0
 79 78  1  0
 80 54  1  0
 80 81  1  0
 80 90  1  0
 81 84  1  0
 82 86  1  0
 82 81  1  0
 83 82  2  0
 86 85  1  0
 88 86  1  0
 88 89  1  0
 88 87  1  0
 90 93  1  1
 90 91  1  0
 92 90  1  0
M  ISO  4  11 100  12 100  52 101  53 101
M  END
>  <TORSDO>  (23) 
F 22

>  <SCORE>  (23) 
-7.664

>  <name>  (23) 
22

>  <ligand_id>  (23) 
22

>  <original_smiles>  (23) 
[H]C(=NC(=O)N1C([H])([H])C([H])([H])C([H])([H])C([H])(n2nc(-c3c([H])c([H])c(Oc4c([H])c([H])c(F)c([H])c4F)c([H])c3[H])c(C(=O)N([H])[H])c2N([H])[H])C1([H])[H])c1c([H])c(OC([H])([H])C(=O)C([H])([H])Oc2c([H])c([H])c3c(c2[H])C([H])([H])N(C(=O)C([H])(N([H])C(=O)C([H])(N([H])C([H])([H])[H])C([H])([H])[H])C(C([H])([H])[H])(C([H])([H])[H])C([H])([H])[H])C([H])(C(=O)N([H])C2([H])c4c([H])c([H])c([H])c([H])c4C([H])([H])C([H])([H])C2([H])[H])C3([H])[H])c([H])c(C([H])=C([H])C([H])([H])[H])c1[H]

>  <smiles>  (23) 
[H]C(=NC(=O)N1C([H])([H])C([H])([H])C([H])([H])C([H])(n2nc(-c3c([H])c([H])c(Oc4c([H])c([H])c(F)c([H])c4F)c([H])c3[H])c(C(=O)N([H])[H])c2N([H])[H])C1([H])[H])c1c([H])c(OC([H])([H])C(=O)C([H])([H])Oc2c([H])c([H])c3c(c2[H])C([H])([H])N(C(=O)C([H])(N([H])C(=O)C([H])(N([H])C([H])([H])[H])C([H])([H])[H])C(C([H])([H])[H])(C([H])([H])[H])C([H])([H])[H])C([H])(C(=O)N([H])C2([H])c4c([H])c([H])c([H])c([H])c4C([H])([H])C([H])([H])C2([H])[H])C3([H])[H])c([H])c(C([H])=C([H])C([H])([H])[H])c1[H]

$$$$
23:0:0
     RDKit          3D

 93101  0  0  1  0  0  0  0  0999 V2000
  -31.1490  -18.6360   19.4330 C   0  0  0  0  0  3  0  0  0  0  0  0
  -29.7000  -20.6810   18.8280 C   0  0  0  0  0  0  0  0  0  0  0  0
  -30.0770  -17.7020   19.5530 C   0  0  0  0  0  0  0  0  0  0  0  0
  -28.6030  -19.7650   19.0080 C   0  0  0  0  0  0  0  0  0  0  0  0
  -30.9660  -20.0340   19.0820 C   0  0  0  0  0  0  0  0  0  0  0  0
  -28.8090  -18.3370   19.3200 C   0  0  0  0  0  0  0  0  0  0  0  0
  -32.0870  -20.7870   18.9620 F   0  0  0  0  0  0  0  0  0  0  0  0
  -27.7580  -17.4830   19.3770 F   0  0  0  0  0  0  0  0  0  0  0  0
  -30.9600  -15.0860   19.6090 C   0  0  0  0  0  0  0  0  0  0  0  0
  -30.8440  -12.6690   18.8790 C   0  0  0  0  0  2  0  0  0  0  0  0
  -29.8460  -12.5500   17.7020 C   0  0  0  0  0  2  0  0  0  0  0  0
  -28.4030  -12.3790   18.2170 C   0  0  0  0  0  2  0  0  0  0  0  0
  -28.0570  -13.3850   19.3470 C   0  0  0  0  0  3  0  0  0  0  0  0
  -29.1670  -13.4530   20.4160 C   0  0  0  0  0  2  0  0  0  0  0  0
  -30.4150  -13.8130   19.7280 N   0  0  0  0  0  0  0  0  0  0  0  0
  -32.1180  -15.1890   19.1880 O   0  0  0  0  0  0  0  0  0  0  0  0
  -30.1230  -16.1980   19.8330 N   0  0  0  0  0  0  0  0  0  0  0  0
  -29.2650  -15.8920   20.2700 H   0  0  0  0  0  0  0  0  0  0  0  0
  -25.7930  -14.0460   20.3470 C   0  0  0  0  0  0  0  0  0  0  0  0
  -24.7100  -13.3100   20.7420 C   0  0  0  0  0  0  0  0  0  0  0  0
  -25.0700  -11.9410   20.5440 C   0  0  0  0  0  0  0  0  0  0  0  0
  -26.7450  -13.1300   19.9330 N   0  0  0  0  0  0  0  0  0  0  0  0
  -26.3240  -11.8510   20.1140 N   0  0  0  0  0  0  0  0  0  0  0  0
  -24.2710  -10.7160   20.6850 C   0  0  0  0  0  0  0  0  0  0  0  0
  -24.7490   -9.6020   21.4080 C   0  0  0  0  0  3  0  0  0  0  0  0
  -23.9550   -8.4430   21.5460 C   0  0  0  0  0  3  0  0  0  0  0  0
  -22.6660   -8.3910   20.9620 C   0  0  0  0  0  0  0  0  0  0  0  0
  -22.2050   -9.4940   20.2230 C   0  0  0  0  0  3  0  0  0  0  0  0
  -22.9990  -10.6440   20.0830 C   0  0  0  0  0  3  0  0  0  0  0  0
  -21.8350   -7.2990   21.0220 O   0  0  0  0  0  0  0  0  0  0  0  0
  -21.9690   -6.3450   21.9990 C   0  0  0  0  0  0  0  0  0  0  0  0
  -21.9070   -6.6700   23.3720 C   0  0  0  0  0  3  0  0  0  0  0  0
  -21.9800   -5.6490   24.3410 C   0  0  0  0  0  3  0  0  0  0  0  0
  -22.1040   -4.3050   23.9410 C   0  0  0  0  0  0  0  0  0  0  0  0
  -22.1590   -3.9790   22.5750 C   0  0  0  0  0  3  0  0  0  0  0  0
  -22.0890   -4.9960   21.6070 C   0  0  0  0  0  0  0  0  0  0  0  0
  -22.1220   -4.6730   20.2910 F   0  0  0  0  0  0  0  0  0  0  0  0
  -22.1660   -3.3250   24.8710 F   0  0  0  0  0  0  0  0  0  0  0  0
  -23.3800  -13.8480   21.1820 C   0  0  0  0  0  0  0  0  0  0  0  0
  -22.6900  -13.1390   22.0700 N   0  0  0  0  0  0  0  0  0  0  0  0
  -22.9640  -14.9330   20.7760 O   0  0  0  0  0  0  0  0  0  0  0  0
  -23.0410  -12.2600   22.4230 H   0  0  0  0  0  0  0  0  0  0  0  0
  -21.8010  -13.4820   22.4020 H   0  0  0  0  0  0  0  0  0  0  0  0
  -26.0360  -15.4140   20.2820 N   0  0  0  0  0  0  0  0  0  0  0  0
  -25.3290  -16.0930   20.5420 H   0  0  0  0  0  0  0  0  0  0  0  0
  -26.8900  -15.8430   19.9530 H   0  0  0  0  0  0  0  0  0  0  0  0
  -29.6490  -22.2120   18.3270 C   0  0  0  0  0  3  0  0  0  0  0  0
  -28.8880  -23.3990   18.4750 C   0  0  0  0  0  3  0  0  0  0  0  0
  -28.9980  -24.7970   17.6110 C   0  0  0  0  0  2  0  0  0  0  0  0
  -28.9640  -26.2570   18.1340 O   0  0  0  0  0  0  0  0  0  0  0  0
  -25.0890  -30.6470   22.5630 C   0  0  0  0  0  0  0  0  0  0  0  0
  -27.7950  -27.0810   18.3240 C   0  0  0  0  0  0  0  0  0  0  0  0
  -23.8670  -29.5090   20.7490 C   0  0  0  0  0  3  0  0  0  0  0  0
  -25.3060  -28.4840   18.8820 C   0  0  0  0  0  0  0  0  0  0  0  0
  -26.3470  -30.1220   20.4430 C   0  0  0  0  0  2  0  0  0  0  0  0
  -26.4900  -28.9290   19.4820 C   0  0  0  0  0  0  0  0  0  0  0  0
  -27.7270  -28.2440   19.1930 C   0  0  0  0  0  3  0  0  0  0  0  0
  -26.5660  -26.7370   17.7130 C   0  0  0  0  0  3  0  0  0  0  0  0
  -25.3550  -27.4060   17.9860 C   0  0  0  0  0  3  0  0  0  0  0  0
  -24.0050  -29.1860   19.2370 C   0  0  0  0  0  2  0  0  0  0  0  0
  -25.1240  -30.1030   21.3090 N   0  0  0  0  0  0  0  0  0  0  0  0
  -24.0430  -30.6710   23.2300 O   0  0  0  0  0  0  0  0  0  0  0  0
  -23.4040  -28.2380   21.5030 C   0  0  0  0  0  0  0  0  0  0  0  0
  -22.1080  -27.8960   21.3910 N   0  0  0  0  0  0  0  0  0  0  0  0
  -24.2100  -27.5700   22.1570 O   0  0  0  0  0  0  0  0  0  0  0  0
  -21.5060  -28.4970   20.8450 H   0  0  0  0  0  0  0  0  0  0  0  0
  -18.9860  -26.0830   21.6850 C   0  0  0  0  0  0  0  0  0  0  0  0
  -21.4770  -26.7130   21.9800 C   0  0  0  0  0  3  0  0  0  0  0  0
  -21.7890  -25.4460   21.1500 C   0  0  0  0  0  2  0  0  0  0  0  0
  -20.7170  -25.1340   20.1010 C   0  0  0  0  0  2  0  0  0  0  0  0
  -19.3540  -24.9280   20.7680 C   0  0  0  0  0  2  0  0  0  0  0  0
  -19.9820  -26.9300   22.2420 C   0  0  0  0  0  0  0  0  0  0  0  0
  -19.5820  -28.0070   23.0620 C   0  0  0  0  0  3  0  0  0  0  0  0
  -18.2200  -28.2430   23.3280 C   0  0  0  0  0  3  0  0  0  0  0  0
  -17.2390  -27.3920   22.7860 C   0  0  0  0  0  3  0  0  0  0  0  0
  -17.6240  -26.3130   21.9710 C   0  0  0  0  0  3  0  0  0  0  0  0
  -26.3550  -31.2820   23.2130 C   0  0  0  0  0  3  0  0  0  0  0  0
  -27.1130  -30.2940   24.1830 C   0  0  1  0  0  0  0  0  0  0  0  0
  -26.1990  -29.6450   25.2490 C   0  0  0  0  0  1  0  0  0  0  0  0
  -27.7890  -29.1540   23.3910 C   0  0  0  0  0  1  0  0  0  0  0  0
  -28.2450  -31.0500   24.9180 C   0  0  0  0  0  1  0  0  0  0  0  0
  -25.9300  -32.4880   23.9400 N   0  0  0  0  0  0  0  0  0  0  0  0
  -26.1520  -33.7450   23.5320 C   0  0  0  0  0  0  0  0  0  0  0  0
  -26.8040  -34.0110   22.5190 O   0  0  0  0  0  0  0  0  0  0  0  0
  -25.3380  -32.3440   24.7450 H   0  0  0  0  0  0  0  0  0  0  0  0
  -24.2950  -35.4350   23.7000 C   0  0  0  0  0  1  0  0  0  0  0  0
  -25.5590  -34.8870   24.3810 C   0  0  0  0  0  3  0  0  0  0  0  0
  -27.6150  -35.6190   25.5070 C   0  0  0  0  0  1  0  0  0  0  0  0
  -26.5090  -35.9930   24.6300 N   0  0  0  0  0  0  0  0  0  0  0  0
  -26.0320  -36.7900   25.0440 H   0  0  0  0  0  0  0  0  0  0  0  0
  -27.3560  -20.3410   18.8180 O   0  0  0  0  0  0  0  0  0  0  0  0
  -24.9530  -20.4240   18.7070 C   0  0  0  0  0  1  0  0  0  0  0  0
  -26.1870  -19.5310   18.8160 C   0  0  0  0  0  2  0  0  0  0  0  0
  1  3  1  0
  2  4  2  0
  2  5  1  0
  3 17  1  0
  4  6  1  0
  5  1  2  0
  6  8  1  0
  6  3  2  0
  7  5  1  0
  9 15  1  0
  9 17  1  0
 10 15  1  0
 11 12  1  0
 11 10  1  0
 13 12  1  0
 13 22  1  0
 13 14  1  0
 15 14  1  0
 16  9  2  0
 17 18  1  0
 19 20  2  0
 20 39  1  0
 21 24  1  0
 21 20  1  0
 22 23  1  0
 22 19  1  0
 23 21  2  0
 24 25  1  0
 25 26  2  0
 27 30  1  0
 27 26  1  0
 28 27  2  0
 29 28  1  0
 29 24  2  0
 30 31  1  0
 31 32  1  0
 32 33  2  0
 34 33  1  0
 34 38  1  0
 35 34  2  0
 36 31  2  0
 36 35  1  0
 37 36  1  0
 39 40  1  0
 40 43  1  0
 40 42  1  0
 41 39  2  0
 44 19  1  0
 44 45  1  0
 46 44  1  0
 47 48  2  0
 47  2  1  0
 49 50  1  0
 49 48  1  0
 50 52  1  0
 51 62  2  0
 52 57  1  0
 53 61  1  0
 53 63  1  0
 54 60  1  0
 54 56  1  0
 55 61  1  0
 56 55  1  0
 57 56  2  0
 58 59  1  0
 58 52  2  0
 59 54  2  0
 60 53  1  0
 61 51  1  0
 63 65  2  0
 64 63  1  0
 66 64  1  0
 67 76  2  0
 67 72  1  0
 68 64  1  0
 68 72  1  0
 69 68  1  0
 70 71  1  0
 70 69  1  0
 71 67  1  0
 72 73  2  0
 73 74  1  0
 75 74  2  0
 76 75  1  0
 77 51  1  0
 77 82  1  0
 77 78  1  0
 78 81  1  1
 78 79  1  0
 80 78  1  0
 82 85  1  0
 83 82  1  0
 83 87  1  0
 84 83  2  0
 87 86  1  0
 87 89  1  0
 89 90  1  0
 89 88  1  0
 91  4  1  0
 92 93  1  0
 93 91  1  0
M  ISO  4   9 100  17 100  49 101  50 101
M  END
>  <TORSDO>  (24) 
F 20

>  <SCORE>  (24) 
-8.836

>  <name>  (24) 
23

>  <ligand_id>  (24) 
23

>  <original_smiles>  (24) 
[H]C(=C([H])C([H])([H])Oc1c([H])c([H])c2c(c1[H])C([H])([H])N(C(=O)C([H])(N([H])C(=O)C([H])(N([H])C([H])([H])[H])C([H])([H])[H])C(C([H])([H])[H])(C([H])([H])[H])C([H])([H])[H])C([H])(C(=O)N([H])C1([H])c3c([H])c([H])c([H])c([H])c3C([H])([H])C([H])([H])C1([H])[H])C2([H])[H])c1c(F)c([H])c(N([H])C(=O)N2C([H])([H])C([H])([H])C([H])([H])C([H])(n3nc(-c4c([H])c([H])c(Oc5c([H])c([H])c(F)c([H])c5F)c([H])c4[H])c(C(=O)N([H])[H])c3N([H])[H])C2([H])[H])c(F)c1OC([H])([H])C([H])([H])[H]

>  <smiles>  (24) 
[H]C(=C([H])C([H])([H])Oc1c([H])c([H])c2c(c1[H])C([H])([H])N(C(=O)C([H])(N([H])C(=O)C([H])(N([H])C([H])([H])[H])C([H])([H])[H])C(C([H])([H])[H])(C([H])([H])[H])C([H])([H])[H])C([H])(C(=O)N([H])C1([H])c3c([H])c([H])c([H])c([H])c3C([H])([H])C([H])([H])C1([H])[H])C2([H])[H])c1c(F)c([H])c(N([H])C(=O)N2C([H])([H])C([H])([H])C([H])([H])C([H])(n3nc(-c4c([H])c([H])c(Oc5c([H])c([H])c(F)c([H])c5F)c([H])c4[H])c(C(=O)N([H])[H])c3N([H])[H])C2([H])[H])c(F)c1OC([H])([H])C([H])([H])[H]

$$$$
24:0:0
     RDKit          3D

 95103  0  0  1  0  0  0  0  0999 V2000
  -28.9280  -19.6600   20.3550 C   0  0  0  0  0  3  0  0  0  0  0  0
  -30.6040  -18.0020   21.8670 C   0  0  0  0  0  3  0  0  0  0  0  0
  -28.9900  -18.2600   20.0930 C   0  0  0  0  0  0  0  0  0  0  0  0
  -29.7260  -20.2810   21.3390 C   0  0  0  0  0  0  0  0  0  0  0  0
  -29.8740  -17.3830   20.8160 C   0  0  0  0  0  0  0  0  0  0  0  0
  -30.5360  -19.4050   22.1170 C   0  0  0  0  0  0  0  0  0  0  0  0
  -31.2980  -19.9300   23.1070 F   0  0  0  0  0  0  0  0  0  0  0  0
  -30.8220  -14.9770   20.9950 C   0  0  0  0  0  0  0  0  0  0  0  0
  -30.7170  -12.6560   20.1170 C   0  0  0  0  0  2  0  0  0  0  0  0
  -29.9050  -12.6270   18.8020 C   0  0  0  0  0  2  0  0  0  0  0  0
  -28.3940  -12.5090   19.0880 C   0  0  0  0  0  2  0  0  0  0  0  0
  -27.8980  -13.4630   20.2070 C   0  0  0  0  0  3  0  0  0  0  0  0
  -28.8390  -13.4610   21.4280 C   0  0  0  0  0  2  0  0  0  0  0  0
  -30.1860  -13.7630   20.9370 N   0  0  0  0  0  0  0  0  0  0  0  0
  -32.0540  -15.0290   21.0380 O   0  0  0  0  0  0  0  0  0  0  0  0
  -30.4830  -16.0300   18.8970 C   0  0  0  0  0  1  0  0  0  0  0  0
  -30.1660  -16.0150   20.3420 N   0  0  0  0  0  0  0  0  0  0  0  0
  -25.4540  -14.0720   20.7150 C   0  0  0  0  0  0  0  0  0  0  0  0
  -24.3530  -13.3030   20.9710 C   0  0  0  0  0  0  0  0  0  0  0  0
  -24.8130  -11.9520   20.9840 C   0  0  0  0  0  0  0  0  0  0  0  0
  -26.5130  -13.1900   20.5760 N   0  0  0  0  0  0  0  0  0  0  0  0
  -26.1290  -11.9110   20.8110 N   0  0  0  0  0  0  0  0  0  0  0  0
  -24.0710  -10.6930   21.0980 C   0  0  0  0  0  0  0  0  0  0  0  0
  -24.4230   -9.7120   22.0530 C   0  0  0  0  0  3  0  0  0  0  0  0
  -23.6790   -8.5180   22.1580 C   0  0  0  0  0  3  0  0  0  0  0  0
  -22.5710   -8.2950   21.3060 C   0  0  0  0  0  0  0  0  0  0  0  0
  -22.2400   -9.2650   20.3430 C   0  0  0  0  0  3  0  0  0  0  0  0
  -22.9860  -10.4510   20.2350 C   0  0  0  0  0  3  0  0  0  0  0  0
  -21.8070   -7.1520   21.3190 O   0  0  0  0  0  0  0  0  0  0  0  0
  -21.6600   -6.3980   22.4550 C   0  0  0  0  0  0  0  0  0  0  0  0
  -21.1180   -6.9370   23.6420 C   0  0  0  0  0  3  0  0  0  0  0  0
  -20.9200   -6.1070   24.7650 C   0  0  0  0  0  3  0  0  0  0  0  0
  -21.2560   -4.7420   24.6990 C   0  0  0  0  0  0  0  0  0  0  0  0
  -21.7900   -4.2020   23.5160 C   0  0  0  0  0  3  0  0  0  0  0  0
  -21.9910   -5.0290   22.3960 C   0  0  0  0  0  0  0  0  0  0  0  0
  -22.4850   -4.5010   21.2510 F   0  0  0  0  0  0  0  0  0  0  0  0
  -21.0580   -3.9420   25.7730 F   0  0  0  0  0  0  0  0  0  0  0  0
  -22.9370  -13.7860   21.0980 C   0  0  0  0  0  0  0  0  0  0  0  0
  -22.1310  -13.1030   21.9010 N   0  0  0  0  0  0  0  0  0  0  0  0
  -22.5540  -14.8020   20.5200 O   0  0  0  0  0  0  0  0  0  0  0  0
  -22.4560  -12.2820   22.3900 H   0  0  0  0  0  0  0  0  0  0  0  0
  -21.1770  -13.4080   22.0370 H   0  0  0  0  0  0  0  0  0  0  0  0
  -25.6390  -15.4400   20.5710 N   0  0  0  0  0  0  0  0  0  0  0  0
  -24.8750  -16.1040   20.6200 H   0  0  0  0  0  0  0  0  0  0  0  0
  -26.5380  -15.8740   20.4160 H   0  0  0  0  0  0  0  0  0  0  0  0
  -29.7480  -21.6980   21.5630 N   0  0  0  0  0  0  0  0  0  0  0  0
  -30.4360  -22.0510   22.2230 H   0  0  0  0  0  0  0  0  0  0  0  0
  -29.0830  -22.7330   20.7070 C   0  0  0  0  0  2  0  0  0  0  0  0
  -29.3680  -24.2550   21.0360 C   0  0  0  0  0  0  0  0  0  0  0  0
  -30.2130  -24.5560   21.8880 O   0  0  0  0  0  0  0  0  0  0  0  0
  -28.5510  -25.3580   20.2620 C   0  0  0  0  0  2  0  0  0  0  0  0
  -28.7490  -26.7790   20.6370 O   0  0  0  0  0  0  0  0  0  0  0  0
  -24.7830  -32.0360   23.5450 C   0  0  0  0  0  0  0  0  0  0  0  0
  -27.6300  -27.6200   20.5130 C   0  0  0  0  0  0  0  0  0  0  0  0
  -23.6840  -30.6490   21.8240 C   0  0  0  0  0  3  0  0  0  0  0  0
  -25.2310  -29.1750   20.4250 C   0  0  0  0  0  0  0  0  0  0  0  0
  -26.2200  -31.0340   21.7580 C   0  0  0  0  0  2  0  0  0  0  0  0
  -26.3610  -29.6760   21.0850 C   0  0  0  0  0  0  0  0  0  0  0  0
  -27.5630  -28.9090   21.1240 C   0  0  0  0  0  3  0  0  0  0  0  0
  -26.4840  -27.1870   19.8030 C   0  0  0  0  0  3  0  0  0  0  0  0
  -25.2960  -27.9380   19.7720 C   0  0  0  0  0  3  0  0  0  0  0  0
  -23.9710  -30.0140   20.4390 C   0  0  0  0  0  2  0  0  0  0  0  0
  -24.9110  -31.2550   22.4330 N   0  0  0  0  0  0  0  0  0  0  0  0
  -23.6720  -32.2740   24.0400 O   0  0  0  0  0  0  0  0  0  0  0  0
  -23.0090  -29.5920   22.7310 C   0  0  0  0  0  0  0  0  0  0  0  0
  -21.6980  -29.3750   22.5330 N   0  0  0  0  0  0  0  0  0  0  0  0
  -23.6660  -28.9720   23.5720 O   0  0  0  0  0  0  0  0  0  0  0  0
  -21.2270  -29.9280   21.8320 H   0  0  0  0  0  0  0  0  0  0  0  0
  -18.3300  -28.1000   22.8740 C   0  0  0  0  0  0  0  0  0  0  0  0
  -20.8710  -28.4000   23.2480 C   0  0  0  0  0  3  0  0  0  0  0  0
  -21.0220  -26.9880   22.6370 C   0  0  0  0  0  2  0  0  0  0  0  0
  -19.9650  -26.6730   21.5740 C   0  0  0  0  0  2  0  0  0  0  0  0
  -18.5580  -26.7750   22.1690 C   0  0  0  0  0  2  0  0  0  0  0  0
  -19.4160  -28.8710   23.3670 C   0  0  0  0  0  0  0  0  0  0  0  0
  -19.1500  -30.1130   23.9840 C   0  0  0  0  0  3  0  0  0  0  0  0
  -17.8300  -30.5840   24.1150 C   0  0  0  0  0  3  0  0  0  0  0  0
  -16.7570  -29.8100   23.6390 C   0  0  0  0  0  3  0  0  0  0  0  0
  -17.0080  -28.5700   23.0240 C   0  0  0  0  0  3  0  0  0  0  0  0
  -26.0230  -32.6820   24.2350 C   0  0  0  0  0  3  0  0  0  0  0  0
  -25.6890  -34.0820   24.5270 N   0  0  0  0  0  0  0  0  0  0  0  0
  -26.0300  -35.1240   23.7570 C   0  0  0  0  0  0  0  0  0  0  0  0
  -26.7290  -35.0090   22.7470 O   0  0  0  0  0  0  0  0  0  0  0  0
  -25.0690  -34.2440   25.3070 H   0  0  0  0  0  0  0  0  0  0  0  0
  -24.2760  -36.8780   23.3340 C   0  0  0  0  0  1  0  0  0  0  0  0
  -25.5130  -36.5150   24.1730 C   0  0  0  0  0  3  0  0  0  0  0  0
  -27.6150  -37.4650   25.0140 C   0  0  0  0  0  1  0  0  0  0  0  0
  -26.5280  -37.5830   24.0460 N   0  0  0  0  0  0  0  0  0  0  0  0
  -26.1020  -38.4990   24.1550 H   0  0  0  0  0  0  0  0  0  0  0  0
  -26.4660  -31.9300   25.5500 C   0  0  1  0  0  0  0  0  0  0  0  0
  -25.3010  -31.6570   26.5310 C   0  0  0  0  0  1  0  0  0  0  0  0
  -27.1250  -30.5720   25.2120 C   0  0  0  0  0  1  0  0  0  0  0  0
  -27.5340  -32.7650   26.2960 C   0  0  0  0  0  1  0  0  0  0  0  0
  -28.0750  -17.7750   18.9790 C   0  0  0  0  0  2  0  0  0  0  0  0
  -27.3440  -18.5610   16.6980 C   0  0  0  0  0  2  0  0  0  0  0  0
  -28.2800  -18.4820   17.6570 C   0  0  0  0  0  3  0  0  0  0  0  0
  1  4  1  0
  2  6  1  0
  3  1  2  0
  3  5  1  0
  4 46  1  0
  4  6  2  0
  5  2  2  0
  6  7  1  0
  8 15  2  0
  9 14  1  0
 10 11  1  0
 10  9  1  0
 12 11  1  0
 12 21  1  0
 12 13  1  0
 14  8  1  0
 14 13  1  0
 16 17  1  0
 17  5  1  0
 17  8  1  0
 18 19  2  0
 19 20  1  0
 19 38  1  0
 20 23  1  0
 21 18  1  0
 21 22  1  0
 22 20  2  0
 23 24  1  0
 24 25  2  0
 26 29  1  0
 26 25  1  0
 27 26  2  0
 28 27  1  0
 28 23  2  0
 29 30  1  0
 30 31  1  0
 31 32  2  0
 33 32  1  0
 33 37  1  0
 34 33  2  0
 35 30  2  0
 35 34  1  0
 36 35  1  0
 38 39  1  0
 39 42  1  0
 39 41  1  0
 40 38  2  0
 43 44  1  0
 43 18  1  0
 45 43  1  0
 46 47  1  0
 48 49  1  0
 48 46  1  0
 49 50  2  0
 51 52  1  0
 51 49  1  0
 53 64  2  0
 54 52  1  0
 54 59  1  0
 55 63  1  0
 55 65  1  0
 56 62  1  0
 56 58  1  0
 57 63  1  0
 58 59  2  0
 58 57  1  0
 60 54  2  0
 61 60  1  0
 61 56  2  0
 62 55  1  0
 63 53  1  0
 65 67  2  0
 66 65  1  0
 68 66  1  0
 69 78  2  0
 69 74  1  0
 70 66  1  0
 70 74  1  0
 71 70  1  0
 72 73  1  0
 72 71  1  0
 73 69  1  0
 74 75  2  0
 75 76  1  0
 77 76  2  0
 78 77  1  0
 79 53  1  0
 79 80  1  0
 79 89  1  0
 80 83  1  0
 81 85  1  0
 81 80  1  0
 82 81  2  0
 85 84  1  0
 87 88  1  0
 87 85  1  0
 87 86  1  0
 89 92  1  1
 89 90  1  0
 91 89  1  0
 93  3  1  0
 94 95  2  0
 95 93  1  0
M  ISO  4   8 100  17 100  51 101  52 101
M  END
>  <TORSDO>  (25) 
F 22

>  <SCORE>  (25) 
-12.642

>  <name>  (25) 
24

>  <ligand_id>  (25) 
24

>  <original_smiles>  (25) 
[H]C([H])=C([H])C([H])([H])c1c([H])c(N([H])C([H])([H])C(=O)C([H])([H])Oc2c([H])c([H])c3c(c2[H])C([H])([H])N(C(=O)C([H])(N([H])C(=O)C([H])(N([H])C([H])([H])[H])C([H])([H])[H])C(C([H])([H])[H])(C([H])([H])[H])C([H])([H])[H])C([H])(C(=O)N([H])C2([H])c4c([H])c([H])c([H])c([H])c4C([H])([H])C([H])([H])C2([H])[H])C3([H])[H])c(F)c([H])c1N(C(=O)N1C([H])([H])C([H])([H])C([H])([H])C([H])(n2nc(-c3c([H])c([H])c(Oc4c([H])c([H])c(F)c([H])c4F)c([H])c3[H])c(C(=O)N([H])[H])c2N([H])[H])C1([H])[H])C([H])([H])[H]

>  <smiles>  (25) 
[H]C([H])=C([H])C([H])([H])c1c([H])c(N([H])C([H])([H])C(=O)C([H])([H])Oc2c([H])c([H])c3c(c2[H])C([H])([H])N(C(=O)C([H])(N([H])C(=O)C([H])(N([H])C([H])([H])[H])C([H])([H])[H])C(C([H])([H])[H])(C([H])([H])[H])C([H])([H])[H])C([H])(C(=O)N([H])C2([H])c4c([H])c([H])c([H])c([H])c4C([H])([H])C([H])([H])C2([H])[H])C3([H])[H])c(F)c([H])c1N(C(=O)N1C([H])([H])C([H])([H])C([H])([H])C([H])(n2nc(-c3c([H])c([H])c(Oc4c([H])c([H])c(F)c([H])c4F)c([H])c3[H])c(C(=O)N([H])[H])c2N([H])[H])C1([H])[H])C([H])([H])[H]

$$$$
25:0:0
     RDKit          3D

 98107  0  0  1  0  0  0  0  0999 V2000
  -28.9620  -23.3580   20.6410 C   0  0  0  0  0  0  0  0  0  0  0  0
  -29.4070  -23.6480   21.9060 C   0  0  0  0  0  0  0  0  0  0  0  0
  -29.5510  -22.2450   19.8620 C   0  0  0  0  0  0  0  0  0  0  0  0
  -30.5900  -22.9290   22.4690 C   0  0  0  0  0  0  0  0  0  0  0  0
  -29.2410  -22.0460   18.5540 C   0  0  0  0  0  3  0  0  0  0  0  0
  -30.3950  -21.2330   20.6160 C   0  0  0  0  0  2  0  0  0  0  0  0
  -31.3490  -21.9500   21.5750 C   0  0  0  0  0  2  0  0  0  0  0  0
  -27.7650  -24.1010   20.0460 C   0  0  0  0  0  1  0  0  0  0  0  0
  -31.0160  -23.1000   23.6150 O   0  0  0  0  0  0  0  0  0  0  0  0
  -30.9420  -20.5070   17.4400 C   0  0  0  0  0  3  0  0  0  0  0  0
  -31.2280  -19.4690   16.5210 C   0  0  0  0  0  3  0  0  0  0  0  0
  -28.5780  -20.2350   16.9980 C   0  0  0  0  0  3  0  0  0  0  0  0
  -29.6090  -20.9030   17.6860 C   0  0  0  0  0  0  0  0  0  0  0  0
  -28.8390  -19.1780   16.0940 C   0  0  0  0  0  0  0  0  0  0  0  0
  -30.1850  -18.8050   15.8250 C   0  0  0  0  0  0  0  0  0  0  0  0
  -31.5410  -17.3060   14.3110 C   0  0  0  0  0  0  0  0  0  0  0  0
  -32.7670  -16.9300   12.1980 C   0  0  0  0  0  2  0  0  0  0  0  0
  -33.2550  -18.2890   11.6490 C   0  0  0  0  0  2  0  0  0  0  0  0
  -32.1630  -18.9810   10.8110 C   0  0  0  0  0  2  0  0  0  0  0  0
  -30.7830  -18.9990   11.5210 C   0  0  0  0  0  3  0  0  0  0  0  0
  -30.4370  -17.5920   12.0590 C   0  0  0  0  0  2  0  0  0  0  0  0
  -31.5280  -17.1600   12.9560 N   0  0  0  0  0  0  0  0  0  0  0  0
  -32.5140  -17.0090   15.0100 O   0  0  0  0  0  0  0  0  0  0  0  0
  -30.4000  -17.8050   14.8200 N   0  0  0  0  0  0  0  0  0  0  0  0
  -29.6420  -17.7460   14.1590 H   0  0  0  0  0  0  0  0  0  0  0  0
  -29.0170  -20.6990   10.7280 C   0  0  0  0  0  0  0  0  0  0  0  0
  -28.2090  -20.7330    9.6220 C   0  0  0  0  0  0  0  0  0  0  0  0
  -28.4950  -19.5390    8.8900 C   0  0  0  0  0  0  0  0  0  0  0  0
  -29.7340  -19.5160   10.6410 N   0  0  0  0  0  0  0  0  0  0  0  0
  -29.3750  -18.7940    9.5490 N   0  0  0  0  0  0  0  0  0  0  0  0
  -28.0250  -19.0880    7.5730 C   0  0  0  0  0  0  0  0  0  0  0  0
  -27.4360  -17.8190    7.3950 C   0  0  0  0  0  3  0  0  0  0  0  0
  -26.9750  -17.4160    6.1230 C   0  0  0  0  0  3  0  0  0  0  0  0
  -27.0980  -18.2870    5.0140 C   0  0  0  0  0  0  0  0  0  0  0  0
  -27.7070  -19.5420    5.1920 C   0  0  0  0  0  3  0  0  0  0  0  0
  -28.1690  -19.9390    6.4590 C   0  0  0  0  0  3  0  0  0  0  0  0
  -26.7020  -17.9710    3.7370 O   0  0  0  0  0  0  0  0  0  0  0  0
  -25.6920  -17.0750    3.4990 C   0  0  0  0  0  0  0  0  0  0  0  0
  -24.3960  -17.2520    4.0280 C   0  0  0  0  0  3  0  0  0  0  0  0
  -23.3710  -16.3420    3.7010 C   0  0  0  0  0  3  0  0  0  0  0  0
  -23.6360  -15.2630    2.8380 C   0  0  0  0  0  0  0  0  0  0  0  0
  -24.9250  -15.0870    2.3040 C   0  0  0  0  0  3  0  0  0  0  0  0
  -25.9490  -15.9930    2.6320 C   0  0  0  0  0  0  0  0  0  0  0  0
  -27.1830  -15.8310    2.0970 F   0  0  0  0  0  0  0  0  0  0  0  0
  -22.6490  -14.3930    2.5170 F   0  0  0  0  0  0  0  0  0  0  0  0
  -27.2960  -21.8510    9.2140 C   0  0  0  0  0  0  0  0  0  0  0  0
  -26.1890  -21.5290    8.5540 N   0  0  0  0  0  0  0  0  0  0  0  0
  -27.5360  -23.0190    9.5190 O   0  0  0  0  0  0  0  0  0  0  0  0
  -25.9800  -20.5680    8.3200 H   0  0  0  0  0  0  0  0  0  0  0  0
  -25.5410  -22.2530    8.2770 H   0  0  0  0  0  0  0  0  0  0  0  0
  -29.2150  -21.5820   11.7840 N   0  0  0  0  0  0  0  0  0  0  0  0
  -28.7110  -22.4560   11.8650 H   0  0  0  0  0  0  0  0  0  0  0  0
  -29.8390  -21.4140   12.5620 H   0  0  0  0  0  0  0  0  0  0  0  0
  -27.7180  -18.5290   15.3810 C   0  0  0  0  0  3  0  0  0  0  0  0
  -26.5020  -19.0630   15.1820 C   0  0  0  0  0  3  0  0  0  0  0  0
  -25.3720  -18.3610   14.4600 C   0  0  0  0  0  1  0  0  0  0  0  0
  -28.6980  -24.5930   22.9030 C   0  0  0  0  0  2  0  0  0  0  0  0
  -29.0160  -25.9820   22.7400 O   0  0  0  0  0  0  0  0  0  0  0  0
  -24.2830  -28.2500   27.5790 C   0  0  0  0  0  0  0  0  0  0  0  0
  -27.9570  -26.8070   23.0400 C   0  0  0  0  0  0  0  0  0  0  0  0
  -23.8030  -28.8260   25.2210 C   0  0  0  0  0  3  0  0  0  0  0  0
  -25.7110  -28.4350   23.5730 C   0  0  0  0  0  0  0  0  0  0  0  0
  -26.2110  -28.5080   26.0220 C   0  0  0  0  0  2  0  0  0  0  0  0
  -26.5540  -28.0420   24.6210 C   0  0  0  0  0  0  0  0  0  0  0  0
  -27.6810  -27.2290   24.3620 C   0  0  0  0  0  3  0  0  0  0  0  0
  -27.1080  -27.2210   21.9950 C   0  0  0  0  0  3  0  0  0  0  0  0
  -25.9850  -28.0270   22.2550 C   0  0  0  0  0  3  0  0  0  0  0  0
  -24.5260  -29.3040   23.9330 C   0  0  0  0  0  2  0  0  0  0  0  0
  -24.7600  -28.4910   26.3250 N   0  0  0  0  0  0  0  0  0  0  0  0
  -23.0750  -28.3410   27.8330 O   0  0  0  0  0  0  0  0  0  0  0  0
  -22.8570  -27.6600   24.8570 C   0  0  0  0  0  0  0  0  0  0  0  0
  -21.8760  -27.9330   23.9820 N   0  0  0  0  0  0  0  0  0  0  0  0
  -23.0270  -26.5350   25.3370 O   0  0  0  0  0  0  0  0  0  0  0  0
  -21.7970  -28.8820   23.6420 H   0  0  0  0  0  0  0  0  0  0  0  0
  -19.0640  -27.5870   21.7420 C   0  0  0  0  0  0  0  0  0  0  0  0
  -20.8930  -26.9810   23.4630 C   0  0  0  0  0  3  0  0  0  0  0  0
  -21.5050  -26.0980   22.3510 C   0  0  0  0  0  2  0  0  0  0  0  0
  -21.2780  -26.6580   20.9430 C   0  0  0  0  0  2  0  0  0  0  0  0
  -19.7810  -26.8010   20.6570 C   0  0  0  0  0  2  0  0  0  0  0  0
  -19.5940  -27.6850   23.0540 C   0  0  0  0  0  0  0  0  0  0  0  0
  -18.9060  -28.4560   24.0160 C   0  0  0  0  0  3  0  0  0  0  0  0
  -17.7090  -29.1200   23.6850 C   0  0  0  0  0  3  0  0  0  0  0  0
  -17.1790  -29.0050   22.3890 C   0  0  0  0  0  3  0  0  0  0  0  0
  -17.8530  -28.2380   21.4210 C   0  0  0  0  0  3  0  0  0  0  0  0
  -25.2360  -27.8700   28.7560 C   0  0  0  0  0  3  0  0  0  0  0  0
  -25.8570  -26.4270   28.6130 C   0  0  1  0  0  0  0  0  0  0  0  0
  -24.8010  -25.3160   28.4080 C   0  0  0  0  0  1  0  0  0  0  0  0
  -26.8400  -26.3740   27.4200 C   0  0  0  0  0  1  0  0  0  0  0  0
  -26.6750  -26.0780   29.8780 C   0  0  0  0  0  1  0  0  0  0  0  0
  -24.4670  -27.9840   30.0020 N   0  0  0  0  0  0  0  0  0  0  0  0
  -24.5900  -28.9880   30.8810 C   0  0  0  0  0  0  0  0  0  0  0  0
  -25.4270  -29.8860   30.7600 O   0  0  0  0  0  0  0  0  0  0  0  0
  -23.7290  -27.3100   30.1430 H   0  0  0  0  0  0  0  0  0  0  0  0
  -22.4870  -29.9880   31.8280 C   0  0  0  0  0  1  0  0  0  0  0  0
  -23.6320  -28.9950   32.0870 C   0  0  0  0  0  3  0  0  0  0  0  0
  -25.2180  -28.2880   33.8250 C   0  0  0  0  0  1  0  0  0  0  0  0
  -24.2990  -29.3270   33.3660 N   0  0  0  0  0  0  0  0  0  0  0  0
  -23.6130  -29.4860   34.0980 H   0  0  0  0  0  0  0  0  0  0  0  0
  1  2  2  0
  2  4  1  0
  2 57  1  0
  3  6  1  0
  3  1  1  0
  4  9  2  0
  5  3  2  0
  6  7  1  0
  7  4  1  0
  8  1  1  0
 10 13  1  0
 11 10  2  0
 12 13  2  0
 13  5  1  0
 14 12  1  0
 15 14  2  0
 15 11  1  0
 16 24  1  0
 16 23  2  0
 17 22  1  0
 18 17  1  0
 19 20  1  0
 19 18  1  0
 20 29  1  0
 20 21  1  0
 21 22  1  0
 22 16  1  0
 24 15  1  0
 25 24  1  0
 26 51  1  0
 27 26  2  0
 28 30  2  0
 28 27  1  0
 29 26  1  0
 30 29  1  0
 31 28  1  0
 32 31  1  0
 33 32  2  0
 34 35  2  0
 34 33  1  0
 35 36  1  0
 36 31  2  0
 37 34  1  0
 38 37  1  0
 38 39  1  0
 40 39  2  0
 41 40  1  0
 42 43  1  0
 42 41  2  0
 43 38  2  0
 44 43  1  0
 45 41  1  0
 46 48  2  0
 46 27  1  0
 47 46  1  0
 49 47  1  0
 50 47  1  0
 51 52  1  0
 51 53  1  0
 54 14  1  0
 55 54  2  0
 56 55  1  0
 58 57  1  0
 58 60  1  0
 59 70  2  0
 60 65  1  0
 61 71  1  0
 61 69  1  0
 62 68  1  0
 62 64  1  0
 63 69  1  0
 64 63  1  0
 65 64  2  0
 66 67  1  0
 66 60  2  0
 67 62  2  0
 68 61  1  0
 69 59  1  0
 71 73  2  0
 72 71  1  0
 74 72  1  0
 75 80  1  0
 76 72  1  0
 77 76  1  0
 78 77  1  0
 79 78  1  0
 79 75  1  0
 80 76  1  0
 80 81  2  0
 82 81  1  0
 83 82  2  0
 84 75  2  0
 84 83  1  0
 85 59  1  0
 85 90  1  0
 86 85  1  0
 86 89  1  1
 87 86  1  0
 88 86  1  0
 90 93  1  0
 90 91  1  0
 91 95  1  0
 92 91  2  0
 95 94  1  0
 95 97  1  0
 97 96  1  0
 97 98  1  0
M  ISO  4  16 100  24 100  57 101  58 101
M  END
>  <TORSDO>  (26) 
F 19

>  <SCORE>  (26) 
0.784

>  <name>  (26) 
25

>  <ligand_id>  (26) 
25

>  <original_smiles>  (26) 
[H]C(=C1C(C([H])([H])[H])=C(C([H])([H])Oc2c([H])c([H])c3c(c2[H])C([H])([H])N(C(=O)C([H])(N([H])C(=O)C([H])(N([H])C([H])([H])[H])C([H])([H])[H])C(C([H])([H])[H])(C([H])([H])[H])C([H])([H])[H])C([H])(C(=O)N([H])C2([H])c4c([H])c([H])c([H])c([H])c4C([H])([H])C([H])([H])C2([H])[H])C3([H])[H])C(=O)C([H])([H])C1([H])[H])c1c([H])c([H])c(N([H])C(=O)N2C([H])([H])C([H])([H])C([H])([H])C([H])(n3nc(-c4c([H])c([H])c(Oc5c([H])c([H])c(F)c([H])c5F)c([H])c4[H])c(C(=O)N([H])[H])c3N([H])[H])C2([H])[H])c(C([H])=C([H])C([H])([H])[H])c1[H]

>  <smiles>  (26) 
[H]C(=C1C(C([H])([H])[H])=C(C([H])([H])Oc2c([H])c([H])c3c(c2[H])C([H])([H])N(C(=O)C([H])(N([H])C(=O)C([H])(N([H])C([H])([H])[H])C([H])([H])[H])C(C([H])([H])[H])(C([H])([H])[H])C([H])([H])[H])C([H])(C(=O)N([H])C2([H])c4c([H])c([H])c([H])c([H])c4C([H])([H])C([H])([H])C2([H])[H])C3([H])[H])C(=O)C([H])([H])C1([H])[H])c1c([H])c([H])c(N([H])C(=O)N2C([H])([H])C([H])([H])C([H])([H])C([H])(n3nc(-c4c([H])c([H])c(Oc5c([H])c([H])c(F)c([H])c5F)c([H])c4[H])c(C(=O)N([H])[H])c3N([H])[H])C2([H])[H])c(C([H])=C([H])C([H])([H])[H])c1[H]

$$$$
26:0:0
     RDKit          3D

 97106  0  0  1  0  0  0  0  0999 V2000
  -29.9600  -21.0630   20.7960 C   0  0  0  0  0  3  0  0  0  0  0  0
  -29.7760  -20.5520   18.4680 C   0  0  0  0  0  3  0  0  0  0  0  0
  -30.0860  -19.6580   21.1110 C   0  0  0  0  0  0  0  0  0  0  0  0
  -30.1440  -18.6650   20.0700 C   0  0  0  0  0  0  0  0  0  0  0  0
  -29.9290  -19.1590   18.7450 C   0  0  0  0  0  0  0  0  0  0  0  0
  -29.8780  -21.5600   19.4670 C   0  0  0  0  0  0  0  0  0  0  0  0
  -29.9890  -18.2080   17.5580 C   0  0  0  0  0  1  0  0  0  0  0  0
  -30.8230  -14.8700   19.6500 C   0  0  0  0  0  0  0  0  0  0  0  0
  -30.4080  -12.6670   18.5480 C   0  0  0  0  0  2  0  0  0  0  0  0
  -29.3240  -12.8040   17.4610 C   0  0  0  0  0  2  0  0  0  0  0  0
  -27.9300  -12.5870   18.0820 C   0  0  0  0  0  2  0  0  0  0  0  0
  -27.7210  -13.4180   19.3760 C   0  0  0  0  0  3  0  0  0  0  0  0
  -28.9210  -13.3260   20.3420 C   0  0  0  0  0  2  0  0  0  0  0  0
  -30.1180  -13.6920   19.5770 N   0  0  0  0  0  0  0  0  0  0  0  0
  -31.9740  -14.8930   19.2030 O   0  0  0  0  0  0  0  0  0  0  0  0
  -30.7730  -17.2510   20.2790 C   0  0  0  0  0  0  0  0  0  0  0  0
  -30.1660  -16.0500   19.9630 N   0  0  0  0  0  0  0  0  0  0  0  0
  -31.9140  -17.2730   20.7520 O   0  0  0  0  0  0  0  0  0  0  0  0
  -29.1620  -16.0500   19.9130 H   0  0  0  0  0  0  0  0  0  0  0  0
  -25.4980  -13.9500   20.5350 C   0  0  0  0  0  0  0  0  0  0  0  0
  -24.4730  -13.1520   20.9650 C   0  0  0  0  0  0  0  0  0  0  0  0
  -24.8760  -11.8090   20.6940 C   0  0  0  0  0  0  0  0  0  0  0  0
  -26.4620  -13.0900   20.0330 N   0  0  0  0  0  0  0  0  0  0  0  0
  -26.1050  -11.7900   20.1890 N   0  0  0  0  0  0  0  0  0  0  0  0
  -24.1390  -10.5460   20.8320 C   0  0  0  0  0  0  0  0  0  0  0  0
  -24.5110   -9.5780   21.7910 C   0  0  0  0  0  3  0  0  0  0  0  0
  -23.7750   -8.3790   21.9200 C   0  0  0  0  0  3  0  0  0  0  0  0
  -22.6540   -8.1410   21.0890 C   0  0  0  0  0  0  0  0  0  0  0  0
  -22.3020   -9.0980   20.1230 C   0  0  0  0  0  3  0  0  0  0  0  0
  -23.0370  -10.2880   19.9910 C   0  0  0  0  0  3  0  0  0  0  0  0
  -21.8970   -6.9950   21.1250 O   0  0  0  0  0  0  0  0  0  0  0  0
  -21.5190   -6.4170   22.3100 C   0  0  0  0  0  0  0  0  0  0  0  0
  -20.7350   -7.1080   23.2600 C   0  0  0  0  0  3  0  0  0  0  0  0
  -20.3110   -6.4550   24.4340 C   0  0  0  0  0  3  0  0  0  0  0  0
  -20.6600   -5.1090   24.6550 C   0  0  0  0  0  0  0  0  0  0  0  0
  -21.4370   -4.4170   23.7100 C   0  0  0  0  0  3  0  0  0  0  0  0
  -21.8630   -5.0690   22.5390 C   0  0  0  0  0  0  0  0  0  0  0  0
  -22.5900   -4.3920   21.6190 F   0  0  0  0  0  0  0  0  0  0  0  0
  -20.2480   -4.4780   25.7800 F   0  0  0  0  0  0  0  0  0  0  0  0
  -23.1520  -13.6150   21.5050 C   0  0  0  0  0  0  0  0  0  0  0  0
  -22.5500  -12.8400   22.4000 N   0  0  0  0  0  0  0  0  0  0  0  0
  -22.6700  -14.6960   21.1720 O   0  0  0  0  0  0  0  0  0  0  0  0
  -22.9510  -11.9590   22.6860 H   0  0  0  0  0  0  0  0  0  0  0  0
  -21.6730  -13.1320   22.8070 H   0  0  0  0  0  0  0  0  0  0  0  0
  -25.6810  -15.3290   20.5020 N   0  0  0  0  0  0  0  0  0  0  0  0
  -24.9490  -15.9710   20.7840 H   0  0  0  0  0  0  0  0  0  0  0  0
  -26.4700  -15.7940   20.0740 H   0  0  0  0  0  0  0  0  0  0  0  0
  -31.1710  -23.3590   18.4410 C   0  0  0  0  0  0  0  0  0  0  0  0
  -31.7340  -24.6850   18.9330 C   0  0  0  0  0  2  0  0  0  0  0  0
  -30.8780  -24.9530   20.1620 C   0  0  0  0  0  2  0  0  0  0  0  0
  -29.5640  -24.2240   19.8450 C   0  0  0  0  0  3  0  0  0  0  0  0
  -30.0450  -22.9910   19.1030 N   0  0  0  0  0  0  0  0  0  0  0  0
  -31.7380  -22.7370   17.5380 O   0  0  0  0  0  0  0  0  0  0  0  0
  -28.6040  -25.2120   19.0120 C   0  0  0  0  0  2  0  0  0  0  0  0
  -28.5180  -26.6410   19.4120 O   0  0  0  0  0  0  0  0  0  0  0  0
  -24.6950  -31.5690   23.0000 C   0  0  0  0  0  0  0  0  0  0  0  0
  -27.3230  -27.3790   19.4620 C   0  0  0  0  0  0  0  0  0  0  0  0
  -23.4530  -30.2380   21.3290 C   0  0  0  0  0  3  0  0  0  0  0  0
  -24.8790  -28.8620   19.7090 C   0  0  0  0  0  0  0  0  0  0  0  0
  -25.9580  -30.6880   21.0250 C   0  0  0  0  0  2  0  0  0  0  0  0
  -26.0550  -29.3650   20.2760 C   0  0  0  0  0  0  0  0  0  0  0  0
  -27.2720  -28.6340   20.1460 C   0  0  0  0  0  3  0  0  0  0  0  0
  -26.1180  -26.9280   18.8710 C   0  0  0  0  0  3  0  0  0  0  0  0
  -24.9120  -27.6490   19.0000 C   0  0  0  0  0  3  0  0  0  0  0  0
  -23.6100  -29.6700   19.8920 C   0  0  0  0  0  2  0  0  0  0  0  0
  -24.7230  -30.8470   21.8410 N   0  0  0  0  0  0  0  0  0  0  0  0
  -23.6360  -31.7570   23.6170 O   0  0  0  0  0  0  0  0  0  0  0  0
  -22.8940  -29.1290   22.2500 C   0  0  0  0  0  0  0  0  0  0  0  0
  -21.5860  -28.8460   22.1290 N   0  0  0  0  0  0  0  0  0  0  0  0
  -23.6350  -28.5270   23.0330 O   0  0  0  0  0  0  0  0  0  0  0  0
  -21.0420  -29.3870   21.4720 H   0  0  0  0  0  0  0  0  0  0  0  0
  -18.3470  -27.2920   22.5480 C   0  0  0  0  0  0  0  0  0  0  0  0
  -20.8610  -27.8090   22.8650 C   0  0  0  0  0  3  0  0  0  0  0  0
  -21.1200  -26.4120   22.2560 C   0  0  0  0  0  2  0  0  0  0  0  0
  -20.0710  -26.0030   21.2170 C   0  0  0  0  0  2  0  0  0  0  0  0
  -18.6720  -25.9860   21.8410 C   0  0  0  0  0  2  0  0  0  0  0  0
  -19.3740  -28.1560   23.0140 C   0  0  0  0  0  0  0  0  0  0  0  0
  -19.0170  -29.3740   23.6310 C   0  0  0  0  0  3  0  0  0  0  0  0
  -17.6650  -29.7310   23.7920 C   0  0  0  0  0  3  0  0  0  0  0  0
  -16.6520  -28.8660   23.3410 C   0  0  0  0  0  3  0  0  0  0  0  0
  -16.9930  -27.6500   22.7230 C   0  0  0  0  0  3  0  0  0  0  0  0
  -25.9860  -32.2120   23.5930 C   0  0  0  0  0  3  0  0  0  0  0  0
  -26.6120  -31.3740   24.7750 C   0  0  1  0  0  0  0  0  0  0  0  0
  -25.5940  -30.9940   25.8770 C   0  0  0  0  0  1  0  0  0  0  0  0
  -27.2430  -30.0660   24.2450 C   0  0  0  0  0  1  0  0  0  0  0  0
  -27.7550  -32.1790   25.4380 C   0  0  0  0  0  1  0  0  0  0  0  0
  -25.6410  -33.5670   24.0460 N   0  0  0  0  0  0  0  0  0  0  0  0
  -25.8870  -34.6880   23.3540 C   0  0  0  0  0  0  0  0  0  0  0  0
  -26.4990  -34.6910   22.2820 O   0  0  0  0  0  0  0  0  0  0  0  0
  -25.0850  -33.6350   24.8860 H   0  0  0  0  0  0  0  0  0  0  0  0
  -24.0670  -36.4210   23.2420 C   0  0  0  0  0  1  0  0  0  0  0  0
  -25.3720  -36.0150   23.9440 C   0  0  0  0  0  3  0  0  0  0  0  0
  -27.5120  -36.9420   24.7190 C   0  0  0  0  0  1  0  0  0  0  0  0
  -26.3510  -37.1210   23.8490 N   0  0  0  0  0  0  0  0  0  0  0  0
  -25.9150  -38.0100   24.0790 H   0  0  0  0  0  0  0  0  0  0  0  0
  -30.5530  -19.9990   23.5770 C   0  0  0  0  0  2  0  0  0  0  0  0
  -30.2020  -19.2350   22.5270 C   0  0  0  0  0  3  0  0  0  0  0  0
  1  3  1  0
  2  5  2  0
  2  6  1  0
  3 97  1  0
  4 16  1  0
  4  3  2  0
  5  4  1  0
  6  1  2  0
  7  5  1  0
  8 17  1  0
  9 14  1  0
 10 11  1  0
 10  9  1  0
 12 11  1  0
 12 23  1  0
 12 13  1  0
 14  8  1  0
 14 13  1  0
 15  8  2  0
 16 18  2  0
 17 16  1  0
 19 17  1  0
 20 21  2  0
 21 40  1  0
 22 25  1  0
 22 21  1  0
 23 24  1  0
 23 20  1  0
 24 22  2  0
 25 26  1  0
 26 27  2  0
 28 31  1  0
 28 27  1  0
 29 28  2  0
 30 29  1  0
 30 25  2  0
 31 32  1  0
 32 37  2  0
 32 33  1  0
 33 34  2  0
 34 35  1  0
 35 39  1  0
 36 35  2  0
 37 36  1  0
 38 37  1  0
 40 41  1  0
 41 43  1  0
 41 44  1  0
 42 40  2  0
 45 20  1  0
 45 46  1  0
 47 45  1  0
 48 49  1  0
 48 52  1  0
 49 50  1  0
 51 54  1  0
 51 50  1  0
 52  6  1  0
 52 51  1  0
 53 48  2  0
 54 55  1  0
 55 57  1  0
 56 67  2  0
 57 62  1  0
 58 66  1  0
 58 68  1  0
 59 65  1  0
 59 61  1  0
 60 66  1  0
 61 60  1  0
 62 61  2  0
 63 64  1  0
 63 57  2  0
 64 59  2  0
 65 58  1  0
 66 56  1  0
 68 70  2  0
 69 68  1  0
 71 69  1  0
 72 81  2  0
 72 77  1  0
 73 69  1  0
 73 77  1  0
 74 73  1  0
 75 76  1  0
 75 74  1  0
 76 72  1  0
 77 78  2  0
 78 79  1  0
 80 79  2  0
 81 80  1  0
 82 56  1  0
 82 87  1  0
 82 83  1  0
 83 86  1  1
 83 84  1  0
 85 83  1  0
 87 90  1  0
 88 92  1  0
 88 87  1  0
 89 88  2  0
 92 91  1  0
 94 92  1  0
 94 95  1  0
 94 93  1  0
 97 96  2  0
M  ISO  4   8 100  17 100  54 101  55 101
M  END
>  <TORSDO>  (27) 
F 19

>  <SCORE>  (27) 
-10.893

>  <name>  (27) 
26

>  <ligand_id>  (27) 
26

>  <original_smiles>  (27) 
[H]C([H])=C([H])c1c([H])c(N2C(=O)C([H])([H])C([H])([H])C2([H])C([H])([H])Oc2c([H])c([H])c3c(c2[H])C([H])([H])N(C(=O)C([H])(N([H])C(=O)C([H])(N([H])C([H])([H])[H])C([H])([H])[H])C(C([H])([H])[H])(C([H])([H])[H])C([H])([H])[H])C([H])(C(=O)N([H])C2([H])c4c([H])c([H])c([H])c([H])c4C([H])([H])C([H])([H])C2([H])[H])C3([H])[H])c([H])c(C([H])([H])[H])c1C(=O)N([H])C(=O)N1C([H])([H])C([H])([H])C([H])([H])C([H])(n2nc(-c3c([H])c([H])c(Oc4c([H])c([H])c(F)c([H])c4F)c([H])c3[H])c(C(=O)N([H])[H])c2N([H])[H])C1([H])[H]

>  <smiles>  (27) 
[H]C([H])=C([H])c1c([H])c(N2C(=O)C([H])([H])C([H])([H])C2([H])C([H])([H])Oc2c([H])c([H])c3c(c2[H])C([H])([H])N(C(=O)C([H])(N([H])C(=O)C([H])(N([H])C([H])([H])[H])C([H])([H])[H])C(C([H])([H])[H])(C([H])([H])[H])C([H])([H])[H])C([H])(C(=O)N([H])C2([H])c4c([H])c([H])c([H])c([H])c4C([H])([H])C([H])([H])C2([H])[H])C3([H])[H])c([H])c(C([H])([H])[H])c1C(=O)N([H])C(=O)N1C([H])([H])C([H])([H])C([H])([H])C([H])(n2nc(-c3c([H])c([H])c(Oc4c([H])c([H])c(F)c([H])c4F)c([H])c3[H])c(C(=O)N([H])[H])c2N([H])[H])C1([H])[H]

$$$$
27:0:0
     RDKit          3D

 96104  0  0  1  0  0  0  0  0999 V2000
  -30.0370  -18.9980   21.2860 C   0  0  0  0  0  3  0  0  0  0  0  0
  -29.8250  -20.6270   19.0340 C   0  0  0  0  0  3  0  0  0  0  0  0
  -30.2330  -18.4300   20.0100 C   0  0  0  0  0  0  0  0  0  0  0  0
  -30.0670  -19.2520   18.8680 C   0  0  0  0  0  0  0  0  0  0  0  0
  -29.7890  -20.3800   21.4580 C   0  0  0  0  0  0  0  0  0  0  0  0
  -29.7420  -21.2300   20.3130 C   0  0  0  0  0  0  0  0  0  0  0  0
  -30.6760  -17.0330   19.8680 C   0  0  0  0  0  3  0  0  0  0  0  0
  -30.3350  -15.9240   20.5660 C   0  0  0  0  0  3  0  0  0  0  0  0
  -31.0570  -14.7020   20.2180 C   0  0  0  0  0  0  0  0  0  0  0  0
  -30.6770  -12.5280   19.1620 C   0  0  0  0  0  2  0  0  0  0  0  0
  -29.7230  -12.7450   17.9690 C   0  0  0  0  0  2  0  0  0  0  0  0
  -28.2570  -12.6240   18.4260 C   0  0  0  0  0  2  0  0  0  0  0  0
  -27.9500  -13.4750   19.6870 C   0  0  0  0  0  3  0  0  0  0  0  0
  -29.0300  -13.2840   20.7750 C   0  0  0  0  0  2  0  0  0  0  0  0
  -30.3460  -13.5430   20.1750 N   0  0  0  0  0  0  0  0  0  0  0  0
  -32.2140  -14.7620   19.7960 O   0  0  0  0  0  0  0  0  0  0  0  0
  -25.5910  -14.0810   20.5180 C   0  0  0  0  0  0  0  0  0  0  0  0
  -24.5250  -13.3070   20.8870 C   0  0  0  0  0  0  0  0  0  0  0  0
  -24.9620  -11.9520   20.7770 C   0  0  0  0  0  0  0  0  0  0  0  0
  -26.6110  -13.1970   20.2050 N   0  0  0  0  0  0  0  0  0  0  0  0
  -26.2390  -11.9070   20.4200 N   0  0  0  0  0  0  0  0  0  0  0  0
  -24.2200  -10.6930   20.9360 C   0  0  0  0  0  0  0  0  0  0  0  0
  -24.6340   -9.7010   21.8530 C   0  0  0  0  0  3  0  0  0  0  0  0
  -23.8930   -8.5080   22.0010 C   0  0  0  0  0  3  0  0  0  0  0  0
  -22.7240   -8.2990   21.2290 C   0  0  0  0  0  0  0  0  0  0  0  0
  -22.3290   -9.2800   20.3030 C   0  0  0  0  0  3  0  0  0  0  0  0
  -23.0710  -10.4630   20.1530 C   0  0  0  0  0  3  0  0  0  0  0  0
  -21.9560   -7.1610   21.2870 O   0  0  0  0  0  0  0  0  0  0  0  0
  -21.8500   -6.4220   22.4380 C   0  0  0  0  0  0  0  0  0  0  0  0
  -21.3680   -6.9810   23.6420 C   0  0  0  0  0  3  0  0  0  0  0  0
  -21.2090   -6.1690   24.7820 C   0  0  0  0  0  3  0  0  0  0  0  0
  -21.5210   -4.7980   24.7190 C   0  0  0  0  0  0  0  0  0  0  0  0
  -21.9960   -4.2380   23.5200 C   0  0  0  0  0  3  0  0  0  0  0  0
  -22.1580   -5.0470   22.3820 C   0  0  0  0  0  0  0  0  0  0  0  0
  -22.5950   -4.4980   21.2240 F   0  0  0  0  0  0  0  0  0  0  0  0
  -21.3610   -4.0140   25.8110 F   0  0  0  0  0  0  0  0  0  0  0  0
  -23.1460  -13.7920   21.2310 C   0  0  0  0  0  0  0  0  0  0  0  0
  -22.4530  -13.0870   22.1180 N   0  0  0  0  0  0  0  0  0  0  0  0
  -22.6960  -14.8320   20.7500 O   0  0  0  0  0  0  0  0  0  0  0  0
  -22.8330  -12.2480   22.5290 H   0  0  0  0  0  0  0  0  0  0  0  0
  -21.5290  -13.3930   22.3910 H   0  0  0  0  0  0  0  0  0  0  0  0
  -25.7760  -15.4550   20.4020 N   0  0  0  0  0  0  0  0  0  0  0  0
  -25.0300  -16.1190   20.5790 H   0  0  0  0  0  0  0  0  0  0  0  0
  -26.6340  -15.8950   20.0950 H   0  0  0  0  0  0  0  0  0  0  0  0
  -30.1570  -18.7320   17.4350 C   0  0  0  0  0  2  0  0  0  0  0  0
  -28.9600  -18.5950   15.1840 C   0  0  0  0  0  1  0  0  0  0  0  0
  -28.8220  -18.8630   16.6880 C   0  0  0  0  0  2  0  0  0  0  0  0
  -29.6600  -22.6050   20.4650 O   0  0  0  0  0  0  0  0  0  0  0  0
  -29.7460  -23.4120   19.2930 C   0  0  0  0  0  2  0  0  0  0  0  0
  -29.7420  -24.8980   19.5880 C   0  0  0  0  0  3  0  0  0  0  0  0
  -28.6260  -25.5960   19.8380 C   0  0  0  0  0  3  0  0  0  0  0  0
  -28.6180  -26.9640   19.9640 O   0  0  0  0  0  0  0  0  0  0  0  0
  -24.6590  -31.9380   23.1370 C   0  0  0  0  0  0  0  0  0  0  0  0
  -27.4130  -27.6360   19.9700 C   0  0  0  0  0  0  0  0  0  0  0  0
  -23.4850  -30.5330   21.4740 C   0  0  0  0  0  3  0  0  0  0  0  0
  -24.9750  -29.0690   20.0160 C   0  0  0  0  0  0  0  0  0  0  0  0
  -25.9990  -30.9670   21.2780 C   0  0  0  0  0  2  0  0  0  0  0  0
  -26.1180  -29.6110   20.6180 C   0  0  0  0  0  0  0  0  0  0  0  0
  -27.3370  -28.8970   20.6010 C   0  0  0  0  0  3  0  0  0  0  0  0
  -26.2550  -27.1230   19.3360 C   0  0  0  0  0  3  0  0  0  0  0  0
  -25.0380  -27.8220   19.3750 C   0  0  0  0  0  3  0  0  0  0  0  0
  -23.7080  -29.8880   20.0800 C   0  0  0  0  0  2  0  0  0  0  0  0
  -24.7320  -31.1610   22.0210 N   0  0  0  0  0  0  0  0  0  0  0  0
  -23.5720  -32.1710   23.6850 O   0  0  0  0  0  0  0  0  0  0  0  0
  -22.8690  -29.4740   22.4150 C   0  0  0  0  0  0  0  0  0  0  0  0
  -21.5460  -29.2770   22.3060 N   0  0  0  0  0  0  0  0  0  0  0  0
  -23.5770  -28.8360   23.1980 O   0  0  0  0  0  0  0  0  0  0  0  0
  -21.0350  -29.8460   21.6460 H   0  0  0  0  0  0  0  0  0  0  0  0
  -18.1940  -28.0470   22.8560 C   0  0  0  0  0  0  0  0  0  0  0  0
  -20.7570  -28.3080   23.0660 C   0  0  0  0  0  3  0  0  0  0  0  0
  -20.8500  -26.8990   22.4360 C   0  0  0  0  0  2  0  0  0  0  0  0
  -19.7220  -26.6070   21.4410 C   0  0  0  0  0  2  0  0  0  0  0  0
  -18.3580  -26.7240   22.1280 C   0  0  0  0  0  2  0  0  0  0  0  0
  -19.3210  -28.7990   23.2820 C   0  0  0  0  0  0  0  0  0  0  0  0
  -19.1150  -30.0400   23.9210 C   0  0  0  0  0  3  0  0  0  0  0  0
  -17.8150  -30.5300   24.1390 C   0  0  0  0  0  3  0  0  0  0  0  0
  -16.7020  -29.7760   23.7300 C   0  0  0  0  0  3  0  0  0  0  0  0
  -16.8930  -28.5360   23.0940 C   0  0  0  0  0  3  0  0  0  0  0  0
  -25.9300  -32.5930   23.7620 C   0  0  0  0  0  3  0  0  0  0  0  0
  -26.4830  -31.8070   25.0150 C   0  0  1  0  0  0  0  0  0  0  0  0
  -25.4050  -31.5050   26.0800 C   0  0  0  0  0  1  0  0  0  0  0  0
  -27.1110  -30.4620   24.5830 C   0  0  0  0  0  1  0  0  0  0  0  0
  -27.6090  -32.6240   25.6910 C   0  0  0  0  0  1  0  0  0  0  0  0
  -25.5840  -33.9740   24.1240 N   0  0  0  0  0  0  0  0  0  0  0  0
  -25.8810  -35.0510   23.3850 C   0  0  0  0  0  0  0  0  0  0  0  0
  -26.5490  -34.9880   22.3480 O   0  0  0  0  0  0  0  0  0  0  0  0
  -24.9920  -34.0950   24.9320 H   0  0  0  0  0  0  0  0  0  0  0  0
  -24.0970  -36.7940   23.0730 C   0  0  0  0  0  1  0  0  0  0  0  0
  -25.3540  -36.4140   23.8720 C   0  0  0  0  0  3  0  0  0  0  0  0
  -27.4640  -37.3450   24.7140 C   0  0  0  0  0  1  0  0  0  0  0  0
  -26.3530  -37.5000   23.7780 N   0  0  0  0  0  0  0  0  0  0  0  0
  -25.9200  -38.4040   23.9480 H   0  0  0  0  0  0  0  0  0  0  0  0
  -29.6740  -20.7940   22.7700 O   0  0  0  0  0  0  0  0  0  0  0  0
  -29.1120  -22.0680   23.0680 C   0  0  0  0  0  2  0  0  0  0  0  0
  -29.7150  -24.5090   23.5300 C   0  0  0  0  0  1  0  0  0  0  0  0
  -30.2230  -23.0650   23.4410 C   0  0  0  0  0  2  0  0  0  0  0  0
  1  5  1  0
  2  6  1  0
  3  1  2  0
  4  2  2  0
  4  3  1  0
  5 93  1  0
  6 48  1  0
  6  5  2  0
  7  3  1  0
  7  8  2  0
  9  8  1  0
 10 15  1  0
 11 12  1  0
 11 10  1  0
 13 12  1  0
 13 20  1  0
 13 14  1  0
 15  9  1  0
 15 14  1  0
 16  9  2  0
 17 18  2  0
 18 37  1  0
 19 18  1  0
 19 22  1  0
 20 21  1  0
 20 17  1  0
 21 19  2  0
 22 23  1  0
 23 24  2  0
 25 28  1  0
 25 24  1  0
 26 25  2  0
 27 26  1  0
 27 22  2  0
 28 29  1  0
 29 30  1  0
 30 31  2  0
 32 31  1  0
 32 36  1  0
 33 32  2  0
 34 29  2  0
 34 33  1  0
 35 34  1  0
 37 38  1  0
 38 41  1  0
 38 40  1  0
 39 37  2  0
 42 17  1  0
 42 43  1  0
 44 42  1  0
 45  4  1  0
 46 47  1  0
 47 45  1  0
 49 50  1  0
 49 48  1  0
 50 51  2  0
 51 52  1  0
 52 54  1  0
 53 64  2  0
 54 59  1  0
 55 63  1  0
 55 65  1  0
 56 62  1  0
 56 58  1  0
 57 63  1  0
 58 57  1  0
 59 58  2  0
 60 61  1  0
 60 54  2  0
 61 56  2  0
 62 55  1  0
 63 53  1  0
 65 67  2  0
 66 65  1  0
 68 66  1  0
 69 78  2  0
 69 74  1  0
 70 66  1  0
 70 74  1  0
 71 70  1  0
 72 73  1  0
 72 71  1  0
 73 69  1  0
 74 75  2  0
 75 76  1  0
 77 76  2  0
 78 77  1  0
 79 53  1  0
 79 84  1  0
 79 80  1  0
 80 83  1  1
 80 81  1  0
 82 80  1  0
 84 87  1  0
 85 89  1  0
 85 84  1  0
 86 85  2  0
 89 88  1  0
 91 89  1  0
 91 92  1  0
 91 90  1  0
 93 94  1  0
 94 96  1  0
 96 95  1  0
M  ISO  4   8 100   9 100  51 101  52 101
M  END
>  <TORSDO>  (28) 
F 25

>  <SCORE>  (28) 
-11.459

>  <name>  (28) 
27

>  <ligand_id>  (28) 
27

>  <original_smiles>  (28) 
[H]C(Oc1c([H])c([H])c2c(c1[H])C([H])([H])N(C(=O)C([H])(N([H])C(=O)C([H])(N([H])C([H])([H])[H])C([H])([H])[H])C(C([H])([H])[H])(C([H])([H])[H])C([H])([H])[H])C([H])(C(=O)N([H])C1([H])c3c([H])c([H])c([H])c([H])c3C([H])([H])C([H])([H])C1([H])[H])C2([H])[H])=C([H])C([H])([H])Oc1c([H])c(C([H])([H])C([H])([H])C([H])([H])[H])c(C([H])=C([H])C(=O)N2C([H])([H])C([H])([H])C([H])([H])C([H])(n3nc(-c4c([H])c([H])c(Oc5c([H])c([H])c(F)c([H])c5F)c([H])c4[H])c(C(=O)N([H])[H])c3N([H])[H])C2([H])[H])c([H])c1OC([H])([H])C([H])([H])C([H])([H])[H]

>  <smiles>  (28) 
[H]C(Oc1c([H])c([H])c2c(c1[H])C([H])([H])N(C(=O)C([H])(N([H])C(=O)C([H])(N([H])C([H])([H])[H])C([H])([H])[H])C(C([H])([H])[H])(C([H])([H])[H])C([H])([H])[H])C([H])(C(=O)N([H])C1([H])c3c([H])c([H])c([H])c([H])c3C([H])([H])C([H])([H])C1([H])[H])C2([H])[H])=C([H])C([H])([H])Oc1c([H])c(C([H])([H])C([H])([H])C([H])([H])[H])c(C([H])=C([H])C(=O)N2C([H])([H])C([H])([H])C([H])([H])C([H])(n3nc(-c4c([H])c([H])c(Oc5c([H])c([H])c(F)c([H])c5F)c([H])c4[H])c(C(=O)N([H])[H])c3N([H])[H])C2([H])[H])c([H])c1OC([H])([H])C([H])([H])C([H])([H])[H]

$$$$
28:0:0
     RDKit          3D

 92100  0  0  1  0  0  0  0  0999 V2000
  -29.5560  -19.7600   18.7640 C   0  0  0  0  0  3  0  0  0  0  0  0
  -29.8830  -17.3280   18.7500 C   0  0  0  0  0  3  0  0  0  0  0  0
  -29.6790  -18.5230   20.8560 C   0  0  0  0  0  3  0  0  0  0  0  0
  -29.7320  -18.5480   18.0540 C   0  0  0  0  0  0  0  0  0  0  0  0
  -29.5390  -19.8050   20.1760 C   0  0  0  0  0  0  0  0  0  0  0  0
  -29.8600  -17.2570   20.1600 C   0  0  0  0  0  0  0  0  0  0  0  0
  -30.6230  -14.7960   20.4090 C   0  0  0  0  0  0  0  0  0  0  0  0
  -30.4250  -12.5230   19.4040 C   0  0  0  0  0  2  0  0  0  0  0  0
  -29.4990  -12.6160   18.1700 C   0  0  0  0  0  2  0  0  0  0  0  0
  -28.0250  -12.4500   18.5840 C   0  0  0  0  0  2  0  0  0  0  0  0
  -27.6450  -13.3270   19.8070 C   0  0  0  0  0  3  0  0  0  0  0  0
  -28.6930  -13.2200   20.9400 C   0  0  0  0  0  2  0  0  0  0  0  0
  -30.0020  -13.5660   20.3690 N   0  0  0  0  0  0  0  0  0  0  0  0
  -31.7820  -14.9100   20.0010 O   0  0  0  0  0  0  0  0  0  0  0  0
  -29.8930  -15.9130   20.7860 N   0  0  0  0  0  0  0  0  0  0  0  0
  -29.0890  -15.7000   21.3580 H   0  0  0  0  0  0  0  0  0  0  0  0
  -25.2460  -13.9120   20.5060 C   0  0  0  0  0  0  0  0  0  0  0  0
  -24.1780  -13.1360   20.8690 C   0  0  0  0  0  0  0  0  0  0  0  0
  -24.6460  -11.7860   20.8440 C   0  0  0  0  0  0  0  0  0  0  0  0
  -26.2940  -13.0360   20.2810 N   0  0  0  0  0  0  0  0  0  0  0  0
  -25.9390  -11.7510   20.5470 N   0  0  0  0  0  0  0  0  0  0  0  0
  -23.9210  -10.5210   21.0320 C   0  0  0  0  0  0  0  0  0  0  0  0
  -24.3450   -9.5580   21.9750 C   0  0  0  0  0  3  0  0  0  0  0  0
  -23.6180   -8.3610   22.1500 C   0  0  0  0  0  3  0  0  0  0  0  0
  -22.4540   -8.1170   21.3830 C   0  0  0  0  0  0  0  0  0  0  0  0
  -22.0500   -9.0680   20.4300 C   0  0  0  0  0  3  0  0  0  0  0  0
  -22.7770  -10.2570   20.2530 C   0  0  0  0  0  3  0  0  0  0  0  0
  -21.7020   -6.9700   21.4680 O   0  0  0  0  0  0  0  0  0  0  0  0
  -21.6340   -6.2360   22.6240 C   0  0  0  0  0  0  0  0  0  0  0  0
  -21.1710   -6.7940   23.8360 C   0  0  0  0  0  3  0  0  0  0  0  0
  -21.0520   -5.9860   24.9840 C   0  0  0  0  0  3  0  0  0  0  0  0
  -21.3870   -4.6200   24.9210 C   0  0  0  0  0  0  0  0  0  0  0  0
  -21.8460   -4.0610   23.7150 C   0  0  0  0  0  3  0  0  0  0  0  0
  -21.9650   -4.8670   22.5690 C   0  0  0  0  0  0  0  0  0  0  0  0
  -22.3870   -4.3180   21.4040 F   0  0  0  0  0  0  0  0  0  0  0  0
  -21.2660   -3.8400   26.0210 F   0  0  0  0  0  0  0  0  0  0  0  0
  -22.7790  -13.6100   21.1280 C   0  0  0  0  0  0  0  0  0  0  0  0
  -22.0430  -12.9110   21.9860 N   0  0  0  0  0  0  0  0  0  0  0  0
  -22.3450  -14.6360   20.6050 O   0  0  0  0  0  0  0  0  0  0  0  0
  -22.4060  -12.0840   22.4330 H   0  0  0  0  0  0  0  0  0  0  0  0
  -21.1030  -13.2120   22.2010 H   0  0  0  0  0  0  0  0  0  0  0  0
  -25.4080  -15.2830   20.3290 N   0  0  0  0  0  0  0  0  0  0  0  0
  -24.6400  -15.9350   20.4410 H   0  0  0  0  0  0  0  0  0  0  0  0
  -26.2580  -15.7230   20.0010 H   0  0  0  0  0  0  0  0  0  0  0  0
  -29.4350  -19.5200   15.7490 C   0  0  0  0  0  2  0  0  0  0  0  0
  -29.7320  -18.5050   16.5790 C   0  0  0  0  0  3  0  0  0  0  0  0
  -29.4000  -21.1950   20.8770 C   0  0  0  0  0  0  0  0  0  0  0  0
  -29.7630  -21.2940   22.0530 O   0  0  0  0  0  0  0  0  0  0  0  0
  -28.7990  -22.4380   20.1830 C   0  0  0  0  0  3  0  0  0  0  0  0
  -28.7880  -23.7530   20.6370 C   0  0  0  0  0  3  0  0  0  0  0  0
  -28.0050  -24.9650   19.9780 C   0  0  0  0  0  2  0  0  0  0  0  0
  -28.2770  -26.4100   20.3080 O   0  0  0  0  0  0  0  0  0  0  0  0
  -24.6060  -31.9580   23.2220 C   0  0  0  0  0  0  0  0  0  0  0  0
  -27.2010  -27.3320   20.2030 C   0  0  0  0  0  0  0  0  0  0  0  0
  -23.4060  -30.5600   21.5840 C   0  0  0  0  0  3  0  0  0  0  0  0
  -24.8570  -29.0020   20.1630 C   0  0  0  0  0  0  0  0  0  0  0  0
  -25.9530  -30.8520   21.4180 C   0  0  0  0  0  2  0  0  0  0  0  0
  -26.0280  -29.4680   20.7740 C   0  0  0  0  0  0  0  0  0  0  0  0
  -27.2010  -28.6440   20.7890 C   0  0  0  0  0  3  0  0  0  0  0  0
  -26.0130  -26.9560   19.5300 C   0  0  0  0  0  3  0  0  0  0  0  0
  -24.8560  -27.7540   19.5290 C   0  0  0  0  0  3  0  0  0  0  0  0
  -23.6250  -29.8830   20.2050 C   0  0  0  0  0  2  0  0  0  0  0  0
  -24.6740  -31.1420   22.1300 N   0  0  0  0  0  0  0  0  0  0  0  0
  -23.5200  -32.2440   23.7490 O   0  0  0  0  0  0  0  0  0  0  0  0
  -22.7340  -29.5480   22.5430 C   0  0  0  0  0  0  0  0  0  0  0  0
  -21.4070  -29.3770   22.4130 N   0  0  0  0  0  0  0  0  0  0  0  0
  -23.4060  -28.9210   23.3660 O   0  0  0  0  0  0  0  0  0  0  0  0
  -20.9240  -29.9350   21.7230 H   0  0  0  0  0  0  0  0  0  0  0  0
  -18.0180  -28.2100   22.9200 C   0  0  0  0  0  0  0  0  0  0  0  0
  -20.5800  -28.4460   23.1840 C   0  0  0  0  0  3  0  0  0  0  0  0
  -20.6670  -27.0130   22.6100 C   0  0  0  0  0  2  0  0  0  0  0  0
  -19.5600  -26.7010   21.5980 C   0  0  0  0  0  2  0  0  0  0  0  0
  -18.1820  -26.8590   22.2450 C   0  0  0  0  0  2  0  0  0  0  0  0
  -19.1450  -28.9610   23.3480 C   0  0  0  0  0  0  0  0  0  0  0  0
  -18.9380  -30.2260   23.9430 C   0  0  0  0  0  3  0  0  0  0  0  0
  -17.6390  -30.7380   24.1120 C   0  0  0  0  0  3  0  0  0  0  0  0
  -16.5270  -29.9840   23.7000 C   0  0  0  0  0  3  0  0  0  0  0  0
  -16.7170  -28.7200   23.1110 C   0  0  0  0  0  3  0  0  0  0  0  0
  -25.8870  -32.5910   23.8470 C   0  0  0  0  0  3  0  0  0  0  0  0
  -26.3990  -31.8200   25.1260 C   0  0  1  0  0  0  0  0  0  0  0  0
  -25.3010  -31.5830   26.1890 C   0  0  0  0  0  1  0  0  0  0  0  0
  -26.9840  -30.4420   24.7390 C   0  0  0  0  0  1  0  0  0  0  0  0
  -27.5460  -32.6160   25.7920 C   0  0  0  0  0  1  0  0  0  0  0  0
  -25.5760  -33.9890   24.1780 N   0  0  0  0  0  0  0  0  0  0  0  0
  -25.9020  -35.0430   23.4170 C   0  0  0  0  0  0  0  0  0  0  0  0
  -26.5660  -34.9390   22.3810 O   0  0  0  0  0  0  0  0  0  0  0  0
  -24.9860  -34.1440   24.9810 H   0  0  0  0  0  0  0  0  0  0  0  0
  -24.1730  -36.8370   23.0720 C   0  0  0  0  0  1  0  0  0  0  0  0
  -25.4170  -36.4310   23.8770 C   0  0  0  0  0  3  0  0  0  0  0  0
  -27.5540  -37.3190   24.7020 C   0  0  0  0  0  1  0  0  0  0  0  0
  -26.4500  -37.4840   23.7610 N   0  0  0  0  0  0  0  0  0  0  0  0
  -26.0440  -38.4040   23.9070 H   0  0  0  0  0  0  0  0  0  0  0  0
  1  5  1  0
  2  6  2  0
  4  2  1  0
  4  1  2  0
  5  3  2  0
  5 47  1  0
  6 15  1  0
  6  3  1  0
  7 15  1  0
  8 13  1  0
  9 10  1  0
  9  8  1  0
 11 10  1  0
 11 20  1  0
 11 12  1  0
 13  7  1  0
 13 12  1  0
 14  7  2  0
 15 16  1  0
 17 18  2  0
 18 37  1  0
 19 18  1  0
 19 22  1  0
 20 17  1  0
 20 21  1  0
 21 19  2  0
 22 23  1  0
 23 24  2  0
 25 28  1  0
 25 24  1  0
 26 25  2  0
 27 26  1  0
 27 22  2  0
 28 29  1  0
 29 30  1  0
 30 31  2  0
 32 31  1  0
 32 36  1  0
 33 32  2  0
 34 29  2  0
 34 33  1  0
 35 34  1  0
 37 38  1  0
 38 41  1  0
 38 40  1  0
 39 37  2  0
 42 43  1  0
 42 17  1  0
 44 42  1  0
 45 46  2  0
 46  4  1  0
 47 48  2  0
 49 50  2  0
 49 47  1  0
 51 52  1  0
 51 50  1  0
 53 64  2  0
 54 52  1  0
 54 59  1  0
 55 63  1  0
 55 65  1  0
 56 62  1  0
 56 58  1  0
 57 63  1  0
 58 59  2  0
 58 57  1  0
 60 54  2  0
 61 60  1  0
 61 56  2  0
 62 55  1  0
 63 53  1  0
 65 67  2  0
 66 65  1  0
 68 66  1  0
 69 78  2  0
 69 74  1  0
 70 66  1  0
 70 74  1  0
 71 70  1  0
 72 73  1  0
 72 71  1  0
 73 69  1  0
 74 75  2  0
 75 76  1  0
 77 76  2  0
 78 77  1  0
 79 53  1  0
 79 84  1  0
 79 80  1  0
 80 83  1  1
 80 81  1  0
 82 80  1  0
 84 87  1  0
 85 89  1  0
 85 84  1  0
 86 85  2  0
 89 88  1  0
 91 89  1  0
 91 92  1  0
 91 90  1  0
M  ISO  4   7 100  15 100  51 101  52 101
M  END
>  <TORSDO>  (29) 
F 20

>  <SCORE>  (29) 
-14.023

>  <name>  (29) 
28

>  <ligand_id>  (29) 
28

>  <original_smiles>  (29) 
[H]C([H])=C([H])c1c([H])c(C(=O)C([H])=C([H])C([H])([H])Oc2c([H])c([H])c3c(c2[H])C([H])([H])N(C(=O)C([H])(N([H])C(=O)C([H])(N([H])C([H])([H])[H])C([H])([H])[H])C(C([H])([H])[H])(C([H])([H])[H])C([H])([H])[H])C([H])(C(=O)N([H])C2([H])c4c([H])c([H])c([H])c([H])c4C([H])([H])C([H])([H])C2([H])[H])C3([H])[H])c([H])c(N([H])C(=O)N2C([H])([H])C([H])([H])C([H])([H])C([H])(n3nc(-c4c([H])c([H])c(Oc5c([H])c([H])c(F)c([H])c5F)c([H])c4[H])c(C(=O)N([H])[H])c3N([H])[H])C2([H])[H])c1[H]

>  <smiles>  (29) 
[H]C([H])=C([H])c1c([H])c(C(=O)C([H])=C([H])C([H])([H])Oc2c([H])c([H])c3c(c2[H])C([H])([H])N(C(=O)C([H])(N([H])C(=O)C([H])(N([H])C([H])([H])[H])C([H])([H])[H])C(C([H])([H])[H])(C([H])([H])[H])C([H])([H])[H])C([H])(C(=O)N([H])C2([H])c4c([H])c([H])c([H])c([H])c4C([H])([H])C([H])([H])C2([H])[H])C3([H])[H])c([H])c(N([H])C(=O)N2C([H])([H])C([H])([H])C([H])([H])C([H])(n3nc(-c4c([H])c([H])c(Oc5c([H])c([H])c(F)c([H])c5F)c([H])c4[H])c(C(=O)N([H])[H])c3N([H])[H])C2([H])[H])c1[H]

$$$$
29:0:0
     RDKit          3D

 94102  0  0  1  0  0  0  0  0999 V2000
  -29.5300  -18.0570   20.9020 C   0  0  0  0  0  3  0  0  0  0  0  0
  -29.4800  -16.8400   18.7930 C   0  0  0  0  0  3  0  0  0  0  0  0
  -29.6820  -16.8310   20.1930 C   0  0  0  0  0  0  0  0  0  0  0  0
  -28.9030  -19.2160   18.8490 C   0  0  0  0  0  0  0  0  0  0  0  0
  -29.1830  -19.2700   20.2410 C   0  0  0  0  0  0  0  0  0  0  0  0
  -29.0840  -18.0150   18.1340 C   0  0  0  0  0  0  0  0  0  0  0  0
  -28.8150  -17.9770   16.8040 F   0  0  0  0  0  0  0  0  0  0  0  0
  -30.6370  -14.5610   20.3820 C   0  0  0  0  0  0  0  0  0  0  0  0
  -30.3330  -12.4230   19.2010 C   0  0  0  0  0  2  0  0  0  0  0  0
  -29.3850  -12.6780   18.0080 C   0  0  0  0  0  2  0  0  0  0  0  0
  -27.9110  -12.5530   18.4410 C   0  0  0  0  0  2  0  0  0  0  0  0
  -27.5920  -13.3380   19.7410 C   0  0  0  0  0  3  0  0  0  0  0  0
  -28.6540  -13.0680   20.8330 C   0  0  0  0  0  2  0  0  0  0  0  0
  -29.9770  -13.3750   20.2670 N   0  0  0  0  0  0  0  0  0  0  0  0
  -31.7630  -14.7500   19.9170 O   0  0  0  0  0  0  0  0  0  0  0  0
  -29.9150  -15.5900   20.8790 N   0  0  0  0  0  0  0  0  0  0  0  0
  -29.1680  -15.3080   21.4980 H   0  0  0  0  0  0  0  0  0  0  0  0
  -25.1850  -13.9320   20.4360 C   0  0  0  0  0  0  0  0  0  0  0  0
  -24.1210  -13.1550   20.8090 C   0  0  0  0  0  0  0  0  0  0  0  0
  -24.5930  -11.8060   20.7920 C   0  0  0  0  0  0  0  0  0  0  0  0
  -26.2380  -13.0560   20.2180 N   0  0  0  0  0  0  0  0  0  0  0  0
  -25.8850  -11.7740   20.4880 N   0  0  0  0  0  0  0  0  0  0  0  0
  -23.8760  -10.5400   20.9930 C   0  0  0  0  0  0  0  0  0  0  0  0
  -24.3210   -9.5790   21.9270 C   0  0  0  0  0  3  0  0  0  0  0  0
  -23.6050   -8.3780   22.1150 C   0  0  0  0  0  3  0  0  0  0  0  0
  -22.4300   -8.1270   21.3690 C   0  0  0  0  0  0  0  0  0  0  0  0
  -22.0020   -9.0780   20.4260 C   0  0  0  0  0  3  0  0  0  0  0  0
  -22.7190  -10.2710   20.2350 C   0  0  0  0  0  3  0  0  0  0  0  0
  -21.6840   -6.9780   21.4670 O   0  0  0  0  0  0  0  0  0  0  0  0
  -21.6560   -6.2340   22.6190 C   0  0  0  0  0  0  0  0  0  0  0  0
  -21.2590   -6.7890   23.8550 C   0  0  0  0  0  3  0  0  0  0  0  0
  -21.1770   -5.9700   24.9990 C   0  0  0  0  0  3  0  0  0  0  0  0
  -21.4850   -4.5990   24.9090 C   0  0  0  0  0  0  0  0  0  0  0  0
  -21.8760   -4.0440   23.6780 C   0  0  0  0  0  3  0  0  0  0  0  0
  -21.9580   -4.8600   22.5360 C   0  0  0  0  0  0  0  0  0  0  0  0
  -22.3150   -4.3150   21.3480 F   0  0  0  0  0  0  0  0  0  0  0  0
  -21.3990   -3.8110   26.0080 F   0  0  0  0  0  0  0  0  0  0  0  0
  -22.7220  -13.6250   21.0770 C   0  0  0  0  0  0  0  0  0  0  0  0
  -21.9980  -12.9320   21.9500 N   0  0  0  0  0  0  0  0  0  0  0  0
  -22.2760  -14.6430   20.5470 O   0  0  0  0  0  0  0  0  0  0  0  0
  -22.3680  -12.1080   22.3990 H   0  0  0  0  0  0  0  0  0  0  0  0
  -21.0590  -13.2310   22.1710 H   0  0  0  0  0  0  0  0  0  0  0  0
  -25.3420  -15.3020   20.2460 N   0  0  0  0  0  0  0  0  0  0  0  0
  -24.5730  -15.9530   20.3500 H   0  0  0  0  0  0  0  0  0  0  0  0
  -26.1940  -15.7450   19.9290 H   0  0  0  0  0  0  0  0  0  0  0  0
  -28.3630  -20.3010   18.1570 N   0  0  0  0  0  0  0  0  0  0  0  0
  -27.8140  -20.9500   18.7090 H   0  0  0  0  0  0  0  0  0  0  0  0
  -27.9190  -20.0650   17.2760 H   0  0  0  0  0  0  0  0  0  0  0  0
  -29.0160  -20.4200   21.0050 O   0  0  0  0  0  0  0  0  0  0  0  0
  -29.6360  -21.6610   20.6030 C   0  0  0  0  0  2  0  0  0  0  0  0
  -28.7090  -22.8540   20.9600 C   0  0  0  0  0  2  0  0  0  0  0  0
  -29.1560  -24.2640   20.4720 C   0  0  0  0  0  2  0  0  0  0  0  0
  -28.2620  -25.4020   21.0350 C   0  0  0  0  0  2  0  0  0  0  0  0
  -28.4530  -26.7000   20.4230 O   0  0  0  0  0  0  0  0  0  0  0  0
  -24.5870  -31.9730   23.2980 C   0  0  0  0  0  0  0  0  0  0  0  0
  -27.3090  -27.4750   20.3580 C   0  0  0  0  0  0  0  0  0  0  0  0
  -23.4240  -30.5400   21.6520 C   0  0  0  0  0  3  0  0  0  0  0  0
  -24.9170  -28.9900   20.2800 C   0  0  0  0  0  0  0  0  0  0  0  0
  -25.9540  -30.9040   21.5060 C   0  0  0  0  0  2  0  0  0  0  0  0
  -26.0610  -29.5230   20.8870 C   0  0  0  0  0  0  0  0  0  0  0  0
  -27.2630  -28.7750   20.9210 C   0  0  0  0  0  3  0  0  0  0  0  0
  -26.1520  -26.9710   19.7250 C   0  0  0  0  0  3  0  0  0  0  0  0
  -24.9590  -27.7140   19.6920 C   0  0  0  0  0  3  0  0  0  0  0  0
  -23.6680  -29.8420   20.2860 C   0  0  0  0  0  2  0  0  0  0  0  0
  -24.6720  -31.1550   22.2100 N   0  0  0  0  0  0  0  0  0  0  0  0
  -23.4920  -32.2480   23.8090 O   0  0  0  0  0  0  0  0  0  0  0  0
  -22.7550  -29.5300   22.6130 C   0  0  0  0  0  0  0  0  0  0  0  0
  -21.4330  -29.3510   22.4690 N   0  0  0  0  0  0  0  0  0  0  0  0
  -23.4250  -28.9120   23.4440 O   0  0  0  0  0  0  0  0  0  0  0  0
  -20.9540  -29.9010   21.7680 H   0  0  0  0  0  0  0  0  0  0  0  0
  -18.0440  -28.1850   22.9400 C   0  0  0  0  0  0  0  0  0  0  0  0
  -20.6010  -28.4240   23.2370 C   0  0  0  0  0  3  0  0  0  0  0  0
  -20.6980  -26.9900   22.6700 C   0  0  0  0  0  2  0  0  0  0  0  0
  -19.6050  -26.6690   21.6460 C   0  0  0  0  0  2  0  0  0  0  0  0
  -18.2170  -26.8300   22.2750 C   0  0  0  0  0  2  0  0  0  0  0  0
  -19.1640  -28.9400   23.3770 C   0  0  0  0  0  0  0  0  0  0  0  0
  -18.9500  -30.2100   23.9570 C   0  0  0  0  0  3  0  0  0  0  0  0
  -17.6480  -30.7230   24.1050 C   0  0  0  0  0  3  0  0  0  0  0  0
  -16.5410  -29.9640   23.6850 C   0  0  0  0  0  3  0  0  0  0  0  0
  -16.7410  -28.6970   23.1090 C   0  0  0  0  0  3  0  0  0  0  0  0
  -25.8560  -32.6190   23.9360 C   0  0  0  0  0  3  0  0  0  0  0  0
  -25.5350  -34.0200   24.2380 N   0  0  0  0  0  0  0  0  0  0  0  0
  -25.8760  -35.0610   23.4660 C   0  0  0  0  0  0  0  0  0  0  0  0
  -26.5640  -34.9430   22.4480 O   0  0  0  0  0  0  0  0  0  0  0  0
  -24.9270  -34.1860   25.0260 H   0  0  0  0  0  0  0  0  0  0  0  0
  -24.1430  -36.8330   23.0510 C   0  0  0  0  0  1  0  0  0  0  0  0
  -25.3740  -36.4540   23.8900 C   0  0  0  0  0  3  0  0  0  0  0  0
  -27.4930  -37.3650   24.7320 C   0  0  0  0  0  1  0  0  0  0  0  0
  -26.4020  -37.5110   23.7710 N   0  0  0  0  0  0  0  0  0  0  0  0
  -25.9900  -38.4320   23.8980 H   0  0  0  0  0  0  0  0  0  0  0  0
  -26.3510  -31.8680   25.2330 C   0  0  1  0  0  0  0  0  0  0  0  0
  -25.2390  -31.6390   26.2820 C   0  0  0  0  0  1  0  0  0  0  0  0
  -26.9480  -30.4890   24.8690 C   0  0  0  0  0  1  0  0  0  0  0  0
  -27.4850  -32.6770   25.9050 C   0  0  0  0  0  1  0  0  0  0  0  0
  2  3  1  0
  3 16  1  0
  3  1  2  0
  4  5  2  0
  5  1  1  0
  5 49  1  0
  6  2  2  0
  6  4  1  0
  7  6  1  0
  8 16  1  0
  9 14  1  0
 10 11  1  0
 10  9  1  0
 12 11  1  0
 12 21  1  0
 12 13  1  0
 14  8  1  0
 14 13  1  0
 15  8  2  0
 16 17  1  0
 18 19  2  0
 19 38  1  0
 20 19  1  0
 20 23  1  0
 21 18  1  0
 21 22  1  0
 22 20  2  0
 23 24  1  0
 24 25  2  0
 26 29  1  0
 26 25  1  0
 27 26  2  0
 28 27  1  0
 28 23  2  0
 29 30  1  0
 30 31  1  0
 31 32  2  0
 33 32  1  0
 33 37  1  0
 34 33  2  0
 35 30  2  0
 35 34  1  0
 36 35  1  0
 38 39  1  0
 39 42  1  0
 39 41  1  0
 40 38  2  0
 43 44  1  0
 43 18  1  0
 45 43  1  0
 46 47  1  0
 46  4  1  0
 48 46  1  0
 50 51  1  0
 50 49  1  0
 52 51  1  0
 52 53  1  0
 54 53  1  0
 55 66  2  0
 56 54  1  0
 56 61  1  0
 57 65  1  0
 57 67  1  0
 58 64  1  0
 58 60  1  0
 59 65  1  0
 60 61  2  0
 60 59  1  0
 62 56  2  0
 63 62  1  0
 63 58  2  0
 64 57  1  0
 65 55  1  0
 67 69  2  0
 68 67  1  0
 70 68  1  0
 71 80  2  0
 71 76  1  0
 72 68  1  0
 72 76  1  0
 73 72  1  0
 74 75  1  0
 74 73  1  0
 75 71  1  0
 76 77  2  0
 77 78  1  0
 79 78  2  0
 80 79  1  0
 81 55  1  0
 81 82  1  0
 81 91  1  0
 82 85  1  0
 83 87  1  0
 83 82  1  0
 84 83  2  0
 87 86  1  0
 89 87  1  0
 89 90  1  0
 89 88  1  0
 91 94  1  1
 91 92  1  0
 93 91  1  0
M  ISO  4   8 100  16 100  53 101  54 101
M  END
>  <TORSDO>  (30) 
F 22

>  <SCORE>  (30) 
-13.356

>  <name>  (30) 
29

>  <ligand_id>  (30) 
29

>  <original_smiles>  (30) 
[H]c1c([H])c([H])c2c(c1[H])C([H])([H])C([H])([H])C([H])([H])C2([H])N([H])C(=O)C1([H])N(C(=O)C([H])(N([H])C(=O)C([H])(N([H])C([H])([H])[H])C([H])([H])[H])C(C([H])([H])[H])(C([H])([H])[H])C([H])([H])[H])C([H])([H])c2c([H])c(OC([H])([H])C([H])([H])C([H])([H])C([H])([H])Oc3c([H])c(N([H])C(=O)N4C([H])([H])C([H])([H])C([H])([H])C([H])(n5nc(-c6c([H])c([H])c(Oc7c([H])c([H])c(F)c([H])c7F)c([H])c6[H])c(C(=O)N([H])[H])c5N([H])[H])C4([H])[H])c([H])c(F)c3N([H])[H])c([H])c([H])c2C1([H])[H]

>  <smiles>  (30) 
[H]c1c([H])c([H])c2c(c1[H])C([H])([H])C([H])([H])C([H])([H])C2([H])N([H])C(=O)C1([H])N(C(=O)C([H])(N([H])C(=O)C([H])(N([H])C([H])([H])[H])C([H])([H])[H])C(C([H])([H])[H])(C([H])([H])[H])C([H])([H])[H])C([H])([H])c2c([H])c(OC([H])([H])C([H])([H])C([H])([H])C([H])([H])Oc3c([H])c(N([H])C(=O)N4C([H])([H])C([H])([H])C([H])([H])C([H])(n5nc(-c6c([H])c([H])c(Oc7c([H])c([H])c(F)c([H])c7F)c([H])c6[H])c(C(=O)N([H])[H])c5N([H])[H])C4([H])[H])c([H])c(F)c3N([H])[H])c([H])c([H])c2C1([H])[H]

$$$$
30:0:0
     RDKit          3D

 96104  0  0  1  0  0  0  0  0999 V2000
  -29.7800  -16.9810   18.7860 C   0  0  0  0  0  3  0  0  0  0  0  0
  -29.7370  -19.4050   18.8950 C   0  0  0  0  0  3  0  0  0  0  0  0
  -30.0490  -18.1020   20.9360 C   0  0  0  0  0  3  0  0  0  0  0  0
  -29.6500  -18.2250   18.1310 C   0  0  0  0  0  0  0  0  0  0  0  0
  -29.9950  -16.8950   20.1830 C   0  0  0  0  0  0  0  0  0  0  0  0
  -29.9160  -19.3750   20.2990 C   0  0  0  0  0  0  0  0  0  0  0  0
  -30.7380  -14.5440   20.2830 C   0  0  0  0  0  0  0  0  0  0  0  0
  -30.3480  -12.4790   19.0040 C   0  0  0  0  0  2  0  0  0  0  0  0
  -29.3690  -12.7990   17.8550 C   0  0  0  0  0  2  0  0  0  0  0  0
  -27.9130  -12.6540   18.3290 C   0  0  0  0  0  2  0  0  0  0  0  0
  -27.6370  -13.3980   19.6630 C   0  0  0  0  0  3  0  0  0  0  0  0
  -28.7240  -13.0760   20.7130 C   0  0  0  0  0  2  0  0  0  0  0  0
  -30.0370  -13.3840   20.1240 N   0  0  0  0  0  0  0  0  0  0  0  0
  -31.8740  -14.6970   19.8270 O   0  0  0  0  0  0  0  0  0  0  0  0
  -30.0630  -15.5960   20.7990 N   0  0  0  0  0  0  0  0  0  0  0  0
  -29.2660  -15.3550   21.3710 H   0  0  0  0  0  0  0  0  0  0  0  0
  -25.2490  -13.9980   20.4050 C   0  0  0  0  0  0  0  0  0  0  0  0
  -24.1880  -13.2230   20.7900 C   0  0  0  0  0  0  0  0  0  0  0  0
  -24.6520  -11.8720   20.7550 C   0  0  0  0  0  0  0  0  0  0  0  0
  -26.2930  -13.1190   20.1640 N   0  0  0  0  0  0  0  0  0  0  0  0
  -25.9380  -11.8350   20.4320 N   0  0  0  0  0  0  0  0  0  0  0  0
  -23.9330  -10.6080   20.9560 C   0  0  0  0  0  0  0  0  0  0  0  0
  -24.3720   -9.6490   21.8940 C   0  0  0  0  0  3  0  0  0  0  0  0
  -23.6540   -8.4500   22.0830 C   0  0  0  0  0  3  0  0  0  0  0  0
  -22.4830   -8.1990   21.3330 C   0  0  0  0  0  0  0  0  0  0  0  0
  -22.0610   -9.1460   20.3830 C   0  0  0  0  0  3  0  0  0  0  0  0
  -22.7800  -10.3380   20.1920 C   0  0  0  0  0  3  0  0  0  0  0  0
  -21.7380   -7.0500   21.4310 O   0  0  0  0  0  0  0  0  0  0  0  0
  -21.6880   -6.3180   22.5910 C   0  0  0  0  0  0  0  0  0  0  0  0
  -21.2650   -6.8870   23.8120 C   0  0  0  0  0  3  0  0  0  0  0  0
  -21.1620   -6.0820   24.9630 C   0  0  0  0  0  3  0  0  0  0  0  0
  -21.4740   -4.7100   24.8960 C   0  0  0  0  0  0  0  0  0  0  0  0
  -21.8920   -4.1430   23.6810 C   0  0  0  0  0  3  0  0  0  0  0  0
  -21.9960   -4.9440   22.5310 C   0  0  0  0  0  0  0  0  0  0  0  0
  -22.3770   -4.3860   21.3570 F   0  0  0  0  0  0  0  0  0  0  0  0
  -21.3670   -3.9340   26.0000 F   0  0  0  0  0  0  0  0  0  0  0  0
  -22.7920  -13.6960   21.0740 C   0  0  0  0  0  0  0  0  0  0  0  0
  -22.0770  -13.0120   21.9610 N   0  0  0  0  0  0  0  0  0  0  0  0
  -22.3410  -14.7100   20.5460 O   0  0  0  0  0  0  0  0  0  0  0  0
  -22.4540  -12.1940   22.4140 H   0  0  0  0  0  0  0  0  0  0  0  0
  -21.1380  -13.3110   22.1830 H   0  0  0  0  0  0  0  0  0  0  0  0
  -25.4090  -15.3690   20.2220 N   0  0  0  0  0  0  0  0  0  0  0  0
  -24.6410  -16.0200   20.3460 H   0  0  0  0  0  0  0  0  0  0  0  0
  -26.2540  -15.8190   19.8920 H   0  0  0  0  0  0  0  0  0  0  0  0
  -29.4370  -18.2840   16.6580 C   0  0  0  0  0  0  0  0  0  0  0  0
  -28.5520  -19.3870   16.1130 C   0  0  0  0  0  1  0  0  0  0  0  0
  -29.9360  -17.4440   15.8560 N   0  0  0  0  0  0  0  0  0  0  0  0
  -30.5070  -16.7620   16.3430 H   0  0  0  0  0  0  0  0  0  0  0  0
  -29.2090  -21.6970   20.7320 C   0  0  0  0  0  0  0  0  0  0  0  0
  -31.0930  -20.7640   22.0050 C   0  0  0  0  0  1  0  0  0  0  0  0
  -30.0270  -20.6310   21.0060 N   0  0  0  0  0  0  0  0  0  0  0  0
  -28.0800  -21.5340   20.2560 O   0  0  0  0  0  0  0  0  0  0  0  0
  -29.6980  -23.1550   20.9700 C   0  0  0  0  0  2  0  0  0  0  0  0
  -28.6110  -24.2850   21.0150 C   0  0  0  0  0  2  0  0  0  0  0  0
  -28.9760  -25.5500   20.1840 C   0  0  0  0  0  2  0  0  0  0  0  0
  -28.6910  -26.8020   20.8280 O   0  0  0  0  0  0  0  0  0  0  0  0
  -24.6720  -32.0540   23.3910 C   0  0  0  0  0  0  0  0  0  0  0  0
  -27.4840  -27.4620   20.6880 C   0  0  0  0  0  0  0  0  0  0  0  0
  -23.5460  -30.5570   21.7710 C   0  0  0  0  0  3  0  0  0  0  0  0
  -25.0700  -28.9430   20.5050 C   0  0  0  0  0  0  0  0  0  0  0  0
  -26.0740  -30.9160   21.6730 C   0  0  0  0  0  2  0  0  0  0  0  0
  -26.1920  -29.5100   21.1160 C   0  0  0  0  0  0  0  0  0  0  0  0
  -27.3940  -28.7730   21.2080 C   0  0  0  0  0  3  0  0  0  0  0  0
  -26.3420  -26.9040   20.0670 C   0  0  0  0  0  3  0  0  0  0  0  0
  -25.1400  -27.6390   19.9790 C   0  0  0  0  0  3  0  0  0  0  0  0
  -23.8210  -29.7950   20.4460 C   0  0  0  0  0  2  0  0  0  0  0  0
  -24.7790  -31.1950   22.3370 N   0  0  0  0  0  0  0  0  0  0  0  0
  -23.5660  -32.3500   23.8660 O   0  0  0  0  0  0  0  0  0  0  0  0
  -22.8510  -29.5920   22.7590 C   0  0  0  0  0  0  0  0  0  0  0  0
  -21.5350  -29.3990   22.5780 N   0  0  0  0  0  0  0  0  0  0  0  0
  -23.4960  -29.0160   23.6390 O   0  0  0  0  0  0  0  0  0  0  0  0
  -21.0770  -29.9130   21.8380 H   0  0  0  0  0  0  0  0  0  0  0  0
  -18.1410  -28.2290   22.9830 C   0  0  0  0  0  0  0  0  0  0  0  0
  -20.6840  -28.5010   23.3570 C   0  0  0  0  0  3  0  0  0  0  0  0
  -20.8080  -27.0410   22.8610 C   0  0  0  0  0  2  0  0  0  0  0  0
  -19.7550  -26.6680   21.8130 C   0  0  0  0  0  2  0  0  0  0  0  0
  -18.3450  -26.8460   22.3840 C   0  0  0  0  0  2  0  0  0  0  0  0
  -19.2410  -29.0110   23.4240 C   0  0  0  0  0  0  0  0  0  0  0  0
  -18.9990  -30.3030   23.9400 C   0  0  0  0  0  3  0  0  0  0  0  0
  -17.6890  -30.8130   24.0190 C   0  0  0  0  0  3  0  0  0  0  0  0
  -16.6040  -30.0280   23.5950 C   0  0  0  0  0  3  0  0  0  0  0  0
  -16.8300  -28.7380   23.0830 C   0  0  0  0  0  3  0  0  0  0  0  0
  -25.9270  -32.7210   24.0360 C   0  0  0  0  0  3  0  0  0  0  0  0
  -25.5920  -34.1250   24.3090 N   0  0  0  0  0  0  0  0  0  0  0  0
  -25.9290  -35.1550   23.5210 C   0  0  0  0  0  0  0  0  0  0  0  0
  -26.6230  -35.0260   22.5100 O   0  0  0  0  0  0  0  0  0  0  0  0
  -24.9780  -34.2990   25.0910 H   0  0  0  0  0  0  0  0  0  0  0  0
  -24.1690  -36.8970   23.0750 C   0  0  0  0  0  1  0  0  0  0  0  0
  -25.4090  -36.5510   23.9160 C   0  0  0  0  0  3  0  0  0  0  0  0
  -27.5190  -37.5080   24.7310 C   0  0  0  0  0  1  0  0  0  0  0  0
  -26.4240  -37.6180   23.7720 N   0  0  0  0  0  0  0  0  0  0  0  0
  -25.9990  -38.5350   23.8780 H   0  0  0  0  0  0  0  0  0  0  0  0
  -26.4110  -31.9990   25.3540 C   0  0  1  0  0  0  0  0  0  0  0  0
  -25.2820  -31.7660   26.3840 C   0  0  0  0  0  1  0  0  0  0  0  0
  -27.0400  -30.6260   25.0210 C   0  0  0  0  0  1  0  0  0  0  0  0
  -27.5140  -32.8400   26.0370 C   0  0  0  0  0  1  0  0  0  0  0  0
  1  5  1  0
  2  6  2  0
  4  1  2  0
  4  2  1  0
  5 15  1  0
  5  3  2  0
  6  3  1  0
  6 51  1  0
  7 15  1  0
  8 13  1  0
  9 10  1  0
  9  8  1  0
 11 10  1  0
 11 20  1  0
 11 12  1  0
 13  7  1  0
 13 12  1  0
 14  7  2  0
 15 16  1  0
 17 18  2  0
 18 37  1  0
 19 18  1  0
 19 22  1  0
 20 17  1  0
 20 21  1  0
 21 19  2  0
 22 23  1  0
 23 24  2  0
 25 28  1  0
 25 24  1  0
 26 25  2  0
 27 26  1  0
 27 22  2  0
 28 29  1  0
 29 30  1  0
 30 31  2  0
 32 31  1  0
 32 36  1  0
 33 32  2  0
 34 29  2  0
 34 33  1  0
 35 34  1  0
 37 38  1  0
 38 41  1  0
 38 40  1  0
 39 37  2  0
 42 43  1  0
 42 17  1  0
 44 42  1  0
 45  4  1  0
 46 45  1  0
 47 48  1  0
 47 45  2  0
 49 53  1  0
 49 51  1  0
 51 50  1  0
 52 49  2  0
 53 54  1  0
 55 56  1  0
 55 54  1  0
 57 68  2  0
 58 56  1  0
 58 63  1  0
 59 67  1  0
 59 69  1  0
 60 62  1  0
 61 67  1  0
 62 63  2  0
 62 61  1  0
 64 58  2  0
 65 64  1  0
 65 60  2  0
 66 60  1  0
 66 59  1  0
 67 57  1  0
 69 71  2  0
 70 69  1  0
 72 70  1  0
 73 82  2  0
 73 78  1  0
 74 70  1  0
 74 78  1  0
 75 74  1  0
 76 77  1  0
 76 75  1  0
 77 73  1  0
 78 79  2  0
 79 80  1  0
 81 80  2  0
 82 81  1  0
 83 57  1  0
 83 84  1  0
 83 93  1  0
 84 87  1  0
 85 89  1  0
 85 84  1  0
 86 85  2  0
 89 88  1  0
 91 92  1  0
 91 89  1  0
 91 90  1  0
 93 96  1  1
 93 94  1  0
 95 93  1  0
M  ISO  4   7 100  15 100  55 101  56 101
M  END
>  <TORSDO>  (31) 
F 21

>  <SCORE>  (31) 
-12.820

>  <name>  (31) 
30

>  <ligand_id>  (31) 
30

>  <original_smiles>  (31) 
[H]N=C(c1c([H])c(N([H])C(=O)N2C([H])([H])C([H])([H])C([H])([H])C([H])(n3nc(-c4c([H])c([H])c(Oc5c([H])c([H])c(F)c([H])c5F)c([H])c4[H])c(C(=O)N([H])[H])c3N([H])[H])C2([H])[H])c([H])c(N(C(=O)C([H])([H])C([H])([H])C([H])([H])Oc2c([H])c([H])c3c(c2[H])C([H])([H])N(C(=O)C([H])(N([H])C(=O)C([H])(N([H])C([H])([H])[H])C([H])([H])[H])C(C([H])([H])[H])(C([H])([H])[H])C([H])([H])[H])C([H])(C(=O)N([H])C2([H])c4c([H])c([H])c([H])c([H])c4C([H])([H])C([H])([H])C2([H])[H])C3([H])[H])C([H])([H])[H])c1[H])C([H])([H])[H]

>  <smiles>  (31) 
[H]N=C(c1c([H])c(N([H])C(=O)N2C([H])([H])C([H])([H])C([H])([H])C([H])(n3nc(-c4c([H])c([H])c(Oc5c([H])c([H])c(F)c([H])c5F)c([H])c4[H])c(C(=O)N([H])[H])c3N([H])[H])C2([H])[H])c([H])c(N(C(=O)C([H])([H])C([H])([H])C([H])([H])Oc2c([H])c([H])c3c(c2[H])C([H])([H])N(C(=O)C([H])(N([H])C(=O)C([H])(N([H])C([H])([H])[H])C([H])([H])[H])C(C([H])([H])[H])(C([H])([H])[H])C([H])([H])[H])C([H])(C(=O)N([H])C2([H])c4c([H])c([H])c([H])c([H])c4C([H])([H])C([H])([H])C2([H])[H])C3([H])[H])C([H])([H])[H])c1[H])C([H])([H])[H]

$$$$
31:0:0
     RDKit          3D

 90 98  0  0  1  0  0  0  0  0999 V2000
  -29.6860  -19.6660   21.0440 C   0  0  0  0  0  3  0  0  0  0  0  0
  -29.9410  -18.7840   18.5330 C   0  0  0  0  0  3  0  0  0  0  0  0
  -30.0280  -18.2670   20.8270 C   0  0  0  0  0  0  0  0  0  0  0  0
  -30.1340  -17.7270   19.5040 C   0  0  0  0  0  0  0  0  0  0  0  0
  -29.4290  -20.6260   20.0090 C   0  0  0  0  0  0  0  0  0  0  0  0
  -29.6160  -20.1220   18.7510 N   0  0  0  0  0  0  0  0  0  0  0  0
  -30.9220  -15.0910   19.5280 C   0  0  0  0  0  0  0  0  0  0  0  0
  -30.7440  -12.6790   18.7600 C   0  0  0  0  0  2  0  0  0  0  0  0
  -29.7190  -12.4890   17.6170 C   0  0  0  0  0  2  0  0  0  0  0  0
  -28.2740  -12.3940   18.1540 C   0  0  0  0  0  2  0  0  0  0  0  0
  -27.9580  -13.3800   19.3140 C   0  0  0  0  0  3  0  0  0  0  0  0
  -29.1040  -13.4660   20.3380 C   0  0  0  0  0  2  0  0  0  0  0  0
  -30.3120  -13.8380   19.5880 N   0  0  0  0  0  0  0  0  0  0  0  0
  -32.1440  -15.1120   19.3470 O   0  0  0  0  0  0  0  0  0  0  0  0
  -29.7330  -16.0870   17.7200 C   0  0  0  0  0  1  0  0  0  0  0  0
  -30.1490  -16.2300   19.1260 N   0  0  0  0  0  0  0  0  0  0  0  0
  -25.6820  -14.0220   20.2870 C   0  0  0  0  0  0  0  0  0  0  0  0
  -24.6230  -13.2730   20.7190 C   0  0  0  0  0  0  0  0  0  0  0  0
  -25.0350  -11.9090   20.6140 C   0  0  0  0  0  0  0  0  0  0  0  0
  -26.6670  -13.1140   19.9340 N   0  0  0  0  0  0  0  0  0  0  0  0
  -26.2940  -11.8370   20.1990 N   0  0  0  0  0  0  0  0  0  0  0  0
  -24.2840  -10.6670   20.8300 C   0  0  0  0  0  0  0  0  0  0  0  0
  -24.6850   -9.7200   21.7980 C   0  0  0  0  0  3  0  0  0  0  0  0
  -23.9350   -8.5420   22.0010 C   0  0  0  0  0  3  0  0  0  0  0  0
  -22.7680   -8.3030   21.2370 C   0  0  0  0  0  0  0  0  0  0  0  0
  -22.3850   -9.2390   20.2580 C   0  0  0  0  0  3  0  0  0  0  0  0
  -23.1360  -10.4070   20.0540 C   0  0  0  0  0  3  0  0  0  0  0  0
  -21.9900   -7.1750   21.3480 O   0  0  0  0  0  0  0  0  0  0  0  0
  -21.7990   -6.5510   22.5550 C   0  0  0  0  0  0  0  0  0  0  0  0
  -21.2140   -7.2160   23.6550 C   0  0  0  0  0  3  0  0  0  0  0  0
  -20.9730   -6.5170   24.8540 C   0  0  0  0  0  3  0  0  0  0  0  0
  -21.3060   -5.1520   24.9530 C   0  0  0  0  0  0  0  0  0  0  0  0
  -21.8830   -4.4860   23.8570 C   0  0  0  0  0  3  0  0  0  0  0  0
  -22.1270   -5.1840   22.6610 C   0  0  0  0  0  0  0  0  0  0  0  0
  -22.6640   -4.5330   21.6010 F   0  0  0  0  0  0  0  0  0  0  0  0
  -21.0670   -4.4780   26.1010 F   0  0  0  0  0  0  0  0  0  0  0  0
  -23.2720  -13.7890   21.1170 C   0  0  0  0  0  0  0  0  0  0  0  0
  -22.6020  -13.1050   22.0380 N   0  0  0  0  0  0  0  0  0  0  0  0
  -22.8220  -14.8340   20.6470 O   0  0  0  0  0  0  0  0  0  0  0  0
  -22.9790  -12.2600   22.4400 H   0  0  0  0  0  0  0  0  0  0  0  0
  -21.6980  -13.4340   22.3490 H   0  0  0  0  0  0  0  0  0  0  0  0
  -25.8870  -15.3930   20.1450 N   0  0  0  0  0  0  0  0  0  0  0  0
  -25.1830  -16.0790   20.3910 H   0  0  0  0  0  0  0  0  0  0  0  0
  -26.7610  -15.8090   19.8510 H   0  0  0  0  0  0  0  0  0  0  0  0
  -30.5480  -17.7000   23.2350 C   0  0  0  0  0  2  0  0  0  0  0  0
  -30.2170  -17.3600   21.9780 C   0  0  0  0  0  3  0  0  0  0  0  0
  -28.9240  -22.1050   20.3560 C   0  0  0  0  0  3  0  0  0  0  0  0
  -28.8000  -23.3880   19.7720 C   0  0  0  0  0  3  0  0  0  0  0  0
  -28.0810  -24.7180   20.4160 C   0  0  0  0  0  2  0  0  0  0  0  0
  -28.3830  -26.2070   20.1010 O   0  0  0  0  0  0  0  0  0  0  0  0
  -24.5630  -31.7260   23.1500 C   0  0  0  0  0  0  0  0  0  0  0  0
  -27.3020  -27.1580   20.0700 C   0  0  0  0  0  0  0  0  0  0  0  0
  -23.4110  -30.3130   21.4910 C   0  0  0  0  0  3  0  0  0  0  0  0
  -24.9160  -28.8140   20.0470 C   0  0  0  0  0  0  0  0  0  0  0  0
  -25.9540  -30.6740   21.3330 C   0  0  0  0  0  2  0  0  0  0  0  0
  -26.0770  -29.2960   20.6640 C   0  0  0  0  0  0  0  0  0  0  0  0
  -27.2730  -28.4850   20.6590 C   0  0  0  0  0  3  0  0  0  0  0  0
  -26.1160  -26.7820   19.4020 C   0  0  0  0  0  3  0  0  0  0  0  0
  -24.9470  -27.5710   19.3990 C   0  0  0  0  0  3  0  0  0  0  0  0
  -23.6560  -29.6640   20.1020 C   0  0  0  0  0  2  0  0  0  0  0  0
  -24.6620  -30.9250   22.0460 N   0  0  0  0  0  0  0  0  0  0  0  0
  -23.4670  -31.9650   23.6820 O   0  0  0  0  0  0  0  0  0  0  0  0
  -22.7710  -29.2670   22.4380 C   0  0  0  0  0  0  0  0  0  0  0  0
  -21.4620  -29.0060   22.2670 N   0  0  0  0  0  0  0  0  0  0  0  0
  -23.4540  -28.6930   23.2900 O   0  0  0  0  0  0  0  0  0  0  0  0
  -20.9640  -29.5220   21.5550 H   0  0  0  0  0  0  0  0  0  0  0  0
  -18.1650  -27.5490   22.6270 C   0  0  0  0  0  0  0  0  0  0  0  0
  -20.6780  -28.0220   23.0180 C   0  0  0  0  0  3  0  0  0  0  0  0
  -20.9230  -26.5900   22.4870 C   0  0  0  0  0  2  0  0  0  0  0  0
  -19.9050  -26.1590   21.4260 C   0  0  0  0  0  2  0  0  0  0  0  0
  -18.4840  -26.2050   21.9950 C   0  0  0  0  0  2  0  0  0  0  0  0
  -19.1960  -28.4090   23.0940 C   0  0  0  0  0  0  0  0  0  0  0  0
  -18.8460  -29.6600   23.6440 C   0  0  0  0  0  3  0  0  0  0  0  0
  -17.4980  -30.0570   23.7320 C   0  0  0  0  0  3  0  0  0  0  0  0
  -16.4820  -29.1960   23.2830 C   0  0  0  0  0  3  0  0  0  0  0  0
  -16.8160  -27.9450   22.7360 C   0  0  0  0  0  3  0  0  0  0  0  0
  -25.8180  -32.3970   23.7860 C   0  0  0  0  0  3  0  0  0  0  0  0
  -26.3240  -31.6590   25.0860 C   0  0  1  0  0  0  0  0  0  0  0  0
  -25.2110  -31.4040   26.1290 C   0  0  0  0  0  1  0  0  0  0  0  0
  -26.9570  -30.2930   24.7340 C   0  0  0  0  0  1  0  0  0  0  0  0
  -27.4350  -32.4960   25.7650 C   0  0  0  0  0  1  0  0  0  0  0  0
  -25.4730  -33.7940   24.0900 N   0  0  0  0  0  0  0  0  0  0  0  0
  -25.8100  -34.8470   23.3340 C   0  0  0  0  0  0  0  0  0  0  0  0
  -26.5100  -34.7450   22.3230 O   0  0  0  0  0  0  0  0  0  0  0  0
  -24.8530  -33.9460   24.8730 H   0  0  0  0  0  0  0  0  0  0  0  0
  -24.0620  -36.6100   22.9200 C   0  0  0  0  0  1  0  0  0  0  0  0
  -25.2880  -36.2330   23.7660 C   0  0  0  0  0  3  0  0  0  0  0  0
  -27.3810  -37.1660   24.6490 C   0  0  0  0  0  1  0  0  0  0  0  0
  -26.3060  -37.3020   23.6690 N   0  0  0  0  0  0  0  0  0  0  0  0
  -25.8810  -38.2170   23.7920 H   0  0  0  0  0  0  0  0  0  0  0  0
  2  6  2  0
  2  4  1  0
  3  1  1  0
  3 46  1  0
  4  3  2  0
  5 47  1  0
  5  1  2  0
  6  5  1  0
  7 13  1  0
  8 13  1  0
  9 10  1  0
  9  8  1  0
 11 10  1  0
 11 20  1  0
 11 12  1  0
 13 12  1  0
 14  7  2  0
 15 16  1  0
 16  4  1  0
 16  7  1  0
 17 18  2  0
 18 37  1  0
 19 18  1  0
 19 22  1  0
 20 21  1  0
 20 17  1  0
 21 19  2  0
 22 23  1  0
 23 24  2  0
 25 28  1  0
 25 24  1  0
 26 25  2  0
 27 26  1  0
 27 22  2  0
 28 29  1  0
 29 34  2  0
 29 30  1  0
 30 31  2  0
 31 32  1  0
 32 36  1  0
 33 32  2  0
 34 33  1  0
 35 34  1  0
 37 38  1  0
 38 41  1  0
 38 40  1  0
 39 37  2  0
 42 17  1  0
 42 43  1  0
 44 42  1  0
 46 45  2  0
 48 47  2  0
 48 49  1  0
 50 49  1  0
 51 62  2  0
 52 50  1  0
 52 57  1  0
 53 61  1  0
 53 63  1  0
 54 60  1  0
 54 56  1  0
 55 61  1  0
 56 55  1  0
 57 56  2  0
 58 52  2  0
 59 58  1  0
 59 54  2  0
 60 53  1  0
 61 51  1  0
 63 65  2  0
 64 63  1  0
 66 64  1  0
 67 76  2  0
 67 72  1  0
 68 64  1  0
 68 72  1  0
 69 68  1  0
 70 71  1  0
 70 69  1  0
 71 67  1  0
 72 73  2  0
 73 74  1  0
 75 74  2  0
 76 75  1  0
 77 51  1  0
 77 82  1  0
 77 78  1  0
 78 81  1  1
 78 79  1  0
 80 78  1  0
 82 85  1  0
 83 87  1  0
 83 82  1  0
 84 83  2  0
 87 86  1  0
 89 87  1  0
 89 90  1  0
 89 88  1  0
M  ISO  4   7 100  16 100  49 101  50 101
M  END
>  <TORSDO>  (32) 
F 19

>  <SCORE>  (32) 
-11.512

>  <name>  (32) 
31

>  <ligand_id>  (32) 
31

>  <original_smiles>  (32) 
[H]C([H])=C([H])c1c([H])c(C([H])=C([H])C([H])([H])Oc2c([H])c([H])c3c(c2[H])C([H])([H])N(C(=O)C([H])(N([H])C(=O)C([H])(N([H])C([H])([H])[H])C([H])([H])[H])C(C([H])([H])[H])(C([H])([H])[H])C([H])([H])[H])C([H])(C(=O)N([H])C2([H])c4c([H])c([H])c([H])c([H])c4C([H])([H])C([H])([H])C2([H])[H])C3([H])[H])nc([H])c1N(C(=O)N1C([H])([H])C([H])([H])C([H])([H])C([H])(n2nc(-c3c([H])c([H])c(Oc4c([H])c([H])c(F)c([H])c4F)c([H])c3[H])c(C(=O)N([H])[H])c2N([H])[H])C1([H])[H])C([H])([H])[H]

>  <smiles>  (32) 
[H]C([H])=C([H])c1c([H])c(C([H])=C([H])C([H])([H])Oc2c([H])c([H])c3c(c2[H])C([H])([H])N(C(=O)C([H])(N([H])C(=O)C([H])(N([H])C([H])([H])[H])C([H])([H])[H])C(C([H])([H])[H])(C([H])([H])[H])C([H])([H])[H])C([H])(C(=O)N([H])C2([H])c4c([H])c([H])c([H])c([H])c4C([H])([H])C([H])([H])C2([H])[H])C3([H])[H])nc([H])c1N(C(=O)N1C([H])([H])C([H])([H])C([H])([H])C([H])(n2nc(-c3c([H])c([H])c(Oc4c([H])c([H])c(F)c([H])c4F)c([H])c3[H])c(C(=O)N([H])[H])c2N([H])[H])C1([H])[H])C([H])([H])[H]

$$$$
32:0:0
     RDKit          3D

 97106  0  0  1  0  0  0  0  0999 V2000
  -28.7530  -24.0020   19.2140 C   0  0  0  0  0  0  0  0  0  0  0  0
  -29.1370  -22.9970   20.2890 C   0  0  0  0  0  0  0  0  0  0  0  0
  -26.7580  -22.0220   18.4070 C   0  0  0  0  0  0  0  0  0  0  0  0
  -28.4830  -25.3790   19.2290 C   0  0  0  0  0  3  0  0  0  0  0  0
  -28.8440  -23.4080   17.7930 C   0  0  0  0  0  2  0  0  0  0  0  0
  -27.9360  -22.2020   17.4550 C   0  0  0  0  0  2  0  0  0  0  0  0
  -27.0720  -21.8020   19.8910 C   0  0  0  0  0  2  0  0  0  0  0  0
  -28.5240  -21.7360   20.1900 N   0  0  0  0  0  0  0  0  0  0  0  0
  -29.9940  -23.2280   21.1450 O   0  0  0  0  0  0  0  0  0  0  0  0
  -25.5960  -22.0560   17.9970 O   0  0  0  0  0  0  0  0  0  0  0  0
  -29.9740  -19.8990   21.4290 C   0  0  0  0  0  3  0  0  0  0  0  0
  -30.2860  -18.5010   21.6520 C   0  0  0  0  0  3  0  0  0  0  0  0
  -28.5720  -19.2570   19.6250 C   0  0  0  0  0  3  0  0  0  0  0  0
  -28.8800  -17.8730   19.8250 C   0  0  0  0  0  0  0  0  0  0  0  0
  -29.0590  -20.3400   20.4210 C   0  0  0  0  0  0  0  0  0  0  0  0
  -29.7430  -17.4260   20.8740 C   0  0  0  0  0  0  0  0  0  0  0  0
  -30.6820  -14.9400   21.1170 C   0  0  0  0  0  0  0  0  0  0  0  0
  -30.7250  -12.5850   20.2520 C   0  0  0  0  0  2  0  0  0  0  0  0
  -29.9290  -12.5280   18.9270 C   0  0  0  0  0  2  0  0  0  0  0  0
  -28.4200  -12.3480   19.1880 C   0  0  0  0  0  2  0  0  0  0  0  0
  -27.8810  -13.2800   20.3070 C   0  0  0  0  0  3  0  0  0  0  0  0
  -28.8070  -13.2770   21.5420 C   0  0  0  0  0  2  0  0  0  0  0  0
  -30.1490  -13.6660   21.0840 N   0  0  0  0  0  0  0  0  0  0  0  0
  -31.8840  -15.1110   20.8850 O   0  0  0  0  0  0  0  0  0  0  0  0
  -29.7870  -15.9880   21.2830 N   0  0  0  0  0  0  0  0  0  0  0  0
  -28.8680  -15.6190   21.4670 H   0  0  0  0  0  0  0  0  0  0  0  0
  -25.4170  -13.8390   20.7520 C   0  0  0  0  0  0  0  0  0  0  0  0
  -24.3320  -13.0500   21.0250 C   0  0  0  0  0  0  0  0  0  0  0  0
  -24.8220  -11.7100   21.0790 C   0  0  0  0  0  0  0  0  0  0  0  0
  -26.4970  -12.9760   20.6530 N   0  0  0  0  0  0  0  0  0  0  0  0
  -26.1390  -11.6930   20.9130 N   0  0  0  0  0  0  0  0  0  0  0  0
  -24.1040  -10.4360   21.2210 C   0  0  0  0  0  0  0  0  0  0  0  0
  -24.4730   -9.4860   22.1990 C   0  0  0  0  0  3  0  0  0  0  0  0
  -23.7550   -8.2780   22.3290 C   0  0  0  0  0  3  0  0  0  0  0  0
  -22.6560   -8.0100   21.4800 C   0  0  0  0  0  0  0  0  0  0  0  0
  -22.3060   -8.9500   20.4930 C   0  0  0  0  0  3  0  0  0  0  0  0
  -23.0260  -10.1490   20.3620 C   0  0  0  0  0  3  0  0  0  0  0  0
  -21.9160   -6.8530   21.5160 O   0  0  0  0  0  0  0  0  0  0  0  0
  -21.7990   -6.1100   22.6630 C   0  0  0  0  0  0  0  0  0  0  0  0
  -21.2970   -6.6630   23.8620 C   0  0  0  0  0  3  0  0  0  0  0  0
  -21.1280   -5.8460   24.9980 C   0  0  0  0  0  3  0  0  0  0  0  0
  -21.4520   -4.4770   24.9350 C   0  0  0  0  0  0  0  0  0  0  0  0
  -21.9460   -3.9230   23.7420 C   0  0  0  0  0  3  0  0  0  0  0  0
  -22.1170   -4.7380   22.6070 C   0  0  0  0  0  0  0  0  0  0  0  0
  -22.5740   -4.1950   21.4530 F   0  0  0  0  0  0  0  0  0  0  0  0
  -21.2830   -3.6900   26.0230 F   0  0  0  0  0  0  0  0  0  0  0  0
  -22.9040  -13.5030   21.1310 C   0  0  0  0  0  0  0  0  0  0  0  0
  -22.1010  -12.8170   21.9350 N   0  0  0  0  0  0  0  0  0  0  0  0
  -22.5050  -14.5020   20.5330 O   0  0  0  0  0  0  0  0  0  0  0  0
  -22.4340  -12.0090   22.4410 H   0  0  0  0  0  0  0  0  0  0  0  0
  -21.1390  -13.1050   22.0480 H   0  0  0  0  0  0  0  0  0  0  0  0
  -25.5720  -15.2090   20.5560 N   0  0  0  0  0  0  0  0  0  0  0  0
  -24.7830  -15.8460   20.5690 H   0  0  0  0  0  0  0  0  0  0  0  0
  -26.4350  -15.6520   20.2730 H   0  0  0  0  0  0  0  0  0  0  0  0
  -28.8660  -15.9710   18.2130 C   0  0  0  0  0  2  0  0  0  0  0  0
  -28.2340  -16.9440   18.8870 C   0  0  0  0  0  3  0  0  0  0  0  0
  -28.3870  -26.4340   20.1680 O   0  0  0  0  0  0  0  0  0  0  0  0
  -24.6470  -31.9110   23.1630 C   0  0  0  0  0  0  0  0  0  0  0  0
  -27.3070  -27.3520   20.0830 C   0  0  0  0  0  0  0  0  0  0  0  0
  -23.4600  -30.5060   21.5190 C   0  0  0  0  0  3  0  0  0  0  0  0
  -24.9300  -28.9770   20.0810 C   0  0  0  0  0  0  0  0  0  0  0  0
  -26.0000  -30.8420   21.3380 C   0  0  0  0  0  2  0  0  0  0  0  0
  -26.0970  -29.4630   20.6830 C   0  0  0  0  0  0  0  0  0  0  0  0
  -27.2860  -28.6610   20.6800 C   0  0  0  0  0  3  0  0  0  0  0  0
  -26.1080  -26.9320   19.4630 C   0  0  0  0  0  3  0  0  0  0  0  0
  -24.9400  -27.7190   19.4610 C   0  0  0  0  0  3  0  0  0  0  0  0
  -23.6840  -29.8410   20.1360 C   0  0  0  0  0  2  0  0  0  0  0  0
  -24.7220  -31.1040   22.0640 N   0  0  0  0  0  0  0  0  0  0  0  0
  -23.5590  -32.1760   23.6970 O   0  0  0  0  0  0  0  0  0  0  0  0
  -22.8060  -29.4800   22.4760 C   0  0  0  0  0  0  0  0  0  0  0  0
  -21.4760  -29.3090   22.3680 N   0  0  0  0  0  0  0  0  0  0  0  0
  -23.4930  -28.8420   23.2770 O   0  0  0  0  0  0  0  0  0  0  0  0
  -20.9780  -29.8750   21.6950 H   0  0  0  0  0  0  0  0  0  0  0  0
  -18.1020  -28.1200   22.9160 C   0  0  0  0  0  0  0  0  0  0  0  0
  -20.6670  -28.3640   23.1390 C   0  0  0  0  0  3  0  0  0  0  0  0
  -20.7500  -26.9400   22.5400 C   0  0  0  0  0  2  0  0  0  0  0  0
  -19.6270  -26.6400   21.5430 C   0  0  0  0  0  2  0  0  0  0  0  0
  -18.2570  -26.7810   22.2150 C   0  0  0  0  0  2  0  0  0  0  0  0
  -19.2320  -28.8690   23.3360 C   0  0  0  0  0  0  0  0  0  0  0  0
  -19.0320  -30.1230   23.9550 C   0  0  0  0  0  3  0  0  0  0  0  0
  -17.7320  -30.6270   24.1530 C   0  0  0  0  0  3  0  0  0  0  0  0
  -16.6160  -29.8750   23.7470 C   0  0  0  0  0  3  0  0  0  0  0  0
  -16.8020  -28.6220   23.1360 C   0  0  0  0  0  3  0  0  0  0  0  0
  -25.9210  -32.5590   23.7870 C   0  0  0  0  0  3  0  0  0  0  0  0
  -25.5770  -33.9350   24.1760 N   0  0  0  0  0  0  0  0  0  0  0  0
  -25.8910  -35.0280   23.4690 C   0  0  0  0  0  0  0  0  0  0  0  0
  -26.5690  -34.9860   22.4390 O   0  0  0  0  0  0  0  0  0  0  0  0
  -24.9730  -34.0400   24.9790 H   0  0  0  0  0  0  0  0  0  0  0  0
  -24.1290  -36.8010   23.1810 C   0  0  0  0  0  1  0  0  0  0  0  0
  -25.3700  -36.3840   23.9850 C   0  0  0  0  0  3  0  0  0  0  0  0
  -27.4820  -37.2660   24.8750 C   0  0  0  0  0  1  0  0  0  0  0  0
  -26.3820  -37.4610   23.9340 N   0  0  0  0  0  0  0  0  0  0  0  0
  -25.9570  -38.3650   24.1270 H   0  0  0  0  0  0  0  0  0  0  0  0
  -26.4800  -31.7580   25.0270 C   0  0  1  0  0  0  0  0  0  0  0  0
  -25.4150  -31.4540   26.1040 C   0  0  0  0  0  1  0  0  0  0  0  0
  -27.0900  -30.4100   24.5750 C   0  0  0  0  0  1  0  0  0  0  0  0
  -27.6240  -32.5570   25.6950 C   0  0  0  0  0  1  0  0  0  0  0  0
  1  4  2  0
  1  2  1  0
  2  9  2  0
  3  7  1  0
  4 57  1  0
  5  1  1  0
  6  5  1  0
  6  3  1  0
  7  8  1  0
  8  2  1  0
  8 15  1  0
 10  3  2  0
 11 12  1  0
 13 14  2  0
 13 15  1  0
 14 16  1  0
 15 11  2  0
 16 25  1  0
 16 12  2  0
 17 25  1  0
 18 23  1  0
 19 20  1  0
 19 18  1  0
 21 20  1  0
 21 30  1  0
 21 22  1  0
 23 17  1  0
 23 22  1  0
 24 17  2  0
 25 26  1  0
 27 28  2  0
 28 29  1  0
 28 47  1  0
 29 32  1  0
 30 27  1  0
 30 31  1  0
 31 29  2  0
 32 33  1  0
 33 34  2  0
 35 38  1  0
 35 34  1  0
 36 35  2  0
 37 36  1  0
 37 32  2  0
 38 39  1  0
 39 40  1  0
 40 41  2  0
 42 41  1  0
 42 46  1  0
 43 42  2  0
 44 39  2  0
 44 43  1  0
 45 44  1  0
 47 48  1  0
 48 51  1  0
 48 50  1  0
 49 47  2  0
 52 53  1  0
 52 27  1  0
 54 52  1  0
 55 56  2  0
 56 14  1  0
 58 69  2  0
 59 57  1  0
 59 64  1  0
 60 68  1  0
 60 70  1  0
 61 67  1  0
 61 63  1  0
 62 68  1  0
 63 62  1  0
 64 63  2  0
 65 59  2  0
 66 65  1  0
 66 61  2  0
 67 60  1  0
 68 58  1  0
 70 72  2  0
 71 70  1  0
 73 71  1  0
 74 83  2  0
 74 79  1  0
 75 71  1  0
 75 79  1  0
 76 75  1  0
 77 78  1  0
 77 76  1  0
 78 74  1  0
 79 80  2  0
 80 81  1  0
 82 81  2  0
 83 82  1  0
 84 58  1  0
 84 85  1  0
 84 94  1  0
 85 88  1  0
 86 90  1  0
 86 85  1  0
 87 86  2  0
 90 89  1  0
 92 90  1  0
 92 93  1  0
 92 91  1  0
 94 97  1  1
 94 95  1  0
 96 94  1  0
M  ISO  4   4 101  17 100  25 100  57 101
M  END
>  <TORSDO>  (33) 
F 18

>  <SCORE>  (33) 
-13.351

>  <name>  (33) 
32

>  <ligand_id>  (33) 
32

>  <original_smiles>  (33) 
[H]C([H])=C([H])c1c([H])c(N2C(=O)C(=C([H])Oc3c([H])c([H])c4c(c3[H])C([H])([H])N(C(=O)C([H])(N([H])C(=O)C([H])(N([H])C([H])([H])[H])C([H])([H])[H])C(C([H])([H])[H])(C([H])([H])[H])C([H])([H])[H])C([H])(C(=O)N([H])C3([H])c5c([H])c([H])c([H])c([H])c5C([H])([H])C([H])([H])C3([H])[H])C4([H])[H])C([H])([H])C([H])([H])C(=O)C2([H])[H])c([H])c([H])c1N([H])C(=O)N1C([H])([H])C([H])([H])C([H])([H])C([H])(n2nc(-c3c([H])c([H])c(Oc4c([H])c([H])c(F)c([H])c4F)c([H])c3[H])c(C(=O)N([H])[H])c2N([H])[H])C1([H])[H]

>  <smiles>  (33) 
[H]C([H])=C([H])c1c([H])c(N2C(=O)C(=C([H])Oc3c([H])c([H])c4c(c3[H])C([H])([H])N(C(=O)C([H])(N([H])C(=O)C([H])(N([H])C([H])([H])[H])C([H])([H])[H])C(C([H])([H])[H])(C([H])([H])[H])C([H])([H])[H])C([H])(C(=O)N([H])C3([H])c5c([H])c([H])c([H])c([H])c5C([H])([H])C([H])([H])C3([H])[H])C4([H])[H])C([H])([H])C([H])([H])C(=O)C2([H])[H])c([H])c([H])c1N([H])C(=O)N1C([H])([H])C([H])([H])C([H])([H])C([H])(n2nc(-c3c([H])c([H])c(Oc4c([H])c([H])c(F)c([H])c4F)c([H])c3[H])c(C(=O)N([H])[H])c2N([H])[H])C1([H])[H]

$$$$
33:0:0
     RDKit          3D

 95103  0  0  1  0  0  0  0  0999 V2000
  -30.9170  -17.8440   19.3000 C   0  0  0  0  0  3  0  0  0  0  0  0
  -29.9450  -19.3320   20.9390 C   0  0  0  0  0  3  0  0  0  0  0  0
  -30.2690  -18.0000   20.5380 C   0  0  0  0  0  0  0  0  0  0  0  0
  -31.2630  -18.9590   18.4980 C   0  0  0  0  0  0  0  0  0  0  0  0
  -30.2140  -20.4780   20.1390 C   0  0  0  0  0  0  0  0  0  0  0  0
  -30.8620  -20.2710   18.8890 C   0  0  0  0  0  0  0  0  0  0  0  0
  -29.9420  -16.8560   21.4580 C   0  0  0  0  0  3  0  0  0  0  0  0
  -30.0920  -15.4940   21.4880 C   0  0  0  0  0  3  0  0  0  0  0  0
  -30.7130  -14.5430   20.5440 C   0  0  0  0  0  0  0  0  0  0  0  0
  -30.4240  -12.4040   19.2990 C   0  0  0  0  0  2  0  0  0  0  0  0
  -29.4880  -12.6180   18.0890 C   0  0  0  0  0  2  0  0  0  0  0  0
  -28.0100  -12.4650   18.5010 C   0  0  0  0  0  2  0  0  0  0  0  0
  -27.6680  -13.2750   19.7780 C   0  0  0  0  0  3  0  0  0  0  0  0
  -28.7080  -13.0090   20.8860 C   0  0  0  0  0  2  0  0  0  0  0  0
  -30.0400  -13.3630   20.3540 N   0  0  0  0  0  0  0  0  0  0  0  0
  -31.7930  -14.7520   19.9830 O   0  0  0  0  0  0  0  0  0  0  0  0
  -25.2620  -13.8970   20.4460 C   0  0  0  0  0  0  0  0  0  0  0  0
  -24.1850  -13.1330   20.8060 C   0  0  0  0  0  0  0  0  0  0  0  0
  -24.6410  -11.7800   20.7950 C   0  0  0  0  0  0  0  0  0  0  0  0
  -26.3060  -13.0100   20.2370 N   0  0  0  0  0  0  0  0  0  0  0  0
  -25.9350  -11.7300   20.5040 N   0  0  0  0  0  0  0  0  0  0  0  0
  -23.9070  -10.5230   20.9900 C   0  0  0  0  0  0  0  0  0  0  0  0
  -24.3280   -9.5600   21.9340 C   0  0  0  0  0  3  0  0  0  0  0  0
  -23.5940   -8.3680   22.1160 C   0  0  0  0  0  3  0  0  0  0  0  0
  -22.4270   -8.1290   21.3520 C   0  0  0  0  0  0  0  0  0  0  0  0
  -22.0260   -9.0790   20.3970 C   0  0  0  0  0  3  0  0  0  0  0  0
  -22.7590  -10.2640   20.2140 C   0  0  0  0  0  3  0  0  0  0  0  0
  -21.6680   -6.9880   21.4400 O   0  0  0  0  0  0  0  0  0  0  0  0
  -21.6060   -6.2510   22.5950 C   0  0  0  0  0  0  0  0  0  0  0  0
  -21.1790   -6.8160   23.8170 C   0  0  0  0  0  3  0  0  0  0  0  0
  -21.0660   -6.0060   24.9650 C   0  0  0  0  0  3  0  0  0  0  0  0
  -21.3690   -4.6340   24.8920 C   0  0  0  0  0  0  0  0  0  0  0  0
  -21.7880   -4.0680   23.6740 C   0  0  0  0  0  3  0  0  0  0  0  0
  -21.9030   -4.8750   22.5290 C   0  0  0  0  0  0  0  0  0  0  0  0
  -22.2870   -4.3220   21.3540 F   0  0  0  0  0  0  0  0  0  0  0  0
  -21.2520   -3.8540   25.9920 F   0  0  0  0  0  0  0  0  0  0  0  0
  -22.7860  -13.6190   21.0570 C   0  0  0  0  0  0  0  0  0  0  0  0
  -22.0450  -12.9340   21.9210 N   0  0  0  0  0  0  0  0  0  0  0  0
  -22.3590  -14.6410   20.5230 O   0  0  0  0  0  0  0  0  0  0  0  0
  -22.4030  -12.1060   22.3740 H   0  0  0  0  0  0  0  0  0  0  0  0
  -21.1070  -13.2430   22.1320 H   0  0  0  0  0  0  0  0  0  0  0  0
  -25.4350  -15.2660   20.2620 N   0  0  0  0  0  0  0  0  0  0  0  0
  -24.6770  -15.9300   20.3770 H   0  0  0  0  0  0  0  0  0  0  0  0
  -26.3050  -15.7020   19.9820 H   0  0  0  0  0  0  0  0  0  0  0  0
  -32.2950  -17.5890   16.6410 C   0  0  0  0  0  2  0  0  0  0  0  0
  -32.0730  -18.7540   17.2770 C   0  0  0  0  0  3  0  0  0  0  0  0
  -29.9360  -21.7490   20.6600 O   0  0  0  0  0  0  0  0  0  0  0  0
  -29.1700  -22.7050   19.8790 C   0  0  0  0  0  2  0  0  0  0  0  0
  -29.2360  -24.1690   20.4160 C   0  0  0  0  0  0  0  0  0  0  0  0
  -30.1000  -24.5290   21.2250 O   0  0  0  0  0  0  0  0  0  0  0  0
  -28.1620  -25.1560   19.8760 C   0  0  0  0  0  2  0  0  0  0  0  0
  -28.3310  -26.5620   20.2420 O   0  0  0  0  0  0  0  0  0  0  0  0
  -24.5800  -31.8930   23.2340 C   0  0  0  0  0  0  0  0  0  0  0  0
  -27.1900  -27.3640   20.1830 C   0  0  0  0  0  0  0  0  0  0  0  0
  -23.3700  -30.4950   21.5980 C   0  0  0  0  0  3  0  0  0  0  0  0
  -24.8150  -28.9410   20.1780 C   0  0  0  0  0  0  0  0  0  0  0  0
  -25.9050  -30.8160   21.4110 C   0  0  0  0  0  2  0  0  0  0  0  0
  -25.9810  -29.4390   20.7730 C   0  0  0  0  0  0  0  0  0  0  0  0
  -27.1700  -28.6590   20.7730 C   0  0  0  0  0  3  0  0  0  0  0  0
  -26.0000  -26.9120   19.5600 C   0  0  0  0  0  3  0  0  0  0  0  0
  -24.8240  -27.6800   19.5670 C   0  0  0  0  0  3  0  0  0  0  0  0
  -23.5790  -29.8120   20.2200 C   0  0  0  0  0  2  0  0  0  0  0  0
  -24.6370  -31.0830   22.1380 N   0  0  0  0  0  0  0  0  0  0  0  0
  -23.4980  -32.1770   23.7680 O   0  0  0  0  0  0  0  0  0  0  0  0
  -22.7060  -29.4810   22.5600 C   0  0  0  0  0  0  0  0  0  0  0  0
  -21.3800  -29.3110   22.4330 N   0  0  0  0  0  0  0  0  0  0  0  0
  -23.3820  -28.8520   23.3780 O   0  0  0  0  0  0  0  0  0  0  0  0
  -20.8960  -29.8690   21.7440 H   0  0  0  0  0  0  0  0  0  0  0  0
  -17.9930  -28.1530   22.9460 C   0  0  0  0  0  0  0  0  0  0  0  0
  -20.5550  -28.3820   23.2060 C   0  0  0  0  0  3  0  0  0  0  0  0
  -20.6380  -26.9500   22.6290 C   0  0  0  0  0  2  0  0  0  0  0  0
  -19.5290  -26.6400   21.6200 C   0  0  0  0  0  2  0  0  0  0  0  0
  -18.1520  -26.8020   22.2700 C   0  0  0  0  0  2  0  0  0  0  0  0
  -19.1220  -28.9020   23.3710 C   0  0  0  0  0  0  0  0  0  0  0  0
  -18.9200  -30.1670   23.9650 C   0  0  0  0  0  3  0  0  0  0  0  0
  -17.6230  -30.6850   24.1340 C   0  0  0  0  0  3  0  0  0  0  0  0
  -16.5080  -29.9330   23.7240 C   0  0  0  0  0  3  0  0  0  0  0  0
  -16.6940  -28.6680   23.1370 C   0  0  0  0  0  3  0  0  0  0  0  0
  -25.8690  -32.5190   23.8540 C   0  0  0  0  0  3  0  0  0  0  0  0
  -25.5650  -33.9190   24.1830 N   0  0  0  0  0  0  0  0  0  0  0  0
  -25.9000  -34.9700   23.4220 C   0  0  0  0  0  0  0  0  0  0  0  0
  -26.5690  -34.8620   22.3910 O   0  0  0  0  0  0  0  0  0  0  0  0
  -24.9690  -34.0760   24.9830 H   0  0  0  0  0  0  0  0  0  0  0  0
  -24.1820  -36.7710   23.0620 C   0  0  0  0  0  1  0  0  0  0  0  0
  -25.4170  -36.3600   23.8790 C   0  0  0  0  0  3  0  0  0  0  0  0
  -27.5540  -37.2310   24.7180 C   0  0  0  0  0  1  0  0  0  0  0  0
  -26.4550  -37.4090   23.7730 N   0  0  0  0  0  0  0  0  0  0  0  0
  -26.0530  -38.3290   23.9240 H   0  0  0  0  0  0  0  0  0  0  0  0
  -26.3840  -31.7450   25.1290 C   0  0  1  0  0  0  0  0  0  0  0  0
  -25.2910  -31.5130   26.1980 C   0  0  0  0  0  1  0  0  0  0  0  0
  -26.9590  -30.3650   24.7360 C   0  0  0  0  0  1  0  0  0  0  0  0
  -27.5390  -32.5340   25.7890 C   0  0  0  0  0  1  0  0  0  0  0  0
  -31.1800  -21.3540   18.1030 O   0  0  0  0  0  0  0  0  0  0  0  0
  -30.7180  -22.8150   16.2510 C   0  0  0  0  0  1  0  0  0  0  0  0
  -30.4150  -21.4630   16.9010 C   0  0  0  0  0  2  0  0  0  0  0  0
  1  3  1  0
  3  2  2  0
  3  7  1  0
  4  6  1  0
  4  1  2  0
  5 47  1  0
  5  2  1  0
  6  5  2  0
  7  8  2  0
  9  8  1  0
 10 15  1  0
 11 12  1  0
 11 10  1  0
 13 12  1  0
 13 20  1  0
 13 14  1  0
 15  9  1  0
 15 14  1  0
 16  9  2  0
 17 18  2  0
 18 37  1  0
 19 18  1  0
 19 22  1  0
 20 17  1  0
 20 21  1  0
 21 19  2  0
 22 23  1  0
 23 24  2  0
 25 28  1  0
 25 24  1  0
 26 25  2  0
 27 26  1  0
 27 22  2  0
 28 29  1  0
 29 30  1  0
 30 31  2  0
 32 31  1  0
 32 36  1  0
 33 32  2  0
 34 29  2  0
 34 33  1  0
 35 34  1  0
 37 38  1  0
 38 41  1  0
 38 40  1  0
 39 37  2  0
 42 43  1  0
 42 17  1  0
 44 42  1  0
 45 46  2  0
 46  4  1  0
 48 49  1  0
 48 47  1  0
 49 50  2  0
 51 52  1  0
 51 49  1  0
 53 64  2  0
 54 52  1  0
 54 59  1  0
 55 63  1  0
 55 65  1  0
 56 62  1  0
 56 58  1  0
 57 63  1  0
 58 59  2  0
 58 57  1  0
 60 61  1  0
 60 54  2  0
 61 56  2  0
 62 55  1  0
 63 53  1  0
 65 67  2  0
 66 65  1  0
 68 66  1  0
 69 78  2  0
 69 74  1  0
 70 66  1  0
 70 74  1  0
 71 70  1  0
 72 73  1  0
 72 71  1  0
 73 69  1  0
 74 75  2  0
 75 76  1  0
 77 76  2  0
 78 77  1  0
 79 53  1  0
 79 80  1  0
 79 89  1  0
 80 83  1  0
 81 85  1  0
 81 80  1  0
 82 81  2  0
 85 84  1  0
 87 85  1  0
 87 88  1  0
 87 86  1  0
 89 92  1  1
 89 90  1  0
 91 89  1  0
 93  6  1  0
 94 95  1  0
 95 93  1  0
M  ISO  4   8 100   9 100  51 101  52 101
M  END
>  <TORSDO>  (34) 
F 24

>  <SCORE>  (34) 
-12.731

>  <name>  (34) 
33

>  <ligand_id>  (34) 
33

>  <original_smiles>  (34) 
[H]C([H])=C([H])c1c([H])c(C([H])=C([H])C(=O)N2C([H])([H])C([H])([H])C([H])([H])C([H])(n3nc(-c4c([H])c([H])c(Oc5c([H])c([H])c(F)c([H])c5F)c([H])c4[H])c(C(=O)N([H])[H])c3N([H])[H])C2([H])[H])c([H])c(OC([H])([H])C(=O)C([H])([H])Oc2c([H])c([H])c3c(c2[H])C([H])([H])N(C(=O)C([H])(N([H])C(=O)C([H])(N([H])C([H])([H])[H])C([H])([H])[H])C(C([H])([H])[H])(C([H])([H])[H])C([H])([H])[H])C([H])(C(=O)N([H])C2([H])c4c([H])c([H])c([H])c([H])c4C([H])([H])C([H])([H])C2([H])[H])C3([H])[H])c1OC([H])([H])C([H])([H])[H]

>  <smiles>  (34) 
[H]C([H])=C([H])c1c([H])c(C([H])=C([H])C(=O)N2C([H])([H])C([H])([H])C([H])([H])C([H])(n3nc(-c4c([H])c([H])c(Oc5c([H])c([H])c(F)c([H])c5F)c([H])c4[H])c(C(=O)N([H])[H])c3N([H])[H])C2([H])[H])c([H])c(OC([H])([H])C(=O)C([H])([H])Oc2c([H])c([H])c3c(c2[H])C([H])([H])N(C(=O)C([H])(N([H])C(=O)C([H])(N([H])C([H])([H])[H])C([H])([H])[H])C(C([H])([H])[H])(C([H])([H])[H])C([H])([H])[H])C([H])(C(=O)N([H])C2([H])c4c([H])c([H])c([H])c([H])c4C([H])([H])C([H])([H])C2([H])[H])C3([H])[H])c1OC([H])([H])C([H])([H])[H]

$$$$
34:0:0
     RDKit          3D

 92100  0  0  1  0  0  0  0  0999 V2000
  -29.2240  -18.9780   20.1230 C   0  0  0  0  0  3  0  0  0  0  0  0
  -28.2420  -18.8210   19.1060 C   0  0  0  0  0  3  0  0  0  0  0  0
  -27.2580  -19.8390   18.9540 C   0  0  0  0  0  0  0  0  0  0  0  0
  -27.4370  -21.0860   19.6040 C   0  0  0  0  0  0  0  0  0  0  0  0
  -28.7070  -21.3740   20.1750 C   0  0  0  0  0  0  0  0  0  0  0  0
  -25.9820  -19.6080   18.1340 C   0  0  0  0  0  1  0  0  0  0  0  0
  -26.2400  -22.0350   19.6790 C   0  0  0  0  0  1  0  0  0  0  0  0
  -29.5120  -20.2860   20.5390 N   0  0  0  0  0  0  0  0  0  0  0  0
  -29.8740  -17.6860   20.6550 C   0  0  0  0  0  0  0  0  0  0  0  0
  -30.2310  -16.5250   20.9660 C   0  0  0  0  0  0  0  0  0  0  0  0
  -30.8990  -15.1680   21.2400 C   0  0  0  0  0  0  0  0  0  0  0  0
  -30.8140  -12.7400   20.6610 C   0  0  0  0  0  2  0  0  0  0  0  0
  -30.1420  -12.5690   19.2820 C   0  0  0  0  0  2  0  0  0  0  0  0
  -28.6130  -12.4530   19.4460 C   0  0  0  0  0  2  0  0  0  0  0  0
  -28.0250  -13.5460   20.3780 C   0  0  0  0  0  3  0  0  0  0  0  0
  -28.8430  -13.7060   21.6740 C   0  0  0  0  0  2  0  0  0  0  0  0
  -30.2360  -13.9560   21.2890 N   0  0  0  0  0  0  0  0  0  0  0  0
  -32.1330  -15.1530   21.2060 O   0  0  0  0  0  0  0  0  0  0  0  0
  -25.5990  -14.2710   20.7810 C   0  0  0  0  0  0  0  0  0  0  0  0
  -24.4380  -13.5670   20.9160 C   0  0  0  0  0  0  0  0  0  0  0  0
  -24.8080  -12.1900   20.8760 C   0  0  0  0  0  0  0  0  0  0  0  0
  -26.6070  -13.3320   20.6450 N   0  0  0  0  0  0  0  0  0  0  0  0
  -26.1280  -12.0670   20.7740 N   0  0  0  0  0  0  0  0  0  0  0  0
  -23.9730  -10.9830   20.8680 C   0  0  0  0  0  0  0  0  0  0  0  0
  -24.2460   -9.8920   21.7210 C   0  0  0  0  0  3  0  0  0  0  0  0
  -23.4140   -8.7530   21.7130 C   0  0  0  0  0  3  0  0  0  0  0  0
  -22.2950   -8.6980   20.8500 C   0  0  0  0  0  0  0  0  0  0  0  0
  -22.0380   -9.7780   19.9860 C   0  0  0  0  0  3  0  0  0  0  0  0
  -22.8710  -10.9090   19.9910 C   0  0  0  0  0  3  0  0  0  0  0  0
  -21.4510   -7.6180   20.7560 O   0  0  0  0  0  0  0  0  0  0  0  0
  -21.3390   -6.7000   21.7690 C   0  0  0  0  0  0  0  0  0  0  0  0
  -20.9700   -7.0770   23.0790 C   0  0  0  0  0  3  0  0  0  0  0  0
  -20.8060   -6.0950   24.0760 C   0  0  0  0  0  3  0  0  0  0  0  0
  -20.9940   -4.7350   23.7640 C   0  0  0  0  0  0  0  0  0  0  0  0
  -21.3510   -4.3550   22.4580 C   0  0  0  0  0  3  0  0  0  0  0  0
  -21.5210   -5.3350   21.4630 C   0  0  0  0  0  0  0  0  0  0  0  0
  -21.8510   -4.9630   20.2030 F   0  0  0  0  0  0  0  0  0  0  0  0
  -20.8240   -3.7900   24.7160 F   0  0  0  0  0  0  0  0  0  0  0  0
  -23.0540  -14.1410   20.9870 C   0  0  0  0  0  0  0  0  0  0  0  0
  -22.1480  -13.4820   21.7020 N   0  0  0  0  0  0  0  0  0  0  0  0
  -22.7790  -15.2160   20.4520 O   0  0  0  0  0  0  0  0  0  0  0  0
  -22.3690  -12.6120   22.1650 H   0  0  0  0  0  0  0  0  0  0  0  0
  -21.2140  -13.8550   21.7850 H   0  0  0  0  0  0  0  0  0  0  0  0
  -25.8590  -15.6330   20.7500 N   0  0  0  0  0  0  0  0  0  0  0  0
  -25.1100  -16.3140   20.7800 H   0  0  0  0  0  0  0  0  0  0  0  0
  -26.7650  -16.0600   20.6240 H   0  0  0  0  0  0  0  0  0  0  0  0
  -28.2610  -17.6950   16.8440 C   0  0  0  0  0  2  0  0  0  0  0  0
  -28.3230  -17.6560   18.1880 C   0  0  0  0  0  3  0  0  0  0  0  0
  -29.2140  -22.7060   20.3870 O   0  0  0  0  0  0  0  0  0  0  0  0
  -28.4150  -23.9860   20.2390 C   0  0  0  0  0  2  0  0  0  0  0  0
  -29.0220  -25.3980   19.7200 C   0  0  0  0  0  2  0  0  0  0  0  0
  -28.7680  -26.7470   20.3420 O   0  0  0  0  0  0  0  0  0  0  0  0
  -24.7640  -31.9970   23.2870 C   0  0  0  0  0  0  0  0  0  0  0  0
  -27.6000  -27.5350   20.2320 C   0  0  0  0  0  0  0  0  0  0  0  0
  -23.6390  -30.5760   21.6060 C   0  0  0  0  0  3  0  0  0  0  0  0
  -25.1740  -29.0790   20.1900 C   0  0  0  0  0  0  0  0  0  0  0  0
  -26.1700  -30.9750   21.4750 C   0  0  0  0  0  2  0  0  0  0  0  0
  -26.3100  -29.6030   20.8170 C   0  0  0  0  0  0  0  0  0  0  0  0
  -27.5190  -28.8390   20.8270 C   0  0  0  0  0  3  0  0  0  0  0  0
  -26.4380  -27.0670   19.5850 C   0  0  0  0  0  3  0  0  0  0  0  0
  -25.2430  -27.8200   19.5660 C   0  0  0  0  0  3  0  0  0  0  0  0
  -23.9030  -29.9110   20.2250 C   0  0  0  0  0  2  0  0  0  0  0  0
  -24.8750  -31.2010   22.1810 N   0  0  0  0  0  0  0  0  0  0  0  0
  -23.6610  -32.2360   23.8010 O   0  0  0  0  0  0  0  0  0  0  0  0
  -22.9900  -29.5350   22.5480 C   0  0  0  0  0  0  0  0  0  0  0  0
  -21.6610  -29.3660   22.4400 N   0  0  0  0  0  0  0  0  0  0  0  0
  -23.6820  -28.8820   23.3320 O   0  0  0  0  0  0  0  0  0  0  0  0
  -21.1610  -29.9440   21.7800 H   0  0  0  0  0  0  0  0  0  0  0  0
  -18.2850  -28.1950   23.0110 C   0  0  0  0  0  0  0  0  0  0  0  0
  -20.8550  -28.4020   23.1940 C   0  0  0  0  0  3  0  0  0  0  0  0
  -20.9090  -26.9990   22.5450 C   0  0  0  0  0  2  0  0  0  0  0  0
  -19.7640  -26.7470   21.5580 C   0  0  0  0  0  2  0  0  0  0  0  0
  -18.4120  -26.8800   22.2600 C   0  0  0  0  0  2  0  0  0  0  0  0
  -19.4320  -28.9180   23.4350 C   0  0  0  0  0  0  0  0  0  0  0  0
  -19.2580  -30.1510   24.0980 C   0  0  0  0  0  3  0  0  0  0  0  0
  -17.9680  -30.6620   24.3450 C   0  0  0  0  0  3  0  0  0  0  0  0
  -16.8370  -29.9370   23.9360 C   0  0  0  0  0  3  0  0  0  0  0  0
  -16.9950  -28.7040   23.2740 C   0  0  0  0  0  3  0  0  0  0  0  0
  -26.0110  -32.6680   23.9430 C   0  0  0  0  0  3  0  0  0  0  0  0
  -25.6740  -34.0730   24.2100 N   0  0  0  0  0  0  0  0  0  0  0  0
  -26.0540  -35.1070   23.4490 C   0  0  0  0  0  0  0  0  0  0  0  0
  -26.7930  -34.9790   22.4680 O   0  0  0  0  0  0  0  0  0  0  0  0
  -25.0280  -34.2460   24.9650 H   0  0  0  0  0  0  0  0  0  0  0  0
  -24.3440  -36.8810   22.9410 C   0  0  0  0  0  1  0  0  0  0  0  0
  -25.5370  -36.5070   23.8360 C   0  0  0  0  0  3  0  0  0  0  0  0
  -27.6100  -37.4340   24.7700 C   0  0  0  0  0  1  0  0  0  0  0  0
  -26.5710  -37.5610   23.7510 N   0  0  0  0  0  0  0  0  0  0  0  0
  -26.1520  -38.4830   23.8410 H   0  0  0  0  0  0  0  0  0  0  0  0
  -26.4790  -31.9470   25.2660 C   0  0  1  0  0  0  0  0  0  0  0  0
  -25.3440  -31.7400   26.2970 C   0  0  0  0  0  1  0  0  0  0  0  0
  -27.0850  -30.5600   24.9500 C   0  0  0  0  0  1  0  0  0  0  0  0
  -27.5990  -32.7730   25.9450 C   0  0  0  0  0  1  0  0  0  0  0  0
  1  8  1  0
  1  9  1  0
  2 48  1  0
  2  1  1  0
  3  2  1  0
  3  4  2  0
  4  7  1  0
  4  5  1  0
  5 49  1  0
  5  8  2  0
  6  3  1  0
  9 10  3  0
 10 11  1  0
 11 17  1  0
 12 17  1  0
 13 14  1  0
 13 12  1  0
 15 14  1  0
 15 22  1  0
 15 16  1  0
 17 16  1  0
 18 11  2  0
 19 20  2  0
 20 39  1  0
 21 20  1  0
 22 23  1  0
 22 19  1  0
 23 21  2  0
 24 21  1  0
 24 25  1  0
 26 25  2  0
 27 26  1  0
 28 29  1  0
 28 27  2  0
 29 24  2  0
 30 27  1  0
 30 31  1  0
 31 32  1  0
 32 33  2  0
 34 33  1  0
 34 38  1  0
 35 34  2  0
 36 31  2  0
 36 35  1  0
 37 36  1  0
 39 40  1  0
 40 43  1  0
 40 42  1  0
 41 39  2  0
 44 45  1  0
 44 19  1  0
 46 44  1  0
 47 48  2  0
 50 49  1  0
 51 50  1  0
 51 52  1  0
 53 64  2  0
 54 52  1  0
 54 59  1  0
 55 63  1  0
 55 65  1  0
 56 62  1  0
 56 58  1  0
 57 63  1  0
 58 59  2  0
 58 57  1  0
 60 54  2  0
 61 60  1  0
 61 56  2  0
 62 55  1  0
 63 53  1  0
 65 67  2  0
 66 65  1  0
 68 66  1  0
 69 78  2  0
 69 74  1  0
 70 66  1  0
 70 74  1  0
 71 70  1  0
 72 73  1  0
 72 71  1  0
 73 69  1  0
 74 75  2  0
 75 76  1  0
 77 76  2  0
 78 77  1  0
 79 53  1  0
 79 80  1  0
 79 89  1  0
 80 83  1  0
 81 85  1  0
 81 80  1  0
 82 81  2  0
 85 84  1  0
 87 85  1  0
 87 88  1  0
 87 86  1  0
 89 92  1  1
 89 90  1  0
 91 89  1  0
M  ISO  4  10 100  11 100  51 101  52 101
M  END
>  <TORSDO>  (35) 
F 21

>  <SCORE>  (35) 
-10.232

>  <name>  (35) 
34

>  <ligand_id>  (35) 
34

>  <original_smiles>  (35) 
[H]C([H])=C([H])c1c(C#CC(=O)N2C([H])([H])C([H])([H])C([H])([H])C([H])(n3nc(-c4c([H])c([H])c(Oc5c([H])c([H])c(F)c([H])c5F)c([H])c4[H])c(C(=O)N([H])[H])c3N([H])[H])C2([H])[H])nc(OC([H])([H])C([H])([H])Oc2c([H])c([H])c3c(c2[H])C([H])([H])N(C(=O)C([H])(N([H])C(=O)C([H])(N([H])C([H])([H])[H])C([H])([H])[H])C(C([H])([H])[H])(C([H])([H])[H])C([H])([H])[H])C([H])(C(=O)N([H])C2([H])c4c([H])c([H])c([H])c([H])c4C([H])([H])C([H])([H])C2([H])[H])C3([H])[H])c(C([H])([H])[H])c1C([H])([H])[H]

>  <smiles>  (35) 
[H]C([H])=C([H])c1c(C#CC(=O)N2C([H])([H])C([H])([H])C([H])([H])C([H])(n3nc(-c4c([H])c([H])c(Oc5c([H])c([H])c(F)c([H])c5F)c([H])c4[H])c(C(=O)N([H])[H])c3N([H])[H])C2([H])[H])nc(OC([H])([H])C([H])([H])Oc2c([H])c([H])c3c(c2[H])C([H])([H])N(C(=O)C([H])(N([H])C(=O)C([H])(N([H])C([H])([H])[H])C([H])([H])[H])C(C([H])([H])[H])(C([H])([H])[H])C([H])([H])[H])C([H])(C(=O)N([H])C2([H])c4c([H])c([H])c([H])c([H])c4C([H])([H])C([H])([H])C2([H])[H])C3([H])[H])c(C([H])([H])[H])c1C([H])([H])[H]

$$$$
35:0:0
     RDKit          3D

 94102  0  0  1  0  0  0  0  0999 V2000
  -31.0300  -18.2730   22.3060 C   0  0  0  0  0  3  0  0  0  0  0  0
  -30.5980  -19.4780   21.7220 C   0  0  0  0  0  3  0  0  0  0  0  0
  -30.7850  -17.0290   21.6930 C   0  0  0  0  0  0  0  0  0  0  0  0
  -30.1500  -16.9850   20.4240 C   0  0  0  0  0  0  0  0  0  0  0  0
  -29.9020  -19.4950   20.4880 C   0  0  0  0  0  0  0  0  0  0  0  0
  -29.6940  -18.2220   19.8490 C   0  0  0  0  0  0  0  0  0  0  0  0
  -29.0120  -18.1820   18.6770 F   0  0  0  0  0  0  0  0  0  0  0  0
  -30.6060  -14.6750   19.4450 C   0  0  0  0  0  0  0  0  0  0  0  0
  -30.2300  -12.5150   18.2810 C   0  0  0  0  0  2  0  0  0  0  0  0
  -29.0850  -12.6890   17.2600 C   0  0  0  0  0  2  0  0  0  0  0  0
  -27.7130  -12.4790   17.9340 C   0  0  0  0  0  2  0  0  0  0  0  0
  -27.5640  -13.2740   19.2570 C   0  0  0  0  0  3  0  0  0  0  0  0
  -28.8000  -13.0770   20.1620 C   0  0  0  0  0  2  0  0  0  0  0  0
  -29.9820  -13.4630   19.3770 N   0  0  0  0  0  0  0  0  0  0  0  0
  -31.7110  -14.8780   18.9350 O   0  0  0  0  0  0  0  0  0  0  0  0
  -29.8060  -15.7020   19.8460 N   0  0  0  0  0  0  0  0  0  0  0  0
  -28.8370  -15.4500   19.9450 H   0  0  0  0  0  0  0  0  0  0  0  0
  -25.3540  -13.8020   20.4590 C   0  0  0  0  0  0  0  0  0  0  0  0
  -24.3590  -12.9940   20.9420 C   0  0  0  0  0  0  0  0  0  0  0  0
  -24.7880  -11.6520   20.6950 C   0  0  0  0  0  0  0  0  0  0  0  0
  -26.3220  -12.9490   19.9510 N   0  0  0  0  0  0  0  0  0  0  0  0
  -25.9990  -11.6470   20.1520 N   0  0  0  0  0  0  0  0  0  0  0  0
  -24.0900  -10.3760   20.8870 C   0  0  0  0  0  0  0  0  0  0  0  0
  -24.5800   -9.3900   21.7740 C   0  0  0  0  0  3  0  0  0  0  0  0
  -23.8800   -8.1800   21.9560 C   0  0  0  0  0  3  0  0  0  0  0  0
  -22.6750   -7.9430   21.2510 C   0  0  0  0  0  0  0  0  0  0  0  0
  -22.2040   -8.9170   20.3530 C   0  0  0  0  0  3  0  0  0  0  0  0
  -22.9070  -10.1190   20.1680 C   0  0  0  0  0  3  0  0  0  0  0  0
  -21.9420   -6.7840   21.3450 O   0  0  0  0  0  0  0  0  0  0  0  0
  -21.7960   -6.1200   22.5360 C   0  0  0  0  0  0  0  0  0  0  0  0
  -21.2490   -6.7490   23.6760 C   0  0  0  0  0  3  0  0  0  0  0  0
  -21.0490   -6.0100   24.8590 C   0  0  0  0  0  3  0  0  0  0  0  0
  -21.3910   -4.6450   24.9040 C   0  0  0  0  0  0  0  0  0  0  0  0
  -21.9300   -4.0170   23.7690 C   0  0  0  0  0  3  0  0  0  0  0  0
  -22.1300   -4.7520   22.5870 C   0  0  0  0  0  0  0  0  0  0  0  0
  -22.6310   -4.1380   21.4880 F   0  0  0  0  0  0  0  0  0  0  0  0
  -21.1920   -3.9330   26.0370 F   0  0  0  0  0  0  0  0  0  0  0  0
  -23.0420  -13.4370   21.5090 C   0  0  0  0  0  0  0  0  0  0  0  0
  -22.4870  -12.6720   22.4420 N   0  0  0  0  0  0  0  0  0  0  0  0
  -22.5190  -14.4950   21.1600 O   0  0  0  0  0  0  0  0  0  0  0  0
  -22.9260  -11.8150   22.7430 H   0  0  0  0  0  0  0  0  0  0  0  0
  -21.6130  -12.9500   22.8640 H   0  0  0  0  0  0  0  0  0  0  0  0
  -25.5030  -15.1840   20.3870 N   0  0  0  0  0  0  0  0  0  0  0  0
  -24.7740  -15.8170   20.6990 H   0  0  0  0  0  0  0  0  0  0  0  0
  -26.2570  -15.6600   19.9110 H   0  0  0  0  0  0  0  0  0  0  0  0
  -30.5700  -14.6590   22.2380 C   0  0  0  0  0  2  0  0  0  0  0  0
  -29.9590  -13.5200   22.0200 C   0  0  0  0  0  1  0  0  0  0  0  0
  -31.1770  -15.8120   22.4180 C   0  0  0  0  0  2  0  0  0  0  0  0
  -29.4220  -20.6970   19.9250 O   0  0  0  0  0  0  0  0  0  0  0  0
  -29.4910  -21.9300   20.7080 C   0  0  0  0  0  2  0  0  0  0  0  0
  -29.0430  -23.3000   20.0550 C   0  0  0  0  0  2  0  0  0  0  0  0
  -28.9580  -24.4410   21.1010 C   0  0  0  0  0  3  0  0  0  0  0  0
  -28.7820  -25.7960   21.0350 C   0  0  0  0  0  3  0  0  0  0  0  0
  -28.6330  -26.6330   19.9430 O   0  0  0  0  0  0  0  0  0  0  0  0
  -24.6600  -31.7120   23.1500 C   0  0  0  0  0  0  0  0  0  0  0  0
  -27.5030  -27.4360   19.9560 C   0  0  0  0  0  0  0  0  0  0  0  0
  -23.5280  -30.3150   21.4540 C   0  0  0  0  0  3  0  0  0  0  0  0
  -25.0600  -28.8860   19.9870 C   0  0  0  0  0  0  0  0  0  0  0  0
  -26.0430  -30.7720   21.2940 C   0  0  0  0  0  2  0  0  0  0  0  0
  -26.1940  -29.4220   20.6110 C   0  0  0  0  0  0  0  0  0  0  0  0
  -27.4210  -28.7040   20.5970 C   0  0  0  0  0  3  0  0  0  0  0  0
  -26.3540  -26.9350   19.3140 C   0  0  0  0  0  3  0  0  0  0  0  0
  -25.1390  -27.6450   19.3300 C   0  0  0  0  0  3  0  0  0  0  0  0
  -23.7790  -29.6910   20.0550 C   0  0  0  0  0  2  0  0  0  0  0  0
  -24.7610  -30.9460   22.0250 N   0  0  0  0  0  0  0  0  0  0  0  0
  -23.5630  -31.9220   23.6870 O   0  0  0  0  0  0  0  0  0  0  0  0
  -22.9080  -29.2380   22.3750 C   0  0  0  0  0  0  0  0  0  0  0  0
  -21.5990  -28.9890   22.2120 N   0  0  0  0  0  0  0  0  0  0  0  0
  -23.6040  -28.6320   23.1930 O   0  0  0  0  0  0  0  0  0  0  0  0
  -21.0970  -29.5350   21.5270 H   0  0  0  0  0  0  0  0  0  0  0  0
  -18.2760  -27.6240   22.6210 C   0  0  0  0  0  0  0  0  0  0  0  0
  -20.8150  -27.9910   22.9380 C   0  0  0  0  0  3  0  0  0  0  0  0
  -20.9920  -26.5860   22.3180 C   0  0  0  0  0  2  0  0  0  0  0  0
  -19.9190  -26.2470   21.2780 C   0  0  0  0  0  2  0  0  0  0  0  0
  -18.5230  -26.3070   21.9050 C   0  0  0  0  0  2  0  0  0  0  0  0
  -19.3510  -28.4220   23.0920 C   0  0  0  0  0  0  0  0  0  0  0  0
  -19.0650  -29.6530   23.7190 C   0  0  0  0  0  3  0  0  0  0  0  0
  -17.7370  -30.0890   23.8800 C   0  0  0  0  0  3  0  0  0  0  0  0
  -16.6750  -29.2870   23.4250 C   0  0  0  0  0  3  0  0  0  0  0  0
  -16.9460  -28.0550   22.8020 C   0  0  0  0  0  3  0  0  0  0  0  0
  -25.9120  -32.3740   23.8030 C   0  0  0  0  0  3  0  0  0  0  0  0
  -25.5560  -33.7600   24.1370 N   0  0  0  0  0  0  0  0  0  0  0  0
  -25.8880  -34.8280   23.4000 C   0  0  0  0  0  0  0  0  0  0  0  0
  -26.5950  -34.7520   22.3910 O   0  0  0  0  0  0  0  0  0  0  0  0
  -24.9310  -33.8910   24.9200 H   0  0  0  0  0  0  0  0  0  0  0  0
  -24.1410  -36.5890   22.9880 C   0  0  0  0  0  1  0  0  0  0  0  0
  -25.3500  -36.1990   23.8530 C   0  0  0  0  0  3  0  0  0  0  0  0
  -27.4230  -37.1120   24.8000 C   0  0  0  0  0  1  0  0  0  0  0  0
  -26.3660  -37.2730   23.8050 N   0  0  0  0  0  0  0  0  0  0  0  0
  -25.9350  -38.1840   23.9460 H   0  0  0  0  0  0  0  0  0  0  0  0
  -26.4240  -31.6060   25.0820 C   0  0  1  0  0  0  0  0  0  0  0  0
  -25.3070  -31.2790   26.1010 C   0  0  0  0  0  1  0  0  0  0  0  0
  -27.1030  -30.2750   24.6830 C   0  0  0  0  0  1  0  0  0  0  0  0
  -27.5000  -32.4500   25.8050 C   0  0  0  0  0  1  0  0  0  0  0  0
  2  1  1  0
  3  1  2  0
  3 48  1  0
  4  3  1  0
  5  2  2  0
  6  4  2  0
  6  5  1  0
  7  6  1  0
  8 16  1  0
  9 14  1  0
 10 11  1  0
 10  9  1  0
 12 11  1  0
 12 21  1  0
 12 13  1  0
 14  8  1  0
 14 13  1  0
 15  8  2  0
 16 17  1  0
 16  4  1  0
 18 19  2  0
 19 38  1  0
 20 23  1  0
 20 19  1  0
 21 22  1  0
 21 18  1  0
 22 20  2  0
 23 24  1  0
 24 25  2  0
 26 29  1  0
 26 25  1  0
 27 26  2  0
 28 27  1  0
 28 23  2  0
 29 30  1  0
 30 35  2  0
 30 31  1  0
 31 32  2  0
 32 33  1  0
 33 37  1  0
 34 33  2  0
 35 34  1  0
 36 35  1  0
 38 39  1  0
 39 41  1  0
 39 42  1  0
 40 38  2  0
 43 18  1  0
 43 44  1  0
 45 43  1  0
 46 48  1  0
 47 46  1  0
 49  5  1  0
 49 50  1  0
 51 50  1  0
 51 52  1  0
 53 52  2  0
 54 56  1  0
 54 53  1  0
 55 66  2  0
 56 61  1  0
 57 65  1  0
 57 67  1  0
 58 64  1  0
 58 60  1  0
 59 65  1  0
 60 59  1  0
 61 60  2  0
 62 63  1  0
 62 56  2  0
 63 58  2  0
 64 57  1  0
 65 55  1  0
 67 69  2  0
 68 67  1  0
 70 68  1  0
 71 80  2  0
 71 76  1  0
 72 68  1  0
 72 76  1  0
 73 72  1  0
 74 75  1  0
 74 73  1  0
 75 71  1  0
 76 77  2  0
 77 78  1  0
 79 78  2  0
 80 79  1  0
 81 55  1  0
 81 82  1  0
 81 91  1  0
 82 85  1  0
 83 87  1  0
 83 82  1  0
 84 83  2  0
 87 86  1  0
 89 87  1  0
 89 90  1  0
 89 88  1  0
 91 94  1  1
 91 92  1  0
 93 91  1  0
M  ISO  4   8 100  16 100  53 101  54 101
M  END
>  <TORSDO>  (36) 
F 21

>  <SCORE>  (36) 
-10.053

>  <name>  (36) 
35

>  <ligand_id>  (36) 
35

>  <original_smiles>  (36) 
[H]C([H])=C=C([H])c1c([H])c([H])c(OC([H])([H])C([H])([H])C([H])=C([H])Oc2c([H])c([H])c3c(c2[H])C([H])([H])N(C(=O)C([H])(N([H])C(=O)C([H])(N([H])C([H])([H])[H])C([H])([H])[H])C(C([H])([H])[H])(C([H])([H])[H])C([H])([H])[H])C([H])(C(=O)N([H])C2([H])c4c([H])c([H])c([H])c([H])c4C([H])([H])C([H])([H])C2([H])[H])C3([H])[H])c(F)c1N([H])C(=O)N1C([H])([H])C([H])([H])C([H])([H])C([H])(n2nc(-c3c([H])c([H])c(Oc4c([H])c([H])c(F)c([H])c4F)c([H])c3[H])c(C(=O)N([H])[H])c2N([H])[H])C1([H])[H]

>  <smiles>  (36) 
[H]C([H])=C=C([H])c1c([H])c([H])c(OC([H])([H])C([H])([H])C([H])=C([H])Oc2c([H])c([H])c3c(c2[H])C([H])([H])N(C(=O)C([H])(N([H])C(=O)C([H])(N([H])C([H])([H])[H])C([H])([H])[H])C(C([H])([H])[H])(C([H])([H])[H])C([H])([H])[H])C([H])(C(=O)N([H])C2([H])c4c([H])c([H])c([H])c([H])c4C([H])([H])C([H])([H])C2([H])[H])C3([H])[H])c(F)c1N([H])C(=O)N1C([H])([H])C([H])([H])C([H])([H])C([H])(n2nc(-c3c([H])c([H])c(Oc4c([H])c([H])c(F)c([H])c4F)c([H])c3[H])c(C(=O)N([H])[H])c2N([H])[H])C1([H])[H]

$$$$
36:0:0
     RDKit          3D

 93102  0  0  1  0  0  0  0  0999 V2000
  -30.0770  -22.0350   18.5750 C   0  0  0  0  0  0  0  0  0  0  0  0
  -29.3220  -23.1620   17.8930 C   0  0  0  0  0  2  0  0  0  0  0  0
  -28.0540  -23.2700   18.7280 C   0  0  0  0  0  2  0  0  0  0  0  0
  -28.5310  -22.9190   20.1420 C   0  0  0  0  0  3  0  0  0  0  0  0
  -29.5950  -21.7460   19.8020 N   0  0  0  0  0  0  0  0  0  0  0  0
  -31.0320  -21.4810   18.0200 O   0  0  0  0  0  0  0  0  0  0  0  0
  -30.3650  -20.3060   21.7340 C   0  0  0  0  0  3  0  0  0  0  0  0
  -30.9660  -17.8820   21.6590 C   0  0  0  0  0  3  0  0  0  0  0  0
  -30.0200  -18.9830   19.7280 C   0  0  0  0  0  3  0  0  0  0  0  0
  -30.8740  -19.1270   22.3380 C   0  0  0  0  0  0  0  0  0  0  0  0
  -29.9410  -20.3400   20.3930 C   0  0  0  0  0  0  0  0  0  0  0  0
  -30.5270  -17.7000   20.3290 C   0  0  0  0  0  0  0  0  0  0  0  0
  -31.3140  -19.1900   23.7870 C   0  0  0  0  0  1  0  0  0  0  0  0
  -31.1580  -14.9830   19.9910 C   0  0  0  0  0  0  0  0  0  0  0  0
  -30.9180  -12.6120   19.0610 C   0  0  0  0  0  2  0  0  0  0  0  0
  -29.9450  -12.5470   17.8600 C   0  0  0  0  0  2  0  0  0  0  0  0
  -28.4890  -12.4020   18.3420 C   0  0  0  0  0  2  0  0  0  0  0  0
  -28.1460  -13.3810   19.4950 C   0  0  0  0  0  3  0  0  0  0  0  0
  -29.2330  -13.3870   20.5880 C   0  0  0  0  0  2  0  0  0  0  0  0
  -30.4890  -13.7530   19.9200 N   0  0  0  0  0  0  0  0  0  0  0  0
  -32.3840  -14.9410   19.8400 O   0  0  0  0  0  0  0  0  0  0  0  0
  -30.4340  -16.2210   19.8440 N   0  0  0  0  0  0  0  0  0  0  0  0
  -29.5060  -16.0150   19.5110 H   0  0  0  0  0  0  0  0  0  0  0  0
  -25.8260  -14.1030   20.2950 C   0  0  0  0  0  0  0  0  0  0  0  0
  -24.7240  -13.3940   20.6870 C   0  0  0  0  0  0  0  0  0  0  0  0
  -25.1080  -12.0190   20.6590 C   0  0  0  0  0  0  0  0  0  0  0  0
  -26.8090  -13.1630   20.0340 N   0  0  0  0  0  0  0  0  0  0  0  0
  -26.3890  -11.9040   20.3210 N   0  0  0  0  0  0  0  0  0  0  0  0
  -24.3130  -10.8020   20.8680 C   0  0  0  0  0  0  0  0  0  0  0  0
  -24.6860   -9.8300   21.8240 C   0  0  0  0  0  3  0  0  0  0  0  0
  -23.8920   -8.6790   22.0210 C   0  0  0  0  0  3  0  0  0  0  0  0
  -22.7110   -8.4930   21.2640 C   0  0  0  0  0  0  0  0  0  0  0  0
  -22.3570   -9.4520   20.2990 C   0  0  0  0  0  3  0  0  0  0  0  0
  -23.1500  -10.5940   20.0980 C   0  0  0  0  0  3  0  0  0  0  0  0
  -21.8930   -7.3940   21.3700 O   0  0  0  0  0  0  0  0  0  0  0  0
  -21.7670   -6.7020   22.5480 C   0  0  0  0  0  0  0  0  0  0  0  0
  -21.3510   -7.3310   23.7420 C   0  0  0  0  0  3  0  0  0  0  0  0
  -21.1670   -6.5680   24.9120 C   0  0  0  0  0  3  0  0  0  0  0  0
  -21.3910   -5.1780   24.8900 C   0  0  0  0  0  0  0  0  0  0  0  0
  -21.8020   -4.5490   23.7010 C   0  0  0  0  0  3  0  0  0  0  0  0
  -21.9860   -5.3100   22.5330 C   0  0  0  0  0  0  0  0  0  0  0  0
  -22.3610   -4.6950   21.3840 F   0  0  0  0  0  0  0  0  0  0  0  0
  -21.2080   -4.4440   26.0120 F   0  0  0  0  0  0  0  0  0  0  0  0
  -23.3620  -13.9550   20.9760 C   0  0  0  0  0  0  0  0  0  0  0  0
  -22.6110  -13.3200   21.8680 N   0  0  0  0  0  0  0  0  0  0  0  0
  -22.9760  -14.9940   20.4430 O   0  0  0  0  0  0  0  0  0  0  0  0
  -22.9360  -12.4810   22.3250 H   0  0  0  0  0  0  0  0  0  0  0  0
  -21.6980  -13.6840   22.1000 H   0  0  0  0  0  0  0  0  0  0  0  0
  -26.0670  -15.4620   20.1140 N   0  0  0  0  0  0  0  0  0  0  0  0
  -25.3500  -16.1630   20.2630 H   0  0  0  0  0  0  0  0  0  0  0  0
  -26.9450  -15.8560   19.8040 H   0  0  0  0  0  0  0  0  0  0  0  0
  -28.7600  -24.4500   20.8910 C   0  0  0  0  0  2  0  0  0  0  0  0
  -28.6790  -25.9590   20.4010 O   0  0  0  0  0  0  0  0  0  0  0  0
  -24.7390  -31.6590   23.1590 C   0  0  0  0  0  0  0  0  0  0  0  0
  -27.5580  -26.8840   20.3940 C   0  0  0  0  0  0  0  0  0  0  0  0
  -23.6510  -30.1960   21.4990 C   0  0  0  0  0  3  0  0  0  0  0  0
  -25.1980  -28.6020   20.1980 C   0  0  0  0  0  0  0  0  0  0  0  0
  -26.2060  -30.5010   21.4540 C   0  0  0  0  0  2  0  0  0  0  0  0
  -26.3390  -29.0870   20.8480 C   0  0  0  0  0  0  0  0  0  0  0  0
  -27.5210  -28.2480   20.9150 C   0  0  0  0  0  3  0  0  0  0  0  0
  -26.3820  -26.4980   19.7190 C   0  0  0  0  0  3  0  0  0  0  0  0
  -25.2330  -27.3200   19.6200 C   0  0  0  0  0  3  0  0  0  0  0  0
  -23.9560  -29.4820   20.1540 C   0  0  0  0  0  2  0  0  0  0  0  0
  -24.8830  -30.8110   22.0930 N   0  0  0  0  0  0  0  0  0  0  0  0
  -23.6220  -31.9320   23.6260 O   0  0  0  0  0  0  0  0  0  0  0  0
  -22.9420  -29.2030   22.4540 C   0  0  0  0  0  0  0  0  0  0  0  0
  -21.6200  -29.0250   22.2870 N   0  0  0  0  0  0  0  0  0  0  0  0
  -23.5870  -28.5920   23.3100 O   0  0  0  0  0  0  0  0  0  0  0  0
  -21.1540  -29.5680   21.5740 H   0  0  0  0  0  0  0  0  0  0  0  0
  -18.2280  -27.8170   22.7020 C   0  0  0  0  0  0  0  0  0  0  0  0
  -20.7780  -28.0940   23.0430 C   0  0  0  0  0  3  0  0  0  0  0  0
  -20.9020  -26.6550   22.4880 C   0  0  0  0  0  2  0  0  0  0  0  0
  -19.8320  -26.3180   21.4440 C   0  0  0  0  0  2  0  0  0  0  0  0
  -18.4300  -26.4620   22.0450 C   0  0  0  0  0  2  0  0  0  0  0  0
  -19.3310  -28.5900   23.1580 C   0  0  0  0  0  0  0  0  0  0  0  0
  -19.0860  -29.8560   23.7320 C   0  0  0  0  0  3  0  0  0  0  0  0
  -17.7730  -30.3500   23.8580 C   0  0  0  0  0  3  0  0  0  0  0  0
  -16.6860  -29.5740   23.4180 C   0  0  0  0  0  3  0  0  0  0  0  0
  -16.9140  -28.3090   22.8450 C   0  0  0  0  0  3  0  0  0  0  0  0
  -25.9700  -32.3360   23.8350 C   0  0  0  0  0  3  0  0  0  0  0  0
  -25.5990  -33.7250   24.1540 N   0  0  0  0  0  0  0  0  0  0  0  0
  -25.9230  -34.7940   23.4120 C   0  0  0  0  0  0  0  0  0  0  0  0
  -26.6280  -34.7160   22.4040 O   0  0  0  0  0  0  0  0  0  0  0  0
  -24.9740  -33.8570   24.9350 H   0  0  0  0  0  0  0  0  0  0  0  0
  -24.1440  -36.5330   23.0210 C   0  0  0  0  0  1  0  0  0  0  0  0
  -25.3780  -36.1650   23.8600 C   0  0  0  0  0  3  0  0  0  0  0  0
  -27.4600  -37.1220   24.7430 C   0  0  0  0  0  1  0  0  0  0  0  0
  -26.3770  -37.2520   23.7730 N   0  0  0  0  0  0  0  0  0  0  0  0
  -25.9360  -38.1580   23.9090 H   0  0  0  0  0  0  0  0  0  0  0  0
  -26.4540  -31.5870   25.1370 C   0  0  1  0  0  0  0  0  0  0  0  0
  -25.3260  -31.3250   26.1620 C   0  0  0  0  0  1  0  0  0  0  0  0
  -27.0920  -30.2240   24.7840 C   0  0  0  0  0  1  0  0  0  0  0  0
  -27.5540  -32.4170   25.8400 C   0  0  0  0  0  1  0  0  0  0  0  0
  1  5  1  0
  2  1  1  0
  2  3  1  0
  3  4  1  0
  4 52  1  0
  5  4  1  0
  5 11  1  0
  6  1  2  0
  7 10  1  0
  8 10  2  0
  9 12  2  0
  9 11  1  0
 10 13  1  0
 11  7  2  0
 12  8  1  0
 15 20  1  0
 16 17  1  0
 16 15  1  0
 18 17  1  0
 18 27  1  0
 18 19  1  0
 20 14  1  0
 20 19  1  0
 21 14  2  0
 22 14  1  0
 22 12  1  0
 23 22  1  0
 24 25  2  0
 25 44  1  0
 26 25  1  0
 26 29  1  0
 27 24  1  0
 27 28  1  0
 28 26  2  0
 29 30  1  0
 30 31  2  0
 32 35  1  0
 32 31  1  0
 33 32  2  0
 34 33  1  0
 34 29  2  0
 35 36  1  0
 36 37  1  0
 37 38  2  0
 39 38  1  0
 39 43  1  0
 40 39  2  0
 41 36  2  0
 41 40  1  0
 42 41  1  0
 44 45  1  0
 45 48  1  0
 45 47  1  0
 46 44  2  0
 49 50  1  0
 49 24  1  0
 51 49  1  0
 53 52  1  0
 54 65  2  0
 55 53  1  0
 55 60  1  0
 56 64  1  0
 56 66  1  0
 57 59  1  0
 58 64  1  0
 59 60  2  0
 59 58  1  0
 61 55  2  0
 62 61  1  0
 62 57  2  0
 63 57  1  0
 63 56  1  0
 64 54  1  0
 66 68  2  0
 67 66  1  0
 69 67  1  0
 70 79  2  0
 70 75  1  0
 71 67  1  0
 71 75  1  0
 72 71  1  0
 73 74  1  0
 73 72  1  0
 74 70  1  0
 75 76  2  0
 76 77  1  0
 78 77  2  0
 79 78  1  0
 80 54  1  0
 80 81  1  0
 80 90  1  0
 81 84  1  0
 82 86  1  0
 82 81  1  0
 83 82  2  0
 86 85  1  0
 88 86  1  0
 88 89  1  0
 88 87  1  0
 90 93  1  1
 90 91  1  0
 92 90  1  0
M  ISO  4  14 100  22 100  52 101  53 101
M  END
>  <TORSDO>  (37) 
F 18

>  <SCORE>  (37) 
-14.362

>  <name>  (37) 
36

>  <ligand_id>  (37) 
36

>  <original_smiles>  (37) 
[H]c1c([H])c([H])c2c(c1[H])C([H])([H])C([H])([H])C([H])([H])C2([H])N([H])C(=O)C1([H])N(C(=O)C([H])(N([H])C(=O)C([H])(N([H])C([H])([H])[H])C([H])([H])[H])C(C([H])([H])[H])(C([H])([H])[H])C([H])([H])[H])C([H])([H])c2c([H])c(OC([H])([H])C3([H])N(c4c([H])c(N([H])C(=O)N5C([H])([H])C([H])([H])C([H])([H])C([H])(n6nc(-c7c([H])c([H])c(Oc8c([H])c([H])c(F)c([H])c8F)c([H])c7[H])c(C(=O)N([H])[H])c6N([H])[H])C5([H])[H])c([H])c(C([H])([H])[H])c4[H])C(=O)C([H])([H])C3([H])[H])c([H])c([H])c2C1([H])[H]

>  <smiles>  (37) 
[H]c1c([H])c([H])c2c(c1[H])C([H])([H])C([H])([H])C([H])([H])C2([H])N([H])C(=O)C1([H])N(C(=O)C([H])(N([H])C(=O)C([H])(N([H])C([H])([H])[H])C([H])([H])[H])C(C([H])([H])[H])(C([H])([H])[H])C([H])([H])[H])C([H])([H])c2c([H])c(OC([H])([H])C3([H])N(c4c([H])c(N([H])C(=O)N5C([H])([H])C([H])([H])C([H])([H])C([H])(n6nc(-c7c([H])c([H])c(Oc8c([H])c([H])c(F)c([H])c8F)c([H])c7[H])c(C(=O)N([H])[H])c6N([H])[H])C5([H])[H])c([H])c(C([H])([H])[H])c4[H])C(=O)C([H])([H])C3([H])[H])c([H])c([H])c2C1([H])[H]

$$$$
37:0:0
     RDKit          3D

 92100  0  0  1  0  0  0  0  0999 V2000
  -30.3760  -18.5630   20.3300 C   0  0  0  0  0  3  0  0  0  0  0  0
  -29.5990  -17.3240   20.2920 C   0  0  0  0  0  0  0  0  0  0  0  0
  -28.3190  -17.7890   20.0410 C   0  0  0  0  0  0  0  0  0  0  0  0
  -29.5210  -19.6600   20.1240 C   0  0  0  0  0  0  0  0  0  0  0  0
  -28.2610  -19.1760   19.9390 O   0  0  0  0  0  0  0  0  0  0  0  0
  -29.9030  -15.8320   20.7230 C   0  0  0  0  0  0  0  0  0  0  0  0
  -29.6860  -15.5550   21.9430 N   0  0  0  0  0  0  0  0  0  0  0  0
  -29.3420  -16.3580   22.4570 H   0  0  0  0  0  0  0  0  0  0  0  0
  -30.4670  -14.6350   19.8120 C   0  0  0  0  0  0  0  0  0  0  0  0
  -30.2740  -12.2870   18.9160 C   0  0  0  0  0  2  0  0  0  0  0  0
  -29.2430  -12.2310   17.7660 C   0  0  0  0  0  2  0  0  0  0  0  0
  -27.8180  -12.0290   18.3140 C   0  0  0  0  0  2  0  0  0  0  0  0
  -27.5030  -12.9910   19.4880 C   0  0  0  0  0  3  0  0  0  0  0  0
  -28.6380  -12.9830   20.5360 C   0  0  0  0  0  2  0  0  0  0  0  0
  -29.8850  -13.3750   19.8550 N   0  0  0  0  0  0  0  0  0  0  0  0
  -31.4970  -14.8050   19.1460 O   0  0  0  0  0  0  0  0  0  0  0  0
  -25.1960  -13.5870   20.4420 C   0  0  0  0  0  0  0  0  0  0  0  0
  -24.1630  -12.8170   20.8980 C   0  0  0  0  0  0  0  0  0  0  0  0
  -24.6010  -11.4630   20.7780 C   0  0  0  0  0  0  0  0  0  0  0  0
  -26.2040  -12.7050   20.0880 N   0  0  0  0  0  0  0  0  0  0  0  0
  -25.8550  -11.4190   20.3480 N   0  0  0  0  0  0  0  0  0  0  0  0
  -23.8740  -10.2060   20.9910 C   0  0  0  0  0  0  0  0  0  0  0  0
  -24.3540   -9.2170   21.8800 C   0  0  0  0  0  3  0  0  0  0  0  0
  -23.6250   -8.0260   22.0850 C   0  0  0  0  0  3  0  0  0  0  0  0
  -22.4050   -7.8140   21.4000 C   0  0  0  0  0  0  0  0  0  0  0  0
  -21.9440   -8.7910   20.5010 C   0  0  0  0  0  3  0  0  0  0  0  0
  -22.6710   -9.9740   20.2950 C   0  0  0  0  0  3  0  0  0  0  0  0
  -21.6450   -6.6750   21.5140 O   0  0  0  0  0  0  0  0  0  0  0  0
  -21.6290   -5.9330   22.6680 C   0  0  0  0  0  0  0  0  0  0  0  0
  -21.2460   -6.4940   23.9070 C   0  0  0  0  0  3  0  0  0  0  0  0
  -21.1760   -5.6810   25.0560 C   0  0  0  0  0  3  0  0  0  0  0  0
  -21.4790   -4.3090   24.9670 C   0  0  0  0  0  0  0  0  0  0  0  0
  -21.8580   -3.7480   23.7350 C   0  0  0  0  0  3  0  0  0  0  0  0
  -21.9300   -4.5590   22.5870 C   0  0  0  0  0  0  0  0  0  0  0  0
  -22.2730   -4.0110   21.3970 F   0  0  0  0  0  0  0  0  0  0  0  0
  -21.4060   -3.5260   26.0680 F   0  0  0  0  0  0  0  0  0  0  0  0
  -22.8100  -13.3070   21.3240 C   0  0  0  0  0  0  0  0  0  0  0  0
  -22.1680  -12.5980   22.2470 N   0  0  0  0  0  0  0  0  0  0  0  0
  -22.3360  -14.3500   20.8790 O   0  0  0  0  0  0  0  0  0  0  0  0
  -22.5680  -11.7520   22.6240 H   0  0  0  0  0  0  0  0  0  0  0  0
  -21.2680  -12.9080   22.5850 H   0  0  0  0  0  0  0  0  0  0  0  0
  -25.3490  -14.9570   20.2730 N   0  0  0  0  0  0  0  0  0  0  0  0
  -24.6090  -15.6120   20.5060 H   0  0  0  0  0  0  0  0  0  0  0  0
  -26.1560  -15.4030   19.8620 H   0  0  0  0  0  0  0  0  0  0  0  0
  -25.8210  -17.6310   19.9820 C   0  0  0  0  0  2  0  0  0  0  0  0
  -27.0590  -17.1130   20.0020 C   0  0  0  0  0  3  0  0  0  0  0  0
  -29.7310  -21.0580   20.1060 O   0  0  0  0  0  0  0  0  0  0  0  0
  -28.6060  -22.0580   20.1700 C   0  0  0  0  0  2  0  0  0  0  0  0
  -28.9910  -23.6310   20.0460 C   0  0  0  0  0  0  0  0  0  0  0  0
  -30.1620  -23.9450   19.8040 O   0  0  0  0  0  0  0  0  0  0  0  0
  -27.8900  -24.8000   20.2270 C   0  0  0  0  0  2  0  0  0  0  0  0
  -28.2500  -26.2630   19.9860 O   0  0  0  0  0  0  0  0  0  0  0  0
  -24.6040  -31.7450   23.1080 C   0  0  0  0  0  0  0  0  0  0  0  0
  -27.1840  -27.2010   19.9480 C   0  0  0  0  0  0  0  0  0  0  0  0
  -23.3980  -30.4010   21.4280 C   0  0  0  0  0  3  0  0  0  0  0  0
  -24.8450  -28.8840   19.9570 C   0  0  0  0  0  0  0  0  0  0  0  0
  -25.9470  -30.7000   21.2610 C   0  0  0  0  0  2  0  0  0  0  0  0
  -26.0220  -29.3330   20.5710 C   0  0  0  0  0  0  0  0  0  0  0  0
  -27.1940  -28.5070   20.5560 C   0  0  0  0  0  3  0  0  0  0  0  0
  -25.9920  -26.8370   19.2870 C   0  0  0  0  0  3  0  0  0  0  0  0
  -24.8400  -27.6450   19.3000 C   0  0  0  0  0  3  0  0  0  0  0  0
  -23.6140  -29.7680   20.0270 C   0  0  0  0  0  2  0  0  0  0  0  0
  -24.6690  -30.9660   21.9880 N   0  0  0  0  0  0  0  0  0  0  0  0
  -23.5210  -32.0080   23.6500 O   0  0  0  0  0  0  0  0  0  0  0  0
  -22.7290  -29.3610   22.3610 C   0  0  0  0  0  0  0  0  0  0  0  0
  -21.3960  -29.2170   22.2580 N   0  0  0  0  0  0  0  0  0  0  0  0
  -23.4100  -28.6880   23.1400 O   0  0  0  0  0  0  0  0  0  0  0  0
  -20.9000  -29.8140   21.6090 H   0  0  0  0  0  0  0  0  0  0  0  0
  -18.0030  -28.0880   22.8210 C   0  0  0  0  0  0  0  0  0  0  0  0
  -20.5760  -28.2650   23.0120 C   0  0  0  0  0  3  0  0  0  0  0  0
  -20.6150  -26.8600   22.3670 C   0  0  0  0  0  2  0  0  0  0  0  0
  -19.4720  -26.6170   21.3780 C   0  0  0  0  0  2  0  0  0  0  0  0
  -18.1150  -26.7710   22.0720 C   0  0  0  0  0  2  0  0  0  0  0  0
  -19.1570  -28.7950   23.2490 C   0  0  0  0  0  0  0  0  0  0  0  0
  -18.9950  -30.0340   23.9100 C   0  0  0  0  0  3  0  0  0  0  0  0
  -17.7110  -30.5600   24.1480 C   0  0  0  0  0  3  0  0  0  0  0  0
  -16.5720  -29.8470   23.7370 C   0  0  0  0  0  3  0  0  0  0  0  0
  -16.7180  -28.6120   23.0790 C   0  0  0  0  0  3  0  0  0  0  0  0
  -25.8870  -32.3630   23.7450 C   0  0  0  0  0  3  0  0  0  0  0  0
  -25.5820  -33.7520   24.1110 N   0  0  0  0  0  0  0  0  0  0  0  0
  -25.9090  -34.8250   23.3760 C   0  0  0  0  0  0  0  0  0  0  0  0
  -26.5720  -34.7470   22.3380 O   0  0  0  0  0  0  0  0  0  0  0  0
  -25.0030  -33.8890   24.9260 H   0  0  0  0  0  0  0  0  0  0  0  0
  -24.1790  -36.6270   23.0870 C   0  0  0  0  0  1  0  0  0  0  0  0
  -25.4280  -36.2020   23.8750 C   0  0  0  0  0  3  0  0  0  0  0  0
  -27.5680  -37.0620   24.7100 C   0  0  0  0  0  1  0  0  0  0  0  0
  -26.4590  -37.2560   23.7810 N   0  0  0  0  0  0  0  0  0  0  0  0
  -26.0540  -38.1710   23.9640 H   0  0  0  0  0  0  0  0  0  0  0  0
  -26.4050  -31.5620   25.0030 C   0  0  1  0  0  0  0  0  0  0  0  0
  -25.3130  -31.3040   26.0680 C   0  0  0  0  0  1  0  0  0  0  0  0
  -26.9870  -30.1930   24.5830 C   0  0  0  0  0  1  0  0  0  0  0  0
  -27.5610  -32.3380   25.6800 C   0  0  0  0  0  1  0  0  0  0  0  0
  2  1  1  0
  2  6  1  0
  3  2  2  0
  4  1  2  0
  5  3  1  0
  5  4  1  0
  6  7  2  0
  7  8  1  0
  9 15  1  0
  9  6  1  0
 10 15  1  0
 11 12  1  0
 11 10  1  0
 13 12  1  0
 13 20  1  0
 13 14  1  0
 15 14  1  0
 16  9  2  0
 17 18  2  0
 18 37  1  0
 19 18  1  0
 19 22  1  0
 20 21  1  0
 20 17  1  0
 21 19  2  0
 22 23  1  0
 23 24  2  0
 25 28  1  0
 25 24  1  0
 26 25  2  0
 27 26  1  0
 27 22  2  0
 28 29  1  0
 29 30  1  0
 30 31  2  0
 32 31  1  0
 32 36  1  0
 33 32  2  0
 34 29  2  0
 34 33  1  0
 35 34  1  0
 37 38  1  0
 38 41  1  0
 38 40  1  0
 39 37  2  0
 42 17  1  0
 42 43  1  0
 44 42  1  0
 45 46  2  0
 46  3  1  0
 47  4  1  0
 47 48  1  0
 49 48  1  0
 49 51  1  0
 50 49  2  0
 52 51  1  0
 53 64  2  0
 54 52  1  0
 54 59  1  0
 55 63  1  0
 55 65  1  0
 56 62  1  0
 56 58  1  0
 57 63  1  0
 58 57  1  0
 59 58  2  0
 60 61  1  0
 60 54  2  0
 61 56  2  0
 62 55  1  0
 63 53  1  0
 65 67  2  0
 66 65  1  0
 68 66  1  0
 69 78  2  0
 69 74  1  0
 70 66  1  0
 70 74  1  0
 71 70  1  0
 72 73  1  0
 72 71  1  0
 73 69  1  0
 74 75  2  0
 75 76  1  0
 77 76  2  0
 78 77  1  0
 79 53  1  0
 79 80  1  0
 79 89  1  0
 80 83  1  0
 81 85  1  0
 81 80  1  0
 82 81  2  0
 85 84  1  0
 87 85  1  0
 87 88  1  0
 87 86  1  0
 89 92  1  1
 89 90  1  0
 91 89  1  0
M  ISO  4   6 100   9 100  51 101  52 101
M  END
>  <TORSDO>  (38) 
F 22

>  <SCORE>  (38) 
-12.804

>  <name>  (38) 
37

>  <ligand_id>  (38) 
37

>  <original_smiles>  (38) 
[H]N=C(C(=O)N1C([H])([H])C([H])([H])C([H])([H])C([H])(n2nc(-c3c([H])c([H])c(Oc4c([H])c([H])c(F)c([H])c4F)c([H])c3[H])c(C(=O)N([H])[H])c2N([H])[H])C1([H])[H])c1c(C([H])=C([H])[H])oc(OC([H])([H])C(=O)C([H])([H])Oc2c([H])c([H])c3c(c2[H])C([H])([H])N(C(=O)C([H])(N([H])C(=O)C([H])(N([H])C([H])([H])[H])C([H])([H])[H])C(C([H])([H])[H])(C([H])([H])[H])C([H])([H])[H])C([H])(C(=O)N([H])C2([H])c4c([H])c([H])c([H])c([H])c4C([H])([H])C([H])([H])C2([H])[H])C3([H])[H])c1[H]

>  <smiles>  (38) 
[H]N=C(C(=O)N1C([H])([H])C([H])([H])C([H])([H])C([H])(n2nc(-c3c([H])c([H])c(Oc4c([H])c([H])c(F)c([H])c4F)c([H])c3[H])c(C(=O)N([H])[H])c2N([H])[H])C1([H])[H])c1c(C([H])=C([H])[H])oc(OC([H])([H])C(=O)C([H])([H])Oc2c([H])c([H])c3c(c2[H])C([H])([H])N(C(=O)C([H])(N([H])C(=O)C([H])(N([H])C([H])([H])[H])C([H])([H])[H])C(C([H])([H])[H])(C([H])([H])[H])C([H])([H])[H])C([H])(C(=O)N([H])C2([H])c4c([H])c([H])c([H])c([H])c4C([H])([H])C([H])([H])C2([H])[H])C3([H])[H])c1[H]

$$$$
38:0:0
     RDKit          3D

 94102  0  0  1  0  0  0  0  0999 V2000
  -29.2610  -18.7990   19.8900 C   0  0  0  0  0  3  0  0  0  0  0  0
  -30.9530  -17.6620   21.7850 C   0  0  0  0  0  3  0  0  0  0  0  0
  -29.4400  -17.3870   19.9020 C   0  0  0  0  0  0  0  0  0  0  0  0
  -30.2810  -16.7820   20.8950 C   0  0  0  0  0  0  0  0  0  0  0  0
  -29.9400  -19.6590   20.7870 C   0  0  0  0  0  0  0  0  0  0  0  0
  -30.7960  -19.0600   21.7310 C   0  0  0  0  0  0  0  0  0  0  0  0
  -31.4780  -19.8390   22.6050 F   0  0  0  0  0  0  0  0  0  0  0  0
  -30.8340  -14.4830   20.1270 C   0  0  0  0  0  0  0  0  0  0  0  0
  -30.3590  -12.4300   18.8210 C   0  0  0  0  0  2  0  0  0  0  0  0
  -29.3410  -12.7020   17.6970 C   0  0  0  0  0  2  0  0  0  0  0  0
  -27.8990  -12.5490   18.2190 C   0  0  0  0  0  2  0  0  0  0  0  0
  -27.6610  -13.3130   19.5450 C   0  0  0  0  0  3  0  0  0  0  0  0
  -28.7870  -13.0450   20.5650 C   0  0  0  0  0  2  0  0  0  0  0  0
  -30.0810  -13.3570   19.9310 N   0  0  0  0  0  0  0  0  0  0  0  0
  -31.8400  -14.7280   19.4540 O   0  0  0  0  0  0  0  0  0  0  0  0
  -30.7400  -14.8770   22.4630 C   0  0  0  0  0  1  0  0  0  0  0  0
  -30.4310  -15.3430   21.1010 N   0  0  0  0  0  0  0  0  0  0  0  0
  -25.3270  -13.9250   20.4330 C   0  0  0  0  0  0  0  0  0  0  0  0
  -24.2770  -13.1520   20.8490 C   0  0  0  0  0  0  0  0  0  0  0  0
  -24.7220  -11.7980   20.7500 C   0  0  0  0  0  0  0  0  0  0  0  0
  -26.3430  -13.0400   20.1040 N   0  0  0  0  0  0  0  0  0  0  0  0
  -25.9870  -11.7550   20.3530 N   0  0  0  0  0  0  0  0  0  0  0  0
  -23.9990  -10.5380   20.9530 C   0  0  0  0  0  0  0  0  0  0  0  0
  -24.4580   -9.5620   21.8650 C   0  0  0  0  0  3  0  0  0  0  0  0
  -23.7360   -8.3640   22.0530 C   0  0  0  0  0  3  0  0  0  0  0  0
  -22.5420   -8.1340   21.3300 C   0  0  0  0  0  0  0  0  0  0  0  0
  -22.1030   -9.0990   20.4060 C   0  0  0  0  0  3  0  0  0  0  0  0
  -22.8250  -10.2890   20.2150 C   0  0  0  0  0  3  0  0  0  0  0  0
  -21.7870   -6.9910   21.4290 O   0  0  0  0  0  0  0  0  0  0  0  0
  -21.7270   -6.2690   22.5940 C   0  0  0  0  0  0  0  0  0  0  0  0
  -21.2980   -6.8470   23.8090 C   0  0  0  0  0  3  0  0  0  0  0  0
  -21.1840   -6.0510   24.9660 C   0  0  0  0  0  3  0  0  0  0  0  0
  -21.4920   -4.6780   24.9110 C   0  0  0  0  0  0  0  0  0  0  0  0
  -21.9150   -4.1000   23.7010 C   0  0  0  0  0  3  0  0  0  0  0  0
  -22.0300   -4.8930   22.5450 C   0  0  0  0  0  0  0  0  0  0  0  0
  -22.4190   -4.3260   21.3780 F   0  0  0  0  0  0  0  0  0  0  0  0
  -21.3760   -3.9120   26.0200 F   0  0  0  0  0  0  0  0  0  0  0  0
  -22.9050  -13.6340   21.2260 C   0  0  0  0  0  0  0  0  0  0  0  0
  -22.2340  -12.9260   22.1290 N   0  0  0  0  0  0  0  0  0  0  0  0
  -22.4390  -14.6680   20.7550 O   0  0  0  0  0  0  0  0  0  0  0  0
  -22.6240  -12.0860   22.5310 H   0  0  0  0  0  0  0  0  0  0  0  0
  -21.3160  -13.2290   22.4230 H   0  0  0  0  0  0  0  0  0  0  0  0
  -25.4970  -15.2980   20.2890 N   0  0  0  0  0  0  0  0  0  0  0  0
  -24.7540  -15.9610   20.4790 H   0  0  0  0  0  0  0  0  0  0  0  0
  -26.3340  -15.7340   19.9210 H   0  0  0  0  0  0  0  0  0  0  0  0
  -27.4600  -16.9090   18.4360 C   0  0  0  0  0  2  0  0  0  0  0  0
  -28.6900  -16.6150   18.8950 C   0  0  0  0  0  3  0  0  0  0  0  0
  -29.8410  -21.0470   20.8060 O   0  0  0  0  0  0  0  0  0  0  0  0
  -29.1270  -21.7350   19.7700 C   0  0  0  0  0  2  0  0  0  0  0  0
  -29.6320  -23.1910   19.5810 C   0  0  0  0  0  2  0  0  0  0  0  0
  -28.8000  -24.3370   20.1930 C   0  0  0  0  0  0  0  0  0  0  0  0
  -28.1190  -24.1800   21.2110 O   0  0  0  0  0  0  0  0  0  0  0  0
  -28.8710  -25.6960   19.4580 C   0  0  0  0  0  2  0  0  0  0  0  0
  -28.6120  -26.8180   20.3200 O   0  0  0  0  0  0  0  0  0  0  0  0
  -24.6680  -31.9430   23.2760 C   0  0  0  0  0  0  0  0  0  0  0  0
  -27.4050  -27.4930   20.2680 C   0  0  0  0  0  0  0  0  0  0  0  0
  -23.4970  -30.5100   21.6320 C   0  0  0  0  0  3  0  0  0  0  0  0
  -24.9840  -28.9690   20.2420 C   0  0  0  0  0  0  0  0  0  0  0  0
  -26.0190  -30.8940   21.4600 C   0  0  0  0  0  2  0  0  0  0  0  0
  -26.1260  -29.5140   20.8390 C   0  0  0  0  0  0  0  0  0  0  0  0
  -27.3330  -28.7790   20.8550 C   0  0  0  0  0  3  0  0  0  0  0  0
  -26.2360  -26.9560   19.6790 C   0  0  0  0  0  3  0  0  0  0  0  0
  -25.0340  -27.6890   19.6620 C   0  0  0  0  0  3  0  0  0  0  0  0
  -23.7300  -29.8140   20.2640 C   0  0  0  0  0  2  0  0  0  0  0  0
  -24.7450  -31.1320   22.1810 N   0  0  0  0  0  0  0  0  0  0  0  0
  -23.5770  -32.2060   23.8020 O   0  0  0  0  0  0  0  0  0  0  0  0
  -22.8460  -29.4930   22.5970 C   0  0  0  0  0  0  0  0  0  0  0  0
  -21.5280  -29.2860   22.4490 N   0  0  0  0  0  0  0  0  0  0  0  0
  -23.5240  -28.8910   23.4350 O   0  0  0  0  0  0  0  0  0  0  0  0
  -21.0420  -29.8220   21.7430 H   0  0  0  0  0  0  0  0  0  0  0  0
  -18.1690  -28.0200   22.8750 C   0  0  0  0  0  0  0  0  0  0  0  0
  -20.7110  -28.3450   23.2150 C   0  0  0  0  0  3  0  0  0  0  0  0
  -20.8640  -26.9040   22.6740 C   0  0  0  0  0  2  0  0  0  0  0  0
  -19.8000  -26.5340   21.6360 C   0  0  0  0  0  2  0  0  0  0  0  0
  -18.3970  -26.6620   22.2360 C   0  0  0  0  0  2  0  0  0  0  0  0
  -19.2570  -28.8170   23.3200 C   0  0  0  0  0  0  0  0  0  0  0  0
  -18.9920  -30.0890   23.8750 C   0  0  0  0  0  3  0  0  0  0  0  0
  -17.6720  -30.5630   23.9910 C   0  0  0  0  0  3  0  0  0  0  0  0
  -16.5980  -29.7630   23.5630 C   0  0  0  0  0  3  0  0  0  0  0  0
  -16.8470  -28.4940   23.0110 C   0  0  0  0  0  3  0  0  0  0  0  0
  -25.9400  -32.5930   23.9040 C   0  0  0  0  0  3  0  0  0  0  0  0
  -25.6110  -33.9880   24.2250 N   0  0  0  0  0  0  0  0  0  0  0  0
  -25.9330  -35.0410   23.4610 C   0  0  0  0  0  0  0  0  0  0  0  0
  -26.6100  -34.9410   22.4350 O   0  0  0  0  0  0  0  0  0  0  0  0
  -25.0130  -34.1380   25.0240 H   0  0  0  0  0  0  0  0  0  0  0  0
  -24.1780  -36.8020   23.0880 C   0  0  0  0  0  1  0  0  0  0  0  0
  -25.4230  -36.4250   23.9070 C   0  0  0  0  0  3  0  0  0  0  0  0
  -27.5430  -37.3450   24.7350 C   0  0  0  0  0  1  0  0  0  0  0  0
  -26.4380  -37.4930   23.7890 N   0  0  0  0  0  0  0  0  0  0  0  0
  -26.0180  -38.4080   23.9330 H   0  0  0  0  0  0  0  0  0  0  0  0
  -26.4590  -31.8330   25.1860 C   0  0  1  0  0  0  0  0  0  0  0  0
  -25.3620  -31.5820   26.2460 C   0  0  0  0  0  1  0  0  0  0  0  0
  -27.0660  -30.4650   24.7980 C   0  0  0  0  0  1  0  0  0  0  0  0
  -27.5910  -32.6470   25.8560 C   0  0  0  0  0  1  0  0  0  0  0  0
  1  3  2  0
  1  5  1  0
  3  4  1  0
  4 17  1  0
  4  2  2  0
  5 48  1  0
  5  6  2  0
  6  2  1  0
  6  7  1  0
  8 17  1  0
  9 14  1  0
 10 11  1  0
 10  9  1  0
 12 11  1  0
 12 21  1  0
 12 13  1  0
 14  8  1  0
 14 13  1  0
 15  8  2  0
 17 16  1  0
 18 19  2  0
 19 38  1  0
 20 19  1  0
 20 23  1  0
 21 22  1  0
 21 18  1  0
 22 20  2  0
 23 24  1  0
 24 25  2  0
 26 29  1  0
 26 25  1  0
 27 26  2  0
 28 27  1  0
 28 23  2  0
 29 30  1  0
 30 31  1  0
 31 32  2  0
 33 32  1  0
 33 37  1  0
 34 33  2  0
 35 30  2  0
 35 34  1  0
 36 35  1  0
 38 39  1  0
 39 42  1  0
 39 41  1  0
 40 38  2  0
 43 18  1  0
 43 44  1  0
 45 43  1  0
 46 47  2  0
 47  3  1  0
 49 48  1  0
 50 49  1  0
 50 51  1  0
 51 52  2  0
 53 51  1  0
 53 54  1  0
 55 66  2  0
 56 54  1  0
 56 61  1  0
 57 65  1  0
 57 67  1  0
 58 64  1  0
 58 60  1  0
 59 65  1  0
 60 61  2  0
 60 59  1  0
 62 56  2  0
 63 62  1  0
 63 58  2  0
 64 57  1  0
 65 55  1  0
 67 69  2  0
 68 67  1  0
 70 68  1  0
 71 80  2  0
 71 76  1  0
 72 68  1  0
 72 76  1  0
 73 72  1  0
 74 75  1  0
 74 73  1  0
 75 71  1  0
 76 77  2  0
 77 78  1  0
 79 78  2  0
 80 79  1  0
 81 55  1  0
 81 82  1  0
 81 91  1  0
 82 85  1  0
 83 87  1  0
 83 82  1  0
 84 83  2  0
 87 86  1  0
 89 87  1  0
 89 90  1  0
 89 88  1  0
 91 94  1  1
 91 92  1  0
 93 91  1  0
M  ISO  4   8 100  17 100  53 101  54 101
M  END
>  <TORSDO>  (39) 
F 22

>  <SCORE>  (39) 
-11.999

>  <name>  (39) 
38

>  <ligand_id>  (39) 
38

>  <original_smiles>  (39) 
[H]C([H])=C([H])c1c([H])c(OC([H])([H])C([H])([H])C(=O)C([H])([H])Oc2c([H])c([H])c3c(c2[H])C([H])([H])N(C(=O)C([H])(N([H])C(=O)C([H])(N([H])C([H])([H])[H])C([H])([H])[H])C(C([H])([H])[H])(C([H])([H])[H])C([H])([H])[H])C([H])(C(=O)N([H])C2([H])c4c([H])c([H])c([H])c([H])c4C([H])([H])C([H])([H])C2([H])[H])C3([H])[H])c(F)c([H])c1N(C(=O)N1C([H])([H])C([H])([H])C([H])([H])C([H])(n2nc(-c3c([H])c([H])c(Oc4c([H])c([H])c(F)c([H])c4F)c([H])c3[H])c(C(=O)N([H])[H])c2N([H])[H])C1([H])[H])C([H])([H])[H]

>  <smiles>  (39) 
[H]C([H])=C([H])c1c([H])c(OC([H])([H])C([H])([H])C(=O)C([H])([H])Oc2c([H])c([H])c3c(c2[H])C([H])([H])N(C(=O)C([H])(N([H])C(=O)C([H])(N([H])C([H])([H])[H])C([H])([H])[H])C(C([H])([H])[H])(C([H])([H])[H])C([H])([H])[H])C([H])(C(=O)N([H])C2([H])c4c([H])c([H])c([H])c([H])c4C([H])([H])C([H])([H])C2([H])[H])C3([H])[H])c(F)c([H])c1N(C(=O)N1C([H])([H])C([H])([H])C([H])([H])C([H])(n2nc(-c3c([H])c([H])c(Oc4c([H])c([H])c(F)c([H])c4F)c([H])c3[H])c(C(=O)N([H])[H])c2N([H])[H])C1([H])[H])C([H])([H])[H]

$$$$
39:0:0
     RDKit          3D

 91 99  0  0  1  0  0  0  0  0999 V2000
  -30.8260  -17.9060   19.6540 C   0  0  0  0  0  3  0  0  0  0  0  0
  -28.7260  -18.0360   20.8050 C   0  0  0  0  0  3  0  0  0  0  0  0
  -30.7980  -19.3270   19.4490 C   0  0  0  0  0  0  0  0  0  0  0  0
  -29.7490  -20.1550   19.9720 C   0  0  0  0  0  0  0  0  0  0  0  0
  -29.8020  -17.2210   20.3610 C   0  0  0  0  0  0  0  0  0  0  0  0
  -28.6960  -19.4540   20.6340 C   0  0  0  0  0  0  0  0  0  0  0  0
  -31.9430  -19.9350   18.6390 C   0  0  0  0  0  1  0  0  0  0  0  0
  -27.6380  -20.1340   21.1430 F   0  0  0  0  0  0  0  0  0  0  0  0
  -30.5840  -14.7190   20.3200 C   0  0  0  0  0  0  0  0  0  0  0  0
  -30.4090  -12.4300   19.3630 C   0  0  0  0  0  2  0  0  0  0  0  0
  -29.4760  -12.5210   18.1340 C   0  0  0  0  0  2  0  0  0  0  0  0
  -27.9960  -12.3810   18.5470 C   0  0  0  0  0  2  0  0  0  0  0  0
  -27.6320  -13.2800   19.7610 C   0  0  0  0  0  3  0  0  0  0  0  0
  -28.6770  -13.1540   20.8920 C   0  0  0  0  0  2  0  0  0  0  0  0
  -29.9900  -13.4820   20.3120 N   0  0  0  0  0  0  0  0  0  0  0  0
  -31.7500  -14.8690   19.9420 O   0  0  0  0  0  0  0  0  0  0  0  0
  -29.7510  -15.7710   20.6100 N   0  0  0  0  0  0  0  0  0  0  0  0
  -28.8720  -15.4490   20.9930 H   0  0  0  0  0  0  0  0  0  0  0  0
  -25.2550  -13.9320   20.4780 C   0  0  0  0  0  0  0  0  0  0  0  0
  -24.1700  -13.1830   20.8450 C   0  0  0  0  0  0  0  0  0  0  0  0
  -24.6030  -11.8210   20.8140 C   0  0  0  0  0  0  0  0  0  0  0  0
  -26.2770  -13.0260   20.2440 N   0  0  0  0  0  0  0  0  0  0  0  0
  -25.8910  -11.7530   20.5030 N   0  0  0  0  0  0  0  0  0  0  0  0
  -23.8470  -10.5770   21.0020 C   0  0  0  0  0  0  0  0  0  0  0  0
  -24.2710   -9.5920   21.9210 C   0  0  0  0  0  3  0  0  0  0  0  0
  -23.5220   -8.4100   22.0990 C   0  0  0  0  0  3  0  0  0  0  0  0
  -22.3320   -8.2060   21.3610 C   0  0  0  0  0  0  0  0  0  0  0  0
  -21.9260   -9.1800   20.4300 C   0  0  0  0  0  3  0  0  0  0  0  0
  -22.6750  -10.3540   20.2500 C   0  0  0  0  0  3  0  0  0  0  0  0
  -21.5540   -7.0780   21.4500 O   0  0  0  0  0  0  0  0  0  0  0  0
  -21.5270   -6.3110   22.5880 C   0  0  0  0  0  0  0  0  0  0  0  0
  -21.1590   -6.8460   23.8410 C   0  0  0  0  0  3  0  0  0  0  0  0
  -21.0780   -6.0060   24.9700 C   0  0  0  0  0  3  0  0  0  0  0  0
  -21.3490   -4.6310   24.8470 C   0  0  0  0  0  0  0  0  0  0  0  0
  -21.7070   -4.0940   23.5990 C   0  0  0  0  0  3  0  0  0  0  0  0
  -21.7920   -4.9320   22.4720 C   0  0  0  0  0  0  0  0  0  0  0  0
  -22.1170   -4.4040   21.2670 F   0  0  0  0  0  0  0  0  0  0  0  0
  -21.2630   -3.8210   25.9290 F   0  0  0  0  0  0  0  0  0  0  0  0
  -22.7830  -13.6920   21.1160 C   0  0  0  0  0  0  0  0  0  0  0  0
  -22.0410  -13.0130   21.9840 N   0  0  0  0  0  0  0  0  0  0  0  0
  -22.3660  -14.7230   20.5900 O   0  0  0  0  0  0  0  0  0  0  0  0
  -22.3940  -12.1800   22.4310 H   0  0  0  0  0  0  0  0  0  0  0  0
  -21.1040  -13.3250   22.1980 H   0  0  0  0  0  0  0  0  0  0  0  0
  -25.4540  -15.2990   20.2970 N   0  0  0  0  0  0  0  0  0  0  0  0
  -24.6940  -15.9650   20.3770 H   0  0  0  0  0  0  0  0  0  0  0  0
  -26.3060  -15.7110   19.9370 H   0  0  0  0  0  0  0  0  0  0  0  0
  -28.9350  -22.4960   20.0420 C   0  0  0  0  0  3  0  0  0  0  0  0
  -29.8620  -21.5980   19.8820 N   0  0  0  0  0  0  0  0  0  0  0  0
  -29.1920  -24.0580   20.0980 C   0  0  0  0  0  3  0  0  0  0  0  0
  -28.0710  -25.0430   19.5620 C   0  0  0  0  0  3  0  0  0  0  0  0
  -28.2550  -26.5080   19.7210 O   0  0  0  0  0  0  0  0  0  0  0  0
  -24.4260  -31.6480   23.0140 C   0  0  0  0  0  0  0  0  0  0  0  0
  -27.1120  -27.3240   19.7060 C   0  0  0  0  0  0  0  0  0  0  0  0
  -23.2320  -30.2820   21.3410 C   0  0  0  0  0  3  0  0  0  0  0  0
  -24.6980  -28.8530   19.8070 C   0  0  0  0  0  0  0  0  0  0  0  0
  -25.7510  -30.6950   21.1180 C   0  0  0  0  0  2  0  0  0  0  0  0
  -25.8600  -29.3500   20.4110 C   0  0  0  0  0  0  0  0  0  0  0  0
  -27.0670  -28.5940   20.3560 C   0  0  0  0  0  3  0  0  0  0  0  0
  -25.9300  -26.8900   19.0610 C   0  0  0  0  0  3  0  0  0  0  0  0
  -24.7350  -27.6300   19.1240 C   0  0  0  0  0  3  0  0  0  0  0  0
  -23.4290  -29.6700   19.9310 C   0  0  0  0  0  2  0  0  0  0  0  0
  -24.4910  -30.8900   21.8820 N   0  0  0  0  0  0  0  0  0  0  0  0
  -23.3460  -31.8690   23.5810 O   0  0  0  0  0  0  0  0  0  0  0  0
  -22.6240  -29.2050   22.2710 C   0  0  0  0  0  0  0  0  0  0  0  0
  -21.2990  -29.0030   22.1750 N   0  0  0  0  0  0  0  0  0  0  0  0
  -23.3410  -28.5560   23.0370 O   0  0  0  0  0  0  0  0  0  0  0  0
  -20.7790  -29.5810   21.5300 H   0  0  0  0  0  0  0  0  0  0  0  0
  -17.9630  -27.7150   22.7240 C   0  0  0  0  0  0  0  0  0  0  0  0
  -20.5240  -28.0110   22.9220 C   0  0  0  0  0  3  0  0  0  0  0  0
  -20.6310  -26.6150   22.2660 C   0  0  0  0  0  2  0  0  0  0  0  0
  -19.4980  -26.3260   21.2750 C   0  0  0  0  0  2  0  0  0  0  0  0
  -18.1380  -26.4080   21.9720 C   0  0  0  0  0  2  0  0  0  0  0  0
  -19.0820  -28.4770   23.1570 C   0  0  0  0  0  0  0  0  0  0  0  0
  -18.8620  -29.7040   23.8200 C   0  0  0  0  0  3  0  0  0  0  0  0
  -17.5520  -30.1650   24.0580 C   0  0  0  0  0  3  0  0  0  0  0  0
  -16.4500  -29.4020   23.6400 C   0  0  0  0  0  3  0  0  0  0  0  0
  -16.6570  -28.1790   22.9780 C   0  0  0  0  0  3  0  0  0  0  0  0
  -25.7040  -32.2890   23.6420 C   0  0  0  0  0  3  0  0  0  0  0  0
  -26.2660  -31.4780   24.8740 C   0  0  1  0  0  0  0  0  0  0  0  0
  -25.2010  -31.1740   25.9520 C   0  0  0  0  0  1  0  0  0  0  0  0
  -26.8730  -30.1300   24.4170 C   0  0  0  0  0  1  0  0  0  0  0  0
  -27.4180  -32.2710   25.5370 C   0  0  0  0  0  1  0  0  0  0  0  0
  -25.3640  -33.6630   24.0320 N   0  0  0  0  0  0  0  0  0  0  0  0
  -25.6520  -34.7540   23.3110 C   0  0  0  0  0  0  0  0  0  0  0  0
  -26.2990  -34.7110   22.2630 O   0  0  0  0  0  0  0  0  0  0  0  0
  -24.7720  -33.7720   24.8440 H   0  0  0  0  0  0  0  0  0  0  0  0
  -23.8520  -36.5010   23.0840 C   0  0  0  0  0  1  0  0  0  0  0  0
  -25.1350  -36.1080   23.8360 C   0  0  0  0  0  3  0  0  0  0  0  0
  -27.2700  -37.0290   24.6270 C   0  0  0  0  0  1  0  0  0  0  0  0
  -26.1290  -37.1990   23.7290 N   0  0  0  0  0  0  0  0  0  0  0  0
  -25.7000  -38.1000   23.9240 H   0  0  0  0  0  0  0  0  0  0  0  0
  1  5  1  0
  3  1  2  0
  3  4  1  0
  4  6  2  0
  5 17  1  0
  5  2  2  0
  6  2  1  0
  6  8  1  0
  7  3  1  0
  9 17  1  0
 10 15  1  0
 11 12  1  0
 11 10  1  0
 13 12  1  0
 13 22  1  0
 13 14  1  0
 15  9  1  0
 15 14  1  0
 16  9  2  0
 17 18  1  0
 19 20  2  0
 20 39  1  0
 21 20  1  0
 21 24  1  0
 22 19  1  0
 22 23  1  0
 23 21  2  0
 24 25  1  0
 25 26  2  0
 27 30  1  0
 27 26  1  0
 28 27  2  0
 29 28  1  0
 29 24  2  0
 30 31  1  0
 31 32  1  0
 32 33  2  0
 34 33  1  0
 34 38  1  0
 35 34  2  0
 36 31  2  0
 36 35  1  0
 37 36  1  0
 39 40  1  0
 40 43  1  0
 40 42  1  0
 41 39  2  0
 44 45  1  0
 44 19  1  0
 46 44  1  0
 47 49  1  0
 48  4  1  0
 48 47  2  0
 50 51  1  0
 50 49  2  0
 52 63  2  0
 53 51  1  0
 53 58  1  0
 54 62  1  0
 54 64  1  0
 55 61  1  0
 55 57  1  0
 56 62  1  0
 57 56  1  0
 58 57  2  0
 59 60  1  0
 59 53  2  0
 60 55  2  0
 61 54  1  0
 62 52  1  0
 64 66  2  0
 65 64  1  0
 67 65  1  0
 68 77  2  0
 68 73  1  0
 69 65  1  0
 69 73  1  0
 70 69  1  0
 71 72  1  0
 71 70  1  0
 72 68  1  0
 73 74  2  0
 74 75  1  0
 76 75  2  0
 77 76  1  0
 78 52  1  0
 78 83  1  0
 78 79  1  0
 79 82  1  1
 79 80  1  0
 81 79  1  0
 83 86  1  0
 84 88  1  0
 84 83  1  0
 85 84  2  0
 88 87  1  0
 90 88  1  0
 90 91  1  0
 90 89  1  0
M  ISO  4   9 100  17 100  50 101  51 101
M  END
>  <TORSDO>  (40) 
F 19

>  <SCORE>  (40) 
-13.470

>  <name>  (40) 
39

>  <ligand_id>  (40) 
39

>  <original_smiles>  (40) 
[H]C(=Nc1c(F)c([H])c(N([H])C(=O)N2C([H])([H])C([H])([H])C([H])([H])C([H])(n3nc(-c4c([H])c([H])c(Oc5c([H])c([H])c(F)c([H])c5F)c([H])c4[H])c(C(=O)N([H])[H])c3N([H])[H])C2([H])[H])c([H])c1C([H])([H])[H])C([H])([H])C([H])([H])Oc1c([H])c([H])c2c(c1[H])C([H])([H])N(C(=O)C([H])(N([H])C(=O)C([H])(N([H])C([H])([H])[H])C([H])([H])[H])C(C([H])([H])[H])(C([H])([H])[H])C([H])([H])[H])C([H])(C(=O)N([H])C1([H])c3c([H])c([H])c([H])c([H])c3C([H])([H])C([H])([H])C1([H])[H])C2([H])[H]

>  <smiles>  (40) 
[H]C(=Nc1c(F)c([H])c(N([H])C(=O)N2C([H])([H])C([H])([H])C([H])([H])C([H])(n3nc(-c4c([H])c([H])c(Oc5c([H])c([H])c(F)c([H])c5F)c([H])c4[H])c(C(=O)N([H])[H])c3N([H])[H])C2([H])[H])c([H])c1C([H])([H])[H])C([H])([H])C([H])([H])Oc1c([H])c([H])c2c(c1[H])C([H])([H])N(C(=O)C([H])(N([H])C(=O)C([H])(N([H])C([H])([H])[H])C([H])([H])[H])C(C([H])([H])[H])(C([H])([H])[H])C([H])([H])[H])C([H])(C(=O)N([H])C1([H])c3c([H])c([H])c([H])c([H])c3C([H])([H])C([H])([H])C1([H])[H])C2([H])[H]

$$$$
40:0:0
     RDKit          3D

 97106  0  0  1  0  0  0  0  0999 V2000
  -29.5150  -22.9040   20.6490 C   0  0  0  0  0  0  0  0  0  0  0  0
  -29.2400  -24.0840   19.9640 C   0  0  0  0  0  0  0  0  0  0  0  0
  -31.9230  -23.0490   18.5370 C   0  0  0  0  0  0  0  0  0  0  0  0
  -29.6980  -24.2930   18.5180 C   0  0  0  0  0  2  0  0  0  0  0  0
  -31.2230  -24.3880   18.3220 C   0  0  0  0  0  2  0  0  0  0  0  0
  -31.7650  -22.4080   19.9120 C   0  0  0  0  0  2  0  0  0  0  0  0
  -30.4060  -21.8930   20.1490 N   0  0  0  0  0  0  0  0  0  0  0  0
  -32.5760  -22.5110   17.6390 O   0  0  0  0  0  0  0  0  0  0  0  0
  -31.4620  -19.6060   19.8400 C   0  0  0  0  0  3  0  0  0  0  0  0
  -31.4220  -18.1800   19.8080 C   0  0  0  0  0  3  0  0  0  0  0  0
  -29.1520  -19.6840   20.4040 C   0  0  0  0  0  3  0  0  0  0  0  0
  -29.0990  -18.2490   20.3830 C   0  0  0  0  0  0  0  0  0  0  0  0
  -30.3310  -20.4340   20.1390 C   0  0  0  0  0  0  0  0  0  0  0  0
  -30.2370  -17.4440   20.0630 C   0  0  0  0  0  0  0  0  0  0  0  0
  -27.7590  -17.5990   20.6380 C   0  0  0  0  0  1  0  0  0  0  0  0
  -30.8780  -14.9410   20.0410 C   0  0  0  0  0  0  0  0  0  0  0  0
  -30.6780  -12.6030   19.2080 C   0  0  0  0  0  2  0  0  0  0  0  0
  -29.7040  -12.5450   18.0120 C   0  0  0  0  0  2  0  0  0  0  0  0
  -28.2430  -12.4080   18.4910 C   0  0  0  0  0  2  0  0  0  0  0  0
  -27.8770  -13.3520   19.6710 C   0  0  0  0  0  3  0  0  0  0  0  0
  -28.9810  -13.3900   20.7490 C   0  0  0  0  0  2  0  0  0  0  0  0
  -30.2450  -13.7180   20.0750 N   0  0  0  0  0  0  0  0  0  0  0  0
  -32.0990  -14.9920   19.8710 O   0  0  0  0  0  0  0  0  0  0  0  0
  -29.8170  -16.0160   18.1910 C   0  0  0  0  0  1  0  0  0  0  0  0
  -30.1150  -16.0360   19.6370 N   0  0  0  0  0  0  0  0  0  0  0  0
  -25.5280  -13.9310   20.5180 C   0  0  0  0  0  0  0  0  0  0  0  0
  -24.4740  -13.1560   20.9080 C   0  0  0  0  0  0  0  0  0  0  0  0
  -24.9260  -11.8050   20.8080 C   0  0  0  0  0  0  0  0  0  0  0  0
  -26.5580  -13.0550   20.2180 N   0  0  0  0  0  0  0  0  0  0  0  0
  -26.2040  -11.7680   20.4520 N   0  0  0  0  0  0  0  0  0  0  0  0
  -24.1950  -10.5440   20.9760 C   0  0  0  0  0  0  0  0  0  0  0  0
  -24.5930   -9.5860   21.9330 C   0  0  0  0  0  3  0  0  0  0  0  0
  -23.8640   -8.3870   22.0900 C   0  0  0  0  0  3  0  0  0  0  0  0
  -22.7230   -8.1410   21.2890 C   0  0  0  0  0  0  0  0  0  0  0  0
  -22.3460   -9.0890   20.3200 C   0  0  0  0  0  3  0  0  0  0  0  0
  -23.0760  -10.2780   20.1620 C   0  0  0  0  0  3  0  0  0  0  0  0
  -21.9690   -6.9950   21.3550 O   0  0  0  0  0  0  0  0  0  0  0  0
  -21.7740   -6.3320   22.5390 C   0  0  0  0  0  0  0  0  0  0  0  0
  -21.1450   -6.9470   23.6430 C   0  0  0  0  0  3  0  0  0  0  0  0
  -20.9020   -6.2070   24.8180 C   0  0  0  0  0  3  0  0  0  0  0  0
  -21.2760   -4.8510   24.8860 C   0  0  0  0  0  0  0  0  0  0  0  0
  -21.8960   -4.2360   23.7840 C   0  0  0  0  0  3  0  0  0  0  0  0
  -22.1420   -4.9740   22.6140 C   0  0  0  0  0  0  0  0  0  0  0  0
  -22.7210   -4.3700   21.5480 F   0  0  0  0  0  0  0  0  0  0  0  0
  -21.0350   -4.1370   26.0100 F   0  0  0  0  0  0  0  0  0  0  0  0
  -23.0940  -13.6370   21.2500 C   0  0  0  0  0  0  0  0  0  0  0  0
  -22.4010  -12.9290   22.1360 N   0  0  0  0  0  0  0  0  0  0  0  0
  -22.6420  -14.6760   20.7700 O   0  0  0  0  0  0  0  0  0  0  0  0
  -22.7830  -12.0920   22.5490 H   0  0  0  0  0  0  0  0  0  0  0  0
  -21.4750  -13.2300   22.4030 H   0  0  0  0  0  0  0  0  0  0  0  0
  -25.6790  -15.3030   20.3670 N   0  0  0  0  0  0  0  0  0  0  0  0
  -24.9070  -15.9450   20.5080 H   0  0  0  0  0  0  0  0  0  0  0  0
  -26.4970  -15.7410   19.9660 H   0  0  0  0  0  0  0  0  0  0  0  0
  -29.5790  -22.1940   23.0340 C   0  0  0  0  0  2  0  0  0  0  0  0
  -28.9520  -22.7630   21.9900 C   0  0  0  0  0  3  0  0  0  0  0  0
  -28.3970  -25.2980   20.5340 C   0  0  0  0  0  2  0  0  0  0  0  0
  -28.5600  -26.6630   19.9620 O   0  0  0  0  0  0  0  0  0  0  0  0
  -24.6320  -31.8170   23.1490 C   0  0  0  0  0  0  0  0  0  0  0  0
  -27.4160  -27.4750   19.9510 C   0  0  0  0  0  0  0  0  0  0  0  0
  -23.4740  -30.4140   21.4780 C   0  0  0  0  0  3  0  0  0  0  0  0
  -24.9810  -28.9730   19.9960 C   0  0  0  0  0  0  0  0  0  0  0  0
  -25.9930  -30.8560   21.2800 C   0  0  0  0  0  2  0  0  0  0  0  0
  -26.1300  -29.5010   20.5970 C   0  0  0  0  0  0  0  0  0  0  0  0
  -27.3520  -28.7640   20.5640 C   0  0  0  0  0  3  0  0  0  0  0  0
  -26.2470  -27.0100   19.3080 C   0  0  0  0  0  3  0  0  0  0  0  0
  -25.0400  -27.7330   19.3400 C   0  0  0  0  0  3  0  0  0  0  0  0
  -23.7040  -29.7870   20.0770 C   0  0  0  0  0  2  0  0  0  0  0  0
  -24.7190  -31.0450   22.0270 N   0  0  0  0  0  0  0  0  0  0  0  0
  -23.5430  -32.0310   23.7020 O   0  0  0  0  0  0  0  0  0  0  0  0
  -22.8680  -29.3420   22.4160 C   0  0  0  0  0  0  0  0  0  0  0  0
  -21.5560  -29.0880   22.2740 N   0  0  0  0  0  0  0  0  0  0  0  0
  -23.5780  -28.7420   23.2260 O   0  0  0  0  0  0  0  0  0  0  0  0
  -21.0410  -29.6290   21.5950 H   0  0  0  0  0  0  0  0  0  0  0  0
  -18.2540  -27.6780   22.7170 C   0  0  0  0  0  0  0  0  0  0  0  0
  -20.7890  -28.0900   23.0210 C   0  0  0  0  0  3  0  0  0  0  0  0
  -20.9850  -26.6770   22.4260 C   0  0  0  0  0  2  0  0  0  0  0  0
  -19.9160  -26.3020   21.3940 C   0  0  0  0  0  2  0  0  0  0  0  0
  -18.5210  -26.3530   22.0230 C   0  0  0  0  0  2  0  0  0  0  0  0
  -19.3190  -28.5000   23.1720 C   0  0  0  0  0  0  0  0  0  0  0  0
  -19.0150  -29.7390   23.7800 C   0  0  0  0  0  3  0  0  0  0  0  0
  -17.6800  -30.1550   23.9370 C   0  0  0  0  0  3  0  0  0  0  0  0
  -16.6300  -29.3300   23.4990 C   0  0  0  0  0  3  0  0  0  0  0  0
  -16.9170  -28.0930   22.8960 C   0  0  0  0  0  3  0  0  0  0  0  0
  -25.8920  -32.4870   23.7780 C   0  0  0  0  0  3  0  0  0  0  0  0
  -26.4420  -31.7150   25.0390 C   0  0  1  0  0  0  0  0  0  0  0  0
  -25.3610  -31.4140   26.1040 C   0  0  0  0  0  1  0  0  0  0  0  0
  -27.0810  -30.3700   24.6220 C   0  0  0  0  0  1  0  0  0  0  0  0
  -27.5620  -32.5430   25.7140 C   0  0  0  0  0  1  0  0  0  0  0  0
  -25.5320  -33.8670   24.1330 N   0  0  0  0  0  0  0  0  0  0  0  0
  -25.8130  -34.9430   23.3860 C   0  0  0  0  0  0  0  0  0  0  0  0
  -26.4730  -34.8820   22.3450 O   0  0  0  0  0  0  0  0  0  0  0  0
  -24.9430  -33.9870   24.9430 H   0  0  0  0  0  0  0  0  0  0  0  0
  -24.0100  -36.6700   23.0820 C   0  0  0  0  0  1  0  0  0  0  0  0
  -25.2780  -36.3040   23.8700 C   0  0  0  0  0  3  0  0  0  0  0  0
  -27.3790  -37.2710   24.6940 C   0  0  0  0  0  1  0  0  0  0  0  0
  -26.2650  -37.4000   23.7590 N   0  0  0  0  0  0  0  0  0  0  0  0
  -25.8230  -38.3010   23.9160 H   0  0  0  0  0  0  0  0  0  0  0  0
  1 55  1  0
  2 56  1  0
  2  1  2  0
  3  6  1  0
  4  2  1  0
  5  4  1  0
  5  3  1  0
  6  7  1  0
  7  1  1  0
  8  3  2  0
  9 13  1  0
 10  9  2  0
 10 14  1  0
 12 11  1  0
 12 15  1  0
 13  7  1  0
 13 11  2  0
 14 12  2  0
 16 22  1  0
 17 22  1  0
 18 19  1  0
 18 17  1  0
 20 19  1  0
 20 29  1  0
 20 21  1  0
 22 21  1  0
 23 16  2  0
 24 25  1  0
 25 16  1  0
 25 14  1  0
 26 27  2  0
 27 46  1  0
 28 27  1  0
 28 31  1  0
 29 30  1  0
 29 26  1  0
 30 28  2  0
 31 32  1  0
 32 33  2  0
 34 37  1  0
 34 33  1  0
 35 34  2  0
 36 35  1  0
 36 31  2  0
 37 38  1  0
 38 43  2  0
 38 39  1  0
 39 40  2  0
 40 41  1  0
 41 45  1  0
 42 41  2  0
 43 42  1  0
 44 43  1  0
 46 47  1  0
 47 50  1  0
 47 49  1  0
 48 46  2  0
 51 52  1  0
 51 26  1  0
 53 51  1  0
 55 54  2  0
 57 56  1  0
 58 69  2  0
 59 57  1  0
 59 64  1  0
 60 68  1  0
 60 70  1  0
 61 67  1  0
 61 63  1  0
 62 68  1  0
 63 62  1  0
 64 63  2  0
 65 66  1  0
 65 59  2  0
 66 61  2  0
 67 60  1  0
 68 58  1  0
 70 72  2  0
 71 70  1  0
 73 71  1  0
 74 83  2  0
 74 79  1  0
 75 71  1  0
 75 79  1  0
 76 75  1  0
 77 78  1  0
 77 76  1  0
 78 74  1  0
 79 80  2  0
 80 81  1  0
 82 81  2  0
 83 82  1  0
 84 58  1  0
 84 89  1  0
 84 85  1  0
 85 88  1  1
 85 86  1  0
 87 85  1  0
 89 92  1  0
 90 94  1  0
 90 89  1  0
 91 90  2  0
 94 93  1  0
 96 94  1  0
 96 97  1  0
 96 95  1  0
M  ISO  4  16 100  25 100  56 101  57 101
M  END
>  <TORSDO>  (41) 
F 19

>  <SCORE>  (41) 
-13.272

>  <name>  (41) 
40

>  <ligand_id>  (41) 
40

>  <original_smiles>  (41) 
[H]C([H])=C([H])C1=C(C([H])([H])Oc2c([H])c([H])c3c(c2[H])C([H])([H])N(C(=O)C([H])(N([H])C(=O)C([H])(N([H])C([H])([H])[H])C([H])([H])[H])C(C([H])([H])[H])(C([H])([H])[H])C([H])([H])[H])C([H])(C(=O)N([H])C2([H])c4c([H])c([H])c([H])c([H])c4C([H])([H])C([H])([H])C2([H])[H])C3([H])[H])C([H])([H])C([H])([H])C(=O)C([H])([H])N1c1c([H])c([H])c(N(C(=O)N2C([H])([H])C([H])([H])C([H])([H])C([H])(n3nc(-c4c([H])c([H])c(Oc5c([H])c([H])c(F)c([H])c5F)c([H])c4[H])c(C(=O)N([H])[H])c3N([H])[H])C2([H])[H])C([H])([H])[H])c(C([H])([H])[H])c1[H]

>  <smiles>  (41) 
[H]C([H])=C([H])C1=C(C([H])([H])Oc2c([H])c([H])c3c(c2[H])C([H])([H])N(C(=O)C([H])(N([H])C(=O)C([H])(N([H])C([H])([H])[H])C([H])([H])[H])C(C([H])([H])[H])(C([H])([H])[H])C([H])([H])[H])C([H])(C(=O)N([H])C2([H])c4c([H])c([H])c([H])c([H])c4C([H])([H])C([H])([H])C2([H])[H])C3([H])[H])C([H])([H])C([H])([H])C(=O)C([H])([H])N1c1c([H])c([H])c(N(C(=O)N2C([H])([H])C([H])([H])C([H])([H])C([H])(n3nc(-c4c([H])c([H])c(Oc5c([H])c([H])c(F)c([H])c5F)c([H])c4[H])c(C(=O)N([H])[H])c3N([H])[H])C2([H])[H])C([H])([H])[H])c(C([H])([H])[H])c1[H]

$$$$
41:0:0
     RDKit          3D

 93102  0  0  1  0  0  0  0  0999 V2000
  -29.0820  -18.6370   20.4110 C   0  0  0  0  0  3  0  0  0  0  0  0
  -31.3910  -18.0090   20.8540 C   0  0  0  0  0  3  0  0  0  0  0  0
  -29.4440  -20.0530   20.4890 C   0  0  0  0  0  0  0  0  0  0  0  0
  -30.7520  -20.3810   20.7510 C   0  0  0  0  0  0  0  0  0  0  0  0
  -31.7410  -19.3880   20.9370 C   0  0  0  0  0  0  0  0  0  0  0  0
  -30.0660  -17.5550   20.5890 C   0  0  0  0  0  0  0  0  0  0  0  0
  -28.6650  -21.3940   20.3450 C   0  0  0  0  0  0  0  0  0  0  0  0
  -29.3710  -23.8940   20.5270 C   0  0  0  0  0  0  0  0  0  0  0  0
  -30.8720  -21.9010   20.7970 C   0  0  0  0  0  2  0  0  0  0  0  0
  -33.1730  -19.7930   21.2310 C   0  0  0  0  0  1  0  0  0  0  0  0
  -29.5150  -22.4800   20.5320 N   0  0  0  0  0  0  0  0  0  0  0  0
  -27.4560  -21.4480   20.0990 O   0  0  0  0  0  0  0  0  0  0  0  0
  -30.3880  -24.5520   20.7820 O   0  0  0  0  0  0  0  0  0  0  0  0
  -30.5520  -14.9200   20.3600 C   0  0  0  0  0  0  0  0  0  0  0  0
  -30.3770  -12.6320   19.3250 C   0  0  0  0  0  2  0  0  0  0  0  0
  -29.4210  -12.6800   18.1120 C   0  0  0  0  0  2  0  0  0  0  0  0
  -27.9620  -12.4740   18.5620 C   0  0  0  0  0  2  0  0  0  0  0  0
  -27.5890  -13.3460   19.7900 C   0  0  0  0  0  3  0  0  0  0  0  0
  -28.6650  -13.2810   20.8950 C   0  0  0  0  0  2  0  0  0  0  0  0
  -29.9370  -13.6810   20.2810 N   0  0  0  0  0  0  0  0  0  0  0  0
  -31.7440  -14.9940   20.0520 O   0  0  0  0  0  0  0  0  0  0  0  0
  -29.7630  -16.0710   20.5550 N   0  0  0  0  0  0  0  0  0  0  0  0
  -28.7860  -15.8480   20.6660 H   0  0  0  0  0  0  0  0  0  0  0  0
  -25.2100  -13.9000   20.5630 C   0  0  0  0  0  0  0  0  0  0  0  0
  -24.1560  -13.1110   20.9360 C   0  0  0  0  0  0  0  0  0  0  0  0
  -24.6310  -11.7650   20.8800 C   0  0  0  0  0  0  0  0  0  0  0  0
  -26.2570  -13.0350   20.2990 N   0  0  0  0  0  0  0  0  0  0  0  0
  -25.9200  -11.7440   20.5550 N   0  0  0  0  0  0  0  0  0  0  0  0
  -23.9180  -10.4930   21.0600 C   0  0  0  0  0  0  0  0  0  0  0  0
  -24.3540   -9.5270   21.9930 C   0  0  0  0  0  3  0  0  0  0  0  0
  -23.6390   -8.3210   22.1610 C   0  0  0  0  0  3  0  0  0  0  0  0
  -22.4740   -8.0740   21.3970 C   0  0  0  0  0  0  0  0  0  0  0  0
  -22.0580   -9.0300   20.4540 C   0  0  0  0  0  3  0  0  0  0  0  0
  -22.7740  -10.2260   20.2830 C   0  0  0  0  0  3  0  0  0  0  0  0
  -21.7310   -6.9210   21.4750 O   0  0  0  0  0  0  0  0  0  0  0  0
  -21.6590   -6.1880   22.6320 C   0  0  0  0  0  0  0  0  0  0  0  0
  -21.1410   -6.7300   23.8280 C   0  0  0  0  0  3  0  0  0  0  0  0
  -21.0220   -5.9200   24.9760 C   0  0  0  0  0  3  0  0  0  0  0  0
  -21.4100   -4.5690   24.9270 C   0  0  0  0  0  0  0  0  0  0  0  0
  -21.9220   -4.0250   23.7360 C   0  0  0  0  0  3  0  0  0  0  0  0
  -22.0430   -4.8310   22.5900 C   0  0  0  0  0  0  0  0  0  0  0  0
  -22.5160   -4.2970   21.4390 F   0  0  0  0  0  0  0  0  0  0  0  0
  -21.2890   -3.7880   26.0260 F   0  0  0  0  0  0  0  0  0  0  0  0
  -22.7580  -13.5730   21.2290 C   0  0  0  0  0  0  0  0  0  0  0  0
  -22.0490  -12.8630   22.0990 N   0  0  0  0  0  0  0  0  0  0  0  0
  -22.3050  -14.5970   20.7210 O   0  0  0  0  0  0  0  0  0  0  0  0
  -22.4290  -12.0350   22.5310 H   0  0  0  0  0  0  0  0  0  0  0  0
  -21.1110  -13.1550   22.3370 H   0  0  0  0  0  0  0  0  0  0  0  0
  -25.3560  -15.2750   20.4000 N   0  0  0  0  0  0  0  0  0  0  0  0
  -24.5770  -15.9130   20.5190 H   0  0  0  0  0  0  0  0  0  0  0  0
  -26.1780  -15.7250   20.0190 H   0  0  0  0  0  0  0  0  0  0  0  0
  -28.0950  -24.8440   20.2330 C   0  0  0  0  0  2  0  0  0  0  0  0
  -28.3170  -26.3610   20.3750 O   0  0  0  0  0  0  0  0  0  0  0  0
  -24.6670  -31.9730   23.3170 C   0  0  0  0  0  0  0  0  0  0  0  0
  -27.2350  -27.2880   20.3100 C   0  0  0  0  0  0  0  0  0  0  0  0
  -23.4600  -30.5780   21.6780 C   0  0  0  0  0  3  0  0  0  0  0  0
  -24.9020  -28.9940   20.2660 C   0  0  0  0  0  0  0  0  0  0  0  0
  -26.0120  -30.8460   21.5130 C   0  0  0  0  0  2  0  0  0  0  0  0
  -26.0800  -29.4560   20.8690 C   0  0  0  0  0  0  0  0  0  0  0  0
  -27.2480  -28.6170   20.8740 C   0  0  0  0  0  3  0  0  0  0  0  0
  -26.0310  -26.9050   19.6780 C   0  0  0  0  0  3  0  0  0  0  0  0
  -24.8870  -27.7310   19.6570 C   0  0  0  0  0  3  0  0  0  0  0  0
  -23.6780  -29.8920   20.3030 C   0  0  0  0  0  2  0  0  0  0  0  0
  -24.7330  -31.1530   22.2240 N   0  0  0  0  0  0  0  0  0  0  0  0
  -23.5820  -32.2650   23.8420 O   0  0  0  0  0  0  0  0  0  0  0  0
  -22.7770  -29.5770   22.6420 C   0  0  0  0  0  0  0  0  0  0  0  0
  -21.4530  -29.3930   22.4930 N   0  0  0  0  0  0  0  0  0  0  0  0
  -23.4390  -28.9680   23.4860 O   0  0  0  0  0  0  0  0  0  0  0  0
  -20.9770  -29.9350   21.7860 H   0  0  0  0  0  0  0  0  0  0  0  0
  -18.0720  -28.1860   22.9520 C   0  0  0  0  0  0  0  0  0  0  0  0
  -20.6240  -28.4630   23.2630 C   0  0  0  0  0  3  0  0  0  0  0  0
  -20.7420  -27.0230   22.7090 C   0  0  0  0  0  2  0  0  0  0  0  0
  -19.6600  -26.6820   21.6800 C   0  0  0  0  0  2  0  0  0  0  0  0
  -18.2660  -26.8290   22.2980 C   0  0  0  0  0  2  0  0  0  0  0  0
  -19.1780  -28.9590   23.3910 C   0  0  0  0  0  0  0  0  0  0  0  0
  -18.9420  -30.2280   23.9630 C   0  0  0  0  0  3  0  0  0  0  0  0
  -17.6320  -30.7240   24.1020 C   0  0  0  0  0  3  0  0  0  0  0  0
  -16.5390  -29.9480   23.6790 C   0  0  0  0  0  3  0  0  0  0  0  0
  -16.7590  -28.6810   23.1110 C   0  0  0  0  0  3  0  0  0  0  0  0
  -25.9490  -32.6000   23.9440 C   0  0  0  0  0  3  0  0  0  0  0  0
  -25.6490  -34.0050   24.2630 N   0  0  0  0  0  0  0  0  0  0  0  0
  -25.9620  -35.0480   23.4830 C   0  0  0  0  0  0  0  0  0  0  0  0
  -26.6010  -34.9300   22.4340 O   0  0  0  0  0  0  0  0  0  0  0  0
  -25.0780  -34.1700   25.0780 H   0  0  0  0  0  0  0  0  0  0  0  0
  -24.2150  -36.8340   23.1750 C   0  0  0  0  0  1  0  0  0  0  0  0
  -25.4920  -36.4450   23.9380 C   0  0  0  0  0  3  0  0  0  0  0  0
  -27.6530  -37.3570   24.6680 C   0  0  0  0  0  1  0  0  0  0  0  0
  -26.5170  -37.4980   23.7600 N   0  0  0  0  0  0  0  0  0  0  0  0
  -26.1110  -38.4200   23.8980 H   0  0  0  0  0  0  0  0  0  0  0  0
  -26.4460  -31.8370   25.2330 C   0  0  1  0  0  0  0  0  0  0  0  0
  -25.3400  -31.6140   26.2900 C   0  0  0  0  0  1  0  0  0  0  0  0
  -27.0290  -30.4540   24.8610 C   0  0  0  0  0  1  0  0  0  0  0  0
  -27.5930  -32.6310   25.9020 C   0  0  0  0  0  1  0  0  0  0  0  0
  1  3  2  0
  1  6  1  0
  2  5  1  0
  3  4  1  0
  4  9  1  0
  4  5  2  0
  5 10  1  0
  6  2  2  0
  7  3  1  0
  7 11  1  0
  8 11  1  0
  8 13  2  0
 11  9  1  0
 12  7  2  0
 14 22  1  0
 15 20  1  0
 16 17  1  0
 16 15  1  0
 18 17  1  0
 18 27  1  0
 18 19  1  0
 20 14  1  0
 20 19  1  0
 21 14  2  0
 22  6  1  0
 22 23  1  0
 24 25  2  0
 25 44  1  0
 26 25  1  0
 26 29  1  0
 27 28  1  0
 27 24  1  0
 28 26  2  0
 29 30  1  0
 30 31  2  0
 32 35  1  0
 32 31  1  0
 33 32  2  0
 34 33  1  0
 34 29  2  0
 35 36  1  0
 36 37  1  0
 37 38  2  0
 39 38  1  0
 39 43  1  0
 40 39  2  0
 41 36  2  0
 41 40  1  0
 42 41  1  0
 44 45  1  0
 45 48  1  0
 45 47  1  0
 46 44  2  0
 49 50  1  0
 49 24  1  0
 51 49  1  0
 52 53  1  0
 52  8  1  0
 54 65  2  0
 55 53  1  0
 55 60  1  0
 56 64  1  0
 56 66  1  0
 57 63  1  0
 57 59  1  0
 58 64  1  0
 59 60  2  0
 59 58  1  0
 61 55  2  0
 62 61  1  0
 62 57  2  0
 63 56  1  0
 64 54  1  0
 66 68  2  0
 67 66  1  0
 69 67  1  0
 70 79  2  0
 70 75  1  0
 71 67  1  0
 71 75  1  0
 72 71  1  0
 73 74  1  0
 73 72  1  0
 74 70  1  0
 75 76  2  0
 76 77  1  0
 78 77  2  0
 79 78  1  0
 80 54  1  0
 80 81  1  0
 80 90  1  0
 81 84  1  0
 82 86  1  0
 82 81  1  0
 83 82  2  0
 86 85  1  0
 88 89  1  0
 88 86  1  0
 88 87  1  0
 90 93  1  1
 90 91  1  0
 92 90  1  0
M  ISO  4  14 100  22 100  52 101  53 101
M  END
>  <TORSDO>  (42) 
F 17

>  <SCORE>  (42) 
-15.480

>  <name>  (42) 
41

>  <ligand_id>  (42) 
41

>  <original_smiles>  (42) 
[H]c1c([H])c([H])c2c(c1[H])C([H])([H])C([H])([H])C([H])([H])C2([H])N([H])C(=O)C1([H])N(C(=O)C([H])(N([H])C(=O)C([H])(N([H])C([H])([H])[H])C([H])([H])[H])C(C([H])([H])[H])(C([H])([H])[H])C([H])([H])[H])C([H])([H])c2c([H])c(OC([H])([H])C(=O)N3C(=O)c4c([H])c(N([H])C(=O)N5C([H])([H])C([H])([H])C([H])([H])C([H])(n6nc(-c7c([H])c([H])c(Oc8c([H])c([H])c(F)c([H])c8F)c([H])c7[H])c(C(=O)N([H])[H])c6N([H])[H])C5([H])[H])c([H])c(C([H])([H])[H])c4C3([H])[H])c([H])c([H])c2C1([H])[H]

>  <smiles>  (42) 
[H]c1c([H])c([H])c2c(c1[H])C([H])([H])C([H])([H])C([H])([H])C2([H])N([H])C(=O)C1([H])N(C(=O)C([H])(N([H])C(=O)C([H])(N([H])C([H])([H])[H])C([H])([H])[H])C(C([H])([H])[H])(C([H])([H])[H])C([H])([H])[H])C([H])([H])c2c([H])c(OC([H])([H])C(=O)N3C(=O)c4c([H])c(N([H])C(=O)N5C([H])([H])C([H])([H])C([H])([H])C([H])(n6nc(-c7c([H])c([H])c(Oc8c([H])c([H])c(F)c([H])c8F)c([H])c7[H])c(C(=O)N([H])[H])c6N([H])[H])C5([H])[H])c([H])c(C([H])([H])[H])c4C3([H])[H])c([H])c([H])c2C1([H])[H]

$$$$
42:0:0
     RDKit          3D

 93101  0  0  1  0  0  0  0  0999 V2000
  -28.8800  -19.5600   20.1370 C   0  0  0  0  0  3  0  0  0  0  0  0
  -31.2610  -18.1400   20.4380 C   0  0  0  0  0  3  0  0  0  0  0  0
  -28.8750  -18.1160   20.2040 C   0  0  0  0  0  0  0  0  0  0  0  0
  -30.0850  -17.3400   20.4010 C   0  0  0  0  0  0  0  0  0  0  0  0
  -30.0620  -20.3430   20.2130 C   0  0  0  0  0  0  0  0  0  0  0  0
  -31.2520  -19.5700   20.3430 C   0  0  0  0  0  0  0  0  0  0  0  0
  -32.4380  -20.2200   20.4050 F   0  0  0  0  0  0  0  0  0  0  0  0
  -30.0940  -15.7940   20.7220 C   0  0  0  0  0  0  0  0  0  0  0  0
  -29.7150  -15.4400   21.8800 N   0  0  0  0  0  0  0  0  0  0  0  0
  -29.4290  -16.2450   22.4240 H   0  0  0  0  0  0  0  0  0  0  0  0
  -30.6340  -14.6560   19.7390 C   0  0  0  0  0  0  0  0  0  0  0  0
  -30.3110  -12.4570   18.5780 C   0  0  0  0  0  2  0  0  0  0  0  0
  -29.2380  -12.5900   17.4720 C   0  0  0  0  0  2  0  0  0  0  0  0
  -27.8250  -12.3740   18.0460 C   0  0  0  0  0  2  0  0  0  0  0  0
  -27.5920  -13.1860   19.3470 C   0  0  0  0  0  3  0  0  0  0  0  0
  -28.7620  -12.9960   20.3350 C   0  0  0  0  0  2  0  0  0  0  0  0
  -29.9990  -13.4260   19.6600 N   0  0  0  0  0  0  0  0  0  0  0  0
  -31.6600  -14.8590   19.0790 O   0  0  0  0  0  0  0  0  0  0  0  0
  -25.2860  -13.7290   20.3400 C   0  0  0  0  0  0  0  0  0  0  0  0
  -24.2740  -12.9300   20.7990 C   0  0  0  0  0  0  0  0  0  0  0  0
  -24.7430  -11.5870   20.6710 C   0  0  0  0  0  0  0  0  0  0  0  0
  -26.3070  -12.8690   19.9630 N   0  0  0  0  0  0  0  0  0  0  0  0
  -25.9920  -11.5750   20.2220 N   0  0  0  0  0  0  0  0  0  0  0  0
  -24.0520  -10.3110   20.8960 C   0  0  0  0  0  0  0  0  0  0  0  0
  -24.5160   -9.3800   21.8500 C   0  0  0  0  0  3  0  0  0  0  0  0
  -23.8240   -8.1670   22.0620 C   0  0  0  0  0  3  0  0  0  0  0  0
  -22.6560   -7.8780   21.3170 C   0  0  0  0  0  0  0  0  0  0  0  0
  -22.2120   -8.7980   20.3530 C   0  0  0  0  0  3  0  0  0  0  0  0
  -22.9030  -10.0020   20.1400 C   0  0  0  0  0  3  0  0  0  0  0  0
  -21.9340   -6.7150   21.4360 O   0  0  0  0  0  0  0  0  0  0  0  0
  -21.8060   -6.0660   22.6380 C   0  0  0  0  0  0  0  0  0  0  0  0
  -21.2510   -6.7010   23.7720 C   0  0  0  0  0  3  0  0  0  0  0  0
  -21.0730   -5.9760   24.9670 C   0  0  0  0  0  3  0  0  0  0  0  0
  -21.4410   -4.6180   25.0300 C   0  0  0  0  0  0  0  0  0  0  0  0
  -21.9900   -3.9840   23.9020 C   0  0  0  0  0  3  0  0  0  0  0  0
  -22.1690   -4.7060   22.7090 C   0  0  0  0  0  0  0  0  0  0  0  0
  -22.6780   -4.0840   21.6180 F   0  0  0  0  0  0  0  0  0  0  0  0
  -21.2640   -3.9210   26.1770 F   0  0  0  0  0  0  0  0  0  0  0  0
  -22.9120  -13.3830   21.2360 C   0  0  0  0  0  0  0  0  0  0  0  0
  -22.3020  -12.6700   22.1770 N   0  0  0  0  0  0  0  0  0  0  0  0
  -22.3970  -14.4010   20.7770 O   0  0  0  0  0  0  0  0  0  0  0  0
  -22.7340  -11.8470   22.5690 H   0  0  0  0  0  0  0  0  0  0  0  0
  -21.3920  -12.9530   22.5110 H   0  0  0  0  0  0  0  0  0  0  0  0
  -25.4140  -15.1040   20.1900 N   0  0  0  0  0  0  0  0  0  0  0  0
  -24.6590  -15.7390   20.4220 H   0  0  0  0  0  0  0  0  0  0  0  0
  -26.2060  -15.5690   19.7660 H   0  0  0  0  0  0  0  0  0  0  0  0
  -26.3500  -18.0430   20.0770 C   0  0  0  0  0  2  0  0  0  0  0  0
  -27.5550  -17.4460   20.1030 C   0  0  0  0  0  3  0  0  0  0  0  0
  -30.1650  -21.7660   20.1430 O   0  0  0  0  0  0  0  0  0  0  0  0
  -29.0930  -22.7710   20.3680 C   0  0  0  0  0  2  0  0  0  0  0  0
  -29.2140  -24.0310   19.4250 C   0  0  0  0  0  3  0  0  0  0  0  0
  -29.0790  -25.4160   19.4690 C   0  0  0  0  0  3  0  0  0  0  0  0
  -28.7710  -26.3660   20.4630 O   0  0  0  0  0  0  0  0  0  0  0  0
  -24.7900  -31.7870   23.1590 C   0  0  0  0  0  0  0  0  0  0  0  0
  -27.6680  -27.2360   20.2980 C   0  0  0  0  0  0  0  0  0  0  0  0
  -23.7020  -30.3260   21.4930 C   0  0  0  0  0  3  0  0  0  0  0  0
  -25.2600  -28.7960   20.1560 C   0  0  0  0  0  0  0  0  0  0  0  0
  -26.2390  -30.7100   21.4170 C   0  0  0  0  0  2  0  0  0  0  0  0
  -26.3900  -29.3230   20.7970 C   0  0  0  0  0  0  0  0  0  0  0  0
  -27.5940  -28.5520   20.8640 C   0  0  0  0  0  3  0  0  0  0  0  0
  -26.5090  -26.7660   19.6390 C   0  0  0  0  0  3  0  0  0  0  0  0
  -25.3250  -27.5230   19.5670 C   0  0  0  0  0  3  0  0  0  0  0  0
  -23.9970  -29.6320   20.1370 C   0  0  0  0  0  2  0  0  0  0  0  0
  -24.9260  -30.9600   22.0800 N   0  0  0  0  0  0  0  0  0  0  0  0
  -23.6760  -32.0440   23.6400 O   0  0  0  0  0  0  0  0  0  0  0  0
  -23.0260  -29.3100   22.4430 C   0  0  0  0  0  0  0  0  0  0  0  0
  -21.7070  -29.1120   22.2780 N   0  0  0  0  0  0  0  0  0  0  0  0
  -23.6870  -28.7020   23.2880 O   0  0  0  0  0  0  0  0  0  0  0  0
  -21.2340  -29.6500   21.5650 H   0  0  0  0  0  0  0  0  0  0  0  0
  -18.3210  -27.9210   22.7390 C   0  0  0  0  0  0  0  0  0  0  0  0
  -20.8780  -28.1690   23.0320 C   0  0  0  0  0  3  0  0  0  0  0  0
  -20.9790  -26.7440   22.4390 C   0  0  0  0  0  2  0  0  0  0  0  0
  -19.8840  -26.4380   21.4120 C   0  0  0  0  0  2  0  0  0  0  0  0
  -18.4980  -26.5780   22.0480 C   0  0  0  0  0  2  0  0  0  0  0  0
  -19.4390  -28.6740   23.1860 C   0  0  0  0  0  0  0  0  0  0  0  0
  -19.2200  -29.9310   23.7910 C   0  0  0  0  0  3  0  0  0  0  0  0
  -17.9160  -30.4330   23.9560 C   0  0  0  0  0  3  0  0  0  0  0  0
  -16.8120  -29.6770   23.5250 C   0  0  0  0  0  3  0  0  0  0  0  0
  -17.0150  -28.4220   22.9220 C   0  0  0  0  0  3  0  0  0  0  0  0
  -26.0250  -32.4670   23.8270 C   0  0  0  0  0  3  0  0  0  0  0  0
  -25.6440  -33.8470   24.1590 N   0  0  0  0  0  0  0  0  0  0  0  0
  -25.9430  -34.9200   23.4140 C   0  0  0  0  0  0  0  0  0  0  0  0
  -26.6390  -34.8550   22.3960 O   0  0  0  0  0  0  0  0  0  0  0  0
  -25.0180  -33.9650   24.9430 H   0  0  0  0  0  0  0  0  0  0  0  0
  -24.1400  -36.6370   23.0410 C   0  0  0  0  0  1  0  0  0  0  0  0
  -25.3860  -36.2830   23.8690 C   0  0  0  0  0  3  0  0  0  0  0  0
  -27.4630  -37.2650   24.7380 C   0  0  0  0  0  1  0  0  0  0  0  0
  -26.3700  -37.3830   23.7760 N   0  0  0  0  0  0  0  0  0  0  0  0
  -25.9190  -38.2830   23.9140 H   0  0  0  0  0  0  0  0  0  0  0  0
  -26.5330  -31.7040   25.1120 C   0  0  1  0  0  0  0  0  0  0  0  0
  -25.4120  -31.3770   26.1280 C   0  0  0  0  0  1  0  0  0  0  0  0
  -27.2170  -30.3700   24.7280 C   0  0  0  0  0  1  0  0  0  0  0  0
  -27.6060  -32.5540   25.8340 C   0  0  0  0  0  1  0  0  0  0  0  0
  1  3  2  0
  1  5  1  0
  3  4  1  0
  4  2  2  0
  4  8  1  0
  5  6  2  0
  6  7  1  0
  6  2  1  0
  8  9  2  0
  9 10  1  0
 11  8  1  0
 12 17  1  0
 13 14  1  0
 13 12  1  0
 15 14  1  0
 15 22  1  0
 15 16  1  0
 17 11  1  0
 17 16  1  0
 18 11  2  0
 19 20  2  0
 20 39  1  0
 21 20  1  0
 21 24  1  0
 22 23  1  0
 22 19  1  0
 23 21  2  0
 24 25  1  0
 25 26  2  0
 27 30  1  0
 27 26  1  0
 28 27  2  0
 29 28  1  0
 29 24  2  0
 30 31  1  0
 31 36  2  0
 31 32  1  0
 32 33  2  0
 33 34  1  0
 34 38  1  0
 35 34  2  0
 36 35  1  0
 37 36  1  0
 39 40  1  0
 40 43  1  0
 40 42  1  0
 41 39  2  0
 44 19  1  0
 44 45  1  0
 46 44  1  0
 47 48  2  0
 48  3  1  0
 49  5  1  0
 49 50  1  0
 51 52  2  0
 51 50  1  0
 52 53  1  0
 54 65  2  0
 55 53  1  0
 55 60  1  0
 56 64  1  0
 56 66  1  0
 57 59  1  0
 58 64  1  0
 59 60  2  0
 59 58  1  0
 61 55  2  0
 62 61  1  0
 62 57  2  0
 63 57  1  0
 63 56  1  0
 64 54  1  0
 66 68  2  0
 67 66  1  0
 69 67  1  0
 70 79  2  0
 70 75  1  0
 71 67  1  0
 71 75  1  0
 72 71  1  0
 73 74  1  0
 73 72  1  0
 74 70  1  0
 75 76  2  0
 76 77  1  0
 78 77  2  0
 79 78  1  0
 80 54  1  0
 80 81  1  0
 80 90  1  0
 81 84  1  0
 82 86  1  0
 82 81  1  0
 83 82  2  0
 86 85  1  0
 88 86  1  0
 88 89  1  0
 88 87  1  0
 90 93  1  1
 90 91  1  0
 92 90  1  0
M  ISO  4   8 100  11 100  52 101  53 101
M  END
>  <TORSDO>  (43) 
F 21

>  <SCORE>  (43) 
-12.798

>  <name>  (43) 
42

>  <ligand_id>  (43) 
42

>  <original_smiles>  (43) 
[H]N=C(C(=O)N1C([H])([H])C([H])([H])C([H])([H])C([H])(n2nc(-c3c([H])c([H])c(Oc4c([H])c([H])c(F)c([H])c4F)c([H])c3[H])c(C(=O)N([H])[H])c2N([H])[H])C1([H])[H])c1c([H])c(F)c(OC([H])([H])C([H])=C([H])Oc2c([H])c([H])c3c(c2[H])C([H])([H])N(C(=O)C([H])(N([H])C(=O)C([H])(N([H])C([H])([H])[H])C([H])([H])[H])C(C([H])([H])[H])(C([H])([H])[H])C([H])([H])[H])C([H])(C(=O)N([H])C2([H])c4c([H])c([H])c([H])c([H])c4C([H])([H])C([H])([H])C2([H])[H])C3([H])[H])c([H])c1C([H])=C([H])[H]

>  <smiles>  (43) 
[H]N=C(C(=O)N1C([H])([H])C([H])([H])C([H])([H])C([H])(n2nc(-c3c([H])c([H])c(Oc4c([H])c([H])c(F)c([H])c4F)c([H])c3[H])c(C(=O)N([H])[H])c2N([H])[H])C1([H])[H])c1c([H])c(F)c(OC([H])([H])C([H])=C([H])Oc2c([H])c([H])c3c(c2[H])C([H])([H])N(C(=O)C([H])(N([H])C(=O)C([H])(N([H])C([H])([H])[H])C([H])([H])[H])C(C([H])([H])[H])(C([H])([H])[H])C([H])([H])[H])C([H])(C(=O)N([H])C2([H])c4c([H])c([H])c([H])c([H])c4C([H])([H])C([H])([H])C2([H])[H])C3([H])[H])c([H])c1C([H])=C([H])[H]

$$$$
43:0:0
     RDKit          3D

 93101  0  0  1  0  0  0  0  0999 V2000
  -30.3890  -19.8650   23.1420 C   0  0  0  0  0  3  0  0  0  0  0  0
  -30.0840  -19.6140   20.4000 C   0  0  0  0  0  3  0  0  0  0  0  0
  -30.5070  -18.5750   22.5710 C   0  0  0  0  0  0  0  0  0  0  0  0
  -30.3540  -18.4340   21.1610 C   0  0  0  0  0  0  0  0  0  0  0  0
  -30.1760  -21.0330   22.3710 C   0  0  0  0  0  0  0  0  0  0  0  0
  -29.9770  -20.9120   20.9770 C   0  0  0  0  0  0  0  0  0  0  0  0
  -31.2340  -17.5150   24.7550 C   0  0  0  0  0  2  0  0  0  0  0  0
  -30.9220  -17.4480   23.4470 C   0  0  0  0  0  3  0  0  0  0  0  0
  -30.5820  -17.1350   20.4320 C   0  0  0  0  0  3  0  0  0  0  0  0
  -30.1950  -15.8550   20.7180 C   0  0  0  0  0  3  0  0  0  0  0  0
  -30.7280  -14.7280   19.9240 C   0  0  0  0  0  0  0  0  0  0  0  0
  -30.3470  -12.5480   18.8090 C   0  0  0  0  0  2  0  0  0  0  0  0
  -29.3210  -12.7190   17.6700 C   0  0  0  0  0  2  0  0  0  0  0  0
  -27.8890  -12.5380   18.2040 C   0  0  0  0  0  2  0  0  0  0  0  0
  -27.6240  -13.3700   19.4850 C   0  0  0  0  0  3  0  0  0  0  0  0
  -28.7620  -13.2110   20.5170 C   0  0  0  0  0  2  0  0  0  0  0  0
  -30.0340  -13.5470   19.8560 N   0  0  0  0  0  0  0  0  0  0  0  0
  -31.7760  -14.8630   19.2860 O   0  0  0  0  0  0  0  0  0  0  0  0
  -25.2880  -13.9120   20.4100 C   0  0  0  0  0  0  0  0  0  0  0  0
  -24.2590  -13.1120   20.8270 C   0  0  0  0  0  0  0  0  0  0  0  0
  -24.7280  -11.7690   20.7080 C   0  0  0  0  0  0  0  0  0  0  0  0
  -26.3200  -13.0540   20.0620 N   0  0  0  0  0  0  0  0  0  0  0  0
  -25.9910  -11.7570   20.3010 N   0  0  0  0  0  0  0  0  0  0  0  0
  -24.0280  -10.4910   20.9050 C   0  0  0  0  0  0  0  0  0  0  0  0
  -24.4600   -9.5550   21.8720 C   0  0  0  0  0  3  0  0  0  0  0  0
  -23.7580   -8.3450   22.0580 C   0  0  0  0  0  3  0  0  0  0  0  0
  -22.6130   -8.0600   21.2770 C   0  0  0  0  0  0  0  0  0  0  0  0
  -22.2020   -8.9850   20.3010 C   0  0  0  0  0  3  0  0  0  0  0  0
  -22.9030  -10.1870   20.1130 C   0  0  0  0  0  3  0  0  0  0  0  0
  -21.8850   -6.8980   21.3690 O   0  0  0  0  0  0  0  0  0  0  0  0
  -21.7090   -6.2520   22.5670 C   0  0  0  0  0  0  0  0  0  0  0  0
  -21.0940   -6.8820   23.6700 C   0  0  0  0  0  3  0  0  0  0  0  0
  -20.8680   -6.1600   24.8590 C   0  0  0  0  0  3  0  0  0  0  0  0
  -21.2500   -4.8080   24.9450 C   0  0  0  0  0  0  0  0  0  0  0  0
  -21.8600   -4.1770   23.8470 C   0  0  0  0  0  3  0  0  0  0  0  0
  -22.0850   -4.8960   22.6590 C   0  0  0  0  0  0  0  0  0  0  0  0
  -22.6520   -4.2770   21.5950 F   0  0  0  0  0  0  0  0  0  0  0  0
  -21.0280   -4.1110   26.0840 F   0  0  0  0  0  0  0  0  0  0  0  0
  -22.8840  -13.5620   21.2300 C   0  0  0  0  0  0  0  0  0  0  0  0
  -22.2300  -12.8180   22.1140 N   0  0  0  0  0  0  0  0  0  0  0  0
  -22.4010  -14.6070   20.7970 O   0  0  0  0  0  0  0  0  0  0  0  0
  -22.6370  -11.9720   22.4840 H   0  0  0  0  0  0  0  0  0  0  0  0
  -21.3120  -13.0980   22.4270 H   0  0  0  0  0  0  0  0  0  0  0  0
  -25.4320  -15.2900   20.2770 N   0  0  0  0  0  0  0  0  0  0  0  0
  -24.6840  -15.9440   20.4840 H   0  0  0  0  0  0  0  0  0  0  0  0
  -26.2720  -15.7430   19.9390 H   0  0  0  0  0  0  0  0  0  0  0  0
  -30.8790  -22.4380   24.1810 C   0  0  0  0  0  1  0  0  0  0  0  0
  -30.2240  -22.2950   22.9240 O   0  0  0  0  0  0  0  0  0  0  0  0
  -29.8280  -22.0380   20.1630 O   0  0  0  0  0  0  0  0  0  0  0  0
  -28.6890  -22.9120   20.3630 C   0  0  0  0  0  2  0  0  0  0  0  0
  -28.8750  -24.3530   19.8370 C   0  0  0  0  0  3  0  0  0  0  0  0
  -28.2870  -25.4610   20.3590 C   0  0  0  0  0  3  0  0  0  0  0  0
  -28.4030  -26.7540   19.8640 O   0  0  0  0  0  0  0  0  0  0  0  0
  -24.6560  -31.8250   23.2730 C   0  0  0  0  0  0  0  0  0  0  0  0
  -27.2640  -27.5450   19.9180 C   0  0  0  0  0  0  0  0  0  0  0  0
  -23.4330  -30.5160   21.5700 C   0  0  0  0  0  3  0  0  0  0  0  0
  -24.8720  -29.0700   20.0340 C   0  0  0  0  0  0  0  0  0  0  0  0
  -25.9560  -30.8900   21.3590 C   0  0  0  0  0  2  0  0  0  0  0  0
  -26.0390  -29.5550   20.6370 C   0  0  0  0  0  0  0  0  0  0  0  0
  -27.2410  -28.8030   20.5710 C   0  0  0  0  0  3  0  0  0  0  0  0
  -26.0780  -27.0860   19.3030 C   0  0  0  0  0  3  0  0  0  0  0  0
  -24.8870  -27.8380   19.3590 C   0  0  0  0  0  3  0  0  0  0  0  0
  -23.6250  -29.9190   20.1500 C   0  0  0  0  0  2  0  0  0  0  0  0
  -24.7000  -31.0880   22.1270 N   0  0  0  0  0  0  0  0  0  0  0  0
  -23.5810  -32.0630   23.8430 O   0  0  0  0  0  0  0  0  0  0  0  0
  -22.7950  -29.4400   22.4810 C   0  0  0  0  0  0  0  0  0  0  0  0
  -21.4810  -29.2190   22.3210 N   0  0  0  0  0  0  0  0  0  0  0  0
  -23.4840  -28.8070   23.2860 O   0  0  0  0  0  0  0  0  0  0  0  0
  -20.9860  -29.7790   21.6410 H   0  0  0  0  0  0  0  0  0  0  0  0
  -18.1450  -27.8760   22.6930 C   0  0  0  0  0  0  0  0  0  0  0  0
  -20.6820  -28.2260   23.0420 C   0  0  0  0  0  3  0  0  0  0  0  0
  -20.8590  -26.8200   22.4240 C   0  0  0  0  0  2  0  0  0  0  0  0
  -19.7970  -26.4850   21.3720 C   0  0  0  0  0  2  0  0  0  0  0  0
  -18.3940  -26.5560   21.9830 C   0  0  0  0  0  2  0  0  0  0  0  0
  -19.2210  -28.6690   23.1760 C   0  0  0  0  0  0  0  0  0  0  0  0
  -18.9350  -29.9030   23.8010 C   0  0  0  0  0  3  0  0  0  0  0  0
  -17.6080  -30.3450   23.9490 C   0  0  0  0  0  3  0  0  0  0  0  0
  -16.5470  -29.5500   23.4820 C   0  0  0  0  0  3  0  0  0  0  0  0
  -16.8160  -28.3180   22.8610 C   0  0  0  0  0  3  0  0  0  0  0  0
  -25.9460  -32.4280   23.9090 C   0  0  0  0  0  3  0  0  0  0  0  0
  -25.6550  -33.8270   24.2520 N   0  0  0  0  0  0  0  0  0  0  0  0
  -26.0040  -34.8830   23.5050 C   0  0  0  0  0  0  0  0  0  0  0  0
  -26.6740  -34.7800   22.4730 O   0  0  0  0  0  0  0  0  0  0  0  0
  -25.0650  -33.9810   25.0560 H   0  0  0  0  0  0  0  0  0  0  0  0
  -24.2980  -36.7020   23.1770 C   0  0  0  0  0  1  0  0  0  0  0  0
  -25.5370  -36.2730   23.9790 C   0  0  0  0  0  3  0  0  0  0  0  0
  -27.6870  -37.1220   24.8120 C   0  0  0  0  0  1  0  0  0  0  0  0
  -26.5830  -37.3160   23.8750 N   0  0  0  0  0  0  0  0  0  0  0  0
  -26.1870  -38.2380   24.0380 H   0  0  0  0  0  0  0  0  0  0  0  0
  -26.4470  -31.6330   25.1760 C   0  0  1  0  0  0  0  0  0  0  0  0
  -25.3360  -31.3670   26.2200 C   0  0  0  0  0  1  0  0  0  0  0  0
  -27.0420  -30.2660   24.7660 C   0  0  0  0  0  1  0  0  0  0  0  0
  -27.5840  -32.4160   25.8720 C   0  0  0  0  0  1  0  0  0  0  0  0
  2  6  2  0
  2  4  1  0
  3  1  1  0
  3  8  1  0
  4  3  2  0
  5 48  1  0
  5  1  2  0
  6  5  1  0
  8  7  2  0
  9 10  2  0
  9  4  1  0
 11 10  1  0
 12 17  1  0
 13 14  1  0
 13 12  1  0
 15 14  1  0
 15 22  1  0
 15 16  1  0
 17 11  1  0
 17 16  1  0
 18 11  2  0
 19 20  2  0
 20 39  1  0
 21 20  1  0
 21 24  1  0
 22 23  1  0
 22 19  1  0
 23 21  2  0
 24 25  1  0
 25 26  2  0
 27 30  1  0
 27 26  1  0
 28 27  2  0
 29 28  1  0
 29 24  2  0
 30 31  1  0
 31 36  2  0
 31 32  1  0
 32 33  2  0
 33 34  1  0
 34 38  1  0
 35 34  2  0
 36 35  1  0
 37 36  1  0
 39 40  1  0
 40 43  1  0
 40 42  1  0
 41 39  2  0
 44 19  1  0
 44 45  1  0
 46 44  1  0
 48 47  1  0
 49 50  1  0
 49  6  1  0
 51 52  2  0
 51 50  1  0
 53 55  1  0
 53 52  1  0
 54 65  2  0
 55 60  1  0
 56 64  1  0
 56 66  1  0
 57 63  1  0
 57 59  1  0
 58 64  1  0
 59 58  1  0
 60 59  2  0
 61 62  1  0
 61 55  2  0
 62 57  2  0
 63 56  1  0
 64 54  1  0
 66 68  2  0
 67 66  1  0
 69 67  1  0
 70 79  2  0
 70 75  1  0
 71 67  1  0
 71 75  1  0
 72 71  1  0
 73 74  1  0
 73 72  1  0
 74 70  1  0
 75 76  2  0
 76 77  1  0
 78 77  2  0
 79 78  1  0
 80 54  1  0
 80 81  1  0
 80 90  1  0
 81 84  1  0
 82 86  1  0
 82 81  1  0
 83 82  2  0
 86 85  1  0
 88 86  1  0
 88 89  1  0
 88 87  1  0
 90 93  1  1
 90 91  1  0
 92 90  1  0
M  ISO  4  10 100  11 100  52 101  53 101
M  END
>  <TORSDO>  (44) 
F 22

>  <SCORE>  (44) 
-9.010

>  <name>  (44) 
43

>  <ligand_id>  (44) 
43

>  <original_smiles>  (44) 
[H]C([H])=C([H])c1c([H])c(OC([H])([H])[H])c(OC([H])([H])C([H])=C([H])Oc2c([H])c([H])c3c(c2[H])C([H])([H])N(C(=O)C([H])(N([H])C(=O)C([H])(N([H])C([H])([H])[H])C([H])([H])[H])C(C([H])([H])[H])(C([H])([H])[H])C([H])([H])[H])C([H])(C(=O)N([H])C2([H])c4c([H])c([H])c([H])c([H])c4C([H])([H])C([H])([H])C2([H])[H])C3([H])[H])c([H])c1C([H])=C([H])C(=O)N1C([H])([H])C([H])([H])C([H])([H])C([H])(n2nc(-c3c([H])c([H])c(Oc4c([H])c([H])c(F)c([H])c4F)c([H])c3[H])c(C(=O)N([H])[H])c2N([H])[H])C1([H])[H]

>  <smiles>  (44) 
[H]C([H])=C([H])c1c([H])c(OC([H])([H])[H])c(OC([H])([H])C([H])=C([H])Oc2c([H])c([H])c3c(c2[H])C([H])([H])N(C(=O)C([H])(N([H])C(=O)C([H])(N([H])C([H])([H])[H])C([H])([H])[H])C(C([H])([H])[H])(C([H])([H])[H])C([H])([H])[H])C([H])(C(=O)N([H])C2([H])c4c([H])c([H])c([H])c([H])c4C([H])([H])C([H])([H])C2([H])[H])C3([H])[H])c([H])c1C([H])=C([H])C(=O)N1C([H])([H])C([H])([H])C([H])([H])C([H])(n2nc(-c3c([H])c([H])c(Oc4c([H])c([H])c(F)c([H])c4F)c([H])c3[H])c(C(=O)N([H])[H])c2N([H])[H])C1([H])[H]

$$$$
44:0:0
     RDKit          3D

 93101  0  0  1  0  0  0  0  0999 V2000
  -29.9510  -19.4370   19.7410 C   0  0  0  0  0  3  0  0  0  0  0  0
  -30.5410  -19.4840   22.0600 C   0  0  0  0  0  3  0  0  0  0  0  0
  -30.0090  -17.9990   19.7390 C   0  0  0  0  0  0  0  0  0  0  0  0
  -30.3090  -17.2660   20.9350 C   0  0  0  0  0  0  0  0  0  0  0  0
  -30.1680  -20.2190   20.9080 C   0  0  0  0  0  0  0  0  0  0  0  0
  -30.6160  -18.0650   22.0770 C   0  0  0  0  0  0  0  0  0  0  0  0
  -30.9540  -17.4730   23.2520 F   0  0  0  0  0  0  0  0  0  0  0  0
  -30.1060  -15.7520   21.1440 C   0  0  0  0  0  0  0  0  0  0  0  0
  -29.3140  -15.4480   22.0910 N   0  0  0  0  0  0  0  0  0  0  0  0
  -28.9290  -16.2580   22.5600 H   0  0  0  0  0  0  0  0  0  0  0  0
  -30.8370  -14.6430   20.2670 C   0  0  0  0  0  0  0  0  0  0  0  0
  -30.5500  -12.5620   18.9020 C   0  0  0  0  0  2  0  0  0  0  0  0
  -29.5350  -12.8760   17.7750 C   0  0  0  0  0  2  0  0  0  0  0  0
  -28.0720  -12.7060   18.2420 C   0  0  0  0  0  2  0  0  0  0  0  0
  -27.8210  -13.3800   19.6160 C   0  0  0  0  0  3  0  0  0  0  0  0
  -28.9220  -12.9390   20.6010 C   0  0  0  0  0  2  0  0  0  0  0  0
  -30.2110  -13.4220   20.0620 N   0  0  0  0  0  0  0  0  0  0  0  0
  -31.9200  -14.8840   19.7170 O   0  0  0  0  0  0  0  0  0  0  0  0
  -25.4610  -14.0040   20.4340 C   0  0  0  0  0  0  0  0  0  0  0  0
  -24.3920  -13.2350   20.8010 C   0  0  0  0  0  0  0  0  0  0  0  0
  -24.8290  -11.8770   20.6940 C   0  0  0  0  0  0  0  0  0  0  0  0
  -26.4800  -13.1130   20.1210 N   0  0  0  0  0  0  0  0  0  0  0  0
  -26.1020  -11.8260   20.3280 N   0  0  0  0  0  0  0  0  0  0  0  0
  -24.0900  -10.6190   20.8640 C   0  0  0  0  0  0  0  0  0  0  0  0
  -24.5450   -9.6150   21.7460 C   0  0  0  0  0  3  0  0  0  0  0  0
  -23.8090   -8.4220   21.9140 C   0  0  0  0  0  3  0  0  0  0  0  0
  -22.6040   -8.2280   21.1940 C   0  0  0  0  0  0  0  0  0  0  0  0
  -22.1700   -9.2200   20.2980 C   0  0  0  0  0  3  0  0  0  0  0  0
  -22.9070  -10.4030   20.1300 C   0  0  0  0  0  3  0  0  0  0  0  0
  -21.8390   -7.0890   21.2660 O   0  0  0  0  0  0  0  0  0  0  0  0
  -21.8050   -6.3160   22.4000 C   0  0  0  0  0  0  0  0  0  0  0  0
  -21.4290   -6.8470   23.6540 C   0  0  0  0  0  3  0  0  0  0  0  0
  -21.3340   -5.9990   24.7760 C   0  0  0  0  0  3  0  0  0  0  0  0
  -21.6130   -4.6260   24.6460 C   0  0  0  0  0  0  0  0  0  0  0  0
  -21.9870   -4.0960   23.3960 C   0  0  0  0  0  3  0  0  0  0  0  0
  -22.0780   -4.9390   22.2770 C   0  0  0  0  0  0  0  0  0  0  0  0
  -22.4160   -4.4210   21.0710 F   0  0  0  0  0  0  0  0  0  0  0  0
  -21.5160   -3.8110   25.7220 F   0  0  0  0  0  0  0  0  0  0  0  0
  -23.0140  -13.7190   21.1550 C   0  0  0  0  0  0  0  0  0  0  0  0
  -22.3170  -12.9980   22.0280 N   0  0  0  0  0  0  0  0  0  0  0  0
  -22.5680  -14.7680   20.6930 O   0  0  0  0  0  0  0  0  0  0  0  0
  -22.6940  -12.1460   22.4120 H   0  0  0  0  0  0  0  0  0  0  0  0
  -21.3950  -13.2980   22.3070 H   0  0  0  0  0  0  0  0  0  0  0  0
  -25.6460  -15.3820   20.3290 N   0  0  0  0  0  0  0  0  0  0  0  0
  -24.9310  -16.0310   20.6390 H   0  0  0  0  0  0  0  0  0  0  0  0
  -26.5300  -15.8350   20.1370 H   0  0  0  0  0  0  0  0  0  0  0  0
  -30.2370  -17.7050   17.2800 C   0  0  0  0  0  2  0  0  0  0  0  0
  -29.7530  -17.3020   18.4690 C   0  0  0  0  0  3  0  0  0  0  0  0
  -29.3410  -22.4930   20.4130 C   0  0  0  0  0  3  0  0  0  0  0  0
  -30.1640  -21.6560   20.9790 N   0  0  0  0  0  0  0  0  0  0  0  0
  -29.4680  -24.0640   20.5700 C   0  0  0  0  0  3  0  0  0  0  0  0
  -28.3700  -25.0380   19.9490 C   0  0  0  0  0  3  0  0  0  0  0  0
  -28.4730  -26.4890   20.2710 O   0  0  0  0  0  0  0  0  0  0  0  0
  -24.6470  -31.8660   23.2360 C   0  0  0  0  0  0  0  0  0  0  0  0
  -27.3350  -27.3150   20.2070 C   0  0  0  0  0  0  0  0  0  0  0  0
  -23.4800  -30.4690   21.5670 C   0  0  0  0  0  3  0  0  0  0  0  0
  -24.9580  -28.9170   20.1740 C   0  0  0  0  0  0  0  0  0  0  0  0
  -26.0200  -30.7880   21.4360 C   0  0  0  0  0  2  0  0  0  0  0  0
  -26.1140  -29.4070   20.7890 C   0  0  0  0  0  0  0  0  0  0  0  0
  -27.3040  -28.6190   20.7960 C   0  0  0  0  0  3  0  0  0  0  0  0
  -26.1510  -26.8770   19.5690 C   0  0  0  0  0  3  0  0  0  0  0  0
  -24.9750  -27.6560   19.5610 C   0  0  0  0  0  3  0  0  0  0  0  0
  -23.7210  -29.7900   20.1930 C   0  0  0  0  0  2  0  0  0  0  0  0
  -24.7340  -31.0600   22.1370 N   0  0  0  0  0  0  0  0  0  0  0  0
  -23.5530  -32.1400   23.7510 O   0  0  0  0  0  0  0  0  0  0  0  0
  -22.7940  -29.4560   22.5140 C   0  0  0  0  0  0  0  0  0  0  0  0
  -21.4710  -29.2760   22.3550 N   0  0  0  0  0  0  0  0  0  0  0  0
  -23.4540  -28.8290   23.3470 O   0  0  0  0  0  0  0  0  0  0  0  0
  -20.9960  -29.8340   21.6600 H   0  0  0  0  0  0  0  0  0  0  0  0
  -18.0880  -28.0630   22.7710 C   0  0  0  0  0  0  0  0  0  0  0  0
  -20.6370  -28.3380   23.1070 C   0  0  0  0  0  3  0  0  0  0  0  0
  -20.7600  -26.9040   22.5420 C   0  0  0  0  0  2  0  0  0  0  0  0
  -19.6890  -26.5720   21.4980 C   0  0  0  0  0  2  0  0  0  0  0  0
  -18.2900  -26.7130   22.1030 C   0  0  0  0  0  2  0  0  0  0  0  0
  -19.1920  -28.8320   23.2280 C   0  0  0  0  0  0  0  0  0  0  0  0
  -18.9490  -30.0950   23.8090 C   0  0  0  0  0  3  0  0  0  0  0  0
  -17.6360  -30.5890   23.9370 C   0  0  0  0  0  3  0  0  0  0  0  0
  -16.5480  -29.8170   23.4930 C   0  0  0  0  0  3  0  0  0  0  0  0
  -16.7740  -28.5560   22.9170 C   0  0  0  0  0  3  0  0  0  0  0  0
  -25.9160  -32.4970   23.8860 C   0  0  0  0  0  3  0  0  0  0  0  0
  -25.5990  -33.8940   24.2200 N   0  0  0  0  0  0  0  0  0  0  0  0
  -25.9300  -34.9500   23.4660 C   0  0  0  0  0  0  0  0  0  0  0  0
  -26.6070  -34.8540   22.4390 O   0  0  0  0  0  0  0  0  0  0  0  0
  -24.9950  -34.0410   25.0140 H   0  0  0  0  0  0  0  0  0  0  0  0
  -24.1900  -36.7350   23.1210 C   0  0  0  0  0  1  0  0  0  0  0  0
  -25.4380  -36.3360   23.9270 C   0  0  0  0  0  3  0  0  0  0  0  0
  -27.5700  -37.2390   24.7460 C   0  0  0  0  0  1  0  0  0  0  0  0
  -26.4620  -37.3960   23.8090 N   0  0  0  0  0  0  0  0  0  0  0  0
  -26.0500  -38.3140   23.9560 H   0  0  0  0  0  0  0  0  0  0  0  0
  -26.4090  -31.7190   25.1690 C   0  0  1  0  0  0  0  0  0  0  0  0
  -25.2960  -31.4750   26.2130 C   0  0  0  0  0  1  0  0  0  0  0  0
  -26.9980  -30.3430   24.7810 C   0  0  0  0  0  1  0  0  0  0  0  0
  -27.5460  -32.5100   25.8580 C   0  0  0  0  0  1  0  0  0  0  0  0
  1  5  1  0
  2  6  1  0
  3  1  2  0
  3  4  1  0
  4  8  1  0
  4  6  2  0
  5 50  1  0
  5  2  2  0
  6  7  1  0
  8  9  2  0
  9 10  1  0
 11  8  1  0
 12 17  1  0
 13 14  1  0
 13 12  1  0
 15 14  1  0
 15 22  1  0
 15 16  1  0
 17 11  1  0
 17 16  1  0
 18 11  2  0
 19 20  2  0
 20 39  1  0
 21 20  1  0
 21 24  1  0
 22 23  1  0
 22 19  1  0
 23 21  2  0
 24 25  1  0
 25 26  2  0
 27 30  1  0
 27 26  1  0
 28 27  2  0
 29 28  1  0
 29 24  2  0
 30 31  1  0
 31 32  1  0
 32 33  2  0
 34 33  1  0
 34 38  1  0
 35 34  2  0
 36 31  2  0
 36 35  1  0
 37 36  1  0
 39 40  1  0
 40 43  1  0
 40 42  1  0
 41 39  2  0
 44 19  1  0
 44 45  1  0
 46 44  1  0
 47 48  2  0
 48  3  1  0
 49 51  1  0
 49 50  2  0
 52 53  1  0
 52 51  2  0
 54 65  2  0
 55 53  1  0
 55 60  1  0
 56 64  1  0
 56 66  1  0
 57 63  1  0
 57 59  1  0
 58 64  1  0
 59 60  2  0
 59 58  1  0
 61 55  2  0
 62 61  1  0
 62 57  2  0
 63 56  1  0
 64 54  1  0
 66 68  2  0
 67 66  1  0
 69 67  1  0
 70 79  2  0
 70 75  1  0
 71 67  1  0
 71 75  1  0
 72 71  1  0
 73 74  1  0
 73 72  1  0
 74 70  1  0
 75 76  2  0
 76 77  1  0
 78 77  2  0
 79 78  1  0
 80 54  1  0
 80 81  1  0
 80 90  1  0
 81 84  1  0
 82 86  1  0
 82 81  1  0
 83 82  2  0
 86 85  1  0
 88 86  1  0
 88 89  1  0
 88 87  1  0
 90 93  1  1
 90 91  1  0
 92 90  1  0
M  ISO  4   8 100  11 100  52 101  53 101
M  END
>  <TORSDO>  (45) 
F 21

>  <SCORE>  (45) 
-12.233

>  <name>  (45) 
44

>  <ligand_id>  (45) 
44

>  <original_smiles>  (45) 
[H]N=C(C(=O)N1C([H])([H])C([H])([H])C([H])([H])C([H])(n2nc(-c3c([H])c([H])c(Oc4c([H])c([H])c(F)c([H])c4F)c([H])c3[H])c(C(=O)N([H])[H])c2N([H])[H])C1([H])[H])c1c(F)c([H])c(N=C([H])C([H])([H])C([H])([H])Oc2c([H])c([H])c3c(c2[H])C([H])([H])N(C(=O)C([H])(N([H])C(=O)C([H])(N([H])C([H])([H])[H])C([H])([H])[H])C(C([H])([H])[H])(C([H])([H])[H])C([H])([H])[H])C([H])(C(=O)N([H])C2([H])c4c([H])c([H])c([H])c([H])c4C([H])([H])C([H])([H])C2([H])[H])C3([H])[H])c([H])c1C([H])=C([H])[H]

>  <smiles>  (45) 
[H]N=C(C(=O)N1C([H])([H])C([H])([H])C([H])([H])C([H])(n2nc(-c3c([H])c([H])c(Oc4c([H])c([H])c(F)c([H])c4F)c([H])c3[H])c(C(=O)N([H])[H])c2N([H])[H])C1([H])[H])c1c(F)c([H])c(N=C([H])C([H])([H])C([H])([H])Oc2c([H])c([H])c3c(c2[H])C([H])([H])N(C(=O)C([H])(N([H])C(=O)C([H])(N([H])C([H])([H])[H])C([H])([H])[H])C(C([H])([H])[H])(C([H])([H])[H])C([H])([H])[H])C([H])(C(=O)N([H])C2([H])c4c([H])c([H])c([H])c([H])c4C([H])([H])C([H])([H])C2([H])[H])C3([H])[H])c([H])c1C([H])=C([H])[H]

$$$$
45:0:0
     RDKit          3D

 94102  0  0  1  0  0  0  0  0999 V2000
  -29.3290  -18.5860   21.1700 C   0  0  0  0  0  3  0  0  0  0  0  0
  -29.3850  -19.7880   20.3900 C   0  0  0  0  0  0  0  0  0  0  0  0
  -29.4270  -19.5190   19.0400 C   0  0  0  0  0  0  0  0  0  0  0  0
  -29.3140  -17.4300   20.4240 C   0  0  0  0  0  0  0  0  0  0  0  0
  -29.3930  -17.8010   18.7230 S   0  0  0  0  0  0  0  0  0  0  0  0
  -29.4930  -20.4160   17.9250 C   0  0  0  0  0  3  0  0  0  0  0  0
  -29.6580  -21.7490   17.9020 C   0  0  0  0  0  3  0  0  0  0  0  0
  -29.6840  -22.5790   16.6360 C   0  0  0  0  0  1  0  0  0  0  0  0
  -29.1290  -16.0110   20.8980 C   0  0  0  0  0  2  0  0  0  0  0  0
  -30.5380  -14.3440   19.7180 C   0  0  0  0  0  0  0  0  0  0  0  0
  -30.0040  -12.2830   18.4540 C   0  0  0  0  0  2  0  0  0  0  0  0
  -28.9260  -12.5420   17.3860 C   0  0  0  0  0  2  0  0  0  0  0  0
  -27.5180  -12.3840   17.9870 C   0  0  0  0  0  2  0  0  0  0  0  0
  -27.3510  -13.1770   19.3080 C   0  0  0  0  0  3  0  0  0  0  0  0
  -28.5280  -12.8930   20.2730 C   0  0  0  0  0  2  0  0  0  0  0  0
  -29.7830  -13.2150   19.5760 N   0  0  0  0  0  0  0  0  0  0  0  0
  -31.4980  -14.5760   18.9730 O   0  0  0  0  0  0  0  0  0  0  0  0
  -30.3140  -15.1290   20.8110 N   0  0  0  0  0  0  0  0  0  0  0  0
  -25.0530  -13.8000   20.2850 C   0  0  0  0  0  0  0  0  0  0  0  0
  -24.0320  -13.0330   20.7770 C   0  0  0  0  0  0  0  0  0  0  0  0
  -24.4810  -11.6790   20.6940 C   0  0  0  0  0  0  0  0  0  0  0  0
  -26.0600  -12.9130   19.9370 N   0  0  0  0  0  0  0  0  0  0  0  0
  -25.7260  -11.6330   20.2390 N   0  0  0  0  0  0  0  0  0  0  0  0
  -23.7780  -10.4200   20.9670 C   0  0  0  0  0  0  0  0  0  0  0  0
  -24.2730   -9.4870   21.9050 C   0  0  0  0  0  3  0  0  0  0  0  0
  -23.5700   -8.2900   22.1630 C   0  0  0  0  0  3  0  0  0  0  0  0
  -22.3590   -8.0180   21.4820 C   0  0  0  0  0  0  0  0  0  0  0  0
  -21.8840   -8.9390   20.5320 C   0  0  0  0  0  3  0  0  0  0  0  0
  -22.5870  -10.1280   20.2740 C   0  0  0  0  0  3  0  0  0  0  0  0
  -21.6210   -6.8710   21.6500 O   0  0  0  0  0  0  0  0  0  0  0  0
  -21.6050   -6.1940   22.8440 C   0  0  0  0  0  0  0  0  0  0  0  0
  -21.1940   -6.8110   24.0460 C   0  0  0  0  0  3  0  0  0  0  0  0
  -21.1250   -6.0590   25.2350 C   0  0  0  0  0  3  0  0  0  0  0  0
  -21.4570   -4.6920   25.2240 C   0  0  0  0  0  0  0  0  0  0  0  0
  -21.8630   -4.0740   24.0270 C   0  0  0  0  0  3  0  0  0  0  0  0
  -21.9320   -4.8230   22.8400 C   0  0  0  0  0  0  0  0  0  0  0  0
  -22.3010   -4.2190   21.6850 F   0  0  0  0  0  0  0  0  0  0  0  0
  -21.3830   -3.9670   26.3660 F   0  0  0  0  0  0  0  0  0  0  0  0
  -22.6760  -13.5150   21.2070 C   0  0  0  0  0  0  0  0  0  0  0  0
  -22.0540  -12.8260   22.1590 N   0  0  0  0  0  0  0  0  0  0  0  0
  -22.1810  -14.5370   20.7330 O   0  0  0  0  0  0  0  0  0  0  0  0
  -22.4700  -12.0000   22.5610 H   0  0  0  0  0  0  0  0  0  0  0  0
  -21.1500  -13.1310   22.4890 H   0  0  0  0  0  0  0  0  0  0  0  0
  -25.2000  -15.1700   20.0860 N   0  0  0  0  0  0  0  0  0  0  0  0
  -24.4480  -15.8230   20.2750 H   0  0  0  0  0  0  0  0  0  0  0  0
  -25.9970  -15.6050   19.6400 H   0  0  0  0  0  0  0  0  0  0  0  0
  -32.4880  -14.7720   21.9220 C   0  0  0  0  0  2  0  0  0  0  0  0
  -31.3670  -15.4800   21.6810 C   0  0  0  0  0  3  0  0  0  0  0  0
  -29.3980  -21.0420   20.9090 O   0  0  0  0  0  0  0  0  0  0  0  0
  -28.1090  -21.6300   21.0720 C   0  0  0  0  0  2  0  0  0  0  0  0
  -28.2020  -23.0590   21.6490 C   0  0  0  0  0  2  0  0  0  0  0  0
  -28.5190  -24.1800   20.6320 C   0  0  0  0  0  2  0  0  0  0  0  0
  -28.4660  -25.5820   21.2820 C   0  0  0  0  0  2  0  0  0  0  0  0
  -28.4950  -26.6500   20.3250 O   0  0  0  0  0  0  0  0  0  0  0  0
  -24.5560  -31.8160   23.2190 C   0  0  0  0  0  0  0  0  0  0  0  0
  -27.3310  -27.3770   20.2770 C   0  0  0  0  0  0  0  0  0  0  0  0
  -23.4050  -30.3700   21.5750 C   0  0  0  0  0  3  0  0  0  0  0  0
  -24.9110  -28.8270   20.2090 C   0  0  0  0  0  0  0  0  0  0  0  0
  -25.9260  -30.7670   21.4200 C   0  0  0  0  0  2  0  0  0  0  0  0
  -26.0480  -29.3880   20.8080 C   0  0  0  0  0  0  0  0  0  0  0  0
  -27.2630  -28.6700   20.8380 C   0  0  0  0  0  3  0  0  0  0  0  0
  -26.1820  -26.8210   19.6770 C   0  0  0  0  0  3  0  0  0  0  0  0
  -24.9720  -27.5420   19.6400 C   0  0  0  0  0  3  0  0  0  0  0  0
  -23.6530  -29.6660   20.2140 C   0  0  0  0  0  2  0  0  0  0  0  0
  -24.6460  -31.0000   22.1310 N   0  0  0  0  0  0  0  0  0  0  0  0
  -23.4590  -32.0800   23.7320 O   0  0  0  0  0  0  0  0  0  0  0  0
  -22.7470  -29.3570   22.5400 C   0  0  0  0  0  0  0  0  0  0  0  0
  -21.4290  -29.1530   22.3830 N   0  0  0  0  0  0  0  0  0  0  0  0
  -23.4190  -28.7570   23.3820 O   0  0  0  0  0  0  0  0  0  0  0  0
  -20.9480  -29.6880   21.6740 H   0  0  0  0  0  0  0  0  0  0  0  0
  -18.0610  -27.9220   22.8210 C   0  0  0  0  0  0  0  0  0  0  0  0
  -20.6080  -28.2160   23.1500 C   0  0  0  0  0  3  0  0  0  0  0  0
  -20.7410  -26.7780   22.5980 C   0  0  0  0  0  2  0  0  0  0  0  0
  -19.6670  -26.4260   21.5640 C   0  0  0  0  0  2  0  0  0  0  0  0
  -18.2690  -26.5640   22.1730 C   0  0  0  0  0  2  0  0  0  0  0  0
  -19.1590  -28.7050   23.2650 C   0  0  0  0  0  0  0  0  0  0  0  0
  -18.9110  -29.9760   23.8280 C   0  0  0  0  0  3  0  0  0  0  0  0
  -17.5970  -30.4630   23.9560 C   0  0  0  0  0  3  0  0  0  0  0  0
  -16.5130  -29.6780   23.5300 C   0  0  0  0  0  3  0  0  0  0  0  0
  -16.7450  -28.4090   22.9680 C   0  0  0  0  0  3  0  0  0  0  0  0
  -25.8200  -32.4730   23.8570 C   0  0  0  0  0  3  0  0  0  0  0  0
  -25.4750  -33.8620   24.1860 N   0  0  0  0  0  0  0  0  0  0  0  0
  -25.7980  -34.9250   23.4370 C   0  0  0  0  0  0  0  0  0  0  0  0
  -26.4880  -34.8410   22.4170 O   0  0  0  0  0  0  0  0  0  0  0  0
  -24.8590  -33.9990   24.9750 H   0  0  0  0  0  0  0  0  0  0  0  0
  -24.0360  -36.6790   23.0610 C   0  0  0  0  0  1  0  0  0  0  0  0
  -25.2720  -36.2990   23.8920 C   0  0  0  0  0  3  0  0  0  0  0  0
  -27.3720  -37.2270   24.7610 C   0  0  0  0  0  1  0  0  0  0  0  0
  -26.2820  -37.3750   23.8020 N   0  0  0  0  0  0  0  0  0  0  0  0
  -25.8530  -38.2850   23.9480 H   0  0  0  0  0  0  0  0  0  0  0  0
  -26.3420  -31.7070   25.1340 C   0  0  1  0  0  0  0  0  0  0  0  0
  -25.2400  -31.4190   26.1800 C   0  0  0  0  0  1  0  0  0  0  0  0
  -26.9820  -30.3580   24.7350 C   0  0  0  0  0  1  0  0  0  0  0  0
  -27.4520  -32.5360   25.8230 C   0  0  0  0  0  1  0  0  0  0  0  0
  2 49  1  0
  2  1  1  0
  3  2  2  0
  4  9  1  0
  4  1  2  0
  5  3  1  0
  5  4  1  0
  6  3  1  0
  7  6  2  0
  8  7  1  0
 10 18  1  0
 11 16  1  0
 12 13  1  0
 12 11  1  0
 14 13  1  0
 14 22  1  0
 14 15  1  0
 16 10  1  0
 16 15  1  0
 17 10  2  0
 18  9  1  0
 18 48  1  0
 19 20  2  0
 20 39  1  0
 21 20  1  0
 21 24  1  0
 22 23  1  0
 22 19  1  0
 23 21  2  0
 24 25  1  0
 25 26  2  0
 27 30  1  0
 27 26  1  0
 28 27  2  0
 29 28  1  0
 29 24  2  0
 30 31  1  0
 31 32  1  0
 32 33  2  0
 34 33  1  0
 34 38  1  0
 35 34  2  0
 36 31  2  0
 36 35  1  0
 37 36  1  0
 39 40  1  0
 40 43  1  0
 40 42  1  0
 41 39  2  0
 44 45  1  0
 44 19  1  0
 46 44  1  0
 48 47  2  0
 49 50  1  0
 50 51  1  0
 52 53  1  0
 52 51  1  0
 54 53  1  0
 55 66  2  0
 56 54  1  0
 56 61  1  0
 57 65  1  0
 57 67  1  0
 58 64  1  0
 58 60  1  0
 59 65  1  0
 60 61  2  0
 60 59  1  0
 62 56  2  0
 63 62  1  0
 63 58  2  0
 64 57  1  0
 65 55  1  0
 67 69  2  0
 68 67  1  0
 70 68  1  0
 71 80  2  0
 71 76  1  0
 72 68  1  0
 72 76  1  0
 73 72  1  0
 74 75  1  0
 74 73  1  0
 75 71  1  0
 76 77  2  0
 77 78  1  0
 79 78  2  0
 80 79  1  0
 81 55  1  0
 81 82  1  0
 81 91  1  0
 82 85  1  0
 83 87  1  0
 83 82  1  0
 84 83  2  0
 87 86  1  0
 89 87  1  0
 89 90  1  0
 89 88  1  0
 91 94  1  1
 91 92  1  0
 93 91  1  0
M  ISO  4  10 100  18 100  53 101  54 101
M  END
>  <TORSDO>  (46) 
F 24

>  <SCORE>  (46) 
-10.269

>  <name>  (46) 
45

>  <ligand_id>  (46) 
45

>  <original_smiles>  (46) 
[H]C([H])=C([H])N(C(=O)N1C([H])([H])C([H])([H])C([H])([H])C([H])(n2nc(-c3c([H])c([H])c(Oc4c([H])c([H])c(F)c([H])c4F)c([H])c3[H])c(C(=O)N([H])[H])c2N([H])[H])C1([H])[H])C([H])([H])c1sc(C([H])=C([H])C([H])([H])[H])c(OC([H])([H])C([H])([H])C([H])([H])C([H])([H])Oc2c([H])c([H])c3c(c2[H])C([H])([H])N(C(=O)C([H])(N([H])C(=O)C([H])(N([H])C([H])([H])[H])C([H])([H])[H])C(C([H])([H])[H])(C([H])([H])[H])C([H])([H])[H])C([H])(C(=O)N([H])C2([H])c4c([H])c([H])c([H])c([H])c4C([H])([H])C([H])([H])C2([H])[H])C3([H])[H])c1[H]

>  <smiles>  (46) 
[H]C([H])=C([H])N(C(=O)N1C([H])([H])C([H])([H])C([H])([H])C([H])(n2nc(-c3c([H])c([H])c(Oc4c([H])c([H])c(F)c([H])c4F)c([H])c3[H])c(C(=O)N([H])[H])c2N([H])[H])C1([H])[H])C([H])([H])c1sc(C([H])=C([H])C([H])([H])[H])c(OC([H])([H])C([H])([H])C([H])([H])C([H])([H])Oc2c([H])c([H])c3c(c2[H])C([H])([H])N(C(=O)C([H])(N([H])C(=O)C([H])(N([H])C([H])([H])[H])C([H])([H])[H])C(C([H])([H])[H])(C([H])([H])[H])C([H])([H])[H])C([H])(C(=O)N([H])C2([H])c4c([H])c([H])c([H])c([H])c4C([H])([H])C([H])([H])C2([H])[H])C3([H])[H])c1[H]

$$$$
46:0:0
     RDKit          3D

 94 95  0  0  1  0  0  0  0  0999 V2000
  -22.6000  -25.0220   18.9210 C   0  0  0  0  0  2  0  0  0  0  0  0
  -23.8210  -24.1920   18.4690 C   0  0  0  0  0  3  0  0  0  0  0  0
  -22.5530  -23.0350   20.1320 C   0  0  0  0  0 15  0  0  0  0  0  0
  -21.4660  -24.8540   19.8840 C   0  0  0  0  0  1  0  0  0  0  0  0
  -24.1660  -21.7070   19.6950 C   0  0  0  0  0  1  0  0  0  0  0  0
  -24.4750  -22.8270   18.7600 C   0  0  0  0  0  0  0  0  0  0  0  0
  -19.5510  -26.8690   20.2830 C   0  0  0  0  0 15  0  0  0  0  0  0
  -17.3160  -27.7660   21.5130 C   0  0  0  0  0  1  0  0  0  0  0  0
  -16.2480  -28.9290   21.5750 C   0  0  0  0  0  1  0  0  0  0  0  0
  -25.7590  -19.4070   19.7220 C   0  0  0  0  0  2  0  0  0  0  0  0
  -24.8730  -18.6350   20.1930 N   0  0  0  0  0  0  0  0  0  0  0  0
  -24.0120  -19.1330   20.3790 H   0  0  0  0  0  0  0  0  0  0  0  0
  -27.9510  -17.3710   19.5160 C   0  0  0  0  0  2  0  0  0  0  0  0
  -29.8190  -14.7460   18.9320 C   0  0  0  0  0  2  0  0  0  0  0  0
  -29.6930  -13.3050   18.1230 C   0  0  0  0  0  2  0  0  0  0  0  0
  -28.6660  -12.3550   18.7230 C   0  0  0  0  0  2  0  0  0  0  0  0
  -27.7470  -13.3260   19.4400 C   0  0  0  0  0  3  0  0  0  0  0  0
  -28.3310  -14.4110   20.4040 C   0  0  0  0  0  2  0  0  0  0  0  0
  -28.5260  -15.7000   19.5780 N   0  0  0  0  0  0  0  0  0  0  0  0
  -29.2740  -17.4320   19.2740 O   0  0  0  0  0  1  0  0  0  0  0  0
  -25.5560  -13.7060   20.3590 C   0  0  0  0  0  0  0  0  0  0  0  0
  -24.5900  -12.8970   20.8280 C   0  0  0  0  0  0  0  0  0  0  0  0
  -25.0860  -11.5590   20.6980 C   0  0  0  0  0  0  0  0  0  0  0  0
  -26.5650  -12.8500   19.9990 N   0  0  0  0  0  0  0  0  0  0  0  0
  -26.3350  -11.5490   20.2480 N   0  0  0  0  0  0  0  0  0  0  0  0
  -24.4000  -10.2950   20.9030 C   0  0  0  0  0  0  0  0  0  0  0  0
  -24.8010   -9.3870   21.9040 C   0  0  0  0  0  3  0  0  0  0  0  0
  -24.0840   -8.1880   22.0930 C   0  0  0  0  0  3  0  0  0  0  0  0
  -22.9630   -7.8980   21.2790 C   0  0  0  0  0  0  0  0  0  0  0  0
  -22.5920   -8.7960   20.2640 C   0  0  0  0  0  3  0  0  0  0  0  0
  -23.3070   -9.9850   20.0720 C   0  0  0  0  0  3  0  0  0  0  0  0
  -22.2180   -6.7510   21.3780 O   0  0  0  0  0  0  0  0  0  0  0  0
  -21.9540   -6.1730   22.5910 C   0  0  0  0  0  0  0  0  0  0  0  0
  -21.2750   -6.8670   23.6170 C   0  0  0  0  0  3  0  0  0  0  0  0
  -20.9650   -6.2090   24.8230 C   0  0  0  0  0  3  0  0  0  0  0  0
  -21.3210   -4.8590   25.0020 C   0  0  0  0  0  0  0  0  0  0  0  0
  -21.9930   -4.1660   23.9790 C   0  0  0  0  0  3  0  0  0  0  0  0
  -22.3070   -4.8220   22.7760 C   0  0  0  0  0  0  0  0  0  0  0  0
  -22.9370   -4.1460   21.7850 F   0  0  0  0  0  0  0  0  0  0  0  0
  -21.0150   -4.2230   26.1560 F   0  0  0  0  0  0  0  0  0  0  0  0
  -23.2440  -13.3690   21.2480 C   0  0  0  0  0  0  0  0  0  0  0  0
  -22.6240  -12.6640   22.1810 N   0  0  0  0  0  0  0  0  0  0  0  0
  -22.7710  -14.4110   20.7940 O   0  0  0  0  0  0  0  0  0  0  0  0
  -23.0430  -11.8280   22.5610 H   0  0  0  0  0  0  0  0  0  0  0  0
  -21.7190  -12.9590   22.5180 H   0  0  0  0  0  0  0  0  0  0  0  0
  -25.6530  -15.0870   20.1830 N   0  0  0  0  0  0  0  0  0  0  0  0
  -24.8790  -15.7180   20.3650 H   0  0  0  0  0  0  0  0  0  0  0  0
  -26.4120  -15.5080   19.6670 H   0  0  0  0  0  0  0  0  0  0  0  0
  -25.5480  -22.4710   17.9730 O   0  0  0  0  0  0  0  0  0  0  0  0
  -26.8460  -22.9880   18.2730 C   0  0  0  0  0  2  0  0  0  0  0  0
  -28.3760  -23.3580   20.2720 C   0  0  0  0  0  3  0  0  0  0  0  0
  -27.1640  -23.0790   19.7570 C   0  0  0  0  0  3  0  0  0  0  0  0
  -28.6150  -23.5900   21.7530 C   0  0  0  0  0  2  0  0  0  0  0  0
  -29.5270  -24.6610   22.0320 O   0  0  0  0  0  0  0  0  0  0  0  0
  -28.7370  -30.9390   25.3440 C   0  0  0  0  0  0  0  0  0  0  0  0
  -29.0580  -25.9560   21.9620 C   0  0  0  0  0  0  0  0  0  0  0  0
  -27.4890  -30.5750   23.2430 C   0  0  0  0  0  3  0  0  0  0  0  0
  -28.1920  -28.6420   21.8010 C   0  0  0  0  0  0  0  0  0  0  0  0
  -29.6930  -29.3500   23.6740 C   0  0  0  0  0  2  0  0  0  0  0  0
  -29.1540  -28.2750   22.7500 C   0  0  0  0  0  0  0  0  0  0  0  0
  -29.5920  -26.9330   22.8320 C   0  0  0  0  0  3  0  0  0  0  0  0
  -28.1050  -26.3630   20.9970 C   0  0  0  0  0  3  0  0  0  0  0  0
  -27.6610  -27.6900   20.9250 C   0  0  0  0  0  3  0  0  0  0  0  0
  -27.7380  -30.0790   21.7980 C   0  0  0  0  0  2  0  0  0  0  0  0
  -28.6740  -30.3310   24.1250 N   0  0  0  0  0  0  0  0  0  0  0  0
  -27.9160  -31.8110   25.6630 O   0  0  0  0  0  0  0  0  0  0  0  0
  -26.2660  -29.8390   23.8470 C   0  0  0  0  0  0  0  0  0  0  0  0
  -25.2310  -29.4820   23.1270 N   0  0  0  0  0  0  0  0  0  0  0  0
  -26.2150  -29.5300   25.0250 O   0  0  0  0  0  0  0  0  0  0  0  0
  -25.2590  -29.6580   22.1330 H   0  0  0  0  0  0  0  0  0  0  0  0
  -21.4720  -28.2430   21.9580 C   0  0  0  0  0  2  0  0  0  0  0  0
  -23.8420  -29.2930   23.7100 C   0  0  0  0  0  3  0  0  0  0  0  0
  -23.5620  -27.8710   23.9710 C   0  0  0  0  0  2  0  0  0  0  0  0
  -22.3540  -26.9750   23.4060 C   0  0  0  0  0  2  0  0  0  0  0  0
  -21.5280  -26.9050   22.1690 C   0  0  0  0  0  2  0  0  0  0  0  0
  -22.7410  -29.5910   22.8470 C   0  0  0  0  0  2  0  0  0  0  0  0
  -23.7450  -30.6870   21.7640 C   0  0  0  0  0  3  0  0  0  0  0  0
  -23.7480  -30.4840   20.0370 C   0  0  0  0  0  3  0  0  0  0  0  0
  -22.6960  -29.3040   19.1760 C   0  0  0  0  0  3  0  0  0  0  0  0
  -21.5360  -28.1850   20.0460 C   0  0  0  0  0  3  0  0  0  0  0  0
  -29.8330  -30.5640   26.3860 C   0  0  0  0  0  3  0  0  0  0  0  0
  -30.3880  -31.8210   26.8990 N   0  0  0  0  0  0  0  0  0  0  0  0
  -31.5350  -32.3650   26.4780 C   0  0  0  0  0  0  0  0  0  0  0  0
  -32.2780  -31.8120   25.6630 O   0  0  0  0  0  0  0  0  0  0  0  0
  -29.8040  -32.3520   27.5290 H   0  0  0  0  0  0  0  0  0  0  0  0
  -31.5670  -34.8400   26.0350 C   0  0  0  0  0  1  0  0  0  0  0  0
  -31.9180  -33.7410   27.0500 C   0  0  0  0  0  3  0  0  0  0  0  0
  -33.7010  -33.0170   28.5750 C   0  0  0  0  0  1  0  0  0  0  0  0
  -33.3450  -33.8460   27.4270 N   0  0  0  0  0  0  0  0  0  0  0  0
  -33.5910  -34.8070   27.6420 H   0  0  0  0  0  0  0  0  0  0  0  0
  -29.2950  -29.6680   27.5720 C   0  0  1  0  0  0  0  0  0  0  0  0
  -28.0300  -30.2340   28.2590 C   0  0  0  0  0  1  0  0  0  0  0  0
  -28.9680  -28.2390   27.0780 C   0  0  0  0  0  1  0  0  0  0  0  0
  -30.3930  -29.5120   28.6520 C   0  0  0  0  0  1  0  0  0  0  0  0
  1  4  1  0
  2  6  2  0
  2  1  1  0
  6  5  1  0
  8  9  1  0
 10 11  2  0
 11 12  1  0
 13 19  1  0
 14 19  1  0
 15 16  1  0
 15 14  1  0
 17 16  1  0
 17 24  1  0
 17 18  1  0
 19 18  1  0
 20 13  1  0
 21 22  2  0
 22 41  1  0
 23 22  1  0
 23 26  1  0
 24 25  1  0
 24 21  1  0
 25 23  2  0
 26 27  1  0
 27 28  2  0
 29 32  1  0
 29 28  1  0
 30 29  2  0
 31 30  1  0
 31 26  2  0
 32 33  1  0
 33 38  2  0
 33 34  1  0
 34 35  2  0
 35 36  1  0
 36 40  1  0
 37 36  2  0
 38 37  1  0
 39 38  1  0
 41 42  1  0
 42 45  1  0
 42 44  1  0
 43 41  2  0
 46 21  1  0
 46 47  1  0
 48 46  1  0
 49 50  1  0
 49  6  1  0
 50 52  1  0
 51 53  1  0
 52 51  2  0
 53 54  1  0
 55 66  2  0
 56 54  1  0
 56 61  1  0
 57 67  1  0
 57 65  1  0
 58 60  1  0
 59 65  1  0
 60 61  2  0
 60 59  1  0
 62 56  2  0
 63 62  1  0
 63 58  2  0
 64 58  1  0
 64 57  1  0
 65 55  1  0
 67 69  2  0
 68 67  1  0
 70 68  1  0
 71 75  1  0
 72 68  1  0
 72 73  1  0
 74 73  1  0
 75 74  1  0
 76 72  1  0
 77 76  1  0
 78 77  2  0
 79 78  1  0
 79 80  2  0
 80 71  1  0
 81 55  1  0
 81 82  1  0
 81 91  1  0
 82 85  1  0
 83 82  1  0
 83 87  1  0
 84 83  2  0
 87 86  1  0
 87 89  1  0
 89 90  1  0
 89 88  1  0
 91 92  1  1
 91 94  1  0
 93 91  1  0
M  ISO  4  10 100  13 100  53 101  54 101
M  END
>  <TORSDO>  (47) 
F 22

>  <SCORE>  (47) 
-4.834

>  <name>  (47) 
46

>  <ligand_id>  (47) 
46

>  <original_smiles>  (47) 
[H]N=C(C(=O)N1C([H])([H])C([H])([H])C([H])([H])C([H])(n2nc(-c3c([H])c([H])c(Oc4c([H])c([H])c(F)c([H])c4F)c([H])c3[H])c(C(=O)N([H])[H])c2N([H])[H])C1([H])[H])c1c([H])c(C([H])=C([H])C([H])([H])[H])c([H])c([H])c1OC([H])([H])C([H])=C([H])C([H])([H])Oc1c([H])c([H])c2c(c1[H])C([H])([H])N(C(=O)C([H])(N([H])C(=O)C([H])(N([H])C([H])([H])[H])C([H])([H])[H])C(C([H])([H])[H])(C([H])([H])[H])C([H])([H])[H])C([H])(C(=O)N([H])C1([H])c3c([H])c([H])c([H])c([H])c3C([H])([H])C([H])([H])C1([H])[H])C2([H])[H]

>  <smiles>  (47) 
[H]N=C(C(=O)N1C([H])([H])C([H])([H])C([H])([H])C([H])(n2nc(-c3c([H])c([H])c(Oc4c([H])c([H])c(F)c([H])c4F)c([H])c3[H])c(C(=O)N([H])[H])c2N([H])[H])C1([H])[H])c1c([H])c(C([H])=C([H])C([H])([H])[H])c([H])c([H])c1OC([H])([H])C([H])=C([H])C([H])([H])Oc1c([H])c([H])c2c(c1[H])C([H])([H])N(C(=O)C([H])(N([H])C(=O)C([H])(N([H])C([H])([H])[H])C([H])([H])[H])C(C([H])([H])[H])(C([H])([H])[H])C([H])([H])[H])C([H])(C(=O)N([H])C1([H])c3c([H])c([H])c([H])c([H])c3C([H])([H])C([H])([H])C1([H])[H])C2([H])[H]

$$$$
47:0:0
     RDKit          3D

 96105  0  0  1  0  0  0  0  0999 V2000
  -31.2530  -18.7060   20.5110 C   0  0  0  0  0  3  0  0  0  0  0  0
  -31.1040  -20.1330   20.4430 C   0  0  0  0  0  0  0  0  0  0  0  0
  -30.2940  -17.8380   19.9290 C   0  0  0  0  0  0  0  0  0  0  0  0
  -29.2500  -18.5330   19.2440 C   0  0  0  0  0  0  0  0  0  0  0  0
  -29.9850  -20.7250   19.7810 C   0  0  0  0  0  0  0  0  0  0  0  0
  -28.8850  -24.3940   19.4100 C   0  0  0  0  0  0  0  0  0  0  0  0
  -28.7030  -23.0340   19.9980 C   0  0  0  0  0  0  0  0  0  0  0  0
  -28.0690  -25.5090   19.5510 C   0  0  0  0  0  2  0  0  0  0  0  0
  -27.6620  -22.7510   20.8180 C   0  0  0  0  0  2  0  0  0  0  0  0
  -30.1770  -24.3540   18.6330 C   0  0  0  0  0  3  0  0  0  0  0  0
  -30.6970  -22.8870   18.7790 C   0  0  0  0  0  3  0  0  0  0  0  0
  -32.1400  -20.9990   21.1390 C   0  0  0  0  0  1  0  0  0  0  0  0
  -28.1590  -17.7880   18.5060 C   0  0  0  0  0  1  0  0  0  0  0  0
  -29.1090  -19.8920   19.1730 N   0  0  0  0  0  0  0  0  0  0  0  0
  -29.7740  -22.1580   19.6570 N   0  0  0  0  0  0  0  0  0  0  0  0
  -31.1630  -15.3380   19.9160 C   0  0  0  0  0  0  0  0  0  0  0  0
  -31.0680  -13.0130   19.0050 C   0  0  0  0  0  2  0  0  0  0  0  0
  -30.0460  -12.9850   17.8450 C   0  0  0  0  0  2  0  0  0  0  0  0
  -28.6160  -12.7480   18.3730 C   0  0  0  0  0  2  0  0  0  0  0  0
  -28.2650  -13.6590   19.5780 C   0  0  0  0  0  3  0  0  0  0  0  0
  -29.3980  -13.6620   20.6300 C   0  0  0  0  0  2  0  0  0  0  0  0
  -30.6370  -14.0660   19.9480 N   0  0  0  0  0  0  0  0  0  0  0  0
  -32.3150  -15.5390   19.5210 O   0  0  0  0  0  0  0  0  0  0  0  0
  -30.2590  -16.3640   20.1090 N   0  0  0  0  0  0  0  0  0  0  0  0
  -29.3410  -16.0000   20.3080 H   0  0  0  0  0  0  0  0  0  0  0  0
  -25.9490  -14.1740   20.5620 C   0  0  0  0  0  0  0  0  0  0  0  0
  -24.9200  -13.3670   20.9600 C   0  0  0  0  0  0  0  0  0  0  0  0
  -25.3770  -12.0280   20.7720 C   0  0  0  0  0  0  0  0  0  0  0  0
  -26.9690  -13.3260   20.1590 N   0  0  0  0  0  0  0  0  0  0  0  0
  -26.6350  -12.0240   20.3460 N   0  0  0  0  0  0  0  0  0  0  0  0
  -24.6680  -10.7520   20.9150 C   0  0  0  0  0  0  0  0  0  0  0  0
  -25.0750   -9.7830   21.8570 C   0  0  0  0  0  3  0  0  0  0  0  0
  -24.3640   -8.5720   21.9910 C   0  0  0  0  0  3  0  0  0  0  0  0
  -23.2320   -8.3220   21.1800 C   0  0  0  0  0  0  0  0  0  0  0  0
  -22.8440   -9.2810   20.2270 C   0  0  0  0  0  3  0  0  0  0  0  0
  -23.5570  -10.4830   20.0920 C   0  0  0  0  0  3  0  0  0  0  0  0
  -22.4960   -7.1620   21.2220 O   0  0  0  0  0  0  0  0  0  0  0  0
  -22.2040   -6.5380   22.4080 C   0  0  0  0  0  0  0  0  0  0  0  0
  -21.4580   -7.1760   23.4220 C   0  0  0  0  0  3  0  0  0  0  0  0
  -21.1210   -6.4730   24.5950 C   0  0  0  0  0  3  0  0  0  0  0  0
  -21.5210   -5.1340   24.7550 C   0  0  0  0  0  0  0  0  0  0  0  0
  -22.2620   -4.4950   23.7450 C   0  0  0  0  0  3  0  0  0  0  0  0
  -22.6000   -5.1950   22.5730 C   0  0  0  0  0  0  0  0  0  0  0  0
  -23.2940   -4.5680   21.5930 F   0  0  0  0  0  0  0  0  0  0  0  0
  -21.1920   -4.4560   25.8790 F   0  0  0  0  0  0  0  0  0  0  0  0
  -23.5540  -13.8150   21.3940 C   0  0  0  0  0  0  0  0  0  0  0  0
  -22.9110  -13.0570   22.2740 N   0  0  0  0  0  0  0  0  0  0  0  0
  -23.0680  -14.8700   20.9870 O   0  0  0  0  0  0  0  0  0  0  0  0
  -23.3180  -12.2020   22.6230 H   0  0  0  0  0  0  0  0  0  0  0  0
  -21.9980  -13.3360   22.6050 H   0  0  0  0  0  0  0  0  0  0  0  0
  -26.0870  -15.5530   20.4870 N   0  0  0  0  0  0  0  0  0  0  0  0
  -25.3120  -16.1720   20.6980 H   0  0  0  0  0  0  0  0  0  0  0  0
  -26.8580  -16.0210   20.0370 H   0  0  0  0  0  0  0  0  0  0  0  0
  -26.2850  -21.2900   22.2220 C   0  0  0  0  0  2  0  0  0  0  0  0
  -27.4220  -21.5190   21.5460 C   0  0  0  0  0  3  0  0  0  0  0  0
  -28.2370  -26.8300   19.0580 O   0  0  0  0  0  0  0  0  0  0  0  0
  -25.0340  -31.5970   23.4980 C   0  0  0  0  0  0  0  0  0  0  0  0
  -27.2150  -27.7680   19.3020 C   0  0  0  0  0  0  0  0  0  0  0  0
  -23.6940  -30.7590   21.6000 C   0  0  0  0  0  3  0  0  0  0  0  0
  -24.9920  -29.5140   19.7790 C   0  0  0  0  0  0  0  0  0  0  0  0
  -26.2490  -30.9160   21.4130 C   0  0  0  0  0  2  0  0  0  0  0  0
  -26.2060  -29.7420   20.4390 C   0  0  0  0  0  0  0  0  0  0  0  0
  -27.3230  -28.8820   20.1950 C   0  0  0  0  0  3  0  0  0  0  0  0
  -25.9830  -27.6030   18.6310 C   0  0  0  0  0  3  0  0  0  0  0  0
  -24.8830  -28.4500   18.8670 C   0  0  0  0  0  3  0  0  0  0  0  0
  -23.8330  -30.4420   20.0880 C   0  0  0  0  0  2  0  0  0  0  0  0
  -25.0130  -31.0920   22.2290 N   0  0  0  0  0  0  0  0  0  0  0  0
  -23.9850  -31.8110   24.1240 O   0  0  0  0  0  0  0  0  0  0  0  0
  -22.9620  -29.5860   22.2970 C   0  0  0  0  0  0  0  0  0  0  0  0
  -21.6330  -29.5060   22.1130 N   0  0  0  0  0  0  0  0  0  0  0  0
  -23.5910  -28.7610   22.9650 O   0  0  0  0  0  0  0  0  0  0  0  0
  -21.1880  -30.2240   21.5590 H   0  0  0  0  0  0  0  0  0  0  0  0
  -18.1750  -28.5050   22.4720 C   0  0  0  0  0  0  0  0  0  0  0  0
  -20.7550  -28.4600   22.6410 C   0  0  0  0  0  3  0  0  0  0  0  0
  -20.6940  -27.2480   21.6820 C   0  0  0  0  0  2  0  0  0  0  0  0
  -19.5290  -27.3220   20.6900 C   0  0  0  0  0  2  0  0  0  0  0  0
  -18.1930  -27.3940   21.4340 C   0  0  0  0  0  2  0  0  0  0  0  0
  -19.3790  -29.0160   23.0260 C   0  0  0  0  0  0  0  0  0  0  0  0
  -19.3070  -30.0690   23.9630 C   0  0  0  0  0  3  0  0  0  0  0  0
  -18.0650  -30.6090   24.3450 C   0  0  0  0  0  3  0  0  0  0  0  0
  -16.8760  -30.0900   23.8030 C   0  0  0  0  0  3  0  0  0  0  0  0
  -16.9330  -29.0380   22.8730 C   0  0  0  0  0  3  0  0  0  0  0  0
  -26.3740  -31.9510   24.2140 C   0  0  0  0  0  3  0  0  0  0  0  0
  -26.2810  -33.3450   24.6680 N   0  0  0  0  0  0  0  0  0  0  0  0
  -26.7880  -34.3970   24.0100 C   0  0  0  0  0  0  0  0  0  0  0  0
  -27.4510  -34.2810   22.9760 O   0  0  0  0  0  0  0  0  0  0  0  0
  -25.7030  -33.5180   25.4780 H   0  0  0  0  0  0  0  0  0  0  0  0
  -25.3890  -36.4770   23.7980 C   0  0  0  0  0  1  0  0  0  0  0  0
  -26.5180  -35.7980   24.5910 C   0  0  0  0  0  3  0  0  0  0  0  0
  -28.7260  -36.2490   25.5660 C   0  0  0  0  0  1  0  0  0  0  0  0
  -27.7110  -36.6720   24.6040 N   0  0  0  0  0  0  0  0  0  0  0  0
  -27.4520  -37.6310   24.8190 H   0  0  0  0  0  0  0  0  0  0  0  0
  -26.7020  -30.9940   25.4250 C   0  0  1  0  0  0  0  0  0  0  0  0
  -25.5500  -30.8690   26.4480 C   0  0  0  0  0  1  0  0  0  0  0  0
  -27.0420  -29.5700   24.9230 C   0  0  0  0  0  1  0  0  0  0  0  0
  -27.9530  -31.5070   26.1740 C   0  0  0  0  0  1  0  0  0  0  0  0
  2  1  1  0
  2 12  1  0
  3 24  1  0
  3  1  2  0
  4  3  1  0
  5  2  2  0
  6  8  1  0
  6  7  2  0
  7  9  1  0
  9 55  1  0
 10 11  2  0
 10  6  1  0
 11 15  1  0
 13  4  1  0
 14  4  2  0
 14  5  1  0
 15  5  1  0
 15  7  1  0
 16 22  1  0
 16 24  1  0
 17 22  1  0
 18 19  1  0
 18 17  1  0
 20 19  1  0
 20 29  1  0
 20 21  1  0
 22 21  1  0
 23 16  2  0
 24 25  1  0
 26 27  2  0
 27 46  1  0
 28 31  1  0
 28 27  1  0
 29 30  1  0
 29 26  1  0
 30 28  2  0
 31 32  1  0
 32 33  2  0
 34 37  1  0
 34 33  1  0
 35 34  2  0
 36 35  1  0
 36 31  2  0
 37 38  1  0
 38 43  2  0
 38 39  1  0
 39 40  2  0
 40 41  1  0
 41 45  1  0
 42 41  2  0
 43 42  1  0
 44 43  1  0
 46 47  1  0
 47 50  1  0
 47 49  1  0
 48 46  2  0
 51 26  1  0
 51 52  1  0
 53 51  1  0
 55 54  2  0
 56 58  1  0
 56  8  1  0
 57 68  2  0
 58 63  1  0
 59 67  1  0
 59 69  1  0
 60 66  1  0
 60 62  1  0
 61 67  1  0
 62 61  1  0
 63 62  2  0
 64 65  1  0
 64 58  2  0
 65 60  2  0
 66 59  1  0
 67 57  1  0
 69 71  2  0
 70 69  1  0
 72 70  1  0
 73 82  2  0
 73 78  1  0
 74 70  1  0
 74 78  1  0
 75 74  1  0
 76 77  1  0
 76 75  1  0
 77 73  1  0
 78 79  2  0
 79 80  1  0
 81 80  2  0
 82 81  1  0
 83 57  1  0
 83 84  1  0
 83 93  1  0
 84 87  1  0
 85 89  1  0
 85 84  1  0
 86 85  2  0
 89 88  1  0
 89 91  1  0
 91 92  1  0
 91 90  1  0
 93 96  1  1
 93 94  1  0
 95 93  1  0
M  ISO  4   8 101  16 100  24 100  56 101
M  END
>  <TORSDO>  (48) 
F 17

>  <SCORE>  (48) 
-6.640

>  <name>  (48) 
47

>  <ligand_id>  (48) 
47

>  <original_smiles>  (48) 
[H]C([H])=C([H])C([H])=C1C(=C([H])Oc2c([H])c([H])c3c(c2[H])C([H])([H])N(C(=O)C([H])(N([H])C(=O)C([H])(N([H])C([H])([H])[H])C([H])([H])[H])C(C([H])([H])[H])(C([H])([H])[H])C([H])([H])[H])C([H])(C(=O)N([H])C2([H])c4c([H])c([H])c([H])c([H])c4C([H])([H])C([H])([H])C2([H])[H])C3([H])[H])C([H])([H])C([H])([H])N1c1nc(C([H])([H])[H])c(N([H])C(=O)N2C([H])([H])C([H])([H])C([H])([H])C([H])(n3nc(-c4c([H])c([H])c(Oc5c([H])c([H])c(F)c([H])c5F)c([H])c4[H])c(C(=O)N([H])[H])c3N([H])[H])C2([H])[H])c([H])c1C([H])([H])[H]

>  <smiles>  (48) 
[H]C([H])=C([H])C([H])=C1C(=C([H])Oc2c([H])c([H])c3c(c2[H])C([H])([H])N(C(=O)C([H])(N([H])C(=O)C([H])(N([H])C([H])([H])[H])C([H])([H])[H])C(C([H])([H])[H])(C([H])([H])[H])C([H])([H])[H])C([H])(C(=O)N([H])C2([H])c4c([H])c([H])c([H])c([H])c4C([H])([H])C([H])([H])C2([H])[H])C3([H])[H])C([H])([H])C([H])([H])N1c1nc(C([H])([H])[H])c(N([H])C(=O)N2C([H])([H])C([H])([H])C([H])([H])C([H])(n3nc(-c4c([H])c([H])c(Oc5c([H])c([H])c(F)c([H])c5F)c([H])c4[H])c(C(=O)N([H])[H])c3N([H])[H])C2([H])[H])c([H])c1C([H])([H])[H]

$$$$
48:0:0
     RDKit          3D

102106  0  0  1  0  0  0  0  0999 V2000
  -30.5460  -18.4210   18.7840 C   0  0  0  0  0  3  0  0  0  0  0  0
  -27.8500  -18.8410   19.4270 C   0  0  0  0  0  3  0  0  0  0  0  0
  -30.0870  -19.7200   19.0900 C   0  0  0  0  0  0  0  0  0  0  0  0
  -28.4300  -17.5620   19.4410 C   0  0  0  0  0  0  0  0  0  0  0  0
  -29.6820  -17.3320   18.9220 C   0  0  0  0  0  0  0  0  0  0  0  0
  -28.6920  -19.9560   19.2360 C   0  0  0  0  0  0  0  0  0  0  0  0
  -28.8470  -11.5980   20.7560 C   0  0  0  0  0  3  0  0  0  0  0  0
  -29.2090  -12.6670   22.7890 C   0  0  0  0  0 15  0  0  0  0  0  0
  -29.1650  -14.1860   18.7920 C   0  0  0  0  0  1  0  0  0  0  0  0
  -30.2880  -14.8220   22.9110 C   0  0  0  0  0 15  0  0  0  0  0  0
  -30.9000  -16.5560   21.1370 C   0  0  0  0  0 15  0  0  0  0  0  0
  -30.1710  -16.0650   19.1670 N   0  0  0  0  0  1  0  0  0  0  0  0
  -28.6890  -10.3850   20.5670 O   0  0  0  0  0  0  0  0  0  0  0  0
  -31.1580  -20.6980   19.3040 C   0  0  0  0  0  3  0  0  0  0  0  0
  -31.7830  -20.8650   20.4940 C   0  0  0  0  0  0  0  0  0  0  0  0
  -33.0510  -21.6940   20.5920 C   0  0  0  0  0  1  0  0  0  0  0  0
  -31.3360  -20.1930   21.7960 C   0  0  0  0  0  1  0  0  0  0  0  0
  -27.8040  -16.4240   20.1820 C   0  0  0  0  0  2  0  0  0  0  0  0
  -30.3080  -13.9850   20.1040 C   0  0  0  0  0  3  0  0  0  0  0  0
  -30.3550  -12.0970   17.9340 C   0  0  0  0  0  3  0  0  0  0  0  0
  -28.8480  -12.0470   17.0270 C   0  0  0  0  0  3  0  0  0  0  0  0
  -27.2990  -12.6370   17.6190 C   0  0  0  0  0  2  0  0  0  0  0  0
  -27.2960  -13.4280   19.2210 C   0  0  0  0  0  2  0  0  0  0  0  0
  -29.4860  -13.2480   20.1040 C   0  0  1  0  0  0  0  0  0  0  0  0
  -30.5030  -12.7880   19.3850 N   0  0  0  0  0  0  0  0  0  0  0  0
  -31.5830  -14.2880   19.9800 O   0  0  0  0  0  1  0  0  0  0  0  0
  -28.5480  -15.1150   20.4430 N   0  0  0  0  0  2  0  0  0  0  0  0
  -27.8750  -14.5040   20.8780 H   0  0  0  0  0  0  0  0  0  0  0  0
  -25.0460  -13.9130   20.3830 C   0  0  0  0  0  0  0  0  0  0  0  0
  -24.0640  -13.1260   20.8630 C   0  0  0  0  0  0  0  0  0  0  0  0
  -24.5200  -11.7900   20.7220 C   0  0  0  0  0  0  0  0  0  0  0  0
  -26.0680  -13.0810   19.9800 N   0  0  0  0  0  0  0  0  0  0  0  0
  -25.7420  -11.7860   20.2250 N   0  0  0  0  0  0  0  0  0  0  0  0
  -23.8300  -10.5220   20.9470 C   0  0  0  0  0  0  0  0  0  0  0  0
  -24.3340   -9.5460   21.8330 C   0  0  0  0  0  3  0  0  0  0  0  0
  -23.6140   -8.3560   22.0720 C   0  0  0  0  0  3  0  0  0  0  0  0
  -22.3810   -8.1330   21.4110 C   0  0  0  0  0  0  0  0  0  0  0  0
  -21.9120   -9.0860   20.4900 C   0  0  0  0  0  3  0  0  0  0  0  0
  -22.6310  -10.2680   20.2540 C   0  0  0  0  0  3  0  0  0  0  0  0
  -21.6270   -6.9950   21.5550 O   0  0  0  0  0  0  0  0  0  0  0  0
  -21.6490   -6.2650   22.7150 C   0  0  0  0  0  0  0  0  0  0  0  0
  -21.2920   -6.8390   23.9530 C   0  0  0  0  0  3  0  0  0  0  0  0
  -21.2520   -6.0380   25.1090 C   0  0  0  0  0  3  0  0  0  0  0  0
  -21.5550   -4.6650   25.0240 C   0  0  0  0  0  0  0  0  0  0  0  0
  -21.9020   -4.0910   23.7850 C   0  0  0  0  0  3  0  0  0  0  0  0
  -21.9430   -4.8910   22.6300 C   0  0  0  0  0  0  0  0  0  0  0  0
  -22.2570   -4.3390   21.4330 F   0  0  0  0  0  0  0  0  0  0  0  0
  -21.5080   -3.8860   26.1300 F   0  0  0  0  0  0  0  0  0  0  0  0
  -22.7090  -13.5990   21.2660 C   0  0  0  0  0  0  0  0  0  0  0  0
  -22.0720  -12.9290   22.2100 N   0  0  0  0  0  0  0  0  0  0  0  0
  -22.2180  -14.6090   20.7570 O   0  0  0  0  0  0  0  0  0  0  0  0
  -22.4730  -12.1120   22.6390 H   0  0  0  0  0  0  0  0  0  0  0  0
  -21.1550  -13.2490   22.5000 H   0  0  0  0  0  0  0  0  0  0  0  0
  -25.0480  -15.2780   20.2200 N   0  0  0  0  0  0  0  0  0  0  0  0
  -24.1560  -15.6850   20.4750 H   0  0  0  0  0  0  0  0  0  0  0  0
  -25.2860  -15.6180   19.2980 H   0  0  0  0  0  0  0  0  0  0  0  0
  -28.1310  -21.2100   19.2770 O   0  0  0  0  0  0  0  0  0  0  0  0
  -28.1270  -21.8600   20.5440 C   0  0  0  0  0  2  0  0  0  0  0  0
  -29.0200  -23.0890   20.4160 C   0  0  0  0  0  2  0  0  0  0  0  0
  -28.3550  -24.4360   20.7360 C   0  0  0  0  0  2  0  0  0  0  0  0
  -28.8180  -25.4770   19.7100 C   0  0  0  0  0  2  0  0  0  0  0  0
  -28.6790  -26.7820   20.2280 O   0  0  0  0  0  0  0  0  0  0  0  0
  -24.7060  -31.8400   23.2190 C   0  0  0  0  0  0  0  0  0  0  0  0
  -27.4480  -27.3900   20.2300 C   0  0  0  0  0  0  0  0  0  0  0  0
  -23.5430  -30.3840   21.5980 C   0  0  0  0  0  3  0  0  0  0  0  0
  -25.0190  -28.8190   20.2430 C   0  0  0  0  0  0  0  0  0  0  0  0
  -26.0780  -30.7510   21.4540 C   0  0  0  0  0  2  0  0  0  0  0  0
  -26.1660  -29.3860   20.8080 C   0  0  0  0  0  0  0  0  0  0  0  0
  -27.3830  -28.6800   20.7830 C   0  0  0  0  0  3  0  0  0  0  0  0
  -26.2720  -26.8080   19.6990 C   0  0  0  0  0  3  0  0  0  0  0  0
  -25.0590  -27.5210   19.7030 C   0  0  0  0  0  3  0  0  0  0  0  0
  -23.7730  -29.6670   20.2450 C   0  0  0  0  0  2  0  0  0  0  0  0
  -24.7910  -31.0140   22.1390 N   0  0  0  0  0  0  0  0  0  0  0  0
  -23.6110  -32.1170   23.7300 O   0  0  0  0  0  0  0  0  0  0  0  0
  -22.8890  -29.3800   22.5730 C   0  0  0  0  0  0  0  0  0  0  0  0
  -21.5730  -29.1710   22.4120 N   0  0  0  0  0  0  0  0  0  0  0  0
  -23.5610  -28.7920   23.4240 O   0  0  0  0  0  0  0  0  0  0  0  0
  -21.1070  -29.6830   21.6760 H   0  0  0  0  0  0  0  0  0  0  0  0
  -18.2030  -27.9400   22.8800 C   0  0  0  0  0  0  0  0  0  0  0  0
  -20.7490  -28.2470   23.1890 C   0  0  0  0  0  3  0  0  0  0  0  0
  -20.8860  -26.8030   22.6570 C   0  0  0  0  0  2  0  0  0  0  0  0
  -19.8080  -26.4310   21.6330 C   0  0  0  0  0  2  0  0  0  0  0  0
  -18.4120  -26.5760   22.2450 C   0  0  0  0  0  2  0  0  0  0  0  0
  -19.3010  -28.7320   23.3070 C   0  0  0  0  0  0  0  0  0  0  0  0
  -19.0500  -30.0070   23.8600 C   0  0  0  0  0  3  0  0  0  0  0  0
  -17.7340  -30.4880   23.9930 C   0  0  0  0  0  3  0  0  0  0  0  0
  -16.6510  -29.6930   23.5820 C   0  0  0  0  0  3  0  0  0  0  0  0
  -16.8850  -28.4210   23.0320 C   0  0  0  0  0  3  0  0  0  0  0  0
  -25.9740  -32.5000   23.8450 C   0  0  0  0  0  3  0  0  0  0  0  0
  -25.6230  -33.8850   24.1910 N   0  0  0  0  0  0  0  0  0  0  0  0
  -25.9170  -34.9570   23.4440 C   0  0  0  0  0  0  0  0  0  0  0  0
  -26.5840  -34.8860   22.4090 O   0  0  0  0  0  0  0  0  0  0  0  0
  -25.0310  -34.0110   25.0000 H   0  0  0  0  0  0  0  0  0  0  0  0
  -24.1300  -36.6950   23.1130 C   0  0  0  0  0  1  0  0  0  0  0  0
  -25.3860  -36.3250   23.9190 C   0  0  0  0  0  3  0  0  0  0  0  0
  -27.4970  -37.2540   24.7600 C   0  0  0  0  0  1  0  0  0  0  0  0
  -26.3890  -37.4100   23.8220 N   0  0  0  0  0  0  0  0  0  0  0  0
  -25.9600  -38.3180   23.9830 H   0  0  0  0  0  0  0  0  0  0  0  0
  -26.5210  -31.7350   25.1130 C   0  0  1  0  0  0  0  0  0  0  0  0
  -25.4390  -31.4460   26.1800 C   0  0  0  0  0  1  0  0  0  0  0  0
  -27.1470  -30.3810   24.7130 C   0  0  0  0  0  1  0  0  0  0  0  0
  -27.6540  -32.5620   25.7670 C   0  0  0  0  0  1  0  0  0  0  0  0
  1  5  2  0
  1  3  1  0
  2  4  2  0
  3  6  2  0
  3 14  1  0
  4 18  1  0
  5 12  1  0
  5  4  1  0
  6 57  1  0
  6  2  1  0
 13  7  2  0
 14 15  2  0
 15 16  1  0
 15 17  1  0
 18 27  1  0
 19 26  1  0
 19 24  1  0
 20 25  1  0
 21 22  1  0
 21 20  2  0
 22 23  1  0
 23 32  1  0
 24  9  1  1
 24  7  1  0
 25 19  1  0
 25 24  1  0
 27 28  1  0
 29 30  2  0
 30 49  1  0
 31 30  1  0
 31 34  1  0
 32 33  1  0
 32 29  1  0
 33 31  2  0
 34 35  1  0
 35 36  2  0
 37 40  1  0
 37 36  1  0
 38 37  2  0
 39 38  1  0
 39 34  2  0
 40 41  1  0
 41 42  1  0
 42 43  2  0
 44 43  1  0
 44 48  1  0
 45 44  2  0
 46 41  2  0
 46 45  1  0
 47 46  1  0
 49 50  1  0
 50 53  1  0
 50 52  1  0
 51 49  2  0
 54 29  1  0
 54 55  1  0
 56 54  1  0
 57 58  1  0
 59 58  1  0
 59 60  1  0
 61 62  1  0
 61 60  1  0
 62 64  1  0
 63 74  2  0
 64 69  1  0
 65 73  1  0
 65 75  1  0
 66 72  1  0
 66 68  1  0
 67 73  1  0
 68 67  1  0
 69 68  2  0
 70 71  1  0
 70 64  2  0
 71 66  2  0
 72 65  1  0
 73 63  1  0
 75 77  2  0
 76 75  1  0
 78 76  1  0
 79 88  2  0
 79 84  1  0
 80 76  1  0
 80 84  1  0
 81 80  1  0
 82 83  1  0
 82 81  1  0
 83 79  1  0
 84 85  2  0
 85 86  1  0
 87 86  2  0
 88 87  1  0
 89 63  1  0
 89 90  1  0
 89 99  1  0
 90 93  1  0
 91 95  1  0
 91 90  1  0
 92 91  2  0
 95 94  1  0
 97 95  1  0
 97 98  1  0
 97 96  1  0
 99102  1  1
 99100  1  0
101 99  1  0
M  ISO  4  19 100  27 100  61 101  62 101
M  END
>  <TORSDO>  (49) 
F 24

>  <SCORE>  (49) 
-8.897

>  <name>  (49) 
48

>  <ligand_id>  (49) 
48

>  <original_smiles>  (49) 
[H]C(=C(C([H])([H])[H])C([H])([H])[H])c1c([H])c(N2C([H])([H])C(=O)C([H])([H])C([H])([H])C2([H])[H])c(C([H])([H])N([H])C(=O)N2C([H])([H])C([H])([H])C([H])([H])C([H])(n3nc(-c4c([H])c([H])c(Oc5c([H])c([H])c(F)c([H])c5F)c([H])c4[H])c(C(=O)N([H])[H])c3N([H])[H])C2([H])[H])c([H])c1OC([H])([H])C([H])([H])C([H])([H])C([H])([H])Oc1c([H])c([H])c2c(c1[H])C([H])([H])N(C(=O)C([H])(N([H])C(=O)C([H])(N([H])C([H])([H])[H])C([H])([H])[H])C(C([H])([H])[H])(C([H])([H])[H])C([H])([H])[H])C([H])(C(=O)N([H])C1([H])c3c([H])c([H])c([H])c([H])c3C([H])([H])C([H])([H])C1([H])[H])C2([H])[H]

>  <smiles>  (49) 
[H]C(=C(C([H])([H])[H])C([H])([H])[H])c1c([H])c(N2C([H])([H])C(=O)C([H])([H])C([H])([H])C2([H])[H])c(C([H])([H])N([H])C(=O)N2C([H])([H])C([H])([H])C([H])([H])C([H])(n3nc(-c4c([H])c([H])c(Oc5c([H])c([H])c(F)c([H])c5F)c([H])c4[H])c(C(=O)N([H])[H])c3N([H])[H])C2([H])[H])c([H])c1OC([H])([H])C([H])([H])C([H])([H])C([H])([H])Oc1c([H])c([H])c2c(c1[H])C([H])([H])N(C(=O)C([H])(N([H])C(=O)C([H])(N([H])C([H])([H])[H])C([H])([H])[H])C(C([H])([H])[H])(C([H])([H])[H])C([H])([H])[H])C([H])(C(=O)N([H])C1([H])c3c([H])c([H])c([H])c([H])c3C([H])([H])C([H])([H])C1([H])[H])C2([H])[H]

$$$$
49:0:0
     RDKit          3D

 96101  0  0  1  0  0  0  0  0999 V2000
  -28.5440  -16.8800   17.7910 C   0  0  0  0  0  3  0  0  0  0  0  0
  -29.0260  -18.2460   18.0150 C   0  0  0  0  0  3  0  0  0  0  0  0
  -27.5660  -18.4930   19.7900 C   0  0  0  0  0  3  0  0  0  0  0  0
  -27.5680  -16.1550   18.5810 C   0  0  0  0  0  0  0  0  0  0  0  0
  -27.0560  -17.1290   19.5600 C   0  0  0  0  0  0  0  0  0  0  0  0
  -28.6100  -19.1520   19.0560 C   0  0  0  0  0  0  0  0  0  0  0  0
  -25.8910  -16.7560   20.4680 C   0  0  0  0  0  1  0  0  0  0  0  0
  -27.1800  -14.4970   18.5580 C   0  0  0  0  0  3  0  0  0  0  0  0
  -25.9060  -14.4040   18.4470 N   0  0  0  0  0  2  0  0  0  0  0  0
  -23.8680  -13.1480   18.6500 C   0  0  0  0  0  3  0  0  0  0  0  0
  -25.1700  -13.3180   18.9200 C   0  0  0  0  0  3  0  0  0  0  0  0
  -23.0490  -12.0040   19.2050 C   0  0  0  0  0  1  0  0  0  0  0  0
  -27.9680  -12.9770   18.7240 C   0  0  0  0  0  2  0  0  0  0  0  0
  -29.0170  -12.2010   19.4350 C   0  0  0  0  0  1  0  0  0  0  0  0
  -30.3960  -12.5270   20.7060 C   0  0  2  0  0  0  0  0  0  0  0  0
  -31.2570  -12.6610   19.4210 C   0  0  0  0  0  1  0  0  0  0  0  0
  -30.2360  -14.3240   19.2960 C   0  0  0  0  0  1  0  0  0  0  0  0
  -28.8260  -14.4120   20.6660 C   0  0  0  0  0  2  0  0  0  0  0  0
  -28.2600  -13.0240   21.6580 C   0  0  0  0  0  2  0  0  0  0  0  0
  -29.4620  -11.6880   21.7420 C   0  0  0  0  0  1  0  0  0  0  0  0
  -30.7670  -11.5730   20.6660 N   0  0  0  0  0  1  0  0  0  0  0  0
  -31.0730  -13.4310   21.5020 O   0  0  0  0  0  1  0  0  0  0  0  0
  -25.7210  -13.2590   21.6510 C   0  0  0  0  0  0  0  0  0  0  0  0
  -24.6660  -12.4150   21.8550 C   0  0  0  0  0  0  0  0  0  0  0  0
  -25.1710  -11.0850   21.7150 C   0  0  0  0  0  0  0  0  0  0  0  0
  -26.8510  -12.4920   21.5090 N   0  0  0  0  0  0  0  0  0  0  0  0
  -26.5010  -11.1500   21.5130 N   0  0  0  0  0  0  0  0  0  0  0  0
  -24.4320   -9.7940   21.7870 C   0  0  0  0  0  0  0  0  0  0  0  0
  -24.7710   -8.7680   22.7020 C   0  0  0  0  0  3  0  0  0  0  0  0
  -24.0140   -7.5720   22.7730 C   0  0  0  0  0  3  0  0  0  0  0  0
  -22.8890   -7.3870   21.9350 C   0  0  0  0  0  0  0  0  0  0  0  0
  -22.5560   -8.4030   21.0190 C   0  0  0  0  0  3  0  0  0  0  0  0
  -23.3150   -9.5860   20.9480 C   0  0  0  0  0  3  0  0  0  0  0  0
  -22.1120   -6.2480   21.9100 O   0  0  0  0  0  0  0  0  0  0  0  0
  -21.8960   -5.4910   23.0360 C   0  0  0  0  0  0  0  0  0  0  0  0
  -21.2860   -6.0280   24.1920 C   0  0  0  0  0  3  0  0  0  0  0  0
  -21.0240   -5.1990   25.3010 C   0  0  0  0  0  3  0  0  0  0  0  0
  -21.3550   -3.8320   25.2540 C   0  0  0  0  0  0  0  0  0  0  0  0
  -21.9510   -3.2920   24.1010 C   0  0  0  0  0  3  0  0  0  0  0  0
  -22.2180   -4.1180   22.9950 C   0  0  0  0  0  0  0  0  0  0  0  0
  -22.7720   -3.5840   21.8800 F   0  0  0  0  0  0  0  0  0  0  0  0
  -21.0980   -3.0340   26.3160 F   0  0  0  0  0  0  0  0  0  0  0  0
  -23.2600  -12.8440   22.1620 C   0  0  0  0  0  0  0  0  0  0  0  0
  -22.5410  -12.0730   22.9720 N   0  0  0  0  0  0  0  0  0  0  0  0
  -22.8180  -13.9110   21.7390 O   0  0  0  0  0  0  0  0  0  0  0  0
  -22.9230  -11.2180   23.3480 H   0  0  0  0  0  0  0  0  0  0  0  0
  -21.6000  -12.3420   23.2220 H   0  0  0  0  0  0  0  0  0  0  0  0
  -25.8520  -14.6370   21.6730 N   0  0  0  0  0  0  0  0  0  0  0  0
  -25.0620  -15.2590   21.7820 H   0  0  0  0  0  0  0  0  0  0  0  0
  -26.7340  -15.1220   21.5760 H   0  0  0  0  0  0  0  0  0  0  0  0
  -29.1800  -20.5400   19.2250 N   0  0  0  0  0  0  0  0  0  0  0  0
  -29.9380  -20.7290   18.5730 H   0  0  0  0  0  0  0  0  0  0  0  0
  -29.0840  -21.6510   20.3340 C   0  0  0  0  0  2  0  0  0  0  0  0
  -29.5590  -23.2820   20.2970 C   0  0  0  0  0  3  0  0  0  0  0  0
  -29.6400  -24.5430   21.0140 C   0  0  0  0  0  3  0  0  0  0  0  0
  -30.0940  -25.9380   20.7450 O   0  0  0  0  0  0  0  0  0  0  0  0
  -26.5740  -31.3850   24.6140 C   0  0  0  0  0  0  0  0  0  0  0  0
  -29.1750  -27.0390   20.9660 C   0  0  0  0  0  0  0  0  0  0  0  0
  -25.4640  -30.2810   22.7270 C   0  0  0  0  0  3  0  0  0  0  0  0
  -26.9480  -28.8910   21.1730 C   0  0  0  0  0  0  0  0  0  0  0  0
  -28.0410  -30.4350   22.7780 C   0  0  0  0  0  2  0  0  0  0  0  0
  -28.1090  -29.1560   21.9130 C   0  0  0  0  0  0  0  0  0  0  0  0
  -29.2340  -28.2350   21.8110 C   0  0  0  0  0  3  0  0  0  0  0  0
  -27.9920  -26.9140   20.2210 C   0  0  0  0  0  3  0  0  0  0  0  0
  -26.8990  -27.7790   20.3310 C   0  0  0  0  0  3  0  0  0  0  0  0
  -25.7600  -29.8300   21.2800 C   0  0  0  0  0  2  0  0  0  0  0  0
  -26.7120  -30.7150   23.4290 N   0  0  0  0  0  0  0  0  0  0  0  0
  -25.4580  -31.6310   25.0970 O   0  0  0  0  0  0  0  0  0  0  0  0
  -24.6980  -29.1590   23.4730 C   0  0  0  0  0  0  0  0  0  0  0  0
  -23.4540  -28.8740   23.0470 N   0  0  0  0  0  0  0  0  0  0  0  0
  -25.2330  -28.5510   24.4050 O   0  0  0  0  0  0  0  0  0  0  0  0
  -23.0770  -29.4230   22.2870 H   0  0  0  0  0  0  0  0  0  0  0  0
  -20.2880  -27.1770   22.5880 C   0  0  0  0  0  0  0  0  0  0  0  0
  -22.5820  -27.8290   23.5880 C   0  0  0  0  0  3  0  0  0  0  0  0
  -23.0560  -26.4260   23.1510 C   0  0  0  0  0  2  0  0  0  0  0  0
  -22.3690  -25.9270   21.8750 C   0  0  0  0  0  2  0  0  0  0  0  0
  -20.8510  -25.8640   22.0710 C   0  0  0  0  0  2  0  0  0  0  0  0
  -21.1040  -28.1060   23.2870 C   0  0  0  0  0  0  0  0  0  0  0  0
  -20.5370  -29.3240   23.7190 C   0  0  0  0  0  3  0  0  0  0  0  0
  -19.1850  -29.6200   23.4650 C   0  0  0  0  0  3  0  0  0  0  0  0
  -18.3780  -28.6900   22.7860 C   0  0  0  0  0  3  0  0  0  0  0  0
  -18.9280  -27.4710   22.3510 C   0  0  0  0  0  3  0  0  0  0  0  0
  -27.8130  -31.8910   25.4090 C   0  0  0  0  0  3  0  0  0  0  0  0
  -27.5300  -33.2660   25.8490 N   0  0  0  0  0  0  0  0  0  0  0  0
  -27.9950  -34.3730   25.2560 C   0  0  0  0  0  0  0  0  0  0  0  0
  -28.7760  -34.3390   24.3020 O   0  0  0  0  0  0  0  0  0  0  0  0
  -26.8510  -33.3700   26.5880 H   0  0  0  0  0  0  0  0  0  0  0  0
  -26.4220  -36.3090   24.9060 C   0  0  0  0  0  1  0  0  0  0  0  0
  -27.5240  -35.7330   25.8100 C   0  0  0  0  0  3  0  0  0  0  0  0
  -29.5710  -36.3860   27.0010 C   0  0  0  0  0  1  0  0  0  0  0  0
  -28.6160  -36.7230   25.9490 N   0  0  0  0  0  0  0  0  0  0  0  0
  -28.2410  -37.6470   26.1460 H   0  0  0  0  0  0  0  0  0  0  0  0
  -28.1620  -30.9810   26.6520 C   0  0  1  0  0  0  0  0  0  0  0  0
  -26.9610  -30.7180   27.5900 C   0  0  0  0  0  1  0  0  0  0  0  0
  -28.7090  -29.6070   26.1990 C   0  0  0  0  0  1  0  0  0  0  0  0
  -29.2800  -31.6460   27.4890 C   0  0  0  0  0  1  0  0  0  0  0  0
  1  2  2  0
  1  4  1  0
  2  6  1  0
  4  5  2  0
  5  3  1  0
  5  7  1  0
  6 51  1  0
  6  3  2  0
  8  4  1  0
  8 13  1  0
  9  8  1  0
  9 11  1  0
 10 11  2  0
 10 12  1  0
 13 14  1  0
 15 22  1  0
 15 20  1  1
 16 15  1  0
 17 18  1  0
 18 19  1  0
 21 15  1  0
 23 48  1  0
 23 24  2  0
 24 43  1  0
 25 28  1  0
 25 24  1  0
 26 27  1  0
 26 23  1  0
 26 19  1  0
 27 25  2  0
 28 29  1  0
 29 30  2  0
 31 30  1  0
 32 31  2  0
 33 32  1  0
 33 28  2  0
 34 31  1  0
 34 35  1  0
 35 36  1  0
 36 37  2  0
 38 37  1  0
 38 42  1  0
 39 38  2  0
 40 35  2  0
 40 39  1  0
 41 40  1  0
 43 44  1  0
 44 47  1  0
 44 46  1  0
 45 43  2  0
 48 49  1  0
 50 48  1  0
 51 53  1  0
 52 51  1  0
 54 53  1  0
 54 55  2  0
 56 58  1  0
 56 55  1  0
 57 68  2  0
 58 63  1  0
 59 67  1  0
 59 69  1  0
 60 66  1  0
 60 62  1  0
 61 67  1  0
 62 61  1  0
 63 62  2  0
 64 65  1  0
 64 58  2  0
 65 60  2  0
 66 59  1  0
 67 57  1  0
 69 71  2  0
 70 69  1  0
 72 70  1  0
 73 78  1  0
 74 70  1  0
 75 74  1  0
 76 77  1  0
 76 75  1  0
 77 73  1  0
 78 74  1  0
 78 79  2  0
 80 79  1  0
 81 80  2  0
 82 73  2  0
 82 81  1  0
 83 57  1  0
 83 84  1  0
 83 93  1  0
 84 87  1  0
 85 89  1  0
 85 84  1  0
 86 85  2  0
 89 88  1  0
 89 91  1  0
 91 92  1  0
 91 90  1  0
 93 96  1  1
 93 94  1  0
 95 93  1  0
M  ISO  4  14 100  15 100  55 101  56 101
M  END
>  <TORSDO>  (50) 
F 22

>  <SCORE>  (50) 
-0.618

>  <name>  (50) 
49

>  <ligand_id>  (50) 
49

>  <original_smiles>  (50) 
[H]C(N=C(C([H])=C([H])C(=O)N1C([H])([H])C([H])([H])C([H])([H])C([H])(n2nc(-c3c([H])c([H])c(Oc4c([H])c([H])c(F)c([H])c4F)c([H])c3[H])c(C(=O)N([H])[H])c2N([H])[H])C1([H])[H])c1c([H])c([H])c(N([H])C([H])([H])C([H])=C([H])Oc2c([H])c([H])c3c(c2[H])C([H])([H])N(C(=O)C([H])(N([H])C(=O)C([H])(N([H])C([H])([H])[H])C([H])([H])[H])C(C([H])([H])[H])(C([H])([H])[H])C([H])([H])[H])C([H])(C(=O)N([H])C2([H])c4c([H])c([H])c([H])c([H])c4C([H])([H])C([H])([H])C2([H])[H])C3([H])[H])c([H])c1C([H])([H])[H])=C([H])C([H])([H])[H]

>  <smiles>  (50) 
[H]C(N=C(C([H])=C([H])C(=O)N1C([H])([H])C([H])([H])C([H])([H])C([H])(n2nc(-c3c([H])c([H])c(Oc4c([H])c([H])c(F)c([H])c4F)c([H])c3[H])c(C(=O)N([H])[H])c2N([H])[H])C1([H])[H])c1c([H])c([H])c(N([H])C([H])([H])C([H])=C([H])Oc2c([H])c([H])c3c(c2[H])C([H])([H])N(C(=O)C([H])(N([H])C(=O)C([H])(N([H])C([H])([H])[H])C([H])([H])[H])C(C([H])([H])[H])(C([H])([H])[H])C([H])([H])[H])C([H])(C(=O)N([H])C2([H])c4c([H])c([H])c([H])c([H])c4C([H])([H])C([H])([H])C2([H])[H])C3([H])[H])c([H])c1C([H])([H])[H])=C([H])C([H])([H])[H]

$$$$
50:0:0
     RDKit          3D

 94102  0  0  1  0  0  0  0  0999 V2000
  -29.2680  -22.2930   21.3990 C   0  0  0  0  0  0  0  0  0  0  0  0
  -28.9220  -21.0760   21.8660 N   0  0  0  0  0  0  0  0  0  0  0  0
  -30.3390  -22.5320   20.8370 O   0  0  0  0  0  0  0  0  0  0  0  0
  -27.9560  -20.9790   22.1520 H   0  0  0  0  0  0  0  0  0  0  0  0
  -31.4460  -18.4260   22.3790 C   0  0  0  0  0  3  0  0  0  0  0  0
  -30.9990  -19.7850   22.3720 C   0  0  0  0  0  0  0  0  0  0  0  0
  -30.4710  -17.5200   22.0360 C   0  0  0  0  0  0  0  0  0  0  0  0
  -29.6850  -19.9500   21.9730 C   0  0  0  0  0  0  0  0  0  0  0  0
  -28.9820  -18.3680   21.6670 S   0  0  0  0  0  0  0  0  0  0  0  0
  -31.5500  -21.8730   23.6660 C   0  0  0  0  0  2  0  0  0  0  0  0
  -31.8980  -20.8440   22.8710 C   0  0  0  0  0  3  0  0  0  0  0  0
  -30.5650  -16.0090   22.0260 C   0  0  0  0  0  2  0  0  0  0  0  0
  -31.4460  -14.6200   19.9410 C   0  0  0  0  0  0  0  0  0  0  0  0
  -30.8160  -12.4950   18.8480 C   0  0  0  0  0  2  0  0  0  0  0  0
  -29.8090  -12.6750   17.6810 C   0  0  0  0  0  2  0  0  0  0  0  0
  -28.3460  -12.8350   18.1470 C   0  0  0  0  0  2  0  0  0  0  0  0
  -28.2270  -12.8540   19.6700 C   0  0  0  0  0  3  0  0  0  0  0  0
  -29.2760  -13.5660   20.4910 C   0  0  0  0  0  2  0  0  0  0  0  0
  -30.6120  -13.5420   19.8870 N   0  0  0  0  0  0  0  0  0  0  0  0
  -32.3500  -14.7660   19.1200 O   0  0  0  0  0  0  0  0  0  0  0  0
  -31.4620  -15.5020   20.9700 N   0  0  0  0  0  0  0  0  0  0  0  0
  -32.2640  -16.1050   20.8640 H   0  0  0  0  0  0  0  0  0  0  0  0
  -25.9670  -13.8810   20.6380 C   0  0  0  0  0  0  0  0  0  0  0  0
  -24.8580  -13.1680   21.0370 C   0  0  0  0  0  0  0  0  0  0  0  0
  -25.1660  -11.8010   20.7890 C   0  0  0  0  0  0  0  0  0  0  0  0
  -26.8780  -12.9060   20.2080 N   0  0  0  0  0  0  0  0  0  0  0  0
  -26.3730  -11.6750   20.3240 N   0  0  0  0  0  0  0  0  0  0  0  0
  -24.4000  -10.5720   20.8930 C   0  0  0  0  0  0  0  0  0  0  0  0
  -24.8400   -9.5150   21.7210 C   0  0  0  0  0  3  0  0  0  0  0  0
  -24.0960   -8.3220   21.7930 C   0  0  0  0  0  3  0  0  0  0  0  0
  -22.9070   -8.1890   21.0370 C   0  0  0  0  0  0  0  0  0  0  0  0
  -22.5010   -9.2350   20.1880 C   0  0  0  0  0  3  0  0  0  0  0  0
  -23.2450  -10.4190   20.1120 C   0  0  0  0  0  3  0  0  0  0  0  0
  -22.1160   -7.0700   21.0390 O   0  0  0  0  0  0  0  0  0  0  0  0
  -21.9460   -6.3200   22.1740 C   0  0  0  0  0  0  0  0  0  0  0  0
  -21.4750   -6.8800   23.3810 C   0  0  0  0  0  3  0  0  0  0  0  0
  -21.2570   -6.0520   24.4990 C   0  0  0  0  0  3  0  0  0  0  0  0
  -21.4910   -4.6670   24.4070 C   0  0  0  0  0  0  0  0  0  0  0  0
  -21.9580   -4.1090   23.2030 C   0  0  0  0  0  3  0  0  0  0  0  0
  -22.1830   -4.9340   22.0890 C   0  0  0  0  0  0  0  0  0  0  0  0
  -22.6140   -4.3910   20.9250 F   0  0  0  0  0  0  0  0  0  0  0  0
  -21.2680   -3.8680   25.4760 F   0  0  0  0  0  0  0  0  0  0  0  0
  -23.5470  -13.6910   21.5450 C   0  0  0  0  0  0  0  0  0  0  0  0
  -22.8860  -12.9330   22.4160 N   0  0  0  0  0  0  0  0  0  0  0  0
  -23.1110  -14.7870   21.1990 O   0  0  0  0  0  0  0  0  0  0  0  0
  -23.2500  -12.0430   22.7180 H   0  0  0  0  0  0  0  0  0  0  0  0
  -22.0000  -13.2520   22.7840 H   0  0  0  0  0  0  0  0  0  0  0  0
  -26.2520  -15.2400   20.6130 N   0  0  0  0  0  0  0  0  0  0  0  0
  -25.5660  -15.9450   20.8580 H   0  0  0  0  0  0  0  0  0  0  0  0
  -27.1090  -15.6290   20.2380 H   0  0  0  0  0  0  0  0  0  0  0  0
  -28.2180  -23.4020   21.5980 C   0  0  0  0  0  2  0  0  0  0  0  0
  -28.6600  -24.8780   21.3830 C   0  0  0  0  0  2  0  0  0  0  0  0
  -28.7400  -25.3590   19.9160 C   0  0  0  0  0  2  0  0  0  0  0  0
  -28.7010  -26.7990   19.8320 O   0  0  0  0  0  0  0  0  0  0  0  0
  -24.6730  -31.6530   23.1290 C   0  0  0  0  0  0  0  0  0  0  0  0
  -27.4850  -27.4590   19.8530 C   0  0  0  0  0  0  0  0  0  0  0  0
  -23.5240  -30.3150   21.3940 C   0  0  0  0  0  3  0  0  0  0  0  0
  -25.0380  -28.8960   19.9080 C   0  0  0  0  0  0  0  0  0  0  0  0
  -26.0410  -30.7550   21.2450 C   0  0  0  0  0  2  0  0  0  0  0  0
  -26.1730  -29.4210   20.5370 C   0  0  0  0  0  0  0  0  0  0  0  0
  -27.3950  -28.7120   20.5020 C   0  0  0  0  0  3  0  0  0  0  0  0
  -26.3260  -26.9490   19.2190 C   0  0  0  0  0  3  0  0  0  0  0  0
  -25.1100  -27.6600   19.2450 C   0  0  0  0  0  3  0  0  0  0  0  0
  -23.7700  -29.7170   19.9830 C   0  0  0  0  0  2  0  0  0  0  0  0
  -24.7640  -30.9210   21.9820 N   0  0  0  0  0  0  0  0  0  0  0  0
  -23.5780  -31.8610   23.6730 O   0  0  0  0  0  0  0  0  0  0  0  0
  -22.8900  -29.2240   22.2860 C   0  0  0  0  0  0  0  0  0  0  0  0
  -21.5760  -29.0020   22.1150 N   0  0  0  0  0  0  0  0  0  0  0  0
  -23.5770  -28.5840   23.0860 O   0  0  0  0  0  0  0  0  0  0  0  0
  -21.0830  -29.5730   21.4440 H   0  0  0  0  0  0  0  0  0  0  0  0
  -18.2410  -27.6540   22.4530 C   0  0  0  0  0  0  0  0  0  0  0  0
  -20.7790  -27.9970   22.8150 C   0  0  0  0  0  3  0  0  0  0  0  0
  -20.9550  -26.6000   22.1740 C   0  0  0  0  0  2  0  0  0  0  0  0
  -19.8960  -26.2850   21.1140 C   0  0  0  0  0  2  0  0  0  0  0  0
  -18.4920  -26.3460   21.7220 C   0  0  0  0  0  2  0  0  0  0  0  0
  -19.3170  -28.4370   22.9540 C   0  0  0  0  0  0  0  0  0  0  0  0
  -19.0300  -29.6610   23.5950 C   0  0  0  0  0  3  0  0  0  0  0  0
  -17.7020  -30.1030   23.7450 C   0  0  0  0  0  3  0  0  0  0  0  0
  -16.6410  -29.3170   23.2620 C   0  0  0  0  0  3  0  0  0  0  0  0
  -16.9120  -28.0940   22.6210 C   0  0  0  0  0  3  0  0  0  0  0  0
  -25.9330  -32.2810   23.8030 C   0  0  0  0  0  3  0  0  0  0  0  0
  -25.5760  -33.6410   24.2270 N   0  0  0  0  0  0  0  0  0  0  0  0
  -25.8850  -34.7550   23.5490 C   0  0  0  0  0  0  0  0  0  0  0  0
  -26.5690  -34.7460   22.5230 O   0  0  0  0  0  0  0  0  0  0  0  0
  -24.9650  -33.7200   25.0260 H   0  0  0  0  0  0  0  0  0  0  0  0
  -24.1050  -36.5150   23.2980 C   0  0  0  0  0  1  0  0  0  0  0  0
  -25.3470  -36.0900   24.0970 C   0  0  0  0  0  3  0  0  0  0  0  0
  -27.4420  -36.9800   25.0230 C   0  0  0  0  0  1  0  0  0  0  0  0
  -26.3480  -37.1790   24.0750 N   0  0  0  0  0  0  0  0  0  0  0  0
  -25.9120  -38.0750   24.2780 H   0  0  0  0  0  0  0  0  0  0  0  0
  -26.4730  -31.4390   25.0220 C   0  0  1  0  0  0  0  0  0  0  0  0
  -25.3820  -31.0730   26.0570 C   0  0  0  0  0  1  0  0  0  0  0  0
  -27.1160  -30.1210   24.5300 C   0  0  0  0  0  1  0  0  0  0  0  0
  -27.5820  -32.2270   25.7560 C   0  0  0  0  0  1  0  0  0  0  0  0
  1 51  1  0
  1  2  1  0
  2  8  1  0
  2  4  1  0
  3  1  2  0
  6  5  1  0
  6 11  1  0
  7  5  2  0
  8  6  2  0
  9  8  1  0
  9  7  1  0
 11 10  2  0
 12  7  1  0
 13 21  1  0
 14 19  1  0
 15 16  1  0
 15 14  1  0
 17 16  1  0
 17 26  1  0
 17 18  1  0
 19 13  1  0
 19 18  1  0
 20 13  2  0
 21 12  1  0
 22 21  1  0
 23 24  2  0
 24 43  1  0
 25 28  1  0
 25 24  1  0
 26 27  1  0
 26 23  1  0
 27 25  2  0
 28 29  1  0
 29 30  2  0
 31 34  1  0
 31 30  1  0
 32 31  2  0
 33 32  1  0
 33 28  2  0
 34 35  1  0
 35 36  1  0
 36 37  2  0
 38 37  1  0
 38 42  1  0
 39 38  2  0
 40 35  2  0
 40 39  1  0
 41 40  1  0
 43 44  1  0
 44 46  1  0
 44 47  1  0
 45 43  2  0
 48 23  1  0
 48 49  1  0
 50 48  1  0
 52 51  1  0
 53 52  1  0
 54 56  1  0
 54 53  1  0
 55 66  2  0
 56 61  1  0
 57 65  1  0
 57 67  1  0
 58 64  1  0
 58 60  1  0
 59 65  1  0
 60 59  1  0
 61 60  2  0
 62 63  1  0
 62 56  2  0
 63 58  2  0
 64 57  1  0
 65 55  1  0
 67 69  2  0
 68 67  1  0
 70 68  1  0
 71 80  2  0
 71 76  1  0
 72 68  1  0
 72 76  1  0
 73 72  1  0
 74 75  1  0
 74 73  1  0
 75 71  1  0
 76 77  2  0
 77 78  1  0
 79 78  2  0
 80 79  1  0
 81 55  1  0
 81 82  1  0
 81 91  1  0
 82 85  1  0
 83 87  1  0
 83 82  1  0
 84 83  2  0
 87 86  1  0
 89 87  1  0
 89 90  1  0
 89 88  1  0
 91 94  1  1
 91 92  1  0
 93 91  1  0
M  ISO  4  13 100  21 100  53 101  54 101
M  END
>  <TORSDO>  (51) 
F 22

>  <SCORE>  (51) 
-9.476

>  <name>  (51) 
50

>  <ligand_id>  (51) 
50

>  <original_smiles>  (51) 
[H]C([H])=C([H])c1c(N([H])C(=O)C([H])([H])C([H])([H])C([H])([H])Oc2c([H])c([H])c3c(c2[H])C([H])([H])N(C(=O)C([H])(N([H])C(=O)C([H])(N([H])C([H])([H])[H])C([H])([H])[H])C(C([H])([H])[H])(C([H])([H])[H])C([H])([H])[H])C([H])(C(=O)N([H])C2([H])c4c([H])c([H])c([H])c([H])c4C([H])([H])C([H])([H])C2([H])[H])C3([H])[H])sc(C([H])([H])N([H])C(=O)N2C([H])([H])C([H])([H])C([H])([H])C([H])(n3nc(-c4c([H])c([H])c(Oc5c([H])c([H])c(F)c([H])c5F)c([H])c4[H])c(C(=O)N([H])[H])c3N([H])[H])C2([H])[H])c1[H]

>  <smiles>  (51) 
[H]C([H])=C([H])c1c(N([H])C(=O)C([H])([H])C([H])([H])C([H])([H])Oc2c([H])c([H])c3c(c2[H])C([H])([H])N(C(=O)C([H])(N([H])C(=O)C([H])(N([H])C([H])([H])[H])C([H])([H])[H])C(C([H])([H])[H])(C([H])([H])[H])C([H])([H])[H])C([H])(C(=O)N([H])C2([H])c4c([H])c([H])c([H])c([H])c4C([H])([H])C([H])([H])C2([H])[H])C3([H])[H])sc(C([H])([H])N([H])C(=O)N2C([H])([H])C([H])([H])C([H])([H])C([H])(n3nc(-c4c([H])c([H])c(Oc5c([H])c([H])c(F)c([H])c5F)c([H])c4[H])c(C(=O)N([H])[H])c3N([H])[H])C2([H])[H])c1[H]

$$$$
51:0:0
     RDKit          3D

 92100  0  0  1  0  0  0  0  0999 V2000
  -28.8430  -19.4050   20.0800 C   0  0  0  0  0  3  0  0  0  0  0  0
  -30.9060  -17.9700   21.3170 C   0  0  0  0  0  3  0  0  0  0  0  0
  -29.8700  -20.1660   20.7000 C   0  0  0  0  0  0  0  0  0  0  0  0
  -29.8630  -17.2190   20.7220 C   0  0  0  0  0  0  0  0  0  0  0  0
  -28.8250  -17.9670   20.0940 C   0  0  0  0  0  0  0  0  0  0  0  0
  -30.9070  -19.3970   21.3110 C   0  0  0  0  0  0  0  0  0  0  0  0
  -31.9290  -20.0330   21.9340 F   0  0  0  0  0  0  0  0  0  0  0  0
  -30.5890  -14.7220   20.5720 C   0  0  0  0  0  0  0  0  0  0  0  0
  -30.4340  -12.4820   19.4960 C   0  0  0  0  0  2  0  0  0  0  0  0
  -29.5050  -12.5940   18.2660 C   0  0  0  0  0  2  0  0  0  0  0  0
  -28.0250  -12.4280   18.6680 C   0  0  0  0  0  2  0  0  0  0  0  0
  -27.6380  -13.2930   19.8960 C   0  0  0  0  0  3  0  0  0  0  0  0
  -28.6760  -13.1350   21.0290 C   0  0  0  0  0  2  0  0  0  0  0  0
  -29.9920  -13.4910   20.4770 N   0  0  0  0  0  0  0  0  0  0  0  0
  -31.7710  -14.8920   20.2560 O   0  0  0  0  0  0  0  0  0  0  0  0
  -29.7320  -15.7630   20.8160 N   0  0  0  0  0  0  0  0  0  0  0  0
  -28.7770  -15.4530   20.8970 H   0  0  0  0  0  0  0  0  0  0  0  0
  -25.2330  -13.8940   20.5710 C   0  0  0  0  0  0  0  0  0  0  0  0
  -24.1570  -13.1200   20.9190 C   0  0  0  0  0  0  0  0  0  0  0  0
  -24.6220  -11.7690   20.8990 C   0  0  0  0  0  0  0  0  0  0  0  0
  -26.2810  -13.0130   20.3570 N   0  0  0  0  0  0  0  0  0  0  0  0
  -25.9180  -11.7310   20.6140 N   0  0  0  0  0  0  0  0  0  0  0  0
  -23.8930  -10.5070   21.0750 C   0  0  0  0  0  0  0  0  0  0  0  0
  -24.3080   -9.5410   22.0190 C   0  0  0  0  0  3  0  0  0  0  0  0
  -23.5800   -8.3430   22.1840 C   0  0  0  0  0  3  0  0  0  0  0  0
  -22.4260   -8.1010   21.4020 C   0  0  0  0  0  0  0  0  0  0  0  0
  -22.0300   -9.0560   20.4490 C   0  0  0  0  0  3  0  0  0  0  0  0
  -22.7570  -10.2460   20.2830 C   0  0  0  0  0  3  0  0  0  0  0  0
  -21.6710   -6.9560   21.4750 O   0  0  0  0  0  0  0  0  0  0  0  0
  -21.5900   -6.2200   22.6300 C   0  0  0  0  0  0  0  0  0  0  0  0
  -21.1040   -6.7740   23.8340 C   0  0  0  0  0  3  0  0  0  0  0  0
  -20.9740   -5.9630   24.9800 C   0  0  0  0  0  3  0  0  0  0  0  0
  -21.3170   -4.5990   24.9210 C   0  0  0  0  0  0  0  0  0  0  0  0
  -21.7950   -4.0440   23.7200 C   0  0  0  0  0  3  0  0  0  0  0  0
  -21.9280   -4.8530   22.5780 C   0  0  0  0  0  0  0  0  0  0  0  0
  -22.3700   -4.3090   21.4180 F   0  0  0  0  0  0  0  0  0  0  0  0
  -21.1830   -3.8180   26.0180 F   0  0  0  0  0  0  0  0  0  0  0  0
  -22.7560  -13.5970   21.1620 C   0  0  0  0  0  0  0  0  0  0  0  0
  -22.0110  -12.9050   22.0180 N   0  0  0  0  0  0  0  0  0  0  0  0
  -22.3260  -14.6190   20.6290 O   0  0  0  0  0  0  0  0  0  0  0  0
  -22.3690  -12.0770   22.4700 H   0  0  0  0  0  0  0  0  0  0  0  0
  -21.0700  -13.2100   22.2260 H   0  0  0  0  0  0  0  0  0  0  0  0
  -25.3980  -15.2650   20.4010 N   0  0  0  0  0  0  0  0  0  0  0  0
  -24.6250  -15.9100   20.5170 H   0  0  0  0  0  0  0  0  0  0  0  0
  -26.2490  -15.7220   20.0930 H   0  0  0  0  0  0  0  0  0  0  0  0
  -29.8980  -21.7080   20.7470 C   0  0  0  0  0  3  0  0  0  0  0  0
  -29.0280  -22.5990   20.3580 N   0  0  0  0  0  0  0  0  0  0  0  0
  -29.3390  -24.0630   20.5530 C   0  0  0  0  0  3  0  0  0  0  0  0
  -28.1750  -25.0780   20.1610 C   0  0  0  0  0  3  0  0  0  0  0  0
  -28.3650  -26.5390   20.3500 O   0  0  0  0  0  0  0  0  0  0  0  0
  -24.5890  -31.9340   23.3090 C   0  0  0  0  0  0  0  0  0  0  0  0
  -27.2390  -27.3780   20.2820 C   0  0  0  0  0  0  0  0  0  0  0  0
  -23.4010  -30.5400   21.6520 C   0  0  0  0  0  3  0  0  0  0  0  0
  -24.8670  -28.9870   20.2440 C   0  0  0  0  0  0  0  0  0  0  0  0
  -25.9440  -30.8530   21.5020 C   0  0  0  0  0  2  0  0  0  0  0  0
  -26.0290  -29.4770   20.8540 C   0  0  0  0  0  0  0  0  0  0  0  0
  -27.2160  -28.6830   20.8630 C   0  0  0  0  0  3  0  0  0  0  0  0
  -26.0500  -26.9410   19.6490 C   0  0  0  0  0  3  0  0  0  0  0  0
  -24.8800  -27.7240   19.6340 C   0  0  0  0  0  3  0  0  0  0  0  0
  -23.6320  -29.8640   20.2750 C   0  0  0  0  0  2  0  0  0  0  0  0
  -24.6630  -31.1260   22.2110 N   0  0  0  0  0  0  0  0  0  0  0  0
  -23.5000  -32.2130   23.8300 O   0  0  0  0  0  0  0  0  0  0  0  0
  -22.7260  -29.5240   22.6040 C   0  0  0  0  0  0  0  0  0  0  0  0
  -21.4020  -29.3440   22.4560 N   0  0  0  0  0  0  0  0  0  0  0  0
  -23.3910  -28.9000   23.4340 O   0  0  0  0  0  0  0  0  0  0  0  0
  -20.9230  -29.8990   21.7610 H   0  0  0  0  0  0  0  0  0  0  0  0
  -18.0140  -28.1560   22.9070 C   0  0  0  0  0  0  0  0  0  0  0  0
  -20.5700  -28.4060   23.2140 C   0  0  0  0  0  3  0  0  0  0  0  0
  -20.6750  -26.9750   22.6380 C   0  0  0  0  0  2  0  0  0  0  0  0
  -19.5870  -26.6570   21.6090 C   0  0  0  0  0  2  0  0  0  0  0  0
  -18.1970  -26.8060   22.2360 C   0  0  0  0  0  2  0  0  0  0  0  0
  -19.1300  -28.9140   23.3540 C   0  0  0  0  0  0  0  0  0  0  0  0
  -18.9070  -30.1780   23.9430 C   0  0  0  0  0  3  0  0  0  0  0  0
  -17.6020  -30.6830   24.0920 C   0  0  0  0  0  3  0  0  0  0  0  0
  -16.5010  -29.9200   23.6650 C   0  0  0  0  0  3  0  0  0  0  0  0
  -16.7080  -28.6600   23.0780 C   0  0  0  0  0  3  0  0  0  0  0  0
  -25.8670  -32.5620   23.9470 C   0  0  0  0  0  3  0  0  0  0  0  0
  -26.3510  -31.8030   25.2440 C   0  0  1  0  0  0  0  0  0  0  0  0
  -25.2350  -31.5880   26.2930 C   0  0  0  0  0  1  0  0  0  0  0  0
  -26.9290  -30.4170   24.8780 C   0  0  0  0  0  1  0  0  0  0  0  0
  -27.4970  -32.5940   25.9190 C   0  0  0  0  0  1  0  0  0  0  0  0
  -25.5630  -33.9670   24.2560 N   0  0  0  0  0  0  0  0  0  0  0  0
  -25.8990  -35.0060   23.4800 C   0  0  0  0  0  0  0  0  0  0  0  0
  -26.5650  -34.8840   22.4480 O   0  0  0  0  0  0  0  0  0  0  0  0
  -24.9770  -34.1380   25.0590 H   0  0  0  0  0  0  0  0  0  0  0  0
  -24.1740  -36.7960   23.1060 C   0  0  0  0  0  1  0  0  0  0  0  0
  -25.4190  -36.4030   23.9170 C   0  0  0  0  0  3  0  0  0  0  0  0
  -27.5580  -37.3000   24.7210 C   0  0  0  0  0  1  0  0  0  0  0  0
  -26.4540  -37.4510   23.7770 N   0  0  0  0  0  0  0  0  0  0  0  0
  -26.0500  -38.3760   23.9070 H   0  0  0  0  0  0  0  0  0  0  0  0
  -27.0140  -17.8440   18.5200 C   0  0  0  0  0  1  0  0  0  0  0  0
  -27.8100  -17.2240   19.5240 O   0  0  0  0  0  0  0  0  0  0  0  0
  1  5  2  0
  1  3  1  0
  3 46  1  0
  3  6  2  0
  4 16  1  0
  4  2  2  0
  5  4  1  0
  6  2  1  0
  6  7  1  0
  8 16  1  0
  9 14  1  0
 10 11  1  0
 10  9  1  0
 12 11  1  0
 12 21  1  0
 12 13  1  0
 14  8  1  0
 14 13  1  0
 15  8  2  0
 16 17  1  0
 18 19  2  0
 19 38  1  0
 20 19  1  0
 20 23  1  0
 21 18  1  0
 21 22  1  0
 22 20  2  0
 23 24  1  0
 24 25  2  0
 26 29  1  0
 26 25  1  0
 27 26  2  0
 28 27  1  0
 28 23  2  0
 29 30  1  0
 30 31  1  0
 31 32  2  0
 33 32  1  0
 33 37  1  0
 34 33  2  0
 35 30  2  0
 35 34  1  0
 36 35  1  0
 38 39  1  0
 39 42  1  0
 39 41  1  0
 40 38  2  0
 43 44  1  0
 43 18  1  0
 45 43  1  0
 47 48  1  0
 47 46  2  0
 49 50  1  0
 49 48  2  0
 51 62  2  0
 52 50  1  0
 52 57  1  0
 53 61  1  0
 53 63  1  0
 54 60  1  0
 54 56  1  0
 55 61  1  0
 56 57  2  0
 56 55  1  0
 58 52  2  0
 59 58  1  0
 59 54  2  0
 60 53  1  0
 61 51  1  0
 63 65  2  0
 64 63  1  0
 66 64  1  0
 67 76  2  0
 67 72  1  0
 68 64  1  0
 68 72  1  0
 69 68  1  0
 70 71  1  0
 70 69  1  0
 71 67  1  0
 72 73  2  0
 73 74  1  0
 75 74  2  0
 76 75  1  0
 77 51  1  0
 77 82  1  0
 77 78  1  0
 78 81  1  1
 78 79  1  0
 80 78  1  0
 82 85  1  0
 83 87  1  0
 83 82  1  0
 84 83  2  0
 87 86  1  0
 89 90  1  0
 89 87  1  0
 89 88  1  0
 91 92  1  0
 92  5  1  0
M  ISO  4   8 100  16 100  49 101  50 101
M  END
>  <TORSDO>  (52) 
F 20

>  <SCORE>  (52) 
-13.927

>  <name>  (52) 
51

>  <ligand_id>  (52) 
51

>  <original_smiles>  (52) 
[H]C(=NC([H])([H])C([H])([H])Oc1c([H])c([H])c2c(c1[H])C([H])([H])N(C(=O)C([H])(N([H])C(=O)C([H])(N([H])C([H])([H])[H])C([H])([H])[H])C(C([H])([H])[H])(C([H])([H])[H])C([H])([H])[H])C([H])(C(=O)N([H])C1([H])c3c([H])c([H])c([H])c([H])c3C([H])([H])C([H])([H])C1([H])[H])C2([H])[H])c1c([H])c(OC([H])([H])[H])c(N([H])C(=O)N2C([H])([H])C([H])([H])C([H])([H])C([H])(n3nc(-c4c([H])c([H])c(Oc5c([H])c([H])c(F)c([H])c5F)c([H])c4[H])c(C(=O)N([H])[H])c3N([H])[H])C2([H])[H])c([H])c1F

>  <smiles>  (52) 
[H]C(=NC([H])([H])C([H])([H])Oc1c([H])c([H])c2c(c1[H])C([H])([H])N(C(=O)C([H])(N([H])C(=O)C([H])(N([H])C([H])([H])[H])C([H])([H])[H])C(C([H])([H])[H])(C([H])([H])[H])C([H])([H])[H])C([H])(C(=O)N([H])C1([H])c3c([H])c([H])c([H])c([H])c3C([H])([H])C([H])([H])C1([H])[H])C2([H])[H])c1c([H])c(OC([H])([H])[H])c(N([H])C(=O)N2C([H])([H])C([H])([H])C([H])([H])C([H])(n3nc(-c4c([H])c([H])c(Oc5c([H])c([H])c(F)c([H])c5F)c([H])c4[H])c(C(=O)N([H])[H])c3N([H])[H])C2([H])[H])c([H])c1F

$$$$
52:0:0
     RDKit          3D

 93101  0  0  1  0  0  0  0  0999 V2000
  -28.9500  -19.5830   20.1990 C   0  0  0  0  0  3  0  0  0  0  0  0
  -31.1740  -18.0670   20.9870 C   0  0  0  0  0  3  0  0  0  0  0  0
  -28.8990  -18.1560   20.2150 C   0  0  0  0  0  0  0  0  0  0  0  0
  -30.1060  -20.3090   20.5800 C   0  0  0  0  0  0  0  0  0  0  0  0
  -30.0000  -17.3440   20.6440 C   0  0  0  0  0  0  0  0  0  0  0  0
  -31.2230  -19.4980   20.9510 C   0  0  0  0  0  0  0  0  0  0  0  0
  -32.3850  -20.1050   21.2980 F   0  0  0  0  0  0  0  0  0  0  0  0
  -30.6630  -14.7990   20.5810 C   0  0  0  0  0  0  0  0  0  0  0  0
  -30.4710  -12.5410   19.5480 C   0  0  0  0  0  2  0  0  0  0  0  0
  -29.5480  -12.6440   18.3140 C   0  0  0  0  0  2  0  0  0  0  0  0
  -28.0740  -12.4600   18.7250 C   0  0  0  0  0  2  0  0  0  0  0  0
  -27.6740  -13.3420   19.9370 C   0  0  0  0  0  3  0  0  0  0  0  0
  -28.7190  -13.2400   21.0730 C   0  0  0  0  0  2  0  0  0  0  0  0
  -30.0370  -13.5770   20.5080 N   0  0  0  0  0  0  0  0  0  0  0  0
  -31.8520  -14.9240   20.2790 O   0  0  0  0  0  0  0  0  0  0  0  0
  -29.8400  -15.8820   20.7800 N   0  0  0  0  0  0  0  0  0  0  0  0
  -28.8890  -15.5920   20.9390 H   0  0  0  0  0  0  0  0  0  0  0  0
  -25.2530  -13.9120   20.6030 C   0  0  0  0  0  0  0  0  0  0  0  0
  -24.1910  -13.1320   20.9610 C   0  0  0  0  0  0  0  0  0  0  0  0
  -24.6690  -11.7890   20.9410 C   0  0  0  0  0  0  0  0  0  0  0  0
  -26.3180  -13.0470   20.3960 N   0  0  0  0  0  0  0  0  0  0  0  0
  -25.9680  -11.7620   20.6630 N   0  0  0  0  0  0  0  0  0  0  0  0
  -23.9470  -10.5230   21.1120 C   0  0  0  0  0  0  0  0  0  0  0  0
  -24.3680   -9.5550   22.0490 C   0  0  0  0  0  3  0  0  0  0  0  0
  -23.6430   -8.3550   22.2100 C   0  0  0  0  0  3  0  0  0  0  0  0
  -22.4830   -8.1180   21.4340 C   0  0  0  0  0  0  0  0  0  0  0  0
  -22.0810   -9.0760   20.4870 C   0  0  0  0  0  3  0  0  0  0  0  0
  -22.8070  -10.2670   20.3240 C   0  0  0  0  0  3  0  0  0  0  0  0
  -21.7330   -6.9670   21.5030 O   0  0  0  0  0  0  0  0  0  0  0  0
  -21.6670   -6.2190   22.6510 C   0  0  0  0  0  0  0  0  0  0  0  0
  -21.1880   -6.7600   23.8650 C   0  0  0  0  0  3  0  0  0  0  0  0
  -21.0710   -5.9380   25.0030 C   0  0  0  0  0  3  0  0  0  0  0  0
  -21.4240   -4.5780   24.9300 C   0  0  0  0  0  0  0  0  0  0  0  0
  -21.8970   -4.0370   23.7220 C   0  0  0  0  0  3  0  0  0  0  0  0
  -22.0160   -4.8550   22.5850 C   0  0  0  0  0  0  0  0  0  0  0  0
  -22.4530   -4.3260   21.4170 F   0  0  0  0  0  0  0  0  0  0  0  0
  -21.3040   -3.7860   26.0210 F   0  0  0  0  0  0  0  0  0  0  0  0
  -22.7850  -13.6020   21.1990 C   0  0  0  0  0  0  0  0  0  0  0  0
  -22.0430  -12.9100   22.0550 N   0  0  0  0  0  0  0  0  0  0  0  0
  -22.3540  -14.6250   20.6670 O   0  0  0  0  0  0  0  0  0  0  0  0
  -22.4080  -12.0870   22.5120 H   0  0  0  0  0  0  0  0  0  0  0  0
  -21.0990  -13.2070   22.2550 H   0  0  0  0  0  0  0  0  0  0  0  0
  -25.3720  -15.2770   20.4120 N   0  0  0  0  0  0  0  0  0  0  0  0
  -24.5590  -15.8850   20.4720 H   0  0  0  0  0  0  0  0  0  0  0  0
  -26.1570  -15.7140   19.9540 H   0  0  0  0  0  0  0  0  0  0  0  0
  -29.2980  -22.6480   20.3840 C   0  0  0  0  0  3  0  0  0  0  0  0
  -30.2240  -21.7500   20.5970 N   0  0  0  0  0  0  0  0  0  0  0  0
  -29.4420  -24.2150   20.4110 C   0  0  0  0  0  0  0  0  0  0  0  0
  -30.5350  -24.7480   20.6480 O   0  0  0  0  0  0  0  0  0  0  0  0
  -28.2010  -25.1410   20.1050 C   0  0  0  0  0  2  0  0  0  0  0  0
  -28.3840  -26.5950   20.3440 O   0  0  0  0  0  0  0  0  0  0  0  0
  -24.5890  -31.9730   23.3220 C   0  0  0  0  0  0  0  0  0  0  0  0
  -27.2450  -27.4190   20.2990 C   0  0  0  0  0  0  0  0  0  0  0  0
  -23.4000  -30.5680   21.6750 C   0  0  0  0  0  3  0  0  0  0  0  0
  -24.8670  -29.0130   20.2700 C   0  0  0  0  0  0  0  0  0  0  0  0
  -25.9400  -30.8910   21.5140 C   0  0  0  0  0  2  0  0  0  0  0  0
  -26.0280  -29.5100   20.8730 C   0  0  0  0  0  0  0  0  0  0  0  0
  -27.2200  -28.7250   20.8800 C   0  0  0  0  0  3  0  0  0  0  0  0
  -26.0540  -26.9690   19.6810 C   0  0  0  0  0  3  0  0  0  0  0  0
  -24.8800  -27.7470   19.6670 C   0  0  0  0  0  3  0  0  0  0  0  0
  -23.6280  -29.8840   20.3000 C   0  0  0  0  0  2  0  0  0  0  0  0
  -24.6610  -31.1610   22.2270 N   0  0  0  0  0  0  0  0  0  0  0  0
  -23.5010  -32.2520   23.8460 O   0  0  0  0  0  0  0  0  0  0  0  0
  -22.7290  -29.5550   22.6340 C   0  0  0  0  0  0  0  0  0  0  0  0
  -21.4060  -29.3700   22.4880 N   0  0  0  0  0  0  0  0  0  0  0  0
  -23.3990  -28.9370   23.4650 O   0  0  0  0  0  0  0  0  0  0  0  0
  -20.9260  -29.9230   21.7920 H   0  0  0  0  0  0  0  0  0  0  0  0
  -18.0240  -28.1800   22.9600 C   0  0  0  0  0  0  0  0  0  0  0  0
  -20.5800  -28.4350   23.2530 C   0  0  0  0  0  3  0  0  0  0  0  0
  -20.6840  -27.0020   22.6810 C   0  0  0  0  0  2  0  0  0  0  0  0
  -19.5900  -26.6800   21.6590 C   0  0  0  0  0  2  0  0  0  0  0  0
  -18.2020  -26.8290   22.2900 C   0  0  0  0  0  2  0  0  0  0  0  0
  -19.1390  -28.9420   23.3990 C   0  0  0  0  0  0  0  0  0  0  0  0
  -18.9170  -30.2060   23.9870 C   0  0  0  0  0  3  0  0  0  0  0  0
  -17.6120  -30.7090   24.1400 C   0  0  0  0  0  3  0  0  0  0  0  0
  -16.5100  -29.9450   23.7160 C   0  0  0  0  0  3  0  0  0  0  0  0
  -16.7160  -28.6820   23.1340 C   0  0  0  0  0  3  0  0  0  0  0  0
  -25.8650  -32.6070   23.9540 C   0  0  0  0  0  3  0  0  0  0  0  0
  -26.3650  -31.8430   25.2430 C   0  0  1  0  0  0  0  0  0  0  0  0
  -25.2560  -31.6140   26.2960 C   0  0  0  0  0  1  0  0  0  0  0  0
  -26.9570  -30.4640   24.8700 C   0  0  0  0  0  1  0  0  0  0  0  0
  -27.5030  -32.6460   25.9150 C   0  0  0  0  0  1  0  0  0  0  0  0
  -25.5540  -34.0070   24.2710 N   0  0  0  0  0  0  0  0  0  0  0  0
  -25.8960  -35.0560   23.5090 C   0  0  0  0  0  0  0  0  0  0  0  0
  -26.5760  -34.9410   22.4850 O   0  0  0  0  0  0  0  0  0  0  0  0
  -24.9520  -34.1670   25.0650 H   0  0  0  0  0  0  0  0  0  0  0  0
  -24.1860  -36.8560   23.1160 C   0  0  0  0  0  1  0  0  0  0  0  0
  -25.4090  -36.4470   23.9520 C   0  0  0  0  0  3  0  0  0  0  0  0
  -27.5280  -37.3330   24.8220 C   0  0  0  0  0  1  0  0  0  0  0  0
  -26.4500  -37.4920   23.8490 N   0  0  0  0  0  0  0  0  0  0  0  0
  -26.0480  -38.4180   23.9680 H   0  0  0  0  0  0  0  0  0  0  0  0
  -27.6510  -17.1910   18.2270 C   0  0  0  0  0  1  0  0  0  0  0  0
  -27.6150  -17.5170   19.7310 C   0  0  0  0  0  2  0  0  0  0  0  0
  1  3  2  0
  1  4  1  0
  3  5  1  0
  4 47  1  0
  4  6  2  0
  5 16  1  0
  5  2  2  0
  6  2  1  0
  6  7  1  0
  8 16  1  0
  9 14  1  0
 10 11  1  0
 10  9  1  0
 12 11  1  0
 12 21  1  0
 12 13  1  0
 14  8  1  0
 14 13  1  0
 15  8  2  0
 16 17  1  0
 18 19  2  0
 19 38  1  0
 20 19  1  0
 20 23  1  0
 21 18  1  0
 21 22  1  0
 22 20  2  0
 23 24  1  0
 24 25  2  0
 26 29  1  0
 26 25  1  0
 27 26  2  0
 28 27  1  0
 28 23  2  0
 29 30  1  0
 30 31  1  0
 31 32  2  0
 33 32  1  0
 33 37  1  0
 34 33  2  0
 35 30  2  0
 35 34  1  0
 36 35  1  0
 38 39  1  0
 39 42  1  0
 39 41  1  0
 40 38  2  0
 43 44  1  0
 43 18  1  0
 45 43  1  0
 46 48  1  0
 46 47  2  0
 48 49  2  0
 50 51  1  0
 50 48  1  0
 52 63  2  0
 53 51  1  0
 53 58  1  0
 54 62  1  0
 54 64  1  0
 55 61  1  0
 55 57  1  0
 56 62  1  0
 57 58  2  0
 57 56  1  0
 59 53  2  0
 60 59  1  0
 60 55  2  0
 61 54  1  0
 62 52  1  0
 64 66  2  0
 65 64  1  0
 67 65  1  0
 68 77  2  0
 68 73  1  0
 69 65  1  0
 69 73  1  0
 70 69  1  0
 71 72  1  0
 71 70  1  0
 72 68  1  0
 73 74  2  0
 74 75  1  0
 76 75  2  0
 77 76  1  0
 78 52  1  0
 78 83  1  0
 78 79  1  0
 79 82  1  1
 79 80  1  0
 81 79  1  0
 83 86  1  0
 84 88  1  0
 84 83  1  0
 85 84  2  0
 88 87  1  0
 90 88  1  0
 90 91  1  0
 90 89  1  0
 92 93  1  0
 93  3  1  0
M  ISO  4   8 100  16 100  50 101  51 101
M  END
>  <TORSDO>  (53) 
F 20

>  <SCORE>  (53) 
-13.978

>  <name>  (53) 
52

>  <ligand_id>  (53) 
52

>  <original_smiles>  (53) 
[H]C(=Nc1c([H])c(C([H])([H])C([H])([H])[H])c(N([H])C(=O)N2C([H])([H])C([H])([H])C([H])([H])C([H])(n3nc(-c4c([H])c([H])c(Oc5c([H])c([H])c(F)c([H])c5F)c([H])c4[H])c(C(=O)N([H])[H])c3N([H])[H])C2([H])[H])c([H])c1F)C(=O)C([H])([H])Oc1c([H])c([H])c2c(c1[H])C([H])([H])N(C(=O)C([H])(N([H])C(=O)C([H])(N([H])C([H])([H])[H])C([H])([H])[H])C(C([H])([H])[H])(C([H])([H])[H])C([H])([H])[H])C([H])(C(=O)N([H])C1([H])c3c([H])c([H])c([H])c([H])c3C([H])([H])C([H])([H])C1([H])[H])C2([H])[H]

>  <smiles>  (53) 
[H]C(=Nc1c([H])c(C([H])([H])C([H])([H])[H])c(N([H])C(=O)N2C([H])([H])C([H])([H])C([H])([H])C([H])(n3nc(-c4c([H])c([H])c(Oc5c([H])c([H])c(F)c([H])c5F)c([H])c4[H])c(C(=O)N([H])[H])c3N([H])[H])C2([H])[H])c([H])c1F)C(=O)C([H])([H])Oc1c([H])c([H])c2c(c1[H])C([H])([H])N(C(=O)C([H])(N([H])C(=O)C([H])(N([H])C([H])([H])[H])C([H])([H])[H])C(C([H])([H])[H])(C([H])([H])[H])C([H])([H])[H])C([H])(C(=O)N([H])C1([H])c3c([H])c([H])c([H])c([H])c3C([H])([H])C([H])([H])C1([H])[H])C2([H])[H]

$$$$
53:0:0
     RDKit          3D

 94102  0  0  1  0  0  0  0  0999 V2000
  -30.0030  -18.2070   21.5260 C   0  0  0  0  0  3  0  0  0  0  0  0
  -30.3000  -17.9320   19.1460 C   0  0  0  0  0  0  0  0  0  0  0  0
  -30.2140  -17.3160   20.4360 C   0  0  0  0  0  0  0  0  0  0  0  0
  -30.2730  -19.3610   19.0120 C   0  0  0  0  0  0  0  0  0  0  0  0
  -30.0700  -20.2500   20.1080 C   0  0  0  0  0  0  0  0  0  0  0  0
  -29.9230  -19.6270   21.3800 C   0  0  0  0  0  0  0  0  0  0  0  0
  -30.3530  -17.0900   17.8720 C   0  0  0  0  0  1  0  0  0  0  0  0
  -29.7300  -20.3810   22.4910 F   0  0  0  0  0  0  0  0  0  0  0  0
  -30.9550  -14.8320   20.2070 C   0  0  0  0  0  0  0  0  0  0  0  0
  -30.7370  -12.6060   19.1250 C   0  0  0  0  0  2  0  0  0  0  0  0
  -29.7700  -12.7450   17.9260 C   0  0  0  0  0  2  0  0  0  0  0  0
  -28.3030  -12.5920   18.3730 C   0  0  0  0  0  2  0  0  0  0  0  0
  -27.9670  -13.4420   19.6280 C   0  0  0  0  0  3  0  0  0  0  0  0
  -29.0390  -13.2600   20.7280 C   0  0  0  0  0  2  0  0  0  0  0  0
  -30.3470  -13.6050   20.1420 N   0  0  0  0  0  0  0  0  0  0  0  0
  -32.0860  -15.0100   19.7460 O   0  0  0  0  0  0  0  0  0  0  0  0
  -30.1880  -15.8640   20.6780 N   0  0  0  0  0  0  0  0  0  0  0  0
  -29.4050  -15.5410   21.2310 H   0  0  0  0  0  0  0  0  0  0  0  0
  -25.5810  -14.0450   20.3850 C   0  0  0  0  0  0  0  0  0  0  0  0
  -24.5150  -13.2720   20.7590 C   0  0  0  0  0  0  0  0  0  0  0  0
  -24.9690  -11.9180   20.7070 C   0  0  0  0  0  0  0  0  0  0  0  0
  -26.6200  -13.1620   20.1240 N   0  0  0  0  0  0  0  0  0  0  0  0
  -26.2560  -11.8780   20.3760 N   0  0  0  0  0  0  0  0  0  0  0  0
  -24.2400  -10.6570   20.8940 C   0  0  0  0  0  0  0  0  0  0  0  0
  -24.6410   -9.7090   21.8610 C   0  0  0  0  0  3  0  0  0  0  0  0
  -23.9130   -8.5140   22.0400 C   0  0  0  0  0  3  0  0  0  0  0  0
  -22.7690   -8.2550   21.2450 C   0  0  0  0  0  0  0  0  0  0  0  0
  -22.3840   -9.1930   20.2690 C   0  0  0  0  0  3  0  0  0  0  0  0
  -23.1160  -10.3790   20.0910 C   0  0  0  0  0  3  0  0  0  0  0  0
  -22.0160   -7.1100   21.3280 O   0  0  0  0  0  0  0  0  0  0  0  0
  -21.8780   -6.4220   22.5080 C   0  0  0  0  0  0  0  0  0  0  0  0
  -21.2830   -7.0070   23.6460 C   0  0  0  0  0  3  0  0  0  0  0  0
  -21.0970   -6.2400   24.8140 C   0  0  0  0  0  3  0  0  0  0  0  0
  -21.4980   -4.8920   24.8440 C   0  0  0  0  0  0  0  0  0  0  0  0
  -22.0890   -4.3090   23.7120 C   0  0  0  0  0  3  0  0  0  0  0  0
  -22.2760   -5.0720   22.5440 C   0  0  0  0  0  0  0  0  0  0  0  0
  -22.8260   -4.4980   21.4480 F   0  0  0  0  0  0  0  0  0  0  0  0
  -21.3140   -4.1530   25.9650 F   0  0  0  0  0  0  0  0  0  0  0  0
  -23.1250  -13.7560   21.0590 C   0  0  0  0  0  0  0  0  0  0  0  0
  -22.4130  -13.0640   21.9400 N   0  0  0  0  0  0  0  0  0  0  0  0
  -22.6830  -14.7850   20.5520 O   0  0  0  0  0  0  0  0  0  0  0  0
  -22.7920  -12.2390   22.3790 H   0  0  0  0  0  0  0  0  0  0  0  0
  -21.4820  -13.3720   22.1840 H   0  0  0  0  0  0  0  0  0  0  0  0
  -25.7530  -15.4170   20.2260 N   0  0  0  0  0  0  0  0  0  0  0  0
  -24.9870  -16.0690   20.3560 H   0  0  0  0  0  0  0  0  0  0  0  0
  -26.5950  -15.8540   19.8760 H   0  0  0  0  0  0  0  0  0  0  0  0
  -30.4130  -19.9430   17.7500 N   0  0  0  0  0  0  0  0  0  0  0  0
  -30.1830  -19.3900   16.9320 H   0  0  0  0  0  0  0  0  0  0  0  0
  -30.1300  -20.9160   17.6790 H   0  0  0  0  0  0  0  0  0  0  0  0
  -30.0810  -21.6400   19.8260 O   0  0  0  0  0  0  0  0  0  0  0  0
  -29.3650  -22.6700   20.5840 C   0  0  0  0  0  2  0  0  0  0  0  0
  -29.5440  -24.1600   20.0170 C   0  0  0  0  0  3  0  0  0  0  0  0
  -28.4140  -25.2330   20.3400 C   0  0  0  0  0  3  0  0  0  0  0  0
  -28.6090  -26.6590   19.9650 O   0  0  0  0  0  0  0  0  0  0  0  0
  -24.7860  -31.8290   23.2560 C   0  0  0  0  0  0  0  0  0  0  0  0
  -27.4750  -27.4860   19.9750 C   0  0  0  0  0  0  0  0  0  0  0  0
  -23.6060  -30.5050   21.5390 C   0  0  0  0  0  3  0  0  0  0  0  0
  -25.0840  -29.0550   20.0380 C   0  0  0  0  0  0  0  0  0  0  0  0
  -26.1400  -30.8740   21.3770 C   0  0  0  0  0  2  0  0  0  0  0  0
  -26.2450  -29.5340   20.6610 C   0  0  0  0  0  0  0  0  0  0  0  0
  -27.4440  -28.7600   20.6210 C   0  0  0  0  0  3  0  0  0  0  0  0
  -26.2910  -27.0640   19.3270 C   0  0  0  0  0  3  0  0  0  0  0  0
  -25.1060  -27.8240   19.3680 C   0  0  0  0  0  3  0  0  0  0  0  0
  -23.8340  -29.9090   20.1250 C   0  0  0  0  0  2  0  0  0  0  0  0
  -24.8640  -31.0850   22.1150 N   0  0  0  0  0  0  0  0  0  0  0  0
  -23.7000  -32.0580   23.8070 O   0  0  0  0  0  0  0  0  0  0  0  0
  -22.9610  -29.4240   22.4410 C   0  0  0  0  0  0  0  0  0  0  0  0
  -21.6390  -29.2270   22.3000 N   0  0  0  0  0  0  0  0  0  0  0  0
  -23.6490  -28.7650   23.2270 O   0  0  0  0  0  0  0  0  0  0  0  0
  -21.1390  -29.8070   21.6390 H   0  0  0  0  0  0  0  0  0  0  0  0
  -18.2830  -27.9650   22.7470 C   0  0  0  0  0  0  0  0  0  0  0  0
  -20.8400  -28.2390   23.0220 C   0  0  0  0  0  3  0  0  0  0  0  0
  -20.9570  -26.8430   22.3670 C   0  0  0  0  0  2  0  0  0  0  0  0
  -19.8550  -26.5680   21.3390 C   0  0  0  0  0  2  0  0  0  0  0  0
  -18.4740  -26.6600   21.9920 C   0  0  0  0  0  2  0  0  0  0  0  0
  -19.3950  -28.7140   23.2170 C   0  0  0  0  0  0  0  0  0  0  0  0
  -19.1630  -29.9370   23.8820 C   0  0  0  0  0  3  0  0  0  0  0  0
  -17.8540  -30.4120   24.0820 C   0  0  0  0  0  3  0  0  0  0  0  0
  -16.7570  -29.6600   23.6290 C   0  0  0  0  0  3  0  0  0  0  0  0
  -16.9720  -28.4390   22.9650 C   0  0  0  0  0  3  0  0  0  0  0  0
  -26.0590  -32.4500   23.9090 C   0  0  0  0  0  3  0  0  0  0  0  0
  -25.7430  -33.8410   24.2600 N   0  0  0  0  0  0  0  0  0  0  0  0
  -26.0900  -34.9090   23.5280 C   0  0  0  0  0  0  0  0  0  0  0  0
  -26.7780  -34.8270   22.5080 O   0  0  0  0  0  0  0  0  0  0  0  0
  -25.1360  -33.9800   25.0530 H   0  0  0  0  0  0  0  0  0  0  0  0
  -24.3880  -36.7240   23.1630 C   0  0  0  0  0  1  0  0  0  0  0  0
  -25.5970  -36.2890   24.0060 C   0  0  0  0  0  3  0  0  0  0  0  0
  -27.6950  -37.1470   24.9500 C   0  0  0  0  0  1  0  0  0  0  0  0
  -26.6400  -37.3370   23.9600 N   0  0  0  0  0  0  0  0  0  0  0  0
  -26.2290  -38.2540   24.1110 H   0  0  0  0  0  0  0  0  0  0  0  0
  -26.5530  -31.6560   25.1820 C   0  0  1  0  0  0  0  0  0  0  0  0
  -25.4440  -31.4000   26.2260 C   0  0  0  0  0  1  0  0  0  0  0  0
  -27.1440  -30.2860   24.7770 C   0  0  0  0  0  1  0  0  0  0  0  0
  -27.6820  -32.4470   25.8860 C   0  0  0  0  0  1  0  0  0  0  0  0
  2  3  1  0
  3 17  1  0
  3  1  2  0
  4  2  2  0
  4  5  1  0
  5  6  2  0
  6  1  1  0
  6  8  1  0
  7  2  1  0
  9 17  1  0
 10 15  1  0
 11 12  1  0
 11 10  1  0
 13 12  1  0
 13 22  1  0
 13 14  1  0
 15  9  1  0
 15 14  1  0
 16  9  2  0
 17 18  1  0
 19 20  2  0
 20 39  1  0
 21 20  1  0
 21 24  1  0
 22 23  1  0
 22 19  1  0
 23 21  2  0
 24 25  1  0
 25 26  2  0
 27 30  1  0
 27 26  1  0
 28 27  2  0
 29 28  1  0
 29 24  2  0
 30 31  1  0
 31 36  2  0
 31 32  1  0
 32 33  2  0
 33 34  1  0
 34 38  1  0
 35 34  2  0
 36 35  1  0
 37 36  1  0
 39 40  1  0
 40 43  1  0
 40 42  1  0
 41 39  2  0
 44 45  1  0
 44 19  1  0
 46 44  1  0
 47  4  1  0
 48 47  1  0
 49 47  1  0
 50  5  1  0
 50 51  1  0
 52 53  2  0
 52 51  1  0
 54 56  1  0
 54 53  1  0
 55 66  2  0
 56 61  1  0
 57 65  1  0
 57 67  1  0
 58 64  1  0
 58 60  1  0
 59 65  1  0
 60 59  1  0
 61 60  2  0
 62 63  1  0
 62 56  2  0
 63 58  2  0
 64 57  1  0
 65 55  1  0
 67 69  2  0
 68 67  1  0
 70 68  1  0
 71 80  2  0
 71 76  1  0
 72 68  1  0
 72 76  1  0
 73 72  1  0
 74 75  1  0
 74 73  1  0
 75 71  1  0
 76 77  2  0
 77 78  1  0
 79 78  2  0
 80 79  1  0
 81 55  1  0
 81 82  1  0
 81 91  1  0
 82 85  1  0
 83 87  1  0
 83 82  1  0
 84 83  2  0
 87 86  1  0
 89 87  1  0
 89 90  1  0
 89 88  1  0
 91 94  1  1
 91 92  1  0
 93 91  1  0
M  ISO  4   9 100  17 100  53 101  54 101
M  END
>  <TORSDO>  (54) 
F 21

>  <SCORE>  (54) 
-12.547

>  <name>  (54) 
53

>  <ligand_id>  (54) 
53

>  <original_smiles>  (54) 
[H]c1c([H])c([H])c2c(c1[H])C([H])([H])C([H])([H])C([H])([H])C2([H])N([H])C(=O)C1([H])N(C(=O)C([H])(N([H])C(=O)C([H])(N([H])C([H])([H])[H])C([H])([H])[H])C(C([H])([H])[H])(C([H])([H])[H])C([H])([H])[H])C([H])([H])c2c([H])c(OC([H])([H])C([H])([H])C([H])([H])Oc3c(F)c([H])c(N([H])C(=O)N4C([H])([H])C([H])([H])C([H])([H])C([H])(n5nc(-c6c([H])c([H])c(Oc7c([H])c([H])c(F)c([H])c7F)c([H])c6[H])c(C(=O)N([H])[H])c5N([H])[H])C4([H])[H])c(C([H])([H])[H])c3N([H])[H])c([H])c([H])c2C1([H])[H]

>  <smiles>  (54) 
[H]c1c([H])c([H])c2c(c1[H])C([H])([H])C([H])([H])C([H])([H])C2([H])N([H])C(=O)C1([H])N(C(=O)C([H])(N([H])C(=O)C([H])(N([H])C([H])([H])[H])C([H])([H])[H])C(C([H])([H])[H])(C([H])([H])[H])C([H])([H])[H])C([H])([H])c2c([H])c(OC([H])([H])C([H])([H])C([H])([H])Oc3c(F)c([H])c(N([H])C(=O)N4C([H])([H])C([H])([H])C([H])([H])C([H])(n5nc(-c6c([H])c([H])c(Oc7c([H])c([H])c(F)c([H])c7F)c([H])c6[H])c(C(=O)N([H])[H])c5N([H])[H])C4([H])[H])c(C([H])([H])[H])c3N([H])[H])c([H])c([H])c2C1([H])[H]

$$$$
54:0:0
     RDKit          3D

 96104  0  0  1  0  0  0  0  0999 V2000
  -30.3910  -19.9280   21.3760 C   0  0  0  0  0  3  0  0  0  0  0  0
  -31.0380  -17.5510   21.3710 C   0  0  0  0  0  0  0  0  0  0  0  0
  -29.6860  -19.8120   20.1530 C   0  0  0  0  0  0  0  0  0  0  0  0
  -30.4090  -17.3400   20.1130 C   0  0  0  0  0  0  0  0  0  0  0  0
  -31.0420  -18.8300   21.9900 C   0  0  0  0  0  0  0  0  0  0  0  0
  -29.7260  -18.4920   19.5280 C   0  0  0  0  0  0  0  0  0  0  0  0
  -31.0810  -14.8230   19.6240 C   0  0  0  0  0  0  0  0  0  0  0  0
  -30.7810  -12.4730   18.8000 C   0  0  0  0  0  2  0  0  0  0  0  0
  -29.7230  -12.4670   17.6720 C   0  0  0  0  0  2  0  0  0  0  0  0
  -28.3000  -12.3690   18.2600 C   0  0  0  0  0  2  0  0  0  0  0  0
  -28.0650  -13.3650   19.4260 C   0  0  0  0  0  3  0  0  0  0  0  0
  -29.2230  -13.3210   20.4470 C   0  0  0  0  0  2  0  0  0  0  0  0
  -30.4560  -13.6010   19.7000 N   0  0  0  0  0  0  0  0  0  0  0  0
  -32.2550  -14.8970   19.2470 O   0  0  0  0  0  0  0  0  0  0  0  0
  -30.2520  -15.9340   19.6570 N   0  0  0  0  0  0  0  0  0  0  0  0
  -29.2890  -15.6450   19.7000 H   0  0  0  0  0  0  0  0  0  0  0  0
  -25.8500  -14.1210   20.4760 C   0  0  0  0  0  0  0  0  0  0  0  0
  -24.7640  -13.4230   20.9250 C   0  0  0  0  0  0  0  0  0  0  0  0
  -25.0850  -12.0410   20.7560 C   0  0  0  0  0  0  0  0  0  0  0  0
  -26.7670  -13.1700   20.0600 N   0  0  0  0  0  0  0  0  0  0  0  0
  -26.3200  -11.9090   20.2900 N   0  0  0  0  0  0  0  0  0  0  0  0
  -24.2660  -10.8400   20.9570 C   0  0  0  0  0  0  0  0  0  0  0  0
  -24.6830   -9.7990   21.8160 C   0  0  0  0  0  3  0  0  0  0  0  0
  -23.8710   -8.6610   22.0060 C   0  0  0  0  0  3  0  0  0  0  0  0
  -22.6270   -8.5550   21.3390 C   0  0  0  0  0  0  0  0  0  0  0  0
  -22.2290   -9.5830   20.4670 C   0  0  0  0  0  3  0  0  0  0  0  0
  -23.0410  -10.7130   20.2740 C   0  0  0  0  0  3  0  0  0  0  0  0
  -21.7840   -7.4780   21.4450 O   0  0  0  0  0  0  0  0  0  0  0  0
  -21.6930   -6.7460   22.6010 C   0  0  0  0  0  0  0  0  0  0  0  0
  -21.3150   -7.3330   23.8290 C   0  0  0  0  0  3  0  0  0  0  0  0
  -21.1690   -6.5310   24.9770 C   0  0  0  0  0  3  0  0  0  0  0  0
  -21.3900   -5.1430   24.9010 C   0  0  0  0  0  0  0  0  0  0  0  0
  -21.7610   -4.5550   23.6790 C   0  0  0  0  0  3  0  0  0  0  0  0
  -21.9110   -5.3550   22.5320 C   0  0  0  0  0  0  0  0  0  0  0  0
  -22.2490   -4.7820   21.3530 F   0  0  0  0  0  0  0  0  0  0  0  0
  -21.2420   -4.3690   26.0020 F   0  0  0  0  0  0  0  0  0  0  0  0
  -23.4610  -14.0040   21.3920 C   0  0  0  0  0  0  0  0  0  0  0  0
  -22.7900  -13.3330   22.3230 N   0  0  0  0  0  0  0  0  0  0  0  0
  -23.0540  -15.0840   20.9670 O   0  0  0  0  0  0  0  0  0  0  0  0
  -23.1380  -12.4570   22.6850 H   0  0  0  0  0  0  0  0  0  0  0  0
  -21.9170  -13.6970   22.6750 H   0  0  0  0  0  0  0  0  0  0  0  0
  -26.1220  -15.4820   20.3600 N   0  0  0  0  0  0  0  0  0  0  0  0
  -25.4310  -16.1810   20.6080 H   0  0  0  0  0  0  0  0  0  0  0  0
  -26.9490  -15.8740   19.9320 H   0  0  0  0  0  0  0  0  0  0  0  0
  -29.9100  -18.4430   17.2070 C   0  0  0  0  0  1  0  0  0  0  0  0
  -29.0630  -18.3170   18.3420 O   0  0  0  0  0  0  0  0  0  0  0  0
  -28.9140  -22.1890   20.1140 C   0  0  0  0  0  3  0  0  0  0  0  0
  -29.0460  -20.9920   19.5640 N   0  0  0  0  0  0  0  0  0  0  0  0
  -28.3900  -23.5190   19.3910 C   0  0  0  0  0  2  0  0  0  0  0  0
  -27.9290  -24.8630   20.2120 C   0  0  0  0  0  2  0  0  0  0  0  0
  -28.1670  -26.3480   20.1350 O   0  0  0  0  0  0  0  0  0  0  0  0
  -24.7430  -31.9400   23.2690 C   0  0  0  0  0  0  0  0  0  0  0  0
  -27.0740  -27.2420   20.1510 C   0  0  0  0  0  0  0  0  0  0  0  0
  -23.4270  -30.5640   21.6980 C   0  0  0  0  0  3  0  0  0  0  0  0
  -24.7640  -28.9490   20.2260 C   0  0  0  0  0  0  0  0  0  0  0  0
  -25.9660  -30.7970   21.4000 C   0  0  0  0  0  2  0  0  0  0  0  0
  -25.9760  -29.4060   20.7620 C   0  0  0  0  0  0  0  0  0  0  0  0
  -27.1330  -28.5650   20.7080 C   0  0  0  0  0  3  0  0  0  0  0  0
  -25.8350  -26.8420   19.6050 C   0  0  0  0  0  3  0  0  0  0  0  0
  -24.6990  -27.6730   19.6380 C   0  0  0  0  0  3  0  0  0  0  0  0
  -23.5610  -29.8690   20.3170 C   0  0  0  0  0  2  0  0  0  0  0  0
  -24.7350  -31.1190   22.1770 N   0  0  0  0  0  0  0  0  0  0  0  0
  -23.6940  -32.2610   23.8450 O   0  0  0  0  0  0  0  0  0  0  0  0
  -22.7690  -29.5820   22.6970 C   0  0  0  0  0  0  0  0  0  0  0  0
  -21.4500  -29.3670   22.5570 N   0  0  0  0  0  0  0  0  0  0  0  0
  -23.4450  -29.0100   23.5580 O   0  0  0  0  0  0  0  0  0  0  0  0
  -20.9630  -29.8760   21.8320 H   0  0  0  0  0  0  0  0  0  0  0  0
  -18.0950  -28.0860   23.0290 C   0  0  0  0  0  0  0  0  0  0  0  0
  -20.6360  -28.4460   23.3550 C   0  0  0  0  0  3  0  0  0  0  0  0
  -20.8000  -26.9890   22.8640 C   0  0  0  0  0  2  0  0  0  0  0  0
  -19.7380  -26.5720   21.8410 C   0  0  0  0  0  2  0  0  0  0  0  0
  -18.3350  -26.7060   22.4380 C   0  0  0  0  0  2  0  0  0  0  0  0
  -19.1780  -28.9090   23.4430 C   0  0  0  0  0  0  0  0  0  0  0  0
  -18.9060  -30.1960   23.9560 C   0  0  0  0  0  3  0  0  0  0  0  0
  -17.5840  -30.6620   24.0640 C   0  0  0  0  0  3  0  0  0  0  0  0
  -16.5150  -29.8390   23.6670 C   0  0  0  0  0  3  0  0  0  0  0  0
  -16.7710  -28.5530   23.1550 C   0  0  0  0  0  3  0  0  0  0  0  0
  -26.0720  -32.5350   23.8280 C   0  0  0  0  0  3  0  0  0  0  0  0
  -25.7810  -33.8940   24.3070 N   0  0  0  0  0  0  0  0  0  0  0  0
  -26.0400  -35.0150   23.6210 C   0  0  0  0  0  0  0  0  0  0  0  0
  -26.6160  -35.0120   22.5290 O   0  0  0  0  0  0  0  0  0  0  0  0
  -25.2530  -33.9660   25.1640 H   0  0  0  0  0  0  0  0  0  0  0  0
  -24.2730  -36.8060   23.5840 C   0  0  0  0  0  1  0  0  0  0  0  0
  -25.5870  -36.3510   24.2400 C   0  0  0  0  0  3  0  0  0  0  0  0
  -27.7860  -37.1910   24.9410 C   0  0  0  0  0  1  0  0  0  0  0  0
  -26.5960  -37.4260   24.1270 N   0  0  0  0  0  0  0  0  0  0  0  0
  -26.1990  -38.3220   24.3960 H   0  0  0  0  0  0  0  0  0  0  0  0
  -26.7010  -31.6630   24.9840 C   0  0  1  0  0  0  0  0  0  0  0  0
  -25.6830  -31.2480   26.0720 C   0  0  0  0  0  1  0  0  0  0  0  0
  -27.3390  -30.3730   24.4160 C   0  0  0  0  0  1  0  0  0  0  0  0
  -27.8390  -32.4550   25.6690 C   0  0  0  0  0  1  0  0  0  0  0  0
  -31.1580  -15.9240   23.2550 C   0  0  0  0  0  2  0  0  0  0  0  0
  -31.6350  -16.4170   22.0990 C   0  0  0  0  0  3  0  0  0  0  0  0
  -31.7170  -18.9390   23.1960 O   0  0  0  0  0  0  0  0  0  0  0  0
  -30.4490  -20.4150   24.6970 C   0  0  0  0  0  1  0  0  0  0  0  0
  -31.7420  -20.1820   23.8970 C   0  0  0  0  0  2  0  0  0  0  0  0
  1  5  1  0
  2  5  2  0
  2 93  1  0
  3  1  2  0
  4  2  1  0
  5 94  1  0
  6  4  2  0
  6  3  1  0
  7 15  1  0
  7 13  1  0
  8 13  1  0
  9 10  1  0
  9  8  1  0
 11 10  1  0
 11 20  1  0
 11 12  1  0
 13 12  1  0
 14  7  2  0
 15 16  1  0
 15  4  1  0
 17 18  2  0
 18 37  1  0
 19 18  1  0
 19 22  1  0
 20 21  1  0
 20 17  1  0
 21 19  2  0
 22 23  1  0
 23 24  2  0
 25 28  1  0
 25 24  1  0
 26 25  2  0
 27 26  1  0
 27 22  2  0
 28 29  1  0
 29 30  1  0
 30 31  2  0
 32 31  1  0
 32 36  1  0
 33 32  2  0
 34 29  2  0
 34 33  1  0
 35 34  1  0
 37 38  1  0
 38 41  1  0
 38 40  1  0
 39 37  2  0
 42 17  1  0
 42 43  1  0
 44 42  1  0
 45 46  1  0
 46  6  1  0
 48 47  2  0
 48  3  1  0
 49 47  1  0
 49 50  1  0
 51 53  1  0
 51 50  1  0
 52 63  2  0
 53 58  1  0
 54 62  1  0
 54 64  1  0
 55 61  1  0
 55 57  1  0
 56 62  1  0
 57 56  1  0
 58 57  2  0
 59 60  1  0
 59 53  2  0
 60 55  2  0
 61 54  1  0
 62 52  1  0
 64 66  2  0
 65 64  1  0
 67 65  1  0
 68 77  2  0
 68 73  1  0
 69 65  1  0
 69 73  1  0
 70 69  1  0
 71 72  1  0
 71 70  1  0
 72 68  1  0
 73 74  2  0
 74 75  1  0
 76 75  2  0
 77 76  1  0
 78 52  1  0
 78 79  1  0
 78 88  1  0
 79 82  1  0
 80 84  1  0
 80 79  1  0
 81 80  2  0
 84 83  1  0
 86 84  1  0
 86 87  1  0
 86 85  1  0
 88 91  1  1
 88 89  1  0
 90 88  1  0
 93 92  2  0
 94 96  1  0
 96 95  1  0
M  ISO  4   7 100  15 100  50 101  51 101
M  END
>  <TORSDO>  (55) 
F 23

>  <SCORE>  (55) 
-9.626

>  <name>  (55) 
54

>  <ligand_id>  (55) 
54

>  <original_smiles>  (55) 
[H]C(=Nc1c([H])c(OC([H])([H])C([H])([H])[H])c(C([H])=C([H])[H])c(N([H])C(=O)N2C([H])([H])C([H])([H])C([H])([H])C([H])(n3nc(-c4c([H])c([H])c(Oc5c([H])c([H])c(F)c([H])c5F)c([H])c4[H])c(C(=O)N([H])[H])c3N([H])[H])C2([H])[H])c1OC([H])([H])[H])C([H])([H])C([H])([H])Oc1c([H])c([H])c2c(c1[H])C([H])([H])N(C(=O)C([H])(N([H])C(=O)C([H])(N([H])C([H])([H])[H])C([H])([H])[H])C(C([H])([H])[H])(C([H])([H])[H])C([H])([H])[H])C([H])(C(=O)N([H])C1([H])c3c([H])c([H])c([H])c([H])c3C([H])([H])C([H])([H])C1([H])[H])C2([H])[H]

>  <smiles>  (55) 
[H]C(=Nc1c([H])c(OC([H])([H])C([H])([H])[H])c(C([H])=C([H])[H])c(N([H])C(=O)N2C([H])([H])C([H])([H])C([H])([H])C([H])(n3nc(-c4c([H])c([H])c(Oc5c([H])c([H])c(F)c([H])c5F)c([H])c4[H])c(C(=O)N([H])[H])c3N([H])[H])C2([H])[H])c1OC([H])([H])[H])C([H])([H])C([H])([H])Oc1c([H])c([H])c2c(c1[H])C([H])([H])N(C(=O)C([H])(N([H])C(=O)C([H])(N([H])C([H])([H])[H])C([H])([H])[H])C(C([H])([H])[H])(C([H])([H])[H])C([H])([H])[H])C([H])(C(=O)N([H])C1([H])c3c([H])c([H])c([H])c([H])c3C([H])([H])C([H])([H])C1([H])[H])C2([H])[H]

$$$$
55:0:0
     RDKit          3D

 94102  0  0  1  0  0  0  0  0999 V2000
  -27.5270  -17.7060   19.2870 C   0  0  0  0  0  3  0  0  0  0  0  0
  -29.7790  -18.2020   20.8580 C   0  0  0  0  0  3  0  0  0  0  0  0
  -28.5100  -16.7000   19.4120 C   0  0  0  0  0  0  0  0  0  0  0  0
  -27.6970  -18.9790   19.8610 C   0  0  0  0  0  0  0  0  0  0  0  0
  -29.5930  -16.8860   20.3220 C   0  0  0  0  0  0  0  0  0  0  0  0
  -28.8910  -19.2810   20.5580 C   0  0  0  0  0  0  0  0  0  0  0  0
  -26.5850  -19.9990   19.6840 C   0  0  0  0  0  1  0  0  0  0  0  0
  -30.8990  -14.9640   21.4020 C   0  0  0  0  0  0  0  0  0  0  0  0
  -30.8110  -12.6150   20.7130 C   0  0  0  0  0  2  0  0  0  0  0  0
  -30.0990  -12.4830   19.3590 C   0  0  0  0  0  2  0  0  0  0  0  0
  -28.5700  -12.3690   19.5500 C   0  0  0  0  0  2  0  0  0  0  0  0
  -27.9780  -13.3530   20.6030 C   0  0  0  0  0  3  0  0  0  0  0  0
  -28.8590  -13.4930   21.8550 C   0  0  0  0  0  2  0  0  0  0  0  0
  -30.2110  -13.7860   21.3640 N   0  0  0  0  0  0  0  0  0  0  0  0
  -32.0390  -14.9660   21.8600 O   0  0  0  0  0  0  0  0  0  0  0  0
  -30.6560  -15.8980   20.3960 N   0  0  0  0  0  0  0  0  0  0  0  0
  -25.5050  -13.9430   20.9570 C   0  0  0  0  0  0  0  0  0  0  0  0
  -24.3990  -13.1590   21.1370 C   0  0  0  0  0  0  0  0  0  0  0  0
  -24.8700  -11.8120   21.1630 C   0  0  0  0  0  0  0  0  0  0  0  0
  -26.5790  -13.0670   20.8890 N   0  0  0  0  0  0  0  0  0  0  0  0
  -26.1920  -11.7820   21.0740 N   0  0  0  0  0  0  0  0  0  0  0  0
  -24.1340  -10.5440   21.2080 C   0  0  0  0  0  0  0  0  0  0  0  0
  -24.4500   -9.5440   22.1540 C   0  0  0  0  0  3  0  0  0  0  0  0
  -23.7180   -8.3390   22.1930 C   0  0  0  0  0  3  0  0  0  0  0  0
  -22.6540   -8.1260   21.2850 C   0  0  0  0  0  0  0  0  0  0  0  0
  -22.3600   -9.1140   20.3280 C   0  0  0  0  0  3  0  0  0  0  0  0
  -23.0930  -10.3110   20.2870 C   0  0  0  0  0  3  0  0  0  0  0  0
  -21.9020   -6.9770   21.2340 O   0  0  0  0  0  0  0  0  0  0  0  0
  -21.7330   -6.1790   22.3380 C   0  0  0  0  0  0  0  0  0  0  0  0
  -21.1780   -6.6760   23.5370 C   0  0  0  0  0  3  0  0  0  0  0  0
  -20.9560   -5.8070   24.6240 C   0  0  0  0  0  3  0  0  0  0  0  0
  -21.2800   -4.4410   24.5110 C   0  0  0  0  0  0  0  0  0  0  0  0
  -21.8290   -3.9430   23.3160 C   0  0  0  0  0  3  0  0  0  0  0  0
  -22.0510   -4.8110   22.2310 C   0  0  0  0  0  0  0  0  0  0  0  0
  -22.5600   -4.3210   21.0750 F   0  0  0  0  0  0  0  0  0  0  0  0
  -21.0610   -3.6040   25.5520 F   0  0  0  0  0  0  0  0  0  0  0  0
  -22.9720  -13.6250   21.1850 C   0  0  0  0  0  0  0  0  0  0  0  0
  -22.1230  -12.9140   21.9180 N   0  0  0  0  0  0  0  0  0  0  0  0
  -22.6140  -14.6520   20.6110 O   0  0  0  0  0  0  0  0  0  0  0  0
  -22.4250  -12.0830   22.4050 H   0  0  0  0  0  0  0  0  0  0  0  0
  -21.1580  -13.2040   21.9940 H   0  0  0  0  0  0  0  0  0  0  0  0
  -25.6850  -15.3170   20.8280 N   0  0  0  0  0  0  0  0  0  0  0  0
  -24.9040  -15.9630   20.8050 H   0  0  0  0  0  0  0  0  0  0  0  0
  -26.5720  -15.7570   20.6160 H   0  0  0  0  0  0  0  0  0  0  0  0
  -31.7090  -17.2440   18.4350 C   0  0  0  0  0  1  0  0  0  0  0  0
  -31.8830  -16.3020   19.6480 C   0  0  0  0  0  2  0  0  0  0  0  0
  -27.3010  -14.9480   18.0450 C   0  0  0  0  0  2  0  0  0  0  0  0
  -28.4170  -15.5130   18.5340 C   0  0  0  0  0  3  0  0  0  0  0  0
  -29.1760  -20.5840   20.9640 O   0  0  0  0  0  0  0  0  0  0  0  0
  -29.0290  -21.6530   19.9860 C   0  0  0  0  0  2  0  0  0  0  0  0
  -28.5770  -23.0220   20.6000 C   0  0  0  0  0  2  0  0  0  0  0  0
  -28.4740  -24.2470   19.6170 C   0  0  0  0  0  3  0  0  0  0  0  0
  -27.9790  -25.5810   20.2700 C   0  0  0  0  0  3  0  0  0  0  0  0
  -27.9580  -26.7560   19.4100 O   0  0  0  0  0  0  0  0  0  0  0  0
  -24.6250  -31.9380   23.0690 C   0  0  0  0  0  0  0  0  0  0  0  0
  -26.8450  -27.5740   19.5410 C   0  0  0  0  0  0  0  0  0  0  0  0
  -23.2350  -30.6480   21.4830 C   0  0  0  0  0  3  0  0  0  0  0  0
  -24.5090  -29.1570   19.8460 C   0  0  0  0  0  0  0  0  0  0  0  0
  -25.7410  -30.9590   21.0600 C   0  0  0  0  0  2  0  0  0  0  0  0
  -25.7340  -29.6200   20.3450 C   0  0  0  0  0  0  0  0  0  0  0  0
  -26.9090  -28.8400   20.1820 C   0  0  0  0  0  3  0  0  0  0  0  0
  -25.6050  -27.1410   19.0300 C   0  0  0  0  0  3  0  0  0  0  0  0
  -24.4410  -27.9190   19.1830 C   0  0  0  0  0  3  0  0  0  0  0  0
  -23.2980  -30.0370   20.0570 C   0  0  0  0  0  2  0  0  0  0  0  0
  -24.5590  -31.1940   21.9270 N   0  0  0  0  0  0  0  0  0  0  0  0
  -23.6070  -32.2020   23.7240 O   0  0  0  0  0  0  0  0  0  0  0  0
  -22.6530  -29.5900   22.4500 C   0  0  0  0  0  0  0  0  0  0  0  0
  -21.3330  -29.3600   22.3640 N   0  0  0  0  0  0  0  0  0  0  0  0
  -23.3860  -28.9810   23.2350 O   0  0  0  0  0  0  0  0  0  0  0  0
  -20.7990  -29.9050   21.7010 H   0  0  0  0  0  0  0  0  0  0  0  0
  -18.0480  -27.9380   22.8660 C   0  0  0  0  0  0  0  0  0  0  0  0
  -20.5790  -28.3810   23.1470 C   0  0  0  0  0  3  0  0  0  0  0  0
  -20.7860  -26.9500   22.5980 C   0  0  0  0  0  2  0  0  0  0  0  0
  -19.7170  -26.5330   21.5840 C   0  0  0  0  0  2  0  0  0  0  0  0
  -18.3240  -26.5930   22.2160 C   0  0  0  0  0  2  0  0  0  0  0  0
  -19.1070  -28.7840   23.2900 C   0  0  0  0  0  0  0  0  0  0  0  0
  -18.7960  -30.0390   23.8570 C   0  0  0  0  0  3  0  0  0  0  0  0
  -17.4580  -30.4520   24.0030 C   0  0  0  0  0  3  0  0  0  0  0  0
  -16.4130  -29.6030   23.5960 C   0  0  0  0  0  3  0  0  0  0  0  0
  -16.7090  -28.3480   23.0340 C   0  0  0  0  0  3  0  0  0  0  0  0
  -25.9790  -32.5110   23.5920 C   0  0  0  0  0  3  0  0  0  0  0  0
  -25.7350  -33.8910   24.0310 N   0  0  0  0  0  0  0  0  0  0  0  0
  -26.0320  -34.9820   23.3130 C   0  0  0  0  0  0  0  0  0  0  0  0
  -26.6130  -34.9290   22.2260 O   0  0  0  0  0  0  0  0  0  0  0  0
  -25.2160  -34.0080   24.8900 H   0  0  0  0  0  0  0  0  0  0  0  0
  -24.3280  -36.8290   23.2080 C   0  0  0  0  0  1  0  0  0  0  0  0
  -25.6190  -36.3480   23.8920 C   0  0  0  0  0  3  0  0  0  0  0  0
  -27.8340  -37.1330   24.6000 C   0  0  0  0  0  1  0  0  0  0  0  0
  -26.6650  -37.3840   23.7620 N   0  0  0  0  0  0  0  0  0  0  0  0
  -26.2960  -38.3010   23.9980 H   0  0  0  0  0  0  0  0  0  0  0  0
  -26.6060  -31.6580   24.7630 C   0  0  1  0  0  0  0  0  0  0  0  0
  -25.6230  -31.3800   25.9230 C   0  0  0  0  0  1  0  0  0  0  0  0
  -27.1120  -30.2940   24.2340 C   0  0  0  0  0  1  0  0  0  0  0  0
  -27.8360  -32.3910   25.3470 C   0  0  0  0  0  1  0  0  0  0  0  0
  1  3  2  0
  1  4  1  0
  3  5  1  0
  4  6  2  0
  5 16  1  0
  5  2  2  0
  6  2  1  0
  6 49  1  0
  7  4  1  0
  8 15  2  0
  9 14  1  0
 10 11  1  0
 10  9  1  0
 12 11  1  0
 12 20  1  0
 12 13  1  0
 14  8  1  0
 14 13  1  0
 16  8  1  0
 17 18  2  0
 18 19  1  0
 18 37  1  0
 19 22  1  0
 20 17  1  0
 20 21  1  0
 21 19  2  0
 22 23  1  0
 23 24  2  0
 25 24  1  0
 26 25  2  0
 27 26  1  0
 27 22  2  0
 28 25  1  0
 28 29  1  0
 29 30  1  0
 30 31  2  0
 32 31  1  0
 32 36  1  0
 33 32  2  0
 34 29  2  0
 34 33  1  0
 35 34  1  0
 37 38  1  0
 38 41  1  0
 38 40  1  0
 39 37  2  0
 42 17  1  0
 43 42  1  0
 44 42  1  0
 45 46  1  0
 46 16  1  0
 47 48  2  0
 48  3  1  0
 50 51  1  0
 50 49  1  0
 52 53  2  0
 52 51  1  0
 54 56  1  0
 54 53  1  0
 55 66  2  0
 56 61  1  0
 57 65  1  0
 57 67  1  0
 58 64  1  0
 58 60  1  0
 59 65  1  0
 60 59  1  0
 61 60  2  0
 62 63  1  0
 62 56  2  0
 63 58  2  0
 64 57  1  0
 65 55  1  0
 67 69  2  0
 68 67  1  0
 70 68  1  0
 71 80  2  0
 71 76  1  0
 72 68  1  0
 72 76  1  0
 73 72  1  0
 74 75  1  0
 74 73  1  0
 75 71  1  0
 76 77  2  0
 77 78  1  0
 79 78  2  0
 80 79  1  0
 81 55  1  0
 81 82  1  0
 81 91  1  0
 82 85  1  0
 83 87  1  0
 83 82  1  0
 84 83  2  0
 87 86  1  0
 89 87  1  0
 89 90  1  0
 89 88  1  0
 91 94  1  1
 91 92  1  0
 93 91  1  0
M  ISO  4   8 100  16 100  53 101  54 101
M  END
>  <TORSDO>  (56) 
F 23

>  <SCORE>  (56) 
-8.526

>  <name>  (56) 
55

>  <ligand_id>  (56) 
55

>  <original_smiles>  (56) 
[H]C([H])=C([H])c1c([H])c(C([H])([H])[H])c(OC([H])([H])C([H])([H])C([H])([H])C([H])([H])Oc2c([H])c([H])c3c(c2[H])C([H])([H])N(C(=O)C([H])(N([H])C(=O)C([H])(N([H])C([H])([H])[H])C([H])([H])[H])C(C([H])([H])[H])(C([H])([H])[H])C([H])([H])[H])C([H])(C(=O)N([H])C2([H])c4c([H])c([H])c([H])c([H])c4C([H])([H])C([H])([H])C2([H])[H])C3([H])[H])c([H])c1N(C(=O)N1C([H])([H])C([H])([H])C([H])([H])C([H])(n2nc(-c3c([H])c([H])c(Oc4c([H])c([H])c(F)c([H])c4F)c([H])c3[H])c(C(=O)N([H])[H])c2N([H])[H])C1([H])[H])C([H])([H])C([H])([H])[H]

>  <smiles>  (56) 
[H]C([H])=C([H])c1c([H])c(C([H])([H])[H])c(OC([H])([H])C([H])([H])C([H])([H])C([H])([H])Oc2c([H])c([H])c3c(c2[H])C([H])([H])N(C(=O)C([H])(N([H])C(=O)C([H])(N([H])C([H])([H])[H])C([H])([H])[H])C(C([H])([H])[H])(C([H])([H])[H])C([H])([H])[H])C([H])(C(=O)N([H])C2([H])c4c([H])c([H])c([H])c([H])c4C([H])([H])C([H])([H])C2([H])[H])C3([H])[H])c([H])c1N(C(=O)N1C([H])([H])C([H])([H])C([H])([H])C([H])(n2nc(-c3c([H])c([H])c(Oc4c([H])c([H])c(F)c([H])c4F)c([H])c3[H])c(C(=O)N([H])[H])c2N([H])[H])C1([H])[H])C([H])([H])C([H])([H])[H]

$$$$
56:0:0
     RDKit          3D

 95103  0  0  1  0  0  0  0  0999 V2000
  -27.7980  -14.5340   18.1910 C   0  0  0  0  0  1  0  0  0  0  0  0
  -26.4280  -15.8520   18.4480 C   0  0  0  0  0  2  0  0  0  0  0  0
  -28.8100  -13.9830   19.9340 C   0  0  0  0  0  3  0  0  0  0  0  0
  -28.5080  -14.8190   21.3620 C   0  0  1  0  0  0  0  0  0  0  0  0
  -26.3000  -16.7340   20.1020 C   0  0  0  0  0  3  0  0  0  0  0  0
  -27.7200  -19.5660   20.2390 C   0  0  0  0  0  0  0  0  0  0  0  0
  -27.1690  -15.9970   21.4680 N   0  0  0  0  0  2  0  0  0  0  0  0
  -26.7320  -18.4120   19.8390 N   0  0  0  0  0  0  0  0  0  0  0  0
  -28.3300  -19.3210   21.2810 O   0  0  0  0  0  0  0  0  0  0  0  0
  -26.2480  -18.7340   19.0130 H   0  0  0  0  0  0  0  0  0  0  0  0
  -28.5880  -12.9720   21.2900 C   0  0  0  0  0  3  0  0  0  0  0  0
  -29.3470  -12.0570   21.9770 C   0  0  0  0  0  3  0  0  0  0  0  0
  -29.5160   -9.9760   23.4010 C   0  0  0  0  0  1  0  0  0  0  0  0
  -28.8670  -11.3530   23.2310 C   0  0  0  0  0  2  0  0  0  0  0  0
  -30.2000  -14.9580   21.2560 C   0  0  0  0  0  3  0  0  0  0  0  0
  -31.2220  -14.2290   20.6130 N   0  0  0  0  0  0  0  0  0  0  0  0
  -31.4420  -13.0720   19.6250 C   0  0  0  0  0  0  0  0  0  0  0  0
  -30.9120  -11.0200   18.1330 C   0  0  0  0  0  2  0  0  0  0  0  0
  -29.6530  -10.9530   17.1530 C   0  0  0  0  0  2  0  0  0  0  0  0
  -28.1830  -10.8340   17.7910 C   0  0  0  0  0  2  0  0  0  0  0  0
  -28.1590  -11.5290   19.1370 C   0  0  0  0  0  3  0  0  0  0  0  0
  -29.4920  -11.1070   19.8950 C   0  0  0  0  0  2  0  0  0  0  0  0
  -30.7020  -11.8620   19.3690 N   0  0  0  0  0  0  0  0  0  0  0  0
  -32.4330  -13.1770   18.8840 O   0  0  0  0  0  0  0  0  0  0  0  0
  -26.5980  -13.8360   20.3910 C   0  0  0  0  0  2  0  0  0  0  0  0
  -25.3330  -13.1260   20.8720 C   0  0  0  0  0  0  0  0  0  0  0  0
  -25.2440  -11.6040   20.7800 C   0  0  0  0  0  0  0  0  0  0  0  0
  -26.8850  -12.2730   19.8210 N   0  0  0  0  0  0  0  0  0  0  0  0
  -26.2450  -11.1780   20.1700 N   0  0  0  0  0  2  0  0  0  0  0  0
  -24.3110  -10.3830   21.0610 C   0  0  0  0  0  0  0  0  0  0  0  0
  -24.7140   -9.2390   21.8340 C   0  0  0  0  0  3  0  0  0  0  0  0
  -23.8680   -8.1110   22.0710 C   0  0  0  0  0  3  0  0  0  0  0  0
  -22.5650   -8.0610   21.5200 C   0  0  0  0  0  0  0  0  0  0  0  0
  -22.1860   -9.1300   20.6830 C   0  0  0  0  0  3  0  0  0  0  0  0
  -23.0340  -10.2480   20.4560 C   0  0  0  0  0  3  0  0  0  0  0  0
  -21.6650   -7.0150   21.6850 O   0  0  0  0  0  0  0  0  0  0  0  0
  -21.6520   -6.1830   22.7880 C   0  0  0  0  0  0  0  0  0  0  0  0
  -21.4510   -6.6750   24.0980 C   0  0  0  0  0  3  0  0  0  0  0  0
  -21.3880   -5.7860   25.1930 C   0  0  0  0  0  3  0  0  0  0  0  0
  -21.5130   -4.3990   24.9880 C   0  0  0  0  0  0  0  0  0  0  0  0
  -21.6890   -3.9000   23.6860 C   0  0  0  0  0  3  0  0  0  0  0  0
  -21.7500   -4.7860   22.5930 C   0  0  0  0  0  0  0  0  0  0  0  0
  -21.8930   -4.2840   21.3430 F   0  0  0  0  0  0  0  0  0  0  0  0
  -21.4620   -3.5460   26.0380 F   0  0  0  0  0  0  0  0  0  0  0  0
  -24.0150  -13.6860   21.3230 C   0  0  0  0  0  0  0  0  0  0  0  0
  -23.3400  -13.0540   22.2960 N   0  0  0  0  0  0  0  0  0  0  0  0
  -23.5300  -14.6510   20.7570 O   0  0  0  0  0  0  0  0  0  0  0  0
  -23.7230  -12.2480   22.7690 H   0  0  0  0  0  0  0  0  0  0  0  0
  -22.4410  -13.4070   22.5900 H   0  0  0  0  0  0  0  0  0  0  0  0
  -28.4180  -15.8120   19.8650 N   0  0  0  0  0  4  0  0  0  0  0  0
  -28.3960  -16.6420   20.4490 H   0  0  0  0  0  0  0  0  0  0  0  0
  -29.3230  -15.5990   19.4640 H   0  0  0  0  0  0  0  0  0  0  0  0
  -28.2800  -21.2430   19.5670 C   0  0  0  0  0  3  0  0  0  0  0  0
  -28.6730  -23.0830   20.1380 C   0  0  0  0  0  3  0  0  0  0  0  0
  -29.1850  -24.7380   19.6940 O   0  0  0  0  0  0  0  0  0  0  0  0
  -25.6890  -30.6300   23.1260 C   0  0  0  0  0  0  0  0  0  0  0  0
  -28.4280  -26.0580   19.7300 C   0  0  0  0  0  0  0  0  0  0  0  0
  -24.6580  -29.2610   21.3820 C   0  0  0  0  0  3  0  0  0  0  0  0
  -26.2130  -27.9960   19.7700 C   0  0  0  0  0  0  0  0  0  0  0  0
  -27.1980  -29.6970   21.2690 C   0  0  0  0  0  2  0  0  0  0  0  0
  -27.3680  -28.3500   20.4770 C   0  0  0  0  0  0  0  0  0  0  0  0
  -28.5040  -27.3940   20.4320 C   0  0  0  0  0  3  0  0  0  0  0  0
  -27.3180  -25.9850   18.9020 C   0  0  0  0  0  3  0  0  0  0  0  0
  -26.2340  -26.8710   18.9460 C   0  0  0  0  0  3  0  0  0  0  0  0
  -24.9340  -28.8020   19.9300 C   0  0  0  0  0  2  0  0  0  0  0  0
  -25.8720  -29.9010   21.9760 N   0  0  0  0  0  0  0  0  0  0  0  0
  -24.5740  -30.7320   23.6650 O   0  0  0  0  0  0  0  0  0  0  0  0
  -24.1240  -28.0780   22.2360 C   0  0  0  0  0  0  0  0  0  0  0  0
  -22.8730  -27.6470   21.9950 N   0  0  0  0  0  0  0  0  0  0  0  0
  -24.8420  -27.5630   23.0970 O   0  0  0  0  0  0  0  0  0  0  0  0
  -22.3320  -28.1250   21.2860 H   0  0  0  0  0  0  0  0  0  0  0  0
  -19.8360  -25.6650   22.1080 C   0  0  0  0  0  0  0  0  0  0  0  0
  -22.2130  -26.5210   22.6660 C   0  0  0  0  0  3  0  0  0  0  0  0
  -22.7160  -25.1700   22.1080 C   0  0  0  0  0  2  0  0  0  0  0  0
  -21.8430  -24.6250   20.9720 C   0  0  0  0  0  2  0  0  0  0  0  0
  -20.4040  -24.4180   21.4520 C   0  0  0  0  0  2  0  0  0  0  0  0
  -20.6860  -26.6590   22.6650 C   0  0  0  0  0  0  0  0  0  0  0  0
  -20.1030  -27.8120   23.2350 C   0  0  0  0  0  3  0  0  0  0  0  0
  -18.7050  -27.9780   23.2570 C   0  0  0  0  0  3  0  0  0  0  0  0
  -17.8700  -26.9850   22.7160 C   0  0  0  0  0  3  0  0  0  0  0  0
  -18.4370  -25.8310   22.1470 C   0  0  0  0  0  3  0  0  0  0  0  0
  -26.8640  -31.3860   23.8100 C   0  0  0  0  0  3  0  0  0  0  0  0
  -26.3720  -32.7200   24.2070 N   0  0  0  0  0  0  0  0  0  0  0  0
  -26.5950  -33.8580   23.5350 C   0  0  0  0  0  0  0  0  0  0  0  0
  -27.2970  -33.9040   22.5230 O   0  0  0  0  0  0  0  0  0  0  0  0
  -25.7410  -32.7490   24.9930 H   0  0  0  0  0  0  0  0  0  0  0  0
  -24.6950  -35.4900   23.2350 C   0  0  0  0  0  1  0  0  0  0  0  0
  -25.9400  -35.1490   24.0710 C   0  0  0  0  0  3  0  0  0  0  0  0
  -27.9160  -36.2030   25.0810 C   0  0  0  0  0  1  0  0  0  0  0  0
  -26.8520  -36.3140   24.0870 N   0  0  0  0  0  0  0  0  0  0  0  0
  -26.3380  -37.1710   24.2680 H   0  0  0  0  0  0  0  0  0  0  0  0
  -27.4300  -30.6290   25.0750 C   0  0  1  0  0  0  0  0  0  0  0  0
  -26.3440  -30.2430   26.1070 C   0  0  0  0  0  1  0  0  0  0  0  0
  -28.1630  -29.3320   24.6680 C   0  0  0  0  0  1  0  0  0  0  0  0
  -28.4760  -31.5170   25.7900 C   0  0  0  0  0  1  0  0  0  0  0  0
  1  2  1  0
  3 11  1  0
  3  4  1  0
  4 15  1  0
  4  7  1  6
  5  2  1  0
  5  7  1  0
  6  9  2  0
  8  5  1  0
  8  6  1  0
 10  8  1  0
 11 12  2  0
 12 14  1  0
 14 13  1  0
 16 15  2  0
 17 16  1  0
 18 23  1  0
 19 20  1  0
 19 18  1  0
 21 20  1  0
 21 28  1  0
 21 22  1  0
 23 17  1  0
 23 22  1  0
 24 17  2  0
 25 26  1  0
 26 45  1  0
 27 26  2  0
 27 30  1  0
 28 29  1  0
 28 25  1  0
 29 27  1  0
 30 31  1  0
 31 32  2  0
 33 36  1  0
 33 32  1  0
 34 33  2  0
 35 34  1  0
 35 30  2  0
 36 37  1  0
 37 38  1  0
 38 39  2  0
 40 39  1  0
 40 44  1  0
 41 40  2  0
 42 37  2  0
 42 41  1  0
 43 42  1  0
 45 46  1  0
 46 49  1  0
 46 48  1  0
 47 45  2  0
 50  3  1  0
 50 51  1  0
 50  4  1  0
 52 50  1  0
 53 54  2  0
 53  6  1  0
 55 57  1  0
 55 54  1  0
 56 67  2  0
 57 62  1  0
 58 66  1  0
 58 68  1  0
 59 65  1  0
 59 61  1  0
 60 66  1  0
 61 60  1  0
 62 61  2  0
 63 64  1  0
 63 57  2  0
 64 59  2  0
 65 58  1  0
 66 56  1  0
 68 70  2  0
 69 68  1  0
 71 69  1  0
 72 81  2  0
 72 77  1  0
 73 69  1  0
 74 73  1  0
 75 76  1  0
 75 74  1  0
 76 72  1  0
 77 73  1  0
 77 78  2  0
 78 79  1  0
 80 79  2  0
 81 80  1  0
 82 56  1  0
 82 83  1  0
 82 92  1  0
 83 86  1  0
 84 88  1  0
 84 83  1  0
 85 84  2  0
 88 87  1  0
 88 90  1  0
 90 91  1  0
 90 89  1  0
 92 95  1  1
 92 93  1  0
 94 92  1  0
M  ISO  4  16 100  17 100  54 101  55 101
M  END
>  <TORSDO>  (57) 
F 21

>  <SCORE>  (57) 
-3.399

>  <name>  (57) 
56

>  <ligand_id>  (57) 
56

>  <original_smiles>  (57) 
[H]C(=NC(=O)N1C([H])([H])C([H])([H])C([H])([H])C([H])(n2nc(-c3c([H])c([H])c(Oc4c([H])c([H])c(F)c([H])c4F)c([H])c3[H])c(C(=O)N([H])[H])c2N([H])[H])C1([H])[H])c1nc(N([H])C(=O)C([H])([H])C([H])([H])Oc2c([H])c([H])c3c(c2[H])C([H])([H])N(C(=O)C([H])(N([H])C(=O)C([H])(N([H])C([H])([H])[H])C([H])([H])[H])C(C([H])([H])[H])(C([H])([H])[H])C([H])([H])[H])C([H])(C(=O)N([H])C2([H])c4c([H])c([H])c([H])c([H])c4C([H])([H])C([H])([H])C2([H])[H])C3([H])[H])c([H])c([H])c1C([H])=C([H])C([H])([H])C([H])([H])[H]

>  <smiles>  (57) 
[H]C(=NC(=O)N1C([H])([H])C([H])([H])C([H])([H])C([H])(n2nc(-c3c([H])c([H])c(Oc4c([H])c([H])c(F)c([H])c4F)c([H])c3[H])c(C(=O)N([H])[H])c2N([H])[H])C1([H])[H])c1nc(N([H])C(=O)C([H])([H])C([H])([H])Oc2c([H])c([H])c3c(c2[H])C([H])([H])N(C(=O)C([H])(N([H])C(=O)C([H])(N([H])C([H])([H])[H])C([H])([H])[H])C(C([H])([H])[H])(C([H])([H])[H])C([H])([H])[H])C([H])(C(=O)N([H])C2([H])c4c([H])c([H])c([H])c([H])c4C([H])([H])C([H])([H])C2([H])[H])C3([H])[H])c([H])c([H])c1C([H])=C([H])C([H])([H])C([H])([H])[H]

$$$$
57:0:0
     RDKit          3D

 97105  0  0  1  0  0  0  0  0999 V2000
  -29.9050  -20.1540   21.5210 C   0  0  0  0  0  3  0  0  0  0  0  0
  -31.7510  -19.4230   19.5700 C   0  0  0  0  0  3  0  0  0  0  0  0
  -30.6090  -18.9380   21.6730 C   0  0  0  0  0  0  0  0  0  0  0  0
  -31.5350  -18.5570   20.6690 C   0  0  0  0  0  0  0  0  0  0  0  0
  -30.1190  -21.0210   20.4200 C   0  0  0  0  0  0  0  0  0  0  0  0
  -31.0580  -20.6460   19.4170 C   0  0  0  0  0  0  0  0  0  0  0  0
  -29.3480  -18.2370   23.7340 C   0  0  0  0  0  2  0  0  0  0  0  0
  -30.3540  -18.0870   22.8540 C   0  0  0  0  0  3  0  0  0  0  0  0
  -31.3730  -21.3920   18.2860 O   0  0  0  0  0  0  0  0  0  0  0  0
  -30.4760  -22.4200   17.8500 C   0  0  0  0  0  2  0  0  0  0  0  0
  -31.0530  -23.2660   16.6920 C   0  0  0  0  0  2  0  0  0  0  0  0
  -31.6090  -24.6680   17.0450 C   0  0  0  0  0  2  0  0  0  0  0  0
  -30.9270  -25.3400   18.2570 C   0  0  0  0  0  2  0  0  0  0  0  0
  -30.7700  -26.7650   18.0970 O   0  0  0  0  0  0  0  0  0  0  0  0
  -26.9500  -29.2250   23.5810 C   0  0  0  0  0  0  0  0  0  0  0  0
  -29.5650  -27.2830   18.5220 C   0  0  0  0  0  0  0  0  0  0  0  0
  -25.6810  -28.7100   21.5220 C   0  0  0  0  0  3  0  0  0  0  0  0
  -27.0820  -28.2890   19.4310 C   0  0  0  0  0  0  0  0  0  0  0  0
  -28.1350  -29.4210   21.3950 C   0  0  0  0  0  2  0  0  0  0  0  0
  -28.2560  -28.5770   20.1400 C   0  0  0  0  0  0  0  0  0  0  0  0
  -29.5010  -28.0860   19.6850 C   0  0  0  0  0  3  0  0  0  0  0  0
  -28.3740  -27.0220   17.8070 C   0  0  0  0  0  3  0  0  0  0  0  0
  -27.1360  -27.5140   18.2590 C   0  0  0  0  0  3  0  0  0  0  0  0
  -25.7890  -28.8500   19.9800 C   0  0  0  0  0  2  0  0  0  0  0  0
  -26.9470  -29.1030   22.2220 N   0  0  0  0  0  0  0  0  0  0  0  0
  -25.9180  -29.0570   24.2430 O   0  0  0  0  0  0  0  0  0  0  0  0
  -25.2170  -27.2750   21.8570 C   0  0  0  0  0  0  0  0  0  0  0  0
  -23.9250  -26.9930   21.6170 N   0  0  0  0  0  0  0  0  0  0  0  0
  -26.0120  -26.4400   22.2960 O   0  0  0  0  0  0  0  0  0  0  0  0
  -23.3370  -27.7360   21.2660 H   0  0  0  0  0  0  0  0  0  0  0  0
  -20.7900  -25.2230   21.2870 C   0  0  0  0  0  0  0  0  0  0  0  0
  -23.2760  -25.6970   21.8190 C   0  0  0  0  0  3  0  0  0  0  0  0
  -23.6020  -24.7240   20.6620 C   0  0  0  0  0  2  0  0  0  0  0  0
  -22.5590  -24.7470   19.5400 C   0  0  0  0  0  2  0  0  0  0  0  0
  -21.1760  -24.3770   20.0850 C   0  0  0  0  0  2  0  0  0  0  0  0
  -21.7760  -25.8560   22.0910 C   0  0  0  0  0  0  0  0  0  0  0  0
  -21.3620  -26.6590   23.1750 C   0  0  0  0  0  3  0  0  0  0  0  0
  -19.9960  -26.8360   23.4610 C   0  0  0  0  0  3  0  0  0  0  0  0
  -19.0240  -26.1960   22.6720 C   0  0  0  0  0  3  0  0  0  0  0  0
  -19.4230  -25.3880   21.5910 C   0  0  0  0  0  3  0  0  0  0  0  0
  -28.2460  -29.6060   24.3630 C   0  0  0  0  0  3  0  0  0  0  0  0
  -28.8610  -28.3980   25.1720 C   0  0  1  0  0  0  0  0  0  0  0  0
  -27.8400  -27.6720   26.0790 C   0  0  0  0  0  1  0  0  0  0  0  0
  -29.4640  -27.3510   24.2080 C   0  0  0  0  0  1  0  0  0  0  0  0
  -30.0240  -28.9000   26.0600 C   0  0  0  0  0  1  0  0  0  0  0  0
  -27.9090  -30.7160   25.2630 N   0  0  0  0  0  0  0  0  0  0  0  0
  -28.2470  -31.9960   25.0530 C   0  0  0  0  0  0  0  0  0  0  0  0
  -28.9490  -32.3550   24.1030 O   0  0  0  0  0  0  0  0  0  0  0  0
  -27.2860  -30.5030   26.0280 H   0  0  0  0  0  0  0  0  0  0  0  0
  -26.5300  -33.7900   25.4470 C   0  0  0  0  0  1  0  0  0  0  0  0
  -27.7270  -33.0430   26.0560 C   0  0  0  0  0  3  0  0  0  0  0  0
  -29.8040  -33.4240   27.3090 C   0  0  0  0  0  1  0  0  0  0  0  0
  -28.7590  -34.0160   26.4780 N   0  0  0  0  0  0  0  0  0  0  0  0
  -28.3400  -34.7830   26.9960 H   0  0  0  0  0  0  0  0  0  0  0  0
  -29.4710  -22.2360   20.3170 O   0  0  0  0  0  0  0  0  0  0  0  0
  -28.0770  -22.3150   20.5700 C   0  0  0  0  0  2  0  0  0  0  0  0
  -26.0030  -23.6120   19.8410 C   0  0  0  0  0  1  0  0  0  0  0  0
  -27.5250  -23.4720   19.7320 C   0  0  0  0  0  2  0  0  0  0  0  0
  -32.3550  -17.2640   20.7560 C   0  0  0  0  0  2  0  0  0  0  0  0
  -32.0040  -15.0030   19.7740 C   0  0  0  0  0  0  0  0  0  0  0  0
  -31.3730  -12.8570   18.7280 C   0  0  0  0  0  2  0  0  0  0  0  0
  -30.3560  -13.0860   17.5920 C   0  0  0  0  0  2  0  0  0  0  0  0
  -28.9190  -13.1200   18.1410 C   0  0  0  0  0  2  0  0  0  0  0  0
  -28.7710  -14.0550   19.3710 C   0  0  0  0  0  3  0  0  0  0  0  0
  -29.8840  -13.7860   20.4080 C   0  0  0  0  0  2  0  0  0  0  0  0
  -31.1840  -13.9190   19.7280 N   0  0  0  0  0  0  0  0  0  0  0  0
  -33.0440  -15.0800   19.1130 O   0  0  0  0  0  0  0  0  0  0  0  0
  -31.6010  -16.0210   20.5500 N   0  0  0  0  0  0  0  0  0  0  0  0
  -30.7360  -15.9090   21.0570 H   0  0  0  0  0  0  0  0  0  0  0  0
  -26.5860  -14.9490   20.3970 C   0  0  0  0  0  0  0  0  0  0  0  0
  -25.4390  -14.3180   20.7990 C   0  0  0  0  0  0  0  0  0  0  0  0
  -25.6580  -12.9230   20.5780 C   0  0  0  0  0  0  0  0  0  0  0  0
  -27.4390  -13.9460   19.9640 N   0  0  0  0  0  0  0  0  0  0  0  0
  -26.8880  -12.7150   20.1250 N   0  0  0  0  0  0  0  0  0  0  0  0
  -24.7460  -11.7790   20.7160 C   0  0  0  0  0  0  0  0  0  0  0  0
  -25.0990  -10.6410   21.4740 C   0  0  0  0  0  3  0  0  0  0  0  0
  -24.1980   -9.5630   21.6070 C   0  0  0  0  0  3  0  0  0  0  0  0
  -22.9310   -9.6150   20.9800 C   0  0  0  0  0  0  0  0  0  0  0  0
  -22.5940  -10.7400   20.2060 C   0  0  0  0  0  3  0  0  0  0  0  0
  -23.4940  -11.8110   20.0710 C   0  0  0  0  0  3  0  0  0  0  0  0
  -22.0020   -8.6030   21.0320 O   0  0  0  0  0  0  0  0  0  0  0  0
  -21.9090   -7.7660   22.1140 C   0  0  0  0  0  0  0  0  0  0  0  0
  -21.6790   -8.2570   23.4190 C   0  0  0  0  0  3  0  0  0  0  0  0
  -21.5210   -7.3570   24.4920 C   0  0  0  0  0  3  0  0  0  0  0  0
  -21.5850   -5.9700   24.2630 C   0  0  0  0  0  0  0  0  0  0  0  0
  -21.8080   -5.4790   22.9640 C   0  0  0  0  0  3  0  0  0  0  0  0
  -21.9670   -6.3750   21.8930 C   0  0  0  0  0  0  0  0  0  0  0  0
  -22.1610   -5.8970   20.6410 F   0  0  0  0  0  0  0  0  0  0  0  0
  -21.4260   -5.1040   25.2920 F   0  0  0  0  0  0  0  0  0  0  0  0
  -24.1760  -14.9750   21.2760 C   0  0  0  0  0  0  0  0  0  0  0  0
  -23.4430  -14.3200   22.1680 N   0  0  0  0  0  0  0  0  0  0  0  0
  -23.8570  -16.0990   20.8930 O   0  0  0  0  0  0  0  0  0  0  0  0
  -23.7140  -13.4050   22.4960 H   0  0  0  0  0  0  0  0  0  0  0  0
  -22.5990  -14.7380   22.5300 H   0  0  0  0  0  0  0  0  0  0  0  0
  -26.9670  -16.2860   20.3430 N   0  0  0  0  0  0  0  0  0  0  0  0
  -26.3460  -17.0410   20.6130 H   0  0  0  0  0  0  0  0  0  0  0  0
  -27.8600  -16.6120   19.9940 H   0  0  0  0  0  0  0  0  0  0  0  0
  1  3  1  0
  2  4  1  0
  3  8  1  0
  4 59  1  0
  4  3  2  0
  5  1  2  0
  6  2  2  0
  6  5  1  0
  8  7  2  0
  9  6  1  0
 10  9  1  0
 11 12  1  0
 11 10  1  0
 12 13  1  0
 14 13  1  0
 14 16  1  0
 15 26  2  0
 16 21  1  0
 17 27  1  0
 17 25  1  0
 18 24  1  0
 18 20  1  0
 19 25  1  0
 20 19  1  0
 21 20  2  0
 22 23  1  0
 22 16  2  0
 23 18  2  0
 24 17  1  0
 25 15  1  0
 27 29  2  0
 28 27  1  0
 30 28  1  0
 31 40  2  0
 31 36  1  0
 32 28  1  0
 32 36  1  0
 33 32  1  0
 34 35  1  0
 34 33  1  0
 35 31  1  0
 36 37  2  0
 37 38  1  0
 39 38  2  0
 40 39  1  0
 41 15  1  0
 41 42  1  0
 41 46  1  0
 42 45  1  1
 42 43  1  0
 44 42  1  0
 46 49  1  0
 47 46  1  0
 47 51  1  0
 48 47  2  0
 51 50  1  0
 51 53  1  0
 53 54  1  0
 53 52  1  0
 55  5  1  0
 55 56  1  0
 58 57  1  0
 58 56  1  0
 60 68  1  0
 61 66  1  0
 62 63  1  0
 62 61  1  0
 64 63  1  0
 64 73  1  0
 64 65  1  0
 66 60  1  0
 66 65  1  0
 67 60  2  0
 68 59  1  0
 68 69  1  0
 70 71  2  0
 71 90  1  0
 72 75  1  0
 72 71  1  0
 73 74  1  0
 73 70  1  0
 74 72  2  0
 75 76  1  0
 76 77  2  0
 78 81  1  0
 78 77  1  0
 79 78  2  0
 80 79  1  0
 80 75  2  0
 81 82  1  0
 82 83  1  0
 83 84  2  0
 85 84  1  0
 85 89  1  0
 86 85  2  0
 87 82  2  0
 87 86  1  0
 88 87  1  0
 90 91  1  0
 91 93  1  0
 91 94  1  0
 92 90  2  0
 95 70  1  0
 95 96  1  0
 97 95  1  0
M  ISO  4  13 101  14 101  60 100  68 100
M  END
>  <TORSDO>  (58) 
F 26

>  <SCORE>  (58) 
-2.078

>  <name>  (58) 
57

>  <ligand_id>  (58) 
57

>  <original_smiles>  (58) 
[H]C([H])=C([H])c1c([H])c(OC([H])([H])C([H])([H])C([H])([H])[H])c(OC([H])([H])C([H])([H])C([H])([H])C([H])([H])Oc2c([H])c([H])c3c(c2[H])C([H])([H])N(C(=O)C([H])(N([H])C(=O)C([H])(N([H])C([H])([H])[H])C([H])([H])[H])C(C([H])([H])[H])(C([H])([H])[H])C([H])([H])[H])C([H])(C(=O)N([H])C2([H])c4c([H])c([H])c([H])c([H])c4C([H])([H])C([H])([H])C2([H])[H])C3([H])[H])c([H])c1C([H])([H])N([H])C(=O)N1C([H])([H])C([H])([H])C([H])([H])C([H])(n2nc(-c3c([H])c([H])c(Oc4c([H])c([H])c(F)c([H])c4F)c([H])c3[H])c(C(=O)N([H])[H])c2N([H])[H])C1([H])[H]

>  <smiles>  (58) 
[H]C([H])=C([H])c1c([H])c(OC([H])([H])C([H])([H])C([H])([H])[H])c(OC([H])([H])C([H])([H])C([H])([H])C([H])([H])Oc2c([H])c([H])c3c(c2[H])C([H])([H])N(C(=O)C([H])(N([H])C(=O)C([H])(N([H])C([H])([H])[H])C([H])([H])[H])C(C([H])([H])[H])(C([H])([H])[H])C([H])([H])[H])C([H])(C(=O)N([H])C2([H])c4c([H])c([H])c([H])c([H])c4C([H])([H])C([H])([H])C2([H])[H])C3([H])[H])c([H])c1C([H])([H])N([H])C(=O)N1C([H])([H])C([H])([H])C([H])([H])C([H])(n2nc(-c3c([H])c([H])c(Oc4c([H])c([H])c(F)c([H])c4F)c([H])c3[H])c(C(=O)N([H])[H])c2N([H])[H])C1([H])[H]

$$$$
58:0:0
     RDKit          3D

 97105  0  0  1  0  0  0  0  0999 V2000
  -31.2360  -19.4040   22.5540 C   0  0  0  0  0  3  0  0  0  0  0  0
  -30.8650  -19.9830   21.3450 C   0  0  0  0  0  3  0  0  0  0  0  0
  -30.6280  -17.1870   21.7050 C   0  0  0  0  0  0  0  0  0  0  0  0
  -30.3800  -17.7300   20.3770 C   0  0  0  0  0  0  0  0  0  0  0  0
  -31.0610  -18.0360   22.7600 C   0  0  0  0  0  0  0  0  0  0  0  0
  -30.3560  -19.2410   20.2580 C   0  0  0  0  0  0  0  0  0  0  0  0
  -31.2850  -17.5670   24.0530 N   0  0  0  0  0  0  0  0  0  0  0  0
  -31.4480  -18.2120   24.8230 H   0  0  0  0  0  0  0  0  0  0  0  0
  -30.8960  -16.6680   24.3150 H   0  0  0  0  0  0  0  0  0  0  0  0
  -30.0390  -16.6380   19.2860 C   0  0  0  0  0  0  0  0  0  0  0  0
  -29.0940  -16.9080   18.4860 N   0  0  0  0  0  0  0  0  0  0  0  0
  -28.7160  -17.8240   18.7040 H   0  0  0  0  0  0  0  0  0  0  0  0
  -30.8760  -15.2300   19.1260 C   0  0  0  0  0  0  0  0  0  0  0  0
  -30.6370  -12.8100   18.4700 C   0  0  0  0  0  2  0  0  0  0  0  0
  -29.5600  -12.6340   17.3740 C   0  0  0  0  0  2  0  0  0  0  0  0
  -28.1710  -12.4520   18.0120 C   0  0  0  0  0  2  0  0  0  0  0  0
  -27.8810  -13.5090   19.1050 C   0  0  0  0  0  3  0  0  0  0  0  0
  -29.0690  -13.6790   20.0800 C   0  0  0  0  0  2  0  0  0  0  0  0
  -30.2640  -13.9920   19.2840 N   0  0  0  0  0  0  0  0  0  0  0  0
  -32.0310  -15.2600   18.6810 O   0  0  0  0  0  0  0  0  0  0  0  0
  -25.6900  -14.1640   20.2570 C   0  0  0  0  0  0  0  0  0  0  0  0
  -24.6500  -13.4240   20.7450 C   0  0  0  0  0  0  0  0  0  0  0  0
  -25.0150  -12.0540   20.5480 C   0  0  0  0  0  0  0  0  0  0  0  0
  -26.6260  -13.2520   19.8000 N   0  0  0  0  0  0  0  0  0  0  0  0
  -26.2370  -11.9730   20.0380 N   0  0  0  0  0  0  0  0  0  0  0  0
  -24.2470  -10.8230   20.7650 C   0  0  0  0  0  0  0  0  0  0  0  0
  -24.6740   -9.8420   21.6860 C   0  0  0  0  0  3  0  0  0  0  0  0
  -23.9110   -8.6700   21.8920 C   0  0  0  0  0  3  0  0  0  0  0  0
  -22.7070   -8.4740   21.1750 C   0  0  0  0  0  0  0  0  0  0  0  0
  -22.2970   -9.4440   20.2420 C   0  0  0  0  0  3  0  0  0  0  0  0
  -23.0600  -10.6040   20.0360 C   0  0  0  0  0  3  0  0  0  0  0  0
  -21.9160   -7.3540   21.2890 O   0  0  0  0  0  0  0  0  0  0  0  0
  -21.7480   -6.7110   22.4890 C   0  0  0  0  0  0  0  0  0  0  0  0
  -21.2490   -7.3790   23.6270 C   0  0  0  0  0  3  0  0  0  0  0  0
  -21.0250   -6.6630   24.8200 C   0  0  0  0  0  3  0  0  0  0  0  0
  -21.2950   -5.2830   24.8750 C   0  0  0  0  0  0  0  0  0  0  0  0
  -21.7910   -4.6170   23.7410 C   0  0  0  0  0  3  0  0  0  0  0  0
  -22.0140   -5.3290   22.5500 C   0  0  0  0  0  0  0  0  0  0  0  0
  -22.4670   -4.6780   21.4530 F   0  0  0  0  0  0  0  0  0  0  0  0
  -21.0750   -4.5940   26.0200 F   0  0  0  0  0  0  0  0  0  0  0  0
  -23.3470  -13.9470   21.2760 C   0  0  0  0  0  0  0  0  0  0  0  0
  -22.7330  -13.2250   22.2050 N   0  0  0  0  0  0  0  0  0  0  0  0
  -22.8920  -15.0280   20.8990 O   0  0  0  0  0  0  0  0  0  0  0  0
  -23.1210  -12.3500   22.5240 H   0  0  0  0  0  0  0  0  0  0  0  0
  -21.8650  -13.5510   22.6070 H   0  0  0  0  0  0  0  0  0  0  0  0
  -25.9160  -15.5320   20.1340 N   0  0  0  0  0  0  0  0  0  0  0  0
  -25.2120  -16.2310   20.3390 H   0  0  0  0  0  0  0  0  0  0  0  0
  -26.7580  -15.9210   19.7230 H   0  0  0  0  0  0  0  0  0  0  0  0
  -31.1780  -14.8030   22.5210 C   0  0  0  0  0  2  0  0  0  0  0  0
  -30.3400  -15.7510   22.0490 C   0  0  0  0  0  3  0  0  0  0  0  0
  -29.8050  -20.0990   19.2400 O   0  0  0  0  0  0  0  0  0  0  0  0
  -30.0270  -21.6260   19.0990 C   0  0  0  0  0  2  0  0  0  0  0  0
  -29.3600  -22.7120   20.0810 C   0  0  0  0  0  3  0  0  0  0  0  0
  -28.9420  -24.0680   20.0710 C   0  0  0  0  0  0  0  0  0  0  0  0
  -28.3590  -24.6140   21.3710 C   0  0  0  0  0  1  0  0  0  0  0  0
  -28.9210  -25.2550   18.9880 C   0  0  0  0  0  2  0  0  0  0  0  0
  -28.8050  -26.7220   19.4410 O   0  0  0  0  0  0  0  0  0  0  0  0
  -24.5920  -31.4610   23.0630 C   0  0  0  0  0  0  0  0  0  0  0  0
  -27.6140  -27.5110   19.4660 C   0  0  0  0  0  0  0  0  0  0  0  0
  -23.5320  -30.1900   21.2350 C   0  0  0  0  0  3  0  0  0  0  0  0
  -25.1230  -28.9730   19.6370 C   0  0  0  0  0  0  0  0  0  0  0  0
  -26.0400  -30.7330   21.1360 C   0  0  0  0  0  2  0  0  0  0  0  0
  -26.2490  -29.4570   20.3160 C   0  0  0  0  0  0  0  0  0  0  0  0
  -27.4910  -28.7420   20.2170 C   0  0  0  0  0  3  0  0  0  0  0  0
  -26.4520  -27.1150   18.7670 C   0  0  0  0  0  3  0  0  0  0  0  0
  -25.2330  -27.8220   18.8490 C   0  0  0  0  0  3  0  0  0  0  0  0
  -23.8220  -29.7360   19.7790 C   0  0  0  0  0  2  0  0  0  0  0  0
  -24.7400  -30.8080   21.8730 N   0  0  0  0  0  0  0  0  0  0  0  0
  -23.4850  -31.5710   23.6080 O   0  0  0  0  0  0  0  0  0  0  0  0
  -22.9550  -29.0000   22.0440 C   0  0  0  0  0  0  0  0  0  0  0  0
  -21.6520  -28.7210   21.8730 N   0  0  0  0  0  0  0  0  0  0  0  0
  -23.6780  -28.3380   22.7920 O   0  0  0  0  0  0  0  0  0  0  0  0
  -21.1120  -29.3340   21.2790 H   0  0  0  0  0  0  0  0  0  0  0  0
  -18.3990  -27.1490   22.1480 C   0  0  0  0  0  0  0  0  0  0  0  0
  -20.9180  -27.6170   22.4960 C   0  0  0  0  0  3  0  0  0  0  0  0
  -21.1620  -26.2850   21.7470 C   0  0  0  0  0  2  0  0  0  0  0  0
  -20.1070  -25.9940   20.6750 C   0  0  0  0  0  2  0  0  0  0  0  0
  -18.7110  -25.9210   21.3030 C   0  0  0  0  0  2  0  0  0  0  0  0
  -19.4360  -27.9540   22.6930 C   0  0  0  0  0  0  0  0  0  0  0  0
  -19.0870  -29.0960   23.4440 C   0  0  0  0  0  3  0  0  0  0  0  0
  -17.7390  -29.4490   23.6430 C   0  0  0  0  0  3  0  0  0  0  0  0
  -16.7180  -28.6430   23.1100 C   0  0  0  0  0  3  0  0  0  0  0  0
  -17.0490  -27.4920   22.3740 C   0  0  0  0  0  3  0  0  0  0  0  0
  -25.8050  -32.1220   23.7850 C   0  0  0  0  0  3  0  0  0  0  0  0
  -25.4320  -33.5030   24.1220 N   0  0  0  0  0  0  0  0  0  0  0  0
  -25.7960  -34.5820   23.4160 C   0  0  0  0  0  0  0  0  0  0  0  0
  -26.5470  -34.5170   22.4380 O   0  0  0  0  0  0  0  0  0  0  0  0
  -24.7840  -33.6200   24.8890 H   0  0  0  0  0  0  0  0  0  0  0  0
  -24.0630  -36.3520   22.9600 C   0  0  0  0  0  1  0  0  0  0  0  0
  -25.2400  -35.9500   23.8640 C   0  0  0  0  0  3  0  0  0  0  0  0
  -27.2790  -36.8570   24.8880 C   0  0  0  0  0  1  0  0  0  0  0  0
  -26.2520  -37.0250   23.8640 N   0  0  0  0  0  0  0  0  0  0  0  0
  -25.8100  -37.9270   24.0120 H   0  0  0  0  0  0  0  0  0  0  0  0
  -26.2580  -31.3400   25.0790 C   0  0  1  0  0  0  0  0  0  0  0  0
  -25.0990  -31.0130   26.0500 C   0  0  0  0  0  1  0  0  0  0  0  0
  -26.9440  -30.0070   24.6970 C   0  0  0  0  0  1  0  0  0  0  0  0
  -27.3090  -32.1750   25.8510 C   0  0  0  0  0  1  0  0  0  0  0  0
  1  5  1  0
  2  1  2  0
  3 50  1  0
  3  5  2  0
  4  3  1  0
  5  7  1  0
  6  4  2  0
  6  2  1  0
  7  9  1  0
  7  8  1  0
 10  4  1  0
 11 12  1  0
 11 10  2  0
 13 19  1  0
 13 10  1  0
 14 19  1  0
 15 16  1  0
 15 14  1  0
 17 16  1  0
 17 24  1  0
 17 18  1  0
 19 18  1  0
 20 13  2  0
 21 22  2  0
 22 41  1  0
 23 22  1  0
 23 26  1  0
 24 25  1  0
 24 21  1  0
 25 23  2  0
 26 27  1  0
 27 28  2  0
 29 32  1  0
 29 28  1  0
 30 29  2  0
 31 30  1  0
 31 26  2  0
 32 33  1  0
 33 38  2  0
 33 34  1  0
 34 35  2  0
 35 36  1  0
 36 40  1  0
 37 36  2  0
 38 37  1  0
 39 38  1  0
 41 42  1  0
 42 44  1  0
 42 45  1  0
 43 41  2  0
 46 21  1  0
 46 47  1  0
 48 46  1  0
 50 49  2  0
 51  6  1  0
 52 51  1  0
 52 53  1  0
 54 53  2  0
 54 55  1  0
 56 57  1  0
 56 54  1  0
 57 59  1  0
 58 69  2  0
 59 64  1  0
 60 68  1  0
 60 70  1  0
 61 67  1  0
 61 63  1  0
 62 68  1  0
 63 62  1  0
 64 63  2  0
 65 66  1  0
 65 59  2  0
 66 61  2  0
 67 60  1  0
 68 58  1  0
 70 72  2  0
 71 70  1  0
 73 71  1  0
 74 83  2  0
 74 79  1  0
 75 71  1  0
 75 79  1  0
 76 75  1  0
 77 78  1  0
 77 76  1  0
 78 74  1  0
 79 80  2  0
 80 81  1  0
 82 81  2  0
 83 82  1  0
 84 58  1  0
 84 85  1  0
 84 94  1  0
 85 88  1  0
 86 90  1  0
 86 85  1  0
 87 86  2  0
 90 89  1  0
 90 92  1  0
 92 93  1  0
 92 91  1  0
 94 97  1  1
 94 95  1  0
 96 94  1  0
M  ISO  4  10 100  13 100  56 101  57 101
M  END
>  <TORSDO>  (59) 
F 23

>  <SCORE>  (59) 
-9.145

>  <name>  (59) 
58

>  <ligand_id>  (59) 
58

>  <original_smiles>  (59) 
[H]N=C(C(=O)N1C([H])([H])C([H])([H])C([H])([H])C([H])(n2nc(-c3c([H])c([H])c(Oc4c([H])c([H])c(F)c([H])c4F)c([H])c3[H])c(C(=O)N([H])[H])c2N([H])[H])C1([H])[H])c1c(OC([H])([H])C([H])=C(C([H])([H])[H])C([H])([H])Oc2c([H])c([H])c3c(c2[H])C([H])([H])N(C(=O)C([H])(N([H])C(=O)C([H])(N([H])C([H])([H])[H])C([H])([H])[H])C(C([H])([H])[H])(C([H])([H])[H])C([H])([H])[H])C([H])(C(=O)N([H])C2([H])c4c([H])c([H])c([H])c([H])c4C([H])([H])C([H])([H])C2([H])[H])C3([H])[H])c([H])c([H])c(N([H])[H])c1C([H])=C([H])[H]

>  <smiles>  (59) 
[H]N=C(C(=O)N1C([H])([H])C([H])([H])C([H])([H])C([H])(n2nc(-c3c([H])c([H])c(Oc4c([H])c([H])c(F)c([H])c4F)c([H])c3[H])c(C(=O)N([H])[H])c2N([H])[H])C1([H])[H])c1c(OC([H])([H])C([H])=C(C([H])([H])[H])C([H])([H])Oc2c([H])c([H])c3c(c2[H])C([H])([H])N(C(=O)C([H])(N([H])C(=O)C([H])(N([H])C([H])([H])[H])C([H])([H])[H])C(C([H])([H])[H])(C([H])([H])[H])C([H])([H])[H])C([H])(C(=O)N([H])C2([H])c4c([H])c([H])c([H])c([H])c4C([H])([H])C([H])([H])C2([H])[H])C3([H])[H])c([H])c([H])c(N([H])[H])c1C([H])=C([H])[H]

$$$$
59:0:0
     RDKit          3D

 95103  0  0  1  0  0  0  0  0999 V2000
  -28.6070  -19.4070   20.7700 C   0  0  0  0  0  3  0  0  0  0  0  0
  -31.2840  -18.8330   20.3410 C   0  0  0  0  0  3  0  0  0  0  0  0
  -29.0020  -18.0500   20.6760 C   0  0  0  0  0  0  0  0  0  0  0  0
  -30.3700  -17.7470   20.4030 C   0  0  0  0  0  0  0  0  0  0  0  0
  -30.8870  -20.1900   20.4890 C   0  0  0  0  0  0  0  0  0  0  0  0
  -29.5150  -20.4820   20.6790 C   0  0  0  0  0  0  0  0  0  0  0  0
  -28.1190  -15.8150   21.3970 C   0  0  0  0  0  2  0  0  0  0  0  0
  -27.9360  -17.0560   20.9110 C   0  0  0  0  0  3  0  0  0  0  0  0
  -30.9320  -16.3900   20.0620 C   0  0  0  0  0  3  0  0  0  0  0  0
  -30.3460  -15.2430   20.0710 N   0  0  0  0  0  0  0  0  0  0  0  0
  -30.9870  -14.1700   19.4360 C   0  0  0  0  0  0  0  0  0  0  0  0
  -30.4920  -11.9870   18.3830 C   0  0  0  0  0  2  0  0  0  0  0  0
  -29.4140  -12.2050   17.3020 C   0  0  0  0  0  2  0  0  0  0  0  0
  -28.0040  -12.1180   17.9220 C   0  0  0  0  0  2  0  0  0  0  0  0
  -27.8570  -12.9670   19.2130 C   0  0  0  0  0  3  0  0  0  0  0  0
  -29.0410  -12.7350   20.1760 C   0  0  0  0  0  2  0  0  0  0  0  0
  -30.2820  -13.0020   19.4330 N   0  0  0  0  0  0  0  0  0  0  0  0
  -32.0400  -14.2510   18.7980 O   0  0  0  0  0  0  0  0  0  0  0  0
  -25.6310  -13.6410   20.3110 C   0  0  0  0  0  0  0  0  0  0  0  0
  -24.5820  -12.9020   20.7910 C   0  0  0  0  0  0  0  0  0  0  0  0
  -24.9400  -11.5330   20.5870 C   0  0  0  0  0  0  0  0  0  0  0  0
  -26.5720  -12.7280   19.8650 N   0  0  0  0  0  0  0  0  0  0  0  0
  -26.1640  -11.4490   20.0810 N   0  0  0  0  0  0  0  0  0  0  0  0
  -24.1640  -10.3040   20.7940 C   0  0  0  0  0  0  0  0  0  0  0  0
  -24.5470   -9.3430   21.7570 C   0  0  0  0  0  3  0  0  0  0  0  0
  -23.7760   -8.1760   21.9520 C   0  0  0  0  0  3  0  0  0  0  0  0
  -22.6070   -7.9610   21.1840 C   0  0  0  0  0  0  0  0  0  0  0  0
  -22.2420   -8.9090   20.2100 C   0  0  0  0  0  3  0  0  0  0  0  0
  -23.0130  -10.0670   20.0150 C   0  0  0  0  0  3  0  0  0  0  0  0
  -21.8120   -6.8460   21.2860 O   0  0  0  0  0  0  0  0  0  0  0  0
  -21.5810   -6.2330   22.4920 C   0  0  0  0  0  0  0  0  0  0  0  0
  -20.9990   -6.9210   23.5780 C   0  0  0  0  0  3  0  0  0  0  0  0
  -20.7200   -6.2350   24.7780 C   0  0  0  0  0  3  0  0  0  0  0  0
  -21.0100   -4.8620   24.8870 C   0  0  0  0  0  0  0  0  0  0  0  0
  -21.5790   -4.1720   23.8020 C   0  0  0  0  0  3  0  0  0  0  0  0
  -21.8640   -4.8570   22.6070 C   0  0  0  0  0  0  0  0  0  0  0  0
  -22.3970   -4.1840   21.5590 F   0  0  0  0  0  0  0  0  0  0  0  0
  -20.7300   -4.2000   26.0330 F   0  0  0  0  0  0  0  0  0  0  0  0
  -23.2780  -13.4310   21.3140 C   0  0  0  0  0  0  0  0  0  0  0  0
  -22.6620  -12.7290   22.2590 N   0  0  0  0  0  0  0  0  0  0  0  0
  -22.8190  -14.5050   20.9210 O   0  0  0  0  0  0  0  0  0  0  0  0
  -23.0470  -11.8590   22.5960 H   0  0  0  0  0  0  0  0  0  0  0  0
  -21.7900  -13.0600   22.6490 H   0  0  0  0  0  0  0  0  0  0  0  0
  -25.8550  -15.0090   20.1970 N   0  0  0  0  0  0  0  0  0  0  0  0
  -25.1520  -15.6980   20.4360 H   0  0  0  0  0  0  0  0  0  0  0  0
  -26.6800  -15.4050   19.7660 H   0  0  0  0  0  0  0  0  0  0  0  0
  -31.7750  -21.2360   20.3560 O   0  0  0  0  0  0  0  0  0  0  0  0
  -33.1330  -21.0440   20.7500 C   0  0  0  0  0  2  0  0  0  0  0  0
  -33.7790  -19.7040   22.8100 C   0  0  0  0  0  2  0  0  0  0  0  0
  -33.2520  -20.8030   22.2440 C   0  0  0  0  0  3  0  0  0  0  0  0
  -28.9570  -21.7520   20.7230 O   0  0  0  0  0  0  0  0  0  0  0  0
  -29.6950  -22.9230   21.1350 C   0  0  0  0  0  2  0  0  0  0  0  0
  -29.9240  -24.0690   20.0600 C   0  0  0  0  0  2  0  0  0  0  0  0
  -28.8160  -25.0230   19.4880 C   0  0  0  0  0  2  0  0  0  0  0  0
  -28.9890  -26.4590   19.6460 O   0  0  0  0  0  0  0  0  0  0  0  0
  -24.8180  -31.1830   22.9740 C   0  0  0  0  0  0  0  0  0  0  0  0
  -27.8140  -27.2000   19.5900 C   0  0  0  0  0  0  0  0  0  0  0  0
  -23.7570  -29.8830   21.1610 C   0  0  0  0  0  3  0  0  0  0  0  0
  -25.3460  -28.5980   19.6380 C   0  0  0  0  0  0  0  0  0  0  0  0
  -26.2650  -30.4110   21.0890 C   0  0  0  0  0  2  0  0  0  0  0  0
  -26.4550  -29.1180   20.3190 C   0  0  0  0  0  0  0  0  0  0  0  0
  -27.6950  -28.4280   20.2900 C   0  0  0  0  0  3  0  0  0  0  0  0
  -26.6850  -26.7240   18.8800 C   0  0  0  0  0  3  0  0  0  0  0  0
  -25.4600  -27.4090   18.9100 C   0  0  0  0  0  3  0  0  0  0  0  0
  -24.0490  -29.3710   19.7270 C   0  0  0  0  0  2  0  0  0  0  0  0
  -24.9640  -30.4990   21.8030 N   0  0  0  0  0  0  0  0  0  0  0  0
  -23.7050  -31.3330   23.4960 O   0  0  0  0  0  0  0  0  0  0  0  0
  -23.1410  -28.7290   21.9880 C   0  0  0  0  0  0  0  0  0  0  0  0
  -21.8290  -28.4990   21.8100 N   0  0  0  0  0  0  0  0  0  0  0  0
  -23.8390  -28.0510   22.7490 O   0  0  0  0  0  0  0  0  0  0  0  0
  -21.3280  -29.0990   21.1690 H   0  0  0  0  0  0  0  0  0  0  0  0
  -18.4970  -27.1430   22.1470 C   0  0  0  0  0  0  0  0  0  0  0  0
  -21.0460  -27.4440   22.4550 C   0  0  0  0  0  3  0  0  0  0  0  0
  -21.1930  -26.1010   21.7010 C   0  0  0  0  0  2  0  0  0  0  0  0
  -20.0970  -25.8770   20.6550 C   0  0  0  0  0  2  0  0  0  0  0  0
  -18.7120  -25.8970   21.3070 C   0  0  0  0  0  2  0  0  0  0  0  0
  -19.5920  -27.8780   22.6720 C   0  0  0  0  0  0  0  0  0  0  0  0
  -19.3320  -29.0510   23.4140 C   0  0  0  0  0  3  0  0  0  0  0  0
  -18.0120  -29.4870   23.6380 C   0  0  0  0  0  3  0  0  0  0  0  0
  -16.9320  -28.7440   23.1280 C   0  0  0  0  0  3  0  0  0  0  0  0
  -17.1750  -27.5750   22.3870 C   0  0  0  0  0  3  0  0  0  0  0  0
  -26.0430  -31.8190   23.7030 C   0  0  0  0  0  3  0  0  0  0  0  0
  -26.5820  -30.9360   24.8940 C   0  0  1  0  0  0  0  0  0  0  0  0
  -25.4790  -30.4890   25.8820 C   0  0  0  0  0  1  0  0  0  0  0  0
  -27.2790  -29.6660   24.3550 C   0  0  0  0  0  1  0  0  0  0  0  0
  -27.6480  -31.7250   25.6860 C   0  0  0  0  0  1  0  0  0  0  0  0
  -25.6300  -33.1450   24.1810 N   0  0  0  0  0  0  0  0  0  0  0  0
  -25.9180  -34.2980   23.5620 C   0  0  0  0  0  0  0  0  0  0  0  0
  -26.6320  -34.3600   22.5560 O   0  0  0  0  0  0  0  0  0  0  0  0
  -24.9930  -33.1690   24.9660 H   0  0  0  0  0  0  0  0  0  0  0  0
  -24.0980  -36.0170   23.3310 C   0  0  0  0  0  1  0  0  0  0  0  0
  -25.3240  -35.5900   24.1540 C   0  0  0  0  0  3  0  0  0  0  0  0
  -27.3520  -36.4930   25.2020 C   0  0  0  0  0  1  0  0  0  0  0  0
  -26.2930  -36.7070   24.2170 N   0  0  0  0  0  0  0  0  0  0  0  0
  -25.8230  -37.5780   24.4450 H   0  0  0  0  0  0  0  0  0  0  0  0
  2  4  2  0
  2  5  1  0
  3  1  2  0
  3  8  1  0
  4  3  1  0
  5  6  2  0
  6 51  1  0
  6  1  1  0
  8  7  2  0
  9 10  2  0
  9  4  1  0
 11 10  1  0
 12 17  1  0
 13 14  1  0
 13 12  1  0
 15 14  1  0
 15 22  1  0
 15 16  1  0
 17 11  1  0
 17 16  1  0
 18 11  2  0
 19 20  2  0
 20 39  1  0
 21 20  1  0
 21 24  1  0
 22 23  1  0
 22 19  1  0
 23 21  2  0
 24 25  1  0
 25 26  2  0
 27 30  1  0
 27 26  1  0
 28 27  2  0
 29 28  1  0
 29 24  2  0
 30 31  1  0
 31 36  2  0
 31 32  1  0
 32 33  2  0
 33 34  1  0
 34 38  1  0
 35 34  2  0
 36 35  1  0
 37 36  1  0
 39 40  1  0
 40 42  1  0
 40 43  1  0
 41 39  2  0
 44 19  1  0
 44 45  1  0
 46 44  1  0
 47  5  1  0
 47 48  1  0
 48 50  1  0
 50 49  2  0
 51 52  1  0
 53 52  1  0
 54 55  1  0
 54 53  1  0
 56 67  2  0
 57 55  1  0
 57 62  1  0
 58 66  1  0
 58 68  1  0
 59 65  1  0
 59 61  1  0
 60 66  1  0
 61 60  1  0
 62 61  2  0
 63 64  1  0
 63 57  2  0
 64 59  2  0
 65 58  1  0
 66 56  1  0
 68 70  2  0
 69 68  1  0
 71 69  1  0
 72 81  2  0
 72 77  1  0
 73 69  1  0
 73 77  1  0
 74 73  1  0
 75 76  1  0
 75 74  1  0
 76 72  1  0
 77 78  2  0
 78 79  1  0
 80 79  2  0
 81 80  1  0
 82 56  1  0
 82 87  1  0
 82 83  1  0
 83 86  1  1
 83 84  1  0
 85 83  1  0
 87 90  1  0
 88 92  1  0
 88 87  1  0
 89 88  2  0
 92 91  1  0
 92 94  1  0
 94 95  1  0
 94 93  1  0
M  ISO  4  10 100  11 100  54 101  55 101
M  END
>  <TORSDO>  (60) 
F 25

>  <SCORE>  (60) 
-8.262

>  <name>  (60) 
59

>  <ligand_id>  (60) 
59

>  <original_smiles>  (60) 
[H]C(=NC(=O)N1C([H])([H])C([H])([H])C([H])([H])C([H])(n2nc(-c3c([H])c([H])c(Oc4c([H])c([H])c(F)c([H])c4F)c([H])c3[H])c(C(=O)N([H])[H])c2N([H])[H])C1([H])[H])c1c([H])c(OC([H])([H])C([H])=C([H])[H])c(OC([H])([H])C([H])([H])C([H])([H])Oc2c([H])c([H])c3c(c2[H])C([H])([H])N(C(=O)C([H])(N([H])C(=O)C([H])(N([H])C([H])([H])[H])C([H])([H])[H])C(C([H])([H])[H])(C([H])([H])[H])C([H])([H])[H])C([H])(C(=O)N([H])C2([H])c4c([H])c([H])c([H])c([H])c4C([H])([H])C([H])([H])C2([H])[H])C3([H])[H])c([H])c1C([H])=C([H])[H]

>  <smiles>  (60) 
[H]C(=NC(=O)N1C([H])([H])C([H])([H])C([H])([H])C([H])(n2nc(-c3c([H])c([H])c(Oc4c([H])c([H])c(F)c([H])c4F)c([H])c3[H])c(C(=O)N([H])[H])c2N([H])[H])C1([H])[H])c1c([H])c(OC([H])([H])C([H])=C([H])[H])c(OC([H])([H])C([H])([H])C([H])([H])Oc2c([H])c([H])c3c(c2[H])C([H])([H])N(C(=O)C([H])(N([H])C(=O)C([H])(N([H])C([H])([H])[H])C([H])([H])[H])C(C([H])([H])[H])(C([H])([H])[H])C([H])([H])[H])C([H])(C(=O)N([H])C2([H])c4c([H])c([H])c([H])c([H])c4C([H])([H])C([H])([H])C2([H])[H])C3([H])[H])c([H])c1C([H])=C([H])[H]

$$$$
60:0:0
     RDKit          3D

 95103  0  0  1  0  0  0  0  0999 V2000
  -30.4340  -17.4100   21.9100 C   0  0  0  0  0  3  0  0  0  0  0  0
  -30.3880  -19.8630   22.0920 C   0  0  0  0  0  3  0  0  0  0  0  0
  -30.0320  -17.4460   20.5620 C   0  0  0  0  0  0  0  0  0  0  0  0
  -29.9920  -20.0230   20.7410 C   0  0  0  0  0  0  0  0  0  0  0  0
  -29.8270  -18.7820   19.9890 C   0  0  0  0  0  0  0  0  0  0  0  0
  -30.6010  -18.5870   22.6590 C   0  0  0  0  0  0  0  0  0  0  0  0
  -30.9740  -18.4940   23.9570 F   0  0  0  0  0  0  0  0  0  0  0  0
  -29.7010  -16.0920   19.8690 C   0  0  0  0  0  3  0  0  0  0  0  0
  -28.7700  -16.1080   19.0120 N   0  0  0  0  0  2  0  0  0  0  0  0
  -28.4030  -17.0500   18.9320 H   0  0  0  0  0  0  0  0  0  0  0  0
  -30.5210  -14.7300   20.0810 C   0  0  0  0  0  0  0  0  0  0  0  0
  -30.1880  -12.5530   18.9110 C   0  0  0  0  0  2  0  0  0  0  0  0
  -29.1650  -12.7400   17.7690 C   0  0  0  0  0  2  0  0  0  0  0  0
  -27.7260  -12.5270   18.2850 C   0  0  0  0  0  2  0  0  0  0  0  0
  -27.4370  -13.3240   19.5830 C   0  0  0  0  0  3  0  0  0  0  0  0
  -28.5740  -13.1690   20.6140 C   0  0  0  0  0  2  0  0  0  0  0  0
  -29.8430  -13.5310   19.9640 N   0  0  0  0  0  0  0  0  0  0  0  0
  -31.7370  -14.7760   19.8700 O   0  0  0  0  0  0  0  0  0  0  0  0
  -25.0940  -13.8890   20.4520 C   0  0  0  0  0  0  0  0  0  0  0  0
  -24.0560  -13.1010   20.8570 C   0  0  0  0  0  0  0  0  0  0  0  0
  -24.5310  -11.7540   20.7830 C   0  0  0  0  0  0  0  0  0  0  0  0
  -26.1310  -13.0200   20.1470 N   0  0  0  0  0  0  0  0  0  0  0  0
  -25.8050  -11.7310   20.4150 N   0  0  0  0  0  0  0  0  0  0  0  0
  -23.8330  -10.4810   20.9840 C   0  0  0  0  0  0  0  0  0  0  0  0
  -24.2910   -9.5260   21.9170 C   0  0  0  0  0  3  0  0  0  0  0  0
  -23.5910   -8.3160   22.1050 C   0  0  0  0  0  3  0  0  0  0  0  0
  -22.4200   -8.0520   21.3560 C   0  0  0  0  0  0  0  0  0  0  0  0
  -21.9830   -8.9940   20.4080 C   0  0  0  0  0  3  0  0  0  0  0  0
  -22.6850  -10.1960   20.2200 C   0  0  0  0  0  3  0  0  0  0  0  0
  -21.6880   -6.8930   21.4540 O   0  0  0  0  0  0  0  0  0  0  0  0
  -21.6390   -6.1690   22.6190 C   0  0  0  0  0  0  0  0  0  0  0  0
  -21.1420   -6.7230   23.8200 C   0  0  0  0  0  3  0  0  0  0  0  0
  -21.0470   -5.9220   24.9760 C   0  0  0  0  0  3  0  0  0  0  0  0
  -21.4350   -4.5700   24.9310 C   0  0  0  0  0  0  0  0  0  0  0  0
  -21.9240   -4.0160   23.7350 C   0  0  0  0  0  3  0  0  0  0  0  0
  -22.0220   -4.8140   22.5810 C   0  0  0  0  0  0  0  0  0  0  0  0
  -22.4740   -4.2700   21.4250 F   0  0  0  0  0  0  0  0  0  0  0  0
  -21.3350   -3.7980   26.0390 F   0  0  0  0  0  0  0  0  0  0  0  0
  -22.6670  -13.5530   21.2000 C   0  0  0  0  0  0  0  0  0  0  0  0
  -21.9840  -12.8280   22.0760 N   0  0  0  0  0  0  0  0  0  0  0  0
  -22.1980  -14.5880   20.7260 O   0  0  0  0  0  0  0  0  0  0  0  0
  -22.3800  -11.9940   22.4860 H   0  0  0  0  0  0  0  0  0  0  0  0
  -21.0520  -13.1090   22.3450 H   0  0  0  0  0  0  0  0  0  0  0  0
  -25.2390  -15.2670   20.2880 N   0  0  0  0  0  0  0  0  0  0  0  0
  -24.4760  -15.9170   20.4390 H   0  0  0  0  0  0  0  0  0  0  0  0
  -26.0700  -15.7100   19.9150 H   0  0  0  0  0  0  0  0  0  0  0  0
  -29.4830  -22.4580   20.7610 C   0  0  0  0  0  3  0  0  0  0  0  0
  -29.8670  -21.3560   20.1570 N   0  0  0  0  0  0  0  0  0  0  0  0
  -29.6660  -23.9690   20.2700 C   0  0  0  0  0  2  0  0  0  0  0  0
  -28.4050  -24.9380   20.0850 C   0  0  0  0  0  2  0  0  0  0  0  0
  -28.5760  -26.4230   20.1320 O   0  0  0  0  0  0  0  0  0  0  0  0
  -24.6550  -31.6960   23.1580 C   0  0  0  0  0  0  0  0  0  0  0  0
  -27.4270  -27.2430   20.0850 C   0  0  0  0  0  0  0  0  0  0  0  0
  -23.5120  -30.2840   21.4880 C   0  0  0  0  0  3  0  0  0  0  0  0
  -25.0210  -28.8040   20.0590 C   0  0  0  0  0  0  0  0  0  0  0  0
  -26.0450  -30.6830   21.3330 C   0  0  0  0  0  2  0  0  0  0  0  0
  -26.1710  -29.3160   20.6710 C   0  0  0  0  0  0  0  0  0  0  0  0
  -27.3780  -28.5480   20.6710 C   0  0  0  0  0  3  0  0  0  0  0  0
  -26.2450  -26.7890   19.4540 C   0  0  0  0  0  3  0  0  0  0  0  0
  -25.0610  -27.5490   19.4380 C   0  0  0  0  0  3  0  0  0  0  0  0
  -23.7580  -29.6400   20.1010 C   0  0  0  0  0  2  0  0  0  0  0  0
  -24.7560  -30.9040   22.0510 N   0  0  0  0  0  0  0  0  0  0  0  0
  -23.5570  -31.9290   23.6860 O   0  0  0  0  0  0  0  0  0  0  0  0
  -22.8720  -29.2300   22.4260 C   0  0  0  0  0  0  0  0  0  0  0  0
  -21.5560  -29.0000   22.2730 N   0  0  0  0  0  0  0  0  0  0  0  0
  -23.5590  -28.6230   23.2500 O   0  0  0  0  0  0  0  0  0  0  0  0
  -21.0540  -29.5430   21.5850 H   0  0  0  0  0  0  0  0  0  0  0  0
  -18.2210  -27.6660   22.7060 C   0  0  0  0  0  0  0  0  0  0  0  0
  -20.7640  -28.0220   23.0220 C   0  0  0  0  0  3  0  0  0  0  0  0
  -20.9290  -26.5980   22.4410 C   0  0  0  0  0  2  0  0  0  0  0  0
  -19.8580  -26.2430   21.4060 C   0  0  0  0  0  2  0  0  0  0  0  0
  -18.4600  -26.3300   22.0240 C   0  0  0  0  0  2  0  0  0  0  0  0
  -19.3020  -28.4670   23.1620 C   0  0  0  0  0  0  0  0  0  0  0  0
  -19.0230  -29.7160   23.7590 C   0  0  0  0  0  3  0  0  0  0  0  0
  -17.6960  -30.1650   23.9020 C   0  0  0  0  0  3  0  0  0  0  0  0
  -16.6310  -29.3620   23.4610 C   0  0  0  0  0  3  0  0  0  0  0  0
  -16.8940  -28.1130   22.8710 C   0  0  0  0  0  3  0  0  0  0  0  0
  -25.9080  -32.3660   23.8010 C   0  0  0  0  0  3  0  0  0  0  0  0
  -25.5440  -33.7460   24.1540 N   0  0  0  0  0  0  0  0  0  0  0  0
  -25.8380  -34.8230   23.4130 C   0  0  0  0  0  0  0  0  0  0  0  0
  -26.5080  -34.7580   22.3790 O   0  0  0  0  0  0  0  0  0  0  0  0
  -24.9520  -33.8680   24.9610 H   0  0  0  0  0  0  0  0  0  0  0  0
  -24.0400  -36.5480   23.0920 C   0  0  0  0  0  1  0  0  0  0  0  0
  -25.3010  -36.1860   23.8910 C   0  0  0  0  0  3  0  0  0  0  0  0
  -27.3990  -37.1460   24.7220 C   0  0  0  0  0  1  0  0  0  0  0  0
  -26.2910  -37.2780   23.7800 N   0  0  0  0  0  0  0  0  0  0  0  0
  -25.8510  -38.1800   23.9370 H   0  0  0  0  0  0  0  0  0  0  0  0
  -26.4380  -31.5910   25.0690 C   0  0  1  0  0  0  0  0  0  0  0  0
  -25.3410  -31.3030   26.1210 C   0  0  0  0  0  1  0  0  0  0  0  0
  -27.0700  -30.2390   24.6620 C   0  0  0  0  0  1  0  0  0  0  0  0
  -27.5530  -32.4130   25.7570 C   0  0  0  0  0  1  0  0  0  0  0  0
  -29.4160  -18.8540   18.6760 O   0  0  0  0  0  0  0  0  0  0  0  0
  -30.3600  -19.3510   17.7250 C   0  0  0  0  0  2  0  0  0  0  0  0
  -32.8490  -18.9760   18.0000 C   0  0  0  0  0  2  0  0  0  0  0  0
  -31.6260  -18.5150   17.6880 C   0  0  0  0  0  3  0  0  0  0  0  0
  1  6  1  0
  2  6  2  0
  3  1  2  0
  4  2  1  0
  5  3  1  0
  5  4  2  0
  6  7  1  0
  8  9  1  0
  8 11  1  0
  8  3  1  0
 10  9  1  0
 12 17  1  0
 13 14  1  0
 13 12  1  0
 15 14  1  0
 15 22  1  0
 15 16  1  0
 17 11  1  0
 17 16  1  0
 18 11  2  0
 19 20  2  0
 20 39  1  0
 21 20  1  0
 21 24  1  0
 22 23  1  0
 22 19  1  0
 23 21  2  0
 24 25  1  0
 25 26  2  0
 27 30  1  0
 27 26  1  0
 28 27  2  0
 29 28  1  0
 29 24  2  0
 30 31  1  0
 31 32  1  0
 32 33  2  0
 34 33  1  0
 34 38  1  0
 35 34  2  0
 36 31  2  0
 36 35  1  0
 37 36  1  0
 39 40  1  0
 40 43  1  0
 40 42  1  0
 41 39  2  0
 44 45  1  0
 44 19  1  0
 46 44  1  0
 48  4  1  0
 48 47  2  0
 49 47  1  0
 50 51  1  0
 50 49  1  0
 52 63  2  0
 53 51  1  0
 53 58  1  0
 54 62  1  0
 54 64  1  0
 55 61  1  0
 55 57  1  0
 56 62  1  0
 57 58  2  0
 57 56  1  0
 59 53  2  0
 60 59  1  0
 60 55  2  0
 61 54  1  0
 62 52  1  0
 64 66  2  0
 65 64  1  0
 67 65  1  0
 68 77  2  0
 68 73  1  0
 69 65  1  0
 69 73  1  0
 70 69  1  0
 71 72  1  0
 71 70  1  0
 72 68  1  0
 73 74  2  0
 74 75  1  0
 76 75  2  0
 77 76  1  0
 78 52  1  0
 78 79  1  0
 78 88  1  0
 79 82  1  0
 80 84  1  0
 80 79  1  0
 81 80  2  0
 84 83  1  0
 86 84  1  0
 86 87  1  0
 86 85  1  0
 88 91  1  1
 88 89  1  0
 90 88  1  0
 92  5  1  0
 93 92  1  0
 95 93  1  0
 95 94  2  0
M  ISO  4   8 100  11 100  50 101  51 101
M  END
>  <TORSDO>  (61) 
F 23

>  <SCORE>  (61) 
-12.462

>  <name>  (61) 
60

>  <ligand_id>  (61) 
60

>  <original_smiles>  (61) 
[H]N=C(C(=O)N1C([H])([H])C([H])([H])C([H])([H])C([H])(n2nc(-c3c([H])c([H])c(Oc4c([H])c([H])c(F)c([H])c4F)c([H])c3[H])c(C(=O)N([H])[H])c2N([H])[H])C1([H])[H])c1c([H])c(F)c([H])c(N=C([H])C([H])([H])C([H])([H])Oc2c([H])c([H])c3c(c2[H])C([H])([H])N(C(=O)C([H])(N([H])C(=O)C([H])(N([H])C([H])([H])[H])C([H])([H])[H])C(C([H])([H])[H])(C([H])([H])[H])C([H])([H])[H])C([H])(C(=O)N([H])C2([H])c4c([H])c([H])c([H])c([H])c4C([H])([H])C([H])([H])C2([H])[H])C3([H])[H])c1OC([H])([H])C([H])=C([H])[H]

>  <smiles>  (61) 
[H]N=C(C(=O)N1C([H])([H])C([H])([H])C([H])([H])C([H])(n2nc(-c3c([H])c([H])c(Oc4c([H])c([H])c(F)c([H])c4F)c([H])c3[H])c(C(=O)N([H])[H])c2N([H])[H])C1([H])[H])c1c([H])c(F)c([H])c(N=C([H])C([H])([H])C([H])([H])Oc2c([H])c([H])c3c(c2[H])C([H])([H])N(C(=O)C([H])(N([H])C(=O)C([H])(N([H])C([H])([H])[H])C([H])([H])[H])C(C([H])([H])[H])(C([H])([H])[H])C([H])([H])[H])C([H])(C(=O)N([H])C2([H])c4c([H])c([H])c([H])c([H])c4C([H])([H])C([H])([H])C2([H])[H])C3([H])[H])c1OC([H])([H])C([H])=C([H])[H]

$$$$
61:0:0
     RDKit          3D

 97106  0  0  1  0  0  0  0  0999 V2000
  -28.6710  -24.2980   20.9630 C   0  0  0  0  0  0  0  0  0  0  0  0
  -28.5650  -25.6510   21.1120 C   0  0  0  0  0  3  0  0  0  0  0  0
  -29.4120  -20.9970   19.4330 C   0  0  0  0  0  0  0  0  0  0  0  0
  -28.8280  -23.3670   22.1450 C   0  0  0  0  0  2  0  0  0  0  0  0
  -28.6770  -21.9300   21.6160 C   0  0  0  0  0  2  0  0  0  0  0  0
  -28.5110  -23.4100   19.7260 C   0  0  0  0  0  3  0  0  0  0  0  0
  -28.8320  -22.0080   20.1640 N   0  0  0  0  0  0  0  0  0  0  0  0
  -29.7240  -21.1120   18.2460 O   0  0  0  0  0  0  0  0  0  0  0  0
  -30.9490  -19.0210   19.9280 C   0  0  0  0  0  3  0  0  0  0  0  0
  -28.6120  -18.8210   20.5300 C   0  0  0  0  0  3  0  0  0  0  0  0
  -31.1570  -17.6570   20.2480 C   0  0  0  0  0  3  0  0  0  0  0  0
  -28.8210  -17.4560   20.8520 C   0  0  0  0  0  3  0  0  0  0  0  0
  -29.6690  -19.6180   20.0340 C   0  0  0  0  0  0  0  0  0  0  0  0
  -30.0830  -16.8390   20.6630 C   0  0  0  0  0  0  0  0  0  0  0  0
  -30.8900  -14.5070   20.1670 C   0  0  0  0  0  0  0  0  0  0  0  0
  -30.5500  -12.4040   18.9060 C   0  0  0  0  0  2  0  0  0  0  0  0
  -29.5610  -12.7130   17.7640 C   0  0  0  0  0  2  0  0  0  0  0  0
  -28.0940  -12.6210   18.2460 C   0  0  0  0  0  2  0  0  0  0  0  0
  -27.8430  -13.3290   19.6060 C   0  0  0  0  0  3  0  0  0  0  0  0
  -28.9450  -12.9820   20.6340 C   0  0  0  0  0  2  0  0  0  0  0  0
  -30.2460  -13.3130   20.0230 N   0  0  0  0  0  0  0  0  0  0  0  0
  -31.9730  -14.7390   19.6250 O   0  0  0  0  0  0  0  0  0  0  0  0
  -30.2030  -15.4260   20.8860 N   0  0  0  0  0  0  0  0  0  0  0  0
  -29.4180  -15.0060   21.3620 H   0  0  0  0  0  0  0  0  0  0  0  0
  -25.4790  -13.9110   20.4390 C   0  0  0  0  0  0  0  0  0  0  0  0
  -24.4290  -13.1330   20.8490 C   0  0  0  0  0  0  0  0  0  0  0  0
  -24.8820  -11.7800   20.7540 C   0  0  0  0  0  0  0  0  0  0  0  0
  -26.5080  -13.0380   20.1310 N   0  0  0  0  0  0  0  0  0  0  0  0
  -26.1530  -11.7480   20.3670 N   0  0  0  0  0  0  0  0  0  0  0  0
  -24.1590  -10.5180   20.9530 C   0  0  0  0  0  0  0  0  0  0  0  0
  -24.5950   -9.5580   21.8940 C   0  0  0  0  0  3  0  0  0  0  0  0
  -23.8780   -8.3560   22.0760 C   0  0  0  0  0  3  0  0  0  0  0  0
  -22.7060   -8.1060   21.3200 C   0  0  0  0  0  0  0  0  0  0  0  0
  -22.2870   -9.0570   20.3720 C   0  0  0  0  0  3  0  0  0  0  0  0
  -23.0090  -10.2480   20.1860 C   0  0  0  0  0  3  0  0  0  0  0  0
  -21.9580   -6.9560   21.4110 O   0  0  0  0  0  0  0  0  0  0  0  0
  -21.8480   -6.2580   22.5880 C   0  0  0  0  0  0  0  0  0  0  0  0
  -21.3280   -6.8520   23.7590 C   0  0  0  0  0  3  0  0  0  0  0  0
  -21.1690   -6.0810   24.9300 C   0  0  0  0  0  3  0  0  0  0  0  0
  -21.5170   -4.7160   24.9260 C   0  0  0  0  0  0  0  0  0  0  0  0
  -22.0250   -4.1210   23.7570 C   0  0  0  0  0  3  0  0  0  0  0  0
  -22.1880   -4.8900   22.5910 C   0  0  0  0  0  0  0  0  0  0  0  0
  -22.6610   -4.3070   21.4630 F   0  0  0  0  0  0  0  0  0  0  0  0
  -21.3570   -3.9750   26.0450 F   0  0  0  0  0  0  0  0  0  0  0  0
  -23.0510  -13.6070   21.2100 C   0  0  0  0  0  0  0  0  0  0  0  0
  -22.3610  -12.8970   22.0960 N   0  0  0  0  0  0  0  0  0  0  0  0
  -22.5890  -14.6470   20.7390 O   0  0  0  0  0  0  0  0  0  0  0  0
  -22.7390  -12.0550   22.5030 H   0  0  0  0  0  0  0  0  0  0  0  0
  -21.4330  -13.2000   22.3630 H   0  0  0  0  0  0  0  0  0  0  0  0
  -25.6300  -15.2870   20.2900 N   0  0  0  0  0  0  0  0  0  0  0  0
  -24.8450  -15.9160   20.4180 H   0  0  0  0  0  0  0  0  0  0  0  0
  -26.4450  -15.7440   19.8970 H   0  0  0  0  0  0  0  0  0  0  0  0
  -29.2330  -23.9170   18.4620 C   0  0  0  0  0  0  0  0  0  0  0  0
  -30.4220  -24.2460   18.4780 O   0  0  0  0  0  0  0  0  0  0  0  0
  -28.8680  -24.5620   16.1230 C   0  0  0  0  0  2  0  0  0  0  0  0
  -28.4400  -23.9170   17.2190 C   0  0  0  0  0  3  0  0  0  0  0  0
  -28.4380  -26.6090   20.1270 O   0  0  0  0  0  0  0  0  0  0  0  0
  -24.5800  -31.8690   23.1930 C   0  0  0  0  0  0  0  0  0  0  0  0
  -27.3100  -27.4030   20.1650 C   0  0  0  0  0  0  0  0  0  0  0  0
  -23.4290  -30.4540   21.5220 C   0  0  0  0  0  3  0  0  0  0  0  0
  -24.9220  -28.9240   20.1310 C   0  0  0  0  0  0  0  0  0  0  0  0
  -25.9660  -30.8060   21.4090 C   0  0  0  0  0  2  0  0  0  0  0  0
  -26.0680  -29.4370   20.7590 C   0  0  0  0  0  0  0  0  0  0  0  0
  -27.2680  -28.6820   20.7780 C   0  0  0  0  0  3  0  0  0  0  0  0
  -26.1530  -26.9130   19.5350 C   0  0  0  0  0  3  0  0  0  0  0  0
  -24.9600  -27.6590   19.5200 C   0  0  0  0  0  3  0  0  0  0  0  0
  -23.6800  -29.7860   20.1450 C   0  0  0  0  0  2  0  0  0  0  0  0
  -24.6740  -31.0630   22.0960 N   0  0  0  0  0  0  0  0  0  0  0  0
  -23.4820  -32.1300   23.7050 O   0  0  0  0  0  0  0  0  0  0  0  0
  -22.7620  -29.4270   22.4660 C   0  0  0  0  0  0  0  0  0  0  0  0
  -21.4390  -29.2460   22.3190 N   0  0  0  0  0  0  0  0  0  0  0  0
  -23.4320  -28.7980   23.2890 O   0  0  0  0  0  0  0  0  0  0  0  0
  -20.9600  -29.8040   21.6260 H   0  0  0  0  0  0  0  0  0  0  0  0
  -18.0520  -28.0780   22.7950 C   0  0  0  0  0  0  0  0  0  0  0  0
  -20.6130  -28.3030   23.0730 C   0  0  0  0  0  3  0  0  0  0  0  0
  -20.7000  -26.8820   22.4700 C   0  0  0  0  0  2  0  0  0  0  0  0
  -19.5970  -26.5890   21.4490 C   0  0  0  0  0  2  0  0  0  0  0  0
  -18.2150  -26.7400   22.0940 C   0  0  0  0  0  2  0  0  0  0  0  0
  -19.1790  -28.8190   23.2390 C   0  0  0  0  0  0  0  0  0  0  0  0
  -18.9710  -30.0740   23.8520 C   0  0  0  0  0  3  0  0  0  0  0  0
  -17.6730  -30.5820   24.0330 C   0  0  0  0  0  3  0  0  0  0  0  0
  -16.5600  -29.8360   23.6090 C   0  0  0  0  0  3  0  0  0  0  0  0
  -16.7510  -28.5880   22.9890 C   0  0  0  0  0  3  0  0  0  0  0  0
  -25.8440  -32.5130   23.8420 C   0  0  0  0  0  3  0  0  0  0  0  0
  -26.3390  -31.7510   25.1330 C   0  0  1  0  0  0  0  0  0  0  0  0
  -25.2270  -31.4980   26.1760 C   0  0  0  0  0  1  0  0  0  0  0  0
  -26.9580  -30.3840   24.7610 C   0  0  0  0  0  1  0  0  0  0  0  0
  -27.4570  -32.5670   25.8240 C   0  0  0  0  0  1  0  0  0  0  0  0
  -25.5130  -33.9080   24.1610 N   0  0  0  0  0  0  0  0  0  0  0  0
  -25.8520  -34.9650   23.4100 C   0  0  0  0  0  0  0  0  0  0  0  0
  -26.5480  -34.8700   22.3960 O   0  0  0  0  0  0  0  0  0  0  0  0
  -24.9040  -34.0540   24.9520 H   0  0  0  0  0  0  0  0  0  0  0  0
  -24.1200  -36.7460   23.0070 C   0  0  0  0  0  1  0  0  0  0  0  0
  -25.3380  -36.3470   23.8570 C   0  0  0  0  0  3  0  0  0  0  0  0
  -27.4320  -37.2540   24.7640 C   0  0  0  0  0  1  0  0  0  0  0  0
  -26.3610  -37.4110   23.7840 N   0  0  0  0  0  0  0  0  0  0  0  0
  -25.9390  -38.3260   23.9190 H   0  0  0  0  0  0  0  0  0  0  0  0
  1  2  2  0
  1  4  1  0
  3 13  1  0
  3  7  1  0
  5  4  1  0
  6 53  1  0
  6  7  1  0
  6  1  1  0
  7  5  1  0
  8  3  2  0
  9 13  2  0
  9 11  1  0
 10 12  2  0
 11 14  2  0
 13 10  1  0
 14 12  1  0
 14 23  1  0
 15 23  1  0
 16 21  1  0
 17 18  1  0
 17 16  1  0
 19 18  1  0
 19 28  1  0
 19 20  1  0
 21 15  1  0
 21 20  1  0
 22 15  2  0
 23 24  1  0
 25 26  2  0
 26 45  1  0
 27 26  1  0
 27 30  1  0
 28 29  1  0
 28 25  1  0
 29 27  2  0
 30 31  1  0
 31 32  2  0
 33 36  1  0
 33 32  1  0
 34 33  2  0
 35 34  1  0
 35 30  2  0
 36 37  1  0
 37 42  2  0
 37 38  1  0
 38 39  2  0
 40 39  1  0
 40 44  1  0
 41 40  2  0
 42 41  1  0
 43 42  1  0
 45 46  1  0
 46 49  1  0
 46 48  1  0
 47 45  2  0
 50 51  1  0
 50 25  1  0
 52 50  1  0
 53 54  2  0
 55 56  2  0
 56 53  1  0
 57 59  1  0
 57  2  1  0
 58 69  2  0
 59 64  1  0
 60 68  1  0
 60 70  1  0
 61 67  1  0
 61 63  1  0
 62 68  1  0
 63 64  2  0
 63 62  1  0
 65 59  2  0
 66 65  1  0
 66 61  2  0
 67 60  1  0
 68 58  1  0
 70 72  2  0
 71 70  1  0
 73 71  1  0
 74 83  2  0
 74 79  1  0
 75 71  1  0
 75 79  1  0
 76 75  1  0
 77 78  1  0
 77 76  1  0
 78 74  1  0
 79 80  2  0
 80 81  1  0
 82 81  2  0
 83 82  1  0
 84 58  1  0
 84 89  1  0
 84 85  1  0
 85 88  1  1
 85 86  1  0
 87 85  1  0
 89 92  1  0
 90 94  1  0
 90 89  1  0
 91 90  2  0
 94 93  1  0
 96 94  1  0
 96 97  1  0
 96 95  1  0
M  ISO  4   2 101  15 100  23 100  57 101
M  END
>  <TORSDO>  (62) 
F 19

>  <SCORE>  (62) 
-14.270

>  <name>  (62) 
61

>  <ligand_id>  (62) 
61

>  <original_smiles>  (62) 
[H]C([H])=C([H])C(=O)C1([H])C(=C([H])Oc2c([H])c([H])c3c(c2[H])C([H])([H])N(C(=O)C([H])(N([H])C(=O)C([H])(N([H])C([H])([H])[H])C([H])([H])[H])C(C([H])([H])[H])(C([H])([H])[H])C([H])([H])[H])C([H])(C(=O)N([H])C2([H])c4c([H])c([H])c([H])c([H])c4C([H])([H])C([H])([H])C2([H])[H])C3([H])[H])C([H])([H])C([H])([H])N1C(=O)c1c([H])c([H])c(N([H])C(=O)N2C([H])([H])C([H])([H])C([H])([H])C([H])(n3nc(-c4c([H])c([H])c(Oc5c([H])c([H])c(F)c([H])c5F)c([H])c4[H])c(C(=O)N([H])[H])c3N([H])[H])C2([H])[H])c([H])c1[H]

>  <smiles>  (62) 
[H]C([H])=C([H])C(=O)C1([H])C(=C([H])Oc2c([H])c([H])c3c(c2[H])C([H])([H])N(C(=O)C([H])(N([H])C(=O)C([H])(N([H])C([H])([H])[H])C([H])([H])[H])C(C([H])([H])[H])(C([H])([H])[H])C([H])([H])[H])C([H])(C(=O)N([H])C2([H])c4c([H])c([H])c([H])c([H])c4C([H])([H])C([H])([H])C2([H])[H])C3([H])[H])C([H])([H])C([H])([H])N1C(=O)c1c([H])c([H])c(N([H])C(=O)N2C([H])([H])C([H])([H])C([H])([H])C([H])(n3nc(-c4c([H])c([H])c(Oc5c([H])c([H])c(F)c([H])c5F)c([H])c4[H])c(C(=O)N([H])[H])c3N([H])[H])C2([H])[H])c([H])c1[H]

$$$$
62:0:0
     RDKit          3D

 91 91  0  0  1  0  0  0  0  0999 V2000
  -19.4770  -27.6240   23.1510 C   0  0  0  0  0  2  0  0  0  0  0  0
  -19.3250  -25.4800   24.5030 C   0  0  0  0  0 15  0  0  0  0  0  0
  -21.2470  -25.0780   21.9410 C   0  0  0  0  0  1  0  0  0  0  0  0
  -21.9720  -23.4160   22.6480 C   0  0  0  0  0  2  0  0  0  0  0  0
  -20.4410  -27.4130   22.0660 C   0  0  0  0  0  2  0  0  0  0  0  0
  -20.5660  -24.0130   23.8640 C   0  0  0  0  0  2  0  0  0  0  0  0
  -23.8170  -21.1180   22.0960 C   0  0  0  0  0 15  0  0  0  0  0  0
  -25.4690  -19.6840   21.6540 C   0  0  0  0  0 15  0  0  0  0  0  0
  -27.1640  -17.7190   21.1420 C   0  0  0  0  0  2  0  0  0  0  0  0
  -29.1730  -15.1560   19.9620 C   0  0  0  0  0  2  0  0  0  0  0  0
  -29.2300  -13.8210   18.8910 C   0  0  0  0  0  2  0  0  0  0  0  0
  -28.2630  -12.6930   19.2150 C   0  0  0  0  0  2  0  0  0  0  0  0
  -27.2760  -13.5230   20.0060 C   0  0  0  0  0  3  0  0  0  0  0  0
  -27.7060  -14.4780   21.2150 C   0  0  0  0  0  2  0  0  0  0  0  0
  -27.7950  -16.0000   20.7620 N   0  0  0  0  0  0  0  0  0  0  0  0
  -28.5250  -17.6620   20.9320 O   0  0  0  0  0  1  0  0  0  0  0  0
  -24.9880  -13.8120   20.5340 C   0  0  0  0  0  0  0  0  0  0  0  0
  -24.0120  -12.9900   20.9300 C   0  0  0  0  0  0  0  0  0  0  0  0
  -24.5530  -11.6670   20.8880 C   0  0  0  0  0  0  0  0  0  0  0  0
  -26.0560  -12.9810   20.3390 N   0  0  0  0  0  0  0  0  0  0  0  0
  -25.8460  -11.6760   20.5850 N   0  0  0  0  0  0  0  0  0  0  0  0
  -23.8700  -10.3970   21.0470 C   0  0  0  0  0  0  0  0  0  0  0  0
  -24.3430   -9.3990   21.9230 C   0  0  0  0  0  3  0  0  0  0  0  0
  -23.6190   -8.2010   22.0760 C   0  0  0  0  0  3  0  0  0  0  0  0
  -22.4180   -8.0050   21.3530 C   0  0  0  0  0  0  0  0  0  0  0  0
  -21.9730   -8.9940   20.4600 C   0  0  0  0  0  3  0  0  0  0  0  0
  -22.6970  -10.1810   20.3030 C   0  0  0  0  0  3  0  0  0  0  0  0
  -21.6530   -6.8690   21.4240 O   0  0  0  0  0  0  0  0  0  0  0  0
  -21.6780   -6.0620   22.5300 C   0  0  0  0  0  0  0  0  0  0  0  0
  -21.3960   -6.5570   23.8220 C   0  0  0  0  0  3  0  0  0  0  0  0
  -21.3650   -5.6750   24.9200 C   0  0  0  0  0  3  0  0  0  0  0  0
  -21.6050   -4.3010   24.7260 C   0  0  0  0  0  0  0  0  0  0  0  0
  -21.8830   -3.8080   23.4390 C   0  0  0  0  0  3  0  0  0  0  0  0
  -21.9170   -4.6870   22.3440 C   0  0  0  0  0  0  0  0  0  0  0  0
  -22.1650   -4.2070   21.1010 F   0  0  0  0  0  0  0  0  0  0  0  0
  -21.5640   -3.4510   25.7790 F   0  0  0  0  0  0  0  0  0  0  0  0
  -22.6300  -13.4560   21.2120 C   0  0  0  0  0  0  0  0  0  0  0  0
  -21.9340  -12.7590   22.0940 N   0  0  0  0  0  0  0  0  0  0  0  0
  -22.2000  -14.4920   20.7050 O   0  0  0  0  0  0  0  0  0  0  0  0
  -22.3190  -11.9300   22.5220 H   0  0  0  0  0  0  0  0  0  0  0  0
  -21.0010  -13.0550   22.3430 H   0  0  0  0  0  0  0  0  0  0  0  0
  -25.0500  -15.1920   20.3260 N   0  0  0  0  0  0  0  0  0  0  0  0
  -24.2240  -15.7780   20.3550 H   0  0  0  0  0  0  0  0  0  0  0  0
  -25.8590  -15.6330   19.9080 H   0  0  0  0  0  0  0  0  0  0  0  0
  -22.1690  -28.8340   24.0530 C   0  0  0  0  0  2  0  0  0  0  0  0
  -21.0360  -28.7270   23.0470 N   0  0  0  0  0  0  0  0  0  0  0  0
  -23.7410  -27.7460   24.3890 C   0  0  0  0  0  2  0  0  0  0  0  0
  -25.3940  -27.2490   23.4550 C   0  0  0  0  0  2  0  0  0  0  0  0
  -26.3160  -26.7880   22.0690 O   0  0  0  0  0  0  0  0  0  0  0  0
  -24.6570  -32.0570   23.0170 C   0  0  0  0  0  0  0  0  0  0  0  0
  -26.6630  -27.4670   20.8900 C   0  0  0  0  0  3  0  0  0  0  0  0
  -23.5750  -30.7130   21.1530 C   0  0  0  0  0  3  0  0  0  0  0  0
  -25.0720  -29.2670   19.6880 C   0  0  0  0  0  3  0  0  0  0  0  0
  -26.0550  -31.1320   21.1190 C   0  0  0  0  0  2  0  0  0  0  0  0
  -26.1390  -29.7310   20.4920 C   0  0  0  0  0  3  0  0  0  0  0  0
  -27.0500  -28.8030   21.0070 C   0  0  0  0  0  2  0  0  0  0  0  0
  -25.9630  -27.0150   19.7540 C   0  0  0  0  0  2  0  0  0  0  0  0
  -25.0390  -27.9280   19.2270 C   0  0  0  0  0  2  0  0  0  0  0  0
  -23.8340  -30.1720   19.7120 C   0  0  0  0  0  2  0  0  0  0  0  0
  -24.7530  -31.4630   21.7640 N   0  0  0  0  0  0  0  0  0  0  0  0
  -23.5630  -32.1900   23.5910 O   0  0  0  0  0  0  0  0  0  0  0  0
  -23.5910  -29.4260   21.8770 C   0  0  0  0  0  0  0  0  0  0  0  0
  -22.9140  -28.3230   21.5700 N   0  0  0  0  0  0  0  0  0  0  0  0
  -24.3590  -29.3920   22.7850 O   0  0  0  0  0  0  0  0  0  0  0  0
  -22.2910  -28.4510   20.7910 H   0  0  0  0  0  0  0  0  0  0  0  0
  -18.9980  -25.6720   22.3890 C   0  0  0  0  0  2  0  0  0  0  0  0
  -22.6400  -26.9310   22.2970 C   0  0  0  0  0  2  0  0  0  0  0  0
  -22.0550  -26.7660   20.4890 C   0  0  0  0  0  2  0  0  0  0  0  0
  -20.3230  -26.3770   19.9270 C   0  0  0  0  0  3  0  0  0  0  0  0
  -18.9200  -25.8670   20.8220 C   0  0  0  0  0  3  0  0  0  0  0  0
  -21.1560  -26.3970   23.8390 C   0  0  0  0  0 15  0  0  0  0  0  0
  -20.3060  -27.5020   25.2480 C   0  0  0  0  0  1  0  0  0  0  0  0
  -18.6400  -28.0360   25.2960 C   0  0  0  0  0  3  0  0  0  0  0  0
  -17.3930  -27.5500   24.3210 C   0  0  0  0  0  3  0  0  0  0  0  0
  -17.4920  -26.4450   23.0590 C   0  0  0  0  0  2  0  0  0  0  0  0
  -25.9230  -32.5600   23.7960 C   0  0  0  0  0  3  0  0  0  0  0  0
  -25.6030  -33.9140   24.2290 N   0  0  0  0  0  0  0  0  0  0  0  0
  -25.9070  -34.9970   23.5100 C   0  0  0  0  0  0  0  0  0  0  0  0
  -26.5540  -34.9410   22.4600 O   0  0  0  0  0  0  0  0  0  0  0  0
  -25.0230  -34.0170   25.0490 H   0  0  0  0  0  0  0  0  0  0  0  0
  -24.1450  -36.7580   23.2600 C   0  0  0  0  0  1  0  0  0  0  0  0
  -25.4070  -36.3500   24.0360 C   0  0  0  0  0  3  0  0  0  0  0  0
  -27.5630  -37.1910   24.8450 C   0  0  0  0  0  1  0  0  0  0  0  0
  -26.4280  -37.4150   23.9520 N   0  0  0  0  0  0  0  0  0  0  0  0
  -26.0230  -38.3210   24.1750 H   0  0  0  0  0  0  0  0  0  0  0  0
  -26.4250  -31.7130   25.0410 C   0  0  1  0  0  0  0  0  0  0  0  0
  -25.3410  -31.4090   26.1000 C   0  0  0  0  0  1  0  0  0  0  0  0
  -27.0250  -30.3760   24.5900 C   0  0  0  0  0  1  0  0  0  0  0  0
  -27.5830  -32.4590   25.7470 C   0  0  0  0  0  1  0  0  0  0  0  0
  -19.0840  -22.8120   25.3230 C   0  0  0  0  0  1  0  0  0  0  0  0
  -20.3490  -22.9100   24.6630 O   0  0  0  0  0  0  0  0  0  0  0  0
  3  4  1  0
  4  6  1  0
  5 46  1  0
  5  1  1  0
  6 91  1  0
 10 15  1  0
 11 12  1  0
 11 10  1  0
 13 12  1  0
 13 20  1  0
 13 14  1  0
 15  9  1  0
 15 14  1  0
 16  9  1  0
 17 18  2  0
 18 37  1  0
 19 18  1  0
 19 22  1  0
 20 17  1  0
 20 21  1  0
 21 19  2  0
 22 23  1  0
 23 24  2  0
 25 28  1  0
 25 24  1  0
 26 25  2  0
 27 26  1  0
 27 22  2  0
 28 29  1  0
 29 30  1  0
 30 31  2  0
 32 31  1  0
 32 36  1  0
 33 32  2  0
 34 29  2  0
 34 33  1  0
 35 34  1  0
 37 38  1  0
 38 41  1  0
 38 40  1  0
 39 37  2  0
 42 43  1  0
 42 17  1  0
 44 42  1  0
 45 47  1  0
 46  1  1  0
 46 45  1  0
 48 47  1  0
 49 48  1  0
 50 61  2  0
 51 56  1  0
 51 49  1  0
 52 60  1  0
 52 62  1  0
 53 58  1  0
 53 59  1  0
 53 55  1  0
 54 60  1  0
 55 56  1  0
 55 54  1  0
 57 51  1  0
 58 57  1  0
 59 52  1  0
 60 50  1  0
 62 64  2  0
 63 62  1  0
 63 67  1  0
 65 63  1  0
 66 75  1  0
 68 67  1  0
 69 68  1  0
 69 70  2  0
 70 66  1  0
 72 73  1  0
 74 73  2  0
 75 74  1  0
 76 50  1  0
 76 77  1  0
 76 86  1  0
 77 80  1  0
 78 82  1  0
 78 77  1  0
 79 78  2  0
 82 81  1  0
 84 82  1  0
 84 85  1  0
 84 83  1  0
 86 89  1  1
 86 87  1  0
 88 86  1  0
 91 90  1  0
M  ISO  4   8 100   9 100  48 101  49 101
M  END
>  <TORSDO>  (63) 
F 21

>  <SCORE>  (63) 
53.453

>  <name>  (63) 
62

>  <ligand_id>  (63) 
62

>  <original_smiles>  (63) 
[H]C(=Nc1c([H])c([H])c(OC([H])([H])[H])c(C([H])=C([H])C(=O)N2C([H])([H])C([H])([H])C([H])([H])C([H])(n3nc(-c4c([H])c([H])c(Oc5c([H])c([H])c(F)c([H])c5F)c([H])c4[H])c(C(=O)N([H])[H])c3N([H])[H])C2([H])[H])c1[H])C([H])([H])C([H])([H])Oc1c([H])c([H])c2c(c1[H])C([H])([H])N(C(=O)C([H])(N([H])C(=O)C([H])(N([H])C([H])([H])[H])C([H])([H])[H])C(C([H])([H])[H])(C([H])([H])[H])C([H])([H])[H])C([H])(C(=O)N([H])C1([H])c3c([H])c([H])c([H])c([H])c3C([H])([H])C([H])([H])C1([H])[H])C2([H])[H]

>  <smiles>  (63) 
[H]C(=Nc1c([H])c([H])c(OC([H])([H])[H])c(C([H])=C([H])C(=O)N2C([H])([H])C([H])([H])C([H])([H])C([H])(n3nc(-c4c([H])c([H])c(Oc5c([H])c([H])c(F)c([H])c5F)c([H])c4[H])c(C(=O)N([H])[H])c3N([H])[H])C2([H])[H])c1[H])C([H])([H])C([H])([H])Oc1c([H])c([H])c2c(c1[H])C([H])([H])N(C(=O)C([H])(N([H])C(=O)C([H])(N([H])C([H])([H])[H])C([H])([H])[H])C(C([H])([H])[H])(C([H])([H])[H])C([H])([H])[H])C([H])(C(=O)N([H])C1([H])c3c([H])c([H])c([H])c([H])c3C([H])([H])C([H])([H])C1([H])[H])C2([H])[H]

$$$$
63:0:0
     RDKit          3D

 92100  0  0  1  0  0  0  0  0999 V2000
  -27.5610  -19.1370   19.9900 C   0  0  0  0  0  3  0  0  0  0  0  0
  -28.4040  -18.0500   20.2410 C   0  0  0  0  0  3  0  0  0  0  0  0
  -28.0590  -20.4580   20.1030 C   0  0  0  0  0  0  0  0  0  0  0  0
  -29.7420  -18.2730   20.5990 C   0  0  0  0  0  0  0  0  0  0  0  0
  -29.4420  -20.5910   20.4410 C   0  0  0  0  0  0  0  0  0  0  0  0
  -30.2430  -19.5270   20.6770 N   0  0  0  0  0  0  0  0  0  0  0  0
  -30.6450  -17.1170   20.8690 C   0  0  0  0  0  3  0  0  0  0  0  0
  -30.2290  -15.9310   21.1230 N   0  0  0  0  0  0  0  0  0  0  0  0
  -31.1350  -14.8750   21.0420 C   0  0  0  0  0  0  0  0  0  0  0  0
  -31.0600  -12.5140   20.3350 C   0  0  0  0  0  2  0  0  0  0  0  0
  -30.3030  -12.4490   18.9920 C   0  0  0  0  0  2  0  0  0  0  0  0
  -28.7820  -12.3460   19.2120 C   0  0  0  0  0  2  0  0  0  0  0  0
  -28.2520  -13.4020   20.2130 C   0  0  0  0  0  3  0  0  0  0  0  0
  -29.1260  -13.4210   21.4870 C   0  0  0  0  0  2  0  0  0  0  0  0
  -30.5250  -13.6590   21.0860 N   0  0  0  0  0  0  0  0  0  0  0  0
  -32.3340  -14.9770   20.7700 O   0  0  0  0  0  0  0  0  0  0  0  0
  -25.7910  -14.0970   20.5440 C   0  0  0  0  0  0  0  0  0  0  0  0
  -24.6670  -13.3710   20.8260 C   0  0  0  0  0  0  0  0  0  0  0  0
  -25.0950  -12.0140   20.9410 C   0  0  0  0  0  0  0  0  0  0  0  0
  -26.8400  -13.1890   20.5260 N   0  0  0  0  0  0  0  0  0  0  0  0
  -26.4130  -11.9330   20.8170 N   0  0  0  0  0  0  0  0  0  0  0  0
  -24.3170  -10.7790   21.1050 C   0  0  0  0  0  0  0  0  0  0  0  0
  -24.6340   -9.8360   22.1070 C   0  0  0  0  0  3  0  0  0  0  0  0
  -23.8590   -8.6670   22.2610 C   0  0  0  0  0  3  0  0  0  0  0  0
  -22.7530   -8.4300   21.4090 C   0  0  0  0  0  0  0  0  0  0  0  0
  -22.4580   -9.3610   20.3970 C   0  0  0  0  0  3  0  0  0  0  0  0
  -23.2340  -10.5220   20.2430 C   0  0  0  0  0  3  0  0  0  0  0  0
  -21.9600   -7.3100   21.4700 O   0  0  0  0  0  0  0  0  0  0  0  0
  -21.8180   -6.5890   22.6290 C   0  0  0  0  0  0  0  0  0  0  0  0
  -21.3200   -7.1760   23.8140 C   0  0  0  0  0  3  0  0  0  0  0  0
  -21.1200   -6.3840   24.9610 C   0  0  0  0  0  3  0  0  0  0  0  0
  -21.4110   -5.0070   24.9280 C   0  0  0  0  0  0  0  0  0  0  0  0
  -21.9040   -4.4210   23.7480 C   0  0  0  0  0  3  0  0  0  0  0  0
  -22.1050   -5.2100   22.6020 C   0  0  0  0  0  0  0  0  0  0  0  0
  -22.5570   -4.6360   21.4610 F   0  0  0  0  0  0  0  0  0  0  0  0
  -21.2130   -4.2440   26.0270 F   0  0  0  0  0  0  0  0  0  0  0  0
  -23.2610  -13.8910   20.8820 C   0  0  0  0  0  0  0  0  0  0  0  0
  -22.4140  -13.2840   21.7070 N   0  0  0  0  0  0  0  0  0  0  0  0
  -22.9180  -14.8770   20.2300 O   0  0  0  0  0  0  0  0  0  0  0  0
  -22.7070  -12.4900   22.2550 H   0  0  0  0  0  0  0  0  0  0  0  0
  -21.4640  -13.6160   21.7910 H   0  0  0  0  0  0  0  0  0  0  0  0
  -26.0000  -15.4430   20.2720 N   0  0  0  0  0  0  0  0  0  0  0  0
  -25.2210  -16.0710   20.1100 H   0  0  0  0  0  0  0  0  0  0  0  0
  -26.8890  -15.8160   19.9720 H   0  0  0  0  0  0  0  0  0  0  0  0
  -26.0480  -21.4300   19.1420 C   0  0  0  0  0  1  0  0  0  0  0  0
  -27.2570  -21.5660   19.8890 O   0  0  0  0  0  0  0  0  0  0  0  0
  -30.1580  -21.7680   20.5600 O   0  0  0  0  0  0  0  0  0  0  0  0
  -29.4770  -22.9850   20.8290 C   0  0  0  0  0  2  0  0  0  0  0  0
  -30.1470  -25.3970   20.3600 C   0  0  0  0  0  3  0  0  0  0  0  0
  -30.4340  -24.1590   20.8140 C   0  0  0  0  0  3  0  0  0  0  0  0
  -28.8070  -25.8800   19.8130 C   0  0  0  0  0  2  0  0  0  0  0  0
  -28.6790  -27.2800   20.0500 O   0  0  0  0  0  0  0  0  0  0  0  0
  -24.5610  -31.9460   23.4070 C   0  0  0  0  0  0  0  0  0  0  0  0
  -27.4330  -27.8700   20.0640 C   0  0  0  0  0  0  0  0  0  0  0  0
  -23.4280  -30.6320   21.6390 C   0  0  0  0  0  3  0  0  0  0  0  0
  -24.9640  -29.2510   20.1310 C   0  0  0  0  0  0  0  0  0  0  0  0
  -25.9360  -31.1030   21.5100 C   0  0  0  0  0  2  0  0  0  0  0  0
  -26.0830  -29.7860   20.7760 C   0  0  0  0  0  0  0  0  0  0  0  0
  -27.3170  -29.1060   20.7330 C   0  0  0  0  0  3  0  0  0  0  0  0
  -26.2940  -27.3300   19.4210 C   0  0  0  0  0  3  0  0  0  0  0  0
  -25.0620  -28.0240   19.4460 C   0  0  0  0  0  3  0  0  0  0  0  0
  -23.6830  -30.0550   20.2170 C   0  0  0  0  0  2  0  0  0  0  0  0
  -24.6580  -31.2380   22.2460 N   0  0  0  0  0  0  0  0  0  0  0  0
  -23.4650  -32.1410   23.9480 O   0  0  0  0  0  0  0  0  0  0  0  0
  -22.7970  -29.5250   22.5110 C   0  0  0  0  0  0  0  0  0  0  0  0
  -21.4840  -29.3060   22.3340 N   0  0  0  0  0  0  0  0  0  0  0  0
  -23.4850  -28.8680   23.2980 O   0  0  0  0  0  0  0  0  0  0  0  0
  -20.9890  -29.8850   21.6710 H   0  0  0  0  0  0  0  0  0  0  0  0
  -18.1600  -27.9290   22.6380 C   0  0  0  0  0  0  0  0  0  0  0  0
  -20.6900  -28.2890   23.0200 C   0  0  0  0  0  3  0  0  0  0  0  0
  -20.8840  -26.9030   22.3660 C   0  0  0  0  0  2  0  0  0  0  0  0
  -19.8350  -26.5900   21.2960 C   0  0  0  0  0  2  0  0  0  0  0  0
  -18.4260  -26.6320   21.8930 C   0  0  0  0  0  2  0  0  0  0  0  0
  -19.2240  -28.7150   23.1520 C   0  0  0  0  0  0  0  0  0  0  0  0
  -18.9240  -29.9340   23.8010 C   0  0  0  0  0  3  0  0  0  0  0  0
  -17.5910  -30.3610   23.9440 C   0  0  0  0  0  3  0  0  0  0  0  0
  -16.5410  -29.5730   23.4450 C   0  0  0  0  0  3  0  0  0  0  0  0
  -16.8260  -28.3560   22.7990 C   0  0  0  0  0  3  0  0  0  0  0  0
  -25.8170  -32.5690   24.0940 C   0  0  0  0  0  3  0  0  0  0  0  0
  -25.5170  -33.9800   24.3730 N   0  0  0  0  0  0  0  0  0  0  0  0
  -25.9380  -35.0100   23.6260 C   0  0  0  0  0  0  0  0  0  0  0  0
  -26.6910  -34.8710   22.6580 O   0  0  0  0  0  0  0  0  0  0  0  0
  -24.8540  -34.1630   25.1120 H   0  0  0  0  0  0  0  0  0  0  0  0
  -24.2880  -36.8330   23.0950 C   0  0  0  0  0  1  0  0  0  0  0  0
  -25.4460  -36.4160   24.0160 C   0  0  0  0  0  3  0  0  0  0  0  0
  -27.5120  -37.2800   25.0210 C   0  0  0  0  0  1  0  0  0  0  0  0
  -26.5080  -37.4440   23.9730 N   0  0  0  0  0  0  0  0  0  0  0  0
  -26.1090  -38.3750   24.0590 H   0  0  0  0  0  0  0  0  0  0  0  0
  -26.2430  -31.8160   25.4140 C   0  0  1  0  0  0  0  0  0  0  0  0
  -25.0890  -31.6390   26.4270 C   0  0  0  0  0  1  0  0  0  0  0  0
  -26.8020  -30.4120   25.0840 C   0  0  0  0  0  1  0  0  0  0  0  0
  -27.3810  -32.5940   26.1180 C   0  0  0  0  0  1  0  0  0  0  0  0
  1  3  2  0
  1  2  1  0
  2  4  2  0
  3  5  1  0
  4  6  1  0
  4  7  1  0
  5 47  1  0
  5  6  2  0
  7  8  2  0
  9 15  1  0
  9  8  1  0
 10 15  1  0
 11 12  1  0
 11 10  1  0
 13 12  1  0
 13 20  1  0
 13 14  1  0
 15 14  1  0
 16  9  2  0
 17 18  2  0
 18 37  1  0
 18 19  1  0
 19 22  1  0
 20 17  1  0
 20 21  1  0
 21 19  2  0
 22 23  1  0
 23 24  2  0
 25 28  1  0
 25 24  1  0
 26 25  2  0
 27 26  1  0
 27 22  2  0
 28 29  1  0
 29 30  1  0
 30 31  2  0
 32 31  1  0
 32 36  1  0
 33 32  2  0
 34 29  2  0
 34 33  1  0
 35 34  1  0
 37 38  1  0
 38 41  1  0
 38 40  1  0
 39 37  2  0
 42 17  1  0
 43 42  1  0
 44 42  1  0
 45 46  1  0
 46  3  1  0
 47 48  1  0
 49 50  2  0
 50 48  1  0
 51 52  1  0
 51 49  1  0
 52 54  1  0
 53 64  2  0
 54 59  1  0
 55 63  1  0
 55 65  1  0
 56 62  1  0
 56 58  1  0
 57 63  1  0
 58 57  1  0
 59 58  2  0
 60 61  1  0
 60 54  2  0
 61 56  2  0
 62 55  1  0
 63 53  1  0
 65 67  2  0
 66 65  1  0
 68 66  1  0
 69 78  2  0
 69 74  1  0
 70 66  1  0
 70 74  1  0
 71 70  1  0
 72 73  1  0
 72 71  1  0
 73 69  1  0
 74 75  2  0
 75 76  1  0
 77 76  2  0
 78 77  1  0
 79 53  1  0
 79 80  1  0
 79 89  1  0
 80 83  1  0
 81 85  1  0
 81 80  1  0
 82 81  2  0
 85 84  1  0
 87 85  1  0
 87 88  1  0
 87 86  1  0
 89 92  1  1
 89 90  1  0
 91 89  1  0
M  ISO  4   8 100   9 100  51 101  52 101
M  END
>  <TORSDO>  (64) 
F 22

>  <SCORE>  (64) 
-12.118

>  <name>  (64) 
63

>  <ligand_id>  (64) 
63

>  <original_smiles>  (64) 
[H]C(=NC(=O)N1C([H])([H])C([H])([H])C([H])([H])C([H])(n2nc(-c3c([H])c([H])c(Oc4c([H])c([H])c(F)c([H])c4F)c([H])c3[H])c(C(=O)N([H])[H])c2N([H])[H])C1([H])[H])c1nc(OC([H])([H])C([H])=C([H])C([H])([H])Oc2c([H])c([H])c3c(c2[H])C([H])([H])N(C(=O)C([H])(N([H])C(=O)C([H])(N([H])C([H])([H])[H])C([H])([H])[H])C(C([H])([H])[H])(C([H])([H])[H])C([H])([H])[H])C([H])(C(=O)N([H])C2([H])c4c([H])c([H])c([H])c([H])c4C([H])([H])C([H])([H])C2([H])[H])C3([H])[H])c(OC([H])([H])[H])c([H])c1[H]

>  <smiles>  (64) 
[H]C(=NC(=O)N1C([H])([H])C([H])([H])C([H])([H])C([H])(n2nc(-c3c([H])c([H])c(Oc4c([H])c([H])c(F)c([H])c4F)c([H])c3[H])c(C(=O)N([H])[H])c2N([H])[H])C1([H])[H])c1nc(OC([H])([H])C([H])=C([H])C([H])([H])Oc2c([H])c([H])c3c(c2[H])C([H])([H])N(C(=O)C([H])(N([H])C(=O)C([H])(N([H])C([H])([H])[H])C([H])([H])[H])C(C([H])([H])[H])(C([H])([H])[H])C([H])([H])[H])C([H])(C(=O)N([H])C2([H])c4c([H])c([H])c([H])c([H])c4C([H])([H])C([H])([H])C2([H])[H])C3([H])[H])c(OC([H])([H])[H])c([H])c1[H]

$$$$
64:0:0
     RDKit          3D

 96104  0  0  1  0  0  0  0  0999 V2000
  -28.2350  -20.2680   20.0300 C   0  0  0  0  0  3  0  0  0  0  0  0
  -30.7430  -19.9990   21.2240 C   0  0  0  0  0  3  0  0  0  0  0  0
  -28.5740  -19.0370   20.6440 C   0  0  0  0  0  0  0  0  0  0  0  0
  -29.8620  -18.8850   21.2380 C   0  0  0  0  0  0  0  0  0  0  0  0
  -29.1030  -21.3840   20.0630 C   0  0  0  0  0  0  0  0  0  0  0  0
  -30.3680  -21.2410   20.6730 C   0  0  0  0  0  0  0  0  0  0  0  0
  -26.8360  -17.5630   19.5690 C   0  0  0  0  0  2  0  0  0  0  0  0
  -27.5790  -17.9390   20.6230 C   0  0  0  0  0  3  0  0  0  0  0  0
  -31.5140  -17.7750   22.8740 C   0  0  0  0  0  1  0  0  0  0  0  0
  -30.2990  -17.5770   21.9430 C   0  0  0  0  0  3  0  0  0  0  0  0
  -30.1530  -15.3260   21.1720 C   0  0  0  0  0  3  0  0  0  0  0  0
  -30.6480  -16.5000   21.0210 N   0  0  0  0  0  0  0  0  0  0  0  0
  -30.7330  -14.1070   20.4510 C   0  0  0  0  0  0  0  0  0  0  0  0
  -30.4830  -11.7970   19.6240 C   0  0  0  0  0  2  0  0  0  0  0  0
  -29.5900  -11.7920   18.3670 C   0  0  0  0  0  2  0  0  0  0  0  0
  -28.1060  -11.6750   18.7570 C   0  0  0  0  0  2  0  0  0  0  0  0
  -27.7030  -12.6790   19.8700 C   0  0  0  0  0  3  0  0  0  0  0  0
  -28.7160  -12.6550   21.0380 C   0  0  0  0  0  2  0  0  0  0  0  0
  -30.0560  -12.9190   20.4860 N   0  0  0  0  0  0  0  0  0  0  0  0
  -31.7980  -14.2390   19.8360 O   0  0  0  0  0  0  0  0  0  0  0  0
  -25.3150  -13.3480   20.5540 C   0  0  0  0  0  0  0  0  0  0  0  0
  -24.2240  -12.6030   20.9120 C   0  0  0  0  0  0  0  0  0  0  0  0
  -24.6490  -11.2400   20.8830 C   0  0  0  0  0  0  0  0  0  0  0  0
  -26.3410  -12.4400   20.3330 N   0  0  0  0  0  0  0  0  0  0  0  0
  -25.9390  -11.1660   20.5850 N   0  0  0  0  0  0  0  0  0  0  0  0
  -23.8860   -9.9970   21.0660 C   0  0  0  0  0  0  0  0  0  0  0  0
  -24.0850   -9.1690   22.1930 C   0  0  0  0  0  3  0  0  0  0  0  0
  -23.3290   -7.9900   22.3560 C   0  0  0  0  0  3  0  0  0  0  0  0
  -22.3590   -7.6290   21.3920 C   0  0  0  0  0  0  0  0  0  0  0  0
  -22.1800   -8.4460   20.2610 C   0  0  0  0  0  3  0  0  0  0  0  0
  -22.9380   -9.6180   20.0970 C   0  0  0  0  0  3  0  0  0  0  0  0
  -21.5960   -6.4880   21.4530 O   0  0  0  0  0  0  0  0  0  0  0  0
  -21.1210   -6.0030   22.6450 C   0  0  0  0  0  0  0  0  0  0  0  0
  -20.2290   -6.7450   23.4490 C   0  0  0  0  0  3  0  0  0  0  0  0
  -19.7130   -6.1810   24.6330 C   0  0  0  0  0  3  0  0  0  0  0  0
  -20.0780   -4.8750   25.0080 C   0  0  0  0  0  0  0  0  0  0  0  0
  -20.9610   -4.1320   24.2060 C   0  0  0  0  0  3  0  0  0  0  0  0
  -21.4790   -4.6940   23.0260 C   0  0  0  0  0  0  0  0  0  0  0  0
  -22.3130   -3.9660   22.2450 F   0  0  0  0  0  0  0  0  0  0  0  0
  -19.5760   -4.3290   26.1410 F   0  0  0  0  0  0  0  0  0  0  0  0
  -22.8410  -13.1190   21.1830 C   0  0  0  0  0  0  0  0  0  0  0  0
  -22.1030  -12.4610   22.0720 N   0  0  0  0  0  0  0  0  0  0  0  0
  -22.4220  -14.1410   20.6420 O   0  0  0  0  0  0  0  0  0  0  0  0
  -22.4530  -11.6300   22.5280 H   0  0  0  0  0  0  0  0  0  0  0  0
  -21.1770  -12.7930   22.2980 H   0  0  0  0  0  0  0  0  0  0  0  0
  -25.5160  -14.7130   20.3780 N   0  0  0  0  0  0  0  0  0  0  0  0
  -24.7640  -15.3850   20.4750 H   0  0  0  0  0  0  0  0  0  0  0  0
  -26.3920  -15.1370   20.0970 H   0  0  0  0  0  0  0  0  0  0  0  0
  -28.7830  -22.6090   19.5120 O   0  0  0  0  0  0  0  0  0  0  0  0
  -28.0120  -24.8680   19.8560 C   0  0  0  0  0  1  0  0  0  0  0  0
  -27.7830  -23.3850   20.1690 C   0  0  0  0  0  2  0  0  0  0  0  0
  -31.2590  -22.2910   20.7070 O   0  0  0  0  0  0  0  0  0  0  0  0
  -30.9850  -23.2940   21.6890 C   0  0  0  0  0  2  0  0  0  0  0  0
  -31.3330  -24.6920   21.1290 C   0  0  0  0  0  2  0  0  0  0  0  0
  -30.9660  -25.8390   22.0940 C   0  0  0  0  0  2  0  0  0  0  0  0
  -31.0100  -27.1230   21.4570 O   0  0  0  0  0  0  0  0  0  0  0  0
  -25.8580  -31.2490   24.0900 C   0  0  0  0  0  0  0  0  0  0  0  0
  -29.7780  -27.6960   21.2590 C   0  0  0  0  0  0  0  0  0  0  0  0
  -25.2800  -29.9590   22.0610 C   0  0  0  0  0  3  0  0  0  0  0  0
  -27.2360  -28.8490   20.8590 C   0  0  0  0  0  0  0  0  0  0  0  0
  -27.6930  -30.6750   22.5030 C   0  0  0  0  0  2  0  0  0  0  0  0
  -28.1370  -29.4330   21.7600 C   0  0  0  0  0  0  0  0  0  0  0  0
  -29.4150  -28.8630   21.9630 C   0  0  0  0  0  3  0  0  0  0  0  0
  -28.8690  -27.1190   20.3490 C   0  0  0  0  0  3  0  0  0  0  0  0
  -27.5970  -27.6910   20.1480 C   0  0  0  0  0  3  0  0  0  0  0  0
  -25.8900  -29.5210   20.7000 C   0  0  0  0  0  2  0  0  0  0  0  0
  -26.2790  -30.6330   22.9500 N   0  0  0  0  0  0  0  0  0  0  0  0
  -24.6550  -31.2980   24.3850 O   0  0  0  0  0  0  0  0  0  0  0  0
  -24.6040  -28.7330   22.7170 C   0  0  0  0  0  0  0  0  0  0  0  0
  -23.3990  -28.3860   22.2360 N   0  0  0  0  0  0  0  0  0  0  0  0
  -25.1680  -28.1030   23.6130 O   0  0  0  0  0  0  0  0  0  0  0  0
  -22.9980  -28.9540   21.5040 H   0  0  0  0  0  0  0  0  0  0  0  0
  -20.2390  -26.7000   21.7640 C   0  0  0  0  0  0  0  0  0  0  0  0
  -22.5950  -27.2480   22.6780 C   0  0  0  0  0  3  0  0  0  0  0  0
  -23.0550  -25.9420   21.9890 C   0  0  0  0  0  2  0  0  0  0  0  0
  -22.2740  -25.6310   20.7090 C   0  0  0  0  0  2  0  0  0  0  0  0
  -20.7770  -25.4980   21.0060 C   0  0  0  0  0  2  0  0  0  0  0  0
  -21.0950  -27.5290   22.5340 C   0  0  0  0  0  0  0  0  0  0  0  0
  -20.5520  -28.6540   23.1910 C   0  0  0  0  0  3  0  0  0  0  0  0
  -19.1800  -28.9550   23.0890 C   0  0  0  0  0  3  0  0  0  0  0  0
  -18.3320  -28.1180   22.3410 C   0  0  0  0  0  3  0  0  0  0  0  0
  -18.8620  -26.9930   21.6850 C   0  0  0  0  0  3  0  0  0  0  0  0
  -26.8580  -31.9440   25.0630 C   0  0  0  0  0  3  0  0  0  0  0  0
  -26.9370  -31.2460   26.4750 C   0  0  1  0  0  0  0  0  0  0  0  0
  -25.5560  -31.0320   27.1400 C   0  0  0  0  0  1  0  0  0  0  0  0
  -27.6300  -29.8690   26.3590 C   0  0  0  0  0  1  0  0  0  0  0  0
  -27.8050  -32.0960   27.4330 C   0  0  0  0  0  1  0  0  0  0  0  0
  -26.4410  -33.3440   25.2000 N   0  0  0  0  0  0  0  0  0  0  0  0
  -27.0030  -34.3710   24.5490 C   0  0  0  0  0  0  0  0  0  0  0  0
  -27.9880  -34.2420   23.8150 O   0  0  0  0  0  0  0  0  0  0  0  0
  -25.6050  -33.5150   25.7390 H   0  0  0  0  0  0  0  0  0  0  0  0
  -25.4730  -36.0980   23.5440 C   0  0  0  0  0  1  0  0  0  0  0  0
  -26.3740  -35.7640   24.7440 C   0  0  0  0  0  3  0  0  0  0  0  0
  -28.1070  -36.7340   26.1870 C   0  0  0  0  0  1  0  0  0  0  0  0
  -27.3710  -36.8420   24.9300 N   0  0  0  0  0  0  0  0  0  0  0  0
  -26.9200  -37.7530   24.9060 H   0  0  0  0  0  0  0  0  0  0  0  0
  1  5  2  0
  1  3  1  0
  2  4  1  0
  3  4  2  0
  4 10  1  0
  5  6  1  0
  6 52  1  0
  6  2  2  0
  7  8  2  0
  8  3  1  0
 10  9  1  0
 12 11  2  0
 12 10  1  0
 13 19  1  0
 13 11  1  0
 14 19  1  0
 15 16  1  0
 15 14  1  0
 17 16  1  0
 17 24  1  0
 17 18  1  0
 19 18  1  0
 20 13  2  0
 21 22  2  0
 22 41  1  0
 23 22  1  0
 23 26  1  0
 24 21  1  0
 24 25  1  0
 25 23  2  0
 26 27  1  0
 27 28  2  0
 29 32  1  0
 29 28  1  0
 30 29  2  0
 31 30  1  0
 31 26  2  0
 32 33  1  0
 33 38  2  0
 33 34  1  0
 34 35  2  0
 35 36  1  0
 36 40  1  0
 37 36  2  0
 38 37  1  0
 39 38  1  0
 41 42  1  0
 42 45  1  0
 42 44  1  0
 43 41  2  0
 46 47  1  0
 46 21  1  0
 48 46  1  0
 49  5  1  0
 49 51  1  0
 50 51  1  0
 52 53  1  0
 54 53  1  0
 54 55  1  0
 56 55  1  0
 57 68  2  0
 58 56  1  0
 58 63  1  0
 59 69  1  0
 59 67  1  0
 60 62  1  0
 61 67  1  0
 62 63  2  0
 62 61  1  0
 64 58  2  0
 65 64  1  0
 65 60  2  0
 66 60  1  0
 66 59  1  0
 67 57  1  0
 69 71  2  0
 70 69  1  0
 72 70  1  0
 73 78  1  0
 74 70  1  0
 75 74  1  0
 76 77  1  0
 76 75  1  0
 77 73  1  0
 78 74  1  0
 78 79  2  0
 80 79  1  0
 81 80  2  0
 82 73  2  0
 82 81  1  0
 83 57  1  0
 83 88  1  0
 83 84  1  0
 84 85  1  1
 84 87  1  0
 86 84  1  0
 88 91  1  0
 89 93  1  0
 89 88  1  0
 90 89  2  0
 93 92  1  0
 93 95  1  0
 95 94  1  0
 96 95  1  0
M  ISO  4  11 100  13 100  55 101  56 101
M  END
>  <TORSDO>  (65) 
F 25

>  <SCORE>  (65) 
-7.582

>  <name>  (65) 
64

>  <ligand_id>  (65) 
64

>  <original_smiles>  (65) 
[H]C(=NC([H])(c1c([H])c(OC([H])([H])C([H])([H])C([H])([H])Oc2c([H])c([H])c3c(c2[H])C([H])([H])N(C(=O)C([H])(N([H])C(=O)C([H])(N([H])C([H])([H])[H])C([H])([H])[H])C(C([H])([H])[H])(C([H])([H])[H])C([H])([H])[H])C([H])(C(=O)N([H])C2([H])c4c([H])c([H])c([H])c([H])c4C([H])([H])C([H])([H])C2([H])[H])C3([H])[H])c(OC([H])([H])C([H])([H])[H])c([H])c1C([H])=C([H])[H])C([H])([H])[H])C(=O)N1C([H])([H])C([H])([H])C([H])([H])C([H])(n2nc(-c3c([H])c([H])c(Oc4c([H])c([H])c(F)c([H])c4F)c([H])c3[H])c(C(=O)N([H])[H])c2N([H])[H])C1([H])[H]

>  <smiles>  (65) 
[H]C(=NC([H])(c1c([H])c(OC([H])([H])C([H])([H])C([H])([H])Oc2c([H])c([H])c3c(c2[H])C([H])([H])N(C(=O)C([H])(N([H])C(=O)C([H])(N([H])C([H])([H])[H])C([H])([H])[H])C(C([H])([H])[H])(C([H])([H])[H])C([H])([H])[H])C([H])(C(=O)N([H])C2([H])c4c([H])c([H])c([H])c([H])c4C([H])([H])C([H])([H])C2([H])[H])C3([H])[H])c(OC([H])([H])C([H])([H])[H])c([H])c1C([H])=C([H])[H])C([H])([H])[H])C(=O)N1C([H])([H])C([H])([H])C([H])([H])C([H])(n2nc(-c3c([H])c([H])c(Oc4c([H])c([H])c(F)c([H])c4F)c([H])c3[H])c(C(=O)N([H])[H])c2N([H])[H])C1([H])[H]

$$$$
65:0:0
     RDKit          3D

 94103  0  0  1  0  0  0  0  0999 V2000
  -29.1380  -20.6500   19.8750 C   0  0  0  0  0  0  0  0  0  0  0  0
  -26.4920  -22.5760   20.6410 C   0  0  0  0  0  2  0  0  0  0  0  0
  -26.9420  -23.1790   19.2990 C   0  0  0  0  0  2  0  0  0  0  0  0
  -27.7760  -22.0650   21.3260 C   0  0  0  0  0  2  0  0  0  0  0  0
  -28.4420  -23.4020   19.4970 C   0  0  0  0  0  3  0  0  0  0  0  0
  -28.7730  -22.0150   20.2600 N   0  0  0  0  0  0  0  0  0  0  0  0
  -29.0300  -20.3040   18.6970 O   0  0  0  0  0  0  0  0  0  0  0  0
  -31.4020  -18.5070   23.0890 C   0  0  0  0  0  3  0  0  0  0  0  0
  -30.8340  -17.6510   22.1460 C   0  0  0  0  0  3  0  0  0  0  0  0
  -30.4560  -20.3640   21.9090 C   0  0  0  0  0  3  0  0  0  0  0  0
  -29.8150  -19.5820   20.8990 C   0  0  0  0  0  0  0  0  0  0  0  0
  -31.2180  -19.8740   22.9700 C   0  0  0  0  0  0  0  0  0  0  0  0
  -30.0600  -18.0390   21.0080 C   0  0  0  0  0  0  0  0  0  0  0  0
  -31.8260  -20.8240   23.9830 C   0  0  0  0  0  1  0  0  0  0  0  0
  -30.3850  -15.4250   20.2030 C   0  0  0  0  0  0  0  0  0  0  0  0
  -30.3040  -13.0510   19.2510 C   0  0  0  0  0  2  0  0  0  0  0  0
  -29.3560  -12.9130   18.0390 C   0  0  0  0  0  2  0  0  0  0  0  0
  -27.9150  -12.6430   18.5080 C   0  0  0  0  0  2  0  0  0  0  0  0
  -27.4900  -13.5720   19.6750 C   0  0  0  0  0  3  0  0  0  0  0  0
  -28.5650  -13.6780   20.7740 C   0  0  0  0  0  2  0  0  0  0  0  0
  -29.7840  -14.1610   20.1130 N   0  0  0  0  0  0  0  0  0  0  0  0
  -31.5970  -15.4370   19.9530 O   0  0  0  0  0  0  0  0  0  0  0  0
  -29.6620  -16.6860   20.3280 N   0  0  0  0  0  0  0  0  0  0  0  0
  -28.6780  -16.6020   20.1220 H   0  0  0  0  0  0  0  0  0  0  0  0
  -25.1170  -14.0720   20.4750 C   0  0  0  0  0  0  0  0  0  0  0  0
  -24.0830  -13.2630   20.8560 C   0  0  0  0  0  0  0  0  0  0  0  0
  -24.5860  -11.9270   20.8100 C   0  0  0  0  0  0  0  0  0  0  0  0
  -26.1800  -13.2250   20.2070 N   0  0  0  0  0  0  0  0  0  0  0  0
  -25.8730  -11.9300   20.4780 N   0  0  0  0  0  0  0  0  0  0  0  0
  -23.8990  -10.6430   21.0010 C   0  0  0  0  0  0  0  0  0  0  0  0
  -24.3560   -9.6920   21.9410 C   0  0  0  0  0  3  0  0  0  0  0  0
  -23.6640   -8.4760   22.1220 C   0  0  0  0  0  3  0  0  0  0  0  0
  -22.5020   -8.1990   21.3630 C   0  0  0  0  0  0  0  0  0  0  0  0
  -22.0650   -9.1390   20.4120 C   0  0  0  0  0  3  0  0  0  0  0  0
  -22.7580  -10.3470   20.2290 C   0  0  0  0  0  3  0  0  0  0  0  0
  -21.7810   -7.0330   21.4530 O   0  0  0  0  0  0  0  0  0  0  0  0
  -21.7350   -6.3040   22.6150 C   0  0  0  0  0  0  0  0  0  0  0  0
  -21.2520   -6.8540   23.8220 C   0  0  0  0  0  3  0  0  0  0  0  0
  -21.1570   -6.0480   24.9750 C   0  0  0  0  0  3  0  0  0  0  0  0
  -21.5360   -4.6930   24.9210 C   0  0  0  0  0  0  0  0  0  0  0  0
  -22.0120   -4.1420   23.7180 C   0  0  0  0  0  3  0  0  0  0  0  0
  -22.1090   -4.9460   22.5680 C   0  0  0  0  0  0  0  0  0  0  0  0
  -22.5490   -4.4040   21.4060 F   0  0  0  0  0  0  0  0  0  0  0  0
  -21.4380   -3.9170   26.0250 F   0  0  0  0  0  0  0  0  0  0  0  0
  -22.6780  -13.6990   21.1480 C   0  0  0  0  0  0  0  0  0  0  0  0
  -21.9850  -12.9810   22.0240 N   0  0  0  0  0  0  0  0  0  0  0  0
  -22.2050  -14.7130   20.6360 O   0  0  0  0  0  0  0  0  0  0  0  0
  -22.3830  -12.1620   22.4600 H   0  0  0  0  0  0  0  0  0  0  0  0
  -21.0430  -13.2540   22.2640 H   0  0  0  0  0  0  0  0  0  0  0  0
  -25.2380  -15.4480   20.3070 N   0  0  0  0  0  0  0  0  0  0  0  0
  -24.4560  -16.0780   20.4440 H   0  0  0  0  0  0  0  0  0  0  0  0
  -26.0710  -15.9170   19.9750 H   0  0  0  0  0  0  0  0  0  0  0  0
  -28.5730  -25.0070   20.1550 C   0  0  0  0  0  2  0  0  0  0  0  0
  -28.4510  -26.4860   19.5780 O   0  0  0  0  0  0  0  0  0  0  0  0
  -24.7640  -31.9320   23.1140 C   0  0  0  0  0  0  0  0  0  0  0  0
  -27.3560  -27.4330   19.7250 C   0  0  0  0  0  0  0  0  0  0  0  0
  -23.5540  -30.6230   21.4110 C   0  0  0  0  0  3  0  0  0  0  0  0
  -24.9990  -29.1620   19.8600 C   0  0  0  0  0  0  0  0  0  0  0  0
  -26.1020  -30.9430   21.2050 C   0  0  0  0  0  2  0  0  0  0  0  0
  -26.1870  -29.5890   20.4660 C   0  0  0  0  0  0  0  0  0  0  0  0
  -27.3670  -28.7460   20.3700 C   0  0  0  0  0  3  0  0  0  0  0  0
  -26.1330  -27.1170   19.1000 C   0  0  0  0  0  3  0  0  0  0  0  0
  -24.9860  -27.9430   19.1630 C   0  0  0  0  0  3  0  0  0  0  0  0
  -23.7570  -30.0370   19.9880 C   0  0  0  0  0  2  0  0  0  0  0  0
  -24.8290  -31.1860   21.9650 N   0  0  0  0  0  0  0  0  0  0  0  0
  -23.6830  -32.1550   23.6830 O   0  0  0  0  0  0  0  0  0  0  0  0
  -22.9170  -29.5420   22.3220 C   0  0  0  0  0  0  0  0  0  0  0  0
  -21.5880  -29.3560   22.2200 N   0  0  0  0  0  0  0  0  0  0  0  0
  -23.6210  -28.8730   23.0810 O   0  0  0  0  0  0  0  0  0  0  0  0
  -21.0750  -29.9470   21.5820 H   0  0  0  0  0  0  0  0  0  0  0  0
  -18.2400  -28.0710   22.7450 C   0  0  0  0  0  0  0  0  0  0  0  0
  -20.8050  -28.3500   22.9450 C   0  0  0  0  0  3  0  0  0  0  0  0
  -20.9040  -26.9670   22.2580 C   0  0  0  0  0  2  0  0  0  0  0  0
  -19.7710  -26.7080   21.2600 C   0  0  0  0  0  2  0  0  0  0  0  0
  -18.4100  -26.7820   21.9590 C   0  0  0  0  0  2  0  0  0  0  0  0
  -19.3640  -28.8160   23.1940 C   0  0  0  0  0  0  0  0  0  0  0  0
  -19.1480  -30.0240   23.8910 C   0  0  0  0  0  3  0  0  0  0  0  0
  -17.8430  -30.4880   24.1420 C   0  0  0  0  0  3  0  0  0  0  0  0
  -16.7350  -29.7390   23.7070 C   0  0  0  0  0  3  0  0  0  0  0  0
  -16.9360  -28.5320   23.0150 C   0  0  0  0  0  3  0  0  0  0  0  0
  -26.0400  -32.5540   23.7580 C   0  0  0  0  0  3  0  0  0  0  0  0
  -25.7000  -33.9130   24.2120 N   0  0  0  0  0  0  0  0  0  0  0  0
  -25.9910  -35.0370   23.5450 C   0  0  0  0  0  0  0  0  0  0  0  0
  -26.6390  -35.0410   22.4960 O   0  0  0  0  0  0  0  0  0  0  0  0
  -25.1220  -33.9820   25.0360 H   0  0  0  0  0  0  0  0  0  0  0  0
  -24.2150  -36.8130   23.3880 C   0  0  0  0  0  1  0  0  0  0  0  0
  -25.4830  -36.3690   24.1340 C   0  0  0  0  0  3  0  0  0  0  0  0
  -27.6110  -37.2350   24.9970 C   0  0  0  0  0  1  0  0  0  0  0  0
  -26.4870  -37.4540   24.0920 N   0  0  0  0  0  0  0  0  0  0  0  0
  -26.0620  -38.3480   24.3240 H   0  0  0  0  0  0  0  0  0  0  0  0
  -26.6040  -31.7000   24.9600 C   0  0  1  0  0  0  0  0  0  0  0  0
  -25.5440  -31.3570   26.0330 C   0  0  0  0  0  1  0  0  0  0  0  0
  -27.2040  -30.3690   24.4540 C   0  0  0  0  0  1  0  0  0  0  0  0
  -27.7570  -32.4680   25.6510 C   0  0  0  0  0  1  0  0  0  0  0  0
  1  6  1  0
  1 11  1  0
  2  4  1  0
  3  5  1  0
  3  2  1  0
  5 53  1  0
  5  6  1  0
  6  4  1  0
  7  1  2  0
  9  8  2  0
 10 12  2  0
 11 13  2  0
 11 10  1  0
 12  8  1  0
 12 14  1  0
 13  9  1  0
 15 23  1  0
 16 21  1  0
 17 18  1  0
 17 16  1  0
 19 18  1  0
 19 28  1  0
 19 20  1  0
 21 15  1  0
 21 20  1  0
 22 15  2  0
 23 13  1  0
 24 23  1  0
 25 26  2  0
 26 45  1  0
 27 26  1  0
 27 30  1  0
 28 25  1  0
 28 29  1  0
 29 27  2  0
 30 31  1  0
 31 32  2  0
 33 36  1  0
 33 32  1  0
 34 33  2  0
 35 34  1  0
 35 30  2  0
 36 37  1  0
 37 38  1  0
 38 39  2  0
 40 39  1  0
 40 44  1  0
 41 40  2  0
 42 37  2  0
 42 41  1  0
 43 42  1  0
 45 46  1  0
 46 49  1  0
 46 48  1  0
 47 45  2  0
 50 51  1  0
 50 25  1  0
 52 50  1  0
 54 56  1  0
 54 53  1  0
 55 66  2  0
 56 61  1  0
 57 65  1  0
 57 67  1  0
 58 64  1  0
 58 60  1  0
 59 65  1  0
 60 59  1  0
 61 60  2  0
 62 63  1  0
 62 56  2  0
 63 58  2  0
 64 57  1  0
 65 55  1  0
 67 69  2  0
 68 67  1  0
 70 68  1  0
 71 80  2  0
 71 76  1  0
 72 68  1  0
 72 76  1  0
 73 72  1  0
 74 75  1  0
 74 73  1  0
 75 71  1  0
 76 77  2  0
 77 78  1  0
 79 78  2  0
 80 79  1  0
 81 55  1  0
 81 82  1  0
 81 91  1  0
 82 85  1  0
 83 87  1  0
 83 82  1  0
 84 83  2  0
 87 86  1  0
 89 87  1  0
 89 90  1  0
 89 88  1  0
 91 94  1  1
 91 92  1  0
 93 91  1  0
M  ISO  4  15 100  23 100  53 101  54 101
M  END
>  <TORSDO>  (66) 
F 18

>  <SCORE>  (66) 
-14.708

>  <name>  (66) 
65

>  <ligand_id>  (66) 
65

>  <original_smiles>  (66) 
[H]c1c([H])c([H])c2c(c1[H])C([H])([H])C([H])([H])C([H])([H])C2([H])N([H])C(=O)C1([H])N(C(=O)C([H])(N([H])C(=O)C([H])(N([H])C([H])([H])[H])C([H])([H])[H])C(C([H])([H])[H])(C([H])([H])[H])C([H])([H])[H])C([H])([H])c2c([H])c(OC([H])([H])C3([H])N(C(=O)c4c([H])c(C([H])([H])[H])c([H])c([H])c4N([H])C(=O)N4C([H])([H])C([H])([H])C([H])([H])C([H])(n5nc(-c6c([H])c([H])c(Oc7c([H])c([H])c(F)c([H])c7F)c([H])c6[H])c(C(=O)N([H])[H])c5N([H])[H])C4([H])[H])C([H])([H])C([H])([H])C3([H])[H])c([H])c([H])c2C1([H])[H]

>  <smiles>  (66) 
[H]c1c([H])c([H])c2c(c1[H])C([H])([H])C([H])([H])C([H])([H])C2([H])N([H])C(=O)C1([H])N(C(=O)C([H])(N([H])C(=O)C([H])(N([H])C([H])([H])[H])C([H])([H])[H])C(C([H])([H])[H])(C([H])([H])[H])C([H])([H])[H])C([H])([H])c2c([H])c(OC([H])([H])C3([H])N(C(=O)c4c([H])c(C([H])([H])[H])c([H])c([H])c4N([H])C(=O)N4C([H])([H])C([H])([H])C([H])([H])C([H])(n5nc(-c6c([H])c([H])c(Oc7c([H])c([H])c(F)c([H])c7F)c([H])c6[H])c(C(=O)N([H])[H])c5N([H])[H])C4([H])[H])C([H])([H])C([H])([H])C3([H])[H])c([H])c([H])c2C1([H])[H]

$$$$
66:0:0
     RDKit          3D

 96105  0  0  1  0  0  0  0  0999 V2000
  -30.8740  -20.0950   19.8400 C   0  0  0  0  0  3  0  0  0  0  0  0
  -30.9560  -18.6390   19.8990 C   0  0  0  0  0  3  0  0  0  0  0  0
  -28.5240  -20.0090   20.1030 C   0  0  0  0  0  0  0  0  0  0  0  0
  -28.5960  -18.5450   20.0600 C   0  0  0  0  0  0  0  0  0  0  0  0
  -29.6590  -20.8660   19.9450 C   0  0  0  0  0  0  0  0  0  0  0  0
  -29.8240  -17.7620   20.0270 C   0  0  0  0  0  0  0  0  0  0  0  0
  -30.6360  -15.0830   19.8270 C   0  0  0  0  0  0  0  0  0  0  0  0
  -30.4840  -12.7050   18.9370 C   0  0  0  0  0  2  0  0  0  0  0  0
  -29.4710  -12.6380   17.7670 C   0  0  0  0  0  2  0  0  0  0  0  0
  -28.0350  -12.4370   18.2900 C   0  0  0  0  0  2  0  0  0  0  0  0
  -27.7030  -13.3790   19.4760 C   0  0  0  0  0  3  0  0  0  0  0  0
  -28.8300  -13.4000   20.5330 C   0  0  0  0  0  2  0  0  0  0  0  0
  -30.0650  -13.8090   19.8480 N   0  0  0  0  0  0  0  0  0  0  0  0
  -31.8050  -15.1760   19.4330 O   0  0  0  0  0  0  0  0  0  0  0  0
  -29.8110  -16.2150   20.0890 N   0  0  0  0  0  0  0  0  0  0  0  0
  -28.9210  -15.8750   20.4170 H   0  0  0  0  0  0  0  0  0  0  0  0
  -25.3930  -13.9780   20.4000 C   0  0  0  0  0  0  0  0  0  0  0  0
  -24.3390  -13.2330   20.8340 C   0  0  0  0  0  0  0  0  0  0  0  0
  -24.7590  -11.8740   20.7160 C   0  0  0  0  0  0  0  0  0  0  0  0
  -26.3960  -13.0910   20.0590 N   0  0  0  0  0  0  0  0  0  0  0  0
  -26.0240  -11.8100   20.3090 N   0  0  0  0  0  0  0  0  0  0  0  0
  -24.0050  -10.6350   20.9080 C   0  0  0  0  0  0  0  0  0  0  0  0
  -24.4600   -9.6260   21.7830 C   0  0  0  0  0  3  0  0  0  0  0  0
  -23.7070   -8.4490   21.9690 C   0  0  0  0  0  3  0  0  0  0  0  0
  -22.4850   -8.2730   21.2780 C   0  0  0  0  0  0  0  0  0  0  0  0
  -22.0460   -9.2720   20.3920 C   0  0  0  0  0  3  0  0  0  0  0  0
  -22.8000  -10.4410   20.2040 C   0  0  0  0  0  3  0  0  0  0  0  0
  -21.6990   -7.1500   21.3760 O   0  0  0  0  0  0  0  0  0  0  0  0
  -21.6870   -6.3790   22.5100 C   0  0  0  0  0  0  0  0  0  0  0  0
  -21.3440   -6.9150   23.7700 C   0  0  0  0  0  3  0  0  0  0  0  0
  -21.2730   -6.0720   24.8970 C   0  0  0  0  0  3  0  0  0  0  0  0
  -21.5380   -4.6960   24.7660 C   0  0  0  0  0  0  0  0  0  0  0  0
  -21.8740   -4.1600   23.5100 C   0  0  0  0  0  3  0  0  0  0  0  0
  -21.9460   -5.0000   22.3840 C   0  0  0  0  0  0  0  0  0  0  0  0
  -22.2490   -4.4750   21.1730 F   0  0  0  0  0  0  0  0  0  0  0  0
  -21.4620   -3.8850   25.8460 F   0  0  0  0  0  0  0  0  0  0  0  0
  -22.9850  -13.7500   21.2290 C   0  0  0  0  0  0  0  0  0  0  0  0
  -22.3050  -13.0600   22.1380 N   0  0  0  0  0  0  0  0  0  0  0  0
  -22.5420  -14.8030   20.7670 O   0  0  0  0  0  0  0  0  0  0  0  0
  -22.6770  -12.2120   22.5380 H   0  0  0  0  0  0  0  0  0  0  0  0
  -21.4000  -13.3880   22.4410 H   0  0  0  0  0  0  0  0  0  0  0  0
  -25.5640  -15.3350   20.2330 N   0  0  0  0  0  0  0  0  0  0  0  0
  -24.8030  -15.9840   20.4020 H   0  0  0  0  0  0  0  0  0  0  0  0
  -26.3610  -15.7660   19.7860 H   0  0  0  0  0  0  0  0  0  0  0  0
  -30.2890  -22.7820   21.2960 C   0  0  0  0  0  0  0  0  0  0  0  0
  -30.8540  -24.1810   21.1290 C   0  0  0  0  0  2  0  0  0  0  0  0
  -30.6540  -24.4270   19.6380 C   0  0  0  0  0  2  0  0  0  0  0  0
  -29.3600  -23.6630   19.3380 C   0  0  0  0  0  3  0  0  0  0  0  0
  -29.5890  -22.3750   20.2170 N   0  0  0  0  0  0  0  0  0  0  0  0
  -30.4950  -22.1250   22.3220 O   0  0  0  0  0  0  0  0  0  0  0  0
  -28.1490  -24.7860   19.6480 C   0  0  0  0  0  2  0  0  0  0  0  0
  -28.2440  -26.3090   19.3820 O   0  0  0  0  0  0  0  0  0  0  0  0
  -24.5760  -31.5940   22.9380 C   0  0  0  0  0  0  0  0  0  0  0  0
  -27.1220  -27.2010   19.4790 C   0  0  0  0  0  0  0  0  0  0  0  0
  -23.3290  -30.3020   21.2450 C   0  0  0  0  0  3  0  0  0  0  0  0
  -24.7480  -28.8630   19.6570 C   0  0  0  0  0  0  0  0  0  0  0  0
  -25.8660  -30.6410   20.9970 C   0  0  0  0  0  2  0  0  0  0  0  0
  -25.9390  -29.3030   20.2460 C   0  0  0  0  0  0  0  0  0  0  0  0
  -27.1260  -28.4910   20.1370 C   0  0  0  0  0  3  0  0  0  0  0  0
  -25.9000  -26.8480   18.8660 C   0  0  0  0  0  3  0  0  0  0  0  0
  -24.7370  -27.6480   18.9500 C   0  0  0  0  0  3  0  0  0  0  0  0
  -23.5060  -29.7280   19.8130 C   0  0  0  0  0  2  0  0  0  0  0  0
  -24.6120  -30.8620   21.7830 N   0  0  0  0  0  0  0  0  0  0  0  0
  -23.5080  -31.8190   23.5280 O   0  0  0  0  0  0  0  0  0  0  0  0
  -22.7060  -29.2160   22.1550 C   0  0  0  0  0  0  0  0  0  0  0  0
  -21.3730  -29.0500   22.0840 N   0  0  0  0  0  0  0  0  0  0  0  0
  -23.4210  -28.5270   22.8880 O   0  0  0  0  0  0  0  0  0  0  0  0
  -20.8540  -29.6610   21.4690 H   0  0  0  0  0  0  0  0  0  0  0  0
  -18.0190  -27.8180   22.6710 C   0  0  0  0  0  0  0  0  0  0  0  0
  -20.5910  -28.0510   22.8150 C   0  0  0  0  0  3  0  0  0  0  0  0
  -20.6500  -26.6750   22.1110 C   0  0  0  0  0  2  0  0  0  0  0  0
  -19.4910  -26.4450   21.1380 C   0  0  0  0  0  2  0  0  0  0  0  0
  -18.1490  -26.5340   21.8700 C   0  0  0  0  0  2  0  0  0  0  0  0
  -19.1650  -28.5400   23.1010 C   0  0  0  0  0  0  0  0  0  0  0  0
  -18.9850  -29.7450   23.8130 C   0  0  0  0  0  3  0  0  0  0  0  0
  -17.6950  -30.2260   24.1030 C   0  0  0  0  0  3  0  0  0  0  0  0
  -16.5650  -29.5010   23.6880 C   0  0  0  0  0  3  0  0  0  0  0  0
  -16.7270  -28.3000   22.9740 C   0  0  0  0  0  3  0  0  0  0  0  0
  -25.8700  -32.1990   23.5620 C   0  0  0  0  0  3  0  0  0  0  0  0
  -26.4460  -31.3380   24.7520 C   0  0  1  0  0  0  0  0  0  0  0  0
  -25.4020  -31.0080   25.8450 C   0  0  0  0  0  1  0  0  0  0  0  0
  -27.0240  -30.0000   24.2330 C   0  0  0  0  0  1  0  0  0  0  0  0
  -27.6170  -32.0920   25.4250 C   0  0  0  0  0  1  0  0  0  0  0  0
  -25.5510  -33.5610   24.0200 N   0  0  0  0  0  0  0  0  0  0  0  0
  -25.8320  -34.6810   23.3420 C   0  0  0  0  0  0  0  0  0  0  0  0
  -26.4530  -34.6770   22.2750 O   0  0  0  0  0  0  0  0  0  0  0  0
  -24.9900  -33.6350   24.8560 H   0  0  0  0  0  0  0  0  0  0  0  0
  -24.0540  -36.4600   23.2360 C   0  0  0  0  0  1  0  0  0  0  0  0
  -25.3480  -36.0180   23.9380 C   0  0  0  0  0  3  0  0  0  0  0  0
  -27.5100  -36.8840   24.7170 C   0  0  0  0  0  1  0  0  0  0  0  0
  -26.3530  -37.0990   23.8530 N   0  0  0  0  0  0  0  0  0  0  0  0
  -25.9380  -37.9940   24.0950 H   0  0  0  0  0  0  0  0  0  0  0  0
  -26.7100  -21.6970   19.6660 C   0  0  0  0  0  2  0  0  0  0  0  0
  -27.2230  -20.6710   20.3670 C   0  0  0  0  0  3  0  0  0  0  0  0
  -26.5750  -18.0490   18.6190 C   0  0  0  0  0  1  0  0  0  0  0  0
  -27.2530  -17.8270   19.9900 C   0  0  0  0  0  2  0  0  0  0  0  0
  1  2  2  0
  1  5  1  0
  2  6  1  0
  3 94  1  0
  4  3  1  0
  5  3  2  0
  5 49  1  0
  6  4  2  0
  6 15  1  0
  7 13  1  0
  7 15  1  0
  8 13  1  0
  9 10  1  0
  9  8  1  0
 11 10  1  0
 11 20  1  0
 11 12  1  0
 13 12  1  0
 14  7  2  0
 15 16  1  0
 17 18  2  0
 18 37  1  0
 19 18  1  0
 19 22  1  0
 20 21  1  0
 20 17  1  0
 21 19  2  0
 22 23  1  0
 23 24  2  0
 25 28  1  0
 25 24  1  0
 26 25  2  0
 27 26  1  0
 27 22  2  0
 28 29  1  0
 29 30  1  0
 30 31  2  0
 32 31  1  0
 32 36  1  0
 33 32  2  0
 34 29  2  0
 34 33  1  0
 35 34  1  0
 37 38  1  0
 38 41  1  0
 38 40  1  0
 39 37  2  0
 42 17  1  0
 42 43  1  0
 44 42  1  0
 45 50  2  0
 46 45  1  0
 47 46  1  0
 48 47  1  0
 48 51  1  0
 48 49  1  0
 49 45  1  0
 52 54  1  0
 52 51  1  0
 53 64  2  0
 54 59  1  0
 55 63  1  0
 55 65  1  0
 56 62  1  0
 56 58  1  0
 57 63  1  0
 58 57  1  0
 59 58  2  0
 60 61  1  0
 60 54  2  0
 61 56  2  0
 62 55  1  0
 63 53  1  0
 65 67  2  0
 66 65  1  0
 68 66  1  0
 69 78  2  0
 69 74  1  0
 70 66  1  0
 70 74  1  0
 71 70  1  0
 72 73  1  0
 72 71  1  0
 73 69  1  0
 74 75  2  0
 75 76  1  0
 77 76  2  0
 78 77  1  0
 79 53  1  0
 79 84  1  0
 79 80  1  0
 80 83  1  1
 80 81  1  0
 82 80  1  0
 84 87  1  0
 85 89  1  0
 85 84  1  0
 86 85  2  0
 89 88  1  0
 91 89  1  0
 91 92  1  0
 91 90  1  0
 93 94  2  0
 95 96  1  0
 96  4  1  0
M  ISO  4   7 100  15 100  51 101  52 101
M  END
>  <TORSDO>  (67) 
F 20

>  <SCORE>  (67) 
-12.302

>  <name>  (67) 
66

>  <ligand_id>  (67) 
66

>  <original_smiles>  (67) 
[H]C([H])=C([H])c1c(N2C(=O)C([H])([H])C([H])([H])C2([H])C([H])([H])Oc2c([H])c([H])c3c(c2[H])C([H])([H])N(C(=O)C([H])(N([H])C(=O)C([H])(N([H])C([H])([H])[H])C([H])([H])[H])C(C([H])([H])[H])(C([H])([H])[H])C([H])([H])[H])C([H])(C(=O)N([H])C2([H])c4c([H])c([H])c([H])c([H])c4C([H])([H])C([H])([H])C2([H])[H])C3([H])[H])c([H])c([H])c(N([H])C(=O)N2C([H])([H])C([H])([H])C([H])([H])C([H])(n3nc(-c4c([H])c([H])c(Oc5c([H])c([H])c(F)c([H])c5F)c([H])c4[H])c(C(=O)N([H])[H])c3N([H])[H])C2([H])[H])c1C([H])([H])C([H])([H])[H]

>  <smiles>  (67) 
[H]C([H])=C([H])c1c(N2C(=O)C([H])([H])C([H])([H])C2([H])C([H])([H])Oc2c([H])c([H])c3c(c2[H])C([H])([H])N(C(=O)C([H])(N([H])C(=O)C([H])(N([H])C([H])([H])[H])C([H])([H])[H])C(C([H])([H])[H])(C([H])([H])[H])C([H])([H])[H])C([H])(C(=O)N([H])C2([H])c4c([H])c([H])c([H])c([H])c4C([H])([H])C([H])([H])C2([H])[H])C3([H])[H])c([H])c([H])c(N([H])C(=O)N2C([H])([H])C([H])([H])C([H])([H])C([H])(n3nc(-c4c([H])c([H])c(Oc5c([H])c([H])c(F)c([H])c5F)c([H])c4[H])c(C(=O)N([H])[H])c3N([H])[H])C2([H])[H])c1C([H])([H])C([H])([H])[H]

$$$$
67:0:0
     RDKit          3D

 93101  0  0  1  0  0  0  0  0999 V2000
  -28.7840  -21.0260   20.0980 C   0  0  0  0  0  3  0  0  0  0  0  0
  -29.2860  -22.2290   20.4550 C   0  0  0  0  0  3  0  0  0  0  0  0
  -30.1240  -19.4460   21.5890 C   0  0  0  0  0  3  0  0  0  0  0  0
  -30.4570  -18.1250   21.9660 C   0  0  0  0  0  3  0  0  0  0  0  0
  -28.7660  -18.5710   19.7800 C   0  0  0  0  0  3  0  0  0  0  0  0
  -29.2390  -19.6790   20.5120 C   0  0  0  0  0  0  0  0  0  0  0  0
  -29.9490  -17.0160   21.2510 C   0  0  0  0  0  0  0  0  0  0  0  0
  -29.1040  -17.2390   20.1340 C   0  0  0  0  0  0  0  0  0  0  0  0
  -30.9270  -14.7530   21.1670 C   0  0  0  0  0  0  0  0  0  0  0  0
  -30.8410  -12.5230   20.1170 C   0  0  0  0  0  2  0  0  0  0  0  0
  -29.9930  -12.6200   18.8300 C   0  0  0  0  0  2  0  0  0  0  0  0
  -28.4940  -12.4360   19.1410 C   0  0  0  0  0  2  0  0  0  0  0  0
  -28.0160  -13.3160   20.3260 C   0  0  0  0  0  3  0  0  0  0  0  0
  -28.9790  -13.1890   21.5280 C   0  0  0  0  0  2  0  0  0  0  0  0
  -30.3400  -13.5280   21.0670 N   0  0  0  0  0  0  0  0  0  0  0  0
  -32.0480  -15.0050   20.7110 O   0  0  0  0  0  0  0  0  0  0  0  0
  -30.1770  -15.6990   21.7560 N   0  0  0  0  0  0  0  0  0  0  0  0
  -29.4090  -15.3250   22.2920 H   0  0  0  0  0  0  0  0  0  0  0  0
  -25.5620  -13.8800   20.8530 C   0  0  0  0  0  0  0  0  0  0  0  0
  -24.4830  -13.0850   21.1320 C   0  0  0  0  0  0  0  0  0  0  0  0
  -24.9700  -11.7420   21.1220 C   0  0  0  0  0  0  0  0  0  0  0  0
  -26.6360  -13.0180   20.6950 N   0  0  0  0  0  0  0  0  0  0  0  0
  -26.2780  -11.7270   20.9100 N   0  0  0  0  0  0  0  0  0  0  0  0
  -24.2580  -10.4650   21.2450 C   0  0  0  0  0  0  0  0  0  0  0  0
  -24.6080   -9.5170   22.2320 C   0  0  0  0  0  3  0  0  0  0  0  0
  -23.8960   -8.3040   22.3420 C   0  0  0  0  0  3  0  0  0  0  0  0
  -22.8220   -8.0290   21.4630 C   0  0  0  0  0  0  0  0  0  0  0  0
  -22.4930   -8.9660   20.4690 C   0  0  0  0  0  3  0  0  0  0  0  0
  -23.2060  -10.1700   20.3560 C   0  0  0  0  0  3  0  0  0  0  0  0
  -22.0910   -6.8650   21.4800 O   0  0  0  0  0  0  0  0  0  0  0  0
  -21.8770   -6.1670   22.6410 C   0  0  0  0  0  0  0  0  0  0  0  0
  -21.1970   -6.7370   23.7390 C   0  0  0  0  0  3  0  0  0  0  0  0
  -20.9360   -5.9610   24.8850 C   0  0  0  0  0  3  0  0  0  0  0  0
  -21.3470   -4.6150   24.9350 C   0  0  0  0  0  0  0  0  0  0  0  0
  -22.0220   -4.0450   23.8400 C   0  0  0  0  0  3  0  0  0  0  0  0
  -22.2820   -4.8180   22.6950 C   0  0  0  0  0  0  0  0  0  0  0  0
  -22.9130   -4.2580   21.6350 F   0  0  0  0  0  0  0  0  0  0  0  0
  -21.0920   -3.8670   26.0330 F   0  0  0  0  0  0  0  0  0  0  0  0
  -23.0600  -13.5330   21.3090 C   0  0  0  0  0  0  0  0  0  0  0  0
  -22.2880  -12.8140   22.1150 N   0  0  0  0  0  0  0  0  0  0  0  0
  -22.6390  -14.5550   20.7690 O   0  0  0  0  0  0  0  0  0  0  0  0
  -22.6410  -11.9860   22.5740 H   0  0  0  0  0  0  0  0  0  0  0  0
  -21.3310  -13.0920   22.2780 H   0  0  0  0  0  0  0  0  0  0  0  0
  -25.7180  -15.2560   20.7050 N   0  0  0  0  0  0  0  0  0  0  0  0
  -24.9420  -15.9050   20.7820 H   0  0  0  0  0  0  0  0  0  0  0  0
  -26.5980  -15.7120   20.5010 H   0  0  0  0  0  0  0  0  0  0  0  0
  -27.5300  -16.3240   18.5560 C   0  0  0  0  0  1  0  0  0  0  0  0
  -28.6150  -16.1420   19.4560 O   0  0  0  0  0  0  0  0  0  0  0  0
  -28.6660  -23.4850   19.9650 C   0  0  0  0  0  0  0  0  0  0  0  0
  -27.4680  -23.5580   19.6750 O   0  0  0  0  0  0  0  0  0  0  0  0
  -29.5720  -24.7160   19.7970 C   0  0  0  0  0  2  0  0  0  0  0  0
  -28.9200  -25.9870   19.1850 C   0  0  0  0  0  2  0  0  0  0  0  0
  -28.5550  -26.9360   20.1960 O   0  0  0  0  0  0  0  0  0  0  0  0
  -24.5830  -31.9310   23.3030 C   0  0  0  0  0  0  0  0  0  0  0  0
  -27.3470  -27.6040   20.1520 C   0  0  0  0  0  0  0  0  0  0  0  0
  -23.4130  -30.5260   21.6360 C   0  0  0  0  0  3  0  0  0  0  0  0
  -24.9060  -29.0430   20.1910 C   0  0  0  0  0  0  0  0  0  0  0  0
  -25.9280  -30.9470   21.4510 C   0  0  0  0  0  2  0  0  0  0  0  0
  -26.0470  -29.5880   20.7920 C   0  0  0  0  0  0  0  0  0  0  0  0
  -27.2630  -28.8710   20.7760 C   0  0  0  0  0  3  0  0  0  0  0  0
  -26.1800  -27.0640   19.5630 C   0  0  0  0  0  3  0  0  0  0  0  0
  -24.9650  -27.7790   19.5790 C   0  0  0  0  0  3  0  0  0  0  0  0
  -23.6400  -29.8700   20.2470 C   0  0  0  0  0  2  0  0  0  0  0  0
  -24.6580  -31.1500   22.1890 N   0  0  0  0  0  0  0  0  0  0  0  0
  -23.4950  -32.1710   23.8440 O   0  0  0  0  0  0  0  0  0  0  0  0
  -22.7820  -29.4780   22.5800 C   0  0  0  0  0  0  0  0  0  0  0  0
  -21.4620  -29.2670   22.4460 N   0  0  0  0  0  0  0  0  0  0  0  0
  -23.4760  -28.8570   23.3890 O   0  0  0  0  0  0  0  0  0  0  0  0
  -20.9610  -29.8210   21.7650 H   0  0  0  0  0  0  0  0  0  0  0  0
  -18.1150  -27.9960   22.9190 C   0  0  0  0  0  0  0  0  0  0  0  0
  -20.6650  -28.2990   23.1990 C   0  0  0  0  0  3  0  0  0  0  0  0
  -20.7980  -26.8810   22.5990 C   0  0  0  0  0  2  0  0  0  0  0  0
  -19.7050  -26.5550   21.5770 C   0  0  0  0  0  2  0  0  0  0  0  0
  -18.3190  -26.6620   22.2200 C   0  0  0  0  0  2  0  0  0  0  0  0
  -19.2170  -28.7720   23.3640 C   0  0  0  0  0  0  0  0  0  0  0  0
  -18.9730  -30.0210   23.9750 C   0  0  0  0  0  3  0  0  0  0  0  0
  -17.6580  -30.4950   24.1460 C   0  0  0  0  0  3  0  0  0  0  0  0
  -16.5700  -29.7150   23.7170 C   0  0  0  0  0  3  0  0  0  0  0  0
  -16.7990  -28.4680   23.1100 C   0  0  0  0  0  3  0  0  0  0  0  0
  -25.8520  -32.5820   23.9360 C   0  0  0  0  0  3  0  0  0  0  0  0
  -25.5270  -33.9800   24.2440 N   0  0  0  0  0  0  0  0  0  0  0  0
  -25.8710  -35.0270   23.4820 C   0  0  0  0  0  0  0  0  0  0  0  0
  -26.5660  -34.9170   22.4670 O   0  0  0  0  0  0  0  0  0  0  0  0
  -24.9130  -34.1390   25.0300 H   0  0  0  0  0  0  0  0  0  0  0  0
  -24.1570  -36.8140   23.0430 C   0  0  0  0  0  1  0  0  0  0  0  0
  -25.3620  -36.4150   23.9110 C   0  0  0  0  0  3  0  0  0  0  0  0
  -27.4500  -37.3140   24.8390 C   0  0  0  0  0  1  0  0  0  0  0  0
  -26.3970  -37.4700   23.8390 N   0  0  0  0  0  0  0  0  0  0  0  0
  -25.9810  -38.3910   23.9570 H   0  0  0  0  0  0  0  0  0  0  0  0
  -26.3600  -31.8290   25.2280 C   0  0  1  0  0  0  0  0  0  0  0  0
  -25.2530  -31.5890   26.2810 C   0  0  0  0  0  1  0  0  0  0  0  0
  -26.9650  -30.4560   24.8570 C   0  0  0  0  0  1  0  0  0  0  0  0
  -27.4900  -32.6430   25.9000 C   0  0  0  0  0  1  0  0  0  0  0  0
  1  2  2  0
  1  6  1  0
  3  4  1  0
  5  8  2  0
  5  6  1  0
  6  3  2  0
  7 17  1  0
  7  4  2  0
  8  7  1  0
  9 17  1  0
 10 15  1  0
 11 12  1  0
 11 10  1  0
 13 12  1  0
 13 22  1  0
 13 14  1  0
 15  9  1  0
 15 14  1  0
 16  9  2  0
 17 18  1  0
 19 20  2  0
 20 39  1  0
 21 20  1  0
 21 24  1  0
 22 19  1  0
 22 23  1  0
 23 21  2  0
 24 25  1  0
 25 26  2  0
 27 30  1  0
 27 26  1  0
 28 27  2  0
 29 28  1  0
 29 24  2  0
 30 31  1  0
 31 36  2  0
 31 32  1  0
 32 33  2  0
 33 34  1  0
 34 38  1  0
 35 34  2  0
 36 35  1  0
 37 36  1  0
 39 40  1  0
 40 43  1  0
 40 42  1  0
 41 39  2  0
 44 45  1  0
 44 19  1  0
 46 44  1  0
 47 48  1  0
 48  8  1  0
 49  2  1  0
 50 49  2  0
 51 49  1  0
 52 51  1  0
 52 53  1  0
 54 65  2  0
 55 53  1  0
 55 60  1  0
 56 64  1  0
 56 66  1  0
 57 63  1  0
 57 59  1  0
 58 64  1  0
 59 58  1  0
 60 59  2  0
 61 62  1  0
 61 55  2  0
 62 57  2  0
 63 56  1  0
 64 54  1  0
 66 68  2  0
 67 66  1  0
 69 67  1  0
 70 79  2  0
 70 75  1  0
 71 67  1  0
 71 75  1  0
 72 71  1  0
 73 74  1  0
 73 72  1  0
 74 70  1  0
 75 76  2  0
 76 77  1  0
 78 77  2  0
 79 78  1  0
 80 54  1  0
 80 81  1  0
 80 90  1  0
 81 84  1  0
 82 86  1  0
 82 81  1  0
 83 82  2  0
 86 85  1  0
 88 86  1  0
 88 89  1  0
 88 87  1  0
 90 93  1  1
 90 91  1  0
 92 90  1  0
M  ISO  4   9 100  17 100  52 101  53 101
M  END
>  <TORSDO>  (68) 
F 21

>  <SCORE>  (68) 
-12.309

>  <name>  (68) 
67

>  <ligand_id>  (68) 
67

>  <original_smiles>  (68) 
[H]C(C(=O)C([H])([H])C([H])([H])Oc1c([H])c([H])c2c(c1[H])C([H])([H])N(C(=O)C([H])(N([H])C(=O)C([H])(N([H])C([H])([H])[H])C([H])([H])[H])C(C([H])([H])[H])(C([H])([H])[H])C([H])([H])[H])C([H])(C(=O)N([H])C1([H])c3c([H])c([H])c([H])c([H])c3C([H])([H])C([H])([H])C1([H])[H])C2([H])[H])=C([H])c1c([H])c([H])c(N([H])C(=O)N2C([H])([H])C([H])([H])C([H])([H])C([H])(n3nc(-c4c([H])c([H])c(Oc5c([H])c([H])c(F)c([H])c5F)c([H])c4[H])c(C(=O)N([H])[H])c3N([H])[H])C2([H])[H])c(OC([H])([H])[H])c1[H]

>  <smiles>  (68) 
[H]C(C(=O)C([H])([H])C([H])([H])Oc1c([H])c([H])c2c(c1[H])C([H])([H])N(C(=O)C([H])(N([H])C(=O)C([H])(N([H])C([H])([H])[H])C([H])([H])[H])C(C([H])([H])[H])(C([H])([H])[H])C([H])([H])[H])C([H])(C(=O)N([H])C1([H])c3c([H])c([H])c([H])c([H])c3C([H])([H])C([H])([H])C1([H])[H])C2([H])[H])=C([H])c1c([H])c([H])c(N([H])C(=O)N2C([H])([H])C([H])([H])C([H])([H])C([H])(n3nc(-c4c([H])c([H])c(Oc5c([H])c([H])c(F)c([H])c5F)c([H])c4[H])c(C(=O)N([H])[H])c3N([H])[H])C2([H])[H])c(OC([H])([H])[H])c1[H]

$$$$
68:0:0
     RDKit          3D

102111  0  0  1  0  0  0  0  0999 V2000
  -30.1410  -24.9870   17.5270 C   0  0  0  0  0  2  0  0  0  0  0  0
  -29.9150  -25.7250   18.6740 C   0  0  0  0  0  0  0  0  0  0  0  0
  -29.3360  -25.2530   19.8760 C   0  0  0  0  0  0  0  0  0  0  0  0
  -29.2150  -23.9080   20.3160 C   0  0  0  0  0  0  0  0  0  0  0  0
  -29.6260  -23.7320   17.0260 C   0  0  0  0  0  0  0  0  0  0  0  0
  -28.3230  -23.2200   17.6000 C   0  0  0  0  0  2  0  0  0  0  0  0
  -28.6470  -22.1130   18.5940 C   0  0  0  0  0  2  0  0  0  0  0  0
  -28.6090  -23.6210   21.6850 C   0  0  0  0  0  1  0  0  0  0  0  0
  -29.6160  -22.4760   19.6600 N   0  0  2  0  0  4  0  0  0  0  0  0
  -30.2620  -26.9280   18.5890 O   0  0  0  0  0  0  0  0  0  0  0  0
  -30.2090  -23.0860   16.1570 O   0  0  0  0  0  0  0  0  0  0  0  0
  -30.4830  -22.6260   19.1640 H   0  0  0  0  0  0  0  0  0  0  0  0
  -29.0530  -26.3500   20.7460 O   0  0  0  0  0  0  0  0  0  0  0  0
  -25.4590  -31.6150   24.0890 C   0  0  0  0  0  0  0  0  0  0  0  0
  -28.0250  -27.3110   20.6100 C   0  0  0  0  0  0  0  0  0  0  0  0
  -24.2850  -30.4960   22.2230 C   0  0  0  0  0  3  0  0  0  0  0  0
  -25.7420  -29.0550   20.6730 C   0  0  0  0  0  0  0  0  0  0  0  0
  -26.8420  -30.6950   22.2080 C   0  0  0  0  0  2  0  0  0  0  0  0
  -26.8940  -29.4030   21.3900 C   0  0  0  0  0  0  0  0  0  0  0  0
  -28.0330  -28.5390   21.3520 C   0  0  0  0  0  3  0  0  0  0  0  0
  -26.8650  -27.0310   19.8610 C   0  0  0  0  0  3  0  0  0  0  0  0
  -25.7350  -27.8810   19.8970 C   0  0  0  0  0  3  0  0  0  0  0  0
  -24.5430  -29.9810   20.7800 C   0  0  0  0  0  2  0  0  0  0  0  0
  -25.5450  -30.9470   22.9000 N   0  0  0  0  0  0  0  0  0  0  0  0
  -24.3620  -31.8800   24.6020 O   0  0  0  0  0  0  0  0  0  0  0  0
  -23.5190  -29.4120   23.0180 C   0  0  0  0  0  0  0  0  0  0  0  0
  -22.2030  -29.2920   22.7710 N   0  0  0  0  0  0  0  0  0  0  0  0
  -24.1120  -28.6840   23.8200 O   0  0  0  0  0  0  0  0  0  0  0  0
  -21.7860  -29.9330   22.1120 H   0  0  0  0  0  0  0  0  0  0  0  0
  -18.7890  -28.0960   22.8060 C   0  0  0  0  0  0  0  0  0  0  0  0
  -21.3030  -28.3030   23.3680 C   0  0  0  0  0  3  0  0  0  0  0  0
  -21.4620  -26.9240   22.6890 C   0  0  0  0  0  2  0  0  0  0  0  0
  -20.4750  -26.6990   21.5390 C   0  0  0  0  0  2  0  0  0  0  0  0
  -19.0320  -26.8060   22.0410 C   0  0  0  0  0  2  0  0  0  0  0  0
  -19.8570  -28.8080   23.4160 C   0  0  0  0  0  0  0  0  0  0  0  0
  -19.5770  -30.0190   24.0850 C   0  0  0  0  0  3  0  0  0  0  0  0
  -18.2630  -30.5170   24.1540 C   0  0  0  0  0  3  0  0  0  0  0  0
  -17.2080  -29.8020   23.5610 C   0  0  0  0  0  3  0  0  0  0  0  0
  -17.4720  -28.5930   22.8940 C   0  0  0  0  0  3  0  0  0  0  0  0
  -26.7320  -32.0980   24.8520 C   0  0  0  0  0  3  0  0  0  0  0  0
  -26.9980  -31.2970   26.1860 C   0  0  1  0  0  0  0  0  0  0  0  0
  -25.7640  -31.2080   27.1160 C   0  0  0  0  0  1  0  0  0  0  0  0
  -27.4550  -29.8530   25.8770 C   0  0  0  0  0  1  0  0  0  0  0  0
  -28.1470  -31.9640   26.9770 C   0  0  0  0  0  1  0  0  0  0  0  0
  -26.5670  -33.5310   25.1370 N   0  0  0  0  0  0  0  0  0  0  0  0
  -27.1380  -34.5200   24.4350 C   0  0  0  0  0  0  0  0  0  0  0  0
  -27.9240  -34.3120   23.5070 O   0  0  0  0  0  0  0  0  0  0  0  0
  -25.8970  -33.7730   25.8530 H   0  0  0  0  0  0  0  0  0  0  0  0
  -25.7370  -36.5250   23.8420 C   0  0  0  0  0  1  0  0  0  0  0  0
  -26.7820  -35.9690   24.8240 C   0  0  0  0  0  3  0  0  0  0  0  0
  -28.8850  -36.5600   25.9450 C   0  0  0  0  0  1  0  0  0  0  0  0
  -27.9530  -36.8730   24.8660 N   0  0  0  0  0  0  0  0  0  0  0  0
  -27.6580  -37.8400   24.9730 H   0  0  0  0  0  0  0  0  0  0  0  0
  -29.9850  -21.1980   20.5190 C   0  0  0  0  0  2  0  0  0  0  0  0
  -30.5460  -19.4810   18.5720 C   0  0  0  0  0  3  0  0  0  0  0  0
  -30.9930  -18.6190   20.7740 C   0  0  0  0  0  3  0  0  0  0  0  0
  -31.5440  -17.2640   18.8220 C   0  0  0  0  0  3  0  0  0  0  0  0
  -30.5800  -19.7730   19.9610 C   0  0  0  0  0  0  0  0  0  0  0  0
  -31.0790  -18.3070   18.0010 C   0  0  0  0  0  0  0  0  0  0  0  0
  -31.4490  -17.3350   20.2230 C   0  0  0  0  0  0  0  0  0  0  0  0
  -32.2030  -14.8510   20.4770 C   0  0  0  0  0  0  0  0  0  0  0  0
  -31.7620  -12.6650   19.3430 C   0  0  0  0  0  2  0  0  0  0  0  0
  -30.9510  -12.9300   18.0540 C   0  0  0  0  0  2  0  0  0  0  0  0
  -29.4410  -12.9530   18.3590 C   0  0  0  0  0  2  0  0  0  0  0  0
  -29.0990  -13.8220   19.5970 C   0  0  0  0  0  3  0  0  0  0  0  0
  -30.0380  -13.5360   20.7900 C   0  0  0  0  0  2  0  0  0  0  0  0
  -31.4210  -13.7230   20.3280 N   0  0  0  0  0  0  0  0  0  0  0  0
  -33.3860  -14.8200   20.1260 O   0  0  0  0  0  0  0  0  0  0  0  0
  -31.6340  -16.0370   20.9310 N   0  0  0  0  0  0  0  0  0  0  0  0
  -30.8740  -15.8460   21.5690 H   0  0  0  0  0  0  0  0  0  0  0  0
  -26.7330  -14.7090   20.0330 C   0  0  0  0  0  0  0  0  0  0  0  0
  -25.5590  -14.0810   20.3430 C   0  0  0  0  0  0  0  0  0  0  0  0
  -25.8720  -12.6920   20.4570 C   0  0  0  0  0  0  0  0  0  0  0  0
  -27.6910  -13.7110   19.9650 N   0  0  0  0  0  0  0  0  0  0  0  0
  -27.1740  -12.4960   20.2830 N   0  0  0  0  0  0  0  0  0  0  0  0
  -24.9970  -11.5310   20.6640 C   0  0  0  0  0  0  0  0  0  0  0  0
  -25.2740  -10.5650   21.6550 C   0  0  0  0  0  3  0  0  0  0  0  0
  -24.4090   -9.4660   21.8450 C   0  0  0  0  0  3  0  0  0  0  0  0
  -23.2500   -9.3280   21.0430 C   0  0  0  0  0  0  0  0  0  0  0  0
  -22.9920  -10.2810   20.0430 C   0  0  0  0  0  3  0  0  0  0  0  0
  -23.8570  -11.3700   19.8510 C   0  0  0  0  0  3  0  0  0  0  0  0
  -22.3630   -8.2820   21.1410 O   0  0  0  0  0  0  0  0  0  0  0  0
  -22.1260   -7.6510   22.3340 C   0  0  0  0  0  0  0  0  0  0  0  0
  -21.6940   -8.3580   23.4780 C   0  0  0  0  0  3  0  0  0  0  0  0
  -21.3930   -7.6590   24.6640 C   0  0  0  0  0  3  0  0  0  0  0  0
  -21.5150   -6.2570   24.7080 C   0  0  0  0  0  0  0  0  0  0  0  0
  -21.9400   -5.5520   23.5710 C   0  0  0  0  0  3  0  0  0  0  0  0
  -22.2430   -6.2470   22.3860 C   0  0  0  0  0  0  0  0  0  0  0  0
  -22.6320   -5.5600   21.2860 F   0  0  0  0  0  0  0  0  0  0  0  0
  -21.2160   -5.5870   25.8460 F   0  0  0  0  0  0  0  0  0  0  0  0
  -24.2040  -14.7200   20.4370 C   0  0  0  0  0  0  0  0  0  0  0  0
  -23.3350  -14.1950   21.2930 N   0  0  0  0  0  0  0  0  0  0  0  0
  -23.9260  -15.7260   19.7860 O   0  0  0  0  0  0  0  0  0  0  0  0
  -23.5680  -13.3820   21.8440 H   0  0  0  0  0  0  0  0  0  0  0  0
  -22.4200  -14.6090   21.3990 H   0  0  0  0  0  0  0  0  0  0  0  0
  -27.0640  -16.0380   19.7870 N   0  0  0  0  0  0  0  0  0  0  0  0
  -26.3670  -16.7740   19.7740 H   0  0  0  0  0  0  0  0  0  0  0  0
  -27.9880  -16.3650   19.5360 H   0  0  0  0  0  0  0  0  0  0  0  0
  -29.7040  -17.6670   15.9870 C   0  0  0  0  0  1  0  0  0  0  0  0
  -31.0750  -18.1570   16.4830 C   0  0  0  0  0  3  0  0  0  0  0  0
  -32.1910  -16.2990   15.1040 C   0  0  0  0  0  2  0  0  0  0  0  0
  -32.2520  -17.3450   15.9450 C   0  0  0  0  0  3  0  0  0  0  0  0
  1  2  1  0
  2  3  1  0
  3  4  2  0
  3 13  1  0
  4  8  1  0
  5  1  1  0
  5  6  1  0
  6  7  1  0
  7  9  1  0
  9  4  1  0
  9 54  1  0
 10  2  2  0
 11  5  2  0
  9 12  1  6
 14 25  2  0
 15 13  1  0
 15 20  1  0
 16 24  1  0
 16 26  1  0
 17 23  1  0
 17 19  1  0
 18 24  1  0
 19 18  1  0
 20 19  2  0
 21 22  1  0
 21 15  2  0
 22 17  2  0
 23 16  1  0
 24 14  1  0
 26 28  2  0
 27 26  1  0
 29 27  1  0
 30 39  2  0
 30 35  1  0
 31 27  1  0
 31 35  1  0
 32 31  1  0
 33 34  1  0
 33 32  1  0
 34 30  1  0
 35 36  2  0
 36 37  1  0
 38 37  2  0
 39 38  1  0
 40 14  1  0
 40 45  1  0
 40 41  1  0
 41 44  1  1
 41 42  1  0
 43 41  1  0
 45 48  1  0
 46 50  1  0
 46 45  1  0
 47 46  2  0
 50 49  1  0
 50 52  1  0
 52 53  1  0
 52 51  1  0
 55 58  1  0
 57 60  2  0
 58 54  1  0
 58 56  2  0
 59 55  2  0
 59 57  1  0
 60 56  1  0
 60 69  1  0
 61 69  1  0
 62 67  1  0
 63 64  1  0
 63 62  1  0
 65 64  1  0
 65 74  1  0
 65 66  1  0
 67 61  1  0
 67 66  1  0
 68 61  2  0
 69 70  1  0
 71 72  2  0
 72 91  1  0
 72 73  1  0
 73 76  1  0
 74 71  1  0
 74 75  1  0
 75 73  2  0
 76 77  1  0
 77 78  2  0
 79 82  1  0
 79 78  1  0
 80 79  2  0
 81 80  1  0
 81 76  2  0
 82 83  1  0
 83 88  2  0
 83 84  1  0
 84 85  2  0
 85 86  1  0
 86 90  1  0
 87 86  2  0
 88 87  1  0
 89 88  1  0
 91 92  1  0
 92 95  1  0
 92 94  1  0
 93 91  2  0
 96 71  1  0
 97 96  1  0
 98 96  1  0
100 99  1  0
100 59  1  0
101102  2  0
102100  1  0
M  ISO  4   3 101  13 101  61 100  69 100
M  END
>  <TORSDO>  (69) 
F 20

>  <SCORE>  (69) 
-9.195

>  <name>  (69) 
68

>  <ligand_id>  (69) 
68

>  <original_smiles>  (69) 
[H]C([H])=C([H])C([H])(c1c([H])c(N([H])C(=O)N2C([H])([H])C([H])([H])C([H])([H])C([H])(n3nc(-c4c([H])c([H])c(Oc5c([H])c([H])c(F)c([H])c5F)c([H])c4[H])c(C(=O)N([H])[H])c3N([H])[H])C2([H])[H])c([H])c(C([H])([H])[N+]2([H])C(C([H])([H])[H])=C(Oc3c([H])c([H])c4c(c3[H])C([H])([H])N(C(=O)C([H])(N([H])C(=O)C([H])(N([H])C([H])([H])[H])C([H])([H])[H])C(C([H])([H])[H])(C([H])([H])[H])C([H])([H])[H])C([H])(C(=O)N([H])C3([H])c5c([H])c([H])c([H])c([H])c5C([H])([H])C([H])([H])C3([H])[H])C4([H])[H])C([O-])=C([H])C(=O)C([H])([H])C2([H])[H])c1[H])C([H])([H])[H]

>  <smiles>  (69) 
[H]C([H])=C([H])C([H])(c1c([H])c(N([H])C(=O)N2C([H])([H])C([H])([H])C([H])([H])C([H])(n3nc(-c4c([H])c([H])c(Oc5c([H])c([H])c(F)c([H])c5F)c([H])c4[H])c(C(=O)N([H])[H])c3N([H])[H])C2([H])[H])c([H])c(C([H])([H])[N+]2([H])C(C([H])([H])[H])=C(Oc3c([H])c([H])c4c(c3[H])C([H])([H])N(C(=O)C([H])(N([H])C(=O)C([H])(N([H])C([H])([H])[H])C([H])([H])[H])C(C([H])([H])[H])(C([H])([H])[H])C([H])([H])[H])C([H])(C(=O)N([H])C3([H])c5c([H])c([H])c([H])c([H])c5C([H])([H])C([H])([H])C3([H])[H])C4([H])[H])C([O-])=C([H])C(=O)C([H])([H])C2([H])[H])c1[H])C([H])([H])[H]

$$$$
69:0:0
     RDKit          3D

 96105  0  0  1  0  0  0  0  0999 V2000
  -29.1880  -24.3150   20.1690 C   0  0  0  0  0  0  0  0  0  0  0  0
  -29.1470  -23.0120   19.7570 C   0  0  0  0  0  0  0  0  0  0  0  0
  -30.1790  -24.7010   21.1990 C   0  0  0  0  0  0  0  0  0  0  0  0
  -31.3730  -23.7650   21.3530 C   0  0  0  0  0  2  0  0  0  0  0  0
  -30.9200  -22.2980   21.3540 C   0  0  0  0  0  2  0  0  0  0  0  0
  -28.2090  -22.5850   18.6250 C   0  0  0  0  0  1  0  0  0  0  0  0
  -29.9460  -21.9820   20.3030 N   0  0  0  0  0  0  0  0  0  0  0  0
  -30.1070  -25.7000   21.9200 O   0  0  0  0  0  0  0  0  0  0  0  0
  -28.4010  -18.4000   20.3880 C   0  0  0  0  0  3  0  0  0  0  0  0
  -29.7470  -18.2590   20.1740 C   0  0  0  0  0  0  0  0  0  0  0  0
  -30.4380  -19.5220   20.1270 C   0  0  0  0  0  0  0  0  0  0  0  0
  -29.6050  -20.6120   20.2730 C   0  0  0  0  0  0  0  0  0  0  0  0
  -27.9530  -20.0820   20.5370 S   0  0  0  0  0  0  0  0  0  0  0  0
  -31.8220  -19.6110   19.9210 N   0  0  0  0  0  0  0  0  0  0  0  0
  -32.2680  -18.8230   19.4660 H   0  0  0  0  0  0  0  0  0  0  0  0
  -32.1440  -20.5030   19.5610 H   0  0  0  0  0  0  0  0  0  0  0  0
  -30.4150  -16.9510   19.9640 C   0  0  0  0  0  3  0  0  0  0  0  0
  -29.9020  -15.7110   20.1710 C   0  0  0  0  0  3  0  0  0  0  0  0
  -30.6920  -14.5250   19.8120 C   0  0  0  0  0  0  0  0  0  0  0  0
  -30.4200  -12.2430   18.9300 C   0  0  0  0  0  2  0  0  0  0  0  0
  -29.4030  -12.2970   17.7690 C   0  0  0  0  0  2  0  0  0  0  0  0
  -27.9640  -12.1380   18.3010 C   0  0  0  0  0  2  0  0  0  0  0  0
  -27.6640  -13.0750   19.5030 C   0  0  0  0  0  3  0  0  0  0  0  0
  -28.7950  -13.0080   20.5530 C   0  0  0  0  0  2  0  0  0  0  0  0
  -30.0640  -13.3160   19.8760 N   0  0  0  0  0  0  0  0  0  0  0  0
  -31.8120  -14.6340   19.3020 O   0  0  0  0  0  0  0  0  0  0  0  0
  -25.3300  -13.6570   20.4180 C   0  0  0  0  0  0  0  0  0  0  0  0
  -24.3020  -12.8730   20.8710 C   0  0  0  0  0  0  0  0  0  0  0  0
  -24.7690  -11.5250   20.7880 C   0  0  0  0  0  0  0  0  0  0  0  0
  -26.3580  -12.7850   20.0920 N   0  0  0  0  0  0  0  0  0  0  0  0
  -26.0280  -11.4980   20.3710 N   0  0  0  0  0  0  0  0  0  0  0  0
  -24.0690  -10.2550   21.0280 C   0  0  0  0  0  0  0  0  0  0  0  0
  -24.5120   -9.3430   22.0120 C   0  0  0  0  0  3  0  0  0  0  0  0
  -23.8120   -8.1380   22.2360 C   0  0  0  0  0  3  0  0  0  0  0  0
  -22.6570   -7.8360   21.4780 C   0  0  0  0  0  0  0  0  0  0  0  0
  -22.2330   -8.7370   20.4850 C   0  0  0  0  0  3  0  0  0  0  0  0
  -22.9340   -9.9340   20.2580 C   0  0  0  0  0  3  0  0  0  0  0  0
  -21.9280   -6.6780   21.6080 O   0  0  0  0  0  0  0  0  0  0  0  0
  -21.7760   -6.0570   22.8220 C   0  0  0  0  0  0  0  0  0  0  0  0
  -21.1790   -6.7110   23.9230 C   0  0  0  0  0  3  0  0  0  0  0  0
  -20.9780   -6.0130   25.1300 C   0  0  0  0  0  3  0  0  0  0  0  0
  -21.3640   -4.6630   25.2370 C   0  0  0  0  0  0  0  0  0  0  0  0
  -21.9530   -4.0100   24.1410 C   0  0  0  0  0  3  0  0  0  0  0  0
  -22.1560   -4.7050   22.9360 C   0  0  0  0  0  0  0  0  0  0  0  0
  -22.7050   -4.0650   21.8760 F   0  0  0  0  0  0  0  0  0  0  0  0
  -21.1640   -3.9900   26.3950 F   0  0  0  0  0  0  0  0  0  0  0  0
  -22.9300  -13.3370   21.2650 C   0  0  0  0  0  0  0  0  0  0  0  0
  -22.2860  -12.6320   22.1880 N   0  0  0  0  0  0  0  0  0  0  0  0
  -22.4410  -14.3600   20.7890 O   0  0  0  0  0  0  0  0  0  0  0  0
  -22.6980  -11.8040   22.5930 H   0  0  0  0  0  0  0  0  0  0  0  0
  -21.3690  -12.9250   22.4940 H   0  0  0  0  0  0  0  0  0  0  0  0
  -25.4700  -15.0290   20.2380 N   0  0  0  0  0  0  0  0  0  0  0  0
  -24.7040  -15.6740   20.4040 H   0  0  0  0  0  0  0  0  0  0  0  0
  -26.2750  -15.4710   19.8140 H   0  0  0  0  0  0  0  0  0  0  0  0
  -28.2210  -25.3830   19.6210 C   0  0  0  0  0  2  0  0  0  0  0  0
  -28.3760  -26.7540   20.0580 O   0  0  0  0  0  0  0  0  0  0  0  0
  -24.6580  -31.8640   23.3630 C   0  0  0  0  0  0  0  0  0  0  0  0
  -27.2260  -27.5300   20.0520 C   0  0  0  0  0  0  0  0  0  0  0  0
  -23.4240  -30.5490   21.6740 C   0  0  0  0  0  3  0  0  0  0  0  0
  -24.8490  -29.0760   20.1580 C   0  0  0  0  0  0  0  0  0  0  0  0
  -25.9540  -30.8920   21.4660 C   0  0  0  0  0  2  0  0  0  0  0  0
  -26.0210  -29.5510   20.7600 C   0  0  0  0  0  0  0  0  0  0  0  0
  -27.2120  -28.7860   20.7080 C   0  0  0  0  0  3  0  0  0  0  0  0
  -26.0340  -27.0940   19.4190 C   0  0  0  0  0  3  0  0  0  0  0  0
  -24.8520  -27.8480   19.4840 C   0  0  0  0  0  3  0  0  0  0  0  0
  -23.6130  -29.9390   20.2610 C   0  0  0  0  0  2  0  0  0  0  0  0
  -24.6980  -31.1130   22.2260 N   0  0  0  0  0  0  0  0  0  0  0  0
  -23.5840  -32.1200   23.9250 O   0  0  0  0  0  0  0  0  0  0  0  0
  -22.7770  -29.4860   22.5910 C   0  0  0  0  0  0  0  0  0  0  0  0
  -21.4560  -29.2920   22.4420 N   0  0  0  0  0  0  0  0  0  0  0  0
  -23.4600  -28.8430   23.3920 O   0  0  0  0  0  0  0  0  0  0  0  0
  -20.9660  -29.8650   21.7710 H   0  0  0  0  0  0  0  0  0  0  0  0
  -18.0920  -28.0390   22.8600 C   0  0  0  0  0  0  0  0  0  0  0  0
  -20.6430  -28.3200   23.1720 C   0  0  0  0  0  3  0  0  0  0  0  0
  -20.7720  -26.9100   22.5530 C   0  0  0  0  0  2  0  0  0  0  0  0
  -19.6860  -26.6060   21.5150 C   0  0  0  0  0  2  0  0  0  0  0  0
  -18.2950  -26.7130   22.1460 C   0  0  0  0  0  2  0  0  0  0  0  0
  -19.1950  -28.8010   23.3280 C   0  0  0  0  0  0  0  0  0  0  0  0
  -18.9530  -30.0440   23.9540 C   0  0  0  0  0  3  0  0  0  0  0  0
  -17.6400  -30.5240   24.1160 C   0  0  0  0  0  3  0  0  0  0  0  0
  -16.5520  -29.7590   23.6650 C   0  0  0  0  0  3  0  0  0  0  0  0
  -16.7780  -28.5180   23.0420 C   0  0  0  0  0  3  0  0  0  0  0  0
  -25.9550  -32.4570   23.9960 C   0  0  0  0  0  3  0  0  0  0  0  0
  -26.4220  -31.6890   25.2930 C   0  0  1  0  0  0  0  0  0  0  0  0
  -25.3020  -31.5030   26.3430 C   0  0  0  0  0  1  0  0  0  0  0  0
  -26.9650  -30.2870   24.9290 C   0  0  0  0  0  1  0  0  0  0  0  0
  -27.5870  -32.4540   25.9630 C   0  0  0  0  0  1  0  0  0  0  0  0
  -25.6930  -33.8710   24.2950 N   0  0  0  0  0  0  0  0  0  0  0  0
  -26.0530  -34.8940   23.5080 C   0  0  0  0  0  0  0  0  0  0  0  0
  -26.7120  -34.7440   22.4750 O   0  0  0  0  0  0  0  0  0  0  0  0
  -25.1080  -34.0630   25.0960 H   0  0  0  0  0  0  0  0  0  0  0  0
  -24.3750  -36.7270   23.1250 C   0  0  0  0  0  1  0  0  0  0  0  0
  -25.6120  -36.3070   23.9340 C   0  0  0  0  0  3  0  0  0  0  0  0
  -27.7780  -37.1530   24.7260 C   0  0  0  0  0  1  0  0  0  0  0  0
  -26.6760  -37.3250   23.7840 N   0  0  0  0  0  0  0  0  0  0  0  0
  -26.2980  -38.2610   23.9050 H   0  0  0  0  0  0  0  0  0  0  0  0
  1  3  1  0
  2  1  2  0
  2  7  1  0
  3  4  1  0
  3  8  2  0
  4  5  1  0
  6  2  1  0
  7  5  1  0
  9 13  1  0
 10  9  2  0
 11 10  1  0
 11 12  2  0
 12  7  1  0
 12 13  1  0
 14 11  1  0
 15 14  1  0
 16 14  1  0
 17 18  2  0
 17 10  1  0
 19 25  1  0
 19 18  1  0
 20 25  1  0
 21 22  1  0
 21 20  1  0
 23 22  1  0
 23 30  1  0
 23 24  1  0
 25 24  1  0
 26 19  2  0
 27 28  2  0
 28 47  1  0
 29 28  1  0
 29 32  1  0
 30 31  1  0
 30 27  1  0
 31 29  2  0
 32 33  1  0
 33 34  2  0
 35 38  1  0
 35 34  1  0
 36 35  2  0
 37 36  1  0
 37 32  2  0
 38 39  1  0
 39 44  2  0
 39 40  1  0
 40 41  2  0
 41 42  1  0
 42 46  1  0
 43 42  2  0
 44 43  1  0
 45 44  1  0
 47 48  1  0
 48 51  1  0
 48 50  1  0
 49 47  2  0
 52 53  1  0
 52 27  1  0
 54 52  1  0
 55 56  1  0
 55  1  1  0
 57 68  2  0
 58 56  1  0
 58 63  1  0
 59 67  1  0
 59 69  1  0
 60 66  1  0
 60 62  1  0
 61 67  1  0
 62 61  1  0
 63 62  2  0
 64 65  1  0
 64 58  2  0
 65 60  2  0
 66 59  1  0
 67 57  1  0
 69 71  2  0
 70 69  1  0
 72 70  1  0
 73 82  2  0
 73 78  1  0
 74 70  1  0
 74 78  1  0
 75 74  1  0
 76 77  1  0
 76 75  1  0
 77 73  1  0
 78 79  2  0
 79 80  1  0
 81 80  2  0
 82 81  1  0
 83 57  1  0
 83 88  1  0
 83 84  1  0
 84 87  1  1
 84 85  1  0
 86 84  1  0
 88 91  1  0
 89 93  1  0
 89 88  1  0
 90 89  2  0
 93 92  1  0
 95 96  1  0
 95 93  1  0
 95 94  1  0
M  ISO  4  18 100  19 100  55 101  56 101
M  END
>  <TORSDO>  (70) 
F 20

>  <SCORE>  (70) 
-13.195

>  <name>  (70) 
69

>  <ligand_id>  (70) 
69

>  <original_smiles>  (70) 
[H]C(C(=O)N1C([H])([H])C([H])([H])C([H])([H])C([H])(n2nc(-c3c([H])c([H])c(Oc4c([H])c([H])c(F)c([H])c4F)c([H])c3[H])c(C(=O)N([H])[H])c2N([H])[H])C1([H])[H])=C([H])c1c([H])sc(N2C(C([H])([H])[H])=C(C([H])([H])Oc3c([H])c([H])c4c(c3[H])C([H])([H])N(C(=O)C([H])(N([H])C(=O)C([H])(N([H])C([H])([H])[H])C([H])([H])[H])C(C([H])([H])[H])(C([H])([H])[H])C([H])([H])[H])C([H])(C(=O)N([H])C3([H])c5c([H])c([H])c([H])c([H])c5C([H])([H])C([H])([H])C3([H])[H])C4([H])[H])C(=O)C([H])([H])C2([H])[H])c1N([H])[H]

>  <smiles>  (70) 
[H]C(C(=O)N1C([H])([H])C([H])([H])C([H])([H])C([H])(n2nc(-c3c([H])c([H])c(Oc4c([H])c([H])c(F)c([H])c4F)c([H])c3[H])c(C(=O)N([H])[H])c2N([H])[H])C1([H])[H])=C([H])c1c([H])sc(N2C(C([H])([H])[H])=C(C([H])([H])Oc3c([H])c([H])c4c(c3[H])C([H])([H])N(C(=O)C([H])(N([H])C(=O)C([H])(N([H])C([H])([H])[H])C([H])([H])[H])C(C([H])([H])[H])(C([H])([H])[H])C([H])([H])[H])C([H])(C(=O)N([H])C3([H])c5c([H])c([H])c([H])c([H])c5C([H])([H])C([H])([H])C3([H])[H])C4([H])[H])C(=O)C([H])([H])C2([H])[H])c1N([H])[H]

$$$$
70:0:0
     RDKit          3D

101110  0  0  1  0  0  0  0  0999 V2000
  -30.5590  -21.6630   20.5600 C   0  0  0  0  0  2  0  0  0  0  0  0
  -29.9350  -23.5000   18.9530 C   0  0  0  0  0  0  0  0  0  0  0  0
  -29.8800  -24.8150   19.3160 C   0  0  0  0  0  0  0  0  0  0  0  0
  -30.9890  -25.4870   20.1320 C   0  0  0  0  0  2  0  0  0  0  0  0
  -32.0150  -24.5270   20.7480 C   0  0  0  0  0  2  0  0  0  0  0  0
  -32.3360  -23.3990   19.7700 C   0  0  0  0  0  2  0  0  0  0  0  0
  -31.0730  -22.5890   19.4240 C   0  0  0  0  0  3  0  0  0  0  0  0
  -27.6480  -22.7120   18.4240 C   0  0  0  0  0  2  0  0  0  0  0  0
  -28.9370  -22.8830   18.0950 C   0  0  0  0  0  3  0  0  0  0  0  0
  -28.7770  -25.7980   18.8930 C   0  0  0  0  0  2  0  0  0  0  0  0
  -28.4220  -26.6730   19.9770 O   0  0  0  0  0  0  0  0  0  0  0  0
  -24.4760  -31.7150   23.0920 C   0  0  0  0  0  0  0  0  0  0  0  0
  -27.2140  -27.3380   19.9640 C   0  0  0  0  0  0  0  0  0  0  0  0
  -23.2980  -30.2830   21.4570 C   0  0  0  0  0  3  0  0  0  0  0  0
  -24.7760  -28.7750   20.0240 C   0  0  0  0  0  0  0  0  0  0  0  0
  -25.8140  -30.6930   21.2480 C   0  0  0  0  0  2  0  0  0  0  0  0
  -25.9230  -29.3230   20.6100 C   0  0  0  0  0  0  0  0  0  0  0  0
  -27.1380  -28.6040   20.5890 C   0  0  0  0  0  3  0  0  0  0  0  0
  -26.0380  -26.7900   19.3980 C   0  0  0  0  0  3  0  0  0  0  0  0
  -24.8250  -27.5040   19.4280 C   0  0  0  0  0  3  0  0  0  0  0  0
  -23.5150  -29.6080   20.0770 C   0  0  0  0  0  2  0  0  0  0  0  0
  -24.5490  -30.9110   21.9920 N   0  0  0  0  0  0  0  0  0  0  0  0
  -23.3900  -31.9630   23.6330 O   0  0  0  0  0  0  0  0  0  0  0  0
  -22.6710  -29.2480   22.4210 C   0  0  0  0  0  0  0  0  0  0  0  0
  -21.3470  -29.0590   22.3160 N   0  0  0  0  0  0  0  0  0  0  0  0
  -23.3740  -28.6210   23.2180 O   0  0  0  0  0  0  0  0  0  0  0  0
  -20.8400  -29.6200   21.6450 H   0  0  0  0  0  0  0  0  0  0  0  0
  -17.9870  -27.8560   22.8810 C   0  0  0  0  0  0  0  0  0  0  0  0
  -20.5500  -28.1080   23.0910 C   0  0  0  0  0  3  0  0  0  0  0  0
  -20.6370  -26.6870   22.4860 C   0  0  0  0  0  2  0  0  0  0  0  0
  -19.5080  -26.3830   21.4960 C   0  0  0  0  0  2  0  0  0  0  0  0
  -18.1440  -26.5180   22.1790 C   0  0  0  0  0  2  0  0  0  0  0  0
  -19.1170  -28.6100   23.2950 C   0  0  0  0  0  0  0  0  0  0  0  0
  -18.9150  -29.8650   23.9100 C   0  0  0  0  0  3  0  0  0  0  0  0
  -17.6160  -30.3640   24.1190 C   0  0  0  0  0  3  0  0  0  0  0  0
  -16.5000  -29.6050   23.7220 C   0  0  0  0  0  3  0  0  0  0  0  0
  -16.6870  -28.3550   23.1090 C   0  0  0  0  0  3  0  0  0  0  0  0
  -25.7480  -32.3750   23.7080 C   0  0  0  0  0  3  0  0  0  0  0  0
  -25.4060  -33.7630   24.0510 N   0  0  0  0  0  0  0  0  0  0  0  0
  -25.7210  -34.8300   23.3060 C   0  0  0  0  0  0  0  0  0  0  0  0
  -26.4030  -34.7530   22.2810 O   0  0  0  0  0  0  0  0  0  0  0  0
  -24.8030  -33.8950   24.8500 H   0  0  0  0  0  0  0  0  0  0  0  0
  -23.9540  -36.5850   22.9490 C   0  0  0  0  0  1  0  0  0  0  0  0
  -25.1960  -36.2030   23.7710 C   0  0  0  0  0  3  0  0  0  0  0  0
  -27.3040  -37.1240   24.6290 C   0  0  0  0  0  1  0  0  0  0  0  0
  -26.2040  -37.2810   23.6810 N   0  0  0  0  0  0  0  0  0  0  0  0
  -25.7760  -38.1890   23.8400 H   0  0  0  0  0  0  0  0  0  0  0  0
  -26.2960  -31.6070   24.9720 C   0  0  1  0  0  0  0  0  0  0  0  0
  -25.2250  -31.3330   26.0530 C   0  0  0  0  0  1  0  0  0  0  0  0
  -26.9030  -30.2470   24.5550 C   0  0  0  0  0  1  0  0  0  0  0  0
  -27.4400  -32.4180   25.6230 C   0  0  0  0  0  1  0  0  0  0  0  0
  -31.6250  -20.9690   21.4320 C   0  0  0  0  0  2  0  0  0  0  0  0
  -32.6810  -20.3860   20.6710 O   0  0  0  0  0  0  0  0  0  0  0  0
  -32.8770  -18.9020   18.8100 C   0  0  0  0  0  3  0  0  0  0  0  0
  -31.5520  -16.8760   20.1270 C   0  0  0  0  0  0  0  0  0  0  0  0
  -32.4260  -19.1540   20.1140 C   0  0  0  0  0  0  0  0  0  0  0  0
  -31.7820  -18.0980   20.7950 C   0  0  0  0  0  0  0  0  0  0  0  0
  -31.9870  -16.7590   18.7800 C   0  0  0  0  0  0  0  0  0  0  0  0
  -32.6720  -17.7420   18.1590 N   0  0  0  0  0  0  0  0  0  0  0  0
  -31.3860  -18.2440   22.0840 F   0  0  0  0  0  0  0  0  0  0  0  0
  -31.6010  -14.6310   21.0100 C   0  0  0  0  0  0  0  0  0  0  0  0
  -31.2020  -12.3930   20.1110 C   0  0  0  0  0  2  0  0  0  0  0  0
  -30.4740  -12.5550   18.7630 C   0  0  0  0  0  2  0  0  0  0  0  0
  -28.9510  -12.6490   18.9780 C   0  0  0  0  0  2  0  0  0  0  0  0
  -28.5240  -13.6140   20.1240 C   0  0  0  0  0  3  0  0  0  0  0  0
  -29.4140  -13.4450   21.3810 C   0  0  0  0  0  2  0  0  0  0  0  0
  -30.8210  -13.5240   20.9610 N   0  0  0  0  0  0  0  0  0  0  0  0
  -32.8300  -14.6090   20.9100 O   0  0  0  0  0  0  0  0  0  0  0  0
  -30.9480  -15.7880   20.8300 N   0  0  0  0  0  0  0  0  0  0  0  0
  -29.9410  -15.7590   20.8760 H   0  0  0  0  0  0  0  0  0  0  0  0
  -26.1360  -14.4680   20.5660 C   0  0  0  0  0  0  0  0  0  0  0  0
  -24.9570  -13.8020   20.7720 C   0  0  0  0  0  0  0  0  0  0  0  0
  -25.2750  -12.4120   20.7380 C   0  0  0  0  0  0  0  0  0  0  0  0
  -27.1040  -13.4810   20.4350 N   0  0  0  0  0  0  0  0  0  0  0  0
  -26.5820  -12.2400   20.5970 N   0  0  0  0  0  0  0  0  0  0  0  0
  -24.4040  -11.2300   20.7780 C   0  0  0  0  0  0  0  0  0  0  0  0
  -24.6630  -10.1560   21.6600 C   0  0  0  0  0  3  0  0  0  0  0  0
  -23.8060   -9.0350   21.6930 C   0  0  0  0  0  3  0  0  0  0  0  0
  -22.6760   -8.9840   20.8440 C   0  0  0  0  0  0  0  0  0  0  0  0
  -22.4380  -10.0420   19.9520 C   0  0  0  0  0  3  0  0  0  0  0  0
  -23.2920  -11.1560   19.9150 C   0  0  0  0  0  3  0  0  0  0  0  0
  -21.7960   -7.9300   20.7870 O   0  0  0  0  0  0  0  0  0  0  0  0
  -21.5780   -7.1200   21.8700 C   0  0  0  0  0  0  0  0  0  0  0  0
  -21.1660   -7.6390   23.1150 C   0  0  0  0  0  3  0  0  0  0  0  0
  -20.8900   -6.7630   24.1860 C   0  0  0  0  0  3  0  0  0  0  0  0
  -21.0110   -5.3710   24.0080 C   0  0  0  0  0  0  0  0  0  0  0  0
  -21.4150   -4.8550   22.7640 C   0  0  0  0  0  3  0  0  0  0  0  0
  -21.6960   -5.7290   21.6980 C   0  0  0  0  0  0  0  0  0  0  0  0
  -22.0620   -5.2250   20.4950 F   0  0  0  0  0  0  0  0  0  0  0  0
  -20.7410   -4.5280   25.0300 F   0  0  0  0  0  0  0  0  0  0  0  0
  -23.5920  -14.4180   20.8930 C   0  0  0  0  0  0  0  0  0  0  0  0
  -22.6990  -13.7870   21.6480 N   0  0  0  0  0  0  0  0  0  0  0  0
  -23.3260  -15.4900   20.3510 O   0  0  0  0  0  0  0  0  0  0  0  0
  -22.9280  -12.9220   22.1160 H   0  0  0  0  0  0  0  0  0  0  0  0
  -21.7720  -14.1750   21.7660 H   0  0  0  0  0  0  0  0  0  0  0  0
  -26.4590  -15.8190   20.4590 N   0  0  0  0  0  0  0  0  0  0  0  0
  -25.7440  -16.5390   20.4700 H   0  0  0  0  0  0  0  0  0  0  0  0
  -27.3780  -16.1900   20.2650 H   0  0  0  0  0  0  0  0  0  0  0  0
  -31.7100  -15.5610   17.9640 C   0  0  0  0  0  3  0  0  0  0  0  0
  -32.4040  -15.1400   16.8900 C   0  0  0  0  0  3  0  0  0  0  0  0
  -31.9940  -13.9540   16.0380 C   0  0  0  0  0  1  0  0  0  0  0  0
  1 52  1  0
  2  3  2  0
  2  7  1  0
  3  4  1  0
  4  5  1  0
  6  5  1  0
  7  6  1  0
  7  1  1  0
  9  8  2  0
  9  2  1  0
 10  3  1  0
 10 11  1  0
 12 23  2  0
 13 11  1  0
 13 18  1  0
 14 22  1  0
 14 24  1  0
 15 21  1  0
 15 17  1  0
 16 22  1  0
 17 16  1  0
 18 17  2  0
 19 20  1  0
 19 13  2  0
 20 15  2  0
 21 14  1  0
 22 12  1  0
 24 26  2  0
 25 24  1  0
 27 25  1  0
 28 37  2  0
 28 33  1  0
 29 25  1  0
 29 33  1  0
 30 29  1  0
 31 32  1  0
 31 30  1  0
 32 28  1  0
 33 34  2  0
 34 35  1  0
 36 35  2  0
 37 36  1  0
 38 12  1  0
 38 39  1  0
 38 48  1  0
 39 42  1  0
 40 44  1  0
 40 39  1  0
 41 40  2  0
 44 43  1  0
 46 44  1  0
 46 47  1  0
 46 45  1  0
 48 51  1  1
 48 49  1  0
 50 48  1  0
 53 52  1  0
 54 56  1  0
 55 57  1  0
 55 69  1  0
 56 53  1  0
 56 57  2  0
 57 60  1  0
 58 55  2  0
 59 58  1  0
 59 54  2  0
 62 67  1  0
 63 64  1  0
 63 62  1  0
 65 64  1  0
 65 74  1  0
 65 66  1  0
 67 61  1  0
 67 66  1  0
 68 61  2  0
 69 70  1  0
 69 61  1  0
 71 72  2  0
 72 91  1  0
 73 72  1  0
 73 76  1  0
 74 71  1  0
 74 75  1  0
 75 73  2  0
 76 77  1  0
 77 78  2  0
 79 78  1  0
 80 79  2  0
 81 80  1  0
 81 76  2  0
 82 79  1  0
 82 83  1  0
 83 84  1  0
 84 85  2  0
 86 85  1  0
 86 90  1  0
 87 86  2  0
 88 83  2  0
 88 87  1  0
 89 88  1  0
 91 92  1  0
 92 95  1  0
 92 94  1  0
 93 91  2  0
 96 97  1  0
 96 71  1  0
 98 96  1  0
 99 58  1  0
100 99  2  0
101100  1  0
M  ISO  4  10 101  11 101  61 100  69 100
M  END
>  <TORSDO>  (71) 
F 23

>  <SCORE>  (71) 
-10.817

>  <name>  (71) 
70

>  <ligand_id>  (71) 
70

>  <original_smiles>  (71) 
[H]C([H])=C([H])C1=C(C([H])([H])Oc2c([H])c([H])c3c(c2[H])C([H])([H])N(C(=O)C([H])(N([H])C(=O)C([H])(N([H])C([H])([H])[H])C([H])([H])[H])C(C([H])([H])[H])(C([H])([H])[H])C([H])([H])[H])C([H])(C(=O)N([H])C2([H])c4c([H])c([H])c([H])c([H])c4C([H])([H])C([H])([H])C2([H])[H])C3([H])[H])C([H])([H])C([H])([H])C([H])([H])C1([H])C([H])([H])C([H])([H])Oc1c([H])nc(C([H])=C([H])C([H])([H])[H])c(N([H])C(=O)N2C([H])([H])C([H])([H])C([H])([H])C([H])(n3nc(-c4c([H])c([H])c(Oc5c([H])c([H])c(F)c([H])c5F)c([H])c4[H])c(C(=O)N([H])[H])c3N([H])[H])C2([H])[H])c1F

>  <smiles>  (71) 
[H]C([H])=C([H])C1=C(C([H])([H])Oc2c([H])c([H])c3c(c2[H])C([H])([H])N(C(=O)C([H])(N([H])C(=O)C([H])(N([H])C([H])([H])[H])C([H])([H])[H])C(C([H])([H])[H])(C([H])([H])[H])C([H])([H])[H])C([H])(C(=O)N([H])C2([H])c4c([H])c([H])c([H])c([H])c4C([H])([H])C([H])([H])C2([H])[H])C3([H])[H])C([H])([H])C([H])([H])C([H])([H])C1([H])C([H])([H])C([H])([H])Oc1c([H])nc(C([H])=C([H])C([H])([H])[H])c(N([H])C(=O)N2C([H])([H])C([H])([H])C([H])([H])C([H])(n3nc(-c4c([H])c([H])c(Oc5c([H])c([H])c(F)c([H])c5F)c([H])c4[H])c(C(=O)N([H])[H])c3N([H])[H])C2([H])[H])c1F

$$$$
71:0:0
     RDKit          3D

 94102  0  0  1  0  0  0  0  0999 V2000
  -31.6500  -18.1840   19.9280 C   0  0  0  0  0  3  0  0  0  0  0  0
  -29.8620  -19.3560   21.0840 C   0  0  0  0  0  3  0  0  0  0  0  0
  -32.0410  -19.3930   19.3100 C   0  0  0  0  0  0  0  0  0  0  0  0
  -30.5710  -18.1450   20.8300 C   0  0  0  0  0  0  0  0  0  0  0  0
  -30.2180  -20.5960   20.4730 C   0  0  0  0  0  0  0  0  0  0  0  0
  -31.3450  -20.5950   19.5990 C   0  0  0  0  0  0  0  0  0  0  0  0
  -32.7380  -22.4360   19.9590 C   0  0  0  0  0  1  0  0  0  0  0  0
  -31.8470  -21.7620   19.0800 O   0  0  0  0  0  0  0  0  0  0  0  0
  -34.3060  -18.6100   18.5510 C   0  0  0  0  0  2  0  0  0  0  0  0
  -33.2520  -19.4430   18.4630 C   0  0  0  0  0  3  0  0  0  0  0  0
  -30.3250  -16.8560   21.6520 C   0  0  0  0  0  2  0  0  0  0  0  0
  -30.6430  -14.5650   20.5250 C   0  0  0  0  0  0  0  0  0  0  0  0
  -30.3710  -12.3930   19.3550 C   0  0  0  0  0  2  0  0  0  0  0  0
  -29.4260  -12.5660   18.1470 C   0  0  0  0  0  2  0  0  0  0  0  0
  -27.9530  -12.4150   18.5740 C   0  0  0  0  0  2  0  0  0  0  0  0
  -27.6050  -13.2640   19.8250 C   0  0  0  0  0  3  0  0  0  0  0  0
  -28.6570  -13.0620   20.9360 C   0  0  0  0  0  2  0  0  0  0  0  0
  -29.9740  -13.3860   20.3640 N   0  0  0  0  0  0  0  0  0  0  0  0
  -31.8080  -14.7210   20.1530 O   0  0  0  0  0  0  0  0  0  0  0  0
  -29.9010  -15.5970   20.9950 N   0  0  0  0  0  0  0  0  0  0  0  0
  -28.9300  -15.3650   21.1280 H   0  0  0  0  0  0  0  0  0  0  0  0
  -25.2060  -13.8840   20.5100 C   0  0  0  0  0  0  0  0  0  0  0  0
  -24.1330  -13.1170   20.8780 C   0  0  0  0  0  0  0  0  0  0  0  0
  -24.5910  -11.7640   20.8650 C   0  0  0  0  0  0  0  0  0  0  0  0
  -26.2490  -12.9960   20.2970 N   0  0  0  0  0  0  0  0  0  0  0  0
  -25.8840  -11.7180   20.5690 N   0  0  0  0  0  0  0  0  0  0  0  0
  -23.8600  -10.5050   21.0560 C   0  0  0  0  0  0  0  0  0  0  0  0
  -24.2910   -9.5330   21.9860 C   0  0  0  0  0  3  0  0  0  0  0  0
  -23.5590   -8.3390   22.1630 C   0  0  0  0  0  3  0  0  0  0  0  0
  -22.3800   -8.1120   21.4130 C   0  0  0  0  0  0  0  0  0  0  0  0
  -21.9710   -9.0710   20.4700 C   0  0  0  0  0  3  0  0  0  0  0  0
  -22.7050  -10.2550   20.2910 C   0  0  0  0  0  3  0  0  0  0  0  0
  -21.6200   -6.9710   21.5030 O   0  0  0  0  0  0  0  0  0  0  0  0
  -21.5810   -6.2200   22.6500 C   0  0  0  0  0  0  0  0  0  0  0  0
  -21.1940   -6.7720   23.8900 C   0  0  0  0  0  3  0  0  0  0  0  0
  -21.1000   -5.9480   25.0290 C   0  0  0  0  0  3  0  0  0  0  0  0
  -21.3850   -4.5720   24.9300 C   0  0  0  0  0  0  0  0  0  0  0  0
  -21.7650   -4.0210   23.6950 C   0  0  0  0  0  3  0  0  0  0  0  0
  -21.8600   -4.8420   22.5570 C   0  0  0  0  0  0  0  0  0  0  0  0
  -22.2070   -4.3000   21.3650 F   0  0  0  0  0  0  0  0  0  0  0  0
  -21.2880   -3.7790   26.0220 F   0  0  0  0  0  0  0  0  0  0  0  0
  -22.7330  -13.6010   21.1330 C   0  0  0  0  0  0  0  0  0  0  0  0
  -21.9960  -12.9110   21.9970 N   0  0  0  0  0  0  0  0  0  0  0  0
  -22.3030  -14.6250   20.6030 O   0  0  0  0  0  0  0  0  0  0  0  0
  -22.3540  -12.0790   22.4430 H   0  0  0  0  0  0  0  0  0  0  0  0
  -21.0580  -13.2160   22.2150 H   0  0  0  0  0  0  0  0  0  0  0  0
  -25.3770  -15.2510   20.3160 N   0  0  0  0  0  0  0  0  0  0  0  0
  -24.6080  -15.9090   20.3920 H   0  0  0  0  0  0  0  0  0  0  0  0
  -26.2200  -15.6760   19.9520 H   0  0  0  0  0  0  0  0  0  0  0  0
  -29.5380  -21.7570   20.8650 O   0  0  0  0  0  0  0  0  0  0  0  0
  -29.1680  -22.7960   19.9160 C   0  0  0  0  0  2  0  0  0  0  0  0
  -28.9010  -24.1920   20.5790 C   0  0  0  0  0  3  0  0  0  0  0  0
  -28.6150  -25.3640   19.5760 C   0  0  0  0  0  3  0  0  0  0  0  0
  -28.4500  -26.6750   20.1870 O   0  0  0  0  0  0  0  0  0  0  0  0
  -24.6140  -31.8830   23.2460 C   0  0  0  0  0  0  0  0  0  0  0  0
  -27.2560  -27.3950   20.1560 C   0  0  0  0  0  0  0  0  0  0  0  0
  -23.4030  -30.4740   21.6140 C   0  0  0  0  0  3  0  0  0  0  0  0
  -24.8560  -28.9360   20.1810 C   0  0  0  0  0  0  0  0  0  0  0  0
  -25.9350  -30.8220   21.4100 C   0  0  0  0  0  2  0  0  0  0  0  0
  -26.0170  -29.4490   20.7650 C   0  0  0  0  0  0  0  0  0  0  0  0
  -27.2140  -28.6860   20.7480 C   0  0  0  0  0  3  0  0  0  0  0  0
  -26.0610  -26.9030   19.5750 C   0  0  0  0  0  3  0  0  0  0  0  0
  -24.8760  -27.6640   19.5820 C   0  0  0  0  0  3  0  0  0  0  0  0
  -23.6110  -29.7960   20.2310 C   0  0  0  0  0  2  0  0  0  0  0  0
  -24.6690  -31.0760   22.1480 N   0  0  0  0  0  0  0  0  0  0  0  0
  -23.5330  -32.1530   23.7890 O   0  0  0  0  0  0  0  0  0  0  0  0
  -22.7580  -29.4510   22.5760 C   0  0  0  0  0  0  0  0  0  0  0  0
  -21.4320  -29.2680   22.4570 N   0  0  0  0  0  0  0  0  0  0  0  0
  -23.4460  -28.8280   23.3910 O   0  0  0  0  0  0  0  0  0  0  0  0
  -20.9380  -29.8210   21.7720 H   0  0  0  0  0  0  0  0  0  0  0  0
  -18.0610  -28.0700   22.9560 C   0  0  0  0  0  0  0  0  0  0  0  0
  -20.6180  -28.3310   23.2320 C   0  0  0  0  0  3  0  0  0  0  0  0
  -20.7250  -26.8970   22.6580 C   0  0  0  0  0  2  0  0  0  0  0  0
  -19.6240  -26.5720   21.6450 C   0  0  0  0  0  2  0  0  0  0  0  0
  -18.2410  -26.7180   22.2870 C   0  0  0  0  0  2  0  0  0  0  0  0
  -19.1770  -28.8360   23.3860 C   0  0  0  0  0  0  0  0  0  0  0  0
  -18.9530  -30.1020   23.9670 C   0  0  0  0  0  3  0  0  0  0  0  0
  -17.6480  -30.5980   24.1340 C   0  0  0  0  0  3  0  0  0  0  0  0
  -16.5460  -29.8250   23.7300 C   0  0  0  0  0  3  0  0  0  0  0  0
  -16.7530  -28.5660   23.1390 C   0  0  0  0  0  3  0  0  0  0  0  0
  -25.9010  -32.5180   23.8580 C   0  0  0  0  0  3  0  0  0  0  0  0
  -25.5890  -33.9140   24.1910 N   0  0  0  0  0  0  0  0  0  0  0  0
  -25.9150  -34.9680   23.4320 C   0  0  0  0  0  0  0  0  0  0  0  0
  -26.5770  -34.8670   22.3950 O   0  0  0  0  0  0  0  0  0  0  0  0
  -24.9970  -34.0690   24.9950 H   0  0  0  0  0  0  0  0  0  0  0  0
  -24.1720  -36.7510   23.0960 C   0  0  0  0  0  1  0  0  0  0  0  0
  -25.4240  -36.3530   23.8940 C   0  0  0  0  0  3  0  0  0  0  0  0
  -27.5640  -37.2430   24.7010 C   0  0  0  0  0  1  0  0  0  0  0  0
  -26.4490  -37.4140   23.7710 N   0  0  0  0  0  0  0  0  0  0  0  0
  -26.0410  -38.3290   23.9380 H   0  0  0  0  0  0  0  0  0  0  0  0
  -26.4300  -31.7470   25.1300 C   0  0  1  0  0  0  0  0  0  0  0  0
  -25.3440  -31.4970   26.2050 C   0  0  0  0  0  1  0  0  0  0  0  0
  -27.0130  -30.3740   24.7260 C   0  0  0  0  0  1  0  0  0  0  0  0
  -27.5900  -32.5400   25.7790 C   0  0  0  0  0  1  0  0  0  0  0  0
  1  4  1  0
  3  6  1  0
  3  1  2  0
  4  2  2  0
  4 11  1  0
  5 50  1  0
  5  2  1  0
  6  5  2  0
  8  6  1  0
  8  7  1  0
 10  9  2  0
 10  3  1  0
 12 20  1  0
 13 18  1  0
 14 15  1  0
 14 13  1  0
 16 15  1  0
 16 25  1  0
 16 17  1  0
 18 12  1  0
 18 17  1  0
 19 12  2  0
 20 21  1  0
 20 11  1  0
 22 23  2  0
 23 42  1  0
 24 23  1  0
 24 27  1  0
 25 22  1  0
 25 26  1  0
 26 24  2  0
 27 28  1  0
 28 29  2  0
 30 33  1  0
 30 29  1  0
 31 30  2  0
 32 31  1  0
 32 27  2  0
 33 34  1  0
 34 35  1  0
 35 36  2  0
 37 36  1  0
 37 41  1  0
 38 37  2  0
 39 34  2  0
 39 38  1  0
 40 39  1  0
 42 43  1  0
 43 46  1  0
 43 45  1  0
 44 42  2  0
 47 48  1  0
 47 22  1  0
 49 47  1  0
 51 52  1  0
 51 50  1  0
 53 54  1  0
 53 52  2  0
 55 66  2  0
 56 54  1  0
 56 61  1  0
 57 65  1  0
 57 67  1  0
 58 64  1  0
 58 60  1  0
 59 65  1  0
 60 59  1  0
 61 60  2  0
 62 63  1  0
 62 56  2  0
 63 58  2  0
 64 57  1  0
 65 55  1  0
 67 69  2  0
 68 67  1  0
 70 68  1  0
 71 80  2  0
 71 76  1  0
 72 68  1  0
 72 76  1  0
 73 72  1  0
 74 75  1  0
 74 73  1  0
 75 71  1  0
 76 77  2  0
 77 78  1  0
 79 78  2  0
 80 79  1  0
 81 55  1  0
 81 82  1  0
 81 91  1  0
 82 85  1  0
 83 87  1  0
 83 82  1  0
 84 83  2  0
 87 86  1  0
 89 87  1  0
 89 90  1  0
 89 88  1  0
 91 94  1  1
 91 92  1  0
 93 91  1  0
M  ISO  4  12 100  20 100  53 101  54 101
M  END
>  <TORSDO>  (72) 
F 23

>  <SCORE>  (72) 
-12.917

>  <name>  (72) 
71

>  <ligand_id>  (72) 
71

>  <original_smiles>  (72) 
[H]C([H])=C([H])c1c([H])c(C([H])([H])N([H])C(=O)N2C([H])([H])C([H])([H])C([H])([H])C([H])(n3nc(-c4c([H])c([H])c(Oc5c([H])c([H])c(F)c([H])c5F)c([H])c4[H])c(C(=O)N([H])[H])c3N([H])[H])C2([H])[H])c([H])c(OC([H])([H])C([H])([H])C([H])([H])Oc2c([H])c([H])c3c(c2[H])C([H])([H])N(C(=O)C([H])(N([H])C(=O)C([H])(N([H])C([H])([H])[H])C([H])([H])[H])C(C([H])([H])[H])(C([H])([H])[H])C([H])([H])[H])C([H])(C(=O)N([H])C2([H])c4c([H])c([H])c([H])c([H])c4C([H])([H])C([H])([H])C2([H])[H])C3([H])[H])c1OC([H])([H])[H]

>  <smiles>  (72) 
[H]C([H])=C([H])c1c([H])c(C([H])([H])N([H])C(=O)N2C([H])([H])C([H])([H])C([H])([H])C([H])(n3nc(-c4c([H])c([H])c(Oc5c([H])c([H])c(F)c([H])c5F)c([H])c4[H])c(C(=O)N([H])[H])c3N([H])[H])C2([H])[H])c([H])c(OC([H])([H])C([H])([H])C([H])([H])Oc2c([H])c([H])c3c(c2[H])C([H])([H])N(C(=O)C([H])(N([H])C(=O)C([H])(N([H])C([H])([H])[H])C([H])([H])[H])C(C([H])([H])[H])(C([H])([H])[H])C([H])([H])[H])C([H])(C(=O)N([H])C2([H])c4c([H])c([H])c([H])c([H])c4C([H])([H])C([H])([H])C2([H])[H])C3([H])[H])c1OC([H])([H])[H]

$$$$
72:0:0
     RDKit          3D

 93101  0  0  1  0  0  0  0  0999 V2000
  -30.4230  -17.8170   19.2570 C   0  0  0  0  0  3  0  0  0  0  0  0
  -30.2570  -18.4130   21.5600 C   0  0  0  0  0  3  0  0  0  0  0  0
  -30.4880  -17.3780   20.6050 C   0  0  0  0  0  0  0  0  0  0  0  0
  -30.1660  -19.1770   18.8840 C   0  0  0  0  0  0  0  0  0  0  0  0
  -29.9400  -20.2010   19.8650 C   0  0  0  0  0  0  0  0  0  0  0  0
  -29.9920  -19.7670   21.2180 C   0  0  0  0  0  0  0  0  0  0  0  0
  -29.7920  -20.6460   22.2300 F   0  0  0  0  0  0  0  0  0  0  0  0
  -30.7380  -15.9220   21.0770 C   0  0  0  0  0  0  0  0  0  0  0  0
  -30.5600  -15.6500   22.3050 N   0  0  0  0  0  0  0  0  0  0  0  0
  -30.2350  -16.4550   22.8230 H   0  0  0  0  0  0  0  0  0  0  0  0
  -31.2750  -14.7980   20.1080 C   0  0  0  0  0  0  0  0  0  0  0  0
  -30.8880  -12.6490   18.9010 C   0  0  0  0  0  2  0  0  0  0  0  0
  -29.8890  -12.8740   17.7420 C   0  0  0  0  0  2  0  0  0  0  0  0
  -28.4320  -12.7510   18.2310 C   0  0  0  0  0  2  0  0  0  0  0  0
  -28.1790  -13.5570   19.5310 C   0  0  0  0  0  3  0  0  0  0  0  0
  -29.2720  -13.2590   20.5740 C   0  0  0  0  0  2  0  0  0  0  0  0
  -30.5770  -13.6150   19.9800 N   0  0  0  0  0  0  0  0  0  0  0  0
  -32.3300  -14.9780   19.4880 O   0  0  0  0  0  0  0  0  0  0  0  0
  -25.8580  -14.2340   20.4050 C   0  0  0  0  0  0  0  0  0  0  0  0
  -24.7750  -13.4930   20.7980 C   0  0  0  0  0  0  0  0  0  0  0  0
  -25.1680  -12.1250   20.6770 C   0  0  0  0  0  0  0  0  0  0  0  0
  -26.8430  -13.3180   20.0700 N   0  0  0  0  0  0  0  0  0  0  0  0
  -26.4350  -12.0410   20.2900 N   0  0  0  0  0  0  0  0  0  0  0  0
  -24.3930  -10.8900   20.8490 C   0  0  0  0  0  0  0  0  0  0  0  0
  -24.8030   -9.8800   21.7460 C   0  0  0  0  0  3  0  0  0  0  0  0
  -24.0310   -8.7090   21.9070 C   0  0  0  0  0  3  0  0  0  0  0  0
  -22.8350   -8.5410   21.1690 C   0  0  0  0  0  0  0  0  0  0  0  0
  -22.4430   -9.5400   20.2600 C   0  0  0  0  0  3  0  0  0  0  0  0
  -23.2160  -10.7020   20.0980 C   0  0  0  0  0  3  0  0  0  0  0  0
  -22.0350   -7.4260   21.2410 O   0  0  0  0  0  0  0  0  0  0  0  0
  -21.9300   -6.6880   22.3920 C   0  0  0  0  0  0  0  0  0  0  0  0
  -21.4800   -7.2570   23.6040 C   0  0  0  0  0  3  0  0  0  0  0  0
  -21.3220   -6.4460   24.7460 C   0  0  0  0  0  3  0  0  0  0  0  0
  -21.6040   -5.0690   24.6770 C   0  0  0  0  0  0  0  0  0  0  0  0
  -22.0470   -4.5000   23.4700 C   0  0  0  0  0  3  0  0  0  0  0  0
  -22.2070   -5.3070   22.3300 C   0  0  0  0  0  0  0  0  0  0  0  0
  -22.6140   -4.7510   21.1640 F   0  0  0  0  0  0  0  0  0  0  0  0
  -21.4440   -4.2870   25.7710 F   0  0  0  0  0  0  0  0  0  0  0  0
  -23.4210  -14.0210   21.1720 C   0  0  0  0  0  0  0  0  0  0  0  0
  -22.7120  -13.3190   22.0500 N   0  0  0  0  0  0  0  0  0  0  0  0
  -23.0030  -15.0870   20.7230 O   0  0  0  0  0  0  0  0  0  0  0  0
  -23.0630  -12.4550   22.4340 H   0  0  0  0  0  0  0  0  0  0  0  0
  -21.8040  -13.6530   22.3440 H   0  0  0  0  0  0  0  0  0  0  0  0
  -26.0790  -15.6020   20.2840 N   0  0  0  0  0  0  0  0  0  0  0  0
  -25.3540  -16.2870   20.4720 H   0  0  0  0  0  0  0  0  0  0  0  0
  -26.9370  -16.0180   19.9440 H   0  0  0  0  0  0  0  0  0  0  0  0
  -29.4090  -20.3840   16.7860 C   0  0  0  0  0  2  0  0  0  0  0  0
  -30.0970  -19.4240   17.4280 C   0  0  0  0  0  3  0  0  0  0  0  0
  -29.7220  -21.5390   19.4520 O   0  0  0  0  0  0  0  0  0  0  0  0
  -29.2890  -22.6240   20.3340 C   0  0  0  0  0  3  0  0  0  0  0  0
  -29.1590  -24.0530   19.6360 C   0  0  0  0  0  3  0  0  0  0  0  0
  -28.5290  -25.2400   20.4830 C   0  0  0  0  0  2  0  0  0  0  0  0
  -28.6180  -26.6230   19.9720 O   0  0  0  0  0  0  0  0  0  0  0  0
  -24.6430  -31.7370   23.1510 C   0  0  0  0  0  0  0  0  0  0  0  0
  -27.4560  -27.4010   19.9850 C   0  0  0  0  0  0  0  0  0  0  0  0
  -23.5050  -30.3450   21.4570 C   0  0  0  0  0  3  0  0  0  0  0  0
  -25.0250  -28.8920   20.0010 C   0  0  0  0  0  0  0  0  0  0  0  0
  -26.0280  -30.7740   21.3000 C   0  0  0  0  0  2  0  0  0  0  0  0
  -26.1670  -29.4200   20.6180 C   0  0  0  0  0  0  0  0  0  0  0  0
  -27.3880  -28.6880   20.5970 C   0  0  0  0  0  3  0  0  0  0  0  0
  -26.2930  -26.9150   19.3520 C   0  0  0  0  0  3  0  0  0  0  0  0
  -25.0880  -27.6450   19.3590 C   0  0  0  0  0  3  0  0  0  0  0  0
  -23.7540  -29.7150   20.0610 C   0  0  0  0  0  2  0  0  0  0  0  0
  -24.7430  -30.9680   22.0270 N   0  0  0  0  0  0  0  0  0  0  0  0
  -23.5470  -31.9570   23.6850 O   0  0  0  0  0  0  0  0  0  0  0  0
  -22.8740  -29.2760   22.3820 C   0  0  0  0  0  0  0  0  0  0  0  0
  -21.5560  -29.0570   22.2400 N   0  0  0  0  0  0  0  0  0  0  0  0
  -23.5700  -28.6490   23.1850 O   0  0  0  0  0  0  0  0  0  0  0  0
  -21.0530  -29.6200   21.5680 H   0  0  0  0  0  0  0  0  0  0  0  0
  -18.2180  -27.7370   22.6780 C   0  0  0  0  0  0  0  0  0  0  0  0
  -20.7650  -28.0680   22.9740 C   0  0  0  0  0  3  0  0  0  0  0  0
  -20.9170  -26.6610   22.3520 C   0  0  0  0  0  2  0  0  0  0  0  0
  -19.8310  -26.3370   21.3210 C   0  0  0  0  0  2  0  0  0  0  0  0
  -18.4410  -26.4170   21.9610 C   0  0  0  0  0  2  0  0  0  0  0  0
  -19.3100  -28.5200   23.1400 C   0  0  0  0  0  0  0  0  0  0  0  0
  -19.0470  -29.7560   23.7710 C   0  0  0  0  0  3  0  0  0  0  0  0
  -17.7250  -30.2090   23.9460 C   0  0  0  0  0  3  0  0  0  0  0  0
  -16.6490  -29.4220   23.5010 C   0  0  0  0  0  3  0  0  0  0  0  0
  -16.8960  -28.1890   22.8720 C   0  0  0  0  0  3  0  0  0  0  0  0
  -25.8970  -32.3970   23.8030 C   0  0  0  0  0  3  0  0  0  0  0  0
  -25.5450  -33.7830   24.1430 N   0  0  0  0  0  0  0  0  0  0  0  0
  -25.8650  -34.8520   23.4040 C   0  0  0  0  0  0  0  0  0  0  0  0
  -26.5570  -34.7790   22.3850 O   0  0  0  0  0  0  0  0  0  0  0  0
  -24.9320  -33.9110   24.9350 H   0  0  0  0  0  0  0  0  0  0  0  0
  -24.0990  -36.6050   23.0360 C   0  0  0  0  0  1  0  0  0  0  0  0
  -25.3330  -36.2220   23.8680 C   0  0  0  0  0  3  0  0  0  0  0  0
  -27.4230  -37.1550   24.7570 C   0  0  0  0  0  1  0  0  0  0  0  0
  -26.3390  -37.3030   23.7880 N   0  0  0  0  0  0  0  0  0  0  0  0
  -25.9070  -38.2110   23.9340 H   0  0  0  0  0  0  0  0  0  0  0  0
  -26.4110  -31.6240   25.0810 C   0  0  1  0  0  0  0  0  0  0  0  0
  -25.3070  -31.3490   26.1270 C   0  0  0  0  0  1  0  0  0  0  0  0
  -27.0350  -30.2670   24.6830 C   0  0  0  0  0  1  0  0  0  0  0  0
  -27.5300  -32.4400   25.7710 C   0  0  0  0  0  1  0  0  0  0  0  0
  1  3  1  0
  3  8  1  0
  3  2  2  0
  4  1  2  0
  4  5  1  0
  5  6  2  0
  6  2  1  0
  6  7  1  0
  8  9  2  0
  9 10  1  0
 11  8  1  0
 12 17  1  0
 13 14  1  0
 13 12  1  0
 15 14  1  0
 15 22  1  0
 15 16  1  0
 17 11  1  0
 17 16  1  0
 18 11  2  0
 19 20  2  0
 20 39  1  0
 21 20  1  0
 21 24  1  0
 22 23  1  0
 22 19  1  0
 23 21  2  0
 24 25  1  0
 25 26  2  0
 27 30  1  0
 27 26  1  0
 28 27  2  0
 29 28  1  0
 29 24  2  0
 30 31  1  0
 31 32  1  0
 32 33  2  0
 34 33  1  0
 34 38  1  0
 35 34  2  0
 36 31  2  0
 36 35  1  0
 37 36  1  0
 39 40  1  0
 40 43  1  0
 40 42  1  0
 41 39  2  0
 44 19  1  0
 44 45  1  0
 46 44  1  0
 47 48  2  0
 48  4  1  0
 49  5  1  0
 49 50  1  0
 51 50  2  0
 51 52  1  0
 53 55  1  0
 53 52  1  0
 54 65  2  0
 55 60  1  0
 56 64  1  0
 56 66  1  0
 57 63  1  0
 57 59  1  0
 58 64  1  0
 59 58  1  0
 60 59  2  0
 61 62  1  0
 61 55  2  0
 62 57  2  0
 63 56  1  0
 64 54  1  0
 66 68  2  0
 67 66  1  0
 69 67  1  0
 70 79  2  0
 70 75  1  0
 71 67  1  0
 71 75  1  0
 72 71  1  0
 73 74  1  0
 73 72  1  0
 74 70  1  0
 75 76  2  0
 76 77  1  0
 78 77  2  0
 79 78  1  0
 80 54  1  0
 80 81  1  0
 80 90  1  0
 81 84  1  0
 82 86  1  0
 82 81  1  0
 83 82  2  0
 86 85  1  0
 88 86  1  0
 88 89  1  0
 88 87  1  0
 90 93  1  1
 90 91  1  0
 92 90  1  0
M  ISO  4   8 100  11 100  52 101  53 101
M  END
>  <TORSDO>  (73) 
F 22

>  <SCORE>  (73) 
-12.256

>  <name>  (73) 
72

>  <ligand_id>  (73) 
72

>  <original_smiles>  (73) 
[H]N=C(C(=O)N1C([H])([H])C([H])([H])C([H])([H])C([H])(n2nc(-c3c([H])c([H])c(Oc4c([H])c([H])c(F)c([H])c4F)c([H])c3[H])c(C(=O)N([H])[H])c2N([H])[H])C1([H])[H])c1c([H])c(F)c(OC([H])([H])C([H])([H])C([H])([H])Oc2c([H])c([H])c3c(c2[H])C([H])([H])N(C(=O)C([H])(N([H])C(=O)C([H])(N([H])C([H])([H])[H])C([H])([H])[H])C(C([H])([H])[H])(C([H])([H])[H])C([H])([H])[H])C([H])(C(=O)N([H])C2([H])c4c([H])c([H])c([H])c([H])c4C([H])([H])C([H])([H])C2([H])[H])C3([H])[H])c(C([H])=C([H])[H])c1[H]

>  <smiles>  (73) 
[H]N=C(C(=O)N1C([H])([H])C([H])([H])C([H])([H])C([H])(n2nc(-c3c([H])c([H])c(Oc4c([H])c([H])c(F)c([H])c4F)c([H])c3[H])c(C(=O)N([H])[H])c2N([H])[H])C1([H])[H])c1c([H])c(F)c(OC([H])([H])C([H])([H])C([H])([H])Oc2c([H])c([H])c3c(c2[H])C([H])([H])N(C(=O)C([H])(N([H])C(=O)C([H])(N([H])C([H])([H])[H])C([H])([H])[H])C(C([H])([H])[H])(C([H])([H])[H])C([H])([H])[H])C([H])(C(=O)N([H])C2([H])c4c([H])c([H])c([H])c([H])c4C([H])([H])C([H])([H])C2([H])[H])C3([H])[H])c(C([H])=C([H])[H])c1[H]

$$$$
73:0:0
     RDKit          3D

 94102  0  0  1  0  0  0  0  0999 V2000
  -28.3720  -18.8390   20.1670 C   0  0  0  0  0  3  0  0  0  0  0  0
  -28.7960  -17.5530   19.7730 C   0  0  0  0  0  3  0  0  0  0  0  0
  -30.2920  -19.0060   21.6300 C   0  0  0  0  0  3  0  0  0  0  0  0
  -29.1460  -19.6120   21.0630 C   0  0  0  0  0  0  0  0  0  0  0  0
  -30.0170  -16.9970   20.2360 C   0  0  0  0  0  0  0  0  0  0  0  0
  -30.7310  -17.7220   21.2280 C   0  0  0  0  0  0  0  0  0  0  0  0
  -31.8820  -17.2390   21.7540 F   0  0  0  0  0  0  0  0  0  0  0  0
  -31.1800  -14.8060   20.1940 C   0  0  0  0  0  0  0  0  0  0  0  0
  -30.8280  -12.5640   19.2800 C   0  0  0  0  0  2  0  0  0  0  0  0
  -29.8870  -12.6600   18.0570 C   0  0  0  0  0  2  0  0  0  0  0  0
  -28.4170  -12.5910   18.4930 C   0  0  0  0  0  2  0  0  0  0  0  0
  -28.0810  -13.5300   19.6830 C   0  0  0  0  0  3  0  0  0  0  0  0
  -29.1410  -13.4420   20.8040 C   0  0  0  0  0  2  0  0  0  0  0  0
  -30.4580  -13.6520   20.1930 N   0  0  0  0  0  0  0  0  0  0  0  0
  -32.4110  -14.8030   20.1880 O   0  0  0  0  0  0  0  0  0  0  0  0
  -30.5650  -15.8460   19.5540 N   0  0  0  0  0  0  0  0  0  0  0  0
  -25.7060  -14.1820   20.4190 C   0  0  0  0  0  0  0  0  0  0  0  0
  -24.6160  -13.4290   20.7620 C   0  0  0  0  0  0  0  0  0  0  0  0
  -25.0450  -12.0670   20.7110 C   0  0  0  0  0  0  0  0  0  0  0  0
  -26.7300  -13.2810   20.1780 N   0  0  0  0  0  0  0  0  0  0  0  0
  -26.3370  -12.0030   20.4210 N   0  0  0  0  0  0  0  0  0  0  0  0
  -24.2860  -10.8180   20.8680 C   0  0  0  0  0  0  0  0  0  0  0  0
  -24.6790   -9.8270   21.7940 C   0  0  0  0  0  3  0  0  0  0  0  0
  -23.9230   -8.6440   21.9420 C   0  0  0  0  0  3  0  0  0  0  0  0
  -22.7590   -8.4440   21.1610 C   0  0  0  0  0  0  0  0  0  0  0  0
  -22.3860   -9.4220   20.2230 C   0  0  0  0  0  3  0  0  0  0  0  0
  -23.1420  -10.5970   20.0740 C   0  0  0  0  0  3  0  0  0  0  0  0
  -21.9770   -7.3160   21.2190 O   0  0  0  0  0  0  0  0  0  0  0  0
  -21.8400   -6.5940   22.3780 C   0  0  0  0  0  0  0  0  0  0  0  0
  -21.3260   -7.1720   23.5590 C   0  0  0  0  0  3  0  0  0  0  0  0
  -21.1350   -6.3770   24.7080 C   0  0  0  0  0  3  0  0  0  0  0  0
  -21.4490   -5.0050   24.6750 C   0  0  0  0  0  0  0  0  0  0  0  0
  -21.9550   -4.4270   23.4980 C   0  0  0  0  0  3  0  0  0  0  0  0
  -22.1460   -5.2190   22.3530 C   0  0  0  0  0  0  0  0  0  0  0  0
  -22.6150   -4.6510   21.2150 F   0  0  0  0  0  0  0  0  0  0  0  0
  -21.2570   -4.2400   25.7740 F   0  0  0  0  0  0  0  0  0  0  0  0
  -23.2260  -13.9330   21.0260 C   0  0  0  0  0  0  0  0  0  0  0  0
  -22.4870  -13.2610   21.9000 N   0  0  0  0  0  0  0  0  0  0  0  0
  -22.8080  -14.9590   20.4930 O   0  0  0  0  0  0  0  0  0  0  0  0
  -22.8380  -12.4310   22.3550 H   0  0  0  0  0  0  0  0  0  0  0  0
  -21.5530  -13.5830   22.1210 H   0  0  0  0  0  0  0  0  0  0  0  0
  -25.9060  -15.5510   20.2660 N   0  0  0  0  0  0  0  0  0  0  0  0
  -25.1600  -16.2260   20.3910 H   0  0  0  0  0  0  0  0  0  0  0  0
  -26.7870  -15.9780   20.0090 H   0  0  0  0  0  0  0  0  0  0  0  0
  -31.8480  -15.5370   17.4210 C   0  0  0  0  0  3  0  0  0  0  0  0
  -30.9500  -16.1620   18.2150 C   0  0  0  0  0  3  0  0  0  0  0  0
  -32.1650  -15.9500   16.0010 C   0  0  0  0  0  1  0  0  0  0  0  0
  -28.4730  -21.8090   20.5710 C   0  0  0  0  0  3  0  0  0  0  0  0
  -28.7940  -20.9230   21.4440 N   0  0  0  0  0  0  0  0  0  0  0  0
  -28.0280  -23.2240   20.9610 C   0  0  0  0  0  2  0  0  0  0  0  0
  -28.2780  -24.3430   19.9200 C   0  0  0  0  0  0  0  0  0  0  0  0
  -28.4190  -24.1120   18.7130 O   0  0  0  0  0  0  0  0  0  0  0  0
  -28.3120  -25.7880   20.4730 C   0  0  0  0  0  2  0  0  0  0  0  0
  -28.2190  -26.8010   19.4490 O   0  0  0  0  0  0  0  0  0  0  0  0
  -24.4760  -31.7080   23.0150 C   0  0  0  0  0  0  0  0  0  0  0  0
  -27.0660  -27.5470   19.5310 C   0  0  0  0  0  0  0  0  0  0  0  0
  -23.2280  -30.3960   21.3300 C   0  0  0  0  0  3  0  0  0  0  0  0
  -24.6500  -28.9980   19.7360 C   0  0  0  0  0  0  0  0  0  0  0  0
  -25.7340  -30.8300   21.0490 C   0  0  0  0  0  2  0  0  0  0  0  0
  -25.8220  -29.5080   20.3120 C   0  0  0  0  0  0  0  0  0  0  0  0
  -27.0360  -28.7900   20.2060 C   0  0  0  0  0  3  0  0  0  0  0  0
  -25.8820  -27.0540   18.9460 C   0  0  0  0  0  3  0  0  0  0  0  0
  -24.6750  -27.7710   19.0490 C   0  0  0  0  0  3  0  0  0  0  0  0
  -23.3910  -29.8210   19.8980 C   0  0  0  0  0  2  0  0  0  0  0  0
  -24.5010  -30.9890   21.8560 N   0  0  0  0  0  0  0  0  0  0  0  0
  -23.4150  -31.9160   23.6180 O   0  0  0  0  0  0  0  0  0  0  0  0
  -22.6430  -29.2950   22.2430 C   0  0  0  0  0  0  0  0  0  0  0  0
  -21.3190  -29.0870   22.1550 N   0  0  0  0  0  0  0  0  0  0  0  0
  -23.3730  -28.6340   22.9850 O   0  0  0  0  0  0  0  0  0  0  0  0
  -20.7890  -29.6750   21.5270 H   0  0  0  0  0  0  0  0  0  0  0  0
  -18.0020  -27.7430   22.6640 C   0  0  0  0  0  0  0  0  0  0  0  0
  -20.5550  -28.0770   22.8890 C   0  0  0  0  0  3  0  0  0  0  0  0
  -20.6930  -26.6880   22.2270 C   0  0  0  0  0  2  0  0  0  0  0  0
  -19.5770  -26.3840   21.2230 C   0  0  0  0  0  2  0  0  0  0  0  0
  -18.2080  -26.4420   21.9070 C   0  0  0  0  0  2  0  0  0  0  0  0
  -19.1040  -28.5200   23.1100 C   0  0  0  0  0  0  0  0  0  0  0  0
  -18.8580  -29.7400   23.7780 C   0  0  0  0  0  3  0  0  0  0  0  0
  -17.5420  -30.1840   24.0030 C   0  0  0  0  0  3  0  0  0  0  0  0
  -16.4550  -29.4040   23.5720 C   0  0  0  0  0  3  0  0  0  0  0  0
  -16.6850  -28.1860   22.9100 C   0  0  0  0  0  3  0  0  0  0  0  0
  -25.7760  -32.3250   23.6230 C   0  0  0  0  0  3  0  0  0  0  0  0
  -25.4630  -33.7000   24.0320 N   0  0  0  0  0  0  0  0  0  0  0  0
  -25.7860  -34.7940   23.3280 C   0  0  0  0  0  0  0  0  0  0  0  0
  -26.4500  -34.7490   22.2890 O   0  0  0  0  0  0  0  0  0  0  0  0
  -24.8730  -33.8080   24.8440 H   0  0  0  0  0  0  0  0  0  0  0  0
  -24.0620  -36.6050   23.0620 C   0  0  0  0  0  1  0  0  0  0  0  0
  -25.2930  -36.1520   23.8620 C   0  0  0  0  0  3  0  0  0  0  0  0
  -27.4150  -36.9860   24.7750 C   0  0  0  0  0  1  0  0  0  0  0  0
  -26.3280  -37.2090   23.8240 N   0  0  0  0  0  0  0  0  0  0  0  0
  -25.9200  -38.1200   24.0160 H   0  0  0  0  0  0  0  0  0  0  0  0
  -26.3470  -31.4960   24.8390 C   0  0  1  0  0  0  0  0  0  0  0  0
  -25.2980  -31.2030   25.9380 C   0  0  0  0  0  1  0  0  0  0  0  0
  -26.9170  -30.1430   24.3580 C   0  0  0  0  0  1  0  0  0  0  0  0
  -27.5220  -32.2640   25.4900 C   0  0  0  0  0  1  0  0  0  0  0  0
  1  4  1  0
  2  1  2  0
  2  5  1  0
  4 49  1  0
  4  3  2  0
  5  6  2  0
  6  3  1  0
  6  7  1  0
  9 14  1  0
 10 11  1  0
 10  9  1  0
 12 11  1  0
 12 20  1  0
 12 13  1  0
 14  8  1  0
 14 13  1  0
 15  8  2  0
 16  8  1  0
 16  5  1  0
 17 18  2  0
 18 37  1  0
 19 18  1  0
 19 22  1  0
 20 17  1  0
 20 21  1  0
 21 19  2  0
 22 23  1  0
 23 24  2  0
 25 28  1  0
 25 24  1  0
 26 25  2  0
 27 26  1  0
 27 22  2  0
 28 29  1  0
 29 30  1  0
 30 31  2  0
 32 31  1  0
 32 36  1  0
 33 32  2  0
 34 29  2  0
 34 33  1  0
 35 34  1  0
 37 38  1  0
 38 41  1  0
 38 40  1  0
 39 37  2  0
 42 43  1  0
 42 17  1  0
 44 42  1  0
 45 46  2  0
 46 16  1  0
 47 45  1  0
 48 50  1  0
 48 49  2  0
 51 53  1  0
 51 50  1  0
 52 51  2  0
 54 56  1  0
 54 53  1  0
 55 66  2  0
 56 61  1  0
 57 65  1  0
 57 67  1  0
 58 64  1  0
 58 60  1  0
 59 65  1  0
 60 59  1  0
 61 60  2  0
 62 63  1  0
 62 56  2  0
 63 58  2  0
 64 57  1  0
 65 55  1  0
 67 69  2  0
 68 67  1  0
 70 68  1  0
 71 80  2  0
 71 76  1  0
 72 68  1  0
 72 76  1  0
 73 72  1  0
 74 75  1  0
 74 73  1  0
 75 71  1  0
 76 77  2  0
 77 78  1  0
 79 78  2  0
 80 79  1  0
 81 55  1  0
 81 82  1  0
 81 91  1  0
 82 85  1  0
 83 87  1  0
 83 82  1  0
 84 83  2  0
 87 86  1  0
 89 87  1  0
 89 90  1  0
 89 88  1  0
 91 94  1  1
 91 92  1  0
 93 91  1  0
M  ISO  4   8 100  16 100  53 101  54 101
M  END
>  <TORSDO>  (74) 
F 21

>  <SCORE>  (74) 
-12.392

>  <name>  (74) 
73

>  <ligand_id>  (74) 
73

>  <original_smiles>  (74) 
[H]C(=Nc1c([H])c([H])c(N(C(=O)N2C([H])([H])C([H])([H])C([H])([H])C([H])(n3nc(-c4c([H])c([H])c(Oc5c([H])c([H])c(F)c([H])c5F)c([H])c4[H])c(C(=O)N([H])[H])c3N([H])[H])C2([H])[H])C([H])=C([H])C([H])([H])[H])c(F)c1[H])C([H])([H])C(=O)C([H])([H])Oc1c([H])c([H])c2c(c1[H])C([H])([H])N(C(=O)C([H])(N([H])C(=O)C([H])(N([H])C([H])([H])[H])C([H])([H])[H])C(C([H])([H])[H])(C([H])([H])[H])C([H])([H])[H])C([H])(C(=O)N([H])C1([H])c3c([H])c([H])c([H])c([H])c3C([H])([H])C([H])([H])C1([H])[H])C2([H])[H]

>  <smiles>  (74) 
[H]C(=Nc1c([H])c([H])c(N(C(=O)N2C([H])([H])C([H])([H])C([H])([H])C([H])(n3nc(-c4c([H])c([H])c(Oc5c([H])c([H])c(F)c([H])c5F)c([H])c4[H])c(C(=O)N([H])[H])c3N([H])[H])C2([H])[H])C([H])=C([H])C([H])([H])[H])c(F)c1[H])C([H])([H])C(=O)C([H])([H])Oc1c([H])c([H])c2c(c1[H])C([H])([H])N(C(=O)C([H])(N([H])C(=O)C([H])(N([H])C([H])([H])[H])C([H])([H])[H])C(C([H])([H])[H])(C([H])([H])[H])C([H])([H])[H])C([H])(C(=O)N([H])C1([H])c3c([H])c([H])c([H])c([H])c3C([H])([H])C([H])([H])C1([H])[H])C2([H])[H]

$$$$
74:0:0
     RDKit          3D

 94102  0  0  1  0  0  0  0  0999 V2000
  -29.1750  -19.0180   20.3260 C   0  0  0  0  0  3  0  0  0  0  0  0
  -31.3570  -18.1330   19.8040 C   0  0  0  0  0  3  0  0  0  0  0  0
  -29.5660  -20.4580   20.1120 C   0  0  0  0  0  0  0  0  0  0  0  0
  -30.0440  -17.7980   20.1910 C   0  0  0  0  0  0  0  0  0  0  0  0
  -31.8030  -19.4630   19.5710 C   0  0  0  0  0  0  0  0  0  0  0  0
  -30.9370  -20.5840   19.7450 C   0  0  0  0  0  0  0  0  0  0  0  0
  -30.4750  -15.0540   20.2980 C   0  0  0  0  0  0  0  0  0  0  0  0
  -30.3690  -12.6570   19.4460 C   0  0  0  0  0  2  0  0  0  0  0  0
  -29.4430  -12.5500   18.2130 C   0  0  0  0  0  2  0  0  0  0  0  0
  -27.9830  -12.3260   18.6520 C   0  0  0  0  0  2  0  0  0  0  0  0
  -27.5600  -13.2790   19.8000 C   0  0  0  0  0  3  0  0  0  0  0  0
  -28.6170  -13.3670   20.9220 C   0  0  0  0  0  2  0  0  0  0  0  0
  -29.8740  -13.7880   20.2900 N   0  0  0  0  0  0  0  0  0  0  0  0
  -31.6840  -15.0570   20.0430 O   0  0  0  0  0  0  0  0  0  0  0  0
  -29.7170  -16.2810   20.3820 N   0  0  0  0  0  0  0  0  0  0  0  0
  -28.7430  -16.1000   20.5670 H   0  0  0  0  0  0  0  0  0  0  0  0
  -25.1920  -13.8380   20.5810 C   0  0  0  0  0  0  0  0  0  0  0  0
  -24.1310  -13.0570   20.9500 C   0  0  0  0  0  0  0  0  0  0  0  0
  -24.5960  -11.7070   20.8940 C   0  0  0  0  0  0  0  0  0  0  0  0
  -26.2320  -12.9650   20.3140 N   0  0  0  0  0  0  0  0  0  0  0  0
  -25.8850  -11.6770   20.5690 N   0  0  0  0  0  0  0  0  0  0  0  0
  -23.8700  -10.4420   21.0720 C   0  0  0  0  0  0  0  0  0  0  0  0
  -24.2980   -9.4670   21.9990 C   0  0  0  0  0  3  0  0  0  0  0  0
  -23.5710   -8.2690   22.1680 C   0  0  0  0  0  3  0  0  0  0  0  0
  -22.4000   -8.0370   21.4070 C   0  0  0  0  0  0  0  0  0  0  0  0
  -21.9910   -9.0000   20.4660 C   0  0  0  0  0  3  0  0  0  0  0  0
  -22.7210  -10.1890   20.2980 C   0  0  0  0  0  3  0  0  0  0  0  0
  -21.6450   -6.8920   21.4830 O   0  0  0  0  0  0  0  0  0  0  0  0
  -21.5720   -6.1520   22.6370 C   0  0  0  0  0  0  0  0  0  0  0  0
  -21.0930   -6.7030   23.8460 C   0  0  0  0  0  3  0  0  0  0  0  0
  -20.9700   -5.8890   24.9900 C   0  0  0  0  0  3  0  0  0  0  0  0
  -21.3170   -4.5260   24.9270 C   0  0  0  0  0  0  0  0  0  0  0  0
  -21.7900   -3.9750   23.7210 C   0  0  0  0  0  3  0  0  0  0  0  0
  -21.9140   -4.7860   22.5800 C   0  0  0  0  0  0  0  0  0  0  0  0
  -22.3490   -4.2460   21.4170 F   0  0  0  0  0  0  0  0  0  0  0  0
  -21.1920   -3.7420   26.0220 F   0  0  0  0  0  0  0  0  0  0  0  0
  -22.7350  -13.5300   21.2370 C   0  0  0  0  0  0  0  0  0  0  0  0
  -22.0150  -12.8290   22.1050 N   0  0  0  0  0  0  0  0  0  0  0  0
  -22.2930  -14.5580   20.7260 O   0  0  0  0  0  0  0  0  0  0  0  0
  -22.3880  -12.0000   22.5410 H   0  0  0  0  0  0  0  0  0  0  0  0
  -21.0790  -13.1280   22.3380 H   0  0  0  0  0  0  0  0  0  0  0  0
  -25.3520  -15.2110   20.4200 N   0  0  0  0  0  0  0  0  0  0  0  0
  -24.5820  -15.8600   20.5480 H   0  0  0  0  0  0  0  0  0  0  0  0
  -26.1830  -15.6540   20.0510 H   0  0  0  0  0  0  0  0  0  0  0  0
  -28.6570  -21.8190   20.2080 C   0  0  0  0  0  3  0  0  0  0  0  0
  -28.8530  -23.2420   20.0760 C   0  0  0  0  0  3  0  0  0  0  0  0
  -27.8070  -24.5490   20.0980 C   0  0  0  0  0  2  0  0  0  0  0  0
  -28.1510  -26.0900   20.2140 O   0  0  0  0  0  0  0  0  0  0  0  0
  -24.6110  -31.8690   23.2760 C   0  0  0  0  0  0  0  0  0  0  0  0
  -27.1170  -27.1200   20.1790 C   0  0  0  0  0  0  0  0  0  0  0  0
  -23.3850  -30.4980   21.6380 C   0  0  0  0  0  3  0  0  0  0  0  0
  -24.8060  -28.9180   20.1880 C   0  0  0  0  0  0  0  0  0  0  0  0
  -25.9450  -30.7290   21.4550 C   0  0  0  0  0  2  0  0  0  0  0  0
  -26.0000  -29.3390   20.7890 C   0  0  0  0  0  0  0  0  0  0  0  0
  -27.1550  -28.4590   20.7620 C   0  0  0  0  0  3  0  0  0  0  0  0
  -25.8930  -26.8200   19.5360 C   0  0  0  0  0  3  0  0  0  0  0  0
  -24.7710  -27.6760   19.5420 C   0  0  0  0  0  3  0  0  0  0  0  0
  -23.5900  -29.8300   20.2530 C   0  0  0  0  0  2  0  0  0  0  0  0
  -24.6690  -31.0560   22.1780 N   0  0  0  0  0  0  0  0  0  0  0  0
  -23.5320  -32.1580   23.8190 O   0  0  0  0  0  0  0  0  0  0  0  0
  -22.7050  -29.4910   22.5990 C   0  0  0  0  0  0  0  0  0  0  0  0
  -21.3780  -29.3120   22.4680 N   0  0  0  0  0  0  0  0  0  0  0  0
  -23.3750  -28.8730   23.4310 O   0  0  0  0  0  0  0  0  0  0  0  0
  -20.8940  -29.8610   21.7710 H   0  0  0  0  0  0  0  0  0  0  0  0
  -18.0050  -28.0660   22.9390 C   0  0  0  0  0  0  0  0  0  0  0  0
  -20.5570  -28.3710   23.2370 C   0  0  0  0  0  3  0  0  0  0  0  0
  -20.6880  -26.9340   22.6810 C   0  0  0  0  0  2  0  0  0  0  0  0
  -19.6060  -26.5830   21.6550 C   0  0  0  0  0  2  0  0  0  0  0  0
  -18.2130  -26.7120   22.2780 C   0  0  0  0  0  2  0  0  0  0  0  0
  -19.1070  -28.8510   23.3750 C   0  0  0  0  0  0  0  0  0  0  0  0
  -18.8580  -30.1140   23.9540 C   0  0  0  0  0  3  0  0  0  0  0  0
  -17.5430  -30.5940   24.0980 C   0  0  0  0  0  3  0  0  0  0  0  0
  -16.4570  -29.8070   23.6780 C   0  0  0  0  0  3  0  0  0  0  0  0
  -16.6890  -28.5440   23.1050 C   0  0  0  0  0  3  0  0  0  0  0  0
  -25.8980  -32.4930   23.8960 C   0  0  0  0  0  3  0  0  0  0  0  0
  -25.6030  -33.8970   24.2290 N   0  0  0  0  0  0  0  0  0  0  0  0
  -25.9170  -34.9500   23.4610 C   0  0  0  0  0  0  0  0  0  0  0  0
  -26.5530  -34.8410   22.4090 O   0  0  0  0  0  0  0  0  0  0  0  0
  -25.0370  -34.0550   25.0500 H   0  0  0  0  0  0  0  0  0  0  0  0
  -24.1810  -36.7500   23.1720 C   0  0  0  0  0  1  0  0  0  0  0  0
  -25.4550  -36.3430   23.9320 C   0  0  0  0  0  3  0  0  0  0  0  0
  -27.6230  -37.2310   24.6700 C   0  0  0  0  0  1  0  0  0  0  0  0
  -26.4840  -37.3930   23.7680 N   0  0  0  0  0  0  0  0  0  0  0  0
  -26.0860  -38.3160   23.9230 H   0  0  0  0  0  0  0  0  0  0  0  0
  -26.4040  -31.7230   25.1770 C   0  0  1  0  0  0  0  0  0  0  0  0
  -25.3110  -31.5040   26.2490 C   0  0  0  0  0  1  0  0  0  0  0  0
  -26.9670  -30.3340   24.7980 C   0  0  0  0  0  1  0  0  0  0  0  0
  -27.5690  -32.5050   25.8320 C   0  0  0  0  0  1  0  0  0  0  0  0
  -33.0940  -19.7330   19.1410 O   0  0  0  0  0  0  0  0  0  0  0  0
  -35.3950  -19.1850   18.6020 C   0  0  0  0  0  1  0  0  0  0  0  0
  -34.0050  -18.6520   18.9530 C   0  0  0  0  0  2  0  0  0  0  0  0
  -31.4450  -21.8310   19.4810 O   0  0  0  0  0  0  0  0  0  0  0  0
  -32.9630  -23.6230   19.9460 C   0  0  0  0  0  1  0  0  0  0  0  0
  -32.3420  -22.3270   20.4680 C   0  0  0  0  0  2  0  0  0  0  0  0
  2  4  2  0
  3 45  1  0
  3  1  2  0
  4  1  1  0
  4 15  1  0
  5  6  2  0
  5  2  1  0
  6  3  1  0
  7 15  1  0
  8 13  1  0
  9 10  1  0
  9  8  1  0
 11 10  1  0
 11 20  1  0
 11 12  1  0
 13  7  1  0
 13 12  1  0
 14  7  2  0
 15 16  1  0
 17 18  2  0
 18 37  1  0
 19 18  1  0
 19 22  1  0
 20 21  1  0
 20 17  1  0
 21 19  2  0
 22 23  1  0
 23 24  2  0
 25 28  1  0
 25 24  1  0
 26 25  2  0
 27 26  1  0
 27 22  2  0
 28 29  1  0
 29 30  1  0
 30 31  2  0
 32 31  1  0
 32 36  1  0
 33 32  2  0
 34 29  2  0
 34 33  1  0
 35 34  1  0
 37 38  1  0
 38 41  1  0
 38 40  1  0
 39 37  2  0
 42 43  1  0
 42 17  1  0
 44 42  1  0
 46 47  1  0
 46 45  2  0
 47 48  1  0
 49 60  2  0
 50 48  1  0
 50 55  1  0
 51 59  1  0
 51 61  1  0
 52 58  1  0
 52 54  1  0
 53 59  1  0
 54 53  1  0
 55 54  2  0
 56 57  1  0
 56 50  2  0
 57 52  2  0
 58 51  1  0
 59 49  1  0
 61 63  2  0
 62 61  1  0
 64 62  1  0
 65 74  2  0
 65 70  1  0
 66 62  1  0
 66 70  1  0
 67 66  1  0
 68 69  1  0
 68 67  1  0
 69 65  1  0
 70 71  2  0
 71 72  1  0
 73 72  2  0
 74 73  1  0
 75 49  1  0
 75 76  1  0
 75 85  1  0
 76 79  1  0
 77 81  1  0
 77 76  1  0
 78 77  2  0
 81 80  1  0
 83 84  1  0
 83 81  1  0
 83 82  1  0
 85 88  1  1
 85 86  1  0
 87 85  1  0
 89  5  1  0
 90 91  1  0
 91 89  1  0
 92  6  1  0
 92 94  1  0
 93 94  1  0
M  ISO  4   7 100  15 100  47 101  48 101
M  END
>  <TORSDO>  (75) 
F 22

>  <SCORE>  (75) 
-12.980

>  <name>  (75) 
74

>  <ligand_id>  (75) 
74

>  <original_smiles>  (75) 
[H]C(=C([H])C([H])([H])Oc1c([H])c([H])c2c(c1[H])C([H])([H])N(C(=O)C([H])(N([H])C(=O)C([H])(N([H])C([H])([H])[H])C([H])([H])[H])C(C([H])([H])[H])(C([H])([H])[H])C([H])([H])[H])C([H])(C(=O)N([H])C1([H])c3c([H])c([H])c([H])c([H])c3C([H])([H])C([H])([H])C1([H])[H])C2([H])[H])c1c([H])c(N([H])C(=O)N2C([H])([H])C([H])([H])C([H])([H])C([H])(n3nc(-c4c([H])c([H])c(Oc5c([H])c([H])c(F)c([H])c5F)c([H])c4[H])c(C(=O)N([H])[H])c3N([H])[H])C2([H])[H])c([H])c(OC([H])([H])C([H])([H])[H])c1OC([H])([H])C([H])([H])[H]

>  <smiles>  (75) 
[H]C(=C([H])C([H])([H])Oc1c([H])c([H])c2c(c1[H])C([H])([H])N(C(=O)C([H])(N([H])C(=O)C([H])(N([H])C([H])([H])[H])C([H])([H])[H])C(C([H])([H])[H])(C([H])([H])[H])C([H])([H])[H])C([H])(C(=O)N([H])C1([H])c3c([H])c([H])c([H])c([H])c3C([H])([H])C([H])([H])C1([H])[H])C2([H])[H])c1c([H])c(N([H])C(=O)N2C([H])([H])C([H])([H])C([H])([H])C([H])(n3nc(-c4c([H])c([H])c(Oc5c([H])c([H])c(F)c([H])c5F)c([H])c4[H])c(C(=O)N([H])[H])c3N([H])[H])C2([H])[H])c([H])c(OC([H])([H])C([H])([H])[H])c1OC([H])([H])C([H])([H])[H]

$$$$
75:0:0
     RDKit          3D

 94103  0  0  1  0  0  0  0  0999 V2000
  -27.8470  -22.4630   21.3610 C   0  0  0  0  0  0  0  0  0  0  0  0
  -27.4660  -23.7180   22.1310 C   0  0  0  0  0  2  0  0  0  0  0  0
  -28.7370  -24.5550   21.9910 C   0  0  0  0  0  2  0  0  0  0  0  0
  -29.2270  -24.1800   20.5840 C   0  0  0  0  0  3  0  0  0  0  0  0
  -28.9010  -22.6720   20.5440 N   0  0  0  0  0  0  0  0  0  0  0  0
  -27.3120  -21.3760   21.6010 O   0  0  0  0  0  0  0  0  0  0  0  0
  -29.9440  -21.5480   20.4290 C   0  0  0  0  0  2  0  0  0  0  0  0
  -29.0910  -17.4280   18.8890 C   0  0  0  0  0  3  0  0  0  0  0  0
  -28.5430  -18.5900   18.3120 C   0  0  0  0  0  3  0  0  0  0  0  0
  -30.1320  -18.8170   20.5930 C   0  0  0  0  0  3  0  0  0  0  0  0
  -29.6040  -20.0430   19.9880 C   0  0  0  0  0  0  0  0  0  0  0  0
  -29.8850  -17.4770   20.0560 C   0  0  0  0  0  0  0  0  0  0  0  0
  -28.7880  -19.8690   18.8500 C   0  0  0  0  0  0  0  0  0  0  0  0
  -28.2550  -20.9500   18.2350 F   0  0  0  0  0  0  0  0  0  0  0  0
  -30.8840  -15.0630   20.1980 C   0  0  0  0  0  0  0  0  0  0  0  0
  -30.6930  -12.7470   19.2600 C   0  0  0  0  0  2  0  0  0  0  0  0
  -29.7540  -12.7820   18.0350 C   0  0  0  0  0  2  0  0  0  0  0  0
  -28.2820  -12.6210   18.4620 C   0  0  0  0  0  2  0  0  0  0  0  0
  -27.9090  -13.5390   19.6570 C   0  0  0  0  0  3  0  0  0  0  0  0
  -28.9700  -13.4820   20.7810 C   0  0  0  0  0  2  0  0  0  0  0  0
  -30.2740  -13.8250   20.1910 N   0  0  0  0  0  0  0  0  0  0  0  0
  -32.0210  -15.1820   19.7260 O   0  0  0  0  0  0  0  0  0  0  0  0
  -30.1970  -16.1650   20.6890 N   0  0  0  0  0  0  0  0  0  0  0  0
  -29.4600  -15.8600   21.3070 H   0  0  0  0  0  0  0  0  0  0  0  0
  -25.5400  -14.1680   20.4110 C   0  0  0  0  0  0  0  0  0  0  0  0
  -24.4610  -13.4140   20.7820 C   0  0  0  0  0  0  0  0  0  0  0  0
  -24.8950  -12.0540   20.7300 C   0  0  0  0  0  0  0  0  0  0  0  0
  -26.5640  -13.2690   20.1530 N   0  0  0  0  0  0  0  0  0  0  0  0
  -26.1820  -11.9910   20.4070 N   0  0  0  0  0  0  0  0  0  0  0  0
  -24.1430  -10.8020   20.9080 C   0  0  0  0  0  0  0  0  0  0  0  0
  -24.5240   -9.8440   21.8730 C   0  0  0  0  0  3  0  0  0  0  0  0
  -23.7740   -8.6610   22.0460 C   0  0  0  0  0  3  0  0  0  0  0  0
  -22.6260   -8.4280   21.2540 C   0  0  0  0  0  0  0  0  0  0  0  0
  -22.2630   -9.3730   20.2780 C   0  0  0  0  0  3  0  0  0  0  0  0
  -23.0130  -10.5480   20.1030 C   0  0  0  0  0  3  0  0  0  0  0  0
  -21.8520   -7.2960   21.3290 O   0  0  0  0  0  0  0  0  0  0  0  0
  -21.7090   -6.6000   22.5030 C   0  0  0  0  0  0  0  0  0  0  0  0
  -21.1580   -7.1940   23.6580 C   0  0  0  0  0  3  0  0  0  0  0  0
  -20.9670   -6.4230   24.8240 C   0  0  0  0  0  3  0  0  0  0  0  0
  -21.3130   -5.0590   24.8320 C   0  0  0  0  0  0  0  0  0  0  0  0
  -21.8560   -4.4650   23.6800 C   0  0  0  0  0  3  0  0  0  0  0  0
  -22.0520   -5.2330   22.5190 C   0  0  0  0  0  0  0  0  0  0  0  0
  -22.5530   -4.6480   21.4040 F   0  0  0  0  0  0  0  0  0  0  0  0
  -21.1240   -4.3170   25.9480 F   0  0  0  0  0  0  0  0  0  0  0  0
  -23.0790  -13.9160   21.0730 C   0  0  0  0  0  0  0  0  0  0  0  0
  -22.3470  -13.2340   21.9490 N   0  0  0  0  0  0  0  0  0  0  0  0
  -22.6520  -14.9490   20.5580 O   0  0  0  0  0  0  0  0  0  0  0  0
  -22.7010  -12.4000   22.3950 H   0  0  0  0  0  0  0  0  0  0  0  0
  -21.4150  -13.5540   22.1750 H   0  0  0  0  0  0  0  0  0  0  0  0
  -25.7410  -15.5370   20.2450 N   0  0  0  0  0  0  0  0  0  0  0  0
  -25.0040  -16.2220   20.3660 H   0  0  0  0  0  0  0  0  0  0  0  0
  -26.6110  -15.9490   19.9400 H   0  0  0  0  0  0  0  0  0  0  0  0
  -28.4730  -25.2010   19.5750 C   0  0  0  0  0  2  0  0  0  0  0  0
  -28.5560  -26.6910   19.7950 O   0  0  0  0  0  0  0  0  0  0  0  0
  -24.6010  -31.7640   23.1020 C   0  0  0  0  0  0  0  0  0  0  0  0
  -27.4030  -27.5110   19.7600 C   0  0  0  0  0  0  0  0  0  0  0  0
  -23.4500  -30.4010   21.3920 C   0  0  0  0  0  3  0  0  0  0  0  0
  -24.9640  -29.0240   19.8540 C   0  0  0  0  0  0  0  0  0  0  0  0
  -25.9660  -30.8620   21.2020 C   0  0  0  0  0  2  0  0  0  0  0  0
  -26.1130  -29.5270   20.4750 C   0  0  0  0  0  0  0  0  0  0  0  0
  -27.3310  -28.7790   20.4260 C   0  0  0  0  0  3  0  0  0  0  0  0
  -26.2360  -27.0910   19.0810 C   0  0  0  0  0  3  0  0  0  0  0  0
  -25.0300  -27.8160   19.1430 C   0  0  0  0  0  3  0  0  0  0  0  0
  -23.6830  -29.8290   19.9680 C   0  0  0  0  0  2  0  0  0  0  0  0
  -24.6910  -31.0250   21.9560 N   0  0  0  0  0  0  0  0  0  0  0  0
  -23.5120  -31.9470   23.6660 O   0  0  0  0  0  0  0  0  0  0  0  0
  -22.8590  -29.2930   22.2980 C   0  0  0  0  0  0  0  0  0  0  0  0
  -21.5430  -29.0450   22.1740 N   0  0  0  0  0  0  0  0  0  0  0  0
  -23.5820  -28.6630   23.0740 O   0  0  0  0  0  0  0  0  0  0  0  0
  -21.0130  -29.6120   21.5250 H   0  0  0  0  0  0  0  0  0  0  0  0
  -18.2510  -27.6200   22.6340 C   0  0  0  0  0  0  0  0  0  0  0  0
  -20.7920  -28.0160   22.8970 C   0  0  0  0  0  3  0  0  0  0  0  0
  -20.9740  -26.6290   22.2370 C   0  0  0  0  0  2  0  0  0  0  0  0
  -19.8810  -26.3000   21.2170 C   0  0  0  0  0  2  0  0  0  0  0  0
  -18.5000  -26.3260   21.8790 C   0  0  0  0  0  2  0  0  0  0  0  0
  -19.3270  -28.4220   23.0980 C   0  0  0  0  0  0  0  0  0  0  0  0
  -19.0410  -29.6330   23.7650 C   0  0  0  0  0  3  0  0  0  0  0  0
  -17.7100  -30.0440   23.9720 C   0  0  0  0  0  3  0  0  0  0  0  0
  -16.6480  -29.2390   23.5220 C   0  0  0  0  0  3  0  0  0  0  0  0
  -16.9200  -28.0300   22.8580 C   0  0  0  0  0  3  0  0  0  0  0  0
  -25.8580  -32.4280   23.7440 C   0  0  0  0  0  3  0  0  0  0  0  0
  -26.4010  -31.6430   25.0010 C   0  0  1  0  0  0  0  0  0  0  0  0
  -25.3170  -31.3330   26.0580 C   0  0  0  0  0  1  0  0  0  0  0  0
  -27.0370  -30.2980   24.5730 C   0  0  0  0  0  1  0  0  0  0  0  0
  -27.5150  -32.4640   25.6900 C   0  0  0  0  0  1  0  0  0  0  0  0
  -25.4960  -33.8040   24.1100 N   0  0  0  0  0  0  0  0  0  0  0  0
  -25.8010  -34.8910   23.3870 C   0  0  0  0  0  0  0  0  0  0  0  0
  -26.4850  -34.8420   22.3610 O   0  0  0  0  0  0  0  0  0  0  0  0
  -24.8950  -33.9160   24.9110 H   0  0  0  0  0  0  0  0  0  0  0  0
  -24.0220  -36.6410   23.0560 C   0  0  0  0  0  1  0  0  0  0  0  0
  -25.2590  -36.2490   23.8790 C   0  0  0  0  0  3  0  0  0  0  0  0
  -27.3400  -37.1830   24.7870 C   0  0  0  0  0  1  0  0  0  0  0  0
  -26.2580  -37.3370   23.8200 N   0  0  0  0  0  0  0  0  0  0  0  0
  -25.8160  -38.2390   23.9820 H   0  0  0  0  0  0  0  0  0  0  0  0
  1  6  2  0
  1  2  1  0
  3  2  1  0
  4 53  1  0
  4  3  1  0
  5  4  1  0
  5  1  1  0
  7  5  1  0
  8 12  1  0
  9 13  1  0
  9  8  2  0
 11  7  1  0
 11 10  1  0
 12 10  2  0
 12 23  1  0
 13 11  2  0
 14 13  1  0
 15 23  1  0
 16 21  1  0
 17 18  1  0
 17 16  1  0
 19 18  1  0
 19 28  1  0
 19 20  1  0
 21 15  1  0
 21 20  1  0
 22 15  2  0
 23 24  1  0
 25 26  2  0
 26 45  1  0
 27 26  1  0
 27 30  1  0
 28 29  1  0
 28 25  1  0
 29 27  2  0
 30 31  1  0
 31 32  2  0
 33 36  1  0
 33 32  1  0
 34 33  2  0
 35 34  1  0
 35 30  2  0
 36 37  1  0
 37 42  2  0
 37 38  1  0
 38 39  2  0
 39 40  1  0
 40 44  1  0
 41 40  2  0
 42 41  1  0
 43 42  1  0
 45 46  1  0
 46 49  1  0
 46 48  1  0
 47 45  2  0
 50 51  1  0
 50 25  1  0
 52 50  1  0
 53 54  1  0
 55 66  2  0
 56 54  1  0
 56 61  1  0
 57 65  1  0
 57 67  1  0
 58 64  1  0
 58 60  1  0
 59 65  1  0
 60 59  1  0
 61 60  2  0
 62 63  1  0
 62 56  2  0
 63 58  2  0
 64 57  1  0
 65 55  1  0
 67 69  2  0
 68 67  1  0
 70 68  1  0
 71 80  2  0
 71 76  1  0
 72 68  1  0
 72 76  1  0
 73 72  1  0
 74 75  1  0
 74 73  1  0
 75 71  1  0
 76 77  2  0
 77 78  1  0
 79 78  2  0
 80 79  1  0
 81 55  1  0
 81 86  1  0
 81 82  1  0
 82 85  1  1
 82 83  1  0
 84 82  1  0
 86 89  1  0
 87 91  1  0
 87 86  1  0
 88 87  2  0
 91 90  1  0
 93 91  1  0
 93 94  1  0
 93 92  1  0
M  ISO  4  15 100  23 100  53 101  54 101
M  END
>  <TORSDO>  (76) 
F 19

>  <SCORE>  (76) 
-13.264

>  <name>  (76) 
75

>  <ligand_id>  (76) 
75

>  <original_smiles>  (76) 
[H]c1c([H])c([H])c2c(c1[H])C([H])([H])C([H])([H])C([H])([H])C2([H])N([H])C(=O)C1([H])N(C(=O)C([H])(N([H])C(=O)C([H])(N([H])C([H])([H])[H])C([H])([H])[H])C(C([H])([H])[H])(C([H])([H])[H])C([H])([H])[H])C([H])([H])c2c([H])c(OC([H])([H])C3([H])N(C([H])([H])c4c([H])c(N([H])C(=O)N5C([H])([H])C([H])([H])C([H])([H])C([H])(n6nc(-c7c([H])c([H])c(Oc8c([H])c([H])c(F)c([H])c8F)c([H])c7[H])c(C(=O)N([H])[H])c6N([H])[H])C5([H])[H])c([H])c([H])c4F)C(=O)C([H])([H])C3([H])[H])c([H])c([H])c2C1([H])[H]

>  <smiles>  (76) 
[H]c1c([H])c([H])c2c(c1[H])C([H])([H])C([H])([H])C([H])([H])C2([H])N([H])C(=O)C1([H])N(C(=O)C([H])(N([H])C(=O)C([H])(N([H])C([H])([H])[H])C([H])([H])[H])C(C([H])([H])[H])(C([H])([H])[H])C([H])([H])[H])C([H])([H])c2c([H])c(OC([H])([H])C3([H])N(C([H])([H])c4c([H])c(N([H])C(=O)N5C([H])([H])C([H])([H])C([H])([H])C([H])(n6nc(-c7c([H])c([H])c(Oc8c([H])c([H])c(F)c([H])c8F)c([H])c7[H])c(C(=O)N([H])[H])c6N([H])[H])C5([H])[H])c([H])c([H])c4F)C(=O)C([H])([H])C3([H])[H])c([H])c([H])c2C1([H])[H]

$$$$
76:0:0
     RDKit          3D

 88 96  0  0  1  0  0  0  0  0999 V2000
  -30.1810  -21.1370   19.0410 C   0  0  0  0  0  3  0  0  0  0  0  0
  -29.0500  -21.1740   19.8030 C   0  0  0  0  0  0  0  0  0  0  0  0
  -28.7800  -19.7490   20.0800 C   0  0  0  0  0  0  0  0  0  0  0  0
  -29.7930  -18.9420   19.5300 C   0  0  0  0  0  0  0  0  0  0  0  0
  -27.6120  -19.2290   20.8730 C   0  0  0  0  0  1  0  0  0  0  0  0
  -30.6250  -19.8350   18.8840 O   0  0  0  0  0  0  0  0  0  0  0  0
  -28.2220  -22.4050   20.2900 C   0  0  0  0  0  3  0  0  0  0  0  0
  -28.0370  -23.7940   20.1740 C   0  0  0  0  0  3  0  0  0  0  0  0
  -28.5940  -25.0520   19.3740 C   0  0  0  0  0  2  0  0  0  0  0  0
  -28.4830  -26.4500   19.9720 O   0  0  0  0  0  0  0  0  0  0  0  0
  -24.6450  -31.7610   23.1320 C   0  0  0  0  0  0  0  0  0  0  0  0
  -27.3470  -27.3030   19.9190 C   0  0  0  0  0  0  0  0  0  0  0  0
  -23.4760  -30.4050   21.4330 C   0  0  0  0  0  3  0  0  0  0  0  0
  -24.9610  -28.9270   19.9520 C   0  0  0  0  0  0  0  0  0  0  0  0
  -26.0160  -30.7560   21.2800 C   0  0  0  0  0  2  0  0  0  0  0  0
  -26.1200  -29.3990   20.5770 C   0  0  0  0  0  0  0  0  0  0  0  0
  -27.3120  -28.6000   20.5470 C   0  0  0  0  0  3  0  0  0  0  0  0
  -26.1580  -26.9000   19.2740 C   0  0  0  0  0  3  0  0  0  0  0  0
  -24.9860  -27.6880   19.2890 C   0  0  0  0  0  3  0  0  0  0  0  0
  -23.7100  -29.7850   20.0290 C   0  0  0  0  0  2  0  0  0  0  0  0
  -24.7310  -30.9930   22.0050 N   0  0  0  0  0  0  0  0  0  0  0  0
  -23.5540  -32.0000   23.6700 O   0  0  0  0  0  0  0  0  0  0  0  0
  -22.8220  -29.3460   22.3520 C   0  0  0  0  0  0  0  0  0  0  0  0
  -21.4940  -29.1810   22.2420 N   0  0  0  0  0  0  0  0  0  0  0  0
  -23.5120  -28.6760   23.1280 O   0  0  0  0  0  0  0  0  0  0  0  0
  -20.9950  -29.7720   21.5910 H   0  0  0  0  0  0  0  0  0  0  0  0
  -18.1130  -28.0150   22.8020 C   0  0  0  0  0  0  0  0  0  0  0  0
  -20.6850  -28.2040   22.9760 C   0  0  0  0  0  3  0  0  0  0  0  0
  -20.7300  -26.8190   22.2930 C   0  0  0  0  0  2  0  0  0  0  0  0
  -19.5790  -26.5950   21.3060 C   0  0  0  0  0  2  0  0  0  0  0  0
  -18.2290  -26.7170   22.0190 C   0  0  0  0  0  2  0  0  0  0  0  0
  -19.2650  -28.7200   23.2380 C   0  0  0  0  0  0  0  0  0  0  0  0
  -19.0990  -29.9380   23.9340 C   0  0  0  0  0  3  0  0  0  0  0  0
  -17.8140  -30.4500   24.1940 C   0  0  0  0  0  3  0  0  0  0  0  0
  -16.6770  -29.7390   23.7730 C   0  0  0  0  0  3  0  0  0  0  0  0
  -16.8260  -28.5230   23.0830 C   0  0  0  0  0  3  0  0  0  0  0  0
  -25.9110  -32.3940   23.7880 C   0  0  0  0  0  3  0  0  0  0  0  0
  -26.4080  -31.6090   25.0640 C   0  0  1  0  0  0  0  0  0  0  0  0
  -25.2940  -31.3460   26.1050 C   0  0  0  0  0  1  0  0  0  0  0  0
  -27.0140  -30.2440   24.6670 C   0  0  0  0  0  1  0  0  0  0  0  0
  -27.5350  -32.4050   25.7630 C   0  0  0  0  0  1  0  0  0  0  0  0
  -25.5840  -33.7860   24.1360 N   0  0  0  0  0  0  0  0  0  0  0  0
  -25.9110  -34.8540   23.3970 C   0  0  0  0  0  0  0  0  0  0  0  0
  -26.5870  -34.7720   22.3670 O   0  0  0  0  0  0  0  0  0  0  0  0
  -24.9830  -33.9220   24.9350 H   0  0  0  0  0  0  0  0  0  0  0  0
  -24.1650  -36.6370   23.0670 C   0  0  0  0  0  1  0  0  0  0  0  0
  -25.4100  -36.2320   23.8730 C   0  0  0  0  0  3  0  0  0  0  0  0
  -27.5270  -37.1360   24.7300 C   0  0  0  0  0  1  0  0  0  0  0  0
  -26.4320  -37.2960   23.7760 N   0  0  0  0  0  0  0  0  0  0  0  0
  -26.0160  -38.2120   23.9220 H   0  0  0  0  0  0  0  0  0  0  0  0
  -30.2320  -17.4910   19.4170 C   0  0  0  0  0  3  0  0  0  0  0  0
  -29.8620  -16.1980   19.8090 C   0  0  0  0  0  3  0  0  0  0  0  0
  -30.6620  -14.9300   19.4920 C   0  0  0  0  0  0  0  0  0  0  0  0
  -30.4400  -12.5760   18.6530 C   0  0  0  0  0  2  0  0  0  0  0  0
  -29.3770  -12.5560   17.5310 C   0  0  0  0  0  2  0  0  0  0  0  0
  -27.9680  -12.3630   18.1240 C   0  0  0  0  0  2  0  0  0  0  0  0
  -27.7000  -13.2920   19.3380 C   0  0  0  0  0  3  0  0  0  0  0  0
  -28.8760  -13.3000   20.3360 C   0  0  0  0  0  2  0  0  0  0  0  0
  -30.0830  -13.6750   19.5920 N   0  0  0  0  0  0  0  0  0  0  0  0
  -31.7990  -14.9920   19.0120 O   0  0  0  0  0  0  0  0  0  0  0  0
  -25.4560  -13.8590   20.4360 C   0  0  0  0  0  0  0  0  0  0  0  0
  -24.4320  -13.0770   20.8950 C   0  0  0  0  0  0  0  0  0  0  0  0
  -24.8500  -11.7240   20.7040 C   0  0  0  0  0  0  0  0  0  0  0  0
  -26.4320  -12.9840   19.9900 N   0  0  0  0  0  0  0  0  0  0  0  0
  -26.0840  -11.6890   20.2130 N   0  0  0  0  0  0  0  0  0  0  0  0
  -24.1220  -10.4630   20.9050 C   0  0  0  0  0  0  0  0  0  0  0  0
  -24.5860   -9.4770   21.8030 C   0  0  0  0  0  3  0  0  0  0  0  0
  -23.8570   -8.2840   21.9930 C   0  0  0  0  0  3  0  0  0  0  0  0
  -22.6500   -8.0670   21.2830 C   0  0  0  0  0  0  0  0  0  0  0  0
  -22.2070   -9.0420   20.3720 C   0  0  0  0  0  3  0  0  0  0  0  0
  -22.9360  -10.2280   20.1810 C   0  0  0  0  0  3  0  0  0  0  0  0
  -21.8910   -6.9260   21.3840 O   0  0  0  0  0  0  0  0  0  0  0  0
  -21.8010   -6.2240   22.5580 C   0  0  0  0  0  0  0  0  0  0  0  0
  -21.2770   -6.8030   23.7350 C   0  0  0  0  0  3  0  0  0  0  0  0
  -21.1350   -6.0230   24.9000 C   0  0  0  0  0  3  0  0  0  0  0  0
  -21.5090   -4.6660   24.8910 C   0  0  0  0  0  0  0  0  0  0  0  0
  -22.0270   -4.0860   23.7190 C   0  0  0  0  0  3  0  0  0  0  0  0
  -22.1680   -4.8630   22.5560 C   0  0  0  0  0  0  0  0  0  0  0  0
  -22.6480   -4.2940   21.4230 F   0  0  0  0  0  0  0  0  0  0  0  0
  -21.3670   -3.9150   26.0080 F   0  0  0  0  0  0  0  0  0  0  0  0
  -23.1000  -13.5560   21.3930 C   0  0  0  0  0  0  0  0  0  0  0  0
  -22.4790  -12.8090   22.2990 N   0  0  0  0  0  0  0  0  0  0  0  0
  -22.6240  -14.6260   21.0150 O   0  0  0  0  0  0  0  0  0  0  0  0
  -22.8800  -11.9420   22.6250 H   0  0  0  0  0  0  0  0  0  0  0  0
  -21.5910  -13.1110   22.6730 H   0  0  0  0  0  0  0  0  0  0  0  0
  -25.6300  -15.2360   20.3390 N   0  0  0  0  0  0  0  0  0  0  0  0
  -24.9050  -15.8910   20.6120 H   0  0  0  0  0  0  0  0  0  0  0  0
  -26.4370  -15.6870   19.9260 H   0  0  0  0  0  0  0  0  0  0  0  0
  1  2  2  0
  2  3  1  0
  2  7  1  0
  3  5  1  0
  4  3  2  0
  6  1  1  0
  6  4  1  0
  8  7  2  0
  9 10  1  0
  9  8  1  0
 11 22  2  0
 12 10  1  0
 12 17  1  0
 13 21  1  0
 13 23  1  0
 14 20  1  0
 14 16  1  0
 15 21  1  0
 16 15  1  0
 17 16  2  0
 18 19  1  0
 18 12  2  0
 19 14  2  0
 20 13  1  0
 21 11  1  0
 23 25  2  0
 24 23  1  0
 26 24  1  0
 27 36  2  0
 27 32  1  0
 28 24  1  0
 28 32  1  0
 29 28  1  0
 30 31  1  0
 30 29  1  0
 31 27  1  0
 32 33  2  0
 33 34  1  0
 35 34  2  0
 36 35  1  0
 37 11  1  0
 37 42  1  0
 37 38  1  0
 38 41  1  1
 38 39  1  0
 40 38  1  0
 42 45  1  0
 43 47  1  0
 43 42  1  0
 44 43  2  0
 47 46  1  0
 49 47  1  0
 49 50  1  0
 49 48  1  0
 51  4  1  0
 51 52  2  0
 53 59  1  0
 53 52  1  0
 54 59  1  0
 55 56  1  0
 55 54  1  0
 57 56  1  0
 57 64  1  0
 57 58  1  0
 59 58  1  0
 60 53  2  0
 61 62  2  0
 62 81  1  0
 63 62  1  0
 63 66  1  0
 64 65  1  0
 64 61  1  0
 65 63  2  0
 66 67  1  0
 67 68  2  0
 69 72  1  0
 69 68  1  0
 70 69  2  0
 71 70  1  0
 71 66  2  0
 72 73  1  0
 73 74  1  0
 74 75  2  0
 76 75  1  0
 76 80  1  0
 77 76  2  0
 78 73  2  0
 78 77  1  0
 79 78  1  0
 81 82  1  0
 82 84  1  0
 82 85  1  0
 83 81  2  0
 86 61  1  0
 86 87  1  0
 88 86  1  0
M  ISO  4   9 101  10 101  52 100  53 100
M  END
>  <TORSDO>  (77) 
F 19

>  <SCORE>  (77) 
-12.635

>  <name>  (77) 
76

>  <ligand_id>  (77) 
76

>  <original_smiles>  (77) 
[H]C(C(=O)N1C([H])([H])C([H])([H])C([H])([H])C([H])(n2nc(-c3c([H])c([H])c(Oc4c([H])c([H])c(F)c([H])c4F)c([H])c3[H])c(C(=O)N([H])[H])c2N([H])[H])C1([H])[H])=C([H])c1oc([H])c(C([H])=C([H])C([H])([H])Oc2c([H])c([H])c3c(c2[H])C([H])([H])N(C(=O)C([H])(N([H])C(=O)C([H])(N([H])C([H])([H])[H])C([H])([H])[H])C(C([H])([H])[H])(C([H])([H])[H])C([H])([H])[H])C([H])(C(=O)N([H])C2([H])c4c([H])c([H])c([H])c([H])c4C([H])([H])C([H])([H])C2([H])[H])C3([H])[H])c1C([H])([H])[H]

>  <smiles>  (77) 
[H]C(C(=O)N1C([H])([H])C([H])([H])C([H])([H])C([H])(n2nc(-c3c([H])c([H])c(Oc4c([H])c([H])c(F)c([H])c4F)c([H])c3[H])c(C(=O)N([H])[H])c2N([H])[H])C1([H])[H])=C([H])c1oc([H])c(C([H])=C([H])C([H])([H])Oc2c([H])c([H])c3c(c2[H])C([H])([H])N(C(=O)C([H])(N([H])C(=O)C([H])(N([H])C([H])([H])[H])C([H])([H])[H])C(C([H])([H])[H])(C([H])([H])[H])C([H])([H])[H])C([H])(C(=O)N([H])C2([H])c4c([H])c([H])c([H])c([H])c4C([H])([H])C([H])([H])C2([H])[H])C3([H])[H])c1C([H])([H])[H]

$$$$
77:0:0
     RDKit          3D

 97105  0  0  1  0  0  0  0  0999 V2000
  -28.0950  -20.1560   20.1360 C   0  0  0  0  0  3  0  0  0  0  0  0
  -30.2720  -18.6480   21.1270 C   0  0  0  0  0  0  0  0  0  0  0  0
  -29.3980  -18.0850   20.1590 C   0  0  0  0  0  0  0  0  0  0  0  0
  -29.0130  -20.7670   21.0120 C   0  0  0  0  0  0  0  0  0  0  0  0
  -30.0960  -20.0070   21.5190 C   0  0  0  0  0  0  0  0  0  0  0  0
  -28.3030  -18.8440   19.6850 C   0  0  0  0  0  0  0  0  0  0  0  0
  -27.4590  -18.3350   18.7560 F   0  0  0  0  0  0  0  0  0  0  0  0
  -28.8400  -23.1350   20.4180 C   0  0  0  0  0  0  0  0  0  0  0  0
  -28.8650  -22.1500   21.3390 N   0  0  0  0  0  0  0  0  0  0  0  0
  -29.0960  -22.9150   19.2320 O   0  0  0  0  0  0  0  0  0  0  0  0
  -28.8230  -22.4040   22.3180 H   0  0  0  0  0  0  0  0  0  0  0  0
  -28.5120  -24.5680   20.8740 C   0  0  0  0  0  2  0  0  0  0  0  0
  -28.6760  -25.6050   19.7340 C   0  0  0  0  0  2  0  0  0  0  0  0
  -28.5040  -26.9420   20.2040 O   0  0  0  0  0  0  0  0  0  0  0  0
  -24.5780  -31.9630   23.3010 C   0  0  0  0  0  0  0  0  0  0  0  0
  -27.2710  -27.5620   20.2070 C   0  0  0  0  0  0  0  0  0  0  0  0
  -23.3790  -30.5570   21.6550 C   0  0  0  0  0  3  0  0  0  0  0  0
  -24.8460  -29.0250   20.2350 C   0  0  0  0  0  0  0  0  0  0  0  0
  -25.9040  -30.9340   21.4600 C   0  0  0  0  0  2  0  0  0  0  0  0
  -25.9970  -29.5670   20.8150 C   0  0  0  0  0  0  0  0  0  0  0  0
  -27.2080  -28.8440   20.7940 C   0  0  0  0  0  3  0  0  0  0  0  0
  -26.0930  -27.0160   19.6440 C   0  0  0  0  0  3  0  0  0  0  0  0
  -24.8850  -27.7440   19.6540 C   0  0  0  0  0  3  0  0  0  0  0  0
  -23.5980  -29.8830   20.2740 C   0  0  0  0  0  2  0  0  0  0  0  0
  -24.6370  -31.1660   22.1970 N   0  0  0  0  0  0  0  0  0  0  0  0
  -23.4950  -32.2280   23.8420 O   0  0  0  0  0  0  0  0  0  0  0  0
  -22.7370  -29.5260   22.6120 C   0  0  0  0  0  0  0  0  0  0  0  0
  -21.4170  -29.3210   22.4710 N   0  0  0  0  0  0  0  0  0  0  0  0
  -23.4240  -28.9130   23.4320 O   0  0  0  0  0  0  0  0  0  0  0  0
  -20.9220  -29.8710   21.7830 H   0  0  0  0  0  0  0  0  0  0  0  0
  -18.0550  -28.0870   22.9420 C   0  0  0  0  0  0  0  0  0  0  0  0
  -20.6060  -28.3730   23.2360 C   0  0  0  0  0  3  0  0  0  0  0  0
  -20.7310  -26.9440   22.6600 C   0  0  0  0  0  2  0  0  0  0  0  0
  -19.6420  -26.6080   21.6370 C   0  0  0  0  0  2  0  0  0  0  0  0
  -18.2530  -26.7400   22.2690 C   0  0  0  0  0  2  0  0  0  0  0  0
  -19.1610  -28.8620   23.3810 C   0  0  0  0  0  0  0  0  0  0  0  0
  -18.9230  -30.1250   23.9660 C   0  0  0  0  0  3  0  0  0  0  0  0
  -17.6120  -30.6130   24.1150 C   0  0  0  0  0  3  0  0  0  0  0  0
  -16.5190  -29.8340   23.6960 C   0  0  0  0  0  3  0  0  0  0  0  0
  -16.7420  -28.5730   23.1160 C   0  0  0  0  0  3  0  0  0  0  0  0
  -25.8620  -32.5990   23.9200 C   0  0  0  0  0  3  0  0  0  0  0  0
  -25.5570  -34.0010   24.2250 N   0  0  0  0  0  0  0  0  0  0  0  0
  -25.9010  -35.0410   23.4510 C   0  0  0  0  0  0  0  0  0  0  0  0
  -26.5810  -34.9180   22.4270 O   0  0  0  0  0  0  0  0  0  0  0  0
  -24.9560  -34.1710   25.0160 H   0  0  0  0  0  0  0  0  0  0  0  0
  -24.1880  -36.8350   23.0380 C   0  0  0  0  0  1  0  0  0  0  0  0
  -25.4120  -36.4370   23.8790 C   0  0  0  0  0  3  0  0  0  0  0  0
  -27.5300  -37.3290   24.7420 C   0  0  0  0  0  1  0  0  0  0  0  0
  -26.4510  -37.4830   23.7700 N   0  0  0  0  0  0  0  0  0  0  0  0
  -26.0470  -38.4070   23.8900 H   0  0  0  0  0  0  0  0  0  0  0  0
  -26.3700  -31.8460   25.2110 C   0  0  1  0  0  0  0  0  0  0  0  0
  -25.2650  -31.6210   26.2690 C   0  0  0  0  0  1  0  0  0  0  0  0
  -26.9630  -30.4650   24.8440 C   0  0  0  0  0  1  0  0  0  0  0  0
  -27.5130  -32.6490   25.8740 C   0  0  0  0  0  1  0  0  0  0  0  0
  -31.4590  -17.4250   22.9520 C   0  0  0  0  0  2  0  0  0  0  0  0
  -31.3730  -17.8200   21.6680 C   0  0  0  0  0  3  0  0  0  0  0  0
  -32.1500  -21.0920   21.5600 C   0  0  0  0  0  1  0  0  0  0  0  0
  -31.0250  -20.6410   22.3060 O   0  0  0  0  0  0  0  0  0  0  0  0
  -29.6680  -16.7190   19.5170 C   0  0  0  0  0  2  0  0  0  0  0  0
  -30.5160  -14.5170   20.0740 C   0  0  0  0  0  0  0  0  0  0  0  0
  -30.1590  -12.3920   18.9130 C   0  0  0  0  0  2  0  0  0  0  0  0
  -29.1520  -12.6800   17.7790 C   0  0  0  0  0  2  0  0  0  0  0  0
  -27.6950  -12.5510   18.2730 C   0  0  0  0  0  2  0  0  0  0  0  0
  -27.4450  -13.3000   19.6080 C   0  0  0  0  0  3  0  0  0  0  0  0
  -28.5710  -13.0210   20.6360 C   0  0  0  0  0  2  0  0  0  0  0  0
  -29.8640  -13.3300   20.0030 N   0  0  0  0  0  0  0  0  0  0  0  0
  -31.6330  -14.7080   19.5890 O   0  0  0  0  0  0  0  0  0  0  0  0
  -29.7210  -15.5450   20.3940 N   0  0  0  0  0  0  0  0  0  0  0  0
  -28.8590  -15.2890   20.8470 H   0  0  0  0  0  0  0  0  0  0  0  0
  -25.0890  -13.8640   20.4670 C   0  0  0  0  0  0  0  0  0  0  0  0
  -24.0510  -13.0710   20.8790 C   0  0  0  0  0  0  0  0  0  0  0  0
  -24.5220  -11.7240   20.7850 C   0  0  0  0  0  0  0  0  0  0  0  0
  -26.1240  -12.9980   20.1510 N   0  0  0  0  0  0  0  0  0  0  0  0
  -25.7890  -11.7070   20.3940 N   0  0  0  0  0  0  0  0  0  0  0  0
  -23.8170  -10.4510   20.9840 C   0  0  0  0  0  0  0  0  0  0  0  0
  -24.2930   -9.4770   21.8900 C   0  0  0  0  0  3  0  0  0  0  0  0
  -23.5920   -8.2670   22.0790 C   0  0  0  0  0  3  0  0  0  0  0  0
  -22.3980   -8.0200   21.3630 C   0  0  0  0  0  0  0  0  0  0  0  0
  -21.9390   -8.9810   20.4430 C   0  0  0  0  0  3  0  0  0  0  0  0
  -22.6400  -10.1840   20.2520 C   0  0  0  0  0  3  0  0  0  0  0  0
  -21.6630   -6.8630   21.4640 O   0  0  0  0  0  0  0  0  0  0  0  0
  -21.6510   -6.1140   22.6110 C   0  0  0  0  0  0  0  0  0  0  0  0
  -21.2130   -6.6450   23.8440 C   0  0  0  0  0  3  0  0  0  0  0  0
  -21.1560   -5.8220   24.9850 C   0  0  0  0  0  3  0  0  0  0  0  0
  -21.5210   -4.4650   24.8920 C   0  0  0  0  0  0  0  0  0  0  0  0
  -21.9480   -3.9300   23.6660 C   0  0  0  0  0  3  0  0  0  0  0  0
  -22.0080   -4.7520   22.5270 C   0  0  0  0  0  0  0  0  0  0  0  0
  -22.4000   -4.2290   21.3420 F   0  0  0  0  0  0  0  0  0  0  0  0
  -21.4580   -3.6700   25.9850 F   0  0  0  0  0  0  0  0  0  0  0  0
  -22.6710  -13.5250   21.2520 C   0  0  0  0  0  0  0  0  0  0  0  0
  -22.0050  -12.7900   22.1390 N   0  0  0  0  0  0  0  0  0  0  0  0
  -22.1910  -14.5590   20.7910 O   0  0  0  0  0  0  0  0  0  0  0  0
  -22.4040  -11.9520   22.5320 H   0  0  0  0  0  0  0  0  0  0  0  0
  -21.0790  -13.0700   22.4280 H   0  0  0  0  0  0  0  0  0  0  0  0
  -25.2300  -15.2390   20.3180 N   0  0  0  0  0  0  0  0  0  0  0  0
  -24.4670  -15.8850   20.4760 H   0  0  0  0  0  0  0  0  0  0  0  0
  -26.0520  -15.6920   19.9340 H   0  0  0  0  0  0  0  0  0  0  0  0
  1  4  1  0
  2  5  1  0
  2 56  1  0
  3  2  2  0
  4  9  1  0
  4  5  2  0
  5 58  1  0
  6  1  2  0
  6  3  1  0
  7  6  1  0
  8 12  1  0
  8  9  1  0
  9 11  1  0
 10  8  2  0
 13 14  1  0
 13 12  1  0
 14 16  1  0
 15 26  2  0
 16 21  1  0
 17 25  1  0
 17 27  1  0
 18 24  1  0
 18 20  1  0
 19 25  1  0
 20 19  1  0
 21 20  2  0
 22 23  1  0
 22 16  2  0
 23 18  2  0
 24 17  1  0
 25 15  1  0
 27 29  2  0
 28 27  1  0
 30 28  1  0
 31 40  2  0
 31 36  1  0
 32 28  1  0
 32 36  1  0
 33 32  1  0
 34 35  1  0
 34 33  1  0
 35 31  1  0
 36 37  2  0
 37 38  1  0
 39 38  2  0
 40 39  1  0
 41 15  1  0
 41 42  1  0
 41 51  1  0
 42 45  1  0
 43 47  1  0
 43 42  1  0
 44 43  2  0
 47 46  1  0
 49 47  1  0
 49 50  1  0
 49 48  1  0
 51 54  1  1
 51 52  1  0
 53 51  1  0
 56 55  2  0
 57 58  1  0
 59  3  1  0
 59 68  1  0
 60 68  1  0
 61 66  1  0
 62 63  1  0
 62 61  1  0
 64 63  1  0
 64 73  1  0
 64 65  1  0
 66 60  1  0
 66 65  1  0
 67 60  2  0
 68 69  1  0
 70 71  2  0
 71 90  1  0
 72 71  1  0
 72 75  1  0
 73 74  1  0
 73 70  1  0
 74 72  2  0
 75 76  1  0
 76 77  2  0
 78 81  1  0
 78 77  1  0
 79 78  2  0
 80 79  1  0
 80 75  2  0
 81 82  1  0
 82 83  1  0
 83 84  2  0
 85 84  1  0
 85 89  1  0
 86 85  2  0
 87 82  2  0
 87 86  1  0
 88 87  1  0
 90 91  1  0
 91 94  1  0
 91 93  1  0
 92 90  2  0
 95 70  1  0
 95 96  1  0
 97 95  1  0
M  ISO  4  13 101  14 101  60 100  68 100
M  END
>  <TORSDO>  (78) 
F 22

>  <SCORE>  (78) 
-12.820

>  <name>  (78) 
77

>  <ligand_id>  (78) 
77

>  <original_smiles>  (78) 
[H]C([H])=C([H])c1c(OC([H])([H])[H])c(N([H])C(=O)C([H])([H])C([H])([H])Oc2c([H])c([H])c3c(c2[H])C([H])([H])N(C(=O)C([H])(N([H])C(=O)C([H])(N([H])C([H])([H])[H])C([H])([H])[H])C(C([H])([H])[H])(C([H])([H])[H])C([H])([H])[H])C([H])(C(=O)N([H])C2([H])c4c([H])c([H])c([H])c([H])c4C([H])([H])C([H])([H])C2([H])[H])C3([H])[H])c([H])c(F)c1C([H])([H])N([H])C(=O)N1C([H])([H])C([H])([H])C([H])([H])C([H])(n2nc(-c3c([H])c([H])c(Oc4c([H])c([H])c(F)c([H])c4F)c([H])c3[H])c(C(=O)N([H])[H])c2N([H])[H])C1([H])[H]

>  <smiles>  (78) 
[H]C([H])=C([H])c1c(OC([H])([H])[H])c(N([H])C(=O)C([H])([H])C([H])([H])Oc2c([H])c([H])c3c(c2[H])C([H])([H])N(C(=O)C([H])(N([H])C(=O)C([H])(N([H])C([H])([H])[H])C([H])([H])[H])C(C([H])([H])[H])(C([H])([H])[H])C([H])([H])[H])C([H])(C(=O)N([H])C2([H])c4c([H])c([H])c([H])c([H])c4C([H])([H])C([H])([H])C2([H])[H])C3([H])[H])c([H])c(F)c1C([H])([H])N([H])C(=O)N1C([H])([H])C([H])([H])C([H])([H])C([H])(n2nc(-c3c([H])c([H])c(Oc4c([H])c([H])c(F)c([H])c4F)c([H])c3[H])c(C(=O)N([H])[H])c2N([H])[H])C1([H])[H]

$$$$
78:0:0
     RDKit          3D

104114  0  0  1  0  0  0  0  0999 V2000
  -31.0300  -19.9940   24.0010 C   0  0  0  0  0  2  0  0  0  0  0  0
  -33.1670  -20.3620   22.8770 C   0  0  0  0  0  2  0  0  0  0  0  0
  -32.1820  -20.2160   20.6310 C   0  0  0  0  0  3  0  0  0  0  0  0
  -30.7080  -18.7680   23.3430 C   0  0  0  0  0  0  0  0  0  0  0  0
  -30.9670  -18.3130   21.9790 C   0  0  0  0  0  0  0  0  0  0  0  0
  -31.9680  -20.9200   23.5430 C   0  0  0  0  0  3  0  0  0  0  0  0
  -32.6330  -21.0300   21.6670 C   0  0  0  0  0  3  0  0  0  0  0  0
  -31.5060  -18.9820   20.8060 C   0  0  0  0  0  0  0  0  0  0  0  0
  -31.7130  -21.7480   22.4390 N   0  0  0  0  0  0  0  0  0  0  0  0
  -31.3960  -18.3340   19.6150 F   0  0  0  0  0  0  0  0  0  0  0  0
  -28.8040  -17.3350   26.3770 C   0  0  0  0  0  0  0  0  0  0  0  0
  -29.4180  -18.2280   25.4230 C   0  0  0  0  0  0  0  0  0  0  0  0
  -28.7230  -15.9960   26.2750 C   0  0  0  0  0  1  0  0  0  0  0  0
  -30.0460  -17.8520   24.2940 C   0  0  0  0  0  2  0  0  0  0  0  0
  -28.2170  -18.1300   27.5140 C   0  0  0  0  0  2  0  0  0  0  0  0
  -29.2180  -19.6600   25.8560 C   0  0  0  0  0  2  0  0  0  0  0  0
  -28.1350  -19.5640   26.9490 C   0  0  0  0  0  2  0  0  0  0  0  0
  -30.6600  -16.8860   21.6310 C   0  0  0  0  0  2  0  0  0  0  0  0
  -30.8880  -15.8640   22.3620 N   0  0  0  0  0  2  0  0  0  0  0  0
  -31.4100  -14.8080   21.6430 C   0  0  0  0  0  0  0  0  0  0  0  0
  -31.1340  -12.5210   20.7800 C   0  0  0  0  0  2  0  0  0  0  0  0
  -30.4630  -12.5020   19.3970 C   0  0  0  0  0  2  0  0  0  0  0  0
  -28.9320  -12.4690   19.5440 C   0  0  0  0  0  2  0  0  0  0  0  0
  -28.4050  -13.5590   20.5140 C   0  0  0  0  0  3  0  0  0  0  0  0
  -29.2070  -13.5710   21.8400 C   0  0  0  0  0  2  0  0  0  0  0  0
  -30.6370  -13.6980   21.5100 N   0  0  0  0  0  0  0  0  0  0  0  0
  -32.5310  -14.8740   21.1320 O   0  0  0  0  0  0  0  0  0  0  0  0
  -25.9640  -14.3620   20.7100 C   0  0  0  0  0  0  0  0  0  0  0  0
  -24.7910  -13.6840   20.9130 C   0  0  0  0  0  0  0  0  0  0  0  0
  -25.1510  -12.3070   21.0520 C   0  0  0  0  0  0  0  0  0  0  0  0
  -26.9680  -13.4060   20.7430 N   0  0  0  0  0  0  0  0  0  0  0  0
  -26.4700  -12.1680   21.0000 N   0  0  0  0  0  0  0  0  0  0  0  0
  -24.3130  -11.1070   21.1750 C   0  0  0  0  0  0  0  0  0  0  0  0
  -24.5840  -10.1130   22.1400 C   0  0  0  0  0  3  0  0  0  0  0  0
  -23.7550   -8.9780   22.2550 C   0  0  0  0  0  3  0  0  0  0  0  0
  -22.6350   -8.8290   21.4010 C   0  0  0  0  0  0  0  0  0  0  0  0
  -22.3810   -9.8090   20.4260 C   0  0  0  0  0  3  0  0  0  0  0  0
  -23.2120  -10.9350   20.3110 C   0  0  0  0  0  3  0  0  0  0  0  0
  -21.7890   -7.7460   21.4210 O   0  0  0  0  0  0  0  0  0  0  0  0
  -21.7130   -6.9120   22.5080 C   0  0  0  0  0  0  0  0  0  0  0  0
  -21.3430   -7.3850   23.7850 C   0  0  0  0  0  3  0  0  0  0  0  0
  -21.2100   -6.4830   24.8600 C   0  0  0  0  0  3  0  0  0  0  0  0
  -21.4370   -5.1080   24.6550 C   0  0  0  0  0  0  0  0  0  0  0  0
  -21.8000   -4.6340   23.3820 C   0  0  0  0  0  3  0  0  0  0  0  0
  -21.9350   -5.5340   22.3110 C   0  0  0  0  0  0  0  0  0  0  0  0
  -22.2650   -5.0710   21.0810 F   0  0  0  0  0  0  0  0  0  0  0  0
  -21.3000   -4.2390   25.6840 F   0  0  0  0  0  0  0  0  0  0  0  0
  -23.4060  -14.2610   20.8860 C   0  0  0  0  0  0  0  0  0  0  0  0
  -22.4910  -13.6950   21.6620 N   0  0  0  0  0  0  0  0  0  0  0  0
  -23.1410  -15.2540   20.2090 O   0  0  0  0  0  0  0  0  0  0  0  0
  -22.7140  -12.8880   22.2270 H   0  0  0  0  0  0  0  0  0  0  0  0
  -21.5540  -14.0710   21.6910 H   0  0  0  0  0  0  0  0  0  0  0  0
  -26.2600  -15.7020   20.4780 N   0  0  0  0  0  0  0  0  0  0  0  0
  -25.5410  -16.4130   20.4060 H   0  0  0  0  0  0  0  0  0  0  0  0
  -27.1920  -16.0550   20.3070 H   0  0  0  0  0  0  0  0  0  0  0  0
  -30.3890  -22.1730   21.9950 C   0  0  0  0  0  2  0  0  0  0  0  0
  -30.4730  -23.5120   21.2090 C   0  0  0  0  0  2  0  0  0  0  0  0
  -29.0300  -25.4580   20.3820 C   0  0  0  0  0  3  0  0  0  0  0  0
  -29.2270  -24.4020   21.2130 C   0  0  0  0  0  0  0  0  0  0  0  0
  -27.8160  -26.3100   20.4200 C   0  0  0  0  0  0  0  0  0  0  0  0
  -26.8600  -26.0630   21.1680 O   0  0  0  0  0  0  0  0  0  0  0  0
  -27.8450  -27.3720   19.5420 O   0  0  0  0  0  0  0  0  0  0  0  0
  -24.3610  -32.3240   23.2200 C   0  0  0  0  0  0  0  0  0  0  0  0
  -26.7500  -28.2080   19.5770 C   0  0  0  0  0  0  0  0  0  0  0  0
  -23.0430  -31.1340   21.4920 C   0  0  0  0  0  3  0  0  0  0  0  0
  -24.3970  -29.7440   19.8300 C   0  0  0  0  0  0  0  0  0  0  0  0
  -25.5580  -31.4830   21.2010 C   0  0  0  0  0  2  0  0  0  0  0  0
  -25.5890  -30.1870   20.4190 C   0  0  0  0  0  0  0  0  0  0  0  0
  -26.7740  -29.4290   20.2890 C   0  0  0  0  0  3  0  0  0  0  0  0
  -25.5510  -27.7920   18.9570 C   0  0  0  0  0  3  0  0  0  0  0  0
  -24.3720  -28.5500   19.0890 C   0  0  0  0  0  3  0  0  0  0  0  0
  -23.1730  -30.6080   20.0340 C   0  0  0  0  0  2  0  0  0  0  0  0
  -24.3410  -31.6560   22.0310 N   0  0  0  0  0  0  0  0  0  0  0  0
  -23.3150  -32.5520   23.8430 O   0  0  0  0  0  0  0  0  0  0  0  0
  -22.4190  -30.0250   22.3710 C   0  0  0  0  0  0  0  0  0  0  0  0
  -21.0910  -29.8590   22.2730 N   0  0  0  0  0  0  0  0  0  0  0  0
  -23.1270  -29.3210   23.0960 O   0  0  0  0  0  0  0  0  0  0  0  0
  -20.5810  -30.4880   21.6700 H   0  0  0  0  0  0  0  0  0  0  0  0
  -17.7250  -28.6520   22.7860 C   0  0  0  0  0  0  0  0  0  0  0  0
  -20.2950  -28.8500   22.9720 C   0  0  0  0  0  3  0  0  0  0  0  0
  -20.3500  -27.4880   22.2430 C   0  0  0  0  0  2  0  0  0  0  0  0
  -19.2020  -27.2900   21.2480 C   0  0  0  0  0  2  0  0  0  0  0  0
  -17.8520  -27.3800   21.9640 C   0  0  0  0  0  2  0  0  0  0  0  0
  -18.8730  -29.3510   23.2470 C   0  0  0  0  0  0  0  0  0  0  0  0
  -18.6990  -30.5460   23.9760 C   0  0  0  0  0  3  0  0  0  0  0  0
  -17.4110  -31.0390   24.2540 C   0  0  0  0  0  3  0  0  0  0  0  0
  -16.2780  -30.3350   23.8090 C   0  0  0  0  0  3  0  0  0  0  0  0
  -16.4370  -29.1440   23.0790 C   0  0  0  0  0  3  0  0  0  0  0  0
  -25.6910  -32.8600   23.8370 C   0  0  0  0  0  3  0  0  0  0  0  0
  -25.4510  -34.2420   24.2740 N   0  0  0  0  0  0  0  0  0  0  0  0
  -25.8430  -35.3320   23.6000 C   0  0  0  0  0  0  0  0  0  0  0  0
  -26.5190  -35.2760   22.5680 O   0  0  0  0  0  0  0  0  0  0  0  0
  -24.8620  -34.3630   25.0850 H   0  0  0  0  0  0  0  0  0  0  0  0
  -24.2190  -37.2390   23.3620 C   0  0  0  0  0  1  0  0  0  0  0  0
  -25.4190  -36.7040   24.1610 C   0  0  0  0  0  3  0  0  0  0  0  0
  -27.5770  -37.4070   25.0980 C   0  0  0  0  0  1  0  0  0  0  0  0
  -26.5040  -37.7070   24.1540 N   0  0  0  0  0  0  0  0  0  0  0  0
  -26.1400  -38.6300   24.3710 H   0  0  0  0  0  0  0  0  0  0  0  0
  -26.2250  -31.9760   25.0310 C   0  0  1  0  0  0  0  0  0  0  0  0
  -25.1720  -31.7020   26.1270 C   0  0  0  0  0  1  0  0  0  0  0  0
  -26.7250  -30.6080   24.5070 C   0  0  0  0  0  1  0  0  0  0  0  0
  -27.4310  -32.6710   25.7030 C   0  0  0  0  0  1  0  0  0  0  0  0
  -28.3570  -24.0090   22.1600 O   0  0  0  0  0  0  0  0  0  0  0  0
  -27.6180  -24.6100   22.1370 H   0  0  0  0  0  0  0  0  0  0  0  0
  3  8  2  0
  4  1  1  0
  4 14  1  0
  5  4  2  0
  6  2  1  0
  6  1  1  0
  7  3  1  0
  7  9  1  0
  7  2  1  0
  8  5  1  0
  9  6  1  0
 10  8  1  0
 11 15  1  0
 12 16  1  0
 12 11  2  0
 13 11  1  0
 14 12  1  0
 16 17  1  0
 17 15  1  0
 18  5  1  0
 18 19  1  0
 20 19  1  0
 21 26  1  0
 22 23  1  0
 22 21  1  0
 24 23  1  0
 24 31  1  0
 24 25  1  0
 26 20  1  0
 26 25  1  0
 27 20  2  0
 28 31  1  0
 28 29  2  0
 29 30  1  0
 30 33  1  0
 31 32  1  0
 32 30  2  0
 33 34  1  0
 34 35  2  0
 36 39  1  0
 36 35  1  0
 37 36  2  0
 38 37  1  0
 38 33  2  0
 39 40  1  0
 40 41  1  0
 41 42  2  0
 43 42  1  0
 43 47  1  0
 44 43  2  0
 45 40  2  0
 45 44  1  0
 46 45  1  0
 48 29  1  0
 48 49  1  0
 49 52  1  0
 49 51  1  0
 50 48  2  0
 53 28  1  0
 54 53  1  0
 55 53  1  0
 56  9  1  0
 57 59  1  0
 57 56  1  0
 58 60  1  0
 58 59  2  0
 59103  1  0
 60 61  2  0
 62 64  1  0
 62 60  1  0
 63 74  2  0
 64 69  1  0
 65 73  1  0
 65 75  1  0
 66 72  1  0
 66 68  1  0
 67 73  1  0
 68 67  1  0
 69 68  2  0
 70 71  1  0
 70 64  2  0
 71 66  2  0
 72 65  1  0
 73 63  1  0
 75 77  2  0
 76 75  1  0
 78 76  1  0
 79 88  2  0
 79 84  1  0
 80 76  1  0
 80 84  1  0
 81 80  1  0
 82 83  1  0
 82 81  1  0
 83 79  1  0
 84 85  2  0
 85 86  1  0
 87 86  2  0
 88 87  1  0
 89 63  1  0
 89 90  1  0
 89 99  1  0
 90 93  1  0
 91 95  1  0
 91 90  1  0
 92 91  2  0
 95 94  1  0
 97 95  1  0
 97 98  1  0
 97 96  1  0
 99102  1  1
 99100  1  0
101 99  1  0
104103  1  0
M  ISO  4  19 100  20 100  60 101  62 101
M  END
>  <TORSDO>  (79) 
F 23

>  <SCORE>  (79) 
12.944

>  <name>  (79) 
78

>  <ligand_id>  (79) 
78

>  <original_smiles>  (79) 
[H]OC(=C([H])C(=O)Oc1c([H])c([H])c2c(c1[H])C([H])([H])N(C(=O)C([H])(N([H])C(=O)C([H])(N([H])C([H])([H])[H])C([H])([H])[H])C(C([H])([H])[H])(C([H])([H])[H])C([H])([H])[H])C([H])(C(=O)N([H])C1([H])c3c([H])c([H])c([H])c([H])c3C([H])([H])C([H])([H])C1([H])[H])C2([H])[H])C([H])([H])C([H])([H])N1C2=C([H])C(C([H])=C3C(=C([H])[H])C([H])([H])C([H])([H])C3([H])[H])=C(C([H])=NC(=O)N3C([H])([H])C([H])([H])C([H])([H])C([H])(n4nc(-c5c([H])c([H])c(Oc6c([H])c([H])c(F)c([H])c6F)c([H])c5[H])c(C(=O)N([H])[H])c4N([H])[H])C3([H])[H])C(F)=C([H])C1=C2[H]

>  <smiles>  (79) 
[H]OC(=C([H])C(=O)Oc1c([H])c([H])c2c(c1[H])C([H])([H])N(C(=O)C([H])(N([H])C(=O)C([H])(N([H])C([H])([H])[H])C([H])([H])[H])C(C([H])([H])[H])(C([H])([H])[H])C([H])([H])[H])C([H])(C(=O)N([H])C1([H])c3c([H])c([H])c([H])c([H])c3C([H])([H])C([H])([H])C1([H])[H])C2([H])[H])C([H])([H])C([H])([H])N1C2=C([H])C(C([H])=C3C(=C([H])[H])C([H])([H])C([H])([H])C3([H])[H])=C(C([H])=NC(=O)N3C([H])([H])C([H])([H])C([H])([H])C([H])(n4nc(-c5c([H])c([H])c(Oc6c([H])c([H])c(F)c([H])c6F)c([H])c5[H])c(C(=O)N([H])[H])c4N([H])[H])C3([H])[H])C(F)=C([H])C1=C2[H]

$$$$
79:0:0
     RDKit          3D

 89 97  0  0  1  0  0  0  0  0999 V2000
  -29.1430  -20.3920   21.0490 C   0  0  0  0  0  3  0  0  0  0  0  0
  -29.5910  -21.6450   20.7830 C   0  0  0  0  0  3  0  0  0  0  0  0
  -29.2340  -17.8430   21.1230 C   0  0  0  0  0  3  0  0  0  0  0  0
  -29.7900  -19.0950   20.7080 C   0  0  0  0  0  0  0  0  0  0  0  0
  -30.1160  -16.9060   20.6490 C   0  0  0  0  0  0  0  0  0  0  0  0
  -30.9250  -18.9040   20.0400 N   0  0  0  0  0  0  0  0  0  0  0  0
  -31.1400  -17.5150   19.9920 O   0  0  0  0  0  0  0  0  0  0  0  0
  -30.6770  -14.5660   20.1970 C   0  0  0  0  0  0  0  0  0  0  0  0
  -30.3520  -12.4200   19.0130 C   0  0  0  0  0  2  0  0  0  0  0  0
  -29.3580  -12.6540   17.8550 C   0  0  0  0  0  2  0  0  0  0  0  0
  -27.9020  -12.5060   18.3420 C   0  0  0  0  0  2  0  0  0  0  0  0
  -27.6220  -13.3050   19.6430 C   0  0  0  0  0  3  0  0  0  0  0  0
  -28.7220  -13.0470   20.6970 C   0  0  0  0  0  2  0  0  0  0  0  0
  -30.0220  -13.3740   20.0850 N   0  0  0  0  0  0  0  0  0  0  0  0
  -31.7900  -14.7520   19.6920 O   0  0  0  0  0  0  0  0  0  0  0  0
  -29.9660  -15.5550   20.7830 N   0  0  0  0  0  0  0  0  0  0  0  0
  -29.1160  -15.2550   21.2310 H   0  0  0  0  0  0  0  0  0  0  0  0
  -25.2540  -13.9020   20.4580 C   0  0  0  0  0  0  0  0  0  0  0  0
  -24.2000  -13.1250   20.8560 C   0  0  0  0  0  0  0  0  0  0  0  0
  -24.6570  -11.7740   20.7840 C   0  0  0  0  0  0  0  0  0  0  0  0
  -26.2870  -13.0240   20.1700 N   0  0  0  0  0  0  0  0  0  0  0  0
  -25.9340  -11.7380   20.4240 N   0  0  0  0  0  0  0  0  0  0  0  0
  -23.9380  -10.5100   20.9820 C   0  0  0  0  0  0  0  0  0  0  0  0
  -24.3850   -9.5430   21.9090 C   0  0  0  0  0  3  0  0  0  0  0  0
  -23.6650   -8.3420   22.0960 C   0  0  0  0  0  3  0  0  0  0  0  0
  -22.4850   -8.1010   21.3530 C   0  0  0  0  0  0  0  0  0  0  0  0
  -22.0560   -9.0580   20.4160 C   0  0  0  0  0  3  0  0  0  0  0  0
  -22.7760  -10.2480   20.2290 C   0  0  0  0  0  3  0  0  0  0  0  0
  -21.7360   -6.9520   21.4490 O   0  0  0  0  0  0  0  0  0  0  0  0
  -21.6810   -6.2240   22.6100 C   0  0  0  0  0  0  0  0  0  0  0  0
  -21.2100   -6.7830   23.8180 C   0  0  0  0  0  3  0  0  0  0  0  0
  -21.1030   -5.9790   24.9700 C   0  0  0  0  0  3  0  0  0  0  0  0
  -21.4570   -4.6170   24.9160 C   0  0  0  0  0  0  0  0  0  0  0  0
  -21.9210   -4.0580   23.7130 C   0  0  0  0  0  3  0  0  0  0  0  0
  -22.0290   -4.8590   22.5620 C   0  0  0  0  0  0  0  0  0  0  0  0
  -22.4580   -4.3100   21.3990 F   0  0  0  0  0  0  0  0  0  0  0  0
  -21.3460   -3.8430   26.0210 F   0  0  0  0  0  0  0  0  0  0  0  0
  -22.8170  -13.6000   21.1940 C   0  0  0  0  0  0  0  0  0  0  0  0
  -22.1200  -12.8860   22.0710 N   0  0  0  0  0  0  0  0  0  0  0  0
  -22.3620  -14.6380   20.7150 O   0  0  0  0  0  0  0  0  0  0  0  0
  -22.5010  -12.0440   22.4790 H   0  0  0  0  0  0  0  0  0  0  0  0
  -21.1940  -13.1870   22.3400 H   0  0  0  0  0  0  0  0  0  0  0  0
  -25.4140  -15.2760   20.2950 N   0  0  0  0  0  0  0  0  0  0  0  0
  -24.6480  -15.9250   20.4370 H   0  0  0  0  0  0  0  0  0  0  0  0
  -26.2410  -15.7180   19.9130 H   0  0  0  0  0  0  0  0  0  0  0  0
  -28.8890  -22.9320   21.2490 C   0  0  0  0  0  2  0  0  0  0  0  0
  -29.0340  -24.2040   20.3560 C   0  0  0  0  0  2  0  0  0  0  0  0
  -28.3190  -25.4460   20.9740 C   0  0  0  0  0  2  0  0  0  0  0  0
  -28.4600  -26.6910   20.2480 O   0  0  0  0  0  0  0  0  0  0  0  0
  -24.5860  -31.9090   23.2260 C   0  0  0  0  0  0  0  0  0  0  0  0
  -27.3140  -27.4620   20.2140 C   0  0  0  0  0  0  0  0  0  0  0  0
  -23.4190  -30.4900   21.5710 C   0  0  0  0  0  3  0  0  0  0  0  0
  -24.9100  -28.9610   20.1720 C   0  0  0  0  0  0  0  0  0  0  0  0
  -25.9460  -30.8690   21.4110 C   0  0  0  0  0  2  0  0  0  0  0  0
  -26.0560  -29.4950   20.7760 C   0  0  0  0  0  0  0  0  0  0  0  0
  -27.2650  -28.7550   20.7900 C   0  0  0  0  0  3  0  0  0  0  0  0
  -26.1550  -26.9510   19.5950 C   0  0  0  0  0  3  0  0  0  0  0  0
  -24.9570  -27.6900   19.5750 C   0  0  0  0  0  3  0  0  0  0  0  0
  -23.6570  -29.8090   20.1970 C   0  0  0  0  0  2  0  0  0  0  0  0
  -24.6670  -31.1050   22.1280 N   0  0  0  0  0  0  0  0  0  0  0  0
  -23.4930  -32.1730   23.7490 O   0  0  0  0  0  0  0  0  0  0  0  0
  -22.7620  -29.4660   22.5260 C   0  0  0  0  0  0  0  0  0  0  0  0
  -21.4360  -29.2930   22.3990 N   0  0  0  0  0  0  0  0  0  0  0  0
  -23.4420  -28.8310   23.3370 O   0  0  0  0  0  0  0  0  0  0  0  0
  -20.9480  -29.8560   21.7170 H   0  0  0  0  0  0  0  0  0  0  0  0
  -18.0500  -28.1380   22.9160 C   0  0  0  0  0  0  0  0  0  0  0  0
  -20.6150  -28.3540   23.1630 C   0  0  0  0  0  3  0  0  0  0  0  0
  -20.6890  -26.9310   22.5630 C   0  0  0  0  0  2  0  0  0  0  0  0
  -19.5720  -26.6420   21.5550 C   0  0  0  0  0  2  0  0  0  0  0  0
  -18.1990  -26.7970   22.2170 C   0  0  0  0  0  2  0  0  0  0  0  0
  -19.1840  -28.8760   23.3460 C   0  0  0  0  0  0  0  0  0  0  0  0
  -18.9920  -30.1330   23.9590 C   0  0  0  0  0  3  0  0  0  0  0  0
  -17.6960  -30.6520   24.1460 C   0  0  0  0  0  3  0  0  0  0  0  0
  -16.5770  -29.9100   23.7330 C   0  0  0  0  0  3  0  0  0  0  0  0
  -16.7540  -28.6550   23.1230 C   0  0  0  0  0  3  0  0  0  0  0  0
  -25.8550  -32.5550   23.8630 C   0  0  0  0  0  3  0  0  0  0  0  0
  -26.3660  -31.7900   25.1440 C   0  0  1  0  0  0  0  0  0  0  0  0
  -25.2620  -31.5370   26.1970 C   0  0  0  0  0  1  0  0  0  0  0  0
  -26.9720  -30.4200   24.7560 C   0  0  0  0  0  1  0  0  0  0  0  0
  -27.4970  -32.5970   25.8220 C   0  0  0  0  0  1  0  0  0  0  0  0
  -25.5280  -33.9500   24.1860 N   0  0  0  0  0  0  0  0  0  0  0  0
  -25.8560  -35.0040   23.4270 C   0  0  0  0  0  0  0  0  0  0  0  0
  -26.5360  -34.9060   22.4020 O   0  0  0  0  0  0  0  0  0  0  0  0
  -24.9240  -34.1000   24.9810 H   0  0  0  0  0  0  0  0  0  0  0  0
  -24.1150  -36.7780   23.0430 C   0  0  0  0  0  1  0  0  0  0  0  0
  -25.3470  -36.3880   23.8750 C   0  0  0  0  0  3  0  0  0  0  0  0
  -27.4570  -37.2980   24.7400 C   0  0  0  0  0  1  0  0  0  0  0  0
  -26.3700  -37.4510   23.7760 N   0  0  0  0  0  0  0  0  0  0  0  0
  -25.9520  -38.3670   23.9120 H   0  0  0  0  0  0  0  0  0  0  0  0
  2  1  2  0
  2 46  1  0
  4  1  1  0
  4  3  1  0
  5 16  1  0
  5  3  2  0
  6  4  2  0
  7  6  1  0
  7  5  1  0
  8 16  1  0
  9 14  1  0
 10 11  1  0
 10  9  1  0
 12 11  1  0
 12 21  1  0
 12 13  1  0
 14  8  1  0
 14 13  1  0
 15  8  2  0
 16 17  1  0
 18 19  2  0
 19 38  1  0
 20 19  1  0
 20 23  1  0
 21 22  1  0
 21 18  1  0
 22 20  2  0
 23 24  1  0
 24 25  2  0
 26 29  1  0
 26 25  1  0
 27 26  2  0
 28 27  1  0
 28 23  2  0
 29 30  1  0
 30 31  1  0
 31 32  2  0
 33 32  1  0
 33 37  1  0
 34 33  2  0
 35 30  2  0
 35 34  1  0
 36 35  1  0
 38 39  1  0
 39 42  1  0
 39 41  1  0
 40 38  2  0
 43 44  1  0
 43 18  1  0
 45 43  1  0
 47 48  1  0
 47 46  1  0
 49 48  1  0
 50 61  2  0
 51 49  1  0
 51 56  1  0
 52 60  1  0
 52 62  1  0
 53 59  1  0
 53 55  1  0
 54 60  1  0
 55 56  2  0
 55 54  1  0
 57 51  2  0
 58 57  1  0
 58 53  2  0
 59 52  1  0
 60 50  1  0
 62 64  2  0
 63 62  1  0
 65 63  1  0
 66 75  2  0
 66 71  1  0
 67 63  1  0
 67 71  1  0
 68 67  1  0
 69 70  1  0
 69 68  1  0
 70 66  1  0
 71 72  2  0
 72 73  1  0
 74 73  2  0
 75 74  1  0
 76 50  1  0
 76 81  1  0
 76 77  1  0
 77 80  1  1
 77 78  1  0
 79 77  1  0
 81 84  1  0
 82 86  1  0
 82 81  1  0
 83 82  2  0
 86 85  1  0
 88 86  1  0
 88 89  1  0
 88 87  1  0
M  ISO  4   8 100  16 100  48 101  49 101
M  END
>  <TORSDO>  (80) 
F 20

>  <SCORE>  (80) 
-13.721

>  <name>  (80) 
79

>  <ligand_id>  (80) 
79

>  <original_smiles>  (80) 
[H]C(=C([H])C([H])([H])C([H])([H])C([H])([H])Oc1c([H])c([H])c2c(c1[H])C([H])([H])N(C(=O)C([H])(N([H])C(=O)C([H])(N([H])C([H])([H])[H])C([H])([H])[H])C(C([H])([H])[H])(C([H])([H])[H])C([H])([H])[H])C([H])(C(=O)N([H])C1([H])c3c([H])c([H])c([H])c([H])c3C([H])([H])C([H])([H])C1([H])[H])C2([H])[H])c1noc(N([H])C(=O)N2C([H])([H])C([H])([H])C([H])([H])C([H])(n3nc(-c4c([H])c([H])c(Oc5c([H])c([H])c(F)c([H])c5F)c([H])c4[H])c(C(=O)N([H])[H])c3N([H])[H])C2([H])[H])c1[H]

>  <smiles>  (80) 
[H]C(=C([H])C([H])([H])C([H])([H])C([H])([H])Oc1c([H])c([H])c2c(c1[H])C([H])([H])N(C(=O)C([H])(N([H])C(=O)C([H])(N([H])C([H])([H])[H])C([H])([H])[H])C(C([H])([H])[H])(C([H])([H])[H])C([H])([H])[H])C([H])(C(=O)N([H])C1([H])c3c([H])c([H])c([H])c([H])c3C([H])([H])C([H])([H])C1([H])[H])C2([H])[H])c1noc(N([H])C(=O)N2C([H])([H])C([H])([H])C([H])([H])C([H])(n3nc(-c4c([H])c([H])c(Oc5c([H])c([H])c(F)c([H])c5F)c([H])c4[H])c(C(=O)N([H])[H])c3N([H])[H])C2([H])[H])c1[H]

$$$$
80:0:0
     RDKit          3D

 92100  0  0  1  0  0  0  0  0999 V2000
  -29.6420  -19.8390   18.6020 C   0  0  0  0  0  3  0  0  0  0  0  0
  -30.1490  -17.4420   18.6120 C   0  0  0  0  0  3  0  0  0  0  0  0
  -29.6720  -18.6090   20.6930 C   0  0  0  0  0  3  0  0  0  0  0  0
  -29.9600  -18.6520   17.9040 C   0  0  0  0  0  0  0  0  0  0  0  0
  -29.4990  -19.8850   20.0080 C   0  0  0  0  0  0  0  0  0  0  0  0
  -30.0150  -17.3660   20.0140 C   0  0  0  0  0  0  0  0  0  0  0  0
  -30.8110  -14.9120   20.1750 C   0  0  0  0  0  0  0  0  0  0  0  0
  -30.5290  -12.7030   19.0580 C   0  0  0  0  0  2  0  0  0  0  0  0
  -29.5530  -12.8830   17.8740 C   0  0  0  0  0  2  0  0  0  0  0  0
  -28.0950  -12.7160   18.3440 C   0  0  0  0  0  2  0  0  0  0  0  0
  -27.7870  -13.5290   19.6310 C   0  0  0  0  0  3  0  0  0  0  0  0
  -28.8810  -13.3400   20.7050 C   0  0  0  0  0  2  0  0  0  0  0  0
  -30.1690  -13.6970   20.0970 N   0  0  0  0  0  0  0  0  0  0  0  0
  -31.9580  -15.0330   19.7300 O   0  0  0  0  0  0  0  0  0  0  0  0
  -30.1110  -16.0190   20.6280 N   0  0  0  0  0  0  0  0  0  0  0  0
  -29.3390  -15.7880   21.2380 H   0  0  0  0  0  0  0  0  0  0  0  0
  -25.4370  -14.1140   20.4800 C   0  0  0  0  0  0  0  0  0  0  0  0
  -24.3720  -13.3380   20.8460 C   0  0  0  0  0  0  0  0  0  0  0  0
  -24.8090  -11.9830   20.7210 C   0  0  0  0  0  0  0  0  0  0  0  0
  -26.4550  -13.2350   20.1520 N   0  0  0  0  0  0  0  0  0  0  0  0
  -26.0860  -11.9430   20.3570 N   0  0  0  0  0  0  0  0  0  0  0  0
  -24.0680  -10.7230   20.8670 C   0  0  0  0  0  0  0  0  0  0  0  0
  -24.4780   -9.7260   21.7800 C   0  0  0  0  0  3  0  0  0  0  0  0
  -23.7370   -8.5320   21.9170 C   0  0  0  0  0  3  0  0  0  0  0  0
  -22.5710   -8.3270   21.1410 C   0  0  0  0  0  0  0  0  0  0  0  0
  -22.1800   -9.3120   20.2180 C   0  0  0  0  0  3  0  0  0  0  0  0
  -22.9220  -10.4980   20.0790 C   0  0  0  0  0  3  0  0  0  0  0  0
  -21.8040   -7.1880   21.1880 O   0  0  0  0  0  0  0  0  0  0  0  0
  -21.6860   -6.4460   22.3350 C   0  0  0  0  0  0  0  0  0  0  0  0
  -21.1570   -6.9910   23.5250 C   0  0  0  0  0  3  0  0  0  0  0  0
  -20.9890   -6.1740   24.6600 C   0  0  0  0  0  3  0  0  0  0  0  0
  -21.3420   -4.8120   24.6070 C   0  0  0  0  0  0  0  0  0  0  0  0
  -21.8660   -4.2660   23.4210 C   0  0  0  0  0  3  0  0  0  0  0  0
  -22.0340   -5.0810   22.2880 C   0  0  0  0  0  0  0  0  0  0  0  0
  -22.5190   -4.5460   21.1420 F   0  0  0  0  0  0  0  0  0  0  0  0
  -21.1750   -4.0250   25.6950 F   0  0  0  0  0  0  0  0  0  0  0  0
  -22.9950  -13.8200   21.1990 C   0  0  0  0  0  0  0  0  0  0  0  0
  -22.2890  -13.0880   22.0540 N   0  0  0  0  0  0  0  0  0  0  0  0
  -22.5560  -14.8800   20.7550 O   0  0  0  0  0  0  0  0  0  0  0  0
  -22.6580  -12.2310   22.4380 H   0  0  0  0  0  0  0  0  0  0  0  0
  -21.3650  -13.3900   22.3310 H   0  0  0  0  0  0  0  0  0  0  0  0
  -25.6210  -15.4900   20.3760 N   0  0  0  0  0  0  0  0  0  0  0  0
  -24.8730  -16.1510   20.5560 H   0  0  0  0  0  0  0  0  0  0  0  0
  -26.4650  -15.9330   20.0350 H   0  0  0  0  0  0  0  0  0  0  0  0
  -30.4790  -17.7290   15.6140 C   0  0  0  0  0  2  0  0  0  0  0  0
  -30.0580  -18.7100   16.4330 C   0  0  0  0  0  3  0  0  0  0  0  0
  -29.1760  -21.2530   20.6630 C   0  0  0  0  0  3  0  0  0  0  0  0
  -28.9010  -22.4840   20.0750 C   0  0  0  0  0  3  0  0  0  0  0  0
  -28.6700  -23.8470   20.7680 C   0  0  0  0  0  0  0  0  0  0  0  0
  -28.9920  -24.0170   21.9490 O   0  0  0  0  0  0  0  0  0  0  0  0
  -27.9930  -25.0750   19.9960 C   0  0  0  0  0  2  0  0  0  0  0  0
  -28.2010  -26.4890   20.4820 O   0  0  0  0  0  0  0  0  0  0  0  0
  -24.6370  -32.1200   23.3870 C   0  0  0  0  0  0  0  0  0  0  0  0
  -27.1280  -27.4120   20.3930 C   0  0  0  0  0  0  0  0  0  0  0  0
  -23.3970  -30.7140   21.7840 C   0  0  0  0  0  3  0  0  0  0  0  0
  -24.8070  -29.1130   20.3700 C   0  0  0  0  0  0  0  0  0  0  0  0
  -25.9450  -30.9670   21.5830 C   0  0  0  0  0  2  0  0  0  0  0  0
  -25.9920  -29.5720   20.9580 C   0  0  0  0  0  0  0  0  0  0  0  0
  -27.1530  -28.7320   20.9640 C   0  0  0  0  0  3  0  0  0  0  0  0
  -25.9220  -27.0370   19.7540 C   0  0  0  0  0  3  0  0  0  0  0  0
  -24.7760  -27.8540   19.7590 C   0  0  0  0  0  3  0  0  0  0  0  0
  -23.5900  -30.0160   20.4140 C   0  0  0  0  0  2  0  0  0  0  0  0
  -24.6800  -31.2860   22.3060 N   0  0  0  0  0  0  0  0  0  0  0  0
  -23.5620  -32.4300   23.9210 O   0  0  0  0  0  0  0  0  0  0  0  0
  -22.7220  -29.7270   22.7680 C   0  0  0  0  0  0  0  0  0  0  0  0
  -21.4100  -29.4960   22.5910 N   0  0  0  0  0  0  0  0  0  0  0  0
  -23.3800  -29.1720   23.6520 O   0  0  0  0  0  0  0  0  0  0  0  0
  -20.9360  -29.9980   21.8530 H   0  0  0  0  0  0  0  0  0  0  0  0
  -18.0660  -28.1620   22.9650 C   0  0  0  0  0  0  0  0  0  0  0  0
  -20.5860  -28.5730   23.3750 C   0  0  0  0  0  3  0  0  0  0  0  0
  -20.7940  -27.1120   22.9150 C   0  0  0  0  0  2  0  0  0  0  0  0
  -19.7790  -26.6610   21.8590 C   0  0  0  0  0  2  0  0  0  0  0  0
  -18.3520  -26.7790   22.4030 C   0  0  0  0  0  2  0  0  0  0  0  0
  -19.1160  -29.0100   23.4070 C   0  0  0  0  0  0  0  0  0  0  0  0
  -18.7980  -30.2970   23.8900 C   0  0  0  0  0  3  0  0  0  0  0  0
  -17.4630  -30.7400   23.9370 C   0  0  0  0  0  3  0  0  0  0  0  0
  -16.4260  -29.8910   23.5120 C   0  0  0  0  0  3  0  0  0  0  0  0
  -16.7280  -28.6030   23.0310 C   0  0  0  0  0  3  0  0  0  0  0  0
  -25.9350  -32.7430   23.9880 C   0  0  0  0  0  3  0  0  0  0  0  0
  -26.4740  -31.9570   25.2450 C   0  0  1  0  0  0  0  0  0  0  0  0
  -25.3890  -31.6590   26.3050 C   0  0  0  0  0  1  0  0  0  0  0  0
  -27.1030  -30.6090   24.8220 C   0  0  0  0  0  1  0  0  0  0  0  0
  -27.5990  -32.7710   25.9280 C   0  0  0  0  0  1  0  0  0  0  0  0
  -25.6350  -34.1380   24.3410 N   0  0  0  0  0  0  0  0  0  0  0  0
  -25.9260  -35.1990   23.5750 C   0  0  0  0  0  0  0  0  0  0  0  0
  -26.5450  -35.1050   22.5120 O   0  0  0  0  0  0  0  0  0  0  0  0
  -25.0780  -34.2860   25.1700 H   0  0  0  0  0  0  0  0  0  0  0  0
  -24.1630  -36.9780   23.3390 C   0  0  0  0  0  1  0  0  0  0  0  0
  -25.4580  -36.5830   24.0670 C   0  0  0  0  0  3  0  0  0  0  0  0
  -27.6280  -37.4920   24.7690 C   0  0  0  0  0  1  0  0  0  0  0  0
  -26.4720  -37.6440   23.8900 N   0  0  0  0  0  0  0  0  0  0  0  0
  -26.0660  -38.5620   24.0540 H   0  0  0  0  0  0  0  0  0  0  0  0
  1  5  1  0
  2  6  2  0
  4  1  2  0
  4  2  1  0
  5 47  1  0
  5  3  2  0
  6 15  1  0
  6  3  1  0
  7 15  1  0
  8 13  1  0
  9 10  1  0
  9  8  1  0
 11 10  1  0
 11 20  1  0
 11 12  1  0
 13  7  1  0
 13 12  1  0
 14  7  2  0
 15 16  1  0
 17 18  2  0
 18 37  1  0
 19 18  1  0
 19 22  1  0
 20 21  1  0
 20 17  1  0
 21 19  2  0
 22 23  1  0
 23 24  2  0
 25 28  1  0
 25 24  1  0
 26 25  2  0
 27 26  1  0
 27 22  2  0
 28 29  1  0
 29 30  1  0
 30 31  2  0
 32 31  1  0
 32 36  1  0
 33 32  2  0
 34 29  2  0
 34 33  1  0
 35 34  1  0
 37 38  1  0
 38 41  1  0
 38 40  1  0
 39 37  2  0
 42 17  1  0
 42 43  1  0
 44 42  1  0
 45 46  2  0
 46  4  1  0
 48 47  2  0
 48 49  1  0
 49 50  2  0
 51 52  1  0
 51 49  1  0
 53 64  2  0
 54 52  1  0
 54 59  1  0
 55 63  1  0
 55 65  1  0
 56 62  1  0
 56 58  1  0
 57 63  1  0
 58 59  2  0
 58 57  1  0
 60 61  1  0
 60 54  2  0
 61 56  2  0
 62 55  1  0
 63 53  1  0
 65 67  2  0
 66 65  1  0
 68 66  1  0
 69 78  2  0
 69 74  1  0
 70 66  1  0
 70 74  1  0
 71 70  1  0
 72 73  1  0
 72 71  1  0
 73 69  1  0
 74 75  2  0
 75 76  1  0
 77 76  2  0
 78 77  1  0
 79 53  1  0
 79 84  1  0
 79 80  1  0
 80 83  1  1
 80 81  1  0
 82 80  1  0
 84 87  1  0
 85 89  1  0
 85 84  1  0
 86 85  2  0
 89 88  1  0
 91 92  1  0
 91 89  1  0
 91 90  1  0
M  ISO  4   7 100  15 100  51 101  52 101
M  END
>  <TORSDO>  (81) 
F 20

>  <SCORE>  (81) 
-13.123

>  <name>  (81) 
80

>  <ligand_id>  (81) 
80

>  <original_smiles>  (81) 
[H]C([H])=C([H])c1c([H])c(C([H])=C([H])C(=O)C([H])([H])Oc2c([H])c([H])c3c(c2[H])C([H])([H])N(C(=O)C([H])(N([H])C(=O)C([H])(N([H])C([H])([H])[H])C([H])([H])[H])C(C([H])([H])[H])(C([H])([H])[H])C([H])([H])[H])C([H])(C(=O)N([H])C2([H])c4c([H])c([H])c([H])c([H])c4C([H])([H])C([H])([H])C2([H])[H])C3([H])[H])c([H])c(N([H])C(=O)N2C([H])([H])C([H])([H])C([H])([H])C([H])(n3nc(-c4c([H])c([H])c(Oc5c([H])c([H])c(F)c([H])c5F)c([H])c4[H])c(C(=O)N([H])[H])c3N([H])[H])C2([H])[H])c1[H]

>  <smiles>  (81) 
[H]C([H])=C([H])c1c([H])c(C([H])=C([H])C(=O)C([H])([H])Oc2c([H])c([H])c3c(c2[H])C([H])([H])N(C(=O)C([H])(N([H])C(=O)C([H])(N([H])C([H])([H])[H])C([H])([H])[H])C(C([H])([H])[H])(C([H])([H])[H])C([H])([H])[H])C([H])(C(=O)N([H])C2([H])c4c([H])c([H])c([H])c([H])c4C([H])([H])C([H])([H])C2([H])[H])C3([H])[H])c([H])c(N([H])C(=O)N2C([H])([H])C([H])([H])C([H])([H])C([H])(n3nc(-c4c([H])c([H])c(Oc5c([H])c([H])c(F)c([H])c5F)c([H])c4[H])c(C(=O)N([H])[H])c3N([H])[H])C2([H])[H])c1[H]

$$$$
81:0:0
     RDKit          3D

 90 99  0  0  1  0  0  0  0  0999 V2000
  -28.5050  -24.1790   21.1000 C   0  0  0  0  0  0  0  0  0  0  0  0
  -28.2540  -25.5310   21.1310 C   0  0  0  0  0  2  0  0  0  0  0  0
  -28.3650  -23.3310   22.3520 C   0  0  0  0  0  3  0  0  0  0  0  0
  -28.9250  -23.2060   19.9820 C   0  0  0  0  0  3  0  0  0  0  0  0
  -28.4650  -21.8480   21.9410 C   0  0  0  0  0  3  0  0  0  0  0  0
  -28.9150  -21.8330   20.5610 N   0  0  0  0  0  0  0  0  0  0  0  0
  -30.1470  -19.2290   18.3860 C   0  0  0  0  0  3  0  0  0  0  0  0
  -29.7740  -20.5850   18.6150 C   0  0  0  0  0  3  0  0  0  0  0  0
  -29.9410  -18.5060   19.5360 C   0  0  0  0  0  0  0  0  0  0  0  0
  -29.3410  -20.6380   19.9040 C   0  0  0  0  0  0  0  0  0  0  0  0
  -29.3900  -19.3650   20.4950 O   0  0  0  0  0  0  0  0  0  0  0  0
  -30.2790  -17.0850   19.7210 C   0  0  0  0  0  3  0  0  0  0  0  0
  -29.8930  -15.9610   20.4130 C   0  0  0  0  0  3  0  0  0  0  0  0
  -30.6520  -14.6870   20.2050 C   0  0  0  0  0  0  0  0  0  0  0  0
  -30.3540  -12.4450   19.2080 C   0  0  0  0  0  2  0  0  0  0  0  0
  -29.4160  -12.5880   17.9910 C   0  0  0  0  0  2  0  0  0  0  0  0
  -27.9450  -12.4460   18.4270 C   0  0  0  0  0  2  0  0  0  0  0  0
  -27.6010  -13.3190   19.6640 C   0  0  0  0  0  3  0  0  0  0  0  0
  -28.6680  -13.1950   20.7720 C   0  0  0  0  0  2  0  0  0  0  0  0
  -29.9770  -13.4930   20.1800 N   0  0  0  0  0  0  0  0  0  0  0  0
  -31.8380  -14.7150   19.8670 O   0  0  0  0  0  0  0  0  0  0  0  0
  -25.2180  -13.9150   20.4070 C   0  0  0  0  0  0  0  0  0  0  0  0
  -24.1570  -13.1420   20.7930 C   0  0  0  0  0  0  0  0  0  0  0  0
  -24.6210  -11.7910   20.7710 C   0  0  0  0  0  0  0  0  0  0  0  0
  -26.2610  -13.0350   20.1690 N   0  0  0  0  0  0  0  0  0  0  0  0
  -25.9090  -11.7530   20.4500 N   0  0  0  0  0  0  0  0  0  0  0  0
  -23.8980  -10.5290   20.9790 C   0  0  0  0  0  0  0  0  0  0  0  0
  -24.3450   -9.5650   21.9090 C   0  0  0  0  0  3  0  0  0  0  0  0
  -23.6210   -8.3690   22.1050 C   0  0  0  0  0  3  0  0  0  0  0  0
  -22.4360   -8.1280   21.3700 C   0  0  0  0  0  0  0  0  0  0  0  0
  -22.0070   -9.0810   20.4290 C   0  0  0  0  0  3  0  0  0  0  0  0
  -22.7320  -10.2690   20.2310 C   0  0  0  0  0  3  0  0  0  0  0  0
  -21.6820   -6.9840   21.4750 O   0  0  0  0  0  0  0  0  0  0  0  0
  -21.6580   -6.2420   22.6280 C   0  0  0  0  0  0  0  0  0  0  0  0
  -21.2700   -6.7990   23.8660 C   0  0  0  0  0  3  0  0  0  0  0  0
  -21.1910   -5.9830   25.0120 C   0  0  0  0  0  3  0  0  0  0  0  0
  -21.4920   -4.6110   24.9230 C   0  0  0  0  0  0  0  0  0  0  0  0
  -21.8740   -4.0530   23.6900 C   0  0  0  0  0  3  0  0  0  0  0  0
  -21.9540   -4.8650   22.5450 C   0  0  0  0  0  0  0  0  0  0  0  0
  -22.3020   -4.3190   21.3560 F   0  0  0  0  0  0  0  0  0  0  0  0
  -21.4110   -3.8250   26.0220 F   0  0  0  0  0  0  0  0  0  0  0  0
  -22.7610  -13.6200   21.0730 C   0  0  0  0  0  0  0  0  0  0  0  0
  -22.0430  -12.9330   21.9540 N   0  0  0  0  0  0  0  0  0  0  0  0
  -22.3170  -14.6380   20.5450 O   0  0  0  0  0  0  0  0  0  0  0  0
  -22.4150  -12.1100   22.4030 H   0  0  0  0  0  0  0  0  0  0  0  0
  -21.1070  -13.2350   22.1830 H   0  0  0  0  0  0  0  0  0  0  0  0
  -25.3800  -15.2830   20.2180 N   0  0  0  0  0  0  0  0  0  0  0  0
  -24.6170  -15.9400   20.3350 H   0  0  0  0  0  0  0  0  0  0  0  0
  -26.2320  -15.7200   19.8880 H   0  0  0  0  0  0  0  0  0  0  0  0
  -28.3230  -26.5240   20.1520 O   0  0  0  0  0  0  0  0  0  0  0  0
  -24.6520  -31.9090   23.2320 C   0  0  0  0  0  0  0  0  0  0  0  0
  -27.2420  -27.4010   20.1290 C   0  0  0  0  0  0  0  0  0  0  0  0
  -23.4310  -30.5120   21.6000 C   0  0  0  0  0  3  0  0  0  0  0  0
  -24.8720  -28.9750   20.1500 C   0  0  0  0  0  0  0  0  0  0  0  0
  -25.9640  -30.8500   21.3850 C   0  0  0  0  0  2  0  0  0  0  0  0
  -26.0440  -29.4760   20.7350 C   0  0  0  0  0  0  0  0  0  0  0  0
  -27.2370  -28.6980   20.7190 C   0  0  0  0  0  3  0  0  0  0  0  0
  -26.0570  -26.9410   19.5270 C   0  0  0  0  0  3  0  0  0  0  0  0
  -24.8780  -27.7110   19.5370 C   0  0  0  0  0  3  0  0  0  0  0  0
  -23.6300  -29.8400   20.2160 C   0  0  0  0  0  2  0  0  0  0  0  0
  -24.7020  -31.1070   22.1300 N   0  0  0  0  0  0  0  0  0  0  0  0
  -23.5750  -32.1810   23.7820 O   0  0  0  0  0  0  0  0  0  0  0  0
  -22.7860  -29.4890   22.5650 C   0  0  0  0  0  0  0  0  0  0  0  0
  -21.4600  -29.3030   22.4470 N   0  0  0  0  0  0  0  0  0  0  0  0
  -23.4750  -28.8690   23.3790 O   0  0  0  0  0  0  0  0  0  0  0  0
  -20.9640  -29.8560   21.7630 H   0  0  0  0  0  0  0  0  0  0  0  0
  -18.0980  -28.0720   22.9560 C   0  0  0  0  0  0  0  0  0  0  0  0
  -20.6520  -28.3600   23.2240 C   0  0  0  0  0  3  0  0  0  0  0  0
  -20.7700  -26.9270   22.6560 C   0  0  0  0  0  2  0  0  0  0  0  0
  -19.6710  -26.5870   21.6440 C   0  0  0  0  0  2  0  0  0  0  0  0
  -18.2880  -26.7210   22.2870 C   0  0  0  0  0  2  0  0  0  0  0  0
  -19.2080  -28.8490   23.3810 C   0  0  0  0  0  0  0  0  0  0  0  0
  -18.9750  -30.1130   23.9650 C   0  0  0  0  0  3  0  0  0  0  0  0
  -17.6650  -30.6000   24.1290 C   0  0  0  0  0  3  0  0  0  0  0  0
  -16.5690  -29.8210   23.7200 C   0  0  0  0  0  3  0  0  0  0  0  0
  -16.7860  -28.5590   23.1390 C   0  0  0  0  0  3  0  0  0  0  0  0
  -25.9410  -32.5420   23.8400 C   0  0  0  0  0  3  0  0  0  0  0  0
  -25.6310  -33.9370   24.1850 N   0  0  0  0  0  0  0  0  0  0  0  0
  -25.9450  -34.9960   23.4270 C   0  0  0  0  0  0  0  0  0  0  0  0
  -26.5970  -34.9020   22.3840 O   0  0  0  0  0  0  0  0  0  0  0  0
  -25.0500  -34.0830   24.9980 H   0  0  0  0  0  0  0  0  0  0  0  0
  -24.2000  -36.7810   23.1200 C   0  0  0  0  0  1  0  0  0  0  0  0
  -25.4600  -36.3790   23.9020 C   0  0  0  0  0  3  0  0  0  0  0  0
  -27.6090  -37.2700   24.6890 C   0  0  0  0  0  1  0  0  0  0  0  0
  -26.4840  -37.4380   23.7730 N   0  0  0  0  0  0  0  0  0  0  0  0
  -26.0760  -38.3550   23.9370 H   0  0  0  0  0  0  0  0  0  0  0  0
  -26.4800  -31.7630   25.1030 C   0  0  1  0  0  0  0  0  0  0  0  0
  -25.4030  -31.5160   26.1850 C   0  0  0  0  0  1  0  0  0  0  0  0
  -27.0600  -30.3900   24.6920 C   0  0  0  0  0  1  0  0  0  0  0  0
  -27.6380  -32.5560   25.7530 C   0  0  0  0  0  1  0  0  0  0  0  0
  1  2  1  0
  1  3  1  0
  4  6  1  0
  4  1  2  0
  5  3  2  0
  6  5  1  0
  7  8  1  0
  7  9  2  0
  8 10  2  0
  9 12  1  0
  9 11  1  0
 10 11  1  0
 10  6  1  0
 12 13  2  0
 14 13  1  0
 15 20  1  0
 16 17  1  0
 16 15  1  0
 18 17  1  0
 18 25  1  0
 18 19  1  0
 20 14  1  0
 20 19  1  0
 21 14  2  0
 22 23  2  0
 23 42  1  0
 24 23  1  0
 24 27  1  0
 25 22  1  0
 25 26  1  0
 26 24  2  0
 27 28  1  0
 28 29  2  0
 30 33  1  0
 30 29  1  0
 31 30  2  0
 32 31  1  0
 32 27  2  0
 33 34  1  0
 34 35  1  0
 35 36  2  0
 37 36  1  0
 37 41  1  0
 38 37  2  0
 39 34  2  0
 39 38  1  0
 40 39  1  0
 42 43  1  0
 43 46  1  0
 43 45  1  0
 44 42  2  0
 47 48  1  0
 47 22  1  0
 49 47  1  0
 50  2  1  0
 51 62  2  0
 52 50  1  0
 52 57  1  0
 53 61  1  0
 53 63  1  0
 54 60  1  0
 54 56  1  0
 55 61  1  0
 56 55  1  0
 57 56  2  0
 58 59  1  0
 58 52  2  0
 59 54  2  0
 60 53  1  0
 61 51  1  0
 63 65  2  0
 64 63  1  0
 66 64  1  0
 67 76  2  0
 67 72  1  0
 68 64  1  0
 68 72  1  0
 69 68  1  0
 70 71  1  0
 70 69  1  0
 71 67  1  0
 72 73  2  0
 73 74  1  0
 75 74  2  0
 76 75  1  0
 77 51  1  0
 77 78  1  0
 77 87  1  0
 78 81  1  0
 79 83  1  0
 79 78  1  0
 80 79  2  0
 83 82  1  0
 85 83  1  0
 85 86  1  0
 85 84  1  0
 87 90  1  1
 87 88  1  0
 89 87  1  0
M  ISO  4   2 101  13 100  14 100  50 101
M  END
>  <TORSDO>  (82) 
F 18

>  <SCORE>  (82) 
-14.459

>  <name>  (82) 
81

>  <ligand_id>  (82) 
81

>  <original_smiles>  (82) 
[H]C(Oc1c([H])c([H])c2c(c1[H])C([H])([H])N(C(=O)C([H])(N([H])C(=O)C([H])(N([H])C([H])([H])[H])C([H])([H])[H])C(C([H])([H])[H])(C([H])([H])[H])C([H])([H])[H])C([H])(C(=O)N([H])C1([H])c3c([H])c([H])c([H])c([H])c3C([H])([H])C([H])([H])C1([H])[H])C2([H])[H])=C1C([H])([H])N(c2oc(C([H])=C([H])C(=O)N3C([H])([H])C([H])([H])C([H])([H])C([H])(n4nc(-c5c([H])c([H])c(Oc6c([H])c([H])c(F)c([H])c6F)c([H])c5[H])c(C(=O)N([H])[H])c4N([H])[H])C3([H])[H])c([H])c2[H])C([H])([H])C1([H])[H]

>  <smiles>  (82) 
[H]C(Oc1c([H])c([H])c2c(c1[H])C([H])([H])N(C(=O)C([H])(N([H])C(=O)C([H])(N([H])C([H])([H])[H])C([H])([H])[H])C(C([H])([H])[H])(C([H])([H])[H])C([H])([H])[H])C([H])(C(=O)N([H])C1([H])c3c([H])c([H])c([H])c([H])c3C([H])([H])C([H])([H])C1([H])[H])C2([H])[H])=C1C([H])([H])N(c2oc(C([H])=C([H])C(=O)N3C([H])([H])C([H])([H])C([H])([H])C([H])(n4nc(-c5c([H])c([H])c(Oc6c([H])c([H])c(F)c([H])c6F)c([H])c5[H])c(C(=O)N([H])[H])c4N([H])[H])C3([H])[H])c([H])c2[H])C([H])([H])C1([H])[H]

$$$$
82:0:0
     RDKit          3D

 90 98  0  0  1  0  0  0  0  0999 V2000
  -29.9350  -19.8400   19.5560 C   0  0  0  0  0  3  0  0  0  0  0  0
  -29.5870  -18.8820   21.5290 C   0  0  0  0  0  3  0  0  0  0  0  0
  -29.5660  -20.1240   20.9040 C   0  0  0  0  0  0  0  0  0  0  0  0
  -30.1170  -18.4680   19.4120 C   0  0  0  0  0  0  0  0  0  0  0  0
  -29.8950  -17.8230   20.6390 N   0  0  0  0  0  0  0  0  0  0  0  0
  -30.3600  -17.7000   18.2260 C   0  0  0  0  0  3  0  0  0  0  0  0
  -30.6210  -18.1530   16.9910 C   0  0  0  0  0  3  0  0  0  0  0  0
  -30.8770  -17.2590   15.7960 C   0  0  0  0  0  1  0  0  0  0  0  0
  -29.1660  -21.4270   21.6310 C   0  0  0  0  0  3  0  0  0  0  0  0
  -28.9910  -22.8100   21.5420 C   0  0  0  0  0  3  0  0  0  0  0  0
  -29.1210  -24.0450   20.5550 C   0  0  0  0  0  3  0  0  0  0  0  0
  -28.3100  -25.3900   21.0100 C   0  0  0  0  0  3  0  0  0  0  0  0
  -28.5270  -26.7870   20.4840 O   0  0  0  0  0  0  0  0  0  0  0  0
  -24.7650  -32.2120   23.5800 C   0  0  0  0  0  0  0  0  0  0  0  0
  -27.4320  -27.6810   20.4810 C   0  0  0  0  0  0  0  0  0  0  0  0
  -23.5940  -30.8390   21.8950 C   0  0  0  0  0  3  0  0  0  0  0  0
  -25.0700  -29.3160   20.4660 C   0  0  0  0  0  0  0  0  0  0  0  0
  -26.1380  -31.1590   21.7640 C   0  0  0  0  0  2  0  0  0  0  0  0
  -26.2320  -29.7920   21.0870 C   0  0  0  0  0  0  0  0  0  0  0  0
  -27.4190  -28.9880   21.0770 C   0  0  0  0  0  3  0  0  0  0  0  0
  -26.2480  -27.2750   19.8330 C   0  0  0  0  0  3  0  0  0  0  0  0
  -25.0810  -28.0640   19.8320 C   0  0  0  0  0  3  0  0  0  0  0  0
  -23.8310  -30.1880   20.5070 C   0  0  0  0  0  2  0  0  0  0  0  0
  -24.8500  -31.4230   22.4670 N   0  0  0  0  0  0  0  0  0  0  0  0
  -23.6720  -32.4770   24.1010 O   0  0  0  0  0  0  0  0  0  0  0  0
  -22.9170  -29.8040   22.8280 C   0  0  0  0  0  0  0  0  0  0  0  0
  -21.6170  -29.5450   22.6050 N   0  0  0  0  0  0  0  0  0  0  0  0
  -23.5660  -29.2370   23.7100 O   0  0  0  0  0  0  0  0  0  0  0  0
  -21.1510  -30.0560   21.8680 H   0  0  0  0  0  0  0  0  0  0  0  0
  -18.2840  -28.1650   22.8950 C   0  0  0  0  0  0  0  0  0  0  0  0
  -20.7980  -28.5750   23.3360 C   0  0  0  0  0  3  0  0  0  0  0  0
  -21.0200  -27.1430   22.7960 C   0  0  0  0  0  2  0  0  0  0  0  0
  -20.0120  -26.7430   21.7130 C   0  0  0  0  0  2  0  0  0  0  0  0
  -18.5830  -26.8180   22.2560 C   0  0  0  0  0  2  0  0  0  0  0  0
  -19.3260  -28.9970   23.3860 C   0  0  0  0  0  0  0  0  0  0  0  0
  -18.9930  -30.2530   23.9360 C   0  0  0  0  0  3  0  0  0  0  0  0
  -17.6530  -30.6800   24.0010 C   0  0  0  0  0  3  0  0  0  0  0  0
  -16.6270  -29.8460   23.5260 C   0  0  0  0  0  3  0  0  0  0  0  0
  -16.9430  -28.5900   22.9800 C   0  0  0  0  0  3  0  0  0  0  0  0
  -26.0350  -32.8370   24.2340 C   0  0  0  0  0  3  0  0  0  0  0  0
  -25.7000  -34.2130   24.6270 N   0  0  0  0  0  0  0  0  0  0  0  0
  -25.9830  -35.3050   23.9040 C   0  0  0  0  0  0  0  0  0  0  0  0
  -26.6230  -35.2620   22.8510 O   0  0  0  0  0  0  0  0  0  0  0  0
  -25.1290  -34.3200   25.4520 H   0  0  0  0  0  0  0  0  0  0  0  0
  -24.1880  -37.0540   23.6930 C   0  0  0  0  0  1  0  0  0  0  0  0
  -25.4760  -36.6610   24.4340 C   0  0  0  0  0  3  0  0  0  0  0  0
  -27.6280  -37.5720   25.1900 C   0  0  0  0  0  1  0  0  0  0  0  0
  -26.4710  -37.7490   24.3140 N   0  0  0  0  0  0  0  0  0  0  0  0
  -26.0480  -38.6490   24.5240 H   0  0  0  0  0  0  0  0  0  0  0  0
  -26.5630  -32.0190   25.4780 C   0  0  1  0  0  0  0  0  0  0  0  0
  -25.4420  -31.5890   26.4530 C   0  0  0  0  0  1  0  0  0  0  0  0
  -27.3090  -30.7430   25.0230 C   0  0  0  0  0  1  0  0  0  0  0  0
  -27.5870  -32.8700   26.2660 C   0  0  0  0  0  1  0  0  0  0  0  0
  -29.7450  -16.3280   20.9760 C   0  0  0  0  0  2  0  0  0  0  0  0
  -30.5760  -15.1070   20.3350 C   0  0  0  0  0  0  0  0  0  0  0  0
  -30.5070  -12.8270   19.2700 C   0  0  0  0  0  2  0  0  0  0  0  0
  -29.5400  -12.8540   18.0630 C   0  0  0  0  0  2  0  0  0  0  0  0
  -28.0800  -12.6290   18.5070 C   0  0  0  0  0  2  0  0  0  0  0  0
  -27.6960  -13.4940   19.7360 C   0  0  0  0  0  3  0  0  0  0  0  0
  -28.7730  -13.3990   20.8390 C   0  0  0  0  0  2  0  0  0  0  0  0
  -30.0440  -13.8380   20.2480 N   0  0  0  0  0  0  0  0  0  0  0  0
  -31.7050  -15.3160   19.8730 O   0  0  0  0  0  0  0  0  0  0  0  0
  -25.3120  -14.0130   20.5360 C   0  0  0  0  0  0  0  0  0  0  0  0
  -24.2660  -13.2050   20.8930 C   0  0  0  0  0  0  0  0  0  0  0  0
  -24.7490  -11.8650   20.7890 C   0  0  0  0  0  0  0  0  0  0  0  0
  -26.3650  -13.1640   20.2380 N   0  0  0  0  0  0  0  0  0  0  0  0
  -26.0340  -11.8650   20.4510 N   0  0  0  0  0  0  0  0  0  0  0  0
  -24.0500  -10.5840   20.9390 C   0  0  0  0  0  0  0  0  0  0  0  0
  -24.3720   -9.6850   21.9800 C   0  0  0  0  0  3  0  0  0  0  0  0
  -23.6740   -8.4650   22.1140 C   0  0  0  0  0  3  0  0  0  0  0  0
  -22.6410   -8.1360   21.2030 C   0  0  0  0  0  0  0  0  0  0  0  0
  -22.3410   -9.0230   20.1540 C   0  0  0  0  0  3  0  0  0  0  0  0
  -23.0410  -10.2340   20.0210 C   0  0  0  0  0  3  0  0  0  0  0  0
  -21.9250   -6.9630   21.2390 O   0  0  0  0  0  0  0  0  0  0  0  0
  -21.5260   -6.4000   22.4240 C   0  0  0  0  0  0  0  0  0  0  0  0
  -20.6820   -7.0830   23.3280 C   0  0  0  0  0  3  0  0  0  0  0  0
  -20.2410   -6.4390   24.5010 C   0  0  0  0  0  3  0  0  0  0  0  0
  -20.6330   -5.1130   24.7690 C   0  0  0  0  0  0  0  0  0  0  0  0
  -21.4680   -4.4310   23.8680 C   0  0  0  0  0  3  0  0  0  0  0  0
  -21.9110   -5.0720   22.6980 C   0  0  0  0  0  0  0  0  0  0  0  0
  -22.6990   -4.4020   21.8220 F   0  0  0  0  0  0  0  0  0  0  0  0
  -20.2040   -4.4930   25.8920 F   0  0  0  0  0  0  0  0  0  0  0  0
  -22.8680  -13.6460   21.2160 C   0  0  0  0  0  0  0  0  0  0  0  0
  -22.1700  -12.8990   22.0650 N   0  0  0  0  0  0  0  0  0  0  0  0
  -22.3990  -14.6830   20.7480 O   0  0  0  0  0  0  0  0  0  0  0  0
  -22.5620  -12.0600   22.4650 H   0  0  0  0  0  0  0  0  0  0  0  0
  -21.2330  -13.1760   22.3230 H   0  0  0  0  0  0  0  0  0  0  0  0
  -25.4470  -15.3930   20.4190 N   0  0  0  0  0  0  0  0  0  0  0  0
  -24.6650  -16.0210   20.5670 H   0  0  0  0  0  0  0  0  0  0  0  0
  -26.2750  -15.8670   20.0810 H   0  0  0  0  0  0  0  0  0  0  0  0
  1  3  1  0
  3  2  2  0
  3  9  1  0
  4  1  2  0
  4  5  1  0
  5 54  1  0
  5  2  1  0
  6  4  1  0
  7  6  2  0
  8  7  1  0
 10  9  2  0
 11 12  2  0
 11 10  1  0
 13 12  1  0
 14 25  2  0
 15 13  1  0
 15 20  1  0
 16 24  1  0
 16 26  1  0
 17 23  1  0
 17 19  1  0
 18 24  1  0
 19 18  1  0
 20 19  2  0
 21 15  2  0
 22 21  1  0
 22 17  2  0
 23 16  1  0
 24 14  1  0
 26 28  2  0
 27 26  1  0
 29 27  1  0
 30 39  2  0
 30 35  1  0
 31 27  1  0
 31 35  1  0
 32 31  1  0
 33 34  1  0
 33 32  1  0
 34 30  1  0
 35 36  2  0
 36 37  1  0
 38 37  2  0
 39 38  1  0
 40 14  1  0
 40 41  1  0
 40 50  1  0
 41 44  1  0
 42 46  1  0
 42 41  1  0
 43 42  2  0
 46 45  1  0
 48 46  1  0
 48 49  1  0
 48 47  1  0
 50 53  1  1
 50 51  1  0
 52 50  1  0
 55 54  1  0
 56 61  1  0
 57 58  1  0
 57 56  1  0
 59 58  1  0
 59 66  1  0
 59 60  1  0
 61 55  1  0
 61 60  1  0
 62 55  2  0
 63 64  2  0
 64 83  1  0
 65 64  1  0
 65 68  1  0
 66 67  1  0
 66 63  1  0
 67 65  2  0
 68 69  1  0
 69 70  2  0
 71 74  1  0
 71 70  1  0
 72 71  2  0
 73 72  1  0
 73 68  2  0
 74 75  1  0
 75 80  2  0
 75 76  1  0
 76 77  2  0
 77 78  1  0
 78 82  1  0
 79 78  2  0
 80 79  1  0
 81 80  1  0
 83 84  1  0
 84 87  1  0
 84 86  1  0
 85 83  2  0
 88 63  1  0
 88 89  1  0
 90 88  1  0
M  ISO  4  12 101  13 101  54 100  55 100
M  END
>  <TORSDO>  (83) 
F 21

>  <SCORE>  (83) 
-11.493

>  <name>  (83) 
82

>  <ligand_id>  (83) 
82

>  <original_smiles>  (83) 
[H]C(=C([H])C([H])([H])C([H])([H])Oc1c([H])c([H])c2c(c1[H])C([H])([H])N(C(=O)C([H])(N([H])C(=O)C([H])(N([H])C([H])([H])[H])C([H])([H])[H])C(C([H])([H])[H])(C([H])([H])[H])C([H])([H])[H])C([H])(C(=O)N([H])C1([H])c3c([H])c([H])c([H])c([H])c3C([H])([H])C([H])([H])C1([H])[H])C2([H])[H])c1c([H])c(C([H])=C([H])C([H])([H])[H])n(C([H])([H])C(=O)N2C([H])([H])C([H])([H])C([H])([H])C([H])(n3nc(-c4c([H])c([H])c(Oc5c([H])c([H])c(F)c([H])c5F)c([H])c4[H])c(C(=O)N([H])[H])c3N([H])[H])C2([H])[H])c1[H]

>  <smiles>  (83) 
[H]C(=C([H])C([H])([H])C([H])([H])Oc1c([H])c([H])c2c(c1[H])C([H])([H])N(C(=O)C([H])(N([H])C(=O)C([H])(N([H])C([H])([H])[H])C([H])([H])[H])C(C([H])([H])[H])(C([H])([H])[H])C([H])([H])[H])C([H])(C(=O)N([H])C1([H])c3c([H])c([H])c([H])c([H])c3C([H])([H])C([H])([H])C1([H])[H])C2([H])[H])c1c([H])c(C([H])=C([H])C([H])([H])[H])n(C([H])([H])C(=O)N2C([H])([H])C([H])([H])C([H])([H])C([H])(n3nc(-c4c([H])c([H])c(Oc5c([H])c([H])c(F)c([H])c5F)c([H])c4[H])c(C(=O)N([H])[H])c3N([H])[H])C2([H])[H])c1[H]

$$$$
83:0:0
     RDKit          3D

 97105  0  0  1  0  0  0  0  0999 V2000
  -28.2700  -17.7780   19.7760 C   0  0  0  0  0  3  0  0  0  0  0  0
  -27.5210  -20.0640   20.0580 C   0  0  0  0  0  3  0  0  0  0  0  0
  -29.5020  -18.0710   20.4020 C   0  0  0  0  0  0  0  0  0  0  0  0
  -29.7600  -19.4280   20.8540 C   0  0  0  0  0  0  0  0  0  0  0  0
  -28.7500  -20.4450   20.6550 C   0  0  0  0  0  0  0  0  0  0  0  0
  -27.2840  -18.7570   19.6160 C   0  0  0  0  0  0  0  0  0  0  0  0
  -30.7600  -14.5120   20.3060 C   0  0  0  0  0  0  0  0  0  0  0  0
  -30.3460  -12.3490   19.2030 C   0  0  0  0  0  2  0  0  0  0  0  0
  -29.4060  -12.5930   18.0050 C   0  0  0  0  0  2  0  0  0  0  0  0
  -27.9370  -12.4780   18.4550 C   0  0  0  0  0  2  0  0  0  0  0  0
  -27.6310  -13.3110   19.7310 C   0  0  0  0  0  3  0  0  0  0  0  0
  -28.7080  -13.1090   20.8250 C   0  0  0  0  0  2  0  0  0  0  0  0
  -30.0210  -13.3670   20.2190 N   0  0  0  0  0  0  0  0  0  0  0  0
  -31.9360  -14.5220   19.9420 O   0  0  0  0  0  0  0  0  0  0  0  0
  -30.5320  -16.9390   20.4180 C   0  0  0  0  0  0  0  0  0  0  0  0
  -30.0760  -15.6600   20.5670 N   0  0  0  0  0  0  0  0  0  0  0  0
  -31.7240  -17.2270   20.2570 O   0  0  0  0  0  0  0  0  0  0  0  0
  -29.0990  -15.5580   20.7780 H   0  0  0  0  0  0  0  0  0  0  0  0
  -25.2580  -13.9380   20.4890 C   0  0  0  0  0  0  0  0  0  0  0  0
  -24.1850  -13.1770   20.8630 C   0  0  0  0  0  0  0  0  0  0  0  0
  -24.6280  -11.8190   20.8190 C   0  0  0  0  0  0  0  0  0  0  0  0
  -26.2870  -13.0450   20.2330 N   0  0  0  0  0  0  0  0  0  0  0  0
  -25.9130  -11.7660   20.4940 N   0  0  0  0  0  0  0  0  0  0  0  0
  -23.8820  -10.5670   21.0080 C   0  0  0  0  0  0  0  0  0  0  0  0
  -24.3050   -9.5880   21.9340 C   0  0  0  0  0  3  0  0  0  0  0  0
  -23.5600   -8.4020   22.1120 C   0  0  0  0  0  3  0  0  0  0  0  0
  -22.3790   -8.1870   21.3620 C   0  0  0  0  0  0  0  0  0  0  0  0
  -21.9760   -9.1540   20.4240 C   0  0  0  0  0  3  0  0  0  0  0  0
  -22.7210  -10.3320   20.2450 C   0  0  0  0  0  3  0  0  0  0  0  0
  -21.6060   -7.0560   21.4500 O   0  0  0  0  0  0  0  0  0  0  0  0
  -21.5470   -6.3110   22.6020 C   0  0  0  0  0  0  0  0  0  0  0  0
  -21.1170   -6.8660   23.8270 C   0  0  0  0  0  3  0  0  0  0  0  0
  -21.0050   -6.0480   24.9700 C   0  0  0  0  0  3  0  0  0  0  0  0
  -21.3140   -4.6760   24.8880 C   0  0  0  0  0  0  0  0  0  0  0  0
  -21.7390   -4.1220   23.6670 C   0  0  0  0  0  3  0  0  0  0  0  0
  -21.8520   -4.9370   22.5270 C   0  0  0  0  0  0  0  0  0  0  0  0
  -22.2400   -4.3930   21.3490 F   0  0  0  0  0  0  0  0  0  0  0  0
  -21.2000   -3.8890   25.9820 F   0  0  0  0  0  0  0  0  0  0  0  0
  -22.7990  -13.6730   21.1580 C   0  0  0  0  0  0  0  0  0  0  0  0
  -22.0730  -12.9800   22.0290 N   0  0  0  0  0  0  0  0  0  0  0  0
  -22.3700  -14.7070   20.6490 O   0  0  0  0  0  0  0  0  0  0  0  0
  -22.4310  -12.1420   22.4620 H   0  0  0  0  0  0  0  0  0  0  0  0
  -21.1410  -13.2920   22.2640 H   0  0  0  0  0  0  0  0  0  0  0  0
  -25.4380  -15.3100   20.3320 N   0  0  0  0  0  0  0  0  0  0  0  0
  -24.6840  -15.9670   20.5040 H   0  0  0  0  0  0  0  0  0  0  0  0
  -26.3030  -15.7650   20.0820 H   0  0  0  0  0  0  0  0  0  0  0  0
  -26.0760  -18.4350   18.9990 N   0  0  0  0  0  0  0  0  0  0  0  0
  -25.8200  -17.4740   18.7970 H   0  0  0  0  0  0  0  0  0  0  0  0
  -25.2870  -19.0740   19.0360 H   0  0  0  0  0  0  0  0  0  0  0  0
  -28.4440  -22.7990   20.4270 C   0  0  0  0  0  3  0  0  0  0  0  0
  -28.8900  -21.7910   21.0930 N   0  0  0  0  0  0  0  0  0  0  0  0
  -28.3970  -24.2470   20.9590 C   0  0  0  0  0  2  0  0  0  0  0  0
  -28.7830  -25.3500   19.9300 C   0  0  0  0  0  2  0  0  0  0  0  0
  -28.6630  -26.7110   20.4190 O   0  0  0  0  0  0  0  0  0  0  0  0
  -24.6630  -31.9020   23.2380 C   0  0  0  0  0  0  0  0  0  0  0  0
  -27.4660  -27.4080   20.3400 C   0  0  0  0  0  0  0  0  0  0  0  0
  -23.5340  -30.4460   21.5900 C   0  0  0  0  0  3  0  0  0  0  0  0
  -25.0520  -28.9030   20.2430 C   0  0  0  0  0  0  0  0  0  0  0  0
  -26.0620  -30.8340   21.4650 C   0  0  0  0  0  2  0  0  0  0  0  0
  -26.1850  -29.4490   20.8560 C   0  0  0  0  0  0  0  0  0  0  0  0
  -27.3920  -28.7100   20.9000 C   0  0  0  0  0  3  0  0  0  0  0  0
  -26.3050  -26.8800   19.7300 C   0  0  0  0  0  3  0  0  0  0  0  0
  -25.1090  -27.6180   19.6780 C   0  0  0  0  0  3  0  0  0  0  0  0
  -23.7980  -29.7470   20.2300 C   0  0  0  0  0  2  0  0  0  0  0  0
  -24.7700  -31.0790   22.1550 N   0  0  0  0  0  0  0  0  0  0  0  0
  -23.5610  -32.1670   23.7360 O   0  0  0  0  0  0  0  0  0  0  0  0
  -22.8680  -29.4340   22.5480 C   0  0  0  0  0  0  0  0  0  0  0  0
  -21.5440  -29.2570   22.4050 N   0  0  0  0  0  0  0  0  0  0  0  0
  -23.5380  -28.8120   23.3770 O   0  0  0  0  0  0  0  0  0  0  0  0
  -21.0700  -29.8080   21.7020 H   0  0  0  0  0  0  0  0  0  0  0  0
  -18.1540  -28.1120   22.9090 C   0  0  0  0  0  0  0  0  0  0  0  0
  -20.7150  -28.3270   23.1730 C   0  0  0  0  0  3  0  0  0  0  0  0
  -20.7950  -26.8990   22.5850 C   0  0  0  0  0  2  0  0  0  0  0  0
  -19.6840  -26.6020   21.5720 C   0  0  0  0  0  2  0  0  0  0  0  0
  -18.3070  -26.7660   22.2200 C   0  0  0  0  0  2  0  0  0  0  0  0
  -19.2850  -28.8520   23.3400 C   0  0  0  0  0  0  0  0  0  0  0  0
  -19.0910  -30.1150   23.9410 C   0  0  0  0  0  3  0  0  0  0  0  0
  -17.7940  -30.6350   24.1180 C   0  0  0  0  0  3  0  0  0  0  0  0
  -16.6750  -29.8920   23.7020 C   0  0  0  0  0  3  0  0  0  0  0  0
  -16.8570  -28.6310   23.1060 C   0  0  0  0  0  3  0  0  0  0  0  0
  -25.9170  -32.5680   23.8870 C   0  0  0  0  0  3  0  0  0  0  0  0
  -25.5660  -33.9600   24.1990 N   0  0  0  0  0  0  0  0  0  0  0  0
  -25.8840  -35.0150   23.4360 C   0  0  0  0  0  0  0  0  0  0  0  0
  -26.5760  -34.9200   22.4180 O   0  0  0  0  0  0  0  0  0  0  0  0
  -24.9550  -34.1080   24.9890 H   0  0  0  0  0  0  0  0  0  0  0  0
  -24.1180  -36.7590   23.0320 C   0  0  0  0  0  1  0  0  0  0  0  0
  -25.3540  -36.3960   23.8710 C   0  0  0  0  0  3  0  0  0  0  0  0
  -27.4470  -37.3420   24.7380 C   0  0  0  0  0  1  0  0  0  0  0  0
  -26.3630  -37.4720   23.7670 N   0  0  0  0  0  0  0  0  0  0  0  0
  -25.9310  -38.3830   23.8940 H   0  0  0  0  0  0  0  0  0  0  0  0
  -26.4220  -31.8170   25.1810 C   0  0  1  0  0  0  0  0  0  0  0  0
  -25.3090  -31.5530   26.2210 C   0  0  0  0  0  1  0  0  0  0  0  0
  -27.0520  -30.4540   24.8080 C   0  0  0  0  0  1  0  0  0  0  0  0
  -27.5360  -32.6440   25.8680 C   0  0  0  0  0  1  0  0  0  0  0  0
  -31.1450  -19.7450   21.4830 C   0  0  0  0  0  2  0  0  0  0  0  0
  -31.7350  -20.8320   23.7020 C   0  0  0  0  0  2  0  0  0  0  0  0
  -31.3470  -20.9270   22.4200 C   0  0  0  0  0  3  0  0  0  0  0  0
  1  3  1  0
  2  5  2  0
  3 15  1  0
  3  4  2  0
  4 95  1  0
  5  4  1  0
  5 51  1  0
  6  1  2  0
  6  2  1  0
  7 16  1  0
  8 13  1  0
  9 10  1  0
  9  8  1  0
 11 10  1  0
 11 22  1  0
 11 12  1  0
 13  7  1  0
 13 12  1  0
 14  7  2  0
 15 16  1  0
 16 18  1  0
 17 15  2  0
 19 20  2  0
 20 39  1  0
 21 20  1  0
 21 24  1  0
 22 19  1  0
 22 23  1  0
 23 21  2  0
 24 25  1  0
 25 26  2  0
 27 30  1  0
 27 26  1  0
 28 27  2  0
 29 28  1  0
 29 24  2  0
 30 31  1  0
 31 32  1  0
 32 33  2  0
 34 33  1  0
 34 38  1  0
 35 34  2  0
 36 31  2  0
 36 35  1  0
 37 36  1  0
 39 40  1  0
 40 43  1  0
 40 42  1  0
 41 39  2  0
 44 19  1  0
 44 45  1  0
 46 44  1  0
 47 49  1  0
 47  6  1  0
 48 47  1  0
 50 52  1  0
 50 51  2  0
 53 54  1  0
 53 52  1  0
 55 66  2  0
 56 54  1  0
 56 61  1  0
 57 65  1  0
 57 67  1  0
 58 60  1  0
 59 65  1  0
 60 61  2  0
 60 59  1  0
 62 56  2  0
 63 62  1  0
 63 58  2  0
 64 58  1  0
 64 57  1  0
 65 55  1  0
 67 69  2  0
 68 67  1  0
 70 68  1  0
 71 80  2  0
 71 76  1  0
 72 68  1  0
 72 76  1  0
 73 72  1  0
 74 75  1  0
 74 73  1  0
 75 71  1  0
 76 77  2  0
 77 78  1  0
 79 78  2  0
 80 79  1  0
 81 55  1  0
 81 82  1  0
 81 91  1  0
 82 85  1  0
 83 87  1  0
 83 82  1  0
 84 83  2  0
 87 86  1  0
 89 87  1  0
 89 90  1  0
 89 88  1  0
 91 94  1  1
 91 92  1  0
 93 91  1  0
 95 97  1  0
 97 96  2  0
M  ISO  4   7 100  16 100  53 101  54 101
M  END
>  <TORSDO>  (84) 
F 22

>  <SCORE>  (84) 
-13.660

>  <name>  (84) 
83

>  <ligand_id>  (84) 
83

>  <original_smiles>  (84) 
[H]C(=Nc1c([H])c(N([H])[H])c([H])c(C(=O)N([H])C(=O)N2C([H])([H])C([H])([H])C([H])([H])C([H])(n3nc(-c4c([H])c([H])c(Oc5c([H])c([H])c(F)c([H])c5F)c([H])c4[H])c(C(=O)N([H])[H])c3N([H])[H])C2([H])[H])c1C([H])([H])C([H])=C([H])[H])C([H])([H])C([H])([H])Oc1c([H])c([H])c2c(c1[H])C([H])([H])N(C(=O)C([H])(N([H])C(=O)C([H])(N([H])C([H])([H])[H])C([H])([H])[H])C(C([H])([H])[H])(C([H])([H])[H])C([H])([H])[H])C([H])(C(=O)N([H])C1([H])c3c([H])c([H])c([H])c([H])c3C([H])([H])C([H])([H])C1([H])[H])C2([H])[H]

>  <smiles>  (84) 
[H]C(=Nc1c([H])c(N([H])[H])c([H])c(C(=O)N([H])C(=O)N2C([H])([H])C([H])([H])C([H])([H])C([H])(n3nc(-c4c([H])c([H])c(Oc5c([H])c([H])c(F)c([H])c5F)c([H])c4[H])c(C(=O)N([H])[H])c3N([H])[H])C2([H])[H])c1C([H])([H])C([H])=C([H])[H])C([H])([H])C([H])([H])Oc1c([H])c([H])c2c(c1[H])C([H])([H])N(C(=O)C([H])(N([H])C(=O)C([H])(N([H])C([H])([H])[H])C([H])([H])[H])C(C([H])([H])[H])(C([H])([H])[H])C([H])([H])[H])C([H])(C(=O)N([H])C1([H])c3c([H])c([H])c([H])c([H])c3C([H])([H])C([H])([H])C1([H])[H])C2([H])[H]

$$$$
84:0:0
     RDKit          3D

 91 99  0  0  1  0  0  0  0  0999 V2000
  -30.5840  -18.7550   20.0050 C   0  0  0  0  0  3  0  0  0  0  0  0
  -30.3610  -20.2070   19.9410 C   0  0  0  0  0  3  0  0  0  0  0  0
  -28.0630  -19.8230   19.8360 C   0  0  0  0  0  3  0  0  0  0  0  0
  -29.5570  -17.7320   20.0020 C   0  0  0  0  0  0  0  0  0  0  0  0
  -28.2590  -18.3820   19.8980 C   0  0  0  0  0  0  0  0  0  0  0  0
  -29.0650  -20.8350   19.8660 C   0  0  0  0  0  0  0  0  0  0  0  0
  -28.7680  -23.5300   19.6710 C   0  0  0  0  0  2  0  0  0  0  0  0
  -28.5460  -24.8510   19.3280 C   0  0  0  0  0  2  0  0  0  0  0  0
  -28.6280  -22.2700   19.7480 N   0  0  0  0  0  2  0  0  0  0  0  0
  -28.5410  -26.1900   19.9280 O   0  0  0  0  0  0  0  0  0  0  0  0
  -24.5810  -31.6240   22.9420 C   0  0  0  0  0  0  0  0  0  0  0  0
  -27.4380  -27.1200   19.8360 C   0  0  0  0  0  0  0  0  0  0  0  0
  -23.4780  -30.2190   21.2440 C   0  0  0  0  0  3  0  0  0  0  0  0
  -25.0230  -28.7520   19.8080 C   0  0  0  0  0  0  0  0  0  0  0  0
  -26.0190  -30.6060   21.1370 C   0  0  0  0  0  2  0  0  0  0  0  0
  -26.1700  -29.2370   20.4510 C   0  0  0  0  0  0  0  0  0  0  0  0
  -27.3730  -28.4360   20.4510 C   0  0  0  0  0  3  0  0  0  0  0  0
  -26.2520  -26.7350   19.1650 C   0  0  0  0  0  3  0  0  0  0  0  0
  -25.0770  -27.5140   19.1540 C   0  0  0  0  0  3  0  0  0  0  0  0
  -23.7540  -29.5890   19.8540 C   0  0  0  0  0  2  0  0  0  0  0  0
  -24.7110  -30.8360   21.8300 N   0  0  0  0  0  0  0  0  0  0  0  0
  -23.4730  -31.8470   23.4520 O   0  0  0  0  0  0  0  0  0  0  0  0
  -22.8270  -29.1580   22.1670 C   0  0  0  0  0  0  0  0  0  0  0  0
  -21.4960  -28.9900   22.0640 N   0  0  0  0  0  0  0  0  0  0  0  0
  -23.5190  -28.4900   22.9390 O   0  0  0  0  0  0  0  0  0  0  0  0
  -20.9900  -29.5780   21.4160 H   0  0  0  0  0  0  0  0  0  0  0  0
  -18.1210  -27.8060   22.6460 C   0  0  0  0  0  0  0  0  0  0  0  0
  -20.6970  -28.0080   22.8020 C   0  0  0  0  0  3  0  0  0  0  0  0
  -20.7420  -26.6220   22.1160 C   0  0  0  0  0  2  0  0  0  0  0  0
  -19.5840  -26.3950   21.1390 C   0  0  0  0  0  2  0  0  0  0  0  0
  -18.2390  -26.5110   21.8610 C   0  0  0  0  0  2  0  0  0  0  0  0
  -19.2740  -28.5170   23.0750 C   0  0  0  0  0  0  0  0  0  0  0  0
  -19.1060  -29.7330   23.7720 C   0  0  0  0  0  3  0  0  0  0  0  0
  -17.8210  -30.2380   24.0440 C   0  0  0  0  0  3  0  0  0  0  0  0
  -16.6830  -29.5220   23.6300 C   0  0  0  0  0  3  0  0  0  0  0  0
  -16.8350  -28.3080   22.9360 C   0  0  0  0  0  3  0  0  0  0  0  0
  -25.8160  -32.3000   23.6120 C   0  0  0  0  0  3  0  0  0  0  0  0
  -26.3530  -31.5040   24.8650 C   0  0  1  0  0  0  0  0  0  0  0  0
  -25.2600  -31.1790   25.9100 C   0  0  0  0  0  1  0  0  0  0  0  0
  -27.0000  -30.1660   24.4330 C   0  0  0  0  0  1  0  0  0  0  0  0
  -27.4600  -32.3220   25.5690 C   0  0  0  0  0  1  0  0  0  0  0  0
  -25.4260  -33.6630   24.0000 N   0  0  0  0  0  0  0  0  0  0  0  0
  -25.7180  -34.7700   23.3050 C   0  0  0  0  0  0  0  0  0  0  0  0
  -26.4120  -34.7540   22.2850 O   0  0  0  0  0  0  0  0  0  0  0  0
  -24.8030  -33.7470   24.7900 H   0  0  0  0  0  0  0  0  0  0  0  0
  -23.8990  -36.4880   23.0180 C   0  0  0  0  0  1  0  0  0  0  0  0
  -25.1540  -36.1090   23.8210 C   0  0  0  0  0  3  0  0  0  0  0  0
  -27.2320  -37.0680   24.7150 C   0  0  0  0  0  1  0  0  0  0  0  0
  -26.1300  -37.2200   23.7670 N   0  0  0  0  0  0  0  0  0  0  0  0
  -25.6740  -38.1100   23.9500 H   0  0  0  0  0  0  0  0  0  0  0  0
  -29.7030  -16.1260   20.3260 C   0  0  0  0  0  0  0  0  0  0  0  0
  -29.3650  -15.7980   21.5050 N   0  0  0  0  0  0  0  0  0  0  0  0
  -29.0390  -16.6040   22.0240 H   0  0  0  0  0  0  0  0  0  0  0  0
  -30.2820  -14.8550   19.4320 C   0  0  0  0  0  0  0  0  0  0  0  0
  -30.0910  -12.4900   18.5130 C   0  0  0  0  0  2  0  0  0  0  0  0
  -28.9820  -12.4090   17.4340 C   0  0  0  0  0  2  0  0  0  0  0  0
  -27.6040  -12.1590   18.0740 C   0  0  0  0  0  2  0  0  0  0  0  0
  -27.3560  -13.0730   19.3020 C   0  0  0  0  0  3  0  0  0  0  0  0
  -28.5670  -13.0950   20.2600 C   0  0  0  0  0  2  0  0  0  0  0  0
  -29.7380  -13.5630   19.4950 N   0  0  0  0  0  0  0  0  0  0  0  0
  -31.3000  -15.0040   18.7460 O   0  0  0  0  0  0  0  0  0  0  0  0
  -25.1360  -13.5930   20.4700 C   0  0  0  0  0  0  0  0  0  0  0  0
  -24.1450  -12.7930   20.9650 C   0  0  0  0  0  0  0  0  0  0  0  0
  -24.5780  -11.4490   20.7520 C   0  0  0  0  0  0  0  0  0  0  0  0
  -26.1150  -12.7370   19.9920 N   0  0  0  0  0  0  0  0  0  0  0  0
  -25.7960  -11.4360   20.2220 N   0  0  0  0  0  0  0  0  0  0  0  0
  -23.8760  -10.1770   20.9710 C   0  0  0  0  0  0  0  0  0  0  0  0
  -24.3960   -9.1850   21.8320 C   0  0  0  0  0  3  0  0  0  0  0  0
  -23.6920   -7.9790   22.0410 C   0  0  0  0  0  3  0  0  0  0  0  0
  -22.4560   -7.7560   21.3880 C   0  0  0  0  0  0  0  0  0  0  0  0
  -21.9560   -8.7370   20.5130 C   0  0  0  0  0  3  0  0  0  0  0  0
  -22.6600   -9.9340   20.3020 C   0  0  0  0  0  3  0  0  0  0  0  0
  -21.7160   -6.6060   21.5110 O   0  0  0  0  0  0  0  0  0  0  0  0
  -21.7010   -5.8800   22.6760 C   0  0  0  0  0  0  0  0  0  0  0  0
  -21.2960   -6.4500   23.9020 C   0  0  0  0  0  3  0  0  0  0  0  0
  -21.2280   -5.6500   25.0620 C   0  0  0  0  0  3  0  0  0  0  0  0
  -21.5560   -4.2830   24.9960 C   0  0  0  0  0  0  0  0  0  0  0  0
  -21.9560   -3.7130   23.7740 C   0  0  0  0  0  3  0  0  0  0  0  0
  -22.0250   -4.5100   22.6170 C   0  0  0  0  0  0  0  0  0  0  0  0
  -22.3890   -3.9520   21.4370 F   0  0  0  0  0  0  0  0  0  0  0  0
  -21.4870   -3.5120   26.1050 F   0  0  0  0  0  0  0  0  0  0  0  0
  -22.8220  -13.2500   21.5130 C   0  0  0  0  0  0  0  0  0  0  0  0
  -22.2520  -12.4980   22.4470 N   0  0  0  0  0  0  0  0  0  0  0  0
  -22.3090  -14.3060   21.1450 O   0  0  0  0  0  0  0  0  0  0  0  0
  -22.6840  -11.6420   22.7660 H   0  0  0  0  0  0  0  0  0  0  0  0
  -21.3690  -12.7780   22.8500 H   0  0  0  0  0  0  0  0  0  0  0  0
  -25.2740  -14.9720   20.3580 N   0  0  0  0  0  0  0  0  0  0  0  0
  -24.5460  -15.6100   20.6620 H   0  0  0  0  0  0  0  0  0  0  0  0
  -26.0380  -15.4370   19.8860 H   0  0  0  0  0  0  0  0  0  0  0  0
  -25.7580  -18.0010   20.1020 C   0  0  0  0  0  2  0  0  0  0  0  0
  -27.0180  -17.5660   19.9140 C   0  0  0  0  0  3  0  0  0  0  0  0
  2  1  2  0
  3  6  2  0
  3  5  1  0
  4  1  1  0
  4 51  1  0
  5 91  1  0
  5  4  2  0
  6  2  1  0
  7  9  1  0
  8  7  1  0
  8 10  1  0
  9  6  1  0
 11 22  2  0
 12 10  1  0
 12 17  1  0
 13 21  1  0
 13 23  1  0
 14 20  1  0
 14 16  1  0
 15 21  1  0
 16 17  2  0
 16 15  1  0
 18 12  2  0
 19 18  1  0
 19 14  2  0
 20 13  1  0
 21 11  1  0
 23 25  2  0
 24 23  1  0
 26 24  1  0
 27 36  2  0
 27 32  1  0
 28 24  1  0
 28 32  1  0
 29 28  1  0
 30 31  1  0
 30 29  1  0
 31 27  1  0
 32 33  2  0
 33 34  1  0
 35 34  2  0
 36 35  1  0
 37 11  1  0
 37 42  1  0
 37 38  1  0
 38 41  1  1
 38 39  1  0
 40 38  1  0
 42 45  1  0
 43 47  1  0
 43 42  1  0
 44 43  2  0
 47 46  1  0
 49 47  1  0
 49 50  1  0
 49 48  1  0
 51 52  2  0
 52 53  1  0
 54 60  1  0
 54 51  1  0
 55 60  1  0
 56 57  1  0
 56 55  1  0
 58 57  1  0
 58 65  1  0
 58 59  1  0
 60 59  1  0
 61 54  2  0
 62 63  2  0
 63 82  1  0
 64 63  1  0
 64 67  1  0
 65 66  1  0
 65 62  1  0
 66 64  2  0
 67 68  1  0
 68 69  2  0
 70 73  1  0
 70 69  1  0
 71 70  2  0
 72 71  1  0
 72 67  2  0
 73 74  1  0
 74 75  1  0
 75 76  2  0
 77 76  1  0
 77 81  1  0
 78 77  2  0
 79 74  2  0
 79 78  1  0
 80 79  1  0
 82 83  1  0
 83 85  1  0
 83 86  1  0
 84 82  2  0
 87 62  1  0
 87 88  1  0
 89 87  1  0
 91 90  2  0
M  ISO  4   8 101  10 101  51 100  54 100
M  END
>  <TORSDO>  (85) 
F 19

>  <SCORE>  (85) 
-12.867

>  <name>  (85) 
84

>  <ligand_id>  (85) 
84

>  <original_smiles>  (85) 
[H]N=C(C(=O)N1C([H])([H])C([H])([H])C([H])([H])C([H])(n2nc(-c3c([H])c([H])c(Oc4c([H])c([H])c(F)c([H])c4F)c([H])c3[H])c(C(=O)N([H])[H])c2N([H])[H])C1([H])[H])c1c([H])c([H])c(N=C=C([H])Oc2c([H])c([H])c3c(c2[H])C([H])([H])N(C(=O)C([H])(N([H])C(=O)C([H])(N([H])C([H])([H])[H])C([H])([H])[H])C(C([H])([H])[H])(C([H])([H])[H])C([H])([H])[H])C([H])(C(=O)N([H])C2([H])c4c([H])c([H])c([H])c([H])c4C([H])([H])C([H])([H])C2([H])[H])C3([H])[H])c([H])c1C([H])=C([H])[H]

>  <smiles>  (85) 
[H]N=C(C(=O)N1C([H])([H])C([H])([H])C([H])([H])C([H])(n2nc(-c3c([H])c([H])c(Oc4c([H])c([H])c(F)c([H])c4F)c([H])c3[H])c(C(=O)N([H])[H])c2N([H])[H])C1([H])[H])c1c([H])c([H])c(N=C=C([H])Oc2c([H])c([H])c3c(c2[H])C([H])([H])N(C(=O)C([H])(N([H])C(=O)C([H])(N([H])C([H])([H])[H])C([H])([H])[H])C(C([H])([H])[H])(C([H])([H])[H])C([H])([H])[H])C([H])(C(=O)N([H])C2([H])c4c([H])c([H])c([H])c([H])c4C([H])([H])C([H])([H])C2([H])[H])C3([H])[H])c([H])c1C([H])=C([H])[H]

$$$$
85:0:0
     RDKit          3D

 90 98  0  0  1  0  0  0  0  0999 V2000
  -28.6070  -18.2420   20.3850 C   0  0  0  0  0  3  0  0  0  0  0  0
  -30.7360  -19.9070   20.4760 C   0  0  0  0  0  3  0  0  0  0  0  0
  -30.9570  -18.5350   20.4200 C   0  0  0  0  0  0  0  0  0  0  0  0
  -29.8110  -17.5810   20.4050 C   0  0  0  0  0  0  0  0  0  0  0  0
  -28.3770  -19.7380   20.4050 C   0  0  0  0  0  0  0  0  0  0  0  0
  -32.3830  -18.0310   20.3970 C   0  0  0  0  0  1  0  0  0  0  0  0
  -29.4660  -20.5800   20.4850 N   0  0  0  0  0  0  0  0  0  0  0  0
  -27.2330  -20.2040   20.3940 O   0  0  0  0  0  0  0  0  0  0  0  0
  -30.6420  -14.9610   20.2180 C   0  0  0  0  0  0  0  0  0  0  0  0
  -30.4830  -12.6480   19.2060 C   0  0  0  0  0  2  0  0  0  0  0  0
  -29.5160  -12.6650   17.9980 C   0  0  0  0  0  2  0  0  0  0  0  0
  -28.0590  -12.4740   18.4580 C   0  0  0  0  0  2  0  0  0  0  0  0
  -27.6980  -13.3680   19.6720 C   0  0  0  0  0  3  0  0  0  0  0  0
  -28.7770  -13.3040   20.7740 C   0  0  0  0  0  2  0  0  0  0  0  0
  -30.0490  -13.7060   20.1580 N   0  0  0  0  0  0  0  0  0  0  0  0
  -31.8310  -15.0450   19.9010 O   0  0  0  0  0  0  0  0  0  0  0  0
  -29.7960  -16.0770   20.4390 N   0  0  0  0  0  0  0  0  0  0  0  0
  -28.8710  -15.7300   20.6440 H   0  0  0  0  0  0  0  0  0  0  0  0
  -25.3380  -13.9680   20.4600 C   0  0  0  0  0  0  0  0  0  0  0  0
  -24.2730  -13.1980   20.8440 C   0  0  0  0  0  0  0  0  0  0  0  0
  -24.7250  -11.8430   20.7930 C   0  0  0  0  0  0  0  0  0  0  0  0
  -26.3660  -13.0800   20.1910 N   0  0  0  0  0  0  0  0  0  0  0  0
  -26.0080  -11.7980   20.4560 N   0  0  0  0  0  0  0  0  0  0  0  0
  -23.9920  -10.5850   20.9870 C   0  0  0  0  0  0  0  0  0  0  0  0
  -24.4180   -9.6180   21.9240 C   0  0  0  0  0  3  0  0  0  0  0  0
  -23.6850   -8.4260   22.1040 C   0  0  0  0  0  3  0  0  0  0  0  0
  -22.5100   -8.1940   21.3500 C   0  0  0  0  0  0  0  0  0  0  0  0
  -22.1040   -9.1500   20.4030 C   0  0  0  0  0  3  0  0  0  0  0  0
  -22.8370  -10.3350   20.2200 C   0  0  0  0  0  3  0  0  0  0  0  0
  -21.7500   -7.0540   21.4410 O   0  0  0  0  0  0  0  0  0  0  0  0
  -21.6850   -6.3230   22.6000 C   0  0  0  0  0  0  0  0  0  0  0  0
  -21.2100   -6.8820   23.8070 C   0  0  0  0  0  3  0  0  0  0  0  0
  -21.0910   -6.0750   24.9560 C   0  0  0  0  0  3  0  0  0  0  0  0
  -21.4400   -4.7130   24.9000 C   0  0  0  0  0  0  0  0  0  0  0  0
  -21.9080   -4.1530   23.6970 C   0  0  0  0  0  3  0  0  0  0  0  0
  -22.0270   -4.9570   22.5500 C   0  0  0  0  0  0  0  0  0  0  0  0
  -22.4590   -4.4090   21.3880 F   0  0  0  0  0  0  0  0  0  0  0  0
  -21.3180   -3.9340   26.0000 F   0  0  0  0  0  0  0  0  0  0  0  0
  -22.8860  -13.6860   21.1400 C   0  0  0  0  0  0  0  0  0  0  0  0
  -22.1650  -12.9940   22.0140 N   0  0  0  0  0  0  0  0  0  0  0  0
  -22.4510  -14.7190   20.6330 O   0  0  0  0  0  0  0  0  0  0  0  0
  -22.5300  -12.1600   22.4490 H   0  0  0  0  0  0  0  0  0  0  0  0
  -21.2360  -13.3090   22.2550 H   0  0  0  0  0  0  0  0  0  0  0  0
  -25.5070  -15.3390   20.2860 N   0  0  0  0  0  0  0  0  0  0  0  0
  -24.7280  -15.9810   20.3950 H   0  0  0  0  0  0  0  0  0  0  0  0
  -26.3020  -15.7560   19.8200 H   0  0  0  0  0  0  0  0  0  0  0  0
  -29.3210  -22.0940   20.9310 C   0  0  0  0  0  2  0  0  0  0  0  0
  -28.9740  -23.4590   20.0280 C   0  0  0  0  0  2  0  0  0  0  0  0
  -28.3870  -24.8700   20.7200 C   0  0  0  0  0  2  0  0  0  0  0  0
  -28.4910  -26.3270   20.2270 O   0  0  0  0  0  0  0  0  0  0  0  0
  -24.6160  -31.8370   23.2050 C   0  0  0  0  0  0  0  0  0  0  0  0
  -27.3740  -27.2270   20.2240 C   0  0  0  0  0  0  0  0  0  0  0  0
  -23.4810  -30.4230   21.5300 C   0  0  0  0  0  3  0  0  0  0  0  0
  -24.9970  -28.8830   20.1410 C   0  0  0  0  0  0  0  0  0  0  0  0
  -26.0280  -30.7570   21.4200 C   0  0  0  0  0  2  0  0  0  0  0  0
  -26.1500  -29.3700   20.7710 C   0  0  0  0  0  0  0  0  0  0  0  0
  -27.3420  -28.5600   20.7900 C   0  0  0  0  0  3  0  0  0  0  0  0
  -26.1910  -26.8190   19.5720 C   0  0  0  0  0  3  0  0  0  0  0  0
  -25.0270  -27.6200   19.5270 C   0  0  0  0  0  3  0  0  0  0  0  0
  -23.7490  -29.7510   20.1570 C   0  0  0  0  0  2  0  0  0  0  0  0
  -24.7260  -31.0280   22.1080 N   0  0  0  0  0  0  0  0  0  0  0  0
  -23.5130  -32.0960   23.7100 O   0  0  0  0  0  0  0  0  0  0  0  0
  -22.8030  -29.4000   22.4730 C   0  0  0  0  0  0  0  0  0  0  0  0
  -21.4770  -29.2270   22.3310 N   0  0  0  0  0  0  0  0  0  0  0  0
  -23.4710  -28.7640   23.2930 O   0  0  0  0  0  0  0  0  0  0  0  0
  -20.9990  -29.7890   21.6390 H   0  0  0  0  0  0  0  0  0  0  0  0
  -18.0860  -28.0520   22.8170 C   0  0  0  0  0  0  0  0  0  0  0  0
  -20.6490  -28.2790   23.0790 C   0  0  0  0  0  3  0  0  0  0  0  0
  -20.7340  -26.8640   22.4620 C   0  0  0  0  0  2  0  0  0  0  0  0
  -19.6240  -26.5800   21.4450 C   0  0  0  0  0  2  0  0  0  0  0  0
  -18.2460  -26.7210   22.1000 C   0  0  0  0  0  2  0  0  0  0  0  0
  -19.2150  -28.7910   23.2620 C   0  0  0  0  0  0  0  0  0  0  0  0
  -19.0100  -30.0370   23.8930 C   0  0  0  0  0  3  0  0  0  0  0  0
  -17.7110  -30.5450   24.0820 C   0  0  0  0  0  3  0  0  0  0  0  0
  -16.5970  -29.8030   23.6510 C   0  0  0  0  0  3  0  0  0  0  0  0
  -16.7860  -28.5570   23.0260 C   0  0  0  0  0  3  0  0  0  0  0  0
  -25.8680  -32.4910   23.8670 C   0  0  0  0  0  3  0  0  0  0  0  0
  -26.3420  -31.7410   25.1730 C   0  0  1  0  0  0  0  0  0  0  0  0
  -25.2090  -31.5080   26.2010 C   0  0  0  0  0  1  0  0  0  0  0  0
  -26.9490  -30.3630   24.8220 C   0  0  0  0  0  1  0  0  0  0  0  0
  -27.4600  -32.5550   25.8660 C   0  0  0  0  0  1  0  0  0  0  0  0
  -25.5330  -33.8900   24.1710 N   0  0  0  0  0  0  0  0  0  0  0  0
  -25.8870  -34.9400   23.4170 C   0  0  0  0  0  0  0  0  0  0  0  0
  -26.5930  -34.8320   22.4130 O   0  0  0  0  0  0  0  0  0  0  0  0
  -24.9090  -34.0490   24.9480 H   0  0  0  0  0  0  0  0  0  0  0  0
  -24.1700  -36.7280   22.9790 C   0  0  0  0  0  1  0  0  0  0  0  0
  -25.3760  -36.3290   23.8460 C   0  0  0  0  0  3  0  0  0  0  0  0
  -27.4600  -37.2350   24.7770 C   0  0  0  0  0  1  0  0  0  0  0  0
  -26.4080  -37.3860   23.7750 N   0  0  0  0  0  0  0  0  0  0  0  0
  -25.9910  -38.3050   23.8890 H   0  0  0  0  0  0  0  0  0  0  0  0
  1  5  1  0
  1  4  2  0
  2  7  1  0
  3  2  2  0
  4  3  1  0
  4 17  1  0
  5  7  1  0
  6  3  1  0
  7 47  1  0
  8  5  2  0
  9 17  1  0
 10 15  1  0
 11 12  1  0
 11 10  1  0
 13 12  1  0
 13 22  1  0
 13 14  1  0
 15  9  1  0
 15 14  1  0
 16  9  2  0
 17 18  1  0
 19 20  2  0
 20 39  1  0
 21 20  1  0
 21 24  1  0
 22 23  1  0
 22 19  1  0
 23 21  2  0
 24 25  1  0
 25 26  2  0
 27 30  1  0
 27 26  1  0
 28 27  2  0
 29 28  1  0
 29 24  2  0
 30 31  1  0
 31 32  1  0
 32 33  2  0
 34 33  1  0
 34 38  1  0
 35 34  2  0
 36 31  2  0
 36 35  1  0
 37 36  1  0
 39 40  1  0
 40 43  1  0
 40 42  1  0
 41 39  2  0
 44 45  1  0
 44 19  1  0
 46 44  1  0
 48 49  1  0
 48 47  1  0
 50 49  1  0
 51 62  2  0
 52 50  1  0
 52 57  1  0
 53 61  1  0
 53 63  1  0
 54 60  1  0
 54 56  1  0
 55 61  1  0
 56 57  2  0
 56 55  1  0
 58 52  2  0
 59 58  1  0
 59 54  2  0
 60 53  1  0
 61 51  1  0
 63 65  2  0
 64 63  1  0
 66 64  1  0
 67 76  2  0
 67 72  1  0
 68 64  1  0
 68 72  1  0
 69 68  1  0
 70 71  1  0
 70 69  1  0
 71 67  1  0
 72 73  2  0
 73 74  1  0
 75 74  2  0
 76 75  1  0
 77 51  1  0
 77 82  1  0
 77 78  1  0
 78 81  1  1
 78 79  1  0
 80 78  1  0
 82 85  1  0
 83 87  1  0
 83 82  1  0
 84 83  2  0
 87 86  1  0
 89 87  1  0
 89 90  1  0
 89 88  1  0
M  ISO  4   9 100  17 100  49 101  50 101
M  END
>  <TORSDO>  (86) 
F 19

>  <SCORE>  (86) 
-14.097

>  <name>  (86) 
85

>  <ligand_id>  (86) 
85

>  <original_smiles>  (86) 
[H]c1c([H])c([H])c2c(c1[H])C([H])([H])C([H])([H])C([H])([H])C2([H])N([H])C(=O)C1([H])N(C(=O)C([H])(N([H])C(=O)C([H])(N([H])C([H])([H])[H])C([H])([H])[H])C(C([H])([H])[H])(C([H])([H])[H])C([H])([H])[H])C([H])([H])c2c([H])c(OC([H])([H])C([H])([H])C([H])([H])n3c([H])c(C([H])([H])[H])c(N([H])C(=O)N4C([H])([H])C([H])([H])C([H])([H])C([H])(n5nc(-c6c([H])c([H])c(Oc7c([H])c([H])c(F)c([H])c7F)c([H])c6[H])c(C(=O)N([H])[H])c5N([H])[H])C4([H])[H])c([H])c3=O)c([H])c([H])c2C1([H])[H]

>  <smiles>  (86) 
[H]c1c([H])c([H])c2c(c1[H])C([H])([H])C([H])([H])C([H])([H])C2([H])N([H])C(=O)C1([H])N(C(=O)C([H])(N([H])C(=O)C([H])(N([H])C([H])([H])[H])C([H])([H])[H])C(C([H])([H])[H])(C([H])([H])[H])C([H])([H])[H])C([H])([H])c2c([H])c(OC([H])([H])C([H])([H])C([H])([H])n3c([H])c(C([H])([H])[H])c(N([H])C(=O)N4C([H])([H])C([H])([H])C([H])([H])C([H])(n5nc(-c6c([H])c([H])c(Oc7c([H])c([H])c(F)c([H])c7F)c([H])c6[H])c(C(=O)N([H])[H])c5N([H])[H])C4([H])[H])c([H])c3=O)c([H])c([H])c2C1([H])[H]

$$$$
86:0:0
     RDKit          3D

 96104  0  0  1  0  0  0  0  0999 V2000
  -29.5080  -20.9650   18.9960 C   0  0  0  0  0  3  0  0  0  0  0  0
  -28.9520  -20.2380   21.2030 C   0  0  0  0  0  3  0  0  0  0  0  0
  -29.8630  -19.6160   18.6380 C   0  0  0  0  0  0  0  0  0  0  0  0
  -29.8200  -18.5420   19.6000 C   0  0  0  0  0  0  0  0  0  0  0  0
  -29.0710  -21.3260   20.2950 C   0  0  0  0  0  0  0  0  0  0  0  0
  -29.3130  -18.8900   20.8820 C   0  0  0  0  0  0  0  0  0  0  0  0
  -30.6150  -14.7340   19.1550 C   0  0  0  0  0  0  0  0  0  0  0  0
  -30.0810  -12.5570   18.0870 C   0  0  0  0  0  2  0  0  0  0  0  0
  -28.9650  -12.7520   17.0410 C   0  0  0  0  0  2  0  0  0  0  0  0
  -27.5850  -12.5980   17.7060 C   0  0  0  0  0  2  0  0  0  0  0  0
  -27.4550  -13.4150   19.0210 C   0  0  0  0  0  3  0  0  0  0  0  0
  -28.6860  -13.2520   19.9380 C   0  0  0  0  0  2  0  0  0  0  0  0
  -29.8740  -13.5760   19.1410 N   0  0  0  0  0  0  0  0  0  0  0  0
  -31.7420  -14.6970   18.6560 O   0  0  0  0  0  0  0  0  0  0  0  0
  -30.5670  -17.2000   19.3530 C   0  0  0  0  0  0  0  0  0  0  0  0
  -30.0140  -15.9360   19.5000 N   0  0  0  0  0  0  0  0  0  0  0  0
  -31.7410  -17.3570   18.9950 O   0  0  0  0  0  0  0  0  0  0  0  0
  -29.0650  -15.9010   19.8330 H   0  0  0  0  0  0  0  0  0  0  0  0
  -25.2480  -13.9940   20.1900 C   0  0  0  0  0  0  0  0  0  0  0  0
  -24.2360  -13.2150   20.6820 C   0  0  0  0  0  0  0  0  0  0  0  0
  -24.6440  -11.8620   20.4760 C   0  0  0  0  0  0  0  0  0  0  0  0
  -26.2070  -13.1160   19.7170 N   0  0  0  0  0  0  0  0  0  0  0  0
  -25.8610  -11.8220   19.9500 N   0  0  0  0  0  0  0  0  0  0  0  0
  -23.9170  -10.6030   20.6950 C   0  0  0  0  0  0  0  0  0  0  0  0
  -24.4090   -9.6080   21.5680 C   0  0  0  0  0  3  0  0  0  0  0  0
  -23.6830   -8.4160   21.7780 C   0  0  0  0  0  3  0  0  0  0  0  0
  -22.4490   -8.2110   21.1170 C   0  0  0  0  0  0  0  0  0  0  0  0
  -21.9740   -9.1950   20.2310 C   0  0  0  0  0  3  0  0  0  0  0  0
  -22.7010  -10.3780   20.0190 C   0  0  0  0  0  3  0  0  0  0  0  0
  -21.6870   -7.0740   21.2420 O   0  0  0  0  0  0  0  0  0  0  0  0
  -21.6340   -6.3680   22.4170 C   0  0  0  0  0  0  0  0  0  0  0  0
  -21.2030   -6.9610   23.6240 C   0  0  0  0  0  3  0  0  0  0  0  0
  -21.0980   -6.1810   24.7920 C   0  0  0  0  0  3  0  0  0  0  0  0
  -21.4130   -4.8090   24.7550 C   0  0  0  0  0  0  0  0  0  0  0  0
  -21.8350   -4.2160   23.5530 C   0  0  0  0  0  3  0  0  0  0  0  0
  -21.9430   -4.9940   22.3870 C   0  0  0  0  0  0  0  0  0  0  0  0
  -22.3300   -4.4120   21.2260 F   0  0  0  0  0  0  0  0  0  0  0  0
  -21.3040   -4.0580   25.8770 F   0  0  0  0  0  0  0  0  0  0  0  0
  -22.9210  -13.6990   21.2200 C   0  0  0  0  0  0  0  0  0  0  0  0
  -22.3440  -12.9730   22.1710 N   0  0  0  0  0  0  0  0  0  0  0  0
  -22.4210  -14.7540   20.8330 O   0  0  0  0  0  0  0  0  0  0  0  0
  -22.7630  -12.1190   22.5060 H   0  0  0  0  0  0  0  0  0  0  0  0
  -21.4690  -13.2790   22.5720 H   0  0  0  0  0  0  0  0  0  0  0  0
  -25.4250  -15.3710   20.0820 N   0  0  0  0  0  0  0  0  0  0  0  0
  -24.7070  -16.0310   20.3620 H   0  0  0  0  0  0  0  0  0  0  0  0
  -26.2110  -15.8160   19.6270 H   0  0  0  0  0  0  0  0  0  0  0  0
  -30.8170  -20.2660   16.3900 C   0  0  0  0  0  2  0  0  0  0  0  0
  -30.3320  -19.3590   17.2560 C   0  0  0  0  0  3  0  0  0  0  0  0
  -28.8870  -23.8220   20.1960 C   0  0  0  0  0  3  0  0  0  0  0  0
  -28.7220  -22.6510   20.7550 N   0  0  0  0  0  0  0  0  0  0  0  0
  -28.4270  -25.1620   20.9110 C   0  0  0  0  0  2  0  0  0  0  0  0
  -28.6890  -26.5040   20.3220 O   0  0  0  0  0  0  0  0  0  0  0  0
  -24.5910  -31.6690   23.2900 C   0  0  0  0  0  0  0  0  0  0  0  0
  -27.5710  -27.3450   20.2470 C   0  0  0  0  0  0  0  0  0  0  0  0
  -23.5450  -30.2750   21.5410 C   0  0  0  0  0  3  0  0  0  0  0  0
  -25.1440  -28.8470   20.1460 C   0  0  0  0  0  0  0  0  0  0  0  0
  -26.0710  -30.7190   21.5070 C   0  0  0  0  0  2  0  0  0  0  0  0
  -26.2540  -29.3700   20.8240 C   0  0  0  0  0  0  0  0  0  0  0  0
  -27.4750  -28.6310   20.8650 C   0  0  0  0  0  3  0  0  0  0  0  0
  -26.4450  -26.8800   19.5350 C   0  0  0  0  0  3  0  0  0  0  0  0
  -25.2420  -27.6090   19.4910 C   0  0  0  0  0  3  0  0  0  0  0  0
  -23.8650  -29.6590   20.1540 C   0  0  0  0  0  2  0  0  0  0  0  0
  -24.7500  -30.9040   22.1710 N   0  0  0  0  0  0  0  0  0  0  0  0
  -23.4690  -31.8770   23.7740 O   0  0  0  0  0  0  0  0  0  0  0  0
  -22.8820  -29.1950   22.4300 C   0  0  0  0  0  0  0  0  0  0  0  0
  -21.5670  -28.9850   22.2480 N   0  0  0  0  0  0  0  0  0  0  0  0
  -23.5510  -28.5520   23.2430 O   0  0  0  0  0  0  0  0  0  0  0  0
  -21.0840  -29.5580   21.5710 H   0  0  0  0  0  0  0  0  0  0  0  0
  -18.2040  -27.7020   22.6100 C   0  0  0  0  0  0  0  0  0  0  0  0
  -20.7510  -27.9900   22.9470 C   0  0  0  0  0  3  0  0  0  0  0  0
  -20.8910  -26.5960   22.2930 C   0  0  0  0  0  2  0  0  0  0  0  0
  -19.8160  -26.3140   21.2390 C   0  0  0  0  0  2  0  0  0  0  0  0
  -18.4190  -26.3980   21.8610 C   0  0  0  0  0  2  0  0  0  0  0  0
  -19.3010  -28.4580   23.1060 C   0  0  0  0  0  0  0  0  0  0  0  0
  -19.0460  -29.6800   23.7650 C   0  0  0  0  0  3  0  0  0  0  0  0
  -17.7300  -30.1490   23.9330 C   0  0  0  0  0  3  0  0  0  0  0  0
  -16.6480  -29.3890   23.4540 C   0  0  0  0  0  3  0  0  0  0  0  0
  -16.8860  -28.1680   22.7980 C   0  0  0  0  0  3  0  0  0  0  0  0
  -25.8080  -32.3380   24.0010 C   0  0  0  0  0  3  0  0  0  0  0  0
  -25.4300  -33.7230   24.3190 N   0  0  0  0  0  0  0  0  0  0  0  0
  -25.7660  -34.7930   23.5860 C   0  0  0  0  0  0  0  0  0  0  0  0
  -26.4960  -34.7200   22.5940 O   0  0  0  0  0  0  0  0  0  0  0  0
  -24.7890  -33.8510   25.0890 H   0  0  0  0  0  0  0  0  0  0  0  0
  -23.9940  -36.5220   23.1460 C   0  0  0  0  0  1  0  0  0  0  0  0
  -25.2040  -36.1590   24.0220 C   0  0  0  0  0  3  0  0  0  0  0  0
  -27.2540  -37.1180   24.9720 C   0  0  0  0  0  1  0  0  0  0  0  0
  -26.2010  -37.2500   23.9700 N   0  0  0  0  0  0  0  0  0  0  0  0
  -25.7520  -38.1530   24.0980 H   0  0  0  0  0  0  0  0  0  0  0  0
  -26.2640  -31.5740   25.3030 C   0  0  1  0  0  0  0  0  0  0  0  0
  -25.1100  -31.2860   26.2920 C   0  0  0  0  0  1  0  0  0  0  0  0
  -26.9230  -30.2210   24.9450 C   0  0  0  0  0  1  0  0  0  0  0  0
  -27.3350  -32.4020   26.0510 C   0  0  0  0  0  1  0  0  0  0  0  0
  -29.1970  -17.9150   21.8410 O   0  0  0  0  0  0  0  0  0  0  0  0
  -30.3580  -17.7040   22.6340 C   0  0  0  0  0  2  0  0  0  0  0  0
  -31.9320  -16.0110   21.6010 C   0  0  0  0  0  2  0  0  0  0  0  0
  -30.8820  -16.3070   22.3850 C   0  0  0  0  0  3  0  0  0  0  0  0
  1  5  1  0
  3  1  2  0
  3  4  1  0
  4  6  2  0
  5 50  1  0
  5  2  2  0
  6  2  1  0
  6 93  1  0
  7 16  1  0
  8 13  1  0
  9 10  1  0
  9  8  1  0
 11 10  1  0
 11 22  1  0
 11 12  1  0
 13  7  1  0
 13 12  1  0
 14  7  2  0
 15 16  1  0
 15  4  1  0
 16 18  1  0
 17 15  2  0
 19 20  2  0
 20 39  1  0
 21 20  1  0
 21 24  1  0
 22 23  1  0
 22 19  1  0
 23 21  2  0
 24 25  1  0
 25 26  2  0
 27 30  1  0
 27 26  1  0
 28 27  2  0
 29 28  1  0
 29 24  2  0
 30 31  1  0
 31 32  1  0
 32 33  2  0
 34 33  1  0
 34 38  1  0
 35 34  2  0
 36 31  2  0
 36 35  1  0
 37 36  1  0
 39 40  1  0
 40 42  1  0
 40 43  1  0
 41 39  2  0
 44 19  1  0
 44 45  1  0
 46 44  1  0
 47 48  2  0
 48  3  1  0
 49 50  2  0
 49 51  1  0
 52 51  1  0
 53 64  2  0
 54 52  1  0
 54 59  1  0
 55 63  1  0
 55 65  1  0
 56 62  1  0
 56 58  1  0
 57 63  1  0
 58 59  2  0
 58 57  1  0
 60 54  2  0
 61 60  1  0
 61 56  2  0
 62 55  1  0
 63 53  1  0
 65 67  2  0
 66 65  1  0
 68 66  1  0
 69 78  2  0
 69 74  1  0
 70 66  1  0
 70 74  1  0
 71 70  1  0
 72 73  1  0
 72 71  1  0
 73 69  1  0
 74 75  2  0
 75 76  1  0
 77 76  2  0
 78 77  1  0
 79 53  1  0
 79 80  1  0
 79 89  1  0
 80 83  1  0
 81 85  1  0
 81 80  1  0
 82 81  2  0
 85 84  1  0
 87 85  1  0
 87 88  1  0
 87 86  1  0
 89 92  1  1
 89 90  1  0
 91 89  1  0
 93 94  1  0
 95 96  2  0
 96 94  1  0
M  ISO  4   7 100  16 100  51 101  52 101
M  END
>  <TORSDO>  (87) 
F 22

>  <SCORE>  (87) 
-9.550

>  <name>  (87) 
86

>  <ligand_id>  (87) 
86

>  <original_smiles>  (87) 
[H]C(=Nc1c([H])c(OC([H])([H])C([H])=C([H])[H])c(C(=O)N([H])C(=O)N2C([H])([H])C([H])([H])C([H])([H])C([H])(n3nc(-c4c([H])c([H])c(Oc5c([H])c([H])c(F)c([H])c5F)c([H])c4[H])c(C(=O)N([H])[H])c3N([H])[H])C2([H])[H])c(C([H])=C([H])[H])c1[H])C([H])([H])Oc1c([H])c([H])c2c(c1[H])C([H])([H])N(C(=O)C([H])(N([H])C(=O)C([H])(N([H])C([H])([H])[H])C([H])([H])[H])C(C([H])([H])[H])(C([H])([H])[H])C([H])([H])[H])C([H])(C(=O)N([H])C1([H])c3c([H])c([H])c([H])c([H])c3C([H])([H])C([H])([H])C1([H])[H])C2([H])[H]

>  <smiles>  (87) 
[H]C(=Nc1c([H])c(OC([H])([H])C([H])=C([H])[H])c(C(=O)N([H])C(=O)N2C([H])([H])C([H])([H])C([H])([H])C([H])(n3nc(-c4c([H])c([H])c(Oc5c([H])c([H])c(F)c([H])c5F)c([H])c4[H])c(C(=O)N([H])[H])c3N([H])[H])C2([H])[H])c(C([H])=C([H])[H])c1[H])C([H])([H])Oc1c([H])c([H])c2c(c1[H])C([H])([H])N(C(=O)C([H])(N([H])C(=O)C([H])(N([H])C([H])([H])[H])C([H])([H])[H])C(C([H])([H])[H])(C([H])([H])[H])C([H])([H])[H])C([H])(C(=O)N([H])C1([H])c3c([H])c([H])c([H])c([H])c3C([H])([H])C([H])([H])C1([H])[H])C2([H])[H]

$$$$
87:0:0
     RDKit          3D

 94102  0  0  1  0  0  0  0  0999 V2000
  -30.2970  -19.1470   20.3650 C   0  0  0  0  0  3  0  0  0  0  0  0
  -30.7040  -17.2760   22.4090 C   0  0  0  0  0  3  0  0  0  0  0  0
  -30.2170  -17.7570   20.0600 C   0  0  0  0  0  0  0  0  0  0  0  0
  -30.4380  -16.8070   21.1050 C   0  0  0  0  0  0  0  0  0  0  0  0
  -30.5600  -19.6120   21.6780 C   0  0  0  0  0  0  0  0  0  0  0  0
  -30.7620  -18.6530   22.6900 C   0  0  0  0  0  0  0  0  0  0  0  0
  -31.0000  -19.0590   23.9620 F   0  0  0  0  0  0  0  0  0  0  0  0
  -30.9310  -14.4740   20.2770 C   0  0  0  0  0  0  0  0  0  0  0  0
  -30.5920  -12.3770   19.0160 C   0  0  0  0  0  2  0  0  0  0  0  0
  -29.6150  -12.6530   17.8540 C   0  0  0  0  0  2  0  0  0  0  0  0
  -28.1490  -12.5240   18.3150 C   0  0  0  0  0  2  0  0  0  0  0  0
  -27.8650  -13.3030   19.6260 C   0  0  0  0  0  3  0  0  0  0  0  0
  -28.9410  -12.9810   20.6890 C   0  0  0  0  0  2  0  0  0  0  0  0
  -30.2620  -13.3000   20.1110 N   0  0  0  0  0  0  0  0  0  0  0  0
  -32.0230  -14.7120   19.7500 O   0  0  0  0  0  0  0  0  0  0  0  0
  -30.2430  -15.3960   20.9780 N   0  0  0  0  0  0  0  0  0  0  0  0
  -29.4480  -15.0190   21.4730 H   0  0  0  0  0  0  0  0  0  0  0  0
  -25.4800  -13.9360   20.3640 C   0  0  0  0  0  0  0  0  0  0  0  0
  -24.4130  -13.1750   20.7570 C   0  0  0  0  0  0  0  0  0  0  0  0
  -24.8630  -11.8190   20.7270 C   0  0  0  0  0  0  0  0  0  0  0  0
  -26.5150  -13.0460   20.1240 N   0  0  0  0  0  0  0  0  0  0  0  0
  -26.1470  -11.7680   20.3960 N   0  0  0  0  0  0  0  0  0  0  0  0
  -24.1310  -10.5640   20.9410 C   0  0  0  0  0  0  0  0  0  0  0  0
  -24.5690   -9.6070   21.8810 C   0  0  0  0  0  3  0  0  0  0  0  0
  -23.8420   -8.4130   22.0810 C   0  0  0  0  0  3  0  0  0  0  0  0
  -22.6610   -8.1700   21.3390 C   0  0  0  0  0  0  0  0  0  0  0  0
  -22.2430   -9.1160   20.3860 C   0  0  0  0  0  3  0  0  0  0  0  0
  -22.9720  -10.3000   20.1860 C   0  0  0  0  0  3  0  0  0  0  0  0
  -21.9030   -7.0290   21.4470 O   0  0  0  0  0  0  0  0  0  0  0  0
  -21.8460   -6.3120   22.6150 C   0  0  0  0  0  0  0  0  0  0  0  0
  -21.4250   -6.8980   23.8290 C   0  0  0  0  0  3  0  0  0  0  0  0
  -21.3120   -6.1070   24.9900 C   0  0  0  0  0  3  0  0  0  0  0  0
  -21.6100   -4.7320   24.9390 C   0  0  0  0  0  0  0  0  0  0  0  0
  -22.0240   -4.1460   23.7300 C   0  0  0  0  0  3  0  0  0  0  0  0
  -22.1390   -4.9340   22.5700 C   0  0  0  0  0  0  0  0  0  0  0  0
  -22.5170   -4.3600   21.4030 F   0  0  0  0  0  0  0  0  0  0  0  0
  -21.4950   -3.9720   26.0520 F   0  0  0  0  0  0  0  0  0  0  0  0
  -23.0230  -13.6620   21.0530 C   0  0  0  0  0  0  0  0  0  0  0  0
  -22.3110  -12.9820   21.9460 N   0  0  0  0  0  0  0  0  0  0  0  0
  -22.5760  -14.6810   20.5270 O   0  0  0  0  0  0  0  0  0  0  0  0
  -22.6860  -12.1580   22.3920 H   0  0  0  0  0  0  0  0  0  0  0  0
  -21.3800  -13.2890   22.1870 H   0  0  0  0  0  0  0  0  0  0  0  0
  -25.6530  -15.3040   20.1760 N   0  0  0  0  0  0  0  0  0  0  0  0
  -24.8960  -15.9680   20.3040 H   0  0  0  0  0  0  0  0  0  0  0  0
  -26.5050  -15.7350   19.8380 H   0  0  0  0  0  0  0  0  0  0  0  0
  -29.5110  -18.1250   17.6530 C   0  0  0  0  0  2  0  0  0  0  0  0
  -29.8330  -17.3320   18.6920 C   0  0  0  0  0  3  0  0  0  0  0  0
  -30.5920  -20.9410   22.0740 O   0  0  0  0  0  0  0  0  0  0  0  0
  -30.7970  -22.0210   21.1500 C   0  0  0  0  0  2  0  0  0  0  0  0
  -29.5170  -22.8870   21.0080 C   0  0  0  0  0  2  0  0  0  0  0  0
  -29.7340  -24.3860   20.6820 C   0  0  0  0  0  0  0  0  0  0  0  0
  -30.8410  -24.9260   20.7700 O   0  0  0  0  0  0  0  0  0  0  0  0
  -28.4900  -25.1820   20.2430 C   0  0  0  0  0  2  0  0  0  0  0  0
  -28.6350  -26.6100   20.4160 O   0  0  0  0  0  0  0  0  0  0  0  0
  -24.6580  -31.8100   23.2560 C   0  0  0  0  0  0  0  0  0  0  0  0
  -27.4620  -27.3460   20.3340 C   0  0  0  0  0  0  0  0  0  0  0  0
  -23.5270  -30.3650   21.6010 C   0  0  0  0  0  3  0  0  0  0  0  0
  -25.0480  -28.8340   20.2440 C   0  0  0  0  0  0  0  0  0  0  0  0
  -26.0570  -30.7550   21.4820 C   0  0  0  0  0  2  0  0  0  0  0  0
  -26.1820  -29.3770   20.8610 C   0  0  0  0  0  0  0  0  0  0  0  0
  -27.3920  -28.6420   20.9010 C   0  0  0  0  0  3  0  0  0  0  0  0
  -26.3050  -26.8290   19.7020 C   0  0  0  0  0  3  0  0  0  0  0  0
  -25.1060  -27.5580   19.6620 C   0  0  0  0  0  3  0  0  0  0  0  0
  -23.7910  -29.6730   20.2380 C   0  0  0  0  0  2  0  0  0  0  0  0
  -24.7640  -30.9920   22.1700 N   0  0  0  0  0  0  0  0  0  0  0  0
  -23.5550  -32.0710   23.7560 O   0  0  0  0  0  0  0  0  0  0  0  0
  -22.8620  -29.3460   22.5550 C   0  0  0  0  0  0  0  0  0  0  0  0
  -21.5470  -29.1320   22.3810 N   0  0  0  0  0  0  0  0  0  0  0  0
  -23.5270  -28.7500   23.4070 O   0  0  0  0  0  0  0  0  0  0  0  0
  -21.0710  -29.6640   21.6660 H   0  0  0  0  0  0  0  0  0  0  0  0
  -18.1850  -27.8610   22.7590 C   0  0  0  0  0  0  0  0  0  0  0  0
  -20.7210  -28.1920   23.1380 C   0  0  0  0  0  3  0  0  0  0  0  0
  -20.8860  -26.7500   22.6030 C   0  0  0  0  0  2  0  0  0  0  0  0
  -19.8390  -26.3750   21.5490 C   0  0  0  0  0  2  0  0  0  0  0  0
  -18.4260  -26.5000   22.1280 C   0  0  0  0  0  2  0  0  0  0  0  0
  -19.2640  -28.6610   23.2190 C   0  0  0  0  0  0  0  0  0  0  0  0
  -18.9880  -29.9330   23.7660 C   0  0  0  0  0  3  0  0  0  0  0  0
  -17.6650  -30.4050   23.8600 C   0  0  0  0  0  3  0  0  0  0  0  0
  -16.6000  -29.6020   23.4180 C   0  0  0  0  0  3  0  0  0  0  0  0
  -16.8600  -28.3320   22.8730 C   0  0  0  0  0  3  0  0  0  0  0  0
  -25.9130  -32.4710   23.9050 C   0  0  0  0  0  3  0  0  0  0  0  0
  -25.5680  -33.8640   24.2150 N   0  0  0  0  0  0  0  0  0  0  0  0
  -25.8920  -34.9150   23.4500 C   0  0  0  0  0  0  0  0  0  0  0  0
  -26.5860  -34.8150   22.4330 O   0  0  0  0  0  0  0  0  0  0  0  0
  -24.9530  -34.0130   25.0010 H   0  0  0  0  0  0  0  0  0  0  0  0
  -24.1230  -36.6560   23.0510 C   0  0  0  0  0  1  0  0  0  0  0  0
  -25.3660  -36.2960   23.8820 C   0  0  0  0  0  3  0  0  0  0  0  0
  -27.4680  -37.2460   24.7220 C   0  0  0  0  0  1  0  0  0  0  0  0
  -26.3720  -37.3730   23.7650 N   0  0  0  0  0  0  0  0  0  0  0  0
  -25.9420  -38.2840   23.8960 H   0  0  0  0  0  0  0  0  0  0  0  0
  -26.4130  -31.7170   25.2000 C   0  0  1  0  0  0  0  0  0  0  0  0
  -25.2980  -31.4610   26.2400 C   0  0  0  0  0  1  0  0  0  0  0  0
  -27.0350  -30.3490   24.8310 C   0  0  0  0  0  1  0  0  0  0  0  0
  -27.5300  -32.5380   25.8850 C   0  0  0  0  0  1  0  0  0  0  0  0
  1  5  1  0
  2  6  1  0
  3  1  2  0
  3  4  1  0
  4  2  2  0
  5 48  1  0
  5  6  2  0
  6  7  1  0
  8 16  1  0
  9 14  1  0
 10 11  1  0
 10  9  1  0
 12 11  1  0
 12 21  1  0
 12 13  1  0
 14  8  1  0
 14 13  1  0
 15  8  2  0
 16  4  1  0
 16 17  1  0
 18 19  2  0
 19 38  1  0
 20 19  1  0
 20 23  1  0
 21 18  1  0
 21 22  1  0
 22 20  2  0
 23 24  1  0
 24 25  2  0
 26 29  1  0
 26 25  1  0
 27 26  2  0
 28 27  1  0
 28 23  2  0
 29 30  1  0
 30 31  1  0
 31 32  2  0
 33 32  1  0
 33 37  1  0
 34 33  2  0
 35 30  2  0
 35 34  1  0
 36 35  1  0
 38 39  1  0
 39 42  1  0
 39 41  1  0
 40 38  2  0
 43 44  1  0
 43 18  1  0
 45 43  1  0
 46 47  2  0
 47  3  1  0
 49 48  1  0
 50 49  1  0
 51 52  2  0
 51 50  1  0
 53 54  1  0
 53 51  1  0
 55 66  2  0
 56 54  1  0
 56 61  1  0
 57 65  1  0
 57 67  1  0
 58 60  1  0
 59 65  1  0
 60 61  2  0
 60 59  1  0
 62 56  2  0
 63 62  1  0
 63 58  2  0
 64 58  1  0
 64 57  1  0
 65 55  1  0
 67 69  2  0
 68 67  1  0
 70 68  1  0
 71 80  2  0
 71 76  1  0
 72 68  1  0
 72 76  1  0
 73 72  1  0
 74 75  1  0
 74 73  1  0
 75 71  1  0
 76 77  2  0
 77 78  1  0
 79 78  2  0
 80 79  1  0
 81 55  1  0
 81 82  1  0
 81 91  1  0
 82 85  1  0
 83 87  1  0
 83 82  1  0
 84 83  2  0
 87 86  1  0
 89 87  1  0
 89 90  1  0
 89 88  1  0
 91 94  1  1
 91 92  1  0
 93 91  1  0
M  ISO  4   8 100  16 100  53 101  54 101
M  END
>  <TORSDO>  (88) 
F 22

>  <SCORE>  (88) 
-12.931

>  <name>  (88) 
87

>  <ligand_id>  (88) 
87

>  <original_smiles>  (88) 
[H]C([H])=C([H])c1c([H])c(OC([H])([H])C([H])([H])C(=O)C([H])([H])Oc2c([H])c([H])c3c(c2[H])C([H])([H])N(C(=O)C([H])(N([H])C(=O)C([H])(N([H])C([H])([H])[H])C([H])([H])[H])C(C([H])([H])[H])(C([H])([H])[H])C([H])([H])[H])C([H])(C(=O)N([H])C2([H])c4c([H])c([H])c([H])c([H])c4C([H])([H])C([H])([H])C2([H])[H])C3([H])[H])c(F)c([H])c1N([H])C(=O)N1C([H])([H])C([H])([H])C([H])([H])C([H])(n2nc(-c3c([H])c([H])c(Oc4c([H])c([H])c(F)c([H])c4F)c([H])c3[H])c(C(=O)N([H])[H])c2N([H])[H])C1([H])[H]

>  <smiles>  (88) 
[H]C([H])=C([H])c1c([H])c(OC([H])([H])C([H])([H])C(=O)C([H])([H])Oc2c([H])c([H])c3c(c2[H])C([H])([H])N(C(=O)C([H])(N([H])C(=O)C([H])(N([H])C([H])([H])[H])C([H])([H])[H])C(C([H])([H])[H])(C([H])([H])[H])C([H])([H])[H])C([H])(C(=O)N([H])C2([H])c4c([H])c([H])c([H])c([H])c4C([H])([H])C([H])([H])C2([H])[H])C3([H])[H])c(F)c([H])c1N([H])C(=O)N1C([H])([H])C([H])([H])C([H])([H])C([H])(n2nc(-c3c([H])c([H])c(Oc4c([H])c([H])c(F)c([H])c4F)c([H])c3[H])c(C(=O)N([H])[H])c2N([H])[H])C1([H])[H]

$$$$
88:0:0
     RDKit          3D

102112  0  0  1  0  0  0  0  0999 V2000
  -30.5860  -21.3380   20.7410 C   0  0  0  0  0  3  0  0  0  0  0  0
  -30.1140  -22.6380   20.9810 C   0  0  0  0  0  3  0  0  0  0  0  0
  -32.1750  -23.5530   20.0750 C   0  0  0  0  0  3  0  0  0  0  0  0
  -32.6530  -22.2450   19.8250 C   0  0  0  0  0  0  0  0  0  0  0  0
  -31.8280  -21.1190   20.1020 C   0  0  0  0  0  0  0  0  0  0  0  0
  -30.8790  -23.7560   20.6060 C   0  0  0  0  0  0  0  0  0  0  0  0
  -34.0060  -22.0660   19.2400 C   0  0  0  0  0  0  0  0  0  0  0  0
  -34.4530  -20.6240   19.0370 C   0  0  0  0  0  2  0  0  0  0  0  0
  -33.2550  -19.7120   18.7320 C   0  0  0  0  0  2  0  0  0  0  0  0
  -32.1780  -19.8000   19.7260 N   0  0  0  0  0  0  0  0  0  0  0  0
  -34.7660  -22.9950   18.9390 O   0  0  0  0  0  0  0  0  0  0  0  0
  -31.0760  -17.6770   20.2820 C   0  0  0  0  0  3  0  0  0  0  0  0
  -30.3020  -19.0020   18.3850 C   0  0  0  0  0  3  0  0  0  0  0  0
  -29.1400  -16.9470   18.9770 C   0  0  0  0  0  3  0  0  0  0  0  0
  -31.1980  -18.8230   19.4640 C   0  0  0  0  0  0  0  0  0  0  0  0
  -30.0520  -16.7290   20.0320 C   0  0  0  0  0  0  0  0  0  0  0  0
  -29.2750  -18.0730   18.1460 C   0  0  0  0  0  0  0  0  0  0  0  0
  -28.4170  -18.2630   17.1150 F   0  0  0  0  0  0  0  0  0  0  0  0
  -30.6770  -14.4710   20.5030 C   0  0  0  0  0  0  0  0  0  0  0  0
  -30.3500  -12.3230   19.3800 C   0  0  0  0  0  2  0  0  0  0  0  0
  -29.4190  -12.5590   18.1740 C   0  0  0  0  0  2  0  0  0  0  0  0
  -27.9430  -12.4220   18.5950 C   0  0  0  0  0  2  0  0  0  0  0  0
  -27.6030  -13.2560   19.8590 C   0  0  0  0  0  3  0  0  0  0  0  0
  -28.6540  -13.0390   20.9730 C   0  0  0  0  0  2  0  0  0  0  0  0
  -29.9880  -13.3060   20.4100 N   0  0  0  0  0  0  0  0  0  0  0  0
  -31.8420  -14.6070   20.1230 O   0  0  0  0  0  0  0  0  0  0  0  0
  -29.9300  -15.5410   20.8020 N   0  0  0  0  0  0  0  0  0  0  0  0
  -28.9970  -15.3010   21.0980 H   0  0  0  0  0  0  0  0  0  0  0  0
  -25.1990  -13.8720   20.5460 C   0  0  0  0  0  0  0  0  0  0  0  0
  -24.1260  -13.1010   20.9050 C   0  0  0  0  0  0  0  0  0  0  0  0
  -24.5860  -11.7500   20.8770 C   0  0  0  0  0  0  0  0  0  0  0  0
  -26.2460  -12.9880   20.3290 N   0  0  0  0  0  0  0  0  0  0  0  0
  -25.8790  -11.7080   20.5850 N   0  0  0  0  0  0  0  0  0  0  0  0
  -23.8560  -10.4880   21.0580 C   0  0  0  0  0  0  0  0  0  0  0  0
  -24.2710   -9.5250   22.0000 C   0  0  0  0  0  3  0  0  0  0  0  0
  -23.5430   -8.3280   22.1710 C   0  0  0  0  0  3  0  0  0  0  0  0
  -22.3850   -8.0870   21.3970 C   0  0  0  0  0  0  0  0  0  0  0  0
  -21.9880   -9.0390   20.4410 C   0  0  0  0  0  3  0  0  0  0  0  0
  -22.7180  -10.2280   20.2700 C   0  0  0  0  0  3  0  0  0  0  0  0
  -21.6300   -6.9400   21.4750 O   0  0  0  0  0  0  0  0  0  0  0  0
  -21.5530   -6.2070   22.6310 C   0  0  0  0  0  0  0  0  0  0  0  0
  -21.0560   -6.7600   23.8310 C   0  0  0  0  0  3  0  0  0  0  0  0
  -20.9250   -5.9520   24.9770 C   0  0  0  0  0  3  0  0  0  0  0  0
  -21.2840   -4.5920   24.9250 C   0  0  0  0  0  0  0  0  0  0  0  0
  -21.7750   -4.0390   23.7290 C   0  0  0  0  0  3  0  0  0  0  0  0
  -21.9070   -4.8440   22.5840 C   0  0  0  0  0  0  0  0  0  0  0  0
  -22.3590   -4.3010   21.4270 F   0  0  0  0  0  0  0  0  0  0  0  0
  -21.1530   -3.8120   26.0230 F   0  0  0  0  0  0  0  0  0  0  0  0
  -22.7260  -13.5810   21.1620 C   0  0  0  0  0  0  0  0  0  0  0  0
  -21.9850  -12.8810   22.0120 N   0  0  0  0  0  0  0  0  0  0  0  0
  -22.2970  -14.6100   20.6430 O   0  0  0  0  0  0  0  0  0  0  0  0
  -22.3490  -12.0500   22.4550 H   0  0  0  0  0  0  0  0  0  0  0  0
  -21.0430  -13.1790   22.2210 H   0  0  0  0  0  0  0  0  0  0  0  0
  -25.3640  -15.2420   20.3680 N   0  0  0  0  0  0  0  0  0  0  0  0
  -24.5830  -15.8830   20.4550 H   0  0  0  0  0  0  0  0  0  0  0  0
  -26.2050  -15.6890   20.0270 H   0  0  0  0  0  0  0  0  0  0  0  0
  -30.6760  -26.2600   20.4830 C   0  0  0  0  0  0  0  0  0  0  0  0
  -30.2450  -25.0170   20.7430 N   0  0  0  0  0  0  0  0  0  0  0  0
  -31.8490  -26.5670   20.2470 O   0  0  0  0  0  0  0  0  0  0  0  0
  -29.2580  -24.9900   20.9590 H   0  0  0  0  0  0  0  0  0  0  0  0
  -29.5870  -27.3390   20.5430 C   0  0  0  0  0  2  0  0  0  0  0  0
  -28.3360  -26.7600   20.1510 O   0  0  0  0  0  0  0  0  0  0  0  0
  -24.5580  -31.9820   23.2520 C   0  0  0  0  0  0  0  0  0  0  0  0
  -27.1980  -27.5340   20.2110 C   0  0  0  0  0  0  0  0  0  0  0  0
  -23.3360  -30.5650   21.6280 C   0  0  0  0  0  3  0  0  0  0  0  0
  -24.7820  -29.0030   20.2240 C   0  0  0  0  0  0  0  0  0  0  0  0
  -25.8560  -30.9260   21.4100 C   0  0  0  0  0  2  0  0  0  0  0  0
  -25.9380  -29.5480   20.7940 C   0  0  0  0  0  0  0  0  0  0  0  0
  -27.1460  -28.8240   20.7880 C   0  0  0  0  0  3  0  0  0  0  0  0
  -26.0200  -26.9890   19.6580 C   0  0  0  0  0  3  0  0  0  0  0  0
  -24.8140  -27.7180   19.6560 C   0  0  0  0  0  3  0  0  0  0  0  0
  -23.5380  -29.8620   20.2590 C   0  0  0  0  0  2  0  0  0  0  0  0
  -24.6020  -31.1730   22.1550 N   0  0  0  0  0  0  0  0  0  0  0  0
  -23.4820  -32.2650   23.7960 O   0  0  0  0  0  0  0  0  0  0  0  0
  -22.6840  -29.5600   22.6030 C   0  0  0  0  0  0  0  0  0  0  0  0
  -21.3620  -29.3710   22.4670 N   0  0  0  0  0  0  0  0  0  0  0  0
  -23.3630  -28.9520   23.4340 O   0  0  0  0  0  0  0  0  0  0  0  0
  -20.8760  -29.9160   21.7690 H   0  0  0  0  0  0  0  0  0  0  0  0
  -17.9870  -28.1910   22.9620 C   0  0  0  0  0  0  0  0  0  0  0  0
  -20.5420  -28.4460   23.2480 C   0  0  0  0  0  3  0  0  0  0  0  0
  -20.6450  -27.0060   22.6900 C   0  0  0  0  0  2  0  0  0  0  0  0
  -19.5480  -26.6720   21.6740 C   0  0  0  0  0  2  0  0  0  0  0  0
  -18.1630  -26.8310   22.3080 C   0  0  0  0  0  2  0  0  0  0  0  0
  -19.1030  -28.9560   23.3880 C   0  0  0  0  0  0  0  0  0  0  0  0
  -18.8840  -30.2300   23.9570 C   0  0  0  0  0  3  0  0  0  0  0  0
  -17.5800  -30.7370   24.1070 C   0  0  0  0  0  3  0  0  0  0  0  0
  -16.4770  -29.9680   23.6980 C   0  0  0  0  0  3  0  0  0  0  0  0
  -16.6810  -28.6970   23.1310 C   0  0  0  0  0  3  0  0  0  0  0  0
  -25.8530  -32.6090   23.8600 C   0  0  0  0  0  3  0  0  0  0  0  0
  -26.3850  -31.8340   25.1280 C   0  0  1  0  0  0  0  0  0  0  0  0
  -25.2930  -31.5540   26.1860 C   0  0  0  0  0  1  0  0  0  0  0  0
  -27.0020  -30.4760   24.7150 C   0  0  0  0  0  1  0  0  0  0  0  0
  -27.5130  -32.6460   25.8060 C   0  0  0  0  0  1  0  0  0  0  0  0
  -25.5560  -34.0080   24.1910 N   0  0  0  0  0  0  0  0  0  0  0  0
  -25.8870  -35.0560   23.4250 C   0  0  0  0  0  0  0  0  0  0  0  0
  -26.5470  -34.9480   22.3870 O   0  0  0  0  0  0  0  0  0  0  0  0
  -24.9710  -34.1680   25.0000 H   0  0  0  0  0  0  0  0  0  0  0  0
  -24.1670  -36.8540   23.0700 C   0  0  0  0  0  1  0  0  0  0  0  0
  -25.4060  -36.4460   23.8820 C   0  0  0  0  0  3  0  0  0  0  0  0
  -27.5500  -37.3140   24.7080 C   0  0  0  0  0  1  0  0  0  0  0  0
  -26.4420  -37.4970   23.7740 N   0  0  0  0  0  0  0  0  0  0  0  0
  -26.0380  -38.4140   23.9450 H   0  0  0  0  0  0  0  0  0  0  0  0
  1  2  1  0
  3  6  1  0
  4  3  2  0
  4  5  1  0
  5  1  2  0
  6 58  1  0
  6  2  2  0
  7  4  1  0
  8  7  1  0
  9  8  1  0
  9 10  1  0
 10  5  1  0
 11  7  2  0
 13 15  1  0
 14 16  2  0
 15 10  1  0
 15 12  2  0
 16 12  1  0
 16 27  1  0
 17 13  2  0
 17 14  1  0
 18 17  1  0
 19 27  1  0
 20 25  1  0
 21 22  1  0
 21 20  1  0
 23 22  1  0
 23 32  1  0
 23 24  1  0
 25 19  1  0
 25 24  1  0
 26 19  2  0
 27 28  1  0
 29 30  2  0
 30 49  1  0
 31 30  1  0
 31 34  1  0
 32 29  1  0
 32 33  1  0
 33 31  2  0
 34 35  1  0
 35 36  2  0
 37 40  1  0
 37 36  1  0
 38 37  2  0
 39 38  1  0
 39 34  2  0
 40 41  1  0
 41 42  1  0
 42 43  2  0
 44 43  1  0
 44 48  1  0
 45 44  2  0
 46 41  2  0
 46 45  1  0
 47 46  1  0
 49 50  1  0
 50 53  1  0
 50 52  1  0
 51 49  2  0
 54 55  1  0
 54 29  1  0
 56 54  1  0
 57 61  1  0
 57 58  1  0
 58 60  1  0
 59 57  2  0
 62 64  1  0
 62 61  1  0
 63 74  2  0
 64 69  1  0
 65 73  1  0
 65 75  1  0
 66 72  1  0
 66 68  1  0
 67 73  1  0
 68 67  1  0
 69 68  2  0
 70 64  2  0
 71 70  1  0
 71 66  2  0
 72 65  1  0
 73 63  1  0
 75 77  2  0
 76 75  1  0
 78 76  1  0
 79 88  2  0
 79 84  1  0
 80 76  1  0
 80 84  1  0
 81 80  1  0
 82 83  1  0
 82 81  1  0
 83 79  1  0
 84 85  2  0
 85 86  1  0
 87 86  2  0
 88 87  1  0
 89 63  1  0
 89 94  1  0
 89 90  1  0
 90 93  1  1
 90 91  1  0
 92 90  1  0
 94 97  1  0
 95 99  1  0
 95 94  1  0
 96 95  2  0
 99 98  1  0
101 99  1  0
101102  1  0
101100  1  0
M  ISO  4  19 100  27 100  61 101  62 101
M  END
>  <TORSDO>  (89) 
F 19

>  <SCORE>  (89) 
-14.665

>  <name>  (89) 
88

>  <ligand_id>  (89) 
88

>  <original_smiles>  (89) 
[H]c1c([H])c([H])c2c(c1[H])C([H])([H])C([H])([H])C([H])([H])C2([H])N([H])C(=O)C1([H])N(C(=O)C([H])(N([H])C(=O)C([H])(N([H])C([H])([H])[H])C([H])([H])[H])C(C([H])([H])[H])(C([H])([H])[H])C([H])([H])[H])C([H])([H])c2c([H])c(OC([H])([H])C(=O)N([H])c3c([H])c([H])c4c(c3[H])C(=O)C([H])([H])C([H])([H])N4c3c([H])c(F)c([H])c(N([H])C(=O)N4C([H])([H])C([H])([H])C([H])([H])C([H])(n5nc(-c6c([H])c([H])c(Oc7c([H])c([H])c(F)c([H])c7F)c([H])c6[H])c(C(=O)N([H])[H])c5N([H])[H])C4([H])[H])c3[H])c([H])c([H])c2C1([H])[H]

>  <smiles>  (89) 
[H]c1c([H])c([H])c2c(c1[H])C([H])([H])C([H])([H])C([H])([H])C2([H])N([H])C(=O)C1([H])N(C(=O)C([H])(N([H])C(=O)C([H])(N([H])C([H])([H])[H])C([H])([H])[H])C(C([H])([H])[H])(C([H])([H])[H])C([H])([H])[H])C([H])([H])c2c([H])c(OC([H])([H])C(=O)N([H])c3c([H])c([H])c4c(c3[H])C(=O)C([H])([H])C([H])([H])N4c3c([H])c(F)c([H])c(N([H])C(=O)N4C([H])([H])C([H])([H])C([H])([H])C([H])(n5nc(-c6c([H])c([H])c(Oc7c([H])c([H])c(F)c([H])c7F)c([H])c6[H])c(C(=O)N([H])[H])c5N([H])[H])C4([H])[H])c3[H])c([H])c([H])c2C1([H])[H]

$$$$
89:0:0
     RDKit          3D

 92100  0  0  1  0  0  0  0  0999 V2000
  -30.2650  -18.2010   20.6820 C   0  0  0  0  0  0  0  0  0  0  0  0
  -30.1820  -18.5290   22.0280 C   0  0  0  0  0  0  0  0  0  0  0  0
  -29.3610  -20.3330   20.5140 C   0  0  0  0  0  0  0  0  0  0  0  0
  -28.4350  -22.6710   20.3230 C   0  0  0  0  0  0  0  0  0  0  0  0
  -29.8010  -19.2510   19.8480 N   0  0  0  0  0  0  0  0  0  0  0  0
  -28.8750  -21.4920   19.8150 N   0  0  0  0  0  0  0  0  0  0  0  0
  -28.3980  -22.9010   21.5350 O   0  0  0  0  0  0  0  0  0  0  0  0
  -29.4680  -20.1210   22.2560 S   0  0  0  0  0  0  0  0  0  0  0  0
  -28.8710  -21.4190   18.8090 H   0  0  0  0  0  0  0  0  0  0  0  0
  -30.8050  -16.8920   20.1590 C   0  0  0  0  0  3  0  0  0  0  0  0
  -30.7670  -15.7260   20.7150 N   0  0  0  0  0  0  0  0  0  0  0  0
  -31.4020  -14.6720   20.0410 C   0  0  0  0  0  0  0  0  0  0  0  0
  -30.9380  -12.5330   18.8660 C   0  0  0  0  0  2  0  0  0  0  0  0
  -29.9440  -12.7940   17.7160 C   0  0  0  0  0  2  0  0  0  0  0  0
  -28.4930  -12.7080   18.2260 C   0  0  0  0  0  2  0  0  0  0  0  0
  -28.2630  -13.5470   19.5110 C   0  0  0  0  0  3  0  0  0  0  0  0
  -29.3650  -13.2700   20.5570 C   0  0  0  0  0  2  0  0  0  0  0  0
  -30.6670  -13.5260   19.9220 N   0  0  0  0  0  0  0  0  0  0  0  0
  -32.4920  -14.7720   19.4690 O   0  0  0  0  0  0  0  0  0  0  0  0
  -25.9680  -14.2620   20.4250 C   0  0  0  0  0  0  0  0  0  0  0  0
  -24.8720  -13.5380   20.8160 C   0  0  0  0  0  0  0  0  0  0  0  0
  -25.2320  -12.1640   20.6630 C   0  0  0  0  0  0  0  0  0  0  0  0
  -26.9280  -13.3300   20.0640 N   0  0  0  0  0  0  0  0  0  0  0  0
  -26.4940  -12.0590   20.2650 N   0  0  0  0  0  0  0  0  0  0  0  0
  -24.4310  -10.9420   20.8200 C   0  0  0  0  0  0  0  0  0  0  0  0
  -24.8300   -9.9020   21.6880 C   0  0  0  0  0  3  0  0  0  0  0  0
  -24.0320   -8.7460   21.8360 C   0  0  0  0  0  3  0  0  0  0  0  0
  -22.8220   -8.6240   21.1140 C   0  0  0  0  0  0  0  0  0  0  0  0
  -22.4400   -9.6510   20.2340 C   0  0  0  0  0  3  0  0  0  0  0  0
  -23.2370  -10.7990   20.0850 C   0  0  0  0  0  3  0  0  0  0  0  0
  -21.9970   -7.5260   21.1740 O   0  0  0  0  0  0  0  0  0  0  0  0
  -21.8960   -6.7620   22.3090 C   0  0  0  0  0  0  0  0  0  0  0  0
  -21.4970   -7.3140   23.5450 C   0  0  0  0  0  3  0  0  0  0  0  0
  -21.3390   -6.4810   24.6710 C   0  0  0  0  0  3  0  0  0  0  0  0
  -21.5730   -5.0960   24.5600 C   0  0  0  0  0  0  0  0  0  0  0  0
  -21.9660   -4.5440   23.3280 C   0  0  0  0  0  3  0  0  0  0  0  0
  -22.1250   -5.3750   22.2050 C   0  0  0  0  0  0  0  0  0  0  0  0
  -22.4840   -4.8350   21.0150 F   0  0  0  0  0  0  0  0  0  0  0  0
  -21.4130   -4.2930   25.6380 F   0  0  0  0  0  0  0  0  0  0  0  0
  -23.5330  -14.0870   21.2170 C   0  0  0  0  0  0  0  0  0  0  0  0
  -22.8310  -13.3970   22.1090 N   0  0  0  0  0  0  0  0  0  0  0  0
  -23.1230  -15.1580   20.7740 O   0  0  0  0  0  0  0  0  0  0  0  0
  -23.1780  -12.5270   22.4840 H   0  0  0  0  0  0  0  0  0  0  0  0
  -21.9350  -13.7440   22.4210 H   0  0  0  0  0  0  0  0  0  0  0  0
  -26.2200  -15.6260   20.3290 N   0  0  0  0  0  0  0  0  0  0  0  0
  -25.5220  -16.3290   20.5440 H   0  0  0  0  0  0  0  0  0  0  0  0
  -27.0960  -16.0210   20.0080 H   0  0  0  0  0  0  0  0  0  0  0  0
  -30.9240  -18.5120   24.4990 C   0  0  0  0  0  1  0  0  0  0  0  0
  -30.6120  -17.7140   23.2220 C   0  0  0  0  0  2  0  0  0  0  0  0
  -27.9550  -23.7740   19.3350 C   0  0  0  0  0  3  0  0  0  0  0  0
  -27.7910  -25.1990   19.9620 C   0  0  0  0  0  3  0  0  0  0  0  0
  -27.7160  -26.3060   19.0270 O   0  0  0  0  0  0  0  0  0  0  0  0
  -24.6370  -31.4600   22.9080 C   0  0  0  0  0  0  0  0  0  0  0  0
  -26.6330  -27.1480   19.2030 C   0  0  0  0  0  0  0  0  0  0  0  0
  -23.1950  -30.2800   21.3080 C   0  0  0  0  0  3  0  0  0  0  0  0
  -24.3670  -28.7950   19.5950 C   0  0  0  0  0  0  0  0  0  0  0  0
  -25.6910  -30.5130   20.8470 C   0  0  0  0  0  2  0  0  0  0  0  0
  -25.6160  -29.2000   20.0880 C   0  0  0  0  0  0  0  0  0  0  0  0
  -26.7560  -28.3850   19.8820 C   0  0  0  0  0  3  0  0  0  0  0  0
  -25.3720  -26.7680   18.7010 C   0  0  0  0  0  3  0  0  0  0  0  0
  -24.2410  -27.5840   18.8950 C   0  0  0  0  0  3  0  0  0  0  0  0
  -23.1960  -29.7130   19.8600 C   0  0  0  0  0  2  0  0  0  0  0  0
  -24.5360  -30.7590   21.7450 N   0  0  0  0  0  0  0  0  0  0  0  0
  -23.6350  -31.7400   23.5830 O   0  0  0  0  0  0  0  0  0  0  0  0
  -22.5860  -29.2230   22.2540 C   0  0  0  0  0  0  0  0  0  0  0  0
  -21.2600  -29.2020   22.2170 N   0  0  0  0  0  0  0  0  0  0  0  0
  -23.2760  -28.4590   22.9300 O   0  0  0  0  0  0  0  0  0  0  0  0
  -20.8490  -29.9490   21.6760 H   0  0  0  0  0  0  0  0  0  0  0  0
  -17.8210  -27.8480   22.7720 C   0  0  0  0  0  0  0  0  0  0  0  0
  -20.3000  -28.2030   22.6150 C   0  0  0  0  0  3  0  0  0  0  0  0
  -20.5150  -26.7110   22.3400 C   0  0  0  0  0  2  0  0  0  0  0  0
  -19.3550  -26.2090   21.4540 C   0  0  0  0  0  2  0  0  0  0  0  0
  -17.9720  -26.4880   22.0840 C   0  0  0  0  0  2  0  0  0  0  0  0
  -18.9480  -28.6260   23.1310 C   0  0  0  0  0  0  0  0  0  0  0  0
  -18.7790  -29.8660   23.7790 C   0  0  0  0  0  3  0  0  0  0  0  0
  -17.4840  -30.3570   24.0280 C   0  0  0  0  0  3  0  0  0  0  0  0
  -16.3610  -29.6040   23.6430 C   0  0  0  0  0  3  0  0  0  0  0  0
  -16.5280  -28.3470   23.0310 C   0  0  0  0  0  3  0  0  0  0  0  0
  -26.0140  -31.9600   23.4330 C   0  0  0  0  0  3  0  0  0  0  0  0
  -26.6540  -30.9940   24.5020 C   0  0  1  0  0  0  0  0  0  0  0  0
  -25.7020  -30.6360   25.6680 C   0  0  0  0  0  1  0  0  0  0  0  0
  -27.1090  -29.6720   23.8400 C   0  0  0  0  0  1  0  0  0  0  0  0
  -27.9200  -31.6480   25.1040 C   0  0  0  0  0  1  0  0  0  0  0  0
  -25.8090  -33.3010   23.9970 N   0  0  0  0  0  0  0  0  0  0  0  0
  -26.1190  -34.4420   23.3690 C   0  0  0  0  0  0  0  0  0  0  0  0
  -26.6820  -34.4720   22.2710 O   0  0  0  0  0  0  0  0  0  0  0  0
  -25.3000  -33.3530   24.8680 H   0  0  0  0  0  0  0  0  0  0  0  0
  -24.4600  -36.3320   23.4550 C   0  0  0  0  0  1  0  0  0  0  0  0
  -25.7470  -35.7620   24.0720 C   0  0  0  0  0  3  0  0  0  0  0  0
  -27.9910  -36.4290   24.8140 C   0  0  0  0  0  1  0  0  0  0  0  0
  -26.8190  -36.7800   24.0160 N   0  0  0  0  0  0  0  0  0  0  0  0
  -26.4760  -37.6820   24.3350 H   0  0  0  0  0  0  0  0  0  0  0  0
  1  2  2  0
  2  8  1  0
  2 49  1  0
  3  8  1  0
  4  7  2  0
  5  3  2  0
  5  1  1  0
  6  4  1  0
  6  3  1  0
  9  6  1  0
 10  1  1  0
 10 11  2  0
 12 11  1  0
 13 18  1  0
 14 15  1  0
 14 13  1  0
 16 15  1  0
 16 23  1  0
 16 17  1  0
 18 12  1  0
 18 17  1  0
 19 12  2  0
 20 21  2  0
 21 40  1  0
 22 21  1  0
 22 25  1  0
 23 24  1  0
 23 20  1  0
 24 22  2  0
 25 26  1  0
 26 27  2  0
 28 31  1  0
 28 27  1  0
 29 28  2  0
 30 29  1  0
 30 25  2  0
 31 32  1  0
 32 33  1  0
 33 34  2  0
 35 34  1  0
 35 39  1  0
 36 35  2  0
 37 32  2  0
 37 36  1  0
 38 37  1  0
 40 41  1  0
 41 44  1  0
 41 43  1  0
 42 40  2  0
 45 20  1  0
 45 46  1  0
 47 45  1  0
 49 48  1  0
 50 51  2  0
 50  4  1  0
 52 54  1  0
 52 51  1  0
 53 64  2  0
 54 59  1  0
 55 63  1  0
 55 65  1  0
 56 62  1  0
 56 58  1  0
 57 63  1  0
 58 57  1  0
 59 58  2  0
 60 61  1  0
 60 54  2  0
 61 56  2  0
 62 55  1  0
 63 53  1  0
 65 67  2  0
 66 65  1  0
 68 66  1  0
 69 78  2  0
 69 74  1  0
 70 66  1  0
 70 74  1  0
 71 70  1  0
 72 73  1  0
 72 71  1  0
 73 69  1  0
 74 75  2  0
 75 76  1  0
 77 76  2  0
 78 77  1  0
 79 53  1  0
 79 84  1  0
 79 80  1  0
 80 83  1  1
 80 81  1  0
 82 80  1  0
 84 87  1  0
 85 84  1  0
 85 89  1  0
 86 85  2  0
 89 88  1  0
 91 89  1  0
 91 92  1  0
 91 90  1  0
M  ISO  4  11 100  12 100  51 101  52 101
M  END
>  <TORSDO>  (90) 
F 20

>  <SCORE>  (90) 
-9.330

>  <name>  (90) 
89

>  <ligand_id>  (90) 
89

>  <original_smiles>  (90) 
[H]C(=NC(=O)N1C([H])([H])C([H])([H])C([H])([H])C([H])(n2nc(-c3c([H])c([H])c(Oc4c([H])c([H])c(F)c([H])c4F)c([H])c3[H])c(C(=O)N([H])[H])c2N([H])[H])C1([H])[H])c1nc(N([H])C(=O)C([H])([H])C([H])([H])Oc2c([H])c([H])c3c(c2[H])C([H])([H])N(C(=O)C([H])(N([H])C(=O)C([H])(N([H])C([H])([H])[H])C([H])([H])[H])C(C([H])([H])[H])(C([H])([H])[H])C([H])([H])[H])C([H])(C(=O)N([H])C2([H])c4c([H])c([H])c([H])c([H])c4C([H])([H])C([H])([H])C2([H])[H])C3([H])[H])sc1C([H])([H])C([H])([H])[H]

>  <smiles>  (90) 
[H]C(=NC(=O)N1C([H])([H])C([H])([H])C([H])([H])C([H])(n2nc(-c3c([H])c([H])c(Oc4c([H])c([H])c(F)c([H])c4F)c([H])c3[H])c(C(=O)N([H])[H])c2N([H])[H])C1([H])[H])c1nc(N([H])C(=O)C([H])([H])C([H])([H])Oc2c([H])c([H])c3c(c2[H])C([H])([H])N(C(=O)C([H])(N([H])C(=O)C([H])(N([H])C([H])([H])[H])C([H])([H])[H])C(C([H])([H])[H])(C([H])([H])[H])C([H])([H])[H])C([H])(C(=O)N([H])C2([H])c4c([H])c([H])c([H])c([H])c4C([H])([H])C([H])([H])C2([H])[H])C3([H])[H])sc1C([H])([H])C([H])([H])[H]

$$$$
90:0:0
     RDKit          3D

 95103  0  0  1  0  0  0  0  0999 V2000
  -29.1670  -19.7270   20.2320 C   0  0  0  0  0  0  0  0  0  0  0  0
  -29.4100  -21.1060   20.3270 N   0  0  0  0  0  0  0  0  0  0  0  0
  -28.5250  -19.2650   19.2880 O   0  0  0  0  0  0  0  0  0  0  0  0
  -29.9880  -21.3350   21.1260 H   0  0  0  0  0  0  0  0  0  0  0  0
  -30.7440  -18.7470   23.6250 C   0  0  0  0  0  3  0  0  0  0  0  0
  -30.7290  -16.7160   22.3570 C   0  0  0  0  0  3  0  0  0  0  0  0
  -29.9880  -19.3900   22.6270 C   0  0  0  0  0  0  0  0  0  0  0  0
  -29.7090  -18.7590   21.3530 C   0  0  0  0  0  0  0  0  0  0  0  0
  -29.9550  -17.2740   21.2980 C   0  0  0  0  0  0  0  0  0  0  0  0
  -31.1540  -17.4330   23.4730 C   0  0  0  0  0  0  0  0  0  0  0  0
  -31.8780  -16.8240   24.4440 F   0  0  0  0  0  0  0  0  0  0  0  0
  -30.0830  -15.0320   19.9660 C   0  0  0  0  0  0  0  0  0  0  0  0
  -29.7980  -12.8270   18.7950 C   0  0  0  0  0  2  0  0  0  0  0  0
  -28.7260  -12.8960   17.6890 C   0  0  0  0  0  2  0  0  0  0  0  0
  -27.3300  -12.6210   18.2760 C   0  0  0  0  0  2  0  0  0  0  0  0
  -27.0570  -13.4290   19.5730 C   0  0  0  0  0  3  0  0  0  0  0  0
  -28.2410  -13.3670   20.5620 C   0  0  0  0  0  2  0  0  0  0  0  0
  -29.4300  -13.8230   19.8340 N   0  0  0  0  0  0  0  0  0  0  0  0
  -31.2220  -15.1400   19.5010 O   0  0  0  0  0  0  0  0  0  0  0  0
  -29.4190  -16.1850   20.4150 N   0  0  0  0  0  0  0  0  0  0  0  0
  -28.4110  -16.1380   20.3710 H   0  0  0  0  0  0  0  0  0  0  0  0
  -24.7630  -13.8550   20.6300 C   0  0  0  0  0  0  0  0  0  0  0  0
  -23.7720  -13.0110   21.0510 C   0  0  0  0  0  0  0  0  0  0  0  0
  -24.2700  -11.6860   20.8480 C   0  0  0  0  0  0  0  0  0  0  0  0
  -25.7960  -13.0420   20.1970 N   0  0  0  0  0  0  0  0  0  0  0  0
  -25.5160  -11.7280   20.3910 N   0  0  0  0  0  0  0  0  0  0  0  0
  -23.6080  -10.3860   21.0080 C   0  0  0  0  0  0  0  0  0  0  0  0
  -24.1390   -9.3850   21.8520 C   0  0  0  0  0  3  0  0  0  0  0  0
  -23.4730   -8.1500   22.0050 C   0  0  0  0  0  3  0  0  0  0  0  0
  -22.2620   -7.9060   21.3150 C   0  0  0  0  0  0  0  0  0  0  0  0
  -21.7490   -8.8960   20.4580 C   0  0  0  0  0  3  0  0  0  0  0  0
  -22.4160  -10.1230   20.3040 C   0  0  0  0  0  3  0  0  0  0  0  0
  -21.5600   -6.7270   21.3830 O   0  0  0  0  0  0  0  0  0  0  0  0
  -21.5950   -5.9300   22.5000 C   0  0  0  0  0  0  0  0  0  0  0  0
  -21.1820   -6.4020   23.7650 C   0  0  0  0  0  3  0  0  0  0  0  0
  -21.1710   -5.5290   24.8710 C   0  0  0  0  0  3  0  0  0  0  0  0
  -21.5620   -4.1870   24.7140 C   0  0  0  0  0  0  0  0  0  0  0  0
  -21.9680   -3.7140   23.4540 C   0  0  0  0  0  3  0  0  0  0  0  0
  -21.9820   -4.5830   22.3490 C   0  0  0  0  0  0  0  0  0  0  0  0
  -22.3540   -4.1170   21.1330 F   0  0  0  0  0  0  0  0  0  0  0  0
  -21.5430   -3.3460   25.7740 F   0  0  0  0  0  0  0  0  0  0  0  0
  -22.4040  -13.4080   21.5190 C   0  0  0  0  0  0  0  0  0  0  0  0
  -21.8050  -12.6160   22.4020 N   0  0  0  0  0  0  0  0  0  0  0  0
  -21.8770  -14.4530   21.1390 O   0  0  0  0  0  0  0  0  0  0  0  0
  -22.2470  -11.7710   22.7300 H   0  0  0  0  0  0  0  0  0  0  0  0
  -20.8900  -12.8610   22.7560 H   0  0  0  0  0  0  0  0  0  0  0  0
  -24.8630  -15.2410   20.5550 N   0  0  0  0  0  0  0  0  0  0  0  0
  -24.0950  -15.8510   20.8140 H   0  0  0  0  0  0  0  0  0  0  0  0
  -25.6450  -15.7440   20.1570 H   0  0  0  0  0  0  0  0  0  0  0  0
  -30.1680  -21.6410   23.7550 C   0  0  0  0  0  2  0  0  0  0  0  0
  -29.4970  -20.7340   23.0240 C   0  0  0  0  0  3  0  0  0  0  0  0
  -28.8010  -22.3370   19.6330 C   0  0  0  0  0  2  0  0  0  0  0  0
  -29.0640  -23.8600   20.1960 C   0  0  0  0  0  3  0  0  0  0  0  0
  -28.1470  -25.1210   19.6880 C   0  0  0  0  0  3  0  0  0  0  0  0
  -28.3250  -26.5740   20.1000 O   0  0  0  0  0  0  0  0  0  0  0  0
  -24.5240  -31.9600   23.2130 C   0  0  0  0  0  0  0  0  0  0  0  0
  -27.2200  -27.4710   20.0440 C   0  0  0  0  0  0  0  0  0  0  0  0
  -23.3520  -30.5770   21.5410 C   0  0  0  0  0  3  0  0  0  0  0  0
  -24.8340  -29.0920   20.0690 C   0  0  0  0  0  0  0  0  0  0  0  0
  -25.8900  -30.9340   21.3710 C   0  0  0  0  0  2  0  0  0  0  0  0
  -25.9970  -29.5690   20.6860 C   0  0  0  0  0  0  0  0  0  0  0  0
  -27.1920  -28.7720   20.6640 C   0  0  0  0  0  3  0  0  0  0  0  0
  -26.0330  -27.0800   19.3820 C   0  0  0  0  0  3  0  0  0  0  0  0
  -24.8600  -27.8590   19.4020 C   0  0  0  0  0  3  0  0  0  0  0  0
  -23.5820  -29.9450   20.1430 C   0  0  0  0  0  2  0  0  0  0  0  0
  -24.6080  -31.1750   22.0970 N   0  0  0  0  0  0  0  0  0  0  0  0
  -23.4330  -32.2010   23.7520 O   0  0  0  0  0  0  0  0  0  0  0  0
  -22.7080  -29.5240   22.4740 C   0  0  0  0  0  0  0  0  0  0  0  0
  -21.3840  -29.3290   22.3500 N   0  0  0  0  0  0  0  0  0  0  0  0
  -23.4000  -28.8870   23.2720 O   0  0  0  0  0  0  0  0  0  0  0  0
  -20.8820  -29.8980   21.6820 H   0  0  0  0  0  0  0  0  0  0  0  0
  -18.0210  -28.0860   22.8640 C   0  0  0  0  0  0  0  0  0  0  0  0
  -20.5830  -28.3570   23.0980 C   0  0  0  0  0  3  0  0  0  0  0  0
  -20.6850  -26.9490   22.4660 C   0  0  0  0  0  2  0  0  0  0  0  0
  -19.5670  -26.6570   21.4600 C   0  0  0  0  0  2  0  0  0  0  0  0
  -18.1960  -26.7650   22.1340 C   0  0  0  0  0  2  0  0  0  0  0  0
  -19.1420  -28.8400   23.3030 C   0  0  0  0  0  0  0  0  0  0  0  0
  -18.9230  -30.0780   23.9470 C   0  0  0  0  0  3  0  0  0  0  0  0
  -17.6160  -30.5580   24.1580 C   0  0  0  0  0  3  0  0  0  0  0  0
  -16.5110  -29.8010   23.7330 C   0  0  0  0  0  3  0  0  0  0  0  0
  -16.7140  -28.5660   23.0910 C   0  0  0  0  0  3  0  0  0  0  0  0
  -25.7900  -32.6060   23.8530 C   0  0  0  0  0  3  0  0  0  0  0  0
  -25.4750  -34.0140   24.1360 N   0  0  0  0  0  0  0  0  0  0  0  0
  -25.7960  -35.0440   23.3390 C   0  0  0  0  0  0  0  0  0  0  0  0
  -26.4580  -34.9080   22.3070 O   0  0  0  0  0  0  0  0  0  0  0  0
  -24.8820  -34.1930   24.9330 H   0  0  0  0  0  0  0  0  0  0  0  0
  -24.0480  -36.8140   22.9560 C   0  0  0  0  0  1  0  0  0  0  0  0
  -25.3080  -36.4450   23.7550 C   0  0  0  0  0  3  0  0  0  0  0  0
  -27.4520  -37.3770   24.5100 C   0  0  0  0  0  1  0  0  0  0  0  0
  -26.3300  -37.5010   23.5830 N   0  0  0  0  0  0  0  0  0  0  0  0
  -25.9180  -38.4230   23.7090 H   0  0  0  0  0  0  0  0  0  0  0  0
  -26.2650  -31.8710   25.1660 C   0  0  1  0  0  0  0  0  0  0  0  0
  -25.1400  -31.6630   26.2080 C   0  0  0  0  0  1  0  0  0  0  0  0
  -26.8590  -30.4830   24.8330 C   0  0  0  0  0  1  0  0  0  0  0  0
  -27.3950  -32.6860   25.8400 C   0  0  0  0  0  1  0  0  0  0  0  0
  1  2  1  0
  1  8  1  0
  2  4  1  0
  3  1  2  0
  6 10  2  0
  7 51  1  0
  7  5  2  0
  8  7  1  0
  9  8  2  0
  9  6  1  0
 10  5  1  0
 10 11  1  0
 12 20  1  0
 13 18  1  0
 14 15  1  0
 14 13  1  0
 16 15  1  0
 16 25  1  0
 16 17  1  0
 18 12  1  0
 18 17  1  0
 19 12  2  0
 20  9  1  0
 21 20  1  0
 22 23  2  0
 23 42  1  0
 24 27  1  0
 24 23  1  0
 25 26  1  0
 25 22  1  0
 26 24  2  0
 27 28  1  0
 28 29  2  0
 30 33  1  0
 30 29  1  0
 31 30  2  0
 32 31  1  0
 32 27  2  0
 33 34  1  0
 34 35  1  0
 35 36  2  0
 37 36  1  0
 37 41  1  0
 38 37  2  0
 39 34  2  0
 39 38  1  0
 40 39  1  0
 42 43  1  0
 43 45  1  0
 43 46  1  0
 44 42  2  0
 47 22  1  0
 47 48  1  0
 49 47  1  0
 51 50  2  0
 52 53  1  0
 52  2  1  0
 54 55  1  0
 54 53  2  0
 56 67  2  0
 57 55  1  0
 57 62  1  0
 58 66  1  0
 58 68  1  0
 59 65  1  0
 59 61  1  0
 60 66  1  0
 61 60  1  0
 62 61  2  0
 63 64  1  0
 63 57  2  0
 64 59  2  0
 65 58  1  0
 66 56  1  0
 68 70  2  0
 69 68  1  0
 71 69  1  0
 72 81  2  0
 72 77  1  0
 73 69  1  0
 73 77  1  0
 74 73  1  0
 75 76  1  0
 75 74  1  0
 76 72  1  0
 77 78  2  0
 78 79  1  0
 80 79  2  0
 81 80  1  0
 82 56  1  0
 82 83  1  0
 82 92  1  0
 83 86  1  0
 84 88  1  0
 84 83  1  0
 85 84  2  0
 88 87  1  0
 90 91  1  0
 90 88  1  0
 90 89  1  0
 92 95  1  1
 92 93  1  0
 94 92  1  0
M  ISO  4  12 100  20 100  54 101  55 101
M  END
>  <TORSDO>  (91) 
F 21

>  <SCORE>  (91) 
-8.296

>  <name>  (91) 
90

>  <ligand_id>  (91) 
90

>  <original_smiles>  (91) 
[H]C([H])=C([H])c1c([H])c(F)c([H])c(N([H])C(=O)N2C([H])([H])C([H])([H])C([H])([H])C([H])(n3nc(-c4c([H])c([H])c(Oc5c([H])c([H])c(F)c([H])c5F)c([H])c4[H])c(C(=O)N([H])[H])c3N([H])[H])C2([H])[H])c1C(=O)N([H])C([H])([H])C([H])([H])C([H])([H])Oc1c([H])c([H])c2c(c1[H])C([H])([H])N(C(=O)C([H])(N([H])C(=O)C([H])(N([H])C([H])([H])[H])C([H])([H])[H])C(C([H])([H])[H])(C([H])([H])[H])C([H])([H])[H])C([H])(C(=O)N([H])C1([H])c3c([H])c([H])c([H])c([H])c3C([H])([H])C([H])([H])C1([H])[H])C2([H])[H]

>  <smiles>  (91) 
[H]C([H])=C([H])c1c([H])c(F)c([H])c(N([H])C(=O)N2C([H])([H])C([H])([H])C([H])([H])C([H])(n3nc(-c4c([H])c([H])c(Oc5c([H])c([H])c(F)c([H])c5F)c([H])c4[H])c(C(=O)N([H])[H])c3N([H])[H])C2([H])[H])c1C(=O)N([H])C([H])([H])C([H])([H])C([H])([H])Oc1c([H])c([H])c2c(c1[H])C([H])([H])N(C(=O)C([H])(N([H])C(=O)C([H])(N([H])C([H])([H])[H])C([H])([H])[H])C(C([H])([H])[H])(C([H])([H])[H])C([H])([H])[H])C([H])(C(=O)N([H])C1([H])c3c([H])c([H])c([H])c([H])c3C([H])([H])C([H])([H])C1([H])[H])C2([H])[H]

$$$$
91:0:0
     RDKit          3D

 95104  0  0  1  0  0  0  0  0999 V2000
  -30.1110  -24.0970   20.8240 C   0  0  0  0  0  3  0  0  0  0  0  0
  -28.8840  -23.7550   20.3710 C   0  0  0  0  0  0  0  0  0  0  0  0
  -31.2340  -23.1850   21.1220 C   0  0  0  0  0  0  0  0  0  0  0  0
  -31.0680  -21.9120   21.9690 C   0  0  0  0  0  2  0  0  0  0  0  0
  -29.6650  -21.2950   22.0370 C   0  0  0  0  0  2  0  0  0  0  0  0
  -28.4050  -22.2530   20.0950 C   0  0  0  0  0  3  0  0  0  0  0  0
  -27.9940  -22.0460   18.6240 C   0  0  0  0  0  1  0  0  0  0  0  0
  -29.1170  -21.0570   20.7110 N   0  0  0  0  0  0  0  0  0  0  0  0
  -32.3730  -23.4620   20.7360 O   0  0  0  0  0  0  0  0  0  0  0  0
  -30.8150  -18.7620   18.2550 C   0  0  0  0  0  3  0  0  0  0  0  0
  -30.2980  -19.9090   18.8890 C   0  0  0  0  0  3  0  0  0  0  0  0
  -30.6490  -17.4800   18.8080 C   0  0  0  0  0  3  0  0  0  0  0  0
  -29.4180  -18.4780   20.6470 C   0  0  0  0  0  3  0  0  0  0  0  0
  -29.5660  -19.8210   20.0910 C   0  0  0  0  0  0  0  0  0  0  0  0
  -29.9670  -17.2750   20.0310 C   0  0  0  0  0  0  0  0  0  0  0  0
  -30.5430  -14.7430   20.2270 C   0  0  0  0  0  0  0  0  0  0  0  0
  -30.3040  -12.4740   19.2280 C   0  0  0  0  0  2  0  0  0  0  0  0
  -29.3410  -12.5730   18.0270 C   0  0  0  0  0  2  0  0  0  0  0  0
  -27.8790  -12.4100   18.4870 C   0  0  0  0  0  2  0  0  0  0  0  0
  -27.5400  -13.2760   19.7310 C   0  0  0  0  0  3  0  0  0  0  0  0
  -28.6300  -13.1750   20.8230 C   0  0  0  0  0  2  0  0  0  0  0  0
  -29.9110  -13.5220   20.2000 N   0  0  0  0  0  0  0  0  0  0  0  0
  -31.7120  -14.8260   19.8380 O   0  0  0  0  0  0  0  0  0  0  0  0
  -29.8080  -15.8830   20.5350 N   0  0  0  0  0  0  0  0  0  0  0  0
  -28.9560  -15.7060   21.0470 H   0  0  0  0  0  0  0  0  0  0  0  0
  -25.1790  -13.8540   20.5460 C   0  0  0  0  0  0  0  0  0  0  0  0
  -24.1240  -13.0750   20.9360 C   0  0  0  0  0  0  0  0  0  0  0  0
  -24.5810  -11.7240   20.8620 C   0  0  0  0  0  0  0  0  0  0  0  0
  -26.2110  -12.9780   20.2570 N   0  0  0  0  0  0  0  0  0  0  0  0
  -25.8600  -11.6900   20.5100 N   0  0  0  0  0  0  0  0  0  0  0  0
  -23.8550  -10.4600   21.0470 C   0  0  0  0  0  0  0  0  0  0  0  0
  -24.3060   -9.4790   21.9590 C   0  0  0  0  0  3  0  0  0  0  0  0
  -23.5790   -8.2810   22.1370 C   0  0  0  0  0  3  0  0  0  0  0  0
  -22.3900   -8.0560   21.4030 C   0  0  0  0  0  0  0  0  0  0  0  0
  -21.9590   -9.0250   20.4810 C   0  0  0  0  0  3  0  0  0  0  0  0
  -22.6850  -10.2140   20.3000 C   0  0  0  0  0  3  0  0  0  0  0  0
  -21.6360   -6.9100   21.4890 O   0  0  0  0  0  0  0  0  0  0  0  0
  -21.5990   -6.1560   22.6350 C   0  0  0  0  0  0  0  0  0  0  0  0
  -21.1660   -6.6930   23.8680 C   0  0  0  0  0  3  0  0  0  0  0  0
  -21.0770   -5.8660   25.0050 C   0  0  0  0  0  3  0  0  0  0  0  0
  -21.4120   -4.5010   24.9100 C   0  0  0  0  0  0  0  0  0  0  0  0
  -21.8400   -3.9640   23.6830 C   0  0  0  0  0  3  0  0  0  0  0  0
  -21.9290   -4.7890   22.5480 C   0  0  0  0  0  0  0  0  0  0  0  0
  -22.3190   -4.2610   21.3640 F   0  0  0  0  0  0  0  0  0  0  0  0
  -21.3220   -3.7040   26.0000 F   0  0  0  0  0  0  0  0  0  0  0  0
  -22.7390  -13.5510   21.2630 C   0  0  0  0  0  0  0  0  0  0  0  0
  -22.0360  -12.8380   22.1350 N   0  0  0  0  0  0  0  0  0  0  0  0
  -22.2880  -14.5900   20.7810 O   0  0  0  0  0  0  0  0  0  0  0  0
  -22.4150  -12.0020   22.5550 H   0  0  0  0  0  0  0  0  0  0  0  0
  -21.1030  -13.1340   22.3880 H   0  0  0  0  0  0  0  0  0  0  0  0
  -25.3410  -15.2280   20.3890 N   0  0  0  0  0  0  0  0  0  0  0  0
  -24.5790  -15.8810   20.5430 H   0  0  0  0  0  0  0  0  0  0  0  0
  -26.1700  -15.6720   20.0170 H   0  0  0  0  0  0  0  0  0  0  0  0
  -27.8400  -24.9120   20.0830 C   0  0  0  0  0  2  0  0  0  0  0  0
  -28.1600  -26.3640   20.2880 O   0  0  0  0  0  0  0  0  0  0  0  0
  -24.5350  -31.9080   23.2320 C   0  0  0  0  0  0  0  0  0  0  0  0
  -27.0820  -27.2780   20.2030 C   0  0  0  0  0  0  0  0  0  0  0  0
  -23.3110  -30.5080   21.6120 C   0  0  0  0  0  3  0  0  0  0  0  0
  -24.7420  -28.9450   20.1810 C   0  0  0  0  0  0  0  0  0  0  0  0
  -25.8540  -30.8010   21.4080 C   0  0  0  0  0  2  0  0  0  0  0  0
  -25.9210  -29.4160   20.7710 C   0  0  0  0  0  0  0  0  0  0  0  0
  -27.0960  -28.5950   20.7720 C   0  0  0  0  0  3  0  0  0  0  0  0
  -25.8760  -26.8820   19.5730 C   0  0  0  0  0  3  0  0  0  0  0  0
  -24.7250  -27.6850   19.5700 C   0  0  0  0  0  3  0  0  0  0  0  0
  -23.5120  -29.8290   20.2320 C   0  0  0  0  0  2  0  0  0  0  0  0
  -24.5870  -31.0900   22.1400 N   0  0  0  0  0  0  0  0  0  0  0  0
  -23.4560  -32.1940   23.7720 O   0  0  0  0  0  0  0  0  0  0  0  0
  -22.6490  -29.4980   22.5810 C   0  0  0  0  0  0  0  0  0  0  0  0
  -21.3210  -29.3210   22.4610 N   0  0  0  0  0  0  0  0  0  0  0  0
  -23.3280  -28.8790   23.4030 O   0  0  0  0  0  0  0  0  0  0  0  0
  -20.8310  -29.8760   21.7750 H   0  0  0  0  0  0  0  0  0  0  0  0
  -17.9430  -28.1320   22.9840 C   0  0  0  0  0  0  0  0  0  0  0  0
  -20.5030  -28.3910   23.2430 C   0  0  0  0  0  3  0  0  0  0  0  0
  -20.6000  -26.9520   22.6840 C   0  0  0  0  0  2  0  0  0  0  0  0
  -19.4940  -26.6200   21.6770 C   0  0  0  0  0  2  0  0  0  0  0  0
  -18.1140  -26.7750   22.3220 C   0  0  0  0  0  2  0  0  0  0  0  0
  -19.0640  -28.8980   23.4020 C   0  0  0  0  0  0  0  0  0  0  0  0
  -18.8480  -30.1670   23.9790 C   0  0  0  0  0  3  0  0  0  0  0  0
  -17.5430  -30.6710   24.1450 C   0  0  0  0  0  3  0  0  0  0  0  0
  -16.4380  -29.9030   23.7410 C   0  0  0  0  0  3  0  0  0  0  0  0
  -16.6380  -28.6350   23.1670 C   0  0  0  0  0  3  0  0  0  0  0  0
  -25.8250  -32.5370   23.8400 C   0  0  0  0  0  3  0  0  0  0  0  0
  -25.5230  -33.9380   24.1710 N   0  0  0  0  0  0  0  0  0  0  0  0
  -25.8420  -34.9890   23.4010 C   0  0  0  0  0  0  0  0  0  0  0  0
  -26.4920  -34.8800   22.3580 O   0  0  0  0  0  0  0  0  0  0  0  0
  -24.9490  -34.0960   24.9850 H   0  0  0  0  0  0  0  0  0  0  0  0
  -24.1130  -36.7870   23.0660 C   0  0  0  0  0  1  0  0  0  0  0  0
  -25.3630  -36.3790   23.8620 C   0  0  0  0  0  3  0  0  0  0  0  0
  -27.5080  -37.2650   24.6660 C   0  0  0  0  0  1  0  0  0  0  0  0
  -26.3960  -37.4300   23.7340 N   0  0  0  0  0  0  0  0  0  0  0  0
  -25.9930  -38.3510   23.8810 H   0  0  0  0  0  0  0  0  0  0  0  0
  -26.3480  -31.7680   25.1150 C   0  0  1  0  0  0  0  0  0  0  0  0
  -25.2640  -31.5320   26.1930 C   0  0  0  0  0  1  0  0  0  0  0  0
  -26.9290  -30.3900   24.7220 C   0  0  0  0  0  1  0  0  0  0  0  0
  -27.5010  -32.5640   25.7700 C   0  0  0  0  0  1  0  0  0  0  0  0
  1  3  1  0
  2  1  2  0
  3  4  1  0
  4  5  1  0
  6  7  1  0
  6  2  1  0
  6  8  1  0
  8  5  1  0
  9  3  2  0
 10 12  2  0
 10 11  1  0
 11 14  2  0
 12 15  1  0
 14 13  1  0
 14  8  1  0
 15 24  1  0
 15 13  2  0
 16 24  1  0
 17 22  1  0
 18 19  1  0
 18 17  1  0
 20 19  1  0
 20 29  1  0
 20 21  1  0
 22 16  1  0
 22 21  1  0
 23 16  2  0
 24 25  1  0
 26 27  2  0
 27 46  1  0
 28 27  1  0
 28 31  1  0
 29 30  1  0
 29 26  1  0
 30 28  2  0
 31 32  1  0
 32 33  2  0
 34 37  1  0
 34 33  1  0
 35 34  2  0
 36 35  1  0
 36 31  2  0
 37 38  1  0
 38 39  1  0
 39 40  2  0
 41 40  1  0
 41 45  1  0
 42 41  2  0
 43 38  2  0
 43 42  1  0
 44 43  1  0
 46 47  1  0
 47 50  1  0
 47 49  1  0
 48 46  2  0
 51 52  1  0
 51 26  1  0
 53 51  1  0
 54 55  1  0
 54  2  1  0
 56 67  2  0
 57 55  1  0
 57 62  1  0
 58 66  1  0
 58 68  1  0
 59 65  1  0
 59 61  1  0
 60 66  1  0
 61 62  2  0
 61 60  1  0
 63 57  2  0
 64 63  1  0
 64 59  2  0
 65 58  1  0
 66 56  1  0
 68 70  2  0
 69 68  1  0
 71 69  1  0
 72 81  2  0
 72 77  1  0
 73 69  1  0
 73 77  1  0
 74 73  1  0
 75 76  1  0
 75 74  1  0
 76 72  1  0
 77 78  2  0
 78 79  1  0
 80 79  2  0
 81 80  1  0
 82 56  1  0
 82 83  1  0
 82 92  1  0
 83 86  1  0
 84 88  1  0
 84 83  1  0
 85 84  2  0
 88 87  1  0
 90 88  1  0
 90 91  1  0
 90 89  1  0
 92 95  1  1
 92 93  1  0
 94 92  1  0
M  ISO  4  16 100  24 100  54 101  55 101
M  END
>  <TORSDO>  (92) 
F 18

>  <SCORE>  (92) 
-14.712

>  <name>  (92) 
91

>  <ligand_id>  (92) 
91

>  <original_smiles>  (92) 
[H]C1=C(C([H])([H])Oc2c([H])c([H])c3c(c2[H])C([H])([H])N(C(=O)C([H])(N([H])C(=O)C([H])(N([H])C([H])([H])[H])C([H])([H])[H])C(C([H])([H])[H])(C([H])([H])[H])C([H])([H])[H])C([H])(C(=O)N([H])C2([H])c4c([H])c([H])c([H])c([H])c4C([H])([H])C([H])([H])C2([H])[H])C3([H])[H])C([H])(C([H])([H])[H])N(c2c([H])c([H])c([H])c(N([H])C(=O)N3C([H])([H])C([H])([H])C([H])([H])C([H])(n4nc(-c5c([H])c([H])c(Oc6c([H])c([H])c(F)c([H])c6F)c([H])c5[H])c(C(=O)N([H])[H])c4N([H])[H])C3([H])[H])c2[H])C([H])([H])C([H])([H])C1=O

>  <smiles>  (92) 
[H]C1=C(C([H])([H])Oc2c([H])c([H])c3c(c2[H])C([H])([H])N(C(=O)C([H])(N([H])C(=O)C([H])(N([H])C([H])([H])[H])C([H])([H])[H])C(C([H])([H])[H])(C([H])([H])[H])C([H])([H])[H])C([H])(C(=O)N([H])C2([H])c4c([H])c([H])c([H])c([H])c4C([H])([H])C([H])([H])C2([H])[H])C3([H])[H])C([H])(C([H])([H])[H])N(c2c([H])c([H])c([H])c(N([H])C(=O)N3C([H])([H])C([H])([H])C([H])([H])C([H])(n4nc(-c5c([H])c([H])c(Oc6c([H])c([H])c(F)c([H])c6F)c([H])c5[H])c(C(=O)N([H])[H])c4N([H])[H])C3([H])[H])c2[H])C([H])([H])C([H])([H])C1=O

$$$$
92:0:0
     RDKit          3D

 95103  0  0  1  0  0  0  0  0999 V2000
  -31.6690  -17.6490   20.4580 C   0  0  0  0  0  3  0  0  0  0  0  0
  -30.8590  -19.9040   20.0250 C   0  0  0  0  0  3  0  0  0  0  0  0
  -30.3560  -17.1190   20.5170 C   0  0  0  0  0  0  0  0  0  0  0  0
  -29.2690  -18.0580   20.3130 C   0  0  0  0  0  0  0  0  0  0  0  0
  -29.5230  -19.4620   20.0940 C   0  0  0  0  0  0  0  0  0  0  0  0
  -31.9180  -19.0050   20.1990 C   0  0  0  0  0  0  0  0  0  0  0  0
  -33.1920  -19.4560   20.1460 F   0  0  0  0  0  0  0  0  0  0  0  0
  -30.1830  -15.6520   20.9280 C   0  0  0  0  0  0  0  0  0  0  0  0
  -29.7300  -15.3930   22.0840 N   0  0  0  0  0  0  0  0  0  0  0  0
  -29.5040  -16.2420   22.5890 H   0  0  0  0  0  0  0  0  0  0  0  0
  -30.6580  -14.5180   19.9550 C   0  0  0  0  0  0  0  0  0  0  0  0
  -30.2980  -12.3320   18.8370 C   0  0  0  0  0  2  0  0  0  0  0  0
  -29.2650  -12.4820   17.6980 C   0  0  0  0  0  2  0  0  0  0  0  0
  -27.8340  -12.2900   18.2400 C   0  0  0  0  0  2  0  0  0  0  0  0
  -27.5700  -13.1290   19.5170 C   0  0  0  0  0  3  0  0  0  0  0  0
  -28.7110  -12.9520   20.5420 C   0  0  0  0  0  2  0  0  0  0  0  0
  -29.9800  -13.3220   19.8910 N   0  0  0  0  0  0  0  0  0  0  0  0
  -31.6600  -14.7040   19.2580 O   0  0  0  0  0  0  0  0  0  0  0  0
  -25.2420  -13.6770   20.4590 C   0  0  0  0  0  0  0  0  0  0  0  0
  -24.2210  -12.8830   20.9060 C   0  0  0  0  0  0  0  0  0  0  0  0
  -24.6900  -11.5390   20.7910 C   0  0  0  0  0  0  0  0  0  0  0  0
  -26.2680  -12.8180   20.1050 N   0  0  0  0  0  0  0  0  0  0  0  0
  -25.9460  -11.5240   20.3630 N   0  0  0  0  0  0  0  0  0  0  0  0
  -23.9950  -10.2640   21.0080 C   0  0  0  0  0  0  0  0  0  0  0  0
  -24.4640   -9.3180   21.9470 C   0  0  0  0  0  3  0  0  0  0  0  0
  -23.7690   -8.1070   22.1500 C   0  0  0  0  0  3  0  0  0  0  0  0
  -22.5900   -7.8320   21.4150 C   0  0  0  0  0  0  0  0  0  0  0  0
  -22.1420   -8.7660   20.4640 C   0  0  0  0  0  3  0  0  0  0  0  0
  -22.8370   -9.9700   20.2610 C   0  0  0  0  0  3  0  0  0  0  0  0
  -21.8650   -6.6710   21.5270 O   0  0  0  0  0  0  0  0  0  0  0  0
  -21.7740   -5.9910   22.7160 C   0  0  0  0  0  0  0  0  0  0  0  0
  -21.2510   -6.5930   23.8810 C   0  0  0  0  0  3  0  0  0  0  0  0
  -21.1120   -5.8390   25.0630 C   0  0  0  0  0  3  0  0  0  0  0  0
  -21.4860   -4.4820   25.0810 C   0  0  0  0  0  0  0  0  0  0  0  0
  -22.0020   -3.8780   23.9200 C   0  0  0  0  0  3  0  0  0  0  0  0
  -22.1430   -4.6310   22.7410 C   0  0  0  0  0  0  0  0  0  0  0  0
  -22.6220   -4.0410   21.6200 F   0  0  0  0  0  0  0  0  0  0  0  0
  -21.3450   -3.7530   26.2120 F   0  0  0  0  0  0  0  0  0  0  0  0
  -22.8530  -13.3360   21.3270 C   0  0  0  0  0  0  0  0  0  0  0  0
  -22.2240  -12.6100   22.2460 N   0  0  0  0  0  0  0  0  0  0  0  0
  -22.3540  -14.3660   20.8770 O   0  0  0  0  0  0  0  0  0  0  0  0
  -22.6430  -11.7770   22.6340 H   0  0  0  0  0  0  0  0  0  0  0  0
  -21.3110  -12.8940   22.5740 H   0  0  0  0  0  0  0  0  0  0  0  0
  -25.3740  -15.0510   20.3030 N   0  0  0  0  0  0  0  0  0  0  0  0
  -24.6260  -15.6990   20.5190 H   0  0  0  0  0  0  0  0  0  0  0  0
  -26.1860  -15.5060   19.9110 H   0  0  0  0  0  0  0  0  0  0  0  0
  -27.8110  -17.5810   20.4070 C   0  0  0  0  0  2  0  0  0  0  0  0
  -25.5540  -18.1240   19.4240 C   0  0  0  0  0  2  0  0  0  0  0  0
  -26.8810  -17.9860   19.2800 C   0  0  0  0  0  3  0  0  0  0  0  0
  -28.4680  -20.3630   19.9360 O   0  0  0  0  0  0  0  0  0  0  0  0
  -28.5460  -21.7500   20.3640 C   0  0  0  0  0  2  0  0  0  0  0  0
  -28.8130  -22.7960   19.2360 C   0  0  0  0  0  2  0  0  0  0  0  0
  -28.0350  -24.1670   19.2330 C   0  0  0  0  0  2  0  0  0  0  0  0
  -28.3790  -25.2540   20.3010 C   0  0  0  0  0  2  0  0  0  0  0  0
  -28.3520  -26.6460   19.8780 O   0  0  0  0  0  0  0  0  0  0  0  0
  -24.5350  -31.7360   23.1840 C   0  0  0  0  0  0  0  0  0  0  0  0
  -27.1750  -27.3750   19.9550 C   0  0  0  0  0  0  0  0  0  0  0  0
  -23.3330  -30.4070   21.4810 C   0  0  0  0  0  3  0  0  0  0  0  0
  -24.7880  -28.9140   20.0060 C   0  0  0  0  0  0  0  0  0  0  0  0
  -25.8630  -30.7560   21.3090 C   0  0  0  0  0  2  0  0  0  0  0  0
  -25.9470  -29.4060   20.6190 C   0  0  0  0  0  0  0  0  0  0  0  0
  -27.1450  -28.6480   20.5810 C   0  0  0  0  0  3  0  0  0  0  0  0
  -25.9970  -26.9060   19.3370 C   0  0  0  0  0  3  0  0  0  0  0  0
  -24.8110  -27.6650   19.3610 C   0  0  0  0  0  3  0  0  0  0  0  0
  -23.5480  -29.7800   20.0790 C   0  0  0  0  0  2  0  0  0  0  0  0
  -24.5950  -30.9800   22.0490 N   0  0  0  0  0  0  0  0  0  0  0  0
  -23.4530  -31.9880   23.7310 O   0  0  0  0  0  0  0  0  0  0  0  0
  -22.6730  -29.3520   22.3990 C   0  0  0  0  0  0  0  0  0  0  0  0
  -21.3430  -29.2010   22.2830 N   0  0  0  0  0  0  0  0  0  0  0  0
  -23.3560  -28.6710   23.1690 O   0  0  0  0  0  0  0  0  0  0  0  0
  -20.8500  -29.8030   21.6390 H   0  0  0  0  0  0  0  0  0  0  0  0
  -17.9560  -28.0390   22.7770 C   0  0  0  0  0  0  0  0  0  0  0  0
  -20.5240  -28.2330   23.0150 C   0  0  0  0  0  3  0  0  0  0  0  0
  -20.5880  -26.8350   22.3570 C   0  0  0  0  0  2  0  0  0  0  0  0
  -19.4610  -26.5910   21.3490 C   0  0  0  0  0  2  0  0  0  0  0  0
  -18.0940  -26.7270   22.0240 C   0  0  0  0  0  2  0  0  0  0  0  0
  -19.0980  -28.7540   23.2280 C   0  0  0  0  0  0  0  0  0  0  0  0
  -18.9170  -29.9890   23.8860 C   0  0  0  0  0  3  0  0  0  0  0  0
  -17.6260  -30.5050   24.1050 C   0  0  0  0  0  3  0  0  0  0  0  0
  -16.4980  -29.7860   23.6700 C   0  0  0  0  0  3  0  0  0  0  0  0
  -16.6650  -28.5570   23.0090 C   0  0  0  0  0  3  0  0  0  0  0  0
  -25.8190  -32.3380   23.8350 C   0  0  0  0  0  3  0  0  0  0  0  0
  -25.5310  -33.7400   24.1660 N   0  0  0  0  0  0  0  0  0  0  0  0
  -25.8980  -34.7890   23.4180 C   0  0  0  0  0  0  0  0  0  0  0  0
  -26.5840  -34.6770   22.3990 O   0  0  0  0  0  0  0  0  0  0  0  0
  -24.9240  -33.9030   24.9560 H   0  0  0  0  0  0  0  0  0  0  0  0
  -24.2100  -36.6160   23.0420 C   0  0  0  0  0  1  0  0  0  0  0  0
  -25.4290  -36.1840   23.8730 C   0  0  0  0  0  3  0  0  0  0  0  0
  -27.5640  -37.0270   24.7440 C   0  0  0  0  0  1  0  0  0  0  0  0
  -26.4820  -37.2190   23.7820 N   0  0  0  0  0  0  0  0  0  0  0  0
  -26.0910  -38.1460   23.9240 H   0  0  0  0  0  0  0  0  0  0  0  0
  -26.2950  -31.5490   25.1170 C   0  0  1  0  0  0  0  0  0  0  0  0
  -25.1840  -31.3500   26.1730 C   0  0  0  0  0  1  0  0  0  0  0  0
  -26.8350  -30.1530   24.7280 C   0  0  0  0  0  1  0  0  0  0  0  0
  -27.4650  -32.3050   25.7900 C   0  0  0  0  0  1  0  0  0  0  0  0
  1  3  1  0
  2  5  2  0
  2  6  1  0
  3  8  1  0
  4 47  1  0
  4  3  2  0
  5  4  1  0
  6  1  2  0
  7  6  1  0
  8  9  2  0
  9 10  1  0
 11  8  1  0
 12 17  1  0
 13 14  1  0
 13 12  1  0
 15 14  1  0
 15 22  1  0
 15 16  1  0
 17 11  1  0
 17 16  1  0
 18 11  2  0
 19 20  2  0
 20 39  1  0
 21 20  1  0
 21 24  1  0
 22 23  1  0
 22 19  1  0
 23 21  2  0
 24 25  1  0
 25 26  2  0
 27 30  1  0
 27 26  1  0
 28 27  2  0
 29 28  1  0
 29 24  2  0
 30 31  1  0
 31 36  2  0
 31 32  1  0
 32 33  2  0
 33 34  1  0
 34 38  1  0
 35 34  2  0
 36 35  1  0
 37 36  1  0
 39 40  1  0
 40 43  1  0
 40 42  1  0
 41 39  2  0
 44 19  1  0
 44 45  1  0
 46 44  1  0
 49 48  2  0
 49 47  1  0
 50  5  1  0
 50 51  1  0
 52 51  1  0
 53 52  1  0
 53 54  1  0
 55 57  1  0
 55 54  1  0
 56 67  2  0
 57 62  1  0
 58 66  1  0
 58 68  1  0
 59 65  1  0
 59 61  1  0
 60 66  1  0
 61 60  1  0
 62 61  2  0
 63 64  1  0
 63 57  2  0
 64 59  2  0
 65 58  1  0
 66 56  1  0
 68 70  2  0
 69 68  1  0
 71 69  1  0
 72 81  2  0
 72 77  1  0
 73 69  1  0
 73 77  1  0
 74 73  1  0
 75 76  1  0
 75 74  1  0
 76 72  1  0
 77 78  2  0
 78 79  1  0
 80 79  2  0
 81 80  1  0
 82 56  1  0
 82 83  1  0
 82 92  1  0
 83 86  1  0
 84 88  1  0
 84 83  1  0
 85 84  2  0
 88 87  1  0
 90 88  1  0
 90 91  1  0
 90 89  1  0
 92 95  1  1
 92 93  1  0
 94 92  1  0
M  ISO  4   8 100  11 100  54 101  55 101
M  END
>  <TORSDO>  (93) 
F 24

>  <SCORE>  (93) 
-11.732

>  <name>  (93) 
92

>  <ligand_id>  (93) 
92

>  <original_smiles>  (93) 
[H]N=C(C(=O)N1C([H])([H])C([H])([H])C([H])([H])C([H])(n2nc(-c3c([H])c([H])c(Oc4c([H])c([H])c(F)c([H])c4F)c([H])c3[H])c(C(=O)N([H])[H])c2N([H])[H])C1([H])[H])c1c([H])c(F)c([H])c(OC([H])([H])C([H])([H])C([H])([H])C([H])([H])Oc2c([H])c([H])c3c(c2[H])C([H])([H])N(C(=O)C([H])(N([H])C(=O)C([H])(N([H])C([H])([H])[H])C([H])([H])[H])C(C([H])([H])[H])(C([H])([H])[H])C([H])([H])[H])C([H])(C(=O)N([H])C2([H])c4c([H])c([H])c([H])c([H])c4C([H])([H])C([H])([H])C2([H])[H])C3([H])[H])c1C([H])([H])C([H])=C([H])[H]

>  <smiles>  (93) 
[H]N=C(C(=O)N1C([H])([H])C([H])([H])C([H])([H])C([H])(n2nc(-c3c([H])c([H])c(Oc4c([H])c([H])c(F)c([H])c4F)c([H])c3[H])c(C(=O)N([H])[H])c2N([H])[H])C1([H])[H])c1c([H])c(F)c([H])c(OC([H])([H])C([H])([H])C([H])([H])C([H])([H])Oc2c([H])c([H])c3c(c2[H])C([H])([H])N(C(=O)C([H])(N([H])C(=O)C([H])(N([H])C([H])([H])[H])C([H])([H])[H])C(C([H])([H])[H])(C([H])([H])[H])C([H])([H])[H])C([H])(C(=O)N([H])C2([H])c4c([H])c([H])c([H])c([H])c4C([H])([H])C([H])([H])C2([H])[H])C3([H])[H])c1C([H])([H])C([H])=C([H])[H]

$$$$
93:0:0
     RDKit          3D

 91 99  0  0  1  0  0  0  0  0999 V2000
  -29.6460  -19.2070   20.4250 C   0  0  0  0  0  3  0  0  0  0  0  0
  -29.9740  -20.6160   20.2970 C   0  0  0  0  0  0  0  0  0  0  0  0
  -30.6870  -18.4330   20.9080 C   0  0  0  0  0  0  0  0  0  0  0  0
  -31.2420  -20.8760   20.7710 C   0  0  0  0  0  0  0  0  0  0  0  0
  -32.0090  -19.4500   21.4130 S   0  0  0  0  0  0  0  0  0  0  0  0
  -32.0340  -22.0630   20.6710 C   0  0  0  0  0  3  0  0  0  0  0  0
  -32.1390  -22.9120   19.6360 C   0  0  0  0  0  3  0  0  0  0  0  0
  -32.9980  -24.1580   19.6370 C   0  0  0  0  0  1  0  0  0  0  0  0
  -30.9230  -17.0030   20.9490 C   0  0  0  0  0  3  0  0  0  0  0  0
  -30.1840  -15.8580   20.9180 C   0  0  0  0  0  3  0  0  0  0  0  0
  -30.8850  -14.5730   20.7100 C   0  0  0  0  0  0  0  0  0  0  0  0
  -30.5720  -12.3310   19.7380 C   0  0  0  0  0  2  0  0  0  0  0  0
  -29.7360  -12.4730   18.4510 C   0  0  0  0  0  2  0  0  0  0  0  0
  -28.2390  -12.3490   18.7930 C   0  0  0  0  0  2  0  0  0  0  0  0
  -27.8170  -13.2770   19.9640 C   0  0  0  0  0  3  0  0  0  0  0  0
  -28.8010  -13.1910   21.1530 C   0  0  0  0  0  2  0  0  0  0  0  0
  -30.1580  -13.4190   20.6440 N   0  0  0  0  0  0  0  0  0  0  0  0
  -32.0750  -14.5710   20.3840 O   0  0  0  0  0  0  0  0  0  0  0  0
  -25.3950  -13.9150   20.5420 C   0  0  0  0  0  0  0  0  0  0  0  0
  -24.3010  -13.1610   20.8680 C   0  0  0  0  0  0  0  0  0  0  0  0
  -24.7480  -11.8050   20.8910 C   0  0  0  0  0  0  0  0  0  0  0  0
  -26.4410  -13.0210   20.3820 N   0  0  0  0  0  0  0  0  0  0  0  0
  -26.0540  -11.7470   20.6540 N   0  0  0  0  0  0  0  0  0  0  0  0
  -23.9970  -10.5550   21.0680 C   0  0  0  0  0  0  0  0  0  0  0  0
  -24.3790   -9.5940   22.0290 C   0  0  0  0  0  3  0  0  0  0  0  0
  -23.6290   -8.4090   22.1940 C   0  0  0  0  0  3  0  0  0  0  0  0
  -22.4820   -8.1780   21.3970 C   0  0  0  0  0  0  0  0  0  0  0  0
  -22.1210   -9.1260   20.4250 C   0  0  0  0  0  3  0  0  0  0  0  0
  -22.8710  -10.3020   20.2580 C   0  0  0  0  0  3  0  0  0  0  0  0
  -21.7080   -7.0450   21.4700 O   0  0  0  0  0  0  0  0  0  0  0  0
  -21.6160   -6.3080   22.6240 C   0  0  0  0  0  0  0  0  0  0  0  0
  -21.1730   -6.8750   23.8400 C   0  0  0  0  0  3  0  0  0  0  0  0
  -21.0300   -6.0630   24.9820 C   0  0  0  0  0  3  0  0  0  0  0  0
  -21.3190   -4.6880   24.9120 C   0  0  0  0  0  0  0  0  0  0  0  0
  -21.7530   -4.1210   23.7010 C   0  0  0  0  0  3  0  0  0  0  0  0
  -21.8990   -4.9290   22.5600 C   0  0  0  0  0  0  0  0  0  0  0  0
  -22.2980   -4.3730   21.3910 F   0  0  0  0  0  0  0  0  0  0  0  0
  -21.1740   -3.9070   26.0080 F   0  0  0  0  0  0  0  0  0  0  0  0
  -22.8960  -13.6590   21.0550 C   0  0  0  0  0  0  0  0  0  0  0  0
  -22.1180  -12.9950   21.9020 N   0  0  0  0  0  0  0  0  0  0  0  0
  -22.4990  -14.6730   20.4840 O   0  0  0  0  0  0  0  0  0  0  0  0
  -22.4530  -12.1760   22.3880 H   0  0  0  0  0  0  0  0  0  0  0  0
  -21.1720  -13.3090   22.0690 H   0  0  0  0  0  0  0  0  0  0  0  0
  -25.5820  -15.2810   20.3470 N   0  0  0  0  0  0  0  0  0  0  0  0
  -24.8110  -15.9380   20.4080 H   0  0  0  0  0  0  0  0  0  0  0  0
  -26.4510  -15.7130   20.0630 H   0  0  0  0  0  0  0  0  0  0  0  0
  -29.1900  -21.5620   19.6920 O   0  0  0  0  0  0  0  0  0  0  0  0
  -28.7010  -22.6630   20.4930 C   0  0  0  0  0  2  0  0  0  0  0  0
  -29.0540  -24.1010   19.9640 C   0  0  0  0  0  2  0  0  0  0  0  0
  -27.8370  -25.0670   19.8720 C   0  0  0  0  0  2  0  0  0  0  0  0
  -28.0950  -26.4910   19.6760 O   0  0  0  0  0  0  0  0  0  0  0  0
  -24.4860  -31.6840   23.0500 C   0  0  0  0  0  0  0  0  0  0  0  0
  -26.9640  -27.3040   19.7060 C   0  0  0  0  0  0  0  0  0  0  0  0
  -23.2090  -30.3500   21.4090 C   0  0  0  0  0  3  0  0  0  0  0  0
  -24.5960  -28.8740   19.8600 C   0  0  0  0  0  0  0  0  0  0  0  0
  -25.7370  -30.6960   21.1290 C   0  0  0  0  0  2  0  0  0  0  0  0
  -25.7880  -29.3530   20.4220 C   0  0  0  0  0  0  0  0  0  0  0  0
  -26.9770  -28.5810   20.3320 C   0  0  0  0  0  3  0  0  0  0  0  0
  -25.7470  -26.8670   19.1290 C   0  0  0  0  0  3  0  0  0  0  0  0
  -24.5750  -27.6350   19.2060 C   0  0  0  0  0  3  0  0  0  0  0  0
  -23.3610  -29.7350   19.9940 C   0  0  0  0  0  2  0  0  0  0  0  0
  -24.4970  -30.9230   21.9180 N   0  0  0  0  0  0  0  0  0  0  0  0
  -23.4260  -31.9400   23.6400 O   0  0  0  0  0  0  0  0  0  0  0  0
  -22.5910  -29.2920   22.3530 C   0  0  0  0  0  0  0  0  0  0  0  0
  -21.2640  -29.1040   22.2610 N   0  0  0  0  0  0  0  0  0  0  0  0
  -23.3010  -28.6480   23.1300 O   0  0  0  0  0  0  0  0  0  0  0  0
  -20.7510  -29.6710   21.6000 H   0  0  0  0  0  0  0  0  0  0  0  0
  -17.9150  -27.8540   22.7970 C   0  0  0  0  0  0  0  0  0  0  0  0
  -20.4750  -28.1390   23.0270 C   0  0  0  0  0  3  0  0  0  0  0  0
  -20.5850  -26.7230   22.4150 C   0  0  0  0  0  2  0  0  0  0  0  0
  -19.4670  -26.4100   21.4150 C   0  0  0  0  0  2  0  0  0  0  0  0
  -18.0950  -26.5250   22.0860 C   0  0  0  0  0  2  0  0  0  0  0  0
  -19.0320  -28.6210   23.2240 C   0  0  0  0  0  0  0  0  0  0  0  0
  -18.8090  -29.8670   23.8480 C   0  0  0  0  0  3  0  0  0  0  0  0
  -17.5000  -30.3460   24.0530 C   0  0  0  0  0  3  0  0  0  0  0  0
  -16.3990  -29.5760   23.6460 C   0  0  0  0  0  3  0  0  0  0  0  0
  -16.6060  -28.3320   23.0220 C   0  0  0  0  0  3  0  0  0  0  0  0
  -25.7970  -32.2880   23.6400 C   0  0  0  0  0  3  0  0  0  0  0  0
  -25.5030  -33.6690   24.0480 N   0  0  0  0  0  0  0  0  0  0  0  0
  -25.8130  -34.7550   23.3290 C   0  0  0  0  0  0  0  0  0  0  0  0
  -26.4500  -34.7000   22.2730 O   0  0  0  0  0  0  0  0  0  0  0  0
  -24.9350  -33.7860   24.8740 H   0  0  0  0  0  0  0  0  0  0  0  0
  -24.0760  -36.5600   23.1210 C   0  0  0  0  0  1  0  0  0  0  0  0
  -25.3440  -36.1200   23.8690 C   0  0  0  0  0  3  0  0  0  0  0  0
  -27.5080  -36.9610   24.6670 C   0  0  0  0  0  1  0  0  0  0  0  0
  -26.3750  -37.1770   23.7700 N   0  0  0  0  0  0  0  0  0  0  0  0
  -25.9760  -38.0880   23.9770 H   0  0  0  0  0  0  0  0  0  0  0  0
  -26.3700  -31.4590   24.8540 C   0  0  1  0  0  0  0  0  0  0  0  0
  -25.3290  -31.1740   25.9610 C   0  0  0  0  0  1  0  0  0  0  0  0
  -26.9290  -30.0990   24.3760 C   0  0  0  0  0  1  0  0  0  0  0  0
  -27.5570  -32.2210   25.4910 C   0  0  0  0  0  1  0  0  0  0  0  0
  1  3  2  0
  2  1  1  0
  2  4  2  0
  3  9  1  0
  3  5  1  0
  4  5  1  0
  6  4  1  0
  7  8  1  0
  7  6  2  0
 10  9  2  0
 11 10  1  0
 12 17  1  0
 13 14  1  0
 13 12  1  0
 15 14  1  0
 15 22  1  0
 15 16  1  0
 17 11  1  0
 17 16  1  0
 18 11  2  0
 19 20  2  0
 20 21  1  0
 20 39  1  0
 21 24  1  0
 22 19  1  0
 22 23  1  0
 23 21  2  0
 24 25  1  0
 25 26  2  0
 27 30  1  0
 27 26  1  0
 28 27  2  0
 29 28  1  0
 29 24  2  0
 30 31  1  0
 31 32  1  0
 32 33  2  0
 34 33  1  0
 34 38  1  0
 35 34  2  0
 36 31  2  0
 36 35  1  0
 37 36  1  0
 39 40  1  0
 40 43  1  0
 40 42  1  0
 41 39  2  0
 44 45  1  0
 44 19  1  0
 46 44  1  0
 47  2  1  0
 47 48  1  0
 49 48  1  0
 50 49  1  0
 51 53  1  0
 51 50  1  0
 52 63  2  0
 53 58  1  0
 54 62  1  0
 54 64  1  0
 55 61  1  0
 55 57  1  0
 56 62  1  0
 57 56  1  0
 58 57  2  0
 59 60  1  0
 59 53  2  0
 60 55  2  0
 61 54  1  0
 62 52  1  0
 64 66  2  0
 65 64  1  0
 67 65  1  0
 68 77  2  0
 68 73  1  0
 69 65  1  0
 69 73  1  0
 70 69  1  0
 71 72  1  0
 71 70  1  0
 72 68  1  0
 73 74  2  0
 74 75  1  0
 76 75  2  0
 77 76  1  0
 78 52  1  0
 78 79  1  0
 78 88  1  0
 79 82  1  0
 80 84  1  0
 80 79  1  0
 81 80  2  0
 84 83  1  0
 86 84  1  0
 86 87  1  0
 86 85  1  0
 88 91  1  1
 88 89  1  0
 90 88  1  0
M  ISO  4  10 100  11 100  50 101  51 101
M  END
>  <TORSDO>  (94) 
F 22

>  <SCORE>  (94) 
-12.825

>  <name>  (94) 
93

>  <ligand_id>  (94) 
93

>  <original_smiles>  (94) 
[H]C(C(=O)N1C([H])([H])C([H])([H])C([H])([H])C([H])(n2nc(-c3c([H])c([H])c(Oc4c([H])c([H])c(F)c([H])c4F)c([H])c3[H])c(C(=O)N([H])[H])c2N([H])[H])C1([H])[H])=C([H])c1sc(C([H])=C([H])C([H])([H])[H])c(OC([H])([H])C([H])([H])C([H])([H])Oc2c([H])c([H])c3c(c2[H])C([H])([H])N(C(=O)C([H])(N([H])C(=O)C([H])(N([H])C([H])([H])[H])C([H])([H])[H])C(C([H])([H])[H])(C([H])([H])[H])C([H])([H])[H])C([H])(C(=O)N([H])C2([H])c4c([H])c([H])c([H])c([H])c4C([H])([H])C([H])([H])C2([H])[H])C3([H])[H])c1[H]

>  <smiles>  (94) 
[H]C(C(=O)N1C([H])([H])C([H])([H])C([H])([H])C([H])(n2nc(-c3c([H])c([H])c(Oc4c([H])c([H])c(F)c([H])c4F)c([H])c3[H])c(C(=O)N([H])[H])c2N([H])[H])C1([H])[H])=C([H])c1sc(C([H])=C([H])C([H])([H])[H])c(OC([H])([H])C([H])([H])C([H])([H])Oc2c([H])c([H])c3c(c2[H])C([H])([H])N(C(=O)C([H])(N([H])C(=O)C([H])(N([H])C([H])([H])[H])C([H])([H])[H])C(C([H])([H])[H])(C([H])([H])[H])C([H])([H])[H])C([H])(C(=O)N([H])C2([H])c4c([H])c([H])c([H])c([H])c4C([H])([H])C([H])([H])C2([H])[H])C3([H])[H])c1[H]

$$$$
94:0:0
     RDKit          3D

 92100  0  0  1  0  0  0  0  0999 V2000
  -30.9330  -17.7340   21.6530 C   0  0  0  0  0  3  0  0  0  0  0  0
  -30.4810  -20.1610   21.6800 C   0  0  0  0  0  3  0  0  0  0  0  0
  -29.1810  -18.6780   20.2450 C   0  0  0  0  0  0  0  0  0  0  0  0
  -29.9680  -17.4850   20.6490 C   0  0  0  0  0  0  0  0  0  0  0  0
  -29.4700  -20.0530   20.7010 C   0  0  0  0  0  0  0  0  0  0  0  0
  -31.1740  -19.0290   22.1550 C   0  0  0  0  0  0  0  0  0  0  0  0
  -32.1220  -19.1970   23.1090 F   0  0  0  0  0  0  0  0  0  0  0  0
  -30.6000  -14.9100   20.4140 C   0  0  0  0  0  0  0  0  0  0  0  0
  -30.4130  -12.5820   19.4850 C   0  0  0  0  0  2  0  0  0  0  0  0
  -29.4900  -12.5410   18.2460 C   0  0  0  0  0  2  0  0  0  0  0  0
  -28.0150  -12.4000   18.6660 C   0  0  0  0  0  2  0  0  0  0  0  0
  -27.6140  -13.3330   19.8400 C   0  0  0  0  0  3  0  0  0  0  0  0
  -28.6630  -13.3380   20.9700 C   0  0  0  0  0  2  0  0  0  0  0  0
  -29.9470  -13.6900   20.3540 N   0  0  0  0  0  0  0  0  0  0  0  0
  -31.8290  -14.9140   20.2950 O   0  0  0  0  0  0  0  0  0  0  0  0
  -29.7090  -16.1120   18.5840 C   0  0  0  0  0  1  0  0  0  0  0  0
  -29.8960  -16.0860   20.0500 N   0  0  0  0  0  0  0  0  0  0  0  0
  -25.2270  -13.9340   20.5490 C   0  0  0  0  0  0  0  0  0  0  0  0
  -24.1530  -13.1650   20.9030 C   0  0  0  0  0  0  0  0  0  0  0  0
  -24.6130  -11.8130   20.8840 C   0  0  0  0  0  0  0  0  0  0  0  0
  -26.2700  -13.0500   20.3290 N   0  0  0  0  0  0  0  0  0  0  0  0
  -25.9090  -11.7690   20.5970 N   0  0  0  0  0  0  0  0  0  0  0  0
  -23.8780  -10.5540   21.0660 C   0  0  0  0  0  0  0  0  0  0  0  0
  -24.2990   -9.5830   22.0010 C   0  0  0  0  0  3  0  0  0  0  0  0
  -23.5670   -8.3890   22.1740 C   0  0  0  0  0  3  0  0  0  0  0  0
  -22.3990   -8.1590   21.4080 C   0  0  0  0  0  0  0  0  0  0  0  0
  -21.9980   -9.1170   20.4610 C   0  0  0  0  0  3  0  0  0  0  0  0
  -22.7310  -10.3020   20.2870 C   0  0  0  0  0  3  0  0  0  0  0  0
  -21.6370   -7.0180   21.4880 O   0  0  0  0  0  0  0  0  0  0  0  0
  -21.5810   -6.2700   22.6370 C   0  0  0  0  0  0  0  0  0  0  0  0
  -21.1630   -6.8240   23.8670 C   0  0  0  0  0  3  0  0  0  0  0  0
  -21.0520   -6.0020   25.0070 C   0  0  0  0  0  3  0  0  0  0  0  0
  -21.3480   -4.6290   24.9180 C   0  0  0  0  0  0  0  0  0  0  0  0
  -21.7610   -4.0760   23.6930 C   0  0  0  0  0  3  0  0  0  0  0  0
  -21.8730   -4.8930   22.5550 C   0  0  0  0  0  0  0  0  0  0  0  0
  -22.2480   -4.3500   21.3720 F   0  0  0  0  0  0  0  0  0  0  0  0
  -21.2350   -3.8390   26.0100 F   0  0  0  0  0  0  0  0  0  0  0  0
  -22.7550  -13.6490   21.1500 C   0  0  0  0  0  0  0  0  0  0  0  0
  -22.0100  -12.9610   22.0070 N   0  0  0  0  0  0  0  0  0  0  0  0
  -22.3290  -14.6720   20.6150 O   0  0  0  0  0  0  0  0  0  0  0  0
  -22.3680  -12.1360   22.4660 H   0  0  0  0  0  0  0  0  0  0  0  0
  -21.0690  -13.2660   22.2060 H   0  0  0  0  0  0  0  0  0  0  0  0
  -25.3960  -15.3040   20.3730 N   0  0  0  0  0  0  0  0  0  0  0  0
  -24.6290  -15.9590   20.4780 H   0  0  0  0  0  0  0  0  0  0  0  0
  -26.2630  -15.7480   20.1060 H   0  0  0  0  0  0  0  0  0  0  0  0
  -27.5090  -19.3070   18.4390 C   0  0  0  0  0  2  0  0  0  0  0  0
  -28.0150  -18.4670   19.3580 C   0  0  0  0  0  3  0  0  0  0  0  0
  -28.7850  -21.2380   20.2410 O   0  0  0  0  0  0  0  0  0  0  0  0
  -29.0300  -22.6730   20.6660 C   0  0  0  0  0  2  0  0  0  0  0  0
  -28.5580  -23.7870   19.6230 C   0  0  0  0  0  3  0  0  0  0  0  0
  -28.2700  -25.1580   19.5040 C   0  0  0  0  0  3  0  0  0  0  0  0
  -28.2610  -26.3360   20.3190 O   0  0  0  0  0  0  0  0  0  0  0  0
  -24.6090  -31.9360   23.2490 C   0  0  0  0  0  0  0  0  0  0  0  0
  -27.2030  -27.2890   20.2120 C   0  0  0  0  0  0  0  0  0  0  0  0
  -23.4070  -30.5340   21.6170 C   0  0  0  0  0  3  0  0  0  0  0  0
  -24.8560  -28.9740   20.1910 C   0  0  0  0  0  0  0  0  0  0  0  0
  -25.9560  -30.8260   21.4390 C   0  0  0  0  0  2  0  0  0  0  0  0
  -26.0330  -29.4400   20.7910 C   0  0  0  0  0  0  0  0  0  0  0  0
  -27.2080  -28.6100   20.7930 C   0  0  0  0  0  3  0  0  0  0  0  0
  -25.9920  -26.9010   19.5900 C   0  0  0  0  0  3  0  0  0  0  0  0
  -24.8430  -27.7140   19.5780 C   0  0  0  0  0  3  0  0  0  0  0  0
  -23.6240  -29.8590   20.2370 C   0  0  0  0  0  2  0  0  0  0  0  0
  -24.6770  -31.1190   22.1560 N   0  0  0  0  0  0  0  0  0  0  0  0
  -23.5240  -32.2170   23.7810 O   0  0  0  0  0  0  0  0  0  0  0  0
  -22.7400  -29.5210   22.5800 C   0  0  0  0  0  0  0  0  0  0  0  0
  -21.4130  -29.3450   22.4560 N   0  0  0  0  0  0  0  0  0  0  0  0
  -23.4170  -28.8970   23.4010 O   0  0  0  0  0  0  0  0  0  0  0  0
  -20.9220  -29.9000   21.7700 H   0  0  0  0  0  0  0  0  0  0  0  0
  -18.0350  -28.1440   22.9680 C   0  0  0  0  0  0  0  0  0  0  0  0
  -20.5950  -28.4090   23.2320 C   0  0  0  0  0  3  0  0  0  0  0  0
  -20.6960  -26.9740   22.6650 C   0  0  0  0  0  2  0  0  0  0  0  0
  -19.5940  -26.6450   21.6530 C   0  0  0  0  0  2  0  0  0  0  0  0
  -18.2130  -26.7910   22.2980 C   0  0  0  0  0  2  0  0  0  0  0  0
  -19.1530  -28.9100   23.3930 C   0  0  0  0  0  0  0  0  0  0  0  0
  -18.9330  -30.1740   23.9810 C   0  0  0  0  0  3  0  0  0  0  0  0
  -17.6280  -30.6740   24.1470 C   0  0  0  0  0  3  0  0  0  0  0  0
  -16.5240  -29.9050   23.7370 C   0  0  0  0  0  3  0  0  0  0  0  0
  -16.7280  -28.6410   23.1550 C   0  0  0  0  0  3  0  0  0  0  0  0
  -25.8890  -32.5750   23.8700 C   0  0  0  0  0  3  0  0  0  0  0  0
  -26.4000  -31.8170   25.1570 C   0  0  1  0  0  0  0  0  0  0  0  0
  -25.3020  -31.5940   26.2240 C   0  0  0  0  0  1  0  0  0  0  0  0
  -26.9810  -30.4330   24.7850 C   0  0  0  0  0  1  0  0  0  0  0  0
  -27.5500  -32.6170   25.8130 C   0  0  0  0  0  1  0  0  0  0  0  0
  -25.5800  -33.9770   24.1860 N   0  0  0  0  0  0  0  0  0  0  0  0
  -25.9120  -35.0250   23.4190 C   0  0  0  0  0  0  0  0  0  0  0  0
  -26.5800  -34.9110   22.3880 O   0  0  0  0  0  0  0  0  0  0  0  0
  -24.9880  -34.1390   24.9880 H   0  0  0  0  0  0  0  0  0  0  0  0
  -24.1860  -36.8180   23.0540 C   0  0  0  0  0  1  0  0  0  0  0  0
  -25.4290  -36.4170   23.8660 C   0  0  0  0  0  3  0  0  0  0  0  0
  -27.5660  -37.3060   24.6880 C   0  0  0  0  0  1  0  0  0  0  0  0
  -26.4640  -37.4680   23.7430 N   0  0  0  0  0  0  0  0  0  0  0  0
  -26.0600  -38.3900   23.8820 H   0  0  0  0  0  0  0  0  0  0  0  0
  1  6  1  0
  2  6  2  0
  3  4  1  0
  3  5  2  0
  4  1  2  0
  5  2  1  0
  6  7  1  0
  9 14  1  0
 10 11  1  0
 10  9  1  0
 12 11  1  0
 12 21  1  0
 12 13  1  0
 14  8  1  0
 14 13  1  0
 15  8  2  0
 16 17  1  0
 17  8  1  0
 17  4  1  0
 18 19  2  0
 19 38  1  0
 20 19  1  0
 20 23  1  0
 21 18  1  0
 21 22  1  0
 22 20  2  0
 23 24  1  0
 24 25  2  0
 26 29  1  0
 26 25  1  0
 27 26  2  0
 28 27  1  0
 28 23  2  0
 29 30  1  0
 30 31  1  0
 31 32  2  0
 33 32  1  0
 33 37  1  0
 34 33  2  0
 35 30  2  0
 35 34  1  0
 36 35  1  0
 38 39  1  0
 39 42  1  0
 39 41  1  0
 40 38  2  0
 43 44  1  0
 43 18  1  0
 45 43  1  0
 46 47  2  0
 47  3  1  0
 48 49  1  0
 48  5  1  0
 50 49  1  0
 51 50  2  0
 51 52  1  0
 53 64  2  0
 54 52  1  0
 54 59  1  0
 55 63  1  0
 55 65  1  0
 56 62  1  0
 56 58  1  0
 57 63  1  0
 58 59  2  0
 58 57  1  0
 60 54  2  0
 61 60  1  0
 61 56  2  0
 62 55  1  0
 63 53  1  0
 65 67  2  0
 66 65  1  0
 68 66  1  0
 69 78  2  0
 69 74  1  0
 70 66  1  0
 70 74  1  0
 71 70  1  0
 72 73  1  0
 72 71  1  0
 73 69  1  0
 74 75  2  0
 75 76  1  0
 77 76  2  0
 78 77  1  0
 79 53  1  0
 79 84  1  0
 79 80  1  0
 80 83  1  1
 80 81  1  0
 82 80  1  0
 84 87  1  0
 85 89  1  0
 85 84  1  0
 86 85  2  0
 89 88  1  0
 91 89  1  0
 91 92  1  0
 91 90  1  0
M  ISO  4   8 100  17 100  51 101  52 101
M  END
>  <TORSDO>  (95) 
F 20

>  <SCORE>  (95) 
-13.852

>  <name>  (95) 
94

>  <ligand_id>  (95) 
94

>  <original_smiles>  (95) 
[H]C([H])=C([H])c1c(OC([H])([H])C([H])=C([H])Oc2c([H])c([H])c3c(c2[H])C([H])([H])N(C(=O)C([H])(N([H])C(=O)C([H])(N([H])C([H])([H])[H])C([H])([H])[H])C(C([H])([H])[H])(C([H])([H])[H])C([H])([H])[H])C([H])(C(=O)N([H])C2([H])c4c([H])c([H])c([H])c([H])c4C([H])([H])C([H])([H])C2([H])[H])C3([H])[H])c([H])c(F)c([H])c1N(C(=O)N1C([H])([H])C([H])([H])C([H])([H])C([H])(n2nc(-c3c([H])c([H])c(Oc4c([H])c([H])c(F)c([H])c4F)c([H])c3[H])c(C(=O)N([H])[H])c2N([H])[H])C1([H])[H])C([H])([H])[H]

>  <smiles>  (95) 
[H]C([H])=C([H])c1c(OC([H])([H])C([H])=C([H])Oc2c([H])c([H])c3c(c2[H])C([H])([H])N(C(=O)C([H])(N([H])C(=O)C([H])(N([H])C([H])([H])[H])C([H])([H])[H])C(C([H])([H])[H])(C([H])([H])[H])C([H])([H])[H])C([H])(C(=O)N([H])C2([H])c4c([H])c([H])c([H])c([H])c4C([H])([H])C([H])([H])C2([H])[H])C3([H])[H])c([H])c(F)c([H])c1N(C(=O)N1C([H])([H])C([H])([H])C([H])([H])C([H])(n2nc(-c3c([H])c([H])c(Oc4c([H])c([H])c(F)c([H])c4F)c([H])c3[H])c(C(=O)N([H])[H])c2N([H])[H])C1([H])[H])C([H])([H])[H]

$$$$
95:0:0
     RDKit          3D

 92100  0  0  1  0  0  0  0  0999 V2000
  -28.8980  -19.7650   19.0620 C   0  0  0  0  0  3  0  0  0  0  0  0
  -30.9300  -19.0130   20.7190 C   0  0  0  0  0  3  0  0  0  0  0  0
  -29.2760  -18.3540   19.1660 C   0  0  0  0  0  0  0  0  0  0  0  0
  -29.4750  -20.8820   19.7690 C   0  0  0  0  0  0  0  0  0  0  0  0
  -30.3130  -17.8850   20.0480 C   0  0  0  0  0  0  0  0  0  0  0  0
  -30.5490  -20.4170   20.5990 C   0  0  0  0  0  0  0  0  0  0  0  0
  -31.2210  -21.3260   21.3460 F   0  0  0  0  0  0  0  0  0  0  0  0
  -31.1900  -15.2950   19.8000 C   0  0  0  0  0  0  0  0  0  0  0  0
  -31.0330  -12.9500   18.8130 C   0  0  0  0  0  2  0  0  0  0  0  0
  -29.9460  -12.8750   17.7140 C   0  0  0  0  0  2  0  0  0  0  0  0
  -28.5610  -12.5920   18.3250 C   0  0  0  0  0  2  0  0  0  0  0  0
  -28.2790  -13.4800   19.5620 C   0  0  0  0  0  3  0  0  0  0  0  0
  -29.4700  -13.4890   20.5390 C   0  0  0  0  0  2  0  0  0  0  0  0
  -30.6410  -14.0020   19.8020 N   0  0  0  0  0  0  0  0  0  0  0  0
  -32.2490  -15.4430   19.1790 O   0  0  0  0  0  0  0  0  0  0  0  0
  -30.5660  -16.4060   20.4590 N   0  0  0  0  0  0  0  0  0  0  0  0
  -26.0700  -13.9670   20.7620 C   0  0  0  0  0  0  0  0  0  0  0  0
  -25.0580  -13.1550   21.1930 C   0  0  0  0  0  0  0  0  0  0  0  0
  -25.4680  -11.8190   20.8940 C   0  0  0  0  0  0  0  0  0  0  0  0
  -27.0310  -13.1250   20.2270 N   0  0  0  0  0  0  0  0  0  0  0  0
  -26.6880  -11.8180   20.3670 N   0  0  0  0  0  0  0  0  0  0  0  0
  -24.7440  -10.5480   21.0260 C   0  0  0  0  0  0  0  0  0  0  0  0
  -25.1450   -9.5590   21.9510 C   0  0  0  0  0  3  0  0  0  0  0  0
  -24.4200   -8.3540   22.0710 C   0  0  0  0  0  3  0  0  0  0  0  0
  -23.2790   -8.1290   21.2650 C   0  0  0  0  0  0  0  0  0  0  0  0
  -22.8960   -9.1070   20.3300 C   0  0  0  0  0  3  0  0  0  0  0  0
  -23.6220  -10.3020   20.2070 C   0  0  0  0  0  3  0  0  0  0  0  0
  -22.5280   -6.9780   21.2950 O   0  0  0  0  0  0  0  0  0  0  0  0
  -22.2030   -6.3620   22.4770 C   0  0  0  0  0  0  0  0  0  0  0  0
  -21.4730   -7.0250   23.4870 C   0  0  0  0  0  3  0  0  0  0  0  0
  -21.0990   -6.3320   24.6560 C   0  0  0  0  0  3  0  0  0  0  0  0
  -21.4450   -4.9770   24.8130 C   0  0  0  0  0  0  0  0  0  0  0  0
  -22.1670   -4.3140   23.8060 C   0  0  0  0  0  3  0  0  0  0  0  0
  -22.5410   -5.0030   22.6390 C   0  0  0  0  0  0  0  0  0  0  0  0
  -23.2180   -4.3530   21.6630 F   0  0  0  0  0  0  0  0  0  0  0  0
  -21.0790   -4.3090   25.9320 F   0  0  0  0  0  0  0  0  0  0  0  0
  -23.7410  -13.5990   21.7590 C   0  0  0  0  0  0  0  0  0  0  0  0
  -23.1540  -12.8010   22.6450 N   0  0  0  0  0  0  0  0  0  0  0  0
  -23.2460  -14.6830   21.4540 O   0  0  0  0  0  0  0  0  0  0  0  0
  -23.5710  -11.9210   22.9110 H   0  0  0  0  0  0  0  0  0  0  0  0
  -22.2770  -13.0750   23.0640 H   0  0  0  0  0  0  0  0  0  0  0  0
  -26.2460  -15.3480   20.7570 N   0  0  0  0  0  0  0  0  0  0  0  0
  -25.5290  -15.9830   21.0900 H   0  0  0  0  0  0  0  0  0  0  0  0
  -27.0470  -15.8250   20.3630 H   0  0  0  0  0  0  0  0  0  0  0  0
  -29.7590  -16.9870   22.7080 C   0  0  0  0  0  2  0  0  0  0  0  0
  -30.4420  -16.2050   21.8500 C   0  0  0  0  0  3  0  0  0  0  0  0
  -27.2600  -17.4780   17.9350 C   0  0  0  0  0  2  0  0  0  0  0  0
  -28.5060  -17.3410   18.4180 C   0  0  0  0  0  3  0  0  0  0  0  0
  -29.1400  -23.5150   20.0670 C   0  0  0  0  0  3  0  0  0  0  0  0
  -28.8860  -22.2650   19.6180 N   0  0  0  0  0  0  0  0  0  0  0  0
  -28.1910  -24.8750   19.8050 C   0  0  0  0  0  2  0  0  0  0  0  0
  -28.4720  -26.3660   20.1850 O   0  0  0  0  0  0  0  0  0  0  0  0
  -24.7470  -31.9530   23.2650 C   0  0  0  0  0  0  0  0  0  0  0  0
  -27.4150  -27.3550   20.1220 C   0  0  0  0  0  0  0  0  0  0  0  0
  -23.5760  -30.5770   21.5900 C   0  0  0  0  0  3  0  0  0  0  0  0
  -25.0570  -29.0680   20.1280 C   0  0  0  0  0  0  0  0  0  0  0  0
  -26.1270  -30.8880   21.4410 C   0  0  0  0  0  2  0  0  0  0  0  0
  -26.2270  -29.5150   20.7540 C   0  0  0  0  0  0  0  0  0  0  0  0
  -27.4060  -28.6730   20.7380 C   0  0  0  0  0  3  0  0  0  0  0  0
  -26.2170  -27.0240   19.4460 C   0  0  0  0  0  3  0  0  0  0  0  0
  -25.0660  -27.8370   19.4590 C   0  0  0  0  0  3  0  0  0  0  0  0
  -23.8130  -29.9400   20.1950 C   0  0  0  0  0  2  0  0  0  0  0  0
  -24.8360  -31.1600   22.1530 N   0  0  0  0  0  0  0  0  0  0  0  0
  -23.6530  -32.2060   23.7960 O   0  0  0  0  0  0  0  0  0  0  0  0
  -22.9140  -29.5330   22.5240 C   0  0  0  0  0  0  0  0  0  0  0  0
  -21.5960  -29.3160   22.3660 N   0  0  0  0  0  0  0  0  0  0  0  0
  -23.5900  -28.9220   23.3560 O   0  0  0  0  0  0  0  0  0  0  0  0
  -21.1060  -29.8610   21.6710 H   0  0  0  0  0  0  0  0  0  0  0  0
  -18.2470  -28.0030   22.7950 C   0  0  0  0  0  0  0  0  0  0  0  0
  -20.7910  -28.3410   23.1090 C   0  0  0  0  0  3  0  0  0  0  0  0
  -20.9480  -26.9210   22.5160 C   0  0  0  0  0  2  0  0  0  0  0  0
  -19.8730  -26.5800   21.4780 C   0  0  0  0  0  2  0  0  0  0  0  0
  -18.4780  -26.6700   22.1010 C   0  0  0  0  0  2  0  0  0  0  0  0
  -19.3320  -28.7940   23.2550 C   0  0  0  0  0  0  0  0  0  0  0  0
  -19.0620  -30.0380   23.8640 C   0  0  0  0  0  3  0  0  0  0  0  0
  -17.7380  -30.4920   24.0180 C   0  0  0  0  0  3  0  0  0  0  0  0
  -16.6670  -29.6980   23.5740 C   0  0  0  0  0  3  0  0  0  0  0  0
  -16.9210  -28.4550   22.9690 C   0  0  0  0  0  3  0  0  0  0  0  0
  -26.0110  -32.5980   23.9100 C   0  0  0  0  0  3  0  0  0  0  0  0
  -26.5160  -31.8230   25.1890 C   0  0  1  0  0  0  0  0  0  0  0  0
  -25.4050  -31.5510   26.2300 C   0  0  0  0  0  1  0  0  0  0  0  0
  -27.1370  -30.4630   24.8000 C   0  0  0  0  0  1  0  0  0  0  0  0
  -27.6350  -32.6360   25.8840 C   0  0  0  0  0  1  0  0  0  0  0  0
  -25.6790  -33.9900   24.2510 N   0  0  0  0  0  0  0  0  0  0  0  0
  -25.9630  -35.0530   23.4860 C   0  0  0  0  0  0  0  0  0  0  0  0
  -26.5970  -34.9660   22.4320 O   0  0  0  0  0  0  0  0  0  0  0  0
  -25.1090  -34.1290   25.0720 H   0  0  0  0  0  0  0  0  0  0  0  0
  -24.1720  -36.8030   23.2220 C   0  0  0  0  0  1  0  0  0  0  0  0
  -25.4640  -36.4310   23.9670 C   0  0  0  0  0  3  0  0  0  0  0  0
  -27.6120  -37.3800   24.6880 C   0  0  0  0  0  1  0  0  0  0  0  0
  -26.4620  -37.5100   23.7970 N   0  0  0  0  0  0  0  0  0  0  0  0
  -26.0390  -38.4210   23.9570 H   0  0  0  0  0  0  0  0  0  0  0  0
  1  3  2  0
  1  4  1  0
  3  5  1  0
  4  6  2  0
  5 16  1  0
  5  2  2  0
  6  2  1  0
  6  7  1  0
  8 14  1  0
  8 16  1  0
  9 14  1  0
 10 11  1  0
 10  9  1  0
 12 11  1  0
 12 20  1  0
 12 13  1  0
 14 13  1  0
 15  8  2  0
 16 46  1  0
 17 18  2  0
 18 37  1  0
 19 22  1  0
 19 18  1  0
 20 21  1  0
 20 17  1  0
 21 19  2  0
 22 23  1  0
 23 24  2  0
 25 28  1  0
 25 24  1  0
 26 25  2  0
 27 26  1  0
 27 22  2  0
 28 29  1  0
 29 34  2  0
 29 30  1  0
 30 31  2  0
 31 32  1  0
 32 36  1  0
 33 32  2  0
 34 33  1  0
 35 34  1  0
 37 38  1  0
 38 40  1  0
 38 41  1  0
 39 37  2  0
 42 17  1  0
 42 43  1  0
 44 42  1  0
 46 45  2  0
 47 48  2  0
 48  3  1  0
 50  4  1  0
 50 49  2  0
 51 49  1  0
 51 52  1  0
 53 64  2  0
 54 52  1  0
 54 59  1  0
 55 63  1  0
 55 65  1  0
 56 62  1  0
 56 58  1  0
 57 63  1  0
 58 57  1  0
 59 58  2  0
 60 61  1  0
 60 54  2  0
 61 56  2  0
 62 55  1  0
 63 53  1  0
 65 67  2  0
 66 65  1  0
 68 66  1  0
 69 78  2  0
 69 74  1  0
 70 66  1  0
 70 74  1  0
 71 70  1  0
 72 73  1  0
 72 71  1  0
 73 69  1  0
 74 75  2  0
 75 76  1  0
 77 76  2  0
 78 77  1  0
 79 53  1  0
 79 84  1  0
 79 80  1  0
 80 83  1  1
 80 81  1  0
 82 80  1  0
 84 87  1  0
 85 89  1  0
 85 84  1  0
 86 85  2  0
 89 88  1  0
 91 92  1  0
 91 89  1  0
 91 90  1  0
M  ISO  4   8 100  16 100  51 101  52 101
M  END
>  <TORSDO>  (96) 
F 20

>  <SCORE>  (96) 
-10.236

>  <name>  (96) 
95

>  <ligand_id>  (96) 
95

>  <original_smiles>  (96) 
[H]C(=Nc1c([H])c(C([H])=C([H])[H])c(N(C(=O)N2C([H])([H])C([H])([H])C([H])([H])C([H])(n3nc(-c4c([H])c([H])c(Oc5c([H])c([H])c(F)c([H])c5F)c([H])c4[H])c(C(=O)N([H])[H])c3N([H])[H])C2([H])[H])C([H])=C([H])[H])c([H])c1F)C([H])([H])Oc1c([H])c([H])c2c(c1[H])C([H])([H])N(C(=O)C([H])(N([H])C(=O)C([H])(N([H])C([H])([H])[H])C([H])([H])[H])C(C([H])([H])[H])(C([H])([H])[H])C([H])([H])[H])C([H])(C(=O)N([H])C1([H])c3c([H])c([H])c([H])c([H])c3C([H])([H])C([H])([H])C1([H])[H])C2([H])[H]

>  <smiles>  (96) 
[H]C(=Nc1c([H])c(C([H])=C([H])[H])c(N(C(=O)N2C([H])([H])C([H])([H])C([H])([H])C([H])(n3nc(-c4c([H])c([H])c(Oc5c([H])c([H])c(F)c([H])c5F)c([H])c4[H])c(C(=O)N([H])[H])c3N([H])[H])C2([H])[H])C([H])=C([H])[H])c([H])c1F)C([H])([H])Oc1c([H])c([H])c2c(c1[H])C([H])([H])N(C(=O)C([H])(N([H])C(=O)C([H])(N([H])C([H])([H])[H])C([H])([H])[H])C(C([H])([H])[H])(C([H])([H])[H])C([H])([H])[H])C([H])(C(=O)N([H])C1([H])c3c([H])c([H])c([H])c([H])c3C([H])([H])C([H])([H])C1([H])[H])C2([H])[H]

$$$$
